# generated using pymatgen
data_Mn9Au31
_symmetry_space_group_name_H-M   'P 1'
_cell_length_a   12.93632500
_cell_length_b   12.93632500
_cell_length_c   4.02270700
_cell_angle_alpha   90.00000000
_cell_angle_beta   90.00000000
_cell_angle_gamma   90.00000000
_symmetry_Int_Tables_number   1
_chemical_formula_structural   Mn9Au31
_chemical_formula_sum   'Mn9 Au31'
_cell_volume   673.19400051
_cell_formula_units_Z   1
loop_
 _symmetry_equiv_pos_site_id
 _symmetry_equiv_pos_as_xyz
  1  'x, y, z'
loop_
 _atom_site_type_symbol
 _atom_site_label
 _atom_site_symmetry_multiplicity
 _atom_site_fract_x
 _atom_site_fract_y
 _atom_site_fract_z
 _atom_site_occupancy
  Mn  Mn0  1  0.64970300  0.94965300  0.50000000  1
  Mn  Mn1  1  0.94965300  0.35029700  0.50000000  1
  Mn  Mn2  1  0.05034700  0.64970300  0.50000000  1
  Mn  Mn3  1  0.35029700  0.05034700  0.50000000  1
  Mn  Mn4  1  0.70236100  0.60198200  0.00000000  1
  Mn  Mn5  1  0.60198200  0.29763900  0.00000000  1
  Mn  Mn6  1  0.39801800  0.70236100  0.00000000  1
  Mn  Mn7  1  0.29763900  0.39801800  0.00000000  1
  Mn  Mn8  1  0.00000000  0.00000000  0.00000000  1
  Au  Au0  1  0.69732800  0.09856400  0.00000000  1
  Au  Au1  1  0.90143600  0.69732800  0.00000000  1
  Au  Au2  1  0.40024700  0.19976500  0.00000000  1
  Au  Au3  1  0.19976500  0.59975300  0.00000000  1
  Au  Au4  1  0.80023500  0.40024700  0.00000000  1
  Au  Au5  1  0.59975300  0.80023500  0.00000000  1
  Au  Au6  1  0.04630900  0.14833700  0.50000000  1
  Au  Au7  1  0.14833700  0.95369100  0.50000000  1
  Au  Au8  1  0.85166300  0.04630900  0.50000000  1
  Au  Au9  1  0.95369100  0.85166300  0.50000000  1
  Au  Au10  1  0.25382400  0.25257600  0.50000000  1
  Au  Au11  1  0.25257600  0.74617600  0.50000000  1
  Au  Au12  1  0.74742400  0.25382400  0.50000000  1
  Au  Au13  1  0.74617600  0.74742400  0.50000000  1
  Au  Au14  1  0.15012700  0.44977500  0.50000000  1
  Au  Au15  1  0.44977500  0.84987300  0.50000000  1
  Au  Au16  1  0.55022500  0.15012700  0.50000000  1
  Au  Au17  1  0.84987300  0.55022500  0.50000000  1
  Au  Au18  1  0.45303900  0.35024500  0.50000000  1
  Au  Au19  1  0.35024500  0.54696100  0.50000000  1
  Au  Au20  1  0.64975500  0.45303900  0.50000000  1
  Au  Au21  1  0.54696100  0.64975500  0.50000000  1
  Au  Au22  1  0.30267200  0.90143600  0.00000000  1
  Au  Au23  1  0.09856400  0.30267200  0.00000000  1
  Au  Au24  1  0.79710700  0.90228400  0.00000000  1
  Au  Au25  1  0.90228400  0.20289300  0.00000000  1
  Au  Au26  1  0.09771600  0.79710700  0.00000000  1
  Au  Au27  1  0.20289300  0.09771600  0.00000000  1
  Au  Au28  1  0.00000000  0.50000000  0.00000000  1
  Au  Au29  1  0.50000000  0.00000000  0.00000000  1
  Au  Au30  1  0.50000000  0.50000000  0.00000000  1
loop_
_geom_bond_atom_site_label_1
_geom_bond_atom_site_label_2
_geom_bond_distance
_geom_bond_site_symmetry_2
Au0 Mn0 2.852364 1_544
Au0 Mn0 2.852364 1_545
Au0 Mn5 2.855435 1_555
Au1 Mn2 2.852364 1_655
Au1 Mn2 2.852364 1_654
Au1 Mn4 2.855435 1_555
Au2 Mn3 2.863434 1_554
Au2 Mn3 2.863434 1_555
Au2 Mn7 2.887805 1_555
Au2 Mn5 2.900632 1_555
Au3 Mn2 2.863434 1_555
Au3 Mn2 2.863434 1_554
Au3 Mn6 2.887805 1_555
Au3 Mn7 2.900632 1_555
Au4 Mn1 2.863434 1_555
Au4 Mn1 2.863434 1_554
Au4 Mn5 2.887805 1_555
Au4 Mn4 2.900632 1_555
Au5 Mn0 2.863434 1_555
Au5 Mn0 2.863434 1_554
Au5 Mn4 2.887805 1_555
Au5 Mn6 2.900632 1_555
Au6 Mn8 2.843719 1_555
Au6 Mn8 2.843719 1_556
Au6 Mn1 2.896415 1_455
Au7 Mn8 2.843719 1_566
Au7 Mn8 2.843719 1_565
Au7 Mn3 2.896415 1_565
Au8 Mn8 2.843719 1_656
Au8 Mn8 2.843719 1_655
Au8 Mn0 2.896415 1_545
Au9 Mn8 2.843719 1_665
Au9 Mn8 2.843719 1_666
Au9 Mn2 2.896415 1_655
Au10 Mn7 2.811903 1_555
Au10 Mn7 2.811903 1_556
Au10 Mn3 2.898534 1_555
Au11 Mn6 2.811903 1_555
Au11 Mn6 2.811903 1_556
Au11 Mn2 2.898534 1_555
Au12 Mn5 2.811903 1_556
Au12 Mn5 2.811903 1_555
Au12 Mn1 2.898534 1_555
Au13 Mn4 2.811903 1_555
Au13 Mn4 2.811903 1_556
Au13 Mn0 2.898534 1_555
Au14 Mn7 2.852245 1_555
Au14 Mn7 2.852245 1_556
Au14 Mn2 2.890545 1_555
Au14 Mn1 2.895128 1_455
Au15 Mn6 2.852245 1_555
Au15 Mn6 2.852245 1_556
Au15 Mn0 2.890545 1_555
Au15 Mn3 2.895128 1_565
Au16 Mn5 2.852245 1_555
Au16 Mn5 2.852245 1_556
Au16 Mn3 2.890545 1_555
Au16 Mn0 2.895128 1_545
Au17 Mn4 2.852245 1_555
Au17 Mn4 2.852245 1_556
Au17 Mn1 2.890545 1_555
Au17 Mn2 2.895128 1_655
Au18 Au30 2.857911 1_555
Au18 Au30 2.857911 1_556
Au18 Mn5 2.867250 1_555
Au18 Mn5 2.867250 1_556
Au18 Mn7 2.910121 1_556
Au18 Mn7 2.910121 1_555
Au19 Au30 2.857911 1_556
Au19 Au30 2.857911 1_555
Au19 Mn7 2.867250 1_555
Au19 Mn7 2.867250 1_556
Au19 Mn6 2.910121 1_555
Au19 Mn6 2.910121 1_556
Au20 Au30 2.857911 1_556
Au20 Au30 2.857911 1_555
Au20 Mn4 2.867250 1_555
Au20 Mn4 2.867250 1_556
Au20 Mn5 2.910121 1_555
Au20 Mn5 2.910121 1_556
Au21 Au30 2.857911 1_556
Au21 Au30 2.857911 1_555
Au21 Mn6 2.867250 1_556
Au21 Mn6 2.867250 1_555
Au21 Mn4 2.910121 1_555
Au21 Mn4 2.910121 1_556
Au22 Mn3 2.852364 1_564
Au22 Mn3 2.852364 1_565
Au22 Mn6 2.855435 1_555
Au23 Mn1 2.852364 1_455
Au23 Mn1 2.852364 1_454
Au23 Mn7 2.855435 1_555
Au24 Mn0 2.838517 1_555
Au24 Mn0 2.838517 1_554
Au24 Mn8 2.913230 1_665
Au25 Mn1 2.838517 1_554
Au25 Mn1 2.838517 1_555
Au25 Mn8 2.913230 1_655
Au26 Mn2 2.838517 1_554
Au26 Mn2 2.838517 1_555
Au26 Mn8 2.913230 1_565
Au27 Mn3 2.838517 1_555
Au27 Mn3 2.838517 1_554
Au27 Mn8 2.913230 1_555
Au28 Mn2 2.867087 1_555
Au28 Mn2 2.867087 1_554
Au28 Mn1 2.867087 1_455
Au28 Mn1 2.867087 1_454
Au29 Mn0 2.867087 1_544
Au29 Mn0 2.867087 1_545
Au29 Mn3 2.867087 1_555
Au29 Mn3 2.867087 1_554
Au30 Mn4 2.931450 1_555
Au30 Mn7 2.931450 1_555
Au30 Mn5 2.931450 1_555
Au30 Mn6 2.931450 1_555
