# generated using pymatgen
data_Ag3Ir4PbO14
_symmetry_space_group_name_H-M   'P 1'
_cell_length_a   7.19631050
_cell_length_b   7.15306504
_cell_length_c   7.15306617
_cell_angle_alpha   60.00000365
_cell_angle_beta   60.19859449
_cell_angle_gamma   60.19859703
_symmetry_Int_Tables_number   1
_chemical_formula_structural   Ag3Ir4PbO14
_chemical_formula_sum   'Ag3 Ir4 Pb1 O14'
_cell_volume   261.14184999
_cell_formula_units_Z   1
loop_
 _symmetry_equiv_pos_site_id
 _symmetry_equiv_pos_as_xyz
  1  'x, y, z'
loop_
 _atom_site_type_symbol
 _atom_site_label
 _atom_site_symmetry_multiplicity
 _atom_site_fract_x
 _atom_site_fract_y
 _atom_site_fract_z
 _atom_site_occupancy
  Ag  Ag0  1  0.12500000  0.62500000  0.12500000  1
  Ag  Ag1  1  0.12500000  0.12500000  0.62500000  1
  Ag  Ag2  1  0.12500000  0.12500000  0.12500000  1
  Ir  Ir0  1  0.12500000  0.62500000  0.62500000  1
  Ir  Ir1  1  0.62500000  0.12500000  0.62500000  1
  Ir  Ir2  1  0.62500000  0.62500000  0.12500000  1
  Ir  Ir3  1  0.62500000  0.62500000  0.62500000  1
  Pb  Pb0  1  0.62500000  0.12500000  0.12500000  1
  O  O0  1  0.69430656  0.71129874  0.29719785  1
  O  O1  1  0.30385844  0.30043620  0.69785318  1
  O  O2  1  0.69430656  0.29719785  0.71129874  1
  O  O3  1  0.30385844  0.69785318  0.30043620  1
  O  O4  1  0.30385844  0.69785318  0.69785318  1
  O  O5  1  0.69430656  0.29719785  0.29719785  1
  O  O6  1  0.55569344  0.53870126  0.95280215  1
  O  O7  1  0.94614156  0.94956380  0.55214682  1
  O  O8  1  0.55569344  0.95280215  0.53870126  1
  O  O9  1  0.94614156  0.55214682  0.94956380  1
  O  O10  1  0.94614156  0.55214682  0.55214682  1
  O  O11  1  0.55569344  0.95280215  0.95280215  1
  O  O12  1  0.22760702  0.25746433  0.25746433  1
  O  O13  1  0.02239298  0.99253567  0.99253567  1
loop_
_geom_bond_atom_site_label_1
_geom_bond_atom_site_label_2
_geom_bond_distance
_geom_bond_site_symmetry_2
Ag0 O13 2.151632 1_554
Ag0 O12 2.151632 1_555
Ag0 O10 2.535587 1_455
Ag0 O4 2.535587 1_554
Ag0 O3 2.535593 1_555
Ag0 O9 2.535593 1_454
Ag0 O6 2.562892 1_554
Ag0 O0 2.562892 1_455
Ag1 O13 2.151633 1_545
Ag1 O12 2.151633 1_555
Ag1 O10 2.535587 1_455
Ag1 O4 2.535587 1_545
Ag1 O1 2.535593 1_555
Ag1 O7 2.535593 1_445
Ag1 O8 2.562892 1_545
Ag1 O2 2.562892 1_455
Ag2 O12 2.151632 1_555
Ag2 O13 2.151632 1_544
Ag2 O9 2.535588 1_454
Ag2 O3 2.535588 1_545
Ag2 O7 2.535588 1_445
Ag2 O1 2.535588 1_554
Ag2 O11 2.562893 1_544
Ag2 O5 2.562893 1_455
Ir0 O7 1.950591 1_455
Ir0 O1 1.950591 1_555
Ir0 O9 1.950591 1_455
Ir0 O3 1.950591 1_555
Ir0 O4 1.950596 1_555
Ir0 O10 1.950596 1_455
Ir1 O7 1.939433 1_545
Ir1 O1 1.939433 1_555
Ir1 O11 1.955507 1_545
Ir1 O5 1.955507 1_555
Ir1 O2 1.955512 1_555
Ir1 O8 1.955512 1_545
Ir2 O9 1.939433 1_554
Ir2 O3 1.939433 1_555
Ir2 O11 1.955507 1_554
Ir2 O5 1.955507 1_555
Ir2 O0 1.955512 1_555
Ir2 O6 1.955512 1_554
Ir3 O10 1.939432 1_555
Ir3 O4 1.939432 1_555
Ir3 O8 1.955506 1_555
Ir3 O2 1.955506 1_555
Ir3 O6 1.955506 1_555
Ir3 O0 1.955506 1_555
O0 Pb0 2.453890 1_565
O2 Pb0 2.453890 1_556
O5 Pb0 2.453896 1_555
O6 Pb0 2.453890 1_556
O8 Pb0 2.453890 1_565
O11 Pb0 2.453896 1_566
O12 Pb0 2.341971 1_555
O13 Pb0 2.341971 1_466
