# generated using pymatgen
data_Hf4Zr2BBr12
_symmetry_space_group_name_H-M   'P 1'
_cell_length_a   8.50814101
_cell_length_b   8.50973187
_cell_length_c   8.52114527
_cell_angle_alpha   107.22661699
_cell_angle_beta   106.98595558
_cell_angle_gamma   107.13756124
_symmetry_Int_Tables_number   1
_chemical_formula_structural   Hf4Zr2BBr12
_chemical_formula_sum   'Hf4 Zr2 B1 Br12'
_cell_volume   512.15375612
_cell_formula_units_Z   1
loop_
 _symmetry_equiv_pos_site_id
 _symmetry_equiv_pos_as_xyz
  1  'x, y, z'
loop_
 _atom_site_type_symbol
 _atom_site_label
 _atom_site_symmetry_multiplicity
 _atom_site_fract_x
 _atom_site_fract_y
 _atom_site_fract_z
 _atom_site_occupancy
  Hf  Hf0  1  0.09653838  0.02950957  0.28763669  1
  Hf  Hf1  1  0.90472879  0.96843125  0.71254174  1
  Hf  Hf2  1  0.70953922  0.90156059  0.96887510  1
  Hf  Hf3  1  0.03185521  0.29006438  0.09734749  1
  Zr  Zr0  1  0.97143944  0.71035712  0.90329482  1
  Zr  Zr1  1  0.29001613  0.09630978  0.03015431  1
  B  B0  1  0.99701225  0.00195688  0.00108391  1
  Br  Br0  1  0.92077092  0.30895151  0.77523092  1
  Br  Br1  1  0.69076553  0.22532868  0.07902928  1
  Br  Br2  1  0.44631304  0.14440870  0.37555230  1
  Br  Br3  1  0.85370056  0.62989626  0.54826953  1
  Br  Br4  1  0.22091430  0.07877142  0.68212666  1
  Br  Br5  1  0.62503444  0.55229848  0.85493419  1
  Br  Br6  1  0.36969726  0.45222094  0.14705587  1
  Br  Br7  1  0.77565611  0.92264425  0.31114927  1
  Br  Br8  1  0.14311812  0.36985940  0.44582416  1
  Br  Br9  1  0.55484655  0.85604690  0.63030617  1
  Br  Br10  1  0.31875683  0.77273360  0.92005257  1
  Br  Br11  1  0.07929693  0.68865129  0.22953700  1
loop_
_geom_bond_atom_site_label_1
_geom_bond_atom_site_label_2
_geom_bond_distance
_geom_bond_site_symmetry_2
B0 Hf3 2.238319 1_655
B0 Hf2 2.241628 1_544
B0 Hf1 2.251156 1_544
B0 Hf0 2.251671 1_655
B0 Zr0 2.291371 1_544
B0 Zr1 2.294004 1_655
Br0 Hf3 2.699655 1_656
Br0 Hf1 2.740133 1_545
Br0 Zr0 3.113551 1_555
Br1 Hf2 2.704211 1_544
Br1 Hf3 2.737135 1_655
Br1 Zr1 3.114127 1_555
Br2 Hf0 2.630999 1_555
Br2 Zr1 2.697624 1_555
Br3 Hf1 2.639406 1_555
Br3 Zr0 2.687477 1_555
Br4 Hf1 2.692324 1_445
Br4 Zr1 2.798231 1_556
Br4 Hf0 3.069334 1_555
Br5 Hf2 2.629969 1_555
Br5 Zr0 2.700214 1_555
Br6 Hf3 2.636413 1_555
Br6 Zr1 2.689487 1_555
Br7 Hf0 2.699073 1_665
Br7 Hf2 2.743535 1_554
Br7 Hf1 3.133735 1_555
Br8 Hf3 2.638026 1_555
Br8 Hf0 2.657356 1_555
Br9 Hf1 2.640786 1_555
Br9 Hf2 2.650408 1_555
Br10 Zr1 2.742762 1_566
Br10 Zr0 2.796156 1_455
Br10 Hf2 3.033646 1_555
Br11 Zr0 2.741879 1_454
Br11 Hf0 2.745254 1_565
Br11 Hf3 3.098550 1_555
