# generated using pymatgen
data_Ca10TiTcN10
_symmetry_space_group_name_H-M   'P 1'
_cell_length_a   6.87457253
_cell_length_b   6.87457123
_cell_length_c   8.86497870
_cell_angle_alpha   80.66490309
_cell_angle_beta   80.66489447
_cell_angle_gamma   59.82671460
_symmetry_Int_Tables_number   1
_chemical_formula_structural   Ca10TiTcN10
_chemical_formula_sum   'Ca10 Ti1 Tc1 N10'
_cell_volume   355.79315584
_cell_formula_units_Z   1
loop_
 _symmetry_equiv_pos_site_id
 _symmetry_equiv_pos_as_xyz
  1  'x, y, z'
loop_
 _atom_site_type_symbol
 _atom_site_label
 _atom_site_symmetry_multiplicity
 _atom_site_fract_x
 _atom_site_fract_y
 _atom_site_fract_z
 _atom_site_occupancy
  Ca  Ca0  1  0.87940313  0.35199170  0.83026823  1
  Ca  Ca1  1  0.87504819  0.87504819  0.82010999  1
  Ca  Ca2  1  0.73791450  0.73791450  0.53586247  1
  Ca  Ca3  1  0.74619847  0.25032155  0.51236718  1
  Ca  Ca4  1  0.62856966  0.13750119  0.14427191  1
  Ca  Ca5  1  0.35199170  0.87940313  0.83026823  1
  Ca  Ca6  1  0.25032155  0.74619847  0.51236718  1
  Ca  Ca7  1  0.24255426  0.24255426  0.50135793  1
  Ca  Ca8  1  0.14164889  0.14164889  0.15741085  1
  Ca  Ca9  1  0.13750119  0.62856966  0.14427191  1
  Ti  Ti0  1  0.36934830  0.36934830  0.77438519  1
  Tc  Tc0  1  0.63262262  0.63262262  0.22888007  1
  N  N0  1  0.90362598  0.47479393  0.31735507  1
  N  N1  1  0.99621472  0.99621472  0.01724319  1
  N  N2  1  0.67832185  0.67832185  0.02642458  1
  N  N3  1  0.53608892  0.53608892  0.69309717  1
  N  N4  1  0.47479393  0.90362598  0.31735507  1
  N  N5  1  0.53805520  0.08467391  0.67528843  1
  N  N6  1  0.47672107  0.47672107  0.29379470  1
  N  N7  1  0.31922762  0.31922762  0.99248566  1
  N  N8  1  0.06144035  0.06144035  0.64565658  1
  N  N9  1  0.08467391  0.53805520  0.67528843  1
loop_
_geom_bond_atom_site_label_1
_geom_bond_atom_site_label_2
_geom_bond_distance
_geom_bond_site_symmetry_2
Ca0 N3 2.465739 1_555
Ca0 N8 2.473357 1_655
Ca0 N9 2.475966 1_655
Ca0 N1 2.552754 1_546
Ca0 N2 2.708480 1_556
Ca1 N8 2.457695 1_665
Ca1 N1 2.466510 1_556
Ca1 N9 2.469952 1_655
Ca1 N5 2.469953 1_565
Ca1 N2 2.690139 1_556
Ca2 N5 2.492109 1_565
Ca2 N9 2.492110 1_655
Ca2 N3 2.544275 1_555
Ca2 N0 2.582885 1_555
Ca2 N4 2.582885 1_555
Ca3 N8 2.298491 1_655
Ca3 N5 2.421604 1_555
Ca3 N3 2.435270 1_555
Ca3 N0 2.597618 1_555
Ca3 N6 2.626121 1_555
Ca4 N1 2.358624 1_545
Ca4 N7 2.367710 1_554
Ca4 N6 2.528182 1_555
Ca4 N4 2.537494 1_545
Ca5 N3 2.465738 1_555
Ca5 N8 2.473358 1_565
Ca5 N5 2.475966 1_565
Ca5 N1 2.552754 1_456
Ca5 N2 2.708481 1_556
Ca6 N8 2.298490 1_565
Ca6 N9 2.421604 1_555
Ca6 N3 2.435270 1_555
Ca6 N4 2.597618 1_555
Ca6 N6 2.626121 1_555
Ca7 N8 2.293850 1_555
Ca7 N9 2.437016 1_555
Ca7 N5 2.437017 1_555
Ca7 N4 2.699495 1_545
Ca7 N0 2.699496 1_455
Ca7 N6 3.041669 1_555
Ca8 N1 2.313892 1_445
Ca8 N7 2.336288 1_554
Ca8 N0 2.542983 1_455
Ca8 N4 2.542984 1_545
Ca9 N1 2.358623 1_455
Ca9 N7 2.367709 1_554
Ca9 N6 2.528183 1_555
Ca9 N0 2.537494 1_455
N0 Tc0 1.851833 1_555
N2 Tc0 1.775372 1_555
N3 Ti0 1.982933 1_555
N4 Tc0 1.851833 1_555
N5 Ti0 1.972908 1_555
N6 Tc0 1.839289 1_555
N7 Ti0 1.913842 1_555
N9 Ti0 1.972908 1_555
