# generated using pymatgen
data_Rb7TaAs4
_symmetry_space_group_name_H-M   'P 1'
_cell_length_a   8.66187726
_cell_length_b   9.53346136
_cell_length_c   10.65370028
_cell_angle_alpha   90.00000000
_cell_angle_beta   90.00000000
_cell_angle_gamma   90.00000000
_symmetry_Int_Tables_number   1
_chemical_formula_structural   Rb7TaAs4
_chemical_formula_sum   'Rb14 Ta2 As8'
_cell_volume   879.75776875
_cell_formula_units_Z   2
loop_
 _symmetry_equiv_pos_site_id
 _symmetry_equiv_pos_as_xyz
  1  'x, y, z'
loop_
 _atom_site_type_symbol
 _atom_site_label
 _atom_site_symmetry_multiplicity
 _atom_site_fract_x
 _atom_site_fract_y
 _atom_site_fract_z
 _atom_site_occupancy
  Rb  Rb0  1  0.87479580  0.03671444  0.00000000  1
  Rb  Rb1  1  0.70659679  0.83381683  0.71387896  1
  Rb  Rb2  1  0.39477753  0.89792009  0.00000000  1
  Rb  Rb3  1  0.37479580  0.96328556  0.50000000  1
  Rb  Rb4  1  0.87466843  0.46858467  0.29075341  1
  Rb  Rb5  1  0.89477753  0.10207991  0.50000000  1
  Rb  Rb6  1  0.66323934  0.34176248  0.00000000  1
  Rb  Rb7  1  0.16323934  0.65823752  0.50000000  1
  Rb  Rb8  1  0.20659679  0.16618317  0.21387896  1
  Rb  Rb9  1  0.37466843  0.53141533  0.20924659  1
  Rb  Rb10  1  0.37466843  0.53141533  0.79075341  1
  Rb  Rb11  1  0.87466843  0.46858467  0.70924659  1
  Rb  Rb12  1  0.70659679  0.83381683  0.28612104  1
  Rb  Rb13  1  0.20659679  0.16618317  0.78612104  1
  Ta  Ta0  1  0.99843758  0.67527955  0.00000000  1
  Ta  Ta1  1  0.49843758  0.32472045  0.50000000  1
  As  As0  1  0.71121446  0.68607352  0.00000000  1
  As  As1  1  0.21121446  0.31392648  0.50000000  1
  As  As2  1  0.07389746  0.42110872  0.00000000  1
  As  As3  1  0.57389746  0.57889128  0.50000000  1
  As  As4  1  0.09110569  0.80235333  0.19523055  1
  As  As5  1  0.59110569  0.19764667  0.30476945  1
  As  As6  1  0.59110569  0.19764667  0.69523055  1
  As  As7  1  0.09110569  0.80235333  0.80476945  1
loop_
_geom_bond_atom_site_label_1
_geom_bond_atom_site_label_2
_geom_bond_distance
_geom_bond_site_symmetry_2
As0 Ta0 2.490019 1_555
As0 Rb6 3.308676 1_555
As0 Rb12 3.358169 1_555
As0 Rb1 3.358169 1_554
As0 Rb2 3.404651 1_555
As0 Rb0 3.630719 1_565
As1 Ta1 2.490019 1_555
As1 Rb7 3.308676 1_555
As1 Rb13 3.358169 1_555
As1 Rb8 3.358169 1_555
As1 Rb5 3.404651 1_455
As1 Rb3 3.630719 1_545
As2 Ta0 2.509736 1_455
As2 Rb8 3.524156 1_555
As2 Rb13 3.524156 1_554
As2 Rb4 3.574634 1_455
As2 Rb11 3.574634 1_454
As2 Rb9 3.586462 1_555
As2 Rb10 3.586462 1_554
As2 Rb6 3.636613 1_455
As3 Ta1 2.509736 1_555
As3 Rb1 3.524156 1_555
As3 Rb12 3.524156 1_555
As3 Rb10 3.574634 1_555
As3 Rb9 3.574634 1_555
As3 Rb11 3.586462 1_555
As3 Rb4 3.586462 1_555
As3 Rb7 3.636613 1_555
As4 Ta0 2.537324 1_455
As4 Rb2 3.474911 1_555
As4 Rb12 3.481423 1_455
As4 Rb9 3.567480 1_555
As4 Rb7 3.580581 1_555
As4 Rb0 3.581709 1_465
As4 Rb8 3.615398 1_565
As4 Rb4 3.830834 1_455
As5 Ta1 2.537324 1_555
As5 Rb5 3.474911 1_555
As5 Rb8 3.481423 1_555
As5 Rb4 3.567480 1_555
As5 Rb6 3.580581 1_555
As5 Rb3 3.581709 1_545
As5 Rb12 3.615398 1_545
As5 Rb9 3.830834 1_555
As6 Ta1 2.537324 1_555
As6 Rb5 3.474911 1_555
As6 Rb13 3.481423 1_555
As6 Rb11 3.567480 1_555
As6 Rb6 3.580581 1_556
As6 Rb3 3.581709 1_545
As6 Rb1 3.615398 1_545
As6 Rb10 3.830834 1_555
As7 Ta0 2.537324 1_456
As7 Rb2 3.474911 1_556
As7 Rb1 3.481423 1_455
As7 Rb10 3.567480 1_555
As7 Rb7 3.580581 1_555
As7 Rb0 3.581709 1_466
As7 Rb13 3.615398 1_565
As7 Rb11 3.830834 1_455
