# generated using pymatgen
data_Sm2AsSe
_symmetry_space_group_name_H-M   'P 1'
_cell_length_a   7.26092388
_cell_length_b   7.26092388
_cell_length_c   7.26092388
_cell_angle_alpha   131.92173621
_cell_angle_beta   131.92173621
_cell_angle_gamma   70.35266415
_symmetry_Int_Tables_number   1
_chemical_formula_structural   Sm2AsSe
_chemical_formula_sum   'Sm4 As2 Se2'
_cell_volume   207.69163480
_cell_formula_units_Z   2
loop_
 _symmetry_equiv_pos_site_id
 _symmetry_equiv_pos_as_xyz
  1  'x, y, z'
loop_
 _atom_site_type_symbol
 _atom_site_label
 _atom_site_symmetry_multiplicity
 _atom_site_fract_x
 _atom_site_fract_y
 _atom_site_fract_z
 _atom_site_occupancy
  Sm  Sm0  1  0.74414277  0.74414277  -0.00000000  1
  Sm  Sm1  1  0.49414277  0.99414277  0.50000000  1
  Sm  Sm2  1  0.25585723  0.25585723  0.00000000  1
  Sm  Sm3  1  0.00585723  0.50585723  0.50000000  1
  As  As0  1  0.50000000  0.50000000  -0.00000000  1
  As  As1  1  0.25000000  0.75000000  0.50000000  1
  Se  Se0  1  -0.00000000  -0.00000000  -0.00000000  1
  Se  Se1  1  0.75000000  0.25000000  0.50000000  1
loop_
_geom_bond_atom_site_label_1
_geom_bond_atom_site_label_2
_geom_bond_distance
_geom_bond_site_symmetry_2
As0 Sm2 2.897953 1_555
As0 Sm0 2.897953 1_555
As0 Sm1 2.958630 1_544
As0 Sm3 2.958630 1_655
As0 Sm1 2.958630 1_555
As0 Sm3 2.958630 1_554
As1 Sm3 2.897953 1_555
As1 Sm1 2.897953 1_555
As1 Sm2 2.958630 1_555
As1 Sm0 2.958630 1_455
As1 Sm0 2.958630 1_556
As1 Sm2 2.958630 1_566
Se0 Sm1 2.958630 1_545
Se0 Sm1 2.958630 1_444
Se0 Sm3 2.958630 1_544
Se0 Sm3 2.958630 1_555
Se0 Sm0 3.037002 1_445
Se0 Sm2 3.037002 1_555
Se1 Sm2 2.958630 1_555
Se1 Sm2 2.958630 1_656
Se1 Sm0 2.958630 1_556
Se1 Sm0 2.958630 1_545
Se1 Sm1 3.037002 1_545
Se1 Sm3 3.037002 1_655
