# generated using pymatgen
data_Ca7Ag2GeN2
_symmetry_space_group_name_H-M   'P 1'
_cell_length_a   12.33151433
_cell_length_b   12.33151476
_cell_length_c   4.79840500
_cell_angle_alpha   90.00000000
_cell_angle_beta   90.00000000
_cell_angle_gamma   157.48134871
_symmetry_Int_Tables_number   1
_chemical_formula_structural   Ca7Ag2GeN2
_chemical_formula_sum   'Ca7 Ag2 Ge1 N2'
_cell_volume   279.45414215
_cell_formula_units_Z   1
loop_
 _symmetry_equiv_pos_site_id
 _symmetry_equiv_pos_as_xyz
  1  'x, y, z'
loop_
 _atom_site_type_symbol
 _atom_site_label
 _atom_site_symmetry_multiplicity
 _atom_site_fract_x
 _atom_site_fract_y
 _atom_site_fract_z
 _atom_site_occupancy
  Ca  Ca0  1  0.90701665  0.09298235  0.00000000  1
  Ca  Ca1  1  0.69576875  0.30423025  0.00000000  1
  Ca  Ca2  1  0.50000000  0.50000000  0.00000000  1
  Ca  Ca3  1  0.30423025  0.69576875  0.00000000  1
  Ca  Ca4  1  0.09298235  0.90701665  0.00000000  1
  Ca  Ca5  1  0.59177354  0.40822546  0.50000000  1
  Ca  Ca6  1  0.40822546  0.59177354  0.50000000  1
  Ag  Ag0  1  0.78809038  0.21190962  0.50000000  1
  Ag  Ag1  1  0.21190962  0.78809038  0.50000000  1
  Ge  Ge0  1  0.00000000  0.00000000  0.50000000  1
  N  N0  1  0.60167189  0.39832711  0.00000000  1
  N  N1  1  0.39832711  0.60167189  0.00000000  1
loop_
_geom_bond_atom_site_label_1
_geom_bond_atom_site_label_2
_geom_bond_distance
_geom_bond_site_symmetry_2
Ca0 N1 2.416884 1_545
Ca0 N1 2.416884 1_655
Ca0 Ge0 3.288561 1_654
Ca0 Ge0 3.288561 1_655
Ca1 N0 2.276048 1_555
Ca2 N1 2.459288 1_555
Ca2 N0 2.459288 1_555
Ca2 Ge0 3.399018 1_554
Ca2 Ge0 3.399018 1_555
Ca2 Ge0 3.399018 1_665
Ca2 Ge0 3.399018 1_664
Ca3 N1 2.276048 1_555
Ca4 N0 2.416884 1_565
Ca4 N0 2.416884 1_455
Ca4 Ge0 3.288561 1_565
Ca4 Ge0 3.288561 1_564
Ca5 N0 2.411119 1_556
Ca5 N0 2.411119 1_555
Ca5 Ge0 3.274894 1_555
Ca5 Ge0 3.274898 1_665
Ca6 N1 2.411119 1_556
Ca6 N1 2.411119 1_555
Ca6 Ge0 3.274894 1_555
Ca6 Ge0 3.274897 1_665
Ag0 Ag1 3.031938 1_545
Ag0 Ag1 3.031938 1_655
Ag0 Ca1 3.277635 1_556
Ag0 Ca1 3.277635 1_555
Ag0 Ca3 3.421364 1_656
Ag0 Ca3 3.421364 1_655
Ag0 Ca3 3.421368 1_545
Ag0 Ca3 3.421368 1_546
Ag0 Ca0 3.745830 1_556
Ag0 Ca0 3.745830 1_555
Ag0 Ca6 3.773763 1_655
Ag0 Ca6 3.773767 1_545
Ag1 Ca3 3.277635 1_556
Ag1 Ca3 3.277635 1_555
Ag1 Ca1 3.421364 1_565
Ag1 Ca1 3.421364 1_566
Ag1 Ca1 3.421368 1_456
Ag1 Ca1 3.421368 1_455
Ag1 Ca4 3.745830 1_556
Ag1 Ca4 3.745830 1_555
Ag1 Ca5 3.773764 1_565
Ag1 Ca5 3.773766 1_455
