# generated using pymatgen
data_Ba4InTcO8
_symmetry_space_group_name_H-M   'P 1'
_cell_length_a   7.28055754
_cell_length_b   7.28055789
_cell_length_c   5.88064975
_cell_angle_alpha   90.00000000
_cell_angle_beta   90.00000000
_cell_angle_gamma   132.15817711
_symmetry_Int_Tables_number   1
_chemical_formula_structural   Ba4InTcO8
_chemical_formula_sum   'Ba4 In1 Tc1 O8'
_cell_volume   231.07103969
_cell_formula_units_Z   1
loop_
 _symmetry_equiv_pos_site_id
 _symmetry_equiv_pos_as_xyz
  1  'x, y, z'
loop_
 _atom_site_type_symbol
 _atom_site_label
 _atom_site_symmetry_multiplicity
 _atom_site_fract_x
 _atom_site_fract_y
 _atom_site_fract_z
 _atom_site_occupancy
  Ba  Ba0  1  0.35625400  0.64374600  0.00000000  1
  Ba  Ba1  1  0.85615712  0.14384288  0.50000000  1
  Ba  Ba2  1  0.14384288  0.85615712  0.50000000  1
  Ba  Ba3  1  0.64374600  0.35625400  0.00000000  1
  In  In0  1  0.00000000  0.00000000  0.00000000  1
  Tc  Tc0  1  0.50000000  0.50000000  0.50000000  1
  O  O0  1  0.25949084  0.25949084  0.73267563  1
  O  O1  1  0.74050916  0.74050916  0.26732437  1
  O  O2  1  0.74050916  0.74050916  0.73267563  1
  O  O3  1  0.25949084  0.25949084  0.26732437  1
  O  O4  1  0.16010690  0.83989310  0.00000000  1
  O  O5  1  0.64815995  0.35184005  0.50000000  1
  O  O6  1  0.35184005  0.64815995  0.50000000  1
  O  O7  1  0.83989310  0.16010690  0.00000000  1
loop_
_geom_bond_atom_site_label_1
_geom_bond_atom_site_label_2
_geom_bond_distance
_geom_bond_site_symmetry_2
Ba0 O4 2.610797 1_555
Ba0 O1 2.854561 1_555
Ba0 O2 2.854561 1_554
Ba0 O3 2.854561 1_555
Ba0 O0 2.854561 1_554
Ba0 O6 2.940912 1_555
Ba0 O6 2.940912 1_554
Ba0 O7 2.960107 1_455
Ba0 O7 2.960107 1_565
Ba1 O5 2.768526 1_555
Ba1 O0 2.808057 1_655
Ba1 O3 2.808057 1_655
Ba1 O2 2.808057 1_545
Ba1 O1 2.808057 1_545
Ba1 O7 2.948283 1_556
Ba1 O7 2.948283 1_555
Ba1 O6 2.952645 1_545
Ba1 O6 2.952645 1_655
Ba2 O6 2.768526 1_555
Ba2 O2 2.808057 1_455
Ba2 O1 2.808057 1_455
Ba2 O0 2.808057 1_565
Ba2 O3 2.808057 1_565
Ba2 O4 2.948283 1_556
Ba2 O4 2.948283 1_555
Ba2 O5 2.952645 1_565
Ba2 O5 2.952645 1_455
Ba3 O7 2.610797 1_555
Ba3 O3 2.854561 1_555
Ba3 O0 2.854561 1_554
Ba3 O1 2.854561 1_555
Ba3 O2 2.854561 1_554
Ba3 O5 2.940912 1_555
Ba3 O5 2.940912 1_554
Ba3 O4 2.960107 1_655
Ba3 O4 2.960107 1_545
In0 O7 2.131087 1_455
In0 O4 2.131087 1_545
In0 O1 2.195126 1_445
In0 O3 2.195126 1_555
In0 O0 2.195126 1_554
In0 O2 2.195126 1_444
O0 Tc0 1.971959 1_555
O1 Tc0 1.971959 1_555
O2 Tc0 1.971959 1_555
O3 Tc0 1.971959 1_555
O5 Tc0 1.972069 1_555
O6 Tc0 1.972069 1_555
