# generated using pymatgen
data_Nb3Si2OsC
_symmetry_space_group_name_H-M   'P 1'
_cell_length_a   8.20157579
_cell_length_b   8.20151201
_cell_length_c   8.20153459
_cell_angle_alpha   59.99959597
_cell_angle_beta   59.99983835
_cell_angle_gamma   59.99979961
_symmetry_Int_Tables_number   1
_chemical_formula_structural   Nb3Si2OsC
_chemical_formula_sum   'Nb12 Si8 Os4 C4'
_cell_volume   390.09361029
_cell_formula_units_Z   4
loop_
 _symmetry_equiv_pos_site_id
 _symmetry_equiv_pos_as_xyz
  1  'x, y, z'
loop_
 _atom_site_type_symbol
 _atom_site_label
 _atom_site_symmetry_multiplicity
 _atom_site_fract_x
 _atom_site_fract_y
 _atom_site_fract_z
 _atom_site_occupancy
  Nb  Nb0  1  0.68907623  0.31091817  0.68908347  1
  Nb  Nb1  1  0.93908263  0.56091960  0.56091708  1
  Nb  Nb2  1  0.56092422  0.93907591  0.93907555  1
  Nb  Nb3  1  0.93907602  0.56091957  0.93908014  1
  Nb  Nb4  1  0.56092232  0.56091971  0.93908290  1
  Nb  Nb5  1  0.93907801  0.93907955  0.56091659  1
  Nb  Nb6  1  0.68907768  0.68908029  0.31091710  1
  Nb  Nb7  1  0.31091737  0.68908040  0.68908292  1
  Nb  Nb8  1  0.68907578  0.31092409  0.31092445  1
  Nb  Nb9  1  0.31092199  0.31092045  0.68908341  1
  Nb  Nb10  1  0.56092377  0.93908183  0.56091653  1
  Nb  Nb11  1  0.31092398  0.68908043  0.31091986  1
  Si  Si0  1  0.33504361  0.33504377  0.33504609  1
  Si  Si1  1  0.25513283  0.91495714  0.91495480  1
  Si  Si2  1  0.91495668  0.25513413  0.91495371  1
  Si  Si3  1  0.91495682  0.91495699  0.25513060  1
  Si  Si4  1  0.33504332  0.99486587  0.33504629  1
  Si  Si5  1  0.33504318  0.33504301  0.99486940  1
  Si  Si6  1  0.99486717  0.33504286  0.33504520  1
  Si  Si7  1  0.91495639  0.91495623  0.91495391  1
  Os  Os0  1  0.12500000  0.12500000  0.12500000  1
  Os  Os1  1  0.62500000  0.12500000  0.12500000  1
  Os  Os2  1  0.12500000  0.62500000  0.12500000  1
  Os  Os3  1  0.12500000  0.12500000  0.62500000  1
  C  C0  1  0.62500000  0.62500000  0.62500000  1
  C  C1  1  0.12500000  0.62500000  0.62500000  1
  C  C2  1  0.62500000  0.12500000  0.62500000  1
  C  C3  1  0.62500000  0.62500000  0.12500000  1
loop_
_geom_bond_atom_site_label_1
_geom_bond_atom_site_label_2
_geom_bond_distance
_geom_bond_site_symmetry_2
Nb0 Si5 2.720195 1_555
Nb0 Si6 2.720233 1_555
Nb0 Si7 2.968087 1_545
Nb0 Si2 2.968130 1_555
Nb0 Os1 2.975583 1_556
Nb0 Os3 2.975646 1_655
Nb1 Si2 2.720189 1_555
Nb1 Si3 2.720194 1_555
Nb1 Si0 2.968089 1_655
Nb1 Si6 2.968105 1_555
Nb1 Os2 2.975586 1_655
Nb1 Os3 2.975591 1_655
Nb2 Si1 2.720215 1_555
Nb2 Si7 2.720220 1_555
Nb2 Si5 2.968145 1_565
Nb2 Si4 2.968166 1_556
Nb2 Os1 2.975655 1_566
Nb2 Os0 2.975657 1_566
Nb3 Si2 2.720178 1_555
Nb3 Si7 2.720216 1_555
Nb3 Si6 2.968122 1_556
Nb3 Si5 2.968149 1_655
Nb3 Os0 2.975597 1_656
Nb3 Os2 2.975654 1_656
Nb4 Si2 2.720196 1_555
Nb4 Si1 2.720217 1_555
Nb4 Si0 2.968109 1_556
Nb4 Si5 2.968153 1_555
Nb4 Os1 2.975594 1_556
Nb4 Os2 2.975641 1_556
Nb5 Si3 2.720179 1_555
Nb5 Si7 2.720233 1_555
Nb5 Si6 2.968096 1_565
Nb5 Si4 2.968128 1_655
Nb5 Os0 2.975586 1_665
Nb5 Os3 2.975659 1_665
Nb6 Si4 2.720196 1_555
Nb6 Si6 2.720217 1_555
Nb6 Si7 2.968109 1_554
Nb6 Si3 2.968153 1_555
Nb6 Os1 2.975594 1_565
Nb6 Os2 2.975641 1_655
Nb7 Si4 2.720189 1_555
Nb7 Si5 2.720194 1_555
Nb7 Si7 2.968089 1_455
Nb7 Si1 2.968105 1_555
Nb7 Os2 2.975586 1_556
Nb7 Os3 2.975591 1_565
Nb8 Si6 2.720215 1_555
Nb8 Si0 2.720220 1_555
Nb8 Si3 2.968145 1_545
Nb8 Si2 2.968166 1_554
Nb8 Os1 2.975655 1_555
Nb8 Os0 2.975657 1_655
Nb9 Si5 2.720179 1_555
Nb9 Si0 2.720233 1_555
Nb9 Si1 2.968096 1_545
Nb9 Si2 2.968128 1_455
Nb9 Os0 2.975586 1_556
Nb9 Os3 2.975659 1_555
Nb10 Si3 2.720195 1_555
Nb10 Si1 2.720233 1_555
Nb10 Si0 2.968087 1_565
Nb10 Si4 2.968130 1_555
Nb10 Os1 2.975583 1_565
Nb10 Os3 2.975646 1_565
Nb11 Si4 2.720178 1_555
Nb11 Si0 2.720216 1_555
Nb11 Si1 2.968122 1_554
Nb11 Si3 2.968149 1_455
Nb11 Os0 2.975597 1_565
Nb11 Os2 2.975654 1_555
Si0 Si4 2.789974 1_545
Si0 Si5 2.789976 1_554
Si0 Si6 2.789990 1_455
Si1 Si3 2.789965 1_456
Si1 Si2 2.789965 1_465
Si1 Si7 2.789990 1_455
Si2 Si3 2.789953 1_546
Si2 Si7 2.789974 1_545
Si3 Si7 2.789976 1_554
Si4 Si5 2.789953 1_564
Si4 Si6 2.789965 1_465
Si5 Si6 2.789965 1_456
Os0 Si5 2.522852 1_554
Os0 Si3 2.522852 1_445
Os0 Si6 2.522857 1_455
Os0 Si1 2.522857 1_544
Os0 Si4 2.522871 1_545
Os0 Si2 2.522871 1_454
Os1 Si3 2.522862 1_545
Os1 Si5 2.522862 1_554
Os1 Si0 2.522868 1_555
Os1 Si7 2.522868 1_544
Os1 Si2 2.522877 1_554
Os1 Si4 2.522877 1_545
Os2 Si3 2.522855 1_455
Os2 Si5 2.522855 1_554
Os2 Si0 2.522860 1_555
Os2 Si7 2.522860 1_454
Os2 Si1 2.522861 1_554
Os2 Si6 2.522861 1_455
Os3 Si0 2.522845 1_555
Os3 Si7 2.522845 1_445
Os3 Si1 2.522850 1_545
Os3 Si6 2.522850 1_455
Os3 Si2 2.522853 1_455
Os3 Si4 2.522853 1_545
C0 Nb10 2.180939 1_555
C0 Nb0 2.180939 1_555
C0 Nb4 2.180958 1_555
C0 Nb6 2.180958 1_555
C0 Nb1 2.180961 1_555
C0 Nb7 2.180961 1_555
C1 Nb5 2.180927 1_455
C1 Nb9 2.180927 1_555
C1 Nb3 2.180940 1_455
C1 Nb11 2.180940 1_555
C1 Nb7 2.180945 1_555
C1 Nb1 2.180945 1_455
C2 Nb8 2.180907 1_555
C2 Nb2 2.180907 1_545
C2 Nb0 2.180923 1_555
C2 Nb10 2.180923 1_545
C2 Nb5 2.180930 1_545
C2 Nb9 2.180930 1_555
C3 Nb2 2.180905 1_554
C3 Nb8 2.180905 1_555
C3 Nb6 2.180908 1_555
C3 Nb4 2.180908 1_554
C3 Nb3 2.180919 1_554
C3 Nb11 2.180919 1_555
