# generated using pymatgen
data_Ti3Ga2RhN
_symmetry_space_group_name_H-M   'P 1'
_cell_length_a   8.09394655
_cell_length_b   8.09394761
_cell_length_c   8.09394630
_cell_angle_alpha   59.99999733
_cell_angle_beta   59.99999299
_cell_angle_gamma   59.99999967
_symmetry_Int_Tables_number   1
_chemical_formula_structural   Ti3Ga2RhN
_chemical_formula_sum   'Ti12 Ga8 Rh4 N4'
_cell_volume   374.94365520
_cell_formula_units_Z   4
loop_
 _symmetry_equiv_pos_site_id
 _symmetry_equiv_pos_as_xyz
  1  'x, y, z'
loop_
 _atom_site_type_symbol
 _atom_site_label
 _atom_site_symmetry_multiplicity
 _atom_site_fract_x
 _atom_site_fract_y
 _atom_site_fract_z
 _atom_site_occupancy
  Ti  Ti0  1  0.81489678  0.81489678  0.18510322  1
  Ti  Ti1  1  0.06489678  0.43510322  0.43510322  1
  Ti  Ti2  1  0.43510322  0.06489678  0.06489678  1
  Ti  Ti3  1  0.06489678  0.06489678  0.43510322  1
  Ti  Ti4  1  0.06489678  0.43510322  0.06489678  1
  Ti  Ti5  1  0.43510322  0.06489678  0.43510322  1
  Ti  Ti6  1  0.18510322  0.81489678  0.18510322  1
  Ti  Ti7  1  0.18510322  0.81489678  0.81489678  1
  Ti  Ti8  1  0.81489678  0.18510322  0.18510322  1
  Ti  Ti9  1  0.81489678  0.18510322  0.81489678  1
  Ti  Ti10  1  0.43510322  0.43510322  0.06489678  1
  Ti  Ti11  1  0.18510322  0.18510322  0.81489678  1
  Ga  Ga0  1  0.41282855  0.76151134  0.41282855  1
  Ga  Ga1  1  0.83717145  0.83717145  0.48848866  1
  Ga  Ga2  1  0.48848866  0.83717145  0.83717145  1
  Ga  Ga3  1  0.83717145  0.83717145  0.83717145  1
  Ga  Ga4  1  0.76151134  0.41282855  0.41282855  1
  Ga  Ga5  1  0.41282855  0.41282855  0.41282855  1
  Ga  Ga6  1  0.41282855  0.41282855  0.76151134  1
  Ga  Ga7  1  0.83717145  0.48848866  0.83717145  1
  Rh  Rh0  1  0.62500000  0.12500000  0.62500000  1
  Rh  Rh1  1  0.62500000  0.62500000  0.12500000  1
  Rh  Rh2  1  0.12500000  0.62500000  0.62500000  1
  Rh  Rh3  1  0.62500000  0.62500000  0.62500000  1
  N  N0  1  0.12500000  0.62500000  0.12500000  1
  N  N1  1  0.12500000  0.12500000  0.62500000  1
  N  N2  1  0.62500000  0.12500000  0.12500000  1
  N  N3  1  0.12500000  0.12500000  0.12500000  1
loop_
_geom_bond_atom_site_label_1
_geom_bond_atom_site_label_2
_geom_bond_distance
_geom_bond_site_symmetry_2
Ga0 Rh2 2.504634 1_555
Ga0 Rh1 2.504634 1_555
Ga0 Rh3 2.504653 1_555
Ga0 Ti2 2.648165 1_565
Ga0 Ti3 2.648165 1_565
Ga0 Ti5 2.648179 1_565
Ga1 Rh2 2.504634 1_655
Ga1 Rh0 2.504634 1_565
Ga1 Rh3 2.504653 1_555
Ga1 Ti6 2.648164 1_655
Ga1 Ti8 2.648165 1_565
Ga1 Ti0 2.648178 1_555
Ga2 Rh1 2.504634 1_556
Ga2 Rh0 2.504634 1_565
Ga2 Rh3 2.504653 1_555
Ga2 Ti6 2.648164 1_556
Ga2 Ti11 2.648165 1_565
Ga2 Ti7 2.648178 1_555
Ga3 Rh1 2.504647 1_556
Ga3 Rh2 2.504647 1_655
Ga3 Rh0 2.504648 1_565
Ga3 Ti0 2.648154 1_556
Ga3 Ti7 2.648154 1_655
Ga3 Ti9 2.648155 1_565
Ga4 Rh1 2.504634 1_555
Ga4 Rh0 2.504634 1_555
Ga4 Rh3 2.504653 1_555
Ga4 Ti4 2.648164 1_655
Ga4 Ti3 2.648165 1_655
Ga4 Ti1 2.648178 1_655
Ga5 Rh1 2.504647 1_555
Ga5 Rh2 2.504647 1_555
Ga5 Rh0 2.504648 1_555
Ga5 Ti10 2.648154 1_555
Ga5 Ti1 2.648154 1_555
Ga5 Ti5 2.648155 1_555
Ga6 Rh2 2.504634 1_555
Ga6 Rh0 2.504634 1_555
Ga6 Rh3 2.504653 1_555
Ga6 Ti4 2.648164 1_556
Ga6 Ti2 2.648165 1_556
Ga6 Ti10 2.648178 1_556
Ga7 Rh2 2.504634 1_655
Ga7 Rh1 2.504634 1_556
Ga7 Rh3 2.504653 1_555
Ga7 Ti8 2.648165 1_556
Ga7 Ti11 2.648165 1_655
Ga7 Ti9 2.648179 1_555
Rh0 Ti2 2.969734 1_556
Rh0 Ti8 2.969734 1_555
Rh0 Ti3 2.969735 1_655
Rh0 Ti11 2.969735 1_555
Rh0 Ti9 2.969735 1_555
Rh0 Ti5 2.969735 1_555
Rh1 Ti4 2.969735 1_655
Rh1 Ti6 2.969735 1_555
Rh1 Ti0 2.969735 1_555
Rh1 Ti10 2.969735 1_555
Rh1 Ti2 2.969735 1_565
Rh1 Ti8 2.969735 1_555
Rh2 Ti4 2.969735 1_556
Rh2 Ti6 2.969735 1_555
Rh2 Ti7 2.969735 1_555
Rh2 Ti1 2.969735 1_555
Rh2 Ti3 2.969735 1_565
Rh2 Ti11 2.969735 1_555
Rh3 Ti10 2.969734 1_556
Rh3 Ti0 2.969734 1_555
Rh3 Ti1 2.969735 1_655
Rh3 Ti7 2.969735 1_555
Rh3 Ti5 2.969735 1_565
Rh3 Ti9 2.969735 1_555
N0 Ti1 2.137243 1_555
N0 Ti7 2.137243 1_554
N0 Ti10 2.137243 1_555
N0 Ti0 2.137243 1_455
N0 Ti6 2.137243 1_555
N0 Ti4 2.137243 1_555
N1 Ti5 2.137243 1_555
N1 Ti9 2.137243 1_455
N1 Ti11 2.137243 1_555
N1 Ti3 2.137243 1_555
N1 Ti1 2.137243 1_555
N1 Ti7 2.137243 1_545
N2 Ti5 2.137243 1_555
N2 Ti9 2.137243 1_554
N2 Ti8 2.137243 1_555
N2 Ti2 2.137243 1_555
N2 Ti10 2.137243 1_555
N2 Ti0 2.137243 1_545
N3 Ti3 2.137243 1_555
N3 Ti11 2.137243 1_554
N3 Ti2 2.137243 1_555
N3 Ti8 2.137243 1_455
N3 Ti4 2.137244 1_555
N3 Ti6 2.137244 1_545
