# generated using pymatgen
data_HfGa4AgRh
_symmetry_space_group_name_H-M   'P 1'
_cell_length_a   4.28504347
_cell_length_b   4.28504347
_cell_length_c   6.43732783
_cell_angle_alpha   90.00000000
_cell_angle_beta   90.00000000
_cell_angle_gamma   90.00000000
_symmetry_Int_Tables_number   1
_chemical_formula_structural   HfGa4AgRh
_chemical_formula_sum   'Hf1 Ga4 Ag1 Rh1'
_cell_volume   118.19962272
_cell_formula_units_Z   1
loop_
 _symmetry_equiv_pos_site_id
 _symmetry_equiv_pos_as_xyz
  1  'x, y, z'
loop_
 _atom_site_type_symbol
 _atom_site_label
 _atom_site_symmetry_multiplicity
 _atom_site_fract_x
 _atom_site_fract_y
 _atom_site_fract_z
 _atom_site_occupancy
  Hf  Hf0  1  0.00000000  0.00000000  0.00000000  1
  Ga  Ga0  1  0.00000000  0.50000000  0.29033249  1
  Ga  Ga1  1  0.00000000  0.50000000  0.70966751  1
  Ga  Ga2  1  0.50000000  0.00000000  0.29033249  1
  Ga  Ga3  1  0.50000000  0.00000000  0.70966751  1
  Ag  Ag0  1  0.50000000  0.50000000  0.00000000  1
  Rh  Rh0  1  0.00000000  0.00000000  0.50000000  1
loop_
_geom_bond_atom_site_label_1
_geom_bond_atom_site_label_2
_geom_bond_distance
_geom_bond_site_symmetry_2
Ga0 Rh0 2.532210 1_555
Ga0 Rh0 2.532210 1_565
Ga0 Ga1 2.699397 1_555
Ga0 Hf0 2.843138 1_555
Ga0 Hf0 2.843138 1_565
Ga0 Ga2 3.029983 1_465
Ga0 Ga2 3.029983 1_455
Ga0 Ga2 3.029983 1_555
Ga0 Ga2 3.029983 1_565
Ga1 Rh0 2.532210 1_565
Ga1 Rh0 2.532210 1_555
Ga1 Hf0 2.843138 1_566
Ga1 Hf0 2.843138 1_556
Ga1 Ga3 3.029983 1_565
Ga1 Ga3 3.029983 1_465
Ga1 Ga3 3.029983 1_455
Ga1 Ga3 3.029983 1_555
Ga2 Rh0 2.532210 1_655
Ga2 Rh0 2.532210 1_555
Ga2 Ga3 2.699397 1_555
Ga2 Hf0 2.843138 1_555
Ga2 Hf0 2.843138 1_655
Ga3 Rh0 2.532210 1_655
Ga3 Rh0 2.532210 1_555
Ga3 Hf0 2.843138 1_656
Ga3 Hf0 2.843138 1_556
Ag0 Ga0 2.843138 1_655
Ag0 Ga2 2.843138 1_565
Ag0 Ga2 2.843138 1_555
Ag0 Ga0 2.843138 1_555
Ag0 Ga1 2.843138 1_654
Ag0 Ga3 2.843138 1_554
Ag0 Ga3 2.843138 1_564
Ag0 Ga1 2.843138 1_554
Ag0 Hf0 3.029983 1_655
Ag0 Hf0 3.029983 1_565
Ag0 Hf0 3.029983 1_665
Ag0 Hf0 3.029983 1_555
