# generated using pymatgen
data_Cs6NbSbS8
_symmetry_space_group_name_H-M   'P 1'
_cell_length_a   10.03004955
_cell_length_b   10.13248355
_cell_length_c   11.69644509
_cell_angle_alpha   90.00000000
_cell_angle_beta   90.00000000
_cell_angle_gamma   89.86744363
_symmetry_Int_Tables_number   1
_chemical_formula_structural   Cs6NbSbS8
_chemical_formula_sum   'Cs12 Nb2 Sb2 S16'
_cell_volume   1188.69848686
_cell_formula_units_Z   2
loop_
 _symmetry_equiv_pos_site_id
 _symmetry_equiv_pos_as_xyz
  1  'x, y, z'
loop_
 _atom_site_type_symbol
 _atom_site_label
 _atom_site_symmetry_multiplicity
 _atom_site_fract_x
 _atom_site_fract_y
 _atom_site_fract_z
 _atom_site_occupancy
  Cs  Cs0  1  0.64702221  0.91798431  0.25000000  1
  Cs  Cs1  1  0.15000795  0.58356431  0.25000000  1
  Cs  Cs2  1  0.84999205  0.41643569  0.75000000  1
  Cs  Cs3  1  0.35297779  0.08201569  0.75000000  1
  Cs  Cs4  1  0.04819711  0.79421691  0.96046780  1
  Cs  Cs5  1  0.54911396  0.70814829  0.54195108  1
  Cs  Cs6  1  0.45088604  0.29185171  0.04195108  1
  Cs  Cs7  1  0.95180289  0.20578309  0.46046780  1
  Cs  Cs8  1  0.95180289  0.20578309  0.03953220  1
  Cs  Cs9  1  0.45088604  0.29185171  0.45804892  1
  Cs  Cs10  1  0.54911396  0.70814829  0.95804892  1
  Cs  Cs11  1  0.04819711  0.79421691  0.53953220  1
  Nb  Nb0  1  0.77807166  0.98316679  0.75000000  1
  Nb  Nb1  1  0.22192834  0.01683321  0.25000000  1
  Sb  Sb0  1  0.72455404  0.48201932  0.25000000  1
  Sb  Sb1  1  0.27544596  0.51798068  0.75000000  1
  S  S0  1  0.33291635  0.95339951  0.08821864  1
  S  S1  1  0.83827920  0.54385612  0.41620542  1
  S  S2  1  0.16172080  0.45614388  0.91620542  1
  S  S3  1  0.66708365  0.04660049  0.58821864  1
  S  S4  1  0.01189662  0.92693572  0.25000000  1
  S  S5  1  0.51043824  0.57702948  0.25000000  1
  S  S6  1  0.48956176  0.42297052  0.75000000  1
  S  S7  1  0.98810338  0.07306428  0.75000000  1
  S  S8  1  0.66708365  0.04660049  0.91178136  1
  S  S9  1  0.33291635  0.95339951  0.41178136  1
  S  S10  1  0.83827920  0.54385612  0.08379458  1
  S  S11  1  0.16172080  0.45614388  0.58379458  1
  S  S12  1  0.79673220  0.75780904  0.75000000  1
  S  S13  1  0.29728523  0.74844174  0.75000000  1
  S  S14  1  0.70271477  0.25155826  0.25000000  1
  S  S15  1  0.20326780  0.24219096  0.25000000  1
loop_
_geom_bond_atom_site_label_1
_geom_bond_atom_site_label_2
_geom_bond_distance
_geom_bond_site_symmetry_2
Cs0 S14 3.427056 1_565
Cs0 S4 3.661042 1_655
Cs0 S9 3.691862 1_555
Cs0 S0 3.691862 1_555
Cs0 S5 3.719372 1_555
Cs1 S15 3.498746 1_555
Cs1 S5 3.615587 1_555
Cs1 S1 3.704437 1_455
Cs1 S10 3.704437 1_455
Cs1 S4 3.741861 1_555
Cs1 S11 4.113740 1_555
Cs1 S2 4.113740 1_554
Cs2 S12 3.498746 1_555
Cs2 S6 3.615587 1_555
Cs2 S2 3.704437 1_655
Cs2 S11 3.704437 1_655
Cs2 S7 3.741861 1_555
Cs2 S10 4.113740 1_556
Cs2 S1 4.113740 1_555
Cs3 S13 3.427056 1_545
Cs3 S7 3.661042 1_455
Cs3 S8 3.691862 1_555
Cs3 S3 3.691862 1_555
Cs3 S6 3.719372 1_555
Cs4 S13 3.537186 1_555
Cs4 S12 3.544292 1_455
Cs4 S10 3.601914 1_456
Cs4 S0 3.607053 1_556
Cs4 S2 3.644267 1_555
Cs4 S4 3.661567 1_556
Cs4 S7 3.794534 1_465
Cs5 S12 3.514109 1_555
Cs5 S13 3.530361 1_555
Cs5 S9 3.629141 1_555
Cs5 S1 3.650207 1_555
Cs5 S3 3.670452 1_565
Cs5 S5 3.684932 1_555
Cs5 S6 3.825691 1_555
Cs6 S15 3.514109 1_555
Cs6 S14 3.530361 1_555
Cs6 S8 3.629141 1_554
Cs6 S2 3.650207 1_554
Cs6 S0 3.670452 1_545
Cs6 S6 3.684932 1_554
Cs6 S5 3.825691 1_555
Cs7 S14 3.537186 1_555
Cs7 S15 3.544292 1_655
Cs7 S11 3.601914 1_655
Cs7 S3 3.607053 1_555
Cs7 S1 3.644267 1_555
Cs7 S7 3.661567 1_555
Cs7 S4 3.794534 1_645
Cs8 S14 3.537186 1_555
Cs8 S15 3.544292 1_655
Cs8 S2 3.601914 1_654
Cs8 S8 3.607053 1_554
Cs8 S10 3.644267 1_555
Cs8 S7 3.661567 1_554
Cs8 S4 3.794534 1_645
Cs9 S15 3.514109 1_555
Cs9 S14 3.530361 1_555
Cs9 S3 3.629141 1_555
Cs9 S11 3.650207 1_555
Cs9 S9 3.670452 1_545
Cs9 S6 3.684932 1_555
Cs9 S5 3.825691 1_555
Cs10 S12 3.514109 1_555
Cs10 S13 3.530361 1_555
Cs10 S0 3.629141 1_556
Cs10 S10 3.650207 1_556
Cs10 S8 3.670452 1_565
Cs10 S5 3.684932 1_556
Cs10 S6 3.825691 1_555
Cs11 S13 3.537186 1_555
Cs11 S12 3.544292 1_455
Cs11 S1 3.601914 1_455
Cs11 S9 3.607053 1_555
Cs11 S11 3.644267 1_555
Cs11 S4 3.661567 1_555
Cs11 S7 3.794534 1_465
Nb0 S8 2.286860 1_565
Nb0 S3 2.286860 1_565
Nb0 S12 2.290660 1_555
Nb0 S7 2.297058 1_565
Nb1 S9 2.286860 1_545
Nb1 S0 2.286860 1_545
Nb1 S15 2.290660 1_555
Nb1 S4 2.297058 1_545
S1 Sb0 2.340127 1_555
S2 Sb1 2.340127 1_555
S5 Sb0 2.351458 1_555
S6 Sb1 2.351458 1_555
S10 Sb0 2.340127 1_555
S11 Sb1 2.340127 1_555
S13 Sb1 2.345899 1_555
S14 Sb0 2.345899 1_555
