# generated using pymatgen
data_ScTaRh6
_symmetry_space_group_name_H-M   'P 1'
_cell_length_a   5.49137348
_cell_length_b   5.49137309
_cell_length_c   5.49137230
_cell_angle_alpha   59.99999306
_cell_angle_beta   59.99999541
_cell_angle_gamma   59.99999798
_symmetry_Int_Tables_number   1
_chemical_formula_structural   ScTaRh6
_chemical_formula_sum   'Sc1 Ta1 Rh6'
_cell_volume   117.09214985
_cell_formula_units_Z   1
loop_
 _symmetry_equiv_pos_site_id
 _symmetry_equiv_pos_as_xyz
  1  'x, y, z'
loop_
 _atom_site_type_symbol
 _atom_site_label
 _atom_site_symmetry_multiplicity
 _atom_site_fract_x
 _atom_site_fract_y
 _atom_site_fract_z
 _atom_site_occupancy
  Sc  Sc0  1  0.00000000  0.00000000  0.00000000  1
  Ta  Ta0  1  0.50000000  0.50000000  0.50000000  1
  Rh  Rh0  1  0.50000100  0.00000000  0.00000000  1
  Rh  Rh1  1  0.00000000  0.50000100  0.00000000  1
  Rh  Rh2  1  0.50000000  0.50000000  0.00000000  1
  Rh  Rh3  1  0.00000000  0.00000000  0.50000100  1
  Rh  Rh4  1  0.50000000  0.00000000  0.50000000  1
  Rh  Rh5  1  0.00000000  0.50000000  0.50000000  1
loop_
_geom_bond_atom_site_label_1
_geom_bond_atom_site_label_2
_geom_bond_distance
_geom_bond_site_symmetry_2
Rh0 Rh3 2.745681 1_654
Rh0 Rh1 2.745681 1_645
Rh0 Sc0 2.745681 1_655
Rh0 Rh4 2.745683 1_555
Rh0 Rh2 2.745684 1_555
Rh0 Ta0 2.745686 1_554
Rh0 Ta0 2.745686 1_545
Rh0 Rh4 2.745689 1_554
Rh0 Rh2 2.745689 1_545
Rh0 Rh3 2.745692 1_555
Rh0 Rh1 2.745692 1_555
Rh0 Sc0 2.745692 1_555
Rh1 Rh3 2.745681 1_564
Rh1 Sc0 2.745681 1_565
Rh1 Rh5 2.745683 1_555
Rh1 Rh2 2.745684 1_555
Rh1 Ta0 2.745686 1_554
Rh1 Ta0 2.745686 1_455
Rh1 Rh5 2.745689 1_554
Rh1 Rh2 2.745689 1_455
Rh1 Rh3 2.745692 1_555
Rh1 Sc0 2.745692 1_555
Rh2 Rh4 2.745686 1_555
Rh2 Rh4 2.745686 1_564
Rh2 Ta0 2.745686 1_554
Rh2 Ta0 2.745686 1_555
Rh2 Rh5 2.745686 1_654
Rh2 Rh5 2.745686 1_555
Rh2 Sc0 2.745687 1_565
Rh2 Sc0 2.745687 1_655
Rh3 Sc0 2.745681 1_556
Rh3 Rh5 2.745684 1_555
Rh3 Rh4 2.745684 1_555
Rh3 Ta0 2.745687 1_455
Rh3 Ta0 2.745687 1_545
Rh3 Rh5 2.745689 1_545
Rh3 Rh4 2.745689 1_455
Rh3 Sc0 2.745692 1_555
Rh4 Sc0 2.745686 1_556
Rh4 Sc0 2.745686 1_655
Rh4 Ta0 2.745687 1_555
Rh4 Ta0 2.745687 1_545
Rh4 Rh5 2.745687 1_555
Rh4 Rh5 2.745687 1_645
Rh5 Sc0 2.745686 1_565
Rh5 Sc0 2.745686 1_556
Rh5 Ta0 2.745687 1_455
Rh5 Ta0 2.745687 1_555
