# generated using pymatgen
data_BaVNiAs2
_symmetry_space_group_name_H-M   'P 1'
_cell_length_a   7.16017603
_cell_length_b   7.16017655
_cell_length_c   7.16017646
_cell_angle_alpha   147.30174654
_cell_angle_beta   147.30175272
_cell_angle_gamma   46.91720352
_symmetry_Int_Tables_number   1
_chemical_formula_structural   BaVNiAs2
_chemical_formula_sum   'Ba1 V1 Ni1 As2'
_cell_volume   106.73079863
_cell_formula_units_Z   1
loop_
 _symmetry_equiv_pos_site_id
 _symmetry_equiv_pos_as_xyz
  1  'x, y, z'
loop_
 _atom_site_type_symbol
 _atom_site_label
 _atom_site_symmetry_multiplicity
 _atom_site_fract_x
 _atom_site_fract_y
 _atom_site_fract_z
 _atom_site_occupancy
  Ba  Ba0  1  0.00000000  0.00000000  0.00000000  1
  V  V0  1  0.75000000  0.25000000  0.50000000  1
  Ni  Ni0  1  0.25000000  0.75000000  0.50000000  1
  As  As0  1  0.35229047  0.35229047  1.00000000  1
  As  As1  1  0.64770953  0.64770953  0.00000000  1
loop_
_geom_bond_atom_site_label_1
_geom_bond_atom_site_label_2
_geom_bond_distance
_geom_bond_site_symmetry_2
As0 V0 2.422395 1_455
As0 V0 2.422396 1_556
As0 Ni0 2.422396 1_545
As0 Ni0 2.422396 1_556
As0 Ba0 3.448164 1_667
As0 Ba0 3.448165 1_656
As0 Ba0 3.448165 1_555
As0 Ba0 3.448165 1_566
As1 Ni0 2.422395 1_655
As1 Ni0 2.422396 1_554
As1 V0 2.422396 1_565
As1 V0 2.422396 1_554
As1 Ba0 3.448164 1_554
As1 Ba0 3.448165 1_565
As1 Ba0 3.448165 1_666
As1 Ba0 3.448165 1_655
