# generated using pymatgen
data_Sr7Rh2PbO12
_symmetry_space_group_name_H-M   'P 1'
_cell_length_a   6.84698718
_cell_length_b   6.84698773
_cell_length_c   6.84698704
_cell_angle_alpha   89.96191711
_cell_angle_beta   89.96192018
_cell_angle_gamma   89.96191704
_symmetry_Int_Tables_number   1
_chemical_formula_structural   Sr7Rh2PbO12
_chemical_formula_sum   'Sr7 Rh2 Pb1 O12'
_cell_volume   320.99501122
_cell_formula_units_Z   1
loop_
 _symmetry_equiv_pos_site_id
 _symmetry_equiv_pos_as_xyz
  1  'x, y, z'
loop_
 _atom_site_type_symbol
 _atom_site_label
 _atom_site_symmetry_multiplicity
 _atom_site_fract_x
 _atom_site_fract_y
 _atom_site_fract_z
 _atom_site_occupancy
  Sr  Sr0  1  0.88324735  0.61675265  0.25000000  1
  Sr  Sr1  1  0.12187683  0.37812317  0.75000000  1
  Sr  Sr2  1  0.25000000  0.88324735  0.61675265  1
  Sr  Sr3  1  0.61675265  0.25000000  0.88324735  1
  Sr  Sr4  1  0.37812317  0.75000000  0.12187683  1
  Sr  Sr5  1  0.25000000  0.25000000  0.25000000  1
  Sr  Sr6  1  0.75000000  0.12187683  0.37812317  1
  Rh  Rh0  1  0.99986739  0.99986739  0.99986739  1
  Rh  Rh1  1  0.50013261  0.50013261  0.50013261  1
  Pb  Pb0  1  0.75000000  0.75000000  0.75000000  1
  O  O0  1  0.45638203  0.58995077  0.78558006  1
  O  O1  1  0.58995077  0.78558006  0.45638203  1
  O  O2  1  0.94148509  0.28653857  0.07586108  1
  O  O3  1  0.55851491  0.42413892  0.21346143  1
  O  O4  1  0.21346143  0.55851491  0.42413892  1
  O  O5  1  0.04361797  0.71441994  0.91004923  1
  O  O6  1  0.78558006  0.45638203  0.58995077  1
  O  O7  1  0.71441994  0.91004923  0.04361797  1
  O  O8  1  0.07586108  0.94148509  0.28653857  1
  O  O9  1  0.91004923  0.04361797  0.71441994  1
  O  O10  1  0.42413892  0.21346143  0.55851491  1
  O  O11  1  0.28653857  0.07586108  0.94148509  1
loop_
_geom_bond_atom_site_label_1
_geom_bond_atom_site_label_2
_geom_bond_distance
_geom_bond_site_symmetry_2
O0 Rh1 2.070848 1_555
O0 Pb0 2.303014 1_555
O0 Sr4 2.605957 1_556
O0 Sr3 2.658257 1_555
O0 Sr2 2.713163 1_555
O0 Sr1 2.722921 1_555
O1 Rh1 2.070848 1_555
O1 Pb0 2.303014 1_555
O1 Sr6 2.605957 1_565
O1 Sr2 2.658257 1_555
O1 Sr0 2.713163 1_555
O1 Sr4 2.722921 1_555
O2 Rh0 2.069611 1_544
O2 Sr5 2.438997 1_655
O2 Sr0 2.587353 1_555
O2 Sr3 2.598200 1_554
O2 Sr1 2.625340 1_654
O2 Sr6 2.696020 1_555
O3 Rh1 2.069611 1_555
O3 Sr5 2.438997 1_555
O3 Sr3 2.587353 1_554
O3 Sr0 2.598200 1_555
O3 Sr4 2.625340 1_555
O3 Sr6 2.696020 1_555
O4 Rh1 2.069611 1_555
O4 Sr5 2.438997 1_555
O4 Sr0 2.587352 1_455
O4 Sr2 2.598200 1_555
O4 Sr1 2.625340 1_555
O4 Sr4 2.696020 1_555
O5 Rh0 2.070848 1_455
O5 Pb0 2.303014 1_455
O5 Sr1 2.605957 1_555
O5 Sr0 2.658257 1_456
O5 Sr2 2.713163 1_555
O5 Sr4 2.722921 1_556
O6 Rh1 2.070848 1_555
O6 Pb0 2.303014 1_555
O6 Sr1 2.605957 1_655
O6 Sr0 2.658257 1_555
O6 Sr3 2.713163 1_555
O6 Sr6 2.722921 1_555
O7 Rh0 2.070848 1_554
O7 Pb0 2.303014 1_554
O7 Sr4 2.605957 1_555
O7 Sr3 2.658257 1_564
O7 Sr0 2.713163 1_555
O7 Sr6 2.722921 1_565
O8 Rh0 2.069611 1_454
O8 Sr5 2.438997 1_565
O8 Sr2 2.587352 1_555
O8 Sr0 2.598200 1_455
O8 Sr6 2.625340 1_465
O8 Sr4 2.696020 1_555
O9 Rh0 2.070848 1_545
O9 Pb0 2.303014 1_545
O9 Sr6 2.605957 1_555
O9 Sr2 2.658257 1_645
O9 Sr3 2.713163 1_555
O9 Sr1 2.722921 1_655
O10 Rh1 2.069611 1_555
O10 Sr5 2.438997 1_555
O10 Sr2 2.587353 1_545
O10 Sr3 2.598200 1_555
O10 Sr6 2.625340 1_555
O10 Sr1 2.696020 1_555
O11 Rh0 2.069611 1_445
O11 Sr5 2.438997 1_556
O11 Sr3 2.587353 1_555
O11 Sr2 2.598200 1_545
O11 Sr4 2.625340 1_546
O11 Sr1 2.696020 1_555
