# generated using pymatgen
data_SrNb6(InBr9)2
_symmetry_space_group_name_H-M   'P 1'
_cell_length_a   10.78754317
_cell_length_b   10.78754281
_cell_length_c   10.78754350
_cell_angle_alpha   54.62985886
_cell_angle_beta   54.62986186
_cell_angle_gamma   54.62985646
_symmetry_Int_Tables_number   1
_chemical_formula_structural   SrNb6(InBr9)2
_chemical_formula_sum   'Sr1 Nb6 In2 Br18'
_cell_volume   776.59528025
_cell_formula_units_Z   1
loop_
 _symmetry_equiv_pos_site_id
 _symmetry_equiv_pos_as_xyz
  1  'x, y, z'
loop_
 _atom_site_type_symbol
 _atom_site_label
 _atom_site_symmetry_multiplicity
 _atom_site_fract_x
 _atom_site_fract_y
 _atom_site_fract_z
 _atom_site_occupancy
  Sr  Sr0  1  0.50000000  0.50000000  0.50000000  1
  Nb  Nb0  1  0.92898801  0.79808004  0.14089509  1
  Nb  Nb1  1  0.07101199  0.20191996  0.85910491  1
  Nb  Nb2  1  0.14089509  0.92898801  0.79808004  1
  Nb  Nb3  1  0.85910491  0.07101199  0.20191996  1
  Nb  Nb4  1  0.79808004  0.14089509  0.92898801  1
  Nb  Nb5  1  0.20191996  0.85910491  0.07101199  1
  In  In0  1  0.22025997  0.22025997  0.22025997  1
  In  In1  1  0.77974003  0.77974003  0.77974003  1
  Br  Br0  1  0.15921684  0.48399285  0.66998174  1
  Br  Br1  1  0.92464092  0.08362893  0.66566614  1
  Br  Br2  1  0.33433386  0.07535908  0.91637107  1
  Br  Br3  1  0.66566614  0.92464092  0.08362893  1
  Br  Br4  1  0.58063884  0.26135424  0.15909797  1
  Br  Br5  1  0.08362893  0.66566614  0.92464092  1
  Br  Br6  1  0.66998174  0.15921684  0.48399285  1
  Br  Br7  1  0.73864576  0.84090203  0.41936116  1
  Br  Br8  1  0.41936116  0.73864576  0.84090203  1
  Br  Br9  1  0.33001826  0.84078316  0.51600715  1
  Br  Br10  1  0.26135424  0.15909797  0.58063884  1
  Br  Br11  1  0.84090203  0.41936116  0.73864576  1
  Br  Br12  1  0.07535908  0.91637107  0.33433386  1
  Br  Br13  1  0.51600715  0.33001826  0.84078316  1
  Br  Br14  1  0.15909797  0.58063884  0.26135424  1
  Br  Br15  1  0.91637107  0.33433386  0.07535908  1
  Br  Br16  1  0.84078316  0.51600715  0.33001826  1
  Br  Br17  1  0.48399285  0.66998174  0.15921684  1
loop_
_geom_bond_atom_site_label_1
_geom_bond_atom_site_label_2
_geom_bond_distance
_geom_bond_site_symmetry_2
Br0 Nb1 2.871280 1_555
Br0 Sr0 3.077490 1_555
Br1 Nb2 2.619004 1_645
Br1 Nb4 2.622953 1_555
Br2 Nb5 2.619004 1_546
Br2 Nb1 2.622953 1_555
Br3 Nb4 2.619004 1_564
Br3 Nb0 2.622953 1_555
Br4 Nb4 2.610983 1_554
Br4 Nb3 2.611673 1_555
Br5 Nb0 2.619004 1_456
Br5 Nb2 2.622953 1_555
Br6 Nb3 2.871280 1_555
Br6 Sr0 3.077489 1_555
Br7 Nb3 2.610983 1_565
Br7 Nb0 2.611673 1_555
Br8 Nb5 2.610983 1_556
Br8 Nb2 2.611673 1_555
Br9 Nb2 2.871280 1_555
Br9 Sr0 3.077489 1_555
Br10 Nb2 2.610983 1_545
Br10 Nb1 2.611673 1_555
Br11 Nb1 2.610983 1_655
Br11 Nb4 2.611673 1_555
Br12 Nb3 2.619004 1_465
Br12 Nb5 2.622953 1_555
Br13 Nb4 2.871280 1_555
Br13 Sr0 3.077490 1_555
Br14 Nb0 2.610983 1_455
Br14 Nb5 2.611673 1_555
Br15 Nb1 2.619004 1_654
Br15 Nb3 2.622953 1_555
Br16 Nb0 2.871280 1_555
Br16 Sr0 3.077490 1_555
Br17 Nb5 2.871280 1_555
Br17 Sr0 3.077490 1_555
