# generated using pymatgen
data_Ca5TcMoN7
_symmetry_space_group_name_H-M   'P 1'
_cell_length_a   6.10296407
_cell_length_b   8.95433660
_cell_length_c   8.91902211
_cell_angle_alpha   115.73449074
_cell_angle_beta   97.12702457
_cell_angle_gamma   88.64578098
_symmetry_Int_Tables_number   1
_chemical_formula_structural   Ca5TcMoN7
_chemical_formula_sum   'Ca10 Tc2 Mo2 N14'
_cell_volume   435.42186608
_cell_formula_units_Z   2
loop_
 _symmetry_equiv_pos_site_id
 _symmetry_equiv_pos_as_xyz
  1  'x, y, z'
loop_
 _atom_site_type_symbol
 _atom_site_label
 _atom_site_symmetry_multiplicity
 _atom_site_fract_x
 _atom_site_fract_y
 _atom_site_fract_z
 _atom_site_occupancy
  Ca  Ca0  1  0.83618976  0.60725833  0.32090671  1
  Ca  Ca1  1  0.26220613  0.98367523  0.55230502  1
  Ca  Ca2  1  0.70519819  0.41510449  0.85622598  1
  Ca  Ca3  1  0.29480181  0.58489551  0.14377402  1
  Ca  Ca4  1  0.39465462  0.78927779  0.91797977  1
  Ca  Ca5  1  0.60534538  0.21072221  0.08202023  1
  Ca  Ca6  1  0.16381024  0.39274167  0.67909329  1
  Ca  Ca7  1  0.89236002  0.85813539  0.75420258  1
  Ca  Ca8  1  0.10763998  0.14186461  0.24579742  1
  Ca  Ca9  1  0.73779387  0.01632477  0.44769498  1
  Tc  Tc0  1  0.58118171  0.35377268  0.47475632  1
  Tc  Tc1  1  0.41881829  0.64622732  0.52524368  1
  Mo  Mo0  1  0.12526356  0.21659295  0.92496889  1
  Mo  Mo1  1  0.87473644  0.78340705  0.07503111  1
  N  N0  1  0.50583863  0.54405659  0.67603508  1
  N  N1  1  0.49416137  0.45594341  0.32396492  1
  N  N2  1  0.14234374  0.72013477  0.55079985  1
  N  N3  1  0.85765626  0.27986523  0.44920015  1
  N  N4  1  0.41059081  0.18370351  0.47172289  1
  N  N5  1  0.58940919  0.81629649  0.52827711  1
  N  N6  1  0.95372761  0.13090882  0.71680640  1
  N  N7  1  0.04627239  0.86909118  0.28319360  1
  N  N8  1  0.23885895  0.05039106  0.97797980  1
  N  N9  1  0.76114105  0.94960894  0.02202020  1
  N  N10  1  0.36857158  0.32746910  0.90811155  1
  N  N11  1  0.95994442  0.36099401  0.09076641  1
  N  N12  1  0.04005558  0.63900599  0.90923359  1
  N  N13  1  0.63142842  0.67253090  0.09188845  1
loop_
_geom_bond_atom_site_label_1
_geom_bond_atom_site_label_2
_geom_bond_distance
_geom_bond_site_symmetry_2
Ca0 N11 2.453900 1_555
Ca0 N2 2.460857 1_655
Ca0 N1 2.524610 1_555
Ca0 N13 2.538575 1_555
Ca0 N5 2.596984 1_555
Ca0 N7 2.861432 1_655
Ca1 N7 2.385553 1_555
Ca1 N4 2.429160 1_565
Ca1 N5 2.442472 1_555
Ca1 N2 2.481076 1_555
Ca1 N6 2.514638 1_465
Ca2 N10 2.382864 1_555
Ca2 N13 2.431530 1_556
Ca2 N0 2.540938 1_555
Ca2 N11 2.658076 1_556
Ca2 N12 2.747778 1_655
Ca2 N6 2.803632 1_555
Ca3 N13 2.382864 1_555
Ca3 N10 2.431530 1_554
Ca3 N1 2.540938 1_555
Ca3 N12 2.658076 1_554
Ca3 N11 2.747778 1_455
Ca3 N7 2.803632 1_555
Ca4 N8 2.364687 1_565
Ca4 N0 2.473187 1_555
Ca4 N13 2.523365 1_556
Ca4 N9 2.530748 1_556
Ca4 N12 2.550418 1_555
Ca5 N9 2.364687 1_545
Ca5 N1 2.473187 1_555
Ca5 N10 2.523365 1_554
Ca5 N8 2.530748 1_554
Ca5 N11 2.550418 1_555
Ca6 N12 2.453900 1_555
Ca6 N3 2.460857 1_455
Ca6 N0 2.524610 1_555
Ca6 N10 2.538575 1_555
Ca6 N4 2.596984 1_555
Ca6 N6 2.861432 1_455
Ca7 N9 2.400538 1_556
Ca7 N2 2.407619 1_655
Ca7 N5 2.464112 1_555
Ca7 N6 2.645570 1_565
Ca7 N8 2.749541 1_665
Ca7 N12 2.921934 1_655
Ca8 N8 2.400538 1_554
Ca8 N3 2.407619 1_455
Ca8 N4 2.464112 1_555
Ca8 N7 2.645570 1_545
Ca8 N9 2.749541 1_445
Ca8 N11 2.921934 1_455
Ca9 N6 2.385553 1_555
Ca9 N5 2.429160 1_545
Ca9 N4 2.442472 1_555
Ca9 N3 2.481076 1_555
Ca9 N7 2.514638 1_645
Mo0 N8 1.843890 1_555
Mo0 N6 1.857488 1_455
Mo0 N10 1.862240 1_555
Mo0 N11 1.877411 1_456
Mo1 N9 1.843890 1_555
Mo1 N7 1.857488 1_655
Mo1 N13 1.862240 1_555
Mo1 N12 1.877411 1_654
N0 Tc1 1.948365 1_555
N0 Tc0 1.961861 1_555
N1 Tc0 1.948365 1_555
N1 Tc1 1.961861 1_555
N2 Tc1 1.802391 1_555
N3 Tc0 1.802391 1_555
N4 Tc0 1.853620 1_555
N5 Tc1 1.853620 1_555
