# generated using pymatgen
data_Fe2Bi6RhO18
_symmetry_space_group_name_H-M   'P 1'
_cell_length_a   8.94238842
_cell_length_b   8.94239938
_cell_length_c   5.15405507
_cell_angle_alpha   90.00003052
_cell_angle_beta   90.00004129
_cell_angle_gamma   120.00006966
_symmetry_Int_Tables_number   1
_chemical_formula_structural   Fe2Bi6RhO18
_chemical_formula_sum   'Fe2 Bi6 Rh1 O18'
_cell_volume   356.93322268
_cell_formula_units_Z   1
loop_
 _symmetry_equiv_pos_site_id
 _symmetry_equiv_pos_as_xyz
  1  'x, y, z'
loop_
 _atom_site_type_symbol
 _atom_site_label
 _atom_site_symmetry_multiplicity
 _atom_site_fract_x
 _atom_site_fract_y
 _atom_site_fract_z
 _atom_site_occupancy
  Fe  Fe0  1  1.00000000  1.00000000  0.50219314  1
  Fe  Fe1  1  0.33333300  0.66666600  0.99954730  1
  Bi  Bi0  1  0.00754841  0.38307754  0.50032730  1
  Bi  Bi1  1  0.28552966  0.28522047  0.00209129  1
  Bi  Bi2  1  0.99969181  0.71447134  0.00209029  1
  Bi  Bi3  1  0.61692246  0.62446987  0.50032730  1
  Bi  Bi4  1  0.37552913  0.99245359  0.50032830  1
  Bi  Bi5  1  0.71477953  0.00030819  0.00209029  1
  Rh  Rh0  1  0.66666500  0.33333300  0.99188888  1
  O  O0  1  0.08172146  0.19631237  0.71010720  1
  O  O1  1  0.23441219  0.46764426  0.21443326  1
  O  O2  1  0.14364121  0.60461177  0.79554017  1
  O  O3  1  0.39538823  0.53903043  0.79553917  1
  O  O4  1  0.23323107  0.76558681  0.21443526  1
  O  O5  1  0.11458991  0.91827854  0.71010720  1
  O  O6  1  0.53235574  0.76676893  0.21443526  1
  O  O7  1  0.19415608  0.07773155  0.29630425  1
  O  O8  1  0.46096957  0.85635880  0.79553917  1
  O  O9  1  0.80368763  0.88541009  0.71010620  1
  O  O10  1  0.45645449  0.22301695  0.77873075  1
  O  O11  1  0.59187023  0.12813398  0.20459034  1
  O  O12  1  0.53626675  0.40813077  0.20458834  1
  O  O13  1  0.77698305  0.23343854  0.77872975  1
  O  O14  1  0.92226845  0.11642553  0.29630425  1
  O  O15  1  0.76656246  0.54354551  0.77873075  1
  O  O16  1  0.87186602  0.46373425  0.20459134  1
  O  O17  1  0.88357447  0.80584292  0.29630325  1
loop_
_geom_bond_atom_site_label_1
_geom_bond_atom_site_label_2
_geom_bond_distance
_geom_bond_site_symmetry_2
Fe0 O7 1.848470 1_665
Fe0 O14 1.848478 1_565
Fe0 O17 1.848478 1_555
Fe0 O5 1.865809 1_655
Fe0 O9 1.865811 1_555
Fe0 O0 1.865815 1_665
Fe1 O3 1.830196 1_555
Fe1 O2 1.830199 1_555
Fe1 O8 1.830208 1_555
Fe1 O1 1.897958 1_556
Fe1 O6 1.897967 1_556
Fe1 O4 1.897970 1_556
Bi0 O16 2.278336 1_455
Bi0 O2 2.304297 1_555
Bi0 O1 2.307510 1_555
Bi0 O13 2.311193 1_455
Bi0 O0 2.346504 1_555
Bi0 O14 2.356852 1_455
Bi1 O0 2.183906 1_554
Bi1 O1 2.193983 1_555
Bi1 O10 2.195714 1_554
Bi1 O12 2.204609 1_555
Bi1 O7 2.212170 1_555
Bi1 O3 2.240563 1_554
Bi2 O5 2.183900 1_654
Bi2 O4 2.193977 1_655
Bi2 O15 2.195715 1_554
Bi2 O16 2.204623 1_555
Bi2 O17 2.212170 1_555
Bi2 O2 2.240550 1_654
Bi3 O12 2.278346 1_555
Bi3 O3 2.304297 1_555
Bi3 O6 2.307517 1_555
Bi3 O15 2.311192 1_555
Bi3 O9 2.346509 1_555
Bi3 O17 2.356855 1_555
Bi4 O11 2.278351 1_565
Bi4 O8 2.304300 1_555
Bi4 O4 2.307522 1_555
Bi4 O10 2.311181 1_565
Bi4 O5 2.346503 1_555
Bi4 O7 2.356850 1_565
Bi5 O9 2.183897 1_544
Bi5 O6 2.193980 1_545
Bi5 O13 2.195730 1_554
Bi5 O11 2.204607 1_555
Bi5 O14 2.212170 1_555
Bi5 O8 2.240555 1_544
O10 Rh0 1.964520 1_555
O11 Rh0 1.946531 1_554
O12 Rh0 1.946500 1_554
O13 Rh0 1.964540 1_555
O15 Rh0 1.964536 1_555
O16 Rh0 1.946538 1_554
