# generated using pymatgen
data_Ca3Se2(BrO3)2
_symmetry_space_group_name_H-M   'P 1'
_cell_length_a   6.84278918
_cell_length_b   6.84278874
_cell_length_c   6.71186337
_cell_angle_alpha   84.02470748
_cell_angle_beta   84.02470806
_cell_angle_gamma   47.10728849
_symmetry_Int_Tables_number   1
_chemical_formula_structural   Ca3Se2(BrO3)2
_chemical_formula_sum   'Ca3 Se2 Br2 O6'
_cell_volume   228.75744606
_cell_formula_units_Z   1
loop_
 _symmetry_equiv_pos_site_id
 _symmetry_equiv_pos_as_xyz
  1  'x, y, z'
loop_
 _atom_site_type_symbol
 _atom_site_label
 _atom_site_symmetry_multiplicity
 _atom_site_fract_x
 _atom_site_fract_y
 _atom_site_fract_z
 _atom_site_occupancy
  Ca  Ca0  1  0.27574936  0.29070660  0.19316720  1
  Ca  Ca1  1  0.70929340  0.72425064  0.80683280  1
  Ca  Ca2  1  0.93634855  0.06365145  0.00000000  1
  Se  Se0  1  0.40164815  0.41839268  0.74086836  1
  Se  Se1  1  0.58160732  0.59835185  0.25913164  1
  Br  Br0  1  0.17478744  0.13598456  0.61183732  1
  Br  Br1  1  0.86401544  0.82521256  0.38816268  1
  O  O0  1  0.87181427  0.43511742  0.10693370  1
  O  O1  1  0.37025970  0.88428878  0.10857091  1
  O  O2  1  0.11571122  0.62974030  0.89142909  1
  O  O3  1  0.56488258  0.12818573  0.89306630  1
  O  O4  1  0.51938648  0.40850393  0.21464028  1
  O  O5  1  0.59149607  0.48061352  0.78535972  1
loop_
_geom_bond_atom_site_label_1
_geom_bond_atom_site_label_2
_geom_bond_distance
_geom_bond_site_symmetry_2
Ca0 O4 2.313749 1_555
Ca0 O0 2.333954 1_455
Ca0 O3 2.418644 1_554
Ca0 O1 2.505757 1_545
Ca0 O2 2.589995 1_554
Ca1 O5 2.313749 1_555
Ca1 O3 2.333954 1_565
Ca1 O0 2.418644 1_556
Ca1 O2 2.505757 1_655
Ca1 O1 2.589995 1_556
Ca2 O0 2.440712 1_555
Ca2 O3 2.440712 1_554
Ca2 O2 2.481315 1_644
Ca2 O1 2.481316 1_645
Ca2 O5 2.543905 1_554
Ca2 O4 2.543905 1_555
Br0 Ca1 3.038039 1_545
Br0 Ca0 3.076798 1_555
Br0 Ca2 3.104908 1_456
Br0 Ca1 3.292045 1_455
Br1 Ca0 3.038038 1_655
Br1 Ca1 3.076798 1_555
Br1 Ca2 3.104907 1_565
Br1 Ca0 3.292045 1_565
O0 Se1 1.740818 1_555
O1 Se1 1.726774 1_555
O2 Se0 1.726774 1_555
O3 Se0 1.740818 1_555
O4 Se1 1.678761 1_555
O5 Se0 1.678761 1_555
