# generated using pymatgen
data_Hf5Zr5Sn6P
_symmetry_space_group_name_H-M   'P 1'
_cell_length_a   5.80178360
_cell_length_b   8.51299425
_cell_length_c   8.51509073
_cell_angle_alpha   119.99186633
_cell_angle_beta   89.94653822
_cell_angle_gamma   90.10693866
_symmetry_Int_Tables_number   1
_chemical_formula_structural   Hf5Zr5Sn6P
_chemical_formula_sum   'Hf5 Zr5 Sn6 P1'
_cell_volume   364.24920279
_cell_formula_units_Z   1
loop_
 _symmetry_equiv_pos_site_id
 _symmetry_equiv_pos_as_xyz
  1  'x, y, z'
loop_
 _atom_site_type_symbol
 _atom_site_label
 _atom_site_symmetry_multiplicity
 _atom_site_fract_x
 _atom_site_fract_y
 _atom_site_fract_z
 _atom_site_occupancy
  Hf  Hf0  1  0.49993817  0.33328053  0.66683138  1
  Hf  Hf1  1  0.49993817  0.66644915  0.33316862  1
  Hf  Hf2  1  0.99982344  0.66649486  0.33327592  1
  Hf  Hf3  1  0.99982344  0.33321994  0.66672408  1
  Hf  Hf4  1  0.75533402  0.25041303  0.00000000  1
  Zr  Zr0  1  0.75651113  0.74943513  0.74965711  1
  Zr  Zr1  1  0.75651113  0.99977701  0.25034289  1
  Zr  Zr2  1  0.24500091  0.74983693  0.00000000  1
  Zr  Zr3  1  0.24306762  0.25042332  0.24970582  1
  Zr  Zr4  1  0.24306762  0.00071750  0.75029418  1
  Sn  Sn0  1  0.74976312  0.60367199  1.00000000  1
  Sn  Sn1  1  0.74915974  0.39430669  0.39375976  1
  Sn  Sn2  1  0.74915974  0.00054693  0.60624024  1
  Sn  Sn3  1  0.25007091  0.39499631  0.00000000  1
  Sn  Sn4  1  0.25065556  0.60511037  0.60505440  1
  Sn  Sn5  1  0.25065556  0.00005598  0.39494560  1
  P  P0  1  0.50151771  0.00126833  0.00000000  1
loop_
_geom_bond_atom_site_label_1
_geom_bond_atom_site_label_2
_geom_bond_distance
_geom_bond_site_symmetry_2
Hf0 Sn0 2.985676 1_555
Hf0 Sn5 2.987270 1_555
Hf0 Sn3 2.988473 1_556
Hf0 Sn2 2.988833 1_555
Hf0 Sn4 2.992382 1_555
Hf0 Sn1 2.994314 1_555
Hf1 Sn0 2.985676 1_554
Hf1 Sn4 2.987270 1_555
Hf1 Sn3 2.988473 1_555
Hf1 Sn1 2.988834 1_555
Hf1 Sn5 2.992382 1_565
Hf1 Sn2 2.994314 1_565
Hf2 Sn1 2.988054 1_555
Hf2 Sn0 2.988611 1_554
Hf2 Sn3 2.991790 1_655
Hf2 Sn5 2.992015 1_665
Hf2 Sn4 2.994104 1_655
Hf2 Sn2 3.000905 1_565
Hf3 Sn2 2.988061 1_555
Hf3 Sn0 2.988608 1_555
Hf3 Sn3 2.991793 1_656
Hf3 Sn4 2.992007 1_655
Hf3 Sn5 2.994108 1_655
Hf3 Sn1 3.000901 1_555
Hf4 P0 2.579798 1_555
Hf4 Sn2 2.938966 1_554
Hf4 Sn1 2.938967 1_555
Hf4 Sn0 3.007525 1_554
Hf4 Sn3 3.121012 1_655
Hf4 Sn3 3.181461 1_555
Sn0 Zr1 2.954586 1_556
Sn0 Zr0 2.954593 1_555
Sn0 Zr2 3.128990 1_656
Sn0 Zr2 3.184042 1_556
Sn1 Zr1 2.945067 1_545
Sn1 Zr0 3.027492 1_555
Sn1 Zr3 3.117811 1_655
Sn1 Zr3 3.180822 1_555
Sn2 Zr0 2.945059 1_545
Sn2 Zr1 3.027488 1_545
Sn2 Zr4 3.117812 1_655
Sn2 Zr4 3.180822 1_555
Sn3 Zr4 2.941652 1_554
Sn3 Zr3 2.941652 1_555
Sn3 Zr2 3.020954 1_555
Sn4 Zr2 2.947262 1_556
Sn4 Zr4 2.951261 1_565
Sn4 Zr3 3.023293 1_555
Sn4 Zr0 3.120736 1_455
Sn4 Zr0 3.181182 1_555
Sn5 Zr2 2.947262 1_545
Sn5 Zr3 2.951261 1_555
Sn5 Zr4 3.023294 1_555
Sn5 Zr1 3.120734 1_445
Sn5 Zr1 3.181180 1_545
P0 Zr3 2.601039 1_555
P0 Zr4 2.601040 1_554
P0 Zr0 2.601142 1_544
P0 Zr1 2.601146 1_545
P0 Zr2 2.604702 1_545
