# generated using pymatgen
data_SmPS4
_symmetry_space_group_name_H-M   'P 1'
_cell_length_a   12.32414844
_cell_length_b   12.32415029
_cell_length_c   12.32423230
_cell_angle_alpha   127.71550422
_cell_angle_beta   127.71550254
_cell_angle_gamma   77.08589163
_symmetry_Int_Tables_number   1
_chemical_formula_structural   SmPS4
_chemical_formula_sum   'Sm8 P8 S32'
_cell_volume   1136.86899561
_cell_formula_units_Z   8
loop_
 _symmetry_equiv_pos_site_id
 _symmetry_equiv_pos_as_xyz
  1  'x, y, z'
loop_
 _atom_site_type_symbol
 _atom_site_label
 _atom_site_symmetry_multiplicity
 _atom_site_fract_x
 _atom_site_fract_y
 _atom_site_fract_z
 _atom_site_occupancy
  Sm  Sm0  1  0.00000125  0.00000255  0.00000333  1
  Sm  Sm1  1  0.74999865  0.24999743  0.49999665  1
  Sm  Sm2  1  0.25000280  0.75000130  0.50000355  1
  Sm  Sm3  1  0.49999746  0.49999883  -0.00000335  1
  Sm  Sm4  1  0.75000054  0.74999935  -0.00000008  1
  Sm  Sm5  1  0.49999988  0.00000009  0.49999989  1
  Sm  Sm6  1  -0.00000056  0.50000073  0.50000019  1
  Sm  Sm7  1  0.25000009  0.24999983  -0.00000002  1
  P  P0  1  0.12499908  0.41315296  0.78815256  1
  P  P1  1  0.12500070  0.91315263  0.28815117  1
  P  P2  1  0.66315297  0.87499918  0.28815261  1
  P  P3  1  0.58684728  0.37499922  0.71184866  1
  P  P4  1  0.62500094  0.83684696  0.71184744  1
  P  P5  1  0.62499916  0.33684725  0.21184863  1
  P  P6  1  0.08684704  0.37500091  0.21184748  1
  P  P7  1  0.16315280  0.87500085  0.78815141  1
  S  S0  1  0.48543795  0.21366235  0.45378160  1
  S  S1  1  0.75988882  0.03166421  0.54622203  1
  S  S2  1  0.78166897  0.73544058  0.77177733  1
  S  S3  1  0.96366075  0.00989112  0.22822156  1
  S  S4  1  0.49010885  0.53633929  0.77177839  1
  S  S5  1  0.76455929  0.71833100  0.22822262  1
  S  S6  1  0.28633772  0.01456197  0.54621830  1
  S  S7  1  0.46833573  0.74011115  0.45377794  1
  S  S8  1  0.27867136  0.46507382  0.31886149  1
  S  S9  1  0.21507510  0.39621244  0.68640309  1
  S  S10  1  0.70980655  0.52866687  0.31358153  1
  S  S11  1  0.97133315  0.79019345  0.68641853  1
  S  S12  1  0.10378771  0.28492488  0.31359703  1
  S  S13  1  0.54019239  0.35379165  0.31886973  1
  S  S14  1  0.03492623  0.22132876  0.68113863  1
  S  S15  1  0.14620836  0.95980759  0.68113032  1
  S  S16  1  0.47132868  0.78492628  0.18113854  1
  S  S17  1  0.53492477  0.85378758  0.81359688  1
  S  S18  1  0.04019351  0.72133305  0.18641837  1
  S  S19  1  0.77866688  0.45980653  0.81358152  1
  S  S20  1  0.64621232  0.96507517  0.18640306  1
  S  S21  1  0.20980767  0.89620823  0.18113029  1
  S  S22  1  0.71507375  0.02867131  0.81886139  1
  S  S23  1  0.60379162  0.29019237  0.81886963  1
  S  S24  1  0.99011107  0.21833578  0.95377788  1
  S  S25  1  0.96833113  0.51455941  0.72822287  1
  S  S26  1  0.78633923  0.24010883  0.27177837  1
  S  S27  1  0.25989122  0.71366074  0.72822166  1
  S  S28  1  0.98544067  0.53166899  0.27177730  1
  S  S29  1  0.46366227  0.23543789  0.95378158  1
  S  S30  1  0.28166411  0.50988892  0.04622197  1
  S  S31  1  0.26456211  0.03633772  0.04621845  1
loop_
_geom_bond_atom_site_label_1
_geom_bond_atom_site_label_2
_geom_bond_distance
_geom_bond_site_symmetry_2
P0 S14 2.031648 1_555
P0 S9 2.031665 1_555
P0 S30 2.035028 1_556
P0 S25 2.035035 1_455
P1 S21 2.031673 1_555
P1 S18 2.031675 1_555
P1 S6 2.035010 1_565
P1 S3 2.035066 1_465
P2 S16 2.031648 1_555
P2 S20 2.031665 1_555
P2 S1 2.035028 1_565
P2 S5 2.035036 1_555
P3 S23 2.031673 1_555
P3 S19 2.031675 1_555
P3 S0 2.035010 1_555
P3 S4 2.035067 1_555
P4 S22 2.031649 1_565
P4 S17 2.031666 1_555
P4 S7 2.035029 1_555
P4 S2 2.035035 1_555
P5 S13 2.031673 1_555
P5 S10 2.031676 1_555
P5 S29 2.035010 1_554
P5 S26 2.035067 1_555
P6 S8 2.031649 1_555
P6 S12 2.031666 1_555
P6 S24 2.035029 1_454
P6 S28 2.035036 1_455
P7 S15 2.031672 1_555
P7 S11 2.031676 1_455
P7 S31 2.035010 1_566
P7 S27 2.035067 1_555
S0 Sm5 2.964662 1_555
S0 Sm1 3.037133 1_555
S1 Sm5 2.964762 1_555
S1 Sm1 3.037037 1_555
S2 Sm4 2.964784 1_556
S2 Sm0 3.037067 1_666
S3 Sm4 2.964769 1_545
S3 Sm0 3.037047 1_655
S4 Sm4 2.964767 1_556
S4 Sm3 3.037047 1_556
S5 Sm4 2.964785 1_555
S5 Sm3 3.037065 1_555
S6 Sm5 2.964661 1_555
S6 Sm2 3.037134 1_545
S7 Sm5 2.964764 1_565
S7 Sm2 3.037035 1_555
S8 Sm2 2.873768 1_555
S8 Sm7 2.927298 1_555
S9 Sm3 2.873748 1_556
S9 Sm6 2.927290 1_555
S10 Sm3 2.873693 1_555
S10 Sm6 2.927299 1_655
S11 Sm0 2.873692 1_666
S11 Sm6 2.927298 1_655
S12 Sm0 2.873748 1_555
S12 Sm6 2.927292 1_555
S13 Sm1 2.873736 1_555
S13 Sm7 2.927337 1_555
S14 Sm1 2.873769 1_455
S14 Sm7 2.927298 1_556
S15 Sm2 2.873737 1_555
S15 Sm7 2.927337 1_566
S16 Sm3 2.873768 1_555
S16 Sm5 2.927297 1_565
S17 Sm2 2.873745 1_555
S17 Sm4 2.927290 1_556
S18 Sm2 2.873695 1_555
S18 Sm4 2.927300 1_455
S19 Sm1 2.873692 1_555
S19 Sm4 2.927299 1_556
S20 Sm1 2.873748 1_565
S20 Sm4 2.927291 1_555
S21 Sm0 2.873737 1_565
S21 Sm5 2.927336 1_565
S22 Sm0 2.873768 1_656
S22 Sm5 2.927298 1_555
S23 Sm3 2.873736 1_556
S23 Sm5 2.927338 1_555
S24 Sm7 2.964763 1_656
S24 Sm0 3.037038 1_656
S25 Sm6 2.964785 1_655
S25 Sm1 3.037067 1_555
S26 Sm6 2.964769 1_655
S26 Sm1 3.037048 1_555
S27 Sm6 2.964768 1_555
S27 Sm2 3.037048 1_555
S28 Sm6 2.964787 1_655
S28 Sm2 3.037067 1_655
S29 Sm7 2.964661 1_556
S29 Sm3 3.037136 1_556
S30 Sm7 2.964765 1_555
S30 Sm3 3.037038 1_555
S31 Sm7 2.964661 1_555
S31 Sm0 3.037134 1_555
