# generated using pymatgen
data_Sc(NbSe2)3
_symmetry_space_group_name_H-M   'P 1'
_cell_length_a   6.08384022
_cell_length_b   6.08384093
_cell_length_c   13.50483290
_cell_angle_alpha   90.00000000
_cell_angle_beta   90.00000000
_cell_angle_gamma   119.99999074
_symmetry_Int_Tables_number   1
_chemical_formula_structural   Sc(NbSe2)3
_chemical_formula_sum   'Sc2 Nb6 Se12'
_cell_volume   432.88799028
_cell_formula_units_Z   2
loop_
 _symmetry_equiv_pos_site_id
 _symmetry_equiv_pos_as_xyz
  1  'x, y, z'
loop_
 _atom_site_type_symbol
 _atom_site_label
 _atom_site_symmetry_multiplicity
 _atom_site_fract_x
 _atom_site_fract_y
 _atom_site_fract_z
 _atom_site_occupancy
  Sc  Sc0  1  0.33333300  0.66666700  0.25000000  1
  Sc  Sc1  1  0.66666700  0.33333300  0.75000000  1
  Nb  Nb0  1  0.00000000  0.00000000  0.50000000  1
  Nb  Nb1  1  0.00000000  0.00000000  0.00000000  1
  Nb  Nb2  1  0.33333300  0.66666700  0.00070240  1
  Nb  Nb3  1  0.66666700  0.33333300  0.99929760  1
  Nb  Nb4  1  0.66666700  0.33333300  0.50070240  1
  Nb  Nb5  1  0.33333300  0.66666700  0.49929760  1
  Se  Se0  1  0.33355853  0.32828476  0.37642959  1
  Se  Se1  1  0.67171524  0.00527277  0.37642959  1
  Se  Se2  1  0.99472723  0.66644147  0.37642959  1
  Se  Se3  1  0.32828476  0.33355853  0.62357041  1
  Se  Se4  1  0.00527277  0.67171524  0.62357041  1
  Se  Se5  1  0.66644147  0.99472723  0.62357041  1
  Se  Se6  1  0.66644147  0.67171524  0.87642959  1
  Se  Se7  1  0.32828476  0.99472723  0.87642959  1
  Se  Se8  1  0.00527277  0.33355853  0.87642959  1
  Se  Se9  1  0.67171524  0.66644147  0.12357041  1
  Se  Se10  1  0.99472723  0.32828476  0.12357041  1
  Se  Se11  1  0.33355853  0.00527277  0.12357041  1
loop_
_geom_bond_atom_site_label_1
_geom_bond_atom_site_label_2
_geom_bond_distance
_geom_bond_site_symmetry_2
Sc0 Se2 2.675093 1_455
Sc0 Se11 2.675093 1_565
Sc0 Se10 2.675098 1_455
Sc0 Se1 2.675098 1_565
Sc0 Se9 2.675102 1_555
Sc0 Se0 2.675103 1_555
Sc1 Se8 2.675093 1_655
Sc1 Se5 2.675093 1_545
Sc1 Se4 2.675098 1_655
Sc1 Se7 2.675098 1_545
Sc1 Se3 2.675102 1_555
Sc1 Se6 2.675103 1_555
Nb0 Se1 2.615133 1_455
Nb0 Se4 2.615133 1_545
Nb0 Se0 2.615135 1_555
Nb0 Se3 2.615135 1_555
Nb0 Se5 2.615137 1_445
Nb0 Se2 2.615138 1_445
Nb1 Se7 2.615133 1_544
Nb1 Se10 2.615133 1_455
Nb1 Se6 2.615135 1_444
Nb1 Se9 2.615135 1_445
Nb1 Se11 2.615137 1_555
Nb1 Se8 2.615138 1_554
Nb2 Se6 2.619610 1_554
Nb2 Se7 2.619611 1_554
Nb2 Se8 2.619611 1_554
Nb2 Se11 2.644653 1_565
Nb2 Se10 2.644658 1_455
Nb2 Se9 2.644662 1_555
Nb3 Se10 2.619610 1_556
Nb3 Se9 2.619611 1_556
Nb3 Se11 2.619611 1_556
Nb3 Se8 2.644653 1_655
Nb3 Se7 2.644658 1_545
Nb3 Se6 2.644662 1_555
Nb4 Se0 2.619610 1_555
Nb4 Se1 2.619611 1_555
Nb4 Se2 2.619611 1_555
Nb4 Se5 2.644653 1_545
Nb4 Se4 2.644658 1_655
Nb4 Se3 2.644662 1_555
Nb5 Se4 2.619610 1_555
Nb5 Se3 2.619611 1_555
Nb5 Se5 2.619611 1_555
Nb5 Se2 2.644653 1_455
Nb5 Se1 2.644658 1_565
Nb5 Se0 2.644662 1_555
