# generated using pymatgen
data_HfZr2NiN
_symmetry_space_group_name_H-M   'P 1'
_cell_length_a   5.75642508
_cell_length_b   5.75642627
_cell_length_c   8.76182854
_cell_angle_alpha   90.00000000
_cell_angle_beta   90.00000000
_cell_angle_gamma   146.81990187
_symmetry_Int_Tables_number   1
_chemical_formula_structural   HfZr2NiN
_chemical_formula_sum   'Hf2 Zr4 Ni2 N2'
_cell_volume   158.89279661
_cell_formula_units_Z   2
loop_
 _symmetry_equiv_pos_site_id
 _symmetry_equiv_pos_as_xyz
  1  'x, y, z'
loop_
 _atom_site_type_symbol
 _atom_site_label
 _atom_site_symmetry_multiplicity
 _atom_site_fract_x
 _atom_site_fract_y
 _atom_site_fract_z
 _atom_site_occupancy
  Hf  Hf0  1  0.36865814  0.63134386  0.06260033  1
  Hf  Hf1  1  0.36865814  0.63134386  0.43739967  1
  Zr  Zr0  1  0.06434108  0.93566092  0.25000000  1
  Zr  Zr1  1  0.63260829  0.36739371  0.56024726  1
  Zr  Zr2  1  0.93491727  0.06508473  0.75000000  1
  Zr  Zr3  1  0.63260829  0.36739371  0.93975274  1
  Ni  Ni0  1  0.75449470  0.24550730  0.25000000  1
  Ni  Ni1  1  0.24917512  0.75082688  0.75000000  1
  N  N0  1  0.99727399  0.00272601  0.00093597  1
  N  N1  1  0.99727399  0.00272601  0.49906403  1
loop_
_geom_bond_atom_site_label_1
_geom_bond_atom_site_label_2
_geom_bond_distance
_geom_bond_site_symmetry_2
Hf0 N0 2.237664 1_565
Hf0 N0 2.237670 1_455
Hf0 Ni0 2.642744 1_455
Hf0 Ni0 2.642744 1_565
Hf0 Ni1 3.039710 1_554
Hf1 N1 2.237664 1_565
Hf1 N1 2.237670 1_455
Hf1 Ni0 2.642744 1_455
Hf1 Ni0 2.642744 1_565
Hf1 Ni1 3.039710 1_555
Ni0 Zr0 2.665202 1_545
Ni0 Zr0 2.665203 1_655
Ni0 Zr3 3.032811 1_554
Ni0 Zr1 3.032811 1_555
Ni1 Zr2 2.627057 1_565
Ni1 Zr2 2.627058 1_455
Ni1 Zr1 2.668283 1_455
Ni1 Zr3 2.668283 1_455
Ni1 Zr1 2.668283 1_565
Ni1 Zr3 2.668283 1_565
N0 Zr3 2.284388 1_544
N0 Zr3 2.284392 1_654
N0 Zr2 2.303797 1_554
N0 Zr0 2.304303 1_645
N1 Zr1 2.284388 1_545
N1 Zr1 2.284392 1_655
N1 Zr2 2.303797 1_555
N1 Zr0 2.304303 1_645
