# generated using pymatgen
data_Zr20C17O
_symmetry_space_group_name_H-M   'P 1'
_cell_length_a   8.80669499
_cell_length_b   8.80765544
_cell_length_c   11.03948741
_cell_angle_alpha   62.93843367
_cell_angle_beta   62.95297663
_cell_angle_gamma   44.49543912
_symmetry_Int_Tables_number   1
_chemical_formula_structural   Zr20C17O
_chemical_formula_sum   'Zr20 C17 O1'
_cell_volume   522.67167725
_cell_formula_units_Z   1
loop_
 _symmetry_equiv_pos_site_id
 _symmetry_equiv_pos_as_xyz
  1  'x, y, z'
loop_
 _atom_site_type_symbol
 _atom_site_label
 _atom_site_symmetry_multiplicity
 _atom_site_fract_x
 _atom_site_fract_y
 _atom_site_fract_z
 _atom_site_occupancy
  Zr  Zr0  1  0.22716476  0.48138193  0.94298167  1
  Zr  Zr1  1  0.72177582  0.96713972  0.95600182  1
  Zr  Zr2  1  0.56369604  0.33099802  0.64844606  1
  Zr  Zr3  1  0.43654208  0.66793769  0.35145744  1
  Zr  Zr4  1  0.28120715  0.02994777  0.04119262  1
  Zr  Zr5  1  0.08204937  0.81359993  0.64497372  1
  Zr  Zr6  1  0.12381193  0.37294619  0.75006161  1
  Zr  Zr7  1  0.91514542  0.18318557  0.35913777  1
  Zr  Zr8  1  0.96724017  0.72067955  0.45692078  1
  Zr  Zr9  1  0.77017144  0.52513563  0.05032903  1
  Zr  Zr10  1  0.62765103  0.87662873  0.74879758  1
  Zr  Zr11  1  0.81401732  0.08316088  0.14433488  1
  Zr  Zr12  1  0.47737346  0.22410713  0.44796259  1
  Zr  Zr13  1  0.66973037  0.43664597  0.85085869  1
  Zr  Zr14  1  0.52128486  0.77635844  0.55379255  1
  Zr  Zr15  1  0.33032050  0.56329809  0.14852159  1
  Zr  Zr16  1  0.37771542  0.11926487  0.25281940  1
  Zr  Zr17  1  0.18595784  0.91930760  0.85479555  1
  Zr  Zr18  1  0.03263754  0.27849069  0.54424350  1
  Zr  Zr19  1  0.87265137  0.63356017  0.25176083  1
  C  C0  1  0.92538518  0.67658192  0.85168914  1
  C  C1  1  0.57512797  0.82786247  0.14749568  1
  C  C2  1  0.77739876  0.02662505  0.54896567  1
  C  C3  1  0.42231508  0.17339399  0.85431694  1
  C  C4  1  0.62721725  0.37550397  0.24911892  1
  C  C5  1  0.27543793  0.52819660  0.55064953  1
  C  C6  1  0.47289659  0.72585426  0.95091631  1
  C  C7  1  0.32228735  0.07499906  0.64994965  1
  C  C8  1  0.17250286  0.42404920  0.35130713  1
  C  C9  1  0.97559910  0.22356494  0.95191633  1
  C  C10  1  0.82629553  0.57617186  0.64753003  1
  C  C11  1  0.02558927  0.77318585  0.05129817  1
  C  C12  1  0.67731585  0.92330065  0.34809993  1
  C  C13  1  0.72604737  0.47042176  0.44735340  1
  C  C14  1  0.52576021  0.27605934  0.05180169  1
  C  C15  1  0.37509840  0.62302181  0.75128284  1
  C  C16  1  0.22280582  0.97731510  0.44706202  1
  O  O0  1  0.07677563  0.32011662  0.14985797  1
loop_
_geom_bond_atom_site_label_1
_geom_bond_atom_site_label_2
_geom_bond_distance
_geom_bond_site_symmetry_2
C0 Zr1 2.312487 1_555
C0 Zr0 2.318540 1_655
C0 Zr10 2.359362 1_555
C0 Zr5 2.360877 1_655
C0 Zr9 2.381192 1_556
C0 Zr6 2.396742 1_655
C1 Zr1 2.249291 1_554
C1 Zr16 2.339440 1_565
C1 Zr4 2.352594 1_565
C1 Zr9 2.367124 1_555
C1 Zr3 2.368753 1_555
C1 Zr19 2.381699 1_555
C2 Zr7 2.282482 1_555
C2 Zr5 2.331782 1_645
C2 Zr2 2.352917 1_555
C2 Zr10 2.353513 1_545
C2 Zr8 2.368166 1_545
C2 Zr12 2.368187 1_555
C3 Zr4 2.221095 1_556
C3 Zr0 2.346352 1_555
C3 Zr1 2.348931 1_545
C3 Zr10 2.360215 1_545
C3 Zr6 2.375705 1_555
C3 Zr2 2.379919 1_555
C4 Zr9 2.315302 1_555
C4 Zr3 2.341428 1_555
C4 Zr12 2.355987 1_555
C4 Zr7 2.361250 1_555
C4 Zr15 2.367556 1_555
C4 Zr11 2.368719 1_555
C5 Zr5 2.228228 1_555
C5 Zr2 2.263383 1_555
C5 Zr3 2.356810 1_555
C5 Zr6 2.385700 1_555
C5 Zr8 2.388548 1_455
C5 Zr12 2.398999 1_555
C6 Zr17 2.250736 1_555
C6 Zr13 2.287565 1_555
C6 Zr9 2.329940 1_556
C6 Zr4 2.337722 1_566
C6 Zr15 2.370018 1_556
C6 Zr10 2.391623 1_555
C7 Zr18 2.315759 1_555
C7 Zr14 2.321469 1_545
C7 Zr17 2.343871 1_545
C7 Zr6 2.345527 1_555
C7 Zr12 2.384728 1_555
C7 Zr10 2.388816 1_545
C8 Zr18 2.253810 1_555
C8 Zr19 2.329894 1_455
C8 Zr15 2.356136 1_555
C8 Zr8 2.360117 1_455
C8 Zr12 2.366191 1_555
C8 Zr16 2.366858 1_555
C9 Zr11 2.331887 1_556
C9 Zr4 2.336331 1_656
C9 Zr17 2.342718 1_645
C9 Zr9 2.343329 1_556
C9 Zr6 2.353186 1_655
C9 Zr13 2.374581 1_555
C10 Zr8 2.242769 1_555
C10 Zr14 2.346510 1_555
C10 Zr6 2.348024 1_655
C10 Zr18 2.348467 1_655
C10 Zr13 2.354246 1_555
C10 Zr10 2.371072 1_555
C11 Zr19 2.323744 1_455
C11 Zr15 2.346938 1_555
C11 Zr11 2.352493 1_465
C11 Zr0 2.354483 1_554
C11 Zr1 2.363869 1_454
C11 Zr17 2.371346 1_554
C12 Zr19 2.268390 1_555
C12 Zr16 2.328590 1_565
C12 Zr8 2.342125 1_555
C12 Zr11 2.359103 1_565
C12 Zr12 2.360518 1_565
C12 Zr14 2.396836 1_555
C13 Zr7 2.208705 1_555
C13 Zr3 2.258066 1_555
C13 Zr2 2.370268 1_555
C13 Zr19 2.383710 1_555
C13 Zr18 2.400360 1_655
C13 Zr14 2.432113 1_555
C14 Zr11 2.236225 1_555
C14 Zr15 2.253306 1_555
C14 Zr13 2.382138 1_554
C14 Zr16 2.383369 1_555
C14 Zr0 2.395942 1_554
C14 Zr1 2.399746 1_544
C15 Zr0 2.267420 1_555
C15 Zr14 2.341651 1_555
C15 Zr2 2.347442 1_555
C15 Zr13 2.347626 1_555
C15 Zr5 2.374317 1_555
C15 Zr17 2.381470 1_555
C16 Zr7 2.313596 1_465
C16 Zr16 2.314276 1_565
C16 Zr3 2.361116 1_555
C16 Zr5 2.368481 1_555
C16 Zr18 2.368534 1_565
C16 Zr14 2.390068 1_555
O0 Zr4 2.339514 1_555
O0 Zr16 2.380526 1_555
O0 Zr9 2.386597 1_455
O0 Zr7 2.396110 1_455
O0 Zr0 2.443085 1_554
O0 Zr19 2.454641 1_455
