# generated using pymatgen
data_As(S8I)3
_symmetry_space_group_name_H-M   'P 1'
_cell_length_a   14.52574858
_cell_length_b   14.52574858
_cell_length_c   14.52574798
_cell_angle_alpha   118.88835168
_cell_angle_beta   118.88835168
_cell_angle_gamma   118.88835303
_symmetry_Int_Tables_number   1
_chemical_formula_structural   As(S8I)3
_chemical_formula_sum   'As1 S24 I3'
_cell_volume   835.58208637
_cell_formula_units_Z   1
loop_
 _symmetry_equiv_pos_site_id
 _symmetry_equiv_pos_as_xyz
  1  'x, y, z'
loop_
 _atom_site_type_symbol
 _atom_site_label
 _atom_site_symmetry_multiplicity
 _atom_site_fract_x
 _atom_site_fract_y
 _atom_site_fract_z
 _atom_site_occupancy
  As  As0  1  0.73958743  0.73958743  0.73958743  1
  S  S0  1  0.81204354  0.53422022  0.53422022  1
  S  S1  1  0.53422022  0.53422022  0.81204354  1
  S  S2  1  0.53422022  0.81204354  0.53422022  1
  S  S3  1  0.23290316  0.36619621  0.62065951  1
  S  S4  1  0.37217923  0.97450675  0.37217923  1
  S  S5  1  0.37217923  0.37217923  0.97450675  1
  S  S6  1  0.97450675  0.37217923  0.37217923  1
  S  S7  1  0.11580401  0.73375858  0.24849212  1
  S  S8  1  0.24849212  0.11580401  0.73375858  1
  S  S9  1  0.73375858  0.24849212  0.11580401  1
  S  S10  1  0.73375858  0.11580401  0.24849212  1
  S  S11  1  0.24849212  0.73375858  0.11580401  1
  S  S12  1  0.11580401  0.24849212  0.73375858  1
  S  S13  1  0.35272764  0.88780433  0.54196402  1
  S  S14  1  0.54196402  0.35272764  0.88780433  1
  S  S15  1  0.88780433  0.54196402  0.35272764  1
  S  S16  1  0.88780433  0.35272764  0.54196402  1
  S  S17  1  0.54196402  0.88780433  0.35272764  1
  S  S18  1  0.35272764  0.54196402  0.88780433  1
  S  S19  1  0.23290316  0.62065951  0.36619621  1
  S  S20  1  0.36619621  0.23290316  0.62065951  1
  S  S21  1  0.62065951  0.36619621  0.23290316  1
  S  S22  1  0.62065951  0.23290316  0.36619621  1
  S  S23  1  0.36619621  0.62065951  0.23290316  1
  I  I0  1  0.88897084  0.04838569  0.04838569  1
  I  I1  1  0.04838569  0.04838569  0.88897084  1
  I  I2  1  0.04838569  0.88897084  0.04838569  1
loop_
_geom_bond_atom_site_label_1
_geom_bond_atom_site_label_2
_geom_bond_distance
_geom_bond_site_symmetry_2
As0 I2 2.588390 1_656
As0 I0 2.588390 1_566
As0 I1 2.588390 1_665
S0 S21 2.051428 1_555
S0 S22 2.051428 1_555
S1 S20 2.051428 1_555
S1 S3 2.051428 1_555
S2 S23 2.051428 1_555
S4 S7 2.051179 1_555
S5 S8 2.051179 1_555
S6 S9 2.051178 1_555
S10 S16 2.047228 1_555
S10 S6 2.051179 1_555
S11 S17 2.047228 1_555
S11 S4 2.051178 1_555
S12 S18 2.047228 1_555
S12 S5 2.051179 1_555
S13 S7 2.047228 1_555
S13 S19 2.052781 1_555
S14 S8 2.047228 1_555
S14 S20 2.052781 1_555
S15 S9 2.047228 1_555
S15 S21 2.052781 1_555
S16 S22 2.052781 1_555
S17 S23 2.052781 1_555
S18 S3 2.052781 1_555
S19 S2 2.051428 1_555
