# generated using pymatgen
data_CsK(Al3Se5)2
_symmetry_space_group_name_H-M   'P 1'
_cell_length_a   13.41929670
_cell_length_b   7.50300907
_cell_length_c   10.88048099
_cell_angle_alpha   77.31841965
_cell_angle_beta   90.00000000
_cell_angle_gamma   90.00000000
_symmetry_Int_Tables_number   1
_chemical_formula_structural   CsK(Al3Se5)2
_chemical_formula_sum   'Cs2 K2 Al12 Se20'
_cell_volume   1068.77777619
_cell_formula_units_Z   2
loop_
 _symmetry_equiv_pos_site_id
 _symmetry_equiv_pos_as_xyz
  1  'x, y, z'
loop_
 _atom_site_type_symbol
 _atom_site_label
 _atom_site_symmetry_multiplicity
 _atom_site_fract_x
 _atom_site_fract_y
 _atom_site_fract_z
 _atom_site_occupancy
  Cs  Cs0  1  0.60654066  0.84518184  0.40801330  1
  Cs  Cs1  1  0.10654066  0.15481816  0.09198670  1
  K  K0  1  0.36578087  0.15009628  0.63543616  1
  K  K1  1  0.86578087  0.84990372  0.86456384  1
  Al  Al0  1  0.92402075  0.78994646  0.39878301  1
  Al  Al1  1  0.57907430  0.79918913  0.89651038  1
  Al  Al2  1  0.42402075  0.21005354  0.10121699  1
  Al  Al3  1  0.40144533  0.56616819  0.80421791  1
  Al  Al4  1  0.10569160  0.55481320  0.30935270  1
  Al  Al5  1  0.33876248  0.71202029  0.12753917  1
  Al  Al6  1  0.60569160  0.44518680  0.19064730  1
  Al  Al7  1  0.07907430  0.20081087  0.60348962  1
  Al  Al8  1  0.66276813  0.29194463  0.87076092  1
  Al  Al9  1  0.90144533  0.43383181  0.69578209  1
  Al  Al10  1  0.16276813  0.70805537  0.62923908  1
  Al  Al11  1  0.83876248  0.28797971  0.37246083  1
  Se  Se0  1  0.83473669  0.71053404  0.58819079  1
  Se  Se1  1  0.10456411  0.80859955  0.41449251  1
  Se  Se2  1  0.67428501  0.72135701  0.08045937  1
  Se  Se3  1  0.39878886  0.81484862  0.91296921  1
  Se  Se4  1  0.33473669  0.28946596  0.91180921  1
  Se  Se5  1  0.66881456  0.35517652  0.39723970  1
  Se  Se6  1  0.58122503  0.57338922  0.76221017  1
  Se  Se7  1  0.60456411  0.19140045  0.08550749  1
  Se  Se8  1  0.89878886  0.18515138  0.58703079  1
  Se  Se9  1  0.62977006  0.06769030  0.75234969  1
  Se  Se10  1  0.36279044  0.94578810  0.23937500  1
  Se  Se11  1  0.17428501  0.27864299  0.41954063  1
  Se  Se12  1  0.08122503  0.42661078  0.73778983  1
  Se  Se13  1  0.92583820  0.56329300  0.26542724  1
  Se  Se14  1  0.86279044  0.05421190  0.26062500  1
  Se  Se15  1  0.12977006  0.93230970  0.74765031  1
  Se  Se16  1  0.83510091  0.34128528  0.90026721  1
  Se  Se17  1  0.33510091  0.65871472  0.59973279  1
  Se  Se18  1  0.42583820  0.43670700  0.23457276  1
  Se  Se19  1  0.16881456  0.64482348  0.10276030  1
loop_
_geom_bond_atom_site_label_1
_geom_bond_atom_site_label_2
_geom_bond_distance
_geom_bond_site_symmetry_2
Cs0 Se0 3.656711 1_555
Cs0 Se10 3.745339 1_555
Cs0 Se5 3.797113 1_555
Cs0 Se7 3.880676 1_565
Cs0 Se5 3.893226 1_565
Cs0 Se6 3.959220 1_555
Cs0 Se14 3.968848 1_565
Cs0 Se2 3.980587 1_555
Cs0 Se17 4.277314 1_555
Cs1 Se4 3.656711 1_554
Cs1 Se14 3.745339 1_455
Cs1 Se19 3.797113 1_555
Cs1 Se1 3.880676 1_545
Cs1 Se19 3.893226 1_545
Cs1 Se12 3.959220 1_554
Cs1 Se10 3.968848 1_545
Cs1 Se11 3.980587 1_555
Cs1 Se16 4.277314 1_454
K0 Se4 3.419083 1_555
K0 Se11 3.472328 1_555
K0 Se3 3.508110 1_545
K0 Se15 3.649025 1_545
K0 Se9 3.768924 1_555
K0 Se17 3.772619 1_555
K0 Se17 3.813403 1_545
K1 Se0 3.419083 1_555
K1 Se2 3.472328 1_556
K1 Se8 3.508110 1_565
K1 Se9 3.649025 1_565
K1 Se15 3.768924 1_655
K1 Se16 3.772619 1_555
K1 Se16 3.813403 1_565
Al0 Se0 2.344885 1_555
Al0 Se14 2.357456 1_565
Al0 Se1 2.434974 1_655
Al0 Se13 2.466029 1_555
Al1 Se2 2.337965 1_556
Al1 Se9 2.365203 1_565
Al1 Se3 2.430667 1_555
Al1 Se6 2.468459 1_555
Al2 Se4 2.344885 1_554
Al2 Se10 2.357456 1_545
Al2 Se7 2.434974 1_555
Al2 Se18 2.466029 1_555
Al3 Se4 2.326985 1_555
Al3 Se17 2.355129 1_555
Al3 Se3 2.419124 1_555
Al3 Se6 2.453815 1_555
Al4 Se11 2.342545 1_555
Al4 Se19 2.357923 1_555
Al4 Se1 2.427169 1_555
Al4 Se13 2.458481 1_455
Al5 Se19 2.363814 1_555
Al5 Se10 2.366031 1_555
Al5 Se3 2.429756 1_554
Al5 Se18 2.435654 1_555
Al6 Se2 2.342545 1_555
Al6 Se5 2.357923 1_555
Al6 Se7 2.427169 1_555
Al6 Se18 2.458481 1_555
Al7 Se11 2.337965 1_555
Al7 Se15 2.365203 1_545
Al7 Se8 2.430667 1_455
Al7 Se12 2.468459 1_555
Al8 Se9 2.374630 1_555
Al8 Se16 2.374942 1_555
Al8 Se7 2.421709 1_556
Al8 Se6 2.440591 1_555
Al9 Se0 2.326985 1_555
Al9 Se16 2.355129 1_555
Al9 Se8 2.419124 1_555
Al9 Se12 2.453815 1_655
Al10 Se15 2.374630 1_555
Al10 Se17 2.374942 1_555
Al10 Se1 2.421709 1_555
Al10 Se12 2.440591 1_555
Al11 Se5 2.363814 1_555
Al11 Se14 2.366031 1_555
Al11 Se8 2.429756 1_555
Al11 Se13 2.435654 1_555
