# generated using pymatgen
data_Mg29Ir4
_symmetry_space_group_name_H-M   'P 1'
_cell_length_a   14.06002715
_cell_length_b   14.06002699
_cell_length_c   14.06002771
_cell_angle_alpha   59.99999828
_cell_angle_beta   59.99999865
_cell_angle_gamma   60.00000009
_symmetry_Int_Tables_number   1
_chemical_formula_structural   Mg29Ir4
_chemical_formula_sum   'Mg87 Ir12'
_cell_volume   1965.36619799
_cell_formula_units_Z   3
loop_
 _symmetry_equiv_pos_site_id
 _symmetry_equiv_pos_as_xyz
  1  'x, y, z'
loop_
 _atom_site_type_symbol
 _atom_site_label
 _atom_site_symmetry_multiplicity
 _atom_site_fract_x
 _atom_site_fract_y
 _atom_site_fract_z
 _atom_site_occupancy
  Mg  Mg0  1  0.15965856  0.15965856  0.94379577  1
  Mg  Mg1  1  0.15965856  0.94379577  0.73688810  1
  Mg  Mg2  1  0.73688810  0.15965856  0.15965856  1
  Mg  Mg3  1  0.15965856  0.73688810  0.15965856  1
  Mg  Mg4  1  0.94379577  0.15965856  0.73688810  1
  Mg  Mg5  1  0.94379577  0.73688810  0.15965856  1
  Mg  Mg6  1  0.73688810  0.94379577  0.15965856  1
  Mg  Mg7  1  0.94379577  0.15965856  0.15965856  1
  Mg  Mg8  1  0.15965856  0.94379577  0.15965856  1
  Mg  Mg9  1  0.73688810  0.15965856  0.94379577  1
  Mg  Mg10  1  0.15965856  0.73688810  0.94379577  1
  Mg  Mg11  1  0.15965856  0.15965856  0.73688810  1
  Mg  Mg12  1  0.76878341  0.76878341  0.43204889  1
  Mg  Mg13  1  0.76878341  0.43204889  0.03038429  1
  Mg  Mg14  1  0.03038429  0.76878341  0.76878341  1
  Mg  Mg15  1  0.76878341  0.03038429  0.76878341  1
  Mg  Mg16  1  0.43204889  0.76878341  0.03038429  1
  Mg  Mg17  1  0.43204889  0.03038429  0.76878341  1
  Mg  Mg18  1  0.03038429  0.43204889  0.76878341  1
  Mg  Mg19  1  0.43204889  0.76878341  0.76878341  1
  Mg  Mg20  1  0.76878341  0.43204889  0.76878341  1
  Mg  Mg21  1  0.03038429  0.76878341  0.43204889  1
  Mg  Mg22  1  0.76878341  0.03038429  0.43204889  1
  Mg  Mg23  1  0.76878341  0.76878341  0.03038429  1
  Mg  Mg24  1  0.28409249  0.28409249  0.93073141  1
  Mg  Mg25  1  0.28409249  0.93073141  0.50108360  1
  Mg  Mg26  1  0.50108360  0.28409249  0.28409249  1
  Mg  Mg27  1  0.28409249  0.50108360  0.28409249  1
  Mg  Mg28  1  0.93073141  0.28409249  0.50108360  1
  Mg  Mg29  1  0.93073141  0.50108360  0.28409249  1
  Mg  Mg30  1  0.50108360  0.93073141  0.28409249  1
  Mg  Mg31  1  0.93073141  0.28409249  0.28409249  1
  Mg  Mg32  1  0.28409249  0.93073141  0.28409249  1
  Mg  Mg33  1  0.50108360  0.28409249  0.93073141  1
  Mg  Mg34  1  0.28409249  0.50108360  0.93073141  1
  Mg  Mg35  1  0.28409249  0.28409249  0.50108360  1
  Mg  Mg36  1  0.52148220  0.52148220  0.78425424  1
  Mg  Mg37  1  0.52148220  0.78425424  0.17278136  1
  Mg  Mg38  1  0.17278136  0.52148220  0.52148220  1
  Mg  Mg39  1  0.52148220  0.17278136  0.52148220  1
  Mg  Mg40  1  0.78425424  0.52148220  0.17278136  1
  Mg  Mg41  1  0.78425424  0.17278136  0.52148220  1
  Mg  Mg42  1  0.17278136  0.78425424  0.52148220  1
  Mg  Mg43  1  0.78425424  0.52148220  0.52148220  1
  Mg  Mg44  1  0.52148220  0.78425424  0.52148220  1
  Mg  Mg45  1  0.17278136  0.52148220  0.78425424  1
  Mg  Mg46  1  0.52148220  0.17278136  0.78425424  1
  Mg  Mg47  1  0.52148220  0.52148220  0.17278136  1
  Mg  Mg48  1  0.01976682  0.01976682  0.36684954  1
  Mg  Mg49  1  0.01976682  0.36684954  0.59361682  1
  Mg  Mg50  1  0.59361682  0.01976682  0.01976682  1
  Mg  Mg51  1  0.01976682  0.59361682  0.01976682  1
  Mg  Mg52  1  0.36684954  0.01976682  0.59361682  1
  Mg  Mg53  1  0.36684954  0.59361682  0.01976682  1
  Mg  Mg54  1  0.59361682  0.36684954  0.01976682  1
  Mg  Mg55  1  0.36684954  0.01976682  0.01976682  1
  Mg  Mg56  1  0.01976682  0.36684954  0.01976682  1
  Mg  Mg57  1  0.59361682  0.01976682  0.36684954  1
  Mg  Mg58  1  0.01976682  0.59361682  0.36684954  1
  Mg  Mg59  1  0.01976682  0.01976682  0.59361682  1
  Mg  Mg60  1  0.35650628  0.14349372  0.14349372  1
  Mg  Mg61  1  0.14349372  0.14349372  0.35650628  1
  Mg  Mg62  1  0.35650628  0.35650628  0.14349372  1
  Mg  Mg63  1  0.14349372  0.35650628  0.35650628  1
  Mg  Mg64  1  0.14349372  0.35650628  0.14349372  1
  Mg  Mg65  1  0.35650628  0.14349372  0.35650628  1
  Mg  Mg66  1  0.86629461  0.63370539  0.63370539  1
  Mg  Mg67  1  0.63370539  0.63370539  0.86629461  1
  Mg  Mg68  1  0.86629461  0.86629461  0.63370539  1
  Mg  Mg69  1  0.63370539  0.86629461  0.86629461  1
  Mg  Mg70  1  0.63370539  0.86629461  0.63370539  1
  Mg  Mg71  1  0.86629461  0.63370539  0.86629461  1
  Mg  Mg72  1  0.67943450  0.32056550  0.32056550  1
  Mg  Mg73  1  0.32056550  0.32056550  0.67943450  1
  Mg  Mg74  1  0.67943450  0.67943450  0.32056550  1
  Mg  Mg75  1  0.32056550  0.67943450  0.67943450  1
  Mg  Mg76  1  0.32056550  0.67943450  0.32056550  1
  Mg  Mg77  1  0.67943450  0.32056550  0.67943450  1
  Mg  Mg78  1  0.55118968  0.55118968  0.55118968  1
  Mg  Mg79  1  0.55118968  0.55118968  0.34642896  1
  Mg  Mg80  1  0.34642896  0.55118968  0.55118968  1
  Mg  Mg81  1  0.55118968  0.34642896  0.55118968  1
  Mg  Mg82  1  0.91491523  0.91491523  0.91491523  1
  Mg  Mg83  1  0.91491523  0.91491523  0.25525231  1
  Mg  Mg84  1  0.25525231  0.91491523  0.91491523  1
  Mg  Mg85  1  0.91491523  0.25525231  0.91491523  1
  Mg  Mg86  1  0.00000000  -0.00000000  -0.00000000  1
  Ir  Ir0  1  0.15072122  0.15072122  0.15072122  1
  Ir  Ir1  1  0.15072122  0.15072122  0.54783534  1
  Ir  Ir2  1  0.54783534  0.15072122  0.15072122  1
  Ir  Ir3  1  0.15072122  0.54783534  0.15072122  1
  Ir  Ir4  1  0.41756169  0.41756169  0.41756169  1
  Ir  Ir5  1  0.41756169  0.41756169  0.74731293  1
  Ir  Ir6  1  0.74731293  0.41756169  0.41756169  1
  Ir  Ir7  1  0.41756169  0.74731293  0.41756169  1
  Ir  Ir8  1  0.65483630  0.65483630  0.65483630  1
  Ir  Ir9  1  0.65483630  0.65483630  0.03549009  1
  Ir  Ir10  1  0.03549009  0.65483630  0.65483630  1
  Ir  Ir11  1  0.65483630  0.03549009  0.65483630  1
loop_
_geom_bond_atom_site_label_1
_geom_bond_atom_site_label_2
_geom_bond_distance
_geom_bond_site_symmetry_2
Mg0 Mg11 2.909128 1_555
Mg0 Mg24 2.928093 1_555
Mg0 Mg56 2.962561 1_556
Mg0 Mg55 2.962561 1_556
Mg0 Mg8 3.035037 1_546
Mg0 Mg7 3.035037 1_456
Mg0 Mg84 3.168443 1_545
Mg0 Mg85 3.168443 1_455
Mg0 Mg18 3.480461 1_555
Mg0 Mg17 3.480461 1_555
Mg0 Mg73 3.514582 1_555
Mg1 Mg10 2.909127 1_555
Mg1 Mg25 2.928105 1_555
Mg1 Mg52 2.962561 1_565
Mg1 Mg59 2.962573 1_565
Mg1 Mg11 3.035037 1_565
Mg1 Mg4 3.035037 1_465
Mg1 Mg84 3.168404 1_555
Mg1 Mg82 3.168435 1_455
Mg1 Mg19 3.480456 1_555
Mg1 Mg14 3.480467 1_555
Mg1 Mg75 3.514588 1_555
Mg2 Mg7 2.909127 1_555
Mg2 Mg26 2.928100 1_555
Mg2 Mg57 2.962568 1_555
Mg2 Mg54 2.962568 1_555
Mg2 Mg6 3.035037 1_545
Mg2 Mg9 3.035037 1_554
Mg2 Mg85 3.168424 1_554
Mg2 Mg83 3.168424 1_545
Mg2 Mg22 3.480455 1_555
Mg2 Mg72 3.514576 1_555
Mg3 Mg8 2.909127 1_555
Mg3 Mg58 2.962568 1_555
Mg3 Mg53 2.962568 1_555
Mg3 Mg5 3.035037 1_455
Mg3 Mg84 3.168424 1_554
Mg3 Mg83 3.168424 1_455
Mg3 Mg76 3.514576 1_555
Mg4 Mg9 2.909127 1_555
Mg4 Mg49 2.962561 1_655
Mg4 Mg59 2.962573 1_655
Mg4 Mg85 3.168404 1_555
Mg4 Mg82 3.168435 1_545
Mg4 Mg77 3.514588 1_555
Mg5 Mg6 2.909127 1_555
Mg5 Mg58 2.962561 1_655
Mg5 Mg51 2.962573 1_655
Mg5 Mg83 3.168404 1_555
Mg5 Mg82 3.168435 1_554
Mg5 Mg74 3.514588 1_555
Mg6 Mg9 3.035037 1_564
Mg6 Mg83 3.168404 1_555
Mg6 Mg82 3.168436 1_554
Mg6 Mg74 3.514588 1_555
Mg7 Mg8 3.035037 1_645
Mg7 Mg83 3.168443 1_545
Mg7 Mg85 3.168443 1_554
Mg7 Mg72 3.514582 1_555
Mg8 Mg83 3.168443 1_455
Mg8 Mg84 3.168443 1_554
Mg10 Mg34 2.928105 1_555
Mg10 Mg53 2.962561 1_556
Mg10 Mg51 2.962573 1_556
Mg10 Mg5 3.035037 1_456
Mg10 Mg3 3.035037 1_556
Mg10 Mg84 3.168404 1_555
Mg10 Mg82 3.168435 1_455
Mg10 Mg19 3.480456 1_555
Mg10 Mg14 3.480468 1_555
Mg10 Mg75 3.514588 1_555
Mg11 Mg35 2.928100 1_555
Mg11 Mg49 2.962568 1_555
Mg11 Mg52 2.962568 1_555
Mg11 Mg4 3.035037 1_455
Mg11 Mg84 3.168424 1_545
Mg11 Mg85 3.168424 1_455
Mg11 Mg18 3.480455 1_555
Mg11 Mg17 3.480455 1_555
Mg11 Mg73 3.514576 1_555
Mg12 Mg83 2.937481 1_555
Mg12 Mg43 2.977150 1_555
Mg12 Mg44 2.977150 1_555
Mg12 Mg66 3.069875 1_555
Mg12 Mg70 3.069875 1_555
Mg12 Mg57 3.112950 1_565
Mg12 Mg58 3.112950 1_655
Mg12 Mg74 3.336112 1_555
Mg12 Mg6 3.480456 1_555
Mg12 Mg5 3.480456 1_555
Mg13 Mg85 2.937498 1_554
Mg13 Mg47 2.977150 1_555
Mg13 Mg40 2.977150 1_555
Mg13 Mg71 3.069875 1_554
Mg13 Mg67 3.069875 1_554
Mg13 Mg54 3.112950 1_555
Mg13 Mg56 3.112950 1_655
Mg13 Mg72 3.336112 1_555
Mg13 Mg2 3.480455 1_555
Mg13 Mg7 3.480461 1_555
Mg14 Mg82 2.937477 1_455
Mg14 Mg45 2.977150 1_555
Mg14 Mg42 2.977150 1_555
Mg14 Mg71 3.069875 1_455
Mg14 Mg68 3.069875 1_455
Mg14 Mg59 3.112950 1_565
Mg14 Mg51 3.112950 1_556
Mg14 Mg75 3.336112 1_555
Mg15 Mg82 2.937477 1_545
Mg15 Mg46 2.977150 1_555
Mg15 Mg41 2.977150 1_555
Mg15 Mg69 3.069875 1_545
Mg15 Mg68 3.069875 1_545
Mg15 Mg59 3.112950 1_655
Mg15 Mg50 3.112950 1_556
Mg15 Mg77 3.336112 1_555
Mg15 Mg4 3.480467 1_555
Mg15 Mg9 3.480468 1_555
Mg16 Mg84 2.937498 1_554
Mg16 Mg47 2.977150 1_555
Mg16 Mg37 2.977150 1_555
Mg16 Mg69 3.069875 1_554
Mg16 Mg67 3.069875 1_554
Mg16 Mg55 3.112950 1_565
Mg16 Mg53 3.112950 1_555
Mg16 Mg76 3.336112 1_555
Mg16 Mg3 3.480455 1_555
Mg16 Mg8 3.480461 1_555
Mg17 Mg84 2.937498 1_545
Mg17 Mg39 2.977150 1_555
Mg17 Mg46 2.977150 1_555
Mg17 Mg70 3.069875 1_545
Mg17 Mg69 3.069875 1_545
Mg17 Mg55 3.112950 1_556
Mg17 Mg52 3.112950 1_555
Mg17 Mg73 3.336112 1_555
Mg18 Mg85 2.937498 1_455
Mg18 Mg38 2.977150 1_555
Mg18 Mg45 2.977150 1_555
Mg18 Mg66 3.069875 1_455
Mg18 Mg71 3.069875 1_455
Mg18 Mg56 3.112950 1_556
Mg18 Mg49 3.112950 1_555
Mg18 Mg73 3.336112 1_555
Mg19 Mg84 2.937481 1_555
Mg19 Mg36 2.977150 1_555
Mg19 Mg44 2.977150 1_555
Mg19 Mg70 3.069875 1_555
Mg19 Mg67 3.069875 1_555
Mg19 Mg52 3.112950 1_565
Mg19 Mg53 3.112950 1_556
Mg19 Mg75 3.336112 1_555
Mg20 Mg85 2.937481 1_555
Mg20 Mg36 2.977150 1_555
Mg20 Mg43 2.977150 1_555
Mg20 Mg66 3.069875 1_555
Mg20 Mg67 3.069875 1_555
Mg20 Mg54 3.112950 1_556
Mg20 Mg49 3.112950 1_655
Mg20 Mg77 3.336112 1_555
Mg20 Mg9 3.480456 1_555
Mg20 Mg4 3.480456 1_555
Mg21 Mg83 2.937498 1_455
Mg21 Mg38 2.977150 1_555
Mg21 Mg42 2.977150 1_555
Mg21 Mg66 3.069875 1_455
Mg21 Mg68 3.069875 1_455
Mg21 Mg48 3.112950 1_565
Mg21 Mg58 3.112950 1_555
Mg21 Mg76 3.336112 1_555
Mg21 Mg3 3.480455 1_555
Mg21 Mg8 3.480461 1_555
Mg22 Mg83 2.937498 1_545
Mg22 Mg39 2.977150 1_555
Mg22 Mg41 2.977150 1_555
Mg22 Mg70 3.069875 1_545
Mg22 Mg68 3.069875 1_545
Mg22 Mg48 3.112950 1_655
Mg22 Mg57 3.112950 1_555
Mg22 Mg72 3.336112 1_555
Mg22 Mg7 3.480461 1_555
Mg23 Mg82 2.937477 1_554
Mg23 Mg40 2.977150 1_555
Mg23 Mg37 2.977150 1_555
Mg23 Mg71 3.069875 1_554
Mg23 Mg69 3.069875 1_554
Mg23 Mg50 3.112950 1_565
Mg23 Mg51 3.112950 1_655
Mg23 Mg74 3.336112 1_555
Mg23 Mg6 3.480467 1_555
Mg23 Mg5 3.480468 1_555
Mg24 Mg45 2.992767 1_555
Mg24 Mg46 2.992767 1_555
Mg24 Mg60 3.002107 1_556
Mg24 Mg64 3.002107 1_556
Mg24 Mg55 3.035248 1_556
Mg24 Mg56 3.035248 1_556
Mg24 Mg34 3.050901 1_555
Mg24 Mg33 3.050901 1_555
Mg24 Mg73 3.106276 1_555
Mg25 Mg42 2.992767 1_555
Mg25 Mg44 2.992767 1_555
Mg25 Mg65 3.002107 1_565
Mg25 Mg61 3.002107 1_565
Mg25 Mg59 3.035248 1_565
Mg25 Mg52 3.035249 1_565
Mg25 Mg30 3.050901 1_555
Mg25 Mg32 3.050901 1_555
Mg25 Mg75 3.106276 1_555
Mg26 Mg47 2.992767 1_555
Mg26 Mg39 2.992767 1_555
Mg26 Mg65 3.002107 1_555
Mg26 Mg62 3.002107 1_555
Mg26 Mg57 3.035248 1_555
Mg26 Mg54 3.035248 1_555
Mg26 Mg27 3.050901 1_555
Mg26 Mg35 3.050901 1_555
Mg26 Mg72 3.106276 1_555
Mg27 Mg3 2.928100 1_555
Mg27 Mg47 2.992767 1_555
Mg27 Mg38 2.992767 1_555
Mg27 Mg63 3.002107 1_555
Mg27 Mg62 3.002107 1_555
Mg27 Mg58 3.035248 1_555
Mg27 Mg53 3.035248 1_555
Mg27 Mg35 3.050901 1_555
Mg27 Mg76 3.106276 1_555
Mg28 Mg4 2.928105 1_555
Mg28 Mg41 2.992767 1_555
Mg28 Mg43 2.992767 1_555
Mg28 Mg63 3.002107 1_655
Mg28 Mg61 3.002107 1_655
Mg28 Mg59 3.035248 1_655
Mg28 Mg49 3.035249 1_655
Mg28 Mg29 3.050901 1_555
Mg28 Mg31 3.050901 1_555
Mg28 Mg77 3.106276 1_555
Mg29 Mg5 2.928105 1_555
Mg29 Mg40 2.992767 1_555
Mg29 Mg43 2.992767 1_555
Mg29 Mg64 3.002107 1_655
Mg29 Mg63 3.002107 1_655
Mg29 Mg51 3.035248 1_655
Mg29 Mg58 3.035249 1_655
Mg29 Mg31 3.050901 1_555
Mg29 Mg74 3.106276 1_555
Mg30 Mg6 2.928105 1_555
Mg30 Mg37 2.992767 1_555
Mg30 Mg44 2.992767 1_555
Mg30 Mg60 3.002107 1_565
Mg30 Mg65 3.002107 1_565
Mg30 Mg50 3.035248 1_565
Mg30 Mg57 3.035249 1_565
Mg30 Mg32 3.050901 1_555
Mg30 Mg74 3.106276 1_555
Mg31 Mg7 2.928093 1_555
Mg31 Mg41 2.992767 1_555
Mg31 Mg40 2.992767 1_555
Mg31 Mg64 3.002107 1_655
Mg31 Mg61 3.002107 1_655
Mg31 Mg48 3.035248 1_655
Mg31 Mg56 3.035248 1_655
Mg31 Mg72 3.106276 1_555
Mg32 Mg8 2.928093 1_555
Mg32 Mg42 2.992767 1_555
Mg32 Mg37 2.992767 1_555
Mg32 Mg60 3.002107 1_565
Mg32 Mg61 3.002107 1_565
Mg32 Mg48 3.035248 1_565
Mg32 Mg55 3.035248 1_565
Mg32 Mg76 3.106276 1_555
Mg33 Mg9 2.928105 1_555
Mg33 Mg36 2.992767 1_555
Mg33 Mg46 2.992767 1_555
Mg33 Mg60 3.002107 1_556
Mg33 Mg62 3.002107 1_556
Mg33 Mg50 3.035248 1_556
Mg33 Mg54 3.035249 1_556
Mg33 Mg34 3.050901 1_555
Mg33 Mg77 3.106276 1_555
Mg34 Mg36 2.992767 1_555
Mg34 Mg45 2.992767 1_555
Mg34 Mg64 3.002107 1_556
Mg34 Mg62 3.002107 1_556
Mg34 Mg51 3.035248 1_556
Mg34 Mg53 3.035249 1_556
Mg34 Mg75 3.106276 1_555
Mg35 Mg38 2.992767 1_555
Mg35 Mg39 2.992767 1_555
Mg35 Mg65 3.002107 1_555
Mg35 Mg63 3.002107 1_555
Mg35 Mg52 3.035248 1_555
Mg35 Mg49 3.035248 1_555
Mg35 Mg73 3.106276 1_555
Mg36 Mg78 2.919587 1_555
Mg36 Mg77 3.114602 1_555
Mg36 Mg75 3.114602 1_555
Mg36 Mg54 3.267169 1_556
Mg36 Mg53 3.267169 1_556
Mg37 Mg79 2.919577 1_555
Mg37 Mg76 3.114602 1_555
Mg37 Mg74 3.114602 1_555
Mg37 Mg50 3.267169 1_565
Mg37 Mg55 3.267169 1_565
Mg38 Mg80 2.919559 1_555
Mg38 Mg76 3.114602 1_555
Mg38 Mg73 3.114602 1_555
Mg38 Mg49 3.267169 1_555
Mg38 Mg58 3.267169 1_555
Mg39 Mg81 2.919559 1_555
Mg39 Mg72 3.114602 1_555
Mg39 Mg73 3.114602 1_555
Mg39 Mg52 3.267169 1_555
Mg39 Mg57 3.267169 1_555
Mg40 Mg79 2.919577 1_555
Mg40 Mg72 3.114602 1_555
Mg40 Mg74 3.114602 1_555
Mg40 Mg51 3.267169 1_655
Mg40 Mg56 3.267169 1_655
Mg41 Mg81 2.919577 1_555
Mg41 Mg72 3.114602 1_555
Mg41 Mg77 3.114602 1_555
Mg41 Mg48 3.267169 1_655
Mg41 Mg59 3.267169 1_655
Mg42 Mg80 2.919577 1_555
Mg42 Mg76 3.114602 1_555
Mg42 Mg75 3.114602 1_555
Mg42 Mg48 3.267169 1_565
Mg42 Mg59 3.267169 1_565
Mg43 Mg78 2.919587 1_555
Mg43 Mg77 3.114602 1_555
Mg43 Mg74 3.114602 1_555
Mg43 Mg58 3.267169 1_655
Mg43 Mg49 3.267169 1_655
Mg44 Mg78 2.919587 1_555
Mg44 Mg75 3.114602 1_555
Mg44 Mg74 3.114602 1_555
Mg44 Mg57 3.267169 1_565
Mg44 Mg52 3.267169 1_565
Mg45 Mg80 2.919577 1_555
Mg45 Mg75 3.114602 1_555
Mg45 Mg73 3.114602 1_555
Mg45 Mg56 3.267169 1_556
Mg45 Mg51 3.267169 1_556
Mg46 Mg81 2.919577 1_555
Mg46 Mg77 3.114602 1_555
Mg46 Mg73 3.114602 1_555
Mg46 Mg55 3.267169 1_556
Mg46 Mg50 3.267169 1_556
Mg47 Mg79 2.919559 1_555
Mg47 Mg72 3.114602 1_555
Mg47 Mg76 3.114602 1_555
Mg47 Mg54 3.267169 1_555
Mg47 Mg53 3.267169 1_555
Mg48 Mg61 2.931525 1_555
Mg48 Mg7 2.962561 1_455
Mg48 Mg8 2.962561 1_545
Mg48 Mg59 3.188354 1_555
Mg48 Mg68 3.442935 1_445
Mg49 Mg63 2.931526 1_555
Mg49 Mg58 3.188354 1_555
Mg49 Mg66 3.442935 1_455
Mg50 Mg60 2.931525 1_555
Mg50 Mg9 2.962573 1_554
Mg50 Mg6 2.962573 1_545
Mg50 Mg55 3.188354 1_555
Mg50 Mg69 3.442936 1_544
Mg51 Mg64 2.931525 1_555
Mg51 Mg56 3.188354 1_555
Mg51 Mg71 3.442936 1_454
Mg52 Mg65 2.931526 1_555
Mg52 Mg57 3.188354 1_555
Mg52 Mg70 3.442935 1_545
Mg53 Mg62 2.931525 1_555
Mg53 Mg54 3.188354 1_555
Mg53 Mg67 3.442935 1_554
Mg54 Mg62 2.931525 1_555
Mg54 Mg9 2.962561 1_554
Mg54 Mg67 3.442935 1_554
Mg55 Mg60 2.931526 1_555
Mg55 Mg8 2.962561 1_545
Mg55 Mg69 3.442935 1_544
Mg56 Mg64 2.931526 1_555
Mg56 Mg7 2.962561 1_455
Mg56 Mg71 3.442935 1_454
Mg57 Mg65 2.931525 1_555
Mg57 Mg6 2.962561 1_545
Mg57 Mg70 3.442936 1_545
Mg58 Mg63 2.931525 1_555
Mg58 Mg66 3.442936 1_455
Mg59 Mg61 2.931525 1_555
Mg59 Mg68 3.442935 1_445
Mg60 Mg62 2.994962 1_555
Mg60 Mg64 2.994962 1_555
Mg60 Mg61 2.994962 1_555
Mg60 Mg65 2.994962 1_555
Mg61 Mg64 2.994962 1_555
Mg61 Mg63 2.994962 1_555
Mg61 Mg65 2.994962 1_555
Mg62 Mg65 2.994962 1_555
Mg62 Mg63 2.994962 1_555
Mg62 Mg64 2.994962 1_555
Mg63 Mg65 2.994962 1_555
Mg63 Mg64 2.994962 1_555
Mg72 Mg79 2.928224 1_555
Mg72 Mg81 2.928225 1_555
Mg73 Mg80 2.928224 1_555
Mg73 Mg81 2.928224 1_555
Mg74 Mg78 2.928235 1_555
Mg74 Mg79 2.928249 1_555
Mg75 Mg78 2.928235 1_555
Mg75 Mg80 2.928249 1_555
Mg76 Mg79 2.928224 1_555
Mg76 Mg80 2.928225 1_555
Mg76 Mg8 3.514582 1_555
Mg77 Mg78 2.928235 1_555
Mg77 Mg81 2.928249 1_555
Mg77 Mg9 3.514588 1_555
Mg78 Mg81 2.878941 1_555
Mg78 Mg80 2.878941 1_555
Mg78 Mg79 2.878941 1_555
Mg79 Mg81 2.878941 1_555
Mg79 Mg80 2.878941 1_555
Mg80 Mg81 2.878941 1_555
Mg82 Mg86 2.930310 1_666
Mg82 Mg9 3.168435 1_565
Mg83 Mg86 2.930287 1_665
Mg84 Mg86 2.930287 1_566
Mg85 Mg86 2.930287 1_656
Mg85 Mg9 3.168404 1_555
Ir0 Mg8 2.789385 1_545
Ir0 Mg7 2.789385 1_455
Ir0 Mg0 2.789385 1_554
Ir0 Mg64 2.795421 1_555
Ir0 Mg60 2.795421 1_555
Ir0 Mg61 2.795421 1_555
Ir0 Mg48 2.866064 1_555
Ir0 Mg56 2.866064 1_555
Ir0 Mg55 2.866064 1_555
Ir0 Mg24 2.918211 1_554
Ir0 Mg32 2.918211 1_545
Ir0 Mg31 2.918211 1_455
Ir1 Mg1 2.789397 1_545
Ir1 Mg4 2.789397 1_455
Ir1 Mg11 2.789413 1_555
Ir1 Mg61 2.795407 1_555
Ir1 Mg63 2.795415 1_555
Ir1 Mg65 2.795415 1_555
Ir1 Mg59 2.866058 1_555
Ir1 Mg49 2.866070 1_555
Ir1 Mg52 2.866070 1_555
Ir1 Mg25 2.918205 1_545
Ir1 Mg28 2.918205 1_455
Ir1 Mg35 2.918217 1_555
Ir2 Mg6 2.789397 1_545
Ir2 Mg9 2.789397 1_554
Ir2 Mg2 2.789413 1_555
Ir2 Mg60 2.795407 1_555
Ir2 Mg62 2.795415 1_555
Ir2 Mg65 2.795415 1_555
Ir2 Mg50 2.866058 1_555
Ir2 Mg54 2.866070 1_555
Ir2 Mg57 2.866070 1_555
Ir2 Mg30 2.918205 1_545
Ir2 Mg33 2.918206 1_554
Ir2 Mg26 2.918217 1_555
Ir3 Mg10 2.789397 1_554
Ir3 Mg5 2.789397 1_455
Ir3 Mg3 2.789413 1_555
Ir3 Mg64 2.795407 1_555
Ir3 Mg63 2.795415 1_555
Ir3 Mg62 2.795415 1_555
Ir3 Mg51 2.866058 1_555
Ir3 Mg53 2.866070 1_555
Ir3 Mg58 2.866070 1_555
Ir3 Mg29 2.918205 1_455
Ir3 Mg34 2.918206 1_554
Ir3 Mg27 2.918217 1_555
Ir4 Mg35 2.745228 1_555
Ir4 Mg26 2.745228 1_555
Ir4 Mg27 2.745228 1_555
Ir4 Mg79 2.798565 1_555
Ir4 Mg80 2.798565 1_555
Ir4 Mg81 2.798565 1_555
Ir4 Mg39 2.862189 1_555
Ir4 Mg38 2.862189 1_555
Ir4 Mg47 2.862189 1_555
Ir4 Mg76 3.015567 1_555
Ir4 Mg72 3.015567 1_555
Ir4 Mg73 3.015567 1_555
Ir5 Mg24 2.745235 1_555
Ir5 Mg33 2.745251 1_555
Ir5 Mg34 2.745251 1_555
Ir5 Mg78 2.798565 1_555
Ir5 Mg80 2.798565 1_555
Ir5 Mg81 2.798565 1_555
Ir5 Mg46 2.862184 1_555
Ir5 Mg45 2.862184 1_555
Ir5 Mg36 2.862208 1_555
Ir5 Mg73 3.015545 1_555
Ir5 Mg75 3.015569 1_555
Ir5 Mg77 3.015569 1_555
Ir6 Mg31 2.745236 1_555
Ir6 Mg29 2.745251 1_555
Ir6 Mg28 2.745251 1_555
Ir6 Mg81 2.798565 1_555
Ir6 Mg78 2.798565 1_555
Ir6 Mg79 2.798565 1_555
Ir6 Mg41 2.862184 1_555
Ir6 Mg40 2.862184 1_555
Ir6 Mg43 2.862208 1_555
Ir6 Mg72 3.015545 1_555
Ir6 Mg74 3.015569 1_555
Ir6 Mg77 3.015569 1_555
Ir7 Mg32 2.745236 1_555
Ir7 Mg30 2.745251 1_555
Ir7 Mg25 2.745251 1_555
Ir7 Mg80 2.798565 1_555
Ir7 Mg78 2.798565 1_555
Ir7 Mg79 2.798565 1_555
Ir7 Mg42 2.862184 1_555
Ir7 Mg37 2.862184 1_555
Ir7 Mg44 2.862209 1_555
Ir7 Mg76 3.015545 1_555
Ir7 Mg74 3.015569 1_555
Ir7 Mg75 3.015569 1_555
Ir8 Mg36 2.652174 1_555
Ir8 Mg43 2.652175 1_555
Ir8 Mg44 2.652175 1_555
Ir8 Mg70 2.708793 1_555
Ir8 Mg66 2.708793 1_555
Ir8 Mg67 2.708793 1_555
Ir8 Mg20 2.734091 1_555
Ir8 Mg12 2.734091 1_555
Ir8 Mg19 2.734091 1_555
Ir9 Mg47 2.652175 1_555
Ir9 Mg40 2.652185 1_555
Ir9 Mg37 2.652185 1_555
Ir9 Mg67 2.708779 1_554
Ir9 Mg69 2.708787 1_554
Ir9 Mg71 2.708787 1_554
Ir9 Mg13 2.734087 1_555
Ir9 Mg16 2.734087 1_555
Ir9 Mg23 2.734099 1_555
Ir10 Mg38 2.652175 1_555
Ir10 Mg42 2.652185 1_555
Ir10 Mg45 2.652185 1_555
Ir10 Mg66 2.708779 1_455
Ir10 Mg68 2.708787 1_455
Ir10 Mg71 2.708787 1_455
Ir10 Mg18 2.734087 1_555
Ir10 Mg21 2.734087 1_555
Ir10 Mg14 2.734099 1_555
Ir11 Mg39 2.652175 1_555
Ir11 Mg41 2.652185 1_555
Ir11 Mg46 2.652185 1_555
Ir11 Mg70 2.708779 1_545
Ir11 Mg69 2.708787 1_545
Ir11 Mg68 2.708787 1_545
Ir11 Mg17 2.734087 1_555
Ir11 Mg22 2.734087 1_555
Ir11 Mg15 2.734099 1_555
