# generated using pymatgen
data_Cs2BaOsO6
_symmetry_space_group_name_H-M   'P 1'
_cell_length_a   6.40175761
_cell_length_b   6.39588534
_cell_length_c   9.05208118
_cell_angle_alpha   89.98093183
_cell_angle_beta   89.99298830
_cell_angle_gamma   89.99439133
_symmetry_Int_Tables_number   1
_chemical_formula_structural   Cs2BaOsO6
_chemical_formula_sum   'Cs4 Ba2 Os2 O12'
_cell_volume   370.63660264
_cell_formula_units_Z   2
loop_
 _symmetry_equiv_pos_site_id
 _symmetry_equiv_pos_as_xyz
  1  'x, y, z'
loop_
 _atom_site_type_symbol
 _atom_site_label
 _atom_site_symmetry_multiplicity
 _atom_site_fract_x
 _atom_site_fract_y
 _atom_site_fract_z
 _atom_site_occupancy
  Cs  Cs0  1  0.45006610  0.05006455  0.25015969  1
  Cs  Cs1  1  0.94999052  0.54991553  0.24994128  1
  Cs  Cs2  1  0.44997827  0.05024640  0.74996977  1
  Cs  Cs3  1  0.94999743  0.54991092  0.75009860  1
  Ba  Ba0  1  0.45015504  0.54979157  0.99999757  1
  Ba  Ba1  1  0.94999579  0.05010674  0.50001988  1
  Os  Os0  1  0.95010533  0.04972372  0.00007378  1
  Os  Os1  1  0.44990814  0.55025996  0.49991704  1
  O  O0  1  0.15597725  0.84331011  0.99997292  1
  O  O1  1  0.15631339  0.25582284  0.99996114  1
  O  O2  1  0.95016185  0.04963742  0.20611360  1
  O  O3  1  0.44976776  0.55028098  0.29386174  1
  O  O4  1  0.24396072  0.34387079  0.50003786  1
  O  O5  1  0.24382432  0.75649666  0.49985748  1
  O  O6  1  0.65596714  0.34404037  0.50000304  1
  O  O7  1  0.65592731  0.75653960  0.49972040  1
  O  O8  1  0.44984713  0.55044473  0.70597235  1
  O  O9  1  0.94989225  0.04991208  0.79399836  1
  O  O10  1  0.74397728  0.84352833  0.00011912  1
  O  O11  1  0.74418499  0.25611169  0.00018339  1
loop_
_geom_bond_atom_site_label_1
_geom_bond_atom_site_label_2
_geom_bond_distance
_geom_bond_site_symmetry_2
Cs0 O7 3.218997 1_545
Cs0 O3 3.220814 1_545
Cs0 O5 3.220950 1_545
Cs0 O4 3.223353 1_555
Cs0 O6 3.223607 1_555
Cs0 O3 3.223823 1_555
Cs0 O1 3.224322 1_554
Cs0 O11 3.224859 1_555
Cs0 O2 3.225057 1_455
Cs0 O2 3.226176 1_555
Cs0 O10 3.226236 1_545
Cs0 O0 3.228874 1_544
Cs1 O2 3.220562 1_565
Cs1 O0 3.221354 1_654
Cs1 O10 3.221384 1_555
Cs1 O11 3.222172 1_555
Cs1 O3 3.224109 1_655
Cs1 O2 3.224354 1_555
Cs1 O6 3.224596 1_555
Cs1 O4 3.225234 1_655
Cs1 O7 3.225374 1_555
Cs1 O1 3.225639 1_654
Cs1 O5 3.225749 1_655
Cs1 O3 3.226842 1_555
Cs2 O8 3.221520 1_545
Cs2 O4 3.222136 1_555
Cs2 O1 3.222494 1_555
Cs2 O6 3.222838 1_555
Cs2 O8 3.223774 1_555
Cs2 O7 3.224933 1_545
Cs2 O9 3.225098 1_555
Cs2 O5 3.225135 1_545
Cs2 O9 3.226095 1_455
Cs2 O0 3.226916 1_545
Cs2 O11 3.227159 1_556
Cs2 O10 3.227437 1_546
Cs3 O0 3.221859 1_655
Cs3 O9 3.222400 1_555
Cs3 O9 3.222677 1_565
Cs3 O11 3.223145 1_556
Cs3 O10 3.223331 1_556
Cs3 O1 3.224206 1_655
Cs3 O8 3.224704 1_655
Cs3 O4 3.225261 1_655
Cs3 O6 3.225763 1_555
Cs3 O8 3.226710 1_555
Cs3 O5 3.226859 1_655
Cs3 O7 3.228923 1_555
Ba0 O10 2.658630 1_556
Ba0 O0 2.658995 1_555
Ba0 O11 2.659054 1_556
Ba0 O1 2.659766 1_555
Ba0 O3 2.660086 1_556
Ba0 O8 2.661543 1_555
Ba1 O5 2.657826 1_645
Ba1 O7 2.658981 1_545
Ba1 O4 2.659399 1_655
Ba1 O6 2.660194 1_555
Ba1 O2 2.660466 1_555
Ba1 O9 2.661117 1_555
O0 Os0 1.865356 1_466
O1 Os0 1.865638 1_456
O2 Os0 1.865089 1_555
O3 Os1 1.865230 1_555
O4 Os1 1.865770 1_555
O5 Os1 1.865514 1_555
O6 Os1 1.865325 1_555
O7 Os1 1.865599 1_555
O8 Os1 1.865230 1_555
O9 Os0 1.865412 1_556
O10 Os0 1.865710 1_565
O11 Os0 1.865459 1_555
