# generated using pymatgen
data_Sr6Sn8AsSe
_symmetry_space_group_name_H-M   'P 1'
_cell_length_a   8.85819466
_cell_length_b   8.85819467
_cell_length_c   8.85819474
_cell_angle_alpha   119.70819528
_cell_angle_beta   119.70819832
_cell_angle_gamma   90.50616669
_symmetry_Int_Tables_number   1
_chemical_formula_structural   Sr6Sn8AsSe
_chemical_formula_sum   'Sr6 Sn8 As1 Se1'
_cell_volume   493.64370055
_cell_formula_units_Z   1
loop_
 _symmetry_equiv_pos_site_id
 _symmetry_equiv_pos_as_xyz
  1  'x, y, z'
loop_
 _atom_site_type_symbol
 _atom_site_label
 _atom_site_symmetry_multiplicity
 _atom_site_fract_x
 _atom_site_fract_y
 _atom_site_fract_z
 _atom_site_occupancy
  Sr  Sr0  1  0.25003238  0.25003238  0.00000000  1
  Sr  Sr1  1  0.74996762  0.74996762  1.00000000  1
  Sr  Sr2  1  0.16539214  0.67511546  0.84050960  1
  Sr  Sr3  1  0.83460786  0.32488454  0.15949040  1
  Sr  Sr4  1  0.67511546  0.83460786  0.50972332  1
  Sr  Sr5  1  0.32488454  0.16539214  0.49027668  1
  Sn  Sn0  1  0.83424353  0.33266128  0.78411664  1
  Sn  Sn1  1  0.16575647  0.66733872  0.21588336  1
  Sn  Sn2  1  0.54854465  0.05012890  0.21588336  1
  Sn  Sn3  1  0.33266128  0.54854465  0.49841775  1
  Sn  Sn4  1  0.94987110  0.16575647  0.49841775  1
  Sn  Sn5  1  0.45145535  0.94987110  0.78411664  1
  Sn  Sn6  1  0.66733872  0.45145535  0.50158225  1
  Sn  Sn7  1  0.05012890  0.83424353  0.50158225  1
  As  As0  1  0.00000000  0.00000000  0.00000000  1
  Se  Se0  1  0.50000000  0.50000000  0.00000000  1
loop_
_geom_bond_atom_site_label_1
_geom_bond_atom_site_label_2
_geom_bond_distance
_geom_bond_site_symmetry_2
Sn0 Sn4 2.920134 1_555
Sn0 Sn6 2.920148 1_555
Sn0 Sn1 3.084817 1_656
Sn0 Sr3 3.358225 1_556
Sn0 Sr0 3.494580 1_656
Sn0 Sr1 3.512287 1_555
Sn0 Sr4 3.636579 1_545
Sn0 Sr5 3.707746 1_555
Sn0 Sr2 3.865868 1_655
Sn1 Sn7 2.920134 1_555
Sn1 Sn3 2.920148 1_555
Sn1 Sr2 3.358225 1_554
Sn1 Sr1 3.494580 1_454
Sn1 Sr0 3.512287 1_555
Sn1 Sr5 3.636579 1_565
Sn1 Sr4 3.707746 1_555
Sn1 Sr3 3.865868 1_455
Sn2 Sn6 2.920134 1_555
Sn2 Sn4 2.920135 1_555
Sn2 Sn5 3.084806 1_544
Sn2 Sr2 3.358252 1_544
Sn2 Sr0 3.494566 1_555
Sn2 Sr1 3.512296 1_544
Sn2 Sr5 3.636580 1_555
Sn2 Sr4 3.707761 1_545
Sn2 Sr3 3.865880 1_555
Sn3 Sn5 2.920134 1_555
Sn3 Sn6 3.084818 1_555
Sn3 Sr5 3.358243 1_555
Sn3 Sr0 3.494580 1_555
Sn3 Sr1 3.512287 1_555
Sn3 Sr3 3.636579 1_455
Sn3 Sr2 3.707762 1_555
Sn3 Sr4 3.865879 1_555
Sn4 Sn7 3.084828 1_645
Sn4 Sr5 3.358261 1_655
Sn4 Sr1 3.494582 1_544
Sn4 Sr0 3.512289 1_656
Sn4 Sr3 3.636597 1_555
Sn4 Sr2 3.707747 1_655
Sn4 Sr4 3.865868 1_545
Sn5 Sn7 2.920135 1_555
Sn5 Sr3 3.358252 1_566
Sn5 Sr1 3.494566 1_555
Sn5 Sr0 3.512296 1_566
Sn5 Sr4 3.636580 1_555
Sn5 Sr5 3.707761 1_565
Sn5 Sr2 3.865880 1_555
Sn6 Sr4 3.358243 1_555
Sn6 Sr1 3.494580 1_555
Sn6 Sr0 3.512287 1_555
Sn6 Sr2 3.636579 1_655
Sn6 Sr3 3.707762 1_555
Sn6 Sr5 3.865879 1_555
Sn7 Sr4 3.358261 1_455
Sn7 Sr0 3.494582 1_566
Sn7 Sr1 3.512289 1_454
Sn7 Sr2 3.636597 1_555
Sn7 Sr3 3.707747 1_455
Sn7 Sr5 3.865868 1_565
As0 Sr0 3.118384 1_555
As0 Sr1 3.118384 1_444
As0 Sr3 3.243579 1_455
As0 Sr2 3.243579 1_544
As0 Sr5 3.243583 1_555
As0 Sr4 3.243583 1_444
Se0 Sr1 3.117577 1_554
Se0 Sr0 3.117577 1_555
Se0 Sr3 3.360135 1_555
Se0 Sr2 3.360135 1_554
Se0 Sr5 3.360139 1_554
Se0 Sr4 3.360139 1_555
