# generated using pymatgen
data_Zn22Ir2PdAu
_symmetry_space_group_name_H-M   'P 1'
_cell_length_a   7.81673039
_cell_length_b   7.78669852
_cell_length_c   7.88004552
_cell_angle_alpha   109.38832554
_cell_angle_beta   109.54197412
_cell_angle_gamma   109.07711222
_symmetry_Int_Tables_number   1
_chemical_formula_structural   Zn22Ir2PdAu
_chemical_formula_sum   'Zn22 Ir2 Pd1 Au1'
_cell_volume   371.05493675
_cell_formula_units_Z   1
loop_
 _symmetry_equiv_pos_site_id
 _symmetry_equiv_pos_as_xyz
  1  'x, y, z'
loop_
 _atom_site_type_symbol
 _atom_site_label
 _atom_site_symmetry_multiplicity
 _atom_site_fract_x
 _atom_site_fract_y
 _atom_site_fract_z
 _atom_site_occupancy
  Zn  Zn0  1  0.71635419  0.36871563  0.71228682  1
  Zn  Zn1  1  0.62181527  0.35675626  0.34787221  1
  Zn  Zn2  1  0.34940331  0.35424736  0.61429980  1
  Zn  Zn3  1  0.64847807  0.27469845  1.00000000  1
  Zn  Zn4  1  0.21603158  0.21152175  0.21738363  1
  Zn  Zn5  1  0.99864796  0.99413812  0.78261837  1
  Zn  Zn6  1  0.78124120  0.99136096  1.00000000  1
  Zn  Zn7  1  0.99578515  0.78111692  0.00000000  1
  Zn  Zn8  1  0.35765565  0.35377936  0.00000100  1
  Zn  Zn9  1  0.00202196  0.63526962  0.65304092  1
  Zn  Zn10  1  0.98424032  0.34876391  0.35037376  1
  Zn  Zn11  1  0.34898104  0.98222870  0.34695908  1
  Zn  Zn12  1  0.63386757  0.99839115  0.64962724  1
  Zn  Zn13  1  0.64331836  0.63813646  1.00000000  1
  Zn  Zn14  1  0.35634981  0.62253021  0.35230419  1
  Zn  Zn15  1  0.27394205  0.00888405  0.65212779  1
  Zn  Zn16  1  0.65343817  0.00759213  0.27731961  1
  Zn  Zn17  1  0.28858365  0.65506228  1.00000000  1
  Zn  Zn18  1  0.73510251  0.73994756  0.38569920  1
  Zn  Zn19  1  0.37611856  0.73027252  0.72268039  1
  Zn  Zn20  1  0.00406638  0.65642782  0.28771318  1
  Zn  Zn21  1  0.00404462  0.27022502  0.64769581  1
  Ir  Ir0  1  0.00269278  0.00310041  0.34633699  1
  Ir  Ir1  1  0.65635479  0.65676241  0.65366301  1
  Pd  Pd0  1  0.34863489  0.00240499  0.99999900  1
  Au  Au0  1  0.00283014  0.35766796  1.00000000  1
loop_
_geom_bond_atom_site_label_1
_geom_bond_atom_site_label_2
_geom_bond_distance
_geom_bond_site_symmetry_2
Zn0 Zn12 2.569248 1_545
Zn0 Zn2 2.661897 1_555
Zn0 Zn1 2.675573 1_555
Zn0 Zn7 2.737047 1_556
Zn0 Zn21 2.745586 1_655
Zn0 Zn3 2.758701 1_555
Zn0 Zn9 2.797025 1_655
Zn0 Zn13 2.891051 1_555
Zn0 Zn11 2.942601 1_545
Zn1 Zn9 2.619495 1_655
Zn1 Zn4 2.664278 1_555
Zn1 Zn3 2.696756 1_554
Zn1 Zn18 2.698475 1_555
Zn1 Zn16 2.699987 1_555
Zn1 Zn8 2.813969 1_555
Zn1 Zn10 2.847584 1_555
Zn1 Zn11 2.993914 1_545
Zn2 Zn4 2.618770 1_555
Zn2 Zn21 2.687017 1_555
Zn2 Zn8 3.019624 1_556
Zn3 Zn8 2.542055 1_556
Zn3 Zn6 2.727864 1_545
Zn4 Zn8 2.667162 1_555
Zn4 Zn7 2.752117 1_445
Zn4 Zn6 2.787633 1_444
Zn4 Zn5 2.804440 1_444
Zn5 Zn9 2.650235 1_655
Zn5 Zn8 2.667174 1_666
Zn5 Zn7 2.752100 1_556
Zn5 Zn6 2.787616 1_555
Zn6 Zn7 2.699486 1_556
Zn7 Zn9 2.613621 1_654
Zn10 Zn20 2.569244 1_655
Zn10 Zn21 2.580263 1_655
Zn10 Zn9 2.593756 1_655
Zn10 Zn6 2.639459 1_544
Zn10 Zn4 2.704713 1_655
Zn10 Zn16 2.752021 1_555
Zn10 Zn3 2.819478 1_554
Zn10 Zn2 2.892166 1_655
Zn10 Zn14 2.983395 1_655
Zn10 Zn19 3.011376 1_655
Zn11 Zn16 2.577263 1_565
Zn11 Zn12 2.593761 1_555
Zn11 Zn7 2.613624 1_455
Zn11 Zn15 2.619495 1_565
Zn11 Zn4 2.650234 1_565
Zn11 Zn20 2.797036 1_555
Zn11 Zn17 2.813147 1_554
Zn11 Zn14 2.834094 1_555
Zn11 Zn2 2.960883 1_565
Zn12 Zn14 2.580269 1_555
Zn12 Zn6 2.639452 1_555
Zn12 Zn5 2.704711 1_555
Zn12 Zn19 2.752023 1_555
Zn12 Zn3 2.819473 1_565
Zn12 Zn15 2.847594 1_565
Zn12 Zn18 2.892167 1_555
Zn12 Zn21 2.983381 1_665
Zn12 Zn16 3.011373 1_565
Zn13 Zn8 2.580087 1_556
Zn13 Zn6 2.605563 1_555
Zn13 Zn7 2.612510 1_556
Zn13 Zn18 2.636360 1_556
Zn13 Zn2 2.636369 1_555
Zn13 Zn17 2.818695 1_555
Zn13 Zn3 2.843420 1_555
Zn13 Zn20 2.891050 1_656
Zn13 Zn19 2.935908 1_555
Zn13 Zn16 2.935909 1_566
Zn14 Zn18 2.687006 1_555
Zn14 Zn19 2.689552 1_555
Zn14 Zn4 2.691112 1_555
Zn14 Zn20 2.745594 1_555
Zn14 Zn17 2.760929 1_554
Zn14 Zn8 2.874405 1_555
Zn15 Zn5 2.664279 1_445
Zn15 Zn20 2.675580 1_545
Zn15 Zn3 2.696764 1_555
Zn15 Zn2 2.698470 1_555
Zn15 Zn19 2.699990 1_545
Zn15 Zn8 2.813978 1_556
Zn15 Zn9 2.993911 1_545
Zn16 Zn6 2.673785 1_544
Zn16 Zn18 2.677095 1_545
Zn16 Zn17 2.678574 1_544
Zn16 Zn21 2.689552 1_655
Zn17 Zn8 2.573561 1_556
Zn17 Zn19 2.678569 1_555
Zn17 Zn21 2.760938 1_555
Zn17 Zn7 2.769513 1_456
Zn17 Zn9 2.813147 1_555
Zn18 Zn5 2.618789 1_555
Zn18 Zn20 2.661895 1_655
Zn18 Zn9 2.960890 1_655
Zn18 Zn8 3.019613 1_555
Zn19 Zn9 2.577264 1_555
Zn19 Zn6 2.673789 1_555
Zn19 Zn2 2.677104 1_555
Zn20 Zn7 2.737048 1_455
Zn20 Zn3 2.758700 1_454
Zn20 Zn9 2.942590 1_555
Zn21 Zn5 2.691113 1_445
Zn21 Zn9 2.834099 1_555
Zn21 Zn8 2.874417 1_556
Ir0 Zn21 2.579775 1_555
Ir0 Zn20 2.587428 1_545
Ir0 Zn18 2.593151 1_445
Ir0 Zn15 2.598378 1_555
Ir0 Zn2 2.602721 1_555
Ir0 Zn16 2.613775 1_455
Ir0 Zn4 2.628082 1_555
Ir0 Zn6 2.650192 1_444
Ir0 Zn7 2.673446 1_445
Ir0 Zn10 2.732473 1_455
Ir0 Zn11 2.762725 1_545
Ir0 Zn13 2.814061 1_444
Ir1 Zn14 2.579774 1_555
Ir1 Zn0 2.587419 1_555
Ir1 Zn2 2.593143 1_555
Ir1 Zn1 2.598382 1_555
Ir1 Zn18 2.602727 1_555
Ir1 Zn19 2.613770 1_555
Ir1 Zn5 2.628090 1_555
Ir1 Zn6 2.650195 1_555
Ir1 Zn7 2.673449 1_556
Ir1 Zn12 2.732480 1_555
Ir1 Zn9 2.762730 1_655
Ir1 Zn13 2.814050 1_555
Pd0 Zn17 2.589519 1_545
Pd0 Zn3 2.596234 1_555
Pd0 Zn19 2.617064 1_545
Pd0 Zn16 2.617073 1_556
Pd0 Zn15 2.626441 1_555
Pd0 Zn1 2.626457 1_556
Pd0 Zn5 2.664459 1_445
Pd0 Zn4 2.664470 1_556
Pd0 Zn8 2.713813 1_556
Pd0 Zn7 2.733084 1_446
Pd0 Zn9 2.789313 1_545
Pd0 Zn11 2.789318 1_546
Au0 Zn3 2.630558 1_455
Au0 Zn21 2.633946 1_555
Au0 Zn14 2.633954 1_556
Au0 Zn17 2.640191 1_555
Au0 Zn0 2.649721 1_455
Au0 Zn20 2.649721 1_556
Au0 Zn5 2.762403 1_445
Au0 Zn4 2.762406 1_556
Au0 Zn8 2.783616 1_556
Au0 Zn6 2.811832 1_445
Au0 Zn12 2.835088 1_445
Au0 Zn10 2.835091 1_456
