# generated using pymatgen
data_Ba(GaBr4)2
_symmetry_space_group_name_H-M   'P 1'
_cell_length_a   7.55931443
_cell_length_b   8.42966961
_cell_length_c   13.28496642
_cell_angle_alpha   79.05850417
_cell_angle_beta   90.00000000
_cell_angle_gamma   90.00000000
_symmetry_Int_Tables_number   1
_chemical_formula_structural   Ba(GaBr4)2
_chemical_formula_sum   'Ba2 Ga4 Br16'
_cell_volume   831.16254603
_cell_formula_units_Z   2
loop_
 _symmetry_equiv_pos_site_id
 _symmetry_equiv_pos_as_xyz
  1  'x, y, z'
loop_
 _atom_site_type_symbol
 _atom_site_label
 _atom_site_symmetry_multiplicity
 _atom_site_fract_x
 _atom_site_fract_y
 _atom_site_fract_z
 _atom_site_occupancy
  Ba  Ba0  1  0.85515186  0.50000000  0.75000000  1
  Ba  Ba1  1  0.14484814  0.50000000  0.25000000  1
  Ga  Ga0  1  0.27091197  0.69631380  0.55931320  1
  Ga  Ga1  1  0.72908803  0.69631380  0.05931320  1
  Ga  Ga2  1  0.72908803  0.30368620  0.44068680  1
  Ga  Ga3  1  0.27091197  0.30368620  0.94068680  1
  Br  Br0  1  0.79811959  0.42084702  0.10436761  1
  Br  Br1  1  0.79811959  0.57915298  0.39563239  1
  Br  Br2  1  0.28022319  0.78105270  0.38082664  1
  Br  Br3  1  0.28022319  0.21894730  0.11917336  1
  Br  Br4  1  0.71977681  0.21894730  0.61917336  1
  Br  Br5  1  0.71977681  0.78105270  0.88082664  1
  Br  Br6  1  0.05120297  0.83944946  0.62941206  1
  Br  Br7  1  0.05120297  0.16055054  0.87058794  1
  Br  Br8  1  0.94879703  0.16055054  0.37058794  1
  Br  Br9  1  0.94879703  0.83944946  0.12941206  1
  Br  Br10  1  0.54791193  0.75392562  0.62197780  1
  Br  Br11  1  0.54791193  0.24607438  0.87802220  1
  Br  Br12  1  0.45208807  0.24607438  0.37802220  1
  Br  Br13  1  0.45208807  0.75392562  0.12197780  1
  Br  Br14  1  0.20188041  0.42084702  0.60436761  1
  Br  Br15  1  0.20188041  0.57915298  0.89563239  1
loop_
_geom_bond_atom_site_label_1
_geom_bond_atom_site_label_2
_geom_bond_distance
_geom_bond_site_symmetry_2
Ba0 Br6 3.348208 1_655
Ba0 Br7 3.348208 1_655
Ba0 Br5 3.353226 1_555
Ba0 Br4 3.353226 1_555
Ba0 Br11 3.389178 1_555
Ba0 Br10 3.389178 1_555
Ba0 Br15 3.398263 1_655
Ba0 Br14 3.398263 1_655
Ba1 Br9 3.348208 1_455
Ba1 Br8 3.348208 1_455
Ba1 Br2 3.353226 1_555
Ba1 Br3 3.353226 1_555
Ba1 Br12 3.389178 1_555
Ba1 Br13 3.389178 1_555
Ba1 Br1 3.398263 1_455
Ba1 Br0 3.398263 1_455
Br0 Ga1 2.344156 1_555
Br1 Ga2 2.344156 1_555
Br2 Ga0 2.344090 1_555
Br3 Ga3 2.344090 1_554
Br4 Ga2 2.344090 1_555
Br5 Ga1 2.344090 1_556
Br6 Ga0 2.346928 1_555
Br7 Ga3 2.346928 1_555
Br8 Ga2 2.346928 1_555
Br9 Ga1 2.346928 1_555
Br10 Ga0 2.338146 1_555
Br11 Ga3 2.338146 1_555
Br12 Ga2 2.338146 1_555
Br13 Ga1 2.338146 1_555
Br14 Ga0 2.344156 1_555
Br15 Ga3 2.344156 1_555
