# generated using pymatgen
data_K2Zr3GeSe8
_symmetry_space_group_name_H-M   'P 1'
_cell_length_a   6.75556737
_cell_length_b   7.81935266
_cell_length_c   15.92392874
_cell_angle_alpha   90.00000000
_cell_angle_beta   90.00000000
_cell_angle_gamma   90.00000000
_symmetry_Int_Tables_number   1
_chemical_formula_structural   K2Zr3GeSe8
_chemical_formula_sum   'K4 Zr6 Ge2 Se16'
_cell_volume   841.16821834
_cell_formula_units_Z   2
loop_
 _symmetry_equiv_pos_site_id
 _symmetry_equiv_pos_as_xyz
  1  'x, y, z'
loop_
 _atom_site_type_symbol
 _atom_site_label
 _atom_site_symmetry_multiplicity
 _atom_site_fract_x
 _atom_site_fract_y
 _atom_site_fract_z
 _atom_site_occupancy
  K  K0  1  0.33484152  0.00000000  0.00000000  1
  K  K1  1  0.65351191  0.50000000  0.50000000  1
  K  K2  1  0.01248719  0.00000000  0.50000000  1
  K  K3  1  0.98448853  0.50000000  0.00000000  1
  Zr  Zr0  1  0.99714711  0.50000000  0.25481629  1
  Zr  Zr1  1  0.99714711  0.50000000  0.74518371  1
  Zr  Zr2  1  0.50079577  0.24520165  0.25062947  1
  Zr  Zr3  1  0.50079577  0.75479835  0.74937053  1
  Zr  Zr4  1  0.50079577  0.75479835  0.25062947  1
  Zr  Zr5  1  0.50079577  0.24520165  0.74937053  1
  Ge  Ge0  1  0.00798160  0.00000000  0.24638303  1
  Ge  Ge1  1  0.00798160  0.00000000  0.75361697  1
  Se  Se0  1  0.82956331  0.25391452  0.34631351  1
  Se  Se1  1  0.82956331  0.74608548  0.65368649  1
  Se  Se2  1  0.16997781  0.74257276  0.15557608  1
  Se  Se3  1  0.16997781  0.25742724  0.84442392  1
  Se  Se4  1  0.16997781  0.25742724  0.15557608  1
  Se  Se5  1  0.16997781  0.74257276  0.84442392  1
  Se  Se6  1  0.82956331  0.74608548  0.34631351  1
  Se  Se7  1  0.82956331  0.25391452  0.65368649  1
  Se  Se8  1  0.65958362  0.00000000  0.15512586  1
  Se  Se9  1  0.65958362  0.00000000  0.84487414  1
  Se  Se10  1  0.33076209  0.50000000  0.34721158  1
  Se  Se11  1  0.33076209  0.50000000  0.65278842  1
  Se  Se12  1  0.34316084  0.00000000  0.34582856  1
  Se  Se13  1  0.34316084  0.00000000  0.65417144  1
  Se  Se14  1  0.66802739  0.50000000  0.15569556  1
  Se  Se15  1  0.66802739  0.50000000  0.84430444  1
loop_
_geom_bond_atom_site_label_1
_geom_bond_atom_site_label_2
_geom_bond_distance
_geom_bond_site_symmetry_2
K0 Se8 3.303753 1_555
K0 Se9 3.303753 1_554
K0 Se4 3.380781 1_555
K0 Se2 3.380781 1_545
K0 Se3 3.380781 1_554
K0 Se5 3.380781 1_544
K1 Se11 3.267019 1_555
K1 Se10 3.267019 1_555
K1 Se6 3.332626 1_555
K1 Se1 3.332626 1_555
K1 Se0 3.332626 1_555
K1 Se7 3.332626 1_555
K2 Se13 3.319240 1_555
K2 Se12 3.319240 1_555
K2 Se0 3.385016 1_455
K2 Se7 3.385016 1_455
K2 Se6 3.385016 1_445
K2 Se1 3.385016 1_445
K3 Se14 3.273738 1_555
K3 Se15 3.273738 1_554
K3 Se2 3.362343 1_655
K3 Se4 3.362343 1_655
K3 Se5 3.362343 1_654
K3 Se3 3.362343 1_654
Ge0 Se4 2.709319 1_555
Ge0 Se2 2.709319 1_545
Ge0 Se12 2.763122 1_555
Ge0 Se8 2.766092 1_455
Ge0 Se0 2.815489 1_455
Ge0 Se6 2.815489 1_445
Ge1 Se3 2.709319 1_555
Ge1 Se5 2.709319 1_545
Ge1 Se13 2.763122 1_555
Ge1 Se9 2.766092 1_455
Ge1 Se7 2.815489 1_455
Ge1 Se1 2.815489 1_445
Se0 Zr0 2.665933 1_555
Se0 Zr2 2.694270 1_555
Se1 Zr1 2.665933 1_555
Se1 Zr3 2.694270 1_555
Se2 Zr4 2.700890 1_555
Se2 Zr0 2.730980 1_455
Se3 Zr5 2.700890 1_555
Se3 Zr1 2.730980 1_455
Se4 Zr2 2.700890 1_555
Se4 Zr0 2.730980 1_455
Se5 Zr3 2.700890 1_555
Se5 Zr1 2.730980 1_455
Se6 Zr0 2.665933 1_555
Se6 Zr4 2.694270 1_555
Se7 Zr1 2.665933 1_555
Se7 Zr5 2.694270 1_555
Se8 Zr2 2.672005 1_555
Se8 Zr4 2.672005 1_545
Se9 Zr5 2.672005 1_555
Se9 Zr3 2.672005 1_545
Se10 Zr0 2.691494 1_455
Se10 Zr4 2.766638 1_555
Se10 Zr2 2.766638 1_555
Se11 Zr1 2.691494 1_455
Se11 Zr3 2.766638 1_555
Se11 Zr5 2.766638 1_555
Se12 Zr2 2.666127 1_555
Se12 Zr4 2.666127 1_545
Se13 Zr5 2.666127 1_555
Se13 Zr3 2.666127 1_545
Se14 Zr0 2.726680 1_555
Se14 Zr4 2.744287 1_555
Se14 Zr2 2.744287 1_555
Se15 Zr1 2.726680 1_555
Se15 Zr3 2.744287 1_555
Se15 Zr5 2.744287 1_555
