# generated using pymatgen
data_Sc22TcAg2Os5
_symmetry_space_group_name_H-M   'P 1'
_cell_length_a   9.50093088
_cell_length_b   9.59350668
_cell_length_c   9.59350553
_cell_angle_alpha   59.36259947
_cell_angle_beta   60.31870473
_cell_angle_gamma   60.31870386
_symmetry_Int_Tables_number   1
_chemical_formula_structural   Sc22TcAg2Os5
_chemical_formula_sum   'Sc22 Tc1 Ag2 Os5'
_cell_volume   618.19541905
_cell_formula_units_Z   1
loop_
 _symmetry_equiv_pos_site_id
 _symmetry_equiv_pos_as_xyz
  1  'x, y, z'
loop_
 _atom_site_type_symbol
 _atom_site_label
 _atom_site_symmetry_multiplicity
 _atom_site_fract_x
 _atom_site_fract_y
 _atom_site_fract_z
 _atom_site_occupancy
  Sc  Sc0  1  0.85656007  0.83642662  0.83642662  1
  Sc  Sc1  1  0.52941332  0.16357338  0.16357338  1
  Sc  Sc2  1  0.16357338  0.14343993  0.52941332  1
  Sc  Sc3  1  0.16357338  0.52941332  0.14343993  1
  Sc  Sc4  1  0.83642662  0.85656007  0.47058668  1
  Sc  Sc5  1  0.83642662  0.47058668  0.85656007  1
  Sc  Sc6  1  0.47058668  0.83642662  0.83642662  1
  Sc  Sc7  1  0.14343993  0.16357338  0.16357338  1
  Sc  Sc8  1  0.19435015  0.80564985  0.19435015  1
  Sc  Sc9  1  0.19636414  0.80363586  0.80363586  1
  Sc  Sc10  1  0.80363586  0.19636414  0.19636414  1
  Sc  Sc11  1  0.80564985  0.80564985  0.19435015  1
  Sc  Sc12  1  0.19435015  0.19435015  0.80564985  1
  Sc  Sc13  1  0.80564985  0.19435015  0.80564985  1
  Sc  Sc14  1  0.39219648  0.38066613  0.38066613  1
  Sc  Sc15  1  0.15352873  0.61933387  0.61933387  1
  Sc  Sc16  1  0.61933387  0.15352873  0.60780352  1
  Sc  Sc17  1  0.61933387  0.60780352  0.15352873  1
  Sc  Sc18  1  0.38066613  0.84647127  0.39219648  1
  Sc  Sc19  1  0.38066613  0.39219648  0.84647127  1
  Sc  Sc20  1  0.84647127  0.38066613  0.38066613  1
  Sc  Sc21  1  0.60780352  0.61933387  0.61933387  1
  Tc  Tc0  1  0.00000000  0.00000000  0.00000000  1
  Ag  Ag0  1  0.00000000  0.50000000  0.50000000  1
  Ag  Ag1  1  0.50000000  0.00000000  0.00000000  1
  Os  Os0  1  0.50000000  0.50000000  0.00000000  1
  Os  Os1  1  0.00000000  0.00000000  0.50000000  1
  Os  Os2  1  0.50000000  0.00000000  0.50000000  1
  Os  Os3  1  0.00000000  0.50000000  0.00000000  1
  Os  Os4  1  0.50000000  0.50000000  0.50000000  1
loop_
_geom_bond_atom_site_label_1
_geom_bond_atom_site_label_2
_geom_bond_distance
_geom_bond_site_symmetry_2
Sc0 Sc9 2.951287 1_655
Sc0 Sc15 3.068820 1_655
Sc0 Sc11 3.094348 1_556
Sc0 Sc13 3.094348 1_565
Sc0 Sc16 3.232627 1_565
Sc0 Sc17 3.232627 1_556
Sc1 Sc10 2.951287 1_555
Sc1 Sc14 3.068820 1_555
Sc1 Sc13 3.094348 1_554
Sc1 Sc11 3.094348 1_545
Sc1 Sc19 3.232627 1_554
Sc1 Sc18 3.232627 1_545
Sc2 Sc9 2.951288 1_545
Sc2 Sc20 3.232627 1_455
Sc3 Sc9 2.951287 1_554
Sc3 Sc8 3.094348 1_555
Sc4 Sc8 3.094348 1_655
Sc6 Sc9 2.951287 1_555
Sc6 Sc8 3.094348 1_556
Sc7 Sc8 3.094348 1_545
Sc8 Tc0 2.611356 1_565
Sc9 Tc0 2.689587 1_566
Sc10 Tc0 2.689587 1_655
Sc10 Sc7 2.951287 1_655
Sc10 Sc5 2.951287 1_554
Sc10 Sc4 2.951288 1_545
Sc10 Sc16 3.321068 1_555
Sc10 Sc20 3.321068 1_555
Sc10 Sc14 3.321068 1_555
Sc10 Sc17 3.321068 1_555
Sc11 Tc0 2.611356 1_665
Sc11 Sc4 3.094348 1_555
Sc11 Sc3 3.094348 1_655
Sc11 Sc17 3.414823 1_555
Sc11 Sc21 3.414823 1_555
Sc11 Sc18 3.414824 1_555
Sc11 Sc20 3.414824 1_555
Sc12 Tc0 2.611356 1_556
Sc12 Sc2 3.094348 1_555
Sc12 Sc7 3.094348 1_556
Sc12 Sc5 3.094348 1_455
Sc12 Sc6 3.094348 1_545
Sc12 Sc19 3.414823 1_555
Sc12 Sc14 3.414823 1_555
Sc12 Sc16 3.414824 1_555
Sc12 Sc15 3.414824 1_555
Sc13 Tc0 2.611356 1_656
Sc13 Sc2 3.094348 1_655
Sc13 Sc5 3.094348 1_555
Sc13 Sc16 3.414823 1_555
Sc13 Sc20 3.414823 1_555
Sc13 Sc19 3.414824 1_555
Sc13 Sc21 3.414824 1_555
Sc14 Sc16 3.051896 1_555
Sc14 Sc17 3.051897 1_555
Sc14 Sc3 3.232627 1_555
Sc14 Sc2 3.232627 1_555
Sc14 Sc15 3.269017 1_555
Sc14 Sc8 3.414824 1_555
Sc15 Sc19 3.051896 1_555
Sc15 Sc18 3.051897 1_555
Sc15 Sc4 3.232627 1_455
Sc15 Sc5 3.232627 1_455
Sc15 Sc9 3.321068 1_555
Sc15 Sc8 3.414823 1_555
Sc16 Sc20 3.051897 1_555
Sc16 Sc4 3.068820 1_545
Sc16 Sc6 3.232627 1_545
Sc16 Sc19 3.269017 1_555
Sc17 Sc20 3.051896 1_555
Sc17 Sc5 3.068820 1_554
Sc17 Sc6 3.232627 1_554
Sc17 Sc18 3.269017 1_555
Sc17 Sc8 3.414824 1_555
Sc18 Sc21 3.051896 1_555
Sc18 Sc2 3.068820 1_565
Sc18 Sc7 3.232627 1_565
Sc18 Sc9 3.321068 1_555
Sc18 Sc8 3.414823 1_555
Sc19 Sc21 3.051897 1_555
Sc19 Sc3 3.068820 1_556
Sc19 Sc7 3.232627 1_556
Sc19 Sc9 3.321068 1_555
Sc20 Sc7 3.068820 1_655
Sc20 Sc3 3.232627 1_655
Sc20 Sc21 3.269017 1_555
Sc21 Sc6 3.068820 1_555
Sc21 Sc5 3.232627 1_555
Sc21 Sc4 3.232627 1_555
Sc21 Sc9 3.321068 1_555
Ag0 Sc3 2.895091 1_555
Ag0 Sc5 2.895091 1_455
Ag0 Sc4 2.895091 1_455
Ag0 Sc2 2.895091 1_555
Ag0 Sc15 3.064704 1_555
Ag0 Sc20 3.064704 1_455
Ag0 Sc21 3.064704 1_455
Ag0 Sc14 3.064704 1_555
Ag0 Sc12 3.441302 1_555
Ag0 Sc11 3.441302 1_455
Ag0 Sc8 3.441303 1_555
Ag0 Sc13 3.441303 1_455
Ag1 Sc1 2.895091 1_555
Ag1 Sc6 2.895091 1_544
Ag1 Sc0 2.895091 1_544
Ag1 Sc7 2.895091 1_555
Ag1 Sc18 3.064704 1_545
Ag1 Sc16 3.064704 1_554
Ag1 Sc19 3.064704 1_554
Ag1 Sc17 3.064704 1_545
Ag1 Sc11 3.441302 1_545
Ag1 Sc12 3.441302 1_554
Ag1 Sc13 3.441303 1_554
Ag1 Sc8 3.441303 1_545
Os0 Sc5 2.708594 1_554
Os0 Sc3 2.708594 1_555
Os0 Sc6 2.708594 1_554
Os0 Sc1 2.708594 1_555
Os0 Sc17 2.981951 1_555
Os0 Sc19 2.981951 1_554
Os0 Sc14 2.981951 1_555
Os0 Sc21 2.981951 1_554
Os1 Sc2 2.708594 1_555
Os1 Sc4 2.708594 1_445
Os1 Sc0 2.708594 1_445
Os1 Sc7 2.708594 1_555
Os1 Sc16 2.981951 1_455
Os1 Sc18 2.981951 1_545
Os1 Sc20 2.981951 1_455
Os1 Sc15 2.981951 1_545
Os2 Sc6 2.708594 1_545
Os2 Sc1 2.708594 1_555
Os2 Sc4 2.708594 1_545
Os2 Sc2 2.708594 1_555
Os2 Sc16 2.981951 1_555
Os2 Sc18 2.981951 1_545
Os2 Sc14 2.981951 1_555
Os2 Sc21 2.981951 1_545
Os3 Sc5 2.708594 1_454
Os3 Sc3 2.708594 1_555
Os3 Sc0 2.708594 1_454
Os3 Sc7 2.708594 1_555
Os3 Sc20 2.981951 1_455
Os3 Sc15 2.981951 1_554
Os3 Sc19 2.981951 1_554
Os3 Sc17 2.981951 1_455
Os4 Sc21 2.707149 1_555
Os4 Sc14 2.707149 1_555
Os4 Sc19 2.707149 1_555
Os4 Sc17 2.707149 1_555
Os4 Sc20 2.707149 1_555
Os4 Sc15 2.707149 1_555
Os4 Sc18 2.707149 1_555
Os4 Sc16 2.707149 1_555
