# generated using pymatgen
data_CsTa4AsO13
_symmetry_space_group_name_H-M   'P 1'
_cell_length_a   7.41221822
_cell_length_b   7.41221899
_cell_length_c   10.09356860
_cell_angle_alpha   90.00000000
_cell_angle_beta   90.00000000
_cell_angle_gamma   91.97653265
_symmetry_Int_Tables_number   1
_chemical_formula_structural   CsTa4AsO13
_chemical_formula_sum   'Cs2 Ta8 As2 O26'
_cell_volume   554.22066007
_cell_formula_units_Z   2
loop_
 _symmetry_equiv_pos_site_id
 _symmetry_equiv_pos_as_xyz
  1  'x, y, z'
loop_
 _atom_site_type_symbol
 _atom_site_label
 _atom_site_symmetry_multiplicity
 _atom_site_fract_x
 _atom_site_fract_y
 _atom_site_fract_z
 _atom_site_occupancy
  Cs  Cs0  1  0.43156302  0.43156302  0.45164454  1
  Cs  Cs1  1  0.56843698  0.56843698  0.95164454  1
  Ta  Ta0  1  0.55125129  0.89596742  0.25262553  1
  Ta  Ta1  1  0.10403258  0.44874871  0.75262553  1
  Ta  Ta2  1  0.44874871  0.10403258  0.75262553  1
  Ta  Ta3  1  0.89596742  0.55125129  0.25262553  1
  Ta  Ta4  1  0.17398023  0.83550936  0.50229961  1
  Ta  Ta5  1  0.16449064  0.82601977  0.00229961  1
  Ta  Ta6  1  0.83550936  0.17398023  0.50229961  1
  Ta  Ta7  1  0.82601977  0.16449064  0.00229961  1
  As  As0  1  0.16489336  0.16489336  0.24421299  1
  As  As1  1  0.83510664  0.83510664  0.74421299  1
  O  O0  1  0.66427336  0.66427336  0.25400405  1
  O  O1  1  0.33572664  0.33572664  0.75400405  1
  O  O2  1  0.38755359  0.13011663  0.24428772  1
  O  O3  1  0.86988337  0.61244641  0.74428772  1
  O  O4  1  0.61244641  0.86988337  0.74428772  1
  O  O5  1  0.13011663  0.38755359  0.24428772  1
  O  O6  1  0.80859237  0.36613150  0.38782264  1
  O  O7  1  0.64760875  0.19599083  0.61976518  1
  O  O8  1  0.80400917  0.35239125  0.11976518  1
  O  O9  1  0.63386850  0.19140763  0.88782264  1
  O  O10  1  0.19599083  0.64760875  0.61976518  1
  O  O11  1  0.36613150  0.80859237  0.38782264  1
  O  O12  1  0.19140763  0.63386850  0.88782264  1
  O  O13  1  0.35239125  0.80400917  0.11976518  1
  O  O14  1  0.07191182  0.07191182  0.38666192  1
  O  O15  1  0.93316181  0.93316181  0.60563208  1
  O  O16  1  0.06683819  0.06683819  0.10563208  1
  O  O17  1  0.92808818  0.92808818  0.88666192  1
  O  O18  1  0.69588204  0.00520449  0.38495984  1
  O  O19  1  0.01687264  0.30768595  0.60736069  1
  O  O20  1  0.69231405  0.98312736  0.10736069  1
  O  O21  1  0.99479551  0.30411796  0.88495984  1
  O  O22  1  0.30768595  0.01687264  0.60736069  1
  O  O23  1  0.00520449  0.69588204  0.38495984  1
  O  O24  1  0.30411796  0.99479551  0.88495984  1
  O  O25  1  0.98312736  0.69231405  0.10736069  1
loop_
_geom_bond_atom_site_label_1
_geom_bond_atom_site_label_2
_geom_bond_distance
_geom_bond_site_symmetry_2
Cs0 O6 2.924657 1_555
Cs0 O11 2.924657 1_555
Cs0 O10 2.947168 1_555
Cs0 O7 2.947168 1_555
Cs0 O5 3.070691 1_555
Cs0 O2 3.070691 1_555
Cs0 O0 3.118484 1_555
Cs0 O1 3.207558 1_555
Cs1 O12 2.924657 1_555
Cs1 O9 2.924657 1_555
Cs1 O8 2.947168 1_556
Cs1 O13 2.947168 1_556
Cs1 O3 3.070691 1_555
Cs1 O4 3.070691 1_555
Cs1 O1 3.118484 1_555
Cs1 O0 3.207558 1_556
As0 O2 1.679177 1_555
As0 O5 1.679177 1_555
As0 O16 1.725291 1_555
As0 O14 1.727584 1_555
As1 O4 1.679177 1_555
As1 O3 1.679177 1_555
As1 O15 1.725291 1_555
As1 O17 1.727584 1_555
O0 Ta3 1.936647 1_555
O0 Ta0 1.936647 1_555
O1 Ta1 1.936647 1_555
O1 Ta2 1.936647 1_555
O2 Ta0 2.153319 1_545
O3 Ta1 2.153319 1_655
O4 Ta2 2.153319 1_565
O5 Ta3 2.153319 1_455
O6 Ta6 1.850157 1_555
O6 Ta3 2.025617 1_555
O7 Ta6 1.840606 1_555
O7 Ta2 2.089576 1_555
O8 Ta7 1.840606 1_555
O8 Ta3 2.089576 1_555
O9 Ta7 1.850157 1_556
O9 Ta2 2.025617 1_555
O10 Ta4 1.840606 1_555
O10 Ta1 2.089576 1_555
O11 Ta4 1.850157 1_555
O11 Ta0 2.025617 1_555
O12 Ta5 1.850157 1_556
O12 Ta1 2.025617 1_555
O13 Ta5 1.840606 1_555
O13 Ta0 2.089576 1_555
O14 Ta6 2.257566 1_455
O14 Ta4 2.257567 1_545
O15 Ta4 2.210678 1_655
O15 Ta6 2.210678 1_565
O16 Ta7 2.210678 1_455
O16 Ta5 2.210678 1_545
O17 Ta5 2.257566 1_656
O17 Ta7 2.257567 1_566
O18 Ta0 1.878601 1_545
O18 Ta6 1.987351 1_555
O19 Ta1 1.901026 1_555
O19 Ta6 1.954989 1_455
O20 Ta0 1.901026 1_555
O20 Ta7 1.954989 1_565
O21 Ta1 1.878601 1_655
O21 Ta7 1.987351 1_556
O22 Ta2 1.901026 1_555
O22 Ta4 1.954989 1_545
O23 Ta3 1.878601 1_455
O23 Ta4 1.987351 1_555
O24 Ta2 1.878601 1_565
O24 Ta5 1.987351 1_556
O25 Ta3 1.901026 1_555
O25 Ta5 1.954989 1_655
