# generated using pymatgen
data_Na16TiSnP8
_symmetry_space_group_name_H-M   'P 1'
_cell_length_a   9.52223937
_cell_length_b   9.52224000
_cell_length_c   9.52224009
_cell_angle_alpha   60.00000306
_cell_angle_beta   60.00000089
_cell_angle_gamma   59.99999887
_symmetry_Int_Tables_number   1
_chemical_formula_structural   Na16TiSnP8
_chemical_formula_sum   'Na16 Ti1 Sn1 P8'
_cell_volume   610.52345991
_cell_formula_units_Z   1
loop_
 _symmetry_equiv_pos_site_id
 _symmetry_equiv_pos_as_xyz
  1  'x, y, z'
loop_
 _atom_site_type_symbol
 _atom_site_label
 _atom_site_symmetry_multiplicity
 _atom_site_fract_x
 _atom_site_fract_y
 _atom_site_fract_z
 _atom_site_occupancy
  Na  Na0  1  0.62419432  0.62419432  0.12741705  1
  Na  Na1  1  0.62419432  0.12741705  0.62419432  1
  Na  Na2  1  0.12741705  0.62419432  0.62419432  1
  Na  Na3  1  0.62419432  0.62419432  0.62419432  1
  Na  Na4  1  0.03095450  0.46904550  0.46904550  1
  Na  Na5  1  0.77500560  0.22499440  0.22499440  1
  Na  Na6  1  0.46904550  0.03095450  0.46904550  1
  Na  Na7  1  0.46904550  0.46904550  0.03095450  1
  Na  Na8  1  0.03095450  0.03095450  0.46904550  1
  Na  Na9  1  0.03095450  0.46904550  0.03095450  1
  Na  Na10  1  0.46904550  0.03095450  0.03095450  1
  Na  Na11  1  0.77500560  0.22499440  0.77500560  1
  Na  Na12  1  0.22499440  0.77500560  0.22499440  1
  Na  Na13  1  0.22499440  0.22499440  0.77500560  1
  Na  Na14  1  0.77500560  0.77500560  0.22499440  1
  Na  Na15  1  0.22499440  0.77500560  0.77500560  1
  Ti  Ti0  1  0.50000000  0.50000000  0.50000000  1
  Sn  Sn0  1  0.75000000  0.75000000  0.75000000  1
  P  P0  1  0.85929941  0.85929941  0.42210476  1
  P  P1  1  0.85929941  0.42210476  0.85929941  1
  P  P2  1  0.39652978  0.39652978  0.81040865  1
  P  P3  1  0.39652978  0.81040865  0.39652978  1
  P  P4  1  0.81040865  0.39652978  0.39652978  1
  P  P5  1  0.85929941  0.85929941  0.85929941  1
  P  P6  1  0.42210476  0.85929941  0.85929941  1
  P  P7  1  0.39652978  0.39652978  0.39652978  1
loop_
_geom_bond_atom_site_label_1
_geom_bond_atom_site_label_2
_geom_bond_distance
_geom_bond_site_symmetry_2
Na0 Ti0 2.896787 1_555
Na0 Sn0 2.934371 1_554
Na0 P3 3.091128 1_555
Na0 P4 3.091128 1_555
Na0 P7 3.091140 1_555
Na0 P1 3.181587 1_554
Na0 P6 3.181587 1_554
Na0 P5 3.181606 1_554
Na1 Ti0 2.896786 1_555
Na1 Sn0 2.934371 1_545
Na1 P2 3.091128 1_555
Na1 P4 3.091128 1_555
Na1 P7 3.091140 1_555
Na1 P0 3.181587 1_545
Na1 P6 3.181587 1_545
Na1 P5 3.181606 1_545
Na2 Ti0 2.896786 1_555
Na2 Sn0 2.934371 1_455
Na2 P2 3.091128 1_555
Na2 P3 3.091128 1_555
Na2 P7 3.091140 1_555
Na2 P0 3.181587 1_455
Na2 P1 3.181587 1_455
Na2 P5 3.181606 1_455
Na3 Ti0 2.896786 1_555
Na3 Sn0 2.934371 1_555
Na3 P3 3.091143 1_555
Na3 P4 3.091143 1_555
Na3 P2 3.091143 1_555
Na3 P1 3.181609 1_555
Na3 P6 3.181609 1_555
Na3 P0 3.181609 1_555
Na4 P7 2.956513 1_555
Na4 P4 2.956531 1_455
Na4 P0 3.110681 1_455
Na4 P1 3.110681 1_455
Na5 P0 2.910098 1_545
Na5 P1 2.910098 1_554
Na5 P4 3.036270 1_555
Na5 P7 3.036282 1_555
Na6 P7 2.956513 1_555
Na6 P3 2.956531 1_545
Na6 P0 3.110680 1_545
Na6 P6 3.110681 1_545
Na7 P7 2.956513 1_555
Na7 P2 2.956531 1_554
Na7 P1 3.110680 1_554
Na7 P6 3.110681 1_554
Na8 P3 2.956518 1_545
Na8 P4 2.956518 1_455
Na8 P0 3.110656 1_445
Na8 P5 3.110675 1_445
Na9 P2 2.956518 1_554
Na9 P4 2.956518 1_455
Na9 P1 3.110656 1_454
Na9 P5 3.110675 1_454
Na10 P2 2.956518 1_554
Na10 P3 2.956518 1_545
Na10 P6 3.110656 1_544
Na10 P5 3.110675 1_544
Na11 P5 2.910092 1_545
Na11 P1 2.910119 1_555
Na11 P2 3.036286 1_555
Na11 P4 3.036287 1_555
Na12 P0 2.910098 1_455
Na12 P6 2.910098 1_554
Na12 P3 3.036270 1_555
Na12 P7 3.036283 1_555
Na13 P1 2.910097 1_455
Na13 P6 2.910098 1_545
Na13 P2 3.036270 1_555
Na13 P7 3.036283 1_555
Na14 P5 2.910093 1_554
Na14 P0 2.910119 1_555
Na14 P3 3.036287 1_555
Na14 P4 3.036287 1_555
Na15 P5 2.910092 1_455
Na15 P6 2.910119 1_555
Na15 P2 3.036287 1_555
Na15 P3 3.036287 1_555
P0 Sn0 2.549345 1_555
P1 Sn0 2.549345 1_555
P2 Ti0 2.413389 1_555
P3 Ti0 2.413389 1_555
P4 Ti0 2.413389 1_555
P5 Sn0 2.549368 1_555
P6 Sn0 2.549345 1_555
P7 Ti0 2.413404 1_555
