# generated using pymatgen
data_ZnNi20(B3Sb)2
_symmetry_space_group_name_H-M   'P 1'
_cell_length_a   7.43479657
_cell_length_b   7.43479653
_cell_length_c   7.43479662
_cell_angle_alpha   60.00000396
_cell_angle_beta   60.00000414
_cell_angle_gamma   60.00000509
_symmetry_Int_Tables_number   1
_chemical_formula_structural   ZnNi20(B3Sb)2
_chemical_formula_sum   'Zn1 Ni20 B6 Sb2'
_cell_volume   290.59779606
_cell_formula_units_Z   1
loop_
 _symmetry_equiv_pos_site_id
 _symmetry_equiv_pos_as_xyz
  1  'x, y, z'
loop_
 _atom_site_type_symbol
 _atom_site_label
 _atom_site_symmetry_multiplicity
 _atom_site_fract_x
 _atom_site_fract_y
 _atom_site_fract_z
 _atom_site_occupancy
  Zn  Zn0  1  0.00000000  0.00000000  0.00000000  1
  Ni  Ni0  1  0.00000000  0.00000000  0.66310665  1
  Ni  Ni1  1  0.38430139  0.84709483  0.38430139  1
  Ni  Ni2  1  0.66310665  0.33689335  0.00000000  1
  Ni  Ni3  1  1.00000000  0.33689335  0.66310665  1
  Ni  Ni4  1  0.66310665  0.00000000  0.00000000  1
  Ni  Ni5  1  1.00000000  1.00000000  0.33689335  1
  Ni  Ni6  1  0.66310665  0.00000000  0.33689335  1
  Ni  Ni7  1  1.00000000  0.33689335  1.00000000  1
  Ni  Ni8  1  0.00000000  0.66310665  0.33689335  1
  Ni  Ni9  1  0.33689335  1.00000000  1.00000000  1
  Ni  Ni10  1  0.00000000  0.66310665  0.00000000  1
  Ni  Ni11  1  0.33689335  1.00000000  0.66310665  1
  Ni  Ni12  1  0.38430139  0.38430139  0.38430139  1
  Ni  Ni13  1  0.33689335  0.66310665  1.00000000  1
  Ni  Ni14  1  0.61569861  0.15290517  0.61569861  1
  Ni  Ni15  1  0.38430139  0.38430139  0.84709483  1
  Ni  Ni16  1  0.84709483  0.38430139  0.38430139  1
  Ni  Ni17  1  0.61569861  0.61569861  0.61569861  1
  Ni  Ni18  1  0.15290517  0.61569861  0.61569861  1
  Ni  Ni19  1  0.61569861  0.61569861  0.15290517  1
  B  B0  1  0.72695321  0.72695321  0.27304679  1
  B  B1  1  0.72695321  0.27304679  0.72695321  1
  B  B2  1  0.27304679  0.72695321  0.27304679  1
  B  B3  1  0.72695321  0.27304679  0.27304679  1
  B  B4  1  0.27304679  0.72695321  0.72695321  1
  B  B5  1  0.27304679  0.27304679  0.72695321  1
  Sb  Sb0  1  0.25000000  0.25000000  0.25000000  1
  Sb  Sb1  1  0.75000000  0.75000000  0.75000000  1
loop_
_geom_bond_atom_site_label_1
_geom_bond_atom_site_label_2
_geom_bond_distance
_geom_bond_site_symmetry_2
Ni0 Zn0 2.504734 1_556
Ni1 Sb0 2.445830 1_565
Ni2 Zn0 2.504734 1_655
Ni3 Zn0 2.504734 1_656
Ni4 Zn0 2.504734 1_655
Ni5 Zn0 2.504734 1_665
Ni6 Zn0 2.504734 1_655
Ni7 Zn0 2.504733 1_656
Ni8 Zn0 2.504734 1_565
Ni9 Zn0 2.504734 1_566
Ni10 Zn0 2.504733 1_565
Ni11 Zn0 2.504734 1_566
Ni12 Sb0 2.445824 1_555
Ni13 Zn0 2.504734 1_566
Ni14 Sb1 2.445830 1_545
Ni15 Sb0 2.445830 1_556
Ni16 Sb0 2.445830 1_655
Ni17 Sb1 2.445824 1_555
Ni18 Sb1 2.445830 1_455
Ni19 Sb1 2.445830 1_554
B0 Ni19 2.080407 1_555
B0 Ni16 2.080413 1_555
B0 Ni1 2.080413 1_555
B0 Ni17 2.080413 1_555
B0 Ni6 2.084807 1_565
B0 Ni8 2.084807 1_655
B0 Ni4 2.084807 1_565
B0 Ni10 2.084807 1_655
B1 Ni14 2.080407 1_555
B1 Ni16 2.080413 1_555
B1 Ni15 2.080413 1_555
B1 Ni17 2.080413 1_555
B1 Ni3 2.084807 1_555
B1 Ni2 2.084807 1_556
B1 Ni4 2.084807 1_556
B1 Ni0 2.084807 1_655
B2 Ni1 2.080407 1_555
B2 Ni18 2.080413 1_555
B2 Ni19 2.080413 1_555
B2 Ni12 2.080413 1_555
B2 Ni8 2.084807 1_555
B2 Ni13 2.084807 1_554
B2 Ni9 2.084807 1_554
B2 Ni5 2.084807 1_455
B3 Ni16 2.080407 1_555
B3 Ni19 2.080413 1_555
B3 Ni14 2.080413 1_555
B3 Ni12 2.080413 1_555
B3 Ni6 2.084807 1_555
B3 Ni2 2.084807 1_555
B3 Ni7 2.084807 1_554
B3 Ni5 2.084807 1_545
B4 Ni18 2.080407 1_555
B4 Ni15 2.080413 1_555
B4 Ni1 2.080413 1_555
B4 Ni17 2.080413 1_555
B4 Ni11 2.084807 1_555
B4 Ni13 2.084807 1_555
B4 Ni10 2.084807 1_556
B4 Ni0 2.084807 1_565
B5 Ni15 2.080407 1_555
B5 Ni18 2.080413 1_555
B5 Ni14 2.080413 1_555
B5 Ni12 2.080413 1_555
B5 Ni11 2.084807 1_545
B5 Ni3 2.084807 1_455
B5 Ni9 2.084807 1_545
B5 Ni7 2.084807 1_455
