# generated using pymatgen
data_K4Ba2TiSb4
_symmetry_space_group_name_H-M   'P 1'
_cell_length_a   11.02321349
_cell_length_b   11.02321361
_cell_length_c   8.55425907
_cell_angle_alpha   89.09977208
_cell_angle_beta   89.09977382
_cell_angle_gamma   119.83708809
_symmetry_Int_Tables_number   1
_chemical_formula_structural   K4Ba2TiSb4
_chemical_formula_sum   'K8 Ba4 Ti2 Sb8'
_cell_volume   901.21127532
_cell_formula_units_Z   2
loop_
 _symmetry_equiv_pos_site_id
 _symmetry_equiv_pos_as_xyz
  1  'x, y, z'
loop_
 _atom_site_type_symbol
 _atom_site_label
 _atom_site_symmetry_multiplicity
 _atom_site_fract_x
 _atom_site_fract_y
 _atom_site_fract_z
 _atom_site_occupancy
  K  K0  1  0.47627955  0.94900759  0.38296369  1
  K  K1  1  0.94900759  0.47627955  0.88296369  1
  K  K2  1  0.86484000  0.72277121  0.18294958  1
  K  K3  1  0.27342633  0.12974484  0.22497130  1
  K  K4  1  0.85299324  0.13936240  0.20240469  1
  K  K5  1  0.12974484  0.27342633  0.72497130  1
  K  K6  1  0.72277121  0.86484000  0.68294958  1
  K  K7  1  0.13936240  0.85299324  0.70240469  1
  Ba  Ba0  1  0.05525307  0.52930004  0.38746304  1
  Ba  Ba1  1  0.47783535  0.52988423  0.38097639  1
  Ba  Ba2  1  0.52930004  0.05525307  0.88746304  1
  Ba  Ba3  1  0.52988423  0.47783535  0.88097639  1
  Ti  Ti0  1  0.66409926  0.33215604  0.49307405  1
  Ti  Ti1  1  0.33215604  0.66409926  0.99307405  1
  Sb  Sb0  1  0.65698067  0.33434107  0.17546612  1
  Sb  Sb1  1  0.33434107  0.65698067  0.67546612  1
  Sb  Sb2  1  0.20391159  0.39816996  0.11035123  1
  Sb  Sb3  1  0.60390638  0.79940818  0.08243438  1
  Sb  Sb4  1  0.20412821  0.80201080  0.09461354  1
  Sb  Sb5  1  0.79940818  0.60390638  0.58243438  1
  Sb  Sb6  1  0.39816996  0.20391159  0.61035123  1
  Sb  Sb7  1  0.80201080  0.20412821  0.59461354  1
loop_
_geom_bond_atom_site_label_1
_geom_bond_atom_site_label_2
_geom_bond_distance
_geom_bond_site_symmetry_2
K0 Sb4 3.637404 1_555
K0 Sb3 3.692674 1_555
K0 Sb1 3.699091 1_555
K0 Sb7 3.794138 1_565
K0 Ti0 3.807483 1_565
K0 Sb6 3.866102 1_565
K0 Sb0 4.048869 1_565
K1 Sb7 3.637404 1_555
K1 Sb5 3.692674 1_555
K1 Sb0 3.699091 1_556
K1 Sb4 3.794138 1_656
K1 Ti1 3.807483 1_655
K1 Sb2 3.866102 1_656
K1 Sb1 4.048869 1_655
K2 Sb4 3.458559 1_655
K2 Sb3 3.492710 1_555
K2 Sb5 3.571612 1_555
K2 Sb0 3.719990 1_555
K3 Sb4 3.505103 1_545
K3 Sb2 3.534442 1_555
K3 Sb6 3.540556 1_555
K3 Sb0 3.683344 1_555
K4 Sb7 3.535136 1_555
K4 Sb2 3.546097 1_655
K4 Sb3 3.550486 1_545
K4 Sb0 3.736613 1_555
K5 Sb7 3.505103 1_455
K5 Sb6 3.534442 1_555
K5 Sb2 3.540556 1_556
K5 Sb1 3.683345 1_555
K6 Sb7 3.458559 1_565
K6 Sb5 3.492710 1_555
K6 Sb3 3.571612 1_556
K6 Sb1 3.719990 1_555
K7 Sb4 3.535136 1_556
K7 Sb6 3.546097 1_565
K7 Sb5 3.550486 1_455
K7 Sb1 3.736613 1_555
Ba0 Sb4 3.568028 1_555
Ba0 Sb2 3.568830 1_555
Ba0 Sb7 3.670033 1_455
Ba0 Sb1 3.681513 1_555
Ba0 Sb5 3.689846 1_455
Ba1 Sb2 3.542254 1_555
Ba1 Sb3 3.580745 1_555
Ba1 Sb1 3.605793 1_555
Ba1 Sb5 3.682255 1_555
Ba1 Sb6 3.757269 1_555
Ba2 Sb7 3.568028 1_555
Ba2 Sb6 3.568830 1_555
Ba2 Sb4 3.670033 1_546
Ba2 Sb0 3.681513 1_556
Ba2 Sb3 3.689846 1_546
Ba3 Sb6 3.542254 1_555
Ba3 Sb5 3.580745 1_555
Ba3 Sb0 3.605793 1_556
Ba3 Sb3 3.682256 1_556
Ba3 Sb2 3.757269 1_556
Sb0 Ti0 2.719340 1_555
Sb1 Ti1 2.719340 1_555
Sb2 Ti1 2.708767 1_554
Sb3 Ti1 2.728408 1_554
Sb4 Ti1 2.682372 1_554
Sb5 Ti0 2.728408 1_555
Sb6 Ti0 2.708767 1_555
Sb7 Ti0 2.682372 1_555
