# generated using pymatgen
data_BaTcAs2Rh
_symmetry_space_group_name_H-M   'P 1'
_cell_length_a   6.94291507
_cell_length_b   6.94291520
_cell_length_c   6.94291463
_cell_angle_alpha   145.01329099
_cell_angle_beta   145.01329908
_cell_angle_gamma   50.31471393
_symmetry_Int_Tables_number   1
_chemical_formula_structural   BaTcAs2Rh
_chemical_formula_sum   'Ba1 Tc1 As2 Rh1'
_cell_volume   109.48811720
_cell_formula_units_Z   1
loop_
 _symmetry_equiv_pos_site_id
 _symmetry_equiv_pos_as_xyz
  1  'x, y, z'
loop_
 _atom_site_type_symbol
 _atom_site_label
 _atom_site_symmetry_multiplicity
 _atom_site_fract_x
 _atom_site_fract_y
 _atom_site_fract_z
 _atom_site_occupancy
  Ba  Ba0  1  0.00000000  0.00000000  0.00000000  1
  Tc  Tc0  1  0.75000000  0.25000000  0.50000000  1
  As  As0  1  0.35026098  0.35026098  0.00000000  1
  As  As1  1  0.64973902  0.64973902  1.00000000  1
  Rh  Rh0  1  0.25000000  0.75000000  0.50000000  1
loop_
_geom_bond_atom_site_label_1
_geom_bond_atom_site_label_2
_geom_bond_distance
_geom_bond_site_symmetry_2
As0 Tc0 2.437943 1_555
As0 Tc0 2.437943 1_454
As0 Rh0 2.437943 1_555
As0 Rh0 2.437944 1_544
As0 Ba0 3.500456 1_554
As0 Ba0 3.500456 1_666
As0 Ba0 3.500456 1_655
As0 Ba0 3.500456 1_565
As1 Rh0 2.437943 1_555
As1 Rh0 2.437943 1_656
As1 Tc0 2.437943 1_555
As1 Tc0 2.437944 1_566
As1 Ba0 3.500456 1_667
As1 Ba0 3.500456 1_555
As1 Ba0 3.500456 1_566
As1 Ba0 3.500456 1_656
