# generated using pymatgen
data_MgTcF6
_symmetry_space_group_name_H-M   'P 1'
_cell_length_a   5.42485285
_cell_length_b   5.42485397
_cell_length_c   5.42485265
_cell_angle_alpha   55.99129398
_cell_angle_beta   55.99129420
_cell_angle_gamma   55.99130293
_symmetry_Int_Tables_number   1
_chemical_formula_structural   MgTcF6
_chemical_formula_sum   'Mg1 Tc1 F6'
_cell_volume   102.40397226
_cell_formula_units_Z   1
loop_
 _symmetry_equiv_pos_site_id
 _symmetry_equiv_pos_as_xyz
  1  'x, y, z'
loop_
 _atom_site_type_symbol
 _atom_site_label
 _atom_site_symmetry_multiplicity
 _atom_site_fract_x
 _atom_site_fract_y
 _atom_site_fract_z
 _atom_site_occupancy
  Mg  Mg0  1  0.50000000  0.50000000  0.50000000  1
  Tc  Tc0  1  0.00000000  0.00000000  0.00000000  1
  F  F0  1  0.63105258  0.87487087  0.24667499  1
  F  F1  1  0.87487087  0.24667599  0.63105158  1
  F  F2  1  0.75332401  0.36894842  0.12512913  1
  F  F3  1  0.12512913  0.75332401  0.36894842  1
  F  F4  1  0.36894742  0.12512913  0.75332501  1
  F  F5  1  0.24667599  0.63105158  0.87487087  1
loop_
_geom_bond_atom_site_label_1
_geom_bond_atom_site_label_2
_geom_bond_distance
_geom_bond_site_symmetry_2
F0 Tc0 1.940367 1_665
F0 Mg0 1.981852 1_555
F1 Tc0 1.940371 1_656
F1 Mg0 1.981849 1_555
F2 Tc0 1.940371 1_655
F2 Mg0 1.981849 1_555
F3 Tc0 1.940371 1_565
F3 Mg0 1.981849 1_555
F4 Tc0 1.940367 1_556
F4 Mg0 1.981852 1_555
F5 Tc0 1.940371 1_566
F5 Mg0 1.981849 1_555
