# generated using pymatgen
data_Ca(TbS2)2
_symmetry_space_group_name_H-M   'P 1'
_cell_length_a   7.27587104
_cell_length_b   7.27587104
_cell_length_c   7.27587104
_cell_angle_alpha   109.52387352
_cell_angle_beta   109.52387352
_cell_angle_gamma   109.36596612
_symmetry_Int_Tables_number   1
_chemical_formula_structural   Ca(TbS2)2
_chemical_formula_sum   'Ca2 Tb4 S8'
_cell_volume   296.50497825
_cell_formula_units_Z   2
loop_
 _symmetry_equiv_pos_site_id
 _symmetry_equiv_pos_as_xyz
  1  'x, y, z'
loop_
 _atom_site_type_symbol
 _atom_site_label
 _atom_site_symmetry_multiplicity
 _atom_site_fract_x
 _atom_site_fract_y
 _atom_site_fract_z
 _atom_site_occupancy
  Ca  Ca0  1  0.75000000  0.25000000  0.50000000  1
  Ca  Ca1  1  0.00000000  0.00000000  0.00000000  1
  Tb  Tb0  1  0.24743500  0.62500000  0.12243500  1
  Tb  Tb1  1  0.37500000  0.49743500  0.62243500  1
  Tb  Tb2  1  0.50256500  0.12500000  0.87756500  1
  Tb  Tb3  1  0.87500000  0.75256500  0.37756500  1
  S  S0  1  0.13120600  0.73614600  0.75061300  1
  S  S1  1  0.61879400  0.86940700  0.10494000  1
  S  S2  1  0.26385400  0.01446600  0.39506000  1
  S  S3  1  0.61940700  0.86879400  0.60494000  1
  S  S4  1  0.48614600  0.38120600  0.25061300  1
  S  S5  1  0.76446600  0.51385400  0.89506000  1
  S  S6  1  0.98553400  0.38059300  0.24938700  1
  S  S7  1  0.13059300  0.23553400  0.74938700  1
loop_
_geom_bond_atom_site_label_1
_geom_bond_atom_site_label_2
_geom_bond_distance
_geom_bond_site_symmetry_2
Ca0 S7 2.816766 1_655
Ca0 S1 2.816770 1_545
Ca0 S4 2.816770 1_555
Ca0 S5 2.816774 1_555
Ca0 S0 3.054717 1_655
Ca0 S3 3.054717 1_545
Ca0 S2 3.054718 1_555
Ca0 S6 3.054722 1_555
Ca1 S6 2.816766 1_455
Ca1 S3 2.816770 1_444
Ca1 S0 2.816770 1_544
Ca1 S2 2.816774 1_555
Ca1 S4 3.054717 1_555
Ca1 S1 3.054717 1_445
Ca1 S5 3.054718 1_444
Ca1 S7 3.054722 1_554
S0 Tb2 2.770138 1_565
S0 Tb3 2.799803 1_455
S0 Tb0 3.012408 1_556
S0 Tb1 3.016456 1_555
S1 Tb0 2.770138 1_555
S1 Tb3 2.799803 1_555
S1 Tb2 3.012408 1_564
S1 Tb1 3.016456 1_554
S2 Tb3 2.770136 1_445
S2 Tb0 2.799797 1_545
S2 Tb1 3.012414 1_555
S2 Tb2 3.016453 1_555
S3 Tb1 2.770138 1_555
S3 Tb2 2.799803 1_565
S3 Tb3 3.012408 1_555
S3 Tb0 3.016456 1_555
S4 Tb3 2.770138 1_555
S4 Tb2 2.799803 1_554
S4 Tb1 3.012408 1_555
S4 Tb0 3.016456 1_555
S5 Tb2 2.770136 1_555
S5 Tb1 2.799797 1_555
S5 Tb0 3.012414 1_656
S5 Tb3 3.016453 1_556
S6 Tb0 2.770134 1_655
S6 Tb1 2.799799 1_655
S6 Tb2 3.012413 1_554
S6 Tb3 3.016460 1_555
S7 Tb1 2.770134 1_555
S7 Tb0 2.799799 1_556
S7 Tb3 3.012413 1_445
S7 Tb2 3.016460 1_555
