# generated using pymatgen
data_LuInGaNi3
_symmetry_space_group_name_H-M   'P 1'
_cell_length_a   4.88298600
_cell_length_b   4.88298629
_cell_length_c   4.88298653
_cell_angle_alpha   62.69966207
_cell_angle_beta   62.69965742
_cell_angle_gamma   62.69965474
_symmetry_Int_Tables_number   1
_chemical_formula_structural   LuInGaNi3
_chemical_formula_sum   'Lu1 In1 Ga1 Ni3'
_cell_volume   87.27239422
_cell_formula_units_Z   1
loop_
 _symmetry_equiv_pos_site_id
 _symmetry_equiv_pos_as_xyz
  1  'x, y, z'
loop_
 _atom_site_type_symbol
 _atom_site_label
 _atom_site_symmetry_multiplicity
 _atom_site_fract_x
 _atom_site_fract_y
 _atom_site_fract_z
 _atom_site_occupancy
  Lu  Lu0  1  0.25077750  0.25077750  0.25077750  1
  In  In0  1  0.99870584  0.99870584  0.99870584  1
  Ga  Ga0  1  0.62349922  0.62349922  0.62349922  1
  Ni  Ni0  1  0.62741442  0.62741442  0.12218860  1
  Ni  Ni1  1  0.62741442  0.12218860  0.62741442  1
  Ni  Ni2  1  0.12218860  0.62741442  0.62741442  1
loop_
_geom_bond_atom_site_label_1
_geom_bond_atom_site_label_2
_geom_bond_distance
_geom_bond_site_symmetry_2
Lu0 Ni0 2.853595 1_555
Lu0 Ni2 2.853595 1_555
Lu0 Ni1 2.853595 1_555
Lu0 Ni0 2.932669 1_455
Lu0 Ni0 2.932669 1_545
Lu0 Ni1 2.932669 1_455
Lu0 Ni1 2.932669 1_554
Lu0 Ni2 2.932669 1_545
Lu0 Ni2 2.932669 1_554
In0 Ni0 2.819081 1_556
In0 Ni2 2.819081 1_655
In0 Ni1 2.819081 1_565
In0 Ni0 2.943621 1_656
In0 Ni0 2.943621 1_566
In0 Ni1 2.943621 1_665
In0 Ni1 2.943621 1_566
In0 Ni2 2.943621 1_665
In0 Ni2 2.943621 1_656
In0 Lu0 2.952000 1_666
In0 Lu0 3.083942 1_566
In0 Lu0 3.083943 1_656
In0 Lu0 3.083943 1_665
Ga0 Ni2 2.430512 1_555
Ga0 Ni1 2.430512 1_555
Ga0 Ni0 2.430512 1_555
Ga0 Ni2 2.452785 1_655
Ga0 Ni1 2.452785 1_565
Ga0 Ni0 2.452785 1_556
Ga0 Lu0 2.969484 1_655
Ga0 Lu0 2.969484 1_565
Ga0 Lu0 2.969484 1_556
Ga0 In0 2.974143 1_455
Ga0 In0 2.974144 1_545
Ga0 In0 2.974144 1_554
Ni0 Ni2 2.513881 1_654
Ni0 Ni1 2.513881 1_564
Ni0 Ni2 2.566984 1_555
Ni0 Ni1 2.566984 1_555
Ni1 Ni2 2.513880 1_645
Ni1 Ni2 2.566984 1_555
