# generated using pymatgen
data_Ca4CdSi6Ni
_symmetry_space_group_name_H-M   'P 1'
_cell_length_a   8.31544654
_cell_length_b   8.15681029
_cell_length_c   5.98550372
_cell_angle_alpha   70.11453763
_cell_angle_beta   67.28464528
_cell_angle_gamma   42.60082043
_symmetry_Int_Tables_number   1
_chemical_formula_structural   Ca4CdSi6Ni
_chemical_formula_sum   'Ca4 Cd1 Si6 Ni1'
_cell_volume   252.47052713
_cell_formula_units_Z   1
loop_
 _symmetry_equiv_pos_site_id
 _symmetry_equiv_pos_as_xyz
  1  'x, y, z'
loop_
 _atom_site_type_symbol
 _atom_site_label
 _atom_site_symmetry_multiplicity
 _atom_site_fract_x
 _atom_site_fract_y
 _atom_site_fract_z
 _atom_site_occupancy
  Ca  Ca0  1  0.74489164  0.74489164  0.75510836  1
  Ca  Ca1  1  0.75656964  0.25320883  0.74679117  1
  Ca  Ca2  1  0.24489164  0.24489164  0.25510836  1
  Ca  Ca3  1  0.25320883  0.75656964  0.24343036  1
  Cd  Cd0  1  0.33442622  0.33442622  0.66557378  1
  Si  Si0  1  0.82438104  0.34912699  0.17561896  1
  Si  Si1  1  0.68634357  0.15675896  0.31365643  1
  Si  Si2  1  0.15675896  0.68634357  0.84324104  1
  Si  Si3  1  0.34912699  0.82438104  0.65087301  1
  Si  Si4  1  0.15747888  0.15747888  0.84252112  1
  Si  Si5  1  0.82558199  0.82558199  0.17441801  1
  Ni  Ni0  1  0.66634059  0.66634059  0.33365941  1
loop_
_geom_bond_atom_site_label_1
_geom_bond_atom_site_label_2
_geom_bond_distance
_geom_bond_site_symmetry_2
Ca0 Si3 3.131978 1_555
Ca0 Si0 3.131978 1_556
Ca0 Ni0 3.191992 1_555
Ca0 Ni0 3.191992 1_556
Ca0 Si5 3.202631 1_556
Ca0 Si5 3.202632 1_555
Ca0 Si4 3.237673 1_565
Ca0 Si4 3.237673 1_655
Ca0 Cd0 3.249232 1_655
Ca0 Cd0 3.249232 1_565
Ca0 Si2 3.324464 1_655
Ca0 Si1 3.324465 1_565
Ca1 Si4 3.064386 1_655
Ca1 Si2 3.130884 1_645
Ca1 Si1 3.130885 1_556
Ca1 Si3 3.155789 1_555
Ca1 Si0 3.155790 1_555
Ca1 Ni0 3.174181 1_555
Ca1 Si3 3.263696 1_645
Ca1 Si0 3.263696 1_556
Ca1 Cd0 3.266920 1_555
Ca1 Si2 3.303668 1_555
Ca1 Si1 3.303668 1_555
Ca1 Si5 3.340864 1_546
Ca2 Si0 3.131978 1_455
Ca2 Si3 3.131978 1_545
Ca2 Ni0 3.191992 1_455
Ca2 Ni0 3.191992 1_545
Ca2 Si5 3.202631 1_545
Ca2 Si5 3.202631 1_455
Ca2 Si4 3.237673 1_554
Ca2 Si4 3.237674 1_555
Ca2 Cd0 3.249232 1_555
Ca2 Cd0 3.249232 1_554
Ca2 Si1 3.324464 1_555
Ca2 Si2 3.324464 1_554
Ca3 Si4 3.064386 1_564
Ca3 Si1 3.130884 1_465
Ca3 Si2 3.130884 1_554
Ca3 Si0 3.155789 1_555
Ca3 Si3 3.155790 1_555
Ca3 Ni0 3.174181 1_555
Ca3 Si0 3.263696 1_465
Ca3 Si3 3.263696 1_554
Ca3 Cd0 3.266921 1_555
Ca3 Si1 3.303668 1_555
Ca3 Si2 3.303668 1_555
Ca3 Si5 3.340863 1_455
Cd0 Si2 2.484636 1_555
Cd0 Si1 2.484636 1_555
Cd0 Si4 2.500585 1_555
Si0 Si1 2.345088 1_555
Si0 Si4 2.360445 1_654
Si1 Si5 2.348235 1_545
Si2 Si3 2.345088 1_555
Si2 Si5 2.348236 1_456
Si3 Si4 2.360445 1_565
Ni0 Si0 2.239603 1_555
Ni0 Si3 2.239603 1_555
Ni0 Si5 2.250369 1_555
