# generated using pymatgen
data_Cs2LiCrBr6
_symmetry_space_group_name_H-M   'P 1'
_cell_length_a   7.58058018
_cell_length_b   7.58058044
_cell_length_c   6.41467370
_cell_angle_alpha   90.00000000
_cell_angle_beta   90.00000000
_cell_angle_gamma   119.99999887
_symmetry_Int_Tables_number   1
_chemical_formula_structural   Cs2LiCrBr6
_chemical_formula_sum   'Cs2 Li1 Cr1 Br6'
_cell_volume   319.23471456
_cell_formula_units_Z   1
loop_
 _symmetry_equiv_pos_site_id
 _symmetry_equiv_pos_as_xyz
  1  'x, y, z'
loop_
 _atom_site_type_symbol
 _atom_site_label
 _atom_site_symmetry_multiplicity
 _atom_site_fract_x
 _atom_site_fract_y
 _atom_site_fract_z
 _atom_site_occupancy
  Cs  Cs0  1  0.66666700  0.33333300  0.25505608  1
  Cs  Cs1  1  0.33333300  0.66666700  0.77014509  1
  Li  Li0  1  0.00000000  0.00000000  0.51115548  1
  Cr  Cr0  1  0.00000000  0.00000000  0.01157620  1
  Br  Br0  1  0.68680231  0.84340016  0.24195204  1
  Br  Br1  1  0.84327578  0.15672422  0.78200534  1
  Br  Br2  1  0.15659984  0.84340016  0.24195204  1
  Br  Br3  1  0.31344744  0.15672422  0.78200534  1
  Br  Br4  1  0.84327578  0.68655256  0.78200534  1
  Br  Br5  1  0.15659984  0.31319769  0.24195204  1
loop_
_geom_bond_atom_site_label_1
_geom_bond_atom_site_label_2
_geom_bond_distance
_geom_bond_site_symmetry_2
Br0 Cr0 2.532102 1_665
Br0 Li0 2.685090 1_665
Br0 Cs0 3.793522 1_555
Br0 Cs0 3.793530 1_565
Br0 Cs1 3.813716 1_554
Br0 Cs1 4.106654 1_555
Br1 Cr0 2.530431 1_656
Br1 Li0 2.693152 1_655
Br1 Cs1 3.793301 1_545
Br1 Cs1 3.793301 1_655
Br1 Cs0 3.819047 1_556
Br1 Cs0 4.099138 1_555
Br2 Cr0 2.532113 1_565
Br2 Li0 2.685100 1_565
Br2 Cs0 3.793526 1_565
Br2 Cs0 3.793526 1_455
Br2 Cs1 3.813704 1_554
Br2 Cs1 4.106643 1_555
Br3 Cr0 2.530425 1_556
Br3 Li0 2.693147 1_555
Br3 Cs1 3.793301 1_545
Br3 Cs1 3.793301 1_555
Br3 Cs0 3.819055 1_556
Br3 Cs0 4.099146 1_555
Br4 Cr0 2.530425 1_666
Br4 Li0 2.693147 1_665
Br4 Cs1 3.793301 1_555
Br4 Cs1 3.793301 1_655
Br4 Cs0 3.819055 1_556
Br4 Cs0 4.099146 1_555
Br5 Cr0 2.532102 1_555
Br5 Li0 2.685090 1_555
Br5 Cs0 3.793522 1_555
Br5 Cs0 3.793530 1_455
Br5 Cs1 3.813716 1_554
Br5 Cs1 4.106654 1_555
