# generated using pymatgen
data_Cs4NaFeSe4
_symmetry_space_group_name_H-M   'P 1'
_cell_length_a   8.84865425
_cell_length_b   8.84865429
_cell_length_c   8.84865436
_cell_angle_alpha   133.26191135
_cell_angle_beta   129.70807584
_cell_angle_gamma   71.08223480
_symmetry_Int_Tables_number   1
_chemical_formula_structural   Cs4NaFeSe4
_chemical_formula_sum   'Cs4 Na1 Fe1 Se4'
_cell_volume   380.08251659
_cell_formula_units_Z   1
loop_
 _symmetry_equiv_pos_site_id
 _symmetry_equiv_pos_as_xyz
  1  'x, y, z'
loop_
 _atom_site_type_symbol
 _atom_site_label
 _atom_site_symmetry_multiplicity
 _atom_site_fract_x
 _atom_site_fract_y
 _atom_site_fract_z
 _atom_site_occupancy
  Cs  Cs0  1  0.51831501  0.86669476  0.67999455  1
  Cs  Cs1  1  0.48168499  0.16167854  0.34837974  1
  Cs  Cs2  1  0.81329880  0.63330524  0.15162026  1
  Cs  Cs3  1  0.18670120  0.33832146  0.82000545  1
  Na  Na0  1  0.00000000  0.25000000  0.25000000  1
  Fe  Fe0  1  0.00000000  0.75000000  0.75000000  1
  Se  Se0  1  0.08297488  0.85987461  0.13807898  1
  Se  Se1  1  0.72179563  0.44489590  0.36192102  1
  Se  Se2  1  0.91702512  0.05510410  0.77689973  1
  Se  Se3  1  0.27820537  0.64012539  0.72310027  1
loop_
_geom_bond_atom_site_label_1
_geom_bond_atom_site_label_2
_geom_bond_distance
_geom_bond_site_symmetry_2
Cs0 Se1 3.579520 1_555
Cs0 Se3 3.677581 1_555
Cs0 Se2 3.735078 1_565
Cs0 Se0 3.740114 1_555
Cs0 Se1 3.950227 1_566
Cs0 Se0 3.957316 1_656
Cs1 Se3 3.579517 1_544
Cs1 Se1 3.677596 1_555
Cs1 Se0 3.735072 1_545
Cs1 Se2 3.740109 1_555
Cs1 Se3 3.950223 1_555
Cs1 Se2 3.957319 1_454
Cs2 Se2 3.579516 1_565
Cs2 Se0 3.677596 1_655
Cs2 Se1 3.735072 1_555
Cs2 Se3 3.740103 1_554
Cs2 Se2 3.950229 1_554
Cs2 Se3 3.957320 1_655
Cs3 Se0 3.579517 1_556
Cs3 Se2 3.677603 1_455
Cs3 Se3 3.735070 1_555
Cs3 Se1 3.740111 1_556
Cs3 Se0 3.950224 1_545
Cs3 Se1 3.957314 1_455
Na0 Se1 2.834849 1_455
Na0 Se0 2.834849 1_545
Na0 Se2 2.834849 1_454
Na0 Se3 2.834852 1_555
Fe0 Se2 2.437545 1_465
Fe0 Se0 2.437545 1_556
Fe0 Se1 2.437545 1_455
Fe0 Se3 2.437553 1_555
