# generated using pymatgen
data_Nb3Al2IrC
_symmetry_space_group_name_H-M   'P 1'
_cell_length_a   8.32639271
_cell_length_b   8.32639306
_cell_length_c   8.32639401
_cell_angle_alpha   60.00000406
_cell_angle_beta   60.00000267
_cell_angle_gamma   60.00000090
_symmetry_Int_Tables_number   1
_chemical_formula_structural   Nb3Al2IrC
_chemical_formula_sum   'Nb12 Al8 Ir4 C4'
_cell_volume   408.18381872
_cell_formula_units_Z   4
loop_
 _symmetry_equiv_pos_site_id
 _symmetry_equiv_pos_as_xyz
  1  'x, y, z'
loop_
 _atom_site_type_symbol
 _atom_site_label
 _atom_site_symmetry_multiplicity
 _atom_site_fract_x
 _atom_site_fract_y
 _atom_site_fract_z
 _atom_site_occupancy
  Nb  Nb0  1  0.68752542  0.31247458  0.68752542  1
  Nb  Nb1  1  0.93752542  0.56247458  0.56247458  1
  Nb  Nb2  1  0.56247458  0.93752542  0.93752542  1
  Nb  Nb3  1  0.93752542  0.56247458  0.93752542  1
  Nb  Nb4  1  0.56247458  0.56247458  0.93752542  1
  Nb  Nb5  1  0.93752542  0.93752542  0.56247458  1
  Nb  Nb6  1  0.68752542  0.68752542  0.31247458  1
  Nb  Nb7  1  0.31247458  0.68752542  0.68752542  1
  Nb  Nb8  1  0.68752542  0.31247458  0.31247458  1
  Nb  Nb9  1  0.31247458  0.31247458  0.68752542  1
  Nb  Nb10  1  0.56247458  0.93752542  0.56247458  1
  Nb  Nb11  1  0.31247458  0.68752542  0.31247458  1
  Al  Al0  1  0.33288896  0.33288896  0.33288896  1
  Al  Al1  1  0.24866587  0.91711104  0.91711104  1
  Al  Al2  1  0.91711104  0.24866587  0.91711104  1
  Al  Al3  1  0.91711104  0.91711104  0.24866587  1
  Al  Al4  1  0.33288896  0.00133413  0.33288896  1
  Al  Al5  1  0.33288896  0.33288896  0.00133413  1
  Al  Al6  1  0.00133413  0.33288896  0.33288896  1
  Al  Al7  1  0.91711104  0.91711104  0.91711104  1
  Ir  Ir0  1  0.12500000  0.12500000  0.12500000  1
  Ir  Ir1  1  0.62500000  0.12500000  0.12500000  1
  Ir  Ir2  1  0.12500000  0.62500000  0.12500000  1
  Ir  Ir3  1  0.12500000  0.12500000  0.62500000  1
  C  C0  1  0.62500000  0.62500000  0.62500000  1
  C  C1  1  0.12500000  0.62500000  0.62500000  1
  C  C2  1  0.62500000  0.12500000  0.62500000  1
  C  C3  1  0.62500000  0.62500000  0.12500000  1
loop_
_geom_bond_atom_site_label_1
_geom_bond_atom_site_label_2
_geom_bond_distance
_geom_bond_site_symmetry_2
Al0 Ir1 2.546420 1_555
Al0 Ir2 2.546420 1_555
Al0 Ir3 2.546420 1_555
Al1 Ir2 2.546416 1_556
Al1 Ir3 2.546416 1_565
Al1 Ir0 2.546422 1_566
Al2 Ir1 2.546416 1_556
Al2 Ir3 2.546416 1_655
Al2 Ir0 2.546422 1_656
Al3 Ir1 2.546416 1_565
Al3 Ir2 2.546416 1_655
Al3 Ir0 2.546422 1_665
Al4 Ir1 2.546416 1_555
Al4 Ir3 2.546416 1_555
Al4 Ir0 2.546422 1_555
Al5 Ir1 2.546416 1_555
Al5 Ir2 2.546416 1_555
Al5 Ir0 2.546422 1_555
Al6 Ir2 2.546416 1_555
Al6 Ir3 2.546416 1_555
Al6 Ir0 2.546422 1_555
Al7 Ir1 2.546420 1_566
Al7 Ir2 2.546420 1_656
Al7 Ir3 2.546420 1_665
Ir0 Nb2 3.034207 1_544
Ir0 Nb8 3.034207 1_455
Ir0 Nb3 3.034207 1_454
Ir0 Nb11 3.034207 1_545
Ir0 Nb5 3.034208 1_445
Ir0 Nb9 3.034208 1_554
Ir1 Nb8 3.034207 1_555
Ir1 Nb2 3.034207 1_544
Ir1 Nb4 3.034207 1_554
Ir1 Nb6 3.034207 1_545
Ir1 Nb10 3.034208 1_545
Ir1 Nb0 3.034208 1_554
Ir2 Nb4 3.034207 1_554
Ir2 Nb6 3.034207 1_455
Ir2 Nb11 3.034207 1_555
Ir2 Nb3 3.034207 1_454
Ir2 Nb1 3.034208 1_455
Ir2 Nb7 3.034208 1_554
Ir3 Nb10 3.034207 1_545
Ir3 Nb0 3.034207 1_455
Ir3 Nb9 3.034207 1_555
Ir3 Nb5 3.034207 1_445
Ir3 Nb1 3.034207 1_455
Ir3 Nb7 3.034207 1_545
C0 Nb1 2.207968 1_555
C0 Nb7 2.207968 1_555
C0 Nb10 2.207968 1_555
C0 Nb0 2.207968 1_555
C0 Nb4 2.207969 1_555
C0 Nb6 2.207969 1_555
C1 Nb7 2.207968 1_555
C1 Nb1 2.207968 1_455
C1 Nb5 2.207968 1_455
C1 Nb9 2.207968 1_555
C1 Nb3 2.207968 1_455
C1 Nb11 2.207968 1_555
C2 Nb5 2.207968 1_545
C2 Nb9 2.207968 1_555
C2 Nb0 2.207968 1_555
C2 Nb10 2.207968 1_545
C2 Nb2 2.207969 1_545
C2 Nb8 2.207969 1_555
C3 Nb3 2.207968 1_554
C3 Nb11 2.207968 1_555
C3 Nb6 2.207968 1_555
C3 Nb4 2.207968 1_554
C3 Nb2 2.207968 1_554
C3 Nb8 2.207968 1_555
