# generated using pymatgen
data_Y4TcOsRu6
_symmetry_space_group_name_H-M   'P 1'
_cell_length_a   5.15067259
_cell_length_b   5.34788702
_cell_length_c   8.98864826
_cell_angle_alpha   90.00000000
_cell_angle_beta   90.00000000
_cell_angle_gamma   120.12723620
_symmetry_Int_Tables_number   1
_chemical_formula_structural   Y4TcOsRu6
_chemical_formula_sum   'Y4 Tc1 Os1 Ru6'
_cell_volume   214.14746650
_cell_formula_units_Z   1
loop_
 _symmetry_equiv_pos_site_id
 _symmetry_equiv_pos_as_xyz
  1  'x, y, z'
loop_
 _atom_site_type_symbol
 _atom_site_label
 _atom_site_symmetry_multiplicity
 _atom_site_fract_x
 _atom_site_fract_y
 _atom_site_fract_z
 _atom_site_occupancy
  Y  Y0  1  0.32731589  0.66771379  0.43232250  1
  Y  Y1  1  0.65532725  0.32841721  0.56524725  1
  Y  Y2  1  0.65532725  0.32841721  0.93475275  1
  Y  Y3  1  0.32731589  0.66771379  0.06767750  1
  Tc  Tc0  1  0.68489733  0.84242720  0.75000000  1
  Os  Os0  1  0.84145860  0.15962849  0.25000000  1
  Ru  Ru0  1  0.97542585  0.99517754  0.49998567  1
  Ru  Ru1  1  0.97542585  0.99517754  0.00001433  1
  Ru  Ru2  1  0.83429235  0.66085618  0.25000000  1
  Ru  Ru3  1  0.36199744  0.17882060  0.25000000  1
  Ru  Ru4  1  0.18343282  0.82664320  0.75000000  1
  Ru  Ru5  1  0.17778449  0.34900724  0.75000000  1
loop_
_geom_bond_atom_site_label_1
_geom_bond_atom_site_label_2
_geom_bond_distance
_geom_bond_site_symmetry_2
Y0 Y1 3.224186 1_455
Y0 Y1 3.263706 1_555
Y0 Y3 3.277666 1_555
Y0 Y1 3.282394 1_565
Y2 Y3 3.224186 1_656
Y2 Y3 3.263706 1_556
Y2 Y3 3.282394 1_546
Tc0 Y2 3.149133 1_555
Tc0 Y1 3.149133 1_555
Tc0 Y2 3.151717 1_565
Tc0 Y1 3.151717 1_565
Tc0 Y3 3.269790 1_556
Tc0 Y0 3.269790 1_555
Os0 Ru3 2.522626 1_555
Os0 Ru0 2.628294 1_545
Os0 Ru1 2.628294 1_545
Os0 Ru3 2.631107 1_655
Os0 Ru2 2.649044 1_545
Os0 Ru2 2.699224 1_555
Os0 Y0 3.083092 1_655
Os0 Y3 3.083092 1_655
Os0 Y0 3.102560 1_545
Os0 Y3 3.102560 1_545
Os0 Y1 3.260701 1_555
Os0 Y2 3.260701 1_554
Ru0 Tc0 2.594183 1_555
Ru0 Ru2 2.733045 1_555
Ru0 Ru5 2.781621 1_665
Ru0 Ru4 2.824864 1_655
Ru0 Ru3 2.831112 1_665
Ru0 Y0 2.951589 1_555
Ru0 Y1 3.031157 1_565
Ru0 Y1 3.085261 1_665
Ru0 Y1 3.142530 1_555
Ru0 Y0 3.147708 1_655
Ru0 Y0 3.169694 1_665
Ru1 Tc0 2.594183 1_554
Ru1 Ru2 2.733045 1_555
Ru1 Ru5 2.781621 1_664
Ru1 Ru4 2.824864 1_654
Ru1 Ru3 2.831112 1_665
Ru1 Y3 2.951589 1_555
Ru1 Y2 3.031157 1_564
Ru1 Y2 3.085261 1_664
Ru1 Y2 3.142530 1_554
Ru1 Y3 3.147708 1_655
Ru1 Y3 3.169694 1_665
Ru2 Ru3 2.503600 1_555
Ru2 Ru3 2.739117 1_665
Ru2 Y0 3.007025 1_655
Ru2 Y3 3.007025 1_655
Ru2 Y0 3.098706 1_555
Ru2 Y3 3.098706 1_555
Ru2 Y1 3.224110 1_555
Ru2 Y2 3.224110 1_554
Ru3 Y0 3.114273 1_545
Ru3 Y3 3.114273 1_545
Ru3 Y1 3.120719 1_555
Ru3 Y2 3.120719 1_554
Ru3 Y0 3.165813 1_555
Ru3 Y3 3.165813 1_555
Ru4 Ru5 2.539866 1_555
Ru4 Tc0 2.541561 1_555
Ru4 Tc0 2.611182 1_455
Ru4 Ru5 2.808259 1_565
Ru4 Y2 3.052702 1_565
Ru4 Y1 3.052702 1_565
Ru4 Y2 3.159220 1_455
Ru4 Y1 3.159220 1_455
Ru4 Y3 3.171395 1_556
Ru4 Y0 3.171395 1_555
Ru5 Tc0 2.620415 1_555
Ru5 Tc0 2.623030 1_445
Ru5 Y2 3.015264 1_555
Ru5 Y1 3.015264 1_555
Ru5 Y2 3.116735 1_455
Ru5 Y1 3.116735 1_455
Ru5 Y3 3.214695 1_556
Ru5 Y0 3.214695 1_555
