# generated using pymatgen
data_Y6AlCoPd
_symmetry_space_group_name_H-M   'P 1'
_cell_length_a   8.42839878
_cell_length_b   8.42838859
_cell_length_c   8.42839726
_cell_angle_alpha   111.52314493
_cell_angle_beta   109.60682460
_cell_angle_gamma   107.31110518
_symmetry_Int_Tables_number   1
_chemical_formula_structural   Y6AlCoPd
_chemical_formula_sum   'Y12 Al2 Co2 Pd2'
_cell_volume   460.28300858
_cell_formula_units_Z   2
loop_
 _symmetry_equiv_pos_site_id
 _symmetry_equiv_pos_as_xyz
  1  'x, y, z'
loop_
 _atom_site_type_symbol
 _atom_site_label
 _atom_site_symmetry_multiplicity
 _atom_site_fract_x
 _atom_site_fract_y
 _atom_site_fract_z
 _atom_site_occupancy
  Y  Y0  1  0.05096700  0.74454130  0.30642670  1
  Y  Y1  1  0.94903300  0.25545870  0.69357330  1
  Y  Y2  1  0.56188540  0.25545870  0.30642570  1
  Y  Y3  1  0.43811460  0.74454130  0.69357430  1
  Y  Y4  1  0.68530691  0.87670203  0.19139511  1
  Y  Y5  1  0.31469509  0.50608920  0.19139511  1
  Y  Y6  1  0.31469309  0.12329797  0.80860489  1
  Y  Y7  1  0.68530491  0.49391080  0.80860489  1
  Y  Y8  1  0.17853107  0.21570501  0.39423608  1
  Y  Y9  1  0.82146893  0.21570501  0.03717393  1
  Y  Y10  1  0.17853107  0.78429499  0.96282607  1
  Y  Y11  1  0.82146893  0.78429499  0.60576392  1
  Al  Al0  1  0.00000000  0.50000000  0.50000000  1
  Al  Al1  1  0.50000000  0.00000000  0.50000000  1
  Co  Co0  1  0.89042977  0.89042977  0.00000000  1
  Co  Co1  1  0.10957023  0.10957023  1.00000000  1
  Pd  Pd0  1  0.65783196  0.50000000  0.15783196  1
  Pd  Pd1  1  0.34216804  0.50000000  0.84216804  1
loop_
_geom_bond_atom_site_label_1
_geom_bond_atom_site_label_2
_geom_bond_distance
_geom_bond_site_symmetry_2
Y0 Y8 3.498894 1_565
Y0 Y10 3.498905 1_554
Y0 Y4 3.536829 1_455
Y0 Y7 3.536837 1_454
Y0 Y6 3.548952 1_565
Y0 Y5 3.548972 1_555
Y0 Y11 3.641372 1_455
Y0 Y9 3.641373 1_455
Y0 Y3 3.761519 1_555
Y1 Y11 3.498894 1_545
Y1 Y9 3.498905 1_556
Y1 Y6 3.536829 1_655
Y1 Y5 3.536837 1_656
Y1 Y4 3.548952 1_545
Y1 Y7 3.548972 1_555
Y1 Y8 3.641372 1_655
Y1 Y10 3.641373 1_655
Y1 Y2 3.761519 1_555
Y2 Y8 3.498905 1_555
Y2 Y6 3.536829 1_554
Y2 Y5 3.536829 1_555
Y2 Y4 3.548952 1_545
Y2 Y7 3.548966 1_555
Y2 Y9 3.641372 1_555
Y3 Y9 3.498894 1_566
Y3 Y4 3.536829 1_556
Y3 Y7 3.536829 1_555
Y3 Y6 3.548952 1_565
Y3 Y5 3.548966 1_555
Y3 Y8 3.641373 1_555
Y4 Y9 3.597963 1_565
Y4 Y8 3.597963 1_665
Y5 Y8 3.597975 1_555
Y5 Y9 3.597980 1_455
Y6 Y8 3.736154 1_555
Y6 Y9 3.736154 1_556
Y7 Y8 3.736142 1_555
Y7 Y9 3.736150 1_556
Y8 Y9 3.469209 1_455
Y10 Y11 3.469209 1_455
Y10 Y2 3.498894 1_566
Y10 Y6 3.597963 1_565
Y10 Y7 3.597980 1_455
Y10 Y3 3.641372 1_555
Y10 Y5 3.736150 1_556
Y10 Y4 3.736154 1_556
Y11 Y3 3.498905 1_555
Y11 Y6 3.597963 1_665
Y11 Y7 3.597975 1_555
Y11 Y2 3.641373 1_555
Y11 Y5 3.736142 1_555
Y11 Y4 3.736154 1_555
Al0 Y0 3.083065 1_555
Al0 Y1 3.083065 1_455
Al0 Y3 3.083066 1_555
Al0 Y2 3.083066 1_455
Al0 Y10 3.206095 1_555
Al0 Y9 3.206095 1_455
Al0 Y11 3.206096 1_455
Al0 Y8 3.206096 1_555
Al1 Y3 3.170192 1_545
Al1 Y2 3.170192 1_555
Al1 Y1 3.170193 1_555
Al1 Y0 3.170193 1_545
Al1 Y7 3.463182 1_555
Al1 Y5 3.463182 1_545
Al1 Y4 3.463192 1_545
Al1 Y6 3.463192 1_555
Al1 Y9 3.733745 1_556
Al1 Y10 3.733745 1_544
Al1 Y11 3.733746 1_545
Al1 Y8 3.733746 1_555
Co0 Co1 2.189208 1_664
Co0 Y4 2.737558 1_555
Co0 Y7 2.737562 1_554
Co0 Y8 2.896950 1_665
Co0 Y9 2.896950 1_565
Co0 Y11 2.896952 1_554
Co0 Y10 2.896953 1_654
Co0 Y0 3.314815 1_655
Co0 Y3 3.314816 1_554
Co1 Y6 2.737558 1_555
Co1 Y5 2.737562 1_556
Co1 Y11 2.896950 1_445
Co1 Y10 2.896950 1_545
Co1 Y8 2.896952 1_556
Co1 Y9 2.896953 1_456
Co1 Y1 3.314815 1_455
Co1 Y2 3.314816 1_556
Pd0 Y2 2.837678 1_555
Pd0 Y0 2.837679 1_655
Pd0 Y5 3.012244 1_555
Pd0 Y7 3.012248 1_554
Pd0 Y4 3.012255 1_555
Pd0 Y6 3.012255 1_554
Pd0 Pd1 3.066985 1_554
Pd0 Y11 3.130169 1_555
Pd0 Y9 3.130169 1_555
Pd1 Y3 2.837678 1_555
Pd1 Y1 2.837679 1_455
Pd1 Y7 3.012244 1_555
Pd1 Y5 3.012248 1_556
Pd1 Y6 3.012255 1_555
Pd1 Y4 3.012255 1_556
Pd1 Y8 3.130169 1_555
Pd1 Y10 3.130169 1_555
