# generated using pymatgen
data_SrIr4Pb3O13
_symmetry_space_group_name_H-M   'P 1'
_cell_length_a   7.27537172
_cell_length_b   7.27537193
_cell_length_c   7.29811833
_cell_angle_alpha   119.89695001
_cell_angle_beta   90.00000000
_cell_angle_gamma   119.99999904
_symmetry_Int_Tables_number   1
_chemical_formula_structural   SrIr4Pb3O13
_chemical_formula_sum   'Sr1 Ir4 Pb3 O13'
_cell_volume   273.57789313
_cell_formula_units_Z   1
loop_
 _symmetry_equiv_pos_site_id
 _symmetry_equiv_pos_as_xyz
  1  'x, y, z'
loop_
 _atom_site_type_symbol
 _atom_site_label
 _atom_site_symmetry_multiplicity
 _atom_site_fract_x
 _atom_site_fract_y
 _atom_site_fract_z
 _atom_site_occupancy
  Sr  Sr0  1  0.12316981  0.24633963  0.36950944  1
  Ir  Ir0  1  0.62479677  0.24959454  0.37382213  1
  Ir  Ir1  1  0.12422759  0.74902436  0.37382213  1
  Ir  Ir2  1  0.62479677  0.74902436  0.37382213  1
  Ir  Ir3  1  0.62399919  0.24799637  0.87199556  1
  Pb  Pb0  1  0.12292875  0.24585550  0.87603971  1
  Pb  Pb1  1  0.12292875  0.75311096  0.87603971  1
  Pb  Pb2  1  0.63018421  0.75311096  0.87603971  1
  O  O0  1  0.54661100  0.09322100  0.04507024  1
  O  O1  1  0.54661100  0.49846024  0.04507024  1
  O  O2  1  0.95184824  0.49846024  0.04507124  1
  O  O3  1  0.29769868  0.99635090  0.29405058  1
  O  O4  1  0.69865222  0.99635090  0.29405058  1
  O  O5  1  0.29769868  0.59539736  0.29405058  1
  O  O6  1  0.95302886  0.50501444  0.45804031  1
  O  O7  1  0.95302886  0.90605472  0.45804031  1
  O  O8  1  0.55198558  0.50501444  0.45804131  1
  O  O9  1  0.29894686  0.99892063  0.69889440  1
  O  O10  1  0.69997377  0.99892063  0.69889440  1
  O  O11  1  0.69997377  0.39994753  0.69889440  1
  O  O12  1  0.25691464  0.51383127  0.77074591  1
loop_
_geom_bond_atom_site_label_1
_geom_bond_atom_site_label_2
_geom_bond_distance
_geom_bond_site_symmetry_2
Ir0 O11 1.984626 1_555
Ir0 O3 1.985680 1_545
Ir0 O4 1.985685 1_545
Ir0 O8 1.989309 1_555
Ir0 O6 1.989315 1_555
Ir0 O0 2.001535 1_555
Ir1 O9 1.984626 1_555
Ir1 O5 1.985678 1_555
Ir1 O3 1.985678 1_555
Ir1 O6 1.989290 1_455
Ir1 O7 1.989295 1_455
Ir1 O2 2.001531 1_455
Ir2 O10 1.984626 1_555
Ir2 O5 1.985678 1_555
Ir2 O4 1.985678 1_555
Ir2 O8 1.989296 1_555
Ir2 O7 1.989315 1_555
Ir2 O1 2.001535 1_555
Ir3 O10 1.976046 1_545
Ir3 O11 1.976057 1_555
Ir3 O9 1.976057 1_545
Ir3 O2 1.991066 1_556
Ir3 O0 1.991070 1_556
Ir3 O1 1.991081 1_556
O0 Pb1 2.544760 1_544
O0 Pb2 2.544765 1_544
O1 Pb2 2.544753 1_554
O1 Pb0 2.544758 1_554
O2 Pb1 2.544762 1_654
O2 Pb0 2.544778 1_654
O3 Pb1 2.534396 1_554
O3 Sr0 2.556243 1_565
O4 Pb2 2.534398 1_554
O4 Sr0 2.556243 1_665
O5 Pb0 2.534397 1_554
O5 Sr0 2.556237 1_555
O6 Pb1 2.524248 1_655
O6 Sr0 2.570770 1_655
O7 Pb0 2.524247 1_665
O7 Sr0 2.570770 1_665
O8 Pb2 2.524240 1_555
O8 Sr0 2.570769 1_555
O9 Pb0 2.554245 1_565
O9 Pb1 2.554255 1_555
O10 Pb2 2.554257 1_555
O10 Pb0 2.554257 1_665
O11 Pb2 2.554245 1_555
O11 Pb1 2.554255 1_655
O12 Pb1 2.221416 1_555
O12 Pb2 2.221440 1_555
O12 Pb0 2.221440 1_555
O12 Sr0 2.394641 1_555
