# generated using pymatgen
data_Ti2SiB2Ru4Rh
_symmetry_space_group_name_H-M   'P 1'
_cell_length_a   2.94444859
_cell_length_b   9.07801196
_cell_length_c   9.16142357
_cell_angle_alpha   89.78219239
_cell_angle_beta   90.00000000
_cell_angle_gamma   90.00000000
_symmetry_Int_Tables_number   1
_chemical_formula_structural   Ti2SiB2Ru4Rh
_chemical_formula_sum   'Ti4 Si2 B4 Ru8 Rh2'
_cell_volume   244.88069629
_cell_formula_units_Z   2
loop_
 _symmetry_equiv_pos_site_id
 _symmetry_equiv_pos_as_xyz
  1  'x, y, z'
loop_
 _atom_site_type_symbol
 _atom_site_label
 _atom_site_symmetry_multiplicity
 _atom_site_fract_x
 _atom_site_fract_y
 _atom_site_fract_z
 _atom_site_occupancy
  Ti  Ti0  1  0.00000000  0.82736568  0.68250253  1
  Ti  Ti1  1  0.00000000  0.17263432  0.31749747  1
  Ti  Ti2  1  0.00000000  0.67596335  0.16967288  1
  Ti  Ti3  1  0.00000000  0.32403665  0.83032712  1
  Si  Si0  1  0.00000000  0.50000000  0.50000000  1
  Si  Si1  1  0.00000000  0.00000000  0.00000000  1
  B  B0  1  0.00000000  0.37540781  0.12607639  1
  B  B1  1  0.00000000  0.62459219  0.87392361  1
  B  B2  1  0.00000000  0.11987129  0.62807075  1
  B  B3  1  0.00000000  0.88012871  0.37192925  1
  Ru  Ru0  1  0.50000000  0.20940981  0.07177449  1
  Ru  Ru1  1  0.50000000  0.79059019  0.92822551  1
  Ru  Ru2  1  0.50000000  0.42891904  0.29166164  1
  Ru  Ru3  1  0.50000000  0.57108096  0.70833836  1
  Ru  Ru4  1  0.50000000  0.92645256  0.20988660  1
  Ru  Ru5  1  0.50000000  0.07354744  0.79011340  1
  Ru  Ru6  1  0.50000000  0.00000000  0.50000000  1
  Ru  Ru7  1  0.50000000  0.50000000  0.00000000  1
  Rh  Rh0  1  0.50000000  0.28975288  0.57140700  1
  Rh  Rh1  1  0.50000000  0.71024712  0.42859300  1
loop_
_geom_bond_atom_site_label_1
_geom_bond_atom_site_label_2
_geom_bond_distance
_geom_bond_site_symmetry_2
B0 Ru0 2.165982 1_455
B0 Ru0 2.165982 1_555
B0 Ru2 2.170323 1_455
B0 Ru2 2.170323 1_555
B0 Ru7 2.184239 1_455
B0 Ru7 2.184239 1_555
B0 Ti1 2.537588 1_555
B0 Ti3 2.751071 1_554
B0 Ti2 2.759027 1_555
B1 Ru1 2.165982 1_455
B1 Ru1 2.165982 1_555
B1 Ru3 2.170323 1_455
B1 Ru3 2.170323 1_555
B1 Ru7 2.184239 1_556
B1 Ru7 2.184239 1_456
B1 Ti0 2.537588 1_555
B1 Ti2 2.751071 1_556
B1 Ti3 2.759027 1_555
B2 Ru5 2.131526 1_455
B2 Ru5 2.131526 1_555
B2 Ru6 2.176689 1_555
B2 Ru6 2.176689 1_455
B2 Rh0 2.192985 1_455
B2 Rh0 2.192985 1_555
B2 Ti3 2.625777 1_555
B2 Ti0 2.699925 1_545
B2 Ti1 2.883532 1_555
B3 Ru4 2.131526 1_555
B3 Ru4 2.131526 1_455
B3 Ru6 2.176689 1_565
B3 Ru6 2.176689 1_465
B3 Rh1 2.192985 1_455
B3 Rh1 2.192985 1_555
B3 Ti2 2.625777 1_555
B3 Ti1 2.699925 1_565
B3 Ti0 2.883532 1_555
Ru0 Si1 2.494639 1_655
Ru0 Si1 2.494639 1_555
Ru0 Ti1 2.709421 1_555
Ru0 Ti1 2.709421 1_655
Ru0 Ti3 2.850563 1_554
Ru0 Ti3 2.850563 1_654
Ru1 Si1 2.494639 1_566
Ru1 Si1 2.494639 1_666
Ru1 Ti0 2.709421 1_555
Ru1 Ti0 2.709421 1_655
Ru1 Ti2 2.850563 1_656
Ru1 Ti2 2.850563 1_556
Ru2 Si0 2.497245 1_555
Ru2 Si0 2.497245 1_655
Ru2 Ti1 2.762633 1_655
Ru2 Ti1 2.762633 1_555
Ru2 Ti2 2.902925 1_655
Ru2 Ti2 2.902925 1_555
Ru3 Si0 2.497245 1_655
Ru3 Si0 2.497245 1_555
Ru3 Ti0 2.762633 1_555
Ru3 Ti0 2.762633 1_655
Ru3 Ti3 2.902925 1_555
Ru3 Ti3 2.902925 1_655
Ru4 Si1 2.510149 1_565
Ru4 Si1 2.510149 1_665
Ru4 Ti2 2.735026 1_555
Ru4 Ti2 2.735026 1_655
Ru4 Ti1 2.854934 1_565
Ru4 Ti1 2.854934 1_665
Ru5 Si1 2.510149 1_656
Ru5 Si1 2.510149 1_556
Ru5 Ti3 2.735026 1_555
Ru5 Ti3 2.735026 1_655
Ru5 Ti0 2.854934 1_645
Ru5 Ti0 2.854934 1_545
Ru6 Ti0 2.720127 1_645
Ru6 Ti0 2.720127 1_545
Ru6 Ti1 2.720127 1_555
Ru6 Ti1 2.720127 1_655
Ru7 Ti2 2.674753 1_555
Ru7 Ti2 2.674753 1_655
Ru7 Ti3 2.674753 1_654
Ru7 Ti3 2.674753 1_554
Rh0 Si0 2.495750 1_555
Rh0 Si0 2.495750 1_655
Rh0 Ti3 2.810101 1_555
Rh0 Ti3 2.810101 1_655
Rh0 Ti1 2.954273 1_555
Rh0 Ti1 2.954273 1_655
Rh1 Si0 2.495750 1_555
Rh1 Si0 2.495750 1_655
Rh1 Ti2 2.810101 1_555
Rh1 Ti2 2.810101 1_655
Rh1 Ti0 2.954273 1_655
Rh1 Ti0 2.954273 1_555
