# generated using pymatgen
data_Hf6Ti16Ir3Os4
_symmetry_space_group_name_H-M   'P 1'
_cell_length_a   8.90630469
_cell_length_b   8.90815461
_cell_length_c   8.90714597
_cell_angle_alpha   59.99002028
_cell_angle_beta   60.00023025
_cell_angle_gamma   59.99938325
_symmetry_Int_Tables_number   1
_chemical_formula_structural   Hf6Ti16Ir3Os4
_chemical_formula_sum   'Hf6 Ti16 Ir3 Os4'
_cell_volume   499.66028571
_cell_formula_units_Z   1
loop_
 _symmetry_equiv_pos_site_id
 _symmetry_equiv_pos_as_xyz
  1  'x, y, z'
loop_
 _atom_site_type_symbol
 _atom_site_label
 _atom_site_symmetry_multiplicity
 _atom_site_fract_x
 _atom_site_fract_y
 _atom_site_fract_z
 _atom_site_occupancy
  Hf  Hf0  1  0.68418907  0.31560224  0.31581093  1
  Hf  Hf1  1  0.31581093  0.68439776  0.68418907  1
  Hf  Hf2  1  0.31677193  0.68322807  0.31677193  1
  Hf  Hf3  1  0.68322807  0.31677193  0.68322807  1
  Hf  Hf4  1  0.31779774  0.31769762  0.68220226  1
  Hf  Hf5  1  0.68220226  0.68230238  0.31779774  1
  Ti  Ti0  1  0.33166258  0.33092318  0.33264086  1
  Ti  Ti1  1  0.66833742  0.66907682  0.66735914  1
  Ti  Ti2  1  0.33215347  0.33024987  0.00638768  1
  Ti  Ti3  1  0.33264086  0.00477338  0.33166258  1
  Ti  Ti4  1  0.66784653  0.66975013  0.99361232  1
  Ti  Ti5  1  0.66735914  0.99522662  0.66833742  1
  Ti  Ti6  1  0.00638768  0.33120898  0.33215347  1
  Ti  Ti7  1  0.99361232  0.66879102  0.66784653  1
  Ti  Ti8  1  0.11998877  0.11587574  0.11663043  1
  Ti  Ti9  1  0.88001123  0.88412426  0.88336957  1
  Ti  Ti10  1  0.11894177  0.11763819  0.64829903  1
  Ti  Ti11  1  0.11663043  0.64750506  0.11998877  1
  Ti  Ti12  1  0.88105823  0.88236181  0.35170097  1
  Ti  Ti13  1  0.88336957  0.35249494  0.88001123  1
  Ti  Ti14  1  0.64829903  0.11512100  0.11894177  1
  Ti  Ti15  1  0.35170097  0.88487900  0.88105823  1
  Ir  Ir0  1  0.00000000  0.50000000  0.00000000  1
  Ir  Ir1  1  0.00000000  0.00000000  0.50000000  1
  Ir  Ir2  1  0.50000000  0.50000000  0.00000000  1
  Os  Os0  1  0.50000000  0.00000000  0.00000000  1
  Os  Os1  1  0.00000000  0.50000000  0.50000000  1
  Os  Os2  1  0.50000000  0.00000000  0.50000000  1
  Os  Os3  1  0.00000000  0.00000000  0.00000000  1
loop_
_geom_bond_atom_site_label_1
_geom_bond_atom_site_label_2
_geom_bond_distance
_geom_bond_site_symmetry_2
Hf0 Ti0 3.003357 1_555
Hf0 Ti5 3.003358 1_545
Hf0 Ti6 3.018614 1_655
Hf0 Ti4 3.018615 1_554
Hf0 Os2 3.254804 1_555
Hf0 Ir2 3.255738 1_555
Hf0 Ir1 3.255738 1_655
Hf0 Ir0 3.257095 1_655
Hf0 Ti14 3.260460 1_555
Hf0 Ti12 3.260461 1_545
Hf0 Hf4 3.263415 1_555
Hf0 Hf5 3.266673 1_555
Hf0 Hf3 3.273584 1_555
Hf0 Hf2 3.273584 1_555
Hf0 Ti8 3.277760 1_655
Hf0 Ti13 3.277760 1_554
Hf1 Ti1 3.003357 1_555
Hf1 Ti3 3.003358 1_565
Hf1 Ti7 3.018614 1_455
Hf1 Ti2 3.018615 1_556
Hf1 Os2 3.254804 1_565
Hf1 Ir2 3.255738 1_556
Hf1 Ir1 3.255738 1_565
Hf1 Ir0 3.257095 1_556
Hf1 Ti15 3.260460 1_555
Hf1 Ti10 3.260461 1_565
Hf1 Hf5 3.263415 1_555
Hf1 Hf4 3.266673 1_555
Hf1 Hf2 3.273584 1_555
Hf1 Hf3 3.273584 1_555
Hf1 Ti9 3.277760 1_455
Hf1 Ti11 3.277760 1_556
Hf2 Ti3 3.007628 1_565
Hf2 Ti0 3.007628 1_555
Hf2 Ti4 3.007764 1_554
Hf2 Ti7 3.007764 1_455
Hf2 Hf5 3.255091 1_555
Hf2 Hf4 3.255092 1_555
Hf2 Ti11 3.255828 1_555
Hf2 Ti8 3.255829 1_565
Hf2 Os1 3.259331 1_555
Hf2 Os0 3.259331 1_565
Hf2 Ir2 3.259905 1_555
Hf2 Ir1 3.259906 1_565
Hf2 Ti12 3.280760 1_455
Hf2 Ti15 3.280760 1_554
Hf3 Ti5 3.007628 1_545
Hf3 Ti1 3.007628 1_555
Hf3 Ti2 3.007764 1_556
Hf3 Ti6 3.007764 1_655
Hf3 Hf4 3.255091 1_555
Hf3 Hf5 3.255092 1_555
Hf3 Ti13 3.255828 1_555
Hf3 Ti9 3.255829 1_545
Hf3 Os1 3.259331 1_655
Hf3 Os0 3.259331 1_556
Hf3 Ir2 3.259905 1_556
Hf3 Ir1 3.259906 1_655
Hf3 Ti10 3.280760 1_655
Hf3 Ti14 3.280760 1_556
Hf4 Ti0 2.997787 1_555
Hf4 Ti5 2.997788 1_545
Hf4 Ti2 3.012202 1_556
Hf4 Ti7 3.012202 1_455
Hf4 Ti10 3.260911 1_555
Hf4 Ti15 3.260912 1_545
Hf4 Os1 3.262328 1_555
Hf4 Os0 3.262328 1_556
Hf4 Os2 3.262634 1_555
Hf4 Ir0 3.263592 1_556
Hf4 Ti13 3.271181 1_455
Hf4 Ti8 3.271182 1_556
Hf5 Ti1 2.997787 1_555
Hf5 Ti3 2.997788 1_565
Hf5 Ti4 3.012202 1_554
Hf5 Ti6 3.012202 1_655
Hf5 Ti12 3.260911 1_555
Hf5 Ti14 3.260912 1_565
Hf5 Os1 3.262328 1_655
Hf5 Os0 3.262328 1_565
Hf5 Os2 3.262634 1_565
Hf5 Ir0 3.263592 1_655
Hf5 Ti11 3.271181 1_655
Hf5 Ti9 3.271182 1_554
Ir0 Ti2 2.578754 1_555
Ir0 Ti4 2.578754 1_454
Ir0 Ti6 2.578754 1_555
Ir0 Ti7 2.578754 1_454
Ir0 Ti11 2.797801 1_555
Ir0 Ti13 2.797801 1_454
Ir0 Ti8 2.797802 1_555
Ir0 Ti9 2.797802 1_454
Ir1 Ti6 2.571773 1_555
Ir1 Ti7 2.571773 1_445
Ir1 Ti3 2.578201 1_555
Ir1 Ti5 2.578201 1_445
Ir1 Ti9 2.792135 1_445
Ir1 Ti8 2.792135 1_555
Ir1 Ti10 2.803440 1_555
Ir1 Ti12 2.803440 1_445
Ir2 Ti4 2.571773 1_554
Ir2 Ti2 2.571773 1_555
Ir2 Ti1 2.578201 1_554
Ir2 Ti0 2.578201 1_555
Ir2 Ti13 2.792135 1_554
Ir2 Ti11 2.792135 1_555
Ir2 Ti15 2.803440 1_554
Ir2 Ti14 2.803440 1_555
Os0 Ti2 2.564618 1_555
Os0 Ti4 2.564618 1_544
Os0 Ti3 2.570918 1_555
Os0 Ti5 2.570918 1_544
Os0 Ti8 2.768135 1_555
Os0 Ti9 2.768135 1_544
Os0 Ti14 2.785530 1_555
Os0 Ti15 2.785530 1_544
Os1 Ti7 2.564618 1_455
Os1 Ti6 2.564618 1_555
Os1 Ti0 2.570918 1_555
Os1 Ti1 2.570918 1_455
Os1 Ti13 2.768135 1_455
Os1 Ti11 2.768135 1_555
Os1 Ti12 2.785531 1_455
Os1 Ti10 2.785531 1_555
Os2 Ti5 2.565061 1_545
Os2 Ti3 2.565061 1_555
Os2 Ti1 2.565061 1_545
Os2 Ti0 2.565061 1_555
Os2 Ti10 2.775999 1_555
Os2 Ti12 2.775999 1_545
Os2 Ti15 2.775999 1_545
Os2 Ti14 2.775999 1_555
Os3 Ti15 2.557673 1_544
Os3 Ti14 2.557673 1_455
Os3 Ti12 2.557673 1_445
Os3 Ti10 2.557673 1_554
Os3 Ti8 2.563726 1_555
Os3 Ti9 2.563726 1_444
Os3 Ti11 2.563726 1_545
Os3 Ti13 2.563726 1_454
