# generated using pymatgen
data_Cs7TaIn3As5
_symmetry_space_group_name_H-M   'P 1'
_cell_length_a   8.95111850
_cell_length_b   9.77224066
_cell_length_c   15.01233540
_cell_angle_alpha   85.16015946
_cell_angle_beta   84.81902381
_cell_angle_gamma   85.54520590
_symmetry_Int_Tables_number   1
_chemical_formula_structural   Cs7TaIn3As5
_chemical_formula_sum   'Cs14 Ta2 In6 As10'
_cell_volume   1299.88714986
_cell_formula_units_Z   2
loop_
 _symmetry_equiv_pos_site_id
 _symmetry_equiv_pos_as_xyz
  1  'x, y, z'
loop_
 _atom_site_type_symbol
 _atom_site_label
 _atom_site_symmetry_multiplicity
 _atom_site_fract_x
 _atom_site_fract_y
 _atom_site_fract_z
 _atom_site_occupancy
  Cs  Cs0  1  0.81445994  0.81280393  0.12948691  1
  Cs  Cs1  1  0.18554006  0.18719607  0.87051309  1
  Cs  Cs2  1  0.27080149  0.25223343  0.25279278  1
  Cs  Cs3  1  0.72919851  0.74776657  0.74720722  1
  Cs  Cs4  1  0.74507989  0.50380073  0.97390360  1
  Cs  Cs5  1  0.25492011  0.49619927  0.02609640  1
  Cs  Cs6  1  0.68211955  0.07862607  0.88620488  1
  Cs  Cs7  1  0.31788045  0.92137393  0.11379512  1
  Cs  Cs8  1  0.67441700  0.65889440  0.39971137  1
  Cs  Cs9  1  0.32558300  0.34110560  0.60028863  1
  Cs  Cs10  1  0.75935826  0.98838614  0.53147759  1
  Cs  Cs11  1  0.24064174  0.01161386  0.46852241  1
  Cs  Cs12  1  0.84151490  0.36198619  0.64676439  1
  Cs  Cs13  1  0.15848510  0.63801381  0.35323561  1
  Ta  Ta0  1  0.64713606  0.39137997  0.22736670  1
  Ta  Ta1  1  0.35286394  0.60862003  0.77263330  1
  In  In0  1  0.90468258  0.27517395  0.37474455  1
  In  In1  1  0.09531742  0.72482605  0.62525545  1
  In  In2  1  0.94017650  0.18688063  0.13323368  1
  In  In3  1  0.05982350  0.81311937  0.86676632  1
  In  In4  1  0.63786584  0.04815565  0.29585238  1
  In  In5  1  0.36213416  0.95184435  0.70414762  1
  As  As0  1  0.48604984  0.59377006  0.19173246  1
  As  As1  1  0.51395016  0.40622994  0.80826754  1
  As  As2  1  0.91455276  0.44837071  0.21209684  1
  As  As3  1  0.08544724  0.55162929  0.78790316  1
  As  As4  1  0.58851047  0.29375439  0.38652425  1
  As  As5  1  0.41148953  0.70624561  0.61347575  1
  As  As6  1  0.62621284  0.20073349  0.12630549  1
  As  As7  1  0.37378716  0.79926651  0.87369451  1
  As  As8  1  0.96049537  0.00954562  0.29744873  1
  As  As9  1  0.03950463  0.99045438  0.70255127  1
loop_
_geom_bond_atom_site_label_1
_geom_bond_atom_site_label_2
_geom_bond_distance
_geom_bond_site_symmetry_2
Cs0 In4 3.703707 1_565
Cs0 In2 3.913797 1_565
Cs0 In3 4.337481 1_654
Cs1 In5 3.703707 1_545
Cs1 In3 3.913797 1_545
Cs1 In2 4.337481 1_456
Cs2 In0 3.607413 1_455
Cs2 Ta0 3.705943 1_555
Cs2 In2 3.719433 1_455
Cs2 In4 3.786640 1_555
Cs2 Cs7 3.969084 1_545
Cs2 Cs5 3.993968 1_555
Cs3 In1 3.607413 1_655
Cs3 Ta1 3.705943 1_555
Cs3 In3 3.719433 1_655
Cs3 In5 3.786640 1_555
Cs3 Cs6 3.969084 1_565
Cs3 Cs4 3.993968 1_555
Cs6 In3 4.102960 1_645
Cs7 In2 4.102960 1_465
Cs8 In4 3.988245 1_565
Cs9 In5 3.988245 1_545
Cs10 In0 3.739461 1_565
Cs10 In4 3.779367 1_565
Cs10 Cs3 3.840077 1_555
Cs10 In1 4.075344 1_655
Cs10 In5 4.226780 1_555
Cs11 In1 3.739461 1_545
Cs11 In5 3.779367 1_545
Cs11 Cs2 3.840077 1_555
Cs11 In0 4.075344 1_455
Cs11 In4 4.226780 1_555
Cs12 Cs3 4.194467 1_555
Cs12 In0 4.220033 1_555
Cs13 Cs2 4.194467 1_555
Cs13 In1 4.220033 1_555
As0 Ta0 2.407224 1_555
As0 Cs7 3.580699 1_555
As0 Cs5 3.606670 1_555
As0 Cs13 3.654918 1_555
As0 Cs0 3.773598 1_555
As0 Cs8 3.801203 1_555
As0 Cs2 3.981915 1_555
As1 Ta1 2.407224 1_555
As1 Cs6 3.580699 1_555
As1 Cs4 3.606670 1_555
As1 Cs12 3.654918 1_555
As1 Cs1 3.773598 1_555
As1 Cs9 3.801203 1_555
As1 Cs3 3.981915 1_555
As2 Ta0 2.485732 1_555
As2 In0 2.849799 1_555
As2 In2 2.890409 1_555
As2 Cs2 3.663383 1_655
As2 Cs0 3.739456 1_555
As2 Cs13 3.849437 1_655
As2 Cs5 3.970156 1_655
As2 Cs4 3.988284 1_554
As2 Cs8 3.997872 1_555
As3 Ta1 2.485732 1_555
As3 In1 2.849799 1_555
As3 In3 2.890409 1_555
As3 Cs3 3.663383 1_455
As3 Cs1 3.739456 1_555
As3 Cs12 3.849437 1_455
As3 Cs4 3.970156 1_455
As3 Cs5 3.988284 1_556
As3 Cs9 3.997872 1_555
As4 Ta0 2.522122 1_555
As4 In0 2.812273 1_555
As4 In4 2.843628 1_555
As4 Cs2 3.691952 1_555
As4 Cs8 3.733059 1_555
As4 Cs9 3.843014 1_555
As4 Cs10 3.843882 1_545
As5 Ta1 2.522122 1_555
As5 In1 2.812273 1_555
As5 In5 2.843628 1_555
As5 Cs3 3.691952 1_555
As5 Cs9 3.733059 1_555
As5 Cs8 3.843014 1_555
As5 Cs11 3.843882 1_565
As6 Ta0 2.527899 1_555
As6 In2 2.813963 1_555
As6 In4 2.845341 1_555
As6 Cs2 3.577900 1_555
As6 Cs4 3.747591 1_554
As6 Cs6 3.869593 1_554
As6 Cs0 4.025479 1_545
As6 Cs7 4.056567 1_545
As7 Ta1 2.527899 1_555
As7 In3 2.813963 1_555
As7 In5 2.845341 1_555
As7 Cs3 3.577900 1_555
As7 Cs5 3.747591 1_556
As7 Cs7 3.869593 1_556
As7 Cs1 4.025479 1_565
As7 Cs6 4.056567 1_565
As8 In4 2.885235 1_555
As8 In2 2.902553 1_555
As8 In0 2.921696 1_555
As8 Cs0 3.683317 1_545
As8 Cs11 3.750208 1_655
As8 Cs2 3.769303 1_655
As8 Cs10 3.797430 1_545
As8 Cs13 3.972351 1_645
As8 Cs7 4.117912 1_645
As9 In5 2.885235 1_555
As9 In3 2.902553 1_555
As9 In1 2.921696 1_555
As9 Cs1 3.683317 1_565
As9 Cs10 3.750208 1_455
As9 Cs3 3.769303 1_455
As9 Cs11 3.797430 1_565
As9 Cs12 3.972351 1_465
As9 Cs6 4.117912 1_465
