# generated using pymatgen
data_CrAg2HgF7
_symmetry_space_group_name_H-M   'P 1'
_cell_length_a   7.70381044
_cell_length_b   7.70549772
_cell_length_c   7.70550288
_cell_angle_alpha   119.64282954
_cell_angle_beta   121.65811271
_cell_angle_gamma   88.89259622
_symmetry_Int_Tables_number   1
_chemical_formula_structural   CrAg2HgF7
_chemical_formula_sum   'Cr2 Ag4 Hg2 F14'
_cell_volume   320.04845249
_cell_formula_units_Z   2
loop_
 _symmetry_equiv_pos_site_id
 _symmetry_equiv_pos_as_xyz
  1  'x, y, z'
loop_
 _atom_site_type_symbol
 _atom_site_label
 _atom_site_symmetry_multiplicity
 _atom_site_fract_x
 _atom_site_fract_y
 _atom_site_fract_z
 _atom_site_occupancy
  Cr  Cr0  1  0.50000000  0.50000000  0.50000000  1
  Cr  Cr1  1  0.50000000  0.00000000  0.00000000  1
  Ag  Ag0  1  0.50000000  0.50000000  0.00000000  1
  Ag  Ag1  1  0.00000000  0.00000000  0.00000000  1
  Ag  Ag2  1  0.00000000  0.50000000  0.00000000  1
  Ag  Ag3  1  0.00000000  0.00000000  0.50000000  1
  Hg  Hg0  1  0.00000000  0.50000000  0.50000000  1
  Hg  Hg1  1  0.50000000  0.00000000  0.50000000  1
  F  F0  1  0.88857623  0.61499781  0.27357942  1
  F  F1  1  0.15853818  0.88495370  0.27358341  1
  F  F2  1  0.19804342  0.88378921  0.82402047  1
  F  F3  1  0.44037408  0.61636282  0.31439873  1
  F  F4  1  0.44038154  0.12597855  0.82401076  1
  F  F5  1  0.19804227  0.37401533  0.31425899  1
  F  F6  1  0.80195773  0.62598467  0.68574101  1
  F  F7  1  0.55961846  0.87402145  0.17598924  1
  F  F8  1  0.55962592  0.38363718  0.68560127  1
  F  F9  1  0.80195658  0.11621079  0.17597953  1
  F  F10  1  0.51385747  0.25007399  0.26377533  1
  F  F11  1  0.11142377  0.38500219  0.72642058  1
  F  F12  1  0.84146182  0.11504630  0.72641659  1
  F  F13  1  0.48614253  0.74992601  0.73622467  1
loop_
_geom_bond_atom_site_label_1
_geom_bond_atom_site_label_2
_geom_bond_distance
_geom_bond_site_symmetry_2
Cr0 F6 1.902691 1_555
Cr0 F5 1.902691 1_555
Cr0 F3 1.903478 1_555
Cr0 F8 1.903478 1_555
Cr0 F13 1.939561 1_555
Cr0 F10 1.939561 1_555
Cr1 F9 1.902669 1_555
Cr1 F2 1.902669 1_544
Cr1 F4 1.903511 1_554
Cr1 F7 1.903511 1_545
Cr1 F10 1.939497 1_555
Cr1 F13 1.939497 1_544
Ag0 F0 2.412650 1_555
Ag0 F11 2.412650 1_554
Ag0 F7 2.426385 1_555
Ag0 F4 2.426385 1_554
Ag0 F3 2.426408 1_555
Ag0 F8 2.426408 1_554
Ag1 F1 2.413646 1_545
Ag1 F12 2.413646 1_454
Ag1 F5 2.426076 1_555
Ag1 F6 2.426076 1_444
Ag1 F2 2.426125 1_544
Ag1 F9 2.426125 1_455
Ag2 F1 2.446690 1_555
Ag2 F12 2.446690 1_454
Ag2 F0 2.447092 1_455
Ag2 F11 2.447092 1_554
Ag3 F1 2.446704 1_545
Ag3 F12 2.446704 1_455
Ag3 F11 2.447080 1_555
Ag3 F0 2.447080 1_445
F0 Hg0 2.119853 1_655
F1 Hg1 2.119495 1_565
F2 Hg0 2.485781 1_555
F3 Hg1 2.485134 1_565
F4 Hg1 2.485091 1_555
F5 Hg0 2.485762 1_555
F6 Hg0 2.485762 1_655
F7 Hg1 2.485091 1_565
F8 Hg1 2.485134 1_555
F9 Hg0 2.485781 1_655
F11 Hg0 2.119853 1_555
F12 Hg1 2.119495 1_555
