# generated using pymatgen
data_Ba2AsBrF14
_symmetry_space_group_name_H-M   'P 1'
_cell_length_a   4.78167858
_cell_length_b   7.54823946
_cell_length_c   7.67380647
_cell_angle_alpha   107.19439229
_cell_angle_beta   102.53111737
_cell_angle_gamma   90.19168635
_symmetry_Int_Tables_number   1
_chemical_formula_structural   Ba2AsBrF14
_chemical_formula_sum   'Ba2 As1 Br1 F14'
_cell_volume   257.61371980
_cell_formula_units_Z   1
loop_
 _symmetry_equiv_pos_site_id
 _symmetry_equiv_pos_as_xyz
  1  'x, y, z'
loop_
 _atom_site_type_symbol
 _atom_site_label
 _atom_site_symmetry_multiplicity
 _atom_site_fract_x
 _atom_site_fract_y
 _atom_site_fract_z
 _atom_site_occupancy
  Ba  Ba0  1  0.15423444  0.33658479  0.77229905  1
  Ba  Ba1  1  0.82470259  0.65855188  0.22543068  1
  As  As0  1  0.35199788  0.18493995  0.28720322  1
  Br  Br0  1  0.65373731  0.81559641  0.71474786  1
  F  F0  1  0.12947205  0.18148440  0.07493677  1
  F  F1  1  0.40999405  0.79941288  0.47895273  1
  F  F2  1  0.57047711  0.19640028  0.50684005  1
  F  F3  1  0.52386314  0.04124393  0.82525916  1
  F  F4  1  0.48376317  0.97479005  0.18560464  1
  F  F5  1  0.36581716  0.69569814  0.77207387  1
  F  F6  1  0.89179171  0.82059368  0.94214035  1
  F  F7  1  0.27773242  0.57564213  0.09974741  1
  F  F8  1  0.08358484  0.06561515  0.34112902  1
  F  F9  1  0.21597432  0.39423550  0.39916958  1
  F  F10  1  0.70229977  0.42228525  0.89602911  1
  F  F11  1  0.79968743  0.58580318  0.59044674  1
  F  F12  1  0.62262410  0.30648078  0.24208550  1
  F  F13  1  0.93824450  0.94464063  0.64590426  1
loop_
_geom_bond_atom_site_label_1
_geom_bond_atom_site_label_2
_geom_bond_distance
_geom_bond_site_symmetry_2
Ba0 F10 2.554704 1_455
Ba0 F7 2.566526 1_556
Ba0 F10 2.594929 1_555
Ba0 F5 2.890763 1_555
Ba0 F0 2.916161 1_556
Ba0 F3 2.917044 1_555
Ba0 F13 2.934007 1_445
Ba0 F11 2.984477 1_455
Ba0 F2 3.049478 1_455
Ba0 F9 3.094797 1_555
Ba0 F2 3.119279 1_555
Ba0 F8 3.279385 1_555
Ba1 F7 2.563844 1_655
Ba1 F10 2.568737 1_554
Ba1 F7 2.588423 1_555
Ba1 F6 2.863029 1_554
Ba1 F12 2.872217 1_555
Ba1 F4 2.947927 1_555
Ba1 F1 3.023639 1_655
Ba1 F11 3.035809 1_555
Ba1 F1 3.051707 1_555
Ba1 F8 3.105855 1_665
Ba1 F9 3.126284 1_655
Ba1 F13 3.237534 1_555
As0 F0 1.734574 1_555
As0 F4 1.734852 1_545
As0 F12 1.735038 1_555
As0 F8 1.752961 1_555
As0 F2 1.757481 1_555
As0 F9 1.761803 1_555
Br0 F3 1.840515 1_565
Br0 F5 1.843328 1_555
Br0 F6 1.854972 1_555
Br0 F1 1.897534 1_555
Br0 F13 1.919862 1_555
Br0 F11 1.929840 1_555
