# generated using pymatgen
data_Lu4ZnAs5Rh7
_symmetry_space_group_name_H-M   'P 1'
_cell_length_a   7.14258293
_cell_length_b   7.14258343
_cell_length_c   7.14258352
_cell_angle_alpha   109.88415818
_cell_angle_beta   108.64847562
_cell_angle_gamma   109.88415712
_symmetry_Int_Tables_number   1
_chemical_formula_structural   Lu4ZnAs5Rh7
_chemical_formula_sum   'Lu4 Zn1 As5 Rh7'
_cell_volume   280.46388573
_cell_formula_units_Z   1
loop_
 _symmetry_equiv_pos_site_id
 _symmetry_equiv_pos_as_xyz
  1  'x, y, z'
loop_
 _atom_site_type_symbol
 _atom_site_label
 _atom_site_symmetry_multiplicity
 _atom_site_fract_x
 _atom_site_fract_y
 _atom_site_fract_z
 _atom_site_occupancy
  Lu  Lu0  1  0.49111974  0.49409892  0.49111974  1
  Lu  Lu1  1  0.99702082  0.50590108  0.99702082  1
  Lu  Lu2  1  0.49111974  0.00000000  0.99702082  1
  Lu  Lu3  1  0.99702082  0.00000000  0.49111974  1
  Zn  Zn0  1  0.69611254  0.00000000  0.69611254  1
  As  As0  1  0.67963867  0.68595409  0.99368559  1
  As  As1  1  0.30773150  0.31404591  0.99368559  1
  As  As2  1  0.99368559  0.68595409  0.67963867  1
  As  As3  1  0.99368559  0.31404591  0.30773150  1
  As  As4  1  0.33619315  0.00000000  0.33619315  1
  Rh  Rh0  1  0.74670773  0.50000000  0.24670773  1
  Rh  Rh1  1  0.50151700  0.25266226  0.75417926  1
  Rh  Rh2  1  0.75417926  0.25266226  0.50151700  1
  Rh  Rh3  1  0.24885474  0.74733774  0.50151700  1
  Rh  Rh4  1  0.24670773  0.50000000  0.74670773  1
  Rh  Rh5  1  0.50151700  0.74733774  0.24885474  1
  Rh  Rh6  1  0.01718739  1.00000000  0.01718739  1
loop_
_geom_bond_atom_site_label_1
_geom_bond_atom_site_label_2
_geom_bond_distance
_geom_bond_site_symmetry_2
Lu0 Rh3 2.896786 1_555
Lu0 Rh5 2.896786 1_555
Lu0 Rh0 2.901354 1_555
Lu0 Rh4 2.901354 1_555
Lu0 Rh2 2.951555 1_555
Lu0 Rh1 2.951555 1_555
Lu0 Zn0 2.962374 1_565
Lu1 Rh1 2.896785 1_555
Lu1 Rh2 2.896786 1_555
Lu1 Rh4 2.901354 1_655
Lu1 Rh0 2.901354 1_556
Lu1 Rh5 2.951555 1_656
Lu1 Rh3 2.951555 1_656
Lu1 Zn0 2.962374 1_555
Lu2 Rh3 2.896786 1_545
Lu2 Rh1 2.896786 1_555
Lu2 Rh0 2.901353 1_556
Lu2 Rh4 2.901353 1_545
Lu2 Rh2 2.951555 1_556
Lu2 Rh5 2.951555 1_546
Lu2 Zn0 2.962374 1_555
Lu3 Rh5 2.896785 1_545
Lu3 Rh2 2.896786 1_555
Lu3 Rh4 2.901353 1_655
Lu3 Rh0 2.901353 1_545
Lu3 Rh1 2.951555 1_655
Lu3 Rh3 2.951555 1_645
Lu3 Zn0 2.962374 1_555
As0 Rh5 2.539954 1_556
As0 Rh1 2.539960 1_555
As0 Rh4 2.561608 1_555
As0 Rh6 2.584323 1_656
As0 Rh0 2.602235 1_556
As0 Lu3 2.960212 1_566
As0 Lu1 2.960218 1_555
As0 Lu2 2.980585 1_565
As0 Lu0 2.980591 1_555
As1 Rh5 2.539959 1_556
As1 Rh1 2.539959 1_555
As1 Rh4 2.561614 1_555
As1 Rh6 2.584319 1_546
As1 Rh0 2.602234 1_556
As1 Lu0 2.960212 1_556
As1 Lu2 2.960212 1_555
As1 Lu3 2.980590 1_455
As1 Lu1 2.980590 1_455
As2 Rh3 2.539954 1_655
As2 Rh2 2.539960 1_555
As2 Rh0 2.561608 1_555
As2 Rh6 2.584323 1_656
As2 Rh4 2.602235 1_655
As2 Lu2 2.960212 1_665
As2 Lu1 2.960218 1_555
As2 Lu3 2.980585 1_565
As2 Lu0 2.980591 1_555
As3 Rh3 2.539959 1_655
As3 Rh2 2.539959 1_555
As3 Rh0 2.561614 1_555
As3 Rh6 2.584319 1_645
As3 Rh4 2.602234 1_655
As3 Lu0 2.960211 1_655
As3 Lu3 2.960212 1_555
As3 Lu2 2.980590 1_554
As3 Lu1 2.980590 1_554
As4 Rh2 2.489021 1_555
As4 Rh1 2.489021 1_555
As4 Rh5 2.489021 1_545
As4 Rh3 2.489021 1_545
As4 Rh6 2.657661 1_545
As4 Lu1 2.967783 1_444
As4 Lu0 2.967784 1_555
As4 Lu3 2.967784 1_455
As4 Lu2 2.967784 1_554
Rh1 Zn0 2.631816 1_555
Rh2 Zn0 2.631817 1_555
Rh3 Zn0 2.631816 1_565
Rh5 Zn0 2.631816 1_565
Rh6 Zn0 2.674899 1_464
