# generated using pymatgen
data_Cs3CdInBr6
_symmetry_space_group_name_H-M   'P 1'
_cell_length_a   9.57987942
_cell_length_b   9.57987864
_cell_length_c   9.57987881
_cell_angle_alpha   91.14512831
_cell_angle_beta   91.14512724
_cell_angle_gamma   91.14512962
_symmetry_Int_Tables_number   1
_chemical_formula_structural   Cs3CdInBr6
_chemical_formula_sum   'Cs6 Cd2 In2 Br12'
_cell_volume   878.65068997
_cell_formula_units_Z   2
loop_
 _symmetry_equiv_pos_site_id
 _symmetry_equiv_pos_as_xyz
  1  'x, y, z'
loop_
 _atom_site_type_symbol
 _atom_site_label
 _atom_site_symmetry_multiplicity
 _atom_site_fract_x
 _atom_site_fract_y
 _atom_site_fract_z
 _atom_site_occupancy
  Cs  Cs0  1  0.37532822  0.12467178  0.75000000  1
  Cs  Cs1  1  0.12467178  0.75000000  0.37532822  1
  Cs  Cs2  1  0.75000000  0.37532822  0.12467178  1
  Cs  Cs3  1  0.62467178  0.87532822  0.25000000  1
  Cs  Cs4  1  0.25000000  0.62467178  0.87532822  1
  Cs  Cs5  1  0.87532822  0.25000000  0.62467178  1
  Cd  Cd0  1  0.00000000  0.00000000  0.00000000  1
  Cd  Cd1  1  0.50000000  0.50000000  0.50000000  1
  In  In0  1  0.25000000  0.25000000  0.25000000  1
  In  In1  1  0.75000000  0.75000000  0.75000000  1
  Br  Br0  1  0.95046245  0.07718390  0.28081682  1
  Br  Br1  1  0.07718390  0.28081682  0.95046245  1
  Br  Br2  1  0.28081682  0.95046245  0.07718390  1
  Br  Br3  1  0.57718390  0.45046245  0.78081682  1
  Br  Br4  1  0.78081682  0.57718390  0.45046245  1
  Br  Br5  1  0.45046245  0.78081682  0.57718390  1
  Br  Br6  1  0.21918318  0.42281610  0.54953755  1
  Br  Br7  1  0.42281610  0.54953755  0.21918318  1
  Br  Br8  1  0.54953755  0.21918318  0.42281610  1
  Br  Br9  1  0.92281610  0.71918318  0.04953755  1
  Br  Br10  1  0.04953755  0.92281610  0.71918318  1
  Br  Br11  1  0.71918318  0.04953755  0.92281610  1
loop_
_geom_bond_atom_site_label_1
_geom_bond_atom_site_label_2
_geom_bond_distance
_geom_bond_site_symmetry_2
Br0 Cd0 2.827475 1_655
Br0 In0 3.305414 1_655
Br0 Cs3 3.642326 1_545
Br0 Cs1 3.700199 1_645
Br0 Cs5 3.746250 1_555
Br0 Cs2 3.789263 1_555
Br1 Cd0 2.827475 1_556
Br1 In0 3.305414 1_556
Br1 Cs5 3.642326 1_455
Br1 Cs2 3.700199 1_456
Br1 Cs4 3.746250 1_555
Br1 Cs0 3.789263 1_555
Br2 Cd0 2.827476 1_565
Br2 In0 3.305414 1_565
Br2 Cs4 3.642326 1_554
Br2 Cs0 3.700199 1_564
Br2 Cs3 3.746250 1_555
Br2 Cs1 3.789263 1_555
Br3 Cd1 2.827475 1_555
Br3 In1 3.305414 1_555
Br3 Cs0 3.642326 1_555
Br3 Cs4 3.700199 1_555
Br3 Cs2 3.746250 1_556
Br3 Cs5 3.789263 1_555
Br4 Cd1 2.827475 1_555
Br4 In1 3.305414 1_555
Br4 Cs2 3.642326 1_555
Br4 Cs5 3.700199 1_555
Br4 Cs1 3.746250 1_655
Br4 Cs3 3.789263 1_555
Br5 Cd1 2.827475 1_555
Br5 In1 3.305414 1_555
Br5 Cs1 3.642326 1_555
Br5 Cs3 3.700199 1_555
Br5 Cs0 3.746250 1_565
Br5 Cs4 3.789263 1_555
Br6 Cd1 2.827475 1_555
Br6 In0 3.305414 1_555
Br6 Cs4 3.642326 1_555
Br6 Cs1 3.700199 1_555
Br6 Cs5 3.746250 1_455
Br6 Cs0 3.789263 1_555
Br7 Cd1 2.827475 1_555
Br7 In0 3.305414 1_555
Br7 Cs3 3.642326 1_555
Br7 Cs2 3.700199 1_555
Br7 Cs4 3.746250 1_554
Br7 Cs1 3.789263 1_555
Br8 Cd1 2.827475 1_555
Br8 In0 3.305414 1_555
Br8 Cs5 3.642326 1_555
Br8 Cs0 3.700199 1_555
Br8 Cs3 3.746250 1_545
Br8 Cs2 3.789263 1_555
Br9 Cd0 2.827475 1_665
Br9 In1 3.305414 1_554
Br9 Cs1 3.642326 1_655
Br9 Cs4 3.700199 1_654
Br9 Cs2 3.746250 1_555
Br9 Cs3 3.789263 1_555
Br10 Cd0 2.827475 1_566
Br10 In1 3.305414 1_455
Br10 Cs0 3.642326 1_565
Br10 Cs5 3.700199 1_465
Br10 Cs1 3.746250 1_555
Br10 Cs4 3.789263 1_555
Br11 Cd0 2.827476 1_656
Br11 In1 3.305414 1_545
Br11 Cs2 3.642326 1_556
Br11 Cs3 3.700199 1_546
Br11 Cs0 3.746250 1_555
Br11 Cs5 3.789263 1_555
