# generated using pymatgen
data_Tb4Se3N2
_symmetry_space_group_name_H-M   'P 1'
_cell_length_a   3.93731385
_cell_length_b   6.95169602
_cell_length_c   8.16784394
_cell_angle_alpha   85.57260205
_cell_angle_beta   76.05293460
_cell_angle_gamma   73.54926246
_symmetry_Int_Tables_number   1
_chemical_formula_structural   Tb4Se3N2
_chemical_formula_sum   'Tb4 Se3 N2'
_cell_volume   208.07962972
_cell_formula_units_Z   1
loop_
 _symmetry_equiv_pos_site_id
 _symmetry_equiv_pos_as_xyz
  1  'x, y, z'
loop_
 _atom_site_type_symbol
 _atom_site_label
 _atom_site_symmetry_multiplicity
 _atom_site_fract_x
 _atom_site_fract_y
 _atom_site_fract_z
 _atom_site_occupancy
  Tb  Tb0  1  0.44227072  0.26666171  0.84879886  1
  Tb  Tb1  1  0.55772928  0.73333829  0.15120114  1
  Tb  Tb2  1  0.75598028  0.12739640  0.36064404  1
  Tb  Tb3  1  0.24401972  0.87260360  0.63935596  1
  Se  Se0  1  0.83490445  0.55879672  0.77139338  1
  Se  Se1  1  -0.00000000  0.00000000  -0.00000000  1
  Se  Se2  1  0.16509555  0.44120328  0.22860662  1
  N  N0  1  0.35166974  0.93448116  0.36218037  1
  N  N1  1  0.64833026  0.06551884  0.63782063  1
loop_
_geom_bond_atom_site_label_1
_geom_bond_atom_site_label_2
_geom_bond_distance
_geom_bond_site_symmetry_2
Se0 Tb0 2.832430 1_555
Se0 Tb0 2.832439 1_655
Se0 Tb3 3.050624 1_655
Se0 Tb3 3.050624 1_555
Se0 Tb1 3.238226 1_556
Se1 Tb0 2.903801 1_454
Se1 Tb1 2.903801 1_545
Se1 Tb0 2.903806 1_554
Se1 Tb1 2.903806 1_445
Se1 Tb2 2.990158 1_455
Se1 Tb3 2.990158 1_544
Se2 Tb1 2.832430 1_555
Se2 Tb1 2.832439 1_455
Se2 Tb2 3.050624 1_455
Se2 Tb2 3.050624 1_555
Se2 Tb0 3.238226 1_554
N0 Tb1 2.153727 1_555
N0 Tb3 2.231681 1_555
N0 Tb2 2.351540 1_565
N0 Tb2 2.351540 1_465
N1 Tb0 2.153721 1_555
N1 Tb2 2.231688 1_555
N1 Tb3 2.351538 1_645
N1 Tb3 2.351541 1_545
