# generated using pymatgen
data_Hf3TiPd2N
_symmetry_space_group_name_H-M   'P 1'
_cell_length_a   8.57647869
_cell_length_b   8.57647939
_cell_length_c   8.57647921
_cell_angle_alpha   59.99999690
_cell_angle_beta   59.99999420
_cell_angle_gamma   59.99999665
_symmetry_Int_Tables_number   1
_chemical_formula_structural   Hf3TiPd2N
_chemical_formula_sum   'Hf12 Ti4 Pd8 N4'
_cell_volume   446.07929203
_cell_formula_units_Z   4
loop_
 _symmetry_equiv_pos_site_id
 _symmetry_equiv_pos_as_xyz
  1  'x, y, z'
loop_
 _atom_site_type_symbol
 _atom_site_label
 _atom_site_symmetry_multiplicity
 _atom_site_fract_x
 _atom_site_fract_y
 _atom_site_fract_z
 _atom_site_occupancy
  Hf  Hf0  1  0.81541800  0.18458200  0.18458200  1
  Hf  Hf1  1  0.18458200  0.81541800  0.18458200  1
  Hf  Hf2  1  0.81541800  0.81541800  0.18458200  1
  Hf  Hf3  1  0.18458200  0.81541800  0.81541800  1
  Hf  Hf4  1  0.81541800  0.18458200  0.81541800  1
  Hf  Hf5  1  0.18458200  0.18458200  0.81541800  1
  Hf  Hf6  1  0.43458200  0.06541800  0.06541800  1
  Hf  Hf7  1  0.06541800  0.43458200  0.06541800  1
  Hf  Hf8  1  0.43458200  0.43458200  0.06541800  1
  Hf  Hf9  1  0.06541800  0.43458200  0.43458200  1
  Hf  Hf10  1  0.43458200  0.06541800  0.43458200  1
  Hf  Hf11  1  0.06541800  0.06541800  0.43458200  1
  Ti  Ti0  1  0.62500000  0.62500000  0.12500000  1
  Ti  Ti1  1  0.62500000  0.62500000  0.62500000  1
  Ti  Ti2  1  0.12500000  0.62500000  0.62500000  1
  Ti  Ti3  1  0.62500000  0.12500000  0.62500000  1
  Pd  Pd0  1  0.41178783  0.41178783  0.76463752  1
  Pd  Pd1  1  0.41178783  0.41178783  0.41178783  1
  Pd  Pd2  1  0.76463752  0.41178783  0.41178783  1
  Pd  Pd3  1  0.41178783  0.76463752  0.41178783  1
  Pd  Pd4  1  0.83821217  0.83821217  0.48536248  1
  Pd  Pd5  1  0.83821217  0.83821217  0.83821217  1
  Pd  Pd6  1  0.48536248  0.83821217  0.83821217  1
  Pd  Pd7  1  0.83821217  0.48536248  0.83821217  1
  N  N0  1  0.12500000  0.12500000  0.62500000  1
  N  N1  1  0.12500000  0.12500000  0.12500000  1
  N  N2  1  0.62500000  0.12500000  0.12500000  1
  N  N3  1  0.12500000  0.62500000  0.12500000  1
loop_
_geom_bond_atom_site_label_1
_geom_bond_atom_site_label_2
_geom_bond_distance
_geom_bond_site_symmetry_2
Hf0 N1 2.262631 1_655
Hf0 N2 2.262631 1_555
Hf0 Pd7 2.788874 1_554
Hf0 Pd4 2.788874 1_545
Hf0 Pd1 3.143844 1_555
Hf0 Pd2 3.143849 1_555
Hf1 N1 2.262631 1_565
Hf1 N3 2.262631 1_555
Hf1 Pd4 2.788873 1_455
Hf1 Pd6 2.788873 1_554
Hf1 Pd1 3.143844 1_555
Hf1 Pd3 3.143849 1_555
Hf2 N3 2.262631 1_655
Hf2 N2 2.262631 1_565
Hf2 Pd4 2.788869 1_555
Hf2 Pd5 2.788877 1_554
Hf2 Pd3 3.143841 1_555
Hf2 Pd2 3.143841 1_555
Hf3 N3 2.262631 1_556
Hf3 N0 2.262631 1_565
Hf3 Pd6 2.788869 1_555
Hf3 Pd5 2.788877 1_455
Hf3 Pd3 3.143841 1_555
Hf3 Pd0 3.143841 1_555
Hf4 N0 2.262631 1_655
Hf4 N2 2.262631 1_556
Hf4 Pd7 2.788869 1_555
Hf4 Pd5 2.788877 1_545
Hf4 Pd0 3.143841 1_555
Hf4 Pd2 3.143841 1_555
Hf5 N1 2.262631 1_556
Hf5 N0 2.262631 1_555
Hf5 Pd7 2.788873 1_455
Hf5 Pd6 2.788874 1_545
Hf5 Pd1 3.143844 1_555
Hf5 Pd0 3.143849 1_555
Hf6 N1 2.262631 1_555
Hf6 N2 2.262631 1_555
Hf6 Pd3 2.788874 1_545
Hf6 Pd0 2.788874 1_554
Hf6 Pd5 3.143844 1_544
Hf6 Pd6 3.143849 1_544
Hf7 N1 2.262631 1_555
Hf7 N3 2.262631 1_555
Hf7 Pd0 2.788873 1_554
Hf7 Pd2 2.788873 1_455
Hf7 Pd5 3.143844 1_454
Hf7 Pd7 3.143849 1_454
Hf8 N3 2.262631 1_555
Hf8 N2 2.262631 1_555
Hf8 Pd0 2.788869 1_554
Hf8 Pd1 2.788877 1_555
Hf8 Pd7 3.143841 1_554
Hf8 Pd6 3.143841 1_554
Hf9 N3 2.262631 1_555
Hf9 N0 2.262631 1_555
Hf9 Pd2 2.788869 1_455
Hf9 Pd1 2.788877 1_555
Hf9 Pd7 3.143841 1_455
Hf9 Pd4 3.143841 1_455
Hf10 N0 2.262631 1_555
Hf10 N2 2.262631 1_555
Hf10 Pd3 2.788869 1_545
Hf10 Pd1 2.788877 1_555
Hf10 Pd4 3.143841 1_545
Hf10 Pd6 3.143841 1_545
Hf11 N1 2.262631 1_555
Hf11 N0 2.262631 1_555
Hf11 Pd3 2.788873 1_545
Hf11 Pd2 2.788874 1_455
Hf11 Pd5 3.143844 1_445
Hf11 Pd4 3.143849 1_445
Pd0 Ti1 2.661917 1_555
Pd0 Ti2 2.661924 1_555
Pd0 Ti3 2.661924 1_555
Pd1 Ti0 2.661919 1_555
Pd1 Ti2 2.661919 1_555
Pd1 Ti3 2.661919 1_555
Pd2 Ti1 2.661917 1_555
Pd2 Ti3 2.661924 1_555
Pd2 Ti0 2.661924 1_555
Pd3 Ti1 2.661917 1_555
Pd3 Ti2 2.661924 1_555
Pd3 Ti0 2.661924 1_555
Pd4 Ti1 2.661917 1_555
Pd4 Ti2 2.661924 1_655
Pd4 Ti3 2.661924 1_565
Pd5 Ti0 2.661919 1_556
Pd5 Ti2 2.661919 1_655
Pd5 Ti3 2.661919 1_565
Pd6 Ti1 2.661917 1_555
Pd6 Ti3 2.661924 1_565
Pd6 Ti0 2.661924 1_556
Pd7 Ti1 2.661917 1_555
Pd7 Ti2 2.661924 1_655
Pd7 Ti0 2.661924 1_556
