# generated using pymatgen
data_ZrTa5Al16Ir7
_symmetry_space_group_name_H-M   'P 1'
_cell_length_a   8.56763447
_cell_length_b   8.54006136
_cell_length_c   8.54006189
_cell_angle_alpha   60.21372232
_cell_angle_beta   59.89313620
_cell_angle_gamma   59.89313873
_symmetry_Int_Tables_number   1
_chemical_formula_structural   ZrTa5Al16Ir7
_chemical_formula_sum   'Zr1 Ta5 Al16 Ir7'
_cell_volume   441.83370981
_cell_formula_units_Z   1
loop_
 _symmetry_equiv_pos_site_id
 _symmetry_equiv_pos_as_xyz
  1  'x, y, z'
loop_
 _atom_site_type_symbol
 _atom_site_label
 _atom_site_symmetry_multiplicity
 _atom_site_fract_x
 _atom_site_fract_y
 _atom_site_fract_z
 _atom_site_occupancy
  Zr  Zr0  1  0.31219397  0.68780603  0.68780603  1
  Ta  Ta0  1  0.67897764  0.67656853  0.32102236  1
  Ta  Ta1  1  0.32343147  0.67656853  0.32102236  1
  Ta  Ta2  1  0.67265350  0.32734650  0.32734650  1
  Ta  Ta3  1  0.32343147  0.32102236  0.67656853  1
  Ta  Ta4  1  0.67897764  0.32102236  0.67656853  1
  Al  Al0  1  0.88084374  0.88094380  0.35736971  1
  Al  Al1  1  0.88084374  0.35736971  0.88094380  1
  Al  Al2  1  0.36036555  0.88123703  0.88123703  1
  Al  Al3  1  0.87716039  0.88123703  0.88123703  1
  Al  Al4  1  0.11876297  0.12283961  0.63963445  1
  Al  Al5  1  0.11876297  0.63963445  0.12283961  1
  Al  Al6  1  0.64263029  0.11915626  0.11915626  1
  Al  Al7  1  0.11905620  0.11915626  0.11915626  1
  Al  Al8  1  0.66467451  0.66314037  0.00750862  1
  Al  Al9  1  0.66467451  0.00750862  0.66314037  1
  Al  Al10  1  0.00858360  0.66283909  0.66283909  1
  Al  Al11  1  0.66573722  0.66283909  0.66283909  1
  Al  Al12  1  0.33716091  0.33426278  0.99141640  1
  Al  Al13  1  0.33716091  0.99141640  0.33426278  1
  Al  Al14  1  0.99249138  0.33532549  0.33532549  1
  Al  Al15  1  0.33685963  0.33532549  0.33532549  1
  Ir  Ir0  1  0.00218419  0.99781581  0.99781581  1
  Ir  Ir1  1  0.99807932  0.00192068  0.49822846  1
  Ir  Ir2  1  0.50177154  0.00192068  0.49822846  1
  Ir  Ir3  1  0.00134094  0.49865906  0.49865906  1
  Ir  Ir4  1  0.50177154  0.49822846  0.00192068  1
  Ir  Ir5  1  0.99807932  0.49822846  0.00192068  1
  Ir  Ir6  1  0.50134094  0.99865906  0.99865906  1
loop_
_geom_bond_atom_site_label_1
_geom_bond_atom_site_label_2
_geom_bond_distance
_geom_bond_site_symmetry_2
Ta0 Ta2 2.983216 1_555
Ta0 Ta1 3.046190 1_555
Ta0 Ta4 3.046190 1_555
Ta0 Zr0 3.133204 1_555
Ta1 Ta2 2.983216 1_555
Ta1 Ta3 3.046190 1_555
Ta1 Zr0 3.133205 1_555
Ta2 Ta3 2.983216 1_555
Ta2 Ta4 2.983216 1_555
Ta3 Ta4 3.046190 1_555
Ta3 Zr0 3.133204 1_555
Ta4 Zr0 3.133204 1_555
Al0 Ir0 2.509808 1_654
Al0 Ir1 2.647902 1_565
Al0 Ir2 2.647909 1_565
Al0 Ir3 2.671105 1_655
Al0 Ta1 3.199865 1_655
Al0 Ta0 3.199873 1_555
Al0 Ta2 3.232136 1_565
Al1 Ir0 2.509808 1_645
Al1 Ir5 2.647902 1_556
Al1 Ir4 2.647909 1_556
Al1 Ir3 2.671105 1_655
Al1 Ta3 3.199865 1_655
Al1 Ta4 3.199873 1_555
Al1 Ta2 3.232136 1_556
Al2 Ir0 2.500864 1_555
Al2 Ir6 2.626657 1_555
Al2 Ir4 2.675193 1_556
Al2 Ir2 2.675193 1_565
Al2 Zr0 3.115618 1_555
Al2 Ta3 3.178294 1_565
Al2 Ta1 3.178294 1_556
Al3 Ir0 2.500864 1_655
Al3 Ir6 2.626657 1_555
Al3 Ir5 2.675193 1_556
Al3 Ir1 2.675193 1_565
Al3 Zr0 3.115618 1_655
Al3 Ta4 3.178294 1_565
Al3 Ta0 3.178294 1_556
Al4 Ir0 2.500864 1_545
Al4 Ir3 2.626657 1_555
Al4 Ir2 2.675193 1_555
Al4 Ir1 2.675193 1_455
Al4 Zr0 3.115618 1_545
Al4 Ta4 3.178294 1_455
Al4 Ta3 3.178294 1_555
Al5 Ir0 2.500864 1_554
Al5 Ir3 2.626657 1_555
Al5 Ir4 2.675193 1_555
Al5 Ir5 2.675193 1_455
Al5 Zr0 3.115618 1_554
Al5 Ta0 3.178294 1_455
Al5 Ta1 3.178294 1_555
Al6 Ir0 2.509808 1_644
Al6 Ir4 2.647909 1_555
Al6 Ir2 2.647909 1_555
Al6 Ir6 2.671098 1_544
Al6 Ta0 3.199865 1_545
Al6 Ta4 3.199866 1_554
Al6 Ta2 3.232144 1_555
Al7 Ir0 2.509801 1_544
Al7 Ir5 2.647910 1_455
Al7 Ir1 2.647910 1_455
Al7 Ir6 2.671105 1_544
Al7 Ta1 3.199867 1_545
Al7 Ta3 3.199867 1_554
Al7 Ta2 3.232138 1_455
Al8 Ir4 2.457495 1_555
Al8 Ir5 2.457510 1_555
Al8 Ir6 2.458149 1_554
Al8 Ta1 2.800900 1_555
Al8 Ta0 2.800910 1_555
Al8 Ta2 2.810248 1_555
Al9 Ir2 2.457495 1_555
Al9 Ir1 2.457510 1_555
Al9 Ir6 2.458150 1_545
Al9 Ta3 2.800900 1_555
Al9 Ta4 2.800910 1_555
Al9 Ta2 2.810248 1_555
Al10 Ir3 2.462402 1_555
Al10 Ir1 2.488136 1_465
Al10 Ir5 2.488136 1_456
Al10 Ta1 2.808748 1_555
Al10 Ta3 2.808748 1_555
Al10 Zr0 2.831130 1_555
Al11 Ir3 2.462407 1_655
Al11 Ir4 2.488134 1_556
Al11 Ir2 2.488134 1_565
Al11 Ta4 2.808744 1_555
Al11 Ta0 2.808745 1_555
Al11 Zr0 2.831121 1_555
Al12 Ir6 2.462409 1_545
Al12 Ir4 2.488128 1_556
Al12 Ir5 2.488136 1_456
Al12 Ta4 2.808748 1_555
Al12 Ta3 2.808753 1_555
Al12 Zr0 2.831125 1_555
Al13 Ir6 2.462409 1_554
Al13 Ir2 2.488129 1_565
Al13 Ir1 2.488136 1_465
Al13 Ta0 2.808748 1_555
Al13 Ta1 2.808753 1_555
Al13 Zr0 2.831125 1_555
Al14 Ir1 2.457510 1_555
Al14 Ir5 2.457510 1_555
Al14 Ir3 2.458135 1_655
Al14 Ta4 2.800901 1_555
Al14 Ta0 2.800901 1_555
Al14 Ta2 2.810257 1_555
Al15 Ir4 2.457505 1_555
Al15 Ir2 2.457505 1_555
Al15 Ir3 2.458145 1_555
Al15 Ta1 2.800893 1_555
Al15 Ta3 2.800893 1_555
Al15 Ta2 2.810240 1_555
Ir1 Ta4 3.113258 1_555
Ir1 Zr0 3.142209 1_645
Ir1 Ta2 3.147357 1_555
Ir1 Ta1 3.155321 1_645
Ir2 Ta3 3.113259 1_555
Ir2 Zr0 3.142208 1_545
Ir2 Ta2 3.147357 1_555
Ir2 Ta0 3.155321 1_545
Ir3 Ta4 3.153000 1_455
Ir3 Ta1 3.153000 1_555
Ir3 Ta0 3.153000 1_455
Ir3 Ta3 3.153000 1_555
Ir4 Ta1 3.113259 1_555
Ir4 Zr0 3.142209 1_554
Ir4 Ta2 3.147357 1_555
Ir4 Ta4 3.155321 1_554
Ir5 Ta0 3.113258 1_555
Ir5 Zr0 3.142208 1_654
Ir5 Ta2 3.147357 1_555
Ir5 Ta3 3.155321 1_654
Ir6 Ta4 3.153000 1_565
Ir6 Ta1 3.153000 1_556
Ir6 Ta3 3.153000 1_565
Ir6 Ta0 3.153000 1_556
