# generated using pymatgen
data_Rb2Zn(HgSe2)2
_symmetry_space_group_name_H-M   'P 1'
_cell_length_a   9.79212868
_cell_length_b   9.79212871
_cell_length_c   9.79212940
_cell_angle_alpha   141.36679752
_cell_angle_beta   108.36378598
_cell_angle_gamma   84.47914119
_symmetry_Int_Tables_number   1
_chemical_formula_structural   Rb2Zn(HgSe2)2
_chemical_formula_sum   'Rb4 Zn2 Hg4 Se8'
_cell_volume   538.25378156
_cell_formula_units_Z   2
loop_
 _symmetry_equiv_pos_site_id
 _symmetry_equiv_pos_as_xyz
  1  'x, y, z'
loop_
 _atom_site_type_symbol
 _atom_site_label
 _atom_site_symmetry_multiplicity
 _atom_site_fract_x
 _atom_site_fract_y
 _atom_site_fract_z
 _atom_site_occupancy
  Rb  Rb0  1  0.12566541  0.77303602  0.89870243  1
  Rb  Rb1  1  0.87433459  0.22696398  0.10129757  1
  Rb  Rb2  1  0.62566541  0.72696398  0.35262939  1
  Rb  Rb3  1  0.37433459  0.27303602  0.64737061  1
  Zn  Zn0  1  0.25000000  0.75000000  0.50000000  1
  Zn  Zn1  1  0.75000000  0.25000000  0.50000000  1
  Hg  Hg0  1  0.91442398  0.75000000  0.16442398  1
  Hg  Hg1  1  0.58557602  0.75000000  0.83557602  1
  Hg  Hg2  1  0.08557602  0.25000000  0.83557602  1
  Hg  Hg3  1  0.41442398  0.25000000  0.16442398  1
  Se  Se0  1  0.23463262  0.65263289  0.17174555  1
  Se  Se1  1  0.48088735  0.06288707  0.82825445  1
  Se  Se2  1  0.01911265  0.84736711  0.58199873  1
  Se  Se3  1  0.26536738  0.43711293  0.41800127  1
  Se  Se4  1  0.76536738  0.34736711  0.82825445  1
  Se  Se5  1  0.51911265  0.93711293  0.17174555  1
  Se  Se6  1  0.98088735  0.15263289  0.41800127  1
  Se  Se7  1  0.73463262  0.56288707  0.58199873  1
loop_
_geom_bond_atom_site_label_1
_geom_bond_atom_site_label_2
_geom_bond_distance
_geom_bond_site_symmetry_2
Rb0 Se0 3.544334 1_556
Rb0 Se5 3.544343 1_556
Rb0 Se7 3.546454 1_455
Rb0 Se2 3.546471 1_555
Rb0 Se3 3.721498 1_555
Rb0 Se6 3.721498 1_455
Rb0 Se6 3.960105 1_466
Rb0 Se3 3.960105 1_566
Rb1 Se4 3.544334 1_554
Rb1 Se1 3.544343 1_554
Rb1 Se3 3.546454 1_655
Rb1 Se6 3.546471 1_555
Rb1 Se7 3.721498 1_555
Rb1 Se2 3.721498 1_655
Rb1 Se2 3.960105 1_644
Rb1 Se7 3.960105 1_544
Rb2 Se7 3.544335 1_555
Rb2 Se2 3.544343 1_655
Rb2 Se0 3.546452 1_555
Rb2 Se5 3.546452 1_555
Rb2 Se1 3.721498 1_565
Rb2 Se4 3.721498 1_565
Rb2 Se4 3.960105 1_554
Rb2 Se1 3.960105 1_554
Rb3 Se3 3.544335 1_555
Rb3 Se6 3.544343 1_455
Rb3 Se4 3.546452 1_555
Rb3 Se1 3.546452 1_555
Rb3 Se5 3.721498 1_545
Rb3 Se0 3.721498 1_545
Rb3 Se0 3.960105 1_556
Rb3 Se5 3.960105 1_556
Hg0 Se6 2.512810 1_565
Hg0 Se4 2.512813 1_554
Hg0 Se2 3.183637 1_655
Hg0 Se0 3.183646 1_655
Hg0 Rb0 3.936745 1_654
Hg0 Rb2 3.936754 1_555
Hg1 Se5 2.512813 1_556
Hg1 Se7 2.512819 1_555
Hg1 Se3 3.183644 1_555
Hg1 Se1 3.183646 1_565
Hg1 Rb3 3.936754 1_555
Hg1 Rb1 3.936758 1_566
Hg2 Se2 2.512810 1_545
Hg2 Se0 2.512813 1_556
Hg2 Se6 3.183637 1_455
Hg2 Se4 3.183646 1_455
Hg2 Rb1 3.936745 1_456
Hg2 Rb3 3.936754 1_555
Hg3 Se1 2.512813 1_554
Hg3 Se3 2.512819 1_555
Hg3 Se7 3.183644 1_555
Hg3 Se5 3.183646 1_545
Hg3 Rb2 3.936754 1_555
Hg3 Rb0 3.936758 1_544
Se0 Zn0 2.489656 1_555
Se1 Zn0 2.489656 1_545
Se2 Zn0 2.489652 1_555
Se3 Zn0 2.489661 1_555
Se4 Zn1 2.489656 1_555
Se5 Zn1 2.489656 1_565
Se6 Zn1 2.489652 1_555
Se7 Zn1 2.489661 1_555
