# generated using pymatgen
data_Na4LuAuO6
_symmetry_space_group_name_H-M   'P 1'
_cell_length_a   5.56065363
_cell_length_b   5.56065403
_cell_length_c   5.72529958
_cell_angle_alpha   99.36133174
_cell_angle_beta   99.36134044
_cell_angle_gamma   119.98974536
_symmetry_Int_Tables_number   1
_chemical_formula_structural   Na4LuAuO6
_chemical_formula_sum   'Na4 Lu1 Au1 O6'
_cell_volume   144.99153199
_cell_formula_units_Z   1
loop_
 _symmetry_equiv_pos_site_id
 _symmetry_equiv_pos_as_xyz
  1  'x, y, z'
loop_
 _atom_site_type_symbol
 _atom_site_label
 _atom_site_symmetry_multiplicity
 _atom_site_fract_x
 _atom_site_fract_y
 _atom_site_fract_z
 _atom_site_occupancy
  Na  Na0  1  0.50062220  0.49937880  0.00000000  1
  Na  Na1  1  0.98851234  0.01148966  0.49999800  1
  Na  Na2  1  0.66226715  0.33773185  0.50000000  1
  Na  Na3  1  0.34350928  0.65648972  0.50000000  1
  Lu  Lu0  1  0.16749708  0.83250392  0.00000000  1
  Au  Au0  1  0.83354664  0.16645436  1.00000000  1
  O  O0  1  0.59194133  0.94341827  0.21324318  1
  O  O1  1  0.92461179  0.54995635  0.21749781  1
  O  O2  1  0.20135203  0.22048021  0.21698455  1
  O  O3  1  0.77952079  0.79864897  0.78301645  1
  O  O4  1  0.45004465  0.07538921  0.78250319  1
  O  O5  1  0.05658273  0.40805967  0.78675782  1
loop_
_geom_bond_atom_site_label_1
_geom_bond_atom_site_label_2
_geom_bond_distance
_geom_bond_site_symmetry_2
Na0 O5 2.325788 1_554
Na0 O0 2.325790 1_555
Na0 O3 2.331758 1_554
Na0 O2 2.331762 1_555
Na0 O4 2.335888 1_554
Na0 O1 2.335890 1_555
Na1 O2 2.288721 1_655
Na1 O3 2.288750 1_545
Na1 O0 2.342460 1_545
Na1 O5 2.342473 1_655
Na1 O1 2.622936 1_545
Na1 O4 2.622946 1_655
Na2 O0 2.327846 1_545
Na2 O5 2.327853 1_655
Na2 O4 2.409209 1_555
Na2 O1 2.409213 1_555
Na2 O2 2.500855 1_555
Na2 O3 2.500863 1_555
Na3 O1 2.340080 1_455
Na3 O4 2.340088 1_565
Na3 O2 2.349027 1_555
Na3 O3 2.349034 1_555
Na3 O5 2.556559 1_555
Na3 O0 2.556563 1_555
Lu0 O5 2.191765 1_554
Lu0 O0 2.191766 1_555
Lu0 O3 2.208873 1_454
Lu0 O2 2.208876 1_565
Lu0 O4 2.214837 1_564
Lu0 O1 2.214842 1_455
Au0 O5 2.047956 1_655
Au0 O0 2.047961 1_546
Au0 O4 2.050884 1_555
Au0 O1 2.050886 1_556
Au0 O3 2.062603 1_545
Au0 O2 2.062605 1_656
