# generated using pymatgen
data_RbBi(PS3)2
_symmetry_space_group_name_H-M   'P 1'
_cell_length_a   7.54523994
_cell_length_b   6.75086956
_cell_length_c   10.27285911
_cell_angle_alpha   86.77069049
_cell_angle_beta   90.00000000
_cell_angle_gamma   90.00000000
_symmetry_Int_Tables_number   1
_chemical_formula_structural   RbBi(PS3)2
_chemical_formula_sum   'Rb2 Bi2 P4 S12'
_cell_volume   522.43700361
_cell_formula_units_Z   2
loop_
 _symmetry_equiv_pos_site_id
 _symmetry_equiv_pos_as_xyz
  1  'x, y, z'
loop_
 _atom_site_type_symbol
 _atom_site_label
 _atom_site_symmetry_multiplicity
 _atom_site_fract_x
 _atom_site_fract_y
 _atom_site_fract_z
 _atom_site_occupancy
  Rb  Rb0  1  0.48207810  0.70991767  0.49428690  1
  Rb  Rb1  1  0.98207810  0.29008233  0.50571310  1
  Bi  Bi0  1  0.23262132  0.20934547  0.98627737  1
  Bi  Bi1  1  0.73262132  0.79065453  0.01372263  1
  P  P0  1  0.68357782  0.31625973  0.83322181  1
  P  P1  1  0.95708786  0.78480317  0.28814769  1
  P  P2  1  0.18357782  0.68374027  0.16677819  1
  P  P3  1  0.45708786  0.21519683  0.71185231  1
  S  S0  1  0.76987204  0.57733795  0.75771551  1
  S  S1  1  0.53203260  0.19504060  0.52996134  1
  S  S2  1  0.76945228  0.57865915  0.25777938  1
  S  S3  1  0.57138763  0.34140687  0.01457321  1
  S  S4  1  0.38012662  0.96023430  0.81454495  1
  S  S5  1  0.26945228  0.42134085  0.74222062  1
  S  S6  1  0.07138763  0.65859313  0.98542679  1
  S  S7  1  0.88012662  0.03976570  0.18545505  1
  S  S8  1  0.03203260  0.80495940  0.47003866  1
  S  S9  1  0.37065373  0.90267401  0.16662324  1
  S  S10  1  0.87065373  0.09732599  0.83337676  1
  S  S11  1  0.26987204  0.42266205  0.24228449  1
loop_
_geom_bond_atom_site_label_1
_geom_bond_atom_site_label_2
_geom_bond_distance
_geom_bond_site_symmetry_2
Rb0 S1 3.337249 1_565
Rb0 S2 3.410615 1_555
Rb0 S8 3.462153 1_555
Rb0 S1 3.494927 1_555
Rb0 S5 3.506737 1_555
Rb0 S0 3.544971 1_555
Rb0 S9 3.638253 1_555
Rb0 S11 3.686689 1_555
Rb0 S4 3.859740 1_555
Rb1 S8 3.337249 1_645
Rb1 S5 3.410615 1_655
Rb1 S1 3.462153 1_555
Rb1 S8 3.494927 1_655
Rb1 S2 3.506737 1_555
Rb1 S11 3.544971 1_655
Rb1 S10 3.638253 1_555
Rb1 S0 3.686689 1_555
Rb1 S7 3.859740 1_555
Bi0 S3 2.728008 1_556
Bi0 S4 2.741069 1_545
Bi0 S5 2.829669 1_555
Bi0 S9 2.893282 1_546
Bi0 S11 3.081559 1_556
Bi1 S6 2.728008 1_654
Bi1 S7 2.741069 1_565
Bi1 S2 2.829669 1_555
Bi1 S10 2.893282 1_564
Bi1 S0 3.081559 1_554
P0 S0 1.994493 1_555
P0 S10 2.043679 1_555
P0 S3 2.061984 1_556
P0 P3 2.244164 1_555
P1 S8 1.964273 1_655
P1 S2 2.021706 1_555
P1 S7 2.051374 1_565
P1 P2 2.244164 1_655
P2 S11 1.994493 1_555
P2 S9 2.043679 1_555
P2 S6 2.061984 1_554
P3 S1 1.964273 1_555
P3 S5 2.021706 1_555
P3 S4 2.051374 1_545
