# generated using pymatgen
data_Y6Ta3Al13Ir7
_symmetry_space_group_name_H-M   'P 1'
_cell_length_a   8.97852795
_cell_length_b   8.97852952
_cell_length_c   8.97852794
_cell_angle_alpha   59.74121531
_cell_angle_beta   59.74120993
_cell_angle_gamma   59.74121605
_symmetry_Int_Tables_number   1
_chemical_formula_structural   Y6Ta3Al13Ir7
_chemical_formula_sum   'Y6 Ta3 Al13 Ir7'
_cell_volume   508.79249929
_cell_formula_units_Z   1
loop_
 _symmetry_equiv_pos_site_id
 _symmetry_equiv_pos_as_xyz
  1  'x, y, z'
loop_
 _atom_site_type_symbol
 _atom_site_label
 _atom_site_symmetry_multiplicity
 _atom_site_fract_x
 _atom_site_fract_y
 _atom_site_fract_z
 _atom_site_occupancy
  Y  Y0  1  0.70307332  0.70307332  0.29061916  1
  Y  Y1  1  0.30147033  0.69704293  0.30147033  1
  Y  Y2  1  0.69704293  0.30147033  0.30147033  1
  Y  Y3  1  0.30147033  0.30147033  0.69704293  1
  Y  Y4  1  0.70307332  0.29061916  0.70307332  1
  Y  Y5  1  0.29061916  0.70307332  0.70307332  1
  Ta  Ta0  1  0.87826446  0.87826446  0.36233693  1
  Ta  Ta1  1  0.87826446  0.36233693  0.87826446  1
  Ta  Ta2  1  0.36233693  0.87826446  0.87826446  1
  Al  Al0  1  0.88091977  0.88091977  0.88091977  1
  Al  Al1  1  0.12127048  0.12127048  0.63867597  1
  Al  Al2  1  0.12127048  0.63867597  0.12127048  1
  Al  Al3  1  0.63867597  0.12127048  0.12127048  1
  Al  Al4  1  0.12191570  0.12191570  0.12191570  1
  Al  Al5  1  0.67160608  0.67160608  0.99046284  1
  Al  Al6  1  0.67160608  0.99046284  0.67160608  1
  Al  Al7  1  0.99046284  0.67160608  0.67160608  1
  Al  Al8  1  0.66655045  0.66655045  0.66655045  1
  Al  Al9  1  0.32786757  0.32786757  0.01794191  1
  Al  Al10  1  0.32786757  0.01794191  0.32786757  1
  Al  Al11  1  0.01794191  0.32786757  0.32786757  1
  Al  Al12  1  0.32867792  0.32867792  0.32867792  1
  Ir  Ir0  1  0.00350342  0.00350342  0.00350342  1
  Ir  Ir1  1  0.99873209  0.99873209  0.49639129  1
  Ir  Ir2  1  0.50252863  0.99533579  0.50252863  1
  Ir  Ir3  1  0.99533579  0.50252863  0.50252863  1
  Ir  Ir4  1  0.50252863  0.50252863  0.99533579  1
  Ir  Ir5  1  0.99873209  0.49639129  0.99873209  1
  Ir  Ir6  1  0.49639129  0.99873209  0.99873209  1
loop_
_geom_bond_atom_site_label_1
_geom_bond_atom_site_label_2
_geom_bond_distance
_geom_bond_site_symmetry_2
Y0 Y1 3.584918 1_555
Y0 Y2 3.584919 1_555
Y0 Y5 3.688736 1_555
Y0 Y4 3.688737 1_555
Y1 Y3 3.537759 1_555
Y1 Y2 3.537759 1_555
Y1 Y5 3.584918 1_555
Y2 Y3 3.537758 1_555
Y2 Y4 3.584918 1_555
Y3 Y4 3.584918 1_555
Y3 Y5 3.584919 1_555
Y4 Y5 3.688737 1_555
Ta0 Y0 3.146126 1_555
Ta0 Y1 3.155440 1_655
Ta0 Y2 3.155441 1_565
Ta1 Y4 3.146126 1_555
Ta1 Y2 3.155440 1_556
Ta1 Y3 3.155440 1_655
Ta2 Y5 3.146126 1_555
Ta2 Y1 3.155440 1_556
Ta2 Y3 3.155441 1_565
Al0 Ir0 2.701220 1_666
Al0 Al6 2.804445 1_555
Al0 Al5 2.804445 1_555
Al0 Al7 2.804445 1_555
Al0 Ir1 2.814988 1_555
Al0 Ir6 2.814988 1_555
Al0 Ir5 2.814988 1_555
Al0 Al1 3.045853 1_665
Al0 Al2 3.045853 1_656
Al0 Al3 3.045853 1_566
Al0 Y0 3.059598 1_556
Al0 Y5 3.059598 1_655
Al0 Y4 3.059599 1_565
Al1 Ir0 2.666698 1_556
Al1 Al12 2.780329 1_555
Al1 Al10 2.783334 1_555
Al1 Al11 2.783334 1_555
Al1 Ir2 2.786694 1_545
Al1 Ir3 2.786694 1_455
Al1 Ir1 2.847090 1_445
Al1 Ta2 3.045574 1_545
Al1 Ta1 3.045574 1_455
Al1 Y4 3.112715 1_455
Al1 Y5 3.112716 1_545
Al1 Y3 3.139612 1_555
Al2 Ir0 2.666699 1_565
Al2 Al9 2.783335 1_555
Al2 Ir3 2.786694 1_455
Al2 Ir4 2.786694 1_554
Al2 Ir5 2.847090 1_454
Al2 Ta2 3.045574 1_554
Al2 Ta0 3.045574 1_455
Al2 Y5 3.112715 1_554
Al2 Y0 3.112715 1_455
Al2 Y1 3.139612 1_555
Al3 Ir0 2.666698 1_655
Al3 Al9 2.783335 1_555
Al3 Ir2 2.786694 1_545
Al3 Ir4 2.786694 1_554
Al3 Ir6 2.847090 1_544
Al3 Ta1 3.045574 1_554
Al3 Ta0 3.045574 1_545
Al3 Y4 3.112715 1_554
Al3 Y0 3.112716 1_545
Al3 Y2 3.139612 1_555
Al4 Ir0 2.609301 1_555
Al4 Ir1 2.736519 1_445
Al4 Ir6 2.736519 1_544
Al4 Ir5 2.736520 1_454
Al4 Al9 2.770697 1_555
Al4 Ta0 3.088023 1_445
Al4 Ta1 3.088023 1_454
Al4 Ta2 3.088023 1_544
Al4 Y3 3.158101 1_554
Al4 Y2 3.158101 1_455
Al4 Y1 3.158102 1_545
Al5 Ir5 2.559761 1_555
Al5 Ir6 2.559761 1_555
Al5 Ir4 2.607609 1_555
Al5 Ta2 2.812643 1_555
Al5 Ta1 2.812643 1_555
Al5 Al7 2.851659 1_555
Al5 Al6 2.851659 1_555
Al5 Al8 2.954698 1_555
Al5 Y0 3.006264 1_556
Al5 Y1 3.069068 1_556
Al5 Y2 3.069068 1_556
Al6 Ir6 2.559761 1_555
Al6 Ir1 2.559761 1_555
Al6 Ir2 2.607609 1_555
Al6 Ta2 2.812643 1_555
Al6 Ta0 2.812643 1_555
Al6 Al7 2.851659 1_555
Al6 Al8 2.954698 1_555
Al6 Y4 3.006264 1_565
Al6 Y2 3.069068 1_565
Al6 Y3 3.069068 1_565
Al7 Ir5 2.559761 1_555
Al7 Ir1 2.559761 1_555
Al7 Ir3 2.607609 1_555
Al7 Ta0 2.812643 1_555
Al7 Ta1 2.812643 1_555
Al7 Al8 2.954698 1_555
Al7 Y5 3.006264 1_655
Al7 Y1 3.069068 1_655
Al7 Y3 3.069068 1_655
Al8 Ir4 2.544599 1_555
Al8 Ir3 2.544599 1_555
Al8 Ir2 2.544599 1_555
Al8 Ta0 2.804200 1_555
Al8 Ta2 2.804200 1_555
Al8 Ta1 2.804200 1_555
Al8 Y0 3.079803 1_555
Al8 Y5 3.079803 1_555
Al8 Y4 3.079803 1_555
Al9 Ir5 2.606997 1_454
Al9 Ir6 2.606997 1_544
Al9 Ir4 2.607027 1_554
Al9 Y4 3.110000 1_554
Al9 Y5 3.110001 1_554
Al9 Y3 3.137942 1_554
Al10 Ir1 2.606996 1_445
Al10 Ir6 2.606996 1_544
Al10 Ir2 2.607027 1_545
Al10 Al4 2.770697 1_555
Al10 Al9 2.771785 1_555
Al10 Al11 2.771785 1_555
Al10 Al3 2.783334 1_555
Al10 Al12 2.797304 1_555
Al10 Y5 3.110001 1_545
Al10 Y0 3.110001 1_545
Al10 Y1 3.137943 1_545
Al11 Ir5 2.606997 1_454
Al11 Ir1 2.606997 1_445
Al11 Ir3 2.607027 1_455
Al11 Al4 2.770697 1_555
Al11 Al9 2.771784 1_555
Al11 Al2 2.783335 1_555
Al11 Al12 2.797303 1_555
Al11 Y4 3.110000 1_455
Al11 Y0 3.110001 1_455
Al11 Y2 3.137942 1_455
Al12 Ir4 2.620996 1_554
Al12 Ir3 2.620996 1_455
Al12 Ir2 2.620996 1_545
Al12 Al3 2.780329 1_555
Al12 Al2 2.780329 1_555
Al12 Al9 2.797303 1_555
Al12 Y3 3.080539 1_555
Al12 Y2 3.080539 1_555
Al12 Y1 3.080540 1_555
Ir0 Ta0 2.623149 1_445
Ir0 Ta2 2.623149 1_544
Ir0 Ta1 2.623150 1_454
Ir1 Ta0 2.755283 1_555
Ir1 Y5 3.206866 1_655
Ir1 Y4 3.206866 1_565
Ir1 Y2 3.217377 1_565
Ir1 Y1 3.217377 1_655
Ir2 Ta2 2.747772 1_555
Ir2 Ta0 2.747772 1_555
Ir2 Y2 3.244038 1_565
Ir2 Y3 3.244038 1_565
Ir2 Y5 3.250417 1_555
Ir2 Y0 3.250417 1_555
Ir3 Ta1 2.747772 1_555
Ir3 Ta0 2.747772 1_555
Ir3 Y1 3.244037 1_655
Ir3 Y3 3.244037 1_655
Ir3 Y0 3.250416 1_555
Ir3 Y4 3.250416 1_555
Ir4 Ta1 2.747772 1_555
Ir4 Ta2 2.747772 1_555
Ir4 Y2 3.244037 1_556
Ir4 Y1 3.244037 1_556
Ir4 Y5 3.250416 1_555
Ir4 Y4 3.250416 1_555
Ir5 Ta1 2.755283 1_555
Ir5 Y5 3.206866 1_655
Ir5 Y0 3.206866 1_556
Ir5 Y2 3.217377 1_556
Ir5 Y3 3.217377 1_655
Ir6 Ta2 2.755283 1_555
Ir6 Y4 3.206866 1_565
Ir6 Y0 3.206866 1_556
Ir6 Y1 3.217377 1_556
Ir6 Y3 3.217377 1_565
