# generated using pymatgen
data_Sr10Si4Bi2F
_symmetry_space_group_name_H-M   'P 1'
_cell_length_a   9.79067454
_cell_length_b   9.79068995
_cell_length_c   9.79059182
_cell_angle_alpha   129.74523905
_cell_angle_beta   129.74537195
_cell_angle_gamma   73.81408537
_symmetry_Int_Tables_number   1
_chemical_formula_structural   Sr10Si4Bi2F
_chemical_formula_sum   'Sr10 Si4 Bi2 F1'
_cell_volume   541.25030065
_cell_formula_units_Z   1
loop_
 _symmetry_equiv_pos_site_id
 _symmetry_equiv_pos_as_xyz
  1  'x, y, z'
loop_
 _atom_site_type_symbol
 _atom_site_label
 _atom_site_symmetry_multiplicity
 _atom_site_fract_x
 _atom_site_fract_y
 _atom_site_fract_z
 _atom_site_occupancy
  Sr  Sr0  1  0.76989459  0.44278555  0.99999619  1
  Sr  Sr1  1  0.44278655  0.76989659  0.99999719  1
  Sr  Sr2  1  0.94593824  0.94593624  0.66478180  1
  Sr  Sr3  1  0.28114670  0.28114670  0.33520528  1
  Sr  Sr4  1  0.71883773  0.05405891  0.00000096  1
  Sr  Sr5  1  0.05405891  0.71883673  0.99999996  1
  Sr  Sr6  1  0.55721710  0.55721710  0.32710540  1
  Sr  Sr7  1  0.23010965  0.23010965  0.67289297  1
  Sr  Sr8  1  0.25000121  0.75000238  0.49999678  1
  Sr  Sr9  1  0.75000338  0.25000221  0.49999778  1
  Si  Si0  1  0.14094190  0.36163796  0.00000451  1
  Si  Si1  1  0.36163796  0.14094190  0.00000351  1
  Si  Si2  1  0.85906275  0.85906275  0.22070151  1
  Si  Si3  1  0.63836832  0.63836832  0.77930606  1
  Bi  Bi0  1  0.99999650  0.49999765  0.50001031  1
  Bi  Bi1  1  0.49999765  0.99999550  0.50001131  1
  F  F0  1  0.50000286  0.50000286  0.99999048  1
loop_
_geom_bond_atom_site_label_1
_geom_bond_atom_site_label_2
_geom_bond_distance
_geom_bond_site_symmetry_2
Si0 Si1 2.595159 1_555
Si0 Sr3 3.196724 1_555
Si0 Sr2 3.196831 1_444
Si0 Sr7 3.217443 1_554
Si0 Sr6 3.217456 1_555
Si0 Sr5 3.360919 1_554
Si0 Sr8 3.367327 1_555
Si0 Sr9 3.367386 1_454
Si0 Sr0 3.495580 1_454
Si1 Sr3 3.196736 1_555
Si1 Sr2 3.196815 1_444
Si1 Sr7 3.217432 1_554
Si1 Sr6 3.217462 1_555
Si1 Sr4 3.360914 1_555
Si1 Sr9 3.367328 1_555
Si1 Sr8 3.367395 1_544
Si1 Sr1 3.495576 1_544
Si2 Si3 2.595165 1_554
Si2 Sr4 3.196738 1_565
Si2 Sr5 3.196745 1_654
Si2 Sr1 3.217419 1_554
Si2 Sr0 3.217439 1_554
Si2 Sr2 3.360928 1_555
Si2 Sr8 3.367333 1_655
Si2 Sr9 3.367346 1_565
Si2 Sr7 3.495639 1_665
Si3 Sr5 3.196714 1_655
Si3 Sr4 3.196722 1_566
Si3 Sr1 3.217401 1_555
Si3 Sr0 3.217405 1_555
Si3 Sr3 3.361128 1_555
Si3 Sr8 3.367385 1_555
Si3 Sr9 3.367391 1_555
Si3 Sr6 3.495606 1_555
Bi0 Sr7 3.528023 1_655
Bi0 Sr6 3.528051 1_555
Bi0 Sr1 3.528147 1_655
Bi0 Sr0 3.528230 1_554
Bi0 Sr5 3.569411 1_655
Bi0 Sr4 3.569558 1_555
Bi0 Sr2 3.569562 1_555
Bi0 Sr3 3.569599 1_655
Bi0 Sr9 3.914180 1_555
Bi0 Sr8 3.914548 1_655
Bi1 Sr7 3.528020 1_565
Bi1 Sr6 3.528050 1_555
Bi1 Sr0 3.528148 1_565
Bi1 Sr1 3.528245 1_554
Bi1 Sr4 3.569399 1_566
Bi1 Sr5 3.569553 1_554
Bi1 Sr2 3.569573 1_555
Bi1 Sr3 3.569613 1_565
Bi1 Sr8 3.914172 1_555
Bi1 Sr9 3.914571 1_565
F0 Sr0 2.543776 1_555
F0 Sr1 2.543795 1_555
F0 Sr7 2.543843 1_555
F0 Sr6 2.543868 1_556
