# generated using pymatgen
data_HfSc15(Pt2O)4
_symmetry_space_group_name_H-M   'P 1'
_cell_length_a   8.73639784
_cell_length_b   8.70607830
_cell_length_c   8.73639922
_cell_angle_alpha   59.88472897
_cell_angle_beta   59.99999850
_cell_angle_gamma   59.88472730
_symmetry_Int_Tables_number   1
_chemical_formula_structural   HfSc15(Pt2O)4
_chemical_formula_sum   'Hf1 Sc15 Pt8 O4'
_cell_volume   469.04396554
_cell_formula_units_Z   1
loop_
 _symmetry_equiv_pos_site_id
 _symmetry_equiv_pos_as_xyz
  1  'x, y, z'
loop_
 _atom_site_type_symbol
 _atom_site_label
 _atom_site_symmetry_multiplicity
 _atom_site_fract_x
 _atom_site_fract_y
 _atom_site_fract_z
 _atom_site_occupancy
  Hf  Hf0  1  0.62500000  0.12500000  0.62500000  1
  Sc  Sc0  1  0.12500000  0.62500000  0.62500000  1
  Sc  Sc1  1  0.62500000  0.62500000  0.12500000  1
  Sc  Sc2  1  0.62500000  0.62500000  0.62500000  1
  Sc  Sc3  1  0.81813508  0.81854219  0.18166187  1
  Sc  Sc4  1  0.18111934  0.18243924  0.81822021  1
  Sc  Sc5  1  0.81822021  0.18243924  0.81822021  1
  Sc  Sc6  1  0.18166187  0.81854219  0.18166187  1
  Sc  Sc7  1  0.18166187  0.81854219  0.81813508  1
  Sc  Sc8  1  0.81822021  0.18243924  0.18111934  1
  Sc  Sc9  1  0.43186492  0.43145781  0.06833813  1
  Sc  Sc10  1  0.06888066  0.06756076  0.43177979  1
  Sc  Sc11  1  0.43177979  0.06756076  0.43177979  1
  Sc  Sc12  1  0.06833813  0.43145781  0.06833813  1
  Sc  Sc13  1  0.06833813  0.43145781  0.43186492  1
  Sc  Sc14  1  0.43177979  0.06756076  0.06888066  1
  Pt  Pt0  1  0.76702573  0.40883757  0.41206785  1
  Pt  Pt1  1  0.41147526  0.76557322  0.41147526  1
  Pt  Pt2  1  0.41206785  0.40883757  0.76702573  1
  Pt  Pt3  1  0.41206785  0.40883757  0.41206785  1
  Pt  Pt4  1  0.48297427  0.84116243  0.83793215  1
  Pt  Pt5  1  0.83852474  0.48442678  0.83852474  1
  Pt  Pt6  1  0.83793215  0.84116243  0.48297427  1
  Pt  Pt7  1  0.83793215  0.84116243  0.83793215  1
  O  O0  1  0.62500000  0.12500000  0.12500000  1
  O  O1  1  0.12500000  0.62500000  0.12500000  1
  O  O2  1  0.12500000  0.12500000  0.62500000  1
  O  O3  1  0.12500000  0.12500000  0.12500000  1
loop_
_geom_bond_atom_site_label_1
_geom_bond_atom_site_label_2
_geom_bond_distance
_geom_bond_site_symmetry_2
Hf0 Pt0 2.694852 1_555
Hf0 Pt4 2.694852 1_545
Hf0 Pt2 2.694852 1_555
Hf0 Pt6 2.694852 1_545
Hf0 Pt7 2.694858 1_545
Hf0 Pt3 2.694858 1_555
Pt0 Sc1 2.720919 1_555
Pt0 Sc2 2.720926 1_555
Pt0 Sc10 2.808920 1_655
Pt0 Sc13 2.829809 1_655
Pt0 Sc12 2.829810 1_655
Pt1 Sc0 2.712087 1_555
Pt1 Sc1 2.712087 1_555
Pt1 Sc2 2.712094 1_555
Pt1 Sc10 2.818272 1_565
Pt1 Sc14 2.818272 1_565
Pt1 Sc11 2.818282 1_565
Pt2 Sc0 2.720919 1_555
Pt2 Sc2 2.720926 1_555
Pt2 Sc14 2.808920 1_556
Pt2 Sc12 2.829810 1_556
Pt2 Sc9 2.829810 1_556
Pt3 Sc0 2.720924 1_555
Pt3 Sc1 2.720924 1_555
Pt3 Sc11 2.808913 1_555
Pt3 Sc13 2.829809 1_555
Pt3 Sc9 2.829810 1_555
Pt4 Sc1 2.720919 1_556
Pt4 Sc2 2.720926 1_555
Pt4 Sc4 2.808920 1_565
Pt4 Sc7 2.829809 1_555
Pt4 Sc6 2.829810 1_556
Pt5 Sc0 2.712087 1_655
Pt5 Sc1 2.712087 1_556
Pt5 Sc2 2.712094 1_555
Pt5 Sc4 2.818272 1_655
Pt5 Sc8 2.818272 1_556
Pt5 Sc5 2.818282 1_555
Pt6 Sc0 2.720919 1_655
Pt6 Sc2 2.720926 1_555
Pt6 Sc8 2.808920 1_565
Pt6 Sc6 2.829810 1_655
Pt6 Sc3 2.829810 1_555
Pt7 Sc0 2.720924 1_655
Pt7 Sc1 2.720924 1_556
Pt7 Sc5 2.808913 1_565
Pt7 Sc7 2.829809 1_655
Pt7 Sc3 2.829810 1_556
O0 Sc9 2.280995 1_555
O0 Sc3 2.280995 1_545
O0 Sc8 2.293618 1_555
O0 Sc14 2.293618 1_555
O0 Sc11 2.293624 1_555
O0 Sc5 2.293624 1_554
O1 Sc3 2.290924 1_455
O1 Sc9 2.290924 1_555
O1 Sc13 2.290925 1_555
O1 Sc7 2.290925 1_554
O1 Sc6 2.290930 1_555
O1 Sc12 2.290930 1_555
O2 Sc13 2.280995 1_555
O2 Sc7 2.280995 1_545
O2 Sc4 2.293618 1_555
O2 Sc10 2.293618 1_555
O2 Sc11 2.293624 1_555
O2 Sc5 2.293624 1_455
O3 Sc12 2.280993 1_555
O3 Sc6 2.280993 1_545
O3 Sc14 2.293626 1_555
O3 Sc8 2.293626 1_455
O3 Sc10 2.293627 1_555
O3 Sc4 2.293627 1_554
