# generated using pymatgen
data_LiHf2(AsRu)3
_symmetry_space_group_name_H-M   'P 1'
_cell_length_a   7.59015653
_cell_length_b   7.58930310
_cell_length_c   7.59094509
_cell_angle_alpha   128.18369109
_cell_angle_beta   121.12206911
_cell_angle_gamma   82.22595576
_symmetry_Int_Tables_number   1
_chemical_formula_structural   LiHf2(AsRu)3
_chemical_formula_sum   'Li2 Hf4 As6 Ru6'
_cell_volume   282.99201769
_cell_formula_units_Z   2
loop_
 _symmetry_equiv_pos_site_id
 _symmetry_equiv_pos_as_xyz
  1  'x, y, z'
loop_
 _atom_site_type_symbol
 _atom_site_label
 _atom_site_symmetry_multiplicity
 _atom_site_fract_x
 _atom_site_fract_y
 _atom_site_fract_z
 _atom_site_occupancy
  Li  Li0  1  0.47713400  0.71390126  0.73795084  1
  Li  Li1  1  0.52371249  0.26123642  0.23749169  1
  Hf  Hf0  1  0.75023555  0.83624343  0.58590469  1
  Hf  Hf1  1  0.24930819  0.83550849  0.08565739  1
  Hf  Hf2  1  0.05417714  0.25565817  0.70155500  1
  Hf  Hf3  1  0.94571708  0.64730695  0.20126314  1
  As  As0  1  0.28786054  0.28976336  0.50188465  1
  As  As1  1  0.71183315  0.21285007  0.00088516  1
  As  As2  1  0.33358128  0.58052562  0.25545269  1
  As  As3  1  0.66654519  0.92194568  0.24731687  1
  As  As4  1  0.17513938  0.92168709  0.75537158  1
  As  As5  1  0.82525087  0.58041784  0.74691070  1
  Ru  Ru0  1  0.50047112  0.49690177  0.99732474  1
  Ru  Ru1  1  0.99930094  0.49669396  0.49586358  1
  Ru  Ru2  1  0.08118749  0.24607971  0.08919149  1
  Ru  Ru3  1  0.91880738  0.00819457  0.16521361  1
  Ru  Ru4  1  0.34284558  0.00816285  0.58908919  1
  Ru  Ru5  1  0.65689264  0.24652175  0.66527496  1
loop_
_geom_bond_atom_site_label_1
_geom_bond_atom_site_label_2
_geom_bond_distance
_geom_bond_site_symmetry_2
Li0 Ru3 2.928467 1_566
Li0 Ru4 2.935439 1_565
Li0 Ru0 3.192120 1_555
Li0 Ru1 3.198544 1_455
Li1 Ru2 2.932237 1_555
Li1 Ru5 2.933206 1_555
Li1 Ru1 3.188069 1_555
Li1 Ru0 3.188611 1_554
Hf0 Ru2 2.842820 1_666
Hf0 Ru5 2.843460 1_565
Hf0 Ru1 2.919195 1_555
Hf0 Ru0 2.920154 1_554
Hf1 Ru3 2.841338 1_465
Hf1 Ru4 2.842714 1_565
Hf1 Ru0 2.924602 1_554
Hf1 Ru1 2.926016 1_454
Hf2 Ru4 2.809844 1_555
Hf2 Ru3 2.811191 1_455
Hf2 Ru2 2.888358 1_556
Hf2 Ru5 2.889307 1_455
Hf2 Ru0 2.932806 1_555
Hf2 Ru1 2.934401 1_455
Hf3 Ru5 2.809730 1_554
Hf3 Ru2 2.812055 1_655
Hf3 Ru3 2.887149 1_565
Hf3 Ru4 2.888735 1_665
Hf3 Ru1 2.927016 1_555
Hf3 Ru0 2.927644 1_554
As0 Ru5 2.480929 1_555
As0 Ru2 2.482195 1_555
As0 Ru1 2.513998 1_455
As0 Ru0 2.514440 1_555
As0 Ru4 2.530222 1_555
As0 Ru3 2.532066 1_455
As0 Li0 2.663577 1_555
As0 Hf1 2.793486 1_545
As0 Hf2 2.983046 1_555
As1 Ru3 2.479105 1_555
As1 Ru4 2.480255 1_554
As1 Ru1 2.511696 1_555
As1 Ru0 2.512626 1_554
As1 Ru5 2.531272 1_554
As1 Ru2 2.532184 1_655
As1 Li1 2.663314 1_555
As1 Hf0 2.787351 1_544
As1 Hf3 2.988011 1_555
As2 Ru2 2.561411 1_555
As2 Ru0 2.580220 1_554
As2 Ru4 2.582137 1_565
As2 Li1 2.611875 1_555
As2 Li0 2.686241 1_555
As2 Hf0 2.738794 1_555
As2 Hf2 2.763168 1_554
As2 Hf3 2.774021 1_455
As2 Hf1 2.777024 1_555
As3 Ru3 2.561254 1_565
As3 Ru0 2.579664 1_554
As3 Ru5 2.582264 1_565
As3 Li0 2.613425 1_554
As3 Li1 2.685153 1_565
As3 Hf1 2.741326 1_555
As3 Hf3 2.761630 1_555
As3 Hf2 2.773435 1_665
As3 Hf0 2.774861 1_555
As4 Ru4 2.560353 1_565
As4 Ru1 2.579967 1_455
As4 Ru2 2.582762 1_566
As4 Li0 2.614575 1_555
As4 Li1 2.685017 1_566
As4 Hf1 2.738500 1_556
As4 Hf3 2.764240 1_455
As4 Hf2 2.774343 1_565
As4 Hf0 2.778891 1_455
As5 Ru5 2.560127 1_555
As5 Ru1 2.580475 1_555
As5 Ru3 2.583451 1_566
As5 Li1 2.613271 1_555
As5 Li0 2.680989 1_555
As5 Hf0 2.739141 1_555
As5 Hf2 2.761006 1_655
As5 Hf3 2.773094 1_556
As5 Hf1 2.774015 1_656
Ru0 Ru5 2.816934 1_555
Ru0 Ru4 2.819446 1_555
Ru1 Ru2 2.817418 1_655
Ru1 Ru3 2.817887 1_555
