# generated using pymatgen
data_Rb3PdAu6
_symmetry_space_group_name_H-M   'P 1'
_cell_length_a   7.19152302
_cell_length_b   7.16104771
_cell_length_c   7.32524742
_cell_angle_alpha   90.00000000
_cell_angle_beta   90.00000000
_cell_angle_gamma   134.03119742
_symmetry_Int_Tables_number   1
_chemical_formula_structural   Rb3PdAu6
_chemical_formula_sum   'Rb3 Pd1 Au6'
_cell_volume   271.22227070
_cell_formula_units_Z   1
loop_
 _symmetry_equiv_pos_site_id
 _symmetry_equiv_pos_as_xyz
  1  'x, y, z'
loop_
 _atom_site_type_symbol
 _atom_site_label
 _atom_site_symmetry_multiplicity
 _atom_site_fract_x
 _atom_site_fract_y
 _atom_site_fract_z
 _atom_site_occupancy
  Rb  Rb0  1  0.50000000  0.50000000  0.00000000  1
  Rb  Rb1  1  0.66193517  0.33618650  0.50000000  1
  Rb  Rb2  1  0.33806483  0.66381350  0.50000000  1
  Pd  Pd0  1  0.00000000  0.50000000  0.00000000  1
  Au  Au0  1  0.00000000  0.00000000  0.50000000  1
  Au  Au1  1  0.50000000  0.00000000  0.00000000  1
  Au  Au2  1  0.10086363  0.88443102  0.19404098  1
  Au  Au3  1  0.89913637  0.11556898  0.19404098  1
  Au  Au4  1  0.89913637  0.11556898  0.80595902  1
  Au  Au5  1  0.10086363  0.88443102  0.80595902  1
loop_
_geom_bond_atom_site_label_1
_geom_bond_atom_site_label_2
_geom_bond_distance
_geom_bond_site_symmetry_2
Pd0 Rb0 3.595762 1_455
Pd0 Rb0 3.595762 1_555
Au0 Au4 2.658692 1_455
Au0 Au5 2.658692 1_545
Au0 Au2 2.658692 1_545
Au0 Au3 2.658692 1_455
Au0 Rb2 3.527340 1_555
Au0 Rb1 3.527340 1_445
Au0 Rb1 3.539154 1_555
Au0 Rb2 3.539154 1_445
Au1 Au3 2.764463 1_555
Au1 Au2 2.764463 1_545
Au1 Au4 2.764463 1_554
Au1 Au5 2.764463 1_544
Au1 Pd0 2.802235 1_655
Au1 Pd0 2.802235 1_545
Au1 Rb0 3.580524 1_545
Au1 Rb0 3.580524 1_555
Au1 Rb1 4.082831 1_555
Au1 Rb1 4.082831 1_554
Au1 Rb2 4.082831 1_545
Au1 Rb2 4.082831 1_544
Au2 Pd0 2.710957 1_555
Au2 Au5 2.842796 1_554
Au2 Au3 2.860456 1_465
Au2 Rb0 3.425614 1_455
Au2 Rb0 3.478801 1_565
Au2 Rb1 3.629522 1_455
Au2 Rb1 3.691090 1_565
Au2 Rb2 3.764995 1_555
Au3 Pd0 2.710957 1_655
Au3 Au4 2.842796 1_554
Au3 Rb0 3.425614 1_655
Au3 Rb0 3.478801 1_545
Au3 Rb2 3.629522 1_655
Au3 Rb2 3.691090 1_545
Au3 Rb1 3.764995 1_555
Au4 Pd0 2.710957 1_656
Au4 Au5 2.860456 1_645
Au4 Rb0 3.425614 1_656
Au4 Rb0 3.478801 1_546
Au4 Rb2 3.629522 1_655
Au4 Rb2 3.691090 1_545
Au4 Rb1 3.764995 1_555
Au5 Pd0 2.710957 1_556
Au5 Rb0 3.425614 1_456
Au5 Rb0 3.478801 1_566
Au5 Rb1 3.629522 1_455
Au5 Rb1 3.691090 1_565
Au5 Rb2 3.764995 1_555
