# generated using pymatgen
data_Ba6Li2Ta2P2O17
_symmetry_space_group_name_H-M   'P 1'
_cell_length_a   5.77045638
_cell_length_b   5.77045621
_cell_length_c   14.57507137
_cell_angle_alpha   90.00000000
_cell_angle_beta   90.00000000
_cell_angle_gamma   120.00000654
_symmetry_Int_Tables_number   1
_chemical_formula_structural   Ba6Li2Ta2P2O17
_chemical_formula_sum   'Ba6 Li2 Ta2 P2 O17'
_cell_volume   420.30214340
_cell_formula_units_Z   1
loop_
 _symmetry_equiv_pos_site_id
 _symmetry_equiv_pos_as_xyz
  1  'x, y, z'
loop_
 _atom_site_type_symbol
 _atom_site_label
 _atom_site_symmetry_multiplicity
 _atom_site_fract_x
 _atom_site_fract_y
 _atom_site_fract_z
 _atom_site_occupancy
  Ba  Ba0  1  0.66666700  0.33333300  0.66544226  1
  Ba  Ba1  1  0.33333300  0.66666700  0.33455774  1
  Ba  Ba2  1  0.66666700  0.33333300  0.17757979  1
  Ba  Ba3  1  0.33333300  0.66666700  0.82242021  1
  Ba  Ba4  1  0.00000000  0.00000000  0.00000000  1
  Ba  Ba5  1  0.00000000  0.00000000  0.50000000  1
  Li  Li0  1  0.00000000  0.00000000  0.71830569  1
  Li  Li1  1  0.00000000  0.00000000  0.28169431  1
  Ta  Ta0  1  0.33333300  0.66666700  0.58673059  1
  Ta  Ta1  1  0.66666700  0.33333300  0.41326941  1
  P  P0  1  0.33333300  0.66666700  0.10706428  1
  P  P1  1  0.66666700  0.33333300  0.89293572  1
  O  O0  1  0.17299277  0.34598554  0.65981460  1
  O  O1  1  0.81156040  0.18843960  0.85445709  1
  O  O2  1  0.50000000  0.00000000  0.50000000  1
  O  O3  1  0.65401446  0.82700723  0.65981460  1
  O  O4  1  0.18843960  0.37687920  0.14554291  1
  O  O5  1  0.33333300  0.66666700  0.00237666  1
  O  O6  1  0.82700723  0.65401446  0.34018540  1
  O  O7  1  0.82700723  0.17299277  0.34018540  1
  O  O8  1  0.62312080  0.81156040  0.14554291  1
  O  O9  1  0.66666700  0.33333300  0.99762334  1
  O  O10  1  0.81156040  0.62312080  0.85445709  1
  O  O11  1  0.37687920  0.18843960  0.85445709  1
  O  O12  1  0.18843960  0.81156040  0.14554291  1
  O  O13  1  0.00000000  0.50000000  0.50000000  1
  O  O14  1  0.17299277  0.82700723  0.65981460  1
  O  O15  1  0.34598554  0.17299277  0.34018540  1
  O  O16  1  0.50000000  0.50000000  0.50000000  1
loop_
_geom_bond_atom_site_label_1
_geom_bond_atom_site_label_2
_geom_bond_distance
_geom_bond_site_symmetry_2
Ba0 O3 2.887083 1_545
Ba0 O0 2.887083 1_655
Ba0 O14 2.887086 1_545
Ba0 O14 2.887086 1_655
Ba0 O3 2.887089 1_555
Ba0 O0 2.887089 1_555
Ba0 O2 2.930762 1_555
Ba0 O13 2.930762 1_655
Ba0 O16 2.930765 1_555
Ba0 O1 3.112345 1_555
Ba0 O10 3.112348 1_555
Ba0 O11 3.112348 1_555
Ba1 O15 2.887083 1_565
Ba1 O6 2.887083 1_455
Ba1 O7 2.887086 1_565
Ba1 O7 2.887086 1_455
Ba1 O15 2.887089 1_555
Ba1 O6 2.887089 1_555
Ba1 O2 2.930762 1_565
Ba1 O13 2.930762 1_555
Ba1 O16 2.930765 1_555
Ba1 O12 3.112345 1_555
Ba1 O4 3.112348 1_555
Ba1 O8 3.112348 1_555
Ba2 O9 2.622878 1_554
Ba2 O7 2.860949 1_555
Ba2 O6 2.860952 1_555
Ba2 O15 2.860952 1_555
Ba2 O8 2.930855 1_545
Ba2 O4 2.930856 1_655
Ba2 O12 2.930858 1_545
Ba2 O12 2.930858 1_655
Ba2 O8 2.930861 1_555
Ba2 O4 2.930861 1_555
Ba3 O5 2.622878 1_556
Ba3 O14 2.860949 1_555
Ba3 O0 2.860952 1_555
Ba3 O3 2.860952 1_555
Ba3 O11 2.930855 1_565
Ba3 O10 2.930856 1_455
Ba3 O1 2.930858 1_565
Ba3 O1 2.930858 1_455
Ba3 O11 2.930861 1_555
Ba3 O10 2.930861 1_555
Ba4 O4 2.836743 1_555
Ba4 O10 2.836743 1_444
Ba4 O8 2.836743 1_445
Ba4 O11 2.836743 1_554
Ba4 O12 2.836743 1_545
Ba4 O1 2.836743 1_454
Ba4 O9 3.331751 1_454
Ba4 O5 3.331751 1_545
Ba4 O5 3.331756 1_555
Ba4 O9 3.331756 1_444
Ba4 O9 3.331756 1_554
Ba4 O5 3.331756 1_445
Ba5 O16 2.885228 1_445
Ba5 O16 2.885228 1_555
Ba5 O13 2.885228 1_555
Ba5 O13 2.885228 1_545
Ba5 O2 2.885228 1_555
Ba5 O2 2.885228 1_455
Ba5 O0 2.900892 1_555
Ba5 O6 2.900892 1_445
Ba5 O3 2.900892 1_445
Ba5 O15 2.900892 1_555
Ba5 O14 2.900892 1_545
Ba5 O7 2.900892 1_455
Li0 O0 1.927763 1_555
Li0 O3 1.927763 1_445
Li0 O14 1.927763 1_545
Li1 O6 1.927763 1_445
Li1 O15 1.927763 1_555
Li1 O7 1.927763 1_455
O0 Ta0 1.924282 1_555
O1 P1 1.552973 1_555
O2 Ta0 2.091124 1_545
O2 Ta1 2.091124 1_555
O3 Ta0 1.924283 1_555
O4 P0 1.552977 1_555
O5 P0 1.525830 1_555
O6 Ta1 1.924282 1_555
O7 Ta1 1.924278 1_555
O8 P0 1.552977 1_555
O9 P1 1.525830 1_555
O10 P1 1.552977 1_555
O11 P1 1.552977 1_555
O12 P0 1.552973 1_555
O13 Ta0 2.091124 1_555
O13 Ta1 2.091124 1_455
O14 Ta0 1.924278 1_555
O15 Ta1 1.924283 1_555
O16 Ta0 2.091129 1_555
O16 Ta1 2.091129 1_555
