# generated using pymatgen
data_LuNbRh6
_symmetry_space_group_name_H-M   'P 1'
_cell_length_a   5.53929432
_cell_length_b   5.53929396
_cell_length_c   5.53929571
_cell_angle_alpha   60.00000114
_cell_angle_beta   60.00000327
_cell_angle_gamma   60.00000675
_symmetry_Int_Tables_number   1
_chemical_formula_structural   LuNbRh6
_chemical_formula_sum   'Lu1 Nb1 Rh6'
_cell_volume   120.18449505
_cell_formula_units_Z   1
loop_
 _symmetry_equiv_pos_site_id
 _symmetry_equiv_pos_as_xyz
  1  'x, y, z'
loop_
 _atom_site_type_symbol
 _atom_site_label
 _atom_site_symmetry_multiplicity
 _atom_site_fract_x
 _atom_site_fract_y
 _atom_site_fract_z
 _atom_site_occupancy
  Lu  Lu0  1  0.00000000  0.00000000  0.00000000  1
  Nb  Nb0  1  0.50000000  0.50000000  0.50000000  1
  Rh  Rh0  1  0.50000100  0.00000000  0.00000000  1
  Rh  Rh1  1  0.00000000  0.50000100  0.00000000  1
  Rh  Rh2  1  0.50000000  0.50000000  0.00000000  1
  Rh  Rh3  1  0.00000000  0.00000000  0.50000100  1
  Rh  Rh4  1  0.50000000  0.00000000  0.50000000  1
  Rh  Rh5  1  0.00000000  0.50000000  0.50000000  1
loop_
_geom_bond_atom_site_label_1
_geom_bond_atom_site_label_2
_geom_bond_distance
_geom_bond_site_symmetry_2
Lu0 Rh1 2.769641 1_545
Lu0 Rh0 2.769642 1_455
Lu0 Rh3 2.769642 1_554
Lu0 Rh2 2.769647 1_455
Lu0 Rh2 2.769647 1_545
Lu0 Rh5 2.769647 1_545
Lu0 Rh5 2.769647 1_554
Lu0 Rh4 2.769648 1_455
Lu0 Rh4 2.769648 1_554
Lu0 Rh1 2.769653 1_555
Lu0 Rh0 2.769653 1_555
Lu0 Rh3 2.769653 1_555
Nb0 Rh4 2.769647 1_565
Nb0 Rh4 2.769647 1_555
Nb0 Rh5 2.769647 1_555
Nb0 Rh5 2.769647 1_655
Nb0 Rh3 2.769647 1_565
Nb0 Rh3 2.769647 1_655
Nb0 Rh0 2.769647 1_565
Nb0 Rh0 2.769647 1_556
Nb0 Rh1 2.769648 1_655
Nb0 Rh1 2.769648 1_556
Nb0 Rh2 2.769648 1_556
Nb0 Rh2 2.769648 1_555
Rh0 Rh1 2.769642 1_645
Rh0 Rh3 2.769642 1_654
Rh0 Rh2 2.769644 1_555
Rh0 Rh4 2.769645 1_555
Rh0 Rh2 2.769650 1_545
Rh0 Rh4 2.769651 1_554
Rh0 Rh1 2.769653 1_555
Rh0 Rh3 2.769653 1_555
Rh1 Rh3 2.769642 1_564
Rh1 Rh2 2.769644 1_555
Rh1 Rh5 2.769645 1_555
Rh1 Rh2 2.769650 1_455
Rh1 Rh5 2.769651 1_554
Rh1 Rh3 2.769653 1_555
Rh2 Rh4 2.769647 1_555
Rh2 Rh4 2.769647 1_564
Rh2 Rh5 2.769648 1_654
Rh2 Rh5 2.769648 1_555
Rh3 Rh5 2.769644 1_555
Rh3 Rh4 2.769644 1_555
Rh3 Rh5 2.769650 1_545
Rh3 Rh4 2.769650 1_455
Rh4 Rh5 2.769647 1_555
Rh4 Rh5 2.769647 1_645
