# generated using pymatgen
data_Lu7CoI12
_symmetry_space_group_name_H-M   'P 1'
_cell_length_a   9.51561572
_cell_length_b   9.51561588
_cell_length_c   9.51561589
_cell_angle_alpha   106.86505104
_cell_angle_beta   106.86504430
_cell_angle_gamma   106.86505078
_symmetry_Int_Tables_number   1
_chemical_formula_structural   Lu7CoI12
_chemical_formula_sum   'Lu7 Co1 I12'
_cell_volume   720.18223205
_cell_formula_units_Z   1
loop_
 _symmetry_equiv_pos_site_id
 _symmetry_equiv_pos_as_xyz
  1  'x, y, z'
loop_
 _atom_site_type_symbol
 _atom_site_label
 _atom_site_symmetry_multiplicity
 _atom_site_fract_x
 _atom_site_fract_y
 _atom_site_fract_z
 _atom_site_occupancy
  Lu  Lu0  1  0.50000000  0.50000000  0.50000000  1
  Lu  Lu1  1  0.02127484  0.09039716  0.28257972  1
  Lu  Lu2  1  0.09039716  0.28257972  0.02127484  1
  Lu  Lu3  1  0.28257972  0.02127484  0.09039716  1
  Lu  Lu4  1  0.97872516  0.90960284  0.71742028  1
  Lu  Lu5  1  0.90960284  0.71742028  0.97872516  1
  Lu  Lu6  1  0.71742028  0.97872516  0.90960284  1
  Co  Co0  1  0.00000000  0.00000000  0.00000000  1
  I  I0  1  0.16131413  0.46503071  0.38822229  1
  I  I1  1  0.46503071  0.38822229  0.16131413  1
  I  I2  1  0.38822229  0.16131413  0.46503071  1
  I  I3  1  0.83868587  0.53496929  0.61177771  1
  I  I4  1  0.53496929  0.61177771  0.83868587  1
  I  I5  1  0.61177771  0.83868587  0.53496929  1
  I  I6  1  0.67609192  0.07281501  0.22415458  1
  I  I7  1  0.07281501  0.22415458  0.67609192  1
  I  I8  1  0.22415458  0.67609192  0.07281501  1
  I  I9  1  0.32390808  0.92718499  0.77584542  1
  I  I10  1  0.92718499  0.77584542  0.32390808  1
  I  I11  1  0.77584542  0.32390808  0.92718499  1
loop_
_geom_bond_atom_site_label_1
_geom_bond_atom_site_label_2
_geom_bond_distance
_geom_bond_site_symmetry_2
Co0 Lu5 2.500445 1_444
Co0 Lu2 2.500445 1_555
Co0 Lu1 2.500445 1_555
Co0 Lu4 2.500445 1_444
Co0 Lu6 2.500445 1_444
Co0 Lu3 2.500445 1_555
I0 Lu0 2.968487 1_555
I0 Lu1 3.143499 1_555
I0 Lu2 3.177620 1_555
I1 Lu0 2.968487 1_555
I1 Lu2 3.143499 1_555
I1 Lu3 3.177620 1_555
I2 Lu0 2.968487 1_555
I2 Lu3 3.143499 1_555
I2 Lu1 3.177620 1_555
I3 Lu0 2.968487 1_555
I3 Lu4 3.143499 1_555
I3 Lu5 3.177620 1_555
I4 Lu0 2.968487 1_555
I4 Lu5 3.143499 1_555
I4 Lu6 3.177620 1_555
I5 Lu0 2.968487 1_555
I5 Lu6 3.143499 1_555
I5 Lu4 3.177620 1_555
I6 Lu6 3.040984 1_544
I6 Lu1 3.113432 1_655
I6 Lu3 3.418877 1_555
I7 Lu4 3.040984 1_445
I7 Lu2 3.113432 1_556
I7 Lu1 3.418877 1_555
I8 Lu5 3.040984 1_454
I8 Lu3 3.113432 1_565
I8 Lu2 3.418877 1_555
I9 Lu3 3.040984 1_566
I9 Lu4 3.113432 1_455
I9 Lu6 3.418877 1_555
I10 Lu1 3.040984 1_665
I10 Lu5 3.113432 1_554
I10 Lu4 3.418877 1_555
I11 Lu2 3.040984 1_656
I11 Lu6 3.113432 1_545
I11 Lu5 3.418877 1_555
