# generated using pymatgen
data_Sc22CoOs2Ru5
_symmetry_space_group_name_H-M   'P 1'
_cell_length_a   9.42706650
_cell_length_b   9.42706654
_cell_length_c   9.39499960
_cell_angle_alpha   60.11245978
_cell_angle_beta   60.11245964
_cell_angle_gamma   59.77508847
_symmetry_Int_Tables_number   1
_chemical_formula_structural   Sc22CoOs2Ru5
_chemical_formula_sum   'Sc22 Co1 Os2 Ru5'
_cell_volume   590.37087169
_cell_formula_units_Z   1
loop_
 _symmetry_equiv_pos_site_id
 _symmetry_equiv_pos_as_xyz
  1  'x, y, z'
loop_
 _atom_site_type_symbol
 _atom_site_label
 _atom_site_symmetry_multiplicity
 _atom_site_fract_x
 _atom_site_fract_y
 _atom_site_fract_z
 _atom_site_occupancy
  Sc  Sc0  1  0.84309936  0.84309936  0.84501920  1
  Sc  Sc1  1  0.53121692  0.15498080  0.15690064  1
  Sc  Sc2  1  0.15690064  0.15690064  0.53121692  1
  Sc  Sc3  1  0.15498080  0.53121692  0.15690064  1
  Sc  Sc4  1  0.84309936  0.84309936  0.46878308  1
  Sc  Sc5  1  0.84501920  0.46878308  0.84309936  1
  Sc  Sc6  1  0.46878308  0.84501920  0.84309936  1
  Sc  Sc7  1  0.15690064  0.15690064  0.15498080  1
  Sc  Sc8  1  0.19734876  0.80265124  0.19734876  1
  Sc  Sc9  1  0.19734876  0.80265124  0.80265124  1
  Sc  Sc10  1  0.80265124  0.19734876  0.19734876  1
  Sc  Sc11  1  0.80213265  0.80213265  0.19786735  1
  Sc  Sc12  1  0.19786735  0.19786735  0.80213265  1
  Sc  Sc13  1  0.80265124  0.19734876  0.80265124  1
  Sc  Sc14  1  0.38594775  0.38594775  0.38287037  1
  Sc  Sc15  1  0.15476686  0.61712963  0.61405225  1
  Sc  Sc16  1  0.61712963  0.15476686  0.61405225  1
  Sc  Sc17  1  0.61405225  0.61405225  0.15476686  1
  Sc  Sc18  1  0.38287037  0.84523314  0.38594775  1
  Sc  Sc19  1  0.38594775  0.38594775  0.84523314  1
  Sc  Sc20  1  0.84523314  0.38287037  0.38594775  1
  Sc  Sc21  1  0.61405225  0.61405225  0.61712963  1
  Co  Co0  1  0.50000000  0.50000000  0.50000000  1
  Os  Os0  1  0.50000000  0.50000000  0.00000000  1
  Os  Os1  1  0.00000000  0.00000000  0.50000000  1
  Ru  Ru0  1  0.50000000  0.00000000  0.50000000  1
  Ru  Ru1  1  0.00000000  0.50000000  0.50000000  1
  Ru  Ru2  1  0.50000000  0.00000000  0.00000000  1
  Ru  Ru3  1  0.00000000  0.50000000  0.00000000  1
  Ru  Ru4  1  0.00000000  0.00000000  0.00000000  1
loop_
_geom_bond_atom_site_label_1
_geom_bond_atom_site_label_2
_geom_bond_distance
_geom_bond_site_symmetry_2
Sc0 Sc11 2.980933 1_556
Sc0 Sc9 3.000129 1_655
Sc0 Sc13 3.000129 1_565
Sc0 Sc15 3.135371 1_655
Sc0 Sc16 3.135371 1_565
Sc0 Sc17 3.156394 1_556
Sc1 Sc11 2.980936 1_545
Sc1 Sc13 3.000132 1_554
Sc1 Sc10 3.000138 1_555
Sc1 Sc19 3.135371 1_554
Sc1 Sc14 3.135371 1_555
Sc1 Sc18 3.156394 1_545
Sc2 Sc9 3.000132 1_545
Sc2 Sc20 3.135371 1_455
Sc3 Sc9 3.000132 1_554
Sc3 Sc8 3.000138 1_555
Sc4 Sc8 3.000132 1_655
Sc6 Sc8 3.000132 1_556
Sc6 Sc9 3.000138 1_555
Sc7 Sc8 3.000129 1_545
Sc10 Sc7 3.000129 1_655
Sc10 Sc5 3.000132 1_554
Sc10 Sc4 3.000132 1_545
Sc10 Sc20 3.295982 1_555
Sc10 Sc14 3.295989 1_555
Sc10 Sc16 3.295990 1_555
Sc10 Sc17 3.295991 1_555
Sc11 Sc3 2.980936 1_655
Sc11 Sc4 2.980942 1_555
Sc11 Sc17 3.323767 1_555
Sc11 Sc21 3.323774 1_555
Sc11 Sc18 3.323776 1_555
Sc11 Sc20 3.323776 1_555
Sc12 Sc7 2.980933 1_556
Sc12 Sc5 2.980936 1_455
Sc12 Sc6 2.980936 1_545
Sc12 Sc2 2.980942 1_555
Sc12 Sc19 3.323767 1_555
Sc12 Sc14 3.323774 1_555
Sc12 Sc16 3.323776 1_555
Sc12 Sc15 3.323776 1_555
Sc13 Sc2 3.000132 1_655
Sc13 Sc5 3.000138 1_555
Sc13 Sc16 3.295982 1_555
Sc13 Sc21 3.295989 1_555
Sc13 Sc20 3.295990 1_555
Sc13 Sc19 3.295991 1_555
Sc14 Sc17 3.051372 1_555
Sc14 Sc16 3.071607 1_555
Sc14 Sc15 3.071607 1_555
Sc14 Sc3 3.135371 1_555
Sc14 Sc2 3.156394 1_555
Sc14 Sc8 3.295989 1_555
Sc15 Sc18 3.051359 1_555
Sc15 Sc19 3.071593 1_555
Sc15 Sc4 3.135371 1_455
Sc15 Sc5 3.156394 1_455
Sc15 Sc9 3.295982 1_555
Sc15 Sc8 3.295990 1_555
Sc16 Sc20 3.051359 1_555
Sc16 Sc19 3.071593 1_555
Sc16 Sc4 3.135371 1_545
Sc16 Sc6 3.156394 1_545
Sc17 Sc18 3.071593 1_555
Sc17 Sc20 3.071593 1_555
Sc17 Sc5 3.135371 1_554
Sc17 Sc6 3.135371 1_554
Sc17 Sc8 3.295991 1_555
Sc18 Sc21 3.071607 1_555
Sc18 Sc2 3.135371 1_565
Sc18 Sc7 3.135371 1_565
Sc18 Sc8 3.295982 1_555
Sc18 Sc9 3.295990 1_555
Sc19 Sc21 3.051372 1_555
Sc19 Sc3 3.135371 1_556
Sc19 Sc7 3.156394 1_556
Sc19 Sc9 3.295991 1_555
Sc20 Sc21 3.071607 1_555
Sc20 Sc7 3.135371 1_655
Sc20 Sc3 3.156394 1_655
Sc21 Sc5 3.135371 1_555
Sc21 Sc6 3.135371 1_555
Sc21 Sc4 3.156394 1_555
Sc21 Sc9 3.295989 1_555
Co0 Sc19 2.654253 1_555
Co0 Sc17 2.654253 1_555
Co0 Sc20 2.654253 1_555
Co0 Sc15 2.654253 1_555
Co0 Sc18 2.654253 1_555
Co0 Sc16 2.654253 1_555
Co0 Sc21 2.654261 1_555
Co0 Sc14 2.654261 1_555
Os0 Sc5 2.743882 1_554
Os0 Sc3 2.743882 1_555
Os0 Sc6 2.743882 1_554
Os0 Sc1 2.743882 1_555
Os0 Sc14 2.950610 1_555
Os0 Sc21 2.950610 1_554
Os0 Sc17 2.950618 1_555
Os0 Sc19 2.950618 1_554
Os1 Sc2 2.743874 1_555
Os1 Sc4 2.743874 1_445
Os1 Sc0 2.743880 1_445
Os1 Sc7 2.743880 1_555
Os1 Sc18 2.950611 1_545
Os1 Sc16 2.950611 1_455
Os1 Sc20 2.950611 1_455
Os1 Sc15 2.950611 1_545
Ru0 Sc6 2.721332 1_545
Ru0 Sc1 2.721332 1_555
Ru0 Sc4 2.721333 1_545
Ru0 Sc2 2.721333 1_555
Ru0 Sc14 2.975757 1_555
Ru0 Sc21 2.975757 1_545
Ru0 Sc16 2.975765 1_555
Ru0 Sc18 2.975765 1_545
Ru1 Sc5 2.721332 1_455
Ru1 Sc3 2.721332 1_555
Ru1 Sc4 2.721333 1_455
Ru1 Sc2 2.721333 1_555
Ru1 Sc14 2.975757 1_555
Ru1 Sc21 2.975757 1_455
Ru1 Sc15 2.975765 1_555
Ru1 Sc20 2.975765 1_455
Ru2 Sc1 2.721324 1_555
Ru2 Sc6 2.721324 1_544
Ru2 Sc0 2.721331 1_544
Ru2 Sc7 2.721331 1_555
Ru2 Sc18 2.975758 1_545
Ru2 Sc16 2.975758 1_554
Ru2 Sc19 2.975758 1_554
Ru2 Sc17 2.975758 1_545
Ru3 Sc3 2.721324 1_555
Ru3 Sc5 2.721324 1_454
Ru3 Sc0 2.721331 1_454
Ru3 Sc7 2.721331 1_555
Ru3 Sc20 2.975758 1_455
Ru3 Sc15 2.975758 1_554
Ru3 Sc19 2.975758 1_554
Ru3 Sc17 2.975758 1_455
Ru4 Sc8 2.622082 1_545
Ru4 Sc10 2.622082 1_455
Ru4 Sc9 2.622082 1_544
Ru4 Sc13 2.622082 1_454
Ru4 Sc12 2.646887 1_554
Ru4 Sc11 2.646887 1_445
