# generated using pymatgen
data_CaScGaS4
_symmetry_space_group_name_H-M   'P 1'
_cell_length_a   6.17440062
_cell_length_b   7.73289131
_cell_length_c   13.69021325
_cell_angle_alpha   90.00000000
_cell_angle_beta   90.00000000
_cell_angle_gamma   90.00000000
_symmetry_Int_Tables_number   1
_chemical_formula_structural   CaScGaS4
_chemical_formula_sum   'Ca4 Sc4 Ga4 S16'
_cell_volume   653.65249667
_cell_formula_units_Z   4
loop_
 _symmetry_equiv_pos_site_id
 _symmetry_equiv_pos_as_xyz
  1  'x, y, z'
loop_
 _atom_site_type_symbol
 _atom_site_label
 _atom_site_symmetry_multiplicity
 _atom_site_fract_x
 _atom_site_fract_y
 _atom_site_fract_z
 _atom_site_occupancy
  Ca  Ca0  1  0.49322369  0.50000000  0.23596893  1
  Ca  Ca1  1  0.99322469  0.00000000  0.26403107  1
  Ca  Ca2  1  0.00677731  0.50000000  0.73596893  1
  Ca  Ca3  1  0.50677631  0.00000000  0.76403107  1
  Sc  Sc0  1  0.00000000  0.25000000  0.00000000  1
  Sc  Sc1  1  0.00000000  0.75000100  0.00000000  1
  Sc  Sc2  1  0.50000100  0.25000000  0.50000000  1
  Sc  Sc3  1  0.50000100  0.75000100  0.50000000  1
  Ga  Ga0  1  0.40467665  0.00000000  0.08061953  1
  Ga  Ga1  1  0.90467965  0.50000000  0.41938047  1
  Ga  Ga2  1  0.09532235  0.00000000  0.58061953  1
  Ga  Ga3  1  0.59532235  0.50000000  0.91938147  1
  S  S0  1  0.76634617  0.50000000  0.06976011  1
  S  S1  1  0.76944904  0.00000000  0.08109797  1
  S  S2  1  0.24639638  0.23410427  0.15214973  1
  S  S3  1  0.24639638  0.76589673  0.15214973  1
  S  S4  1  0.74639738  0.26589473  0.34784927  1
  S  S5  1  0.74639738  0.73410527  0.34784927  1
  S  S6  1  0.26945004  0.50000000  0.41890203  1
  S  S7  1  0.26634517  0.00000000  0.43023989  1
  S  S8  1  0.73365483  0.50000000  0.56976011  1
  S  S9  1  0.73055196  0.00000000  0.58109797  1
  S  S10  1  0.25360462  0.23410427  0.65214973  1
  S  S11  1  0.25360462  0.76589673  0.65214973  1
  S  S12  1  0.75360362  0.26589473  0.84784927  1
  S  S13  1  0.75360362  0.73410527  0.84784927  1
  S  S14  1  0.23055096  0.50000000  0.91890203  1
  S  S15  1  0.23365583  0.00000000  0.93023989  1
loop_
_geom_bond_atom_site_label_1
_geom_bond_atom_site_label_2
_geom_bond_distance
_geom_bond_site_symmetry_2
Ca0 S2 2.804834 1_555
Ca0 S3 2.804840 1_555
Ca0 S0 2.832214 1_555
Ca0 S5 2.840212 1_555
Ca0 S4 2.840212 1_555
Ca0 S6 2.860243 1_555
Ca1 S4 2.804823 1_555
Ca1 S5 2.804823 1_545
Ca1 S7 2.832207 1_655
Ca1 S3 2.840203 1_645
Ca1 S2 2.840208 1_655
Ca1 S1 2.860249 1_555
Ca2 S10 2.804834 1_555
Ca2 S11 2.804840 1_555
Ca2 S8 2.832214 1_455
Ca2 S13 2.840212 1_455
Ca2 S12 2.840212 1_455
Ca2 S14 2.860243 1_555
Ca3 S12 2.804823 1_555
Ca3 S13 2.804823 1_545
Ca3 S15 2.832207 1_555
Ca3 S11 2.840203 1_545
Ca3 S10 2.840208 1_555
Ca3 S9 2.860249 1_555
Ga0 S1 2.252260 1_555
Ga0 S3 2.278423 1_545
Ga0 S2 2.278430 1_555
Ga0 S15 2.313741 1_554
Ga1 S6 2.252248 1_655
Ga1 S5 2.278447 1_555
Ga1 S4 2.278447 1_555
Ga1 S8 2.313753 1_555
Ga2 S9 2.252248 1_455
Ga2 S11 2.278429 1_545
Ga2 S10 2.278435 1_555
Ga2 S7 2.313747 1_555
Ga3 S14 2.252254 1_555
Ga3 S13 2.278450 1_555
Ga3 S12 2.278450 1_555
Ga3 S0 2.313738 1_556
S0 Sc0 2.594367 1_655
S0 Sc1 2.594372 1_655
S1 Sc1 2.645064 1_645
S1 Sc0 2.645070 1_655
S2 Sc0 2.582314 1_555
S3 Sc1 2.582314 1_555
S4 Sc2 2.582325 1_555
S5 Sc3 2.582325 1_555
S6 Sc2 2.645070 1_555
S6 Sc3 2.645075 1_555
S7 Sc3 2.594368 1_545
S7 Sc2 2.594373 1_555
S8 Sc2 2.594367 1_555
S8 Sc3 2.594372 1_555
S9 Sc3 2.645064 1_545
S9 Sc2 2.645070 1_555
S10 Sc2 2.582314 1_555
S11 Sc3 2.582314 1_555
S12 Sc0 2.582325 1_656
S13 Sc1 2.582325 1_656
S14 Sc0 2.645070 1_556
S14 Sc1 2.645075 1_556
S15 Sc1 2.594368 1_546
S15 Sc0 2.594373 1_556
