# generated using pymatgen
data_CsLu2BiTe5
_symmetry_space_group_name_H-M   'P 1'
_cell_length_a   4.38299678
_cell_length_b   13.17998060
_cell_length_c   23.88017616
_cell_angle_alpha   90.00000000
_cell_angle_beta   90.00000000
_cell_angle_gamma   90.00000000
_symmetry_Int_Tables_number   1
_chemical_formula_structural   CsLu2BiTe5
_chemical_formula_sum   'Cs4 Lu8 Bi4 Te20'
_cell_volume   1379.50553909
_cell_formula_units_Z   4
loop_
 _symmetry_equiv_pos_site_id
 _symmetry_equiv_pos_as_xyz
  1  'x, y, z'
loop_
 _atom_site_type_symbol
 _atom_site_label
 _atom_site_symmetry_multiplicity
 _atom_site_fract_x
 _atom_site_fract_y
 _atom_site_fract_z
 _atom_site_occupancy
  Cs  Cs0  1  0.25000000  0.34950554  0.08703625  1
  Cs  Cs1  1  0.75000000  0.65049446  0.91296375  1
  Cs  Cs2  1  0.75000000  0.84950554  0.41296375  1
  Cs  Cs3  1  0.25000000  0.15049446  0.58703625  1
  Lu  Lu0  1  0.25000000  0.79468752  0.66771861  1
  Lu  Lu1  1  0.75000000  0.20531248  0.33228139  1
  Lu  Lu2  1  0.75000000  0.29468752  0.83228139  1
  Lu  Lu3  1  0.25000000  0.70531248  0.16771861  1
  Lu  Lu4  1  0.25000000  0.39279048  0.44580781  1
  Lu  Lu5  1  0.75000000  0.60720952  0.55419219  1
  Lu  Lu6  1  0.75000000  0.89279048  0.05419219  1
  Lu  Lu7  1  0.25000000  0.10720952  0.94580781  1
  Bi  Bi0  1  0.25000000  0.44758470  0.70247702  1
  Bi  Bi1  1  0.75000000  0.55241530  0.29752298  1
  Bi  Bi2  1  0.75000000  0.94758470  0.79752298  1
  Bi  Bi3  1  0.25000000  0.05241530  0.20247702  1
  Te  Te0  1  0.25000000  0.44874359  0.56815888  1
  Te  Te1  1  0.75000000  0.55125641  0.43184112  1
  Te  Te2  1  0.75000000  0.94874359  0.93184112  1
  Te  Te3  1  0.25000000  0.05125641  0.06815888  1
  Te  Te4  1  0.25000000  0.76693514  0.54379070  1
  Te  Te5  1  0.75000000  0.23306486  0.45620930  1
  Te  Te6  1  0.75000000  0.26693514  0.95620930  1
  Te  Te7  1  0.25000000  0.73306486  0.04379070  1
  Te  Te8  1  0.25000000  0.79058097  0.79595567  1
  Te  Te9  1  0.75000000  0.20941903  0.20404433  1
  Te  Te10  1  0.75000000  0.29058097  0.70404433  1
  Te  Te11  1  0.25000000  0.70941903  0.29595567  1
  Te  Te12  1  0.25000000  0.45072882  0.83130318  1
  Te  Te13  1  0.75000000  0.54927118  0.16869682  1
  Te  Te14  1  0.75000000  0.95072882  0.66869682  1
  Te  Te15  1  0.25000000  0.04927118  0.33130318  1
  Te  Te16  1  0.25000000  0.36677616  0.31990940  1
  Te  Te17  1  0.75000000  0.63322384  0.68009060  1
  Te  Te18  1  0.75000000  0.86677616  0.18009060  1
  Te  Te19  1  0.25000000  0.13322384  0.81990940  1
loop_
_geom_bond_atom_site_label_1
_geom_bond_atom_site_label_2
_geom_bond_distance
_geom_bond_site_symmetry_2
Cs0 Te13 3.941781 1_555
Cs0 Te13 3.941781 1_455
Cs0 Te3 3.956682 1_555
Cs0 Te6 3.968306 1_454
Cs0 Te6 3.968306 1_554
Cs0 Te9 4.002379 1_455
Cs0 Te9 4.002379 1_555
Cs1 Te12 3.941781 1_655
Cs1 Te12 3.941781 1_555
Cs1 Te2 3.956682 1_555
Cs1 Te7 3.968306 1_556
Cs1 Te7 3.968306 1_656
Cs1 Te8 4.002379 1_555
Cs1 Te8 4.002379 1_655
Cs2 Te15 3.941781 1_665
Cs2 Te15 3.941781 1_565
Cs2 Te1 3.956682 1_555
Cs2 Te4 3.968306 1_655
Cs2 Te4 3.968306 1_555
Cs2 Te11 4.002379 1_655
Cs2 Te11 4.002379 1_555
Cs3 Te14 3.941781 1_545
Cs3 Te14 3.941781 1_445
Cs3 Te0 3.956682 1_555
Cs3 Te5 3.968306 1_555
Cs3 Te5 3.968306 1_455
Cs3 Te10 4.002379 1_555
Cs3 Te10 4.002379 1_455
Lu0 Te4 2.981939 1_555
Lu0 Te14 3.005479 1_555
Lu0 Te14 3.005479 1_455
Lu0 Te8 3.062802 1_555
Lu0 Te17 3.068992 1_555
Lu0 Te17 3.068992 1_455
Lu1 Te5 2.981939 1_555
Lu1 Te15 3.005479 1_555
Lu1 Te15 3.005479 1_655
Lu1 Te9 3.062802 1_555
Lu1 Te16 3.068992 1_555
Lu1 Te16 3.068992 1_655
Lu2 Te6 2.981939 1_555
Lu2 Te12 3.005479 1_655
Lu2 Te12 3.005479 1_555
Lu2 Te10 3.062802 1_555
Lu2 Te19 3.068992 1_655
Lu2 Te19 3.068992 1_555
Lu3 Te7 2.981939 1_555
Lu3 Te13 3.005479 1_555
Lu3 Te13 3.005479 1_455
Lu3 Te11 3.062802 1_555
Lu3 Te18 3.068992 1_455
Lu3 Te18 3.068992 1_555
Lu4 Te0 3.013397 1_555
Lu4 Te16 3.025964 1_555
Lu4 Te1 3.045663 1_555
Lu4 Te1 3.045663 1_455
Lu4 Te5 3.048958 1_555
Lu4 Te5 3.048958 1_455
Lu5 Te1 3.013397 1_555
Lu5 Te17 3.025964 1_555
Lu5 Te0 3.045663 1_555
Lu5 Te0 3.045663 1_655
Lu5 Te4 3.048958 1_655
Lu5 Te4 3.048958 1_555
Lu6 Te2 3.013397 1_554
Lu6 Te18 3.025964 1_555
Lu6 Te3 3.045663 1_565
Lu6 Te3 3.045663 1_665
Lu6 Te7 3.048958 1_555
Lu6 Te7 3.048958 1_655
Lu7 Te3 3.013397 1_556
Lu7 Te19 3.025964 1_555
Lu7 Te2 3.045663 1_445
Lu7 Te2 3.045663 1_545
Lu7 Te6 3.048958 1_455
Lu7 Te6 3.048958 1_555
Bi0 Te10 3.014315 1_555
Bi0 Te10 3.014315 1_455
Bi0 Te12 3.076671 1_555
Bi0 Te0 3.207577 1_555
Bi0 Te17 3.327896 1_555
Bi0 Te17 3.327896 1_455
Bi1 Te11 3.014315 1_555
Bi1 Te11 3.014315 1_655
Bi1 Te13 3.076671 1_555
Bi1 Te1 3.207577 1_555
Bi1 Te16 3.327896 1_555
Bi1 Te16 3.327896 1_655
Bi2 Te8 3.014315 1_655
Bi2 Te8 3.014315 1_555
Bi2 Te14 3.076671 1_555
Bi2 Te2 3.207577 1_555
Bi2 Te19 3.327896 1_665
Bi2 Te19 3.327896 1_565
Bi3 Te9 3.014315 1_555
Bi3 Te9 3.014315 1_455
Bi3 Te15 3.076671 1_555
Bi3 Te3 3.207577 1_555
Bi3 Te18 3.327896 1_445
Bi3 Te18 3.327896 1_545
