# generated using pymatgen
data_Sr5Sn3F
_symmetry_space_group_name_H-M   'P 1'
_cell_length_a   10.08552705
_cell_length_b   10.08552749
_cell_length_c   10.08552694
_cell_angle_alpha   129.61444330
_cell_angle_beta   129.61445086
_cell_angle_gamma   74.02388724
_symmetry_Int_Tables_number   1
_chemical_formula_structural   Sr5Sn3F
_chemical_formula_sum   'Sr10 Sn6 F2'
_cell_volume   593.70745256
_cell_formula_units_Z   2
loop_
 _symmetry_equiv_pos_site_id
 _symmetry_equiv_pos_as_xyz
  1  'x, y, z'
loop_
 _atom_site_type_symbol
 _atom_site_label
 _atom_site_symmetry_multiplicity
 _atom_site_fract_x
 _atom_site_fract_y
 _atom_site_fract_z
 _atom_site_occupancy
  Sr  Sr0  1  0.50000000  0.50000000  0.00000000  1
  Sr  Sr1  1  0.00000000  0.00000000  0.00000000  1
  Sr  Sr2  1  0.50915911  0.00915911  0.82292697  1
  Sr  Sr3  1  0.18623213  0.68623213  0.17707303  1
  Sr  Sr4  1  0.00915911  0.18623213  0.50000000  1
  Sr  Sr5  1  0.68623213  0.50915911  0.50000000  1
  Sr  Sr6  1  0.49084089  0.99084089  0.17707303  1
  Sr  Sr7  1  0.81376787  0.31376787  0.82292697  1
  Sr  Sr8  1  0.99084089  0.81376787  0.50000000  1
  Sr  Sr9  1  0.31376787  0.49084089  0.50000000  1
  Sn  Sn0  1  0.25000000  0.25000000  0.00000000  1
  Sn  Sn1  1  0.75000000  0.75000000  0.00000000  1
  Sn  Sn2  1  0.87960496  0.37960496  0.25920993  1
  Sn  Sn3  1  0.12039504  0.62039504  0.74079107  1
  Sn  Sn4  1  0.37960496  0.12039504  0.50000000  1
  Sn  Sn5  1  0.62039504  0.87960496  0.50000000  1
  F  F0  1  0.25000000  0.75000000  0.50000000  1
  F  F1  1  0.75000000  0.25000000  0.50000000  1
loop_
_geom_bond_atom_site_label_1
_geom_bond_atom_site_label_2
_geom_bond_distance
_geom_bond_site_symmetry_2
Sn0 Sr7 3.584276 1_454
Sn0 Sr4 3.584276 1_554
Sn0 Sr6 3.584276 1_545
Sn0 Sr2 3.584276 1_554
Sn0 Sr5 3.584276 1_555
Sn0 Sr9 3.584276 1_555
Sn0 Sr3 3.584276 1_555
Sn0 Sr8 3.584277 1_444
Sn1 Sr3 3.584276 1_655
Sn1 Sr8 3.584276 1_555
Sn1 Sr2 3.584276 1_564
Sn1 Sr6 3.584276 1_555
Sn1 Sr9 3.584276 1_554
Sn1 Sr5 3.584276 1_554
Sn1 Sr7 3.584276 1_554
Sn1 Sr4 3.584277 1_665
Sn2 Sn3 2.923824 1_655
Sn2 Sr0 3.419332 1_555
Sn2 Sr1 3.419333 1_655
Sn2 Sr4 3.463950 1_655
Sn2 Sr9 3.463950 1_655
Sn2 Sr5 3.463950 1_555
Sn2 Sr8 3.463950 1_555
Sn2 Sr7 3.610268 1_554
Sn2 Sr2 3.610269 1_554
Sn3 Sr0 3.419330 1_556
Sn3 Sr1 3.419330 1_566
Sn3 Sr5 3.463946 1_455
Sn3 Sr4 3.463947 1_555
Sn3 Sr8 3.463958 1_455
Sn3 Sr9 3.463958 1_555
Sn3 Sr3 3.610258 1_556
Sn3 Sr6 3.610270 1_556
Sn4 Sn5 2.923818 1_545
Sn4 Sr1 3.419332 1_555
Sn4 Sr0 3.419333 1_556
Sn4 Sr2 3.463950 1_555
Sn4 Sr6 3.463950 1_545
Sn4 Sr7 3.463950 1_555
Sn4 Sr3 3.463950 1_545
Sn4 Sr4 3.610268 1_555
Sn4 Sr9 3.610268 1_555
Sn5 Sr1 3.419332 1_666
Sn5 Sr0 3.419333 1_555
Sn5 Sr6 3.463950 1_555
Sn5 Sr2 3.463950 1_565
Sn5 Sr3 3.463950 1_555
Sn5 Sr7 3.463950 1_565
Sn5 Sr8 3.610268 1_555
Sn5 Sr5 3.610268 1_555
F0 Sr8 2.513961 1_455
F0 Sr3 2.513961 1_555
F0 Sr9 2.513961 1_555
F0 Sr2 2.513961 1_565
F1 Sr4 2.513961 1_655
F1 Sr7 2.513961 1_555
F1 Sr5 2.513961 1_555
F1 Sr6 2.513961 1_545
