# generated using pymatgen
data_Y4GaSn7Rh16
_symmetry_space_group_name_H-M   'P 1'
_cell_length_a   4.32797154
_cell_length_b   9.60962559
_cell_length_c   11.71123520
_cell_angle_alpha   90.59834612
_cell_angle_beta   90.00000000
_cell_angle_gamma   90.00000000
_symmetry_Int_Tables_number   1
_chemical_formula_structural   Y4GaSn7Rh16
_chemical_formula_sum   'Y4 Ga1 Sn7 Rh16'
_cell_volume   487.04589102
_cell_formula_units_Z   1
loop_
 _symmetry_equiv_pos_site_id
 _symmetry_equiv_pos_as_xyz
  1  'x, y, z'
loop_
 _atom_site_type_symbol
 _atom_site_label
 _atom_site_symmetry_multiplicity
 _atom_site_fract_x
 _atom_site_fract_y
 _atom_site_fract_z
 _atom_site_occupancy
  Y  Y0  1  0.25000000  0.15756342  0.82276807  1
  Y  Y1  1  0.25000000  0.34874878  0.33204784  1
  Y  Y2  1  0.75000000  0.84648216  0.17339132  1
  Y  Y3  1  0.75000000  0.63312690  0.67575639  1
  Ga  Ga0  1  0.25000000  0.41155930  0.63554935  1
  Sn  Sn0  1  0.25000000  0.08534863  0.13740253  1
  Sn  Sn1  1  0.75000000  0.58526221  0.36651451  1
  Sn  Sn2  1  0.75000000  0.91327654  0.85730000  1
  Sn  Sn3  1  0.25000000  0.61791444  0.06179860  1
  Sn  Sn4  1  0.25000000  0.88375247  0.56453780  1
  Sn  Sn5  1  0.75000000  0.38324020  0.93757893  1
  Sn  Sn6  1  0.75000000  0.12004109  0.43661052  1
  Rh  Rh0  1  0.25000000  0.61366140  0.50376000  1
  Rh  Rh1  1  0.25000000  0.88253914  0.99207819  1
  Rh  Rh2  1  0.75000000  0.38427082  0.50935661  1
  Rh  Rh3  1  0.75000000  0.11708792  0.00273781  1
  Rh  Rh4  1  0.25000000  0.70660324  0.27844561  1
  Rh  Rh5  1  0.25000000  0.78187843  0.77202141  1
  Rh  Rh6  1  0.75000000  0.30039624  0.72243467  1
  Rh  Rh7  1  0.75000000  0.21266666  0.22489716  1
  Rh  Rh8  1  0.25000000  0.17510955  0.56651194  1
  Rh  Rh9  1  0.25000000  0.33308426  0.06519807  1
  Rh  Rh10  1  0.75000000  0.83546185  0.43479727  1
  Rh  Rh11  1  0.75000000  0.66661525  0.93407820  1
  Rh  Rh12  1  0.25000000  0.99526409  0.34422946  1
  Rh  Rh13  1  0.25000000  0.49819396  0.83715100  1
  Rh  Rh14  1  0.75000000  0.01252701  0.65427431  1
  Rh  Rh15  1  0.75000000  0.49832202  0.15676944  1
loop_
_geom_bond_atom_site_label_1
_geom_bond_atom_site_label_2
_geom_bond_distance
_geom_bond_site_symmetry_2
Ga0 Rh8 2.403786 1_555
Ga0 Rh0 2.493309 1_555
Ga0 Rh13 2.495273 1_555
Ga0 Rh6 2.623364 1_555
Ga0 Rh6 2.623364 1_455
Ga0 Rh2 2.632036 1_555
Ga0 Rh2 2.632036 1_455
Ga0 Y3 3.068718 1_555
Ga0 Y3 3.068718 1_455
Sn0 Y2 3.185847 1_445
Sn0 Y2 3.185847 1_545
Sn1 Y1 3.161052 1_555
Sn1 Y1 3.161052 1_655
Rh0 Sn4 2.684127 1_555
Rh0 Sn1 2.707694 1_555
Rh0 Sn1 2.707694 1_455
Rh0 Y3 2.960966 1_455
Rh0 Y3 2.960966 1_555
Rh1 Sn0 2.574021 1_566
Rh1 Sn3 2.678922 1_556
Rh1 Sn2 2.696521 1_455
Rh1 Sn2 2.696521 1_555
Rh1 Y2 3.054028 1_456
Rh1 Y2 3.054028 1_556
Rh2 Sn1 2.568354 1_555
Rh2 Rh6 2.630343 1_555
Rh2 Sn6 2.669814 1_555
Rh2 Y1 3.016028 1_655
Rh2 Y1 3.016028 1_555
Rh2 Y3 3.069062 1_555
Rh3 Sn2 2.582118 1_544
Rh3 Sn5 2.676660 1_554
Rh3 Sn0 2.696872 1_555
Rh3 Sn0 2.696872 1_655
Rh3 Y0 3.048525 1_654
Rh3 Y0 3.048525 1_554
Rh3 Rh9 3.081314 1_655
Rh3 Rh9 3.081314 1_555
Rh4 Sn3 2.668070 1_555
Rh4 Sn1 2.670465 1_555
Rh4 Sn1 2.670465 1_455
Rh4 Y2 2.835116 1_555
Rh4 Y2 2.835116 1_455
Rh5 Sn4 2.629150 1_555
Rh5 Sn2 2.692269 1_455
Rh5 Sn2 2.692269 1_555
Rh5 Y3 2.821965 1_555
Rh5 Y3 2.821965 1_455
Rh6 Sn5 2.634443 1_555
Rh6 Y0 2.825094 1_555
Rh6 Y0 2.825094 1_655
Rh6 Y3 3.249434 1_555
Rh7 Sn6 2.643088 1_555
Rh7 Sn0 2.683934 1_555
Rh7 Sn0 2.683934 1_655
Rh7 Y1 2.816616 1_555
Rh7 Y1 2.816616 1_655
Rh7 Rh9 3.092733 1_555
Rh7 Rh9 3.092733 1_655
Rh8 Sn6 2.694519 1_555
Rh8 Sn6 2.694519 1_455
Rh8 Sn4 2.799686 1_545
Rh8 Y0 3.007566 1_555
Rh9 Sn0 2.534673 1_555
Rh9 Sn5 2.676555 1_454
Rh9 Sn5 2.676555 1_554
Rh9 Sn3 2.737817 1_555
Rh9 Y1 3.127193 1_555
Rh9 Y0 3.287203 1_554
Rh10 Sn1 2.525886 1_555
Rh10 Sn4 2.681809 1_655
Rh10 Sn4 2.681809 1_555
Rh10 Sn6 2.734561 1_565
Rh10 Y2 3.064323 1_555
Rh10 Y3 3.443607 1_555
Rh11 Sn2 2.543904 1_555
Rh11 Sn3 2.674656 1_556
Rh11 Sn3 2.674656 1_656
Rh11 Sn5 2.723865 1_555
Rh11 Y3 3.038992 1_555
Rh11 Y2 3.277382 1_556
Rh12 Sn0 2.580744 1_565
Rh12 Sn6 2.695178 1_465
Rh12 Sn6 2.695178 1_565
Rh12 Sn4 2.804080 1_555
Rh13 Sn5 2.704356 1_555
Rh13 Sn5 2.704356 1_455
Rh13 Sn3 2.860420 1_556
Rh13 Rh9 3.120680 1_556
Rh13 Y3 3.160368 1_555
Rh13 Y3 3.160368 1_455
Rh14 Sn2 2.571068 1_545
Rh14 Sn4 2.700271 1_545
Rh14 Sn4 2.700271 1_645
Rh14 Sn6 2.760510 1_555
Rh15 Sn1 2.586292 1_555
Rh15 Sn3 2.695798 1_655
Rh15 Sn3 2.695798 1_555
Rh15 Sn5 2.784449 1_554
Rh15 Rh9 2.884212 1_655
Rh15 Rh9 2.884212 1_555
