# generated using pymatgen
data_Hf4TiZnSn3
_symmetry_space_group_name_H-M   'P 1'
_cell_length_a   8.51321209
_cell_length_b   8.51321157
_cell_length_c   5.73056138
_cell_angle_alpha   90.00000000
_cell_angle_beta   90.00000000
_cell_angle_gamma   120.00000203
_symmetry_Int_Tables_number   1
_chemical_formula_structural   Hf4TiZnSn3
_chemical_formula_sum   'Hf8 Ti2 Zn2 Sn6'
_cell_volume   359.67865947
_cell_formula_units_Z   2
loop_
 _symmetry_equiv_pos_site_id
 _symmetry_equiv_pos_as_xyz
  1  'x, y, z'
loop_
 _atom_site_type_symbol
 _atom_site_label
 _atom_site_symmetry_multiplicity
 _atom_site_fract_x
 _atom_site_fract_y
 _atom_site_fract_z
 _atom_site_occupancy
  Hf  Hf0  1  0.73333816  0.73333816  0.74530390  1
  Hf  Hf1  1  0.26666184  0.00000000  0.74530390  1
  Hf  Hf2  1  1.00000000  0.26666184  0.74530390  1
  Hf  Hf3  1  0.26666184  0.26666184  0.25469610  1
  Hf  Hf4  1  0.73333816  0.00000000  0.25469610  1
  Hf  Hf5  1  0.00000000  0.73333816  0.25469610  1
  Hf  Hf6  1  0.33333300  0.66666700  0.50000000  1
  Hf  Hf7  1  0.66666700  0.33333300  0.50000000  1
  Ti  Ti0  1  0.66666700  0.33333300  0.00000000  1
  Ti  Ti1  1  0.33333300  0.66666700  0.00000000  1
  Zn  Zn0  1  0.00000000  0.00000000  0.00000000  1
  Zn  Zn1  1  0.00000000  0.00000000  0.50000000  1
  Sn  Sn0  1  0.38840888  0.38840888  0.75817365  1
  Sn  Sn1  1  0.61159112  0.00000000  0.75817365  1
  Sn  Sn2  1  1.00000000  0.61159112  0.75817365  1
  Sn  Sn3  1  0.61159112  0.61159112  0.24182635  1
  Sn  Sn4  1  0.38840888  0.00000000  0.24182635  1
  Sn  Sn5  1  0.00000000  0.38840888  0.24182635  1
loop_
_geom_bond_atom_site_label_1
_geom_bond_atom_site_label_2
_geom_bond_distance
_geom_bond_site_symmetry_2
Hf0 Zn1 2.670140 1_665
Hf0 Zn0 2.698864 1_666
Hf0 Sn1 2.930218 1_565
Hf0 Sn2 2.930218 1_555
Hf0 Sn0 2.937382 1_555
Hf0 Sn3 3.028246 1_556
Hf0 Sn3 3.065726 1_555
Hf1 Zn1 2.670140 1_555
Hf1 Zn0 2.698864 1_556
Hf1 Sn0 2.930217 1_555
Hf1 Sn2 2.930217 1_445
Hf1 Sn1 2.937382 1_555
Hf1 Sn4 3.028246 1_556
Hf1 Sn4 3.065726 1_555
Hf2 Zn1 2.670140 1_655
Hf2 Zn0 2.698864 1_656
Hf2 Sn1 2.930218 1_555
Hf2 Sn0 2.930218 1_655
Hf2 Sn2 2.937382 1_555
Hf2 Sn5 3.028246 1_656
Hf2 Sn5 3.065726 1_655
Hf3 Zn1 2.670140 1_555
Hf3 Zn0 2.698864 1_555
Hf3 Sn4 2.930218 1_555
Hf3 Sn5 2.930218 1_555
Hf3 Sn3 2.937382 1_555
Hf3 Sn0 3.028246 1_554
Hf3 Sn0 3.065726 1_555
Hf4 Zn1 2.670140 1_655
Hf4 Zn0 2.698864 1_655
Hf4 Sn5 2.930217 1_655
Hf4 Sn3 2.930217 1_545
Hf4 Sn4 2.937382 1_555
Hf4 Sn1 3.028246 1_554
Hf4 Sn1 3.065726 1_555
Hf5 Zn1 2.670140 1_565
Hf5 Zn0 2.698864 1_565
Hf5 Sn4 2.930218 1_565
Hf5 Sn3 2.930218 1_455
Hf5 Sn5 2.937382 1_555
Hf5 Sn2 3.028246 1_454
Hf5 Sn2 3.065726 1_455
Hf6 Ti1 2.865281 1_555
Hf6 Ti1 2.865281 1_556
Hf6 Sn4 3.021738 1_565
Hf6 Sn2 3.021738 1_455
Hf6 Sn1 3.021741 1_565
Hf6 Sn5 3.021741 1_555
Hf6 Sn0 3.021746 1_555
Hf6 Sn3 3.021746 1_555
Hf7 Ti0 2.865281 1_556
Hf7 Ti0 2.865281 1_555
Hf7 Sn1 3.021738 1_555
Hf7 Sn5 3.021738 1_655
Hf7 Sn4 3.021741 1_555
Hf7 Sn2 3.021741 1_555
Hf7 Sn3 3.021746 1_555
Hf7 Sn0 3.021746 1_555
Zn0 Zn1 2.865281 1_555
Zn0 Zn1 2.865281 1_554
Sn0 Ti1 2.977000 1_556
Sn0 Ti0 2.977000 1_556
Sn1 Ti0 2.976993 1_556
Sn1 Ti1 2.976995 1_546
Sn2 Ti1 2.976993 1_656
Sn2 Ti0 2.976995 1_556
Sn3 Ti0 2.977000 1_555
Sn3 Ti1 2.977000 1_555
Sn4 Ti1 2.976993 1_545
Sn4 Ti0 2.976995 1_555
Sn5 Ti0 2.976993 1_455
Sn5 Ti1 2.976995 1_555
