# generated using pymatgen
data_Cs6Nb2SeS7
_symmetry_space_group_name_H-M   'P 1'
_cell_length_a   10.02291060
_cell_length_b   10.15092296
_cell_length_c   11.79035683
_cell_angle_alpha   90.00000000
_cell_angle_beta   90.00000000
_cell_angle_gamma   90.00000000
_symmetry_Int_Tables_number   1
_chemical_formula_structural   Cs6Nb2SeS7
_chemical_formula_sum   'Cs12 Nb4 Se2 S14'
_cell_volume   1199.57204865
_cell_formula_units_Z   2
loop_
 _symmetry_equiv_pos_site_id
 _symmetry_equiv_pos_as_xyz
  1  'x, y, z'
loop_
 _atom_site_type_symbol
 _atom_site_label
 _atom_site_symmetry_multiplicity
 _atom_site_fract_x
 _atom_site_fract_y
 _atom_site_fract_z
 _atom_site_occupancy
  Cs  Cs0  1  0.54803483  0.20987815  0.03536049  1
  Cs  Cs1  1  0.04803483  0.29012185  0.46463951  1
  Cs  Cs2  1  0.45109066  0.79047867  0.54149546  1
  Cs  Cs3  1  0.95109066  0.70952133  0.95850454  1
  Cs  Cs4  1  0.45109066  0.79047867  0.95850454  1
  Cs  Cs5  1  0.95109066  0.70952133  0.54149546  1
  Cs  Cs6  1  0.54803483  0.20987815  0.46463951  1
  Cs  Cs7  1  0.04803483  0.29012185  0.03536049  1
  Cs  Cs8  1  0.64637411  0.41856520  0.75000000  1
  Cs  Cs9  1  0.14637411  0.08143480  0.75000000  1
  Cs  Cs10  1  0.35314285  0.59232502  0.25000000  1
  Cs  Cs11  1  0.85314285  0.90767498  0.25000000  1
  Nb  Nb0  1  0.72176192  0.98332159  0.75000000  1
  Nb  Nb1  1  0.22176192  0.51667841  0.75000000  1
  Nb  Nb2  1  0.27822938  0.01178694  0.25000000  1
  Nb  Nb3  1  0.77822938  0.48821306  0.25000000  1
  Se  Se0  1  0.29478937  0.24943531  0.25000000  1
  Se  Se1  1  0.79478937  0.25056469  0.25000000  1
  S  S0  1  0.83257257  0.04688052  0.58952438  1
  S  S1  1  0.33257257  0.45311948  0.91047562  1
  S  S2  1  0.16847145  0.94752955  0.08930749  1
  S  S3  1  0.66847145  0.55247045  0.41069251  1
  S  S4  1  0.16847145  0.94752955  0.41069251  1
  S  S5  1  0.66847145  0.55247045  0.08930749  1
  S  S6  1  0.83257257  0.04688052  0.91047562  1
  S  S7  1  0.33257257  0.45311948  0.58952438  1
  S  S8  1  0.51095484  0.07240685  0.75000000  1
  S  S9  1  0.01095484  0.42759315  0.75000000  1
  S  S10  1  0.48974525  0.92644523  0.25000000  1
  S  S11  1  0.98974525  0.57355477  0.25000000  1
  S  S12  1  0.70466425  0.75823614  0.75000000  1
  S  S13  1  0.20466425  0.74176386  0.75000000  1
loop_
_geom_bond_atom_site_label_1
_geom_bond_atom_site_label_2
_geom_bond_distance
_geom_bond_site_symmetry_2
Cs0 Se1 3.562528 1_555
Cs0 S1 3.595600 1_554
Cs0 Se0 3.606703 1_555
Cs0 S6 3.610956 1_554
Cs0 S8 3.661326 1_554
Cs0 S5 3.735721 1_555
Cs0 S10 3.876001 1_545
Cs1 Se0 3.562528 1_555
Cs1 S0 3.595600 1_455
Cs1 Se1 3.606703 1_455
Cs1 S7 3.610956 1_555
Cs1 S9 3.661326 1_555
Cs1 S4 3.735721 1_545
Cs1 S11 3.876001 1_455
Cs2 S13 3.519721 1_555
Cs2 S12 3.551059 1_555
Cs2 S4 3.597768 1_555
Cs2 S3 3.600363 1_555
Cs2 S7 3.668653 1_555
Cs2 S10 3.723823 1_555
Cs2 S8 3.820150 1_565
Cs3 S12 3.519721 1_555
Cs3 S13 3.551059 1_655
Cs3 S5 3.597768 1_556
Cs3 S2 3.600363 1_656
Cs3 S6 3.668653 1_565
Cs3 S11 3.723823 1_556
Cs3 S9 3.820150 1_655
Cs4 S13 3.519721 1_555
Cs4 S12 3.551059 1_555
Cs4 S2 3.597768 1_556
Cs4 S5 3.600363 1_556
Cs4 S1 3.668653 1_555
Cs4 S10 3.723823 1_556
Cs4 S8 3.820150 1_565
Cs5 S12 3.519721 1_555
Cs5 S13 3.551059 1_655
Cs5 S3 3.597768 1_555
Cs5 S4 3.600363 1_655
Cs5 S0 3.668653 1_565
Cs5 S11 3.723823 1_555
Cs5 S9 3.820150 1_655
Cs6 Se1 3.562528 1_555
Cs6 S7 3.595600 1_555
Cs6 Se0 3.606703 1_555
Cs6 S0 3.610956 1_555
Cs6 S8 3.661326 1_555
Cs6 S3 3.735721 1_555
Cs6 S10 3.876001 1_545
Cs7 Se0 3.562528 1_555
Cs7 S6 3.595600 1_454
Cs7 Se1 3.606703 1_455
Cs7 S1 3.610956 1_554
Cs7 S9 3.661326 1_554
Cs7 S2 3.735721 1_545
Cs7 S11 3.876001 1_455
Cs8 S12 3.497121 1_555
Cs8 S9 3.655309 1_655
Cs8 S1 3.687174 1_555
Cs8 S7 3.687174 1_555
Cs8 S8 3.766859 1_555
Cs9 S13 3.497121 1_545
Cs9 S8 3.655309 1_555
Cs9 S6 3.687174 1_455
Cs9 S0 3.687174 1_455
Cs9 S9 3.766859 1_555
Cs10 Se0 3.529445 1_555
Cs10 S11 3.647282 1_455
Cs10 S10 3.657557 1_555
Cs10 S3 3.707032 1_555
Cs10 S5 3.707032 1_555
Cs11 Se1 3.529445 1_565
Cs11 S10 3.647282 1_555
Cs11 S11 3.657557 1_555
Cs11 S4 3.707032 1_655
Cs11 S2 3.707032 1_655
Nb0 S6 2.286854 1_565
Nb0 S0 2.286854 1_565
Nb0 S12 2.291243 1_555
Nb0 S8 2.298283 1_565
Nb1 S1 2.286854 1_555
Nb1 S7 2.286854 1_555
Nb1 S13 2.291243 1_555
Nb1 S9 2.298283 1_555
Nb2 S4 2.285882 1_545
Nb2 S2 2.285882 1_545
Nb2 S10 2.290173 1_545
Nb2 Se0 2.418054 1_555
Nb3 S3 2.285882 1_555
Nb3 S5 2.285882 1_555
Nb3 S11 2.290173 1_555
Nb3 Se1 2.418054 1_555
