# generated using pymatgen
data_Y2BIrPd5
_symmetry_space_group_name_H-M   'P 1'
_cell_length_a   5.87292538
_cell_length_b   5.88677752
_cell_length_c   5.88677788
_cell_angle_alpha   59.84437829
_cell_angle_beta   60.07781382
_cell_angle_gamma   60.07781286
_symmetry_Int_Tables_number   1
_chemical_formula_structural   Y2BIrPd5
_chemical_formula_sum   'Y2 B1 Ir1 Pd5'
_cell_volume   143.90966924
_cell_formula_units_Z   1
loop_
 _symmetry_equiv_pos_site_id
 _symmetry_equiv_pos_as_xyz
  1  'x, y, z'
loop_
 _atom_site_type_symbol
 _atom_site_label
 _atom_site_symmetry_multiplicity
 _atom_site_fract_x
 _atom_site_fract_y
 _atom_site_fract_z
 _atom_site_occupancy
  Y  Y0  1  0.24731668  0.25268332  0.25268332  1
  Y  Y1  1  0.74731668  0.75268332  0.75268332  1
  B  B0  1  0.01030852  0.98969148  0.98969148  1
  Ir  Ir0  1  0.25425859  0.74574241  0.74574241  1
  Pd  Pd0  1  0.74961197  0.25038903  0.25038903  1
  Pd  Pd1  1  0.25614756  0.74385344  0.26055278  1
  Pd  Pd2  1  0.73944622  0.74385144  0.26055478  1
  Pd  Pd3  1  0.25614756  0.26055278  0.74385344  1
  Pd  Pd4  1  0.73944622  0.26055478  0.74385144  1
loop_
_geom_bond_atom_site_label_1
_geom_bond_atom_site_label_2
_geom_bond_distance
_geom_bond_site_symmetry_2
B0 Ir0 2.035683 1_555
B0 Pd3 2.148284 1_565
B0 Pd1 2.148284 1_556
B0 Pd2 2.148292 1_456
B0 Pd4 2.148292 1_465
B0 Pd0 2.175444 1_466
Ir0 Y1 2.937028 1_555
Ir0 Y0 2.937034 1_565
Ir0 Y0 2.937034 1_556
Ir0 Y1 2.937040 1_455
Pd0 Y0 2.936519 1_655
Pd0 Y1 2.936525 1_554
Pd0 Y1 2.936525 1_545
Pd0 Y0 2.936531 1_555
Pd1 Y1 2.941365 1_554
Pd1 Y0 2.941371 1_555
Pd1 Y0 2.947044 1_565
Pd1 Y1 2.947050 1_455
Pd2 Y0 2.941365 1_655
Pd2 Y1 2.941371 1_554
Pd2 Y1 2.947044 1_555
Pd2 Y0 2.947050 1_565
Pd3 Y1 2.941365 1_545
Pd3 Y0 2.941371 1_555
Pd3 Y0 2.947044 1_556
Pd3 Y1 2.947050 1_455
Pd4 Y0 2.941365 1_655
Pd4 Y1 2.941371 1_545
Pd4 Y1 2.947044 1_555
Pd4 Y0 2.947050 1_556
