# generated using pymatgen
data_SrNb6SnSe12
_symmetry_space_group_name_H-M   'P 1'
_cell_length_a   6.09801984
_cell_length_b   6.09801850
_cell_length_c   15.40058845
_cell_angle_alpha   90.00000000
_cell_angle_beta   90.00000000
_cell_angle_gamma   120.00001266
_symmetry_Int_Tables_number   1
_chemical_formula_structural   SrNb6SnSe12
_chemical_formula_sum   'Sr1 Nb6 Sn1 Se12'
_cell_volume   495.95864152
_cell_formula_units_Z   1
loop_
 _symmetry_equiv_pos_site_id
 _symmetry_equiv_pos_as_xyz
  1  'x, y, z'
loop_
 _atom_site_type_symbol
 _atom_site_label
 _atom_site_symmetry_multiplicity
 _atom_site_fract_x
 _atom_site_fract_y
 _atom_site_fract_z
 _atom_site_occupancy
  Sr  Sr0  1  0.00000000  0.00000000  0.50000000  1
  Nb  Nb0  1  0.33333300  0.66666700  0.24422310  1
  Nb  Nb1  1  0.66666700  0.33333300  0.75577690  1
  Nb  Nb2  1  0.66666700  0.33333300  0.24422310  1
  Nb  Nb3  1  0.33333300  0.66666700  0.75577690  1
  Nb  Nb4  1  0.00000000  0.00000000  0.24494628  1
  Nb  Nb5  1  0.00000000  0.00000000  0.75505372  1
  Sn  Sn0  1  0.00000000  0.00000000  0.00000000  1
  Se  Se0  1  0.33580111  1.00000000  0.13727982  1
  Se  Se1  1  1.00000000  0.33580111  0.13727982  1
  Se  Se2  1  0.66419889  0.66419889  0.13727982  1
  Se  Se3  1  0.33786749  0.33786749  0.64787052  1
  Se  Se4  1  0.66213251  0.66213251  0.35212948  1
  Se  Se5  1  0.66213251  0.00000000  0.64787052  1
  Se  Se6  1  0.00000000  0.66213251  0.64787052  1
  Se  Se7  1  0.00000000  0.66419889  0.86272018  1
  Se  Se8  1  0.33580111  0.33580111  0.86272018  1
  Se  Se9  1  1.00000000  0.33786749  0.35212948  1
  Se  Se10  1  0.33786749  0.00000000  0.35212948  1
  Se  Se11  1  0.66419889  0.00000000  0.86272018  1
loop_
_geom_bond_atom_site_label_1
_geom_bond_atom_site_label_2
_geom_bond_distance
_geom_bond_site_symmetry_2
Nb0 Se0 2.610356 1_555
Nb0 Se1 2.610358 1_455
Nb0 Se2 2.610361 1_555
Nb0 Se10 2.614949 1_565
Nb0 Se9 2.614952 1_455
Nb0 Se4 2.614955 1_555
Nb1 Se11 2.610356 1_555
Nb1 Se7 2.610358 1_655
Nb1 Se8 2.610361 1_555
Nb1 Se5 2.614949 1_555
Nb1 Se6 2.614952 1_655
Nb1 Se3 2.614955 1_555
Nb2 Se1 2.610356 1_555
Nb2 Se0 2.610358 1_545
Nb2 Se2 2.610361 1_555
Nb2 Se9 2.614950 1_555
Nb2 Se10 2.614952 1_555
Nb2 Se4 2.614954 1_555
Nb3 Se7 2.610356 1_555
Nb3 Se11 2.610358 1_565
Nb3 Se8 2.610361 1_555
Nb3 Se6 2.614950 1_555
Nb3 Se5 2.614952 1_565
Nb3 Se3 2.614954 1_555
Nb4 Se2 2.634871 1_445
Nb4 Se1 2.634871 1_455
Nb4 Se0 2.634872 1_545
Nb4 Se4 2.640016 1_445
Nb4 Se9 2.640016 1_455
Nb4 Se10 2.640017 1_555
Nb5 Se8 2.634871 1_555
Nb5 Se7 2.634871 1_545
Nb5 Se11 2.634872 1_455
Nb5 Se3 2.640016 1_555
Nb5 Se6 2.640016 1_545
Nb5 Se5 2.640017 1_455
Se0 Sn0 2.943291 1_565
Se1 Sn0 2.943291 1_655
Se2 Sn0 2.943291 1_665
Se3 Sr0 3.070992 1_555
Se4 Sr0 3.070992 1_665
Se5 Sr0 3.070992 1_655
Se6 Sr0 3.070992 1_565
Se7 Sn0 2.943291 1_566
Se8 Sn0 2.943291 1_556
Se9 Sr0 3.070992 1_655
Se10 Sr0 3.070992 1_555
Se11 Sn0 2.943291 1_656
