# generated using pymatgen
data_Rb2Ag2GeSe4
_symmetry_space_group_name_H-M   'P 1'
_cell_length_a   13.48515312
_cell_length_b   11.95421440
_cell_length_c   7.81341348
_cell_angle_alpha   83.20473180
_cell_angle_beta   61.67193974
_cell_angle_gamma   35.12333188
_symmetry_Int_Tables_number   1
_chemical_formula_structural   Rb2Ag2GeSe4
_chemical_formula_sum   'Rb4 Ag4 Ge2 Se8'
_cell_volume   539.83578168
_cell_formula_units_Z   2
loop_
 _symmetry_equiv_pos_site_id
 _symmetry_equiv_pos_as_xyz
  1  'x, y, z'
loop_
 _atom_site_type_symbol
 _atom_site_label
 _atom_site_symmetry_multiplicity
 _atom_site_fract_x
 _atom_site_fract_y
 _atom_site_fract_z
 _atom_site_occupancy
  Rb  Rb0  1  0.31444521  0.31444521  0.68555479  1
  Rb  Rb1  1  0.68555479  0.68555479  0.31444521  1
  Rb  Rb2  1  0.56444521  0.56444521  0.93555479  1
  Rb  Rb3  1  0.93555479  0.93555479  0.56444521  1
  Ag  Ag0  1  0.18328332  0.18328332  0.31671668  1
  Ag  Ag1  1  0.93328332  0.93328332  0.06671668  1
  Ag  Ag2  1  0.06671668  0.06671668  0.93328332  1
  Ag  Ag3  1  0.31671668  0.31671668  0.18328332  1
  Ge  Ge0  1  0.50000000  0.50000000  0.50000000  1
  Ge  Ge1  1  0.75000000  0.75000000  0.75000000  1
  Se  Se0  1  0.90290349  0.71640469  0.39162656  1
  Se  Se1  1  0.98906525  0.39162656  0.71640469  1
  Se  Se2  1  0.53359531  0.34709651  0.26093475  1
  Se  Se3  1  0.39162656  0.98906525  0.90290349  1
  Se  Se4  1  0.26093475  0.85837344  0.53359531  1
  Se  Se5  1  0.71640469  0.90290349  0.98906525  1
  Se  Se6  1  0.85837344  0.26093475  0.34709651  1
  Se  Se7  1  0.34709651  0.53359531  0.85837344  1
loop_
_geom_bond_atom_site_label_1
_geom_bond_atom_site_label_2
_geom_bond_distance
_geom_bond_site_symmetry_2
Rb0 Se7 3.488364 1_555
Rb0 Se2 3.488364 1_555
Rb0 Se1 3.548039 1_455
Rb0 Se3 3.548039 1_545
Rb0 Se0 3.625203 1_545
Rb0 Se5 3.625203 1_455
Rb1 Se4 3.488364 1_555
Rb1 Se6 3.488364 1_555
Rb1 Se0 3.548039 1_555
Rb1 Se5 3.548039 1_554
Rb1 Se3 3.625203 1_555
Rb1 Se1 3.625203 1_554
Rb2 Se1 3.488364 1_555
Rb2 Se3 3.488364 1_555
Rb2 Se7 3.548039 1_555
Rb2 Se2 3.548039 1_556
Rb2 Se6 3.625203 1_555
Rb2 Se4 3.625203 1_556
Rb3 Se0 3.488364 1_555
Rb3 Se5 3.488364 1_555
Rb3 Se4 3.548039 1_655
Rb3 Se6 3.548039 1_565
Rb3 Se7 3.625203 1_565
Rb3 Se2 3.625203 1_655
Ag0 Se1 2.494580 1_455
Ag0 Se3 2.494580 1_544
Ag0 Rb1 3.907055 1_545
Ag0 Rb1 3.907055 1_455
Ag1 Se2 2.494579 1_565
Ag1 Se7 2.494579 1_654
Ag1 Rb3 3.907055 1_555
Ag1 Rb3 3.907055 1_554
Ag2 Se4 2.494580 1_545
Ag2 Se6 2.494580 1_456
Ag2 Rb2 3.907055 1_455
Ag2 Rb2 3.907055 1_545
Ag3 Se5 2.494579 1_544
Ag3 Se0 2.494579 1_455
Ag3 Rb0 3.907055 1_554
Ag3 Rb0 3.907055 1_555
Ge0 Se6 2.384451 1_555
Ge0 Se4 2.384451 1_555
Ge0 Se2 2.384451 1_555
Ge0 Se7 2.384451 1_555
Ge1 Se3 2.384451 1_555
Ge1 Se1 2.384451 1_555
Ge1 Se5 2.384451 1_555
Ge1 Se0 2.384451 1_555
