# generated using pymatgen
data_K9Rb3(AlSe3)4
_symmetry_space_group_name_H-M   'P 1'
_cell_length_a   13.36544313
_cell_length_b   8.12891285
_cell_length_c   10.40396175
_cell_angle_alpha   53.04109133
_cell_angle_beta   89.81454535
_cell_angle_gamma   89.97785346
_symmetry_Int_Tables_number   1
_chemical_formula_structural   K9Rb3(AlSe3)4
_chemical_formula_sum   'K9 Rb3 Al4 Se12'
_cell_volume   903.22224090
_cell_formula_units_Z   1
loop_
 _symmetry_equiv_pos_site_id
 _symmetry_equiv_pos_as_xyz
  1  'x, y, z'
loop_
 _atom_site_type_symbol
 _atom_site_label
 _atom_site_symmetry_multiplicity
 _atom_site_fract_x
 _atom_site_fract_y
 _atom_site_fract_z
 _atom_site_occupancy
  K  K0  1  0.89926183  0.31927681  0.39923223  1
  K  K1  1  0.61835332  0.37541035  0.47364632  1
  K  K2  1  0.11706635  0.62823929  0.02347932  1
  K  K3  1  0.38087724  0.63069101  0.52493178  1
  K  K4  1  0.88359933  0.36613177  0.97766288  1
  K  K5  1  0.60625976  0.31843018  0.90033157  1
  K  K6  1  0.10325014  0.67663490  0.60190684  1
  K  K7  1  0.39209710  0.68698737  0.09874177  1
  K  K8  1  0.18560963  0.15860543  0.56061662  1
  Rb  Rb0  1  0.31388463  0.16537658  0.05971910  1
  Rb  Rb1  1  0.68310966  0.83815126  0.94119823  1
  Rb  Rb2  1  0.81614218  0.83781950  0.44344835  1
  Al  Al0  1  0.06479104  0.94303177  0.15688531  1
  Al  Al1  1  0.56374383  0.05302948  0.34422496  1
  Al  Al2  1  0.43470054  0.95476511  0.65371507  1
  Al  Al3  1  0.93688735  0.04878776  0.84389451  1
  Se  Se0  1  0.40479462  0.18480075  0.36346729  1
  Se  Se1  1  0.90351787  0.82326197  0.13431023  1
  Se  Se2  1  0.59308189  0.82214114  0.63513843  1
  Se  Se3  1  0.09836685  0.16891097  0.86533647  1
  Se  Se4  1  0.68954287  0.31075946  0.20749986  1
  Se  Se5  1  0.18499508  0.67489405  0.29967949  1
  Se  Se6  1  0.30825764  0.69862125  0.78940108  1
  Se  Se7  1  0.81419024  0.31160093  0.70578914  1
  Se  Se8  1  0.54840072  0.86743044  0.23770095  1
  Se  Se9  1  0.05413244  0.13400819  0.25989854  1
  Se  Se10  1  0.45057183  0.13953946  0.76074908  1
  Se  Se11  1  0.95051405  0.86265984  0.73739255  1
loop_
_geom_bond_atom_site_label_1
_geom_bond_atom_site_label_2
_geom_bond_distance
_geom_bond_site_symmetry_2
K0 Se1 3.287113 1_555
K0 Se11 3.306813 1_545
K0 Se7 3.347580 1_555
K0 Se9 3.355218 1_655
K0 Se4 3.470315 1_555
K1 Se4 3.252871 1_555
K1 Se10 3.271132 1_555
K1 Se8 3.332060 1_555
K1 Se7 3.389209 1_555
K1 Se0 3.744626 1_555
K1 Se2 3.751703 1_545
K2 Se5 3.248567 1_555
K2 Se11 3.265732 1_454
K2 Se9 3.317336 1_555
K2 Se6 3.327680 1_554
K2 Se3 3.659578 1_564
K2 Se1 3.763306 1_455
K3 Se6 3.259942 1_555
K3 Se8 3.269793 1_555
K3 Se10 3.325720 1_555
K3 Se5 3.391428 1_555
K3 Se2 3.735096 1_555
K3 Se0 3.756569 1_565
K4 Se7 3.253135 1_555
K4 Se9 3.279499 1_656
K4 Se11 3.345975 1_555
K4 Se4 3.363633 1_556
K4 Se1 3.681664 1_546
K4 Se3 3.795147 1_655
K5 Se2 3.290459 1_555
K5 Se8 3.296893 1_546
K5 Se10 3.333880 1_555
K5 Se4 3.352491 1_556
K5 Se7 3.452766 1_555
K6 Se3 3.308617 1_555
K6 Se11 3.314065 1_455
K6 Se9 3.319688 1_565
K6 Se5 3.333489 1_555
K6 Se6 3.434968 1_555
K7 Se0 3.280495 1_555
K7 Se10 3.307327 1_564
K7 Se8 3.343315 1_555
K7 Se6 3.358534 1_554
K7 Se5 3.428930 1_555
K8 Se5 3.359064 1_555
K8 Se6 3.413552 1_545
K8 Se3 3.422394 1_555
K8 Se0 3.502980 1_555
K8 Se11 3.700159 1_445
K8 Se9 3.701962 1_555
Rb0 Se6 3.470822 1_554
Rb0 Se0 3.480385 1_555
Rb0 Se3 3.515071 1_554
Rb0 Se5 3.620111 1_545
Rb0 Se8 3.709198 1_545
Rb0 Se10 3.715527 1_554
Rb1 Se4 3.432390 1_556
Rb1 Se2 3.482438 1_555
Rb1 Se1 3.531987 1_556
Rb1 Se7 3.538729 1_565
Rb1 Se8 3.696058 1_556
Rb1 Se10 3.699648 1_565
Rb2 Se7 3.421749 1_555
Rb2 Se1 3.486456 1_555
Rb2 Se4 3.513212 1_565
Rb2 Se2 3.540894 1_555
Rb2 Se11 3.660200 1_555
Rb2 Se9 3.741560 1_665
Al0 Se9 2.361889 1_565
Al0 Se5 2.378662 1_555
Al0 Se1 2.434965 1_455
Al0 Se3 2.463346 1_564
Al1 Se8 2.357732 1_545
Al1 Se4 2.375569 1_555
Al1 Se0 2.440081 1_555
Al1 Se2 2.452196 1_545
Al2 Se10 2.356727 1_565
Al2 Se6 2.374237 1_555
Al2 Se2 2.434495 1_555
Al2 Se0 2.447927 1_565
Al3 Se11 2.358936 1_545
Al3 Se7 2.374716 1_555
Al3 Se3 2.434742 1_655
Al3 Se1 2.453616 1_546
