# generated using pymatgen
data_Cs3In(AsSe2)6
_symmetry_space_group_name_H-M   'P 1'
_cell_length_a   9.92395325
_cell_length_b   9.92395372
_cell_length_c   8.63051310
_cell_angle_alpha   90.00000000
_cell_angle_beta   90.00000000
_cell_angle_gamma   119.99999519
_symmetry_Int_Tables_number   1
_chemical_formula_structural   Cs3In(AsSe2)6
_chemical_formula_sum   'Cs3 In1 As6 Se12'
_cell_volume   736.09981543
_cell_formula_units_Z   1
loop_
 _symmetry_equiv_pos_site_id
 _symmetry_equiv_pos_as_xyz
  1  'x, y, z'
loop_
 _atom_site_type_symbol
 _atom_site_label
 _atom_site_symmetry_multiplicity
 _atom_site_fract_x
 _atom_site_fract_y
 _atom_site_fract_z
 _atom_site_occupancy
  Cs  Cs0  1  0.00000000  0.00000000  0.00000000  1
  Cs  Cs1  1  0.33333300  0.66666700  0.85002809  1
  Cs  Cs2  1  0.66666700  0.33333300  0.14997191  1
  In  In0  1  0.00000000  0.00000000  0.50000000  1
  As  As0  1  0.28363188  0.83347317  0.40110547  1
  As  As1  1  0.16652683  0.45016071  0.40110547  1
  As  As2  1  0.54983929  0.71636812  0.40110547  1
  As  As3  1  0.71636812  0.16652683  0.59889453  1
  As  As4  1  0.83347317  0.54983929  0.59889453  1
  As  As5  1  0.45016071  0.28363188  0.59889453  1
  Se  Se0  1  0.24725120  0.03722442  0.31383403  1
  Se  Se1  1  0.96277558  0.21002878  0.31383403  1
  Se  Se2  1  0.78997122  0.75274880  0.31383403  1
  Se  Se3  1  0.75274880  0.96277558  0.68616597  1
  Se  Se4  1  0.03722442  0.78997122  0.68616597  1
  Se  Se5  1  0.21002878  0.24725120  0.68616597  1
  Se  Se6  1  0.52047726  0.90840942  0.24929138  1
  Se  Se7  1  0.09159058  0.61206684  0.24929138  1
  Se  Se8  1  0.38793316  0.47952274  0.24929138  1
  Se  Se9  1  0.47952274  0.09159058  0.75070862  1
  Se  Se10  1  0.90840942  0.38793316  0.75070862  1
  Se  Se11  1  0.61206684  0.52047726  0.75070862  1
loop_
_geom_bond_atom_site_label_1
_geom_bond_atom_site_label_2
_geom_bond_distance
_geom_bond_site_symmetry_2
Cs0 Se0 3.547810 1_555
Cs0 Se3 3.547810 1_444
Cs0 Se2 3.547815 1_445
Cs0 Se5 3.547815 1_554
Cs0 Se4 3.547823 1_544
Cs0 Se1 3.547823 1_455
Cs1 Se11 3.808427 1_555
Cs1 Se10 3.808428 1_455
Cs1 Se9 3.808428 1_565
Cs1 Se4 3.965900 1_555
Cs1 Se3 3.965920 1_555
Cs1 Se5 3.965927 1_555
Cs1 Se7 4.077124 1_556
Cs1 Se6 4.077127 1_556
Cs1 Se8 4.077134 1_556
Cs2 Se8 3.808427 1_555
Cs2 Se7 3.808428 1_655
Cs2 Se6 3.808428 1_545
Cs2 Se1 3.965900 1_555
Cs2 Se0 3.965920 1_555
Cs2 Se2 3.965927 1_555
Cs2 Se10 4.077124 1_554
Cs2 Se9 4.077127 1_554
Cs2 Se11 4.077134 1_554
In0 Se3 2.798613 1_445
In0 Se0 2.798613 1_555
In0 Se5 2.798619 1_555
In0 Se2 2.798619 1_445
In0 Se4 2.798629 1_545
In0 Se1 2.798629 1_455
As0 Se0 2.348668 1_565
As0 Se7 2.447270 1_555
As0 Se6 2.458941 1_555
As1 Se1 2.348668 1_455
As1 Se8 2.447280 1_555
As1 Se7 2.458917 1_555
As2 Se2 2.348668 1_555
As2 Se6 2.447255 1_555
As2 Se8 2.458935 1_555
As3 Se3 2.348668 1_545
As3 Se10 2.447270 1_555
As3 Se9 2.458941 1_555
As4 Se4 2.348668 1_655
As4 Se11 2.447280 1_555
As4 Se10 2.458917 1_555
As5 Se5 2.348668 1_555
As5 Se9 2.447255 1_555
As5 Se11 2.458935 1_555
