# generated using pymatgen
data_RbLiCd12
_symmetry_space_group_name_H-M   'P 1'
_cell_length_a   9.72358320
_cell_length_b   9.72358280
_cell_length_c   9.72358427
_cell_angle_alpha   60.00000150
_cell_angle_beta   60.00000286
_cell_angle_gamma   60.00000054
_symmetry_Int_Tables_number   1
_chemical_formula_structural   RbLiCd12
_chemical_formula_sum   'Rb2 Li2 Cd24'
_cell_volume   650.07587921
_cell_formula_units_Z   2
loop_
 _symmetry_equiv_pos_site_id
 _symmetry_equiv_pos_as_xyz
  1  'x, y, z'
loop_
 _atom_site_type_symbol
 _atom_site_label
 _atom_site_symmetry_multiplicity
 _atom_site_fract_x
 _atom_site_fract_y
 _atom_site_fract_z
 _atom_site_occupancy
  Rb  Rb0  1  0.25000000  0.25000000  0.25000000  1
  Rb  Rb1  1  0.75000000  0.75000000  0.75000000  1
  Li  Li0  1  0.00000000  0.00000000  0.00000000  1
  Li  Li1  1  0.50000000  0.50000000  0.50000000  1
  Cd  Cd0  1  0.44175148  0.20255829  0.79744171  1
  Cd  Cd1  1  0.94175148  0.70255829  0.05824852  1
  Cd  Cd2  1  0.70255829  0.94175148  0.29744171  1
  Cd  Cd3  1  0.29744171  0.70255829  0.94175148  1
  Cd  Cd4  1  0.94175148  0.05824852  0.29744171  1
  Cd  Cd5  1  0.70255829  0.05824852  0.94175148  1
  Cd  Cd6  1  0.29744171  0.94175148  0.05824852  1
  Cd  Cd7  1  0.79744171  0.44175148  0.20255829  1
  Cd  Cd8  1  0.20255829  0.79744171  0.44175148  1
  Cd  Cd9  1  0.44175148  0.55824852  0.20255829  1
  Cd  Cd10  1  0.44175148  0.79744171  0.55824852  1
  Cd  Cd11  1  0.20255829  0.55824852  0.79744171  1
  Cd  Cd12  1  0.55824852  0.44175148  0.79744171  1
  Cd  Cd13  1  0.55824852  0.20255829  0.44175148  1
  Cd  Cd14  1  0.79744171  0.20255829  0.55824852  1
  Cd  Cd15  1  0.05824852  0.94175148  0.70255829  1
  Cd  Cd16  1  0.05824852  0.29744171  0.94175148  1
  Cd  Cd17  1  0.94175148  0.29744171  0.70255829  1
  Cd  Cd18  1  0.05824852  0.70255829  0.29744171  1
  Cd  Cd19  1  0.29744171  0.05824852  0.70255829  1
  Cd  Cd20  1  0.70255829  0.29744171  0.05824852  1
  Cd  Cd21  1  0.20255829  0.44175148  0.55824852  1
  Cd  Cd22  1  0.79744171  0.55824852  0.44175148  1
  Cd  Cd23  1  0.55824852  0.79744171  0.20255829  1
loop_
_geom_bond_atom_site_label_1
_geom_bond_atom_site_label_2
_geom_bond_distance
_geom_bond_site_symmetry_2
Cd0 Li1 2.947136 1_555
Cd0 Rb1 4.002323 1_545
Cd0 Rb0 4.002324 1_556
Cd1 Li0 2.947135 1_665
Cd1 Rb0 4.002324 1_655
Cd1 Rb1 4.002324 1_554
Cd2 Li0 2.947136 1_665
Cd2 Rb0 4.002324 1_565
Cd2 Rb1 4.002324 1_555
Cd3 Li0 2.947135 1_566
Cd3 Rb0 4.002324 1_556
Cd3 Rb1 4.002324 1_555
Cd4 Li0 2.947136 1_655
Cd4 Rb0 4.002324 1_655
Cd4 Rb1 4.002324 1_545
Cd5 Li0 2.947136 1_656
Cd5 Rb1 4.002324 1_545
Cd5 Rb0 4.002324 1_556
Cd6 Li0 2.947136 1_565
Cd6 Rb0 4.002324 1_565
Cd6 Rb1 4.002324 1_554
Cd7 Li1 2.947136 1_555
Cd7 Rb0 4.002324 1_655
Cd7 Rb1 4.002324 1_554
Cd8 Li1 2.947135 1_555
Cd8 Rb0 4.002323 1_565
Cd8 Rb1 4.002324 1_455
Cd9 Li1 2.947136 1_555
Cd9 Rb0 4.002323 1_555
Cd9 Rb1 4.002324 1_554
Cd10 Li1 2.947135 1_555
Cd10 Rb0 4.002324 1_565
Cd10 Rb1 4.002324 1_555
Cd11 Li1 2.947136 1_555
Cd11 Rb1 4.002324 1_455
Cd11 Rb0 4.002324 1_556
Cd12 Li1 2.947136 1_555
Cd12 Rb1 4.002323 1_555
Cd12 Rb0 4.002324 1_556
Cd13 Li1 2.947135 1_555
Cd13 Rb1 4.002324 1_545
Cd13 Rb0 4.002324 1_555
Cd14 Li1 2.947135 1_555
Cd14 Rb1 4.002323 1_545
Cd14 Rb0 4.002324 1_655
Cd15 Li0 2.947136 1_566
Cd15 Rb1 4.002324 1_455
Cd15 Rb0 4.002324 1_565
Cd16 Li0 2.947135 1_556
Cd16 Rb1 4.002324 1_455
Cd16 Rb0 4.002324 1_556
Cd17 Li0 2.947136 1_656
Cd17 Rb1 4.002323 1_555
Cd17 Rb0 4.002324 1_655
Cd18 Li0 2.947136 1_565
Cd18 Rb0 4.002323 1_555
Cd18 Rb1 4.002324 1_455
Cd19 Li0 2.947136 1_556
Cd19 Rb1 4.002324 1_545
Cd19 Rb0 4.002324 1_555
Cd20 Li0 2.947135 1_655
Cd20 Rb1 4.002324 1_554
Cd20 Rb0 4.002324 1_555
Cd21 Li1 2.947135 1_555
Cd21 Rb1 4.002324 1_455
Cd21 Rb0 4.002324 1_555
Cd22 Li1 2.947135 1_555
Cd22 Rb0 4.002324 1_655
Cd22 Rb1 4.002324 1_555
Cd23 Li1 2.947136 1_555
Cd23 Rb0 4.002323 1_565
Cd23 Rb1 4.002324 1_554
