# generated using pymatgen
data_Sr8Bi5I
_symmetry_space_group_name_H-M   'P 1'
_cell_length_a   8.85329843
_cell_length_b   8.85329867
_cell_length_c   8.85329850
_cell_angle_alpha   109.49936075
_cell_angle_beta   109.41495451
_cell_angle_gamma   109.49935718
_symmetry_Int_Tables_number   1
_chemical_formula_structural   Sr8Bi5I
_chemical_formula_sum   'Sr8 Bi5 I1'
_cell_volume   534.18678952
_cell_formula_units_Z   1
loop_
 _symmetry_equiv_pos_site_id
 _symmetry_equiv_pos_as_xyz
  1  'x, y, z'
loop_
 _atom_site_type_symbol
 _atom_site_label
 _atom_site_symmetry_multiplicity
 _atom_site_fract_x
 _atom_site_fract_y
 _atom_site_fract_z
 _atom_site_occupancy
  Sr  Sr0  1  0.48306307  0.99033025  0.61950794  1
  Sr  Sr1  1  0.15300226  0.50782057  0.99836223  1
  Sr  Sr2  1  0.38049206  0.36355613  0.37082231  1
  Sr  Sr3  1  0.00726618  0.13644387  0.51693693  1
  Sr  Sr4  1  0.85481631  0.84535897  0.84699774  1
  Sr  Sr5  1  0.00163777  0.65464103  0.50945834  1
  Sr  Sr6  1  0.49054166  0.99217943  0.14518369  1
  Sr  Sr7  1  0.62917769  0.50966975  0.99273382  1
  Bi  Bi0  1  0.11097702  0.86698383  0.24146224  1
  Bi  Bi1  1  0.37447741  0.63301617  0.74399319  1
  Bi  Bi2  1  0.25600681  0.13048622  0.88902298  1
  Bi  Bi3  1  0.75853776  0.36951378  0.62552259  1
  Bi  Bi4  1  0.62500000  0.75000000  0.37500000  1
  I  I0  1  0.87500000  0.25000000  0.12500000  1
loop_
_geom_bond_atom_site_label_1
_geom_bond_atom_site_label_2
_geom_bond_distance
_geom_bond_site_symmetry_2
Bi0 Sr0 3.327883 1_555
Bi0 Sr4 3.372611 1_454
Bi0 Sr3 3.398398 1_565
Bi0 Sr1 3.411006 1_554
Bi0 Sr7 3.625963 1_454
Bi0 Sr6 3.646343 1_555
Bi0 Sr5 3.659296 1_555
Bi0 Sr2 3.761847 1_565
Bi1 Sr7 3.327893 1_555
Bi1 Sr5 3.372608 1_555
Bi1 Sr2 3.398398 1_555
Bi1 Sr6 3.411014 1_556
Bi1 Sr0 3.625963 1_555
Bi1 Sr1 3.646348 1_555
Bi1 Sr4 3.659293 1_555
Bi1 Sr3 3.761846 1_555
Bi2 Sr3 3.327876 1_555
Bi2 Sr6 3.372627 1_546
Bi2 Sr7 3.398388 1_555
Bi2 Sr4 3.411026 1_445
Bi2 Sr2 3.625963 1_556
Bi2 Sr5 3.646354 1_545
Bi2 Sr1 3.659293 1_555
Bi2 Sr0 3.761842 1_545
Bi3 Sr2 3.327895 1_555
Bi3 Sr1 3.372603 1_655
Bi3 Sr0 3.398385 1_545
Bi3 Sr5 3.411024 1_655
Bi3 Sr3 3.625957 1_655
Bi3 Sr4 3.646359 1_555
Bi3 Sr6 3.659293 1_545
Bi3 Sr7 3.761840 1_555
Bi4 Sr3 3.363129 1_665
Bi4 Sr7 3.363131 1_554
Bi4 Sr2 3.363131 1_555
Bi4 Sr0 3.363138 1_555
Bi4 Sr6 3.627661 1_555
Bi4 Sr5 3.627667 1_655
Bi4 Sr1 3.627673 1_554
Bi4 Sr4 3.627674 1_555
I0 Sr4 3.509594 1_544
I0 Sr1 3.509597 1_654
I0 Sr5 3.509602 1_655
I0 Sr6 3.509607 1_545
I0 Sr7 3.851730 1_554
I0 Sr2 3.851730 1_655
I0 Sr0 3.851733 1_544
I0 Sr3 3.851738 1_655
