# generated using pymatgen
data_Ga2Cu(Ni10B3)2
_symmetry_space_group_name_H-M   'P 1'
_cell_length_a   7.34044349
_cell_length_b   7.34044396
_cell_length_c   7.34044357
_cell_angle_alpha   60.00000616
_cell_angle_beta   60.00000403
_cell_angle_gamma   60.00000228
_symmetry_Int_Tables_number   1
_chemical_formula_structural   Ga2Cu(Ni10B3)2
_chemical_formula_sum   'Ga2 Cu1 Ni20 B6'
_cell_volume   279.67392295
_cell_formula_units_Z   1
loop_
 _symmetry_equiv_pos_site_id
 _symmetry_equiv_pos_as_xyz
  1  'x, y, z'
loop_
 _atom_site_type_symbol
 _atom_site_label
 _atom_site_symmetry_multiplicity
 _atom_site_fract_x
 _atom_site_fract_y
 _atom_site_fract_z
 _atom_site_occupancy
  Ga  Ga0  1  0.75000000  0.75000000  0.75000000  1
  Ga  Ga1  1  0.25000000  0.25000000  0.25000000  1
  Cu  Cu0  1  0.00000000  0.00000000  0.00000000  1
  Ni  Ni0  1  0.00000000  0.33737812  0.66262188  1
  Ni  Ni1  1  0.00000000  0.00000000  0.66262188  1
  Ni  Ni2  1  0.66262188  0.33737812  1.00000000  1
  Ni  Ni3  1  1.00000000  0.33737812  1.00000000  1
  Ni  Ni4  1  0.33737812  0.00000000  0.66262188  1
  Ni  Ni5  1  0.33737812  0.00000000  1.00000000  1
  Ni  Ni6  1  0.66262188  1.00000000  0.00000000  1
  Ni  Ni7  1  0.33737812  0.66262188  0.00000000  1
  Ni  Ni8  1  0.66262188  1.00000000  0.33737812  1
  Ni  Ni9  1  1.00000000  1.00000000  0.33737812  1
  Ni  Ni10  1  0.00000000  0.66262188  0.00000000  1
  Ni  Ni11  1  1.00000000  0.66262188  0.33737812  1
  Ni  Ni12  1  0.61767789  0.14696434  0.61767789  1
  Ni  Ni13  1  0.38232211  0.38232211  0.85303566  1
  Ni  Ni14  1  0.85303566  0.38232211  0.38232211  1
  Ni  Ni15  1  0.38232211  0.38232211  0.38232211  1
  Ni  Ni16  1  0.14696434  0.61767789  0.61767789  1
  Ni  Ni17  1  0.61767789  0.61767789  0.61767789  1
  Ni  Ni18  1  0.61767789  0.61767789  0.14696434  1
  Ni  Ni19  1  0.38232211  0.85303566  0.38232211  1
  B  B0  1  0.72608876  0.27391124  0.72608876  1
  B  B1  1  0.72608876  0.27391124  0.27391124  1
  B  B2  1  0.27391124  0.72608876  0.72608876  1
  B  B3  1  0.27391124  0.27391124  0.72608876  1
  B  B4  1  0.72608876  0.72608876  0.27391124  1
  B  B5  1  0.27391124  0.72608876  0.27391124  1
loop_
_geom_bond_atom_site_label_1
_geom_bond_atom_site_label_2
_geom_bond_distance
_geom_bond_site_symmetry_2
Ga0 Ni16 2.379185 1_655
Ga0 Ni18 2.379185 1_556
Ga0 Ni12 2.379185 1_565
Ga0 Ni17 2.379197 1_555
Ga1 Ni14 2.379185 1_455
Ga1 Ni13 2.379185 1_554
Ga1 Ni19 2.379185 1_545
Ga1 Ni15 2.379197 1_555
Cu0 Ni5 2.476505 1_554
Cu0 Ni6 2.476505 1_445
Cu0 Ni9 2.476505 1_445
Cu0 Ni1 2.476505 1_554
Cu0 Ni3 2.476505 1_454
Cu0 Ni10 2.476505 1_545
Cu0 Ni4 2.476505 1_554
Cu0 Ni8 2.476505 1_445
Cu0 Ni7 2.476505 1_545
Cu0 Ni2 2.476505 1_454
Cu0 Ni11 2.476505 1_445
Cu0 Ni0 2.476505 1_554
B0 Ni17 2.061844 1_555
B0 Ni13 2.061844 1_555
B0 Ni14 2.061845 1_555
B0 Ni12 2.061856 1_555
B0 Ni2 2.063897 1_555
B0 Ni0 2.063897 1_655
B0 Ni1 2.063898 1_655
B0 Ni6 2.063898 1_546
B1 Ni15 2.061844 1_555
B1 Ni12 2.061845 1_555
B1 Ni18 2.061845 1_555
B1 Ni14 2.061856 1_555
B1 Ni2 2.063897 1_554
B1 Ni9 2.063898 1_545
B1 Ni8 2.063898 1_545
B1 Ni3 2.063898 1_554
B2 Ni17 2.061844 1_555
B2 Ni19 2.061845 1_555
B2 Ni13 2.061845 1_555
B2 Ni16 2.061856 1_555
B2 Ni7 2.063897 1_556
B2 Ni1 2.063898 1_565
B2 Ni4 2.063898 1_565
B2 Ni10 2.063898 1_556
B3 Ni15 2.061844 1_555
B3 Ni12 2.061844 1_555
B3 Ni16 2.061845 1_555
B3 Ni13 2.061856 1_555
B3 Ni0 2.063897 1_555
B3 Ni4 2.063897 1_555
B3 Ni3 2.063897 1_455
B3 Ni5 2.063898 1_555
B4 Ni17 2.061844 1_555
B4 Ni19 2.061844 1_555
B4 Ni14 2.061845 1_555
B4 Ni18 2.061856 1_555
B4 Ni11 2.063897 1_555
B4 Ni8 2.063897 1_555
B4 Ni10 2.063897 1_655
B4 Ni6 2.063898 1_555
B5 Ni15 2.061844 1_555
B5 Ni18 2.061844 1_555
B5 Ni16 2.061845 1_555
B5 Ni19 2.061856 1_555
B5 Ni7 2.063897 1_555
B5 Ni11 2.063897 1_455
B5 Ni9 2.063898 1_455
B5 Ni5 2.063898 1_564
