# generated using pymatgen
data_Zr6Nb4Ga12Os7
_symmetry_space_group_name_H-M   'P 1'
_cell_length_a   8.81512039
_cell_length_b   8.81512031
_cell_length_c   8.81511994
_cell_angle_alpha   59.99999770
_cell_angle_beta   59.99999802
_cell_angle_gamma   59.99999623
_symmetry_Int_Tables_number   1
_chemical_formula_structural   Zr6Nb4Ga12Os7
_chemical_formula_sum   'Zr6 Nb4 Ga12 Os7'
_cell_volume   484.36158680
_cell_formula_units_Z   1
loop_
 _symmetry_equiv_pos_site_id
 _symmetry_equiv_pos_as_xyz
  1  'x, y, z'
loop_
 _atom_site_type_symbol
 _atom_site_label
 _atom_site_symmetry_multiplicity
 _atom_site_fract_x
 _atom_site_fract_y
 _atom_site_fract_z
 _atom_site_occupancy
  Zr  Zr0  1  0.70360994  0.70360994  0.29639006  1
  Zr  Zr1  1  0.29639006  0.70360994  0.29639006  1
  Zr  Zr2  1  0.70360994  0.29639006  0.29639006  1
  Zr  Zr3  1  0.29639006  0.29639006  0.70360994  1
  Zr  Zr4  1  0.70360994  0.29639006  0.70360994  1
  Zr  Zr5  1  0.29639006  0.70360994  0.70360994  1
  Nb  Nb0  1  0.87783456  0.87783456  0.36649732  1
  Nb  Nb1  1  0.87783456  0.36649732  0.87783456  1
  Nb  Nb2  1  0.36649732  0.87783456  0.87783456  1
  Nb  Nb3  1  0.87783456  0.87783456  0.87783456  1
  Ga  Ga0  1  0.12056770  0.12056770  0.63829589  1
  Ga  Ga1  1  0.12056770  0.63829589  0.12056770  1
  Ga  Ga2  1  0.63829589  0.12056770  0.12056770  1
  Ga  Ga3  1  0.12056770  0.12056770  0.12056770  1
  Ga  Ga4  1  0.65635825  0.65635825  0.03092426  1
  Ga  Ga5  1  0.65635825  0.03092426  0.65635825  1
  Ga  Ga6  1  0.03092426  0.65635825  0.65635825  1
  Ga  Ga7  1  0.65635825  0.65635825  0.65635825  1
  Ga  Ga8  1  0.33835390  0.33835390  0.98493931  1
  Ga  Ga9  1  0.33835390  0.98493931  0.33835390  1
  Ga  Ga10  1  0.98493931  0.33835390  0.33835390  1
  Ga  Ga11  1  0.33835390  0.33835390  0.33835390  1
  Os  Os0  1  0.00000000  0.00000000  0.00000000  1
  Os  Os1  1  0.99807470  0.99807470  0.50192530  1
  Os  Os2  1  0.50192530  0.99807470  0.50192530  1
  Os  Os3  1  0.99807470  0.50192530  0.50192530  1
  Os  Os4  1  0.50192530  0.50192530  0.99807470  1
  Os  Os5  1  0.99807470  0.50192530  0.99807470  1
  Os  Os6  1  0.50192530  0.99807470  0.99807470  1
loop_
_geom_bond_atom_site_label_1
_geom_bond_atom_site_label_2
_geom_bond_distance
_geom_bond_site_symmetry_2
Zr0 Zr4 3.589692 1_555
Zr0 Zr5 3.589692 1_555
Zr0 Zr2 3.589692 1_555
Zr0 Zr1 3.589692 1_555
Zr1 Zr3 3.589692 1_555
Zr1 Zr2 3.589692 1_555
Zr1 Zr5 3.589692 1_555
Zr2 Zr3 3.589692 1_555
Zr2 Zr4 3.589692 1_555
Zr3 Zr5 3.589692 1_555
Zr3 Zr4 3.589692 1_555
Zr4 Zr5 3.589692 1_555
Nb0 Os0 2.637870 1_665
Nb0 Os1 2.706710 1_555
Nb0 Os3 2.706717 1_555
Nb0 Os2 2.706717 1_555
Nb0 Zr2 3.058807 1_565
Nb0 Zr1 3.058807 1_655
Nb0 Zr0 3.058815 1_555
Nb1 Os0 2.637870 1_656
Nb1 Os5 2.706710 1_555
Nb1 Os3 2.706716 1_555
Nb1 Os4 2.706717 1_555
Nb1 Zr2 3.058807 1_556
Nb1 Zr3 3.058807 1_655
Nb1 Zr4 3.058815 1_555
Nb2 Os0 2.637870 1_566
Nb2 Os6 2.706710 1_555
Nb2 Os2 2.706716 1_555
Nb2 Os4 2.706717 1_555
Nb2 Zr1 3.058807 1_556
Nb2 Zr3 3.058807 1_565
Nb2 Zr5 3.058815 1_555
Nb3 Os0 2.637863 1_666
Nb3 Os1 2.706717 1_555
Nb3 Os5 2.706717 1_555
Nb3 Os6 2.706717 1_555
Nb3 Zr0 3.058809 1_556
Nb3 Zr4 3.058809 1_565
Nb3 Zr5 3.058809 1_655
Ga0 Os0 2.603371 1_556
Ga0 Os1 2.745729 1_445
Ga0 Os3 2.745736 1_455
Ga0 Os2 2.745736 1_545
Ga0 Ga10 2.809943 1_455
Ga0 Ga9 2.809943 1_545
Ga0 Ga11 2.809953 1_555
Ga0 Nb3 3.026155 1_445
Ga0 Nb1 3.026167 1_455
Ga0 Nb2 3.026167 1_545
Ga0 Zr5 3.053306 1_545
Ga0 Zr4 3.053306 1_455
Ga0 Zr3 3.053314 1_555
Ga1 Os0 2.603371 1_565
Ga1 Os5 2.745729 1_454
Ga1 Os3 2.745736 1_455
Ga1 Os4 2.745736 1_554
Ga1 Ga8 2.809943 1_554
Ga1 Ga10 2.809943 1_455
Ga1 Ga11 2.809953 1_555
Ga1 Nb3 3.026155 1_454
Ga1 Nb0 3.026167 1_455
Ga1 Nb2 3.026167 1_554
Ga1 Zr5 3.053306 1_554
Ga1 Zr0 3.053306 1_455
Ga1 Zr1 3.053314 1_555
Ga2 Os0 2.603371 1_655
Ga2 Os6 2.745729 1_544
Ga2 Os2 2.745736 1_545
Ga2 Os4 2.745736 1_554
Ga2 Ga8 2.809943 1_554
Ga2 Ga9 2.809943 1_545
Ga2 Nb3 3.026155 1_544
Ga2 Nb0 3.026167 1_545
Ga2 Nb1 3.026167 1_554
Ga2 Zr4 3.053306 1_554
Ga2 Zr0 3.053306 1_545
Ga2 Zr2 3.053313 1_555
Ga3 Os0 2.603364 1_555
Ga3 Os1 2.745736 1_445
Ga3 Os5 2.745736 1_454
Ga3 Os6 2.745736 1_544
Ga3 Ga9 2.809958 1_545
Ga3 Ga8 2.809958 1_554
Ga3 Nb1 3.026155 1_454
Ga3 Nb2 3.026155 1_544
Ga3 Nb0 3.026155 1_445
Ga3 Zr3 3.053307 1_554
Ga3 Zr1 3.053307 1_545
Ga3 Zr2 3.053307 1_455
Ga4 Os4 2.536149 1_554
Ga4 Os6 2.536156 1_554
Ga4 Os5 2.536156 1_554
Ga4 Zr2 2.818872 1_555
Ga4 Zr1 2.818872 1_555
Ga4 Zr0 2.818877 1_555
Ga4 Nb1 2.826057 1_554
Ga4 Nb2 2.826057 1_554
Ga4 Nb3 2.826071 1_554
Ga5 Os2 2.536149 1_545
Ga5 Os6 2.536156 1_545
Ga5 Os1 2.536156 1_545
Ga5 Zr2 2.818872 1_555
Ga5 Zr3 2.818872 1_555
Ga5 Zr4 2.818878 1_555
Ga5 Nb0 2.826057 1_545
Ga5 Nb2 2.826057 1_545
Ga5 Nb3 2.826071 1_545
Ga6 Os3 2.536149 1_455
Ga6 Os5 2.536156 1_455
Ga6 Os1 2.536156 1_455
Ga6 Zr1 2.818872 1_555
Ga6 Zr3 2.818872 1_555
Ga6 Zr5 2.818878 1_555
Ga6 Nb0 2.826057 1_455
Ga6 Nb1 2.826057 1_455
Ga6 Nb3 2.826071 1_455
Ga7 Os4 2.536154 1_555
Ga7 Os2 2.536154 1_555
Ga7 Os3 2.536154 1_555
Ga7 Zr0 2.818869 1_555
Ga7 Zr4 2.818869 1_555
Ga7 Zr5 2.818869 1_555
Ga7 Nb1 2.826067 1_555
Ga7 Nb2 2.826067 1_555
Ga7 Nb0 2.826067 1_555
Ga8 Os4 2.566040 1_555
Ga8 Os6 2.566048 1_545
Ga8 Os5 2.566048 1_455
Ga8 Zr5 2.897481 1_555
Ga8 Zr4 2.897481 1_555
Ga8 Zr3 2.897486 1_555
Ga9 Os2 2.566040 1_555
Ga9 Os6 2.566048 1_554
Ga9 Os1 2.566048 1_455
Ga9 Zr5 2.897481 1_555
Ga9 Zr0 2.897481 1_555
Ga9 Zr1 2.897486 1_555
Ga10 Os3 2.566040 1_555
Ga10 Os5 2.566048 1_554
Ga10 Os1 2.566048 1_545
Ga10 Ga3 2.809958 1_655
Ga10 Zr0 2.897481 1_555
Ga10 Zr4 2.897481 1_555
Ga10 Zr2 2.897486 1_555
Ga11 Os2 2.566046 1_545
Ga11 Os4 2.566046 1_554
Ga11 Os3 2.566046 1_455
Ga11 Ga2 2.809953 1_555
Ga11 Zr3 2.897477 1_555
Ga11 Zr1 2.897478 1_555
Ga11 Zr2 2.897478 1_555
Os1 Zr2 3.169909 1_565
Os1 Zr1 3.169909 1_655
Os1 Zr4 3.169909 1_565
Os1 Zr5 3.169909 1_655
Os2 Zr3 3.169909 1_565
Os2 Zr0 3.169909 1_555
Os2 Zr2 3.169909 1_565
Os2 Zr5 3.169909 1_555
Os3 Zr3 3.169909 1_655
Os3 Zr0 3.169909 1_555
Os3 Zr1 3.169909 1_655
Os3 Zr4 3.169909 1_555
Os4 Zr2 3.169909 1_556
Os4 Zr1 3.169909 1_556
Os4 Zr4 3.169909 1_555
Os4 Zr5 3.169909 1_555
Os5 Zr0 3.169909 1_556
Os5 Zr3 3.169909 1_655
Os5 Zr2 3.169909 1_556
Os5 Zr5 3.169909 1_655
Os6 Zr3 3.169909 1_565
Os6 Zr0 3.169909 1_556
Os6 Zr1 3.169909 1_556
Os6 Zr4 3.169909 1_565
