# generated using pymatgen
data_Ta8Ga6Tc2C
_symmetry_space_group_name_H-M   'P 1'
_cell_length_a   7.65184971
_cell_length_b   7.65184897
_cell_length_c   5.13198698
_cell_angle_alpha   90.00000000
_cell_angle_beta   90.00000000
_cell_angle_gamma   119.99999473
_symmetry_Int_Tables_number   1
_chemical_formula_structural   Ta8Ga6Tc2C
_chemical_formula_sum   'Ta8 Ga6 Tc2 C1'
_cell_volume   260.22500230
_cell_formula_units_Z   1
loop_
 _symmetry_equiv_pos_site_id
 _symmetry_equiv_pos_as_xyz
  1  'x, y, z'
loop_
 _atom_site_type_symbol
 _atom_site_label
 _atom_site_symmetry_multiplicity
 _atom_site_fract_x
 _atom_site_fract_y
 _atom_site_fract_z
 _atom_site_occupancy
  Ta  Ta0  1  0.66666700  0.33333300  0.00000000  1
  Ta  Ta1  1  0.33333300  0.66666700  0.00000000  1
  Ta  Ta2  1  0.00000000  0.76724022  0.23744089  1
  Ta  Ta3  1  0.23275978  0.23275978  0.23744089  1
  Ta  Ta4  1  0.76724022  0.00000000  0.23744089  1
  Ta  Ta5  1  1.00000000  0.23275978  0.76255911  1
  Ta  Ta6  1  0.76724022  0.76724022  0.76255911  1
  Ta  Ta7  1  0.23275978  1.00000000  0.76255911  1
  Ga  Ga0  1  1.00000000  0.40529034  0.26291598  1
  Ga  Ga1  1  0.59470966  0.59470966  0.26291598  1
  Ga  Ga2  1  0.40529034  1.00000000  0.26291598  1
  Ga  Ga3  1  0.00000000  0.59470966  0.73708402  1
  Ga  Ga4  1  0.40529034  0.40529034  0.73708402  1
  Ga  Ga5  1  0.59470966  0.00000000  0.73708402  1
  Tc  Tc0  1  0.33333300  0.66666700  0.50000000  1
  Tc  Tc1  1  0.66666700  0.33333300  0.50000000  1
  C  C0  1  0.00000000  0.00000000  0.50000000  1
loop_
_geom_bond_atom_site_label_1
_geom_bond_atom_site_label_2
_geom_bond_distance
_geom_bond_site_symmetry_2
Ta0 Tc1 2.565993 1_554
Ta0 Tc1 2.565993 1_555
Ta1 Tc0 2.565993 1_554
Ta1 Tc0 2.565993 1_555
Ga0 Tc1 2.623891 1_555
Ga0 Tc0 2.623893 1_655
Ga0 Ta0 2.687931 1_555
Ga0 Ta1 2.687933 1_655
Ga0 Ta3 2.698772 1_655
Ga0 Ta4 2.698772 1_555
Ga0 Ta2 2.772670 1_655
Ga0 Ta5 2.884059 1_555
Ga0 Ta5 2.887316 1_554
Ga1 Tc1 2.623897 1_555
Ga1 Tc0 2.623897 1_555
Ga1 Ta0 2.687938 1_555
Ga1 Ta1 2.687938 1_555
Ga1 Ta4 2.698772 1_565
Ga1 Ta2 2.698772 1_655
Ga1 Ta3 2.772670 1_555
Ga1 Ta6 2.884059 1_555
Ga1 Ta6 2.887316 1_554
Ga2 Tc0 2.623891 1_555
Ga2 Tc1 2.623893 1_565
Ga2 Ta1 2.687931 1_555
Ga2 Ta0 2.687933 1_565
Ga2 Ta3 2.698772 1_565
Ga2 Ta2 2.698772 1_555
Ga2 Ta4 2.772670 1_565
Ga2 Ta7 2.884059 1_555
Ga2 Ta7 2.887316 1_554
Ga3 Tc0 2.623891 1_555
Ga3 Tc1 2.623893 1_455
Ga3 Ta1 2.687931 1_556
Ga3 Ta0 2.687933 1_456
Ga3 Ta6 2.698772 1_455
Ga3 Ta7 2.698772 1_555
Ga3 Ta5 2.772670 1_455
Ga3 Ta2 2.884059 1_555
Ga3 Ta2 2.887316 1_556
Ga4 Tc0 2.623897 1_555
Ga4 Tc1 2.623897 1_555
Ga4 Ta1 2.687938 1_556
Ga4 Ta0 2.687938 1_556
Ga4 Ta7 2.698772 1_545
Ga4 Ta5 2.698772 1_455
Ga4 Ta6 2.772670 1_555
Ga4 Ta3 2.884059 1_555
Ga4 Ta3 2.887316 1_556
Ga5 Tc1 2.623891 1_555
Ga5 Tc0 2.623893 1_545
Ga5 Ta0 2.687931 1_556
Ga5 Ta1 2.687933 1_546
Ga5 Ta6 2.698772 1_545
Ga5 Ta5 2.698772 1_555
Ga5 Ta7 2.772670 1_545
Ga5 Ta4 2.884059 1_555
Ga5 Ta4 2.887316 1_556
C0 Ta5 2.233324 1_455
C0 Ta2 2.233324 1_545
C0 Ta7 2.233324 1_545
C0 Ta4 2.233324 1_455
C0 Ta3 2.233324 1_555
C0 Ta6 2.233324 1_445
