# generated using pymatgen
data_Cs4As2Au7
_symmetry_space_group_name_H-M   'P 1'
_cell_length_a   11.31075555
_cell_length_b   11.31075541
_cell_length_c   11.31075629
_cell_angle_alpha   34.06606558
_cell_angle_beta   34.06606763
_cell_angle_gamma   34.06606737
_symmetry_Int_Tables_number   1
_chemical_formula_structural   Cs4As2Au7
_chemical_formula_sum   'Cs4 As2 Au7'
_cell_volume   404.75292245
_cell_formula_units_Z   1
loop_
 _symmetry_equiv_pos_site_id
 _symmetry_equiv_pos_as_xyz
  1  'x, y, z'
loop_
 _atom_site_type_symbol
 _atom_site_label
 _atom_site_symmetry_multiplicity
 _atom_site_fract_x
 _atom_site_fract_y
 _atom_site_fract_z
 _atom_site_occupancy
  Cs  Cs0  1  0.68657776  0.68657776  0.68657776  1
  Cs  Cs1  1  0.31342224  0.31342224  0.31342224  1
  Cs  Cs2  1  0.81090058  0.81090058  0.81090058  1
  Cs  Cs3  1  0.18909942  0.18909942  0.18909942  1
  As  As0  1  0.56106400  0.56106400  0.56106400  1
  As  As1  1  0.43893600  0.43893600  0.43893600  1
  Au  Au0  1  0.00000000  0.00000000  0.00000000  1
  Au  Au1  1  0.21278818  0.21278818  0.79706755  1
  Au  Au2  1  0.79706755  0.21278818  0.21278818  1
  Au  Au3  1  0.21278818  0.79706755  0.21278818  1
  Au  Au4  1  0.78721182  0.20293245  0.78721182  1
  Au  Au5  1  0.78721182  0.78721182  0.20293245  1
  Au  Au6  1  0.20293245  0.78721182  0.78721182  1
loop_
_geom_bond_atom_site_label_1
_geom_bond_atom_site_label_2
_geom_bond_distance
_geom_bond_site_symmetry_2
As0 Au5 2.449722 1_555
As0 Au4 2.449722 1_555
As0 Au6 2.449722 1_555
As0 Cs3 4.019695 1_556
As0 Cs3 4.019696 1_565
As0 Cs3 4.019696 1_655
As1 Au1 2.449722 1_555
As1 Au3 2.449722 1_555
As1 Au2 2.449722 1_555
As1 Cs2 4.019695 1_554
As1 Cs2 4.019696 1_545
As1 Cs2 4.019696 1_455
Au0 Au1 2.854059 1_554
Au0 Au5 2.854059 1_445
Au0 Au3 2.854059 1_545
Au0 Au4 2.854059 1_454
Au0 Au2 2.854059 1_455
Au0 Au6 2.854059 1_544
Au0 Cs0 3.878205 1_454
Au0 Cs1 3.878205 1_545
Au0 Cs0 3.878205 1_544
Au0 Cs1 3.878205 1_455
Au0 Cs0 3.878205 1_445
Au0 Cs1 3.878205 1_554
Au1 Cs1 3.745731 1_555
Au1 Cs0 3.753400 1_455
Au1 Cs0 3.753400 1_545
Au1 Cs3 3.998456 1_556
Au1 Cs2 4.010022 1_455
Au1 Cs2 4.010022 1_545
Au2 Cs1 3.745730 1_555
Au2 Cs0 3.753400 1_545
Au2 Cs0 3.753400 1_554
Au2 Cs3 3.998456 1_655
Au2 Cs2 4.010022 1_554
Au2 Cs2 4.010022 1_545
Au3 Cs1 3.745730 1_555
Au3 Cs0 3.753400 1_455
Au3 Cs0 3.753401 1_554
Au3 Cs3 3.998456 1_565
Au3 Cs2 4.010022 1_554
Au3 Cs2 4.010022 1_455
Au4 Cs0 3.745730 1_555
Au4 Cs1 3.753400 1_655
Au4 Cs1 3.753401 1_556
Au4 Cs2 3.998456 1_545
Au4 Cs3 4.010022 1_556
Au4 Cs3 4.010022 1_655
Au5 Cs0 3.745731 1_555
Au5 Cs1 3.753400 1_655
Au5 Cs1 3.753400 1_565
Au5 Cs2 3.998456 1_554
Au5 Cs3 4.010022 1_655
Au5 Cs3 4.010022 1_565
Au6 Cs0 3.745730 1_555
Au6 Cs1 3.753400 1_565
Au6 Cs1 3.753400 1_556
Au6 Cs2 3.998456 1_455
Au6 Cs3 4.010022 1_556
Au6 Cs3 4.010022 1_565
