# generated using pymatgen
data_Mn4Al2PbO12
_symmetry_space_group_name_H-M   'P 1'
_cell_length_a   7.97670003
_cell_length_b   7.97669982
_cell_length_c   9.46683053
_cell_angle_alpha   54.39508112
_cell_angle_beta   54.39508147
_cell_angle_gamma   64.75751688
_symmetry_Int_Tables_number   1
_chemical_formula_structural   Mn4Al2PbO12
_chemical_formula_sum   'Mn8 Al4 Pb2 O24'
_cell_volume   394.68268116
_cell_formula_units_Z   2
loop_
 _symmetry_equiv_pos_site_id
 _symmetry_equiv_pos_as_xyz
  1  'x, y, z'
loop_
 _atom_site_type_symbol
 _atom_site_label
 _atom_site_symmetry_multiplicity
 _atom_site_fract_x
 _atom_site_fract_y
 _atom_site_fract_z
 _atom_site_occupancy
  Mn  Mn0  1  0.66935721  0.00132655  0.81744943  1
  Mn  Mn1  1  0.18616762  0.51801761  0.47958161  1
  Mn  Mn2  1  0.81383238  0.48198239  0.52041839  1
  Mn  Mn3  1  0.33064279  0.99867345  0.18255057  1
  Mn  Mn4  1  0.99867345  0.33064279  0.18255057  1
  Mn  Mn5  1  0.00132655  0.66935721  0.81744943  1
  Mn  Mn6  1  0.51801761  0.18616762  0.47958161  1
  Mn  Mn7  1  0.48198239  0.81383238  0.52041839  1
  Al  Al0  1  0.85465354  0.85465354  0.47667249  1
  Al  Al1  1  0.33568216  0.33568216  0.81576813  1
  Al  Al2  1  0.14534646  0.14534646  0.52332751  1
  Al  Al3  1  0.66431784  0.66431784  0.18423187  1
  Pb  Pb0  1  0.28011816  0.71988184  1.00000000  1
  Pb  Pb1  1  0.71988184  0.28011816  0.00000000  1
  O  O0  1  0.70394156  0.70394156  0.94598678  1
  O  O1  1  0.01208007  0.67594559  0.35010231  1
  O  O2  1  0.67594559  0.01208007  0.35010231  1
  O  O3  1  0.67933488  0.01059603  0.61242536  1
  O  O4  1  0.01059603  0.67933488  0.61242536  1
  O  O5  1  0.04244921  0.04244921  0.28264063  1
  O  O6  1  0.70864357  0.37691238  0.27823891  1
  O  O7  1  0.37691238  0.70864357  0.27823891  1
  O  O8  1  0.98940397  0.32066512  0.38757464  1
  O  O9  1  0.98791993  0.32405441  0.64989769  1
  O  O10  1  0.03483170  0.37025835  0.94536176  1
  O  O11  1  0.37025835  0.03483170  0.94536176  1
  O  O12  1  0.29605844  0.29605844  0.05401322  1
  O  O13  1  0.96516830  0.62974165  0.05463824  1
  O  O14  1  0.34129078  0.34129078  0.35513742  1
  O  O15  1  0.34766948  0.34766948  0.61102853  1
  O  O16  1  0.29135643  0.62308762  0.72176109  1
  O  O17  1  0.62308762  0.29135643  0.72176109  1
  O  O18  1  0.95755079  0.95755079  0.71735937  1
  O  O19  1  0.65233052  0.65233052  0.38897147  1
  O  O20  1  0.32066512  0.98940397  0.38757464  1
  O  O21  1  0.65870922  0.65870922  0.64486258  1
  O  O22  1  0.32405441  0.98791993  0.64989769  1
  O  O23  1  0.62974165  0.96516830  0.05463824  1
loop_
_geom_bond_atom_site_label_1
_geom_bond_atom_site_label_2
_geom_bond_distance
_geom_bond_site_symmetry_2
Mn0 O3 1.853928 1_555
Mn0 O18 1.862447 1_545
Mn0 O17 1.878787 1_555
Mn0 O0 1.911963 1_545
Mn0 O11 1.923262 1_555
Mn0 O23 1.929359 1_546
Mn1 O15 1.859900 1_555
Mn1 O7 1.865978 1_555
Mn1 O4 1.869548 1_555
Mn1 O14 1.911777 1_555
Mn1 O9 1.925459 1_455
Mn1 O1 1.926068 1_555
Mn2 O19 1.859900 1_555
Mn2 O17 1.865978 1_555
Mn2 O8 1.869548 1_555
Mn2 O21 1.911777 1_555
Mn2 O1 1.925459 1_655
Mn2 O9 1.926068 1_555
Mn3 O20 1.853928 1_555
Mn3 O5 1.862447 1_565
Mn3 O7 1.878787 1_555
Mn3 O12 1.911963 1_565
Mn3 O23 1.923262 1_555
Mn3 O11 1.929359 1_564
Mn4 O8 1.853928 1_555
Mn4 O5 1.862447 1_655
Mn4 O6 1.878788 1_555
Mn4 O12 1.911963 1_655
Mn4 O13 1.923262 1_555
Mn4 O10 1.929359 1_654
Mn5 O4 1.853928 1_555
Mn5 O18 1.862447 1_455
Mn5 O16 1.878788 1_555
Mn5 O0 1.911963 1_455
Mn5 O10 1.923262 1_555
Mn5 O13 1.929359 1_456
Mn6 O15 1.859900 1_555
Mn6 O6 1.865978 1_555
Mn6 O3 1.869548 1_555
Mn6 O14 1.911777 1_555
Mn6 O22 1.925459 1_545
Mn6 O2 1.926068 1_555
Mn7 O19 1.859900 1_555
Mn7 O16 1.865978 1_555
Mn7 O20 1.869548 1_555
Mn7 O21 1.911777 1_555
Mn7 O2 1.925459 1_565
Mn7 O22 1.926068 1_555
Al0 O5 1.835224 1_665
Al0 O3 1.854633 1_565
Al0 O4 1.854633 1_655
Al0 O21 1.925923 1_555
Al0 O1 1.937722 1_655
Al0 O2 1.937722 1_565
Al1 O15 1.830640 1_555
Al1 O16 1.863384 1_555
Al1 O17 1.863384 1_555
Al1 O12 1.926615 1_556
Al1 O11 1.934309 1_555
Al1 O10 1.934309 1_555
Al2 O18 1.835224 1_445
Al2 O20 1.854633 1_545
Al2 O8 1.854633 1_455
Al2 O14 1.925923 1_555
Al2 O9 1.937722 1_455
Al2 O22 1.937722 1_545
Al3 O19 1.830640 1_555
Al3 O6 1.863384 1_555
Al3 O7 1.863384 1_555
Al3 O0 1.926615 1_554
Al3 O23 1.934309 1_555
Al3 O13 1.934309 1_555
O1 Pb0 2.591235 1_554
O2 Pb1 2.591235 1_555
O9 Pb1 2.591235 1_556
O10 Pb1 2.586602 1_456
O11 Pb0 2.586602 1_545
O13 Pb0 2.586602 1_654
O22 Pb0 2.591235 1_555
O23 Pb1 2.586602 1_565
