# generated using pymatgen
data_ThMn12
_symmetry_space_group_name_H-M   'P 1'
_cell_length_a   6.38208783
_cell_length_b   6.38208783
_cell_length_c   6.38208783
_cell_angle_alpha   97.84703944
_cell_angle_beta   97.84703944
_cell_angle_gamma   136.63065273
_symmetry_Int_Tables_number   1
_chemical_formula_structural   ThMn12
_chemical_formula_sum   'Th1 Mn12'
_cell_volume   165.87405205
_cell_formula_units_Z   1
loop_
 _symmetry_equiv_pos_site_id
 _symmetry_equiv_pos_as_xyz
  1  'x, y, z'
loop_
 _atom_site_type_symbol
 _atom_site_label
 _atom_site_symmetry_multiplicity
 _atom_site_fract_x
 _atom_site_fract_y
 _atom_site_fract_z
 _atom_site_occupancy
  Th  Th0  1  0.00000000  0.00000000  0.00000000  1
  Mn  Mn0  1  0.00000000  0.50000000  0.00000000  1
  Mn  Mn1  1  0.50000000  0.50000000  0.50000000  1
  Mn  Mn2  1  0.00000000  0.00000000  0.50000000  1
  Mn  Mn3  1  0.50000000  0.00000000  0.00000000  1
  Mn  Mn4  1  0.36754700  0.00000000  0.36754700  1
  Mn  Mn5  1  0.00000000  0.63245300  0.63245300  1
  Mn  Mn6  1  0.00000000  0.36754700  0.36754700  1
  Mn  Mn7  1  0.63245300  0.00000000  0.63245300  1
  Mn  Mn8  1  0.26751600  0.50000000  0.76751600  1
  Mn  Mn9  1  0.50000000  0.73248400  0.23248400  1
  Mn  Mn10  1  0.50000000  0.26751600  0.76751600  1
  Mn  Mn11  1  0.73248400  0.50000000  0.23248400  1
loop_
_geom_bond_atom_site_label_1
_geom_bond_atom_site_label_2
_geom_bond_distance
_geom_bond_site_symmetry_2
Mn0 Mn3 2.358170 1_565
Mn0 Mn3 2.358170 1_455
Mn0 Mn8 2.409996 1_554
Mn0 Mn10 2.409996 1_454
Mn0 Mn9 2.409996 1_555
Mn0 Mn11 2.409996 1_455
Mn0 Mn4 2.599695 1_565
Mn0 Mn6 2.599695 1_555
Mn0 Mn7 2.599695 1_454
Mn0 Mn5 2.599695 1_554
Mn0 Th0 3.191044 1_565
Mn0 Th0 3.191044 1_555
Mn1 Mn2 2.358170 1_555
Mn1 Mn2 2.358170 1_665
Mn1 Mn9 2.409996 1_555
Mn1 Mn11 2.409996 1_555
Mn1 Mn10 2.409996 1_555
Mn1 Mn8 2.409996 1_555
Mn1 Mn4 2.599695 1_555
Mn1 Mn6 2.599695 1_555
Mn1 Mn7 2.599695 1_565
Mn1 Mn5 2.599695 1_655
Mn1 Th0 3.191044 1_666
Mn1 Th0 3.191044 1_555
Mn2 Mn9 2.409996 1_445
Mn2 Mn8 2.409996 1_555
Mn2 Mn4 2.599695 1_555
Mn2 Mn6 2.599695 1_555
Mn2 Mn5 2.599695 1_545
Mn2 Mn7 2.599695 1_455
Mn2 Th0 3.191044 1_555
Mn2 Th0 3.191044 1_556
Mn3 Mn8 2.409996 1_544
Mn3 Mn9 2.409996 1_545
Mn3 Mn4 2.599695 1_555
Mn3 Mn6 2.599695 1_655
Mn3 Mn5 2.599695 1_544
Mn3 Mn7 2.599695 1_554
Mn3 Th0 3.191044 1_555
Mn3 Th0 3.191044 1_655
Mn4 Mn7 2.221741 1_555
Mn4 Mn9 2.503580 1_545
Mn4 Mn5 2.833555 1_545
Mn4 Mn5 2.833555 1_655
Mn4 Mn6 2.833555 1_545
Mn4 Mn6 2.833555 1_655
Mn4 Th0 3.082581 1_555
Mn5 Mn6 2.221741 1_555
Mn5 Mn8 2.503580 1_555
Mn5 Mn7 2.833555 1_455
Mn5 Mn7 2.833555 1_565
Mn5 Th0 3.082581 1_566
Mn6 Mn8 2.503580 1_555
Mn6 Mn9 2.616125 1_555
Mn6 Mn9 2.616125 1_445
Mn6 Mn7 2.833555 1_455
Mn6 Mn7 2.833555 1_565
Mn6 Th0 3.082581 1_555
Mn7 Mn9 2.503580 1_545
Mn7 Mn8 2.616125 1_545
Mn7 Mn8 2.616125 1_655
Mn7 Th0 3.082581 1_656
Mn8 Mn9 2.757463 1_556
Mn8 Th0 3.059864 1_666
Mn8 Th0 3.059864 1_556
Mn9 Th0 3.059864 1_555
Mn9 Th0 3.059864 1_665
Mn10 Mn2 2.409996 1_555
Mn10 Mn3 2.409996 1_556
Mn10 Mn7 2.503580 1_555
Mn10 Mn4 2.503580 1_555
Mn10 Mn5 2.616125 1_545
Mn10 Mn5 2.616125 1_655
Mn10 Mn11 2.757463 1_556
Mn10 Mn8 2.757463 1_555
Mn10 Th0 3.059864 1_556
Mn10 Th0 3.059864 1_666
Mn11 Mn2 2.409996 1_665
Mn11 Mn3 2.409996 1_555
Mn11 Mn5 2.503580 1_655
Mn11 Mn6 2.503580 1_655
Mn11 Mn4 2.616125 1_555
Mn11 Mn4 2.616125 1_665
Mn11 Mn9 2.757463 1_555
Mn11 Th0 3.059864 1_555
Mn11 Th0 3.059864 1_665
