# generated using pymatgen
data_MnAlCrS4
_symmetry_space_group_name_H-M   'P 1'
_cell_length_a   7.12424146
_cell_length_b   7.15774928
_cell_length_c   7.15798137
_cell_angle_alpha   60.23085841
_cell_angle_beta   60.15496073
_cell_angle_gamma   60.15702773
_symmetry_Int_Tables_number   1
_chemical_formula_structural   MnAlCrS4
_chemical_formula_sum   'Mn2 Al2 Cr2 S8'
_cell_volume   259.15895960
_cell_formula_units_Z   2
loop_
 _symmetry_equiv_pos_site_id
 _symmetry_equiv_pos_as_xyz
  1  'x, y, z'
loop_
 _atom_site_type_symbol
 _atom_site_label
 _atom_site_symmetry_multiplicity
 _atom_site_fract_x
 _atom_site_fract_y
 _atom_site_fract_z
 _atom_site_occupancy
  Mn  Mn0  1  0.87371743  0.87627804  0.87630163  1
  Mn  Mn1  1  0.12627578  0.12372583  0.12369955  1
  Al  Al0  1  0.49999941  0.50000028  0.49999958  1
  Al  Al1  1  0.00000300  0.49999965  0.49999864  1
  Cr  Cr0  1  0.49999835  0.49999789  0.00000291  1
  Cr  Cr1  1  0.50000240  0.00000349  0.49999665  1
  S  S0  1  0.74103813  0.73803507  0.73802562  1
  S  S1  1  0.26069762  0.26217085  0.71641459  1
  S  S2  1  0.26071318  0.71642890  0.26216666  1
  S  S3  1  0.71708815  0.26197975  0.26196463  1
  S  S4  1  0.73928664  0.28357482  0.73783420  1
  S  S5  1  0.28291088  0.73802214  0.73803257  1
  S  S6  1  0.25896210  0.26195905  0.26197603  1
  S  S7  1  0.73931093  0.73782223  0.28358675  1
loop_
_geom_bond_atom_site_label_1
_geom_bond_atom_site_label_2
_geom_bond_distance
_geom_bond_site_symmetry_2
Mn0 S0 2.384719 1_555
Mn0 S5 2.384726 1_655
Mn0 S7 2.386462 1_556
Mn0 S4 2.386503 1_565
Mn1 S3 2.384692 1_455
Mn1 S6 2.384705 1_555
Mn1 S1 2.386460 1_554
Mn1 S2 2.386504 1_545
Al0 S5 2.415563 1_555
Al0 S3 2.415567 1_555
Al0 S1 2.417702 1_555
Al0 S7 2.417714 1_555
Al0 S2 2.417748 1_555
Al0 S4 2.417764 1_555
Al1 S0 2.415604 1_455
Al1 S6 2.415605 1_555
Al1 S7 2.417676 1_455
Al1 S1 2.417709 1_555
Al1 S2 2.417743 1_555
Al1 S4 2.417754 1_455
Cr0 S4 2.429367 1_554
Cr0 S2 2.429379 1_555
Cr0 S3 2.429475 1_555
Cr0 S6 2.429482 1_555
Cr0 S0 2.429494 1_554
Cr0 S5 2.429510 1_554
Cr1 S1 2.429331 1_555
Cr1 S7 2.429366 1_545
Cr1 S3 2.429417 1_555
Cr1 S5 2.429471 1_545
Cr1 S6 2.429517 1_555
Cr1 S0 2.429542 1_545
