# generated using pymatgen
data_Lu6IrO12
_symmetry_space_group_name_H-M   'P 1'
_cell_length_a   6.27058358
_cell_length_b   6.27058553
_cell_length_c   6.27058500
_cell_angle_alpha   98.79800586
_cell_angle_beta   98.79783671
_cell_angle_gamma   98.79775349
_symmetry_Int_Tables_number   1
_chemical_formula_structural   Lu6IrO12
_chemical_formula_sum   'Lu6 Ir1 O12'
_cell_volume   236.83498491
_cell_formula_units_Z   1
loop_
 _symmetry_equiv_pos_site_id
 _symmetry_equiv_pos_as_xyz
  1  'x, y, z'
loop_
 _atom_site_type_symbol
 _atom_site_label
 _atom_site_symmetry_multiplicity
 _atom_site_fract_x
 _atom_site_fract_y
 _atom_site_fract_z
 _atom_site_occupancy
  Lu  Lu0  1  0.31823007  0.14408133  0.61035284  1
  Lu  Lu1  1  0.85591667  0.38964616  0.68177093  1
  Lu  Lu2  1  0.61035484  0.31823007  0.14408333  1
  Lu  Lu3  1  0.38964516  0.68176993  0.85591667  1
  Lu  Lu4  1  0.14408333  0.61035384  0.31822907  1
  Lu  Lu5  1  0.68176993  0.85591867  0.38964716  1
  Ir  Ir0  1  0.00000000  0.00000000  0.00000000  1
  O  O0  1  0.92287510  0.03804778  0.69694356  1
  O  O1  1  0.30305544  0.07712390  0.96195022  1
  O  O2  1  0.58935754  0.17735489  0.42884977  1
  O  O3  1  0.96195322  0.30305744  0.07712390  1
  O  O4  1  0.57114923  0.41064246  0.82264511  1
  O  O5  1  0.17735589  0.42885077  0.58935654  1
  O  O6  1  0.82264411  0.57114923  0.41064346  1
  O  O7  1  0.42885077  0.58935754  0.17735489  1
  O  O8  1  0.03804678  0.69694256  0.92287610  1
  O  O9  1  0.41064246  0.82264511  0.57115023  1
  O  O10  1  0.69694456  0.92287610  0.03804978  1
  O  O11  1  0.07712490  0.96195222  0.30305644  1
loop_
_geom_bond_atom_site_label_1
_geom_bond_atom_site_label_2
_geom_bond_distance
_geom_bond_site_symmetry_2
Lu0 O5 2.122532 1_555
Lu0 O9 2.169823 1_545
Lu0 O2 2.187542 1_555
Lu0 O4 2.223476 1_555
Lu0 O11 2.282669 1_545
Lu0 O1 2.319753 1_555
Lu0 O0 2.626948 1_455
Lu1 O4 2.122521 1_555
Lu1 O5 2.169848 1_655
Lu1 O6 2.187544 1_555
Lu1 O2 2.223473 1_555
Lu1 O8 2.282671 1_655
Lu1 O0 2.319758 1_555
Lu1 O3 2.626935 1_556
Lu2 O2 2.122522 1_555
Lu2 O4 2.169838 1_554
Lu2 O7 2.187544 1_555
Lu2 O6 2.223465 1_555
Lu2 O1 2.282693 1_554
Lu2 O3 2.319760 1_555
Lu2 O10 2.626937 1_545
Lu3 O9 2.122522 1_555
Lu3 O7 2.169838 1_556
Lu3 O4 2.187544 1_555
Lu3 O5 2.223465 1_555
Lu3 O10 2.282693 1_556
Lu3 O8 2.319760 1_555
Lu3 O1 2.626937 1_565
Lu4 O7 2.122521 1_555
Lu4 O6 2.169848 1_455
Lu4 O5 2.187544 1_555
Lu4 O9 2.223473 1_555
Lu4 O3 2.282671 1_455
Lu4 O11 2.319758 1_555
Lu4 O8 2.626935 1_554
Lu5 O6 2.122532 1_555
Lu5 O2 2.169823 1_565
Lu5 O9 2.187542 1_555
Lu5 O7 2.223476 1_555
Lu5 O0 2.282669 1_565
Lu5 O10 2.319753 1_555
Lu5 O11 2.626948 1_655
Ir0 O1 1.948063 1_554
Ir0 O10 1.948063 1_445
Ir0 O11 1.948066 1_545
Ir0 O0 1.948066 1_454
Ir0 O3 1.948067 1_455
Ir0 O8 1.948067 1_544
