# generated using pymatgen
data_Rb2PAuSe4
_symmetry_space_group_name_H-M   'P 1'
_cell_length_a   7.24212437
_cell_length_b   6.95580053
_cell_length_c   10.24176555
_cell_angle_alpha   87.02865379
_cell_angle_beta   90.00000000
_cell_angle_gamma   90.00000000
_symmetry_Int_Tables_number   1
_chemical_formula_structural   Rb2PAuSe4
_chemical_formula_sum   'Rb4 P2 Au2 Se8'
_cell_volume   515.23298968
_cell_formula_units_Z   2
loop_
 _symmetry_equiv_pos_site_id
 _symmetry_equiv_pos_as_xyz
  1  'x, y, z'
loop_
 _atom_site_type_symbol
 _atom_site_label
 _atom_site_symmetry_multiplicity
 _atom_site_fract_x
 _atom_site_fract_y
 _atom_site_fract_z
 _atom_site_occupancy
  Rb  Rb0  1  0.25000000  0.46177876  0.16526758  1
  Rb  Rb1  1  0.75000000  0.53822124  0.83473242  1
  Rb  Rb2  1  0.25000000  0.78970207  0.53532693  1
  Rb  Rb3  1  0.75000000  0.21029793  0.46467307  1
  P  P0  1  0.75000000  0.74229659  0.27496037  1
  P  P1  1  0.25000000  0.25770341  0.72503963  1
  Au  Au0  1  0.00000000  0.00000000  0.00000000  1
  Au  Au1  1  0.50000000  0.00000000  0.00000000  1
  Se  Se0  1  0.25000000  0.29260723  0.51230716  1
  Se  Se1  1  0.75000000  0.70739277  0.48769284  1
  Se  Se2  1  0.25000000  0.52351346  0.82696426  1
  Se  Se3  1  0.75000000  0.47648654  0.17303574  1
  Se  Se4  1  0.50716081  0.08444037  0.76769908  1
  Se  Se5  1  0.00716081  0.91555963  0.23230092  1
  Se  Se6  1  0.99283919  0.08444037  0.76769908  1
  Se  Se7  1  0.49283919  0.91555963  0.23230092  1
loop_
_geom_bond_atom_site_label_1
_geom_bond_atom_site_label_2
_geom_bond_distance
_geom_bond_site_symmetry_2
Rb0 Se2 3.469171 1_554
Rb0 Se3 3.623497 1_455
Rb0 Se3 3.623497 1_555
Rb0 Se0 3.685662 1_555
Rb0 Se7 3.708348 1_555
Rb0 Se5 3.708348 1_555
Rb1 Se3 3.469171 1_556
Rb1 Se2 3.623497 1_655
Rb1 Se2 3.623497 1_555
Rb1 Se1 3.685662 1_555
Rb1 Se6 3.708348 1_555
Rb1 Se4 3.708348 1_555
Rb2 Se2 3.431671 1_555
Rb2 Se0 3.477892 1_555
Rb2 Se0 3.493829 1_565
Rb2 Se7 3.634487 1_555
Rb2 Se5 3.634487 1_555
Rb2 Se1 3.702275 1_455
Rb2 Se1 3.702275 1_555
Rb2 Se4 3.720395 1_565
Rb2 Se6 3.720395 1_465
Rb3 Se3 3.431671 1_555
Rb3 Se1 3.477892 1_555
Rb3 Se1 3.493829 1_545
Rb3 Se6 3.634487 1_555
Rb3 Se4 3.634487 1_555
Rb3 Se0 3.702275 1_555
Rb3 Se0 3.702275 1_655
Rb3 Se5 3.720395 1_645
Rb3 Se7 3.720395 1_545
P0 Se3 2.169864 1_555
P0 Se1 2.179698 1_555
P0 Se5 2.248836 1_655
P0 Se7 2.248836 1_555
P1 Se2 2.169864 1_555
P1 Se0 2.179698 1_555
P1 Se4 2.248836 1_555
P1 Se6 2.248836 1_455
Au0 Se5 2.421416 1_545
Au0 Se6 2.421416 1_454
Au0 Rb0 4.126001 1_555
Au0 Rb1 4.126001 1_444
Au1 Se7 2.421416 1_545
Au1 Se4 2.421416 1_554
Au1 Rb0 4.126001 1_555
Au1 Rb1 4.126001 1_544
