# generated using pymatgen
data_AgOsF6
_symmetry_space_group_name_H-M   'P 1'
_cell_length_a   4.95456378
_cell_length_b   4.95456378
_cell_length_c   9.23804438
_cell_angle_alpha   90.00000000
_cell_angle_beta   90.00000000
_cell_angle_gamma   90.00000000
_symmetry_Int_Tables_number   1
_chemical_formula_structural   AgOsF6
_chemical_formula_sum   'Ag2 Os2 F12'
_cell_volume   226.77276260
_cell_formula_units_Z   2
loop_
 _symmetry_equiv_pos_site_id
 _symmetry_equiv_pos_as_xyz
  1  'x, y, z'
loop_
 _atom_site_type_symbol
 _atom_site_label
 _atom_site_symmetry_multiplicity
 _atom_site_fract_x
 _atom_site_fract_y
 _atom_site_fract_z
 _atom_site_occupancy
  Ag  Ag0  1  0.50000000  0.50000000  0.25000000  1
  Ag  Ag1  1  0.50000000  0.50000000  0.75000000  1
  Os  Os0  1  0.00000000  0.00000000  0.00000000  1
  Os  Os1  1  0.00000000  0.00000000  0.50000000  1
  F  F0  1  0.80596772  0.19403228  0.85587790  1
  F  F1  1  0.19403228  0.80596772  0.85587790  1
  F  F2  1  0.19403228  0.80596772  0.14412210  1
  F  F3  1  0.19403228  0.19403228  0.35587790  1
  F  F4  1  0.72757335  0.72757335  0.00000000  1
  F  F5  1  0.27242665  0.72757335  0.50000000  1
  F  F6  1  0.72757335  0.27242665  0.50000000  1
  F  F7  1  0.27242665  0.27242665  0.00000000  1
  F  F8  1  0.80596772  0.19403228  0.14412210  1
  F  F9  1  0.80596772  0.80596772  0.64412210  1
  F  F10  1  0.19403228  0.19403228  0.64412210  1
  F  F11  1  0.80596772  0.80596772  0.35587790  1
loop_
_geom_bond_atom_site_label_1
_geom_bond_atom_site_label_2
_geom_bond_distance
_geom_bond_site_symmetry_2
Ag0 F11 2.356441 1_555
Ag0 F3 2.356441 1_555
Ag0 F2 2.356441 1_555
Ag0 F8 2.356441 1_555
Ag1 F0 2.356441 1_555
Ag1 F1 2.356441 1_555
Ag1 F9 2.356441 1_555
Ag1 F10 2.356441 1_555
F0 Os0 1.902896 1_656
F1 Os0 1.902896 1_566
F2 Os0 1.902896 1_565
F3 Os1 1.902896 1_555
F4 Os0 1.908842 1_665
F5 Os1 1.908842 1_565
F6 Os1 1.908842 1_655
F7 Os0 1.908842 1_555
F8 Os0 1.902896 1_655
F9 Os1 1.902896 1_665
F10 Os1 1.902896 1_555
F11 Os1 1.902896 1_665
