# generated using pymatgen
data_Rb3Ru2Br9
_symmetry_space_group_name_H-M   'P 1'
_cell_length_a   7.45935777
_cell_length_b   7.45935720
_cell_length_c   18.15745016
_cell_angle_alpha   90.00000000
_cell_angle_beta   90.00000000
_cell_angle_gamma   119.99999840
_symmetry_Int_Tables_number   1
_chemical_formula_structural   Rb3Ru2Br9
_chemical_formula_sum   'Rb6 Ru4 Br18'
_cell_volume   874.96028708
_cell_formula_units_Z   2
loop_
 _symmetry_equiv_pos_site_id
 _symmetry_equiv_pos_as_xyz
  1  'x, y, z'
loop_
 _atom_site_type_symbol
 _atom_site_label
 _atom_site_symmetry_multiplicity
 _atom_site_fract_x
 _atom_site_fract_y
 _atom_site_fract_z
 _atom_site_occupancy
  Rb  Rb0  1  0.66666700  0.33333300  0.93360623  1
  Rb  Rb1  1  0.33333300  0.66666700  0.43360623  1
  Rb  Rb2  1  0.66666700  0.33333300  0.56639377  1
  Rb  Rb3  1  0.33333300  0.66666700  0.06639377  1
  Rb  Rb4  1  0.00000000  0.00000000  0.75000000  1
  Rb  Rb5  1  0.00000000  0.00000000  0.25000000  1
  Ru  Ru0  1  0.33333300  0.66666700  0.67505683  1
  Ru  Ru1  1  0.66666700  0.33333300  0.17505683  1
  Ru  Ru2  1  0.66666700  0.33333300  0.32494317  1
  Ru  Ru3  1  0.33333300  0.66666700  0.82494317  1
  Br  Br0  1  0.82441747  0.64883593  0.09439249  1
  Br  Br1  1  0.17558253  0.82441747  0.59439249  1
  Br  Br2  1  0.64883593  0.82441747  0.59439249  1
  Br  Br3  1  0.35116407  0.17558253  0.09439249  1
  Br  Br4  1  0.82441747  0.17558253  0.09439249  1
  Br  Br5  1  0.17558253  0.35116407  0.90560751  1
  Br  Br6  1  0.17558253  0.82441747  0.90560751  1
  Br  Br7  1  0.17558253  0.35116407  0.59439249  1
  Br  Br8  1  0.64883593  0.82441747  0.90560751  1
  Br  Br9  1  0.35116407  0.17558253  0.40560751  1
  Br  Br10  1  0.82441747  0.64883593  0.40560751  1
  Br  Br11  1  0.82441747  0.17558253  0.40560751  1
  Br  Br12  1  0.50232097  0.00464295  0.25000000  1
  Br  Br13  1  0.49767903  0.50232097  0.75000000  1
  Br  Br14  1  0.00464295  0.50232097  0.75000000  1
  Br  Br15  1  0.99535705  0.49767903  0.25000000  1
  Br  Br16  1  0.50232097  0.49767903  0.25000000  1
  Br  Br17  1  0.49767903  0.99535705  0.75000000  1
loop_
_geom_bond_atom_site_label_1
_geom_bond_atom_site_label_2
_geom_bond_distance
_geom_bond_site_symmetry_2
Br0 Ru1 2.509834 1_555
Br0 Rb0 3.560525 1_554
Br0 Rb5 3.623432 1_665
Br0 Rb3 3.765930 1_555
Br0 Rb3 3.765930 1_655
Br1 Ru0 2.509824 1_555
Br1 Rb1 3.560518 1_555
Br1 Rb4 3.623436 1_565
Br1 Rb2 3.765930 1_565
Br1 Rb2 3.765930 1_455
Br2 Ru0 2.509834 1_555
Br2 Rb1 3.560525 1_555
Br2 Rb4 3.623432 1_665
Br2 Rb2 3.765930 1_565
Br2 Rb2 3.765930 1_555
Br3 Ru1 2.509834 1_555
Br3 Rb0 3.560525 1_554
Br3 Rb5 3.623432 1_555
Br3 Rb3 3.765930 1_545
Br3 Rb3 3.765930 1_555
Br4 Ru1 2.509824 1_555
Br4 Rb0 3.560518 1_554
Br4 Rb5 3.623436 1_655
Br4 Rb3 3.765930 1_545
Br4 Rb3 3.765930 1_655
Br5 Ru3 2.509834 1_555
Br5 Rb3 3.560525 1_556
Br5 Rb4 3.623432 1_555
Br5 Rb0 3.765930 1_555
Br5 Rb0 3.765930 1_455
Br6 Ru3 2.509824 1_555
Br6 Rb3 3.560518 1_556
Br6 Rb4 3.623436 1_565
Br6 Rb0 3.765930 1_565
Br6 Rb0 3.765930 1_455
Br7 Ru0 2.509834 1_555
Br7 Rb1 3.560525 1_555
Br7 Rb4 3.623432 1_555
Br7 Rb2 3.765930 1_555
Br7 Rb2 3.765930 1_455
Br8 Ru3 2.509834 1_555
Br8 Rb3 3.560525 1_556
Br8 Rb4 3.623432 1_665
Br8 Rb0 3.765930 1_565
Br8 Rb0 3.765930 1_555
Br9 Ru2 2.509834 1_555
Br9 Rb2 3.560525 1_555
Br9 Rb5 3.623432 1_555
Br9 Rb1 3.765930 1_545
Br9 Rb1 3.765930 1_555
Br10 Ru2 2.509834 1_555
Br10 Rb2 3.560525 1_555
Br10 Rb5 3.623432 1_665
Br10 Rb1 3.765930 1_555
Br10 Rb1 3.765930 1_655
Br11 Ru2 2.509824 1_555
Br11 Rb2 3.560518 1_555
Br11 Rb5 3.623436 1_655
Br11 Rb1 3.765930 1_545
Br11 Rb1 3.765930 1_655
Br12 Ru2 2.521957 1_555
Br12 Ru1 2.521957 1_555
Br12 Rb5 3.729796 1_555
Br12 Rb5 3.729803 1_655
Br12 Rb1 3.985130 1_545
Br12 Rb3 3.985130 1_545
Br13 Ru3 2.521968 1_555
Br13 Ru0 2.521968 1_555
Br13 Rb4 3.729799 1_555
Br13 Rb4 3.729799 1_665
Br13 Rb0 3.985130 1_555
Br13 Rb2 3.985130 1_555
Br14 Ru3 2.521957 1_555
Br14 Ru0 2.521957 1_555
Br14 Rb4 3.729795 1_555
Br14 Rb4 3.729803 1_565
Br14 Rb0 3.985130 1_455
Br14 Rb2 3.985130 1_455
Br15 Ru2 2.521957 1_555
Br15 Ru1 2.521957 1_555
Br15 Rb5 3.729795 1_665
Br15 Rb5 3.729803 1_655
Br15 Rb1 3.985130 1_655
Br15 Rb3 3.985130 1_655
Br16 Ru2 2.521968 1_555
Br16 Ru1 2.521968 1_555
Br16 Rb5 3.729799 1_665
Br16 Rb5 3.729799 1_555
Br16 Rb1 3.985130 1_555
Br16 Rb3 3.985130 1_555
Br17 Ru3 2.521957 1_555
Br17 Ru0 2.521957 1_555
Br17 Rb4 3.729796 1_665
Br17 Rb4 3.729803 1_565
Br17 Rb0 3.985130 1_565
Br17 Rb2 3.985130 1_565
