# generated using pymatgen
data_Bi5NO10
_symmetry_space_group_name_H-M   'P 1'
_cell_length_a   23.15030025
_cell_length_b   5.55456574
_cell_length_c   8.66608568
_cell_angle_alpha   71.06435957
_cell_angle_beta   90.00000000
_cell_angle_gamma   90.00000000
_symmetry_Int_Tables_number   1
_chemical_formula_structural   Bi5NO10
_chemical_formula_sum   'Bi20 N4 O40'
_cell_volume   1054.06514379
_cell_formula_units_Z   4
loop_
 _symmetry_equiv_pos_site_id
 _symmetry_equiv_pos_as_xyz
  1  'x, y, z'
loop_
 _atom_site_type_symbol
 _atom_site_label
 _atom_site_symmetry_multiplicity
 _atom_site_fract_x
 _atom_site_fract_y
 _atom_site_fract_z
 _atom_site_occupancy
  Bi  Bi0  1  0.79971570  0.79632602  0.00203514  1
  Bi  Bi1  1  0.29971570  0.70367398  0.99796486  1
  Bi  Bi2  1  0.20028430  0.20367398  0.99796486  1
  Bi  Bi3  1  0.70028430  0.29632602  0.00203514  1
  Bi  Bi4  1  0.68748580  0.55425061  0.34972998  1
  Bi  Bi5  1  0.18748580  0.94574939  0.65027002  1
  Bi  Bi6  1  0.31251420  0.44574939  0.65027002  1
  Bi  Bi7  1  0.81251420  0.05425061  0.34972998  1
  Bi  Bi8  1  0.69045084  0.95827456  0.65439065  1
  Bi  Bi9  1  0.19045084  0.54172544  0.34560935  1
  Bi  Bi10  1  0.30954916  0.04172544  0.34560935  1
  Bi  Bi11  1  0.80954916  0.45827456  0.65439065  1
  Bi  Bi12  1  0.93996786  0.60107532  0.30369122  1
  Bi  Bi13  1  0.43996786  0.89892468  0.69630878  1
  Bi  Bi14  1  0.06003214  0.39892468  0.69630878  1
  Bi  Bi15  1  0.56003214  0.10107532  0.30369122  1
  Bi  Bi16  1  0.93855900  0.95699939  0.64061475  1
  Bi  Bi17  1  0.43855900  0.54300061  0.35938525  1
  Bi  Bi18  1  0.06144100  0.04300061  0.35938525  1
  Bi  Bi19  1  0.56144100  0.45699939  0.64061475  1
  N  N0  1  0.57322109  0.80934629  0.99904035  1
  N  N1  1  0.92677891  0.30934629  0.99904035  1
  N  N2  1  0.42677891  0.19065371  0.00095965  1
  N  N3  1  0.07322109  0.69065371  0.00095965  1
  O  O0  1  0.25545261  0.76603850  0.51570508  1
  O  O1  1  0.08406384  0.68202498  0.14592341  1
  O  O2  1  0.41593616  0.18202498  0.14592341  1
  O  O3  1  0.91593616  0.31797502  0.85407659  1
  O  O4  1  0.60981955  0.90020538  0.07496243  1
  O  O5  1  0.10981955  0.59979462  0.92503757  1
  O  O6  1  0.39018045  0.09979462  0.92503757  1
  O  O7  1  0.89018045  0.40020538  0.07496243  1
  O  O8  1  0.52711712  0.71528176  0.06698786  1
  O  O9  1  0.97288288  0.21528176  0.06698786  1
  O  O10  1  0.47288288  0.28471824  0.93301214  1
  O  O11  1  0.02711712  0.78471824  0.93301214  1
  O  O12  1  0.73574085  0.06143558  0.84052253  1
  O  O13  1  0.23574085  0.43856442  0.15947747  1
  O  O14  1  0.26425915  0.93856442  0.15947747  1
  O  O15  1  0.76425915  0.56143558  0.84052253  1
  O  O16  1  0.75545261  0.73396150  0.48429492  1
  O  O17  1  0.58406384  0.81797502  0.85407659  1
  O  O18  1  0.24454739  0.26603850  0.51570508  1
  O  O19  1  0.74454739  0.23396150  0.48429492  1
  O  O20  1  0.59899837  0.80040970  0.48878374  1
  O  O21  1  0.09899837  0.69959030  0.51121626  1
  O  O22  1  0.40100163  0.19959030  0.51121626  1
  O  O23  1  0.90100163  0.30040970  0.48878374  1
  O  O24  1  0.75358740  0.00289321  0.14941198  1
  O  O25  1  0.25358740  0.49710679  0.85058802  1
  O  O26  1  0.24641260  -0.00289321  0.85058802  1
  O  O27  1  0.74641260  0.50289321  0.14941198  1
  O  O28  1  0.97277896  0.80719330  0.46090767  1
  O  O29  1  0.35440453  0.67886873  0.39853230  1
  O  O30  1  0.14559547  0.17886873  0.39853230  1
  O  O31  1  0.64559547  0.32113127  0.60146770  1
  O  O32  1  0.64013033  0.27399261  0.24996400  1
  O  O33  1  0.14013033  0.22600739  0.75003600  1
  O  O34  1  0.35986967  0.72600739  0.75003600  1
  O  O35  1  0.85986967  0.77399261  0.24996400  1
  O  O36  1  0.52722104  0.30719330  0.46090767  1
  O  O37  1  0.02722104  0.19280670  0.53909233  1
  O  O38  1  0.47277896  0.69280670  0.53909233  1
  O  O39  1  0.85440453  0.82113127  0.60146770  1
loop_
_geom_bond_atom_site_label_1
_geom_bond_atom_site_label_2
_geom_bond_distance
_geom_bond_site_symmetry_2
Bi0 O27 2.111735 1_555
Bi0 O12 2.232340 1_564
Bi0 O24 2.244805 1_565
Bi0 O15 2.349546 1_554
Bi0 O35 2.529438 1_555
Bi1 O26 2.111735 1_565
Bi1 O13 2.232340 1_556
Bi1 O25 2.244805 1_555
Bi1 O14 2.349546 1_556
Bi1 O34 2.529438 1_555
Bi2 O25 2.111735 1_555
Bi2 O14 2.232340 1_546
Bi2 O26 2.244805 1_555
Bi2 O13 2.349546 1_556
Bi2 O33 2.529438 1_555
Bi3 O24 2.111735 1_555
Bi3 O15 2.232340 1_554
Bi3 O27 2.244805 1_555
Bi3 O12 2.349546 1_554
Bi3 O32 2.529438 1_555
Bi4 O19 2.218903 1_555
Bi4 O32 2.290462 1_555
Bi4 O27 2.297248 1_555
Bi4 O31 2.354375 1_555
Bi4 O16 2.363809 1_555
Bi5 O18 2.218903 1_565
Bi5 O33 2.290462 1_565
Bi5 O26 2.297248 1_565
Bi5 O30 2.354375 1_565
Bi5 O0 2.363809 1_555
Bi6 O0 2.218903 1_555
Bi6 O34 2.290462 1_555
Bi6 O25 2.297248 1_555
Bi6 O29 2.354375 1_555
Bi6 O18 2.363809 1_555
Bi7 O16 2.218903 1_545
Bi7 O35 2.290462 1_545
Bi7 O24 2.297248 1_555
Bi7 O39 2.354375 1_545
Bi7 O19 2.363809 1_555
Bi8 O19 2.149698 1_565
Bi8 O12 2.151606 1_565
Bi8 O31 2.179680 1_565
Bi8 O16 2.679876 1_555
Bi9 O18 2.149698 1_555
Bi9 O13 2.151606 1_555
Bi9 O30 2.179680 1_555
Bi9 O0 2.679876 1_555
Bi10 O0 2.149698 1_545
Bi10 O14 2.151606 1_545
Bi10 O29 2.179680 1_545
Bi10 O18 2.679876 1_555
Bi11 O16 2.149698 1_555
Bi11 O15 2.151606 1_555
Bi11 O39 2.179680 1_555
Bi11 O19 2.679876 1_555
Bi12 O35 2.070625 1_555
Bi12 O23 2.106462 1_555
Bi12 O28 2.180918 1_555
Bi13 O34 2.070625 1_555
Bi13 O22 2.106462 1_565
Bi13 O38 2.180918 1_555
Bi14 O33 2.070625 1_555
Bi14 O21 2.106462 1_555
Bi14 O37 2.180918 1_555
Bi15 O32 2.070625 1_555
Bi15 O20 2.106462 1_545
Bi15 O36 2.180918 1_555
Bi16 O23 2.120581 1_565
Bi16 O28 2.141587 1_555
Bi16 O39 2.155528 1_555
Bi16 O37 2.440229 1_665
Bi17 O22 2.120581 1_555
Bi17 O38 2.141587 1_555
Bi17 O29 2.155528 1_555
Bi17 O36 2.440229 1_555
Bi18 O21 2.120581 1_545
Bi18 O37 2.141587 1_555
Bi18 O30 2.155528 1_555
Bi18 O28 2.440229 1_445
Bi19 O20 2.120581 1_555
Bi19 O36 2.141587 1_555
Bi19 O31 2.155528 1_555
Bi19 O38 2.440229 1_555
N0 O8 1.248688 1_556
N0 O17 1.266664 1_555
N0 O4 1.273171 1_556
N1 O9 1.248688 1_556
N1 O3 1.266664 1_555
N1 O7 1.273171 1_556
N2 O10 1.248688 1_554
N2 O2 1.266664 1_555
N2 O6 1.273171 1_554
N3 O11 1.248688 1_554
N3 O1 1.266664 1_555
N3 O5 1.273171 1_554
