# generated using pymatgen
data_NaAsSeS
_symmetry_space_group_name_H-M   'P 1'
_cell_length_a   11.63047414
_cell_length_b   5.71415450
_cell_length_c   6.02756046
_cell_angle_alpha   90.08379464
_cell_angle_beta   90.00000000
_cell_angle_gamma   90.00000000
_symmetry_Int_Tables_number   1
_chemical_formula_structural   NaAsSeS
_chemical_formula_sum   'Na4 As4 Se4 S4'
_cell_volume   400.58115027
_cell_formula_units_Z   4
loop_
 _symmetry_equiv_pos_site_id
 _symmetry_equiv_pos_as_xyz
  1  'x, y, z'
loop_
 _atom_site_type_symbol
 _atom_site_label
 _atom_site_symmetry_multiplicity
 _atom_site_fract_x
 _atom_site_fract_y
 _atom_site_fract_z
 _atom_site_occupancy
  Na  Na0  1  0.37578557  0.23997147  0.50453151  1
  Na  Na1  1  0.62421443  0.76002853  0.49546849  1
  Na  Na2  1  0.12421443  0.73997147  0.50453151  1
  Na  Na3  1  0.87578557  0.26002853  0.49546849  1
  As  As0  1  0.64335582  0.24989127  0.92293031  1
  As  As1  1  0.14335582  0.25010873  0.07706969  1
  As  As2  1  0.35664418  0.75010873  0.07706969  1
  As  As3  1  0.85664418  0.74989127  0.92293031  1
  Se  Se0  1  0.84990541  0.32102203  0.99689408  1
  Se  Se1  1  0.65009459  0.82102203  0.99689408  1
  Se  Se2  1  0.34990541  0.17897797  0.00310592  1
  Se  Se3  1  0.15009459  0.67897797  0.00310592  1
  S  S0  1  0.87270803  0.76121096  0.56352562  1
  S  S1  1  0.37270803  0.73878904  0.43647438  1
  S  S2  1  0.12729197  0.23878904  0.43647438  1
  S  S3  1  0.62729197  0.26121096  0.56352562  1
loop_
_geom_bond_atom_site_label_1
_geom_bond_atom_site_label_2
_geom_bond_distance
_geom_bond_site_symmetry_2
Na0 S1 2.880505 1_555
Na0 S1 2.892692 1_545
Na0 S2 2.919073 1_555
Na0 S3 2.949150 1_555
Na0 Se2 3.040771 1_556
Na0 Se2 3.056751 1_555
Na1 S3 2.880505 1_555
Na1 S3 2.892692 1_565
Na1 S0 2.919073 1_555
Na1 S1 2.949150 1_555
Na1 Se1 3.040771 1_554
Na1 Se1 3.056751 1_555
Na2 S2 2.880505 1_565
Na2 S2 2.892692 1_555
Na2 S1 2.919073 1_555
Na2 S0 2.949150 1_455
Na2 Se3 3.040771 1_556
Na2 Se3 3.056751 1_555
Na3 S0 2.880505 1_545
Na3 S0 2.892692 1_555
Na3 S3 2.919073 1_555
Na3 S2 2.949150 1_655
Na3 Se0 3.040771 1_554
Na3 Se0 3.056751 1_555
As0 S3 2.175431 1_555
As0 Se0 2.476758 1_555
As0 Se1 2.492721 1_545
As1 S2 2.175431 1_555
As1 Se2 2.476758 1_555
As1 Se3 2.492721 1_555
As2 S1 2.175431 1_555
As2 Se3 2.476758 1_555
As2 Se2 2.492721 1_565
As3 S0 2.175431 1_555
As3 Se1 2.476758 1_555
As3 Se0 2.492721 1_555
