# generated using pymatgen
data_Rb2Li2TiS4
_symmetry_space_group_name_H-M   'P 1'
_cell_length_a   5.91772145
_cell_length_b   5.91772145
_cell_length_c   13.08842257
_cell_angle_alpha   90.00000000
_cell_angle_beta   90.00000000
_cell_angle_gamma   90.00000000
_symmetry_Int_Tables_number   1
_chemical_formula_structural   Rb2Li2TiS4
_chemical_formula_sum   'Rb4 Li4 Ti2 S8'
_cell_volume   458.34906081
_cell_formula_units_Z   2
loop_
 _symmetry_equiv_pos_site_id
 _symmetry_equiv_pos_as_xyz
  1  'x, y, z'
loop_
 _atom_site_type_symbol
 _atom_site_label
 _atom_site_symmetry_multiplicity
 _atom_site_fract_x
 _atom_site_fract_y
 _atom_site_fract_z
 _atom_site_occupancy
  Rb  Rb0  1  0.76365826  0.76365826  0.00000000  1
  Rb  Rb1  1  0.23634174  0.76365826  0.50000000  1
  Rb  Rb2  1  0.76365826  0.23634174  0.50000000  1
  Rb  Rb3  1  0.23634174  0.23634174  0.00000000  1
  Li  Li0  1  0.00000000  0.50000000  0.75000000  1
  Li  Li1  1  0.50000000  0.00000000  0.75000000  1
  Li  Li2  1  0.00000000  0.50000000  0.25000000  1
  Li  Li3  1  0.50000000  0.00000000  0.25000000  1
  Ti  Ti0  1  0.50000000  0.50000000  0.75000000  1
  Ti  Ti1  1  0.50000000  0.50000000  0.25000000  1
  S  S0  1  0.72325813  0.72325813  0.65287851  1
  S  S1  1  0.27674187  0.27674187  0.65287851  1
  S  S2  1  0.72325813  0.72325813  0.34712149  1
  S  S3  1  0.72325813  0.27674187  0.15287851  1
  S  S4  1  0.27674187  0.72325813  0.84712149  1
  S  S5  1  0.27674187  0.27674187  0.34712149  1
  S  S6  1  0.27674187  0.72325813  0.15287851  1
  S  S7  1  0.72325813  0.27674187  0.84712149  1
loop_
_geom_bond_atom_site_label_1
_geom_bond_atom_site_label_2
_geom_bond_distance
_geom_bond_site_symmetry_2
Rb0 S6 3.516189 1_555
Rb0 S3 3.516189 1_555
Rb0 S7 3.516189 1_554
Rb0 S4 3.516189 1_554
Rb0 S3 3.644166 1_565
Rb0 S6 3.644166 1_655
Rb0 S7 3.644166 1_564
Rb0 S4 3.644166 1_654
Rb1 S2 3.516189 1_555
Rb1 S5 3.516189 1_555
Rb1 S0 3.516189 1_555
Rb1 S1 3.516189 1_555
Rb1 S5 3.644166 1_565
Rb1 S2 3.644166 1_455
Rb1 S0 3.644166 1_455
Rb1 S1 3.644166 1_565
Rb2 S2 3.516189 1_555
Rb2 S5 3.516189 1_555
Rb2 S0 3.516189 1_555
Rb2 S1 3.516189 1_555
Rb2 S5 3.644166 1_655
Rb2 S2 3.644166 1_545
Rb2 S1 3.644166 1_655
Rb2 S0 3.644166 1_545
Rb3 S6 3.516189 1_555
Rb3 S3 3.516189 1_555
Rb3 S7 3.516189 1_554
Rb3 S4 3.516189 1_554
Rb3 S3 3.644166 1_455
Rb3 S6 3.644166 1_545
Rb3 S4 3.644166 1_544
Rb3 S7 3.644166 1_454
Li0 S4 2.458329 1_555
Li0 S7 2.458329 1_455
Li0 S1 2.458329 1_555
Li0 S0 2.458329 1_455
Li1 S7 2.458329 1_555
Li1 S4 2.458329 1_545
Li1 S1 2.458329 1_555
Li1 S0 2.458329 1_545
Li2 S5 2.458329 1_555
Li2 S2 2.458329 1_455
Li2 S6 2.458329 1_555
Li2 S3 2.458329 1_455
Li3 S5 2.458329 1_555
Li3 S2 2.458329 1_545
Li3 S3 2.458329 1_555
Li3 S6 2.458329 1_545
S0 Ti0 2.259844 1_555
S1 Ti0 2.259844 1_555
S2 Ti1 2.259844 1_555
S3 Ti1 2.259844 1_555
S4 Ti0 2.259844 1_555
S5 Ti1 2.259844 1_555
S6 Ti1 2.259844 1_555
S7 Ti0 2.259844 1_555
