# generated using pymatgen
data_Rb5Sr(MoH9)3
_symmetry_space_group_name_H-M   'P 1'
_cell_length_a   10.08814343
_cell_length_b   9.71019337
_cell_length_c   5.71821768
_cell_angle_alpha   90.00000000
_cell_angle_beta   90.00000000
_cell_angle_gamma   118.76823601
_symmetry_Int_Tables_number   1
_chemical_formula_structural   Rb5Sr(MoH9)3
_chemical_formula_sum   'Rb5 Sr1 Mo3 H27'
_cell_volume   491.00759424
_cell_formula_units_Z   1
loop_
 _symmetry_equiv_pos_site_id
 _symmetry_equiv_pos_as_xyz
  1  'x, y, z'
loop_
 _atom_site_type_symbol
 _atom_site_label
 _atom_site_symmetry_multiplicity
 _atom_site_fract_x
 _atom_site_fract_y
 _atom_site_fract_z
 _atom_site_occupancy
  Rb  Rb0  1  0.75150600  0.75856206  0.50000000  1
  Rb  Rb1  1  0.24849400  0.00705606  0.50000000  1
  Rb  Rb2  1  1.00000000  0.60121724  0.00000000  1
  Rb  Rb3  1  0.37515399  0.38784735  0.00000000  1
  Rb  Rb4  1  0.62484601  0.01269336  0.00000000  1
  Sr  Sr0  1  1.00000000  0.25585440  0.50000000  1
  Mo  Mo0  1  0.67907302  0.31055588  0.50000000  1
  Mo  Mo1  1  0.32092698  0.63148386  0.50000000  1
  Mo  Mo2  1  1.00000000  0.02427283  0.00000000  1
  H  H0  1  0.80966924  0.31339429  0.71072918  1
  H  H1  1  0.62489848  0.42890946  0.67891583  1
  H  H2  1  0.54624226  0.19122884  0.70899113  1
  H  H3  1  0.19033076  0.50372605  0.28927082  1
  H  H4  1  0.54624226  0.19122884  0.29100887  1
  H  H5  1  0.80966924  0.31339429  0.28927082  1
  H  H6  1  0.62489848  0.42890946  0.32108417  1
  H  H7  1  0.37510152  0.80401198  0.67891583  1
  H  H8  1  0.45375774  0.64498758  0.70899113  1
  H  H9  1  0.17045312  0.02294741  0.00000000  1
  H  H10  1  0.82954688  0.85249428  0.00000000  1
  H  H11  1  1.00000000  0.20584889  0.00000000  1
  H  H12  1  0.87940200  0.02512625  0.22410325  1
  H  H13  1  0.12059800  0.14572424  0.77589675  1
  H  H14  1  0.00000000  0.89000357  0.79497019  1
  H  H15  1  0.00000000  0.89000357  0.20502981  1
  H  H16  1  0.12059800  0.14572424  0.22410325  1
  H  H17  1  0.87940200  0.02512625  0.77589675  1
  H  H18  1  0.16908398  0.67141233  0.50000000  1
  H  H19  1  0.40447237  0.84115905  0.50000000  1
  H  H20  1  0.33053114  0.45694282  0.50000000  1
  H  H21  1  0.59552763  0.43668668  0.50000000  1
  H  H22  1  0.83091602  0.50232935  0.50000000  1
  H  H23  1  0.66946886  0.12641169  0.50000000  1
  H  H24  1  0.19033076  0.50372605  0.71072918  1
  H  H25  1  0.37510152  0.80401198  0.32108417  1
  H  H26  1  0.45375774  0.64498758  0.29100887  1
loop_
_geom_bond_atom_site_label_1
_geom_bond_atom_site_label_2
_geom_bond_distance
_geom_bond_site_symmetry_2
H0 Mo0 1.775826 1_555
H0 Sr0 2.546274 1_555
H0 Rb2 3.011408 1_556
H0 Rb4 3.081875 1_556
H1 H21 1.077833 1_555
H1 Mo0 1.808500 1_555
H1 Rb3 2.985084 1_556
H1 Rb0 2.998185 1_555
H2 Mo0 1.752675 1_555
H2 Rb4 2.779654 1_556
H2 Rb1 2.911747 1_555
H3 Mo1 1.775826 1_555
H3 Sr0 2.546279 1_455
H3 Rb2 3.011402 1_455
H3 Rb3 3.081882 1_555
H4 Mo0 1.752675 1_555
H4 Rb4 2.779654 1_555
H4 Rb1 2.911747 1_555
H5 Mo0 1.775826 1_555
H5 Sr0 2.546274 1_555
H5 Rb2 3.011408 1_555
H5 Rb4 3.081875 1_555
H6 Mo0 1.808500 1_555
H6 Rb3 2.985084 1_555
H6 Rb0 2.998185 1_555
H7 Mo1 1.808499 1_555
H7 Rb4 2.985081 1_566
H7 Rb1 2.998177 1_565
H8 Mo1 1.752675 1_555
H8 Rb3 2.779661 1_556
H8 Rb0 2.911748 1_555
H9 Mo2 1.725786 1_455
H9 Rb1 2.989159 1_554
H9 Rb1 2.989159 1_555
H9 Rb3 3.126689 1_555
H10 Mo2 1.725786 1_565
H10 Rb0 2.989159 1_554
H10 Rb0 2.989159 1_555
H10 Rb4 3.126690 1_565
H11 Mo2 1.763139 1_555
H12 Mo2 1.769769 1_555
H12 Sr0 2.522884 1_555
H12 Rb0 2.763855 1_545
H12 Rb4 2.820097 1_555
H13 Mo2 1.769768 1_456
H13 Sr0 2.522885 1_455
H13 Rb1 2.763855 1_555
H13 Rb3 2.820096 1_556
H14 Mo2 1.753390 1_466
H14 Rb0 2.771021 1_455
H14 Rb1 2.771021 1_565
H14 Rb2 3.039393 1_456
H15 Mo2 1.753390 1_465
H15 Rb0 2.771021 1_455
H15 Rb1 2.771021 1_565
H15 Rb2 3.039393 1_455
H16 Mo2 1.769768 1_455
H16 Sr0 2.522885 1_455
H16 Rb1 2.763855 1_555
H16 Rb3 2.820096 1_555
H17 Mo2 1.769769 1_556
H17 Sr0 2.522884 1_555
H17 Rb0 2.763855 1_545
H17 Rb4 2.820097 1_556
H18 Mo1 1.751693 1_555
H18 Rb1 2.958179 1_565
H19 H7 1.077831 1_555
H19 H25 1.077831 1_555
H19 Mo1 1.789946 1_555
H19 Rb1 2.740584 1_565
H20 Mo1 1.743526 1_555
H20 Rb3 3.019604 1_556
H20 Rb3 3.019604 1_555
H21 H6 1.077833 1_555
H21 Mo0 1.789955 1_555
H21 Rb0 2.740584 1_555
H22 Mo0 1.751706 1_555
H22 Rb0 2.958169 1_555
H23 Mo0 1.743516 1_555
H23 Rb4 3.019604 1_556
H23 Rb4 3.019604 1_555
H24 Mo1 1.775826 1_555
H24 Sr0 2.546279 1_455
H24 Rb2 3.011402 1_456
H24 Rb3 3.081882 1_556
H25 Mo1 1.808499 1_555
H25 Rb4 2.985081 1_565
H25 Rb1 2.998177 1_565
H26 Mo1 1.752675 1_555
H26 Rb3 2.779661 1_555
H26 Rb0 2.911748 1_555
