# generated using pymatgen
data_HfMg2(TaN2)3
_symmetry_space_group_name_H-M   'P 1'
_cell_length_a   5.25610018
_cell_length_b   5.25610019
_cell_length_c   10.52460389
_cell_angle_alpha   90.00000000
_cell_angle_beta   90.00000000
_cell_angle_gamma   119.99999996
_symmetry_Int_Tables_number   1
_chemical_formula_structural   HfMg2(TaN2)3
_chemical_formula_sum   'Hf2 Mg4 Ta6 N12'
_cell_volume   251.80460056
_cell_formula_units_Z   2
loop_
 _symmetry_equiv_pos_site_id
 _symmetry_equiv_pos_as_xyz
  1  'x, y, z'
loop_
 _atom_site_type_symbol
 _atom_site_label
 _atom_site_symmetry_multiplicity
 _atom_site_fract_x
 _atom_site_fract_y
 _atom_site_fract_z
 _atom_site_occupancy
  Hf  Hf0  1  0.00000000  0.00000000  0.50000000  1
  Hf  Hf1  1  0.00000000  0.00000000  0.00000000  1
  Mg  Mg0  1  0.33333300  0.66666700  0.00000000  1
  Mg  Mg1  1  0.33333300  0.66666700  0.50000000  1
  Mg  Mg2  1  0.66666700  0.33333300  0.50000000  1
  Mg  Mg3  1  0.66666700  0.33333300  0.00000000  1
  Ta  Ta0  1  1.00000000  0.34153122  0.25000000  1
  Ta  Ta1  1  0.65846878  0.00000000  0.75000000  1
  Ta  Ta2  1  0.34153122  0.34153122  0.75000000  1
  Ta  Ta3  1  0.65846878  0.65846878  0.25000000  1
  Ta  Ta4  1  0.34153122  0.00000000  0.25000000  1
  Ta  Ta5  1  0.00000000  0.65846878  0.75000000  1
  N  N0  1  0.66767478  0.66767478  0.62356498  1
  N  N1  1  0.66767478  0.66767478  0.87643502  1
  N  N2  1  0.33232522  0.33232522  0.12356498  1
  N  N3  1  0.33232522  0.33232522  0.37643502  1
  N  N4  1  0.33232522  0.00000000  0.87643502  1
  N  N5  1  0.33232522  0.00000000  0.62356498  1
  N  N6  1  1.00000000  0.66767478  0.37643502  1
  N  N7  1  1.00000000  0.66767478  0.12356498  1
  N  N8  1  0.66767478  0.00000000  0.12356498  1
  N  N9  1  0.66767478  0.00000000  0.37643502  1
  N  N10  1  0.00000000  0.33232522  0.87643502  1
  N  N11  1  0.00000000  0.33232522  0.62356498  1
loop_
_geom_bond_atom_site_label_1
_geom_bond_atom_site_label_2
_geom_bond_distance
_geom_bond_site_symmetry_2
Hf0 N5 2.177685 1_555
Hf0 N9 2.177685 1_455
Hf0 N11 2.177685 1_555
Hf0 N0 2.177685 1_445
Hf0 N3 2.177685 1_555
Hf0 N6 2.177685 1_445
Hf1 N8 2.177685 1_455
Hf1 N4 2.177685 1_554
Hf1 N2 2.177685 1_555
Hf1 N7 2.177685 1_445
Hf1 N10 2.177685 1_554
Hf1 N1 2.177685 1_444
Mg0 N7 2.184068 1_455
Mg0 N4 2.184068 1_564
Mg0 N8 2.184070 1_565
Mg0 N10 2.184070 1_554
Mg0 N1 2.184072 1_554
Mg0 N2 2.184072 1_555
Mg1 N6 2.184068 1_455
Mg1 N5 2.184068 1_565
Mg1 N9 2.184070 1_565
Mg1 N11 2.184070 1_555
Mg1 N0 2.184072 1_555
Mg1 N3 2.184072 1_555
Mg2 N11 2.184068 1_655
Mg2 N9 2.184068 1_555
Mg2 N5 2.184070 1_555
Mg2 N6 2.184070 1_555
Mg2 N3 2.184072 1_555
Mg2 N0 2.184072 1_555
Mg3 N10 2.184068 1_654
Mg3 N8 2.184068 1_555
Mg3 N4 2.184070 1_554
Mg3 N7 2.184070 1_555
Mg3 N2 2.184072 1_555
Mg3 N1 2.184072 1_554
N0 Ta2 2.170100 1_555
N0 Ta5 2.215547 1_655
N0 Ta1 2.215547 1_565
N1 Ta2 2.170100 1_555
N1 Ta5 2.215547 1_655
N1 Ta1 2.215547 1_565
N2 Ta3 2.170100 1_555
N2 Ta0 2.215547 1_455
N2 Ta4 2.215547 1_555
N3 Ta3 2.170100 1_555
N3 Ta0 2.215547 1_455
N3 Ta4 2.215547 1_555
N4 Ta1 2.170100 1_555
N4 Ta2 2.215547 1_555
N4 Ta5 2.215547 1_545
N5 Ta1 2.170100 1_555
N5 Ta2 2.215547 1_555
N5 Ta5 2.215547 1_545
N6 Ta0 2.170100 1_555
N6 Ta3 2.215547 1_555
N6 Ta4 2.215547 1_665
N7 Ta0 2.170100 1_555
N7 Ta3 2.215547 1_555
N7 Ta4 2.215547 1_665
N8 Ta4 2.170100 1_555
N8 Ta0 2.215547 1_555
N8 Ta3 2.215547 1_545
N9 Ta4 2.170100 1_555
N9 Ta0 2.215547 1_555
N9 Ta3 2.215547 1_545
N10 Ta5 2.170100 1_555
N10 Ta2 2.215547 1_555
N10 Ta1 2.215547 1_455
N11 Ta5 2.170100 1_555
N11 Ta2 2.215547 1_555
N11 Ta1 2.215547 1_455
