# generated using pymatgen
data_KP4IrO12
_symmetry_space_group_name_H-M   'P 1'
_cell_length_a   10.52710549
_cell_length_b   10.52710591
_cell_length_c   5.12586369
_cell_angle_alpha   80.58483033
_cell_angle_beta   80.58482679
_cell_angle_gamma   71.73978632
_symmetry_Int_Tables_number   1
_chemical_formula_structural   KP4IrO12
_chemical_formula_sum   'K2 P8 Ir2 O24'
_cell_volume   528.33681233
_cell_formula_units_Z   2
loop_
 _symmetry_equiv_pos_site_id
 _symmetry_equiv_pos_as_xyz
  1  'x, y, z'
loop_
 _atom_site_type_symbol
 _atom_site_label
 _atom_site_symmetry_multiplicity
 _atom_site_fract_x
 _atom_site_fract_y
 _atom_site_fract_z
 _atom_site_occupancy
  K  K0  1  0.40831723  0.40831723  0.73553563  1
  K  K1  1  0.59168277  0.59168277  0.26446437  1
  P  P0  1  0.79720430  0.35629891  0.83860736  1
  P  P1  1  0.07045295  0.30779076  0.53172368  1
  P  P2  1  0.30779076  0.07045295  0.53172368  1
  P  P3  1  0.64370109  0.20279570  0.16139264  1
  P  P4  1  0.35629891  0.79720430  0.83860736  1
  P  P5  1  0.69220924  0.92954705  0.46827632  1
  P  P6  1  0.92954705  0.69220924  0.46827632  1
  P  P7  1  0.20279570  0.64370109  0.16139264  1
  Ir  Ir0  1  0.50000000  0.00000000  0.00000000  1
  Ir  Ir1  1  0.00000000  0.50000000  0.00000000  1
  O  O0  1  0.42800638  0.83885591  0.02670953  1
  O  O1  1  0.40497303  0.10376648  0.67451737  1
  O  O2  1  0.42894425  0.67730655  0.70682716  1
  O  O3  1  0.16114409  0.57199362  0.97329047  1
  O  O4  1  0.57199362  0.16114409  0.97329047  1
  O  O5  1  0.90669060  0.67014228  0.76556885  1
  O  O6  1  0.21644923  0.78355077  1.00000000  1
  O  O7  1  0.57105575  0.32269345  0.29317284  1
  O  O8  1  0.59502697  0.89623352  0.32548263  1
  O  O9  1  0.70354170  0.07484313  0.37061776  1
  O  O10  1  0.32269345  0.57105575  0.29317284  1
  O  O11  1  0.89623352  0.59502697  0.32548263  1
  O  O12  1  0.83885591  0.42800638  0.02670953  1
  O  O13  1  0.07484313  0.70354170  0.37061776  1
  O  O14  1  0.15854538  0.15854538  0.61822049  1
  O  O15  1  0.10376648  0.40497303  0.67451737  1
  O  O16  1  0.67730655  0.42894425  0.70682716  1
  O  O17  1  0.29645830  0.92515687  0.62938224  1
  O  O18  1  0.78355077  0.21644923  0.00000000  1
  O  O19  1  0.32985772  0.09330940  0.23443115  1
  O  O20  1  0.67014228  0.90669060  0.76556885  1
  O  O21  1  0.84145462  0.84145462  0.38177951  1
  O  O22  1  0.92515687  0.29645830  0.62938224  1
  O  O23  1  0.09330940  0.32985772  0.23443115  1
loop_
_geom_bond_atom_site_label_1
_geom_bond_atom_site_label_2
_geom_bond_distance
_geom_bond_site_symmetry_2
K0 O7 2.705362 1_555
K0 O10 2.705362 1_555
K0 O3 2.839812 1_555
K0 O4 2.839812 1_555
K0 O16 2.885437 1_555
K0 O2 2.885437 1_555
K1 O2 2.705362 1_555
K1 O16 2.705362 1_555
K1 O12 2.839812 1_555
K1 O0 2.839812 1_555
K1 O10 2.885437 1_555
K1 O7 2.885437 1_555
Ir0 O4 2.041222 1_554
Ir0 O0 2.041222 1_545
Ir0 O20 2.048510 1_544
Ir0 O19 2.048510 1_555
Ir0 O8 2.059721 1_545
Ir0 O1 2.059721 1_554
Ir1 O3 2.041222 1_554
Ir1 O12 2.041222 1_455
Ir1 O23 2.048510 1_555
Ir1 O5 2.048510 1_454
Ir1 O11 2.059721 1_455
Ir1 O15 2.059721 1_554
O0 P4 1.508513 1_554
O1 P2 1.503050 1_555
O2 P4 1.462619 1_555
O3 P7 1.508513 1_556
O4 P3 1.508513 1_556
O5 P6 1.494428 1_555
O6 P4 1.602399 1_555
O6 P7 1.602399 1_556
O7 P3 1.462619 1_555
O8 P5 1.503050 1_555
O9 P5 1.564812 1_545
O9 P3 1.605616 1_555
O10 P7 1.462619 1_555
O11 P6 1.503050 1_555
O12 P0 1.508513 1_554
O13 P6 1.564811 1_455
O13 P7 1.605616 1_555
O14 P2 1.586998 1_555
O14 P1 1.586998 1_555
O15 P1 1.503050 1_555
O16 P0 1.462619 1_555
O17 P2 1.564812 1_565
O17 P4 1.605616 1_555
O18 P3 1.602399 1_555
O18 P0 1.602399 1_554
O19 P2 1.494428 1_555
O20 P5 1.494428 1_555
O21 P5 1.586998 1_555
O21 P6 1.586998 1_555
O22 P1 1.564811 1_655
O22 P0 1.605616 1_555
O23 P1 1.494428 1_555
