# generated using pymatgen
data_K3Sr3LuSb4
_symmetry_space_group_name_H-M   'P 1'
_cell_length_a   11.11499821
_cell_length_b   11.11499801
_cell_length_c   8.19631279
_cell_angle_alpha   90.00000000
_cell_angle_beta   90.00000000
_cell_angle_gamma   120.00000352
_symmetry_Int_Tables_number   1
_chemical_formula_structural   K3Sr3LuSb4
_chemical_formula_sum   'K6 Sr6 Lu2 Sb8'
_cell_volume   876.93605539
_cell_formula_units_Z   2
loop_
 _symmetry_equiv_pos_site_id
 _symmetry_equiv_pos_as_xyz
  1  'x, y, z'
loop_
 _atom_site_type_symbol
 _atom_site_label
 _atom_site_symmetry_multiplicity
 _atom_site_fract_x
 _atom_site_fract_y
 _atom_site_fract_z
 _atom_site_occupancy
  K  K0  1  0.86200428  0.13799572  0.55316694  1
  K  K1  1  0.27599143  0.13799572  0.55316694  1
  K  K2  1  0.86200428  0.72400857  0.55316694  1
  K  K3  1  0.13799572  0.86200428  0.05316694  1
  K  K4  1  0.72400857  0.86200428  0.05316694  1
  K  K5  1  0.13799572  0.27599143  0.05316694  1
  Sr  Sr0  1  0.47006886  0.52993114  0.72980213  1
  Sr  Sr1  1  0.05986329  0.52993114  0.72980213  1
  Sr  Sr2  1  0.47006886  0.94013671  0.72980213  1
  Sr  Sr3  1  0.52993114  0.47006886  0.22980213  1
  Sr  Sr4  1  0.94013671  0.47006886  0.22980213  1
  Sr  Sr5  1  0.52993114  0.05986329  0.22980213  1
  Lu  Lu0  1  0.66666700  0.33333300  0.84666046  1
  Lu  Lu1  1  0.33333300  0.66666700  0.34666046  1
  Sb  Sb0  1  0.80753415  0.19246585  0.96696336  1
  Sb  Sb1  1  0.38493270  0.19246585  0.96696336  1
  Sb  Sb2  1  0.80753415  0.61506730  0.96696336  1
  Sb  Sb3  1  0.19246585  0.80753415  0.46696336  1
  Sb  Sb4  1  0.61506730  0.80753415  0.46696336  1
  Sb  Sb5  1  0.19246585  0.38493270  0.46696336  1
  Sb  Sb6  1  0.66666700  0.33333300  0.48890726  1
  Sb  Sb7  1  0.33333300  0.66666700  0.98890726  1
loop_
_geom_bond_atom_site_label_1
_geom_bond_atom_site_label_2
_geom_bond_distance
_geom_bond_site_symmetry_2
K0 Sb4 3.382693 1_545
K0 Sb5 3.382693 1_655
K0 Sb0 3.550020 1_555
K0 Sb6 3.797287 1_555
K1 Sb3 3.382690 1_545
K1 Sb5 3.382701 1_555
K1 Sb1 3.550023 1_555
K1 Sb6 3.797296 1_555
K2 Sb3 3.382690 1_655
K2 Sb4 3.382701 1_555
K2 Sb2 3.550023 1_555
K2 Sb6 3.797296 1_555
K3 Sb1 3.382693 1_564
K3 Sb2 3.382693 1_454
K3 Sb3 3.550020 1_555
K3 Sb7 3.797287 1_554
K4 Sb0 3.382690 1_564
K4 Sb2 3.382701 1_554
K4 Sb4 3.550023 1_555
K4 Sb7 3.797296 1_554
K5 Sb0 3.382690 1_454
K5 Sb1 3.382701 1_554
K5 Sb5 3.550023 1_555
K5 Sb7 3.797296 1_554
Lu0 Sb2 2.885634 1_555
Lu0 Sb1 2.885634 1_555
Lu0 Sb0 2.885634 1_555
Lu0 Sb6 2.932257 1_555
Lu1 Sb5 2.885634 1_555
Lu1 Sb4 2.885634 1_555
Lu1 Sb3 2.885634 1_555
Lu1 Sb7 2.932257 1_554
Sb0 Sr4 3.433117 1_556
Sb0 Sr5 3.433117 1_556
Sb0 Sr1 3.897947 1_655
Sb0 Sr2 3.897947 1_545
Sb1 Sr5 3.433101 1_556
Sb1 Sr3 3.433116 1_556
Sb1 Sr0 3.897947 1_555
Sb1 Sr2 3.897947 1_545
Sb2 Sr4 3.433101 1_556
Sb2 Sr3 3.433116 1_556
Sb2 Sr0 3.897947 1_555
Sb2 Sr1 3.897948 1_655
Sb3 Sr1 3.433117 1_555
Sb3 Sr2 3.433117 1_555
Sb3 Sr4 3.897947 1_455
Sb3 Sr5 3.897947 1_565
Sb4 Sr2 3.433101 1_555
Sb4 Sr0 3.433116 1_555
Sb4 Sr3 3.897947 1_555
Sb4 Sr5 3.897947 1_565
Sb5 Sr1 3.433101 1_555
Sb5 Sr0 3.433116 1_555
Sb5 Sr3 3.897947 1_555
Sb5 Sr4 3.897948 1_455
Sb6 Sr5 3.382244 1_555
Sb6 Sr4 3.382244 1_555
Sb6 Sr3 3.382259 1_555
Sb7 Sr2 3.382244 1_555
Sb7 Sr1 3.382244 1_555
Sb7 Sr0 3.382259 1_555
