# generated using pymatgen
data_Si2CN4
_symmetry_space_group_name_H-M   'P 1'
_cell_length_a   4.84964611
_cell_length_b   5.47325340
_cell_length_c   7.37342482
_cell_angle_alpha   90.00000000
_cell_angle_beta   109.19958459
_cell_angle_gamma   90.00000000
_symmetry_Int_Tables_number   1
_chemical_formula_structural   Si2CN4
_chemical_formula_sum   'Si4 C2 N8'
_cell_volume   184.82940608
_cell_formula_units_Z   2
loop_
 _symmetry_equiv_pos_site_id
 _symmetry_equiv_pos_as_xyz
  1  'x, y, z'
loop_
 _atom_site_type_symbol
 _atom_site_label
 _atom_site_symmetry_multiplicity
 _atom_site_fract_x
 _atom_site_fract_y
 _atom_site_fract_z
 _atom_site_occupancy
  Si  Si0  1  0.23271253  0.59741391  0.59510483  1
  Si  Si1  1  0.63760671  0.40258609  0.40489517  1
  Si  Si2  1  0.73271253  0.90258609  0.59510483  1
  Si  Si3  1  0.13760671  0.09741391  0.40489517  1
  C  C0  1  0.48348331  0.50000000  0.00000000  1
  C  C1  1  0.98348331  -0.00000000  0.00000000  1
  N  N0  1  0.40376757  0.53093418  0.82880851  1
  N  N1  1  0.57495907  0.46906582  0.17119149  1
  N  N2  1  0.36126739  0.87404216  0.54306697  1
  N  N3  1  0.81820042  0.12595784  0.45693303  1
  N  N4  1  0.86126739  0.62595784  0.54306697  1
  N  N5  1  0.31820042  0.37404216  0.45693303  1
  N  N6  1  0.07495907  0.03093418  0.17119149  1
  N  N7  1  0.90376757  0.96906582  0.82880851  1
loop_
_geom_bond_atom_site_label_1
_geom_bond_atom_site_label_2
_geom_bond_distance
_geom_bond_site_symmetry_2
C0 N0 1.204360 1_554
C0 N1 1.204360 1_555
C1 N7 1.204360 1_544
C1 N6 1.204360 1_655
N0 Si0 1.688124 1_555
N1 Si1 1.688124 1_555
N2 Si2 1.721042 1_555
N2 Si3 1.726941 1_565
N2 Si0 1.727892 1_555
N3 Si3 1.721038 1_655
N3 Si2 1.726939 1_545
N3 Si1 1.727894 1_555
N4 Si0 1.721042 1_655
N4 Si1 1.726941 1_555
N4 Si2 1.727892 1_555
N5 Si1 1.721038 1_555
N5 Si0 1.726939 1_555
N5 Si3 1.727894 1_555
N6 Si3 1.688124 1_555
N7 Si2 1.688124 1_555
