# generated using pymatgen
data_Ca5Bi3Cl
_symmetry_space_group_name_H-M   'P 1'
_cell_length_a   9.26729219
_cell_length_b   9.26729275
_cell_length_c   7.16118536
_cell_angle_alpha   90.00000000
_cell_angle_beta   90.00000000
_cell_angle_gamma   120.00000500
_symmetry_Int_Tables_number   1
_chemical_formula_structural   Ca5Bi3Cl
_chemical_formula_sum   'Ca10 Bi6 Cl2'
_cell_volume   532.62465197
_cell_formula_units_Z   2
loop_
 _symmetry_equiv_pos_site_id
 _symmetry_equiv_pos_as_xyz
  1  'x, y, z'
loop_
 _atom_site_type_symbol
 _atom_site_label
 _atom_site_symmetry_multiplicity
 _atom_site_fract_x
 _atom_site_fract_y
 _atom_site_fract_z
 _atom_site_occupancy
  Ca  Ca0  1  0.74562168  1.00000000  0.75000000  1
  Ca  Ca1  1  0.00000000  0.25437832  0.25000000  1
  Ca  Ca2  1  0.74562168  0.74562168  0.25000000  1
  Ca  Ca3  1  0.33333300  0.66666700  0.50000000  1
  Ca  Ca4  1  0.33333300  0.66666700  0.00000000  1
  Ca  Ca5  1  0.66666700  0.33333300  0.50000000  1
  Ca  Ca6  1  0.66666700  0.33333300  0.00000000  1
  Ca  Ca7  1  0.25437832  0.00000000  0.25000000  1
  Ca  Ca8  1  0.25437832  0.25437832  0.75000000  1
  Ca  Ca9  1  1.00000000  0.74562168  0.75000000  1
  Bi  Bi0  1  0.39184515  0.00000000  0.75000000  1
  Bi  Bi1  1  0.60815485  1.00000000  0.25000000  1
  Bi  Bi2  1  1.00000000  0.60815485  0.25000000  1
  Bi  Bi3  1  0.60815485  0.60815485  0.75000000  1
  Bi  Bi4  1  0.00000000  0.39184515  0.75000000  1
  Bi  Bi5  1  0.39184515  0.39184515  0.25000000  1
  Cl  Cl0  1  0.00000000  0.00000000  0.50000000  1
  Cl  Cl1  1  0.00000000  0.00000000  0.00000000  1
loop_
_geom_bond_atom_site_label_1
_geom_bond_atom_site_label_2
_geom_bond_distance
_geom_bond_site_symmetry_2
Ca0 Cl1 2.960150 1_666
Ca0 Cl0 2.960150 1_665
Ca1 Cl0 2.960150 1_555
Ca1 Cl1 2.960150 1_555
Ca2 Cl1 2.960150 1_665
Ca2 Cl0 2.960150 1_665
Ca7 Cl1 2.960150 1_555
Ca7 Cl0 2.960150 1_555
Ca8 Cl1 2.960150 1_556
Ca8 Cl0 2.960150 1_555
Ca9 Cl1 2.960150 1_666
Ca9 Cl0 2.960150 1_665
Bi0 Ca9 3.191153 1_445
Bi0 Ca8 3.191153 1_555
Bi0 Ca0 3.278551 1_545
Bi0 Ca4 3.371445 1_546
Bi0 Ca3 3.371445 1_545
Bi0 Ca6 3.371447 1_556
Bi0 Ca5 3.371447 1_555
Bi0 Ca7 3.800471 1_555
Bi0 Ca7 3.800471 1_556
Bi1 Ca1 3.191153 1_665
Bi1 Ca2 3.191153 1_555
Bi1 Ca7 3.278551 1_565
Bi1 Ca5 3.371445 1_565
Bi1 Ca6 3.371445 1_565
Bi1 Ca4 3.371447 1_555
Bi1 Ca3 3.371447 1_555
Bi1 Ca0 3.800471 1_554
Bi1 Ca0 3.800471 1_555
Bi2 Ca7 3.191153 1_665
Bi2 Ca2 3.191153 1_555
Bi2 Ca1 3.278551 1_655
Bi2 Ca3 3.371445 1_655
Bi2 Ca4 3.371445 1_655
Bi2 Ca5 3.371447 1_555
Bi2 Ca6 3.371447 1_555
Bi2 Ca9 3.800471 1_555
Bi2 Ca9 3.800471 1_554
Bi3 Ca9 3.191153 1_555
Bi3 Ca0 3.191153 1_555
Bi3 Ca8 3.278550 1_555
Bi3 Ca3 3.371453 1_555
Bi3 Ca4 3.371453 1_556
Bi3 Ca6 3.371453 1_556
Bi3 Ca5 3.371453 1_555
Bi3 Ca2 3.800471 1_555
Bi3 Ca2 3.800471 1_556
Bi4 Ca0 3.191153 1_445
Bi4 Ca8 3.191153 1_555
Bi4 Ca9 3.278551 1_455
Bi4 Ca5 3.371445 1_455
Bi4 Ca6 3.371445 1_456
Bi4 Ca3 3.371447 1_555
Bi4 Ca4 3.371447 1_556
Bi4 Ca1 3.800471 1_556
Bi4 Ca1 3.800471 1_555
Bi5 Ca1 3.191153 1_555
Bi5 Ca7 3.191153 1_555
Bi5 Ca2 3.278550 1_555
Bi5 Ca6 3.371453 1_555
Bi5 Ca5 3.371453 1_555
Bi5 Ca3 3.371453 1_555
Bi5 Ca4 3.371453 1_555
Bi5 Ca8 3.800471 1_555
Bi5 Ca8 3.800471 1_554
