# generated using pymatgen
data_Al11Re2TcRu
_symmetry_space_group_name_H-M   'P 1'
_cell_length_a   5.14413758
_cell_length_b   5.11687546
_cell_length_c   8.95803778
_cell_angle_alpha   104.96197591
_cell_angle_beta   90.63356147
_cell_angle_gamma   99.94615476
_symmetry_Int_Tables_number   1
_chemical_formula_structural   Al11Re2TcRu
_chemical_formula_sum   'Al11 Re2 Tc1 Ru1'
_cell_volume   223.99095433
_cell_formula_units_Z   1
loop_
 _symmetry_equiv_pos_site_id
 _symmetry_equiv_pos_as_xyz
  1  'x, y, z'
loop_
 _atom_site_type_symbol
 _atom_site_label
 _atom_site_symmetry_multiplicity
 _atom_site_fract_x
 _atom_site_fract_y
 _atom_site_fract_z
 _atom_site_occupancy
  Al  Al0  1  0.79645466  0.25711455  0.63425961  1
  Al  Al1  1  0.20489432  0.74858359  0.36335294  1
  Al  Al2  1  0.14663584  0.46495601  0.87151191  1
  Al  Al3  1  0.85413645  0.53293699  0.12962646  1
  Al  Al4  1  0.99908443  0.99832319  0.00220973  1
  Al  Al5  1  0.49951463  0.09565853  0.87390247  1
  Al  Al6  1  0.50207090  0.90153500  0.12701039  1
  Al  Al7  1  0.56340778  0.31802461  0.37626973  1
  Al  Al8  1  0.43624469  0.67838923  0.62197144  1
  Al  Al9  1  0.94506799  0.80251253  0.66669236  1
  Al  Al10  1  0.05028946  0.20513334  0.33304304  1
  Re  Re0  1  0.66210903  0.60770172  0.86505667  1
  Re  Re1  1  0.33878455  0.38755767  0.13273021  1
  Tc  Tc0  1  0.72412230  0.84693600  0.40089782  1
  Ru  Ru0  1  0.27718198  0.15463403  0.60146522  1
loop_
_geom_bond_atom_site_label_1
_geom_bond_atom_site_label_2
_geom_bond_distance
_geom_bond_site_symmetry_2
Al0 Tc0 2.522118 1_545
Al0 Re0 2.552449 1_555
Al0 Ru0 2.619375 1_655
Al0 Ru0 2.629804 1_555
Al0 Al2 2.641856 1_655
Al0 Al9 2.652951 1_545
Al0 Al9 2.701198 1_555
Al0 Al7 2.704654 1_555
Al0 Al5 2.859473 1_555
Al0 Al10 2.980594 1_655
Al1 Ru0 2.536160 1_565
Al1 Re1 2.579805 1_555
Al1 Tc0 2.616074 1_455
Al1 Al3 2.625393 1_455
Al1 Tc0 2.632282 1_555
Al1 Al10 2.669868 1_565
Al1 Al10 2.698201 1_555
Al1 Al8 2.725593 1_555
Al1 Al6 2.818819 1_555
Al2 Re0 2.631409 1_555
Al2 Re1 2.678073 1_556
Al2 Ru0 2.691686 1_555
Al2 Re0 2.719702 1_455
Al2 Al3 2.752036 1_456
Al2 Al5 2.841016 1_555
Al2 Al4 2.912147 1_456
Al2 Al4 2.912915 1_446
Al2 Al8 3.030073 1_555
Al2 Al6 3.070555 1_556
Al2 Al9 3.104496 1_455
Al3 Re1 2.629301 1_555
Al3 Re0 2.699277 1_554
Al3 Tc0 2.706486 1_555
Al3 Re1 2.723872 1_655
Al3 Al6 2.835429 1_555
Al3 Al4 2.887630 1_555
Al3 Al4 2.907438 1_545
Al3 Al7 3.014483 1_555
Al3 Al5 3.071290 1_554
Al4 Re1 2.436703 1_665
Al4 Re0 2.448958 1_554
Al4 Al6 2.818435 1_555
Al4 Al5 2.848540 1_664
Al4 Al9 2.906026 1_554
Al4 Al5 2.974173 1_564
Al4 Al6 2.975655 1_655
Al5 Re0 2.631012 1_555
Al5 Re1 2.640299 1_556
Al5 Al8 2.648291 1_545
Al5 Al6 2.700830 1_546
Al5 Re0 2.749665 1_545
Al5 Ru0 2.791590 1_555
Al6 Al7 2.630973 1_565
Al6 Re1 2.632920 1_555
Al6 Re0 2.663329 1_554
Al6 Re1 2.747671 1_565
Al6 Tc0 2.793679 1_555
Al7 Re1 2.590050 1_555
Al7 Tc0 2.640335 1_555
Al7 Al8 2.650532 1_555
Al7 Ru0 2.729057 1_555
Al7 Tc0 2.738918 1_545
Al8 Al9 2.585752 1_555
Al8 Re0 2.592006 1_555
Al8 Ru0 2.621176 1_555
Al8 Tc0 2.713726 1_555
Al8 Al9 2.719071 1_455
Al8 Ru0 2.749235 1_565
Al9 Ru0 2.451299 1_665
Al9 Re0 2.596255 1_555
Al9 Tc0 2.705824 1_555
Al10 Tc0 2.465662 1_445
Al10 Re1 2.595937 1_555
Al10 Al7 2.605003 1_555
Al10 Al7 2.676249 1_455
Al10 Ru0 2.752051 1_555
Al10 Al4 2.870420 1_445
Al10 Al3 3.045370 1_455
