# generated using pymatgen
data_RbGaNiF6
_symmetry_space_group_name_H-M   'P 1'
_cell_length_a   7.19321828
_cell_length_b   7.19321896
_cell_length_c   7.19321912
_cell_angle_alpha   120.52476501
_cell_angle_beta   119.39279982
_cell_angle_gamma   90.07419590
_symmetry_Int_Tables_number   1
_chemical_formula_structural   RbGaNiF6
_chemical_formula_sum   'Rb2 Ga2 Ni2 F12'
_cell_volume   263.31282583
_cell_formula_units_Z   2
loop_
 _symmetry_equiv_pos_site_id
 _symmetry_equiv_pos_as_xyz
  1  'x, y, z'
loop_
 _atom_site_type_symbol
 _atom_site_label
 _atom_site_symmetry_multiplicity
 _atom_site_fract_x
 _atom_site_fract_y
 _atom_site_fract_z
 _atom_site_occupancy
  Rb  Rb0  1  0.36527145  0.61527145  0.75000000  1
  Rb  Rb1  1  0.63472855  0.38472855  0.25000000  1
  Ga  Ga0  1  0.00000000  0.00000000  0.00000000  1
  Ga  Ga1  1  0.50000000  0.00000000  0.50000000  1
  Ni  Ni0  1  0.00000000  0.00000000  0.50000000  1
  Ni  Ni1  1  0.00000000  0.50000000  0.00000000  1
  F  F0  1  0.31236085  0.06236085  0.25000000  1
  F  F1  1  0.91927973  0.66927973  0.25000000  1
  F  F2  1  0.33041202  0.68658118  0.26369268  1
  F  F3  1  0.92288850  0.06671834  0.23630732  1
  F  F4  1  0.33041202  0.06671834  0.64382984  1
  F  F5  1  0.92288850  0.68658118  0.85617016  1
  F  F6  1  0.68763915  0.93763915  0.75000000  1
  F  F7  1  0.08072027  0.33072027  0.75000000  1
  F  F8  1  0.66958798  0.31341882  0.73630732  1
  F  F9  1  0.07711150  0.93328166  0.76369268  1
  F  F10  1  0.66958798  0.93328166  0.35617016  1
  F  F11  1  0.07711150  0.31341882  0.14382984  1
loop_
_geom_bond_atom_site_label_1
_geom_bond_atom_site_label_2
_geom_bond_distance
_geom_bond_site_symmetry_2
F0 Ga0 1.922332 1_555
F0 Ga1 1.922332 1_555
F0 Rb1 3.277241 1_555
F1 Ni1 1.963707 1_655
F1 Ni0 1.963707 1_665
F1 Rb1 2.892792 1_555
F2 Ga1 1.877457 1_565
F2 Ni1 2.007117 1_555
F2 Rb1 3.085887 1_555
F3 Ga0 1.877458 1_655
F3 Ni0 2.007112 1_655
F3 Rb1 3.085893 1_555
F4 Ga1 1.877452 1_555
F4 Ni0 2.007118 1_555
F4 Rb1 3.085893 1_556
F5 Ga0 1.877458 1_666
F5 Ni1 2.007112 1_656
F5 Rb1 3.085893 1_555
F6 Ga0 1.922332 1_666
F6 Ga1 1.922332 1_565
F6 Rb0 3.277241 1_555
F7 Ni1 1.963707 1_556
F7 Ni0 1.963707 1_555
F7 Rb0 2.892792 1_555
F8 Ga1 1.877457 1_555
F8 Ni1 2.007117 1_656
F8 Rb0 3.085887 1_555
F9 Ga0 1.877458 1_566
F9 Ni0 2.007112 1_565
F9 Rb0 3.085893 1_555
F10 Ga1 1.877452 1_565
F10 Ni0 2.007118 1_665
F10 Rb0 3.085893 1_554
F11 Ga0 1.877458 1_555
F11 Ni1 2.007112 1_555
F11 Rb0 3.085893 1_555
