# generated using pymatgen
data_Y20In6TcPd
_symmetry_space_group_name_H-M   'P 1'
_cell_length_a   9.88001812
_cell_length_b   9.88001769
_cell_length_c   9.64986341
_cell_angle_alpha   90.00000000
_cell_angle_beta   90.00000000
_cell_angle_gamma   120.00002902
_symmetry_Int_Tables_number   1
_chemical_formula_structural   Y20In6TcPd
_chemical_formula_sum   'Y20 In6 Tc1 Pd1'
_cell_volume   815.76888002
_cell_formula_units_Z   1
loop_
 _symmetry_equiv_pos_site_id
 _symmetry_equiv_pos_as_xyz
  1  'x, y, z'
loop_
 _atom_site_type_symbol
 _atom_site_label
 _atom_site_symmetry_multiplicity
 _atom_site_fract_x
 _atom_site_fract_y
 _atom_site_fract_z
 _atom_site_occupancy
  Y  Y0  1  0.21072890  0.78927110  0.93936612  1
  Y  Y1  1  0.21072890  0.42145880  0.93936512  1
  Y  Y2  1  0.57854120  0.78927110  0.93936512  1
  Y  Y3  1  0.79190289  0.20809711  0.06021215  1
  Y  Y4  1  0.79190289  0.58380478  0.06021215  1
  Y  Y5  1  0.41619522  0.20809711  0.06021215  1
  Y  Y6  1  0.79190289  0.20809711  0.43978785  1
  Y  Y7  1  0.79190289  0.58380478  0.43978785  1
  Y  Y8  1  0.41619522  0.20809711  0.43978785  1
  Y  Y9  1  0.21072890  0.78927110  0.56063388  1
  Y  Y10  1  0.21072890  0.42145880  0.56063488  1
  Y  Y11  1  0.57854120  0.78927110  0.56063488  1
  Y  Y12  1  0.53860300  0.46139700  0.75000000  1
  Y  Y13  1  0.53860300  0.07720600  0.75000000  1
  Y  Y14  1  0.92279400  0.46139700  0.75000000  1
  Y  Y15  1  0.45622299  0.54377701  0.25000000  1
  Y  Y16  1  0.45622399  0.91244698  0.25000000  1
  Y  Y17  1  0.08755202  0.54377601  0.25000000  1
  Y  Y18  1  0.00000000  0.00000000  0.00038418  1
  Y  Y19  1  0.00000000  0.00000000  0.49961582  1
  In  In0  1  0.88059248  0.11940852  0.75000000  1
  In  In1  1  0.88059148  0.76118295  0.75000000  1
  In  In2  1  0.23881705  0.11940852  0.75000000  1
  In  In3  1  0.12007060  0.87992940  0.25000000  1
  In  In4  1  0.12007060  0.24014119  0.25000000  1
  In  In5  1  0.75985881  0.87992940  0.25000000  1
  Tc  Tc0  1  0.33333300  0.66666700  0.75000000  1
  Pd  Pd0  1  0.66666600  0.33333300  0.25000000  1
loop_
_geom_bond_atom_site_label_1
_geom_bond_atom_site_label_2
_geom_bond_distance
_geom_bond_site_symmetry_2
Y0 Y14 3.565164 1_455
Y0 Y13 3.565164 1_565
Y0 Y18 3.653895 1_566
Y0 Y17 3.660292 1_556
Y0 Y16 3.660293 1_556
Y0 Y5 3.768786 1_566
Y0 Y4 3.768786 1_456
Y1 Y14 3.565155 1_455
Y1 Y12 3.565163 1_555
Y1 Y18 3.653903 1_556
Y1 Y15 3.660296 1_556
Y1 Y17 3.660296 1_556
Y1 Y3 3.768789 1_456
Y1 Y5 3.768807 1_556
Y2 Y3 3.768789 1_566
Y2 Y4 3.768807 1_556
Y3 Y6 3.662854 1_555
Y3 Y4 3.711998 1_555
Y3 Y5 3.711999 1_555
Y4 Y7 3.662854 1_555
Y4 Y5 3.711997 1_555
Y5 Y8 3.662854 1_555
Y6 Y7 3.711998 1_555
Y6 Y8 3.711999 1_555
Y7 Y8 3.711997 1_555
Y7 Y9 3.768786 1_655
Y8 Y9 3.768786 1_545
Y10 Y14 3.565155 1_455
Y10 Y12 3.565163 1_555
Y10 Y19 3.653903 1_555
Y10 Y15 3.660296 1_555
Y10 Y17 3.660296 1_555
Y10 Y6 3.768789 1_455
Y10 Y8 3.768807 1_555
Y11 Y13 3.565155 1_565
Y11 Y12 3.565163 1_555
Y11 Y19 3.653903 1_665
Y11 Y16 3.660291 1_555
Y11 Y15 3.660295 1_555
Y11 Y6 3.768789 1_565
Y11 Y7 3.768807 1_555
Y12 Y2 3.565163 1_555
Y12 Y5 3.695958 1_556
Y12 Y8 3.695958 1_555
Y12 Y4 3.695958 1_556
Y12 Y7 3.695958 1_555
Y12 Y13 3.795814 1_555
Y12 Y14 3.795814 1_555
Y13 Y2 3.565155 1_545
Y13 Y9 3.565164 1_545
Y13 Y5 3.695954 1_556
Y13 Y8 3.695954 1_555
Y13 Y3 3.695958 1_556
Y13 Y6 3.695958 1_555
Y13 Y14 3.795812 1_555
Y14 Y9 3.565164 1_655
Y14 Y4 3.695954 1_556
Y14 Y7 3.695954 1_555
Y14 Y3 3.695958 1_556
Y14 Y6 3.695958 1_555
Y15 Y8 3.632939 1_555
Y15 Y5 3.632939 1_555
Y15 Y7 3.632939 1_555
Y15 Y4 3.632939 1_555
Y15 Y16 3.642461 1_555
Y15 Y17 3.642471 1_555
Y15 Y2 3.660295 1_554
Y16 Y6 3.632926 1_565
Y16 Y3 3.632926 1_565
Y16 Y8 3.632928 1_565
Y16 Y5 3.632928 1_565
Y16 Y17 3.642479 1_555
Y16 Y2 3.660291 1_554
Y16 Y9 3.660293 1_555
Y17 Y7 3.632919 1_455
Y17 Y4 3.632919 1_455
Y17 Y6 3.632923 1_455
Y17 Y3 3.632923 1_455
Y17 Y9 3.660292 1_555
Y18 Y3 3.607598 1_455
Y18 Y4 3.607605 1_445
Y18 Y5 3.607605 1_555
Y18 Y2 3.653903 1_444
Y19 Y6 3.607598 1_455
Y19 Y7 3.607605 1_445
Y19 Y8 3.607605 1_555
Y19 Y9 3.653895 1_545
In0 Y18 3.164388 1_656
In0 Y19 3.164388 1_655
In0 Y14 3.190873 1_555
In0 Y13 3.190879 1_555
In0 Y3 3.356265 1_556
In0 Y6 3.356265 1_555
In0 In2 3.539265 1_655
In0 In1 3.539270 1_545
In0 Y10 3.626309 1_655
In0 Y1 3.626309 1_655
In0 Y11 3.626318 1_545
In0 Y2 3.626318 1_545
In1 Y18 3.164392 1_666
In1 Y19 3.164392 1_665
In1 Y12 3.190868 1_555
In1 Y14 3.190870 1_555
In1 Y4 3.356264 1_556
In1 Y7 3.356264 1_555
In1 In2 3.539274 1_665
In1 Y0 3.626317 1_655
In1 Y9 3.626317 1_655
In1 Y11 3.626320 1_555
In1 Y2 3.626320 1_555
In2 Y18 3.164393 1_556
In2 Y19 3.164393 1_555
In2 Y12 3.190868 1_555
In2 Y13 3.190870 1_555
In2 Y5 3.356264 1_556
In2 Y8 3.356264 1_555
In2 Y0 3.626316 1_545
In2 Y9 3.626316 1_545
In2 Y10 3.626320 1_555
In2 Y1 3.626320 1_555
In3 Y19 3.166076 1_565
In3 Y18 3.166076 1_565
In3 Y17 3.172783 1_555
In3 Y16 3.172787 1_555
In3 Y9 3.375251 1_555
In3 Y0 3.375251 1_554
In3 In4 3.558899 1_565
In3 In5 3.558899 1_455
In3 Y8 3.597277 1_565
In3 Y5 3.597277 1_565
In3 Y7 3.597277 1_455
In3 Y4 3.597277 1_455
In4 Y19 3.166076 1_555
In4 Y18 3.166076 1_555
In4 Y15 3.172780 1_555
In4 Y17 3.172783 1_555
In4 Y1 3.375263 1_554
In4 Y10 3.375263 1_555
In4 In5 3.558897 1_445
In4 Y6 3.597274 1_455
In4 Y3 3.597274 1_455
In4 Y8 3.597283 1_555
In4 Y5 3.597283 1_555
In5 Y19 3.166076 1_665
In5 Y18 3.166076 1_665
In5 Y16 3.172778 1_555
In5 Y15 3.172780 1_555
In5 Y2 3.375263 1_554
In5 Y11 3.375263 1_555
In5 Y6 3.597274 1_565
In5 Y3 3.597274 1_565
In5 Y7 3.597283 1_555
In5 Y4 3.597283 1_555
Tc0 Y10 2.782294 1_555
Tc0 Y1 2.782294 1_555
Tc0 Y11 2.782294 1_555
Tc0 Y2 2.782294 1_555
Tc0 Y0 2.782301 1_555
Tc0 Y9 2.782301 1_555
Tc0 Y13 3.512713 1_565
Tc0 Y14 3.512713 1_455
Tc0 Y12 3.512723 1_555
Pd0 Y8 2.819054 1_555
Pd0 Y5 2.819054 1_555
Pd0 Y7 2.819060 1_555
Pd0 Y4 2.819060 1_555
Pd0 Y6 2.819067 1_555
Pd0 Y3 2.819067 1_555
Pd0 Y16 3.601245 1_545
Pd0 Y17 3.601246 1_655
Pd0 Y15 3.601256 1_555
