# generated using pymatgen
data_Be7V3ReP
_symmetry_space_group_name_H-M   'P 1'
_cell_length_a   4.31312645
_cell_length_b   4.31312525
_cell_length_c   7.20659057
_cell_angle_alpha   90.00000000
_cell_angle_beta   90.00000000
_cell_angle_gamma   120.00000159
_symmetry_Int_Tables_number   1
_chemical_formula_structural   Be7V3ReP
_chemical_formula_sum   'Be7 V3 Re1 P1'
_cell_volume   116.10334565
_cell_formula_units_Z   1
loop_
 _symmetry_equiv_pos_site_id
 _symmetry_equiv_pos_as_xyz
  1  'x, y, z'
loop_
 _atom_site_type_symbol
 _atom_site_label
 _atom_site_symmetry_multiplicity
 _atom_site_fract_x
 _atom_site_fract_y
 _atom_site_fract_z
 _atom_site_occupancy
  Be  Be0  1  0.00000000  0.00000000  0.50039859  1
  Be  Be1  1  0.82894173  0.65788447  0.25624890  1
  Be  Be2  1  0.17165998  0.82834002  0.74400171  1
  Be  Be3  1  0.65667904  0.82834002  0.74400171  1
  Be  Be4  1  0.34211553  0.17105827  0.25624890  1
  Be  Be5  1  0.82894173  0.17105827  0.25624890  1
  Be  Be6  1  0.17165998  0.34332096  0.74400171  1
  V  V0  1  0.33333300  0.66666700  0.06110479  1
  V  V1  1  0.66666700  0.33333300  0.56365184  1
  V  V2  1  0.66666700  0.33333300  0.93741397  1
  Re  Re0  1  0.33333300  0.66666700  0.43636005  1
  P  P0  1  0.00000000  0.00000000  0.00032094  1
loop_
_geom_bond_atom_site_label_1
_geom_bond_atom_site_label_2
_geom_bond_distance
_geom_bond_site_symmetry_2
Be0 Be2 2.174048 1_545
Be0 Be6 2.174050 1_555
Be0 Be3 2.174050 1_445
Be0 Be1 2.174583 1_445
Be0 Be4 2.174583 1_555
Be0 Be5 2.174586 1_455
Be0 V1 2.531560 1_455
Be0 V1 2.531563 1_445
Be0 V1 2.531564 1_555
Be0 Re0 2.532585 1_545
Be0 Re0 2.532588 1_555
Be0 Re0 2.532589 1_445
Be1 Be5 2.099742 1_555
Be1 Be4 2.099743 1_555
Be1 Be5 2.213383 1_565
Be1 Be4 2.213383 1_665
Be1 P0 2.243816 1_665
Be1 Re0 2.517263 1_555
Be1 Re0 2.517263 1_655
Be1 V1 2.525336 1_555
Be1 V0 2.574799 1_555
Be1 V0 2.574799 1_655
Be1 V2 2.597909 1_554
Be2 Be6 2.091948 1_555
Be2 Be3 2.091949 1_555
Be2 Be6 2.221177 1_565
Be2 Be3 2.221178 1_455
Be2 P0 2.248697 1_566
Be2 V1 2.518213 1_565
Be2 V1 2.518213 1_455
Be2 Re0 2.524688 1_555
Be2 V2 2.568064 1_565
Be2 V2 2.568064 1_455
Be2 V0 2.584770 1_556
Be3 Be6 2.091948 1_555
Be3 Be6 2.221178 1_665
Be3 P0 2.248700 1_666
Be3 V1 2.518209 1_565
Be3 V1 2.518216 1_555
Be3 Re0 2.524688 1_555
Be3 V2 2.568060 1_565
Be3 V2 2.568068 1_555
Be3 V0 2.584770 1_556
Be4 Be5 2.099743 1_555
Be4 Be5 2.213383 1_455
Be4 P0 2.243816 1_555
Be4 Re0 2.517262 1_545
Be4 Re0 2.517262 1_555
Be4 V1 2.525336 1_555
Be4 V0 2.574798 1_545
Be4 V0 2.574798 1_555
Be4 V2 2.597909 1_554
Be5 P0 2.243818 1_655
Be5 Re0 2.517263 1_545
Be5 Re0 2.517263 1_655
Be5 V1 2.525332 1_555
Be5 V0 2.574798 1_545
Be5 V0 2.574798 1_655
Be5 V2 2.597905 1_554
Be6 P0 2.248699 1_556
Be6 V1 2.518209 1_455
Be6 V1 2.518217 1_555
Be6 Re0 2.524688 1_555
Be6 V2 2.568061 1_455
Be6 V2 2.568068 1_555
Be6 V0 2.584770 1_556
V0 V2 2.644916 1_564
V0 V2 2.644916 1_454
V0 V2 2.644923 1_554
V1 V2 2.693551 1_555
Re0 V1 2.653774 1_565
Re0 V1 2.653775 1_455
Re0 V1 2.653781 1_555
Re0 V0 2.704311 1_555
P0 V0 2.528416 1_545
P0 V0 2.528420 1_555
P0 V0 2.528420 1_445
P0 V2 2.531112 1_454
P0 V2 2.531115 1_444
P0 V2 2.531116 1_554
