# generated using pymatgen
data_BeVIrOs
_symmetry_space_group_name_H-M   'P 1'
_cell_length_a   4.13011197
_cell_length_b   4.13011247
_cell_length_c   4.13011098
_cell_angle_alpha   60.00000408
_cell_angle_beta   60.00000011
_cell_angle_gamma   60.00000404
_symmetry_Int_Tables_number   1
_chemical_formula_structural   BeVIrOs
_chemical_formula_sum   'Be1 V1 Ir1 Os1'
_cell_volume   49.81618374
_cell_formula_units_Z   1
loop_
 _symmetry_equiv_pos_site_id
 _symmetry_equiv_pos_as_xyz
  1  'x, y, z'
loop_
 _atom_site_type_symbol
 _atom_site_label
 _atom_site_symmetry_multiplicity
 _atom_site_fract_x
 _atom_site_fract_y
 _atom_site_fract_z
 _atom_site_occupancy
  Be  Be0  1  0.50000000  0.50000000  0.50000000  1
  V  V0  1  0.00000000  0.00000000  0.00000000  1
  Ir  Ir0  1  0.25000000  0.25000000  0.25000000  1
  Os  Os0  1  0.75000000  0.75000000  0.75000000  1
loop_
_geom_bond_atom_site_label_1
_geom_bond_atom_site_label_2
_geom_bond_distance
_geom_bond_site_symmetry_2
Be0 Ir0 2.529166 1_556
Be0 Os0 2.529166 1_554
Be0 Ir0 2.529167 1_555
Be0 Os0 2.529167 1_555
Be0 Os0 2.529167 1_455
Be0 Ir0 2.529167 1_655
Be0 Os0 2.529167 1_545
Be0 Ir0 2.529167 1_565
Ir0 V0 2.529166 1_556
Ir0 V0 2.529167 1_555
Ir0 V0 2.529167 1_655
Ir0 V0 2.529167 1_565
Os0 V0 2.529166 1_665
Os0 V0 2.529167 1_666
Os0 V0 2.529167 1_566
Os0 V0 2.529167 1_656
