# generated using pymatgen
data_Hf16Re3Ni4Pd
_symmetry_space_group_name_H-M   'P 1'
_cell_length_a   8.60214624
_cell_length_b   8.60214595
_cell_length_c   8.60214660
_cell_angle_alpha   59.95594868
_cell_angle_beta   59.95595205
_cell_angle_gamma   59.95594540
_symmetry_Int_Tables_number   1
_chemical_formula_structural   Hf16Re3Ni4Pd
_chemical_formula_sum   'Hf16 Re3 Ni4 Pd1'
_cell_volume   449.64666874
_cell_formula_units_Z   1
loop_
 _symmetry_equiv_pos_site_id
 _symmetry_equiv_pos_as_xyz
  1  'x, y, z'
loop_
 _atom_site_type_symbol
 _atom_site_label
 _atom_site_symmetry_multiplicity
 _atom_site_fract_x
 _atom_site_fract_y
 _atom_site_fract_z
 _atom_site_occupancy
  Hf  Hf0  1  0.68695088  0.10362318  0.10362318  1
  Hf  Hf1  1  0.10362318  0.68695088  0.10362318  1
  Hf  Hf2  1  0.10362318  0.10362318  0.68695088  1
  Hf  Hf3  1  0.10304941  0.10304941  0.10304941  1
  Hf  Hf4  1  0.31556795  0.31556795  0.69269689  1
  Hf  Hf5  1  0.68612798  0.68612798  0.31466485  1
  Hf  Hf6  1  0.31556795  0.69269689  0.31556795  1
  Hf  Hf7  1  0.68612798  0.31466485  0.68612798  1
  Hf  Hf8  1  0.69269689  0.31556795  0.31556795  1
  Hf  Hf9  1  0.31466485  0.68612798  0.68612798  1
  Hf  Hf10  1  0.95381855  0.95381855  0.54591343  1
  Hf  Hf11  1  0.54954657  0.54954657  0.94683225  1
  Hf  Hf12  1  0.95381855  0.54591343  0.95381855  1
  Hf  Hf13  1  0.54954657  0.94683225  0.54954657  1
  Hf  Hf14  1  0.54591343  0.95381855  0.95381855  1
  Hf  Hf15  1  0.94683225  0.54954657  0.54954657  1
  Re  Re0  1  0.99728195  0.33254894  0.33254894  1
  Re  Re1  1  0.33254894  0.99728195  0.33254894  1
  Re  Re2  1  0.33254894  0.33254894  0.99728195  1
  Ni  Ni0  1  0.32393335  0.89063215  0.89063215  1
  Ni  Ni1  1  0.89063215  0.32393335  0.89063215  1
  Ni  Ni2  1  0.89063215  0.89063215  0.32393335  1
  Ni  Ni3  1  0.89250767  0.89250767  0.89250767  1
  Pd  Pd0  1  0.33243568  0.33243568  0.33243568  1
loop_
_geom_bond_atom_site_label_1
_geom_bond_atom_site_label_2
_geom_bond_distance
_geom_bond_site_symmetry_2
Hf0 Ni3 2.567913 1_544
Hf0 Ni2 2.579124 1_545
Hf0 Ni1 2.579124 1_554
Hf0 Pd0 2.984402 1_555
Hf0 Re2 2.997666 1_554
Hf0 Re1 2.997666 1_545
Hf0 Hf14 3.096272 1_544
Hf0 Hf5 3.110903 1_545
Hf0 Hf7 3.110903 1_554
Hf0 Hf11 3.131468 1_554
Hf0 Hf13 3.131468 1_545
Hf0 Hf8 3.187365 1_555
Hf1 Ni3 2.567913 1_454
Hf1 Ni2 2.579124 1_455
Hf1 Ni0 2.579124 1_554
Hf1 Pd0 2.984402 1_555
Hf1 Re2 2.997666 1_554
Hf1 Re0 2.997666 1_455
Hf1 Hf12 3.096272 1_454
Hf1 Hf5 3.110903 1_455
Hf1 Hf9 3.110903 1_554
Hf1 Hf11 3.131468 1_554
Hf1 Hf15 3.131468 1_455
Hf1 Hf6 3.187365 1_555
Hf2 Ni3 2.567913 1_445
Hf2 Ni0 2.579124 1_545
Hf2 Ni1 2.579124 1_455
Hf2 Pd0 2.984402 1_555
Hf2 Re0 2.997666 1_455
Hf2 Re1 2.997666 1_545
Hf2 Hf9 3.110903 1_545
Hf2 Hf7 3.110903 1_455
Hf2 Hf4 3.187365 1_555
Hf3 Ni1 2.584211 1_454
Hf3 Ni0 2.584211 1_544
Hf3 Ni2 2.584212 1_445
Hf3 Re1 2.987995 1_545
Hf3 Re0 2.987995 1_455
Hf3 Re2 2.987995 1_554
Hf3 Hf6 3.093120 1_545
Hf3 Hf8 3.093120 1_455
Hf3 Hf4 3.093120 1_554
Hf4 Re2 2.774050 1_555
Hf4 Pd0 2.960842 1_555
Hf4 Ni0 3.145323 1_545
Hf4 Ni1 3.145323 1_455
Hf4 Hf9 3.155852 1_555
Hf4 Hf7 3.155852 1_555
Hf4 Hf6 3.241958 1_555
Hf4 Hf8 3.241958 1_555
Hf5 Re0 2.868929 1_555
Hf5 Re1 2.868929 1_555
Hf5 Ni2 3.094423 1_555
Hf5 Ni3 3.120218 1_554
Hf5 Hf8 3.155852 1_555
Hf5 Hf6 3.155852 1_555
Hf5 Hf7 3.193252 1_555
Hf5 Hf9 3.193253 1_555
Hf6 Re1 2.774050 1_555
Hf6 Pd0 2.960842 1_555
Hf6 Ni2 3.145323 1_455
Hf6 Ni0 3.145323 1_554
Hf6 Hf9 3.155852 1_555
Hf6 Hf8 3.241958 1_555
Hf7 Re2 2.868929 1_555
Hf7 Re0 2.868929 1_555
Hf7 Ni1 3.094423 1_555
Hf7 Ni3 3.120218 1_545
Hf7 Hf8 3.155852 1_555
Hf7 Hf9 3.193252 1_555
Hf8 Re0 2.774050 1_555
Hf8 Pd0 2.960842 1_555
Hf8 Ni2 3.145323 1_545
Hf8 Ni1 3.145324 1_554
Hf9 Re2 2.868929 1_555
Hf9 Re1 2.868929 1_555
Hf9 Ni0 3.094423 1_555
Hf9 Ni3 3.120218 1_455
Hf10 Ni3 2.564148 1_555
Hf10 Ni2 2.571274 1_555
Hf10 Re0 2.944045 1_565
Hf10 Re1 2.944045 1_655
Hf10 Hf2 3.096272 1_665
Hf10 Hf3 3.108862 1_665
Hf10 Hf8 3.152541 1_565
Hf10 Hf6 3.152541 1_655
Hf10 Hf9 3.194210 1_655
Hf10 Hf7 3.194210 1_565
Hf11 Ni0 2.535008 1_555
Hf11 Ni1 2.535008 1_555
Hf11 Re2 3.003956 1_555
Hf11 Pd0 3.010799 1_556
Hf11 Hf9 3.164478 1_555
Hf11 Hf7 3.164478 1_555
Hf11 Hf8 3.265748 1_556
Hf11 Hf6 3.265748 1_556
Hf12 Ni3 2.564147 1_555
Hf12 Ni1 2.571274 1_555
Hf12 Re2 2.944045 1_655
Hf12 Re0 2.944045 1_556
Hf12 Hf3 3.108861 1_656
Hf12 Hf4 3.152541 1_655
Hf12 Hf8 3.152541 1_556
Hf12 Hf5 3.194210 1_556
Hf12 Hf9 3.194210 1_655
Hf13 Ni2 2.535009 1_555
Hf13 Ni0 2.535009 1_555
Hf13 Re1 3.003956 1_555
Hf13 Pd0 3.010798 1_565
Hf13 Hf2 3.131468 1_565
Hf13 Hf5 3.164478 1_555
Hf13 Hf9 3.164478 1_555
Hf13 Hf4 3.265748 1_565
Hf13 Hf8 3.265748 1_565
Hf14 Ni3 2.564148 1_555
Hf14 Ni0 2.571274 1_555
Hf14 Re2 2.944045 1_565
Hf14 Re1 2.944045 1_556
Hf14 Hf3 3.108861 1_566
Hf14 Hf4 3.152541 1_565
Hf14 Hf6 3.152541 1_556
Hf14 Hf5 3.194210 1_556
Hf14 Hf7 3.194210 1_565
Hf15 Ni2 2.535008 1_555
Hf15 Ni1 2.535009 1_555
Hf15 Re0 3.003956 1_555
Hf15 Pd0 3.010799 1_655
Hf15 Hf2 3.131468 1_655
Hf15 Hf5 3.164478 1_555
Hf15 Hf7 3.164478 1_555
Hf15 Hf4 3.265748 1_655
Hf15 Hf6 3.265748 1_655
Re0 Re1 2.882095 1_645
Re0 Re2 2.882095 1_654
Re1 Re2 2.882095 1_564
Pd0 Re1 2.882066 1_545
Pd0 Re0 2.882066 1_455
Pd0 Re2 2.882066 1_554
