# generated using pymatgen
data_Sc8Al14SnRh7
_symmetry_space_group_name_H-M   'P 1'
_cell_length_a   8.87677318
_cell_length_b   8.87677310
_cell_length_c   8.87677211
_cell_angle_alpha   120.05941484
_cell_angle_beta   119.98302369
_cell_angle_gamma   89.96326863
_symmetry_Int_Tables_number   1
_chemical_formula_structural   Sc8Al14SnRh7
_chemical_formula_sum   'Sc8 Al14 Sn1 Rh7'
_cell_volume   494.43663861
_cell_formula_units_Z   1
loop_
 _symmetry_equiv_pos_site_id
 _symmetry_equiv_pos_as_xyz
  1  'x, y, z'
loop_
 _atom_site_type_symbol
 _atom_site_label
 _atom_site_symmetry_multiplicity
 _atom_site_fract_x
 _atom_site_fract_y
 _atom_site_fract_z
 _atom_site_occupancy
  Sc  Sc0  1  0.78867576  0.28163951  0.05952891  1
  Sc  Sc1  1  0.22211059  0.28163951  0.49296374  1
  Sc  Sc2  1  0.21215006  0.71215006  0.50000000  1
  Sc  Sc3  1  0.22211059  0.72914685  0.94047109  1
  Sc  Sc4  1  0.78867576  0.72914685  0.50703626  1
  Sc  Sc5  1  0.77111951  0.27111951  0.50000000  1
  Sc  Sc6  1  0.37963211  0.12014158  0.74050947  1
  Sc  Sc7  1  0.37963211  0.63912164  0.25949053  1
  Al  Al0  1  0.16320135  0.33231671  0.16911436  1
  Al  Al1  1  0.16320135  0.99408599  0.83088564  1
  Al  Al2  1  0.15636731  0.33857556  0.81779175  1
  Al  Al3  1  0.52078481  0.33857556  0.18220825  1
  Al  Al4  1  0.83562598  0.66174957  0.82612259  1
  Al  Al5  1  0.83562598  0.00950338  0.17387741  1
  Al  Al6  1  0.83332776  0.66397286  0.16935591  1
  Al  Al7  1  0.49461695  0.66397286  0.83064409  1
  Al  Al8  1  0.37947817  0.12307459  0.25640458  1
  Al  Al9  1  0.86667100  0.12307459  0.74359542  1
  Al  Al10  1  0.62194248  0.87487856  0.25293708  1
  Al  Al11  1  0.62194248  0.36900440  0.74706292  1
  Al  Al12  1  0.62219422  0.87670307  0.74549015  1
  Al  Al13  1  0.13121292  0.87670307  0.25450985  1
  Sn  Sn0  1  0.99108129  0.49108129  0.50000000  1
  Rh  Rh0  1  0.99523168  0.99868200  0.49901053  1
  Rh  Rh1  1  0.49967146  0.99868200  0.00345032  1
  Rh  Rh2  1  0.50084627  0.50084627  1.00000000  1
  Rh  Rh3  1  0.49967146  0.49622215  0.50098947  1
  Rh  Rh4  1  0.99523168  0.49622215  0.99654968  1
  Rh  Rh5  1  0.00044009  0.00044009  1.00000000  1
  Rh  Rh6  1  0.50752579  0.00752579  0.50000000  1
loop_
_geom_bond_atom_site_label_1
_geom_bond_atom_site_label_2
_geom_bond_distance
_geom_bond_site_symmetry_2
Sc0 Sn0 2.770012 1_555
Sc0 Sc6 2.986833 1_554
Sc1 Sn0 2.770012 1_455
Sc1 Sc6 2.986833 1_555
Sc2 Sn0 2.776110 1_455
Sc2 Sc7 2.995530 1_555
Sc2 Sc6 2.995531 1_565
Sc3 Sn0 2.770012 1_455
Sc3 Sc7 2.986839 1_556
Sc4 Sn0 2.770012 1_555
Sc4 Sc7 2.986832 1_555
Sc5 Sn0 2.762209 1_555
Al0 Rh5 2.535173 1_554
Al0 Rh3 2.575586 1_555
Al0 Rh4 2.575586 1_454
Al0 Sc7 2.833579 1_555
Al1 Rh5 2.535163 1_565
Al1 Rh1 2.575584 1_556
Al1 Rh0 2.575591 1_455
Al1 Sc6 2.833598 1_565
Al2 Rh0 2.561947 1_445
Al2 Rh4 2.561949 1_455
Al2 Rh2 2.601882 1_555
Al2 Sc7 2.859982 1_556
Al2 Sc6 2.859985 1_555
Al3 Rh1 2.561945 1_545
Al3 Rh3 2.561952 1_555
Al3 Rh2 2.601880 1_554
Al3 Sc6 2.859982 1_554
Al3 Sc7 2.859983 1_555
Al4 Rh3 2.556736 1_555
Al4 Rh4 2.556737 1_555
Al4 Rh5 2.581001 1_665
Al5 Rh0 2.556736 1_545
Al5 Rh1 2.556737 1_545
Al5 Rh5 2.581009 1_654
Al6 Rh2 2.541151 1_554
Al6 Rh0 2.558963 1_555
Al6 Rh4 2.558969 1_554
Al7 Rh2 2.541159 1_555
Al7 Rh3 2.558963 1_555
Al7 Rh1 2.558963 1_556
Al8 Rh6 2.604533 1_555
Al8 Rh1 2.703444 1_545
Al8 Rh3 2.703444 1_555
Al8 Rh5 2.748566 1_554
Al8 Sc5 2.852090 1_555
Al8 Sc1 2.882778 1_555
Al8 Sc3 2.882785 1_544
Al9 Rh6 2.604540 1_555
Al9 Rh0 2.703430 1_545
Al9 Rh4 2.703444 1_555
Al9 Rh5 2.748573 1_655
Al9 Sc5 2.852081 1_555
Al9 Sc4 2.882784 1_545
Al9 Sc0 2.882792 1_556
Al10 Rh6 2.620222 1_565
Al10 Rh0 2.706392 1_555
Al10 Rh1 2.706399 1_555
Al10 Rh2 2.710095 1_554
Al10 Sc7 3.043410 1_555
Al11 Rh6 2.620214 1_555
Al11 Rh4 2.706392 1_555
Al11 Rh3 2.706407 1_555
Al11 Rh2 2.710102 1_555
Al11 Sc6 3.043404 1_555
Al12 Rh6 2.729480 1_565
Al12 Rh5 2.742468 1_665
Al12 Rh3 2.757256 1_555
Al12 Rh1 2.757271 1_556
Al12 Sc7 3.049975 1_555
Al12 Sc6 3.049982 1_565
Al13 Rh6 2.729481 1_565
Al13 Rh5 2.742475 1_564
Al13 Rh4 2.757257 1_454
Al13 Rh0 2.757264 1_455
Al13 Sc6 3.049975 1_565
Al13 Sc7 3.049982 1_555
Rh0 Sc6 2.789173 1_665
Rh0 Sc4 3.065693 1_555
Rh0 Sc5 3.129900 1_565
Rh0 Sc2 3.190023 1_655
Rh0 Sc1 3.258430 1_665
Rh1 Sc6 2.789172 1_564
Rh1 Sc3 3.065693 1_554
Rh1 Sc5 3.129899 1_565
Rh1 Sc2 3.190022 1_554
Rh1 Sc0 3.258430 1_565
Rh2 Sc7 2.759220 1_556
Rh2 Sc6 2.759220 1_555
Rh3 Sc7 2.789158 1_555
Rh3 Sc1 3.065698 1_555
Rh3 Sc5 3.129905 1_555
Rh3 Sc2 3.190017 1_555
Rh3 Sc4 3.258424 1_555
Rh4 Sc7 2.789172 1_656
Rh4 Sc0 3.065699 1_556
Rh4 Sc5 3.129898 1_555
Rh4 Sc2 3.190023 1_656
Rh4 Sc3 3.258424 1_655
Rh5 Sc4 3.115919 1_445
Rh5 Sc1 3.115920 1_556
Rh5 Sc0 3.115920 1_456
Rh5 Sc3 3.115920 1_545
Rh6 Sc6 2.670057 1_555
Rh6 Sc7 2.670065 1_545
