# generated using pymatgen
data_NbGaI8
_symmetry_space_group_name_H-M   'P 1'
_cell_length_a   10.95574295
_cell_length_b   10.95574288
_cell_length_c   9.44000145
_cell_angle_alpha   90.00000000
_cell_angle_beta   90.00000000
_cell_angle_gamma   129.02292669
_symmetry_Int_Tables_number   1
_chemical_formula_structural   NbGaI8
_chemical_formula_sum   'Nb2 Ga2 I16'
_cell_volume   880.27331735
_cell_formula_units_Z   2
loop_
 _symmetry_equiv_pos_site_id
 _symmetry_equiv_pos_as_xyz
  1  'x, y, z'
loop_
 _atom_site_type_symbol
 _atom_site_label
 _atom_site_symmetry_multiplicity
 _atom_site_fract_x
 _atom_site_fract_y
 _atom_site_fract_z
 _atom_site_occupancy
  Nb  Nb0  1  0.60985941  0.39014059  0.25000000  1
  Nb  Nb1  1  0.39014059  0.60985941  0.75000000  1
  Ga  Ga0  1  0.81469091  0.18530909  0.25000000  1
  Ga  Ga1  1  0.18530909  0.81469091  0.75000000  1
  I  I0  1  0.51737884  0.05906201  0.25000000  1
  I  I1  1  0.05906201  0.51737884  0.75000000  1
  I  I2  1  0.48262116  0.94093799  0.75000000  1
  I  I3  1  0.94093799  0.48262116  0.25000000  1
  I  I4  1  0.63214874  0.36785126  0.96683398  1
  I  I5  1  0.36785126  0.63214874  0.03316602  1
  I  I6  1  0.63214874  0.36785126  0.53316602  1
  I  I7  1  0.36785126  0.63214874  0.46683398  1
  I  I8  1  0.31025832  0.25925486  0.25000000  1
  I  I9  1  0.25925486  0.31025832  0.75000000  1
  I  I10  1  0.68974168  0.74074514  0.75000000  1
  I  I11  1  0.74074514  0.68974168  0.25000000  1
  I  I12  1  0.88550287  0.11449713  0.47220107  1
  I  I13  1  0.11449713  0.88550287  0.52779893  1
  I  I14  1  0.88550287  0.11449713  0.02779893  1
  I  I15  1  0.11449713  0.88550287  0.97220107  1
loop_
_geom_bond_atom_site_label_1
_geom_bond_atom_site_label_2
_geom_bond_distance
_geom_bond_site_symmetry_2
Ga0 I12 2.522194 1_555
Ga0 I14 2.522194 1_555
Ga0 I3 2.617177 1_555
Ga0 I0 2.617177 1_555
Ga1 I15 2.522194 1_555
Ga1 I13 2.522194 1_555
Ga1 I1 2.617177 1_555
Ga1 I2 2.617177 1_555
I0 Nb0 3.091173 1_555
I1 Nb1 3.091173 1_555
I2 Nb1 3.091173 1_555
I3 Nb0 3.091173 1_555
I4 Nb0 2.709198 1_556
I5 Nb1 2.709198 1_554
I6 Nb0 2.709198 1_555
I7 Nb1 2.709198 1_555
I8 Nb0 2.627364 1_555
I9 Nb1 2.627364 1_555
I10 Nb1 2.627364 1_555
I11 Nb0 2.627364 1_555
