# generated using pymatgen
data_Zr3Al2RhC
_symmetry_space_group_name_H-M   'P 1'
_cell_length_a   8.64187992
_cell_length_b   8.64187993
_cell_length_c   8.64187998
_cell_angle_alpha   59.99999604
_cell_angle_beta   59.99999598
_cell_angle_gamma   59.99999299
_symmetry_Int_Tables_number   1
_chemical_formula_structural   Zr3Al2RhC
_chemical_formula_sum   'Zr12 Al8 Rh4 C4'
_cell_volume   456.36217215
_cell_formula_units_Z   4
loop_
 _symmetry_equiv_pos_site_id
 _symmetry_equiv_pos_as_xyz
  1  'x, y, z'
loop_
 _atom_site_type_symbol
 _atom_site_label
 _atom_site_symmetry_multiplicity
 _atom_site_fract_x
 _atom_site_fract_y
 _atom_site_fract_z
 _atom_site_occupancy
  Zr  Zr0  1  0.94226473  0.94226473  0.55773527  1
  Zr  Zr1  1  0.69226473  0.30773527  0.30773527  1
  Zr  Zr2  1  0.30773527  0.69226473  0.69226473  1
  Zr  Zr3  1  0.69226473  0.69226473  0.30773527  1
  Zr  Zr4  1  0.69226473  0.30773527  0.69226473  1
  Zr  Zr5  1  0.30773527  0.69226473  0.30773527  1
  Zr  Zr6  1  0.55773527  0.94226473  0.55773527  1
  Zr  Zr7  1  0.55773527  0.94226473  0.94226473  1
  Zr  Zr8  1  0.94226473  0.55773527  0.55773527  1
  Zr  Zr9  1  0.94226473  0.55773527  0.94226473  1
  Zr  Zr10  1  0.30773527  0.30773527  0.69226473  1
  Zr  Zr11  1  0.55773527  0.55773527  0.94226473  1
  Al  Al0  1  0.92047969  0.23856093  0.92047969  1
  Al  Al1  1  0.32952031  0.32952031  0.01143907  1
  Al  Al2  1  0.01143907  0.32952031  0.32952031  1
  Al  Al3  1  0.32952031  0.32952031  0.32952031  1
  Al  Al4  1  0.23856093  0.92047969  0.92047969  1
  Al  Al5  1  0.92047969  0.92047969  0.92047969  1
  Al  Al6  1  0.92047969  0.92047969  0.23856093  1
  Al  Al7  1  0.32952031  0.01143907  0.32952031  1
  Rh  Rh0  1  0.12500000  0.62500000  0.12500000  1
  Rh  Rh1  1  0.12500000  0.12500000  0.62500000  1
  Rh  Rh2  1  0.62500000  0.12500000  0.12500000  1
  Rh  Rh3  1  0.12500000  0.12500000  0.12500000  1
  C  C0  1  0.62500000  0.12500000  0.62500000  1
  C  C1  1  0.62500000  0.62500000  0.12500000  1
  C  C2  1  0.12500000  0.62500000  0.62500000  1
  C  C3  1  0.62500000  0.62500000  0.62500000  1
loop_
_geom_bond_atom_site_label_1
_geom_bond_atom_site_label_2
_geom_bond_distance
_geom_bond_site_symmetry_2
Al0 Rh1 2.620225 1_655
Al0 Rh2 2.620225 1_556
Al0 Rh3 2.620225 1_656
Al0 Al4 2.748820 1_645
Al0 Al6 2.748820 1_546
Al0 Al5 2.748820 1_545
Al0 Zr11 2.958534 1_555
Al0 Zr8 2.958534 1_555
Al0 Zr9 2.958534 1_555
Al0 Zr1 3.109372 1_556
Al0 Zr10 3.109372 1_655
Al0 Zr4 3.109373 1_555
Al1 Rh2 2.620225 1_555
Al1 Rh0 2.620225 1_555
Al1 Rh3 2.620225 1_555
Al1 Al2 2.748820 1_555
Al1 Al7 2.748820 1_555
Al1 Al3 2.748820 1_555
Al1 Zr4 2.958534 1_554
Al1 Zr2 2.958534 1_554
Al1 Zr10 2.958534 1_554
Al1 Zr9 3.109372 1_454
Al1 Zr7 3.109372 1_544
Al1 Zr11 3.109373 1_554
Al2 Rh1 2.620225 1_555
Al2 Rh0 2.620225 1_555
Al2 Rh3 2.620225 1_555
Al2 Al7 2.748820 1_555
Al2 Al3 2.748820 1_555
Al2 Zr3 2.958534 1_455
Al2 Zr4 2.958534 1_455
Al2 Zr1 2.958534 1_455
Al2 Zr9 3.109372 1_454
Al2 Zr0 3.109373 1_445
Al2 Zr8 3.109373 1_455
Al3 Rh2 2.620225 1_555
Al3 Rh0 2.620225 1_555
Al3 Rh1 2.620225 1_555
Al3 Al7 2.748820 1_555
Al3 Zr1 2.958534 1_555
Al3 Zr5 2.958534 1_555
Al3 Zr10 2.958534 1_555
Al3 Zr8 3.109372 1_455
Al3 Zr6 3.109372 1_545
Al3 Zr11 3.109372 1_554
Al4 Rh1 2.620225 1_565
Al4 Rh0 2.620225 1_556
Al4 Rh3 2.620225 1_566
Al4 Al6 2.748820 1_456
Al4 Al5 2.748820 1_455
Al4 Zr11 2.958534 1_555
Al4 Zr6 2.958534 1_555
Al4 Zr7 2.958534 1_555
Al4 Zr5 3.109372 1_556
Al4 Zr10 3.109373 1_565
Al4 Zr2 3.109373 1_555
Al5 Rh2 2.620225 1_566
Al5 Rh0 2.620225 1_656
Al5 Rh1 2.620225 1_665
Al5 Al6 2.748820 1_556
Al5 Zr7 2.958534 1_555
Al5 Zr9 2.958534 1_555
Al5 Zr0 2.958534 1_555
Al5 Zr2 3.109372 1_655
Al5 Zr4 3.109372 1_565
Al5 Zr3 3.109372 1_556
Al6 Rh2 2.620225 1_565
Al6 Rh0 2.620225 1_655
Al6 Rh3 2.620225 1_665
Al6 Zr6 2.958534 1_555
Al6 Zr8 2.958534 1_555
Al6 Zr0 2.958534 1_555
Al6 Zr5 3.109372 1_655
Al6 Zr1 3.109372 1_565
Al6 Zr3 3.109373 1_555
Al7 Rh1 2.620225 1_555
Al7 Rh2 2.620225 1_555
Al7 Rh3 2.620225 1_555
Al7 Zr3 2.958534 1_545
Al7 Zr2 2.958534 1_545
Al7 Zr5 2.958534 1_545
Al7 Zr7 3.109372 1_544
Al7 Zr0 3.109372 1_445
Al7 Zr6 3.109373 1_545
Rh0 Zr11 3.107286 1_554
Rh0 Zr3 3.107286 1_455
Rh0 Zr8 3.107286 1_455
Rh0 Zr2 3.107286 1_554
Rh0 Zr5 3.107286 1_555
Rh0 Zr9 3.107286 1_454
Rh1 Zr6 3.107286 1_545
Rh1 Zr4 3.107286 1_455
Rh1 Zr8 3.107286 1_455
Rh1 Zr2 3.107286 1_545
Rh1 Zr10 3.107286 1_555
Rh1 Zr0 3.107286 1_445
Rh2 Zr11 3.107286 1_554
Rh2 Zr3 3.107286 1_545
Rh2 Zr6 3.107286 1_545
Rh2 Zr4 3.107286 1_554
Rh2 Zr1 3.107286 1_555
Rh2 Zr7 3.107286 1_544
Rh3 Zr7 3.107286 1_544
Rh3 Zr1 3.107286 1_455
Rh3 Zr9 3.107286 1_454
Rh3 Zr5 3.107286 1_545
Rh3 Zr10 3.107286 1_554
Rh3 Zr0 3.107286 1_445
C0 Zr0 2.311587 1_545
C0 Zr10 2.311587 1_555
C0 Zr7 2.311587 1_545
C0 Zr1 2.311587 1_555
C0 Zr4 2.311587 1_555
C0 Zr6 2.311587 1_545
C1 Zr9 2.311587 1_554
C1 Zr5 2.311587 1_555
C1 Zr7 2.311587 1_554
C1 Zr1 2.311587 1_555
C1 Zr3 2.311587 1_555
C1 Zr11 2.311587 1_554
C2 Zr0 2.311587 1_455
C2 Zr10 2.311587 1_555
C2 Zr5 2.311587 1_555
C2 Zr9 2.311587 1_455
C2 Zr2 2.311587 1_555
C2 Zr8 2.311587 1_455
C3 Zr8 2.311587 1_555
C3 Zr2 2.311587 1_555
C3 Zr6 2.311587 1_555
C3 Zr4 2.311587 1_555
C3 Zr11 2.311587 1_555
C3 Zr3 2.311587 1_555
