# generated using pymatgen
data_NaB2SbO6
_symmetry_space_group_name_H-M   'P 1'
_cell_length_a   5.99472817
_cell_length_b   5.99472855
_cell_length_c   5.99472885
_cell_angle_alpha   47.22457169
_cell_angle_beta   47.22456484
_cell_angle_gamma   47.22457314
_symmetry_Int_Tables_number   1
_chemical_formula_structural   NaB2SbO6
_chemical_formula_sum   'Na1 B2 Sb1 O6'
_cell_volume   106.15427635
_cell_formula_units_Z   1
loop_
 _symmetry_equiv_pos_site_id
 _symmetry_equiv_pos_as_xyz
  1  'x, y, z'
loop_
 _atom_site_type_symbol
 _atom_site_label
 _atom_site_symmetry_multiplicity
 _atom_site_fract_x
 _atom_site_fract_y
 _atom_site_fract_z
 _atom_site_occupancy
  Na  Na0  1  0.00000000  0.00000000  0.00000000  1
  B  B0  1  0.23658864  0.23658864  0.23658864  1
  B  B1  1  0.76341136  0.76341136  0.76341136  1
  Sb  Sb0  1  0.50000000  0.50000000  0.50000000  1
  O  O0  1  0.49479642  0.72418626  0.06441683  1
  O  O1  1  0.93558317  0.50520358  0.27581374  1
  O  O2  1  0.72418626  0.06441683  0.49479642  1
  O  O3  1  0.27581374  0.93558317  0.50520358  1
  O  O4  1  0.06441683  0.49479642  0.72418626  1
  O  O5  1  0.50520358  0.27581374  0.93558317  1
loop_
_geom_bond_atom_site_label_1
_geom_bond_atom_site_label_2
_geom_bond_distance
_geom_bond_site_symmetry_2
Na0 O0 2.389205 1_545
Na0 O5 2.389205 1_454
Na0 O4 2.389205 1_554
Na0 O1 2.389205 1_445
Na0 O2 2.389205 1_455
Na0 O3 2.389205 1_544
B0 O5 1.376834 1_554
B0 O1 1.376834 1_455
B0 O3 1.376834 1_545
B1 O0 1.376834 1_556
B1 O4 1.376834 1_655
B1 O2 1.376834 1_565
O0 Sb0 1.978057 1_555
O1 Sb0 1.978056 1_555
O2 Sb0 1.978057 1_555
O3 Sb0 1.978057 1_555
O4 Sb0 1.978056 1_555
O5 Sb0 1.978057 1_555
