# generated using pymatgen
data_Hf10Sn5B2Pb
_symmetry_space_group_name_H-M   'P 1'
_cell_length_a   5.74957171
_cell_length_b   8.46963216
_cell_length_c   8.44541771
_cell_angle_alpha   120.09485270
_cell_angle_beta   90.00000000
_cell_angle_gamma   90.00000000
_symmetry_Int_Tables_number   1
_chemical_formula_structural   Hf10Sn5B2Pb
_chemical_formula_sum   'Hf10 Sn5 B2 Pb1'
_cell_volume   355.82455788
_cell_formula_units_Z   1
loop_
 _symmetry_equiv_pos_site_id
 _symmetry_equiv_pos_as_xyz
  1  'x, y, z'
loop_
 _atom_site_type_symbol
 _atom_site_label
 _atom_site_symmetry_multiplicity
 _atom_site_fract_x
 _atom_site_fract_y
 _atom_site_fract_z
 _atom_site_occupancy
  Hf  Hf0  1  0.25000000  0.22596875  0.00000000  1
  Hf  Hf1  1  0.74999900  0.77368879  1.00000000  1
  Hf  Hf2  1  0.75000000  0.22626585  0.22987286  1
  Hf  Hf3  1  0.25000000  0.00045554  0.22870576  1
  Hf  Hf4  1  0.00118422  0.66890217  0.33571233  1
  Hf  Hf5  1  0.49881478  0.66890217  0.33571233  1
  Hf  Hf6  1  0.00118422  0.33318984  0.66428667  1
  Hf  Hf7  1  0.49881478  0.33319084  0.66428767  1
  Hf  Hf8  1  0.25000100  0.77174978  0.77129424  1
  Hf  Hf9  1  0.74999900  0.99639299  0.77012814  1
  Sn  Sn0  1  0.24999800  0.60146188  1.00000000  1
  Sn  Sn1  1  0.25000100  0.40034998  0.39873501  1
  Sn  Sn2  1  0.74999900  0.99959643  0.40025988  1
  Sn  Sn3  1  0.75000000  0.59933655  0.59974012  1
  Sn  Sn4  1  0.24999800  0.00161597  0.60126599  1
  B  B0  1  0.99978198  0.00026504  0.00000000  1
  B  B1  1  0.50021702  0.00026504  0.00000000  1
  Pb  Pb0  1  0.74999900  0.39840039  0.00000000  1
loop_
_geom_bond_atom_site_label_1
_geom_bond_atom_site_label_2
_geom_bond_distance
_geom_bond_site_symmetry_2
Hf0 Sn4 2.921203 1_554
Hf0 Sn1 2.921210 1_555
Hf0 Sn0 3.180289 1_554
Hf0 Pb0 3.224473 1_555
Hf0 Pb0 3.224483 1_455
Hf1 Sn3 2.932815 1_555
Hf1 Sn2 2.932815 1_556
Hf1 Pb0 3.178555 1_556
Hf1 Sn0 3.223688 1_655
Hf1 Sn0 3.223698 1_555
Hf2 Sn2 2.920077 1_545
Hf2 Pb0 2.955151 1_555
Hf2 Sn3 3.137378 1_555
Hf2 Sn1 3.219219 1_555
Hf2 Sn1 3.219229 1_655
Hf3 Sn0 2.933375 1_544
Hf3 Sn1 2.942106 1_555
Hf3 Sn4 3.141510 1_555
Hf3 Sn2 3.220891 1_545
Hf3 Sn2 3.220902 1_445
Hf4 Sn4 2.946052 1_565
Hf4 Sn2 2.948983 1_455
Hf4 Sn1 2.952542 1_555
Hf4 Sn3 2.953398 1_455
Hf4 Sn0 2.964325 1_554
Hf4 Pb0 2.976392 1_455
Hf5 Sn4 2.946060 1_565
Hf5 Sn2 2.948980 1_555
Hf5 Sn1 2.952534 1_555
Hf5 Sn3 2.953400 1_555
Hf5 Sn0 2.964334 1_554
Hf5 Pb0 2.976389 1_555
Hf6 Sn1 2.946044 1_555
Hf6 Sn3 2.948975 1_455
Hf6 Sn4 2.952532 1_555
Hf6 Sn2 2.953399 1_445
Hf6 Sn0 2.964331 1_555
Hf6 Pb0 2.976398 1_456
Hf7 Sn1 2.946038 1_555
Hf7 Sn3 2.948975 1_555
Hf7 Sn4 2.952545 1_555
Hf7 Sn2 2.953404 1_545
Hf7 Sn0 2.964332 1_555
Hf7 Pb0 2.976390 1_556
Hf8 Sn0 2.933373 1_555
Hf8 Sn4 2.942106 1_565
Hf8 Sn1 3.141508 1_555
Hf8 Sn3 3.220892 1_555
Hf8 Sn3 3.220902 1_455
Hf9 Sn3 2.920077 1_555
Hf9 Pb0 2.955152 1_566
Hf9 Sn2 3.137385 1_555
Hf9 Sn4 3.219220 1_665
Hf9 Sn4 3.219230 1_565
B0 Hf0 2.392493 1_655
B0 Hf1 2.396902 1_544
B0 Hf9 2.401798 1_544
B0 Hf2 2.401802 1_555
B0 Hf3 2.407765 1_655
B0 Hf8 2.407770 1_644
B1 Hf0 2.392490 1_555
B1 Hf1 2.396899 1_544
B1 Hf9 2.401794 1_544
B1 Hf2 2.401805 1_555
B1 Hf8 2.407759 1_544
B1 Hf3 2.407762 1_555
Pb0 Sn0 3.349965 1_654
Pb0 Sn0 3.349975 1_554
