# generated using pymatgen
data_Rb2VMoN4
_symmetry_space_group_name_H-M   'P 1'
_cell_length_a   5.91493536
_cell_length_b   5.91493546
_cell_length_c   5.91493567
_cell_angle_alpha   120.30095223
_cell_angle_beta   120.30095466
_cell_angle_gamma   89.47951550
_symmetry_Int_Tables_number   1
_chemical_formula_structural   Rb2VMoN4
_chemical_formula_sum   'Rb2 V1 Mo1 N4'
_cell_volume   145.65840777
_cell_formula_units_Z   1
loop_
 _symmetry_equiv_pos_site_id
 _symmetry_equiv_pos_as_xyz
  1  'x, y, z'
loop_
 _atom_site_type_symbol
 _atom_site_label
 _atom_site_symmetry_multiplicity
 _atom_site_fract_x
 _atom_site_fract_y
 _atom_site_fract_z
 _atom_site_occupancy
  Rb  Rb0  1  0.25000000  0.75000000  0.50000000  1
  Rb  Rb1  1  0.50000000  0.50000000  0.00000000  1
  V  V0  1  0.00000000  0.00000000  0.00000000  1
  Mo  Mo0  1  0.75000000  0.25000000  0.50000000  1
  N  N0  1  0.81512030  0.12426447  0.18667129  1
  N  N1  1  0.93759319  0.62845001  0.81332871  1
  N  N2  1  0.37154999  0.18487970  0.30914318  1
  N  N3  1  0.87573553  0.06240681  0.69085682  1
loop_
_geom_bond_atom_site_label_1
_geom_bond_atom_site_label_2
_geom_bond_distance
_geom_bond_site_symmetry_2
Mo0 N0 1.860256 1_555
Mo0 N3 1.860260 1_555
Mo0 N1 1.860260 1_555
Mo0 N2 1.860261 1_555
N0 V0 1.827599 1_655
N0 Rb0 3.151538 1_544
N0 Rb1 3.155444 1_555
N0 Rb0 3.491536 1_655
N0 Rb1 3.501712 1_545
N1 V0 1.827594 1_666
N1 Rb0 3.151541 1_656
N1 Rb1 3.155447 1_656
N1 Rb0 3.491533 1_655
N1 Rb1 3.501714 1_556
N2 V0 1.827594 1_555
N2 Rb0 3.151535 1_555
N2 Rb1 3.155447 1_556
N2 Rb0 3.491539 1_545
N2 Rb1 3.501709 1_555
N3 V0 1.827593 1_656
N3 Rb0 3.151541 1_645
N3 Rb1 3.155447 1_545
N3 Rb0 3.491533 1_545
N3 Rb1 3.501714 1_656
