# generated using pymatgen
data_CsScBeSe3
_symmetry_space_group_name_H-M   'P 1'
_cell_length_a   8.25948160
_cell_length_b   8.25948130
_cell_length_c   10.36321098
_cell_angle_alpha   90.00000000
_cell_angle_beta   90.00000000
_cell_angle_gamma   152.71986973
_symmetry_Int_Tables_number   1
_chemical_formula_structural   CsScBeSe3
_chemical_formula_sum   'Cs2 Sc2 Be2 Se6'
_cell_volume   324.03278607
_cell_formula_units_Z   2
loop_
 _symmetry_equiv_pos_site_id
 _symmetry_equiv_pos_as_xyz
  1  'x, y, z'
loop_
 _atom_site_type_symbol
 _atom_site_label
 _atom_site_symmetry_multiplicity
 _atom_site_fract_x
 _atom_site_fract_y
 _atom_site_fract_z
 _atom_site_occupancy
  Cs  Cs0  1  0.76038347  0.23961653  0.25000000  1
  Cs  Cs1  1  0.23961653  0.76038347  0.75000000  1
  Sc  Sc0  1  0.50000000  0.50000000  0.00000000  1
  Sc  Sc1  1  0.50000000  0.50000000  0.50000000  1
  Be  Be0  1  0.03573446  0.96426554  0.25000000  1
  Be  Be1  1  0.96426554  0.03573446  0.75000000  1
  Se  Se0  1  0.10892087  0.89107813  0.06682169  1
  Se  Se1  1  0.45125338  0.54874662  0.25000000  1
  Se  Se2  1  0.10892087  0.89107813  0.43317831  1
  Se  Se3  1  0.89107813  0.10892087  0.56682169  1
  Se  Se4  1  0.54874662  0.45125338  0.75000000  1
  Se  Se5  1  0.89107813  0.10892087  0.93317731  1
loop_
_geom_bond_atom_site_label_1
_geom_bond_atom_site_label_2
_geom_bond_distance
_geom_bond_site_symmetry_2
Cs0 Se1 3.630727 1_545
Cs0 Se1 3.630727 1_655
Cs0 Se2 3.648183 1_655
Cs0 Se0 3.648183 1_655
Cs0 Se2 3.648185 1_545
Cs0 Se0 3.648185 1_545
Cs0 Se3 3.896388 1_555
Cs0 Se5 3.896397 1_554
Cs1 Se4 3.630727 1_565
Cs1 Se4 3.630727 1_455
Cs1 Se5 3.648178 1_565
Cs1 Se5 3.648180 1_455
Cs1 Se3 3.648183 1_565
Cs1 Se3 3.648185 1_455
Cs1 Se0 3.896388 1_556
Cs1 Se2 3.896388 1_555
Sc0 Se1 2.706403 1_555
Sc0 Se4 2.706403 1_554
Sc0 Se0 2.707517 1_655
Sc0 Se5 2.707520 1_564
Sc0 Se0 2.707520 1_545
Sc0 Se5 2.707523 1_454
Sc1 Se4 2.706403 1_555
Sc1 Se1 2.706403 1_555
Sc1 Se3 2.707517 1_565
Sc1 Se2 2.707517 1_655
Sc1 Se2 2.707520 1_545
Sc1 Se3 2.707520 1_455
Be0 Se2 2.232472 1_555
Be0 Se0 2.232472 1_555
Be0 Se1 2.373397 1_565
Be0 Se1 2.373397 1_455
Be1 Se5 2.232463 1_555
Be1 Se3 2.232472 1_555
Be1 Se4 2.373397 1_545
Be1 Se4 2.373397 1_655
