# generated using pymatgen
data_Ti8Mn2BiPb3
_symmetry_space_group_name_H-M   'P 1'
_cell_length_a   4.99371900
_cell_length_b   7.87811741
_cell_length_c   7.90180136
_cell_angle_alpha   95.74765566
_cell_angle_beta   71.57965328
_cell_angle_gamma   108.47773530
_symmetry_Int_Tables_number   1
_chemical_formula_structural   Ti8Mn2BiPb3
_chemical_formula_sum   'Ti8 Mn2 Bi1 Pb3'
_cell_volume   279.73306564
_cell_formula_units_Z   1
loop_
 _symmetry_equiv_pos_site_id
 _symmetry_equiv_pos_as_xyz
  1  'x, y, z'
loop_
 _atom_site_type_symbol
 _atom_site_label
 _atom_site_symmetry_multiplicity
 _atom_site_fract_x
 _atom_site_fract_y
 _atom_site_fract_z
 _atom_site_occupancy
  Ti  Ti0  1  0.58001495  0.27653626  0.11650736  1
  Ti  Ti1  1  0.80347669  0.72346274  0.11650736  1
  Ti  Ti2  1  0.92185176  0.11597119  0.27226868  1
  Ti  Ti3  1  0.30587957  0.88402881  0.27226868  1
  Ti  Ti4  1  0.69486812  0.11658763  0.72685239  1
  Ti  Ti5  1  0.07828049  0.88341337  0.72685339  1
  Ti  Ti6  1  0.19410073  0.27370106  0.88550161  1
  Ti  Ti7  1  0.42039667  0.72629894  0.88550261  1
  Mn  Mn0  1  0.25057692  0.00000000  0.99884815  1
  Mn  Mn1  1  0.75057592  0.00000000  0.99884815  1
  Bi  Bi0  1  0.86005888  0.50000000  0.77988224  1
  Pb  Pb0  1  0.13927910  0.50000000  0.22144180  1
  Pb  Pb1  1  0.35715829  0.21367638  0.49935780  1
  Pb  Pb2  1  0.64348191  0.78632362  0.49935780  1
loop_
_geom_bond_atom_site_label_1
_geom_bond_atom_site_label_2
_geom_bond_distance
_geom_bond_site_symmetry_2
Mn0 Mn1 2.496855 1_555
Mn0 Mn1 2.496864 1_455
Mn0 Ti7 2.542243 1_545
Mn0 Ti6 2.542251 1_555
Mn0 Ti5 2.544701 1_545
Mn0 Ti4 2.544707 1_555
Mn0 Ti3 2.551704 1_546
Mn0 Ti2 2.551709 1_456
Mn0 Ti0 2.570238 1_556
Mn0 Ti1 2.570250 1_446
Mn1 Ti7 2.542252 1_545
Mn1 Ti6 2.542253 1_655
Mn1 Ti5 2.544701 1_645
Mn1 Ti4 2.544707 1_555
Mn1 Ti2 2.551709 1_556
Mn1 Ti3 2.551709 1_546
Mn1 Ti0 2.570238 1_556
Mn1 Ti1 2.570243 1_546
Bi0 Ti4 2.892302 1_555
Bi0 Ti5 2.892308 1_655
Bi0 Ti1 3.026018 1_556
Bi0 Ti0 3.026022 1_556
Bi0 Ti7 3.117757 1_655
Bi0 Ti6 3.117757 1_555
Bi0 Ti6 3.117765 1_655
Bi0 Ti7 3.117769 1_555
Pb0 Ti2 2.894644 1_455
Pb0 Ti3 2.894644 1_555
Pb0 Ti7 3.033492 1_554
Pb0 Ti6 3.033498 1_554
Pb0 Ti1 3.105010 1_555
Pb0 Ti0 3.105016 1_455
Pb0 Ti1 3.105018 1_455
Pb0 Ti0 3.105020 1_555
Pb1 Ti0 2.908385 1_555
Pb1 Ti6 2.929435 1_555
Pb1 Ti3 2.994223 1_545
Pb1 Ti5 2.999739 1_545
Pb1 Ti2 3.108965 1_455
Pb1 Ti2 3.108977 1_555
Pb1 Ti4 3.109553 1_455
Pb1 Ti4 3.109565 1_555
Pb2 Ti1 2.908386 1_555
Pb2 Ti7 2.929443 1_555
Pb2 Ti2 2.994223 1_565
Pb2 Ti4 2.999741 1_565
Pb2 Ti3 3.108969 1_555
Pb2 Ti3 3.108973 1_655
Pb2 Ti5 3.109559 1_555
Pb2 Ti5 3.109570 1_655
