# generated using pymatgen
data_Ba3AlS4I
_symmetry_space_group_name_H-M   'P 1'
_cell_length_a   8.70611529
_cell_length_b   9.76543118
_cell_length_c   12.76900378
_cell_angle_alpha   90.00000000
_cell_angle_beta   90.00000000
_cell_angle_gamma   90.00000000
_symmetry_Int_Tables_number   1
_chemical_formula_structural   Ba3AlS4I
_chemical_formula_sum   'Ba12 Al4 S16 I4'
_cell_volume   1085.60754556
_cell_formula_units_Z   4
loop_
 _symmetry_equiv_pos_site_id
 _symmetry_equiv_pos_as_xyz
  1  'x, y, z'
loop_
 _atom_site_type_symbol
 _atom_site_label
 _atom_site_symmetry_multiplicity
 _atom_site_fract_x
 _atom_site_fract_y
 _atom_site_fract_z
 _atom_site_occupancy
  Ba  Ba0  1  0.92306984  0.75000000  0.46522009  1
  Ba  Ba1  1  0.57693016  0.75000000  0.96522009  1
  Ba  Ba2  1  0.07693016  0.25000000  0.53477991  1
  Ba  Ba3  1  0.42306984  0.25000000  0.03477991  1
  Ba  Ba4  1  0.59611459  0.47630209  0.65423860  1
  Ba  Ba5  1  0.90388541  0.02369791  0.15423860  1
  Ba  Ba6  1  0.40388541  0.97630209  0.34576140  1
  Ba  Ba7  1  0.09611459  0.52369791  0.84576140  1
  Ba  Ba8  1  0.40388541  0.52369791  0.34576140  1
  Ba  Ba9  1  0.09611459  0.97630209  0.84576140  1
  Ba  Ba10  1  0.59611459  0.02369791  0.65423860  1
  Ba  Ba11  1  0.90388541  0.47630209  0.15423860  1
  Al  Al0  1  0.31002358  0.75000000  0.60437008  1
  Al  Al1  1  0.18997642  0.75000000  0.10437008  1
  Al  Al2  1  0.68997642  0.25000000  0.39562992  1
  Al  Al3  1  0.81002358  0.25000000  0.89562992  1
  S  S0  1  0.80868646  0.44558325  0.43411127  1
  S  S1  1  0.69131354  0.05441675  0.93411127  1
  S  S2  1  0.19131354  0.94558325  0.56588873  1
  S  S3  1  0.30868646  0.55441675  0.06588873  1
  S  S4  1  0.19131354  0.55441675  0.56588873  1
  S  S5  1  0.30868646  0.94558325  0.06588873  1
  S  S6  1  0.80868646  0.05441675  0.43411127  1
  S  S7  1  0.69131354  0.44558325  0.93411127  1
  S  S8  1  0.14284967  0.75000000  0.27735183  1
  S  S9  1  0.35715033  0.75000000  0.77735183  1
  S  S10  1  0.85715033  0.25000000  0.72264817  1
  S  S11  1  0.64284967  0.25000000  0.22264817  1
  S  S12  1  0.53144035  0.75000000  0.51171819  1
  S  S13  1  0.96855965  0.75000000  0.01171819  1
  S  S14  1  0.46855965  0.25000000  0.48828181  1
  S  S15  1  0.03144035  0.25000000  0.98828181  1
  I  I0  1  0.66634002  0.75000000  0.23240043  1
  I  I1  1  0.83365998  0.75000000  0.73240043  1
  I  I2  1  0.33365998  0.25000000  0.76759957  1
  I  I3  1  0.16634002  0.25000000  0.26759957  1
loop_
_geom_bond_atom_site_label_1
_geom_bond_atom_site_label_2
_geom_bond_distance
_geom_bond_site_symmetry_2
Ba0 S8 3.068531 1_655
Ba0 S6 3.160187 1_565
Ba0 S0 3.160187 1_555
Ba0 S2 3.279358 1_655
Ba0 S4 3.279358 1_655
Ba0 S12 3.460881 1_555
Ba0 I1 3.499303 1_555
Ba0 I0 3.719374 1_555
Ba1 S9 3.068531 1_555
Ba1 S1 3.160187 1_565
Ba1 S7 3.160187 1_555
Ba1 S5 3.279358 1_556
Ba1 S3 3.279358 1_556
Ba1 S13 3.460881 1_556
Ba1 I0 3.499303 1_556
Ba1 I1 3.719374 1_555
Ba2 S10 3.068531 1_455
Ba2 S4 3.160187 1_555
Ba2 S2 3.160187 1_545
Ba2 S0 3.279358 1_455
Ba2 S6 3.279358 1_455
Ba2 S14 3.460881 1_555
Ba2 I3 3.499303 1_555
Ba2 I2 3.719374 1_555
Ba3 S11 3.068531 1_555
Ba3 S3 3.160187 1_555
Ba3 S5 3.160187 1_545
Ba3 S7 3.279358 1_554
Ba3 S1 3.279358 1_554
Ba3 S15 3.460881 1_554
Ba3 I2 3.499303 1_554
Ba3 I3 3.719374 1_555
Ba4 S14 3.256939 1_555
Ba4 S12 3.282166 1_555
Ba4 S10 3.288101 1_555
Ba4 S0 3.378701 1_555
Ba4 I2 3.492870 1_555
Ba4 I1 3.523758 1_555
Ba4 S7 3.680790 1_555
Ba4 S9 3.734074 1_555
Ba4 S4 3.778214 1_555
Ba5 S15 3.256939 1_654
Ba5 S13 3.282166 1_545
Ba5 S11 3.288101 1_555
Ba5 S1 3.378701 1_554
Ba5 I3 3.492870 1_655
Ba5 I0 3.523758 1_545
Ba5 S6 3.680790 1_555
Ba5 S8 3.734074 1_645
Ba5 S5 3.778214 1_645
Ba6 S12 3.256939 1_555
Ba6 S14 3.282166 1_565
Ba6 S8 3.288101 1_555
Ba6 S2 3.378701 1_555
Ba6 I0 3.492870 1_555
Ba6 I3 3.523758 1_565
Ba6 S5 3.680790 1_555
Ba6 S11 3.734074 1_565
Ba6 S6 3.778214 1_565
Ba7 S13 3.256939 1_456
Ba7 S15 3.282166 1_555
Ba7 S9 3.288101 1_555
Ba7 S3 3.378701 1_556
Ba7 I1 3.492870 1_455
Ba7 I2 3.523758 1_555
Ba7 S4 3.680790 1_555
Ba7 S10 3.734074 1_455
Ba7 S7 3.778214 1_455
Ba8 S12 3.256939 1_555
Ba8 S14 3.282166 1_555
Ba8 S8 3.288101 1_555
Ba8 S4 3.378701 1_555
Ba8 I0 3.492870 1_555
Ba8 I3 3.523758 1_555
Ba8 S3 3.680790 1_555
Ba8 S11 3.734074 1_555
Ba8 S0 3.778214 1_555
Ba9 S13 3.256939 1_456
Ba9 S15 3.282166 1_565
Ba9 S9 3.288101 1_555
Ba9 S5 3.378701 1_556
Ba9 I1 3.492870 1_455
Ba9 I2 3.523758 1_565
Ba9 S2 3.680790 1_555
Ba9 S10 3.734074 1_465
Ba9 S1 3.778214 1_465
Ba10 S14 3.256939 1_555
Ba10 S12 3.282166 1_545
Ba10 S10 3.288101 1_555
Ba10 S6 3.378701 1_555
Ba10 I2 3.492870 1_555
Ba10 I1 3.523758 1_545
Ba10 S1 3.680790 1_555
Ba10 S9 3.734074 1_545
Ba10 S2 3.778214 1_545
Ba11 S15 3.256939 1_654
Ba11 S13 3.282166 1_555
Ba11 S11 3.288101 1_555
Ba11 S7 3.378701 1_554
Ba11 I3 3.492870 1_655
Ba11 I0 3.523758 1_555
Ba11 S0 3.680790 1_555
Ba11 S8 3.734074 1_655
Ba11 S3 3.778214 1_655
Al0 S2 2.226544 1_555
Al0 S4 2.226544 1_555
Al0 S9 2.246588 1_555
Al0 S12 2.261771 1_555
Al1 S5 2.226544 1_555
Al1 S3 2.226544 1_555
Al1 S8 2.246588 1_555
Al1 S13 2.261771 1_455
Al2 S0 2.226544 1_555
Al2 S6 2.226544 1_555
Al2 S11 2.246588 1_555
Al2 S14 2.261771 1_555
Al3 S7 2.226544 1_555
Al3 S1 2.226544 1_555
Al3 S10 2.246588 1_555
Al3 S15 2.261771 1_655
