# generated using pymatgen
data_Li2SnAu
_symmetry_space_group_name_H-M   'P 1'
_cell_length_a   4.57770074
_cell_length_b   4.57770013
_cell_length_c   4.57769927
_cell_angle_alpha   59.99998416
_cell_angle_beta   59.99998859
_cell_angle_gamma   59.99999229
_symmetry_Int_Tables_number   1
_chemical_formula_structural   Li2SnAu
_chemical_formula_sum   'Li2 Sn1 Au1'
_cell_volume   67.83079135
_cell_formula_units_Z   1
loop_
 _symmetry_equiv_pos_site_id
 _symmetry_equiv_pos_as_xyz
  1  'x, y, z'
loop_
 _atom_site_type_symbol
 _atom_site_label
 _atom_site_symmetry_multiplicity
 _atom_site_fract_x
 _atom_site_fract_y
 _atom_site_fract_z
 _atom_site_occupancy
  Li  Li0  1  0.50000000  0.50000000  0.50000000  1
  Li  Li1  1  0.25000000  0.25000000  0.25000000  1
  Sn  Sn0  1  -0.00000000  0.00000000  0.00000000  1
  Au  Au0  1  0.75000000  0.75000000  0.75000000  1
loop_
_geom_bond_atom_site_label_1
_geom_bond_atom_site_label_2
_geom_bond_distance
_geom_bond_site_symmetry_2
Li1 Sn0 2.803256 1_556
Li1 Sn0 2.803257 1_565
Li1 Sn0 2.803257 1_655
Li1 Sn0 2.803258 1_555
Au0 Li0 2.803256 1_556
Au0 Sn0 2.803256 1_665
Au0 Sn0 2.803257 1_656
Au0 Li0 2.803257 1_565
Au0 Li0 2.803257 1_655
Au0 Sn0 2.803257 1_566
Au0 Li0 2.803258 1_555
Au0 Sn0 2.803258 1_666
