# generated using pymatgen
data_Y(TaSn)6
_symmetry_space_group_name_H-M   'P 1'
_cell_length_a   5.75198015
_cell_length_b   5.75198128
_cell_length_c   9.61011454
_cell_angle_alpha   90.00000000
_cell_angle_beta   90.00000000
_cell_angle_gamma   119.99999917
_symmetry_Int_Tables_number   1
_chemical_formula_structural   Y(TaSn)6
_chemical_formula_sum   'Y1 Ta6 Sn6'
_cell_volume   275.35568160
_cell_formula_units_Z   1
loop_
 _symmetry_equiv_pos_site_id
 _symmetry_equiv_pos_as_xyz
  1  'x, y, z'
loop_
 _atom_site_type_symbol
 _atom_site_label
 _atom_site_symmetry_multiplicity
 _atom_site_fract_x
 _atom_site_fract_y
 _atom_site_fract_z
 _atom_site_occupancy
  Y  Y0  1  0.00000000  0.00000000  0.00000000  1
  Ta  Ta0  1  0.50000000  0.00000000  0.75088103  1
  Ta  Ta1  1  0.00000000  0.50000000  0.24911897  1
  Ta  Ta2  1  0.50000000  0.00000000  0.24911897  1
  Ta  Ta3  1  0.50000000  0.50000000  0.24911897  1
  Ta  Ta4  1  0.50000000  0.50000000  0.75088103  1
  Ta  Ta5  1  0.00000000  0.50000000  0.75088103  1
  Sn  Sn0  1  0.33333300  0.66666700  0.50000000  1
  Sn  Sn1  1  0.66666700  0.33333300  0.50000000  1
  Sn  Sn2  1  0.33333300  0.66666700  0.00000000  1
  Sn  Sn3  1  0.66666700  0.33333300  0.00000000  1
  Sn  Sn4  1  0.00000000  0.00000000  0.32796095  1
  Sn  Sn5  1  0.00000000  0.00000000  0.67203905  1
loop_
_geom_bond_atom_site_label_1
_geom_bond_atom_site_label_2
_geom_bond_distance
_geom_bond_site_symmetry_2
Sn0 Ta5 2.927456 1_555
Sn0 Ta1 2.927456 1_555
Sn0 Ta0 2.927456 1_565
Sn0 Ta2 2.927456 1_565
Sn0 Ta4 2.927459 1_555
Sn0 Ta3 2.927459 1_555
Sn1 Ta5 2.927456 1_655
Sn1 Ta1 2.927456 1_655
Sn1 Ta0 2.927456 1_555
Sn1 Ta2 2.927456 1_555
Sn1 Ta4 2.927459 1_555
Sn1 Ta3 2.927459 1_555
Sn2 Ta1 2.913526 1_555
Sn2 Ta5 2.913526 1_554
Sn2 Ta2 2.913526 1_565
Sn2 Ta0 2.913526 1_564
Sn2 Ta3 2.913529 1_555
Sn2 Ta4 2.913529 1_554
Sn2 Y0 3.320904 1_565
Sn2 Y0 3.320909 1_665
Sn2 Y0 3.320910 1_555
Sn3 Ta1 2.913526 1_655
Sn3 Ta5 2.913526 1_654
Sn3 Ta2 2.913526 1_555
Sn3 Ta0 2.913526 1_554
Sn3 Ta3 2.913529 1_555
Sn3 Ta4 2.913529 1_554
Sn3 Y0 3.320904 1_655
Sn3 Y0 3.320909 1_555
Sn3 Y0 3.320910 1_665
Sn4 Ta2 2.974121 1_455
Sn4 Ta2 2.974121 1_555
Sn4 Ta3 2.974122 1_445
Sn4 Ta3 2.974122 1_555
Sn4 Ta1 2.974122 1_555
Sn4 Ta1 2.974122 1_545
Sn4 Y0 3.151742 1_555
Sn5 Ta0 2.974121 1_555
Sn5 Ta0 2.974121 1_455
Sn5 Ta4 2.974122 1_555
Sn5 Ta4 2.974122 1_445
Sn5 Ta5 2.974122 1_555
Sn5 Ta5 2.974122 1_545
Sn5 Y0 3.151742 1_556
