# generated using pymatgen
data_CsCdAsO4
_symmetry_space_group_name_H-M   'P 1'
_cell_length_a   5.77226786
_cell_length_b   9.87119889
_cell_length_c   9.83754037
_cell_angle_alpha   90.00000000
_cell_angle_beta   90.00000000
_cell_angle_gamma   90.00000000
_symmetry_Int_Tables_number   1
_chemical_formula_structural   CsCdAsO4
_chemical_formula_sum   'Cs4 Cd4 As4 O16'
_cell_volume   560.53522082
_cell_formula_units_Z   4
loop_
 _symmetry_equiv_pos_site_id
 _symmetry_equiv_pos_as_xyz
  1  'x, y, z'
loop_
 _atom_site_type_symbol
 _atom_site_label
 _atom_site_symmetry_multiplicity
 _atom_site_fract_x
 _atom_site_fract_y
 _atom_site_fract_z
 _atom_site_occupancy
  Cs  Cs0  1  0.75794877  0.01488509  0.78436381  1
  Cs  Cs1  1  0.25794877  0.48511491  0.28436381  1
  Cs  Cs2  1  0.25794877  0.98511491  0.21563619  1
  Cs  Cs3  1  0.75794877  0.51488509  0.71563619  1
  Cd  Cd0  1  0.24435596  0.32118737  0.90987337  1
  Cd  Cd1  1  0.74435596  0.17881263  0.40987337  1
  Cd  Cd2  1  0.24435596  0.82118737  0.59012663  1
  Cd  Cd3  1  0.74435596  0.67881263  0.09012663  1
  As  As0  1  0.75289514  0.79642604  0.41903253  1
  As  As1  1  0.25289514  0.20357396  0.58096747  1
  As  As2  1  0.75289514  0.29642604  0.08096747  1
  As  As3  1  0.25289514  0.70357396  0.91903253  1
  O  O0  1  0.60916769  0.77374763  0.56848411  1
  O  O1  1  0.10916769  0.72625237  0.06848411  1
  O  O2  1  0.60603768  0.21662268  0.20699462  1
  O  O3  1  0.60916769  0.27374763  0.93151589  1
  O  O4  1  0.02311722  0.72822371  0.43816082  1
  O  O5  1  0.10603768  0.28337732  0.70699462  1
  O  O6  1  0.52311722  0.27177629  0.56183918  1
  O  O7  1  0.02311722  0.22822371  0.06183918  1
  O  O8  1  0.27837854  0.03832416  0.62303774  1
  O  O9  1  0.10916769  0.22625237  0.43151589  1
  O  O10  1  0.77837854  0.46167584  0.12303774  1
  O  O11  1  0.77837854  0.96167584  0.37696226  1
  O  O12  1  0.27837854  0.53832416  0.87696226  1
  O  O13  1  0.10603768  0.78337732  0.79300538  1
  O  O14  1  0.60603768  0.71662268  0.29300538  1
  O  O15  1  0.52311722  0.77177629  0.93816082  1
loop_
_geom_bond_atom_site_label_1
_geom_bond_atom_site_label_2
_geom_bond_distance
_geom_bond_site_symmetry_2
Cs0 O13 3.044137 1_645
Cs0 O3 3.059838 1_555
Cs0 O15 3.144114 1_545
Cs0 O8 3.199256 1_555
Cs0 O0 3.303582 1_545
Cs0 O8 3.405384 1_655
Cs0 O5 3.411854 1_655
Cs0 O6 3.613855 1_555
Cs0 O7 3.772106 1_656
Cs1 O14 3.044137 1_555
Cs1 O9 3.059838 1_555
Cs1 O4 3.144114 1_555
Cs1 O10 3.199256 1_455
Cs1 O1 3.303582 1_555
Cs1 O10 3.405384 1_555
Cs1 O2 3.411854 1_555
Cs1 O7 3.613855 1_555
Cs1 O6 3.772106 1_555
Cs2 O2 3.044137 1_565
Cs2 O1 3.059838 1_555
Cs2 O7 3.144114 1_565
Cs2 O11 3.199256 1_455
Cs2 O9 3.303582 1_565
Cs2 O11 3.405384 1_555
Cs2 O14 3.411854 1_555
Cs2 O4 3.613855 1_555
Cs2 O15 3.772106 1_554
Cs3 O5 3.044137 1_655
Cs3 O0 3.059838 1_555
Cs3 O6 3.144114 1_555
Cs3 O12 3.199256 1_555
Cs3 O3 3.303582 1_555
Cs3 O12 3.405384 1_655
Cs3 O13 3.411854 1_655
Cs3 O15 3.613855 1_555
Cs3 O4 3.772106 1_655
Cd0 O3 2.167713 1_555
Cd0 O7 2.169768 1_556
Cd0 O12 2.176593 1_555
Cd0 O5 2.181763 1_555
Cd1 O9 2.167713 1_655
Cd1 O6 2.169768 1_555
Cd1 O11 2.176593 1_545
Cd1 O2 2.181763 1_555
Cd2 O0 2.167713 1_555
Cd2 O4 2.169768 1_555
Cd2 O8 2.176593 1_565
Cd2 O13 2.181763 1_555
Cd3 O1 2.167713 1_655
Cd3 O15 2.169768 1_554
Cd3 O10 2.176593 1_555
Cd3 O14 2.181763 1_555
As0 O11 1.689314 1_555
As0 O14 1.695951 1_555
As0 O0 1.702939 1_555
As0 O4 1.709274 1_655
As1 O8 1.689314 1_555
As1 O5 1.695951 1_555
As1 O9 1.702939 1_555
As1 O6 1.709274 1_555
As2 O10 1.689314 1_555
As2 O2 1.695951 1_555
As2 O3 1.702939 1_554
As2 O7 1.709274 1_655
As3 O12 1.689314 1_555
As3 O13 1.695951 1_555
As3 O1 1.702939 1_556
As3 O15 1.709274 1_555
