# generated using pymatgen
data_Zn3GaP6N13
_symmetry_space_group_name_H-M   'P 1'
_cell_length_a   6.92791986
_cell_length_b   6.88877758
_cell_length_c   6.92792066
_cell_angle_alpha   109.35680110
_cell_angle_beta   109.58538204
_cell_angle_gamma   109.35681209
_symmetry_Int_Tables_number   1
_chemical_formula_structural   Zn3GaP6N13
_chemical_formula_sum   'Zn3 Ga1 P6 N13'
_cell_volume   254.88094716
_cell_formula_units_Z   1
loop_
 _symmetry_equiv_pos_site_id
 _symmetry_equiv_pos_as_xyz
  1  'x, y, z'
loop_
 _atom_site_type_symbol
 _atom_site_label
 _atom_site_symmetry_multiplicity
 _atom_site_fract_x
 _atom_site_fract_y
 _atom_site_fract_z
 _atom_site_occupancy
  Zn  Zn0  1  0.71655571  0.99710562  0.00000000  1
  Zn  Zn1  1  0.00000000  0.99710562  0.71655571  1
  Zn  Zn2  1  0.28344429  0.28054991  0.28344429  1
  Ga  Ga0  1  0.00000000  0.70207782  0.00000000  1
  P  P0  1  0.49867976  0.25093384  0.74813569  1
  P  P1  1  0.50132024  0.75225408  0.24945592  1
  P  P2  1  0.75054408  0.50279816  0.25186431  1
  P  P3  1  0.24945592  0.75225408  0.50132024  1
  P  P4  1  0.74813569  0.25093384  0.49867976  1
  P  P5  1  0.25186431  0.50279816  0.75054408  1
  N  N0  1  0.00000000  0.73976532  0.45790044  1
  N  N1  1  0.27273023  0.53895340  0.53750555  1
  N  N2  1  0.73889883  0.46504943  0.00000000  1
  N  N3  1  0.26110117  0.72615160  0.26110117  1
  N  N4  1  0.46249445  0.00144684  0.73522467  1
  N  N5  1  0.72726977  0.26622217  0.26477533  1
  N  N6  1  0.54209956  0.28186388  0.54209956  1
  N  N7  1  0.73522467  0.00144684  0.46249445  1
  N  N8  1  0.26477533  0.26622217  0.72726977  1
  N  N9  1  0.45790044  0.73976532  0.00000000  1
  N  N10  1  0.53750555  0.53895340  0.27273023  1
  N  N11  1  0.00000000  0.46504943  0.73889883  1
  N  N12  1  0.00000000  0.98029806  0.00000000  1
loop_
_geom_bond_atom_site_label_1
_geom_bond_atom_site_label_2
_geom_bond_distance
_geom_bond_site_symmetry_2
Ga0 N12 1.916597 1_555
Ga0 N3 1.995060 1_555
Ga0 N2 1.995063 1_455
Ga0 N11 1.995063 1_554
N0 P3 1.618751 1_555
N0 P2 1.618752 1_455
N0 Zn1 2.061047 1_555
N1 P3 1.619280 1_555
N1 P5 1.619909 1_555
N1 Zn2 2.090557 1_555
N2 P2 1.646122 1_555
N2 P0 1.646123 1_554
N3 P1 1.646124 1_555
N3 P3 1.646124 1_555
N4 P0 1.619287 1_555
N4 P3 1.619906 1_545
N4 Zn0 2.090553 1_546
N5 P2 1.619287 1_555
N5 P4 1.619906 1_555
N5 Zn0 2.090553 1_545
N6 P4 1.618749 1_555
N6 P0 1.618749 1_555
N6 Zn2 2.061051 1_555
N7 P4 1.619287 1_555
N7 P1 1.619906 1_545
N7 Zn1 2.090553 1_645
N8 P5 1.619287 1_555
N8 P0 1.619906 1_555
N8 Zn1 2.090552 1_545
N9 P1 1.618752 1_555
N9 P5 1.618752 1_554
N9 Zn0 2.061047 1_555
N10 P1 1.619280 1_555
N10 P2 1.619909 1_555
N10 Zn2 2.090556 1_555
N11 P5 1.646122 1_555
N11 P4 1.646123 1_455
N12 Zn0 2.005034 1_455
N12 Zn1 2.005034 1_554
N12 Zn2 2.005034 1_565
