# generated using pymatgen
data_Lu5Zn2BiTe
_symmetry_space_group_name_H-M   'P 1'
_cell_length_a   8.51311888
_cell_length_b   8.51312020
_cell_length_c   7.73173570
_cell_angle_alpha   90.00000000
_cell_angle_beta   90.00000000
_cell_angle_gamma   125.97090042
_symmetry_Int_Tables_number   1
_chemical_formula_structural   Lu5Zn2BiTe
_chemical_formula_sum   'Lu10 Zn4 Bi2 Te2'
_cell_volume   453.49476337
_cell_formula_units_Z   2
loop_
 _symmetry_equiv_pos_site_id
 _symmetry_equiv_pos_as_xyz
  1  'x, y, z'
loop_
 _atom_site_type_symbol
 _atom_site_label
 _atom_site_symmetry_multiplicity
 _atom_site_fract_x
 _atom_site_fract_y
 _atom_site_fract_z
 _atom_site_occupancy
  Lu  Lu0  1  0.00182094  0.99817906  0.00000000  1
  Lu  Lu1  1  0.50182094  0.49817906  0.50000000  1
  Lu  Lu2  1  0.78547089  0.54206333  0.16404522  1
  Lu  Lu3  1  0.45793667  0.21452911  0.83595478  1
  Lu  Lu4  1  0.95793667  0.71452911  0.66404522  1
  Lu  Lu5  1  0.28547089  0.04206333  0.33595478  1
  Lu  Lu6  1  0.20752662  0.45456042  0.83336792  1
  Lu  Lu7  1  0.54543958  0.79247338  0.16663208  1
  Lu  Lu8  1  0.04543958  0.29247338  0.33336792  1
  Lu  Lu9  1  0.70752662  0.95456042  0.66663208  1
  Zn  Zn0  1  0.87142646  0.87423075  0.37447153  1
  Zn  Zn1  1  0.12576925  0.12857354  0.62552847  1
  Zn  Zn2  1  0.62576925  0.62857354  0.87447153  1
  Zn  Zn3  1  0.37142646  0.37423075  0.12552847  1
  Bi  Bi0  1  0.20981903  0.79018097  0.00000000  1
  Bi  Bi1  1  0.70981903  0.29018097  0.50000000  1
  Te  Te0  1  0.79479056  0.20520944  0.00000000  1
  Te  Te1  1  0.29479056  0.70520944  0.50000000  1
loop_
_geom_bond_atom_site_label_1
_geom_bond_atom_site_label_2
_geom_bond_distance
_geom_bond_site_symmetry_2
Lu0 Zn2 3.042668 1_454
Lu0 Zn3 3.042668 1_565
Lu0 Zn0 3.058185 1_455
Lu0 Zn1 3.058185 1_564
Lu0 Te0 3.140346 1_465
Lu1 Zn1 3.042668 1_555
Lu1 Zn0 3.042668 1_555
Lu1 Zn3 3.058185 1_555
Lu1 Zn2 3.058185 1_555
Lu1 Te1 3.140346 1_555
Lu2 Zn2 2.929120 1_554
Lu2 Zn3 2.939071 1_555
Lu2 Zn0 2.957699 1_555
Lu2 Te0 3.178973 1_555
Lu3 Zn3 2.929120 1_556
Lu3 Zn2 2.939072 1_555
Lu3 Zn1 2.957698 1_555
Lu3 Te0 3.178973 1_556
Lu4 Zn0 2.929120 1_555
Lu4 Zn1 2.939072 1_665
Lu4 Zn2 2.957698 1_555
Lu4 Te1 3.178973 1_655
Lu5 Zn1 2.929120 1_555
Lu5 Zn0 2.939071 1_445
Lu5 Zn3 2.957699 1_555
Lu5 Te1 3.178973 1_545
Lu6 Zn1 2.915341 1_555
Lu6 Zn3 2.939066 1_556
Lu6 Zn2 2.962556 1_555
Lu6 Te0 3.122464 1_456
Lu6 Te1 3.144263 1_555
Lu7 Zn0 2.915341 1_555
Lu7 Zn2 2.939066 1_554
Lu7 Zn3 2.962556 1_555
Lu7 Te0 3.122464 1_565
Lu7 Te1 3.144263 1_555
Lu8 Zn3 2.915341 1_555
Lu8 Zn1 2.939066 1_555
Lu8 Zn0 2.962556 1_445
Lu8 Te1 3.122464 1_555
Lu8 Te0 3.144263 1_455
Lu9 Zn2 2.915341 1_555
Lu9 Zn0 2.939066 1_555
Lu9 Zn1 2.962556 1_665
Lu9 Te1 3.122464 1_555
Lu9 Te0 3.144263 1_566
Zn0 Zn1 2.763499 1_665
Zn2 Zn3 2.763499 1_556
Bi0 Lu7 3.123812 1_555
Bi0 Lu6 3.123812 1_554
Bi0 Lu0 3.155024 1_555
Bi0 Lu4 3.183954 1_454
Bi0 Lu5 3.183955 1_565
Bi0 Lu2 3.186955 1_455
Bi0 Lu3 3.186955 1_564
Bi1 Lu8 3.123812 1_655
Bi1 Lu9 3.123812 1_545
Bi1 Lu1 3.155024 1_555
Bi1 Lu3 3.183954 1_555
Bi1 Lu2 3.183955 1_555
Bi1 Lu5 3.186955 1_555
Bi1 Lu4 3.186955 1_555
