# generated using pymatgen
data_Ce(Mo3S4)2
_symmetry_space_group_name_H-M   'P 1'
_cell_length_a   6.53399911
_cell_length_b   6.52947687
_cell_length_c   6.53525240
_cell_angle_alpha   89.06883518
_cell_angle_beta   89.16044785
_cell_angle_gamma   89.14173081
_symmetry_Int_Tables_number   1
_chemical_formula_structural   Ce(Mo3S4)2
_chemical_formula_sum   'Ce1 Mo6 S8'
_cell_volume   278.72031838
_cell_formula_units_Z   1
loop_
 _symmetry_equiv_pos_site_id
 _symmetry_equiv_pos_as_xyz
  1  'x, y, z'
loop_
 _atom_site_type_symbol
 _atom_site_label
 _atom_site_symmetry_multiplicity
 _atom_site_fract_x
 _atom_site_fract_y
 _atom_site_fract_z
 _atom_site_occupancy
  Ce  Ce0  1  0.00000000  -0.00000000  0.00000000  1
  Mo  Mo0  1  0.43800628  0.77051903  0.58001040  1
  Mo  Mo1  1  0.58025204  0.43751144  0.77105242  1
  Mo  Mo2  1  0.77126937  0.58036157  0.43786320  1
  Mo  Mo3  1  0.22873063  0.41963843  0.56213680  1
  Mo  Mo4  1  0.41974796  0.56248856  0.22894758  1
  Mo  Mo5  1  0.56199372  0.22948097  0.41998960  1
  S  S0  1  0.25248906  0.62513067  0.87364801  1
  S  S1  1  0.62560311  0.87439585  0.25212248  1
  S  S2  1  0.75740917  0.75655203  0.75669517  1
  S  S3  1  0.87401912  0.25252881  0.62570414  1
  S  S4  1  0.12598088  0.74747119  0.37429586  1
  S  S5  1  0.24259083  0.24344797  0.24330483  1
  S  S6  1  0.37439689  0.12560415  0.74787752  1
  S  S7  1  0.74751094  0.37486933  0.12635199  1
loop_
_geom_bond_atom_site_label_1
_geom_bond_atom_site_label_2
_geom_bond_distance
_geom_bond_site_symmetry_2
Ce0 S5 2.792682 1_555
Ce0 S2 2.792682 1_444
Ce0 S4 3.044198 1_545
Ce0 S3 3.044198 1_454
Ce0 S1 3.044662 1_445
Ce0 S6 3.044662 1_554
Ce0 S7 3.049525 1_455
Ce0 S0 3.049525 1_544
Mo0 S2 2.399703 1_555
Mo0 S0 2.441349 1_555
Mo0 S4 2.466321 1_555
Mo0 S1 2.540657 1_555
Mo0 S6 2.606194 1_565
Mo1 S2 2.398126 1_555
Mo1 S3 2.441300 1_555
Mo1 S6 2.465336 1_555
Mo1 S0 2.538267 1_555
Mo1 S7 2.604481 1_556
Mo2 S2 2.396360 1_555
Mo2 S1 2.443092 1_555
Mo2 S7 2.464385 1_555
Mo2 S3 2.536822 1_555
Mo2 S4 2.601469 1_655
Mo3 S5 2.396360 1_555
Mo3 S6 2.443092 1_555
Mo3 S0 2.464385 1_555
Mo3 S4 2.536822 1_555
Mo3 S3 2.601469 1_455
Mo4 S5 2.398126 1_555
Mo4 S4 2.441300 1_555
Mo4 S1 2.465336 1_555
Mo4 S7 2.538267 1_555
Mo4 S0 2.604481 1_554
Mo5 S5 2.399703 1_555
Mo5 S7 2.441349 1_555
Mo5 S3 2.466321 1_555
Mo5 S6 2.540657 1_555
Mo5 S1 2.606194 1_545
