# generated using pymatgen
data_Sr6AlGa3N8
_symmetry_space_group_name_H-M   'P 1'
_cell_length_a   5.93731265
_cell_length_b   9.56543493
_cell_length_c   10.20861099
_cell_angle_alpha   90.00000000
_cell_angle_beta   90.00000000
_cell_angle_gamma   90.00000000
_symmetry_Int_Tables_number   1
_chemical_formula_structural   Sr6AlGa3N8
_chemical_formula_sum   'Sr12 Al2 Ga6 N16'
_cell_volume   579.77741708
_cell_formula_units_Z   2
loop_
 _symmetry_equiv_pos_site_id
 _symmetry_equiv_pos_as_xyz
  1  'x, y, z'
loop_
 _atom_site_type_symbol
 _atom_site_label
 _atom_site_symmetry_multiplicity
 _atom_site_fract_x
 _atom_site_fract_y
 _atom_site_fract_z
 _atom_site_occupancy
  Sr  Sr0  1  0.25000000  0.59446448  0.50000000  1
  Sr  Sr1  1  0.25000000  0.90334679  0.00000000  1
  Sr  Sr2  1  0.75000000  0.40334679  0.50000000  1
  Sr  Sr3  1  0.75000000  0.09446448  0.00000000  1
  Sr  Sr4  1  0.39080316  0.58671642  0.15500956  1
  Sr  Sr5  1  0.38766877  0.91203439  0.34610052  1
  Sr  Sr6  1  0.10919684  0.58671642  0.84499044  1
  Sr  Sr7  1  0.11233123  0.91203439  0.65389948  1
  Sr  Sr8  1  0.61233123  0.41203439  0.84610052  1
  Sr  Sr9  1  0.60919684  0.08671642  0.65500956  1
  Sr  Sr10  1  0.88766877  0.41203439  0.15389948  1
  Sr  Sr11  1  0.89080316  0.08671642  0.34499044  1
  Al  Al0  1  0.25000000  0.23050415  0.00000000  1
  Al  Al1  1  0.75000000  0.73050415  0.50000000  1
  Ga  Ga0  1  0.83679807  0.74994062  0.25260645  1
  Ga  Ga1  1  0.66320193  0.74994062  0.74739355  1
  Ga  Ga2  1  0.16320193  0.24994062  0.75260645  1
  Ga  Ga3  1  0.33679807  0.24994062  0.24739355  1
  Ga  Ga4  1  0.75000000  0.76971867  0.00000000  1
  Ga  Ga5  1  0.25000000  0.26971867  0.50000000  1
  N  N0  1  0.49148459  0.16792760  0.40253220  1
  N  N1  1  0.48315905  0.33190347  0.09021112  1
  N  N2  1  0.00851541  0.16792760  0.59746780  1
  N  N3  1  0.01684095  0.33190347  0.90978888  1
  N  N4  1  0.51684095  0.83190347  0.59021112  1
  N  N5  1  0.50851541  0.66792760  0.90253220  1
  N  N6  1  0.98315905  0.83190347  0.40978888  1
  N  N7  1  0.99148459  0.66792760  0.09746780  1
  N  N8  1  0.12410529  0.37473568  0.35273086  1
  N  N9  1  0.12529858  0.12772478  0.14098679  1
  N  N10  1  0.37589471  0.37473568  0.64726914  1
  N  N11  1  0.37470142  0.12772478  0.85901321  1
  N  N12  1  0.87589471  0.87473568  0.85273086  1
  N  N13  1  0.62529858  0.62772478  0.35901321  1
  N  N14  1  0.62410529  0.87473568  0.14726914  1
  N  N15  1  0.87470142  0.62772478  0.64098679  1
loop_
_geom_bond_atom_site_label_1
_geom_bond_atom_site_label_2
_geom_bond_distance
_geom_bond_site_symmetry_2
Al0 N9 1.893739 1_555
Al0 N11 1.893739 1_554
Al0 N1 1.924907 1_555
Al0 N3 1.924907 1_554
Al1 N15 1.893739 1_555
Al1 N13 1.893739 1_555
Al1 N4 1.924907 1_555
Al1 N6 1.924907 1_555
Ga0 N6 1.986103 1_555
Ga0 N7 1.991780 1_555
Ga0 N13 2.030646 1_555
Ga0 N14 2.043541 1_555
Ga1 N4 1.986103 1_555
Ga1 N5 1.991780 1_555
Ga1 N15 2.030646 1_555
Ga1 N12 2.043541 1_555
Ga2 N3 1.986103 1_555
Ga2 N2 1.991780 1_555
Ga2 N11 2.030646 1_555
Ga2 N10 2.043541 1_555
Ga3 N1 1.986103 1_555
Ga3 N0 1.991780 1_555
Ga3 N9 2.030646 1_555
Ga3 N8 2.043541 1_555
Ga4 N14 1.956543 1_555
Ga4 N12 1.956543 1_554
Ga4 N7 1.998446 1_555
Ga4 N5 1.998446 1_554
Ga5 N10 1.956543 1_555
Ga5 N8 1.956543 1_555
Ga5 N2 1.998446 1_555
Ga5 N0 1.998446 1_555
N0 Sr11 2.563120 1_555
N0 Sr5 2.589052 1_545
N0 Sr9 2.781208 1_555
N0 Sr2 2.901193 1_555
N1 Sr4 2.584409 1_555
N1 Sr10 2.603534 1_555
N1 Sr8 2.717702 1_554
N1 Sr3 2.918314 1_555
N2 Sr9 2.563120 1_455
N2 Sr7 2.589052 1_545
N2 Sr11 2.781208 1_455
N2 Sr2 2.901193 1_455
N3 Sr6 2.584409 1_555
N3 Sr8 2.603534 1_455
N3 Sr10 2.717702 1_456
N3 Sr3 2.918314 1_456
N4 Sr9 2.584409 1_565
N4 Sr7 2.603534 1_555
N4 Sr5 2.717702 1_555
N4 Sr0 2.918314 1_555
N5 Sr6 2.563120 1_555
N5 Sr8 2.589052 1_555
N5 Sr4 2.781208 1_556
N5 Sr1 2.901193 1_556
N6 Sr11 2.584409 1_565
N6 Sr5 2.603534 1_655
N6 Sr7 2.717702 1_655
N6 Sr0 2.918314 1_655
N7 Sr4 2.563120 1_655
N7 Sr10 2.589052 1_555
N7 Sr6 2.781208 1_654
N7 Sr1 2.901193 1_655
N8 Sr10 2.493591 1_455
N8 Sr0 2.690082 1_555
N8 Sr2 2.696070 1_455
N9 Sr11 2.535644 1_455
N9 Sr3 2.671687 1_455
N9 Sr1 2.688158 1_545
N10 Sr8 2.493591 1_555
N10 Sr0 2.690082 1_555
N10 Sr2 2.696070 1_555
N11 Sr9 2.535644 1_555
N11 Sr3 2.671687 1_556
N11 Sr1 2.688158 1_546
N12 Sr7 2.493591 1_655
N12 Sr3 2.690082 1_566
N12 Sr1 2.696070 1_656
N13 Sr4 2.535644 1_555
N13 Sr0 2.671687 1_555
N13 Sr2 2.688158 1_555
N14 Sr5 2.493591 1_555
N14 Sr3 2.690082 1_565
N14 Sr1 2.696070 1_555
N15 Sr6 2.535644 1_655
N15 Sr0 2.671687 1_655
N15 Sr2 2.688158 1_555
