# generated using pymatgen
data_Ba3TaP3O
_symmetry_space_group_name_H-M   'P 1'
_cell_length_a   6.68941177
_cell_length_b   11.00013797
_cell_length_c   13.36885872
_cell_angle_alpha   90.00000000
_cell_angle_beta   90.00000000
_cell_angle_gamma   90.00000000
_symmetry_Int_Tables_number   1
_chemical_formula_structural   Ba3TaP3O
_chemical_formula_sum   'Ba12 Ta4 P12 O4'
_cell_volume   983.74014768
_cell_formula_units_Z   4
loop_
 _symmetry_equiv_pos_site_id
 _symmetry_equiv_pos_as_xyz
  1  'x, y, z'
loop_
 _atom_site_type_symbol
 _atom_site_label
 _atom_site_symmetry_multiplicity
 _atom_site_fract_x
 _atom_site_fract_y
 _atom_site_fract_z
 _atom_site_occupancy
  Ba  Ba0  1  0.24620665  0.04430477  0.13234594  1
  Ba  Ba1  1  0.25379335  0.54430477  0.63234594  1
  Ba  Ba2  1  0.24620665  0.45569523  0.13234594  1
  Ba  Ba3  1  0.74620665  0.04430477  0.36765406  1
  Ba  Ba4  1  0.75379335  0.95569523  0.86765406  1
  Ba  Ba5  1  0.74620665  0.45569523  0.36765406  1
  Ba  Ba6  1  0.75379335  0.54430477  0.86765406  1
  Ba  Ba7  1  0.25379335  0.95569523  0.63234594  1
  Ba  Ba8  1  0.27468535  0.25000000  0.87017916  1
  Ba  Ba9  1  0.77468535  0.25000000  0.62982084  1
  Ba  Ba10  1  0.72531465  0.75000000  0.12982084  1
  Ba  Ba11  1  0.22531465  0.75000000  0.37017816  1
  Ta  Ta0  1  0.66573044  0.75000000  0.54535645  1
  Ta  Ta1  1  0.33426956  0.25000000  0.45464355  1
  Ta  Ta2  1  0.16573044  0.75000000  0.95464355  1
  Ta  Ta3  1  0.83426956  0.25000000  0.04535645  1
  P  P0  1  0.27324263  0.25000000  0.63021469  1
  P  P1  1  0.77324263  0.25000000  0.86978531  1
  P  P2  1  0.72675737  0.75000000  0.36978531  1
  P  P3  1  0.22675737  0.75000000  0.13021469  1
  P  P4  1  0.73728424  0.44026476  0.11601842  1
  P  P5  1  0.23728424  0.44026476  0.38398158  1
  P  P6  1  0.26271576  0.94026476  0.88398158  1
  P  P7  1  0.76271576  0.55973524  0.61601842  1
  P  P8  1  0.26271576  0.55973524  0.88398158  1
  P  P9  1  0.76271576  0.94026476  0.61601842  1
  P  P10  1  0.73728424  0.05973524  0.11601842  1
  P  P11  1  0.23728424  0.05973524  0.38398158  1
  O  O0  1  0.11424836  0.25000000  0.05291080  1
  O  O1  1  0.61424836  0.25000000  0.44708920  1
  O  O2  1  0.88575164  0.75000000  0.94708920  1
  O  O3  1  0.38575164  0.75000000  0.55291080  1
loop_
_geom_bond_atom_site_label_1
_geom_bond_atom_site_label_2
_geom_bond_distance
_geom_bond_site_symmetry_2
Ba0 O0 2.650784 1_555
Ba0 P3 3.240132 1_545
Ba0 P10 3.296637 1_555
Ba0 P11 3.368889 1_555
Ba0 P10 3.415602 1_455
Ba0 P6 3.513785 1_544
Ba1 O3 2.650784 1_555
Ba1 P0 3.240132 1_555
Ba1 P7 3.296637 1_455
Ba1 P8 3.368889 1_555
Ba1 P7 3.415602 1_555
Ba1 P5 3.513785 1_555
Ba2 O0 2.650784 1_555
Ba2 P3 3.240132 1_555
Ba2 P4 3.296637 1_555
Ba2 P5 3.368889 1_555
Ba2 P4 3.415602 1_455
Ba2 P8 3.513785 1_554
Ba3 O1 2.650784 1_555
Ba3 P2 3.240132 1_545
Ba3 P11 3.296637 1_655
Ba3 P10 3.368889 1_555
Ba3 P11 3.415602 1_555
Ba3 P9 3.513785 1_545
Ba4 O2 2.650784 1_555
Ba4 P1 3.240132 1_565
Ba4 P6 3.296637 1_555
Ba4 P9 3.368889 1_555
Ba4 P6 3.415602 1_655
Ba4 P10 3.513785 1_566
Ba5 O1 2.650784 1_555
Ba5 P2 3.240132 1_555
Ba5 P5 3.296637 1_655
Ba5 P4 3.368889 1_555
Ba5 P5 3.415602 1_555
Ba5 P7 3.513785 1_555
Ba6 O2 2.650784 1_555
Ba6 P1 3.240132 1_555
Ba6 P8 3.296637 1_555
Ba6 P7 3.368889 1_555
Ba6 P8 3.415602 1_655
Ba6 P4 3.513785 1_556
Ba7 O3 2.650784 1_555
Ba7 P0 3.240132 1_565
Ba7 P9 3.296637 1_455
Ba7 P6 3.368889 1_555
Ba7 P9 3.415602 1_555
Ba7 P11 3.513785 1_565
Ba8 O0 2.668267 1_556
Ba8 P0 3.208066 1_555
Ba8 P1 3.335059 1_555
Ba8 P1 3.354361 1_455
Ba8 P8 3.413063 1_555
Ba8 P6 3.413063 1_545
Ba9 O1 2.668267 1_555
Ba9 P1 3.208066 1_555
Ba9 P0 3.335059 1_655
Ba9 P0 3.354361 1_555
Ba9 P7 3.413063 1_555
Ba9 P9 3.413063 1_545
Ba10 O2 2.668267 1_554
Ba10 P2 3.208066 1_555
Ba10 P3 3.335059 1_555
Ba10 P3 3.354361 1_655
Ba10 P10 3.413063 1_565
Ba10 P4 3.413063 1_555
Ba11 O3 2.668279 1_555
Ba11 P3 3.208052 1_555
Ba11 P2 3.335059 1_455
Ba11 P2 3.354361 1_555
Ba11 P11 3.413063 1_565
Ba11 P5 3.413063 1_555
P0 Ta1 2.382422 1_555
P1 Ta3 2.382422 1_556
P2 Ta0 2.382422 1_555
P3 Ta2 2.382422 1_554
P4 Ta3 2.386148 1_555
P5 Ta1 2.386148 1_555
P6 Ta2 2.386148 1_555
P7 Ta0 2.386148 1_555
P8 Ta2 2.386148 1_555
P9 Ta0 2.386148 1_555
P10 Ta3 2.386148 1_555
P11 Ta1 2.386148 1_555
O0 Ta3 1.875614 1_455
O1 Ta1 1.875614 1_555
O2 Ta2 1.875614 1_655
O3 Ta0 1.875614 1_555
