# generated using pymatgen
data_Zr4Ta5TcN12
_symmetry_space_group_name_H-M   'P 1'
_cell_length_a   5.25530356
_cell_length_b   5.25530365
_cell_length_c   10.66503006
_cell_angle_alpha   90.00000000
_cell_angle_beta   90.00000000
_cell_angle_gamma   120.00787091
_symmetry_Int_Tables_number   1
_chemical_formula_structural   Zr4Ta5TcN12
_chemical_formula_sum   'Zr4 Ta5 Tc1 N12'
_cell_volume   255.06677254
_cell_formula_units_Z   1
loop_
 _symmetry_equiv_pos_site_id
 _symmetry_equiv_pos_as_xyz
  1  'x, y, z'
loop_
 _atom_site_type_symbol
 _atom_site_label
 _atom_site_symmetry_multiplicity
 _atom_site_fract_x
 _atom_site_fract_y
 _atom_site_fract_z
 _atom_site_occupancy
  Zr  Zr0  1  0.66797999  0.33548995  0.00465752  1
  Zr  Zr1  1  0.33548995  0.66797999  0.00465752  1
  Zr  Zr2  1  0.33548995  0.66797999  0.49534248  1
  Zr  Zr3  1  0.66797999  0.33548995  0.49534248  1
  Ta  Ta0  1  0.32201398  0.99754162  0.75000000  1
  Ta  Ta1  1  0.99754162  0.32201398  0.75000000  1
  Ta  Ta2  1  0.32457373  0.32457373  0.25000000  1
  Ta  Ta3  1  0.67624616  0.00092786  0.25000000  1
  Ta  Ta4  1  0.00092786  0.67624616  0.25000000  1
  Tc  Tc0  1  0.67253112  0.67253112  0.75000000  1
  N  N0  1  0.66090982  0.66090982  0.37406520  1
  N  N1  1  0.34154708  0.00100897  0.37367713  1
  N  N2  1  0.00100897  0.34154708  0.37367713  1
  N  N3  1  0.33856625  0.33856625  0.63013341  1
  N  N4  1  0.65381526  0.00376545  0.63033050  1
  N  N5  1  0.00376545  0.65381526  0.63033050  1
  N  N6  1  0.33856625  0.33856625  0.86986659  1
  N  N7  1  0.65381526  0.00376545  0.86966950  1
  N  N8  1  0.00376545  0.65381526  0.86966950  1
  N  N9  1  0.66090982  0.66090982  0.12593480  1
  N  N10  1  0.34154708  0.00100897  0.12632287  1
  N  N11  1  0.00100897  0.34154708  0.12632287  1
loop_
_geom_bond_atom_site_label_1
_geom_bond_atom_site_label_2
_geom_bond_distance
_geom_bond_site_symmetry_2
N0 Zr2 2.159307 1_555
N0 Zr3 2.159307 1_555
N0 Ta4 2.192304 1_655
N0 Ta3 2.192304 1_565
N0 Ta2 2.207767 1_555
N1 Zr2 2.166114 1_545
N1 Zr3 2.168008 1_555
N1 Ta2 2.188824 1_555
N1 Ta4 2.191158 1_545
N1 Ta3 2.198739 1_555
N2 Zr3 2.166114 1_455
N2 Zr2 2.168008 1_555
N2 Ta2 2.188824 1_555
N2 Ta3 2.191158 1_455
N2 Ta4 2.198739 1_555
N3 Ta1 2.167447 1_455
N3 Ta0 2.167447 1_545
N3 Tc0 2.171141 1_555
N3 Zr3 2.256491 1_555
N3 Zr2 2.256491 1_555
N4 Ta0 2.147896 1_545
N4 Ta1 2.160385 1_555
N4 Tc0 2.199996 1_545
N4 Zr3 2.233265 1_555
N4 Zr2 2.243300 1_545
N5 Ta1 2.147896 1_455
N5 Ta0 2.160385 1_555
N5 Tc0 2.199996 1_455
N5 Zr2 2.233265 1_555
N5 Zr3 2.243300 1_455
N6 Ta1 2.167447 1_455
N6 Ta0 2.167447 1_545
N6 Tc0 2.171141 1_555
N6 Zr0 2.256491 1_556
N6 Zr1 2.256491 1_556
N7 Ta0 2.147896 1_545
N7 Ta1 2.160385 1_555
N7 Tc0 2.199996 1_545
N7 Zr0 2.233265 1_556
N7 Zr1 2.243300 1_546
N8 Ta1 2.147896 1_455
N8 Ta0 2.160385 1_555
N8 Tc0 2.199996 1_455
N8 Zr1 2.233265 1_556
N8 Zr0 2.243300 1_456
N9 Zr1 2.159307 1_555
N9 Zr0 2.159307 1_555
N9 Ta4 2.192304 1_655
N9 Ta3 2.192304 1_565
N9 Ta2 2.207767 1_555
N10 Zr1 2.166114 1_545
N10 Zr0 2.168008 1_555
N10 Ta2 2.188824 1_555
N10 Ta4 2.191158 1_545
N10 Ta3 2.198739 1_555
N11 Zr0 2.166114 1_455
N11 Zr1 2.168008 1_555
N11 Ta2 2.188824 1_555
N11 Ta3 2.191158 1_455
N11 Ta4 2.198739 1_555
