# generated using pymatgen
data_CsOsBr6
_symmetry_space_group_name_H-M   'P 1'
_cell_length_a   7.19696723
_cell_length_b   7.19696794
_cell_length_c   12.90961365
_cell_angle_alpha   79.13889141
_cell_angle_beta   79.13888982
_cell_angle_gamma   55.94064398
_symmetry_Int_Tables_number   1
_chemical_formula_structural   CsOsBr6
_chemical_formula_sum   'Cs2 Os2 Br12'
_cell_volume   541.21091704
_cell_formula_units_Z   2
loop_
 _symmetry_equiv_pos_site_id
 _symmetry_equiv_pos_as_xyz
  1  'x, y, z'
loop_
 _atom_site_type_symbol
 _atom_site_label
 _atom_site_symmetry_multiplicity
 _atom_site_fract_x
 _atom_site_fract_y
 _atom_site_fract_z
 _atom_site_occupancy
  Cs  Cs0  1  0.89048775  0.10951225  0.75000000  1
  Cs  Cs1  1  0.10951225  0.89048775  0.25000000  1
  Os  Os0  1  0.50000000  0.00000000  0.50000000  1
  Os  Os1  1  0.00000000  0.50000000  0.00000000  1
  Br  Br0  1  0.45678720  0.69791677  0.60521745  1
  Br  Br1  1  0.54321280  0.30208323  0.39478255  1
  Br  Br2  1  0.30208323  0.54321280  0.89478255  1
  Br  Br3  1  0.69791677  0.45678720  0.10521745  1
  Br  Br4  1  0.37160214  0.20140401  0.66039507  1
  Br  Br5  1  0.62839786  0.79859599  0.33960493  1
  Br  Br6  1  0.79859599  0.62839786  0.83960493  1
  Br  Br7  1  0.20140401  0.37160214  0.16039507  1
  Br  Br8  1  0.79254153  0.89543304  0.03980829  1
  Br  Br9  1  0.20745847  0.10456696  0.96019171  1
  Br  Br10  1  0.10456696  0.20745847  0.46019171  1
  Br  Br11  1  0.89543304  0.79254153  0.53980829  1
loop_
_geom_bond_atom_site_label_1
_geom_bond_atom_site_label_2
_geom_bond_distance
_geom_bond_site_symmetry_2
Br0 Os0 2.480653 1_565
Br0 Cs0 3.817316 1_465
Br0 Cs0 3.947069 1_555
Br1 Os0 2.480653 1_555
Br1 Cs1 3.817316 1_645
Br1 Cs1 3.947069 1_555
Br2 Os1 2.480653 1_556
Br2 Cs0 3.817316 1_465
Br2 Cs0 3.947068 1_555
Br3 Os1 2.480653 1_655
Br3 Cs1 3.817316 1_645
Br3 Cs1 3.947068 1_555
Br4 Os0 2.480362 1_555
Br4 Cs0 3.780815 1_555
Br4 Cs0 3.812091 1_455
Br5 Os0 2.480362 1_565
Br5 Cs1 3.780815 1_555
Br5 Cs1 3.812091 1_655
Br6 Os1 2.480361 1_656
Br6 Cs0 3.780815 1_555
Br6 Cs0 3.812092 1_565
Br7 Os1 2.480361 1_555
Br7 Cs1 3.780815 1_555
Br7 Cs1 3.812092 1_545
Br8 Os1 2.468832 1_655
Br8 Cs1 3.843665 1_655
Br8 Cs0 3.862441 1_564
Br9 Os1 2.468832 1_556
Br9 Cs0 3.843665 1_455
Br9 Cs1 3.862441 1_546
Br10 Os0 2.468831 1_555
Br10 Cs1 3.843666 1_545
Br10 Cs0 3.862441 1_455
Br11 Os0 2.468831 1_565
Br11 Cs0 3.843666 1_565
Br11 Cs1 3.862441 1_655
