# generated using pymatgen
data_Sr10P6HClO24
_symmetry_space_group_name_H-M   'P 1'
_cell_length_a   9.81348966
_cell_length_b   9.81349140
_cell_length_c   7.18969796
_cell_angle_alpha   90.00000000
_cell_angle_beta   90.00000000
_cell_angle_gamma   120.00000375
_symmetry_Int_Tables_number   1
_chemical_formula_structural   Sr10P6HClO24
_chemical_formula_sum   'Sr10 P6 H1 Cl1 O24'
_cell_volume   599.63679837
_cell_formula_units_Z   1
loop_
 _symmetry_equiv_pos_site_id
 _symmetry_equiv_pos_as_xyz
  1  'x, y, z'
loop_
 _atom_site_type_symbol
 _atom_site_label
 _atom_site_symmetry_multiplicity
 _atom_site_fract_x
 _atom_site_fract_y
 _atom_site_fract_z
 _atom_site_occupancy
  Sr  Sr0  1  0.33333300  0.66666700  0.49675358  1
  Sr  Sr1  1  0.66666700  0.33333300  0.00186019  1
  Sr  Sr2  1  0.66666700  0.33333300  0.50324642  1
  Sr  Sr3  1  0.33333300  0.66666700  0.99813981  1
  Sr  Sr4  1  0.24187624  0.98965800  0.25577964  1
  Sr  Sr5  1  0.74778076  0.75812376  0.25577964  1
  Sr  Sr6  1  0.01034200  0.25221924  0.25577964  1
  Sr  Sr7  1  0.75812376  0.01034200  0.74422036  1
  Sr  Sr8  1  0.25221924  0.24187624  0.74422036  1
  Sr  Sr9  1  0.98965800  0.74778076  0.74422036  1
  P  P0  1  0.96727456  0.59500577  0.24823573  1
  P  P1  1  0.62773220  0.03272544  0.24823573  1
  P  P2  1  0.40499423  0.37226780  0.24823573  1
  P  P3  1  0.03272544  0.40499423  0.75176427  1
  P  P4  1  0.37226780  0.96727456  0.75176427  1
  P  P5  1  0.59500577  0.62773220  0.75176427  1
  H  H0  1  0.00000000  0.00000000  0.50000000  1
  Cl  Cl0  1  0.00000000  0.00000000  0.00000000  1
  O  O0  1  0.91517347  0.65326481  0.41832902  1
  O  O1  1  0.73809135  0.08482653  0.41832902  1
  O  O2  1  0.34673519  0.26190865  0.41832902  1
  O  O3  1  0.08892892  0.35834976  0.92746588  1
  O  O4  1  0.26941984  0.91107108  0.92746588  1
  O  O5  1  0.64165024  0.73058016  0.92746588  1
  O  O6  1  0.08482653  0.34673519  0.58167098  1
  O  O7  1  0.26190865  0.91517347  0.58167098  1
  O  O8  1  0.65326481  0.73809135  0.58167098  1
  O  O9  1  0.91107108  0.64165024  0.07253412  1
  O  O10  1  0.73058016  0.08892892  0.07253412  1
  O  O11  1  0.35834976  0.26941984  0.07253412  1
  O  O12  1  0.14706511  0.66626925  0.24886197  1
  O  O13  1  0.51920414  0.85293489  0.24886197  1
  O  O14  1  0.33373075  0.48079586  0.24886197  1
  O  O15  1  0.85293489  0.33373075  0.75113803  1
  O  O16  1  0.48079586  0.14706511  0.75113803  1
  O  O17  1  0.66626925  0.51920414  0.75113803  1
  O  O18  1  0.88232711  0.41362149  0.25657031  1
  O  O19  1  0.53129438  0.11767289  0.25657031  1
  O  O20  1  0.58637851  0.46870562  0.25657031  1
  O  O21  1  0.11767289  0.58637851  0.74342969  1
  O  O22  1  0.46870562  0.88232711  0.74342969  1
  O  O23  1  0.41362149  0.53129438  0.74342969  1
loop_
_geom_bond_atom_site_label_1
_geom_bond_atom_site_label_2
_geom_bond_distance
_geom_bond_site_symmetry_2
H0 Sr7 2.994746 1_455
H0 Sr4 2.994746 1_545
H0 Sr8 2.994750 1_555
H0 Sr5 2.994750 1_445
H0 Sr6 2.994754 1_555
H0 Sr9 2.994754 1_445
Cl0 Sr4 3.044218 1_545
Cl0 Sr7 3.044218 1_454
Cl0 Sr8 3.044222 1_554
Cl0 Sr5 3.044222 1_445
Cl0 Sr6 3.044226 1_555
Cl0 Sr9 3.044226 1_444
O0 P0 1.541474 1_555
O0 Sr9 2.491296 1_555
O0 Sr5 2.610289 1_555
O0 Sr2 2.919034 1_555
O1 P1 1.541468 1_555
O1 Sr7 2.491298 1_555
O1 Sr6 2.610281 1_655
O1 Sr2 2.919028 1_555
O2 P2 1.541469 1_555
O2 Sr8 2.491295 1_555
O2 Sr4 2.610281 1_545
O2 Sr2 2.919037 1_555
O3 P3 1.536877 1_555
O3 Sr6 2.539318 1_556
O3 Sr8 2.727945 1_555
O3 Sr3 2.812209 1_555
O4 P4 1.536877 1_555
O4 Sr4 2.539318 1_556
O4 Sr9 2.727931 1_455
O4 Sr3 2.812209 1_555
O5 P5 1.536877 1_555
O5 Sr5 2.539318 1_556
O5 Sr7 2.727930 1_565
O5 Sr3 2.812209 1_555
O6 P3 1.541474 1_555
O6 Sr6 2.491296 1_555
O6 Sr8 2.610289 1_555
O6 Sr0 2.919034 1_555
O7 P4 1.541468 1_555
O7 Sr4 2.491298 1_555
O7 Sr9 2.610281 1_455
O7 Sr0 2.919028 1_555
O8 P5 1.541469 1_555
O8 Sr5 2.491295 1_555
O8 Sr7 2.610281 1_565
O8 Sr0 2.919037 1_555
O9 P0 1.536877 1_555
O9 Sr9 2.539318 1_554
O9 Sr5 2.727945 1_555
O9 Sr1 2.812209 1_555
O10 P1 1.536877 1_555
O10 Sr7 2.539318 1_554
O10 Sr6 2.727931 1_655
O10 Sr1 2.812209 1_555
O11 P2 1.536877 1_555
O11 Sr8 2.539318 1_554
O11 Sr4 2.727930 1_545
O11 Sr1 2.812209 1_555
O12 P0 1.538899 1_455
O12 Sr0 2.551609 1_555
O12 Sr3 2.565865 1_554
O12 Sr4 2.826120 1_555
O13 P1 1.538900 1_565
O13 Sr0 2.551613 1_555
O13 Sr3 2.565869 1_554
O13 Sr5 2.826110 1_555
O14 P2 1.538908 1_555
O14 Sr0 2.551616 1_555
O14 Sr3 2.565872 1_554
O14 Sr6 2.826117 1_555
O15 P3 1.538899 1_655
O15 Sr2 2.551609 1_555
O15 Sr1 2.565865 1_556
O15 Sr7 2.826120 1_555
O16 P4 1.538900 1_545
O16 Sr2 2.551613 1_555
O16 Sr1 2.565869 1_556
O16 Sr8 2.826110 1_555
O17 P5 1.538908 1_555
O17 Sr2 2.551616 1_555
O17 Sr1 2.565872 1_556
O17 Sr9 2.826117 1_555
O18 P0 1.543730 1_555
O18 Sr6 2.465135 1_655
O18 Sr2 2.564711 1_555
O18 Sr1 2.604988 1_555
O19 P1 1.543739 1_555
O19 Sr4 2.465143 1_545
O19 Sr2 2.564712 1_555
O19 Sr1 2.604989 1_555
O20 P2 1.543730 1_555
O20 Sr5 2.465143 1_555
O20 Sr2 2.564717 1_555
O20 Sr1 2.604995 1_555
O21 P3 1.543730 1_555
O21 Sr9 2.465135 1_455
O21 Sr0 2.564711 1_555
O21 Sr3 2.604988 1_555
O22 P4 1.543739 1_555
O22 Sr7 2.465143 1_565
O22 Sr0 2.564712 1_555
O22 Sr3 2.604989 1_555
O23 P5 1.543730 1_555
O23 Sr8 2.465143 1_555
O23 Sr0 2.564717 1_555
O23 Sr3 2.604995 1_555
