# generated using pymatgen
data_Si19Te8
_symmetry_space_group_name_H-M   'P 1'
_cell_length_a   10.55554921
_cell_length_b   10.55554921
_cell_length_c   10.55554896
_cell_angle_alpha   89.64445406
_cell_angle_beta   89.64445406
_cell_angle_gamma   89.64445227
_symmetry_Int_Tables_number   1
_chemical_formula_structural   Si19Te8
_chemical_formula_sum   'Si38 Te16'
_cell_volume   1176.02759272
_cell_formula_units_Z   2
loop_
 _symmetry_equiv_pos_site_id
 _symmetry_equiv_pos_as_xyz
  1  'x, y, z'
loop_
 _atom_site_type_symbol
 _atom_site_label
 _atom_site_symmetry_multiplicity
 _atom_site_fract_x
 _atom_site_fract_y
 _atom_site_fract_z
 _atom_site_occupancy
  Si  Si0  1  0.53015800  0.61829200  0.16852700  1
  Si  Si1  1  0.61829200  0.16852700  0.53015800  1
  Si  Si2  1  0.16852700  0.53015800  0.61829200  1
  Si  Si3  1  0.66852700  0.11829200  0.03015800  1
  Si  Si4  1  0.85662600  0.85662600  0.85662600  1
  Si  Si5  1  0.35662600  0.35662600  0.35662600  1
  Si  Si6  1  0.11829200  0.03015800  0.66852700  1
  Si  Si7  1  0.03015800  0.66852700  0.11829200  1
  Si  Si8  1  0.42642900  0.41797100  0.14987000  1
  Si  Si9  1  0.41797100  0.14987000  0.42642900  1
  Si  Si10  1  0.14987000  0.42642900  0.41797100  1
  Si  Si11  1  0.64987000  0.91797100  0.92642900  1
  Si  Si12  1  0.91797100  0.92642900  0.64987000  1
  Si  Si13  1  0.92642900  0.64987000  0.91797100  1
  Si  Si14  1  0.50359900  0.38873300  0.81790600  1
  Si  Si15  1  0.38873300  0.81790600  0.50359900  1
  Si  Si16  1  0.81790600  0.50359900  0.38873300  1
  Si  Si17  1  0.31790600  0.88873300  0.00359900  1
  Si  Si18  1  0.99205700  0.50302500  0.75802200  1
  Si  Si19  1  0.75802200  0.99205700  0.50302500  1
  Si  Si20  1  0.50302500  0.75802200  0.99205700  1
  Si  Si21  1  0.00302500  0.49205700  0.25802200  1
  Si  Si22  1  0.25802200  0.00302500  0.49205700  1
  Si  Si23  1  0.49205700  0.25802200  0.00302500  1
  Si  Si24  1  0.16525900  0.17432600  0.83070200  1
  Si  Si25  1  0.83070200  0.16525900  0.17432500  1
  Si  Si26  1  0.17432600  0.83070200  0.16525900  1
  Si  Si27  1  0.67432600  0.66525900  0.33070200  1
  Si  Si28  1  0.33070200  0.67432600  0.66525900  1
  Si  Si29  1  0.66525900  0.33070200  0.67432500  1
  Si  Si30  1  0.98022300  0.31921700  0.11389500  1
  Si  Si31  1  0.11389500  0.98022300  0.31921700  1
  Si  Si32  1  0.31921700  0.11389500  0.98022300  1
  Si  Si33  1  0.81921700  0.48022300  0.61389500  1
  Si  Si34  1  0.61389500  0.81921700  0.48022300  1
  Si  Si35  1  0.48022300  0.61389500  0.81921700  1
  Si  Si36  1  0.00359900  0.31790600  0.88873300  1
  Si  Si37  1  0.88873300  0.00359900  0.31790600  1
  Te  Te0  1  0.30917600  0.31655700  0.68255400  1
  Te  Te1  1  0.31655700  0.68255400  0.30917600  1
  Te  Te2  1  0.68255400  0.30917600  0.31655700  1
  Te  Te3  1  0.18255400  0.81655700  0.80917600  1
  Te  Te4  1  0.81655700  0.80917600  0.18255400  1
  Te  Te5  1  0.80917600  0.18255400  0.81655700  1
  Te  Te6  1  0.00520400  0.24659400  0.50932000  1
  Te  Te7  1  0.24659400  0.50932000  0.00520400  1
  Te  Te8  1  0.50932000  0.00520400  0.24659400  1
  Te  Te9  1  0.00932000  0.74659400  0.50520400  1
  Te  Te10  1  0.74659400  0.50520400  0.00932000  1
  Te  Te11  1  0.50520400  0.00932000  0.74659400  1
  Te  Te12  1  0.68784200  0.68784200  0.68784200  1
  Te  Te13  1  0.18784200  0.18784200  0.18784200  1
  Te  Te14  1  0.50004600  0.50004600  0.50004600  1
  Te  Te15  1  0.00004600  0.00004600  0.00004600  1
loop_
_geom_bond_atom_site_label_1
_geom_bond_atom_site_label_2
_geom_bond_distance
_geom_bond_site_symmetry_2
Si0 Si27 2.354616 1_555
Si0 Si20 2.386317 1_554
Si0 Si8 2.396937 1_555
Si0 Te1 2.774847 1_555
Si0 Te10 3.067878 1_555
Si1 Si29 2.354609 1_555
Si1 Si19 2.386317 1_545
Si1 Si9 2.396937 1_555
Si1 Te2 2.774847 1_555
Si1 Te11 3.067878 1_555
Si2 Si28 2.354616 1_555
Si2 Te0 2.774847 1_555
Si2 Te9 3.067878 1_555
Si3 Te5 2.774847 1_554
Si3 Te8 3.067878 1_555
Si4 Te15 2.638333 1_666
Si4 Te12 3.104925 1_555
Si5 Si8 2.386122 1_555
Si5 Si9 2.386122 1_555
Si5 Te14 2.638333 1_555
Si5 Te13 3.104925 1_555
Si6 Te3 2.774847 1_545
Si6 Te6 3.067878 1_555
Si7 Te4 2.774847 1_455
Si7 Te7 3.067878 1_555
Si8 Te7 2.619149 1_555
Si9 Te8 2.619149 1_555
Si10 Si5 2.386122 1_555
Si10 Si21 2.395337 1_555
Si10 Si2 2.396937 1_555
Si10 Te6 2.619149 1_555
Si11 Si4 2.386122 1_555
Si11 Si20 2.395337 1_555
Si11 Si3 2.396937 1_566
Si11 Te11 2.619149 1_565
Si12 Si4 2.386122 1_555
Si12 Si19 2.395337 1_555
Si12 Si6 2.396937 1_665
Si12 Te9 2.619149 1_655
Si13 Si4 2.386122 1_555
Si13 Si18 2.395337 1_555
Si13 Si7 2.396937 1_656
Si13 Te10 2.619149 1_556
Si14 Si29 2.355945 1_555
Si14 Si23 2.387971 1_556
Si14 Si35 2.388076 1_555
Si14 Te0 2.627290 1_555
Si15 Si28 2.355938 1_555
Si15 Si22 2.387971 1_565
Si15 Si34 2.388076 1_555
Si15 Te1 2.627290 1_555
Si16 Si27 2.355938 1_555
Si16 Si21 2.387971 1_655
Si16 Si33 2.388076 1_555
Si16 Te2 2.627290 1_555
Si17 Si26 2.355938 1_555
Si17 Si20 2.387971 1_554
Si17 Si32 2.388076 1_564
Si17 Te3 2.627290 1_554
Si18 Si2 2.386317 1_655
Si18 Si36 2.387971 1_655
Si18 Si33 2.396948 1_555
Si19 Si37 2.387971 1_565
Si19 Si34 2.396948 1_555
Si20 Si35 2.396948 1_555
Si21 Si7 2.386317 1_555
Si21 Si30 2.396948 1_455
Si22 Si6 2.386317 1_555
Si22 Si9 2.395337 1_555
Si22 Si31 2.396948 1_545
Si23 Si3 2.386317 1_555
Si23 Si8 2.395337 1_555
Si23 Si32 2.396948 1_554
Si24 Si6 2.354616 1_555
Si24 Si32 2.354848 1_555
Si24 Si36 2.355938 1_555
Si24 Te0 2.641367 1_555
Si24 Te15 3.095316 1_556
Si25 Si3 2.354609 1_555
Si25 Si30 2.354845 1_555
Si25 Si37 2.355945 1_555
Si25 Te2 2.641373 1_555
Si25 Te15 3.095310 1_655
Si26 Si7 2.354616 1_555
Si26 Si31 2.354848 1_555
Si26 Te1 2.641367 1_555
Si26 Te15 3.095316 1_565
Si27 Si34 2.354848 1_555
Si27 Te4 2.641367 1_555
Si27 Te14 3.095316 1_555
Si28 Si35 2.354848 1_555
Si28 Te3 2.641367 1_555
Si28 Te14 3.095316 1_555
Si29 Si33 2.354845 1_555
Si29 Te5 2.641373 1_555
Si29 Te14 3.095310 1_555
Si30 Si36 2.388076 1_654
Si30 Te13 2.702811 1_655
Si31 Si37 2.388076 1_465
Si31 Te13 2.702811 1_565
Si32 Te13 2.702811 1_556
Si33 Te12 2.702811 1_555
Si34 Te12 2.702811 1_555
Si35 Te12 2.702811 1_555
Si36 Te5 2.627290 1_455
Si37 Te4 2.627290 1_545
