# generated using pymatgen
data_ZrBe13
_symmetry_space_group_name_H-M   'P 1'
_cell_length_a   7.07550274
_cell_length_b   7.07550028
_cell_length_c   7.07546843
_cell_angle_alpha   60.00014888
_cell_angle_beta   60.00016037
_cell_angle_gamma   60.00036663
_symmetry_Int_Tables_number   1
_chemical_formula_structural   ZrBe13
_chemical_formula_sum   'Zr2 Be26'
_cell_volume   250.47066814
_cell_formula_units_Z   2
loop_
 _symmetry_equiv_pos_site_id
 _symmetry_equiv_pos_as_xyz
  1  'x, y, z'
loop_
 _atom_site_type_symbol
 _atom_site_label
 _atom_site_symmetry_multiplicity
 _atom_site_fract_x
 _atom_site_fract_y
 _atom_site_fract_z
 _atom_site_occupancy
  Zr  Zr0  1  0.25000000  0.25000000  0.25000000  1
  Zr  Zr1  1  0.75000000  0.75000000  0.75000000  1
  Be  Be0  1  -0.00000000  -0.00000000  0.00000000  1
  Be  Be1  1  0.50000000  0.50000000  0.50000000  1
  Be  Be2  1  0.29363046  0.06180209  0.93819891  1
  Be  Be3  1  0.43819891  0.56180109  0.79363046  1
  Be  Be4  1  0.79363146  0.20636854  0.43819891  1
  Be  Be5  1  0.43819891  0.79363146  0.20636854  1
  Be  Be6  1  0.56180109  0.20636854  0.79363146  1
  Be  Be7  1  0.56180209  0.79363046  0.43819891  1
  Be  Be8  1  0.79363046  0.56180209  0.20636854  1
  Be  Be9  1  0.93819891  0.29363146  0.06180109  1
  Be  Be10  1  0.06180109  0.93819891  0.29363146  1
  Be  Be11  1  0.70636854  0.29363146  0.93819891  1
  Be  Be12  1  0.06180109  0.70636854  0.93819891  1
  Be  Be13  1  0.70636854  0.06180109  0.29363146  1
  Be  Be14  1  0.93819891  0.06180109  0.70636854  1
  Be  Be15  1  0.29363146  0.93819891  0.70636854  1
  Be  Be16  1  0.29363146  0.70636854  0.06180109  1
  Be  Be17  1  0.79363146  0.43819891  0.56180109  1
  Be  Be18  1  0.20636854  0.79363146  0.56180109  1
  Be  Be19  1  0.20636954  0.43819791  0.79363146  1
  Be  Be20  1  0.43819791  0.20636954  0.56180109  1
  Be  Be21  1  0.56180109  0.43819891  0.20636954  1
  Be  Be22  1  0.20636854  0.56180109  0.43819891  1
  Be  Be23  1  0.93819791  0.70636954  0.29363146  1
  Be  Be24  1  0.70636954  0.93819791  0.06180109  1
  Be  Be25  1  0.06180209  0.29363046  0.70636854  1
loop_
_geom_bond_atom_site_label_1
_geom_bond_atom_site_label_2
_geom_bond_distance
_geom_bond_site_symmetry_2
Be0 Be14 2.123099 1_454
Be0 Be10 2.123099 1_545
Be0 Be23 2.123105 1_445
Be0 Be25 2.123105 1_554
Be0 Be2 2.123105 1_554
Be0 Be24 2.123105 1_445
Be0 Be12 2.123108 1_544
Be0 Be9 2.123108 1_455
Be0 Be15 2.123109 1_544
Be0 Be13 2.123109 1_455
Be0 Be16 2.123119 1_545
Be0 Be11 2.123119 1_454
Be1 Be21 2.123092 1_555
Be1 Be3 2.123092 1_555
Be1 Be20 2.123105 1_555
Be1 Be7 2.123105 1_555
Be1 Be19 2.123105 1_555
Be1 Be8 2.123105 1_555
Be1 Be5 2.123108 1_555
Be1 Be6 2.123108 1_555
Be1 Be22 2.123109 1_555
Be1 Be17 2.123109 1_555
Be1 Be4 2.123119 1_555
Be1 Be18 2.123119 1_555
Be2 Be6 2.155588 1_555
Be2 Be5 2.155593 1_546
Be2 Be20 2.187054 1_555
Be2 Be9 2.211339 1_456
Be2 Be25 2.319748 1_555
Be2 Zr0 2.929342 1_556
Be2 Zr1 2.929374 1_545
Be3 Be7 2.211326 1_555
Be3 Be6 2.211338 1_555
Be3 Zr0 2.929354 1_556
Be3 Zr1 2.929354 1_555
Be4 Be9 2.187053 1_555
Be4 Be6 2.211331 1_555
Be4 Be8 2.211342 1_555
Be4 Zr1 2.929357 1_545
Be4 Zr0 2.929358 1_655
Be5 Be7 2.211328 1_555
Be5 Be8 2.211339 1_555
Be5 Zr1 2.929349 1_554
Be5 Zr0 2.929361 1_565
Be6 Zr0 2.929349 1_556
Be6 Zr1 2.929361 1_545
Be7 Be8 2.319748 1_555
Be7 Zr1 2.929342 1_555
Be7 Zr0 2.929374 1_565
Be8 Be9 2.155593 1_555
Be8 Zr1 2.929342 1_554
Be8 Zr0 2.929374 1_655
Be9 Zr0 2.929349 1_655
Be9 Zr1 2.929361 1_554
Be10 Be18 2.155582 1_555
Be10 Be4 2.155594 1_465
Be10 Be22 2.187068 1_555
Be10 Be5 2.187069 1_555
Be10 Be23 2.211330 1_455
Be10 Be2 2.211331 1_564
Be10 Be9 2.211341 1_465
Be10 Be13 2.211341 1_465
Be10 Be16 2.319758 1_555
Be10 Zr0 2.929350 1_565
Be10 Zr1 2.929351 1_455
Be11 Be21 2.155588 1_556
Be11 Be3 2.155598 1_555
Be11 Be17 2.187053 1_555
Be11 Be6 2.187053 1_555
Be11 Be13 2.211331 1_556
Be11 Be9 2.211331 1_556
Be11 Be24 2.211342 1_546
Be11 Be25 2.211343 1_655
Be11 Be14 2.319758 1_555
Be11 Zr1 2.929357 1_555
Be11 Zr0 2.929358 1_556
Be12 Be8 2.155588 1_456
Be12 Be19 2.155593 1_555
Be12 Be18 2.187053 1_555
Be12 Be3 2.187070 1_555
Be12 Be23 2.211328 1_456
Be12 Be16 2.211331 1_556
Be12 Be24 2.211339 1_456
Be12 Be14 2.211341 1_465
Be12 Be15 2.319756 1_555
Be12 Zr1 2.929349 1_455
Be12 Zr0 2.929361 1_556
Be13 Be7 2.155588 1_545
Be13 Be20 2.155593 1_555
Be13 Be4 2.187053 1_555
Be13 Be21 2.187069 1_555
Be13 Be24 2.211328 1_545
Be13 Be23 2.211339 1_545
Be13 Be9 2.319756 1_555
Be13 Zr1 2.929349 1_545
Be13 Zr0 2.929362 1_555
Be14 Be4 2.155582 1_555
Be14 Be18 2.155594 1_645
Be14 Be17 2.187068 1_555
Be14 Be6 2.187069 1_555
Be14 Be25 2.211330 1_655
Be14 Be24 2.211331 1_546
Be14 Be15 2.211341 1_645
Be14 Zr1 2.929350 1_545
Be14 Zr0 2.929351 1_655
Be15 Be20 2.155588 1_565
Be15 Be7 2.155593 1_555
Be15 Be18 2.187053 1_555
Be15 Be3 2.187069 1_555
Be15 Be2 2.211328 1_565
Be15 Be16 2.211331 1_556
Be15 Be25 2.211339 1_565
Be15 Zr0 2.929349 1_565
Be15 Zr1 2.929362 1_555
Be16 Be3 2.155588 1_554
Be16 Be21 2.155598 1_555
Be16 Be22 2.187053 1_555
Be16 Be5 2.187053 1_555
Be16 Be2 2.211342 1_564
Be16 Be23 2.211343 1_455
Be16 Zr0 2.929357 1_555
Be16 Zr1 2.929358 1_554
Be17 Be23 2.155588 1_555
Be17 Be25 2.155593 1_655
Be17 Be8 2.211328 1_555
Be17 Be4 2.211331 1_555
Be17 Be3 2.211339 1_555
Be17 Be7 2.211339 1_555
Be17 Be6 2.319756 1_555
Be17 Zr1 2.929349 1_555
Be17 Zr0 2.929362 1_655
Be18 Be22 2.211331 1_555
Be18 Be5 2.211331 1_555
Be18 Be19 2.211342 1_555
Be18 Be7 2.211343 1_555
Be18 Be3 2.319753 1_555
Be18 Zr0 2.929357 1_565
Be18 Zr1 2.929358 1_455
Be19 Be9 2.155588 1_456
Be19 Be25 2.187054 1_555
Be19 Be2 2.187056 1_555
Be19 Be3 2.211327 1_555
Be19 Be22 2.211328 1_555
Be19 Be6 2.211339 1_555
Be19 Be20 2.319748 1_555
Be19 Zr0 2.929342 1_556
Be19 Zr1 2.929374 1_455
Be20 Be25 2.187057 1_555
Be20 Be21 2.211326 1_555
Be20 Be6 2.211328 1_555
Be20 Be22 2.211339 1_555
Be20 Be4 2.211343 1_555
Be20 Zr0 2.929342 1_555
Be20 Zr1 2.929374 1_545
Be21 Be9 2.187070 1_555
Be21 Be8 2.211327 1_555
Be21 Be5 2.211338 1_555
Be21 Be22 2.211339 1_555
Be21 Be4 2.319753 1_555
Be21 Zr1 2.929354 1_554
Be21 Zr0 2.929354 1_555
Be22 Be25 2.155588 1_555
Be22 Be23 2.155593 1_455
Be22 Be5 2.319756 1_555
Be22 Zr0 2.929349 1_555
Be22 Zr1 2.929362 1_455
Be23 Be8 2.187054 1_555
Be23 Be7 2.187057 1_555
Be23 Be24 2.319748 1_555
Be23 Zr1 2.929342 1_555
Be23 Zr0 2.929374 1_655
Be24 Be5 2.155588 1_555
Be24 Be6 2.155593 1_564
Be24 Be7 2.187054 1_555
Be24 Be8 2.187056 1_555
Be24 Zr1 2.929342 1_554
Be24 Zr0 2.929374 1_565
Be25 Be9 2.211328 1_456
Be25 Zr0 2.929342 1_555
Be25 Zr1 2.929374 1_455
