# generated using pymatgen
data_NbAlI8
_symmetry_space_group_name_H-M   'P 1'
_cell_length_a   10.95545150
_cell_length_b   10.95545116
_cell_length_c   9.47199824
_cell_angle_alpha   90.00000000
_cell_angle_beta   90.00000000
_cell_angle_gamma   129.61031949
_symmetry_Int_Tables_number   1
_chemical_formula_structural   NbAlI8
_chemical_formula_sum   'Nb2 Al2 I16'
_cell_volume   875.82541224
_cell_formula_units_Z   2
loop_
 _symmetry_equiv_pos_site_id
 _symmetry_equiv_pos_as_xyz
  1  'x, y, z'
loop_
 _atom_site_type_symbol
 _atom_site_label
 _atom_site_symmetry_multiplicity
 _atom_site_fract_x
 _atom_site_fract_y
 _atom_site_fract_z
 _atom_site_occupancy
  Nb  Nb0  1  0.60870678  0.39129322  0.25000000  1
  Nb  Nb1  1  0.39129322  0.60870678  0.75000000  1
  Al  Al0  1  0.81255457  0.18744543  0.25000000  1
  Al  Al1  1  0.18744543  0.81255457  0.75000000  1
  I  I0  1  0.51490984  0.05735728  0.25000000  1
  I  I1  1  0.05735728  0.51490984  0.75000000  1
  I  I2  1  0.48509016  0.94264272  0.75000000  1
  I  I3  1  0.94264272  0.48509016  0.25000000  1
  I  I4  1  0.63095433  0.36904567  0.96808498  1
  I  I5  1  0.36904567  0.63095433  0.03191502  1
  I  I6  1  0.63095433  0.36904567  0.53191502  1
  I  I7  1  0.36904567  0.63095433  0.46808498  1
  I  I8  1  0.30734926  0.25823633  0.25000000  1
  I  I9  1  0.25823633  0.30734926  0.75000000  1
  I  I10  1  0.69265074  0.74176367  0.75000000  1
  I  I11  1  0.74176367  0.69265074  0.25000000  1
  I  I12  1  0.88370474  0.11629526  0.46926965  1
  I  I13  1  0.11629526  0.88370474  0.53073035  1
  I  I14  1  0.88370474  0.11629526  0.03073035  1
  I  I15  1  0.11629526  0.88370474  0.96926965  1
loop_
_geom_bond_atom_site_label_1
_geom_bond_atom_site_label_2
_geom_bond_distance
_geom_bond_site_symmetry_2
Al0 I12 2.510686 1_555
Al0 I14 2.510686 1_555
Al0 I3 2.595827 1_555
Al0 I0 2.595827 1_555
Al1 I15 2.510686 1_555
Al1 I13 2.510686 1_555
Al1 I1 2.595827 1_555
Al1 I2 2.595827 1_555
I0 Nb0 3.105854 1_555
I1 Nb1 3.105854 1_555
I2 Nb1 3.105854 1_555
I3 Nb0 3.105854 1_555
I4 Nb0 2.706484 1_556
I5 Nb1 2.706484 1_554
I6 Nb0 2.706484 1_555
I7 Nb1 2.706484 1_555
I8 Nb0 2.624532 1_555
I9 Nb1 2.624531 1_555
I10 Nb1 2.624532 1_555
I11 Nb0 2.624531 1_555
