# generated using pymatgen
data_HfPH
_symmetry_space_group_name_H-M   'P 1'
_cell_length_a   3.50309337
_cell_length_b   3.50309343
_cell_length_c   7.08977697
_cell_angle_alpha   90.00000000
_cell_angle_beta   90.00000000
_cell_angle_gamma   119.99998076
_symmetry_Int_Tables_number   1
_chemical_formula_structural   HfPH
_chemical_formula_sum   'Hf2 P2 H2'
_cell_volume   75.34713145
_cell_formula_units_Z   2
loop_
 _symmetry_equiv_pos_site_id
 _symmetry_equiv_pos_as_xyz
  1  'x, y, z'
loop_
 _atom_site_type_symbol
 _atom_site_label
 _atom_site_symmetry_multiplicity
 _atom_site_fract_x
 _atom_site_fract_y
 _atom_site_fract_z
 _atom_site_occupancy
  Hf  Hf0  1  0.66666700  0.33333300  0.75000000  1
  Hf  Hf1  1  0.33333300  0.66666700  0.25000000  1
  P  P0  1  0.00000000  0.00000000  0.00000000  1
  P  P1  1  0.00000000  0.00000000  0.50000000  1
  H  H0  1  0.66666700  0.33333300  0.25000000  1
  H  H1  1  0.33333300  0.66666700  0.75000000  1
loop_
_geom_bond_atom_site_label_1
_geom_bond_atom_site_label_2
_geom_bond_distance
_geom_bond_site_symmetry_2
Hf0 P1 2.689257 1_655
Hf0 P0 2.689257 1_656
Hf0 P0 2.689260 1_556
Hf0 P1 2.689260 1_555
Hf0 P0 2.689260 1_666
Hf0 P1 2.689260 1_665
Hf1 P0 2.689257 1_565
Hf1 P1 2.689257 1_565
Hf1 P0 2.689260 1_665
Hf1 P1 2.689260 1_665
Hf1 P0 2.689260 1_555
Hf1 P1 2.689260 1_555
H0 Hf1 2.022510 1_655
H0 Hf1 2.022510 1_545
H0 Hf1 2.022516 1_555
H1 Hf0 2.022510 1_455
H1 Hf0 2.022510 1_565
H1 Hf0 2.022516 1_555
