# generated using pymatgen
data_Ca10ReSnN10
_symmetry_space_group_name_H-M   'P 1'
_cell_length_a   6.93772848
_cell_length_b   6.93772736
_cell_length_c   8.93261184
_cell_angle_alpha   80.31270035
_cell_angle_beta   80.31269953
_cell_angle_gamma   59.85391048
_symmetry_Int_Tables_number   1
_chemical_formula_structural   Ca10ReSnN10
_chemical_formula_sum   'Ca10 Re1 Sn1 N10'
_cell_volume   364.71876520
_cell_formula_units_Z   1
loop_
 _symmetry_equiv_pos_site_id
 _symmetry_equiv_pos_as_xyz
  1  'x, y, z'
loop_
 _atom_site_type_symbol
 _atom_site_label
 _atom_site_symmetry_multiplicity
 _atom_site_fract_x
 _atom_site_fract_y
 _atom_site_fract_z
 _atom_site_occupancy
  Ca  Ca0  1  0.87713717  0.35314819  0.82850476  1
  Ca  Ca1  1  0.87340249  0.87340249  0.82054795  1
  Ca  Ca2  1  0.73956863  0.73956863  0.53281699  1
  Ca  Ca3  1  0.74993467  0.24869982  0.51416763  1
  Ca  Ca4  1  0.63243871  0.13703123  0.14971408  1
  Ca  Ca5  1  0.35314819  0.87713717  0.82850476  1
  Ca  Ca6  1  0.24869982  0.74993467  0.51416763  1
  Ca  Ca7  1  0.24205490  0.24205490  0.50458158  1
  Ca  Ca8  1  0.13959063  0.13959063  0.15834035  1
  Ca  Ca9  1  0.13703123  0.63243871  0.14971408  1
  Re  Re0  1  0.63149166  0.63149166  0.22818489  1
  Sn  Sn0  1  0.37032854  0.37032854  0.77677499  1
  N  N0  1  0.90279639  0.47333250  0.31376394  1
  N  N1  1  0.99559316  0.99559316  0.01657769  1
  N  N2  1  0.67401966  0.67401966  0.02263201  1
  N  N3  1  0.54729802  0.54729802  0.68413116  1
  N  N4  1  0.47333250  0.90279639  0.31376394  1
  N  N5  1  0.54904317  0.06800062  0.66833037  1
  N  N6  1  0.47583528  0.47583528  0.29653897  1
  N  N7  1  0.31958160  0.31958160  0.00781824  1
  N  N8  1  0.06195897  0.06195897  0.64790063  1
  N  N9  1  0.06800062  0.54904317  0.66833037  1
loop_
_geom_bond_atom_site_label_1
_geom_bond_atom_site_label_2
_geom_bond_distance
_geom_bond_site_symmetry_2
Ca0 N3 2.454914 1_555
Ca0 N8 2.475237 1_655
Ca0 N9 2.482564 1_655
Ca0 N1 2.581806 1_546
Ca0 N2 2.697087 1_556
Ca1 N9 2.468979 1_655
Ca1 N5 2.468979 1_565
Ca1 N8 2.482299 1_665
Ca1 N1 2.494880 1_556
Ca1 N2 2.706759 1_556
Ca2 N5 2.401872 1_565
Ca2 N9 2.401872 1_655
Ca2 N3 2.441157 1_555
Ca2 N0 2.625359 1_555
Ca2 N4 2.625359 1_555
Ca3 N8 2.307404 1_655
Ca3 N5 2.436900 1_555
Ca3 N3 2.447009 1_555
Ca3 N0 2.615383 1_555
Ca3 N6 2.661165 1_555
Ca4 N7 2.355050 1_555
Ca4 N1 2.371942 1_545
Ca4 N6 2.533457 1_555
Ca4 N4 2.542156 1_545
Ca5 N3 2.454914 1_555
Ca5 N8 2.475237 1_565
Ca5 N5 2.482564 1_565
Ca5 N1 2.581807 1_456
Ca5 N2 2.697087 1_556
Ca6 N8 2.307404 1_565
Ca6 N9 2.436900 1_555
Ca6 N3 2.447009 1_555
Ca6 N4 2.615383 1_555
Ca6 N6 2.661165 1_555
Ca7 N8 2.291859 1_555
Ca7 N9 2.450415 1_555
Ca7 N5 2.450415 1_555
Ca7 N4 2.766981 1_545
Ca7 N0 2.766981 1_455
Ca7 N6 3.054196 1_555
Ca8 N7 2.315725 1_555
Ca8 N1 2.335281 1_445
Ca8 N0 2.545807 1_455
Ca8 N4 2.545807 1_545
Ca9 N7 2.355050 1_555
Ca9 N1 2.371942 1_455
Ca9 N6 2.533457 1_555
Ca9 N0 2.542156 1_455
N0 Re0 1.859760 1_555
N2 Re0 1.807832 1_555
N3 Sn0 2.128343 1_555
N4 Re0 1.859760 1_555
N5 Sn0 2.131323 1_555
N6 Re0 1.852757 1_555
N7 Sn0 2.035360 1_554
N9 Sn0 2.131323 1_555
