# generated using pymatgen
data_NaMg(WN2)2
_symmetry_space_group_name_H-M   'P 1'
_cell_length_a   2.93885442
_cell_length_b   2.93885452
_cell_length_c   11.08730878
_cell_angle_alpha   90.00000000
_cell_angle_beta   90.00000000
_cell_angle_gamma   119.99998789
_symmetry_Int_Tables_number   1
_chemical_formula_structural   NaMg(WN2)2
_chemical_formula_sum   'Na1 Mg1 W2 N4'
_cell_volume   82.93025279
_cell_formula_units_Z   1
loop_
 _symmetry_equiv_pos_site_id
 _symmetry_equiv_pos_as_xyz
  1  'x, y, z'
loop_
 _atom_site_type_symbol
 _atom_site_label
 _atom_site_symmetry_multiplicity
 _atom_site_fract_x
 _atom_site_fract_y
 _atom_site_fract_z
 _atom_site_occupancy
  Na  Na0  1  0.00000000  0.00000000  0.50000000  1
  Mg  Mg0  1  0.00000000  0.00000000  0.00000000  1
  W  W0  1  0.33333300  0.66666700  0.76055838  1
  W  W1  1  0.66666700  0.33333300  0.23944162  1
  N  N0  1  0.66666700  0.33333300  0.65433084  1
  N  N1  1  0.66666700  0.33333300  0.87874179  1
  N  N2  1  0.33333300  0.66666700  0.12125821  1
  N  N3  1  0.33333300  0.66666700  0.34566916  1
loop_
_geom_bond_atom_site_label_1
_geom_bond_atom_site_label_2
_geom_bond_distance
_geom_bond_site_symmetry_2
Mg0 N2 2.164817 1_545
Mg0 N1 2.164817 1_454
Mg0 N2 2.164819 1_445
Mg0 N1 2.164819 1_554
Mg0 N2 2.164819 1_555
Mg0 N1 2.164819 1_444
N0 W0 2.065456 1_655
N0 W0 2.065456 1_545
N0 W0 2.065460 1_555
N0 Na0 2.409743 1_655
N0 Na0 2.409745 1_555
N0 Na0 2.409745 1_665
N1 W0 2.143812 1_655
N1 W0 2.143812 1_545
N1 W0 2.143816 1_555
N2 W1 2.143812 1_455
N2 W1 2.143812 1_565
N2 W1 2.143816 1_555
N3 W1 2.065456 1_455
N3 W1 2.065456 1_565
N3 W1 2.065460 1_555
N3 Na0 2.409743 1_565
N3 Na0 2.409745 1_665
N3 Na0 2.409745 1_555
