# generated using pymatgen
data_Y7Co2Sn23Ru4
_symmetry_space_group_name_H-M   'P 1'
_cell_length_a   9.79587913
_cell_length_b   9.79588014
_cell_length_c   9.94586004
_cell_angle_alpha   90.07597289
_cell_angle_beta   89.92402853
_cell_angle_gamma   120.00385279
_symmetry_Int_Tables_number   1
_chemical_formula_structural   Y7Co2Sn23Ru4
_chemical_formula_sum   'Y7 Co2 Sn23 Ru4'
_cell_volume   826.49928925
_cell_formula_units_Z   1
loop_
 _symmetry_equiv_pos_site_id
 _symmetry_equiv_pos_as_xyz
  1  'x, y, z'
loop_
 _atom_site_type_symbol
 _atom_site_label
 _atom_site_symmetry_multiplicity
 _atom_site_fract_x
 _atom_site_fract_y
 _atom_site_fract_z
 _atom_site_occupancy
  Y  Y0  1  0.99589285  0.00410715  0.99328284  1
  Y  Y1  1  0.03778711  0.51837560  0.30464687  1
  Y  Y2  1  0.48162440  0.96221289  0.30464687  1
  Y  Y3  1  0.48250627  0.51749373  0.30431000  1
  Y  Y4  1  0.96539287  0.48340492  0.69651676  1
  Y  Y5  1  0.51659508  0.03460713  0.69651676  1
  Y  Y6  1  0.51803201  0.48196799  0.69582419  1
  Co  Co0  1  0.33869302  0.16924594  0.20040264  1
  Co  Co1  1  0.83075406  0.66130698  0.20040264  1
  Sn  Sn0  1  0.99981055  0.00018945  0.49644632  1
  Sn  Sn1  1  0.11454266  0.88545734  0.27391947  1
  Sn  Sn2  1  0.76858588  0.87916528  0.27646230  1
  Sn  Sn3  1  0.12083472  0.23141412  0.27646230  1
  Sn  Sn4  1  0.88424271  0.11575729  0.71840489  1
  Sn  Sn5  1  0.23188817  0.11545891  0.72089390  1
  Sn  Sn6  1  0.88454109  0.76811183  0.72089390  1
  Sn  Sn7  1  0.34703244  0.00348472  0.00476304  1
  Sn  Sn8  1  0.65470217  0.65042348  0.00427358  1
  Sn  Sn9  1  0.99871702  0.35001952  0.99998532  1
  Sn  Sn10  1  0.34957652  0.34529783  0.00427358  1
  Sn  Sn11  1  0.99651528  0.65296756  0.00476304  1
  Sn  Sn12  1  0.64998048  0.00128298  0.99998532  1
  Sn  Sn13  1  0.78016980  0.55924641  0.45370137  1
  Sn  Sn14  1  0.77761360  0.22238640  0.45903594  1
  Sn  Sn15  1  0.44075359  0.21983020  0.45370137  1
  Sn  Sn16  1  0.22281590  0.44464569  0.54151539  1
  Sn  Sn17  1  0.22170625  0.77829375  0.54143906  1
  Sn  Sn18  1  0.55535431  0.77718410  0.54151539  1
  Sn  Sn19  1  0.66634085  0.33365915  0.18123175  1
  Sn  Sn20  1  0.33343327  0.66656673  0.82422030  1
  Sn  Sn21  1  0.66663960  0.33336040  0.87728817  1
  Sn  Sn22  1  0.33389420  0.66610580  0.12378805  1
  Ru  Ru0  1  0.16862325  0.83137675  0.80156501  1
  Ru  Ru1  1  0.66288587  0.83032337  0.80085078  1
  Ru  Ru2  1  0.16967663  0.33711413  0.80085078  1
  Ru  Ru3  1  0.83184651  0.16815349  0.20122309  1
loop_
_geom_bond_atom_site_label_1
_geom_bond_atom_site_label_2
_geom_bond_distance
_geom_bond_site_symmetry_2
Co0 Sn7 2.559950 1_555
Co0 Sn10 2.571995 1_555
Co0 Sn3 2.606123 1_555
Co0 Sn1 2.642055 1_545
Co0 Sn15 2.664532 1_555
Co0 Sn19 2.785879 1_555
Co0 Y3 3.142981 1_555
Co0 Y2 3.161922 1_545
Co0 Y0 3.565591 1_454
Co1 Sn11 2.559950 1_555
Co1 Sn8 2.571995 1_555
Co1 Sn2 2.606123 1_555
Co1 Sn1 2.642055 1_655
Co1 Sn13 2.664532 1_555
Co1 Sn19 2.785879 1_555
Co1 Y3 3.142981 1_555
Co1 Y1 3.161921 1_655
Co1 Y0 3.565592 1_564
Sn0 Sn2 2.940006 1_545
Sn0 Sn3 2.940006 1_655
Sn0 Sn1 2.945296 1_645
Sn0 Sn4 2.950446 1_555
Sn0 Sn5 2.977596 1_655
Sn0 Sn6 2.977596 1_545
Sn1 Sn17 3.224955 1_555
Sn1 Y2 3.299611 1_555
Sn1 Y1 3.299611 1_555
Sn1 Sn7 3.323911 1_565
Sn1 Sn11 3.323911 1_455
Sn1 Sn2 3.358615 1_455
Sn1 Sn3 3.358616 1_565
Sn1 Y0 3.443935 1_464
Sn2 Y3 3.248542 1_555
Sn2 Y2 3.305566 1_555
Sn2 Y0 3.414006 1_564
Sn3 Y3 3.248542 1_555
Sn3 Y1 3.305567 1_555
Sn3 Y0 3.414006 1_454
Sn4 Y5 3.284509 1_555
Sn4 Y4 3.284510 1_555
Sn4 Y0 3.328484 1_555
Sn4 Sn5 3.407078 1_655
Sn4 Sn6 3.407079 1_545
Sn4 Sn9 3.432840 1_555
Sn5 Y5 3.266678 1_555
Sn5 Y6 3.277948 1_555
Sn5 Y0 3.367919 1_455
Sn5 Sn6 3.402372 1_445
Sn5 Sn7 3.420611 1_556
Sn6 Y4 3.266678 1_555
Sn6 Y6 3.277947 1_555
Sn6 Y0 3.367919 1_565
Sn6 Sn8 3.426042 1_556
Sn7 Y2 3.368145 1_545
Sn7 Y5 3.425406 1_554
Sn7 Y0 3.444818 1_454
Sn8 Y3 3.353525 1_555
Sn8 Y0 3.406664 1_564
Sn8 Y6 3.422685 1_554
Sn9 Y4 3.370959 1_555
Sn9 Y0 3.375337 1_555
Sn9 Y1 3.377354 1_656
Sn10 Sn8 2.988800 1_555
Sn10 Y3 3.353525 1_555
Sn10 Y0 3.406664 1_454
Sn10 Sn21 3.407040 1_554
Sn10 Y6 3.422685 1_554
Sn10 Sn5 3.426042 1_554
Sn10 Sn22 3.432914 1_555
Sn11 Sn9 2.978802 1_554
Sn11 Y1 3.368145 1_655
Sn11 Sn6 3.420611 1_554
Sn11 Y4 3.425407 1_554
Sn11 Sn21 3.425458 1_554
Sn11 Y0 3.444819 1_564
Sn11 Sn22 3.453267 1_655
Sn12 Sn7 2.978802 1_556
Sn12 Y5 3.370959 1_555
Sn12 Y0 3.375337 1_555
Sn12 Y2 3.377354 1_546
Sn12 Sn21 3.402479 1_555
Sn12 Sn22 3.423004 1_546
Sn12 Sn4 3.432840 1_555
Sn13 Y3 3.113588 1_555
Sn13 Y1 3.118574 1_655
Sn13 Sn6 3.192849 1_555
Sn13 Sn14 3.287889 1_555
Sn13 Sn19 3.316360 1_555
Sn13 Y6 3.318187 1_555
Sn13 Y4 3.322781 1_555
Sn13 Sn15 3.324687 1_555
Sn14 Y2 3.141847 1_545
Sn14 Y1 3.141847 1_655
Sn14 Sn4 3.153110 1_555
Sn14 Y5 3.285092 1_555
Sn14 Y4 3.285092 1_555
Sn14 Sn15 3.287888 1_555
Sn14 Sn19 3.348833 1_555
Sn15 Y3 3.113588 1_555
Sn15 Y2 3.118574 1_545
Sn15 Sn5 3.192849 1_555
Sn15 Sn19 3.316360 1_555
Sn15 Y6 3.318187 1_555
Sn15 Y5 3.322781 1_555
Sn16 Y6 3.131299 1_555
Sn16 Y4 3.134539 1_455
Sn16 Sn3 3.196238 1_555
Sn16 Sn18 3.257317 1_555
Sn16 Y1 3.268338 1_555
Sn16 Sn17 3.273827 1_555
Sn16 Y3 3.274066 1_555
Sn16 Sn20 3.382592 1_555
Sn17 Y5 3.126566 1_565
Sn17 Y4 3.126566 1_455
Sn17 Y2 3.268455 1_555
Sn17 Y1 3.268455 1_555
Sn17 Sn18 3.273826 1_555
Sn17 Sn20 3.394141 1_555
Sn18 Y6 3.131299 1_555
Sn18 Y5 3.134539 1_565
Sn18 Sn2 3.196237 1_555
Sn18 Y2 3.268338 1_555
Sn18 Y3 3.274067 1_555
Sn18 Sn20 3.382592 1_555
Sn19 Sn21 3.022977 1_554
Sn19 Y3 3.349034 1_555
Sn19 Y1 3.382567 1_655
Sn19 Y2 3.382567 1_545
Sn20 Sn22 2.979481 1_556
Sn20 Y4 3.371521 1_455
Sn20 Y5 3.371522 1_565
Sn20 Y6 3.380652 1_555
Sn21 Y6 3.103078 1_555
Sn21 Y4 3.106230 1_555
Sn21 Y5 3.106230 1_555
Sn21 Sn9 3.402478 1_555
Sn21 Sn8 3.407041 1_556
Sn21 Sn7 3.425458 1_556
Sn22 Y1 3.088445 1_555
Sn22 Y2 3.088445 1_555
Sn22 Y3 3.097689 1_555
Sn22 Sn9 3.423004 1_454
Sn22 Sn8 3.432913 1_555
Sn22 Sn7 3.453267 1_565
Ru0 Sn7 2.652290 1_566
Ru0 Sn11 2.652291 1_456
Ru0 Sn6 2.655518 1_455
Ru0 Sn5 2.655518 1_565
Ru0 Sn17 2.738167 1_555
Ru0 Sn20 2.805787 1_555
Ru0 Y5 3.143775 1_565
Ru0 Y4 3.143775 1_455
Ru0 Y0 3.494018 1_465
Ru1 Sn12 2.635435 1_565
Ru1 Sn6 2.652526 1_555
Ru1 Sn8 2.659545 1_556
Ru1 Sn4 2.670209 1_565
Ru1 Sn18 2.736542 1_555
Ru1 Sn20 2.804283 1_555
Ru1 Y6 3.146613 1_555
Ru1 Y5 3.164253 1_565
Ru1 Y0 3.414137 1_565
Ru2 Sn9 2.635435 1_455
Ru2 Sn5 2.652526 1_555
Ru2 Sn10 2.659545 1_556
Ru2 Sn4 2.670209 1_455
Ru2 Sn16 2.736542 1_555
Ru2 Sn20 2.804283 1_555
Ru2 Y6 3.146613 1_555
Ru2 Y4 3.164253 1_455
Ru2 Y0 3.414137 1_455
Ru3 Sn12 2.634413 1_554
Ru3 Sn9 2.634413 1_554
Ru3 Sn3 2.684745 1_655
Ru3 Sn2 2.684745 1_545
Ru3 Sn14 2.722955 1_555
Ru3 Sn19 2.815517 1_555
Ru3 Y2 3.157862 1_545
Ru3 Y1 3.157862 1_655
Ru3 Y0 3.465117 1_554
