# generated using pymatgen
data_Sr2Hf(SiO3)4
_symmetry_space_group_name_H-M   'P 1'
_cell_length_a   13.85080863
_cell_length_b   5.46976585
_cell_length_c   7.47248716
_cell_angle_alpha   72.16156551
_cell_angle_beta   90.00000000
_cell_angle_gamma   90.00000000
_symmetry_Int_Tables_number   1
_chemical_formula_structural   Sr2Hf(SiO3)4
_chemical_formula_sum   'Sr4 Hf2 Si8 O24'
_cell_volume   538.90395479
_cell_formula_units_Z   2
loop_
 _symmetry_equiv_pos_site_id
 _symmetry_equiv_pos_as_xyz
  1  'x, y, z'
loop_
 _atom_site_type_symbol
 _atom_site_label
 _atom_site_symmetry_multiplicity
 _atom_site_fract_x
 _atom_site_fract_y
 _atom_site_fract_z
 _atom_site_occupancy
  Sr  Sr0  1  0.00000000  0.00000000  0.50000000  1
  Sr  Sr1  1  0.25000000  0.16813978  0.17118344  1
  Sr  Sr2  1  0.75000000  0.83186022  0.82881656  1
  Sr  Sr3  1  0.50000000  0.00000000  0.50000000  1
  Hf  Hf0  1  0.50000000  0.00000000  0.00000000  1
  Hf  Hf1  1  0.00000000  0.00000000  0.00000000  1
  Si  Si0  1  0.63923889  0.41360963  0.62172719  1
  Si  Si1  1  0.86543687  0.43027976  0.18594181  1
  Si  Si2  1  0.86076111  0.41360963  0.62172719  1
  Si  Si3  1  0.13456313  0.56972024  0.81405819  1
  Si  Si4  1  0.13923889  0.58639037  0.37827281  1
  Si  Si5  1  0.63456313  0.43027976  0.18594181  1
  Si  Si6  1  0.36543687  0.56972024  0.81405819  1
  Si  Si7  1  0.36076111  0.58639037  0.37827281  1
  O  O0  1  0.07510443  0.80286665  0.84932223  1
  O  O1  1  0.87086246  0.69388147  0.63574112  1
  O  O2  1  0.89442362  0.71641693  0.06048734  1
  O  O3  1  0.11916771  0.60712199  0.58994812  1
  O  O4  1  0.92717369  0.18533508  0.75464715  1
  O  O5  1  0.75000000  0.30437859  0.67779237  1
  O  O6  1  0.88083229  0.39287801  0.41005188  1
  O  O7  1  0.25000000  0.69562141  0.32220763  1
  O  O8  1  0.37086246  0.30611853  0.36425888  1
  O  O9  1  0.75000000  0.40470670  0.14123640  1
  O  O10  1  0.25000000  0.59529330  0.85876360  1
  O  O11  1  0.61916771  0.39287801  0.41005188  1
  O  O12  1  0.10557638  0.28358307  0.93951266  1
  O  O13  1  0.42489557  0.80286665  0.84932223  1
  O  O14  1  0.07282631  0.81466492  0.24535285  1
  O  O15  1  0.92489557  0.19713335  0.15067777  1
  O  O16  1  0.57282631  0.18533508  0.75464715  1
  O  O17  1  0.60557638  0.71641693  0.06048734  1
  O  O18  1  0.62913754  0.69388147  0.63574112  1
  O  O19  1  0.38083229  0.60712199  0.58994812  1
  O  O20  1  0.12913754  0.30611853  0.36425888  1
  O  O21  1  0.42717369  0.81466492  0.24535285  1
  O  O22  1  0.39442362  0.28358307  0.93951266  1
  O  O23  1  0.57510443  0.19713335  0.15067777  1
loop_
_geom_bond_atom_site_label_1
_geom_bond_atom_site_label_2
_geom_bond_distance
_geom_bond_site_symmetry_2
Hf0 O23 2.063096 1_555
Hf0 O13 2.063096 1_544
Hf0 O16 2.065864 1_554
Hf0 O21 2.065864 1_545
Hf0 O17 2.078255 1_545
Hf0 O22 2.078255 1_554
Hf1 O0 2.063096 1_544
Hf1 O15 2.063096 1_455
Hf1 O14 2.065864 1_545
Hf1 O4 2.065864 1_454
Hf1 O12 2.078255 1_554
Hf1 O2 2.078255 1_445
O0 Si3 1.606186 1_555
O0 Sr0 2.708150 1_565
O1 Si2 1.574500 1_555
O1 Sr0 2.447696 1_665
O1 Sr2 2.473996 1_555
O2 Si1 1.609550 1_555
O2 Sr2 2.593730 1_554
O3 Si3 1.637653 1_555
O3 Si4 1.643758 1_555
O3 Sr0 2.628537 1_565
O4 Si2 1.622313 1_555
O4 Sr0 2.616832 1_655
O4 Sr2 3.067719 1_545
O5 Si2 1.653084 1_555
O5 Si0 1.653084 1_555
O5 Sr2 2.483254 1_545
O6 Si1 1.637653 1_555
O6 Si2 1.643758 1_555
O6 Sr0 2.628537 1_655
O7 Si7 1.653084 1_555
O7 Si4 1.653084 1_555
O7 Sr1 2.483254 1_565
O8 Si7 1.574500 1_555
O8 Sr3 2.447696 1_555
O8 Sr1 2.473996 1_555
O9 Si1 1.648106 1_555
O9 Si5 1.648106 1_555
O9 Sr2 2.750861 1_554
O10 Si6 1.648106 1_555
O10 Si3 1.648106 1_555
O10 Sr1 2.750861 1_556
O11 Si5 1.637653 1_555
O11 Si0 1.643758 1_555
O11 Sr3 2.628537 1_555
O12 Si3 1.609550 1_555
O12 Sr1 2.593730 1_556
O13 Si6 1.606186 1_555
O13 Sr3 2.708150 1_565
O14 Si4 1.622313 1_555
O14 Sr0 2.616832 1_565
O14 Sr1 3.067719 1_565
O15 Si1 1.606186 1_555
O15 Sr0 2.708150 1_655
O16 Si0 1.622313 1_555
O16 Sr3 2.616832 1_555
O16 Sr2 3.067719 1_545
O17 Si5 1.609550 1_555
O17 Sr2 2.593730 1_554
O18 Si0 1.574500 1_555
O18 Sr3 2.447696 1_565
O18 Sr2 2.473996 1_555
O19 Si6 1.637653 1_555
O19 Si7 1.643758 1_555
O19 Sr3 2.628537 1_565
O20 Si4 1.574500 1_555
O20 Sr0 2.447696 1_555
O20 Sr1 2.473996 1_555
O21 Si7 1.622313 1_555
O21 Sr3 2.616832 1_565
O21 Sr1 3.067719 1_565
O22 Si6 1.609550 1_555
O22 Sr1 2.593730 1_556
O23 Si5 1.606186 1_555
O23 Sr3 2.708150 1_555
