# generated using pymatgen
data_K4Ba2HfSb4
_symmetry_space_group_name_H-M   'P 1'
_cell_length_a   11.14354212
_cell_length_b   11.14354174
_cell_length_c   8.60353686
_cell_angle_alpha   89.04409385
_cell_angle_beta   89.04409859
_cell_angle_gamma   119.90575069
_symmetry_Int_Tables_number   1
_chemical_formula_structural   K4Ba2HfSb4
_chemical_formula_sum   'K8 Ba4 Hf2 Sb8'
_cell_volume   925.60276078
_cell_formula_units_Z   2
loop_
 _symmetry_equiv_pos_site_id
 _symmetry_equiv_pos_as_xyz
  1  'x, y, z'
loop_
 _atom_site_type_symbol
 _atom_site_label
 _atom_site_symmetry_multiplicity
 _atom_site_fract_x
 _atom_site_fract_y
 _atom_site_fract_z
 _atom_site_occupancy
  K  K0  1  0.05471281  0.52555208  0.62380309  1
  K  K1  1  0.52555208  0.05471281  0.12380309  1
  K  K2  1  0.27837608  0.13591901  0.82217636  1
  K  K3  1  0.86959056  0.72539575  0.77860199  1
  K  K4  1  0.86084757  0.14610948  0.80157909  1
  K  K5  1  0.72539575  0.86959056  0.27860199  1
  K  K6  1  0.13591901  0.27837608  0.32217636  1
  K  K7  1  0.14610948  0.86084757  0.30157909  1
  Ba  Ba0  1  0.46930785  0.94184576  0.61806964  1
  Ba  Ba1  1  0.46901056  0.52257884  0.62608188  1
  Ba  Ba2  1  0.94184576  0.46930785  0.11806964  1
  Ba  Ba3  1  0.52257884  0.46901056  0.12608188  1
  Hf  Hf0  1  0.66804653  0.33562546  0.51353474  1
  Hf  Hf1  1  0.33562546  0.66804653  0.01353474  1
  Sb  Sb0  1  0.60685506  0.79739382  0.89043437  1
  Sb  Sb1  1  0.19772774  0.39047994  0.92309014  1
  Sb  Sb2  1  0.19400544  0.79840590  0.90831918  1
  Sb  Sb3  1  0.39047994  0.19772774  0.42309014  1
  Sb  Sb4  1  0.79739382  0.60685506  0.39043437  1
  Sb  Sb5  1  0.79840590  0.19400544  0.40831918  1
  Sb  Sb6  1  0.66696317  0.34480960  0.83994451  1
  Sb  Sb7  1  0.34480960  0.66696317  0.33994451  1
loop_
_geom_bond_atom_site_label_1
_geom_bond_atom_site_label_2
_geom_bond_distance
_geom_bond_site_symmetry_2
K0 Sb2 3.649010 1_555
K0 Sb7 3.664207 1_555
K0 Sb1 3.719576 1_555
K0 Sb5 3.889436 1_455
K0 Sb4 3.974448 1_455
K1 Sb5 3.649010 1_555
K1 Sb6 3.664206 1_554
K1 Sb3 3.719576 1_555
K1 Sb2 3.889436 1_544
K1 Sb0 3.974448 1_544
K2 Sb2 3.454958 1_545
K2 Sb1 3.493802 1_555
K2 Sb3 3.569912 1_555
K2 Sb6 3.765067 1_555
K3 Sb2 3.494091 1_655
K3 Sb0 3.523574 1_555
K3 Sb4 3.566841 1_555
K3 Sb6 3.701396 1_555
K4 Sb0 3.543625 1_545
K4 Sb5 3.550384 1_555
K4 Sb1 3.554368 1_655
K4 Sb6 3.801403 1_555
K5 Sb5 3.494091 1_565
K5 Sb4 3.523573 1_555
K5 Sb0 3.566841 1_554
K5 Sb7 3.701396 1_555
K6 Sb5 3.454958 1_455
K6 Sb3 3.493802 1_555
K6 Sb1 3.569912 1_554
K6 Sb7 3.765067 1_555
K7 Sb4 3.543625 1_455
K7 Sb2 3.550384 1_554
K7 Sb3 3.554368 1_565
K7 Sb7 3.801403 1_555
Ba0 Sb0 3.589682 1_555
Ba0 Sb2 3.594992 1_555
Ba0 Sb7 3.626467 1_555
Ba0 Sb5 3.733095 1_565
Ba0 Sb3 3.755466 1_565
Ba1 Sb0 3.545266 1_555
Ba1 Sb7 3.573059 1_555
Ba1 Sb1 3.607602 1_555
Ba1 Sb3 3.744771 1_555
Ba1 Sb4 3.826917 1_555
Ba2 Sb4 3.589683 1_555
Ba2 Sb5 3.594992 1_555
Ba2 Sb6 3.626467 1_554
Ba2 Sb2 3.733095 1_654
Ba2 Sb1 3.755466 1_654
Ba3 Sb4 3.545266 1_555
Ba3 Sb6 3.573059 1_554
Ba3 Sb3 3.607601 1_555
Ba3 Sb1 3.744771 1_554
Ba3 Sb0 3.826917 1_554
Hf0 Sb5 2.776689 1_555
Hf0 Sb4 2.798693 1_555
Hf0 Sb6 2.811892 1_555
Hf0 Sb3 2.813306 1_555
Hf1 Sb2 2.776689 1_554
Hf1 Sb0 2.798694 1_554
Hf1 Sb7 2.811892 1_555
Hf1 Sb1 2.813306 1_554
