# generated using pymatgen
data_Sc(TiRe6)4
_symmetry_space_group_name_H-M   'P 1'
_cell_length_a   8.34563982
_cell_length_b   8.34563970
_cell_length_c   8.34563998
_cell_angle_alpha   109.47121413
_cell_angle_beta   109.47121384
_cell_angle_gamma   109.47123110
_symmetry_Int_Tables_number   1
_chemical_formula_structural   Sc(TiRe6)4
_chemical_formula_sum   'Sc1 Ti4 Re24'
_cell_volume   447.46290636
_cell_formula_units_Z   1
loop_
 _symmetry_equiv_pos_site_id
 _symmetry_equiv_pos_as_xyz
  1  'x, y, z'
loop_
 _atom_site_type_symbol
 _atom_site_label
 _atom_site_symmetry_multiplicity
 _atom_site_fract_x
 _atom_site_fract_y
 _atom_site_fract_z
 _atom_site_occupancy
  Sc  Sc0  1  0.00000000  0.00000000  0.00000000  1
  Ti  Ti0  1  0.63105244  1.00000000  0.00000000  1
  Ti  Ti1  1  1.00000000  0.63105244  0.00000000  1
  Ti  Ti2  1  0.00000000  0.00000000  0.63105244  1
  Ti  Ti3  1  0.36894756  0.36894756  0.36894756  1
  Re  Re0  1  0.40024765  0.68140954  0.00000000  1
  Re  Re1  1  0.71883811  0.31859046  0.31859046  1
  Re  Re2  1  0.40024765  0.00000000  0.68140954  1
  Re  Re3  1  0.68140954  0.40024765  0.00000000  1
  Re  Re4  1  0.00000000  0.40024765  0.68140954  1
  Re  Re5  1  0.31859046  0.71883811  0.31859046  1
  Re  Re6  1  0.31859046  0.31859046  0.71883811  1
  Re  Re7  1  1.00000000  0.68140954  0.40024765  1
  Re  Re8  1  0.68140954  1.00000000  0.40024765  1
  Re  Re9  1  0.59975235  0.59975235  0.28116189  1
  Re  Re10  1  0.28116189  0.59975235  0.59975235  1
  Re  Re11  1  0.59975235  0.28116189  0.59975235  1
  Re  Re12  1  0.37648669  0.19352627  1.00000000  1
  Re  Re13  1  0.18296041  0.80647373  0.80647373  1
  Re  Re14  1  0.37648669  0.00000000  0.19352627  1
  Re  Re15  1  0.19352627  0.37648669  1.00000000  1
  Re  Re16  1  0.00000000  0.37648669  0.19352627  1
  Re  Re17  1  0.80647373  0.18296041  0.80647373  1
  Re  Re18  1  0.80647373  0.80647373  0.18296041  1
  Re  Re19  1  1.00000000  0.19352627  0.37648669  1
  Re  Re20  1  0.19352627  1.00000000  0.37648669  1
  Re  Re21  1  0.62351331  0.62351331  0.81703959  1
  Re  Re22  1  0.81703959  0.62351331  0.62351331  1
  Re  Re23  1  0.62351331  0.81703959  0.62351331  1
loop_
_geom_bond_atom_site_label_1
_geom_bond_atom_site_label_2
_geom_bond_distance
_geom_bond_site_symmetry_2
Sc0 Ti1 3.079103 1_445
Sc0 Ti0 3.079103 1_445
Sc0 Ti2 3.079104 1_554
Sc0 Ti3 3.079104 1_555
Re0 Re15 2.554488 1_554
Re0 Ti0 2.713928 1_555
Re0 Re14 2.723869 1_565
Re0 Re13 2.723869 1_554
Re0 Re9 2.821434 1_555
Re0 Re6 2.821434 1_554
Re0 Re21 2.835826 1_554
Re0 Re18 2.835826 1_555
Re0 Re5 2.903036 1_555
Re0 Re4 2.903037 1_554
Re0 Re10 2.903037 1_554
Re0 Re8 2.903037 1_555
Re0 Ti1 3.224671 1_455
Re1 Re22 2.554488 1_555
Re1 Ti0 2.713928 1_545
Re1 Re14 2.723869 1_555
Re1 Re12 2.723869 1_554
Re1 Re7 2.821433 1_555
Re1 Re4 2.821434 1_655
Re1 Re16 2.835826 1_655
Re1 Re19 2.835827 1_555
Re1 Re8 2.903036 1_545
Re1 Re11 2.903036 1_555
Re1 Re3 2.903036 1_555
Re1 Re9 2.903037 1_555
Re1 Ti3 3.224671 1_555
Re2 Re20 2.554488 1_545
Re2 Ti0 2.713928 1_546
Re2 Re5 2.821434 1_545
Re2 Re23 2.835827 1_545
Re2 Re7 2.903036 1_445
Re2 Re3 2.903037 1_556
Re2 Re6 2.903037 1_555
Re2 Ti2 3.224671 1_555
Re3 Ti1 2.713928 1_555
Re3 Re9 2.821434 1_555
Re3 Re6 2.821434 1_554
Re3 Re7 2.903037 1_555
Re3 Ti0 3.224671 1_545
Re4 Ti1 2.713928 1_456
Re4 Re8 2.903036 1_445
Re4 Re6 2.903037 1_555
Re4 Ti2 3.224671 1_555
Re5 Ti1 2.713928 1_455
Re5 Re8 2.821433 1_555
Re5 Re7 2.903036 1_455
Re5 Re9 2.903037 1_555
Re5 Ti3 3.224671 1_555
Re6 Ti2 2.713928 1_555
Re6 Ti3 3.224671 1_555
Re7 Ti2 2.713928 1_665
Re7 Re9 2.903036 1_555
Re7 Ti1 3.224671 1_555
Re8 Ti2 2.713928 1_665
Re8 Re9 2.903036 1_555
Re8 Ti0 3.224671 1_555
Re9 Ti3 2.713928 1_555
Re9 Ti2 3.224671 1_665
Re10 Re13 2.554488 1_555
Re10 Ti3 2.713928 1_555
Re10 Re23 2.723869 1_555
Re10 Re21 2.723869 1_555
Re10 Re4 2.821433 1_555
Re10 Re7 2.821434 1_455
Re10 Re19 2.835826 1_455
Re10 Re16 2.835827 1_555
Re10 Re2 2.903036 1_565
Re10 Re5 2.903036 1_555
Re10 Re6 2.903036 1_555
Re10 Ti0 3.224671 1_556
Re11 Re17 2.554488 1_555
Re11 Ti3 2.713928 1_555
Re11 Re22 2.723869 1_555
Re11 Re21 2.723869 1_555
Re11 Re2 2.821433 1_555
Re11 Re8 2.821434 1_545
Re11 Re20 2.835826 1_545
Re11 Re14 2.835827 1_555
Re11 Re4 2.903036 1_655
Re11 Re6 2.903036 1_555
Re11 Re3 2.903037 1_556
Re11 Ti1 3.224671 1_556
Re12 Re15 2.493453 1_555
Re12 Re3 2.554488 1_556
Re12 Re14 2.637448 1_556
Re12 Re13 2.637448 1_545
Re12 Re2 2.723869 1_555
Re12 Re6 2.835826 1_555
Re12 Re9 2.835826 1_556
Re12 Ti3 2.968753 1_556
Re12 Ti2 2.968753 1_555
Re12 Sc0 3.016244 1_556
Re12 Ti0 3.067515 1_546
Re13 Re22 2.493453 1_455
Re13 Re14 2.637448 1_566
Re13 Re2 2.723869 1_565
Re13 Re4 2.835826 1_555
Re13 Re7 2.835827 1_455
Re13 Ti1 2.968753 1_456
Re13 Ti2 2.968753 1_565
Re13 Sc0 3.016245 1_566
Re13 Ti0 3.067515 1_556
Re14 Re20 2.493453 1_545
Re14 Re8 2.554488 1_545
Re14 Re5 2.835826 1_545
Re14 Ti1 2.968753 1_445
Re14 Ti3 2.968753 1_555
Re14 Sc0 3.016245 1_555
Re14 Ti0 3.067514 1_545
Re15 Re16 2.637448 1_556
Re15 Re17 2.637448 1_455
Re15 Re4 2.723869 1_555
Re15 Re5 2.723869 1_556
Re15 Re6 2.835826 1_555
Re15 Re9 2.835826 1_556
Re15 Ti3 2.968753 1_556
Re15 Ti2 2.968753 1_555
Re15 Sc0 3.016244 1_556
Re15 Ti1 3.067515 1_456
Re16 Re19 2.493453 1_455
Re16 Re7 2.554488 1_455
Re16 Re17 2.637448 1_454
Re16 Re5 2.723869 1_555
Re16 Re3 2.723869 1_455
Re16 Ti0 2.968753 1_445
Re16 Ti3 2.968753 1_555
Re16 Sc0 3.016245 1_555
Re16 Ti1 3.067514 1_455
Re17 Re23 2.493453 1_545
Re17 Re4 2.723869 1_655
Re17 Re3 2.723869 1_556
Re17 Re2 2.835826 1_555
Re17 Re8 2.835827 1_545
Re17 Ti0 2.968753 1_546
Re17 Ti2 2.968753 1_655
Re17 Sc0 3.016245 1_656
Re17 Ti1 3.067515 1_556
Re18 Re21 2.493453 1_554
Re18 Re9 2.554488 1_555
Re18 Re19 2.637448 1_565
Re18 Re20 2.637448 1_655
Re18 Re8 2.723869 1_555
Re18 Re7 2.723869 1_555
Re18 Re3 2.835826 1_555
Re18 Ti0 2.968753 1_555
Re18 Ti1 2.968753 1_555
Re18 Sc0 3.016244 1_665
Re18 Ti2 3.067515 1_665
Re19 Re4 2.554488 1_655
Re19 Re20 2.637448 1_645
Re19 Re8 2.723869 1_545
Re19 Re6 2.723869 1_655
Re19 Ti3 2.968753 1_655
Re19 Ti0 2.968753 1_545
Re19 Sc0 3.016245 1_655
Re19 Ti2 3.067514 1_655
Re20 Re7 2.723869 1_455
Re20 Re6 2.723869 1_565
Re20 Re5 2.835827 1_555
Re20 Ti3 2.968753 1_565
Re20 Ti1 2.968753 1_455
Re20 Sc0 3.016245 1_565
Re20 Ti2 3.067514 1_565
Re21 Re6 2.554488 1_555
Re21 Re23 2.637448 1_555
Re21 Re22 2.637448 1_555
Re21 Re3 2.835826 1_556
Re21 Ti0 2.968753 1_556
Re21 Ti1 2.968753 1_556
Re21 Sc0 3.016245 1_666
Re21 Ti3 3.067515 1_555
Re22 Re23 2.637448 1_555
Re22 Re9 2.723869 1_555
Re22 Re7 2.835826 1_555
Re22 Re4 2.835827 1_655
Re22 Ti2 2.968753 1_665
Re22 Ti1 2.968753 1_556
Re22 Sc0 3.016245 1_666
Re22 Ti3 3.067515 1_555
Re23 Re5 2.554488 1_555
Re23 Re9 2.723869 1_555
Re23 Re8 2.835826 1_555
Re23 Ti2 2.968753 1_665
Re23 Ti0 2.968753 1_556
Re23 Sc0 3.016245 1_666
Re23 Ti3 3.067515 1_555
