# generated using pymatgen
data_BaNi9Ge2P3
_symmetry_space_group_name_H-M   'P 1'
_cell_length_a   6.69929080
_cell_length_b   6.69929132
_cell_length_c   10.62466125
_cell_angle_alpha   90.00000000
_cell_angle_beta   90.00000000
_cell_angle_gamma   120.00000238
_symmetry_Int_Tables_number   1
_chemical_formula_structural   BaNi9Ge2P3
_chemical_formula_sum   'Ba2 Ni18 Ge4 P6'
_cell_volume   412.95564425
_cell_formula_units_Z   2
loop_
 _symmetry_equiv_pos_site_id
 _symmetry_equiv_pos_as_xyz
  1  'x, y, z'
loop_
 _atom_site_type_symbol
 _atom_site_label
 _atom_site_symmetry_multiplicity
 _atom_site_fract_x
 _atom_site_fract_y
 _atom_site_fract_z
 _atom_site_occupancy
  Ba  Ba0  1  0.00000000  0.00000000  0.50000000  1
  Ba  Ba1  1  0.00000000  0.00000000  0.00000000  1
  Ni  Ni0  1  0.46098206  0.92196312  0.88265832  1
  Ni  Ni1  1  0.92196312  0.46098206  0.11734168  1
  Ni  Ni2  1  0.53901794  0.07803688  0.11734168  1
  Ni  Ni3  1  0.07803688  0.53901794  0.61734168  1
  Ni  Ni4  1  0.19970478  0.39940857  0.25000000  1
  Ni  Ni5  1  0.80029522  0.19970478  0.75000000  1
  Ni  Ni6  1  0.39940857  0.19970478  0.75000000  1
  Ni  Ni7  1  0.60059143  0.80029522  0.25000000  1
  Ni  Ni8  1  0.19970478  0.80029522  0.25000000  1
  Ni  Ni9  1  0.80029522  0.60059143  0.75000000  1
  Ni  Ni10  1  0.46098206  0.92196312  0.61734168  1
  Ni  Ni11  1  0.53901794  0.46098206  0.38265832  1
  Ni  Ni12  1  0.92196312  0.46098206  0.38265832  1
  Ni  Ni13  1  0.07803688  0.53901794  0.88265832  1
  Ni  Ni14  1  0.46098206  0.53901794  0.88265832  1
  Ni  Ni15  1  0.53901794  0.07803688  0.38265832  1
  Ni  Ni16  1  0.53901794  0.46098206  0.11734168  1
  Ni  Ni17  1  0.46098206  0.53901794  0.61734168  1
  Ge  Ge0  1  0.33333300  0.66666700  0.43715990  1
  Ge  Ge1  1  0.66666700  0.33333300  0.93715990  1
  Ge  Ge2  1  0.66666700  0.33333300  0.56284010  1
  Ge  Ge3  1  0.33333300  0.66666700  0.06284010  1
  P  P0  1  0.17200873  0.34401746  0.75000000  1
  P  P1  1  0.82799127  0.17200873  0.25000000  1
  P  P2  1  0.17200873  0.82799127  0.75000000  1
  P  P3  1  0.82799127  0.65598254  0.25000000  1
  P  P4  1  0.34401746  0.17200873  0.25000000  1
  P  P5  1  0.65598254  0.82799127  0.75000000  1
loop_
_geom_bond_atom_site_label_1
_geom_bond_atom_site_label_2
_geom_bond_distance
_geom_bond_site_symmetry_2
Ba0 P4 3.322477 1_555
Ba0 P5 3.322477 1_445
Ba0 P1 3.322477 1_455
Ba0 P2 3.322477 1_545
Ba0 P0 3.322477 1_555
Ba0 P3 3.322477 1_445
Ba0 Ni7 3.524906 1_445
Ba0 Ni6 3.524906 1_555
Ba0 Ni4 3.524906 1_555
Ba0 Ni9 3.524906 1_445
Ba0 Ni8 3.524909 1_545
Ba0 Ni5 3.524909 1_455
Ba0 Ni15 3.602691 1_555
Ba0 Ni10 3.602691 1_445
Ba0 Ni3 3.602692 1_555
Ba0 Ni12 3.602692 1_445
Ba0 Ni11 3.602694 1_555
Ba0 Ni17 3.602694 1_445
Ba0 Ni17 3.602694 1_555
Ba0 Ni11 3.602694 1_445
Ba0 Ni10 3.602698 1_545
Ba0 Ni15 3.602698 1_455
Ba0 Ni12 3.602698 1_455
Ba0 Ni3 3.602698 1_545
Ba1 P4 3.322477 1_555
Ba1 P5 3.322477 1_444
Ba1 P1 3.322477 1_455
Ba1 P2 3.322477 1_544
Ba1 P0 3.322477 1_554
Ba1 P3 3.322477 1_445
Ba1 Ni7 3.524906 1_445
Ba1 Ni6 3.524906 1_554
Ba1 Ni4 3.524906 1_555
Ba1 Ni9 3.524906 1_444
Ba1 Ni5 3.524909 1_454
Ba1 Ni8 3.524909 1_545
Ba1 Ni2 3.602691 1_555
Ba1 Ni0 3.602691 1_444
Ba1 Ni13 3.602692 1_554
Ba1 Ni1 3.602692 1_445
Ba1 Ni16 3.602694 1_555
Ba1 Ni14 3.602694 1_444
Ba1 Ni14 3.602694 1_554
Ba1 Ni16 3.602694 1_445
Ba1 Ni0 3.602698 1_544
Ba1 Ni2 3.602698 1_455
Ba1 Ni1 3.602698 1_455
Ba1 Ni13 3.602698 1_544
Ni0 P5 2.216276 1_555
Ni0 P2 2.216281 1_555
Ni1 P3 2.216276 1_555
Ni1 P1 2.216281 1_555
Ni2 P4 2.216276 1_555
Ni2 P1 2.216281 1_555
Ni3 P0 2.216276 1_555
Ni3 P2 2.216281 1_555
Ni4 P4 2.174470 1_555
Ni4 P1 2.174475 1_455
Ni5 P0 2.174476 1_655
Ni5 P5 2.174476 1_545
Ni6 P0 2.174470 1_555
Ni6 P2 2.174475 1_545
Ni7 P3 2.174470 1_555
Ni7 P1 2.174475 1_565
Ni8 P3 2.174476 1_455
Ni8 P4 2.174476 1_565
Ni9 P5 2.174470 1_555
Ni9 P2 2.174475 1_655
Ni10 P5 2.216276 1_555
Ni10 P2 2.216281 1_555
Ni11 P3 2.216280 1_555
Ni11 P4 2.216280 1_555
Ni12 P3 2.216276 1_555
Ni12 P1 2.216281 1_555
Ni13 P0 2.216276 1_555
Ni13 P2 2.216281 1_555
Ni14 P0 2.216280 1_555
Ni14 P5 2.216280 1_555
Ni15 P4 2.216276 1_555
Ni15 P1 2.216281 1_555
Ni16 P3 2.216280 1_555
Ni16 P4 2.216280 1_555
Ni17 P0 2.216280 1_555
Ni17 P5 2.216280 1_555
Ge0 Ni3 2.420468 1_555
Ge0 Ni10 2.420468 1_555
Ge0 Ni17 2.420475 1_555
Ge0 Ni12 2.455910 1_455
Ge0 Ni11 2.455910 1_555
Ge0 Ni15 2.455910 1_565
Ge0 Ni8 2.521587 1_555
Ge0 Ni7 2.521594 1_555
Ge0 Ni4 2.521594 1_555
Ge1 Ni1 2.420468 1_556
Ge1 Ni2 2.420468 1_556
Ge1 Ni16 2.420475 1_556
Ge1 Ni13 2.455910 1_655
Ge1 Ni14 2.455910 1_555
Ge1 Ni0 2.455910 1_545
Ge1 Ni5 2.521587 1_555
Ge1 Ni6 2.521594 1_555
Ge1 Ni9 2.521594 1_555
Ge2 Ni12 2.420468 1_555
Ge2 Ni15 2.420468 1_555
Ge2 Ni11 2.420475 1_555
Ge2 Ni3 2.455910 1_655
Ge2 Ni17 2.455910 1_555
Ge2 Ni10 2.455910 1_545
Ge2 Ni5 2.521587 1_555
Ge2 Ni6 2.521594 1_555
Ge2 Ni9 2.521594 1_555
Ge3 Ni13 2.420468 1_554
Ge3 Ni0 2.420468 1_554
Ge3 Ni14 2.420475 1_554
Ge3 Ni1 2.455910 1_455
Ge3 Ni16 2.455910 1_555
Ge3 Ni2 2.455910 1_565
Ge3 Ni8 2.521587 1_555
Ge3 Ni7 2.521594 1_555
Ge3 Ni4 2.521594 1_555
