# generated using pymatgen
data_Sc22CoOs6Ru
_symmetry_space_group_name_H-M   'P 1'
_cell_length_a   9.41318008
_cell_length_b   9.41318067
_cell_length_c   9.41317936
_cell_angle_alpha   60.00000114
_cell_angle_beta   59.99999906
_cell_angle_gamma   60.00000547
_symmetry_Int_Tables_number   1
_chemical_formula_structural   Sc22CoOs6Ru
_chemical_formula_sum   'Sc22 Co1 Os6 Ru1'
_cell_volume   589.78553395
_cell_formula_units_Z   1
loop_
 _symmetry_equiv_pos_site_id
 _symmetry_equiv_pos_as_xyz
  1  'x, y, z'
loop_
 _atom_site_type_symbol
 _atom_site_label
 _atom_site_symmetry_multiplicity
 _atom_site_fract_x
 _atom_site_fract_y
 _atom_site_fract_z
 _atom_site_occupancy
  Sc  Sc0  1  0.84390726  0.84390726  0.84390726  1
  Sc  Sc1  1  0.53171977  0.15609274  0.15609274  1
  Sc  Sc2  1  0.15609274  0.15609274  0.53171977  1
  Sc  Sc3  1  0.15609274  0.53171977  0.15609274  1
  Sc  Sc4  1  0.84390726  0.84390726  0.46828023  1
  Sc  Sc5  1  0.84390726  0.46828023  0.84390726  1
  Sc  Sc6  1  0.46828023  0.84390726  0.84390726  1
  Sc  Sc7  1  0.15609274  0.15609274  0.15609274  1
  Sc  Sc8  1  0.19791655  0.80208345  0.19791655  1
  Sc  Sc9  1  0.19791655  0.80208345  0.80208345  1
  Sc  Sc10  1  0.80208345  0.19791655  0.19791655  1
  Sc  Sc11  1  0.80208345  0.80208345  0.19791655  1
  Sc  Sc12  1  0.19791655  0.19791655  0.80208345  1
  Sc  Sc13  1  0.80208345  0.19791655  0.80208345  1
  Sc  Sc14  1  0.38455222  0.38455222  0.38455222  1
  Sc  Sc15  1  0.15365765  0.61544778  0.61544778  1
  Sc  Sc16  1  0.61544778  0.15365765  0.61544778  1
  Sc  Sc17  1  0.61544778  0.61544778  0.15365765  1
  Sc  Sc18  1  0.38455222  0.84634235  0.38455222  1
  Sc  Sc19  1  0.38455222  0.38455222  0.84634235  1
  Sc  Sc20  1  0.84634235  0.38455222  0.38455222  1
  Sc  Sc21  1  0.61544778  0.61544778  0.61544778  1
  Co  Co0  1  0.50000000  0.50000000  0.50000000  1
  Os  Os0  1  0.50000000  0.50000000  0.00000000  1
  Os  Os1  1  0.00000000  0.00000000  0.50000000  1
  Os  Os2  1  0.50000000  0.00000000  0.50000000  1
  Os  Os3  1  0.00000000  0.50000000  0.50000000  1
  Os  Os4  1  0.50000000  0.00000000  0.00000000  1
  Os  Os5  1  0.00000000  0.50000000  0.00000000  1
  Ru  Ru0  1  0.00000000  0.00000000  0.00000000  1
loop_
_geom_bond_atom_site_label_1
_geom_bond_atom_site_label_2
_geom_bond_distance
_geom_bond_site_symmetry_2
Co0 Sc19 2.661928 1_555
Co0 Sc17 2.661928 1_555
Co0 Sc20 2.661928 1_555
Co0 Sc15 2.661928 1_555
Co0 Sc18 2.661928 1_555
Co0 Sc16 2.661928 1_555
Co0 Sc21 2.661936 1_555
Co0 Sc14 2.661936 1_555
Os0 Sc5 2.728271 1_554
Os0 Sc3 2.728271 1_555
Os0 Sc6 2.728271 1_554
Os0 Sc1 2.728271 1_555
Os0 Sc14 2.962888 1_555
Os0 Sc21 2.962888 1_554
Os0 Sc17 2.962896 1_555
Os0 Sc19 2.962896 1_554
Os1 Sc2 2.728254 1_555
Os1 Sc4 2.728254 1_445
Os1 Sc0 2.728266 1_445
Os1 Sc7 2.728266 1_555
Os1 Sc18 2.962889 1_545
Os1 Sc16 2.962889 1_455
Os1 Sc20 2.962889 1_455
Os1 Sc15 2.962889 1_545
Os2 Sc6 2.728271 1_545
Os2 Sc1 2.728271 1_555
Os2 Sc4 2.728271 1_545
Os2 Sc2 2.728271 1_555
Os2 Sc14 2.962889 1_555
Os2 Sc21 2.962889 1_545
Os2 Sc16 2.962896 1_555
Os2 Sc18 2.962896 1_545
Os3 Sc5 2.728270 1_455
Os3 Sc3 2.728270 1_555
Os3 Sc4 2.728271 1_455
Os3 Sc2 2.728271 1_555
Os3 Sc14 2.962888 1_555
Os3 Sc21 2.962888 1_455
Os3 Sc15 2.962896 1_555
Os3 Sc20 2.962896 1_455
Os4 Sc1 2.728254 1_555
Os4 Sc6 2.728254 1_544
Os4 Sc0 2.728267 1_544
Os4 Sc7 2.728267 1_555
Os4 Sc18 2.962889 1_545
Os4 Sc16 2.962889 1_554
Os4 Sc19 2.962889 1_554
Os4 Sc17 2.962889 1_545
Os5 Sc3 2.728254 1_555
Os5 Sc5 2.728254 1_454
Os5 Sc0 2.728267 1_454
Os5 Sc7 2.728267 1_555
Os5 Sc20 2.962889 1_455
Os5 Sc15 2.962889 1_554
Os5 Sc19 2.962889 1_554
Os5 Sc17 2.962889 1_455
Ru0 Sc12 2.634714 1_554
Ru0 Sc11 2.634714 1_445
Ru0 Sc10 2.634714 1_455
Ru0 Sc9 2.634714 1_544
Ru0 Sc8 2.634714 1_545
Ru0 Sc13 2.634714 1_454
