# generated using pymatgen
data_Ca3SiO5
_symmetry_space_group_name_H-M   'P 1'
_cell_length_a   7.25092367
_cell_length_b   7.25092367
_cell_length_c   5.55778500
_cell_angle_alpha   90.00000000
_cell_angle_beta   90.00000000
_cell_angle_gamma   119.99999696
_symmetry_Int_Tables_number   1
_chemical_formula_structural   Ca3SiO5
_chemical_formula_sum   'Ca6 Si2 O10'
_cell_volume   253.05740700
_cell_formula_units_Z   2
loop_
 _symmetry_equiv_pos_site_id
 _symmetry_equiv_pos_as_xyz
  1  'x, y, z'
loop_
 _atom_site_type_symbol
 _atom_site_label
 _atom_site_symmetry_multiplicity
 _atom_site_fract_x
 _atom_site_fract_y
 _atom_site_fract_z
 _atom_site_occupancy
  Ca  Ca0  1  0.15102600  0.84897400  0.76570400  1
  Ca  Ca1  1  0.15102600  0.30205200  0.76570400  1
  Ca  Ca2  1  0.30205200  0.15102600  0.26570400  1
  Ca  Ca3  1  0.69794800  0.84897400  0.76570400  1
  Ca  Ca4  1  0.84897400  0.69794800  0.26570400  1
  Ca  Ca5  1  0.84897400  0.15102600  0.26570400  1
  Si  Si0  1  0.33333300  0.66666700  0.23561000  1
  Si  Si1  1  0.66666700  0.33333300  0.73561000  1
  O  O0  1  0.20931100  0.79068900  0.33564300  1
  O  O1  1  0.00000000  0.00000000  0.52436000  1
  O  O2  1  0.00000000  0.00000000  0.02436000  1
  O  O3  1  0.20931100  0.41862200  0.33564300  1
  O  O4  1  0.33333300  0.66666700  0.93464800  1
  O  O5  1  0.58137800  0.79068900  0.33564300  1
  O  O6  1  0.41862200  0.20931100  0.83564300  1
  O  O7  1  0.66666700  0.33333300  0.43464800  1
  O  O8  1  0.79068900  0.58137800  0.83564300  1
  O  O9  1  0.79068900  0.20931100  0.83564300  1
loop_
_geom_bond_atom_site_label_1
_geom_bond_atom_site_label_2
_geom_bond_distance
_geom_bond_site_symmetry_2
Ca0 O1 2.323096 1_565
Ca0 O2 2.379948 1_566
Ca0 O6 2.381787 1_565
Ca0 O8 2.381787 1_455
Ca0 O4 2.474641 1_555
Ca0 O0 2.499763 1_555
Ca1 O1 2.323096 1_555
Ca1 O2 2.379948 1_556
Ca1 O6 2.381787 1_555
Ca1 O9 2.381787 1_455
Ca1 O4 2.474647 1_555
Ca1 O3 2.499763 1_555
Ca2 O2 2.323096 1_555
Ca2 O1 2.379948 1_555
Ca2 O3 2.381787 1_555
Ca2 O0 2.381787 1_545
Ca2 O7 2.474647 1_555
Ca2 O6 2.499763 1_554
Ca3 O1 2.323096 1_665
Ca3 O2 2.379948 1_666
Ca3 O8 2.381787 1_555
Ca3 O9 2.381787 1_565
Ca3 O4 2.474647 1_555
Ca3 O5 2.499763 1_555
Ca4 O2 2.323096 1_665
Ca4 O1 2.379948 1_665
Ca4 O5 2.381787 1_555
Ca4 O0 2.381787 1_655
Ca4 O7 2.474647 1_555
Ca4 O8 2.499763 1_554
Ca5 O2 2.323096 1_655
Ca5 O1 2.379948 1_655
Ca5 O5 2.381787 1_545
Ca5 O3 2.381787 1_655
Ca5 O7 2.474641 1_555
Ca5 O9 2.499763 1_554
O0 Si0 1.653836 1_555
O3 Si0 1.653842 1_555
O4 Si0 1.672682 1_556
O5 Si0 1.653842 1_555
O6 Si1 1.653842 1_555
O7 Si1 1.672682 1_555
O8 Si1 1.653842 1_555
O9 Si1 1.653836 1_555
