# generated using pymatgen
data_CrCd2Rh3O8
_symmetry_space_group_name_H-M   'P 1'
_cell_length_a   6.12681390
_cell_length_b   6.26146003
_cell_length_c   6.26146013
_cell_angle_alpha   59.99999443
_cell_angle_beta   59.27031415
_cell_angle_gamma   59.27031390
_symmetry_Int_Tables_number   1
_chemical_formula_structural   CrCd2Rh3O8
_chemical_formula_sum   'Cr1 Cd2 Rh3 O8'
_cell_volume   167.95459149
_cell_formula_units_Z   1
loop_
 _symmetry_equiv_pos_site_id
 _symmetry_equiv_pos_as_xyz
  1  'x, y, z'
loop_
 _atom_site_type_symbol
 _atom_site_label
 _atom_site_symmetry_multiplicity
 _atom_site_fract_x
 _atom_site_fract_y
 _atom_site_fract_z
 _atom_site_occupancy
  Cr  Cr0  1  0.00000000  0.50000000  0.50000000  1
  Cd  Cd0  1  0.13658118  0.12113927  0.12113927  1
  Cd  Cd1  1  0.86341882  0.87886073  0.87886073  1
  Rh  Rh0  1  0.50000000  0.00000000  0.50000000  1
  Rh  Rh1  1  0.50000000  0.50000000  0.00000000  1
  Rh  Rh2  1  0.50000000  0.50000000  0.50000000  1
  O  O0  1  0.73987025  0.72800878  0.72800878  1
  O  O1  1  0.26012975  0.27199122  0.69588781  1
  O  O2  1  0.26012975  0.69588781  0.27199122  1
  O  O3  1  0.69544458  0.26818547  0.26818547  1
  O  O4  1  0.73987025  0.30411219  0.72800878  1
  O  O5  1  0.30455542  0.73181453  0.73181453  1
  O  O6  1  0.26012975  0.27199122  0.27199122  1
  O  O7  1  0.73987025  0.72800878  0.30411219  1
loop_
_geom_bond_atom_site_label_1
_geom_bond_atom_site_label_2
_geom_bond_distance
_geom_bond_site_symmetry_2
Cr0 O0 2.001012 1_455
Cr0 O6 2.001012 1_555
Cr0 O2 2.001012 1_555
Cr0 O4 2.001012 1_455
Cr0 O1 2.001012 1_555
Cr0 O7 2.001012 1_455
Cd0 O2 2.170463 1_545
Cd0 O1 2.170463 1_554
Cd0 O6 2.170469 1_555
Cd0 O3 2.182143 1_455
Cd1 O4 2.170463 1_565
Cd1 O7 2.170463 1_556
Cd1 O0 2.170469 1_555
Cd1 O5 2.182143 1_655
O0 Rh1 2.062393 1_556
O0 Rh0 2.062393 1_565
O1 Rh0 2.062393 1_555
O1 Rh2 2.062393 1_555
O2 Rh1 2.062393 1_555
O2 Rh2 2.062393 1_555
O3 Rh2 2.049837 1_555
O3 Rh0 2.049842 1_555
O3 Rh1 2.049842 1_555
O4 Rh1 2.062393 1_556
O4 Rh2 2.062393 1_555
O5 Rh2 2.049837 1_555
O5 Rh0 2.049842 1_565
O5 Rh1 2.049842 1_556
O6 Rh1 2.062393 1_555
O6 Rh0 2.062393 1_555
O7 Rh0 2.062393 1_565
O7 Rh2 2.062393 1_555
