# generated using pymatgen
data_RbCeS2
_symmetry_space_group_name_H-M   'P 1'
_cell_length_a   8.03117212
_cell_length_b   8.03117212
_cell_length_c   8.03117238
_cell_angle_alpha   30.80526888
_cell_angle_beta   30.80526888
_cell_angle_gamma   30.80525931
_symmetry_Int_Tables_number   1
_chemical_formula_structural   RbCeS2
_chemical_formula_sum   'Rb1 Ce1 S2'
_cell_volume   120.48559327
_cell_formula_units_Z   1
loop_
 _symmetry_equiv_pos_site_id
 _symmetry_equiv_pos_as_xyz
  1  'x, y, z'
loop_
 _atom_site_type_symbol
 _atom_site_label
 _atom_site_symmetry_multiplicity
 _atom_site_fract_x
 _atom_site_fract_y
 _atom_site_fract_z
 _atom_site_occupancy
  Rb  Rb0  1  0.00000000  0.00000000  0.00000000  1
  Ce  Ce0  1  0.50000000  0.50000000  0.50000000  1
  S  S0  1  0.76743789  0.76743789  0.76743789  1
  S  S1  1  0.23256211  0.23256211  0.23256211  1
loop_
_geom_bond_atom_site_label_1
_geom_bond_atom_site_label_2
_geom_bond_distance
_geom_bond_site_symmetry_2
Rb0 S1 3.377443 1_545
Rb0 S1 3.377443 1_455
Rb0 S0 3.377443 1_544
Rb0 S0 3.377443 1_454
Rb0 S1 3.377444 1_554
Rb0 S0 3.377444 1_445
Ce0 S0 2.889684 1_545
Ce0 S0 2.889684 1_455
Ce0 S1 2.889684 1_565
Ce0 S1 2.889684 1_655
Ce0 S0 2.889685 1_554
Ce0 S1 2.889685 1_556
