# generated using pymatgen
data_Mg4SiP5Ir7
_symmetry_space_group_name_H-M   'P 1'
_cell_length_a   6.84203928
_cell_length_b   6.84203925
_cell_length_c   6.84203896
_cell_angle_alpha   109.77910836
_cell_angle_beta   108.85737165
_cell_angle_gamma   109.77909804
_symmetry_Int_Tables_number   1
_chemical_formula_structural   Mg4SiP5Ir7
_chemical_formula_sum   'Mg4 Si1 P5 Ir7'
_cell_volume   246.54515766
_cell_formula_units_Z   1
loop_
 _symmetry_equiv_pos_site_id
 _symmetry_equiv_pos_as_xyz
  1  'x, y, z'
loop_
 _atom_site_type_symbol
 _atom_site_label
 _atom_site_symmetry_multiplicity
 _atom_site_fract_x
 _atom_site_fract_y
 _atom_site_fract_z
 _atom_site_occupancy
  Mg  Mg0  1  0.50399607  0.50412205  0.50399607  1
  Mg  Mg1  1  0.99987502  0.00000000  0.50399607  1
  Mg  Mg2  1  0.50399607  0.00000000  0.99987502  1
  Mg  Mg3  1  0.99987502  0.49587895  0.99987502  1
  Si  Si0  1  0.31269130  0.00000000  0.31269130  1
  P  P0  1  0.67367136  0.00000100  0.67367136  1
  P  P1  1  0.00146010  0.68235513  0.68381524  1
  P  P2  1  0.00145910  0.31764487  0.31910397  1
  P  P3  1  0.68381524  0.68235513  0.00146010  1
  P  P4  1  0.31910397  0.31764487  0.00145910  1
  Ir  Ir0  1  0.99915558  0.00000000  0.99915558  1
  Ir  Ir1  1  0.24767373  0.74799336  0.49967936  1
  Ir  Ir2  1  0.25109137  0.50000000  0.75109037  1
  Ir  Ir3  1  0.49967936  0.74799336  0.24767373  1
  Ir  Ir4  1  0.49968036  0.25200564  0.75168600  1
  Ir  Ir5  1  0.75168600  0.25200564  0.49968036  1
  Ir  Ir6  1  0.75109037  0.50000000  0.25109137  1
loop_
_geom_bond_atom_site_label_1
_geom_bond_atom_site_label_2
_geom_bond_distance
_geom_bond_site_symmetry_2
Mg0 P0 2.829139 1_565
Mg0 P3 2.837996 1_556
Mg0 P1 2.837996 1_655
Mg0 Si0 2.846946 1_555
Mg0 P4 2.859627 1_555
Mg0 P2 2.859628 1_555
Mg1 P0 2.829144 1_555
Mg1 P4 2.837986 1_656
Mg1 P1 2.837999 1_645
Mg1 Si0 2.846945 1_655
Mg1 P3 2.859619 1_545
Mg1 P2 2.859633 1_655
Mg2 P0 2.829144 1_555
Mg2 P2 2.837986 1_656
Mg2 P3 2.837999 1_546
Mg2 Si0 2.846945 1_556
Mg2 P1 2.859620 1_545
Mg2 P4 2.859633 1_556
Mg3 P0 2.829131 1_555
Mg3 P4 2.837994 1_656
Mg3 P2 2.837994 1_656
Mg3 Si0 2.846937 1_666
Mg3 P3 2.859627 1_556
Mg3 P1 2.859627 1_655
Ir0 Si0 2.495821 1_656
Ir0 P2 2.500078 1_656
Ir0 P1 2.500078 1_645
Ir0 P4 2.500078 1_656
Ir0 P3 2.500078 1_546
Ir0 P0 2.590938 1_555
Ir1 P0 2.419122 1_565
Ir1 P2 2.422736 1_555
Ir1 P1 2.422746 1_555
Ir1 Si0 2.479811 1_565
Ir1 Mg3 2.797276 1_454
Ir1 Mg1 2.797288 1_465
Ir1 Mg0 2.800193 1_555
Ir1 Mg2 2.800197 1_565
Ir2 P2 2.451227 1_555
Ir2 P1 2.451230 1_555
Ir2 P3 2.455988 1_556
Ir2 P4 2.455992 1_556
Ir2 Mg2 2.782727 1_565
Ir2 Mg1 2.782727 1_455
Ir2 Mg0 2.782727 1_555
Ir2 Mg3 2.782739 1_455
Ir3 P0 2.419121 1_565
Ir3 P4 2.422736 1_555
Ir3 P3 2.422746 1_555
Ir3 Si0 2.479811 1_565
Ir3 Mg3 2.797277 1_454
Ir3 Mg2 2.797288 1_564
Ir3 Mg0 2.800193 1_555
Ir3 Mg1 2.800198 1_565
Ir4 P0 2.419115 1_555
Ir4 P3 2.422742 1_556
Ir4 P4 2.422747 1_556
Ir4 Si0 2.479804 1_555
Ir4 Mg1 2.797282 1_455
Ir4 Mg0 2.797294 1_555
Ir4 Mg3 2.800192 1_555
Ir4 Mg2 2.800198 1_555
Ir5 P0 2.419115 1_555
Ir5 P1 2.422742 1_655
Ir5 P2 2.422747 1_655
Ir5 Si0 2.479805 1_555
Ir5 Mg2 2.797282 1_554
Ir5 Mg0 2.797294 1_555
Ir5 Mg3 2.800192 1_555
Ir5 Mg1 2.800198 1_555
Ir6 P4 2.451227 1_555
Ir6 P3 2.451230 1_555
Ir6 P1 2.455988 1_655
Ir6 P2 2.455992 1_655
Ir6 Mg1 2.782727 1_565
Ir6 Mg2 2.782727 1_554
Ir6 Mg0 2.782727 1_555
Ir6 Mg3 2.782739 1_554
