# generated using pymatgen
data_NaY6CoCl12
_symmetry_space_group_name_H-M   'P 1'
_cell_length_a   8.66322273
_cell_length_b   8.82403580
_cell_length_c   8.67737302
_cell_angle_alpha   107.03883527
_cell_angle_beta   106.50672941
_cell_angle_gamma   107.23098844
_symmetry_Int_Tables_number   1
_chemical_formula_structural   NaY6CoCl12
_chemical_formula_sum   'Na1 Y6 Co1 Cl12'
_cell_volume   553.53463967
_cell_formula_units_Z   1
loop_
 _symmetry_equiv_pos_site_id
 _symmetry_equiv_pos_as_xyz
  1  'x, y, z'
loop_
 _atom_site_type_symbol
 _atom_site_label
 _atom_site_symmetry_multiplicity
 _atom_site_fract_x
 _atom_site_fract_y
 _atom_site_fract_z
 _atom_site_occupancy
  Na  Na0  1  0.50000010  0.50000009  0.50000012  1
  Y  Y0  1  0.12075331  0.32932881  0.02666678  1
  Y  Y1  1  0.31685367  0.02742510  0.11262621  1
  Y  Y2  1  0.02692608  0.11246526  0.31716578  1
  Y  Y3  1  0.97307446  0.88753499  0.68283475  1
  Y  Y4  1  0.68314690  0.97257529  0.88737432  1
  Y  Y5  1  0.87924714  0.67067135  0.97333365  1
  Co  Co0  1  0.00000034  0.00000017  0.00000033  1
  Cl  Cl0  1  0.21539148  0.68243264  0.07584238  1
  Cl  Cl1  1  0.45639092  0.36582003  0.15022377  1
  Cl  Cl2  1  0.67957675  0.07454486  0.21651781  1
  Cl  Cl3  1  0.92456790  0.78553345  0.32191237  1
  Cl  Cl4  1  0.15048192  0.45061073  0.36442512  1
  Cl  Cl5  1  0.36784084  0.15355425  0.45326515  1
  Cl  Cl6  1  0.63215956  0.84644602  0.54673538  1
  Cl  Cl7  1  0.84951831  0.54938942  0.63557516  1
  Cl  Cl8  1  0.07543233  0.21446665  0.67808802  1
  Cl  Cl9  1  0.32042363  0.92545528  0.78348249  1
  Cl  Cl10  1  0.54360956  0.63418015  0.84977657  1
  Cl  Cl11  1  0.78460881  0.31756746  0.92415786  1
loop_
_geom_bond_atom_site_label_1
_geom_bond_atom_site_label_2
_geom_bond_distance
_geom_bond_site_symmetry_2
Co0 Y1 2.547931 1_555
Co0 Y4 2.547932 1_444
Co0 Y2 2.551685 1_555
Co0 Y3 2.551686 1_444
Co0 Y0 2.694456 1_555
Co0 Y5 2.694457 1_444
Cl0 Y5 2.752664 1_454
Cl0 Y1 2.797792 1_565
Cl0 Y0 2.840962 1_555
Cl1 Y0 2.679436 1_555
Cl1 Y1 2.747809 1_555
Cl1 Na0 2.781018 1_555
Cl2 Y4 2.743814 1_544
Cl2 Y2 2.769218 1_655
Cl2 Y1 2.873403 1_555
Cl3 Y5 2.761028 1_554
Cl3 Y2 2.772227 1_665
Cl3 Y3 2.858551 1_555
Cl4 Y2 2.712619 1_555
Cl4 Y0 2.714989 1_555
Cl4 Na0 2.763318 1_555
Cl5 Y1 2.685095 1_555
Cl5 Y2 2.716889 1_555
Cl5 Na0 2.785113 1_555
Cl6 Y4 2.685095 1_555
Cl6 Y3 2.716890 1_555
Cl6 Na0 2.785113 1_555
Cl7 Y3 2.712619 1_555
Cl7 Y5 2.714990 1_555
Cl7 Na0 2.763318 1_555
Cl8 Y0 2.761028 1_556
Cl8 Y3 2.772226 1_445
Cl8 Y2 2.858551 1_555
Cl9 Y1 2.743816 1_566
Cl9 Y3 2.769217 1_455
Cl9 Y4 2.873404 1_555
Cl10 Y5 2.679436 1_555
Cl10 Y4 2.747811 1_555
Cl10 Na0 2.781018 1_555
Cl11 Y0 2.752665 1_656
Cl11 Y4 2.797790 1_545
Cl11 Y5 2.840962 1_555
