# generated using pymatgen
data_Lu3Be2Rh5
_symmetry_space_group_name_H-M   'P 1'
_cell_length_a   19.27268061
_cell_length_b   19.27268061
_cell_length_c   6.56760670
_cell_angle_alpha   90.00000000
_cell_angle_beta   90.00000000
_cell_angle_gamma   90.00000000
_symmetry_Int_Tables_number   1
_chemical_formula_structural   Lu3Be2Rh5
_chemical_formula_sum   'Lu48 Be32 Rh80'
_cell_volume   2439.44699341
_cell_formula_units_Z   16
loop_
 _symmetry_equiv_pos_site_id
 _symmetry_equiv_pos_as_xyz
  1  'x, y, z'
loop_
 _atom_site_type_symbol
 _atom_site_label
 _atom_site_symmetry_multiplicity
 _atom_site_fract_x
 _atom_site_fract_y
 _atom_site_fract_z
 _atom_site_occupancy
  Lu  Lu0_0  1  0.41281458  0.16281458  0.00000000  1
  Lu  Lu0_1  1  0.41281458  0.16281458  0.50000000  1
  Lu  Lu0_2  1  0.41281458  0.66281458  0.00000000  1
  Lu  Lu0_3  1  0.41281458  0.66281458  0.50000000  1
  Lu  Lu0_4  1  0.91281458  0.16281458  0.00000000  1
  Lu  Lu0_5  1  0.91281458  0.16281458  0.50000000  1
  Lu  Lu0_6  1  0.91281458  0.66281458  0.00000000  1
  Lu  Lu0_7  1  0.91281458  0.66281458  0.50000000  1
  Lu  Lu1_0  1  0.16281458  0.08718542  0.00000000  1
  Lu  Lu1_1  1  0.16281458  0.08718542  0.50000000  1
  Lu  Lu1_2  1  0.16281458  0.58718542  0.00000000  1
  Lu  Lu1_3  1  0.16281458  0.58718542  0.50000000  1
  Lu  Lu1_4  1  0.66281458  0.08718542  0.00000000  1
  Lu  Lu1_5  1  0.66281458  0.08718542  0.50000000  1
  Lu  Lu1_6  1  0.66281458  0.58718542  0.00000000  1
  Lu  Lu1_7  1  0.66281458  0.58718542  0.50000000  1
  Lu  Lu2_0  1  0.33718542  0.41281458  0.00000000  1
  Lu  Lu2_1  1  0.33718542  0.41281458  0.50000000  1
  Lu  Lu2_2  1  0.33718542  0.91281458  0.00000000  1
  Lu  Lu2_3  1  0.33718542  0.91281458  0.50000000  1
  Lu  Lu2_4  1  0.83718542  0.41281458  0.00000000  1
  Lu  Lu2_5  1  0.83718542  0.41281458  0.50000000  1
  Lu  Lu2_6  1  0.83718542  0.91281458  0.00000000  1
  Lu  Lu2_7  1  0.83718542  0.91281458  0.50000000  1
  Lu  Lu3_0  1  0.08718542  0.33718542  0.00000000  1
  Lu  Lu3_1  1  0.08718542  0.33718542  0.50000000  1
  Lu  Lu3_2  1  0.08718542  0.83718542  0.00000000  1
  Lu  Lu3_3  1  0.08718542  0.83718542  0.50000000  1
  Lu  Lu3_4  1  0.58718542  0.33718542  0.00000000  1
  Lu  Lu3_5  1  0.58718542  0.33718542  0.50000000  1
  Lu  Lu3_6  1  0.58718542  0.83718542  0.00000000  1
  Lu  Lu3_7  1  0.58718542  0.83718542  0.50000000  1
  Lu  Lu4_0  1  0.00000000  0.00000000  0.00000000  1
  Lu  Lu4_1  1  0.00000000  0.00000000  0.50000000  1
  Lu  Lu4_2  1  0.00000000  0.50000000  0.00000000  1
  Lu  Lu4_3  1  0.00000000  0.50000000  0.50000000  1
  Lu  Lu4_4  1  0.50000000  0.00000000  0.00000000  1
  Lu  Lu4_5  1  0.50000000  0.00000000  0.50000000  1
  Lu  Lu4_6  1  0.50000000  0.50000000  0.00000000  1
  Lu  Lu4_7  1  0.50000000  0.50000000  0.50000000  1
  Lu  Lu5_0  1  0.25000000  0.25000000  0.00000000  1
  Lu  Lu5_1  1  0.25000000  0.25000000  0.50000000  1
  Lu  Lu5_2  1  0.25000000  0.75000000  0.00000000  1
  Lu  Lu5_3  1  0.25000000  0.75000000  0.50000000  1
  Lu  Lu5_4  1  0.75000000  0.25000000  0.00000000  1
  Lu  Lu5_5  1  0.75000000  0.25000000  0.50000000  1
  Lu  Lu5_6  1  0.75000000  0.75000000  0.00000000  1
  Lu  Lu5_7  1  0.75000000  0.75000000  0.50000000  1
  Be  Be0_0  1  0.31010488  0.06010488  0.00000000  1
  Be  Be0_1  1  0.31010488  0.06010488  0.50000000  1
  Be  Be0_2  1  0.31010488  0.56010488  0.00000000  1
  Be  Be0_3  1  0.31010488  0.56010488  0.50000000  1
  Be  Be0_4  1  0.81010488  0.06010488  0.00000000  1
  Be  Be0_5  1  0.81010488  0.06010488  0.50000000  1
  Be  Be0_6  1  0.81010488  0.56010488  0.00000000  1
  Be  Be0_7  1  0.81010488  0.56010488  0.50000000  1
  Be  Be1_0  1  0.06010488  0.18989512  0.00000000  1
  Be  Be1_1  1  0.06010488  0.18989512  0.50000000  1
  Be  Be1_2  1  0.06010488  0.68989512  0.00000000  1
  Be  Be1_3  1  0.06010488  0.68989512  0.50000000  1
  Be  Be1_4  1  0.56010488  0.18989512  0.00000000  1
  Be  Be1_5  1  0.56010488  0.18989512  0.50000000  1
  Be  Be1_6  1  0.56010488  0.68989512  0.00000000  1
  Be  Be1_7  1  0.56010488  0.68989512  0.50000000  1
  Be  Be2_0  1  0.43989512  0.31010488  0.00000000  1
  Be  Be2_1  1  0.43989512  0.31010488  0.50000000  1
  Be  Be2_2  1  0.43989512  0.81010488  0.00000000  1
  Be  Be2_3  1  0.43989512  0.81010488  0.50000000  1
  Be  Be2_4  1  0.93989512  0.31010488  0.00000000  1
  Be  Be2_5  1  0.93989512  0.31010488  0.50000000  1
  Be  Be2_6  1  0.93989512  0.81010488  0.00000000  1
  Be  Be2_7  1  0.93989512  0.81010488  0.50000000  1
  Be  Be3_0  1  0.18989512  0.43989512  0.00000000  1
  Be  Be3_1  1  0.18989512  0.43989512  0.50000000  1
  Be  Be3_2  1  0.18989512  0.93989512  0.00000000  1
  Be  Be3_3  1  0.18989512  0.93989512  0.50000000  1
  Be  Be3_4  1  0.68989512  0.43989512  0.00000000  1
  Be  Be3_5  1  0.68989512  0.43989512  0.50000000  1
  Be  Be3_6  1  0.68989512  0.93989512  0.00000000  1
  Be  Be3_7  1  0.68989512  0.93989512  0.50000000  1
  Rh  Rh0_0  1  0.03583895  0.10956470  0.25000000  1
  Rh  Rh0_1  1  0.03583895  0.10956470  0.75000000  1
  Rh  Rh0_2  1  0.03583895  0.60956470  0.25000000  1
  Rh  Rh0_3  1  0.03583895  0.60956470  0.75000000  1
  Rh  Rh0_4  1  0.53583895  0.10956470  0.25000000  1
  Rh  Rh0_5  1  0.53583895  0.10956470  0.75000000  1
  Rh  Rh0_6  1  0.53583895  0.60956470  0.25000000  1
  Rh  Rh0_7  1  0.53583895  0.60956470  0.75000000  1
  Rh  Rh1_0  1  0.10956470  0.46416105  0.25000000  1
  Rh  Rh1_1  1  0.10956470  0.46416105  0.75000000  1
  Rh  Rh1_2  1  0.10956470  0.96416105  0.25000000  1
  Rh  Rh1_3  1  0.10956470  0.96416105  0.75000000  1
  Rh  Rh1_4  1  0.60956470  0.46416105  0.25000000  1
  Rh  Rh1_5  1  0.60956470  0.46416105  0.75000000  1
  Rh  Rh1_6  1  0.60956470  0.96416105  0.25000000  1
  Rh  Rh1_7  1  0.60956470  0.96416105  0.75000000  1
  Rh  Rh2_0  1  0.39043530  0.03583895  0.25000000  1
  Rh  Rh2_1  1  0.39043530  0.03583895  0.75000000  1
  Rh  Rh2_2  1  0.39043530  0.53583895  0.25000000  1
  Rh  Rh2_3  1  0.39043530  0.53583895  0.75000000  1
  Rh  Rh2_4  1  0.89043530  0.03583895  0.25000000  1
  Rh  Rh2_5  1  0.89043530  0.03583895  0.75000000  1
  Rh  Rh2_6  1  0.89043530  0.53583895  0.25000000  1
  Rh  Rh2_7  1  0.89043530  0.53583895  0.75000000  1
  Rh  Rh3_0  1  0.46416105  0.39043530  0.25000000  1
  Rh  Rh3_1  1  0.46416105  0.39043530  0.75000000  1
  Rh  Rh3_2  1  0.46416105  0.89043530  0.25000000  1
  Rh  Rh3_3  1  0.46416105  0.89043530  0.75000000  1
  Rh  Rh3_4  1  0.96416105  0.39043530  0.25000000  1
  Rh  Rh3_5  1  0.96416105  0.39043530  0.75000000  1
  Rh  Rh3_6  1  0.96416105  0.89043530  0.25000000  1
  Rh  Rh3_7  1  0.96416105  0.89043530  0.75000000  1
  Rh  Rh4_0  1  0.21416105  0.35956470  0.25000000  1
  Rh  Rh4_1  1  0.21416105  0.35956470  0.75000000  1
  Rh  Rh4_2  1  0.21416105  0.85956470  0.25000000  1
  Rh  Rh4_3  1  0.21416105  0.85956470  0.75000000  1
  Rh  Rh4_4  1  0.71416105  0.35956470  0.25000000  1
  Rh  Rh4_5  1  0.71416105  0.35956470  0.75000000  1
  Rh  Rh4_6  1  0.71416105  0.85956470  0.25000000  1
  Rh  Rh4_7  1  0.71416105  0.85956470  0.75000000  1
  Rh  Rh5_0  1  0.28583895  0.14043530  0.25000000  1
  Rh  Rh5_1  1  0.28583895  0.14043530  0.75000000  1
  Rh  Rh5_2  1  0.28583895  0.64043530  0.25000000  1
  Rh  Rh5_3  1  0.28583895  0.64043530  0.75000000  1
  Rh  Rh5_4  1  0.78583895  0.14043530  0.25000000  1
  Rh  Rh5_5  1  0.78583895  0.14043530  0.75000000  1
  Rh  Rh5_6  1  0.78583895  0.64043530  0.25000000  1
  Rh  Rh5_7  1  0.78583895  0.64043530  0.75000000  1
  Rh  Rh6_0  1  0.35956470  0.28583895  0.25000000  1
  Rh  Rh6_1  1  0.35956470  0.28583895  0.75000000  1
  Rh  Rh6_2  1  0.35956470  0.78583895  0.25000000  1
  Rh  Rh6_3  1  0.35956470  0.78583895  0.75000000  1
  Rh  Rh6_4  1  0.85956470  0.28583895  0.25000000  1
  Rh  Rh6_5  1  0.85956470  0.28583895  0.75000000  1
  Rh  Rh6_6  1  0.85956470  0.78583895  0.25000000  1
  Rh  Rh6_7  1  0.85956470  0.78583895  0.75000000  1
  Rh  Rh7_0  1  0.14043530  0.21416105  0.25000000  1
  Rh  Rh7_1  1  0.14043530  0.21416105  0.75000000  1
  Rh  Rh7_2  1  0.14043530  0.71416105  0.25000000  1
  Rh  Rh7_3  1  0.14043530  0.71416105  0.75000000  1
  Rh  Rh7_4  1  0.64043530  0.21416105  0.25000000  1
  Rh  Rh7_5  1  0.64043530  0.21416105  0.75000000  1
  Rh  Rh7_6  1  0.64043530  0.71416105  0.25000000  1
  Rh  Rh7_7  1  0.64043530  0.71416105  0.75000000  1
  Rh  Rh8_0  1  0.25000000  0.00000000  0.25000000  1
  Rh  Rh8_1  1  0.25000000  0.00000000  0.75000000  1
  Rh  Rh8_2  1  0.25000000  0.50000000  0.25000000  1
  Rh  Rh8_3  1  0.25000000  0.50000000  0.75000000  1
  Rh  Rh8_4  1  0.75000000  0.00000000  0.25000000  1
  Rh  Rh8_5  1  0.75000000  0.00000000  0.75000000  1
  Rh  Rh8_6  1  0.75000000  0.50000000  0.25000000  1
  Rh  Rh8_7  1  0.75000000  0.50000000  0.75000000  1
  Rh  Rh9_0  1  0.00000000  0.25000000  0.25000000  1
  Rh  Rh9_1  1  0.00000000  0.25000000  0.75000000  1
  Rh  Rh9_2  1  0.00000000  0.75000000  0.25000000  1
  Rh  Rh9_3  1  0.00000000  0.75000000  0.75000000  1
  Rh  Rh9_4  1  0.50000000  0.25000000  0.25000000  1
  Rh  Rh9_5  1  0.50000000  0.25000000  0.75000000  1
  Rh  Rh9_6  1  0.50000000  0.75000000  0.25000000  1
  Rh  Rh9_7  1  0.50000000  0.75000000  0.75000000  1
loop_
_geom_bond_atom_site_label_1
_geom_bond_atom_site_label_2
_geom_bond_distance
_geom_bond_site_symmetry_2
Lu0_0 Rh9_4 2.888362 1_555
Lu0_0 Rh9_5 2.888362 1_554
Lu0_0 Rh5_0 2.978333 1_555
Lu0_0 Rh2_0 2.978333 1_555
Lu0_0 Rh2_1 2.978333 1_554
Lu0_0 Rh5_1 2.978333 1_554
Lu0_0 Rh0_4 3.061168 1_555
Lu0_0 Rh0_5 3.061168 1_554
Lu0_0 Rh6_1 3.061168 1_554
Lu0_0 Rh6_0 3.061168 1_555
Lu0_0 Lu0_1 3.283803 1_555
Lu0_0 Lu0_1 3.283803 1_554
Lu0_1 Rh9_5 2.888362 1_555
Lu0_1 Rh9_4 2.888362 1_555
Lu0_1 Rh5_1 2.978333 1_555
Lu0_1 Rh2_1 2.978333 1_555
Lu0_1 Rh5_0 2.978333 1_555
Lu0_1 Rh2_0 2.978333 1_555
Lu0_1 Rh0_5 3.061168 1_555
Lu0_1 Rh0_4 3.061168 1_555
Lu0_1 Rh6_1 3.061168 1_555
Lu0_1 Rh6_0 3.061168 1_555
Lu0_2 Rh9_6 2.888362 1_555
Lu0_2 Rh9_7 2.888362 1_554
Lu0_2 Rh5_2 2.978333 1_555
Lu0_2 Rh5_3 2.978333 1_554
Lu0_2 Rh2_3 2.978333 1_554
Lu0_2 Rh2_2 2.978333 1_555
Lu0_2 Rh6_2 3.061168 1_555
Lu0_2 Rh6_3 3.061168 1_554
Lu0_2 Rh0_6 3.061168 1_555
Lu0_2 Rh0_7 3.061168 1_554
Lu0_2 Lu0_3 3.283803 1_555
Lu0_2 Lu0_3 3.283803 1_554
Lu0_3 Rh9_7 2.888362 1_555
Lu0_3 Rh9_6 2.888362 1_555
Lu0_3 Rh5_3 2.978333 1_555
Lu0_3 Rh5_2 2.978333 1_555
Lu0_3 Rh2_3 2.978333 1_555
Lu0_3 Rh2_2 2.978333 1_555
Lu0_3 Rh6_2 3.061168 1_555
Lu0_3 Rh6_3 3.061168 1_555
Lu0_3 Rh0_7 3.061168 1_555
Lu0_3 Rh0_6 3.061168 1_555
Lu0_4 Rh9_0 2.888362 1_655
Lu0_4 Rh9_1 2.888362 1_654
Lu0_4 Rh2_4 2.978333 1_555
Lu0_4 Rh2_5 2.978333 1_554
Lu0_4 Rh5_4 2.978333 1_555
Lu0_4 Rh5_5 2.978333 1_554
Lu0_4 Rh6_4 3.061168 1_555
Lu0_4 Rh6_5 3.061168 1_554
Lu0_4 Rh0_1 3.061168 1_654
Lu0_4 Rh0_0 3.061168 1_655
Lu0_4 Lu0_5 3.283803 1_555
Lu0_4 Lu0_5 3.283803 1_554
Lu0_5 Rh9_1 2.888362 1_655
Lu0_5 Rh9_0 2.888362 1_655
Lu0_5 Rh5_5 2.978333 1_555
Lu0_5 Rh2_4 2.978333 1_555
Lu0_5 Rh2_5 2.978333 1_555
Lu0_5 Rh5_4 2.978333 1_555
Lu0_5 Rh6_5 3.061168 1_555
Lu0_5 Rh6_4 3.061168 1_555
Lu0_5 Rh0_1 3.061168 1_655
Lu0_5 Rh0_0 3.061168 1_655
Lu0_6 Rh9_3 2.888362 1_654
Lu0_6 Rh9_2 2.888362 1_655
Lu0_6 Rh5_6 2.978333 1_555
Lu0_6 Rh5_7 2.978333 1_554
Lu0_6 Rh2_6 2.978333 1_555
Lu0_6 Rh2_7 2.978333 1_554
Lu0_6 Rh6_6 3.061168 1_555
Lu0_6 Rh6_7 3.061168 1_554
Lu0_6 Rh0_2 3.061168 1_655
Lu0_6 Rh0_3 3.061168 1_654
Lu0_6 Lu0_7 3.283803 1_554
Lu0_6 Lu0_7 3.283803 1_555
Lu0_7 Rh9_3 2.888362 1_655
Lu0_7 Rh9_2 2.888362 1_655
Lu0_7 Rh5_7 2.978333 1_555
Lu0_7 Rh5_6 2.978333 1_555
Lu0_7 Rh2_7 2.978333 1_555
Lu0_7 Rh2_6 2.978333 1_555
Lu0_7 Rh6_7 3.061168 1_555
Lu0_7 Rh6_6 3.061168 1_555
Lu0_7 Rh0_3 3.061168 1_655
Lu0_7 Rh0_2 3.061168 1_655
Lu1_0 Rh8_0 2.888362 1_555
Lu1_0 Rh8_1 2.888362 1_554
Lu1_0 Rh0_0 2.978333 1_555
Lu1_0 Rh0_1 2.978333 1_554
Lu1_0 Rh7_0 2.978333 1_555
Lu1_0 Rh7_1 2.978333 1_554
Lu1_0 Rh5_0 3.061168 1_555
Lu1_0 Rh1_2 3.061168 1_545
Lu1_0 Rh5_1 3.061168 1_554
Lu1_0 Rh1_3 3.061168 1_544
Lu1_0 Lu1_1 3.283803 1_554
Lu1_0 Lu1_1 3.283803 1_555
Lu1_1 Rh8_1 2.888362 1_555
Lu1_1 Rh8_0 2.888362 1_555
Lu1_1 Rh0_1 2.978333 1_555
Lu1_1 Rh7_1 2.978333 1_555
Lu1_1 Rh7_0 2.978333 1_555
Lu1_1 Rh0_0 2.978333 1_555
Lu1_1 Rh5_1 3.061168 1_555
Lu1_1 Rh5_0 3.061168 1_555
Lu1_1 Rh1_2 3.061168 1_545
Lu1_1 Rh1_3 3.061168 1_545
Lu1_2 Rh8_2 2.888362 1_555
Lu1_2 Rh8_3 2.888362 1_554
Lu1_2 Rh0_2 2.978333 1_555
Lu1_2 Rh0_3 2.978333 1_554
Lu1_2 Rh7_2 2.978333 1_555
Lu1_2 Rh7_3 2.978333 1_554
Lu1_2 Rh1_0 3.061168 1_555
Lu1_2 Rh1_1 3.061168 1_554
Lu1_2 Rh5_3 3.061168 1_554
Lu1_2 Rh5_2 3.061168 1_555
Lu1_2 Lu1_3 3.283803 1_554
Lu1_2 Lu1_3 3.283803 1_555
Lu1_3 Rh8_3 2.888362 1_555
Lu1_3 Rh8_2 2.888362 1_555
Lu1_3 Rh0_3 2.978333 1_555
Lu1_3 Rh0_2 2.978333 1_555
Lu1_3 Rh7_3 2.978333 1_555
Lu1_3 Rh7_2 2.978333 1_555
Lu1_3 Rh5_3 3.061168 1_555
Lu1_3 Rh1_1 3.061168 1_555
Lu1_3 Rh1_0 3.061168 1_555
Lu1_3 Rh5_2 3.061168 1_555
Lu1_4 Rh8_4 2.888362 1_555
Lu1_4 Rh8_5 2.888362 1_554
Lu1_4 Rh7_4 2.978333 1_555
Lu1_4 Rh0_4 2.978333 1_555
Lu1_4 Rh7_5 2.978333 1_554
Lu1_4 Rh0_5 2.978333 1_554
Lu1_4 Rh5_4 3.061168 1_555
Lu1_4 Rh5_5 3.061168 1_554
Lu1_4 Rh1_6 3.061168 1_545
Lu1_4 Rh1_7 3.061168 1_544
Lu1_4 Lu1_5 3.283803 1_555
Lu1_4 Lu1_5 3.283803 1_554
Lu1_5 Rh8_5 2.888362 1_555
Lu1_5 Rh8_4 2.888362 1_555
Lu1_5 Rh7_5 2.978333 1_555
Lu1_5 Rh0_5 2.978333 1_555
Lu1_5 Rh7_4 2.978333 1_555
Lu1_5 Rh0_4 2.978333 1_555
Lu1_5 Rh5_5 3.061168 1_555
Lu1_5 Rh5_4 3.061168 1_555
Lu1_5 Rh1_6 3.061168 1_545
Lu1_5 Rh1_7 3.061168 1_545
Lu1_6 Rh8_7 2.888362 1_554
Lu1_6 Rh8_6 2.888362 1_555
Lu1_6 Rh7_6 2.978333 1_555
Lu1_6 Rh0_6 2.978333 1_555
Lu1_6 Rh7_7 2.978333 1_554
Lu1_6 Rh0_7 2.978333 1_554
Lu1_6 Rh5_6 3.061168 1_555
Lu1_6 Rh5_7 3.061168 1_554
Lu1_6 Rh1_4 3.061168 1_555
Lu1_6 Rh1_5 3.061168 1_554
Lu1_6 Lu1_7 3.283803 1_554
Lu1_6 Lu1_7 3.283803 1_555
Lu1_7 Rh8_7 2.888362 1_555
Lu1_7 Rh8_6 2.888362 1_555
Lu1_7 Rh0_7 2.978333 1_555
Lu1_7 Rh7_6 2.978333 1_555
Lu1_7 Rh0_6 2.978333 1_555
Lu1_7 Rh7_7 2.978333 1_555
Lu1_7 Rh5_6 3.061168 1_555
Lu1_7 Rh5_7 3.061168 1_555
Lu1_7 Rh1_5 3.061168 1_555
Lu1_7 Rh1_4 3.061168 1_555
Lu2_0 Rh8_2 2.888362 1_555
Lu2_0 Rh8_3 2.888362 1_554
Lu2_0 Rh3_0 2.978333 1_555
Lu2_0 Rh3_1 2.978333 1_554
Lu2_0 Rh6_0 2.978333 1_555
Lu2_0 Rh6_1 2.978333 1_554
Lu2_0 Rh2_2 3.061168 1_555
Lu2_0 Rh2_3 3.061168 1_554
Lu2_0 Rh4_0 3.061168 1_555
Lu2_0 Rh4_1 3.061168 1_554
Lu2_0 Lu2_1 3.283803 1_555
Lu2_0 Lu2_1 3.283803 1_554
Lu2_1 Rh8_3 2.888362 1_555
Lu2_1 Rh8_2 2.888362 1_555
Lu2_1 Rh3_1 2.978333 1_555
Lu2_1 Rh3_0 2.978333 1_555
Lu2_1 Rh6_0 2.978333 1_555
Lu2_1 Rh6_1 2.978333 1_555
Lu2_1 Rh2_3 3.061168 1_555
Lu2_1 Rh4_1 3.061168 1_555
Lu2_1 Rh2_2 3.061168 1_555
Lu2_1 Rh4_0 3.061168 1_555
Lu2_2 Rh8_0 2.888362 1_565
Lu2_2 Rh8_1 2.888362 1_564
Lu2_2 Rh3_3 2.978333 1_554
Lu2_2 Rh3_2 2.978333 1_555
Lu2_2 Rh6_2 2.978333 1_555
Lu2_2 Rh6_3 2.978333 1_554
Lu2_2 Rh4_2 3.061168 1_555
Lu2_2 Rh4_3 3.061168 1_554
Lu2_2 Rh2_1 3.061168 1_564
Lu2_2 Rh2_0 3.061168 1_565
Lu2_2 Lu2_3 3.283803 1_554
Lu2_2 Lu2_3 3.283803 1_555
Lu2_3 Rh8_1 2.888362 1_565
Lu2_3 Rh8_0 2.888362 1_565
Lu2_3 Rh3_3 2.978333 1_555
Lu2_3 Rh3_2 2.978333 1_555
Lu2_3 Rh6_3 2.978333 1_555
Lu2_3 Rh6_2 2.978333 1_555
Lu2_3 Rh4_3 3.061168 1_555
Lu2_3 Rh2_1 3.061168 1_565
Lu2_3 Rh4_2 3.061168 1_555
Lu2_3 Rh2_0 3.061168 1_565
Lu2_4 Rh8_6 2.888362 1_555
Lu2_4 Rh8_7 2.888362 1_554
Lu2_4 Rh3_4 2.978333 1_555
Lu2_4 Rh6_4 2.978333 1_555
Lu2_4 Rh3_5 2.978333 1_554
Lu2_4 Rh6_5 2.978333 1_554
Lu2_4 Rh4_4 3.061168 1_555
Lu2_4 Rh4_5 3.061168 1_554
Lu2_4 Rh2_6 3.061168 1_555
Lu2_4 Rh2_7 3.061168 1_554
Lu2_4 Lu2_5 3.283803 1_554
Lu2_4 Lu2_5 3.283803 1_555
Lu2_5 Rh8_7 2.888362 1_555
Lu2_5 Rh8_6 2.888362 1_555
Lu2_5 Rh3_5 2.978333 1_555
Lu2_5 Rh3_4 2.978333 1_555
Lu2_5 Rh6_5 2.978333 1_555
Lu2_5 Rh6_4 2.978333 1_555
Lu2_5 Rh4_4 3.061168 1_555
Lu2_5 Rh4_5 3.061168 1_555
Lu2_5 Rh2_7 3.061168 1_555
Lu2_5 Rh2_6 3.061168 1_555
Lu2_6 Rh8_4 2.888362 1_565
Lu2_6 Rh8_5 2.888362 1_564
Lu2_6 Rh3_7 2.978333 1_554
Lu2_6 Rh3_6 2.978333 1_555
Lu2_6 Rh6_6 2.978333 1_555
Lu2_6 Rh6_7 2.978333 1_554
Lu2_6 Rh4_6 3.061168 1_555
Lu2_6 Rh4_7 3.061168 1_554
Lu2_6 Rh2_4 3.061168 1_565
Lu2_6 Rh2_5 3.061168 1_564
Lu2_6 Lu2_7 3.283803 1_555
Lu2_6 Lu2_7 3.283803 1_554
Lu2_7 Rh8_4 2.888362 1_565
Lu2_7 Rh8_5 2.888362 1_565
Lu2_7 Rh3_7 2.978333 1_555
Lu2_7 Rh6_7 2.978333 1_555
Lu2_7 Rh3_6 2.978333 1_555
Lu2_7 Rh6_6 2.978333 1_555
Lu2_7 Rh4_7 3.061168 1_555
Lu2_7 Rh4_6 3.061168 1_555
Lu2_7 Rh2_5 3.061168 1_565
Lu2_7 Rh2_4 3.061168 1_565
Lu3_0 Rh9_0 2.888362 1_555
Lu3_0 Rh9_1 2.888362 1_554
Lu3_0 Rh1_0 2.978333 1_555
Lu3_0 Rh1_1 2.978333 1_554
Lu3_0 Rh4_0 2.978333 1_555
Lu3_0 Rh4_1 2.978333 1_554
Lu3_0 Rh3_4 3.061168 1_455
Lu3_0 Rh7_0 3.061168 1_555
Lu3_0 Rh7_1 3.061168 1_554
Lu3_0 Rh3_5 3.061168 1_454
Lu3_0 Lu3_1 3.283803 1_555
Lu3_0 Lu3_1 3.283803 1_554
Lu3_1 Rh9_1 2.888362 1_555
Lu3_1 Rh9_0 2.888362 1_555
Lu3_1 Rh1_1 2.978333 1_555
Lu3_1 Rh1_0 2.978333 1_555
Lu3_1 Rh4_1 2.978333 1_555
Lu3_1 Rh4_0 2.978333 1_555
Lu3_1 Rh7_1 3.061168 1_555
Lu3_1 Rh3_4 3.061168 1_455
Lu3_1 Rh7_0 3.061168 1_555
Lu3_1 Rh3_5 3.061168 1_455
Lu3_2 Rh9_3 2.888362 1_554
Lu3_2 Rh9_2 2.888362 1_555
Lu3_2 Rh1_2 2.978333 1_555
Lu3_2 Rh1_3 2.978333 1_554
Lu3_2 Rh4_2 2.978333 1_555
Lu3_2 Rh4_3 2.978333 1_554
Lu3_2 Rh7_2 3.061168 1_555
Lu3_2 Rh7_3 3.061168 1_554
Lu3_2 Rh3_6 3.061168 1_455
Lu3_2 Rh3_7 3.061168 1_454
Lu3_2 Lu3_3 3.283803 1_555
Lu3_2 Lu3_3 3.283803 1_554
Lu3_3 Rh9_3 2.888362 1_555
Lu3_3 Rh9_2 2.888362 1_555
Lu3_3 Rh1_3 2.978333 1_555
Lu3_3 Rh1_2 2.978333 1_555
Lu3_3 Rh4_3 2.978333 1_555
Lu3_3 Rh4_2 2.978333 1_555
Lu3_3 Rh7_3 3.061168 1_555
Lu3_3 Rh7_2 3.061168 1_555
Lu3_3 Rh3_7 3.061168 1_455
Lu3_3 Rh3_6 3.061168 1_455
Lu3_4 Rh9_4 2.888362 1_555
Lu3_4 Rh9_5 2.888362 1_554
Lu3_4 Rh1_4 2.978333 1_555
Lu3_4 Rh1_5 2.978333 1_554
Lu3_4 Rh4_4 2.978333 1_555
Lu3_4 Rh4_5 2.978333 1_554
Lu3_4 Rh3_0 3.061168 1_555
Lu3_4 Rh7_4 3.061168 1_555
Lu3_4 Rh7_5 3.061168 1_554
Lu3_4 Rh3_1 3.061168 1_554
Lu3_4 Lu3_5 3.283803 1_555
Lu3_4 Lu3_5 3.283803 1_554
Lu3_5 Rh9_5 2.888362 1_555
Lu3_5 Rh9_4 2.888362 1_555
Lu3_5 Rh1_5 2.978333 1_555
Lu3_5 Rh1_4 2.978333 1_555
Lu3_5 Rh4_5 2.978333 1_555
Lu3_5 Rh4_4 2.978333 1_555
Lu3_5 Rh7_5 3.061168 1_555
Lu3_5 Rh3_1 3.061168 1_555
Lu3_5 Rh3_0 3.061168 1_555
Lu3_5 Rh7_4 3.061168 1_555
Lu3_6 Rh9_6 2.888362 1_555
Lu3_6 Rh9_7 2.888362 1_554
Lu3_6 Rh1_6 2.978333 1_555
Lu3_6 Rh1_7 2.978333 1_554
Lu3_6 Rh4_6 2.978333 1_555
Lu3_6 Rh4_7 2.978333 1_554
Lu3_6 Rh7_6 3.061168 1_555
Lu3_6 Rh7_7 3.061168 1_554
Lu3_6 Rh3_2 3.061168 1_555
Lu3_6 Rh3_3 3.061168 1_554
Lu3_6 Lu3_7 3.283803 1_554
Lu3_6 Lu3_7 3.283803 1_555
Lu3_7 Rh9_7 2.888362 1_555
Lu3_7 Rh9_6 2.888362 1_555
Lu3_7 Rh1_7 2.978333 1_555
Lu3_7 Rh1_6 2.978333 1_555
Lu3_7 Rh4_7 2.978333 1_555
Lu3_7 Rh4_6 2.978333 1_555
Lu3_7 Rh7_6 3.061168 1_555
Lu3_7 Rh7_7 3.061168 1_555
Lu3_7 Rh3_3 3.061168 1_555
Lu3_7 Rh3_2 3.061168 1_555
Lu4_0 Rh0_0 2.762572 1_555
Lu4_0 Rh0_1 2.762572 1_554
Lu4_0 Rh1_2 2.762572 1_545
Lu4_0 Rh1_3 2.762572 1_544
Lu4_0 Rh2_4 2.762572 1_455
Lu4_0 Rh2_5 2.762572 1_454
Lu4_0 Rh3_6 2.762572 1_445
Lu4_0 Rh3_7 2.762572 1_444
Lu4_1 Rh0_1 2.762572 1_555
Lu4_1 Rh0_0 2.762572 1_555
Lu4_1 Rh1_3 2.762572 1_545
Lu4_1 Rh1_2 2.762572 1_545
Lu4_1 Rh2_5 2.762572 1_455
Lu4_1 Rh2_4 2.762572 1_455
Lu4_1 Rh3_7 2.762572 1_445
Lu4_1 Rh3_6 2.762572 1_445
Lu4_2 Rh0_2 2.762572 1_555
Lu4_2 Rh0_3 2.762572 1_554
Lu4_2 Rh1_0 2.762572 1_555
Lu4_2 Rh1_1 2.762572 1_554
Lu4_2 Rh2_6 2.762572 1_455
Lu4_2 Rh2_7 2.762572 1_454
Lu4_2 Rh3_4 2.762572 1_455
Lu4_2 Rh3_5 2.762572 1_454
Lu4_3 Rh0_3 2.762572 1_555
Lu4_3 Rh0_2 2.762572 1_555
Lu4_3 Rh1_1 2.762572 1_555
Lu4_3 Rh1_0 2.762572 1_555
Lu4_3 Rh2_7 2.762572 1_455
Lu4_3 Rh2_6 2.762572 1_455
Lu4_3 Rh3_4 2.762572 1_455
Lu4_3 Rh3_5 2.762572 1_455
Lu4_4 Rh0_4 2.762572 1_555
Lu4_4 Rh0_5 2.762572 1_554
Lu4_4 Rh1_6 2.762572 1_545
Lu4_4 Rh1_7 2.762572 1_544
Lu4_4 Rh2_0 2.762572 1_555
Lu4_4 Rh2_1 2.762572 1_554
Lu4_4 Rh3_2 2.762572 1_545
Lu4_4 Rh3_3 2.762572 1_544
Lu4_5 Rh0_5 2.762572 1_555
Lu4_5 Rh0_4 2.762572 1_555
Lu4_5 Rh1_7 2.762572 1_545
Lu4_5 Rh1_6 2.762572 1_545
Lu4_5 Rh2_1 2.762572 1_555
Lu4_5 Rh2_0 2.762572 1_555
Lu4_5 Rh3_3 2.762572 1_545
Lu4_5 Rh3_2 2.762572 1_545
Lu4_6 Rh0_7 2.762572 1_554
Lu4_6 Rh0_6 2.762572 1_555
Lu4_6 Rh1_4 2.762572 1_555
Lu4_6 Rh1_5 2.762572 1_554
Lu4_6 Rh2_2 2.762572 1_555
Lu4_6 Rh2_3 2.762572 1_554
Lu4_6 Rh3_0 2.762572 1_555
Lu4_6 Rh3_1 2.762572 1_554
Lu4_7 Rh0_7 2.762572 1_555
Lu4_7 Rh0_6 2.762572 1_555
Lu4_7 Rh1_5 2.762572 1_555
Lu4_7 Rh1_4 2.762572 1_555
Lu4_7 Rh2_3 2.762572 1_555
Lu4_7 Rh2_2 2.762572 1_555
Lu4_7 Rh3_0 2.762572 1_555
Lu4_7 Rh3_1 2.762572 1_555
Lu5_0 Rh6_0 2.762572 1_555
Lu5_0 Rh6_1 2.762572 1_554
Lu5_0 Rh4_0 2.762572 1_555
Lu5_0 Rh4_1 2.762572 1_554
Lu5_0 Rh5_0 2.762572 1_555
Lu5_0 Rh5_1 2.762572 1_554
Lu5_0 Rh7_0 2.762572 1_555
Lu5_0 Rh7_1 2.762572 1_554
Lu5_1 Rh6_0 2.762572 1_555
Lu5_1 Rh6_1 2.762572 1_555
Lu5_1 Rh4_1 2.762572 1_555
Lu5_1 Rh4_0 2.762572 1_555
Lu5_1 Rh5_1 2.762572 1_555
Lu5_1 Rh5_0 2.762572 1_555
Lu5_1 Rh7_1 2.762572 1_555
Lu5_1 Rh7_0 2.762572 1_555
Lu5_2 Rh6_2 2.762572 1_555
Lu5_2 Rh6_3 2.762572 1_554
Lu5_2 Rh4_3 2.762572 1_554
Lu5_2 Rh4_2 2.762572 1_555
Lu5_2 Rh5_2 2.762572 1_555
Lu5_2 Rh5_3 2.762572 1_554
Lu5_2 Rh7_2 2.762572 1_555
Lu5_2 Rh7_3 2.762572 1_554
Lu5_3 Rh6_3 2.762572 1_555
Lu5_3 Rh6_2 2.762572 1_555
Lu5_3 Rh4_3 2.762572 1_555
Lu5_3 Rh4_2 2.762572 1_555
Lu5_3 Rh5_3 2.762572 1_555
Lu5_3 Rh5_2 2.762572 1_555
Lu5_3 Rh7_2 2.762572 1_555
Lu5_3 Rh7_3 2.762572 1_555
Lu5_4 Rh6_4 2.762572 1_555
Lu5_4 Rh6_5 2.762572 1_554
Lu5_4 Rh4_4 2.762572 1_555
Lu5_4 Rh4_5 2.762572 1_554
Lu5_4 Rh5_4 2.762572 1_555
Lu5_4 Rh5_5 2.762572 1_554
Lu5_4 Rh7_4 2.762572 1_555
Lu5_4 Rh7_5 2.762572 1_554
Lu5_5 Rh6_5 2.762572 1_555
Lu5_5 Rh6_4 2.762572 1_555
Lu5_5 Rh4_5 2.762572 1_555
Lu5_5 Rh4_4 2.762572 1_555
Lu5_5 Rh5_5 2.762572 1_555
Lu5_5 Rh5_4 2.762572 1_555
Lu5_5 Rh7_5 2.762572 1_555
Lu5_5 Rh7_4 2.762572 1_555
Lu5_6 Rh6_6 2.762572 1_555
Lu5_6 Rh6_7 2.762572 1_554
Lu5_6 Rh4_6 2.762572 1_555
Lu5_6 Rh4_7 2.762572 1_554
Lu5_6 Rh5_6 2.762572 1_555
Lu5_6 Rh5_7 2.762572 1_554
Lu5_6 Rh7_6 2.762572 1_555
Lu5_6 Rh7_7 2.762572 1_554
Lu5_7 Rh6_7 2.762572 1_555
Lu5_7 Rh6_6 2.762572 1_555
Lu5_7 Rh4_7 2.762572 1_555
Lu5_7 Rh4_6 2.762572 1_555
Lu5_7 Rh5_7 2.762572 1_555
Lu5_7 Rh5_6 2.762572 1_555
Lu5_7 Rh7_7 2.762572 1_555
Lu5_7 Rh7_6 2.762572 1_555
Be0_0 Rh5_0 2.304653 1_555
Be0_0 Rh2_0 2.304653 1_555
Be0_0 Rh5_1 2.304653 1_554
Be0_0 Rh2_1 2.304653 1_554
Be0_0 Rh8_0 2.319383 1_555
Be0_0 Rh8_1 2.319383 1_554
Be0_0 Lu0_0 2.799423 1_555
Be0_0 Lu1_0 2.886259 1_555
Be0_0 Lu2_2 2.886259 1_545
Be0_1 Rh2_1 2.304653 1_555
Be0_1 Rh5_0 2.304653 1_555
Be0_1 Rh5_1 2.304653 1_555
Be0_1 Rh2_0 2.304653 1_555
Be0_1 Rh8_1 2.319383 1_555
Be0_1 Rh8_0 2.319383 1_555
Be0_1 Lu0_1 2.799423 1_555
Be0_1 Lu1_1 2.886259 1_555
Be0_1 Lu2_3 2.886259 1_545
Be0_2 Rh5_2 2.304653 1_555
Be0_2 Rh5_3 2.304653 1_554
Be0_2 Rh2_3 2.304653 1_554
Be0_2 Rh2_2 2.304653 1_555
Be0_2 Rh8_2 2.319383 1_555
Be0_2 Rh8_3 2.319383 1_554
Be0_2 Lu0_2 2.799423 1_555
Be0_2 Lu1_2 2.886259 1_555
Be0_2 Lu2_0 2.886259 1_555
Be0_3 Rh5_3 2.304653 1_555
Be0_3 Rh5_2 2.304653 1_555
Be0_3 Rh2_3 2.304653 1_555
Be0_3 Rh2_2 2.304653 1_555
Be0_3 Rh8_3 2.319383 1_555
Be0_3 Rh8_2 2.319383 1_555
Be0_3 Lu0_3 2.799423 1_555
Be0_3 Lu1_3 2.886259 1_555
Be0_3 Lu2_1 2.886259 1_555
Be0_4 Rh5_4 2.304653 1_555
Be0_4 Rh2_4 2.304653 1_555
Be0_4 Rh2_5 2.304653 1_554
Be0_4 Rh5_5 2.304653 1_554
Be0_4 Rh8_4 2.319383 1_555
Be0_4 Rh8_5 2.319383 1_554
Be0_4 Lu0_4 2.799423 1_555
Be0_4 Lu2_6 2.886259 1_545
Be0_4 Lu1_4 2.886259 1_555
Be0_5 Rh5_5 2.304653 1_555
Be0_5 Rh2_5 2.304653 1_555
Be0_5 Rh5_4 2.304653 1_555
Be0_5 Rh2_4 2.304653 1_555
Be0_5 Rh8_5 2.319383 1_555
Be0_5 Rh8_4 2.319383 1_555
Be0_5 Lu0_5 2.799423 1_555
Be0_5 Lu1_5 2.886259 1_555
Be0_5 Lu2_7 2.886259 1_545
Be0_6 Rh5_6 2.304653 1_555
Be0_6 Rh5_7 2.304653 1_554
Be0_6 Rh2_6 2.304653 1_555
Be0_6 Rh2_7 2.304653 1_554
Be0_6 Rh8_6 2.319383 1_555
Be0_6 Rh8_7 2.319383 1_554
Be0_6 Lu0_6 2.799423 1_555
Be0_6 Lu1_6 2.886259 1_555
Be0_6 Lu2_4 2.886259 1_555
Be0_7 Rh5_7 2.304653 1_555
Be0_7 Rh5_6 2.304653 1_555
Be0_7 Rh2_7 2.304653 1_555
Be0_7 Rh2_6 2.304653 1_555
Be0_7 Rh8_7 2.319383 1_555
Be0_7 Rh8_6 2.319383 1_555
Be0_7 Lu0_7 2.799423 1_555
Be0_7 Lu1_7 2.886259 1_555
Be0_7 Lu2_5 2.886259 1_555
Be1_0 Rh7_0 2.304653 1_555
Be1_0 Rh0_0 2.304653 1_555
Be1_0 Rh7_1 2.304653 1_554
Be1_0 Rh0_1 2.304653 1_554
Be1_0 Rh9_0 2.319383 1_555
Be1_0 Rh9_1 2.319383 1_554
Be1_0 Lu1_0 2.799423 1_555
Be1_0 Lu3_0 2.886259 1_555
Be1_0 Lu0_4 2.886259 1_455
Be1_1 Rh7_1 2.304653 1_555
Be1_1 Rh7_0 2.304653 1_555
Be1_1 Rh0_1 2.304653 1_555
Be1_1 Rh0_0 2.304653 1_555
Be1_1 Rh9_1 2.319383 1_555
Be1_1 Rh9_0 2.319383 1_555
Be1_1 Lu1_1 2.799423 1_555
Be1_1 Lu3_1 2.886259 1_555
Be1_1 Lu0_5 2.886259 1_455
Be1_2 Rh7_2 2.304653 1_555
Be1_2 Rh0_2 2.304653 1_555
Be1_2 Rh7_3 2.304653 1_554
Be1_2 Rh0_3 2.304653 1_554
Be1_2 Rh9_2 2.319383 1_555
Be1_2 Rh9_3 2.319383 1_554
Be1_2 Lu1_2 2.799423 1_555
Be1_2 Lu3_2 2.886259 1_555
Be1_2 Lu0_6 2.886259 1_455
Be1_3 Rh7_3 2.304653 1_555
Be1_3 Rh0_3 2.304653 1_555
Be1_3 Rh7_2 2.304653 1_555
Be1_3 Rh0_2 2.304653 1_555
Be1_3 Rh9_3 2.319383 1_555
Be1_3 Rh9_2 2.319383 1_555
Be1_3 Lu1_3 2.799423 1_555
Be1_3 Lu3_3 2.886259 1_555
Be1_3 Lu0_7 2.886259 1_455
Be1_4 Rh7_4 2.304653 1_555
Be1_4 Rh7_5 2.304653 1_554
Be1_4 Rh0_4 2.304653 1_555
Be1_4 Rh0_5 2.304653 1_554
Be1_4 Rh9_4 2.319383 1_555
Be1_4 Rh9_5 2.319383 1_554
Be1_4 Lu1_4 2.799423 1_555
Be1_4 Lu3_4 2.886259 1_555
Be1_4 Lu0_0 2.886259 1_555
Be1_5 Rh7_5 2.304653 1_555
Be1_5 Rh7_4 2.304653 1_555
Be1_5 Rh0_5 2.304653 1_555
Be1_5 Rh0_4 2.304653 1_555
Be1_5 Rh9_5 2.319383 1_555
Be1_5 Rh9_4 2.319383 1_555
Be1_5 Lu1_5 2.799423 1_555
Be1_5 Lu3_5 2.886259 1_555
Be1_5 Lu0_1 2.886259 1_555
Be1_6 Rh7_6 2.304653 1_555
Be1_6 Rh7_7 2.304653 1_554
Be1_6 Rh0_7 2.304653 1_554
Be1_6 Rh0_6 2.304653 1_555
Be1_6 Rh9_6 2.319383 1_555
Be1_6 Rh9_7 2.319383 1_554
Be1_6 Lu1_6 2.799423 1_555
Be1_6 Lu3_6 2.886259 1_555
Be1_6 Lu0_2 2.886259 1_555
Be1_7 Rh7_7 2.304653 1_555
Be1_7 Rh7_6 2.304653 1_555
Be1_7 Rh0_7 2.304653 1_555
Be1_7 Rh0_6 2.304653 1_555
Be1_7 Rh9_7 2.319383 1_555
Be1_7 Rh9_6 2.319383 1_555
Be1_7 Lu1_7 2.799423 1_555
Be1_7 Lu3_7 2.886259 1_555
Be1_7 Lu0_3 2.886259 1_555
Be2_0 Rh6_0 2.304653 1_555
Be2_0 Rh3_0 2.304653 1_555
Be2_0 Rh6_1 2.304653 1_554
Be2_0 Rh3_1 2.304653 1_554
Be2_0 Rh9_4 2.319383 1_555
Be2_0 Rh9_5 2.319383 1_554
Be2_0 Lu2_0 2.799423 1_555
Be2_0 Lu3_4 2.886259 1_555
Be2_0 Lu0_0 2.886259 1_555
Be2_1 Rh6_1 2.304653 1_555
Be2_1 Rh3_1 2.304653 1_555
Be2_1 Rh6_0 2.304653 1_555
Be2_1 Rh3_0 2.304653 1_555
Be2_1 Rh9_4 2.319383 1_555
Be2_1 Rh9_5 2.319383 1_555
Be2_1 Lu2_1 2.799423 1_555
Be2_1 Lu3_5 2.886259 1_555
Be2_1 Lu0_1 2.886259 1_555
Be2_2 Rh3_2 2.304653 1_555
Be2_2 Rh3_3 2.304653 1_554
Be2_2 Rh6_2 2.304653 1_555
Be2_2 Rh6_3 2.304653 1_554
Be2_2 Rh9_6 2.319383 1_555
Be2_2 Rh9_7 2.319383 1_554
Be2_2 Lu2_2 2.799423 1_555
Be2_2 Lu3_6 2.886259 1_555
Be2_2 Lu0_2 2.886259 1_555
Be2_3 Rh3_3 2.304653 1_555
Be2_3 Rh6_3 2.304653 1_555
Be2_3 Rh3_2 2.304653 1_555
Be2_3 Rh6_2 2.304653 1_555
Be2_3 Rh9_7 2.319383 1_555
Be2_3 Rh9_6 2.319383 1_555
Be2_3 Lu2_3 2.799423 1_555
Be2_3 Lu3_7 2.886259 1_555
Be2_3 Lu0_3 2.886259 1_555
Be2_4 Rh3_4 2.304653 1_555
Be2_4 Rh3_5 2.304653 1_554
Be2_4 Rh6_4 2.304653 1_555
Be2_4 Rh6_5 2.304653 1_554
Be2_4 Rh9_0 2.319383 1_655
Be2_4 Rh9_1 2.319383 1_654
Be2_4 Lu2_4 2.799423 1_555
Be2_4 Lu3_0 2.886259 1_655
Be2_4 Lu0_4 2.886259 1_555
Be2_5 Rh6_5 2.304653 1_555
Be2_5 Rh3_4 2.304653 1_555
Be2_5 Rh3_5 2.304653 1_555
Be2_5 Rh6_4 2.304653 1_555
Be2_5 Rh9_1 2.319383 1_655
Be2_5 Rh9_0 2.319383 1_655
Be2_5 Lu2_5 2.799423 1_555
Be2_5 Lu3_1 2.886259 1_655
Be2_5 Lu0_5 2.886259 1_555
Be2_6 Rh3_6 2.304653 1_555
Be2_6 Rh3_7 2.304653 1_554
Be2_6 Rh6_7 2.304653 1_554
Be2_6 Rh6_6 2.304653 1_555
Be2_6 Rh9_2 2.319383 1_655
Be2_6 Rh9_3 2.319383 1_654
Be2_6 Lu2_6 2.799423 1_555
Be2_6 Lu3_2 2.886259 1_655
Be2_6 Lu0_6 2.886259 1_555
Be2_7 Rh3_7 2.304653 1_555
Be2_7 Rh3_6 2.304653 1_555
Be2_7 Rh6_7 2.304653 1_555
Be2_7 Rh6_6 2.304653 1_555
Be2_7 Rh9_3 2.319383 1_655
Be2_7 Rh9_2 2.319383 1_655
Be2_7 Lu2_7 2.799423 1_555
Be2_7 Lu3_3 2.886259 1_655
Be2_7 Lu0_7 2.886259 1_555
Be3_0 Rh4_0 2.304653 1_555
Be3_0 Rh1_0 2.304653 1_555
Be3_0 Rh1_1 2.304653 1_554
Be3_0 Rh4_1 2.304653 1_554
Be3_0 Rh8_2 2.319383 1_555
Be3_0 Rh8_3 2.319383 1_554
Be3_0 Lu3_0 2.799423 1_555
Be3_0 Lu1_2 2.886259 1_555
Be3_0 Lu2_0 2.886259 1_555
Be3_1 Rh4_1 2.304653 1_555
Be3_1 Rh1_1 2.304653 1_555
Be3_1 Rh4_0 2.304653 1_555
Be3_1 Rh1_0 2.304653 1_555
Be3_1 Rh8_3 2.319383 1_555
Be3_1 Rh8_2 2.319383 1_555
Be3_1 Lu3_1 2.799423 1_555
Be3_1 Lu1_3 2.886259 1_555
Be3_1 Lu2_1 2.886259 1_555
Be3_2 Rh1_2 2.304653 1_555
Be3_2 Rh1_3 2.304653 1_554
Be3_2 Rh4_2 2.304653 1_555
Be3_2 Rh4_3 2.304653 1_554
Be3_2 Rh8_1 2.319383 1_564
Be3_2 Rh8_0 2.319383 1_565
Be3_2 Lu3_2 2.799423 1_555
Be3_2 Lu1_0 2.886259 1_565
Be3_2 Lu2_2 2.886259 1_555
Be3_3 Rh4_3 2.304653 1_555
Be3_3 Rh1_3 2.304653 1_555
Be3_3 Rh1_2 2.304653 1_555
Be3_3 Rh4_2 2.304653 1_555
Be3_3 Rh8_1 2.319383 1_565
Be3_3 Rh8_0 2.319383 1_565
Be3_3 Lu3_3 2.799423 1_555
Be3_3 Lu1_1 2.886259 1_565
Be3_3 Lu2_3 2.886259 1_555
Be3_4 Rh4_4 2.304653 1_555
Be3_4 Rh1_4 2.304653 1_555
Be3_4 Rh4_5 2.304653 1_554
Be3_4 Rh1_5 2.304653 1_554
Be3_4 Rh8_7 2.319383 1_554
Be3_4 Rh8_6 2.319383 1_555
Be3_4 Lu3_4 2.799423 1_555
Be3_4 Lu2_4 2.886259 1_555
Be3_4 Lu1_6 2.886259 1_555
Be3_5 Rh1_5 2.304653 1_555
Be3_5 Rh4_5 2.304653 1_555
Be3_5 Rh4_4 2.304653 1_555
Be3_5 Rh1_4 2.304653 1_555
Be3_5 Rh8_7 2.319383 1_555
Be3_5 Rh8_6 2.319383 1_555
Be3_5 Lu3_5 2.799423 1_555
Be3_5 Lu2_5 2.886259 1_555
Be3_5 Lu1_7 2.886259 1_555
Be3_6 Rh1_6 2.304653 1_555
Be3_6 Rh1_7 2.304653 1_554
Be3_6 Rh4_6 2.304653 1_555
Be3_6 Rh4_7 2.304653 1_554
Be3_6 Rh8_4 2.319383 1_565
Be3_6 Rh8_5 2.319383 1_564
Be3_6 Lu3_6 2.799423 1_555
Be3_6 Lu2_6 2.886259 1_555
Be3_6 Lu1_4 2.886259 1_565
Be3_7 Rh1_6 2.304653 1_555
Be3_7 Rh4_7 2.304653 1_555
Be3_7 Rh1_7 2.304653 1_555
Be3_7 Rh4_6 2.304653 1_555
Be3_7 Rh8_5 2.319383 1_565
Be3_7 Rh8_4 2.319383 1_565
Be3_7 Lu3_7 2.799423 1_555
Be3_7 Lu2_7 2.886259 1_555
Be3_7 Lu1_5 2.886259 1_565
