# generated using pymatgen
data_K2Si(TeO4)3
_symmetry_space_group_name_H-M   'P 1'
_cell_length_a   6.83018137
_cell_length_b   6.83018099
_cell_length_c   6.83018116
_cell_angle_alpha   62.36749972
_cell_angle_beta   62.36750091
_cell_angle_gamma   62.36750180
_symmetry_Int_Tables_number   1
_chemical_formula_structural   K2Si(TeO4)3
_chemical_formula_sum   'K2 Si1 Te3 O12'
_cell_volume   237.20986134
_cell_formula_units_Z   1
loop_
 _symmetry_equiv_pos_site_id
 _symmetry_equiv_pos_as_xyz
  1  'x, y, z'
loop_
 _atom_site_type_symbol
 _atom_site_label
 _atom_site_symmetry_multiplicity
 _atom_site_fract_x
 _atom_site_fract_y
 _atom_site_fract_z
 _atom_site_occupancy
  K  K0  1  0.36524438  0.36524438  0.36524438  1
  K  K1  1  0.63475562  0.63475562  0.63475562  1
  Si  Si0  1  0.00000000  0.00000000  0.00000000  1
  Te  Te0  1  0.50000000  0.00000000  0.00000000  1
  Te  Te1  1  0.00000000  0.00000000  0.50000000  1
  Te  Te2  1  0.00000000  0.50000000  0.00000000  1
  O  O0  1  0.93517532  0.33134119  0.33134119  1
  O  O1  1  0.30272734  0.93600356  0.93600356  1
  O  O2  1  0.33134119  0.33134119  0.93517532  1
  O  O3  1  0.93600356  0.93600356  0.30272734  1
  O  O4  1  0.93600356  0.30272734  0.93600356  1
  O  O5  1  0.33134119  0.93517532  0.33134119  1
  O  O6  1  0.06482468  0.66865881  0.66865881  1
  O  O7  1  0.69727266  0.06399644  0.06399644  1
  O  O8  1  0.66865881  0.66865881  0.06482468  1
  O  O9  1  0.06399644  0.06399644  0.69727266  1
  O  O10  1  0.06399644  0.69727266  0.06399644  1
  O  O11  1  0.66865881  0.06482468  0.66865881  1
loop_
_geom_bond_atom_site_label_1
_geom_bond_atom_site_label_2
_geom_bond_distance
_geom_bond_site_symmetry_2
K0 O9 2.980037 1_555
K0 O7 2.980037 1_555
K0 O10 2.980037 1_555
K0 O8 2.982400 1_555
K0 O6 2.982400 1_555
K0 O11 2.982400 1_555
K0 O5 3.169782 1_545
K0 O2 3.169782 1_554
K0 O0 3.169782 1_455
K1 O3 2.980037 1_555
K1 O1 2.980037 1_555
K1 O4 2.980037 1_555
K1 O2 2.982400 1_555
K1 O0 2.982400 1_555
K1 O5 2.982400 1_555
K1 O11 3.169782 1_565
K1 O8 3.169782 1_556
K1 O6 3.169782 1_655
O0 Te1 1.941685 1_655
O0 Te2 1.941685 1_655
O1 Si0 1.777060 1_566
O1 Te0 1.862123 1_566
O2 Te0 1.941685 1_556
O2 Te2 1.941686 1_556
O3 Si0 1.777060 1_665
O3 Te1 1.862123 1_665
O4 Si0 1.777060 1_656
O4 Te2 1.862123 1_656
O5 Te0 1.941685 1_565
O5 Te1 1.941685 1_565
O6 Te1 1.941685 1_565
O6 Te2 1.941685 1_556
O7 Si0 1.777060 1_655
O7 Te0 1.862123 1_555
O8 Te0 1.941685 1_565
O8 Te2 1.941686 1_655
O9 Si0 1.777060 1_556
O9 Te1 1.862123 1_555
O10 Si0 1.777060 1_565
O10 Te2 1.862123 1_555
O11 Te0 1.941685 1_556
O11 Te1 1.941685 1_655
