# generated using pymatgen
data_MgIn3(SnIr)3
_symmetry_space_group_name_H-M   'P 1'
_cell_length_a   8.06695288
_cell_length_b   8.16966988
_cell_length_c   8.16966874
_cell_angle_alpha   109.72451292
_cell_angle_beta   109.21672103
_cell_angle_gamma   109.21672413
_symmetry_Int_Tables_number   1
_chemical_formula_structural   MgIn3(SnIr)3
_chemical_formula_sum   'Mg2 In6 Sn6 Ir6'
_cell_volume   415.76796141
_cell_formula_units_Z   2
loop_
 _symmetry_equiv_pos_site_id
 _symmetry_equiv_pos_as_xyz
  1  'x, y, z'
loop_
 _atom_site_type_symbol
 _atom_site_label
 _atom_site_symmetry_multiplicity
 _atom_site_fract_x
 _atom_site_fract_y
 _atom_site_fract_z
 _atom_site_occupancy
  Mg  Mg0  1  0.69503692  1.00000000  1.00000000  1
  Mg  Mg1  1  0.30496308  0.00000000  0.00000000  1
  In  In0  1  0.50000000  0.75530718  0.24469282  1
  In  In1  1  0.50000000  0.24469282  0.75530718  1
  In  In2  1  0.25530718  0.51061435  0.75530718  1
  In  In3  1  0.74469282  0.48938565  0.24469282  1
  In  In4  1  0.74469282  0.24469282  0.48938565  1
  In  In5  1  0.25530718  0.75530718  0.51061435  1
  Sn  Sn0  1  0.32592706  0.31938177  0.31938177  1
  Sn  Sn1  1  0.67407294  0.68061823  0.68061823  1
  Sn  Sn2  1  0.00654529  0.00000000  0.68061823  1
  Sn  Sn3  1  0.00654529  0.68061823  1.00000000  1
  Sn  Sn4  1  0.99345471  1.00000000  0.31938177  1
  Sn  Sn5  1  0.99345471  0.31938177  0.00000000  1
  Ir  Ir0  1  0.00506896  0.34498233  0.34498233  1
  Ir  Ir1  1  0.99493104  0.65501767  0.65501767  1
  Ir  Ir2  1  0.33991336  1.00000000  0.34498233  1
  Ir  Ir3  1  0.66008664  0.00000000  0.65501767  1
  Ir  Ir4  1  0.33991336  0.34498233  1.00000000  1
  Ir  Ir5  1  0.66008664  0.65501767  0.00000000  1
loop_
_geom_bond_atom_site_label_1
_geom_bond_atom_site_label_2
_geom_bond_distance
_geom_bond_site_symmetry_2
Mg0 Sn1 2.910064 1_555
Mg0 Sn4 2.910064 1_556
Mg0 Sn5 2.910065 1_566
Mg0 Mg1 3.146707 1_566
Mg1 Sn0 2.910064 1_555
Mg1 Sn2 2.910064 1_554
Mg1 Sn3 2.910065 1_544
In0 Ir5 2.761462 1_555
In0 Ir2 2.761463 1_555
In0 Ir3 2.798000 1_565
In0 Ir4 2.798000 1_554
In1 Ir4 2.761462 1_555
In1 Ir3 2.761463 1_555
In1 Ir2 2.798000 1_545
In1 Ir5 2.798000 1_556
In2 Ir1 2.761463 1_455
In2 Ir5 2.761463 1_556
In2 Ir4 2.798000 1_555
In2 Ir0 2.798000 1_555
In3 Ir0 2.761463 1_655
In3 Ir4 2.761463 1_554
In3 Ir5 2.798000 1_555
In3 Ir1 2.798000 1_555
In4 Ir0 2.761463 1_655
In4 Ir2 2.761463 1_545
In4 Ir3 2.798000 1_555
In4 Ir1 2.798000 1_555
In5 Ir1 2.761463 1_455
In5 Ir3 2.761463 1_565
In5 Ir2 2.798000 1_555
In5 Ir0 2.798000 1_555
Sn0 Sn1 2.918129 1_555
Sn0 Sn5 3.065085 1_455
Sn0 Sn4 3.065085 1_445
Sn1 Sn3 3.065085 1_655
Sn1 Sn2 3.065085 1_665
Sn2 Sn4 2.918129 1_445
Sn2 Sn5 3.065085 1_456
Sn3 Sn5 2.918129 1_456
Sn3 Sn4 3.065085 1_456
Ir0 Sn5 2.722359 1_455
Ir0 Sn4 2.722360 1_445
Ir0 Sn0 2.733171 1_555
Ir0 Mg0 2.738564 1_444
Ir0 Ir1 2.963105 1_455
Ir1 Sn3 2.722359 1_655
Ir1 Sn2 2.722360 1_665
Ir1 Sn1 2.733171 1_555
Ir1 Mg1 2.738564 1_666
Ir2 Sn0 2.722360 1_565
Ir2 Sn3 2.722360 1_554
Ir2 Sn4 2.733171 1_455
Ir2 Mg1 2.738564 1_565
Ir2 Ir3 2.963105 1_565
Ir3 Sn1 2.722360 1_545
Ir3 Sn5 2.722360 1_556
Ir3 Sn2 2.733171 1_655
Ir3 Mg0 2.738564 1_545
Ir4 Sn0 2.722359 1_556
Ir4 Sn2 2.722360 1_555
Ir4 Sn5 2.733171 1_456
Ir4 Mg1 2.738564 1_556
Ir4 Ir5 2.963105 1_556
Ir5 Sn1 2.722359 1_554
Ir5 Sn4 2.722360 1_555
Ir5 Sn3 2.733171 1_654
Ir5 Mg0 2.738564 1_554
