# generated using pymatgen
data_TiCo2Si
_symmetry_space_group_name_H-M   'P 1'
_cell_length_a   4.04193378
_cell_length_b   4.04193379
_cell_length_c   4.04193424
_cell_angle_alpha   60.00000468
_cell_angle_beta   60.00000454
_cell_angle_gamma   60.00000317
_symmetry_Int_Tables_number   1
_chemical_formula_structural   TiCo2Si
_chemical_formula_sum   'Ti1 Co2 Si1'
_cell_volume   46.69309648
_cell_formula_units_Z   1
loop_
 _symmetry_equiv_pos_site_id
 _symmetry_equiv_pos_as_xyz
  1  'x, y, z'
loop_
 _atom_site_type_symbol
 _atom_site_label
 _atom_site_symmetry_multiplicity
 _atom_site_fract_x
 _atom_site_fract_y
 _atom_site_fract_z
 _atom_site_occupancy
  Ti  Ti0  1  0.50000000  0.50000000  0.50000000  1
  Co  Co0  1  0.75000000  0.75000000  0.75000000  1
  Co  Co1  1  0.25000000  0.25000000  0.25000000  1
  Si  Si0  1  -0.00000000  0.00000000  -0.00000000  1
loop_
_geom_bond_atom_site_label_1
_geom_bond_atom_site_label_2
_geom_bond_distance
_geom_bond_site_symmetry_2
Co0 Ti0 2.475169 1_555
Co0 Si0 2.475169 1_666
Co0 Ti0 2.475169 1_655
Co0 Si0 2.475169 1_566
Co0 Ti0 2.475169 1_565
Co0 Si0 2.475169 1_656
Co0 Ti0 2.475169 1_556
Co0 Si0 2.475169 1_665
Co1 Ti0 2.475169 1_555
Co1 Si0 2.475169 1_555
Co1 Si0 2.475169 1_655
Co1 Ti0 2.475169 1_455
Co1 Si0 2.475169 1_565
Co1 Ti0 2.475169 1_545
Co1 Ti0 2.475169 1_554
Co1 Si0 2.475169 1_556
Si0 Ti0 2.858079 1_554
Si0 Ti0 2.858079 1_445
Si0 Ti0 2.858079 1_545
Si0 Ti0 2.858079 1_455
Si0 Ti0 2.858079 1_454
Si0 Ti0 2.858079 1_544
