# generated using pymatgen
data_Sr10HgBi6Se
_symmetry_space_group_name_H-M   'P 1'
_cell_length_a   9.80839146
_cell_length_b   9.80839240
_cell_length_c   7.78037888
_cell_angle_alpha   90.00000000
_cell_angle_beta   90.00000000
_cell_angle_gamma   120.00000011
_symmetry_Int_Tables_number   1
_chemical_formula_structural   Sr10HgBi6Se
_chemical_formula_sum   'Sr10 Hg1 Bi6 Se1'
_cell_volume   648.22682657
_cell_formula_units_Z   1
loop_
 _symmetry_equiv_pos_site_id
 _symmetry_equiv_pos_as_xyz
  1  'x, y, z'
loop_
 _atom_site_type_symbol
 _atom_site_label
 _atom_site_symmetry_multiplicity
 _atom_site_fract_x
 _atom_site_fract_y
 _atom_site_fract_z
 _atom_site_occupancy
  Sr  Sr0  1  0.66666700  0.33333300  0.00000000  1
  Sr  Sr1  1  0.33333300  0.66666700  0.00000000  1
  Sr  Sr2  1  0.33333300  0.66666700  0.50000000  1
  Sr  Sr3  1  0.66666700  0.33333300  0.50000000  1
  Sr  Sr4  1  0.74082701  0.74082701  0.78099342  1
  Sr  Sr5  1  0.25917299  0.00000000  0.78099342  1
  Sr  Sr6  1  1.00000000  0.25917299  0.78099342  1
  Sr  Sr7  1  0.25917299  0.25917299  0.21900658  1
  Sr  Sr8  1  0.74082701  1.00000000  0.21900658  1
  Sr  Sr9  1  0.00000000  0.74082701  0.21900658  1
  Hg  Hg0  1  0.00000000  0.00000000  0.50000000  1
  Bi  Bi0  1  0.39085270  0.39085270  0.75149107  1
  Bi  Bi1  1  0.60914730  1.00000000  0.75149107  1
  Bi  Bi2  1  0.00000000  0.60914730  0.75149107  1
  Bi  Bi3  1  0.60914730  0.60914730  0.24850893  1
  Bi  Bi4  1  0.39085270  0.00000000  0.24850893  1
  Bi  Bi5  1  1.00000000  0.39085270  0.24850893  1
  Se  Se0  1  0.00000000  0.00000000  0.00000000  1
loop_
_geom_bond_atom_site_label_1
_geom_bond_atom_site_label_2
_geom_bond_distance
_geom_bond_site_symmetry_2
Hg0 Sr5 3.352871 1_555
Hg0 Sr8 3.352871 1_445
Hg0 Sr7 3.352871 1_555
Hg0 Sr4 3.352871 1_445
Hg0 Sr6 3.352871 1_455
Hg0 Sr9 3.352871 1_545
Bi0 Sr6 3.386178 1_455
Bi0 Sr5 3.386179 1_555
Bi0 Sr4 3.440351 1_555
Bi0 Sr0 3.591876 1_556
Bi0 Sr1 3.591876 1_556
Bi0 Sr3 3.604419 1_555
Bi0 Sr2 3.604419 1_555
Bi0 Sr7 3.859944 1_556
Bi1 Sr6 3.386178 1_565
Bi1 Sr4 3.386179 1_555
Bi1 Sr5 3.440351 1_565
Bi1 Sr0 3.591868 1_566
Bi1 Sr1 3.591871 1_556
Bi1 Sr3 3.604411 1_565
Bi1 Sr2 3.604414 1_555
Bi1 Sr8 3.859944 1_556
Bi2 Sr4 3.386178 1_455
Bi2 Sr5 3.386179 1_565
Bi2 Sr6 3.440351 1_455
Bi2 Sr1 3.591868 1_556
Bi2 Sr0 3.591871 1_456
Bi2 Sr2 3.604410 1_555
Bi2 Sr3 3.604413 1_455
Bi2 Sr9 3.859944 1_556
Bi3 Sr9 3.386178 1_655
Bi3 Sr8 3.386179 1_555
Bi3 Sr7 3.440351 1_555
Bi3 Sr1 3.591876 1_555
Bi3 Sr0 3.591876 1_555
Bi3 Sr2 3.604419 1_555
Bi3 Sr3 3.604419 1_555
Bi3 Sr4 3.859944 1_554
Bi4 Sr9 3.386178 1_545
Bi4 Sr7 3.386179 1_555
Bi4 Sr8 3.440351 1_545
Bi4 Sr1 3.591868 1_545
Bi4 Sr0 3.591871 1_555
Bi4 Sr2 3.604411 1_545
Bi4 Sr3 3.604414 1_555
Bi4 Sr5 3.859944 1_554
Bi5 Sr7 3.386178 1_655
Bi5 Sr8 3.386179 1_545
Bi5 Sr9 3.440351 1_655
Bi5 Sr0 3.591868 1_555
Bi5 Sr1 3.591871 1_655
Bi5 Sr3 3.604410 1_555
Bi5 Sr2 3.604413 1_655
Bi5 Sr6 3.859944 1_554
Se0 Sr5 3.060324 1_554
Se0 Sr8 3.060324 1_445
Se0 Sr7 3.060324 1_555
Se0 Sr4 3.060324 1_444
Se0 Sr6 3.060324 1_454
Se0 Sr9 3.060324 1_545
