# generated using pymatgen
data_As8S9
_symmetry_space_group_name_H-M   'P 1'
_cell_length_a   9.38670426
_cell_length_b   9.93780597
_cell_length_c   10.15226338
_cell_angle_alpha   90.00000000
_cell_angle_beta   102.41598905
_cell_angle_gamma   90.00000000
_symmetry_Int_Tables_number   1
_chemical_formula_structural   As8S9
_chemical_formula_sum   'As16 S18'
_cell_volume   924.88709763
_cell_formula_units_Z   2
loop_
 _symmetry_equiv_pos_site_id
 _symmetry_equiv_pos_as_xyz
  1  'x, y, z'
loop_
 _atom_site_type_symbol
 _atom_site_label
 _atom_site_symmetry_multiplicity
 _atom_site_fract_x
 _atom_site_fract_y
 _atom_site_fract_z
 _atom_site_occupancy
  As  As0  1  0.31861471  0.03180502  0.62332648  1
  As  As1  1  0.18138529  0.03180502  0.37667352  1
  As  As2  1  0.68138529  0.96819498  0.37667352  1
  As  As3  1  0.81861471  0.96819498  0.62332648  1
  As  As4  1  0.06714591  0.31738716  0.55811749  1
  As  As5  1  0.43285409  0.31738716  0.44188251  1
  As  As6  1  0.93285409  0.68261284  0.44188251  1
  As  As7  1  0.56714591  0.68261284  0.55811749  1
  As  As8  1  0.64981473  0.41736148  0.83446234  1
  As  As9  1  0.85018527  0.41736148  0.16553766  1
  As  As10  1  0.35018527  0.58263852  0.16553766  1
  As  As11  1  0.14981473  0.58263852  0.83446234  1
  As  As12  1  0.56008966  0.22983188  0.97802342  1
  As  As13  1  0.93991034  0.22983188  0.02197658  1
  As  As14  1  0.43991034  0.77016812  0.02197658  1
  As  As15  1  0.06008966  0.77016812  0.97802342  1
  S  S0  1  0.50831363  0.16559612  0.60777496  1
  S  S1  1  0.99168637  0.16559612  0.39222504  1
  S  S2  1  0.49168637  0.83440388  0.39222504  1
  S  S3  1  0.00831363  0.83440388  0.60777496  1
  S  S4  1  0.25000000  0.43552328  0.50000000  1
  S  S5  1  0.75000000  0.56447672  0.50000000  1
  S  S6  1  0.17630417  0.16865202  0.71483839  1
  S  S7  1  0.32369583  0.16865202  0.28516161  1
  S  S8  1  0.82369583  0.83134798  0.28516161  1
  S  S9  1  0.67630417  0.83134798  0.71483839  1
  S  S10  1  0.86299886  0.32429826  0.81906125  1
  S  S11  1  0.63700114  0.32429826  0.18093875  1
  S  S12  1  0.13700114  0.67570174  0.18093875  1
  S  S13  1  0.36299886  0.67570174  0.81906125  1
  S  S14  1  0.75000000  0.55945126  0.00000000  1
  S  S15  1  0.25000000  0.44054874  0.00000000  1
  S  S16  1  0.25000000  0.91131658  0.00000000  1
  S  S17  1  0.75000000  0.08868342  0.00000000  1
loop_
_geom_bond_atom_site_label_1
_geom_bond_atom_site_label_2
_geom_bond_distance
_geom_bond_site_symmetry_2
As0 S6 2.242930 1_555
As0 S0 2.254847 1_555
As1 S7 2.242930 1_555
As1 S1 2.254847 1_455
As2 S8 2.242930 1_555
As2 S2 2.254847 1_555
As3 S9 2.242930 1_555
As3 S3 2.254847 1_655
As4 S6 2.250584 1_555
As4 S1 2.258470 1_455
As4 S4 2.260075 1_555
As5 S7 2.250584 1_555
As5 S0 2.258470 1_555
As5 S4 2.260075 1_555
As6 S8 2.250584 1_555
As6 S3 2.258470 1_655
As6 S5 2.260075 1_555
As7 S9 2.250584 1_555
As7 S2 2.258470 1_555
As7 S5 2.260075 1_555
As8 S10 2.240249 1_555
As8 S14 2.241211 1_556
As9 S11 2.240249 1_555
As9 S14 2.241211 1_555
As10 S12 2.240249 1_555
As10 S15 2.241211 1_555
As11 S13 2.240249 1_555
As11 S15 2.241211 1_556
As12 S11 2.237587 1_556
As12 S17 2.241453 1_556
As13 S10 2.237587 1_554
As13 S17 2.241453 1_555
As14 S13 2.237587 1_554
As14 S16 2.241453 1_555
As15 S12 2.237587 1_556
As15 S16 2.241453 1_556
