# generated using pymatgen
data_Rb2Mn(WO4)3
_symmetry_space_group_name_H-M   'P 1'
_cell_length_a   7.09686149
_cell_length_b   7.09686158
_cell_length_c   7.09686175
_cell_angle_alpha   61.47088161
_cell_angle_beta   61.47087646
_cell_angle_gamma   61.47088550
_symmetry_Int_Tables_number   1
_chemical_formula_structural   Rb2Mn(WO4)3
_chemical_formula_sum   'Rb2 Mn1 W3 O12'
_cell_volume   261.09257661
_cell_formula_units_Z   1
loop_
 _symmetry_equiv_pos_site_id
 _symmetry_equiv_pos_as_xyz
  1  'x, y, z'
loop_
 _atom_site_type_symbol
 _atom_site_label
 _atom_site_symmetry_multiplicity
 _atom_site_fract_x
 _atom_site_fract_y
 _atom_site_fract_z
 _atom_site_occupancy
  Rb  Rb0  1  0.63323521  0.63323521  0.63323521  1
  Rb  Rb1  1  0.36676479  0.36676479  0.36676479  1
  Mn  Mn0  1  0.00000000  0.00000000  0.00000000  1
  W  W0  1  0.50000000  0.00000000  0.00000000  1
  W  W1  1  0.00000000  0.00000000  0.50000000  1
  W  W2  1  0.00000000  0.50000000  0.00000000  1
  O  O0  1  0.94325016  0.31580956  0.31580956  1
  O  O1  1  0.30542661  0.94193992  0.94193992  1
  O  O2  1  0.31580956  0.31580956  0.94325016  1
  O  O3  1  0.94193992  0.94193992  0.30542661  1
  O  O4  1  0.94193992  0.30542661  0.94193992  1
  O  O5  1  0.31580956  0.94325016  0.31580956  1
  O  O6  1  0.05674984  0.68419044  0.68419044  1
  O  O7  1  0.69457339  0.05806008  0.05806008  1
  O  O8  1  0.68419044  0.68419044  0.05674984  1
  O  O9  1  0.05806008  0.05806008  0.69457339  1
  O  O10  1  0.05806008  0.69457339  0.05806008  1
  O  O11  1  0.68419044  0.05674984  0.68419044  1
loop_
_geom_bond_atom_site_label_1
_geom_bond_atom_site_label_2
_geom_bond_distance
_geom_bond_site_symmetry_2
Mn0 O1 1.869180 1_544
Mn0 O7 1.869180 1_455
Mn0 O3 1.869180 1_445
Mn0 O9 1.869180 1_554
Mn0 O4 1.869180 1_454
Mn0 O10 1.869180 1_545
O0 W2 1.932951 1_655
O0 W1 1.932951 1_655
O0 Rb0 3.220093 1_555
O0 Rb1 3.390674 1_655
O1 W0 1.869625 1_566
O1 Rb0 3.139981 1_555
O2 W2 1.932951 1_556
O2 W0 1.932951 1_556
O2 Rb0 3.220092 1_555
O2 Rb1 3.390675 1_556
O3 W1 1.869625 1_665
O3 Rb0 3.139981 1_555
O4 W2 1.869625 1_656
O4 Rb0 3.139981 1_555
O5 W1 1.932951 1_565
O5 W0 1.932951 1_565
O5 Rb0 3.220093 1_555
O5 Rb1 3.390674 1_565
O6 W2 1.932951 1_556
O6 W1 1.932951 1_565
O6 Rb1 3.220093 1_555
O6 Rb0 3.390674 1_455
O7 W0 1.869625 1_555
O7 Rb1 3.139981 1_555
O8 W2 1.932951 1_655
O8 W0 1.932951 1_565
O8 Rb1 3.220092 1_555
O8 Rb0 3.390675 1_554
O9 W1 1.869625 1_555
O9 Rb1 3.139981 1_555
O10 W2 1.869625 1_555
O10 Rb1 3.139981 1_555
O11 W1 1.932951 1_655
O11 W0 1.932951 1_556
O11 Rb1 3.220093 1_555
O11 Rb0 3.390674 1_545
