# generated using pymatgen
data_Cs2TiSeS2
_symmetry_space_group_name_H-M   'P 1'
_cell_length_a   7.87004020
_cell_length_b   7.87004019
_cell_length_c   6.58189307
_cell_angle_alpha   90.00000000
_cell_angle_beta   90.00000000
_cell_angle_gamma   106.94929004
_symmetry_Int_Tables_number   1
_chemical_formula_structural   Cs2TiSeS2
_chemical_formula_sum   'Cs4 Ti2 Se2 S4'
_cell_volume   389.95847901
_cell_formula_units_Z   2
loop_
 _symmetry_equiv_pos_site_id
 _symmetry_equiv_pos_as_xyz
  1  'x, y, z'
loop_
 _atom_site_type_symbol
 _atom_site_label
 _atom_site_symmetry_multiplicity
 _atom_site_fract_x
 _atom_site_fract_y
 _atom_site_fract_z
 _atom_site_occupancy
  Cs  Cs0  1  0.32685135  0.00821992  0.25000000  1
  Cs  Cs1  1  0.67314865  0.99178008  0.75000000  1
  Cs  Cs2  1  0.99178008  0.67314865  0.75000000  1
  Cs  Cs3  1  0.00821992  0.32685135  0.25000000  1
  Ti  Ti0  1  0.42621331  0.42621331  0.75000000  1
  Ti  Ti1  1  0.57378669  0.57378669  0.25000000  1
  Se  Se0  1  0.17300260  0.17300260  0.75000000  1
  Se  Se1  1  0.82699740  0.82699740  0.25000000  1
  S  S0  1  0.62702755  0.37297245  0.50000000  1
  S  S1  1  0.37297245  0.62702755  0.00000000  1
  S  S2  1  0.62702755  0.37297245  0.00000000  1
  S  S3  1  0.37297245  0.62702755  0.50000000  1
loop_
_geom_bond_atom_site_label_1
_geom_bond_atom_site_label_2
_geom_bond_distance
_geom_bond_site_symmetry_2
Cs0 S1 3.531887 1_545
Cs0 S3 3.531887 1_545
Cs0 S0 3.546121 1_555
Cs0 S2 3.546121 1_555
Cs0 Se1 3.773354 1_445
Cs0 Se0 3.859233 1_554
Cs0 Se0 3.859233 1_555
Cs1 S2 3.531887 1_566
Cs1 S0 3.531887 1_565
Cs1 S3 3.546121 1_555
Cs1 S1 3.546121 1_556
Cs1 Se0 3.773354 1_665
Cs1 Se1 3.859233 1_555
Cs1 Se1 3.859233 1_556
Cs2 S3 3.531887 1_655
Cs2 S1 3.531887 1_656
Cs2 S2 3.546121 1_556
Cs2 S0 3.546121 1_555
Cs2 Se0 3.773354 1_665
Cs2 Se1 3.859233 1_555
Cs2 Se1 3.859233 1_556
Cs3 S2 3.531887 1_455
Cs3 S0 3.531887 1_455
Cs3 S1 3.546121 1_555
Cs3 S3 3.546121 1_555
Cs3 Se1 3.773354 1_445
Cs3 Se0 3.859233 1_555
Cs3 Se0 3.859233 1_554
Se0 Ti0 2.372118 1_555
Se1 Ti1 2.372118 1_555
S0 Ti1 2.401451 1_555
S0 Ti0 2.401451 1_555
S1 Ti0 2.401451 1_554
S1 Ti1 2.401451 1_555
S2 Ti1 2.401451 1_555
S2 Ti0 2.401451 1_554
S3 Ti0 2.401451 1_555
S3 Ti1 2.401451 1_555
