# generated using pymatgen
data_AgSnRhS4
_symmetry_space_group_name_H-M   'P 1'
_cell_length_a   7.37375677
_cell_length_b   7.37375609
_cell_length_c   7.37375619
_cell_angle_alpha   120.57839615
_cell_angle_beta   119.24604893
_cell_angle_gamma   90.15596449
_symmetry_Int_Tables_number   1
_chemical_formula_structural   AgSnRhS4
_chemical_formula_sum   'Ag2 Sn2 Rh2 S8'
_cell_volume   283.82606774
_cell_formula_units_Z   2
loop_
 _symmetry_equiv_pos_site_id
 _symmetry_equiv_pos_as_xyz
  1  'x, y, z'
loop_
 _atom_site_type_symbol
 _atom_site_label
 _atom_site_symmetry_multiplicity
 _atom_site_fract_x
 _atom_site_fract_y
 _atom_site_fract_z
 _atom_site_occupancy
  Ag  Ag0  1  0.88971228  0.63971228  0.25000000  1
  Ag  Ag1  1  0.11028772  0.36028772  0.75000000  1
  Sn  Sn0  1  0.50000000  0.00000000  0.50000000  1
  Sn  Sn1  1  0.00000000  0.00000000  0.00000000  1
  Rh  Rh0  1  0.50000000  0.00000000  0.00000000  1
  Rh  Rh1  1  0.50000000  0.50000000  0.50000000  1
  S  S0  1  0.72954663  0.73751119  0.50796456  1
  S  S1  1  0.72954663  0.22158306  0.99203544  1
  S  S2  1  0.71590965  0.75661523  0.95929443  1
  S  S3  1  0.29731980  0.75661523  0.54070557  1
  S  S4  1  0.27045337  0.26248881  0.49203544  1
  S  S5  1  0.27045337  0.77841694  0.00796456  1
  S  S6  1  0.28409035  0.24338477  0.04070557  1
  S  S7  1  0.70268020  0.24338477  0.45929443  1
loop_
_geom_bond_atom_site_label_1
_geom_bond_atom_site_label_2
_geom_bond_distance
_geom_bond_site_symmetry_2
Ag0 S3 2.486398 1_655
Ag0 S2 2.486403 1_554
Ag0 S1 2.517373 1_554
Ag0 S0 2.517379 1_555
Ag1 S7 2.486398 1_455
Ag1 S6 2.486403 1_556
Ag1 S5 2.517373 1_556
Ag1 S4 2.517379 1_555
Rh0 S1 2.391181 1_554
Rh0 S5 2.391181 1_545
Rh0 S7 2.404160 1_555
Rh0 S3 2.404160 1_544
Rh0 S6 2.404161 1_555
Rh0 S2 2.404161 1_544
Rh1 S0 2.391176 1_555
Rh1 S4 2.391176 1_555
Rh1 S2 2.404161 1_555
Rh1 S6 2.404161 1_555
Rh1 S3 2.404166 1_555
Rh1 S7 2.404166 1_555
S0 Sn1 2.578961 1_666
S0 Sn0 2.578962 1_565
S1 Sn0 2.578961 1_555
S1 Sn1 2.578966 1_656
S2 Sn1 2.552690 1_666
S3 Sn0 2.552695 1_565
S4 Sn1 2.578961 1_555
S4 Sn0 2.578962 1_555
S5 Sn0 2.578961 1_565
S5 Sn1 2.578966 1_565
S6 Sn1 2.552690 1_555
S7 Sn0 2.552695 1_555
