# generated using pymatgen
data_Pt(BrF)2
_symmetry_space_group_name_H-M   'P 1'
_cell_length_a   6.34081758
_cell_length_b   6.34081847
_cell_length_c   6.34081717
_cell_angle_alpha   109.95153530
_cell_angle_beta   108.64766750
_cell_angle_gamma   109.81760818
_symmetry_Int_Tables_number   1
_chemical_formula_structural   Pt(BrF)2
_chemical_formula_sum   'Pt2 Br4 F4'
_cell_volume   196.22130481
_cell_formula_units_Z   2
loop_
 _symmetry_equiv_pos_site_id
 _symmetry_equiv_pos_as_xyz
  1  'x, y, z'
loop_
 _atom_site_type_symbol
 _atom_site_label
 _atom_site_symmetry_multiplicity
 _atom_site_fract_x
 _atom_site_fract_y
 _atom_site_fract_z
 _atom_site_occupancy
  Pt  Pt0  1  0.00000000  0.24999808  0.24999808  1
  Pt  Pt1  1  1.00000000  0.75000192  0.75000192  1
  Br  Br0  1  0.77068420  0.77068420  1.00000000  1
  Br  Br1  1  0.22931580  0.22931580  0.00000000  1
  Br  Br2  1  0.77070684  0.27070684  0.50000000  1
  Br  Br3  1  0.22929316  0.72929316  0.50000000  1
  F  F0  1  0.73415874  0.24999180  0.98415054  1
  F  F1  1  0.26584126  0.24999180  0.51583305  1
  F  F2  1  0.73415874  0.75000820  0.48416695  1
  F  F3  1  0.26584126  0.75000820  0.01584946  1
loop_
_geom_bond_atom_site_label_1
_geom_bond_atom_site_label_2
_geom_bond_distance
_geom_bond_site_symmetry_2
Br0 Pt1 2.470976 1_555
Br0 Pt0 2.470976 1_666
Br1 Pt0 2.470976 1_555
Br1 Pt1 2.470976 1_444
Br2 Pt0 2.470885 1_655
Br2 Pt1 2.470885 1_555
Br3 Pt1 2.470885 1_455
Br3 Pt0 2.470885 1_555
F0 Pt0 1.966154 1_656
F1 Pt0 1.966154 1_555
F2 Pt1 1.966154 1_555
F3 Pt1 1.966154 1_454
