# generated using pymatgen
data_K6ScS4
_symmetry_space_group_name_H-M   'P 1'
_cell_length_a   10.24739219
_cell_length_b   10.24739102
_cell_length_c   7.66068051
_cell_angle_alpha   90.00000000
_cell_angle_beta   90.00000000
_cell_angle_gamma   119.99999756
_symmetry_Int_Tables_number   1
_chemical_formula_structural   K6ScS4
_chemical_formula_sum   'K12 Sc2 S8'
_cell_volume   696.66606910
_cell_formula_units_Z   2
loop_
 _symmetry_equiv_pos_site_id
 _symmetry_equiv_pos_as_xyz
  1  'x, y, z'
loop_
 _atom_site_type_symbol
 _atom_site_label
 _atom_site_symmetry_multiplicity
 _atom_site_fract_x
 _atom_site_fract_y
 _atom_site_fract_z
 _atom_site_occupancy
  K  K0  1  0.53225777  0.06451455  0.36052427  1
  K  K1  1  0.46774223  0.53225777  0.86052427  1
  K  K2  1  0.93548545  0.46774223  0.36052427  1
  K  K3  1  0.53225777  0.46774223  0.36052427  1
  K  K4  1  0.13158236  0.86841764  0.54289695  1
  K  K5  1  0.26316372  0.13158236  0.04289695  1
  K  K6  1  0.06451455  0.53225777  0.86052427  1
  K  K7  1  0.86841764  0.73683628  0.04289695  1
  K  K8  1  0.86841764  0.13158236  0.04289695  1
  K  K9  1  0.73683628  0.86841764  0.54289695  1
  K  K10  1  0.13158236  0.26316372  0.54289695  1
  K  K11  1  0.46774223  0.93548545  0.86052427  1
  Sc  Sc0  1  0.66666700  0.33333300  0.75965617  1
  Sc  Sc1  1  0.33333300  0.66666700  0.25965617  1
  S  S0  1  0.79651582  0.20348418  0.65220423  1
  S  S1  1  0.59303265  0.79651582  0.15220423  1
  S  S2  1  0.20348418  0.40696735  0.15220423  1
  S  S3  1  0.79651582  0.59303265  0.65220423  1
  S  S4  1  0.40696735  0.20348418  0.65220423  1
  S  S5  1  0.20348418  0.79651582  0.15220423  1
  S  S6  1  0.66666700  0.33333300  0.08057048  1
  S  S7  1  0.33333300  0.66666700  0.58057048  1
loop_
_geom_bond_atom_site_label_1
_geom_bond_atom_site_label_2
_geom_bond_distance
_geom_bond_site_symmetry_2
K0 S6 3.207911 1_555
K0 S0 3.239988 1_555
K0 S4 3.240001 1_555
K0 S1 3.491004 1_545
K0 S5 3.491005 1_545
K1 S7 3.207911 1_555
K1 S1 3.239988 1_556
K1 S2 3.239988 1_556
K1 S4 3.491004 1_555
K1 S3 3.491005 1_555
K2 S6 3.207912 1_555
K2 S0 3.239988 1_555
K2 S3 3.240001 1_555
K2 S5 3.491005 1_655
K2 S2 3.491005 1_655
K3 S6 3.207911 1_555
K3 S4 3.239988 1_555
K3 S3 3.239988 1_555
K3 S1 3.491004 1_555
K3 S2 3.491005 1_555
K4 S5 3.253695 1_555
K4 S4 3.280951 1_565
K4 S3 3.280951 1_455
K4 S7 3.592484 1_555
K5 S4 3.253695 1_554
K5 S2 3.280938 1_555
K5 S5 3.280958 1_545
K5 S6 3.592502 1_555
K6 S7 3.207912 1_555
K6 S5 3.239988 1_556
K6 S2 3.240001 1_556
K6 S0 3.491005 1_455
K6 S3 3.491005 1_455
K7 S3 3.253695 1_554
K7 S1 3.280939 1_555
K7 S5 3.280958 1_655
K7 S6 3.592502 1_555
K8 S0 3.253695 1_554
K8 S1 3.280951 1_545
K8 S2 3.280951 1_655
K8 S6 3.592484 1_555
K9 S1 3.253695 1_555
K9 S3 3.280938 1_555
K9 S0 3.280958 1_565
K9 S7 3.592502 1_555
K10 S2 3.253695 1_555
K10 S4 3.280939 1_555
K10 S0 3.280958 1_455
K10 S7 3.592502 1_555
K11 S7 3.207911 1_555
K11 S5 3.239988 1_556
K11 S1 3.240001 1_556
K11 S4 3.491004 1_565
K11 S0 3.491005 1_565
S0 Sc0 2.447277 1_555
S1 Sc1 2.447294 1_555
S2 Sc1 2.447294 1_555
S3 Sc0 2.447294 1_555
S4 Sc0 2.447294 1_555
S5 Sc1 2.447277 1_555
S6 Sc0 2.458422 1_554
S7 Sc1 2.458422 1_555
