# generated using pymatgen
data_LiCa2AlSi2
_symmetry_space_group_name_H-M   'P 1'
_cell_length_a   4.31825613
_cell_length_b   7.06816735
_cell_length_c   16.34167475
_cell_angle_alpha   90.00000000
_cell_angle_beta   90.00000000
_cell_angle_gamma   90.00000000
_symmetry_Int_Tables_number   1
_chemical_formula_structural   LiCa2AlSi2
_chemical_formula_sum   'Li4 Ca8 Al4 Si8'
_cell_volume   498.78316135
_cell_formula_units_Z   4
loop_
 _symmetry_equiv_pos_site_id
 _symmetry_equiv_pos_as_xyz
  1  'x, y, z'
loop_
 _atom_site_type_symbol
 _atom_site_label
 _atom_site_symmetry_multiplicity
 _atom_site_fract_x
 _atom_site_fract_y
 _atom_site_fract_z
 _atom_site_occupancy
  Li  Li0  1  0.25000000  0.98036435  0.06786537  1
  Li  Li1  1  0.75000000  0.51963565  0.56786537  1
  Li  Li2  1  0.25000000  0.48036435  0.43213463  1
  Li  Li3  1  0.75000000  0.01963565  0.93213463  1
  Ca  Ca0  1  0.75000000  0.15716695  0.43923397  1
  Ca  Ca1  1  0.25000000  0.00937615  0.77679605  1
  Ca  Ca2  1  0.25000000  0.34283305  0.93923397  1
  Ca  Ca3  1  0.75000000  0.65716695  0.06076603  1
  Ca  Ca4  1  0.25000000  0.84283305  0.56076603  1
  Ca  Ca5  1  0.75000000  0.99062385  0.22320395  1
  Ca  Ca6  1  0.75000000  0.49062385  0.27679605  1
  Ca  Ca7  1  0.25000000  0.50937615  0.72320395  1
  Al  Al0  1  0.25000000  0.33119341  0.15674228  1
  Al  Al1  1  0.75000000  0.16880659  0.65674228  1
  Al  Al2  1  0.25000000  0.83119341  0.34325772  1
  Al  Al3  1  0.75000000  0.66880659  0.84325772  1
  Si  Si0  1  0.25000000  0.20058157  0.31055450  1
  Si  Si1  1  0.25000000  0.26731647  0.57390693  1
  Si  Si2  1  0.75000000  0.73268353  0.42609307  1
  Si  Si3  1  0.75000000  0.29941843  0.81055450  1
  Si  Si4  1  0.75000000  0.79941843  0.68944550  1
  Si  Si5  1  0.75000000  0.23268353  0.07390693  1
  Si  Si6  1  0.25000000  0.76731647  0.92609307  1
  Si  Si7  1  0.25000000  0.70058157  0.18944550  1
loop_
_geom_bond_atom_site_label_1
_geom_bond_atom_site_label_2
_geom_bond_distance
_geom_bond_site_symmetry_2
Li0 Si6 2.763179 1_554
Li0 Si5 2.802181 1_465
Li0 Si5 2.802181 1_565
Li0 Si7 2.803244 1_555
Li1 Si2 2.763179 1_555
Li1 Si1 2.802181 1_655
Li1 Si1 2.802181 1_555
Li1 Si4 2.803244 1_555
Li2 Si1 2.763179 1_555
Li2 Si2 2.802181 1_455
Li2 Si2 2.802181 1_555
Li2 Si0 2.803244 1_555
Li3 Si5 2.763179 1_556
Li3 Si6 2.802181 1_545
Li3 Si6 2.802181 1_645
Li3 Si3 2.803244 1_555
Ca0 Si2 3.007995 1_545
Ca0 Si0 3.029509 1_655
Ca0 Si0 3.029509 1_555
Ca0 Si1 3.179846 1_555
Ca0 Si1 3.179846 1_655
Ca1 Si6 2.979880 1_545
Ca1 Si4 2.983582 1_445
Ca1 Si4 2.983582 1_545
Ca1 Si3 3.028027 1_455
Ca1 Si3 3.028027 1_555
Ca2 Si6 3.007995 1_555
Ca2 Si3 3.029509 1_455
Ca2 Si3 3.029509 1_555
Ca2 Si5 3.179846 1_556
Ca2 Si5 3.179846 1_456
Ca3 Si5 3.007995 1_555
Ca3 Si7 3.029509 1_555
Ca3 Si7 3.029509 1_655
Ca3 Si6 3.179846 1_654
Ca3 Si6 3.179846 1_554
Ca4 Si1 3.007995 1_565
Ca4 Si4 3.029509 1_555
Ca4 Si4 3.029509 1_455
Ca4 Si2 3.179846 1_455
Ca4 Si2 3.179846 1_555
Ca5 Si5 2.979880 1_565
Ca5 Si0 2.983582 1_565
Ca5 Si0 2.983582 1_665
Ca5 Si7 3.028027 1_555
Ca5 Si7 3.028027 1_655
Ca6 Si2 2.979880 1_555
Ca6 Si7 2.983582 1_655
Ca6 Si7 2.983582 1_555
Ca6 Si0 3.028027 1_655
Ca6 Si0 3.028027 1_555
Ca7 Si1 2.979880 1_555
Ca7 Si3 2.983582 1_455
Ca7 Si3 2.983582 1_555
Ca7 Si4 3.028027 1_455
Ca7 Si4 3.028027 1_555
Al0 Si5 2.641792 1_455
Al0 Si5 2.641792 1_555
Al0 Si7 2.665032 1_555
Al0 Si0 2.677723 1_555
Al0 Li0 2.873754 1_545
Al0 Ca6 3.127406 1_455
Al0 Ca6 3.127406 1_555
Al0 Ca5 3.411167 1_445
Al0 Ca5 3.411167 1_545
Al0 Ca3 3.525668 1_455
Al0 Ca3 3.525668 1_555
Al0 Ca2 3.555402 1_554
Al1 Si1 2.641792 1_655
Al1 Si1 2.641792 1_555
Al1 Si4 2.665032 1_545
Al1 Si3 2.677723 1_555
Al1 Li1 2.873754 1_555
Al1 Ca1 3.127406 1_655
Al1 Ca1 3.127406 1_555
Al1 Ca7 3.411167 1_555
Al1 Ca7 3.411167 1_655
Al1 Ca4 3.525668 1_645
Al1 Ca4 3.525668 1_545
Al1 Ca0 3.555402 1_555
Al2 Si2 2.641792 1_455
Al2 Si2 2.641792 1_555
Al2 Si0 2.665032 1_565
Al2 Si7 2.677723 1_555
Al2 Li2 2.873754 1_555
Al2 Ca5 3.127406 1_455
Al2 Ca5 3.127406 1_555
Al2 Ca6 3.411167 1_455
Al2 Ca6 3.411167 1_555
Al2 Ca0 3.525668 1_465
Al2 Ca0 3.525668 1_565
Al2 Ca4 3.555402 1_555
Al3 Si6 2.641792 1_555
Al3 Si6 2.641792 1_655
Al3 Si3 2.665032 1_555
Al3 Si4 2.677723 1_555
Al3 Li3 2.873754 1_565
Al3 Ca7 3.127406 1_655
Al3 Ca7 3.127406 1_555
Al3 Ca1 3.411167 1_665
Al3 Ca1 3.411167 1_565
Al3 Ca2 3.525668 1_655
Al3 Ca2 3.525668 1_555
Al3 Ca3 3.555402 1_556
