# generated using pymatgen
data_Rb2BiPb3
_symmetry_space_group_name_H-M   'P 1'
_cell_length_a   6.91714613
_cell_length_b   6.91714563
_cell_length_c   6.91714617
_cell_angle_alpha   57.81903709
_cell_angle_beta   57.81903990
_cell_angle_gamma   57.81903981
_symmetry_Int_Tables_number   1
_chemical_formula_structural   Rb2BiPb3
_chemical_formula_sum   'Rb2 Bi1 Pb3'
_cell_volume   222.30751180
_cell_formula_units_Z   1
loop_
 _symmetry_equiv_pos_site_id
 _symmetry_equiv_pos_as_xyz
  1  'x, y, z'
loop_
 _atom_site_type_symbol
 _atom_site_label
 _atom_site_symmetry_multiplicity
 _atom_site_fract_x
 _atom_site_fract_y
 _atom_site_fract_z
 _atom_site_occupancy
  Rb  Rb0  1  0.25145000  0.25145000  0.25145000  1
  Rb  Rb1  1  0.99855000  0.99855000  0.99855000  1
  Bi  Bi0  1  0.62500000  0.62500000  0.62500000  1
  Pb  Pb0  1  0.62500000  0.12500000  0.62500000  1
  Pb  Pb1  1  0.62500000  0.62500000  0.12500000  1
  Pb  Pb2  1  0.12500000  0.62500000  0.62500000  1
loop_
_geom_bond_atom_site_label_1
_geom_bond_atom_site_label_2
_geom_bond_distance
_geom_bond_site_symmetry_2
Rb0 Rb1 4.102081 1_454
Rb0 Rb1 4.102081 1_445
Rb0 Rb1 4.102082 1_544
Rb0 Rb1 4.354281 1_444
Bi0 Pb0 3.458573 1_565
Bi0 Pb0 3.458573 1_555
Bi0 Pb2 3.458573 1_555
Bi0 Pb2 3.458573 1_655
Bi0 Pb1 3.458573 1_556
Bi0 Pb1 3.458573 1_555
Bi0 Rb1 3.922844 1_545
Bi0 Rb0 3.922844 1_565
Bi0 Rb1 3.922844 1_554
Bi0 Rb0 3.922844 1_556
Bi0 Rb1 3.922845 1_455
Bi0 Rb0 3.922845 1_655
Pb0 Pb1 3.343941 1_546
Pb0 Pb1 3.343941 1_555
Pb0 Pb2 3.343941 1_645
Pb0 Pb2 3.343941 1_555
Pb0 Rb0 3.990223 1_655
Pb0 Rb1 3.990223 1_445
Pb0 Rb0 3.990223 1_556
Pb0 Rb1 3.990223 1_544
Pb0 Rb1 4.051557 1_545
Pb0 Rb0 4.051557 1_555
Pb1 Pb2 3.343941 1_654
Pb1 Pb2 3.343941 1_555
Pb1 Rb0 3.990223 1_565
Pb1 Rb1 3.990223 1_544
Pb1 Rb0 3.990223 1_655
Pb1 Rb1 3.990223 1_454
Pb1 Rb1 4.051556 1_554
Pb1 Rb0 4.051556 1_555
Pb2 Rb0 3.990223 1_565
Pb2 Rb1 3.990223 1_445
Pb2 Rb0 3.990223 1_556
Pb2 Rb1 3.990223 1_454
Pb2 Rb1 4.051556 1_455
Pb2 Rb0 4.051556 1_555
