# generated using pymatgen
data_CaFe3CoAs12
_symmetry_space_group_name_H-M   'P 1'
_cell_length_a   7.19431082
_cell_length_b   7.16502967
_cell_length_c   7.16502930
_cell_angle_alpha   109.38829374
_cell_angle_beta   109.55402882
_cell_angle_gamma   109.55402246
_symmetry_Int_Tables_number   1
_chemical_formula_structural   CaFe3CoAs12
_chemical_formula_sum   'Ca1 Fe3 Co1 As12'
_cell_volume   284.02620232
_cell_formula_units_Z   1
loop_
 _symmetry_equiv_pos_site_id
 _symmetry_equiv_pos_as_xyz
  1  'x, y, z'
loop_
 _atom_site_type_symbol
 _atom_site_label
 _atom_site_symmetry_multiplicity
 _atom_site_fract_x
 _atom_site_fract_y
 _atom_site_fract_z
 _atom_site_occupancy
  Ca  Ca0  1  0.00000000  0.00000000  0.00000000  1
  Fe  Fe0  1  0.00000000  0.00000000  0.50000000  1
  Fe  Fe1  1  0.00000000  0.50000000  0.00000000  1
  Fe  Fe2  1  0.50000000  0.50000000  0.50000000  1
  Co  Co0  1  0.50000000  0.00000000  0.00000000  1
  As  As0  1  0.15211513  0.80927855  0.65544342  1
  As  As1  1  0.84788487  0.19072145  0.34455658  1
  As  As2  1  0.65716342  0.15383314  0.80927855  1
  As  As3  1  0.50332929  0.65544342  0.84616686  1
  As  As4  1  0.65710998  0.84630598  0.50285935  1
  As  As5  1  0.49667071  0.34455658  0.15383314  1
  As  As6  1  0.34283658  0.84616686  0.19072145  1
  As  As7  1  0.18919601  0.34344763  0.84630598  1
  As  As8  1  0.81080399  0.65655237  0.15369402  1
  As  As9  1  0.34289002  0.15369402  0.49714065  1
  As  As10  1  0.84574838  0.50285935  0.65655237  1
  As  As11  1  0.15425162  0.49714065  0.34344763  1
loop_
_geom_bond_atom_site_label_1
_geom_bond_atom_site_label_2
_geom_bond_distance
_geom_bond_site_symmetry_2
As0 Fe0 2.345451 1_565
As0 Co0 2.358140 1_566
As0 As10 2.542124 1_455
As0 As11 2.593447 1_555
As0 Ca0 3.119212 1_566
As1 Fe0 2.345451 1_655
As1 Co0 2.358140 1_555
As1 As11 2.542124 1_655
As1 As10 2.593447 1_555
As1 Ca0 3.119212 1_655
As2 Fe1 2.345458 1_656
As2 Co0 2.358133 1_556
As2 As4 2.542116 1_545
As2 As9 2.593455 1_555
As2 Ca0 3.119201 1_656
As3 Fe2 2.345460 1_555
As3 Co0 2.358142 1_566
As3 As8 2.542116 1_556
As3 As7 2.593439 1_555
As3 Ca0 3.119211 1_666
As4 Fe2 2.346951 1_555
As4 Fe0 2.351354 1_665
As4 As6 2.593455 1_555
As4 Ca0 3.111491 1_666
As5 Fe2 2.345460 1_555
As5 Co0 2.358142 1_555
As5 As7 2.542116 1_554
As5 As8 2.593439 1_555
As5 Ca0 3.119211 1_555
As6 Fe1 2.345458 1_555
As6 Co0 2.358133 1_565
As6 As9 2.542116 1_565
As6 Ca0 3.119201 1_565
As7 Fe0 2.346955 1_555
As7 Fe1 2.351350 1_556
As7 Ca0 3.111497 1_556
As8 Fe0 2.346955 1_665
As8 Fe1 2.351350 1_655
As8 Ca0 3.111497 1_665
As9 Fe2 2.346951 1_555
As9 Fe0 2.351354 1_555
As9 Ca0 3.111491 1_555
As10 Fe1 2.346958 1_656
As10 Fe2 2.351347 1_555
As10 Ca0 3.111491 1_666
As11 Fe1 2.346958 1_555
As11 Fe2 2.351347 1_555
As11 Ca0 3.111491 1_555
