# generated using pymatgen
data_AgPb(S2O7)2
_symmetry_space_group_name_H-M   'P 1'
_cell_length_a   5.39490125
_cell_length_b   7.57657499
_cell_length_c   8.99797800
_cell_angle_alpha   91.43197612
_cell_angle_beta   89.41552722
_cell_angle_gamma   107.97353237
_symmetry_Int_Tables_number   1
_chemical_formula_structural   AgPb(S2O7)2
_chemical_formula_sum   'Ag1 Pb1 S4 O14'
_cell_volume   349.73224272
_cell_formula_units_Z   1
loop_
 _symmetry_equiv_pos_site_id
 _symmetry_equiv_pos_as_xyz
  1  'x, y, z'
loop_
 _atom_site_type_symbol
 _atom_site_label
 _atom_site_symmetry_multiplicity
 _atom_site_fract_x
 _atom_site_fract_y
 _atom_site_fract_z
 _atom_site_occupancy
  Ag  Ag0  1  0.00000000  0.50000000  0.00000000  1
  Pb  Pb0  1  0.50000000  0.00000000  0.50000000  1
  S  S0  1  0.47192288  0.62798916  0.77158036  1
  S  S1  1  0.52807712  0.37201084  0.22841964  1
  S  S2  1  0.12488927  0.26529998  0.69983095  1
  S  S3  1  0.87511073  0.73470002  0.30016905  1
  O  O0  1  0.62567745  0.53372593  0.84426617  1
  O  O1  1  0.37432255  0.46627407  0.15573383  1
  O  O2  1  0.28887276  0.68806367  0.86704399  1
  O  O3  1  0.71112724  0.31193633  0.13295601  1
  O  O4  1  0.60740309  0.77395711  0.67355210  1
  O  O5  1  0.39259691  0.22604289  0.32644790  1
  O  O6  1  0.28253060  0.47751971  0.65365480  1
  O  O7  1  0.71746940  0.52248029  0.34634520  1
  O  O8  1  0.93385534  0.21332294  0.58303026  1
  O  O9  1  0.06614466  0.78667706  0.41696974  1
  O  O10  1  0.31176035  0.16425804  0.69691200  1
  O  O11  1  0.68823965  0.83574196  0.30308800  1
  O  O12  1  0.01890456  0.27492502  0.84779867  1
  O  O13  1  0.98109544  0.72507498  0.15220133  1
loop_
_geom_bond_atom_site_label_1
_geom_bond_atom_site_label_2
_geom_bond_distance
_geom_bond_site_symmetry_2
Ag0 O2 2.137041 1_554
Ag0 O3 2.137041 1_455
Ag0 O13 2.186720 1_455
Ag0 O12 2.186720 1_554
Ag0 O1 2.549727 1_555
Ag0 O0 2.549727 1_454
O0 S0 1.423342 1_555
O1 S1 1.423342 1_555
O2 S0 1.469967 1_555
O3 S1 1.469967 1_555
O4 S0 1.439470 1_555
O4 Pb0 2.544024 1_565
O5 S1 1.439470 1_555
O5 Pb0 2.544024 1_555
O6 S2 1.632024 1_555
O6 S0 1.646925 1_555
O7 S3 1.632024 1_555
O7 S1 1.646925 1_555
O8 S2 1.439691 1_655
O8 Pb0 2.507888 1_555
O9 S3 1.439691 1_455
O9 Pb0 2.507888 1_565
O10 S2 1.441492 1_555
O10 Pb0 2.520418 1_555
O11 S3 1.441492 1_555
O11 Pb0 2.520418 1_565
O12 S2 1.452670 1_555
O13 S3 1.452670 1_555
