# generated using pymatgen
data_Zr10CuSiSn6
_symmetry_space_group_name_H-M   'P 1'
_cell_length_a   8.65446771
_cell_length_b   8.65446760
_cell_length_c   5.88368528
_cell_angle_alpha   90.00000000
_cell_angle_beta   90.00000000
_cell_angle_gamma   120.00000042
_symmetry_Int_Tables_number   1
_chemical_formula_structural   Zr10CuSiSn6
_chemical_formula_sum   'Zr10 Cu1 Si1 Sn6'
_cell_volume   381.64605913
_cell_formula_units_Z   1
loop_
 _symmetry_equiv_pos_site_id
 _symmetry_equiv_pos_as_xyz
  1  'x, y, z'
loop_
 _atom_site_type_symbol
 _atom_site_label
 _atom_site_symmetry_multiplicity
 _atom_site_fract_x
 _atom_site_fract_y
 _atom_site_fract_z
 _atom_site_occupancy
  Zr  Zr0  1  0.66666700  0.33333300  0.50000000  1
  Zr  Zr1  1  0.33333300  0.66666700  0.50000000  1
  Zr  Zr2  1  0.33333300  0.66666700  0.00000000  1
  Zr  Zr3  1  0.66666700  0.33333300  0.00000000  1
  Zr  Zr4  1  0.74037390  0.74037390  0.25430395  1
  Zr  Zr5  1  0.25962610  0.00000000  0.25430395  1
  Zr  Zr6  1  1.00000000  0.25962610  0.25430395  1
  Zr  Zr7  1  0.25962610  0.25962610  0.74569605  1
  Zr  Zr8  1  0.74037390  0.00000000  0.74569605  1
  Zr  Zr9  1  0.00000000  0.74037390  0.74569605  1
  Cu  Cu0  1  0.00000000  0.00000000  0.00000000  1
  Si  Si0  1  0.00000000  0.00000000  0.50000000  1
  Sn  Sn0  1  0.38982989  0.38982989  0.24766216  1
  Sn  Sn1  1  0.61017011  0.00000000  0.24766216  1
  Sn  Sn2  1  1.00000000  0.61017011  0.24766216  1
  Sn  Sn3  1  0.61017011  0.61017011  0.75233784  1
  Sn  Sn4  1  0.38982989  0.00000000  0.75233784  1
  Sn  Sn5  1  0.00000000  0.38982989  0.75233784  1
loop_
_geom_bond_atom_site_label_1
_geom_bond_atom_site_label_2
_geom_bond_distance
_geom_bond_site_symmetry_2
Cu0 Zr7 2.699523 1_554
Cu0 Zr6 2.699523 1_455
Cu0 Zr4 2.699523 1_445
Cu0 Zr9 2.699523 1_544
Cu0 Zr5 2.699523 1_555
Cu0 Zr8 2.699523 1_454
Si0 Zr7 2.671784 1_555
Si0 Zr6 2.671784 1_455
Si0 Zr9 2.671784 1_545
Si0 Zr4 2.671784 1_445
Si0 Zr5 2.671784 1_555
Si0 Zr8 2.671784 1_455
Sn0 Zr5 2.975217 1_555
Sn0 Zr6 2.975217 1_455
Sn0 Zr4 3.034023 1_555
Sn0 Zr2 3.045341 1_555
Sn0 Zr3 3.045341 1_555
Sn0 Zr1 3.058600 1_555
Sn0 Zr0 3.058600 1_555
Sn0 Zr7 3.139473 1_555
Sn0 Zr7 3.161078 1_554
Sn1 Zr6 2.975217 1_555
Sn1 Zr4 2.975217 1_545
Sn1 Zr5 3.034024 1_555
Sn1 Zr3 3.045334 1_555
Sn1 Zr2 3.045336 1_545
Sn1 Zr0 3.058592 1_555
Sn1 Zr1 3.058595 1_545
Sn1 Zr8 3.139473 1_555
Sn1 Zr8 3.161078 1_554
Sn2 Zr5 2.975217 1_665
Sn2 Zr4 2.975217 1_555
Sn2 Zr6 3.034023 1_555
Sn2 Zr2 3.045334 1_655
Sn2 Zr3 3.045336 1_555
Sn2 Zr1 3.058592 1_655
Sn2 Zr0 3.058595 1_555
Sn2 Zr9 3.139473 1_655
Sn2 Zr9 3.161078 1_654
Sn3 Zr8 2.975217 1_565
Sn3 Zr9 2.975217 1_655
Sn3 Zr7 3.034023 1_555
Sn3 Zr3 3.045341 1_556
Sn3 Zr2 3.045341 1_556
Sn3 Zr0 3.058600 1_555
Sn3 Zr1 3.058600 1_555
Sn3 Zr4 3.139473 1_555
Sn3 Zr4 3.161078 1_556
Sn4 Zr9 2.975217 1_545
Sn4 Zr7 2.975217 1_555
Sn4 Zr8 3.034024 1_555
Sn4 Zr2 3.045334 1_546
Sn4 Zr3 3.045336 1_556
Sn4 Zr1 3.058592 1_545
Sn4 Zr0 3.058595 1_555
Sn4 Zr5 3.139473 1_555
Sn4 Zr5 3.161078 1_556
Sn5 Zr8 2.975217 1_455
Sn5 Zr7 2.975217 1_555
Sn5 Zr9 3.034023 1_555
Sn5 Zr3 3.045334 1_456
Sn5 Zr2 3.045336 1_556
Sn5 Zr0 3.058592 1_455
Sn5 Zr1 3.058595 1_555
Sn5 Zr6 3.139473 1_455
Sn5 Zr6 3.161078 1_456
