# generated using pymatgen
data_Cs2Ba(TaBr3)6
_symmetry_space_group_name_H-M   'P 1'
_cell_length_a   11.03108891
_cell_length_b   11.03108896
_cell_length_c   11.03108760
_cell_angle_alpha   55.16688236
_cell_angle_beta   55.16688206
_cell_angle_gamma   55.16688140
_symmetry_Int_Tables_number   1
_chemical_formula_structural   Cs2Ba(TaBr3)6
_chemical_formula_sum   'Cs2 Ba1 Ta6 Br18'
_cell_volume   842.49977185
_cell_formula_units_Z   1
loop_
 _symmetry_equiv_pos_site_id
 _symmetry_equiv_pos_as_xyz
  1  'x, y, z'
loop_
 _atom_site_type_symbol
 _atom_site_label
 _atom_site_symmetry_multiplicity
 _atom_site_fract_x
 _atom_site_fract_y
 _atom_site_fract_z
 _atom_site_occupancy
  Cs  Cs0  1  0.27615030  0.27615030  0.27615030  1
  Cs  Cs1  1  0.72384970  0.72384970  0.72384970  1
  Ba  Ba0  1  0.00000000  0.00000000  0.00000000  1
  Ta  Ta0  1  0.42951263  0.30861955  0.63460525  1
  Ta  Ta1  1  0.36539475  0.57048737  0.69138045  1
  Ta  Ta2  1  0.69138045  0.36539475  0.57048737  1
  Ta  Ta3  1  0.63460525  0.42951263  0.30861955  1
  Ta  Ta4  1  0.57048737  0.69138045  0.36539475  1
  Ta  Ta5  1  0.30861955  0.63460525  0.42951263  1
  Br  Br0  1  0.64714289  0.09664174  0.75990867  1
  Br  Br1  1  0.75990867  0.64714289  0.09664174  1
  Br  Br2  1  0.09664174  0.75990867  0.64714289  1
  Br  Br3  1  0.81820351  0.33869995  0.03867283  1
  Br  Br4  1  0.17336337  0.42848683  0.57976229  1
  Br  Br5  1  0.66130005  0.96132717  0.18179649  1
  Br  Br6  1  0.90335826  0.24009133  0.35285711  1
  Br  Br7  1  0.57151317  0.42023771  0.82663663  1
  Br  Br8  1  0.42023771  0.82663663  0.57151317  1
  Br  Br9  1  0.96132717  0.18179649  0.66130005  1
  Br  Br10  1  0.18179649  0.66130005  0.96132717  1
  Br  Br11  1  0.03867283  0.81820351  0.33869995  1
  Br  Br12  1  0.33869995  0.03867283  0.81820351  1
  Br  Br13  1  0.24009133  0.35285711  0.90335826  1
  Br  Br14  1  0.57976229  0.17336337  0.42848683  1
  Br  Br15  1  0.42848683  0.57976229  0.17336337  1
  Br  Br16  1  0.35285711  0.90335826  0.24009133  1
  Br  Br17  1  0.82663663  0.57151317  0.42023771  1
loop_
_geom_bond_atom_site_label_1
_geom_bond_atom_site_label_2
_geom_bond_distance
_geom_bond_site_symmetry_2
Ba0 Br11 3.232200 1_545
Ba0 Br9 3.232200 1_454
Ba0 Br3 3.232200 1_455
Ba0 Br10 3.232200 1_544
Ba0 Br12 3.232200 1_554
Ba0 Br5 3.232200 1_445
Br0 Ta2 2.608546 1_555
Br0 Ta0 2.612915 1_555
Br0 Cs1 3.910792 1_545
Br1 Ta4 2.608546 1_555
Br1 Ta3 2.612915 1_555
Br1 Cs1 3.910791 1_554
Br2 Ta1 2.608546 1_555
Br2 Ta5 2.612915 1_555
Br2 Cs1 3.910792 1_455
Br3 Ta3 2.858868 1_555
Br3 Cs1 3.662894 1_554
Br4 Ta0 2.620927 1_555
Br4 Ta5 2.624564 1_555
Br4 Cs0 3.903977 1_555
Br4 Cs1 4.023196 1_455
Br5 Ta4 2.858868 1_555
Br5 Cs0 3.662895 1_565
Br6 Ta3 2.608546 1_555
Br6 Ta2 2.612915 1_555
Br6 Cs0 3.910792 1_655
Br7 Ta2 2.620927 1_555
Br7 Ta1 2.624564 1_555
Br7 Cs1 3.903977 1_555
Br7 Cs0 4.023196 1_556
Br8 Ta1 2.620927 1_555
Br8 Ta4 2.624564 1_555
Br8 Cs1 3.903977 1_555
Br8 Cs0 4.023196 1_565
Br9 Ta2 2.858868 1_555
Br9 Cs0 3.662894 1_655
Br10 Ta1 2.858868 1_555
Br10 Cs0 3.662894 1_556
Br11 Ta5 2.858868 1_555
Br11 Cs1 3.662894 1_455
Br12 Ta0 2.858868 1_555
Br12 Cs1 3.662895 1_545
Br13 Ta0 2.608546 1_555
Br13 Ta1 2.612915 1_555
Br13 Cs0 3.910791 1_556
Br14 Ta3 2.620927 1_555
Br14 Ta0 2.624564 1_555
Br14 Cs0 3.903977 1_555
Br14 Cs1 4.023196 1_545
Br15 Ta5 2.620927 1_555
Br15 Ta3 2.624564 1_555
Br15 Cs0 3.903977 1_555
Br15 Cs1 4.023196 1_554
Br16 Ta5 2.608546 1_555
Br16 Ta4 2.612915 1_555
Br16 Cs0 3.910792 1_565
Br17 Ta4 2.620927 1_555
Br17 Ta2 2.624564 1_555
Br17 Cs1 3.903977 1_555
Br17 Cs0 4.023196 1_655
