# generated using pymatgen
data_YSn6RuRh3
_symmetry_space_group_name_H-M   'P 1'
_cell_length_a   6.92108529
_cell_length_b   6.92108553
_cell_length_c   6.86637574
_cell_angle_alpha   119.68106004
_cell_angle_beta   119.68106069
_cell_angle_gamma   91.04048313
_symmetry_Int_Tables_number   1
_chemical_formula_structural   YSn6RuRh3
_chemical_formula_sum   'Y1 Sn6 Ru1 Rh3'
_cell_volume   232.66126574
_cell_formula_units_Z   1
loop_
 _symmetry_equiv_pos_site_id
 _symmetry_equiv_pos_as_xyz
  1  'x, y, z'
loop_
 _atom_site_type_symbol
 _atom_site_label
 _atom_site_symmetry_multiplicity
 _atom_site_fract_x
 _atom_site_fract_y
 _atom_site_fract_z
 _atom_site_occupancy
  Y  Y0  1  0.99584328  0.99584328  0.99049077  1
  Sn  Sn0  1  0.87162082  0.53846971  0.00500807  1
  Sn  Sn1  1  0.53846971  0.87162082  0.00500807  1
  Sn  Sn2  1  0.12965882  0.12965882  0.66562498  1
  Sn  Sn3  1  0.00280389  0.50349521  0.50047761  1
  Sn  Sn4  1  0.46497291  0.46497291  0.33517412  1
  Sn  Sn5  1  0.50349521  0.00280389  0.50047761  1
  Ru  Ru0  1  0.75735258  0.75735258  0.36291209  1
  Rh  Rh0  1  0.23528925  0.60602456  0.99900905  1
  Rh  Rh1  1  0.39446899  0.39446899  0.63680958  1
  Rh  Rh2  1  0.60602456  0.23528925  0.99900905  1
loop_
_geom_bond_atom_site_label_1
_geom_bond_atom_site_label_2
_geom_bond_distance
_geom_bond_site_symmetry_2
Sn0 Y0 3.326886 1_554
Sn0 Y0 3.832071 1_544
Sn1 Y0 3.326886 1_554
Sn1 Y0 3.832071 1_454
Sn2 Y0 3.279037 1_445
Sn2 Y0 3.830206 1_444
Sn3 Y0 3.427328 1_455
Sn3 Y0 3.500215 1_444
Sn4 Y0 3.329039 1_444
Sn4 Y0 3.743012 1_555
Sn5 Y0 3.427328 1_545
Sn5 Y0 3.500215 1_444
Ru0 Sn2 2.598122 1_665
Ru0 Sn5 2.651013 1_565
Ru0 Sn3 2.651013 1_655
Ru0 Sn1 2.690924 1_555
Ru0 Sn0 2.690924 1_555
Ru0 Sn4 2.704435 1_555
Ru0 Y0 3.135440 1_555
Rh0 Sn0 2.575753 1_456
Rh0 Sn3 2.628381 1_555
Rh0 Sn5 2.638884 1_566
Rh0 Sn2 2.724955 1_555
Rh0 Sn4 2.731683 1_556
Rh0 Sn1 2.735522 1_556
Rh0 Rh1 2.951020 1_555
Rh0 Ru0 2.953908 1_556
Rh0 Y0 3.201800 1_455
Rh1 Sn4 2.599801 1_555
Rh1 Sn3 2.656055 1_555
Rh1 Sn5 2.656055 1_555
Rh1 Sn2 2.711738 1_555
Rh1 Sn0 2.721682 1_556
Rh1 Sn1 2.721682 1_556
Rh1 Rh2 2.951020 1_555
Rh1 Y0 3.223437 1_444
Rh2 Sn1 2.575753 1_546
Rh2 Sn5 2.628381 1_555
Rh2 Sn3 2.638884 1_656
Rh2 Sn2 2.724955 1_555
Rh2 Sn4 2.731683 1_556
Rh2 Sn0 2.735522 1_556
Rh2 Ru0 2.953908 1_556
Rh2 Y0 3.201800 1_545
