# generated using pymatgen
data_CdFePdPt5
_symmetry_space_group_name_H-M   'P 1'
_cell_length_a   3.93160735
_cell_length_b   3.93160735
_cell_length_c   7.96084226
_cell_angle_alpha   90.00000000
_cell_angle_beta   90.00000000
_cell_angle_gamma   90.00000000
_symmetry_Int_Tables_number   1
_chemical_formula_structural   CdFePdPt5
_chemical_formula_sum   'Cd1 Fe1 Pd1 Pt5'
_cell_volume   123.05500885
_cell_formula_units_Z   1
loop_
 _symmetry_equiv_pos_site_id
 _symmetry_equiv_pos_as_xyz
  1  'x, y, z'
loop_
 _atom_site_type_symbol
 _atom_site_label
 _atom_site_symmetry_multiplicity
 _atom_site_fract_x
 _atom_site_fract_y
 _atom_site_fract_z
 _atom_site_occupancy
  Cd  Cd0  1  0.00000000  0.00000000  0.50000000  1
  Fe  Fe0  1  0.00000000  0.00000000  0.00000000  1
  Pd  Pd0  1  0.50000000  0.50000000  0.50000000  1
  Pt  Pt0  1  0.50000000  0.50000000  0.00000000  1
  Pt  Pt1  1  0.50000000  0.00000000  0.23551537  1
  Pt  Pt2  1  0.50000000  0.00000000  0.76448463  1
  Pt  Pt3  1  0.00000000  0.50000000  0.23551537  1
  Pt  Pt4  1  0.00000000  0.50000000  0.76448463  1
loop_
_geom_bond_atom_site_label_1
_geom_bond_atom_site_label_2
_geom_bond_distance
_geom_bond_site_symmetry_2
Cd0 Pd0 2.780066 1_555
Cd0 Pd0 2.780066 1_445
Cd0 Pd0 2.780066 1_545
Cd0 Pd0 2.780066 1_455
Cd0 Pt2 2.880556 1_455
Cd0 Pt4 2.880556 1_545
Cd0 Pt2 2.880556 1_555
Cd0 Pt4 2.880556 1_555
Cd0 Pt1 2.880556 1_555
Cd0 Pt3 2.880556 1_545
Cd0 Pt1 2.880556 1_455
Cd0 Pt3 2.880556 1_555
Fe0 Pt1 2.716549 1_455
Fe0 Pt1 2.716549 1_555
Fe0 Pt3 2.716549 1_555
Fe0 Pt3 2.716549 1_545
Fe0 Pt2 2.716549 1_554
Fe0 Pt4 2.716549 1_554
Fe0 Pt2 2.716549 1_454
Fe0 Pt4 2.716549 1_544
Fe0 Pt0 2.780066 1_455
Fe0 Pt0 2.780066 1_555
Fe0 Pt0 2.780066 1_445
Fe0 Pt0 2.780066 1_545
Pd0 Pt4 2.880556 1_655
Pd0 Pt2 2.880556 1_555
Pd0 Pt2 2.880556 1_565
Pd0 Pt4 2.880556 1_555
Pd0 Pt1 2.880556 1_555
Pd0 Pt3 2.880556 1_655
Pd0 Pt1 2.880556 1_565
Pd0 Pt3 2.880556 1_555
Pt0 Pt1 2.716549 1_555
Pt0 Pt3 2.716549 1_555
Pt0 Pt3 2.716549 1_655
Pt0 Pt1 2.716549 1_565
Pt0 Pt4 2.716549 1_654
Pt0 Pt4 2.716549 1_554
Pt0 Pt2 2.716549 1_554
Pt0 Pt2 2.716549 1_564
Pt1 Pt3 2.780066 1_555
Pt1 Pt3 2.780066 1_655
Pt1 Pt3 2.780066 1_545
Pt1 Pt3 2.780066 1_645
Pt2 Pt4 2.780066 1_555
Pt2 Pt4 2.780066 1_655
Pt2 Pt4 2.780066 1_545
Pt2 Pt4 2.780066 1_645
