# generated using pymatgen
data_AlZnIrS4
_symmetry_space_group_name_H-M   'P 1'
_cell_length_a   7.05222412
_cell_length_b   7.05222356
_cell_length_c   7.05222440
_cell_angle_alpha   120.60056179
_cell_angle_beta   118.99849698
_cell_angle_gamma   90.35314182
_symmetry_Int_Tables_number   1
_chemical_formula_structural   AlZnIrS4
_chemical_formula_sum   'Al2 Zn2 Ir2 S8'
_cell_volume   248.69268989
_cell_formula_units_Z   2
loop_
 _symmetry_equiv_pos_site_id
 _symmetry_equiv_pos_as_xyz
  1  'x, y, z'
loop_
 _atom_site_type_symbol
 _atom_site_label
 _atom_site_symmetry_multiplicity
 _atom_site_fract_x
 _atom_site_fract_y
 _atom_site_fract_z
 _atom_site_occupancy
  Al  Al0  1  0.50000000  0.00000000  0.00000000  1
  Al  Al1  1  0.50000000  0.50000000  0.50000000  1
  Zn  Zn0  1  0.87879336  0.62879336  0.25000000  1
  Zn  Zn1  1  0.12120664  0.37120664  0.75000000  1
  Ir  Ir0  1  0.50000000  0.00000000  0.50000000  1
  Ir  Ir1  1  0.00000000  0.00000000  0.00000000  1
  S  S0  1  0.73918327  0.76423474  0.52505146  1
  S  S1  1  0.73918327  0.21413281  0.97494854  1
  S  S2  1  0.74120603  0.76070235  0.98050369  1
  S  S3  1  0.28019866  0.76070235  0.51949631  1
  S  S4  1  0.26081673  0.23576526  0.47494854  1
  S  S5  1  0.26081673  0.78586719  0.02505146  1
  S  S6  1  0.25879397  0.23929765  0.01949631  1
  S  S7  1  0.71980134  0.23929765  0.48050369  1
loop_
_geom_bond_atom_site_label_1
_geom_bond_atom_site_label_2
_geom_bond_distance
_geom_bond_site_symmetry_2
Al0 S1 2.384536 1_554
Al0 S5 2.384536 1_545
Al0 S2 2.405470 1_544
Al0 S6 2.405470 1_555
Al0 S7 2.405470 1_555
Al0 S3 2.405470 1_544
Al1 S0 2.384531 1_555
Al1 S4 2.384531 1_555
Al1 S3 2.405470 1_555
Al1 S7 2.405470 1_555
Al1 S2 2.405470 1_555
Al1 S6 2.405470 1_555
Ir0 S7 2.383323 1_555
Ir0 S3 2.383323 1_545
Ir0 S1 2.384446 1_555
Ir0 S5 2.384446 1_545
Ir0 S0 2.384446 1_545
Ir0 S4 2.384446 1_555
Ir1 S6 2.383323 1_555
Ir1 S2 2.383323 1_444
Ir1 S4 2.384447 1_555
Ir1 S0 2.384447 1_444
Ir1 S5 2.384451 1_545
Ir1 S1 2.384451 1_454
S0 Zn0 2.370908 1_555
S1 Zn0 2.370902 1_556
S2 Zn0 2.332822 1_556
S3 Zn0 2.332822 1_455
S4 Zn1 2.370908 1_555
S5 Zn1 2.370902 1_554
S6 Zn1 2.332822 1_554
S7 Zn1 2.332822 1_655
