# generated using pymatgen
data_Sr2In3SnIr2
_symmetry_space_group_name_H-M   'P 1'
_cell_length_a   6.01132308
_cell_length_b   6.01132364
_cell_length_c   7.94779061
_cell_angle_alpha   90.36433779
_cell_angle_beta   89.63566431
_cell_angle_gamma   137.10221117
_symmetry_Int_Tables_number   1
_chemical_formula_structural   Sr2In3SnIr2
_chemical_formula_sum   'Sr2 In3 Sn1 Ir2'
_cell_volume   195.49132431
_cell_formula_units_Z   1
loop_
 _symmetry_equiv_pos_site_id
 _symmetry_equiv_pos_as_xyz
  1  'x, y, z'
loop_
 _atom_site_type_symbol
 _atom_site_label
 _atom_site_symmetry_multiplicity
 _atom_site_fract_x
 _atom_site_fract_y
 _atom_site_fract_z
 _atom_site_occupancy
  Sr  Sr0  1  0.94039113  0.05960887  0.74855738  1
  Sr  Sr1  1  0.05942644  0.94057356  0.24704150  1
  In  In0  1  0.65910295  0.34089705  0.55193102  1
  In  In1  1  0.34581087  0.65418913  0.05684573  1
  In  In2  1  0.34051958  0.65948042  0.44852556  1
  Sn  Sn0  1  0.65862579  0.34137421  0.94524985  1
  Ir  Ir0  1  0.21625338  0.78374662  0.75728796  1
  Ir  Ir1  1  0.77986886  0.22013114  0.24456000  1
loop_
_geom_bond_atom_site_label_1
_geom_bond_atom_site_label_2
_geom_bond_distance
_geom_bond_site_symmetry_2
In0 Ir1 2.783695 1_555
In0 Ir0 2.814079 1_655
In0 Ir0 2.814079 1_545
In0 In2 3.099305 1_655
In0 In2 3.099305 1_545
In0 Sn0 3.125984 1_555
In0 Sr1 3.461912 1_545
In0 Sr1 3.461912 1_655
In0 Sr0 3.523759 1_555
In0 Sr0 3.634770 1_455
In0 Sr0 3.634771 1_565
In1 Ir1 2.754485 1_455
In1 Ir1 2.754485 1_565
In1 Ir0 2.795935 1_554
In1 In2 3.113148 1_555
In1 Sn0 3.167230 1_454
In1 Sn0 3.167231 1_564
In1 Sr0 3.452558 1_564
In1 Sr0 3.452558 1_454
In1 Sr1 3.533921 1_555
In1 Sr1 3.588896 1_655
In1 Sr1 3.588897 1_545
In2 Ir0 2.812292 1_555
In2 Ir1 2.816996 1_455
In2 Ir1 2.816997 1_565
In2 Sr0 3.435633 1_565
In2 Sr0 3.435633 1_455
In2 Sr1 3.539338 1_555
In2 Sr1 3.652816 1_655
In2 Sr1 3.652816 1_545
Sn0 Sr1 3.432335 1_546
Sn0 Sr1 3.432335 1_656
Sn0 Sr0 3.509644 1_555
Sn0 Sr0 3.645753 1_455
Sn0 Sr0 3.645753 1_565
Ir0 Sn0 2.732453 1_455
Ir0 Sn0 2.732453 1_565
Ir0 Sr0 3.088154 1_465
Ir0 Sr0 3.335410 1_565
Ir0 Sr0 3.335410 1_455
Ir1 Sn0 2.746582 1_554
Ir1 Sr1 3.128448 1_645
Ir1 Sr1 3.304017 1_545
Ir1 Sr1 3.304018 1_655
