# generated using pymatgen
data_RbBa4Sb2As
_symmetry_space_group_name_H-M   'P 1'
_cell_length_a   8.90333971
_cell_length_b   10.60733941
_cell_length_c   14.21895007
_cell_angle_alpha   90.00000000
_cell_angle_beta   90.00000000
_cell_angle_gamma   90.00000000
_symmetry_Int_Tables_number   1
_chemical_formula_structural   RbBa4Sb2As
_chemical_formula_sum   'Rb4 Ba16 Sb8 As4'
_cell_volume   1342.84825420
_cell_formula_units_Z   4
loop_
 _symmetry_equiv_pos_site_id
 _symmetry_equiv_pos_as_xyz
  1  'x, y, z'
loop_
 _atom_site_type_symbol
 _atom_site_label
 _atom_site_symmetry_multiplicity
 _atom_site_fract_x
 _atom_site_fract_y
 _atom_site_fract_z
 _atom_site_occupancy
  Rb  Rb0  1  0.01178427  0.75000000  0.49964612  1
  Rb  Rb1  1  0.98821573  0.25000000  0.50035388  1
  Rb  Rb2  1  0.51178427  0.25000000  0.00035388  1
  Rb  Rb3  1  0.48821573  0.75000000  0.99964612  1
  Ba  Ba0  1  0.83858241  0.75000000  0.79711915  1
  Ba  Ba1  1  0.16141759  0.25000000  0.20288085  1
  Ba  Ba2  1  0.33858241  0.25000000  0.70288085  1
  Ba  Ba3  1  0.66141759  0.75000000  0.29711915  1
  Ba  Ba4  1  0.69323925  0.50334815  0.57431379  1
  Ba  Ba5  1  0.30676075  0.49665185  0.42568621  1
  Ba  Ba6  1  0.19323925  0.49665185  0.92568621  1
  Ba  Ba7  1  0.30676075  0.00334815  0.42568621  1
  Ba  Ba8  1  0.80676075  0.50334815  0.07431379  1
  Ba  Ba9  1  0.69323925  0.99665185  0.57431379  1
  Ba  Ba10  1  0.80676075  0.99665185  0.07431379  1
  Ba  Ba11  1  0.19323925  0.00334815  0.92568621  1
  Ba  Ba12  1  0.33632008  0.75000000  0.70509002  1
  Ba  Ba13  1  0.66367992  0.25000000  0.29490998  1
  Ba  Ba14  1  0.83632008  0.25000000  0.79490998  1
  Ba  Ba15  1  0.16367992  0.75000000  0.20509002  1
  Sb  Sb0  1  0.56089843  0.50066120  0.81995249  1
  Sb  Sb1  1  0.43910157  0.49933880  0.18004751  1
  Sb  Sb2  1  0.06089843  0.49933880  0.68004751  1
  Sb  Sb3  1  0.43910157  0.00066120  0.18004751  1
  Sb  Sb4  1  0.93910157  0.50066120  0.31995249  1
  Sb  Sb5  1  0.56089843  0.99933880  0.81995249  1
  Sb  Sb6  1  0.93910157  0.99933880  0.31995249  1
  Sb  Sb7  1  0.06089843  0.00066120  0.68004751  1
  As  As0  1  0.00679090  0.75000000  0.99899410  1
  As  As1  1  0.99320910  0.25000000  0.00100590  1
  As  As2  1  0.50679090  0.25000000  0.50100590  1
  As  As3  1  0.49320910  0.75000000  0.49899410  1
loop_
_geom_bond_atom_site_label_1
_geom_bond_atom_site_label_2
_geom_bond_distance
_geom_bond_site_symmetry_2
Rb0 Sb7 3.720285 1_565
Rb0 Sb2 3.720285 1_555
Rb0 Sb6 3.733919 1_455
Rb0 Sb4 3.733919 1_455
Rb1 Sb4 3.720285 1_555
Rb1 Sb6 3.720285 1_545
Rb1 Sb2 3.733919 1_655
Rb1 Sb7 3.733919 1_655
Rb2 Sb0 3.720285 1_554
Rb2 Sb5 3.720285 1_544
Rb2 Sb1 3.733919 1_555
Rb2 Sb3 3.733919 1_555
Rb3 Sb3 3.720285 1_566
Rb3 Sb1 3.720285 1_556
Rb3 Sb5 3.733919 1_555
Rb3 Sb0 3.733919 1_555
Ba0 Sb5 3.634945 1_555
Ba0 Sb0 3.634945 1_555
Ba0 Sb7 3.709223 1_665
Ba0 Sb2 3.709223 1_655
Ba1 Sb1 3.634945 1_555
Ba1 Sb3 3.634945 1_555
Ba1 Sb4 3.709223 1_455
Ba1 Sb6 3.709223 1_445
Ba2 Sb2 3.634945 1_555
Ba2 Sb7 3.634945 1_555
Ba2 Sb0 3.709223 1_555
Ba2 Sb5 3.709223 1_545
Ba3 Sb6 3.634945 1_555
Ba3 Sb4 3.634945 1_555
Ba3 Sb3 3.709223 1_565
Ba3 Sb1 3.709223 1_555
Ba4 Sb2 3.602388 1_655
Ba4 Sb0 3.686227 1_555
Ba5 Sb4 3.602388 1_455
Ba5 Sb1 3.686227 1_555
Ba6 Sb0 3.602388 1_555
Ba6 Sb2 3.686227 1_555
Ba7 Sb6 3.602388 1_445
Ba7 Sb3 3.686227 1_555
Ba8 Sb1 3.602388 1_555
Ba8 Sb4 3.686227 1_555
Ba9 Sb7 3.602388 1_665
Ba9 Sb5 3.686227 1_555
Ba10 Sb3 3.602388 1_565
Ba10 Sb6 3.686227 1_555
Ba11 Sb5 3.602388 1_545
Ba11 Sb7 3.686227 1_555
Ba12 Sb7 3.634476 1_565
Ba12 Sb2 3.634476 1_555
Ba12 Sb5 3.696010 1_555
Ba12 Sb0 3.696010 1_555
Ba13 Sb4 3.634476 1_555
Ba13 Sb6 3.634476 1_545
Ba13 Sb1 3.696010 1_555
Ba13 Sb3 3.696010 1_555
Ba14 Sb0 3.634476 1_555
Ba14 Sb5 3.634476 1_545
Ba14 Sb2 3.696010 1_655
Ba14 Sb7 3.696010 1_655
Ba15 Sb3 3.634476 1_565
Ba15 Sb1 3.634476 1_555
Ba15 Sb6 3.696010 1_455
Ba15 Sb4 3.696010 1_455
As0 Ba0 3.237644 1_455
As0 Ba15 3.246351 1_556
As0 Ba11 3.326261 1_565
As0 Ba6 3.326261 1_555
As0 Ba10 3.341232 1_456
As0 Ba8 3.341232 1_456
As1 Ba1 3.237644 1_655
As1 Ba14 3.246351 1_554
As1 Ba8 3.326261 1_555
As1 Ba10 3.326261 1_545
As1 Ba6 3.341232 1_654
As1 Ba11 3.341232 1_654
As2 Ba2 3.237644 1_555
As2 Ba13 3.246351 1_555
As2 Ba4 3.326261 1_555
As2 Ba9 3.326261 1_545
As2 Ba5 3.341232 1_555
As2 Ba7 3.341232 1_555
As3 Ba3 3.237644 1_555
As3 Ba12 3.246351 1_555
As3 Ba7 3.326261 1_565
As3 Ba5 3.326261 1_555
As3 Ba9 3.341232 1_555
As3 Ba4 3.341232 1_555
