# generated using pymatgen
data_Y9Mg(BiAu2)2
_symmetry_space_group_name_H-M   'P 1'
_cell_length_a   8.75415408
_cell_length_b   8.75415573
_cell_length_c   8.75415459
_cell_angle_alpha   125.72128963
_cell_angle_beta   125.72128916
_cell_angle_gamma   80.34670525
_symmetry_Int_Tables_number   1
_chemical_formula_structural   Y9Mg(BiAu2)2
_chemical_formula_sum   'Y9 Mg1 Bi2 Au4'
_cell_volume   426.65609802
_cell_formula_units_Z   1
loop_
 _symmetry_equiv_pos_site_id
 _symmetry_equiv_pos_as_xyz
  1  'x, y, z'
loop_
 _atom_site_type_symbol
 _atom_site_label
 _atom_site_symmetry_multiplicity
 _atom_site_fract_x
 _atom_site_fract_y
 _atom_site_fract_z
 _atom_site_occupancy
  Y  Y0  1  0.00000000  0.00000000  0.00000000  1
  Y  Y1  1  0.51066344  0.02715980  0.81471929  1
  Y  Y2  1  0.21244151  0.69594516  0.18528071  1
  Y  Y3  1  0.02715980  0.21244151  0.51649636  1
  Y  Y4  1  0.69594516  0.51066344  0.48350364  1
  Y  Y5  1  0.48933656  0.97284020  0.18528071  1
  Y  Y6  1  0.78755849  0.30405484  0.81471929  1
  Y  Y7  1  0.97284020  0.78755849  0.48350364  1
  Y  Y8  1  0.30405484  0.48933656  0.51649636  1
  Mg  Mg0  1  0.50000000  0.50000000  0.00000000  1
  Bi  Bi0  1  0.24581139  0.24581139  1.00000000  1
  Bi  Bi1  1  0.75418861  0.75418861  0.00000000  1
  Au  Au0  1  0.13328300  0.64084594  0.77412994  1
  Au  Au1  1  0.86671700  0.35915406  0.22587006  1
  Au  Au2  1  0.64084594  0.86671700  0.50756395  1
  Au  Au3  1  0.35915406  0.13328300  0.49243605  1
loop_
_geom_bond_atom_site_label_1
_geom_bond_atom_site_label_2
_geom_bond_distance
_geom_bond_site_symmetry_2
Mg0 Y6 3.461348 1_554
Mg0 Y2 3.461348 1_555
Mg0 Y7 3.461353 1_555
Mg0 Y3 3.461353 1_554
Mg0 Y4 3.461353 1_555
Mg0 Y8 3.461353 1_554
Mg0 Y5 3.461355 1_555
Mg0 Y1 3.461355 1_554
Bi0 Y0 3.288473 1_556
Bi0 Y1 3.308770 1_555
Bi0 Y4 3.308775 1_556
Bi0 Y3 3.308775 1_555
Bi0 Y2 3.308777 1_556
Bi0 Mg0 3.400543 1_556
Bi0 Y5 3.415505 1_546
Bi0 Y8 3.415510 1_556
Bi0 Y7 3.415510 1_445
Bi0 Y6 3.415510 1_455
Bi1 Y0 3.288473 1_665
Bi1 Y5 3.308770 1_555
Bi1 Y8 3.308775 1_554
Bi1 Y7 3.308775 1_555
Bi1 Y6 3.308777 1_554
Bi1 Mg0 3.400543 1_555
Bi1 Y1 3.415505 1_564
Bi1 Y4 3.415510 1_554
Bi1 Y3 3.415510 1_665
Bi1 Y2 3.415510 1_655
Au0 Y2 2.973234 1_556
Au0 Y5 2.973251 1_556
Au0 Y3 2.976543 1_555
Au0 Y8 2.976551 1_555
Au0 Y4 3.022094 1_455
Au0 Y7 3.022102 1_455
Au0 Y0 3.059535 1_566
Au0 Au1 3.097380 1_455
Au0 Mg0 3.137380 1_556
Au1 Y6 2.973234 1_554
Au1 Y1 2.973251 1_554
Au1 Y7 2.976543 1_555
Au1 Y4 2.976551 1_555
Au1 Y8 3.022094 1_655
Au1 Y3 3.022102 1_655
Au1 Y0 3.059535 1_655
Au1 Mg0 3.137380 1_555
Au2 Y4 2.973248 1_555
Au2 Y7 2.973256 1_555
Au2 Y2 2.976542 1_555
Au2 Y5 2.976559 1_555
Au2 Y1 3.022095 1_565
Au2 Y6 3.022096 1_565
Au2 Y0 3.059532 1_666
Au2 Au3 3.097370 1_565
Au2 Mg0 3.137388 1_555
Au3 Y8 2.973248 1_555
Au3 Y3 2.973256 1_555
Au3 Y6 2.976542 1_555
Au3 Y1 2.976559 1_555
Au3 Y5 3.022095 1_545
Au3 Y2 3.022096 1_545
Au3 Y0 3.059532 1_555
Au3 Mg0 3.137388 1_556
