# generated using pymatgen
data_Y6B14RuW
_symmetry_space_group_name_H-M   'P 1'
_cell_length_a   8.12353014
_cell_length_b   8.12352911
_cell_length_c   9.39752101
_cell_angle_alpha   90.00000000
_cell_angle_beta   90.00000000
_cell_angle_gamma   155.11807024
_symmetry_Int_Tables_number   1
_chemical_formula_structural   Y6B14RuW
_chemical_formula_sum   'Y6 B14 Ru1 W1'
_cell_volume   260.93160321
_cell_formula_units_Z   1
loop_
 _symmetry_equiv_pos_site_id
 _symmetry_equiv_pos_as_xyz
  1  'x, y, z'
loop_
 _atom_site_type_symbol
 _atom_site_label
 _atom_site_symmetry_multiplicity
 _atom_site_fract_x
 _atom_site_fract_y
 _atom_site_fract_z
 _atom_site_occupancy
  Y  Y0  1  0.89434640  0.10565360  0.93791657  1
  Y  Y1  1  0.10635321  0.89364679  0.05863184  1
  Y  Y2  1  0.75587756  0.24412244  0.25000000  1
  Y  Y3  1  0.24237905  0.75762095  0.75000000  1
  Y  Y4  1  0.89434640  0.10565360  0.56208343  1
  Y  Y5  1  0.10635321  0.89364679  0.44136816  1
  B  B0  1  0.54519251  0.45480749  0.25000000  1
  B  B1  1  0.45913349  0.54086651  0.75000000  1
  B  B2  1  0.52131437  0.47868563  0.90267105  1
  B  B3  1  0.48065982  0.51934018  0.09168631  1
  B  B4  1  0.48065982  0.51934018  0.40831369  1
  B  B5  1  0.52131437  0.47868563  0.59732895  1
  B  B6  1  0.63094989  0.36905011  0.84793927  1
  B  B7  1  0.36573616  0.63426384  0.14690068  1
  B  B8  1  0.72667434  0.27332566  0.96403436  1
  B  B9  1  0.27200479  0.72799521  0.03247553  1
  B  B10  1  0.27200479  0.72799521  0.46752447  1
  B  B11  1  0.72667434  0.27332566  0.53596564  1
  B  B12  1  0.63094989  0.36905011  0.65206073  1
  B  B13  1  0.36573616  0.63426384  0.35309932  1
  Ru  Ru0  1  0.05442470  0.94557530  0.75000000  1
  W  W0  1  0.94691670  0.05308330  0.25000000  1
loop_
_geom_bond_atom_site_label_1
_geom_bond_atom_site_label_2
_geom_bond_distance
_geom_bond_site_symmetry_2
B0 B4 1.806012 1_555
B0 B3 1.806012 1_555
B0 W0 2.343904 1_565
B0 W0 2.343905 1_455
B0 Y5 2.690456 1_545
B0 Y1 2.690456 1_545
B0 Y5 2.690456 1_655
B0 Y1 2.690456 1_655
B0 Y2 3.342635 1_555
B1 B2 1.741177 1_555
B1 B5 1.741177 1_555
B1 Ru0 2.312675 1_545
B1 Ru0 2.312676 1_655
B1 Y4 2.690335 1_565
B1 Y0 2.690335 1_565
B1 Y4 2.690336 1_455
B1 Y0 2.690336 1_455
B2 B6 1.813880 1_555
B2 B3 1.889758 1_556
B2 Ru0 2.323184 1_545
B2 Ru0 2.323185 1_655
B2 Y1 2.651642 1_546
B2 Y1 2.651643 1_656
B2 Y0 2.688934 1_565
B2 Y0 2.688934 1_455
B3 B7 1.895721 1_555
B3 W0 2.358560 1_565
B3 W0 2.358560 1_455
B3 Y0 2.650707 1_564
B3 Y0 2.650708 1_454
B3 Y1 2.671346 1_545
B3 Y1 2.671346 1_655
B4 B5 1.889758 1_555
B4 W0 2.358560 1_565
B4 W0 2.358560 1_455
B4 Y4 2.650707 1_565
B4 Y4 2.650708 1_455
B4 Y5 2.671346 1_545
B4 Y5 2.671346 1_655
B5 Ru0 2.323184 1_545
B5 Ru0 2.323185 1_655
B5 Y5 2.651642 1_545
B5 Y5 2.651643 1_655
B5 Y4 2.688934 1_565
B5 Y4 2.688934 1_455
B6 B8 1.869976 1_555
B6 Ru0 2.320338 1_655
B6 Ru0 2.320338 1_545
B6 Y3 2.652416 1_545
B6 Y3 2.652417 1_655
B6 Y1 2.671221 1_656
B6 Y1 2.671221 1_546
B7 B9 1.835147 1_555
B7 W0 2.379156 1_455
B7 W0 2.379157 1_565
B7 Y2 2.653195 1_565
B7 Y2 2.653195 1_455
B7 Y0 2.669430 1_454
B7 Y0 2.669430 1_564
B8 B9 1.998424 1_546
B8 B9 1.998424 1_656
B8 Y0 2.671509 1_555
B8 Y3 2.677791 1_545
B8 Y3 2.677791 1_655
B8 Y2 2.727016 1_556
B8 Y1 2.738102 1_656
B8 Y1 2.738103 1_546
B9 Y1 2.639624 1_555
B9 Y3 2.695861 1_554
B9 Y2 2.703140 1_565
B9 Y2 2.703140 1_455
B9 Y0 2.760430 1_454
B9 Y0 2.760431 1_564
B10 B13 1.835147 1_555
B10 B11 1.998424 1_565
B10 B11 1.998424 1_455
B10 Y5 2.639624 1_555
B10 Y3 2.695861 1_555
B10 Y2 2.703140 1_565
B10 Y2 2.703140 1_455
B10 Y4 2.760430 1_455
B10 Y4 2.760431 1_565
B11 B12 1.869976 1_555
B11 Y4 2.671509 1_555
B11 Y3 2.677791 1_545
B11 Y3 2.677791 1_655
B11 Y2 2.727016 1_555
B11 Y5 2.738102 1_655
B11 Y5 2.738103 1_545
B12 B5 1.813880 1_555
B12 B6 1.840773 1_555
B12 Ru0 2.320338 1_655
B12 Ru0 2.320338 1_545
B12 Y3 2.652416 1_545
B12 Y3 2.652417 1_655
B12 Y5 2.671221 1_655
B12 Y5 2.671221 1_545
B13 B4 1.895721 1_555
B13 B7 1.937756 1_555
B13 W0 2.379156 1_455
B13 W0 2.379157 1_565
B13 Y2 2.653195 1_565
B13 Y2 2.653195 1_455
B13 Y4 2.669430 1_455
B13 Y4 2.669430 1_565
