# generated using pymatgen
data_RbZrCrS4
_symmetry_space_group_name_H-M   'P 1'
_cell_length_a   3.67611585
_cell_length_b   8.19290960
_cell_length_c   6.14087785
_cell_angle_alpha   75.60707032
_cell_angle_beta   90.00000000
_cell_angle_gamma   90.00000000
_symmetry_Int_Tables_number   1
_chemical_formula_structural   RbZrCrS4
_chemical_formula_sum   'Rb1 Zr1 Cr1 S4'
_cell_volume   179.14656380
_cell_formula_units_Z   1
loop_
 _symmetry_equiv_pos_site_id
 _symmetry_equiv_pos_as_xyz
  1  'x, y, z'
loop_
 _atom_site_type_symbol
 _atom_site_label
 _atom_site_symmetry_multiplicity
 _atom_site_fract_x
 _atom_site_fract_y
 _atom_site_fract_z
 _atom_site_occupancy
  Rb  Rb0  1  0.50000000  0.49513595  0.64667312  1
  Zr  Zr0  1  0.00000000  0.99938103  0.00333222  1
  Cr  Cr0  1  0.50000000  0.00177096  0.50390577  1
  S  S0  1  0.00000000  0.83047128  0.41164224  1
  S  S1  1  0.50000000  0.81997261  0.88705838  1
  S  S2  1  0.00000000  0.17223128  0.59505715  1
  S  S3  1  0.50000000  0.18015789  0.11929011  1
loop_
_geom_bond_atom_site_label_1
_geom_bond_atom_site_label_2
_geom_bond_distance
_geom_bond_site_symmetry_2
Rb0 S2 3.300700 1_555
Rb0 S2 3.300700 1_655
Rb0 S0 3.322396 1_555
Rb0 S0 3.322396 1_655
Rb0 S1 3.348881 1_555
Rb0 S3 3.370355 1_556
Cr0 S3 2.449161 1_555
Cr0 S1 2.452008 1_545
Cr0 S2 2.455769 1_555
Cr0 S2 2.455769 1_655
Cr0 S0 2.462606 1_645
Cr0 S0 2.462606 1_545
S0 Zr0 2.545000 1_555
S1 Zr0 2.563316 1_656
S1 Zr0 2.563316 1_556
S2 Zr0 2.554653 1_546
S3 Zr0 2.569719 1_545
S3 Zr0 2.569719 1_645
