# generated using pymatgen
data_SrY3Si5Rh9
_symmetry_space_group_name_H-M   'P 1'
_cell_length_a   11.55884203
_cell_length_b   11.55884165
_cell_length_c   11.55884118
_cell_angle_alpha   27.84243172
_cell_angle_beta   27.84243444
_cell_angle_gamma   27.84243599
_symmetry_Int_Tables_number   1
_chemical_formula_structural   SrY3Si5Rh9
_chemical_formula_sum   'Sr1 Y3 Si5 Rh9'
_cell_volume   297.46712438
_cell_formula_units_Z   1
loop_
 _symmetry_equiv_pos_site_id
 _symmetry_equiv_pos_as_xyz
  1  'x, y, z'
loop_
 _atom_site_type_symbol
 _atom_site_label
 _atom_site_symmetry_multiplicity
 _atom_site_fract_x
 _atom_site_fract_y
 _atom_site_fract_z
 _atom_site_occupancy
  Sr  Sr0  1  0.94838721  0.94838721  0.94838721  1
  Y  Y0  1  0.85162554  0.85162554  0.85162554  1
  Y  Y1  1  0.14827934  0.14827934  0.14827934  1
  Y  Y2  1  0.05003325  0.05003325  0.05003325  1
  Si  Si0  1  0.27850436  0.27850436  0.27850436  1
  Si  Si1  1  0.49976553  0.49976553  0.49976553  1
  Si  Si2  1  0.38849260  0.38849260  0.38849260  1
  Si  Si3  1  0.72212082  0.72212082  0.72212082  1
  Si  Si4  1  0.61193354  0.61193354  0.61193354  1
  Rh  Rh0  1  0.60769832  0.60769832  0.10943728  1
  Rh  Rh1  1  0.89050687  0.39136193  0.39136193  1
  Rh  Rh2  1  0.50101837  0.00075843  0.50101837  1
  Rh  Rh3  1  0.39136193  0.89050687  0.39136193  1
  Rh  Rh4  1  0.50101837  0.50101837  0.00075843  1
  Rh  Rh5  1  0.10943728  0.60769832  0.60769832  1
  Rh  Rh6  1  0.00075843  0.50101837  0.50101837  1
  Rh  Rh7  1  0.39136193  0.39136193  0.89050687  1
  Rh  Rh8  1  0.60769832  0.10943728  0.60769832  1
loop_
_geom_bond_atom_site_label_1
_geom_bond_atom_site_label_2
_geom_bond_distance
_geom_bond_site_symmetry_2
Sr0 Y0 3.223282 1_555
Sr0 Y2 3.385988 1_666
Y1 Y2 3.272730 1_555
Si0 Sr0 3.212908 1_445
Si0 Sr0 3.212908 1_454
Si0 Sr0 3.212908 1_544
Si1 Y0 3.269889 1_554
Si1 Y0 3.269890 1_545
Si1 Y0 3.269890 1_455
Si2 Y2 3.215658 1_556
Si2 Y2 3.215658 1_565
Si2 Y2 3.215659 1_655
Si3 Y2 3.216195 1_665
Si3 Y2 3.216195 1_656
Si3 Y2 3.216195 1_566
Si4 Sr0 3.212803 1_554
Si4 Sr0 3.212803 1_545
Si4 Sr0 3.212804 1_455
Rh0 Si2 2.385569 1_555
Rh0 Si3 2.385819 1_554
Rh0 Si1 2.512508 1_555
Rh0 Y0 3.020024 1_554
Rh0 Y1 3.083680 1_565
Rh0 Y1 3.083680 1_655
Rh0 Y2 3.390866 1_655
Rh0 Y2 3.390866 1_565
Rh1 Si4 2.414040 1_555
Rh1 Si0 2.415307 1_655
Rh1 Si1 2.509798 1_555
Rh1 Rh7 2.776157 1_555
Rh1 Rh3 2.776157 1_555
Rh1 Rh7 2.785668 1_654
Rh1 Rh3 2.785669 1_645
Rh1 Y1 3.003022 1_655
Rh1 Y0 3.075803 1_554
Rh1 Y0 3.075804 1_545
Rh1 Sr0 3.373148 1_545
Rh1 Sr0 3.373148 1_554
Rh2 Si2 2.417354 1_555
Rh2 Si3 2.423598 1_545
Rh2 Si4 2.452246 1_545
Rh2 Si0 2.455753 1_555
Rh2 Y2 3.226270 1_556
Rh2 Y2 3.226271 1_655
Rh2 Sr0 3.285904 1_544
Rh2 Sr0 3.285904 1_445
Rh3 Si4 2.414040 1_555
Rh3 Si0 2.415307 1_565
Rh3 Si1 2.509798 1_555
Rh3 Rh7 2.776157 1_555
Rh3 Rh7 2.785668 1_564
Rh3 Y1 3.003022 1_565
Rh3 Y0 3.075804 1_554
Rh3 Y0 3.075804 1_455
Rh3 Sr0 3.373148 1_455
Rh3 Sr0 3.373148 1_554
Rh4 Si2 2.417354 1_555
Rh4 Si3 2.423598 1_554
Rh4 Si4 2.452246 1_554
Rh4 Si0 2.455753 1_555
Rh4 Y2 3.226271 1_565
Rh4 Y2 3.226271 1_655
Rh4 Sr0 3.285904 1_544
Rh4 Sr0 3.285904 1_454
Rh5 Si2 2.385569 1_555
Rh5 Si3 2.385819 1_455
Rh5 Si1 2.512509 1_555
Rh5 Y0 3.020023 1_455
Rh5 Y1 3.083680 1_556
Rh5 Y1 3.083680 1_565
Rh5 Y2 3.390865 1_565
Rh5 Y2 3.390865 1_556
Rh6 Si2 2.417354 1_555
Rh6 Si3 2.423598 1_455
Rh6 Si4 2.452246 1_455
Rh6 Si0 2.455753 1_555
Rh6 Y2 3.226270 1_556
Rh6 Y2 3.226270 1_565
Rh6 Sr0 3.285903 1_454
Rh6 Sr0 3.285904 1_445
Rh7 Si4 2.414040 1_555
Rh7 Si0 2.415306 1_556
Rh7 Si1 2.509798 1_555
Rh7 Y1 3.003022 1_556
Rh7 Y0 3.075804 1_545
Rh7 Y0 3.075804 1_455
Rh7 Sr0 3.373148 1_455
Rh7 Sr0 3.373148 1_545
Rh8 Si2 2.385569 1_555
Rh8 Si3 2.385819 1_545
Rh8 Si1 2.512508 1_555
Rh8 Y0 3.020024 1_545
Rh8 Y1 3.083680 1_556
Rh8 Y1 3.083680 1_655
Rh8 Y2 3.390865 1_655
Rh8 Y2 3.390866 1_556
