# generated using pymatgen
data_BaCdGeSe4
_symmetry_space_group_name_H-M   'P 1'
_cell_length_a   6.78063006
_cell_length_b   11.12401203
_cell_length_c   11.43897829
_cell_angle_alpha   90.00000000
_cell_angle_beta   90.00000000
_cell_angle_gamma   90.00000000
_symmetry_Int_Tables_number   1
_chemical_formula_structural   BaCdGeSe4
_chemical_formula_sum   'Ba4 Cd4 Ge4 Se16'
_cell_volume   862.81708571
_cell_formula_units_Z   4
loop_
 _symmetry_equiv_pos_site_id
 _symmetry_equiv_pos_as_xyz
  1  'x, y, z'
loop_
 _atom_site_type_symbol
 _atom_site_label
 _atom_site_symmetry_multiplicity
 _atom_site_fract_x
 _atom_site_fract_y
 _atom_site_fract_z
 _atom_site_occupancy
  Ba  Ba0  1  0.05431745  0.00000000  0.50000000  1
  Ba  Ba1  1  0.55431745  0.50000000  0.00000000  1
  Ba  Ba2  1  0.05514029  0.00000000  0.00000000  1
  Ba  Ba3  1  0.55514029  0.50000000  0.50000000  1
  Cd  Cd0  1  0.48542023  0.16186289  0.25058087  1
  Cd  Cd1  1  0.48542023  0.83813711  0.74941913  1
  Cd  Cd2  1  0.98542023  0.33813711  0.75058087  1
  Cd  Cd3  1  0.98542023  0.66186289  0.24941913  1
  Ge  Ge0  1  0.04279399  0.28273940  0.25000962  1
  Ge  Ge1  1  0.04279399  0.71726060  0.74999038  1
  Ge  Ge2  1  0.54279399  0.21726060  0.75000962  1
  Ge  Ge3  1  0.54279399  0.78273940  0.24999038  1
  Se  Se0  1  0.25635979  0.26932324  0.08581103  1
  Se  Se1  1  0.25635979  0.73067676  0.91418897  1
  Se  Se2  1  0.75635979  0.23067676  0.58581103  1
  Se  Se3  1  0.75635979  0.76932324  0.41418897  1
  Se  Se4  1  0.25546965  0.26970674  0.41463317  1
  Se  Se5  1  0.25546965  0.73029326  0.58536683  1
  Se  Se6  1  0.75546965  0.23029326  0.91463317  1
  Se  Se7  1  0.75546965  0.76970674  0.08536683  1
  Se  Se8  1  0.85429384  0.10148491  0.24994639  1
  Se  Se9  1  0.85429384  0.89851509  0.75005361  1
  Se  Se10  1  0.35429384  0.39851509  0.74994639  1
  Se  Se11  1  0.35429384  0.60148491  0.25005361  1
  Se  Se12  1  0.81053414  0.43801223  0.24992324  1
  Se  Se13  1  0.81053414  0.56198777  0.75007676  1
  Se  Se14  1  0.31053414  0.06198777  0.74992324  1
  Se  Se15  1  0.31053414  0.93801223  0.25007676  1
loop_
_geom_bond_atom_site_label_1
_geom_bond_atom_site_label_2
_geom_bond_distance
_geom_bond_site_symmetry_2
Ba0 Se9 3.360895 1_445
Ba0 Se8 3.360895 1_455
Ba0 Se2 3.410266 1_455
Ba0 Se3 3.410266 1_445
Ba0 Se14 3.415677 1_555
Ba0 Se15 3.415677 1_545
Ba0 Se4 3.437328 1_555
Ba0 Se5 3.437328 1_545
Ba1 Se11 3.360895 1_555
Ba1 Se10 3.360895 1_554
Ba1 Se1 3.410266 1_554
Ba1 Se0 3.410266 1_555
Ba1 Se12 3.415677 1_555
Ba1 Se13 3.415677 1_554
Ba1 Se7 3.437328 1_555
Ba1 Se6 3.437328 1_554
Ba2 Se8 3.362108 1_455
Ba2 Se9 3.362108 1_444
Ba2 Se6 3.412500 1_454
Ba2 Se7 3.412500 1_445
Ba2 Se15 3.414314 1_545
Ba2 Se14 3.414314 1_554
Ba2 Se0 3.435235 1_555
Ba2 Se1 3.435235 1_544
Ba3 Se10 3.362108 1_555
Ba3 Se11 3.362108 1_555
Ba3 Se5 3.412500 1_555
Ba3 Se4 3.412500 1_555
Ba3 Se13 3.414314 1_555
Ba3 Se12 3.414314 1_555
Ba3 Se3 3.435235 1_555
Ba3 Se2 3.435235 1_555
Cd0 Se8 2.589815 1_555
Cd0 Se4 2.718805 1_555
Cd0 Se0 2.719149 1_555
Cd0 Se15 2.758066 1_545
Cd1 Se9 2.589815 1_555
Cd1 Se5 2.718805 1_555
Cd1 Se1 2.719149 1_555
Cd1 Se14 2.758066 1_565
Cd2 Se10 2.589815 1_655
Cd2 Se6 2.718805 1_555
Cd2 Se2 2.719149 1_555
Cd2 Se13 2.758066 1_555
Cd3 Se11 2.589815 1_655
Cd3 Se7 2.718805 1_555
Cd3 Se3 2.719149 1_555
Cd3 Se12 2.758066 1_555
Ge0 Se12 2.337440 1_455
Ge0 Se4 2.376291 1_555
Ge0 Se0 2.376378 1_555
Ge0 Se8 2.387266 1_455
Ge1 Se13 2.337440 1_455
Ge1 Se5 2.376291 1_555
Ge1 Se1 2.376378 1_555
Ge1 Se9 2.387266 1_455
Ge2 Se14 2.337440 1_555
Ge2 Se6 2.376291 1_555
Ge2 Se2 2.376378 1_555
Ge2 Se10 2.387266 1_555
Ge3 Se15 2.337440 1_555
Ge3 Se7 2.376291 1_555
Ge3 Se3 2.376378 1_555
Ge3 Se11 2.387266 1_555
