# generated using pymatgen
data_Cs2AsAuS4
_symmetry_space_group_name_H-M   'P 1'
_cell_length_a   7.23430104
_cell_length_b   7.06170997
_cell_length_c   10.26631952
_cell_angle_alpha   84.36473950
_cell_angle_beta   90.00000000
_cell_angle_gamma   90.00000000
_symmetry_Int_Tables_number   1
_chemical_formula_structural   Cs2AsAuS4
_chemical_formula_sum   'Cs4 As2 Au2 S8'
_cell_volume   521.93601528
_cell_formula_units_Z   2
loop_
 _symmetry_equiv_pos_site_id
 _symmetry_equiv_pos_as_xyz
  1  'x, y, z'
loop_
 _atom_site_type_symbol
 _atom_site_label
 _atom_site_symmetry_multiplicity
 _atom_site_fract_x
 _atom_site_fract_y
 _atom_site_fract_z
 _atom_site_occupancy
  Cs  Cs0  1  0.25000000  0.79314441  0.53159411  1
  Cs  Cs1  1  0.75000000  0.54546833  0.82720769  1
  Cs  Cs2  1  0.75000000  0.20685559  0.46840589  1
  Cs  Cs3  1  0.25000000  0.45453167  0.17279231  1
  As  As0  1  0.75000000  0.75220184  0.26890695  1
  As  As1  1  0.25000000  0.24779816  0.73109305  1
  Au  Au0  1  0.00000000  0.00000000  0.00000000  1
  Au  Au1  1  0.50000000  0.00000000  0.00000000  1
  S  S0  1  0.25000000  0.29571997  0.52176171  1
  S  S1  1  0.75000000  0.70428003  0.47823829  1
  S  S2  1  0.25000000  0.50060958  0.82858060  1
  S  S3  1  0.75000000  0.49939042  0.17141940  1
  S  S4  1  0.50351114  0.07672876  0.77755652  1
  S  S5  1  0.99648886  0.07672876  0.77755652  1
  S  S6  1  0.49648886  0.92327124  0.22244348  1
  S  S7  1  0.00351114  0.92327124  0.22244348  1
loop_
_geom_bond_atom_site_label_1
_geom_bond_atom_site_label_2
_geom_bond_distance
_geom_bond_site_symmetry_2
Cs0 S2 3.510938 1_555
Cs0 S0 3.524011 1_555
Cs0 S0 3.540556 1_565
Cs0 S6 3.677581 1_555
Cs0 S7 3.677581 1_555
Cs0 S1 3.720905 1_555
Cs0 S1 3.720905 1_455
Cs0 S4 3.839690 1_565
Cs0 S5 3.839690 1_465
Cs1 S3 3.516776 1_556
Cs1 S2 3.630902 1_655
Cs1 S2 3.630902 1_555
Cs1 S1 3.647451 1_555
Cs1 S5 3.837667 1_555
Cs1 S4 3.837667 1_555
Cs2 S3 3.510938 1_555
Cs2 S1 3.524011 1_555
Cs2 S1 3.540556 1_545
Cs2 S5 3.677581 1_555
Cs2 S4 3.677581 1_555
Cs2 S0 3.720905 1_655
Cs2 S0 3.720905 1_555
Cs2 S7 3.839690 1_645
Cs2 S6 3.839690 1_545
Cs3 S2 3.516776 1_554
Cs3 S3 3.630902 1_455
Cs3 S3 3.630902 1_555
Cs3 S0 3.647451 1_555
Cs3 S6 3.837667 1_555
Cs3 S7 3.837667 1_555
As0 S3 2.130683 1_555
As0 S1 2.142467 1_555
As0 S7 2.221982 1_655
As0 S6 2.221982 1_555
As1 S2 2.130683 1_555
As1 S0 2.142467 1_555
As1 S4 2.221982 1_555
As1 S5 2.221982 1_455
Au0 S7 2.294863 1_545
Au0 S5 2.294863 1_454
Au1 S6 2.294863 1_545
Au1 S4 2.294863 1_554
