# generated using pymatgen
data_Cs12In2SbAs5
_symmetry_space_group_name_H-M   'P 1'
_cell_length_a   6.40422605
_cell_length_b   10.71150974
_cell_length_c   12.51584129
_cell_angle_alpha   78.44041758
_cell_angle_beta   90.00000000
_cell_angle_gamma   90.00000000
_symmetry_Int_Tables_number   1
_chemical_formula_structural   Cs12In2SbAs5
_chemical_formula_sum   'Cs12 In2 Sb1 As5'
_cell_volume   841.15874588
_cell_formula_units_Z   1
loop_
 _symmetry_equiv_pos_site_id
 _symmetry_equiv_pos_as_xyz
  1  'x, y, z'
loop_
 _atom_site_type_symbol
 _atom_site_label
 _atom_site_symmetry_multiplicity
 _atom_site_fract_x
 _atom_site_fract_y
 _atom_site_fract_z
 _atom_site_occupancy
  Cs  Cs0  1  0.75000000  0.45903830  0.07313957  1
  Cs  Cs1  1  0.25000000  0.54072958  0.92299243  1
  Cs  Cs2  1  0.75000000  0.74814540  0.22357079  1
  Cs  Cs3  1  0.25000000  0.25876491  0.77403482  1
  Cs  Cs4  1  0.25000000  0.56173465  0.54149724  1
  Cs  Cs5  1  0.75000000  0.44159063  0.46201448  1
  Cs  Cs6  1  0.25000000  0.85941851  0.01705423  1
  Cs  Cs7  1  0.75000000  0.12831268  0.96765691  1
  Cs  Cs8  1  0.25000000  0.88441789  0.67800780  1
  Cs  Cs9  1  0.75000000  0.11613768  0.32696685  1
  Cs  Cs10  1  0.25000000  0.90781560  0.37193062  1
  Cs  Cs11  1  0.75000000  0.08680255  0.63367804  1
  In  In0  1  0.25000000  0.33371756  0.28761205  1
  In  In1  1  0.75000000  0.67254050  0.71995952  1
  Sb  Sb0  1  0.25000000  0.18433865  0.11987863  1
  As  As0  1  0.75000000  0.81075748  0.87441866  1
  As  As1  1  0.25000000  0.21259711  0.49034149  1
  As  As2  1  0.75000000  0.78910348  0.51398375  1
  As  As3  1  0.25000000  0.57920484  0.23133679  1
  As  As4  1  0.75000000  0.42483302  0.76992534  1
loop_
_geom_bond_atom_site_label_1
_geom_bond_atom_site_label_2
_geom_bond_distance
_geom_bond_site_symmetry_2
Cs0 Cs1 3.727150 1_554
Cs0 Cs1 3.727150 1_654
Cs0 Sb0 4.308583 1_555
Cs0 Sb0 4.308583 1_655
Cs1 Cs6 3.827465 1_556
Cs1 Cs3 3.854141 1_555
Cs1 Sb0 4.107963 1_556
Cs1 In1 4.155286 1_555
Cs1 In1 4.155286 1_455
Cs3 Sb0 4.241310 1_556
Cs6 Sb0 3.945169 1_565
Cs7 Sb0 3.834269 1_656
Cs7 Sb0 3.834269 1_556
Cs8 In1 3.899024 1_455
Cs8 In1 3.899024 1_555
Cs9 In0 3.932913 1_555
Cs9 In0 3.932913 1_655
Cs9 Sb0 4.092214 1_655
Cs9 Sb0 4.092214 1_555
Cs10 Sb0 3.870435 1_565
In0 Sb0 2.883337 1_555
As0 In1 2.660109 1_555
As0 Cs6 3.753011 1_556
As0 Cs6 3.753011 1_656
As0 Cs11 3.775054 1_565
As0 Cs7 3.810877 1_565
As0 Cs8 4.017675 1_555
As0 Cs8 4.017675 1_655
As0 Cs0 4.077284 1_556
As0 Cs1 4.276027 1_655
As0 Cs1 4.276027 1_555
As1 In0 2.608053 1_555
As1 Cs3 3.681775 1_555
As1 Cs11 3.784008 1_455
As1 Cs11 3.784008 1_555
As1 Cs8 3.816423 1_545
As1 Cs10 3.846230 1_545
As1 Cs4 3.918620 1_555
As1 Cs5 4.005902 1_455
As1 Cs5 4.005902 1_555
As1 Cs9 4.043376 1_555
As1 Cs9 4.043376 1_455
As2 In1 2.629601 1_555
As2 Cs2 3.747409 1_555
As2 Cs10 3.758375 1_655
As2 Cs10 3.758375 1_555
As2 Cs11 3.785134 1_565
As2 Cs9 3.803137 1_565
As2 Cs5 3.905072 1_555
As2 Cs4 3.995932 1_655
As2 Cs4 3.995932 1_555
As2 Cs8 4.043548 1_555
As2 Cs8 4.043548 1_655
As3 In0 2.582305 1_555
As3 Cs6 3.602171 1_555
As3 Cs2 3.669764 1_555
As3 Cs2 3.669764 1_455
As3 Cs4 3.848789 1_555
As3 Cs1 3.962400 1_554
As3 Cs0 4.105119 1_555
As3 Cs0 4.105119 1_455
As4 In1 2.601191 1_555
As4 Cs7 3.614198 1_555
As4 Cs3 3.658385 1_555
As4 Cs3 3.658385 1_655
As4 Cs5 3.821842 1_555
As4 Cs0 3.885020 1_556
As4 Cs1 4.051909 1_655
As4 Cs1 4.051909 1_555
