# generated using pymatgen
data_SnHgPt2O7
_symmetry_space_group_name_H-M   'P 1'
_cell_length_a   7.16491184
_cell_length_b   7.18701739
_cell_length_c   7.16491092
_cell_angle_alpha   59.89788465
_cell_angle_beta   58.36854072
_cell_angle_gamma   59.89789081
_symmetry_Int_Tables_number   1
_chemical_formula_structural   SnHgPt2O7
_chemical_formula_sum   'Sn2 Hg2 Pt4 O14'
_cell_volume   257.13251831
_cell_formula_units_Z   2
loop_
 _symmetry_equiv_pos_site_id
 _symmetry_equiv_pos_as_xyz
  1  'x, y, z'
loop_
 _atom_site_type_symbol
 _atom_site_label
 _atom_site_symmetry_multiplicity
 _atom_site_fract_x
 _atom_site_fract_y
 _atom_site_fract_z
 _atom_site_occupancy
  Sn  Sn0  1  0.12500000  0.12500000  0.12500000  1
  Sn  Sn1  1  0.12500000  0.62500000  0.12500000  1
  Hg  Hg0  1  0.62500000  0.12500000  0.12500000  1
  Hg  Hg1  1  0.12500000  0.12500000  0.62500000  1
  Pt  Pt0  1  0.62500000  0.62500000  0.12500000  1
  Pt  Pt1  1  0.62500000  0.62500000  0.62500000  1
  Pt  Pt2  1  0.62500000  0.12500000  0.62500000  1
  Pt  Pt3  1  0.12500000  0.62500000  0.62500000  1
  O  O0  1  0.73273379  0.28759517  0.28160055  1
  O  O1  1  0.71210871  0.28789129  0.71210871  1
  O  O2  1  0.03028125  0.96971875  0.03028125  1
  O  O3  1  0.28750173  0.71249827  0.28750173  1
  O  O4  1  0.73273379  0.69806949  0.28160055  1
  O  O5  1  0.96839945  0.55193051  0.51726621  1
  O  O6  1  0.28160055  0.69806949  0.73273379  1
  O  O7  1  0.21971875  0.28028125  0.21971875  1
  O  O8  1  0.96249827  0.53750173  0.96249827  1
  O  O9  1  0.53789129  0.96210871  0.53789129  1
  O  O10  1  0.51726621  0.55193051  0.96839945  1
  O  O11  1  0.96839945  0.96240483  0.51726621  1
  O  O12  1  0.51726621  0.96240483  0.96839945  1
  O  O13  1  0.28160055  0.28759517  0.73273379  1
loop_
_geom_bond_atom_site_label_1
_geom_bond_atom_site_label_2
_geom_bond_distance
_geom_bond_site_symmetry_2
Hg0 O2 2.362228 1_645
Hg0 O7 2.362228 1_555
Hg0 O1 2.415374 1_554
Hg0 O9 2.415374 1_545
Hg0 O0 2.519689 1_555
Hg0 O12 2.519689 1_544
Hg0 O10 2.519695 1_554
Hg0 O4 2.519695 1_545
Hg1 O2 2.362228 1_546
Hg1 O7 2.362228 1_555
Hg1 O1 2.415374 1_455
Hg1 O9 2.415374 1_545
Hg1 O13 2.519689 1_555
Hg1 O11 2.519689 1_445
Hg1 O5 2.519695 1_455
Hg1 O6 2.519695 1_545
O0 Pt0 2.009158 1_555
O0 Pt2 2.010908 1_555
O0 Sn0 2.288388 1_655
O1 Pt2 2.006000 1_555
O1 Pt1 2.006000 1_555
O2 Sn0 2.041847 1_565
O2 Sn1 2.041847 1_555
O3 Pt3 1.963268 1_555
O3 Pt0 1.963269 1_555
O3 Sn1 2.448976 1_555
O3 Sn0 2.448976 1_565
O4 Pt0 2.009153 1_555
O4 Pt1 2.010909 1_555
O4 Sn1 2.288389 1_655
O5 Pt3 2.009153 1_655
O5 Pt1 2.010909 1_555
O5 Sn1 2.288388 1_655
O6 Pt3 2.009153 1_555
O6 Pt1 2.010909 1_555
O6 Sn1 2.288388 1_556
O7 Sn0 2.041847 1_555
O7 Sn1 2.041847 1_555
O8 Pt3 1.963268 1_655
O8 Pt0 1.963269 1_556
O8 Sn1 2.448976 1_656
O8 Sn0 2.448976 1_656
O9 Pt2 2.006000 1_565
O9 Pt1 2.006000 1_555
O10 Pt0 2.009153 1_556
O10 Pt1 2.010909 1_555
O10 Sn1 2.288389 1_556
O11 Pt3 2.009158 1_655
O11 Pt2 2.010908 1_565
O11 Sn0 2.288387 1_665
O12 Pt0 2.009158 1_556
O12 Pt2 2.010908 1_565
O12 Sn0 2.288388 1_566
O13 Pt3 2.009158 1_555
O13 Pt2 2.010908 1_555
O13 Sn0 2.288387 1_556
