# generated using pymatgen
data_TbBPd3
_symmetry_space_group_name_H-M   'P 1'
_cell_length_a   4.32770800
_cell_length_b   4.32770800
_cell_length_c   4.32770800
_cell_angle_alpha   90.00000000
_cell_angle_beta   90.00000000
_cell_angle_gamma   90.00000000
_symmetry_Int_Tables_number   1
_chemical_formula_structural   TbBPd3
_chemical_formula_sum   'Tb1 B1 Pd3'
_cell_volume   81.05388779
_cell_formula_units_Z   1
loop_
 _symmetry_equiv_pos_site_id
 _symmetry_equiv_pos_as_xyz
  1  'x, y, z'
loop_
 _atom_site_type_symbol
 _atom_site_label
 _atom_site_symmetry_multiplicity
 _atom_site_fract_x
 _atom_site_fract_y
 _atom_site_fract_z
 _atom_site_occupancy
  Tb  Tb0  1  0.00000000  0.00000000  0.00000000  1
  B  B0  1  0.50000000  0.50000000  0.50000000  1
  Pd  Pd0  1  0.00000000  0.50000000  0.50000000  1
  Pd  Pd1  1  0.50000000  0.50000000  0.00000000  1
  Pd  Pd2  1  0.50000000  0.00000000  0.50000000  1
loop_
_geom_bond_atom_site_label_1
_geom_bond_atom_site_label_2
_geom_bond_distance
_geom_bond_site_symmetry_2
B0 Pd2 2.163854 1_565
B0 Pd0 2.163854 1_555
B0 Pd0 2.163854 1_655
B0 Pd1 2.163854 1_556
B0 Pd1 2.163854 1_555
B0 Pd2 2.163854 1_555
Pd0 Tb0 3.060152 1_565
Pd0 Tb0 3.060152 1_566
Pd0 Tb0 3.060152 1_555
Pd0 Tb0 3.060152 1_556
Pd1 Tb0 3.060152 1_565
Pd1 Tb0 3.060152 1_665
Pd1 Tb0 3.060152 1_655
Pd1 Tb0 3.060152 1_555
Pd2 Tb0 3.060152 1_656
Pd2 Tb0 3.060152 1_655
Pd2 Tb0 3.060152 1_555
Pd2 Tb0 3.060152 1_556
