# generated using pymatgen
data_K4Ba2HfP4
_symmetry_space_group_name_H-M   'P 1'
_cell_length_a   10.34213321
_cell_length_b   10.34213344
_cell_length_c   7.96649725
_cell_angle_alpha   89.05694119
_cell_angle_beta   89.05694060
_cell_angle_gamma   120.07596159
_symmetry_Int_Tables_number   1
_chemical_formula_structural   K4Ba2HfP4
_chemical_formula_sum   'K8 Ba4 Hf2 P8'
_cell_volume   736.96932169
_cell_formula_units_Z   2
loop_
 _symmetry_equiv_pos_site_id
 _symmetry_equiv_pos_as_xyz
  1  'x, y, z'
loop_
 _atom_site_type_symbol
 _atom_site_label
 _atom_site_symmetry_multiplicity
 _atom_site_fract_x
 _atom_site_fract_y
 _atom_site_fract_z
 _atom_site_occupancy
  K  K0  1  0.05895064  0.52800611  0.61600858  1
  K  K1  1  0.52800611  0.05895064  0.11600858  1
  K  K2  1  0.27589155  0.13323186  0.81478960  1
  K  K3  1  0.87160022  0.72828272  0.76905478  1
  K  K4  1  0.86232330  0.14416119  0.79213755  1
  K  K5  1  0.72828272  0.87160022  0.26905478  1
  K  K6  1  0.13323186  0.27589155  0.31478960  1
  K  K7  1  0.14416119  0.86232330  0.29213755  1
  Ba  Ba0  1  0.46509255  0.93601981  0.60777682  1
  Ba  Ba1  1  0.46397023  0.52519583  0.61699042  1
  Ba  Ba2  1  0.93601981  0.46509255  0.10777682  1
  Ba  Ba3  1  0.52519583  0.46397023  0.11699042  1
  Hf  Hf0  1  0.66869003  0.33625994  0.51076961  1
  Hf  Hf1  1  0.33625994  0.66869003  0.01076961  1
  P  P0  1  0.66859560  0.34677906  0.82759828  1
  P  P1  1  0.34677906  0.66859560  0.32759828  1
  P  P2  1  0.59746536  0.79301446  0.88607359  1
  P  P3  1  0.20324093  0.39923044  0.92108474  1
  P  P4  1  0.19935498  0.79464120  0.90646403  1
  P  P5  1  0.39923044  0.20324093  0.42108474  1
  P  P6  1  0.79301446  0.59746536  0.38607359  1
  P  P7  1  0.79464120  0.19935498  0.40646403  1
loop_
_geom_bond_atom_site_label_1
_geom_bond_atom_site_label_2
_geom_bond_distance
_geom_bond_site_symmetry_2
K0 P4 3.372563 1_555
K0 P1 3.403090 1_555
K0 P3 3.451407 1_555
K0 P7 3.582772 1_455
K0 P6 3.679489 1_455
K1 P7 3.372563 1_555
K1 P0 3.403090 1_554
K1 P5 3.451407 1_555
K1 P4 3.582772 1_544
K1 P2 3.679489 1_544
K2 P4 3.246658 1_545
K2 P5 3.294924 1_555
K2 P3 3.313164 1_555
K2 P0 3.523311 1_555
K3 P6 3.303798 1_555
K3 P4 3.312775 1_655
K3 P2 3.345321 1_555
K3 P0 3.434727 1_555
K4 P7 3.266405 1_555
K4 P2 3.335314 1_545
K4 P3 3.366242 1_655
K4 P0 3.562881 1_555
K5 P2 3.303798 1_554
K5 P7 3.312776 1_565
K5 P6 3.345321 1_555
K5 P1 3.434727 1_555
K6 P7 3.246658 1_455
K6 P3 3.294924 1_554
K6 P5 3.313163 1_555
K6 P1 3.523311 1_555
K7 P4 3.266405 1_554
K7 P6 3.335314 1_455
K7 P5 3.366242 1_565
K7 P1 3.562881 1_555
Ba0 P4 3.315953 1_555
Ba0 P2 3.316365 1_555
Ba0 P1 3.321098 1_555
Ba0 P7 3.460942 1_565
Ba0 P5 3.478290 1_565
Ba1 P2 3.260868 1_555
Ba1 P1 3.280933 1_555
Ba1 P3 3.316208 1_555
Ba1 P5 3.455702 1_555
Ba1 P6 3.566881 1_555
Ba2 P7 3.315953 1_555
Ba2 P6 3.316365 1_555
Ba2 P0 3.321098 1_554
Ba2 P4 3.460942 1_654
Ba2 P3 3.478289 1_654
Ba3 P6 3.260868 1_555
Ba3 P0 3.280933 1_554
Ba3 P5 3.316209 1_555
Ba3 P3 3.455702 1_554
Ba3 P2 3.566882 1_554
Hf0 P7 2.498734 1_555
Hf0 P6 2.515143 1_555
Hf0 P0 2.528152 1_555
Hf0 P5 2.534663 1_555
Hf1 P4 2.498734 1_554
Hf1 P2 2.515143 1_554
Hf1 P1 2.528152 1_555
Hf1 P3 2.534663 1_554
