# generated using pymatgen
data_Y8Ta(IO8)3
_symmetry_space_group_name_H-M   'P 1'
_cell_length_a   5.44129341
_cell_length_b   7.63687303
_cell_length_c   11.58933201
_cell_angle_alpha   75.83693980
_cell_angle_beta   90.20003867
_cell_angle_gamma   90.33385624
_symmetry_Int_Tables_number   1
_chemical_formula_structural   Y8Ta(IO8)3
_chemical_formula_sum   'Y8 Ta1 I3 O24'
_cell_volume   466.94082629
_cell_formula_units_Z   1
loop_
 _symmetry_equiv_pos_site_id
 _symmetry_equiv_pos_as_xyz
  1  'x, y, z'
loop_
 _atom_site_type_symbol
 _atom_site_label
 _atom_site_symmetry_multiplicity
 _atom_site_fract_x
 _atom_site_fract_y
 _atom_site_fract_z
 _atom_site_occupancy
  Y  Y0  1  0.18233593  0.80663115  0.06855110  1
  Y  Y1  1  0.25984864  0.97873917  0.75149609  1
  Y  Y2  1  0.74361194  0.02315910  0.25219382  1
  Y  Y3  1  0.31596695  0.50520544  0.75528490  1
  Y  Y4  1  0.18878327  0.22366841  0.41746199  1
  Y  Y5  1  0.69311298  0.49996955  0.24594233  1
  Y  Y6  1  0.81561750  0.19477810  0.92544556  1
  Y  Y7  1  0.80309799  0.77524248  0.58576779  1
  Ta  Ta0  1  0.74841303  0.71503754  0.88940937  1
  I  I0  1  0.25530132  0.73510474  0.38234255  1
  I  I1  1  0.74704195  0.26591477  0.62010159  1
  I  I2  1  0.26007836  0.29509171  0.10467740  1
  O  O0  1  0.86606632  0.36965281  0.47157366  1
  O  O1  1  0.47533513  0.85274337  0.92821642  1
  O  O2  1  0.86712074  0.62898536  0.05224067  1
  O  O3  1  0.01960999  0.29342255  0.71853343  1
  O  O4  1  0.93619120  0.27936848  0.26423060  1
  O  O5  1  0.16612975  0.35266131  0.93635191  1
  O  O6  1  0.64474388  0.47839838  0.88307658  1
  O  O7  1  0.52545330  0.16475646  0.06902014  1
  O  O8  1  0.14857913  0.64314726  0.53788474  1
  O  O9  1  0.01779498  0.70786552  0.76388746  1
  O  O10  1  0.45036258  0.23070305  0.27055891  1
  O  O11  1  0.07350206  0.94403719  0.39259933  1
  O  O12  1  0.47072250  0.16404390  0.56437500  1
  O  O13  1  0.97966860  0.69987793  0.28873896  1
  O  O14  1  0.93087773  0.05486766  0.60719161  1
  O  O15  1  0.57523342  0.17988950  0.76662721  1
  O  O16  1  0.53071226  0.77684446  0.72519691  1
  O  O17  1  0.98652940  0.04041365  0.10059868  1
  O  O18  1  0.62167433  0.49031569  0.62227944  1
  O  O19  1  0.39027650  0.52380434  0.09958839  1
  O  O20  1  0.41829472  0.82111920  0.23226508  1
  O  O21  1  0.38002290  0.51076016  0.38071153  1
  O  O22  1  0.53755995  0.83782114  0.43390007  1
  O  O23  1  0.97433177  0.93595945  0.89167676  1
loop_
_geom_bond_atom_site_label_1
_geom_bond_atom_site_label_2
_geom_bond_distance
_geom_bond_site_symmetry_2
I0 O21 1.850884 1_555
I0 O8 1.860895 1_555
I0 O22 1.881522 1_555
I0 O13 1.904027 1_455
I0 O11 1.910663 1_555
I0 O20 1.920445 1_555
I1 O0 1.828810 1_555
I1 O18 1.854113 1_555
I1 O12 1.873080 1_555
I1 O3 1.909697 1_655
I1 O15 1.909767 1_555
I1 O14 1.938696 1_555
I2 O7 1.862469 1_555
I2 O19 1.868587 1_555
I2 O5 1.958599 1_554
I2 O10 2.130515 1_555
I2 O17 2.451799 1_455
I2 O4 2.539923 1_455
O0 Y4 2.256628 1_655
O0 Y5 2.726554 1_555
O1 Ta0 1.941764 1_555
O1 Y0 2.245485 1_556
O1 Y1 2.351013 1_555
O2 Ta0 1.949310 1_554
O2 Y0 2.216800 1_655
O2 Y5 2.414185 1_555
O3 Y3 2.387373 1_555
O3 Y6 2.583538 1_455
O3 Y1 2.685879 1_545
O4 Y5 2.117037 1_555
O4 Y4 2.200850 1_655
O4 Y2 2.248245 1_555
O5 Y6 2.270117 1_455
O5 Y3 2.286899 1_555
O6 Ta0 1.908465 1_555
O6 Y3 2.296333 1_555
O6 Y6 2.301486 1_555
O7 Y6 2.267488 1_554
O7 Y2 2.441104 1_555
O8 Y7 2.272189 1_455
O8 Y3 2.642651 1_555
O9 Ta0 2.079072 1_455
O9 Y3 2.267928 1_555
O9 Y7 2.315422 1_455
O9 Y1 2.420485 1_555
O10 Y4 2.213269 1_555
O10 Y2 2.302288 1_555
O10 Y5 2.395534 1_555
O11 Y4 2.306761 1_565
O11 Y2 2.397108 1_465
O11 Y7 2.725248 1_455
O12 Y4 2.251728 1_555
O12 Y1 2.553181 1_545
O13 Y5 2.312002 1_555
O13 Y0 2.717295 1_655
O13 Y2 2.728720 1_565
O14 Y7 2.312191 1_545
O14 Y1 2.419611 1_645
O14 Y4 2.660714 1_655
O15 Y6 2.279357 1_555
O15 Y1 2.331210 1_545
O15 Y3 2.838916 1_555
O16 Ta0 2.190669 1_555
O16 Y7 2.198766 1_555
O16 Y1 2.214046 1_555
O16 Y3 2.326157 1_555
O17 Y2 2.179914 1_555
O17 Y0 2.193189 1_645
O17 Y6 2.281153 1_554
O18 Y3 2.293885 1_555
O18 Y7 2.327152 1_555
O19 Y5 2.336290 1_555
O19 Y0 2.391707 1_555
O20 Y0 2.311849 1_555
O20 Y2 2.388969 1_565
O20 Y5 2.850830 1_555
O21 Y5 2.330618 1_555
O21 Y4 2.364476 1_555
O22 Y7 2.234384 1_555
O22 Y2 2.496884 1_565
O23 Ta0 2.087014 1_555
O23 Y1 2.216224 1_655
O23 Y6 2.281796 1_565
O23 Y0 2.337618 1_656
