# generated using pymatgen
data_Zr10Be2InPb5
_symmetry_space_group_name_H-M   'P 1'
_cell_length_a   8.73404043
_cell_length_b   8.73404121
_cell_length_c   5.85186461
_cell_angle_alpha   90.00000000
_cell_angle_beta   90.00000000
_cell_angle_gamma   120.11577148
_symmetry_Int_Tables_number   1
_chemical_formula_structural   Zr10Be2InPb5
_chemical_formula_sum   'Zr10 Be2 In1 Pb5'
_cell_volume   386.14241579
_cell_formula_units_Z   1
loop_
 _symmetry_equiv_pos_site_id
 _symmetry_equiv_pos_as_xyz
  1  'x, y, z'
loop_
 _atom_site_type_symbol
 _atom_site_label
 _atom_site_symmetry_multiplicity
 _atom_site_fract_x
 _atom_site_fract_y
 _atom_site_fract_z
 _atom_site_occupancy
  Zr  Zr0  1  0.66563203  0.33332541  0.49836532  1
  Zr  Zr1  1  0.33332541  0.66563203  0.49836532  1
  Zr  Zr2  1  0.33332541  0.66563203  0.00163468  1
  Zr  Zr3  1  0.66563203  0.33332541  0.00163468  1
  Zr  Zr4  1  0.74999342  0.74999342  0.25000000  1
  Zr  Zr5  1  0.25103151  0.00351074  0.25000000  1
  Zr  Zr6  1  0.00351074  0.25103151  0.25000000  1
  Zr  Zr7  1  0.24183813  0.24183813  0.75000000  1
  Zr  Zr8  1  0.75766799  0.99879180  0.75000000  1
  Zr  Zr9  1  0.99879180  0.75766799  0.75000000  1
  Be  Be0  1  0.00038641  0.00038641  0.48593650  1
  Be  Be1  1  0.00038641  0.00038641  0.01406350  1
  In  In0  1  0.38881581  0.38881581  0.25000000  1
  Pb  Pb0  1  0.61377153  0.00052989  0.25000000  1
  Pb  Pb1  1  0.00052989  0.61377153  0.25000000  1
  Pb  Pb2  1  0.60631030  0.60631030  0.75000000  1
  Pb  Pb3  1  0.38983053  0.99922063  0.75000000  1
  Pb  Pb4  1  0.99922063  0.38983053  0.75000000  1
loop_
_geom_bond_atom_site_label_1
_geom_bond_atom_site_label_2
_geom_bond_distance
_geom_bond_site_symmetry_2
Zr0 Zr3 2.906800 1_555
Zr0 Zr3 2.945064 1_556
Zr1 Zr2 2.906800 1_555
Zr1 Zr2 2.945064 1_556
Be0 Zr5 2.576703 1_555
Be0 Zr6 2.576703 1_555
Be0 Zr4 2.583067 1_445
Be0 Zr7 2.611423 1_555
Be0 Zr8 2.617716 1_445
Be0 Zr9 2.617716 1_445
Be1 Zr5 2.576703 1_555
Be1 Zr6 2.576703 1_555
Be1 Zr4 2.583067 1_445
Be1 Zr7 2.611423 1_554
Be1 Zr8 2.617716 1_444
Be1 Zr9 2.617716 1_444
In0 Zr6 2.951147 1_555
In0 Zr5 2.951147 1_555
In0 Zr0 3.060803 1_555
In0 Zr3 3.060803 1_555
In0 Zr1 3.060803 1_555
In0 Zr2 3.060803 1_555
In0 Zr4 3.149018 1_555
In0 Zr7 3.194249 1_555
In0 Zr7 3.194249 1_554
Pb0 Zr4 2.969225 1_545
Pb0 Zr6 2.983361 1_655
Pb0 Zr0 3.073268 1_555
Pb0 Zr3 3.073268 1_555
Pb0 Zr1 3.078652 1_545
Pb0 Zr2 3.078652 1_545
Pb0 Zr5 3.181329 1_555
Pb0 Zr8 3.187475 1_544
Pb0 Zr8 3.187475 1_545
Pb1 Zr4 2.969225 1_455
Pb1 Zr5 2.983361 1_565
Pb1 Zr1 3.073267 1_555
Pb1 Zr2 3.073267 1_555
Pb1 Zr0 3.078652 1_455
Pb1 Zr3 3.078652 1_455
Pb1 Zr6 3.181329 1_555
Pb1 Zr9 3.187475 1_454
Pb1 Zr9 3.187475 1_455
Pb2 Zr9 2.991814 1_555
Pb2 Zr8 2.991814 1_555
Pb2 Zr2 3.059599 1_556
Pb2 Zr1 3.059599 1_555
Pb2 Zr3 3.059600 1_556
Pb2 Zr0 3.059600 1_555
Pb2 Zr7 3.177743 1_555
Pb2 Zr4 3.182834 1_555
Pb2 Zr4 3.182834 1_556
Pb3 Zr9 2.980755 1_455
Pb3 Zr7 2.984898 1_565
Pb3 Zr3 3.071211 1_566
Pb3 Zr0 3.071211 1_565
Pb3 Zr2 3.075371 1_556
Pb3 Zr1 3.075371 1_555
Pb3 Zr5 3.174536 1_565
Pb3 Zr5 3.174536 1_566
Pb3 Zr8 3.214588 1_555
Pb4 Zr8 2.980755 1_545
Pb4 Zr7 2.984898 1_655
Pb4 Zr2 3.071211 1_656
Pb4 Zr1 3.071211 1_655
Pb4 Zr3 3.075371 1_556
Pb4 Zr0 3.075371 1_555
Pb4 Zr6 3.174536 1_655
Pb4 Zr6 3.174536 1_656
Pb4 Zr9 3.214588 1_555
