# generated using pymatgen
data_Ti3BeN
_symmetry_space_group_name_H-M   'P 1'
_cell_length_a   5.34623690
_cell_length_b   5.34623723
_cell_length_c   8.04231789
_cell_angle_alpha   90.00000000
_cell_angle_beta   90.00000000
_cell_angle_gamma   146.84992527
_symmetry_Int_Tables_number   1
_chemical_formula_structural   Ti3BeN
_chemical_formula_sum   'Ti6 Be2 N2'
_cell_volume   125.69936534
_cell_formula_units_Z   2
loop_
 _symmetry_equiv_pos_site_id
 _symmetry_equiv_pos_as_xyz
  1  'x, y, z'
loop_
 _atom_site_type_symbol
 _atom_site_label
 _atom_site_symmetry_multiplicity
 _atom_site_fract_x
 _atom_site_fract_y
 _atom_site_fract_z
 _atom_site_occupancy
  Ti  Ti0  1  0.63098532  0.36901468  0.54966892  1
  Ti  Ti1  1  0.36901468  0.63098532  0.04966892  1
  Ti  Ti2  1  0.36901468  0.63098532  0.45033108  1
  Ti  Ti3  1  0.63098532  0.36901468  0.95033108  1
  Ti  Ti4  1  0.94615235  0.05384765  0.75000000  1
  Ti  Ti5  1  0.05384765  0.94615235  0.25000000  1
  Be  Be0  1  0.25370978  0.74629022  0.75000000  1
  Be  Be1  1  0.74629022  0.25370978  0.25000000  1
  N  N0  1  0.00000000  0.00000000  0.50000000  1
  N  N1  1  0.00000000  0.00000000  0.00000000  1
loop_
_geom_bond_atom_site_label_1
_geom_bond_atom_site_label_2
_geom_bond_distance
_geom_bond_site_symmetry_2
Be0 Ti4 2.493094 1_565
Be0 Ti4 2.493094 1_455
Be0 Ti3 2.550205 1_455
Be0 Ti0 2.550205 1_455
Be0 Ti3 2.550205 1_565
Be0 Ti0 2.550205 1_565
Be0 Ti1 2.684136 1_556
Be0 Ti2 2.684136 1_555
Be1 Ti5 2.493094 1_545
Be1 Ti5 2.493094 1_655
Be1 Ti2 2.550205 1_655
Be1 Ti1 2.550205 1_655
Be1 Ti2 2.550205 1_545
Be1 Ti1 2.550205 1_545
Be1 Ti0 2.684136 1_555
Be1 Ti3 2.684136 1_554
N0 Ti0 2.070628 1_555
N0 Ti2 2.070628 1_445
N0 Ti2 2.070628 1_555
N0 Ti0 2.070628 1_445
N0 Ti5 2.084936 1_545
N0 Ti4 2.084936 1_455
N1 Ti3 2.070628 1_554
N1 Ti1 2.070628 1_445
N1 Ti1 2.070628 1_555
N1 Ti3 2.070628 1_444
N1 Ti5 2.084936 1_545
N1 Ti4 2.084936 1_454
