# generated using pymatgen
data_Hf6As2CN
_symmetry_space_group_name_H-M   'P 1'
_cell_length_a   5.79153579
_cell_length_b   5.79153646
_cell_length_c   8.51698126
_cell_angle_alpha   90.73210280
_cell_angle_beta   89.26789656
_cell_angle_gamma   145.54723793
_symmetry_Int_Tables_number   1
_chemical_formula_structural   Hf6As2CN
_chemical_formula_sum   'Hf6 As2 C1 N1'
_cell_volume   161.59985191
_cell_formula_units_Z   1
loop_
 _symmetry_equiv_pos_site_id
 _symmetry_equiv_pos_as_xyz
  1  'x, y, z'
loop_
 _atom_site_type_symbol
 _atom_site_label
 _atom_site_symmetry_multiplicity
 _atom_site_fract_x
 _atom_site_fract_y
 _atom_site_fract_z
 _atom_site_occupancy
  Hf  Hf0  1  0.36780289  0.63219911  0.05395924  1
  Hf  Hf1  1  0.05805228  0.94194972  0.24636629  1
  Hf  Hf2  1  0.36976360  0.63023840  0.44268681  1
  Hf  Hf3  1  0.63023840  0.36976360  0.55731319  1
  Hf  Hf4  1  0.94194972  0.05805228  0.75363471  1
  Hf  Hf5  1  0.63219911  0.36780289  0.94604176  1
  As  As0  1  0.74477494  0.25522706  0.24981939  1
  As  As1  1  0.25522706  0.74477494  0.75018161  1
  C  C0  1  0.00000000  0.00000000  0.50000000  1
  N  N0  1  0.00000000  0.00000000  0.00000000  1
loop_
_geom_bond_atom_site_label_1
_geom_bond_atom_site_label_2
_geom_bond_distance
_geom_bond_site_symmetry_2
Hf0 N0 2.296533 1_665
Hf0 N0 2.296539 1_555
Hf1 N0 2.202587 1_565
Hf4 N0 2.202579 1_656
Hf5 N0 2.296532 1_666
Hf5 N0 2.296537 1_556
As0 Hf1 2.685474 1_545
As0 Hf1 2.685475 1_655
As0 Hf0 2.741590 1_655
As0 Hf0 2.741591 1_545
As0 Hf2 2.759161 1_655
As0 Hf2 2.759161 1_545
As0 Hf5 2.886415 1_554
As0 Hf3 2.894076 1_555
As1 Hf4 2.685474 1_565
As1 Hf4 2.685475 1_455
As1 Hf5 2.741590 1_455
As1 Hf5 2.741591 1_565
As1 Hf3 2.759166 1_455
As1 Hf3 2.759167 1_565
As1 Hf0 2.886415 1_556
As1 Hf2 2.894083 1_555
C0 Hf1 2.245396 1_545
C0 Hf4 2.245404 1_455
C0 Hf2 2.296727 1_445
C0 Hf3 2.296728 1_445
C0 Hf3 2.296732 1_555
C0 Hf2 2.296733 1_555
