# generated using pymatgen
data_Cs12CaHgSe8
_symmetry_space_group_name_H-M   'P 1'
_cell_length_a   11.31482686
_cell_length_b   11.31482734
_cell_length_c   8.72838651
_cell_angle_alpha   90.00000000
_cell_angle_beta   90.00000000
_cell_angle_gamma   119.99999860
_symmetry_Int_Tables_number   1
_chemical_formula_structural   Cs12CaHgSe8
_chemical_formula_sum   'Cs12 Ca1 Hg1 Se8'
_cell_volume   967.74391864
_cell_formula_units_Z   1
loop_
 _symmetry_equiv_pos_site_id
 _symmetry_equiv_pos_as_xyz
  1  'x, y, z'
loop_
 _atom_site_type_symbol
 _atom_site_label
 _atom_site_symmetry_multiplicity
 _atom_site_fract_x
 _atom_site_fract_y
 _atom_site_fract_z
 _atom_site_occupancy
  Cs  Cs0  1  0.14690880  0.29381760  0.20065793  1
  Cs  Cs1  1  0.14690880  0.85309120  0.20065793  1
  Cs  Cs2  1  0.70618240  0.85309120  0.20065793  1
  Cs  Cs3  1  0.85209562  0.70419123  0.70401106  1
  Cs  Cs4  1  0.85209562  0.14790438  0.70401106  1
  Cs  Cs5  1  0.29580877  0.14790438  0.70401106  1
  Cs  Cs6  1  0.53264534  0.06528969  0.38070724  1
  Cs  Cs7  1  0.53264534  0.46735466  0.38070724  1
  Cs  Cs8  1  0.93471031  0.46735466  0.38070724  1
  Cs  Cs9  1  0.47517826  0.95035652  0.88548697  1
  Cs  Cs10  1  0.47517826  0.52482174  0.88548697  1
  Cs  Cs11  1  0.04964348  0.52482174  0.88548697  1
  Ca  Ca0  1  0.33333300  0.66666700  0.49884675  1
  Hg  Hg0  1  0.66666700  0.33333300  0.99986601  1
  Se  Se0  1  0.33333300  0.66666700  0.17151789  1
  Se  Se1  1  0.66666700  0.33333300  0.68014476  1
  Se  Se2  1  0.80162087  0.60323973  0.09583876  1
  Se  Se3  1  0.80162087  0.19837913  0.09583876  1
  Se  Se4  1  0.39676027  0.19837913  0.09583876  1
  Se  Se5  1  0.19424399  0.38848898  0.59645091  1
  Se  Se6  1  0.19424399  0.80575601  0.59645091  1
  Se  Se7  1  0.61151102  0.80575601  0.59645091  1
loop_
_geom_bond_atom_site_label_1
_geom_bond_atom_site_label_2
_geom_bond_distance
_geom_bond_site_symmetry_2
Cs0 Se5 3.577022 1_555
Cs0 Se3 3.612189 1_455
Cs0 Se4 3.612210 1_555
Cs0 Se0 3.662367 1_555
Cs1 Se6 3.577019 1_555
Cs1 Se2 3.612194 1_455
Cs1 Se4 3.612195 1_565
Cs1 Se0 3.662357 1_555
Cs2 Se7 3.577022 1_555
Cs2 Se3 3.612189 1_565
Cs2 Se2 3.612210 1_555
Cs2 Se0 3.662367 1_555
Cs3 Se2 3.560212 1_556
Cs3 Se6 3.569379 1_655
Cs3 Se7 3.569390 1_555
Cs3 Se1 3.639979 1_555
Cs4 Se3 3.560207 1_556
Cs4 Se5 3.569382 1_655
Cs4 Se7 3.569382 1_545
Cs4 Se1 3.639969 1_555
Cs5 Se4 3.560212 1_556
Cs5 Se6 3.569379 1_545
Cs5 Se5 3.569390 1_555
Cs5 Se1 3.639979 1_555
Cs6 Se4 3.623446 1_555
Cs6 Se3 3.623453 1_555
Cs6 Se1 3.705352 1_555
Cs6 Se7 3.947948 1_545
Cs6 Se6 3.947961 1_545
Cs7 Se2 3.623453 1_555
Cs7 Se4 3.623453 1_555
Cs7 Se1 3.705352 1_555
Cs7 Se5 3.947967 1_555
Cs7 Se7 3.947967 1_555
Cs8 Se2 3.623446 1_555
Cs8 Se3 3.623453 1_555
Cs8 Se1 3.705352 1_555
Cs8 Se5 3.947947 1_655
Cs8 Se6 3.947961 1_655
Cs9 Se7 3.734294 1_555
Cs9 Se6 3.734302 1_555
Cs9 Se0 3.736380 1_556
Cs9 Se4 3.811012 1_566
Cs9 Se3 3.811026 1_566
Cs9 Hg0 3.883284 1_565
Cs9 Se1 4.158793 1_565
Cs10 Se5 3.734302 1_555
Cs10 Se7 3.734302 1_555
Cs10 Se0 3.736388 1_556
Cs10 Se2 3.811031 1_556
Cs10 Se4 3.811032 1_556
Cs10 Hg0 3.883293 1_555
Cs10 Se1 4.158802 1_555
Cs11 Se5 3.734294 1_555
Cs11 Se6 3.734302 1_555
Cs11 Se0 3.736380 1_556
Cs11 Se2 3.811012 1_456
Cs11 Se3 3.811026 1_456
Cs11 Hg0 3.883283 1_455
Cs11 Se1 4.158793 1_455
Ca0 Se7 2.855874 1_555
Ca0 Se6 2.855874 1_555
Ca0 Se5 2.855874 1_555
Ca0 Se0 2.857053 1_555
Hg0 Se4 2.774287 1_556
Hg0 Se2 2.774287 1_556
Hg0 Se3 2.774296 1_556
Hg0 Se1 2.790651 1_555
