# generated using pymatgen
data_TaPt5Rh3
_symmetry_space_group_name_H-M   'P 1'
_cell_length_a   6.21910033
_cell_length_b   6.21910017
_cell_length_c   6.17280280
_cell_angle_alpha   95.64742421
_cell_angle_beta   95.64742069
_cell_angle_gamma   143.57665208
_symmetry_Int_Tables_number   1
_chemical_formula_structural   TaPt5Rh3
_chemical_formula_sum   'Ta1 Pt5 Rh3'
_cell_volume   134.54462594
_cell_formula_units_Z   1
loop_
 _symmetry_equiv_pos_site_id
 _symmetry_equiv_pos_as_xyz
  1  'x, y, z'
loop_
 _atom_site_type_symbol
 _atom_site_label
 _atom_site_symmetry_multiplicity
 _atom_site_fract_x
 _atom_site_fract_y
 _atom_site_fract_z
 _atom_site_occupancy
  Ta  Ta0  1  0.00221198  0.99778802  1.00000000  1
  Pt  Pt0  1  0.33746692  0.66253308  1.00000000  1
  Pt  Pt1  1  0.00223920  0.32920911  0.33144730  1
  Pt  Pt2  1  0.99821411  0.67278892  0.67100304  1
  Pt  Pt3  1  0.67079089  0.99776080  0.66855270  1
  Pt  Pt4  1  0.32721108  0.00178589  0.32899696  1
  Rh  Rh0  1  0.33921293  0.33735013  0.67656306  1
  Rh  Rh1  1  0.66264987  0.66078707  0.32343694  1
  Rh  Rh2  1  0.66000202  0.33999798  0.00000000  1
loop_
_geom_bond_atom_site_label_1
_geom_bond_atom_site_label_2
_geom_bond_distance
_geom_bond_site_symmetry_2
Pt0 Rh0 2.705736 1_555
Pt0 Rh1 2.705736 1_556
Pt0 Pt1 2.747510 1_556
Pt0 Pt3 2.747510 1_555
Pt0 Pt1 2.747513 1_666
Pt0 Pt3 2.747513 1_445
Pt0 Ta0 2.750741 1_545
Pt0 Ta0 2.750741 1_655
Pt0 Pt4 2.824636 1_566
Pt0 Pt2 2.824637 1_455
Pt0 Rh2 2.859060 1_566
Pt0 Rh2 2.859060 1_456
Pt1 Rh1 2.748393 1_555
Pt1 Rh1 2.748396 1_445
Pt1 Ta0 2.757473 1_544
Pt1 Pt3 2.771015 1_555
Pt1 Pt3 2.771020 1_445
Pt1 Rh0 2.803939 1_555
Pt1 Pt4 2.827513 1_565
Pt1 Pt4 2.827516 1_455
Pt1 Rh2 2.849625 1_455
Pt1 Pt2 2.859119 1_455
Pt2 Ta0 2.703976 1_655
Pt2 Rh0 2.726268 1_665
Pt2 Rh0 2.726268 1_555
Pt2 Rh2 2.737548 1_556
Pt2 Rh2 2.737548 1_666
Pt2 Pt4 2.791555 1_665
Pt2 Pt4 2.791555 1_555
Pt2 Rh1 2.792909 1_555
Pt2 Pt3 2.827513 1_655
Pt2 Pt3 2.827515 1_545
Pt3 Rh0 2.748393 1_555
Pt3 Rh0 2.748396 1_665
Pt3 Ta0 2.757473 1_655
Pt3 Rh1 2.803939 1_555
Pt3 Rh2 2.849625 1_566
Pt3 Pt4 2.859119 1_565
Pt4 Ta0 2.703976 1_544
Pt4 Rh1 2.726268 1_555
Pt4 Rh1 2.726268 1_445
Pt4 Rh2 2.737548 1_555
Pt4 Rh2 2.737548 1_445
Pt4 Rh0 2.792909 1_555
Rh0 Rh2 2.668927 1_556
Rh0 Ta0 2.714563 1_545
Rh0 Ta0 2.714563 1_655
Rh0 Rh1 2.838681 1_555
Rh0 Rh1 2.838682 1_445
Rh1 Rh2 2.668927 1_555
Rh1 Ta0 2.714563 1_654
Rh1 Ta0 2.714563 1_544
Rh2 Ta0 2.693218 1_654
Rh2 Ta0 2.693218 1_544
