# generated using pymatgen
data_Cs2Li2SnS4
_symmetry_space_group_name_H-M   'P 1'
_cell_length_a   9.66747425
_cell_length_b   9.66747458
_cell_length_c   9.66747414
_cell_angle_alpha   144.10642166
_cell_angle_beta   106.56028369
_cell_angle_gamma   84.54111979
_symmetry_Int_Tables_number   1
_chemical_formula_structural   Cs2Li2SnS4
_chemical_formula_sum   'Cs4 Li4 Sn2 S8'
_cell_volume   492.70502074
_cell_formula_units_Z   2
loop_
 _symmetry_equiv_pos_site_id
 _symmetry_equiv_pos_as_xyz
  1  'x, y, z'
loop_
 _atom_site_type_symbol
 _atom_site_label
 _atom_site_symmetry_multiplicity
 _atom_site_fract_x
 _atom_site_fract_y
 _atom_site_fract_z
 _atom_site_occupancy
  Cs  Cs0  1  0.62259003  0.77424292  0.39683195  1
  Cs  Cs1  1  0.87740997  0.27424292  0.15165290  1
  Cs  Cs2  1  0.12259003  0.72575708  0.84834710  1
  Cs  Cs3  1  0.37740997  0.22575708  0.60316805  1
  Li  Li0  1  0.02601647  0.75000000  0.27601647  1
  Li  Li1  1  0.47398353  0.75000000  0.72398353  1
  Li  Li2  1  0.97398353  0.25000000  0.72398353  1
  Li  Li3  1  0.52601647  0.25000000  0.27601647  1
  Sn  Sn0  1  0.75000000  0.75000000  0.00000000  1
  Sn  Sn1  1  0.25000000  0.25000000  0.00000000  1
  S  S0  1  0.71809356  0.63316093  0.65696476  1
  S  S1  1  0.78190644  0.43887120  0.91506738  1
  S  S2  1  0.52380382  0.86683907  0.08493262  1
  S  S3  1  0.97619618  0.06112880  0.34303524  1
  S  S4  1  0.28190644  0.36683907  0.34303524  1
  S  S5  1  0.21809356  0.56112880  0.08493262  1
  S  S6  1  0.02380382  0.93887120  0.65696476  1
  S  S7  1  0.47619618  0.13316093  0.91506738  1
loop_
_geom_bond_atom_site_label_1
_geom_bond_atom_site_label_2
_geom_bond_distance
_geom_bond_site_symmetry_2
Cs0 S6 3.609864 1_655
Cs0 S0 3.609873 1_555
Cs0 S1 3.639925 1_554
Cs0 S7 3.639934 1_554
Cs0 S2 3.657099 1_555
Cs0 S5 3.657107 1_555
Cs0 S1 3.752980 1_565
Cs0 S7 3.752989 1_565
Cs1 S7 3.609864 1_554
Cs1 S1 3.609864 1_554
Cs1 S6 3.639932 1_644
Cs1 S0 3.639932 1_544
Cs1 S4 3.657108 1_655
Cs1 S3 3.657108 1_555
Cs1 S0 3.752982 1_555
Cs1 S6 3.752982 1_655
Cs2 S2 3.609864 1_556
Cs2 S5 3.609864 1_556
Cs2 S3 3.639932 1_466
Cs2 S4 3.639932 1_566
Cs2 S0 3.657108 1_455
Cs2 S6 3.657108 1_555
Cs2 S4 3.752982 1_555
Cs2 S3 3.752982 1_455
Cs3 S3 3.609864 1_455
Cs3 S4 3.609873 1_555
Cs3 S5 3.639925 1_556
Cs3 S2 3.639934 1_556
Cs3 S7 3.657099 1_555
Cs3 S1 3.657107 1_555
Cs3 S5 3.752980 1_545
Cs3 S2 3.752989 1_545
Li0 S6 2.457614 1_555
Li0 S5 2.457614 1_555
Li0 S1 2.538426 1_454
Li0 S3 2.538426 1_465
Li1 S4 2.457614 1_555
Li1 S7 2.457614 1_565
Li1 S2 2.538425 1_556
Li1 S0 2.538426 1_555
Li2 S3 2.457614 1_555
Li2 S1 2.457614 1_555
Li2 S5 2.538426 1_656
Li2 S6 2.538426 1_645
Li3 S0 2.457614 1_555
Li3 S2 2.457614 1_545
Li3 S7 2.538425 1_554
Li3 S4 2.538426 1_555
S0 Sn0 2.404746 1_556
S1 Sn0 2.404746 1_556
S2 Sn0 2.404746 1_555
S3 Sn0 2.404746 1_545
S4 Sn1 2.404746 1_555
S5 Sn1 2.404746 1_555
S6 Sn1 2.404746 1_566
S7 Sn1 2.404746 1_556
