# generated using pymatgen
data_Ta6SnCl18
_symmetry_space_group_name_H-M   'P 1'
_cell_length_a   10.21193854
_cell_length_b   10.21193897
_cell_length_c   10.21193893
_cell_angle_alpha   54.98706986
_cell_angle_beta   54.98705986
_cell_angle_gamma   54.98705971
_symmetry_Int_Tables_number   1
_chemical_formula_structural   Ta6SnCl18
_chemical_formula_sum   'Ta6 Sn1 Cl18'
_cell_volume   665.19089828
_cell_formula_units_Z   1
loop_
 _symmetry_equiv_pos_site_id
 _symmetry_equiv_pos_as_xyz
  1  'x, y, z'
loop_
 _atom_site_type_symbol
 _atom_site_label
 _atom_site_symmetry_multiplicity
 _atom_site_fract_x
 _atom_site_fract_y
 _atom_site_fract_z
 _atom_site_occupancy
  Ta  Ta0  1  0.41667520  0.29272062  0.65016258  1
  Ta  Ta1  1  0.34983742  0.58332480  0.70727938  1
  Ta  Ta2  1  0.70727938  0.34983742  0.58332480  1
  Ta  Ta3  1  0.29272062  0.65016258  0.41667520  1
  Ta  Ta4  1  0.65016258  0.41667520  0.29272062  1
  Ta  Ta5  1  0.58332480  0.70727938  0.34983742  1
  Sn  Sn0  1  0.00000000  0.00000000  0.00000000  1
  Cl  Cl0  1  0.57754974  0.16559315  0.43453509  1
  Cl  Cl1  1  0.23146640  0.35726472  0.91139619  1
  Cl  Cl2  1  0.91139619  0.23146640  0.35726472  1
  Cl  Cl3  1  0.35726472  0.91139619  0.23146640  1
  Cl  Cl4  1  0.76853360  0.64273528  0.08860381  1
  Cl  Cl5  1  0.08860381  0.76853360  0.64273528  1
  Cl  Cl6  1  0.67779001  0.96361117  0.16798406  1
  Cl  Cl7  1  0.96361117  0.16798406  0.67779001  1
  Cl  Cl8  1  0.16798406  0.67779001  0.96361117  1
  Cl  Cl9  1  0.32220999  0.03638883  0.83201594  1
  Cl  Cl10  1  0.03638883  0.83201594  0.32220999  1
  Cl  Cl11  1  0.83201594  0.32220999  0.03638883  1
  Cl  Cl12  1  0.56546491  0.42245026  0.83440685  1
  Cl  Cl13  1  0.16559315  0.43453509  0.57754974  1
  Cl  Cl14  1  0.43453509  0.57754974  0.16559315  1
  Cl  Cl15  1  0.42245026  0.83440685  0.56546491  1
  Cl  Cl16  1  0.83440685  0.56546491  0.42245026  1
  Cl  Cl17  1  0.64273528  0.08860381  0.76853360  1
loop_
_geom_bond_atom_site_label_1
_geom_bond_atom_site_label_2
_geom_bond_distance
_geom_bond_site_symmetry_2
Cl0 Ta4 2.431020 1_555
Cl0 Ta0 2.432034 1_555
Cl1 Ta1 2.433988 1_555
Cl1 Ta0 2.434252 1_555
Cl2 Ta2 2.433987 1_555
Cl2 Ta4 2.434252 1_555
Cl3 Ta5 2.433987 1_555
Cl3 Ta3 2.434252 1_555
Cl4 Ta4 2.433988 1_555
Cl4 Ta5 2.434252 1_555
Cl5 Ta3 2.433987 1_555
Cl5 Ta1 2.434252 1_555
Cl6 Ta5 2.548535 1_555
Cl6 Sn0 2.846386 1_665
Cl7 Ta2 2.548534 1_555
Cl7 Sn0 2.846387 1_656
Cl8 Ta1 2.548534 1_555
Cl8 Sn0 2.846386 1_566
Cl9 Ta0 2.548535 1_555
Cl9 Sn0 2.846386 1_556
Cl10 Ta3 2.548534 1_555
Cl10 Sn0 2.846387 1_565
Cl11 Ta4 2.548534 1_555
Cl11 Sn0 2.846386 1_655
Cl12 Ta2 2.431019 1_555
Cl12 Ta1 2.432035 1_555
Cl13 Ta0 2.431020 1_555
Cl13 Ta3 2.432035 1_555
Cl14 Ta3 2.431019 1_555
Cl14 Ta4 2.432035 1_555
Cl15 Ta1 2.431020 1_555
Cl15 Ta5 2.432034 1_555
Cl16 Ta5 2.431020 1_555
Cl16 Ta2 2.432035 1_555
Cl17 Ta0 2.433987 1_555
Cl17 Ta2 2.434252 1_555
