# generated using pymatgen
data_Lu12Co5Pb
_symmetry_space_group_name_H-M   'P 1'
_cell_length_a   8.05540155
_cell_length_b   8.05540239
_cell_length_c   8.05540214
_cell_angle_alpha   106.71666399
_cell_angle_beta   110.49028070
_cell_angle_gamma   111.24227780
_symmetry_Int_Tables_number   1
_chemical_formula_structural   Lu12Co5Pb
_chemical_formula_sum   'Lu12 Co5 Pb1'
_cell_volume   401.67163053
_cell_formula_units_Z   1
loop_
 _symmetry_equiv_pos_site_id
 _symmetry_equiv_pos_as_xyz
  1  'x, y, z'
loop_
 _atom_site_type_symbol
 _atom_site_label
 _atom_site_symmetry_multiplicity
 _atom_site_fract_x
 _atom_site_fract_y
 _atom_site_fract_z
 _atom_site_occupancy
  Lu  Lu0  1  0.46878777  0.28538610  0.18340167  1
  Lu  Lu1  1  0.10198444  0.28538610  0.81659833  1
  Lu  Lu2  1  0.89801556  0.71461390  0.18340167  1
  Lu  Lu3  1  0.53121223  0.71461390  0.81659833  1
  Lu  Lu4  1  0.30539826  0.61799591  0.31259765  1
  Lu  Lu5  1  0.30539826  0.99280161  0.68740235  1
  Lu  Lu6  1  0.69460174  0.38200409  0.68740235  1
  Lu  Lu7  1  0.69460174  0.00719839  0.31259765  1
  Lu  Lu8  1  0.19786302  0.21462580  0.41248882  1
  Lu  Lu9  1  0.80213698  0.78537420  0.58751118  1
  Lu  Lu10  1  0.19786302  0.78537420  0.98323522  1
  Lu  Lu11  1  0.80213698  0.21462580  0.01676478  1
  Co  Co0  1  0.50000000  0.61193771  0.11193771  1
  Co  Co1  1  0.50000000  0.38806229  0.88806229  1
  Co  Co2  1  0.37784114  0.00000000  0.37784114  1
  Co  Co3  1  0.62215886  1.00000000  0.62215886  1
  Co  Co4  1  0.00000000  0.00000000  0.00000000  1
  Pb  Pb0  1  0.00000000  0.50000000  0.50000000  1
loop_
_geom_bond_atom_site_label_1
_geom_bond_atom_site_label_2
_geom_bond_distance
_geom_bond_site_symmetry_2
Lu0 Pb0 3.502366 1_655
Lu1 Pb0 3.502366 1_555
Lu2 Pb0 3.502366 1_655
Lu3 Pb0 3.502366 1_555
Lu4 Pb0 3.311422 1_555
Lu5 Pb0 3.311429 1_555
Lu6 Pb0 3.311422 1_655
Lu7 Pb0 3.311429 1_655
Lu8 Pb0 3.291083 1_555
Lu9 Pb0 3.291083 1_655
Lu10 Pb0 3.291070 1_555
Lu11 Pb0 3.291070 1_655
Co0 Co1 2.152577 1_554
Co0 Lu7 2.618480 1_565
Co0 Lu4 2.618487 1_555
Co0 Lu2 2.794171 1_555
Co0 Lu1 2.794171 1_554
Co0 Lu3 2.794171 1_554
Co0 Lu0 2.794171 1_555
Co0 Lu9 3.237429 1_555
Co0 Lu10 3.237431 1_554
Co1 Lu5 2.618480 1_545
Co1 Lu6 2.618487 1_555
Co1 Lu1 2.794171 1_555
Co1 Lu2 2.794171 1_556
Co1 Lu0 2.794171 1_556
Co1 Lu3 2.794171 1_555
Co1 Lu8 3.237429 1_555
Co1 Lu11 3.237431 1_556
Co2 Co3 2.243870 1_545
Co2 Lu8 2.644030 1_555
Co2 Lu10 2.644043 1_544
Co2 Lu5 2.763977 1_545
Co2 Lu6 2.763979 1_555
Co2 Lu4 2.763979 1_545
Co2 Lu7 2.763981 1_555
Co2 Lu2 3.151076 1_445
Co2 Lu0 3.151076 1_555
Co3 Lu9 2.644030 1_555
Co3 Lu11 2.644043 1_566
Co3 Lu7 2.763977 1_565
Co3 Lu4 2.763979 1_555
Co3 Lu6 2.763979 1_565
Co3 Lu5 2.763981 1_555
Co3 Lu1 3.151076 1_665
Co3 Lu3 3.151076 1_555
Co4 Lu8 2.749709 1_555
Co4 Lu9 2.749709 1_444
Co4 Lu11 2.749710 1_455
Co4 Lu10 2.749710 1_544
Co4 Lu0 3.094753 1_555
Co4 Lu3 3.094753 1_444
Co4 Lu2 3.094753 1_445
Co4 Lu1 3.094753 1_554
