# generated using pymatgen
data_Sr2In7Pd2Pb
_symmetry_space_group_name_H-M   'P 1'
_cell_length_a   8.95571308
_cell_length_b   8.95571348
_cell_length_c   7.58837192
_cell_angle_alpha   90.52108646
_cell_angle_beta   89.47891419
_cell_angle_gamma   150.23043949
_symmetry_Int_Tables_number   1
_chemical_formula_structural   Sr2In7Pd2Pb
_chemical_formula_sum   'Sr2 In7 Pd2 Pb1'
_cell_volume   302.17619877
_cell_formula_units_Z   1
loop_
 _symmetry_equiv_pos_site_id
 _symmetry_equiv_pos_as_xyz
  1  'x, y, z'
loop_
 _atom_site_type_symbol
 _atom_site_label
 _atom_site_symmetry_multiplicity
 _atom_site_fract_x
 _atom_site_fract_y
 _atom_site_fract_z
 _atom_site_occupancy
  Sr  Sr0  1  0.12235179  0.87764821  0.75183201  1
  Sr  Sr1  1  0.87764821  0.12235179  0.24816799  1
  In  In0  1  0.31115439  0.68884561  0.94515774  1
  In  In1  1  0.68884561  0.31115439  0.05484226  1
  In  In2  1  0.31428128  0.68571872  0.54992256  1
  In  In3  1  0.68571872  0.31428128  0.45007744  1
  In  In4  1  0.50000000  0.50000000  0.50000000  1
  In  In5  1  0.07128522  0.92871478  0.26268179  1
  In  In6  1  0.92871478  0.07128522  0.73731821  1
  Pd  Pd0  1  0.77379943  0.22620057  0.74912745  1
  Pd  Pd1  1  0.22620057  0.77379943  0.25087255  1
  Pb  Pb0  1  0.50000000  0.50000000  0.00000000  1
loop_
_geom_bond_atom_site_label_1
_geom_bond_atom_site_label_2
_geom_bond_distance
_geom_bond_site_symmetry_2
In0 Pd1 2.735003 1_556
In0 Pd0 2.818045 1_455
In0 Pd0 2.818045 1_565
In0 Pb0 3.299259 1_556
In0 Sr1 3.457465 1_566
In0 Sr1 3.457465 1_456
In0 Sr0 3.594976 1_555
In1 Pd0 2.735003 1_554
In1 Pd1 2.818045 1_655
In1 Pd1 2.818045 1_545
In1 Pb0 3.299259 1_555
In1 Sr0 3.457465 1_544
In1 Sr0 3.457465 1_654
In1 Sr1 3.594976 1_555
In2 Pd1 2.745833 1_555
In2 Pd0 2.836991 1_455
In2 Pd0 2.836992 1_565
In2 In4 3.233566 1_555
In2 Sr1 3.419294 1_565
In2 Sr1 3.419294 1_455
In2 Sr0 3.645532 1_555
In3 Pd0 2.745833 1_555
In3 Pd1 2.836991 1_655
In3 Pd1 2.836992 1_545
In3 In4 3.233566 1_555
In3 Sr0 3.419294 1_545
In3 Sr0 3.419294 1_655
In3 Sr1 3.645532 1_555
In4 In6 3.164854 1_455
In4 In5 3.164854 1_655
In4 In6 3.164855 1_565
In4 In5 3.164855 1_545
In4 Sr0 3.675073 1_655
In4 Sr1 3.675073 1_455
In4 Sr0 3.675073 1_545
In4 Sr1 3.675073 1_565
In5 Pd1 2.682300 1_555
In5 Pb0 3.291608 1_455
In5 Pb0 3.291608 1_565
In5 Sr1 3.354778 1_465
In5 Sr0 3.823747 1_555
In5 Sr0 3.967912 1_554
In6 Pd0 2.682300 1_555
In6 Pb0 3.291608 1_656
In6 Pb0 3.291608 1_546
In6 Sr0 3.354778 1_645
In6 Sr1 3.823747 1_555
In6 Sr1 3.967912 1_556
Pd0 Sr0 3.487783 1_545
Pd0 Sr0 3.487784 1_655
Pd1 Sr1 3.487783 1_565
Pd1 Sr1 3.487784 1_455
Pb0 Sr1 3.639976 1_455
Pb0 Sr0 3.639976 1_654
Pb0 Sr1 3.639976 1_565
Pb0 Sr0 3.639976 1_544
