# generated using pymatgen
data_Zr6Zn16GePd7
_symmetry_space_group_name_H-M   'P 1'
_cell_length_a   8.75334630
_cell_length_b   8.75334610
_cell_length_c   8.75334543
_cell_angle_alpha   59.99999884
_cell_angle_beta   59.99999963
_cell_angle_gamma   59.99999685
_symmetry_Int_Tables_number   1
_chemical_formula_structural   Zr6Zn16GePd7
_chemical_formula_sum   'Zr6 Zn16 Ge1 Pd7'
_cell_volume   474.24991851
_cell_formula_units_Z   1
loop_
 _symmetry_equiv_pos_site_id
 _symmetry_equiv_pos_as_xyz
  1  'x, y, z'
loop_
 _atom_site_type_symbol
 _atom_site_label
 _atom_site_symmetry_multiplicity
 _atom_site_fract_x
 _atom_site_fract_y
 _atom_site_fract_z
 _atom_site_occupancy
  Zr  Zr0  1  0.71860290  0.28139710  0.28139710  1
  Zr  Zr1  1  0.28139710  0.71860290  0.71860290  1
  Zr  Zr2  1  0.28139710  0.71860290  0.28139710  1
  Zr  Zr3  1  0.71860290  0.28139710  0.71860290  1
  Zr  Zr4  1  0.28139710  0.28139710  0.71860290  1
  Zr  Zr5  1  0.71860290  0.71860290  0.28139710  1
  Zn  Zn0  1  0.12357672  0.12357672  0.12357672  1
  Zn  Zn1  1  0.87642328  0.87642328  0.87642328  1
  Zn  Zn2  1  0.12357672  0.12357672  0.62926985  1
  Zn  Zn3  1  0.12357672  0.62926985  0.12357672  1
  Zn  Zn4  1  0.87642328  0.87642328  0.37073015  1
  Zn  Zn5  1  0.87642328  0.37073015  0.87642328  1
  Zn  Zn6  1  0.62926985  0.12357672  0.12357672  1
  Zn  Zn7  1  0.37073015  0.87642328  0.87642328  1
  Zn  Zn8  1  0.34032472  0.34032472  0.34032472  1
  Zn  Zn9  1  0.65967528  0.65967528  0.65967528  1
  Zn  Zn10  1  0.34032472  0.34032472  0.97902884  1
  Zn  Zn11  1  0.34032472  0.97902884  0.34032472  1
  Zn  Zn12  1  0.65967528  0.65967528  0.02097116  1
  Zn  Zn13  1  0.65967528  0.02097116  0.65967528  1
  Zn  Zn14  1  0.97902884  0.34032472  0.34032472  1
  Zn  Zn15  1  0.02097116  0.65967528  0.65967528  1
  Ge  Ge0  1  0.50000000  0.50000000  0.50000000  1
  Pd  Pd0  1  0.50000000  0.00000000  0.00000000  1
  Pd  Pd1  1  0.00000000  0.50000000  0.50000000  1
  Pd  Pd2  1  0.00000000  0.50000000  0.00000000  1
  Pd  Pd3  1  0.50000000  0.00000000  0.50000000  1
  Pd  Pd4  1  0.00000000  0.00000000  0.50000000  1
  Pd  Pd5  1  0.50000000  0.50000000  0.00000000  1
  Pd  Pd6  1  0.00000000  0.00000000  0.00000000  1
loop_
_geom_bond_atom_site_label_1
_geom_bond_atom_site_label_2
_geom_bond_distance
_geom_bond_site_symmetry_2
Zn0 Zr4 2.915000 1_554
Zn0 Zr2 2.915000 1_545
Zn0 Zr0 2.915000 1_455
Zn1 Zr5 2.915000 1_556
Zn1 Zr3 2.915000 1_565
Zn1 Zr1 2.915000 1_655
Zn2 Zr1 2.915000 1_545
Zn2 Zr3 2.915001 1_455
Zn2 Zr4 2.915001 1_555
Zn3 Zr1 2.915000 1_554
Zn3 Zr2 2.915000 1_555
Zn3 Zr5 2.915001 1_455
Zn4 Zr0 2.915000 1_565
Zn4 Zr2 2.915001 1_655
Zn4 Zr5 2.915001 1_555
Zn5 Zr0 2.915000 1_556
Zn5 Zr3 2.915000 1_555
Zn5 Zr4 2.915001 1_655
Zn6 Zr3 2.915000 1_554
Zn6 Zr5 2.915000 1_545
Zn6 Zr0 2.915000 1_555
Zn7 Zr2 2.915000 1_556
Zn7 Zr4 2.915000 1_565
Zn7 Zr1 2.915000 1_555
Ge0 Zr3 2.706107 1_555
Ge0 Zr2 2.706107 1_555
Ge0 Zr1 2.706107 1_555
Ge0 Zr0 2.706107 1_555
Ge0 Zr5 2.706107 1_555
Ge0 Zr4 2.706107 1_555
Pd0 Zn11 2.531322 1_545
Pd0 Zn13 2.531322 1_554
Pd0 Zn10 2.531322 1_554
Pd0 Zn12 2.531322 1_545
Pd0 Zn6 2.690480 1_555
Pd0 Zn7 2.690480 1_544
Pd0 Zn1 2.690480 1_544
Pd0 Zn0 2.690480 1_555
Pd0 Zr5 3.119086 1_545
Pd0 Zr4 3.119086 1_554
Pd0 Zr3 3.119086 1_554
Pd0 Zr2 3.119086 1_545
Pd1 Zn15 2.531299 1_555
Pd1 Zn14 2.531299 1_455
Pd1 Zn8 2.531316 1_555
Pd1 Zn9 2.531316 1_455
Pd1 Zn3 2.690480 1_555
Pd1 Zn5 2.690480 1_455
Pd1 Zn2 2.690480 1_555
Pd1 Zn4 2.690480 1_455
Pd1 Zr4 3.119086 1_555
Pd1 Zr5 3.119086 1_455
Pd1 Zr2 3.119086 1_555
Pd1 Zr3 3.119086 1_455
Pd2 Zn14 2.531322 1_455
Pd2 Zn15 2.531322 1_554
Pd2 Zn10 2.531322 1_554
Pd2 Zn12 2.531322 1_455
Pd2 Zn1 2.690480 1_454
Pd2 Zn0 2.690480 1_555
Pd2 Zn3 2.690480 1_555
Pd2 Zn5 2.690480 1_454
Pd2 Zr5 3.119086 1_455
Pd2 Zr4 3.119086 1_554
Pd2 Zr1 3.119086 1_554
Pd2 Zr0 3.119086 1_455
Pd3 Zn13 2.531299 1_555
Pd3 Zn11 2.531299 1_545
Pd3 Zn8 2.531316 1_555
Pd3 Zn9 2.531316 1_545
Pd3 Zn7 2.690480 1_545
Pd3 Zn6 2.690480 1_555
Pd3 Zn4 2.690480 1_545
Pd3 Zn2 2.690480 1_555
Pd3 Zr4 3.119086 1_555
Pd3 Zr5 3.119086 1_545
Pd3 Zr0 3.119086 1_555
Pd3 Zr1 3.119086 1_545
Pd4 Zn14 2.531322 1_455
Pd4 Zn15 2.531322 1_545
Pd4 Zn11 2.531322 1_545
Pd4 Zn13 2.531322 1_455
Pd4 Zn1 2.690480 1_445
Pd4 Zn0 2.690480 1_555
Pd4 Zn2 2.690480 1_555
Pd4 Zn4 2.690480 1_445
Pd4 Zr1 3.119086 1_545
Pd4 Zr0 3.119086 1_455
Pd4 Zr3 3.119086 1_455
Pd4 Zr2 3.119086 1_545
Pd5 Zn12 2.531300 1_555
Pd5 Zn10 2.531300 1_554
Pd5 Zn8 2.531316 1_555
Pd5 Zn9 2.531316 1_554
Pd5 Zn7 2.690480 1_554
Pd5 Zn6 2.690480 1_555
Pd5 Zn5 2.690480 1_554
Pd5 Zn3 2.690480 1_555
Pd5 Zr2 3.119086 1_555
Pd5 Zr3 3.119086 1_554
Pd5 Zr0 3.119086 1_555
Pd5 Zr1 3.119086 1_554
Pd6 Zn4 2.649637 1_445
Pd6 Zn2 2.649637 1_554
Pd6 Zn5 2.649637 1_454
Pd6 Zn3 2.649637 1_545
Pd6 Zn0 2.649637 1_555
Pd6 Zn1 2.649637 1_444
Pd6 Zn7 2.649637 1_544
Pd6 Zn6 2.649637 1_455
