# generated using pymatgen
data_Ca4ScSn3
_symmetry_space_group_name_H-M   'P 1'
_cell_length_a   9.18562319
_cell_length_b   9.18553010
_cell_length_c   9.18562368
_cell_angle_alpha   96.84252339
_cell_angle_beta   96.84363640
_cell_angle_gamma   139.61498825
_symmetry_Int_Tables_number   1
_chemical_formula_structural   Ca4ScSn3
_chemical_formula_sum   'Ca8 Sc2 Sn6'
_cell_volume   471.29527326
_cell_formula_units_Z   2
loop_
 _symmetry_equiv_pos_site_id
 _symmetry_equiv_pos_as_xyz
  1  'x, y, z'
loop_
 _atom_site_type_symbol
 _atom_site_label
 _atom_site_symmetry_multiplicity
 _atom_site_fract_x
 _atom_site_fract_y
 _atom_site_fract_z
 _atom_site_occupancy
  Ca  Ca0  1  0.08484974  0.21250735  0.29735298  1
  Ca  Ca1  1  0.91515026  0.78749265  0.70264702  1
  Ca  Ca2  1  0.78749970  0.08485099  0.87234191  1
  Ca  Ca3  1  0.41515437  0.71250735  0.12765761  1
  Ca  Ca4  1  0.21250030  0.91514901  0.12765809  1
  Ca  Ca5  1  0.58484563  0.28749265  0.87234239  1
  Ca  Ca6  1  0.71250908  0.58485099  0.29735129  1
  Ca  Ca7  1  0.28749092  0.41514901  0.70264871  1
  Sc  Sc0  1  0.25000559  0.75000000  0.50000559  1
  Sc  Sc1  1  0.74999441  0.25000000  0.49999441  1
  Sn  Sn0  1  0.14552696  0.64552666  0.79103180  1
  Sn  Sn1  1  0.85447304  0.35447334  0.20896820  1
  Sn  Sn2  1  0.35449487  0.14552666  0.49999970  1
  Sn  Sn3  1  0.64550513  0.85447334  0.50000030  1
  Sn  Sn4  1  0.25000281  0.25000000  0.00000281  1
  Sn  Sn5  1  0.74999719  0.75000000  0.99999719  1
loop_
_geom_bond_atom_site_label_1
_geom_bond_atom_site_label_2
_geom_bond_distance
_geom_bond_site_symmetry_2
Ca0 Sn5 3.208712 1_444
Ca0 Sn4 3.208734 1_555
Ca0 Sn1 3.299164 1_455
Ca0 Sn2 3.387322 1_555
Ca0 Ca7 3.494061 1_555
Ca0 Sn3 3.687228 1_555
Ca0 Sn3 3.687435 1_445
Ca0 Ca3 3.785938 1_555
Ca0 Ca3 3.785938 1_445
Ca0 Ca6 3.859711 1_445
Ca0 Ca6 3.859792 1_555
Ca0 Ca2 3.945275 1_454
Ca0 Ca4 3.945278 1_545
Ca0 Sc0 3.983574 1_555
Ca0 Sc1 3.983681 1_455
Ca1 Sn4 3.208712 1_666
Ca1 Sn5 3.208734 1_555
Ca1 Sn0 3.299164 1_655
Ca1 Sn3 3.387322 1_555
Ca1 Ca6 3.494061 1_555
Ca1 Sn2 3.687228 1_555
Ca1 Sn2 3.687435 1_665
Ca1 Ca5 3.785938 1_555
Ca1 Ca5 3.785938 1_665
Ca1 Ca7 3.859711 1_665
Ca1 Ca7 3.859792 1_555
Ca1 Ca4 3.945275 1_656
Ca1 Ca2 3.945278 1_565
Ca1 Sc1 3.983574 1_555
Ca1 Sc0 3.983681 1_655
Ca2 Sn5 3.208677 1_545
Ca2 Sn4 3.208727 1_656
Ca2 Sn3 3.299160 1_545
Ca2 Sn1 3.387353 1_556
Ca2 Ca5 3.494060 1_555
Ca2 Sn0 3.687310 1_545
Ca2 Sn0 3.687353 1_655
Ca2 Ca7 3.785922 1_655
Ca2 Ca7 3.785939 1_545
Ca2 Ca3 3.859712 1_656
Ca2 Ca3 3.859792 1_546
Ca2 Sc0 3.983556 1_545
Ca2 Sc1 3.983672 1_555
Ca3 Sn4 3.208712 1_555
Ca3 Sn5 3.208734 1_554
Ca3 Sn3 3.299164 1_555
Ca3 Sn0 3.387322 1_554
Ca3 Ca4 3.494060 1_555
Ca3 Sn1 3.687228 1_565
Ca3 Sn1 3.687435 1_455
Ca3 Ca6 3.945275 1_555
Ca3 Ca7 3.945278 1_554
Ca3 Sc1 3.983574 1_565
Ca3 Sc0 3.983681 1_555
Ca4 Sn4 3.208677 1_565
Ca4 Sn5 3.208727 1_454
Ca4 Sn2 3.299160 1_565
Ca4 Sn0 3.387353 1_554
Ca4 Sn1 3.687310 1_565
Ca4 Sn1 3.687353 1_455
Ca4 Ca6 3.785922 1_455
Ca4 Ca6 3.785939 1_565
Ca4 Ca5 3.859712 1_454
Ca4 Ca5 3.859792 1_564
Ca4 Sc1 3.983556 1_565
Ca4 Sc0 3.983672 1_555
Ca5 Sn5 3.208712 1_555
Ca5 Sn4 3.208734 1_556
Ca5 Sn2 3.299164 1_555
Ca5 Sn1 3.387322 1_556
Ca5 Sn0 3.687228 1_545
Ca5 Sn0 3.687435 1_655
Ca5 Ca7 3.945275 1_555
Ca5 Ca6 3.945278 1_556
Ca5 Sc0 3.983574 1_545
Ca5 Sc1 3.983681 1_555
Ca6 Sn4 3.208677 1_555
Ca6 Sn5 3.208727 1_554
Ca6 Sn1 3.299160 1_555
Ca6 Sn3 3.387353 1_555
Ca6 Sn2 3.687310 1_555
Ca6 Sn2 3.687353 1_665
Ca6 Sc1 3.983556 1_555
Ca6 Sc0 3.983672 1_655
Ca7 Sn5 3.208677 1_555
Ca7 Sn4 3.208727 1_556
Ca7 Sn0 3.299160 1_555
Ca7 Sn2 3.387353 1_555
Ca7 Sn3 3.687310 1_555
Ca7 Sn3 3.687353 1_445
Ca7 Sc0 3.983556 1_555
Ca7 Sc1 3.983672 1_455
Sc0 Sn3 2.967815 1_555
Sc0 Sn0 2.967815 1_555
Sc0 Sn2 2.967928 1_565
Sc0 Sn1 2.967928 1_455
Sc0 Sc1 3.170635 1_565
Sc0 Sc1 3.170635 1_455
Sc1 Sn2 2.967815 1_555
Sc1 Sn1 2.967815 1_555
Sc1 Sn3 2.967928 1_545
Sc1 Sn0 2.967928 1_655
Sn4 Sn5 3.170635 1_554
Sn4 Sn5 3.170635 1_444
