# generated using pymatgen
data_Y20Al6RuRh
_symmetry_space_group_name_H-M   'P 1'
_cell_length_a   9.62529002
_cell_length_b   9.62528907
_cell_length_c   9.61020815
_cell_angle_alpha   90.00000000
_cell_angle_beta   90.00000000
_cell_angle_gamma   119.99999635
_symmetry_Int_Tables_number   1
_chemical_formula_structural   Y20Al6RuRh
_chemical_formula_sum   'Y20 Al6 Ru1 Rh1'
_cell_volume   771.06510176
_cell_formula_units_Z   1
loop_
 _symmetry_equiv_pos_site_id
 _symmetry_equiv_pos_as_xyz
  1  'x, y, z'
loop_
 _atom_site_type_symbol
 _atom_site_label
 _atom_site_symmetry_multiplicity
 _atom_site_fract_x
 _atom_site_fract_y
 _atom_site_fract_z
 _atom_site_occupancy
  Y  Y0  1  0.00000000  0.00000000  0.50029841  1
  Y  Y1  1  0.00000000  0.00000000  0.99970159  1
  Y  Y2  1  0.20704418  0.79295582  0.44047495  1
  Y  Y3  1  0.20704418  0.41408736  0.44047495  1
  Y  Y4  1  0.58591264  0.79295582  0.44047495  1
  Y  Y5  1  0.79202290  0.20797710  0.56012779  1
  Y  Y6  1  0.79202290  0.58404480  0.56012779  1
  Y  Y7  1  0.41595520  0.20797710  0.56012779  1
  Y  Y8  1  0.79202290  0.20797710  0.93987221  1
  Y  Y9  1  0.79202290  0.58404480  0.93987221  1
  Y  Y10  1  0.41595520  0.20797710  0.93987221  1
  Y  Y11  1  0.20704418  0.79295582  0.05952505  1
  Y  Y12  1  0.20704418  0.41408736  0.05952505  1
  Y  Y13  1  0.58591264  0.79295582  0.05952505  1
  Y  Y14  1  0.54146418  0.45853582  0.25000000  1
  Y  Y15  1  0.54146418  0.08292836  0.25000000  1
  Y  Y16  1  0.91707164  0.45853582  0.25000000  1
  Y  Y17  1  0.45989999  0.54010001  0.75000000  1
  Y  Y18  1  0.45989999  0.91979997  0.75000000  1
  Y  Y19  1  0.08020003  0.54010001  0.75000000  1
  Al  Al0  1  0.88789783  0.11210217  0.25000000  1
  Al  Al1  1  0.88789783  0.77579766  0.25000000  1
  Al  Al2  1  0.22420234  0.11210217  0.25000000  1
  Al  Al3  1  0.11213248  0.88786752  0.75000000  1
  Al  Al4  1  0.11213248  0.22426195  0.75000000  1
  Al  Al5  1  0.77573805  0.88786752  0.75000000  1
  Ru  Ru0  1  0.66666700  0.33333300  0.75000000  1
  Rh  Rh0  1  0.33333300  0.66666700  0.25000000  1
loop_
_geom_bond_atom_site_label_1
_geom_bond_atom_site_label_2
_geom_bond_distance
_geom_bond_site_symmetry_2
Y0 Y3 3.499278 1_555
Y0 Y4 3.499278 1_445
Y0 Y2 3.499286 1_545
Y0 Y5 3.514638 1_455
Y0 Y6 3.514646 1_445
Y0 Y7 3.514647 1_555
Y1 Y12 3.499278 1_556
Y1 Y13 3.499278 1_446
Y1 Y11 3.499286 1_546
Y1 Y8 3.514638 1_455
Y1 Y9 3.514646 1_445
Y1 Y10 3.514647 1_555
Y10 Y18 3.517904 1_545
Y10 Y17 3.517912 1_555
Y10 Y15 3.639359 1_556
Y10 Y14 3.639364 1_556
Y11 Y16 3.538067 1_455
Y11 Y15 3.538067 1_565
Y11 Y19 3.645660 1_554
Y11 Y18 3.645660 1_554
Y12 Y14 3.538064 1_555
Y12 Y16 3.538072 1_455
Y12 Y17 3.645660 1_554
Y12 Y19 3.645665 1_554
Y13 Y14 3.538064 1_555
Y13 Y15 3.538072 1_565
Y13 Y17 3.645660 1_554
Y13 Y18 3.645665 1_554
Y14 Y4 3.538064 1_555
Y14 Y3 3.538064 1_555
Y14 Y15 3.615330 1_555
Y14 Y16 3.615331 1_555
Y14 Y7 3.639364 1_555
Y14 Y6 3.639364 1_555
Y14 Y9 3.639364 1_554
Y15 Y2 3.538067 1_545
Y15 Y4 3.538072 1_545
Y15 Y16 3.615331 1_555
Y15 Y7 3.639359 1_555
Y15 Y5 3.639364 1_555
Y15 Y8 3.639364 1_554
Y16 Y2 3.538067 1_655
Y16 Y3 3.538072 1_655
Y16 Y6 3.639359 1_555
Y16 Y9 3.639359 1_554
Y16 Y5 3.639364 1_555
Y16 Y8 3.639364 1_554
Y17 Y7 3.517912 1_555
Y17 Y9 3.517912 1_555
Y17 Y6 3.517912 1_555
Y17 Y4 3.645660 1_555
Y17 Y3 3.645660 1_555
Y17 Y18 3.654722 1_555
Y17 Y19 3.654722 1_555
Y18 Y7 3.517904 1_565
Y18 Y8 3.517909 1_565
Y18 Y5 3.517909 1_565
Y18 Y2 3.645660 1_555
Y18 Y4 3.645665 1_555
Y18 Y19 3.654722 1_555
Y19 Y9 3.517904 1_455
Y19 Y6 3.517904 1_455
Y19 Y8 3.517909 1_455
Y19 Y5 3.517909 1_455
Y19 Y2 3.645660 1_555
Y19 Y3 3.645665 1_555
Al0 Y0 3.046124 1_655
Al0 Y1 3.046124 1_654
Al0 Y16 3.203365 1_555
Al0 Y15 3.203365 1_555
Al0 Y5 3.381945 1_555
Al0 Y8 3.381945 1_554
Al0 Y4 3.508139 1_545
Al0 Y13 3.508139 1_545
Al0 Y3 3.508139 1_655
Al0 Y12 3.508139 1_655
Al1 Y0 3.046114 1_665
Al1 Y1 3.046114 1_664
Al1 Y14 3.203374 1_555
Al1 Y16 3.203384 1_555
Al1 Y6 3.381957 1_555
Al1 Y9 3.381957 1_554
Al1 Y4 3.508125 1_555
Al1 Y13 3.508125 1_555
Al1 Y2 3.508150 1_655
Al1 Y11 3.508150 1_655
Al2 Y0 3.046114 1_555
Al2 Y1 3.046114 1_554
Al2 Y14 3.203374 1_555
Al2 Y15 3.203384 1_555
Al2 Y7 3.381957 1_555
Al2 Y10 3.381957 1_554
Al2 Y3 3.508125 1_555
Al2 Y12 3.508125 1_555
Al2 Y2 3.508150 1_545
Al2 Y11 3.508150 1_545
Al3 Y1 3.041907 1_565
Al3 Y0 3.041907 1_565
Al3 Y19 3.204757 1_555
Al3 Y18 3.204757 1_555
Al3 Y11 3.369270 1_556
Al3 Y2 3.369270 1_555
Al3 Y10 3.516333 1_565
Al3 Y7 3.516333 1_565
Al3 Y9 3.516333 1_455
Al3 Y6 3.516333 1_455
Al4 Y1 3.041892 1_555
Al4 Y0 3.041892 1_555
Al4 Y17 3.204769 1_555
Al4 Y19 3.204785 1_555
Al4 Y12 3.369278 1_556
Al4 Y3 3.369278 1_555
Al4 Y10 3.516324 1_555
Al4 Y7 3.516324 1_555
Al4 Y8 3.516341 1_455
Al4 Y5 3.516341 1_455
Al5 Y1 3.041892 1_665
Al5 Y0 3.041892 1_665
Al5 Y17 3.204769 1_555
Al5 Y18 3.204786 1_555
Al5 Y13 3.369278 1_556
Al5 Y4 3.369278 1_555
Al5 Y9 3.516324 1_555
Al5 Y6 3.516324 1_555
Al5 Y8 3.516341 1_565
Al5 Y5 3.516341 1_565
Ru0 Y8 2.774370 1_555
Ru0 Y5 2.774370 1_555
Ru0 Y9 2.774370 1_555
Ru0 Y6 2.774370 1_555
Ru0 Y10 2.774370 1_555
Ru0 Y7 2.774370 1_555
Ru0 Y18 3.447106 1_545
Ru0 Y19 3.447106 1_655
Ru0 Y17 3.447114 1_555
Rh0 Y2 2.789901 1_555
Rh0 Y11 2.789901 1_555
Rh0 Y3 2.789914 1_555
Rh0 Y12 2.789914 1_555
Rh0 Y4 2.789914 1_555
Rh0 Y13 2.789914 1_555
Rh0 Y15 3.469849 1_565
Rh0 Y16 3.469849 1_455
Rh0 Y14 3.469857 1_555
