# generated using pymatgen
data_Tc2Te4Mo
_symmetry_space_group_name_H-M   'P 1'
_cell_length_a   7.11824809
_cell_length_b   7.12314878
_cell_length_c   7.15100420
_cell_angle_alpha   94.04912006
_cell_angle_beta   93.72582443
_cell_angle_gamma   94.00702947
_symmetry_Int_Tables_number   1
_chemical_formula_structural   Tc2Te4Mo
_chemical_formula_sum   'Tc4 Te8 Mo2'
_cell_volume   359.90603921
_cell_formula_units_Z   2
loop_
 _symmetry_equiv_pos_site_id
 _symmetry_equiv_pos_as_xyz
  1  'x, y, z'
loop_
 _atom_site_type_symbol
 _atom_site_label
 _atom_site_symmetry_multiplicity
 _atom_site_fract_x
 _atom_site_fract_y
 _atom_site_fract_z
 _atom_site_occupancy
  Tc  Tc0  1  0.91111115  0.04701663  0.75011962  1
  Tc  Tc1  1  0.74869738  0.91386081  0.04723531  1
  Tc  Tc2  1  0.04411471  0.75013100  0.91202739  1
  Tc  Tc3  1  0.08803318  0.95397131  0.24809307  1
  Te  Te0  1  0.71087534  0.71422608  0.71489848  1
  Te  Te1  1  0.29405421  0.28755997  0.29373001  1
  Te  Te2  1  0.77813949  0.11766271  0.38387891  1
  Te  Te3  1  0.37989239  0.76860554  0.12007543  1
  Te  Te4  1  0.11985567  0.38376167  0.76862929  1
  Te  Te5  1  0.21945345  0.88003312  0.61542516  1
  Te  Te6  1  0.62016184  0.22307145  0.88301655  1
  Te  Te7  1  0.88062373  0.62364188  0.22179492  1
  Mo  Mo0  1  0.24696271  0.08719463  0.95333799  1
  Mo  Mo1  1  0.95802673  0.24926221  0.08773788  1
loop_
_geom_bond_atom_site_label_1
_geom_bond_atom_site_label_2
_geom_bond_distance
_geom_bond_site_symmetry_2
Tc0 Te0 2.666677 1_545
Tc0 Tc2 2.681827 1_645
Tc0 Tc1 2.683474 1_546
Tc0 Te6 2.686178 1_555
Tc0 Te4 2.722237 1_655
Tc0 Te5 2.763650 1_645
Tc0 Te2 2.817581 1_555
Tc1 Te0 2.669957 1_554
Tc1 Tc2 2.676710 1_654
Tc1 Te7 2.682739 1_555
Tc1 Te2 2.710174 1_565
Tc1 Tc3 2.715494 1_655
Tc1 Te6 2.752217 1_564
Tc1 Te3 2.847453 1_555
Tc2 Te0 2.666282 1_455
Tc2 Tc3 2.706941 1_556
Tc2 Te5 2.715222 1_555
Tc2 Te3 2.722092 1_556
Tc2 Te7 2.746525 1_456
Tc2 Te4 2.836074 1_555
Tc3 Te7 2.677229 1_455
Tc3 Te1 2.691608 1_565
Tc3 Te3 2.712461 1_555
Tc3 Te2 2.765203 1_465
Tc3 Te5 2.827972 1_555
Mo0 Mo1 2.630313 1_456
Mo0 Tc3 2.658106 1_546
Mo0 Tc2 2.701231 1_545
Mo0 Tc0 2.702442 1_455
Mo0 Te1 2.722295 1_556
Mo0 Te5 2.729374 1_545
Mo0 Te4 2.744405 1_555
Mo0 Te3 2.828888 1_546
Mo0 Te6 2.851277 1_555
Mo1 Tc3 2.659017 1_645
Mo1 Tc0 2.711568 1_554
Mo1 Te1 2.712886 1_655
Mo1 Tc1 2.713059 1_545
Mo1 Te6 2.720880 1_554
Mo1 Te2 2.732774 1_555
Mo1 Te4 2.819266 1_654
Mo1 Te7 2.871785 1_555
