# generated using pymatgen
data_PdPb(SeO3)2
_symmetry_space_group_name_H-M   'P 1'
_cell_length_a   4.78972876
_cell_length_b   4.78972855
_cell_length_c   15.46308293
_cell_angle_alpha   88.29711769
_cell_angle_beta   88.29711938
_cell_angle_gamma   65.49686443
_symmetry_Int_Tables_number   1
_chemical_formula_structural   PdPb(SeO3)2
_chemical_formula_sum   'Pd2 Pb2 Se4 O12'
_cell_volume   322.59581596
_cell_formula_units_Z   2
loop_
 _symmetry_equiv_pos_site_id
 _symmetry_equiv_pos_as_xyz
  1  'x, y, z'
loop_
 _atom_site_type_symbol
 _atom_site_label
 _atom_site_symmetry_multiplicity
 _atom_site_fract_x
 _atom_site_fract_y
 _atom_site_fract_z
 _atom_site_occupancy
  Pd  Pd0  1  0.50000000  0.50000000  0.50000000  1
  Pd  Pd1  1  0.50000000  0.50000000  0.00000000  1
  Pb  Pb0  1  0.44723079  0.55276921  0.75000000  1
  Pb  Pb1  1  0.55276921  0.44723079  0.25000000  1
  Se  Se0  1  0.86697594  0.85513484  0.59520021  1
  Se  Se1  1  0.14486516  0.13302406  0.90479979  1
  Se  Se2  1  0.13302406  0.14486516  0.40479979  1
  Se  Se3  1  0.85513484  0.86697594  0.09520021  1
  O  O0  1  0.87837599  0.74062849  0.69950496  1
  O  O1  1  0.25937151  0.12162401  0.80049504  1
  O  O2  1  0.12162401  0.25937151  0.30049504  1
  O  O3  1  0.74062849  0.87837599  0.19950496  1
  O  O4  1  0.23835308  0.83717357  0.58144467  1
  O  O5  1  0.16282643  0.76164692  0.91855533  1
  O  O6  1  0.76164692  0.16282643  0.41855533  1
  O  O7  1  0.83717357  0.23835308  0.08144467  1
  O  O8  1  0.66867539  0.24828223  0.60792644  1
  O  O9  1  0.75171777  0.33132461  0.89207356  1
  O  O10  1  0.33132461  0.75171777  0.39207356  1
  O  O11  1  0.24828223  0.66867539  0.10792644  1
loop_
_geom_bond_atom_site_label_1
_geom_bond_atom_site_label_2
_geom_bond_distance
_geom_bond_site_symmetry_2
O0 Se0 1.683141 1_555
O0 Pb0 2.625672 1_655
O0 Pb0 2.662239 1_555
O1 Se1 1.683141 1_555
O1 Pb0 2.625672 1_545
O1 Pb0 2.662239 1_555
O2 Se2 1.683141 1_555
O2 Pb1 2.625672 1_455
O2 Pb1 2.662239 1_555
O3 Se3 1.683141 1_555
O3 Pb1 2.625672 1_565
O3 Pb1 2.662239 1_555
O4 Se0 1.751692 1_455
O4 Pd0 2.028055 1_555
O5 Se1 1.751691 1_565
O5 Pd1 2.028055 1_556
O6 Se2 1.751692 1_655
O6 Pd0 2.028055 1_555
O7 Se3 1.751691 1_545
O7 Pd1 2.028055 1_555
O8 Se0 1.736129 1_545
O8 Pd0 2.010983 1_555
O8 Pb0 2.616702 1_555
O9 Se1 1.736129 1_655
O9 Pd1 2.010984 1_556
O9 Pb0 2.616702 1_555
O10 Se2 1.736129 1_565
O10 Pd0 2.010983 1_555
O10 Pb1 2.616702 1_555
O11 Se3 1.736129 1_455
O11 Pd1 2.010984 1_555
O11 Pb1 2.616702 1_555
