# generated using pymatgen
data_Hf6Zn11Cu12Ge
_symmetry_space_group_name_H-M   'P 1'
_cell_length_a   8.44856538
_cell_length_b   8.43900665
_cell_length_c   8.43900619
_cell_angle_alpha   60.00000181
_cell_angle_beta   60.03742126
_cell_angle_gamma   60.03742147
_symmetry_Int_Tables_number   1
_chemical_formula_structural   Hf6Zn11Cu12Ge
_chemical_formula_sum   'Hf6 Zn11 Cu12 Ge1'
_cell_volume   425.69252865
_cell_formula_units_Z   1
loop_
 _symmetry_equiv_pos_site_id
 _symmetry_equiv_pos_as_xyz
  1  'x, y, z'
loop_
 _atom_site_type_symbol
 _atom_site_label
 _atom_site_symmetry_multiplicity
 _atom_site_fract_x
 _atom_site_fract_y
 _atom_site_fract_z
 _atom_site_occupancy
  Hf  Hf0  1  0.72856057  0.27884317  0.27884317  1
  Hf  Hf1  1  0.27143943  0.72115683  0.72115683  1
  Hf  Hf2  1  0.27143943  0.72115683  0.28624791  1
  Hf  Hf3  1  0.72856057  0.27884317  0.71375209  1
  Hf  Hf4  1  0.27143943  0.28624791  0.72115683  1
  Hf  Hf5  1  0.72856057  0.71375209  0.27884317  1
  Zn  Zn0  1  0.63079353  0.12306882  0.12306882  1
  Zn  Zn1  1  0.36920647  0.87693118  0.87693118  1
  Zn  Zn2  1  0.33242650  0.33596910  0.33596910  1
  Zn  Zn3  1  0.66757350  0.66403090  0.66403090  1
  Zn  Zn4  1  0.33242650  0.33596910  0.99563731  1
  Zn  Zn5  1  0.33242650  0.99563731  0.33596910  1
  Zn  Zn6  1  0.66757350  0.66403090  0.00436269  1
  Zn  Zn7  1  0.66757350  0.00436269  0.66403090  1
  Zn  Zn8  1  0.01089482  0.32970239  0.32970239  1
  Zn  Zn9  1  0.98910518  0.67029761  0.67029761  1
  Zn  Zn10  1  0.00000000  0.00000000  0.00000000  1
  Cu  Cu0  1  0.12338473  0.12064751  0.12064751  1
  Cu  Cu1  1  0.87661527  0.87935249  0.87935249  1
  Cu  Cu2  1  0.12338473  0.12064751  0.63531826  1
  Cu  Cu3  1  0.12338473  0.63531826  0.12064751  1
  Cu  Cu4  1  0.87661527  0.87935249  0.36468174  1
  Cu  Cu5  1  0.87661527  0.36468174  0.87935249  1
  Cu  Cu6  1  0.50000000  0.00000000  0.00000000  1
  Cu  Cu7  1  0.00000000  0.50000000  0.50000000  1
  Cu  Cu8  1  0.00000000  0.50000000  0.00000000  1
  Cu  Cu9  1  0.50000000  0.00000000  0.50000000  1
  Cu  Cu10  1  0.00000000  0.00000000  0.50000000  1
  Cu  Cu11  1  0.50000000  0.50000000  0.00000000  1
  Ge  Ge0  1  0.50000000  0.50000000  0.50000000  1
loop_
_geom_bond_atom_site_label_1
_geom_bond_atom_site_label_2
_geom_bond_distance
_geom_bond_site_symmetry_2
Hf0 Zn0 2.834755 1_555
Hf0 Zn7 2.861293 1_555
Hf0 Zn6 2.861293 1_555
Hf0 Zn8 2.878826 1_655
Hf0 Zn2 2.945310 1_555
Hf1 Zn1 2.834755 1_555
Hf1 Zn5 2.861293 1_555
Hf1 Zn4 2.861293 1_555
Hf1 Zn9 2.878826 1_455
Hf1 Zn3 2.945310 1_555
Hf2 Zn1 2.834762 1_554
Hf2 Zn2 2.861290 1_555
Hf2 Zn5 2.861298 1_555
Hf2 Zn9 2.878810 1_455
Hf2 Zn6 2.945318 1_555
Hf3 Zn0 2.834762 1_556
Hf3 Zn3 2.861290 1_555
Hf3 Zn7 2.861298 1_555
Hf3 Zn8 2.878810 1_655
Hf3 Zn4 2.945318 1_555
Hf4 Zn1 2.834762 1_545
Hf4 Zn2 2.861290 1_555
Hf4 Zn4 2.861298 1_555
Hf4 Zn9 2.878810 1_455
Hf4 Zn7 2.945318 1_555
Hf5 Zn0 2.834762 1_565
Hf5 Zn3 2.861290 1_555
Hf5 Zn6 2.861298 1_555
Hf5 Zn8 2.878810 1_655
Hf5 Zn5 2.945318 1_555
Zn0 Zn10 2.548309 1_655
Zn0 Zn4 2.643966 1_554
Zn0 Zn5 2.643966 1_545
Zn0 Zn2 2.643975 1_555
Zn1 Zn10 2.548309 1_566
Zn1 Zn6 2.643966 1_556
Zn1 Zn7 2.643966 1_565
Zn1 Zn3 2.643975 1_555
Zn2 Zn8 2.770317 1_555
Zn2 Zn4 2.872062 1_554
Zn2 Zn5 2.872062 1_545
Zn3 Zn9 2.770317 1_555
Zn3 Zn6 2.872062 1_556
Zn3 Zn7 2.872062 1_565
Zn4 Zn8 2.770317 1_556
Zn4 Zn5 2.872062 1_546
Zn5 Zn8 2.770317 1_565
Zn6 Zn9 2.770317 1_554
Zn6 Zn7 2.872062 1_564
Zn7 Zn9 2.770317 1_545
Cu0 Zn10 2.513321 1_555
Cu0 Cu6 2.600428 1_555
Cu0 Cu10 2.615197 1_555
Cu0 Cu8 2.615197 1_555
Cu0 Zn8 2.625079 1_555
Cu0 Zn5 2.638454 1_545
Cu0 Zn4 2.638454 1_554
Cu0 Hf0 2.752696 1_455
Cu0 Hf4 2.775930 1_554
Cu0 Hf2 2.775930 1_545
Cu0 Zn1 2.910377 1_544
Cu0 Cu5 2.914195 1_454
Cu0 Cu4 2.914195 1_445
Cu1 Zn10 2.513321 1_666
Cu1 Cu6 2.600428 1_566
Cu1 Cu10 2.615197 1_665
Cu1 Cu8 2.615197 1_656
Cu1 Zn9 2.625079 1_555
Cu1 Zn7 2.638454 1_565
Cu1 Zn6 2.638454 1_556
Cu1 Hf1 2.752696 1_655
Cu1 Hf5 2.775930 1_556
Cu1 Hf3 2.775930 1_565
Cu1 Zn0 2.910377 1_566
Cu1 Cu3 2.914195 1_656
Cu1 Cu2 2.914195 1_665
Cu2 Zn10 2.513335 1_556
Cu2 Cu9 2.600428 1_555
Cu2 Cu7 2.615197 1_555
Cu2 Zn8 2.625051 1_555
Cu2 Zn5 2.638426 1_545
Cu2 Zn2 2.638444 1_555
Cu2 Hf3 2.752695 1_455
Cu2 Hf1 2.775927 1_545
Cu2 Hf4 2.775949 1_555
Cu2 Zn1 2.910389 1_545
Cu2 Cu5 2.914219 1_455
Cu3 Zn10 2.513335 1_565
Cu3 Cu8 2.615183 1_555
Cu3 Cu7 2.615197 1_555
Cu3 Zn8 2.625051 1_555
Cu3 Zn4 2.638426 1_554
Cu3 Zn2 2.638444 1_555
Cu3 Hf5 2.752695 1_455
Cu3 Hf1 2.775927 1_554
Cu3 Hf2 2.775949 1_555
Cu3 Zn1 2.910389 1_554
Cu3 Cu4 2.914219 1_455
Cu4 Zn10 2.513335 1_665
Cu4 Cu9 2.600428 1_565
Cu4 Cu7 2.615197 1_655
Cu4 Zn9 2.625051 1_555
Cu4 Zn7 2.638426 1_565
Cu4 Zn3 2.638444 1_555
Cu4 Hf2 2.752695 1_655
Cu4 Hf0 2.775927 1_565
Cu4 Hf5 2.775949 1_555
Cu4 Zn0 2.910389 1_565
Cu5 Zn10 2.513335 1_656
Cu5 Cu8 2.615183 1_656
Cu5 Cu7 2.615197 1_655
Cu5 Zn9 2.625051 1_555
Cu5 Zn6 2.638426 1_556
Cu5 Zn3 2.638444 1_555
Cu5 Hf4 2.752695 1_655
Cu5 Hf0 2.775927 1_556
Cu5 Hf3 2.775949 1_555
Cu5 Zn0 2.910389 1_556
Cu6 Zn5 2.445924 1_545
Cu6 Zn7 2.445924 1_554
Cu6 Zn4 2.445924 1_554
Cu6 Zn6 2.445924 1_545
Cu6 Zn0 2.598018 1_555
Cu6 Zn1 2.598018 1_544
Cu6 Hf5 3.049029 1_545
Cu6 Hf4 3.049029 1_554
Cu6 Hf3 3.049029 1_554
Cu6 Hf2 3.049029 1_545
Cu7 Zn3 2.422742 1_455
Cu7 Zn2 2.422742 1_555
Cu7 Zn9 2.437282 1_455
Cu7 Zn8 2.437282 1_555
Cu7 Hf4 2.961885 1_555
Cu7 Hf5 2.961885 1_455
Cu7 Hf2 2.961885 1_555
Cu7 Hf3 2.961885 1_455
Cu8 Zn4 2.422747 1_554
Cu8 Zn6 2.422747 1_455
Cu8 Zn8 2.437296 1_555
Cu8 Zn9 2.437296 1_454
Cu8 Hf5 2.961879 1_455
Cu8 Hf4 2.961879 1_554
Cu8 Hf1 2.961885 1_554
Cu8 Hf0 2.961885 1_455
Cu9 Zn7 2.445909 1_555
Cu9 Zn5 2.445909 1_545
Cu9 Zn2 2.445919 1_555
Cu9 Zn3 2.445919 1_545
Cu9 Zn1 2.598018 1_545
Cu9 Zn0 2.598018 1_555
Cu9 Hf0 3.049028 1_555
Cu9 Hf1 3.049028 1_545
Cu9 Hf4 3.049034 1_555
Cu9 Hf5 3.049034 1_545
Cu10 Zn5 2.422747 1_545
Cu10 Zn7 2.422747 1_455
Cu10 Zn8 2.437297 1_555
Cu10 Zn9 2.437297 1_445
Cu10 Cu2 2.615183 1_555
Cu10 Cu4 2.615183 1_445
Cu10 Hf3 2.961879 1_455
Cu10 Hf2 2.961879 1_545
Cu10 Hf1 2.961885 1_545
Cu10 Hf0 2.961885 1_455
Cu11 Zn6 2.445909 1_555
Cu11 Zn4 2.445909 1_554
Cu11 Zn3 2.445919 1_554
Cu11 Zn2 2.445919 1_555
Cu11 Zn1 2.598018 1_554
Cu11 Zn0 2.598018 1_555
Cu11 Cu5 2.600428 1_554
Cu11 Cu3 2.600428 1_555
Cu11 Hf0 3.049028 1_555
Cu11 Hf1 3.049028 1_554
Cu11 Hf2 3.049034 1_555
Cu11 Hf3 3.049034 1_554
Ge0 Hf3 2.641739 1_555
Ge0 Hf2 2.641739 1_555
Ge0 Hf5 2.641739 1_555
Ge0 Hf4 2.641739 1_555
Ge0 Hf1 2.641745 1_555
Ge0 Hf0 2.641745 1_555
