# generated using pymatgen
data_SrB2As2O7
_symmetry_space_group_name_H-M   'P 1'
_cell_length_a   7.71665299
_cell_length_b   7.71665317
_cell_length_c   7.71665288
_cell_angle_alpha   36.51598973
_cell_angle_beta   36.51599111
_cell_angle_gamma   36.51598803
_symmetry_Int_Tables_number   1
_chemical_formula_structural   SrB2As2O7
_chemical_formula_sum   'Sr1 B2 As2 O7'
_cell_volume   145.65647798
_cell_formula_units_Z   1
loop_
 _symmetry_equiv_pos_site_id
 _symmetry_equiv_pos_as_xyz
  1  'x, y, z'
loop_
 _atom_site_type_symbol
 _atom_site_label
 _atom_site_symmetry_multiplicity
 _atom_site_fract_x
 _atom_site_fract_y
 _atom_site_fract_z
 _atom_site_occupancy
  Sr  Sr0  1  0.50000000  0.50000000  0.50000000  1
  B  B0  1  0.06589092  0.06589092  0.06589092  1
  B  B1  1  0.93410908  0.93410908  0.93410908  1
  As  As0  1  0.28460201  0.28460201  0.28460201  1
  As  As1  1  0.71539799  0.71539799  0.71539799  1
  O  O0  1  0.00000000  0.00000000  0.00000000  1
  O  O1  1  0.40892192  0.85613449  0.01310911  1
  O  O2  1  0.59107808  0.98688989  0.14386651  1
  O  O3  1  0.85613349  0.01310911  0.40892292  1
  O  O4  1  0.98689089  0.14386651  0.59107708  1
  O  O5  1  0.01311011  0.40892192  0.85613349  1
  O  O6  1  0.14386551  0.59107808  0.98689089  1
loop_
_geom_bond_atom_site_label_1
_geom_bond_atom_site_label_2
_geom_bond_distance
_geom_bond_site_symmetry_2
B0 O0 1.422059 1_555
B0 O1 1.494144 1_545
B0 O5 1.494145 1_554
B0 O3 1.494148 1_455
B1 O0 1.422059 1_666
B1 O6 1.494144 1_655
B1 O2 1.494145 1_556
B1 O4 1.494148 1_565
As0 O4 1.788594 1_455
As0 O6 1.788597 1_554
As0 O2 1.788598 1_545
As1 O3 1.788594 1_565
As1 O1 1.788597 1_556
As1 O5 1.788598 1_655
O1 Sr0 2.589559 1_555
O2 Sr0 2.589555 1_555
O3 Sr0 2.589557 1_555
O4 Sr0 2.589557 1_555
O5 Sr0 2.589555 1_555
O6 Sr0 2.589559 1_555
