# generated using pymatgen
data_Sr4Cu(Si2Pt)5
_symmetry_space_group_name_H-M   'P 1'
_cell_length_a   8.36021012
_cell_length_b   8.36020979
_cell_length_c   8.36213122
_cell_angle_alpha   138.02938739
_cell_angle_beta   105.42594486
_cell_angle_gamma   89.44349912
_symmetry_Int_Tables_number   1
_chemical_formula_structural   Sr4Cu(Si2Pt)5
_chemical_formula_sum   'Sr4 Cu1 Si10 Pt5'
_cell_volume   360.38716248
_cell_formula_units_Z   1
loop_
 _symmetry_equiv_pos_site_id
 _symmetry_equiv_pos_as_xyz
  1  'x, y, z'
loop_
 _atom_site_type_symbol
 _atom_site_label
 _atom_site_symmetry_multiplicity
 _atom_site_fract_x
 _atom_site_fract_y
 _atom_site_fract_z
 _atom_site_occupancy
  Sr  Sr0  1  0.11036670  0.87330740  0.23863698  1
  Sr  Sr1  1  0.88968756  0.12818874  0.76289979  1
  Sr  Sr2  1  0.63467142  0.37172971  0.26136302  1
  Sr  Sr3  1  0.36528795  0.62678677  0.73710021  1
  Cu  Cu0  1  0.49991779  0.74991779  0.25000000  1
  Si  Si0  1  0.00001535  0.75001535  0.75000000  1
  Si  Si1  1  0.99998421  0.24998421  0.25000000  1
  Si  Si2  1  0.26975922  0.01975922  0.75000000  1
  Si  Si3  1  0.73017340  0.48017340  0.75000000  1
  Si  Si4  1  0.73371853  0.98371853  0.25000000  1
  Si  Si5  1  0.26642865  0.51642865  0.25000000  1
  Si  Si6  1  0.75813613  0.61719287  0.14722391  1
  Si  Si7  1  0.24185628  0.38914272  0.85919601  1
  Si  Si8  1  0.46996996  0.11091222  0.35277609  1
  Si  Si9  1  0.52994671  0.88266127  0.64080399  1
  Pt  Pt0  1  0.50006343  0.25006343  0.75000000  1
  Pt  Pt1  1  0.02206538  0.63624571  0.38899368  1
  Pt  Pt2  1  0.97790107  0.36692668  0.61413043  1
  Pt  Pt3  1  0.24725303  0.13307270  0.11100632  1
  Pt  Pt4  1  0.75279625  0.86377064  0.88586957  1
loop_
_geom_bond_atom_site_label_1
_geom_bond_atom_site_label_2
_geom_bond_distance
_geom_bond_site_symmetry_2
Cu0 Si9 2.479988 1_555
Cu0 Si7 2.479992 1_554
Cu0 Si8 2.480427 1_565
Cu0 Si6 2.480429 1_555
Cu0 Si5 2.773944 1_555
Cu0 Si4 2.777646 1_555
Cu0 Pt0 2.994374 1_554
Cu0 Pt0 2.994374 1_565
Cu0 Sr0 3.405188 1_555
Cu0 Sr2 3.405190 1_555
Cu0 Sr3 3.407468 1_554
Cu0 Sr1 3.407474 1_565
Si0 Sr3 3.216720 1_555
Si0 Sr1 3.216726 1_465
Si0 Sr2 3.218652 1_455
Si0 Sr0 3.218657 1_556
Si1 Sr2 3.212888 1_555
Si1 Sr0 3.212895 1_645
Si1 Sr3 3.214176 1_655
Si1 Sr1 3.214181 1_554
Si2 Si9 2.516155 1_545
Si2 Si7 2.516156 1_555
Si2 Sr0 3.282529 1_545
Si2 Sr2 3.282534 1_556
Si2 Sr1 3.303139 1_455
Si2 Sr3 3.303145 1_545
Si3 Si8 2.516805 1_555
Si3 Si6 2.516810 1_556
Si3 Sr1 3.281551 1_555
Si3 Sr3 3.281555 1_555
Si3 Sr0 3.305341 1_656
Si3 Sr2 3.305341 1_555
Si4 Si8 2.516945 1_565
Si4 Si6 2.516953 1_555
Si4 Sr2 3.278513 1_565
Si4 Sr0 3.278515 1_655
Si4 Sr1 3.302523 1_565
Si4 Sr3 3.302528 1_554
Si5 Si7 2.515986 1_554
Si5 Si9 2.515988 1_555
Si5 Sr1 3.280404 1_454
Si5 Sr3 3.280410 1_555
Si5 Sr0 3.300461 1_555
Si5 Sr2 3.300468 1_555
Si6 Sr2 3.108905 1_555
Si6 Sr0 3.214271 1_655
Si6 Sr1 3.215592 1_565
Si6 Sr1 3.241520 1_554
Si7 Sr3 3.109821 1_555
Si7 Sr1 3.213655 1_455
Si7 Sr0 3.214282 1_556
Si7 Sr0 3.242701 1_545
Si8 Sr0 3.108916 1_545
Si8 Sr2 3.214271 1_555
Si8 Sr3 3.215590 1_544
Si8 Sr3 3.241523 1_555
Si9 Sr1 3.109829 1_565
Si9 Sr3 3.213673 1_555
Si9 Sr2 3.214292 1_555
Si9 Sr2 3.242699 1_566
Pt0 Si6 2.503017 1_556
Pt0 Si8 2.503019 1_555
Pt0 Si9 2.503324 1_545
Pt0 Si7 2.503332 1_555
Pt0 Si3 2.733799 1_555
Pt0 Si2 2.736106 1_555
Pt0 Sr3 3.401772 1_555
Pt0 Sr1 3.401777 1_555
Pt0 Sr2 3.403039 1_556
Pt0 Sr0 3.403039 1_545
Pt1 Si5 2.453581 1_555
Pt1 Si0 2.464713 1_555
Pt1 Si2 2.468241 1_565
Pt1 Si1 2.475741 1_455
Pt1 Si6 2.477132 1_455
Pt1 Sr0 3.206419 1_555
Pt1 Sr1 3.247558 1_465
Pt1 Sr1 3.258568 1_454
Pt1 Sr2 3.362934 1_455
Pt1 Sr3 3.550720 1_555
Pt2 Si4 2.453038 1_545
Pt2 Si0 2.464004 1_655
Pt2 Si3 2.467932 1_555
Pt2 Si1 2.475953 1_555
Pt2 Si7 2.477881 1_655
Pt2 Sr1 3.206846 1_555
Pt2 Sr0 3.249680 1_656
Pt2 Sr0 3.257143 1_645
Pt2 Sr3 3.362891 1_655
Pt2 Sr2 3.550797 1_555
Pt3 Si5 2.453574 1_555
Pt3 Si0 2.464721 1_544
Pt3 Si2 2.468233 1_554
Pt3 Si1 2.475749 1_455
Pt3 Si8 2.477138 1_555
Pt3 Sr2 3.206416 1_555
Pt3 Sr3 3.247558 1_544
Pt3 Sr3 3.258569 1_555
Pt3 Sr0 3.362952 1_545
Pt3 Sr1 3.550720 1_454
Pt4 Si4 2.453038 1_556
Pt4 Si0 2.464004 1_655
Pt4 Si3 2.467932 1_555
Pt4 Si1 2.475954 1_566
Pt4 Si9 2.477887 1_555
Pt4 Sr3 3.206857 1_555
Pt4 Sr2 3.249681 1_555
Pt4 Sr2 3.257138 1_566
Pt4 Sr1 3.362902 1_565
Pt4 Sr0 3.550802 1_656
