# generated using pymatgen
data_Cs2NaTaSe4
_symmetry_space_group_name_H-M   'P 1'
_cell_length_a   14.55953319
_cell_length_b   13.05777296
_cell_length_c   8.05492334
_cell_angle_alpha   83.61129963
_cell_angle_beta   63.03507094
_cell_angle_gamma   33.35362711
_symmetry_Int_Tables_number   1
_chemical_formula_structural   Cs2NaTaSe4
_chemical_formula_sum   'Cs4 Na2 Ta2 Se8'
_cell_volume   628.75938955
_cell_formula_units_Z   2
loop_
 _symmetry_equiv_pos_site_id
 _symmetry_equiv_pos_as_xyz
  1  'x, y, z'
loop_
 _atom_site_type_symbol
 _atom_site_label
 _atom_site_symmetry_multiplicity
 _atom_site_fract_x
 _atom_site_fract_y
 _atom_site_fract_z
 _atom_site_occupancy
  Cs  Cs0  1  0.67996145  0.67996145  0.32003855  1
  Cs  Cs1  1  0.32003855  0.32003855  0.67996145  1
  Cs  Cs2  1  0.57003855  0.57003855  0.92996145  1
  Cs  Cs3  1  0.92996145  0.92996145  0.57003855  1
  Na  Na0  1  0.00000000  0.00000000  0.00000000  1
  Na  Na1  1  0.25000000  0.25000000  0.25000000  1
  Ta  Ta0  1  0.50000000  0.50000000  0.50000000  1
  Ta  Ta1  1  0.75000000  0.75000000  0.75000000  1
  Se  Se0  1  0.25816553  0.85190671  0.54889947  1
  Se  Se1  1  0.34102829  0.54889947  0.85190671  1
  Se  Se2  1  0.54889947  0.34102829  0.25816553  1
  Se  Se3  1  0.85190671  0.25816553  0.34102829  1
  Se  Se4  1  0.39809329  0.99183447  0.90897171  1
  Se  Se5  1  0.90897171  0.70110053  0.39809329  1
  Se  Se6  1  0.70110053  0.90897171  0.99183447  1
  Se  Se7  1  0.99183447  0.39809329  0.70110053  1
loop_
_geom_bond_atom_site_label_1
_geom_bond_atom_site_label_2
_geom_bond_distance
_geom_bond_site_symmetry_2
Cs0 Se3 3.711185 1_555
Cs0 Se0 3.711185 1_555
Cs0 Se7 3.828054 1_554
Cs0 Se4 3.828054 1_555
Cs0 Se6 3.881526 1_554
Cs0 Se5 3.881526 1_555
Cs1 Se2 3.711185 1_555
Cs1 Se1 3.711185 1_555
Cs1 Se6 3.828055 1_455
Cs1 Se5 3.828055 1_545
Cs1 Se4 3.881526 1_545
Cs1 Se7 3.881526 1_455
Cs2 Se4 3.711185 1_555
Cs2 Se7 3.711185 1_555
Cs2 Se0 3.828054 1_556
Cs2 Se3 3.828054 1_555
Cs2 Se2 3.881526 1_556
Cs2 Se1 3.881526 1_555
Cs3 Se6 3.711185 1_555
Cs3 Se5 3.711185 1_555
Cs3 Se2 3.828055 1_655
Cs3 Se1 3.828055 1_565
Cs3 Se3 3.881526 1_565
Cs3 Se0 3.881526 1_655
Na0 Se0 2.847018 1_544
Na0 Se3 2.847018 1_455
Na0 Se2 2.847018 1_455
Na0 Se1 2.847019 1_544
Na1 Se7 2.847018 1_455
Na1 Se4 2.847018 1_544
Na1 Se6 2.847018 1_544
Na1 Se5 2.847019 1_455
Se0 Ta0 2.404924 1_555
Se1 Ta0 2.404924 1_555
Se2 Ta0 2.404924 1_555
Se3 Ta0 2.404924 1_555
Se4 Ta1 2.404924 1_555
Se5 Ta1 2.404924 1_555
Se6 Ta1 2.404924 1_555
Se7 Ta1 2.404924 1_555
