# generated using pymatgen
data_Zr4ScRe24
_symmetry_space_group_name_H-M   'P 1'
_cell_length_a   8.44564857
_cell_length_b   8.44564698
_cell_length_c   8.44564808
_cell_angle_alpha   109.47122798
_cell_angle_beta   109.47122418
_cell_angle_gamma   109.47121422
_symmetry_Int_Tables_number   1
_chemical_formula_structural   Zr4ScRe24
_chemical_formula_sum   'Zr4 Sc1 Re24'
_cell_volume   463.74260387
_cell_formula_units_Z   1
loop_
 _symmetry_equiv_pos_site_id
 _symmetry_equiv_pos_as_xyz
  1  'x, y, z'
loop_
 _atom_site_type_symbol
 _atom_site_label
 _atom_site_symmetry_multiplicity
 _atom_site_fract_x
 _atom_site_fract_y
 _atom_site_fract_z
 _atom_site_occupancy
  Zr  Zr0  1  0.37029874  0.37029874  0.37029874  1
  Zr  Zr1  1  1.00000000  0.62970126  1.00000000  1
  Zr  Zr2  1  0.62970126  0.00000000  0.00000000  1
  Zr  Zr3  1  1.00000000  1.00000000  0.62970126  1
  Sc  Sc0  1  0.00000000  0.00000000  0.00000000  1
  Re  Re0  1  1.00000000  0.39594936  0.67612724  1
  Re  Re1  1  0.28017888  0.60405064  0.60405064  1
  Re  Re2  1  0.71982112  0.32387276  0.32387276  1
  Re  Re3  1  0.32387276  0.71982112  0.32387276  1
  Re  Re4  1  0.67612724  0.00000000  0.39594936  1
  Re  Re5  1  1.00000000  0.67612724  0.39594936  1
  Re  Re6  1  0.60405064  0.60405064  0.28017888  1
  Re  Re7  1  0.80602515  0.80602515  0.18228588  1
  Re  Re8  1  0.37626172  0.19397485  0.00000000  1
  Re  Re9  1  0.19397485  0.37626172  0.00000000  1
  Re  Re10  1  0.62373828  0.81771412  0.62373828  1
  Re  Re11  1  0.37626172  1.00000000  0.19397485  1
  Re  Re12  1  0.00000000  0.37626172  0.19397485  1
  Re  Re13  1  0.81771412  0.62373828  0.62373828  1
  Re  Re14  1  0.18228588  0.80602515  0.80602515  1
  Re  Re15  1  0.80602515  0.18228588  0.80602515  1
  Re  Re16  1  0.19397485  1.00000000  0.37626172  1
  Re  Re17  1  0.00000000  0.19397485  0.37626172  1
  Re  Re18  1  0.62373828  0.62373828  0.81771412  1
  Re  Re19  1  0.39594936  1.00000000  0.67612724  1
  Re  Re20  1  0.60405064  0.28017888  0.60405064  1
  Re  Re21  1  0.67612724  0.39594936  1.00000000  1
  Re  Re22  1  0.39594936  0.67612724  1.00000000  1
  Re  Re23  1  0.32387276  0.32387276  0.71982112  1
loop_
_geom_bond_atom_site_label_1
_geom_bond_atom_site_label_2
_geom_bond_distance
_geom_bond_site_symmetry_2
Sc0 Zr1 3.127412 1_444
Sc0 Zr0 3.127413 1_555
Sc0 Zr3 3.127413 1_444
Sc0 Zr2 3.127413 1_455
Re0 Re17 2.538423 1_655
Re0 Re9 2.773236 1_656
Re0 Re15 2.773241 1_555
Re0 Zr1 2.789148 1_555
Re0 Re2 2.821316 1_555
Re0 Re1 2.821319 1_655
Re0 Re13 2.890480 1_555
Re0 Re14 2.890485 1_655
Re0 Re4 2.928405 1_555
Re0 Re22 2.928406 1_655
Re0 Re23 2.928407 1_655
Re0 Re20 2.928407 1_555
Re0 Zr3 3.234544 1_545
Re1 Re14 2.538436 1_555
Re1 Re18 2.773232 1_555
Re1 Re10 2.773232 1_555
Re1 Zr0 2.789141 1_555
Re1 Re5 2.821319 1_455
Re1 Re17 2.890487 1_555
Re1 Re12 2.890487 1_555
Re1 Re23 2.928398 1_555
Re1 Re3 2.928399 1_555
Re1 Re19 2.928406 1_555
Re1 Re22 2.928406 1_555
Re1 Zr2 3.234542 1_566
Re2 Re8 2.773231 1_555
Re2 Zr2 2.789151 1_555
Re2 Re5 2.821316 1_555
Re2 Re6 2.928398 1_555
Re2 Re20 2.928399 1_555
Re2 Re4 2.928406 1_555
Re2 Re21 2.928407 1_554
Re2 Zr0 3.234536 1_555
Re3 Re9 2.773231 1_555
Re3 Zr1 2.789151 1_454
Re3 Re4 2.821317 1_565
Re3 Re6 2.928398 1_555
Re3 Re5 2.928407 1_455
Re3 Zr0 3.234535 1_555
Re4 Re7 2.773241 1_545
Re4 Zr3 2.789148 1_545
Re4 Re6 2.928406 1_545
Re4 Zr2 3.234544 1_555
Re5 Re7 2.773241 1_555
Re5 Zr3 2.789148 1_555
Re5 Re6 2.928407 1_555
Re5 Zr1 3.234544 1_554
Re6 Re7 2.538436 1_555
Re6 Zr0 2.789142 1_555
Re6 Re8 2.890487 1_555
Re6 Re9 2.890488 1_555
Re6 Zr3 3.234542 1_555
Re7 Zr2 3.008490 1_565
Re7 Zr1 3.008490 1_554
Re7 Sc0 3.051459 1_665
Re7 Zr3 3.098901 1_555
Re8 Re9 2.514043 1_555
Re8 Zr0 3.008494 1_555
Re8 Zr3 3.008494 1_444
Re8 Sc0 3.051466 1_555
Re8 Zr2 3.098894 1_555
Re9 Zr3 3.008494 1_444
Re9 Zr0 3.008494 1_555
Re9 Sc0 3.051466 1_555
Re9 Zr1 3.098894 1_454
Re10 Re15 2.514029 1_565
Re10 Re3 2.538417 1_555
Re10 Re13 2.675254 1_555
Re10 Re18 2.675254 1_555
Re10 Re6 2.773231 1_555
Re10 Re19 2.890480 1_555
Re10 Re4 2.890480 1_565
Re10 Zr2 3.008493 1_566
Re10 Zr3 3.008494 1_555
Re10 Sc0 3.051467 1_666
Re10 Zr0 3.098900 1_555
Re11 Re16 2.514043 1_555
Re11 Re4 2.538423 1_565
Re11 Re14 2.675240 1_554
Re11 Re8 2.675240 1_565
Re11 Re2 2.773231 1_565
Re11 Re22 2.773236 1_554
Re11 Re20 2.890487 1_565
Re11 Re3 2.890493 1_555
Re11 Zr0 3.008494 1_565
Re11 Zr1 3.008494 1_454
Re11 Sc0 3.051466 1_565
Re11 Zr2 3.098894 1_565
Re12 Re17 2.514043 1_555
Re12 Re5 2.538422 1_455
Re12 Re15 2.675240 1_454
Re12 Re9 2.675240 1_555
Re12 Re3 2.773231 1_555
Re12 Re21 2.773236 1_454
Re12 Re2 2.890494 1_455
Re12 Zr2 3.008494 1_455
Re12 Zr0 3.008495 1_555
Re12 Sc0 3.051465 1_555
Re12 Zr1 3.098894 1_454
Re13 Re14 2.514030 1_655
Re13 Re2 2.538417 1_555
Re13 Re18 2.675254 1_555
Re13 Re20 2.773232 1_555
Re13 Re6 2.773232 1_555
Re13 Re5 2.890480 1_555
Re13 Zr3 3.008493 1_555
Re13 Zr1 3.008493 1_555
Re13 Sc0 3.051467 1_666
Re13 Zr0 3.098901 1_555
Re14 Re8 2.675240 1_566
Re14 Re22 2.773241 1_555
Re14 Re19 2.773241 1_555
Re14 Re5 2.890486 1_455
Re14 Zr3 3.008490 1_455
Re14 Zr1 3.008490 1_455
Re14 Sc0 3.051459 1_566
Re14 Zr2 3.098902 1_566
Re15 Re20 2.538436 1_555
Re15 Re9 2.675240 1_656
Re15 Re21 2.773241 1_555
Re15 Re4 2.890486 1_555
Re15 Re19 2.890486 1_545
Re15 Zr3 3.008490 1_545
Re15 Zr2 3.008490 1_556
Re15 Sc0 3.051459 1_656
Re15 Zr1 3.098901 1_555
Re16 Re19 2.538423 1_555
Re16 Re17 2.675240 1_565
Re16 Re7 2.675240 1_455
Re16 Re23 2.773231 1_565
Re16 Re5 2.773236 1_455
Re16 Re20 2.890488 1_565
Re16 Re3 2.890493 1_555
Re16 Zr1 3.008494 1_454
Re16 Zr0 3.008494 1_565
Re16 Sc0 3.051466 1_565
Re16 Zr3 3.098894 1_455
Re17 Re7 2.675240 1_445
Re17 Re23 2.773231 1_555
Re17 Re4 2.773236 1_455
Re17 Re2 2.890493 1_455
Re17 Zr2 3.008494 1_455
Re17 Zr0 3.008495 1_555
Re17 Sc0 3.051466 1_555
Re17 Zr3 3.098894 1_445
Re18 Re7 2.514029 1_556
Re18 Re23 2.538417 1_555
Re18 Re20 2.773231 1_555
Re18 Re21 2.890480 1_555
Re18 Re22 2.890480 1_555
Re18 Zr2 3.008493 1_566
Re18 Zr1 3.008493 1_555
Re18 Sc0 3.051468 1_666
Re18 Zr0 3.098900 1_555
Re19 Re8 2.773236 1_566
Re19 Zr2 2.789148 1_566
Re19 Re3 2.821316 1_555
Re19 Re20 2.821319 1_565
Re19 Re21 2.928405 1_565
Re19 Re5 2.928406 1_455
Re19 Re23 2.928406 1_565
Re19 Zr3 3.234544 1_455
Re20 Zr0 2.789142 1_555
Re20 Re4 2.821319 1_555
Re20 Re23 2.928399 1_555
Re20 Re21 2.928406 1_555
Re20 Zr1 3.234542 1_555
Re21 Re8 2.538423 1_556
Re21 Zr1 2.789148 1_555
Re21 Re23 2.821317 1_555
Re21 Re6 2.821319 1_556
Re21 Re7 2.890485 1_556
Re21 Re5 2.928405 1_556
Re21 Zr2 3.234544 1_556
Re22 Re9 2.538423 1_556
Re22 Zr2 2.789148 1_566
Re22 Re23 2.821316 1_555
Re22 Re6 2.821319 1_556
Re22 Re7 2.890486 1_556
Re22 Re4 2.928405 1_566
Re22 Re3 2.928407 1_556
Re22 Zr1 3.234544 1_455
Re23 Zr3 2.789151 1_445
Re23 Re8 2.890493 1_556
Re23 Re9 2.890494 1_556
Re23 Zr0 3.234536 1_555
