# generated using pymatgen
data_K3Na2ZrAs3
_symmetry_space_group_name_H-M   'P 1'
_cell_length_a   10.83702660
_cell_length_b   10.83702492
_cell_length_c   15.23703606
_cell_angle_alpha   90.00000000
_cell_angle_beta   90.00000000
_cell_angle_gamma   142.91647339
_symmetry_Int_Tables_number   1
_chemical_formula_structural   K3Na2ZrAs3
_chemical_formula_sum   'K12 Na8 Zr4 As12'
_cell_volume   1079.00296692
_cell_formula_units_Z   4
loop_
 _symmetry_equiv_pos_site_id
 _symmetry_equiv_pos_as_xyz
  1  'x, y, z'
loop_
 _atom_site_type_symbol
 _atom_site_label
 _atom_site_symmetry_multiplicity
 _atom_site_fract_x
 _atom_site_fract_y
 _atom_site_fract_z
 _atom_site_occupancy
  K  K0  1  0.60452990  0.94549441  0.82204645  1
  K  K1  1  0.27614302  0.27614302  0.31598455  1
  K  K2  1  0.22385698  0.22385698  0.81598455  1
  K  K3  1  0.72385698  0.72385698  0.68401545  1
  K  K4  1  0.44549441  0.10452990  0.67795355  1
  K  K5  1  0.89547010  0.55450559  0.32204645  1
  K  K6  1  0.05450559  0.39547010  0.17795355  1
  K  K7  1  0.39547010  0.05450559  0.17795355  1
  K  K8  1  0.55450559  0.89547010  0.32204645  1
  K  K9  1  0.10452990  0.44549441  0.67795355  1
  K  K10  1  0.94549441  0.60452990  0.82204645  1
  K  K11  1  0.77614302  0.77614302  0.18401545  1
  Na  Na0  1  0.08080339  0.91919661  0.00000000  1
  Na  Na1  1  0.58080339  0.41919661  0.50000000  1
  Na  Na2  1  0.91919661  0.08080339  0.00000000  1
  Na  Na3  1  0.75583479  0.24416521  0.00000000  1
  Na  Na4  1  0.74416521  0.25583479  0.50000000  1
  Na  Na5  1  0.24416521  0.75583479  0.00000000  1
  Na  Na6  1  0.25583479  0.74416521  0.50000000  1
  Na  Na7  1  0.41919661  0.58080339  0.50000000  1
  Zr  Zr0  1  0.08681673  0.91318327  0.50000000  1
  Zr  Zr1  1  0.41318327  0.58681673  0.00000000  1
  Zr  Zr2  1  0.91318327  0.08681673  0.50000000  1
  Zr  Zr3  1  0.58681673  0.41318327  0.00000000  1
  As  As0  1  0.06109950  0.37666662  0.39873215  1
  As  As1  1  0.87666662  0.56109950  0.10126785  1
  As  As2  1  0.43890050  0.12333338  0.89873215  1
  As  As3  1  0.62333338  0.93890050  0.60126785  1
  As  As4  1  0.93890050  0.62333338  0.60126785  1
  As  As5  1  0.12333338  0.43890050  0.89873215  1
  As  As6  1  0.56109950  0.87666662  0.10126785  1
  As  As7  1  0.37666662  0.06109950  0.39873215  1
  As  As8  1  0.20449270  0.20449270  0.59219851  1
  As  As9  1  0.70449270  0.70449270  0.90780149  1
  As  As10  1  0.29550730  0.29550730  0.09219851  1
  As  As11  1  0.79550730  0.79550730  0.40780149  1
loop_
_geom_bond_atom_site_label_1
_geom_bond_atom_site_label_2
_geom_bond_distance
_geom_bond_site_symmetry_2
As0 Zr2 2.604499 1_455
As0 Na7 2.938918 1_555
As0 Na4 2.952359 1_455
As0 Na6 3.047255 1_555
As0 K6 3.374379 1_555
As0 K1 3.501129 1_555
As0 K8 3.608459 1_445
As0 K8 3.687949 1_555
As0 K5 3.717616 1_455
As1 Zr3 2.604500 1_555
As1 Na0 2.938918 1_655
As1 Na3 2.952359 1_555
As1 Na5 3.047256 1_655
As1 K5 3.374379 1_555
As1 K11 3.501129 1_555
As1 K7 3.608459 1_555
As1 K7 3.687949 1_665
As1 K6 3.717616 1_655
As2 Zr3 2.604499 1_556
As2 Na0 2.938918 1_546
As2 Na3 2.952359 1_556
As2 Na5 3.047255 1_546
As2 K4 3.374379 1_555
As2 K2 3.501129 1_555
As2 K10 3.608459 1_555
As2 K10 3.687949 1_445
As2 K0 3.717616 1_545
As3 Zr2 2.604500 1_565
As3 Na7 2.938918 1_555
As3 Na4 2.952359 1_565
As3 Na6 3.047256 1_555
As3 K0 3.374379 1_555
As3 K3 3.501129 1_555
As3 K9 3.608459 1_665
As3 K9 3.687949 1_555
As3 K4 3.717616 1_565
As4 Zr0 2.604499 1_655
As4 Na1 2.938918 1_555
As4 Na6 2.952359 1_655
As4 Na4 3.047255 1_555
As4 K10 3.374379 1_555
As4 K3 3.501129 1_555
As4 K4 3.608459 1_665
As4 K4 3.687949 1_555
As4 K9 3.717616 1_655
As5 Zr1 2.604500 1_556
As5 Na2 2.938918 1_456
As5 Na5 2.952359 1_556
As5 Na3 3.047256 1_456
As5 K9 3.374379 1_555
As5 K2 3.501129 1_555
As5 K0 3.608459 1_555
As5 K0 3.687949 1_445
As5 K10 3.717616 1_455
As6 Zr1 2.604499 1_555
As6 Na2 2.938918 1_565
As6 Na5 2.952359 1_555
As6 Na3 3.047255 1_565
As6 K8 3.374379 1_555
As6 K11 3.501129 1_555
As6 K6 3.608459 1_555
As6 K6 3.687949 1_665
As6 K7 3.717616 1_565
As7 Zr0 2.604500 1_545
As7 Na1 2.938918 1_555
As7 Na6 2.952359 1_545
As7 Na4 3.047256 1_555
As7 K7 3.374379 1_555
As7 K1 3.501129 1_555
As7 K5 3.608459 1_445
As7 K5 3.687949 1_555
As7 K8 3.717616 1_545
As8 Zr0 2.672574 1_545
As8 Zr2 2.672574 1_455
As8 Na7 2.979727 1_555
As8 Na1 2.979727 1_555
As8 K2 3.412447 1_555
As8 K3 3.595970 1_445
As8 K9 3.770446 1_555
As8 K4 3.770446 1_555
As8 K3 3.843271 1_555
As9 Zr3 2.672574 1_556
As9 Zr1 2.672574 1_556
As9 Na2 2.979727 1_566
As9 Na0 2.979727 1_656
As9 K3 3.412447 1_555
As9 K2 3.595970 1_555
As9 K0 3.770446 1_555
As9 K10 3.770446 1_555
As9 K2 3.843271 1_665
As10 Zr1 2.672574 1_555
As10 Zr3 2.672574 1_555
As10 Na0 2.979727 1_545
As10 Na2 2.979727 1_455
As10 K1 3.412447 1_555
As10 K11 3.595970 1_555
As10 K7 3.770446 1_555
As10 K6 3.770446 1_555
As10 K11 3.843271 1_445
As11 Zr2 2.672574 1_565
As11 Zr0 2.672574 1_655
As11 Na1 2.979727 1_555
As11 Na7 2.979727 1_555
As11 K11 3.412447 1_555
As11 K1 3.595970 1_665
As11 K5 3.770446 1_555
As11 K8 3.770446 1_555
As11 K1 3.843271 1_555
