# generated using pymatgen
data_Rb3ScSi2O7
_symmetry_space_group_name_H-M   'P 1'
_cell_length_a   5.72524526
_cell_length_b   5.72524561
_cell_length_c   13.70147751
_cell_angle_alpha   90.00000000
_cell_angle_beta   90.00000000
_cell_angle_gamma   119.99999798
_symmetry_Int_Tables_number   1
_chemical_formula_structural   Rb3ScSi2O7
_chemical_formula_sum   'Rb6 Sc2 Si4 O14'
_cell_volume   388.94326990
_cell_formula_units_Z   2
loop_
 _symmetry_equiv_pos_site_id
 _symmetry_equiv_pos_as_xyz
  1  'x, y, z'
loop_
 _atom_site_type_symbol
 _atom_site_label
 _atom_site_symmetry_multiplicity
 _atom_site_fract_x
 _atom_site_fract_y
 _atom_site_fract_z
 _atom_site_occupancy
  Rb  Rb0  1  0.33333300  0.66666700  0.39587972  1
  Rb  Rb1  1  0.00000000  0.00000000  0.25000000  1
  Rb  Rb2  1  0.66666700  0.33333300  0.60412028  1
  Rb  Rb3  1  0.33333300  0.66666700  0.10412028  1
  Rb  Rb4  1  0.66666700  0.33333300  0.89587972  1
  Rb  Rb5  1  0.00000000  0.00000000  0.75000000  1
  Sc  Sc0  1  0.00000000  0.00000000  0.50000000  1
  Sc  Sc1  1  0.00000000  0.00000000  0.00000000  1
  Si  Si0  1  0.33333300  0.66666700  0.62742919  1
  Si  Si1  1  0.66666700  0.33333300  0.37257081  1
  Si  Si2  1  0.66666700  0.33333300  0.12742919  1
  Si  Si3  1  0.33333300  0.66666700  0.87257081  1
  O  O0  1  0.35454538  0.17727319  0.40950640  1
  O  O1  1  0.82272681  0.17727319  0.09049360  1
  O  O2  1  0.17727319  0.35454538  0.59049360  1
  O  O3  1  0.17727319  0.82272681  0.90950640  1
  O  O4  1  0.64545462  0.82272681  0.90950640  1
  O  O5  1  0.64545462  0.82272681  0.59049360  1
  O  O6  1  0.35454538  0.17727319  0.09049360  1
  O  O7  1  0.17727319  0.82272681  0.59049360  1
  O  O8  1  0.82272681  0.17727319  0.40950640  1
  O  O9  1  0.17727319  0.35454538  0.90950640  1
  O  O10  1  0.82272681  0.64545462  0.09049360  1
  O  O11  1  0.82272681  0.64545462  0.40950640  1
  O  O12  1  0.66666700  0.33333300  0.25000000  1
  O  O13  1  0.33333300  0.66666700  0.75000000  1
loop_
_geom_bond_atom_site_label_1
_geom_bond_atom_site_label_2
_geom_bond_distance
_geom_bond_site_symmetry_2
O0 Si1 1.628209 1_555
O0 Sc0 2.151183 1_555
O0 Rb1 2.804735 1_555
O0 Rb0 2.870632 1_555
O0 Rb0 2.870632 1_545
O0 Rb2 3.083045 1_555
O1 Si2 1.628199 1_555
O1 Sc1 2.151187 1_655
O1 Rb1 2.804738 1_655
O1 Rb3 2.870632 1_655
O1 Rb3 2.870632 1_545
O1 Rb4 3.083040 1_554
O2 Si0 1.628209 1_555
O2 Sc0 2.151183 1_555
O2 Rb5 2.804735 1_555
O2 Rb2 2.870632 1_555
O2 Rb2 2.870632 1_455
O2 Rb0 3.083045 1_555
O3 Si3 1.628199 1_555
O3 Sc1 2.151187 1_566
O3 Rb5 2.804738 1_565
O3 Rb4 2.870632 1_455
O3 Rb4 2.870632 1_565
O3 Rb3 3.083040 1_556
O4 Si3 1.628209 1_555
O4 Sc1 2.151183 1_666
O4 Rb5 2.804735 1_665
O4 Rb4 2.870632 1_555
O4 Rb4 2.870632 1_565
O4 Rb3 3.083045 1_556
O5 Si0 1.628209 1_555
O5 Sc0 2.151183 1_665
O5 Rb5 2.804735 1_665
O5 Rb2 2.870632 1_555
O5 Rb2 2.870632 1_565
O5 Rb0 3.083045 1_555
O6 Si2 1.628209 1_555
O6 Sc1 2.151183 1_555
O6 Rb1 2.804735 1_555
O6 Rb3 2.870632 1_555
O6 Rb3 2.870632 1_545
O6 Rb4 3.083045 1_554
O7 Si0 1.628199 1_555
O7 Sc0 2.151187 1_565
O7 Rb5 2.804738 1_565
O7 Rb2 2.870632 1_455
O7 Rb2 2.870632 1_565
O7 Rb0 3.083040 1_555
O8 Si1 1.628199 1_555
O8 Sc0 2.151187 1_655
O8 Rb1 2.804738 1_655
O8 Rb0 2.870632 1_655
O8 Rb0 2.870632 1_545
O8 Rb2 3.083040 1_555
O9 Si3 1.628209 1_555
O9 Sc1 2.151183 1_556
O9 Rb5 2.804735 1_555
O9 Rb4 2.870632 1_555
O9 Rb4 2.870632 1_455
O9 Rb3 3.083045 1_556
O10 Si2 1.628209 1_555
O10 Sc1 2.151183 1_665
O10 Rb1 2.804735 1_665
O10 Rb3 2.870632 1_555
O10 Rb3 2.870632 1_655
O10 Rb4 3.083045 1_554
O11 Si1 1.628209 1_555
O11 Sc0 2.151183 1_665
O11 Rb1 2.804735 1_665
O11 Rb0 2.870632 1_555
O11 Rb0 2.870632 1_655
O11 Rb2 3.083045 1_555
O12 Si1 1.679401 1_555
O12 Si2 1.679401 1_555
O13 Si3 1.679401 1_555
O13 Si0 1.679401 1_555
