# generated using pymatgen
data_Sc2MnS4
_symmetry_space_group_name_H-M   'P 1'
_cell_length_a   7.50439800
_cell_length_b   7.50439702
_cell_length_c   7.50439712
_cell_angle_alpha   60.00043422
_cell_angle_beta   60.00042076
_cell_angle_gamma   60.00035465
_symmetry_Int_Tables_number   1
_chemical_formula_structural   Sc2MnS4
_chemical_formula_sum   'Sc4 Mn2 S8'
_cell_volume   298.83842716
_cell_formula_units_Z   2
loop_
 _symmetry_equiv_pos_site_id
 _symmetry_equiv_pos_as_xyz
  1  'x, y, z'
loop_
 _atom_site_type_symbol
 _atom_site_label
 _atom_site_symmetry_multiplicity
 _atom_site_fract_x
 _atom_site_fract_y
 _atom_site_fract_z
 _atom_site_occupancy
  Sc  Sc0  1  0.12500000  0.12499896  0.62500006  1
  Sc  Sc1  1  0.62499969  0.12500096  0.12500059  1
  Sc  Sc2  1  0.12500060  0.62500029  0.12499904  1
  Sc  Sc3  1  0.12499909  0.12500051  0.12500055  1
  Mn  Mn0  1  0.49999974  0.49999998  0.50000022  1
  Mn  Mn1  1  0.75000029  0.74999984  0.74999942  1
  S  S0  1  0.36850700  0.36850734  0.36850726  1
  S  S1  1  0.88149382  0.35551915  0.88149267  1
  S  S2  1  0.36850678  0.89448142  0.36850621  1
  S  S3  1  0.88149357  0.88149313  0.35551892  1
  S  S4  1  0.35551848  0.88149391  0.88149353  1
  S  S5  1  0.36850656  0.36850629  0.89448165  1
  S  S6  1  0.89448069  0.36850649  0.36850661  1
  S  S7  1  0.88149271  0.88149272  0.88149326  1
loop_
_geom_bond_atom_site_label_1
_geom_bond_atom_site_label_2
_geom_bond_distance
_geom_bond_site_symmetry_2
Mn0 S0 2.417086 1_555
Mn0 S6 2.417121 1_555
Mn0 S2 2.417124 1_555
Mn0 S5 2.417125 1_555
Mn1 S7 2.417091 1_555
Mn1 S1 2.417119 1_555
Mn1 S3 2.417120 1_555
Mn1 S4 2.417126 1_555
S0 Sc1 2.586135 1_555
S0 Sc2 2.586144 1_555
S0 Sc0 2.586151 1_555
S1 Sc0 2.586133 1_655
S1 Sc1 2.586134 1_556
S1 Sc3 2.586135 1_656
S2 Sc0 2.586126 1_565
S2 Sc1 2.586135 1_565
S2 Sc3 2.586136 1_565
S3 Sc1 2.586131 1_565
S3 Sc2 2.586133 1_655
S3 Sc3 2.586137 1_665
S4 Sc0 2.586130 1_565
S4 Sc2 2.586130 1_556
S4 Sc3 2.586137 1_566
S5 Sc2 2.586126 1_556
S5 Sc1 2.586130 1_556
S5 Sc3 2.586138 1_556
S6 Sc3 2.586129 1_655
S6 Sc0 2.586134 1_655
S6 Sc2 2.586141 1_655
S7 Sc2 2.586139 1_656
S7 Sc0 2.586141 1_665
S7 Sc1 2.586148 1_566
