# generated using pymatgen
data_SrP2F12
_symmetry_space_group_name_H-M   'P 1'
_cell_length_a   5.29904170
_cell_length_b   5.29904170
_cell_length_c   7.46570722
_cell_angle_alpha   90.00000000
_cell_angle_beta   90.00000000
_cell_angle_gamma   90.00000000
_symmetry_Int_Tables_number   1
_chemical_formula_structural   SrP2F12
_chemical_formula_sum   'Sr1 P2 F12'
_cell_volume   209.63588625
_cell_formula_units_Z   1
loop_
 _symmetry_equiv_pos_site_id
 _symmetry_equiv_pos_as_xyz
  1  'x, y, z'
loop_
 _atom_site_type_symbol
 _atom_site_label
 _atom_site_symmetry_multiplicity
 _atom_site_fract_x
 _atom_site_fract_y
 _atom_site_fract_z
 _atom_site_occupancy
  Sr  Sr0  1  0.00000000  0.00000000  0.00000000  1
  P  P0  1  0.00000000  0.50000000  0.26176178  1
  P  P1  1  0.50000000  0.00000000  0.73823822  1
  F  F0  1  0.28243007  0.21374558  0.75163191  1
  F  F1  1  0.71756993  0.78625442  0.75163191  1
  F  F2  1  0.21374558  0.71756993  0.24836809  1
  F  F3  1  0.78625442  0.28243007  0.24836809  1
  F  F4  1  0.00000000  0.50000000  0.47007704  1
  F  F5  1  0.50000000  0.00000000  0.52992296  1
  F  F6  1  0.00000000  0.50000000  0.03302106  1
  F  F7  1  0.50000000  0.00000000  0.96697894  1
  F  F8  1  0.21374558  0.28243007  0.24836809  1
  F  F9  1  0.78625442  0.71756993  0.24836809  1
  F  F10  1  0.28243007  0.78625442  0.75163191  1
  F  F11  1  0.71756993  0.21374558  0.75163191  1
loop_
_geom_bond_atom_site_label_1
_geom_bond_atom_site_label_2
_geom_bond_distance
_geom_bond_site_symmetry_2
F0 P1 1.619288 1_555
F0 Sr0 2.638360 1_556
F1 P1 1.619288 1_565
F1 Sr0 2.638360 1_666
F2 P0 1.619288 1_555
F2 Sr0 2.638360 1_565
F3 P0 1.619288 1_655
F3 Sr0 2.638360 1_655
F4 P0 1.555221 1_555
F5 P1 1.555221 1_555
F6 P0 1.707711 1_555
F6 Sr0 2.660965 1_565
F6 Sr0 2.660965 1_555
F7 P1 1.707711 1_555
F7 Sr0 2.660965 1_556
F7 Sr0 2.660965 1_656
F8 P0 1.619288 1_555
F8 Sr0 2.638360 1_555
F9 P0 1.619288 1_655
F9 Sr0 2.638360 1_665
F10 P1 1.619288 1_565
F10 Sr0 2.638360 1_566
F11 P1 1.619288 1_555
F11 Sr0 2.638360 1_656
