# generated using pymatgen
data_Cs8SnSb4
_symmetry_space_group_name_H-M   'P 1'
_cell_length_a   12.50738004
_cell_length_b   12.50738011
_cell_length_c   12.50738043
_cell_angle_alpha   60.00000176
_cell_angle_beta   60.00000158
_cell_angle_gamma   59.99999973
_symmetry_Int_Tables_number   1
_chemical_formula_structural   Cs8SnSb4
_chemical_formula_sum   'Cs16 Sn2 Sb8'
_cell_volume   1383.51561971
_cell_formula_units_Z   2
loop_
 _symmetry_equiv_pos_site_id
 _symmetry_equiv_pos_as_xyz
  1  'x, y, z'
loop_
 _atom_site_type_symbol
 _atom_site_label
 _atom_site_symmetry_multiplicity
 _atom_site_fract_x
 _atom_site_fract_y
 _atom_site_fract_z
 _atom_site_occupancy
  Cs  Cs0  1  0.62500000  0.12500000  0.62500000  1
  Cs  Cs1  1  0.62500000  0.62500000  0.12500000  1
  Cs  Cs2  1  0.12500000  0.62500000  0.62500000  1
  Cs  Cs3  1  0.62500000  0.62500000  0.62500000  1
  Cs  Cs4  1  0.02258011  0.02258011  0.47741989  1
  Cs  Cs5  1  0.77258011  0.22741989  0.22741989  1
  Cs  Cs6  1  0.22741989  0.77258011  0.77258011  1
  Cs  Cs7  1  0.77258011  0.77258011  0.22741989  1
  Cs  Cs8  1  0.77258011  0.22741989  0.77258011  1
  Cs  Cs9  1  0.22741989  0.77258011  0.22741989  1
  Cs  Cs10  1  0.47741989  0.02258011  0.47741989  1
  Cs  Cs11  1  0.47741989  0.02258011  0.02258011  1
  Cs  Cs12  1  0.02258011  0.47741989  0.47741989  1
  Cs  Cs13  1  0.02258011  0.47741989  0.02258011  1
  Cs  Cs14  1  0.22741989  0.22741989  0.77258011  1
  Cs  Cs15  1  0.47741989  0.47741989  0.02258011  1
  Sn  Sn0  1  0.75000000  0.75000000  0.75000000  1
  Sn  Sn1  1  0.50000000  0.50000000  0.50000000  1
  Sb  Sb0  1  0.40305281  0.79084156  0.40305281  1
  Sb  Sb1  1  0.84694719  0.84694719  0.45915844  1
  Sb  Sb2  1  0.45915844  0.84694719  0.84694719  1
  Sb  Sb3  1  0.84694719  0.84694719  0.84694719  1
  Sb  Sb4  1  0.79084156  0.40305281  0.40305281  1
  Sb  Sb5  1  0.40305281  0.40305281  0.40305281  1
  Sb  Sb6  1  0.40305281  0.40305281  0.79084156  1
  Sb  Sb7  1  0.84694719  0.45915844  0.84694719  1
loop_
_geom_bond_atom_site_label_1
_geom_bond_atom_site_label_2
_geom_bond_distance
_geom_bond_site_symmetry_2
Cs0 Sn0 3.829587 1_545
Cs0 Sn1 3.829587 1_555
Cs0 Sb6 3.988049 1_555
Cs0 Sb1 3.988049 1_545
Cs0 Sb3 3.988049 1_545
Cs0 Sb5 3.988049 1_555
Cs0 Sb4 3.988049 1_555
Cs0 Sb2 3.988049 1_545
Cs1 Sn1 3.829588 1_555
Cs1 Sn0 3.829588 1_554
Cs1 Sb0 3.988049 1_555
Cs1 Sb7 3.988049 1_554
Cs1 Sb4 3.988049 1_555
Cs1 Sb2 3.988049 1_554
Cs1 Sb3 3.988049 1_554
Cs1 Sb5 3.988049 1_555
Cs2 Sn0 3.829587 1_455
Cs2 Sn1 3.829587 1_555
Cs2 Sb6 3.988049 1_555
Cs2 Sb1 3.988049 1_455
Cs2 Sb3 3.988049 1_455
Cs2 Sb5 3.988049 1_555
Cs2 Sb0 3.988049 1_555
Cs2 Sb7 3.988049 1_455
Cs3 Sn1 3.829587 1_555
Cs3 Sn0 3.829587 1_555
Cs3 Sb7 3.988049 1_555
Cs3 Sb0 3.988049 1_555
Cs3 Sb2 3.988049 1_555
Cs3 Sb4 3.988049 1_555
Cs3 Sb1 3.988049 1_555
Cs3 Sb6 3.988049 1_555
Cs4 Sb1 3.941093 1_445
Cs4 Sb3 3.941093 1_445
Cs4 Sb0 4.048250 1_545
Cs4 Sb4 4.048250 1_455
Cs5 Sb4 3.941093 1_555
Cs5 Sb5 3.941093 1_555
Cs5 Sb1 4.048251 1_545
Cs5 Sb7 4.048251 1_554
Cs6 Sb6 3.941093 1_555
Cs6 Sb0 3.941093 1_555
Cs6 Sb2 4.048250 1_555
Cs6 Sb3 4.048250 1_455
Cs7 Sb0 3.941093 1_555
Cs7 Sb4 3.941093 1_555
Cs7 Sb1 4.048250 1_555
Cs7 Sb3 4.048251 1_554
Cs8 Sb6 3.941093 1_555
Cs8 Sb4 3.941093 1_555
Cs8 Sb7 4.048250 1_555
Cs8 Sb3 4.048250 1_545
Cs9 Sb0 3.941093 1_555
Cs9 Sb5 3.941093 1_555
Cs9 Sb1 4.048250 1_455
Cs9 Sb2 4.048251 1_554
Cs10 Sb1 3.941093 1_545
Cs10 Sb2 3.941093 1_545
Cs10 Sb0 4.048250 1_545
Cs10 Sb5 4.048250 1_555
Cs11 Sb2 3.941093 1_544
Cs11 Sb3 3.941093 1_544
Cs11 Sb6 4.048251 1_554
Cs11 Sb0 4.048251 1_545
Cs12 Sb1 3.941093 1_455
Cs12 Sb7 3.941093 1_455
Cs12 Sb4 4.048250 1_455
Cs12 Sb5 4.048250 1_555
Cs13 Sb7 3.941093 1_454
Cs13 Sb3 3.941093 1_454
Cs13 Sb6 4.048250 1_554
Cs13 Sb4 4.048251 1_455
Cs14 Sb6 3.941093 1_555
Cs14 Sb5 3.941093 1_555
Cs14 Sb7 4.048250 1_455
Cs14 Sb2 4.048250 1_545
Cs15 Sb7 3.941093 1_554
Cs15 Sb2 3.941093 1_554
Cs15 Sb6 4.048250 1_554
Cs15 Sb5 4.048251 1_555
Sb0 Sn1 2.970142 1_555
Sb1 Sn0 2.970142 1_555
Sb2 Sn0 2.970142 1_555
Sb3 Sn0 2.970142 1_555
Sb4 Sn1 2.970142 1_555
Sb5 Sn1 2.970142 1_555
Sb6 Sn1 2.970142 1_555
Sb7 Sn0 2.970142 1_555
