# generated using pymatgen
data_ZrAlCo2
_symmetry_space_group_name_H-M   'P 1'
_cell_length_a   4.27226482
_cell_length_b   4.27226444
_cell_length_c   4.27226429
_cell_angle_alpha   59.99998525
_cell_angle_beta   59.99998823
_cell_angle_gamma   59.99999381
_symmetry_Int_Tables_number   1
_chemical_formula_structural   ZrAlCo2
_chemical_formula_sum   'Zr1 Al1 Co2'
_cell_volume   55.13905220
_cell_formula_units_Z   1
loop_
 _symmetry_equiv_pos_site_id
 _symmetry_equiv_pos_as_xyz
  1  'x, y, z'
loop_
 _atom_site_type_symbol
 _atom_site_label
 _atom_site_symmetry_multiplicity
 _atom_site_fract_x
 _atom_site_fract_y
 _atom_site_fract_z
 _atom_site_occupancy
  Zr  Zr0  1  0.50000000  0.50000000  0.50000000  1
  Al  Al0  1  0.00000000  -0.00000000  0.00000000  1
  Co  Co0  1  0.25000000  0.25000000  0.25000000  1
  Co  Co1  1  0.75000000  0.75000000  0.75000000  1
loop_
_geom_bond_atom_site_label_1
_geom_bond_atom_site_label_2
_geom_bond_distance
_geom_bond_site_symmetry_2
Al0 Co0 2.616216 1_554
Al0 Co1 2.616216 1_445
Al0 Co1 2.616217 1_454
Al0 Co0 2.616217 1_545
Al0 Co0 2.616217 1_455
Al0 Co1 2.616217 1_544
Al0 Co1 2.616217 1_444
Al0 Co0 2.616217 1_555
Co0 Zr0 2.616216 1_554
Co0 Zr0 2.616217 1_545
Co0 Zr0 2.616217 1_455
Co0 Zr0 2.616217 1_555
Co1 Zr0 2.616216 1_556
Co1 Zr0 2.616217 1_565
Co1 Zr0 2.616217 1_655
Co1 Zr0 2.616217 1_555
