# generated using pymatgen
data_Ti2Nb2WN6
_symmetry_space_group_name_H-M   'P 1'
_cell_length_a   5.13897914
_cell_length_b   5.12088635
_cell_length_c   10.20524103
_cell_angle_alpha   90.00000000
_cell_angle_beta   90.00000000
_cell_angle_gamma   119.88360634
_symmetry_Int_Tables_number   1
_chemical_formula_structural   Ti2Nb2WN6
_chemical_formula_sum   'Ti4 Nb4 W2 N12'
_cell_volume   232.85419343
_cell_formula_units_Z   2
loop_
 _symmetry_equiv_pos_site_id
 _symmetry_equiv_pos_as_xyz
  1  'x, y, z'
loop_
 _atom_site_type_symbol
 _atom_site_label
 _atom_site_symmetry_multiplicity
 _atom_site_fract_x
 _atom_site_fract_y
 _atom_site_fract_z
 _atom_site_occupancy
  Ti  Ti0  1  0.33043924  0.66522012  0.50000000  1
  Ti  Ti1  1  0.66693996  0.33346948  0.00000000  1
  Ti  Ti2  1  0.66693996  0.33346948  0.50000000  1
  Ti  Ti3  1  0.33043924  0.66522012  0.00000000  1
  Nb  Nb0  1  0.99927663  0.32405107  0.25000000  1
  Nb  Nb1  1  0.99927663  0.67522556  0.75000000  1
  Nb  Nb2  1  0.32410656  0.32455817  0.75000000  1
  Nb  Nb3  1  0.32410656  0.99954939  0.25000000  1
  W  W0  1  0.67688705  0.99991300  0.75000000  1
  W  W1  1  0.67688705  0.67697405  0.25000000  1
  N  N0  1  0.35350070  0.35338264  0.37958490  1
  N  N1  1  0.65354759  0.99384620  0.38049995  1
  N  N2  1  0.99412649  0.65552157  0.38011003  1
  N  N3  1  0.99412649  0.33860592  0.88011003  1
  N  N4  1  0.65354759  0.99384620  0.11950005  1
  N  N5  1  0.65354759  0.65970139  0.88049995  1
  N  N6  1  0.35350070  0.00011905  0.87958490  1
  N  N7  1  0.65354759  0.65970139  0.61950005  1
  N  N8  1  0.99412649  0.33860592  0.61988997  1
  N  N9  1  0.99412649  0.65552157  0.11988997  1
  N  N10  1  0.35350070  0.00011905  0.62041510  1
  N  N11  1  0.35350070  0.35338264  0.12041510  1
loop_
_geom_bond_atom_site_label_1
_geom_bond_atom_site_label_2
_geom_bond_distance
_geom_bond_site_symmetry_2
N0 Ti0 2.064650 1_555
N0 Ti2 2.068508 1_555
N0 W1 2.124249 1_555
N0 Nb3 2.186793 1_545
N0 Nb0 2.193772 1_455
N1 Ti0 2.071685 1_555
N1 Ti2 2.097005 1_565
N1 W1 2.148259 1_555
N1 Nb3 2.165638 1_555
N1 Nb0 2.189946 1_565
N2 Ti2 2.068992 1_555
N2 Ti0 2.097841 1_655
N2 W1 2.147425 1_555
N2 Nb0 2.165589 1_555
N2 Nb3 2.182980 1_655
N3 Ti1 2.068988 1_556
N3 Ti3 2.097840 1_656
N3 W0 2.147427 1_545
N3 Nb1 2.165585 1_555
N3 Nb2 2.182980 1_655
N4 Ti3 2.071685 1_555
N4 Ti1 2.097005 1_565
N4 W1 2.148259 1_555
N4 Nb3 2.165638 1_555
N4 Nb0 2.189946 1_565
N5 Ti3 2.071688 1_556
N5 Ti1 2.097009 1_556
N5 W0 2.148259 1_555
N5 Nb2 2.165636 1_555
N5 Nb1 2.189946 1_555
N6 Ti3 2.064650 1_546
N6 Ti1 2.068503 1_556
N6 W0 2.124251 1_545
N6 Nb2 2.186793 1_555
N6 Nb1 2.193774 1_445
N7 Ti0 2.071688 1_555
N7 Ti2 2.097009 1_555
N7 W0 2.148259 1_555
N7 Nb2 2.165636 1_555
N7 Nb1 2.189946 1_555
N8 Ti2 2.068988 1_555
N8 Ti0 2.097840 1_655
N8 W0 2.147427 1_545
N8 Nb1 2.165585 1_555
N8 Nb2 2.182980 1_655
N9 Ti1 2.068992 1_555
N9 Ti3 2.097841 1_655
N9 W1 2.147425 1_555
N9 Nb0 2.165589 1_555
N9 Nb3 2.182980 1_655
N10 Ti0 2.064650 1_545
N10 Ti2 2.068503 1_555
N10 W0 2.124251 1_545
N10 Nb2 2.186793 1_555
N10 Nb1 2.193774 1_445
N11 Ti3 2.064650 1_555
N11 Ti1 2.068508 1_555
N11 W1 2.124249 1_555
N11 Nb3 2.186793 1_545
N11 Nb0 2.193772 1_455
