# generated using pymatgen
data_Lu12TcNi4Hg
_symmetry_space_group_name_H-M   'P 1'
_cell_length_a   8.04035541
_cell_length_b   8.04035684
_cell_length_c   8.04035583
_cell_angle_alpha   111.35103517
_cell_angle_beta   109.83215182
_cell_angle_gamma   107.25669577
_symmetry_Int_Tables_number   1
_chemical_formula_structural   Lu12TcNi4Hg
_chemical_formula_sum   'Lu12 Tc1 Ni4 Hg1'
_cell_volume   399.61325801
_cell_formula_units_Z   1
loop_
 _symmetry_equiv_pos_site_id
 _symmetry_equiv_pos_as_xyz
  1  'x, y, z'
loop_
 _atom_site_type_symbol
 _atom_site_label
 _atom_site_symmetry_multiplicity
 _atom_site_fract_x
 _atom_site_fract_y
 _atom_site_fract_z
 _atom_site_occupancy
  Lu  Lu0  1  0.42168440  0.23112205  0.19056335  1
  Lu  Lu1  1  0.57831560  0.76887795  0.80943665  1
  Lu  Lu2  1  0.04055870  0.23112205  0.80943665  1
  Lu  Lu3  1  0.95944130  0.76887795  0.19056335  1
  Lu  Lu4  1  0.17907461  0.27586750  0.45494211  1
  Lu  Lu5  1  0.82092539  0.72413250  0.54505789  1
  Lu  Lu6  1  0.17907461  0.72413250  0.90320611  1
  Lu  Lu7  1  0.82092539  0.27586750  0.09679389  1
  Lu  Lu8  1  0.32385414  0.62803948  0.30418535  1
  Lu  Lu9  1  0.67614586  0.37196052  0.69581465  1
  Lu  Lu10  1  0.32385414  0.01966879  0.69581465  1
  Lu  Lu11  1  0.67614586  0.98033121  0.30418535  1
  Tc  Tc0  1  0.00000000  0.00000000  0.00000000  1
  Ni  Ni0  1  0.35237940  1.00000000  0.35237940  1
  Ni  Ni1  1  0.64762060  0.00000000  0.64762060  1
  Ni  Ni2  1  0.11905628  0.61905628  0.50000000  1
  Ni  Ni3  1  0.88094372  0.38094372  0.50000000  1
  Hg  Hg0  1  0.50000000  0.50000000  0.00000000  1
loop_
_geom_bond_atom_site_label_1
_geom_bond_atom_site_label_2
_geom_bond_distance
_geom_bond_site_symmetry_2
Lu0 Ni0 2.663576 1_545
Lu0 Tc0 2.821348 1_555
Lu0 Ni3 3.197070 1_555
Lu1 Ni1 2.663576 1_565
Lu1 Tc0 2.821348 1_666
Lu1 Ni2 3.197070 1_555
Lu2 Ni1 2.663577 1_455
Lu2 Tc0 2.821354 1_556
Lu2 Ni3 3.197064 1_455
Lu3 Ni0 2.663577 1_655
Lu3 Tc0 2.821354 1_665
Lu3 Ni2 3.197064 1_655
Lu4 Ni3 2.856384 1_455
Lu4 Ni2 2.856384 1_555
Lu4 Ni0 2.970368 1_545
Lu4 Tc0 2.999462 1_555
Lu5 Ni2 2.856384 1_655
Lu5 Ni3 2.856384 1_555
Lu5 Ni1 2.970368 1_565
Lu5 Tc0 2.999462 1_666
Lu6 Ni2 2.856376 1_555
Lu6 Ni3 2.856380 1_455
Lu6 Ni0 2.970374 1_556
Lu6 Tc0 2.999464 1_566
Lu7 Ni3 2.856376 1_555
Lu7 Ni2 2.856380 1_655
Lu7 Ni1 2.970374 1_554
Lu7 Tc0 2.999464 1_655
Lu8 Ni2 2.639471 1_555
Lu8 Ni1 2.799266 1_565
Lu8 Ni0 2.799266 1_555
Lu9 Ni3 2.639471 1_555
Lu9 Ni0 2.799266 1_545
Lu9 Ni1 2.799266 1_555
Lu10 Ni2 2.639471 1_545
Lu10 Ni1 2.799266 1_555
Lu10 Ni0 2.799266 1_545
Lu11 Ni3 2.639471 1_565
Lu11 Ni0 2.799266 1_555
Lu11 Ni1 2.799266 1_565
Ni2 Ni3 2.270687 1_455
Hg0 Lu3 3.110752 1_555
Hg0 Lu2 3.110752 1_554
Hg0 Lu1 3.110754 1_554
Hg0 Lu0 3.110754 1_555
Hg0 Lu9 3.229457 1_554
Hg0 Lu8 3.229457 1_555
Hg0 Lu11 3.229458 1_555
Hg0 Lu10 3.229458 1_554
Hg0 Lu5 3.595697 1_555
Hg0 Lu4 3.595697 1_554
Hg0 Lu7 3.595698 1_555
Hg0 Lu6 3.595698 1_554
