# generated using pymatgen
data_Sr4ScRuO8
_symmetry_space_group_name_H-M   'P 1'
_cell_length_a   6.93246354
_cell_length_b   6.93246327
_cell_length_c   5.62067277
_cell_angle_alpha   90.00000000
_cell_angle_beta   90.00000000
_cell_angle_gamma   132.21580143
_symmetry_Int_Tables_number   1
_chemical_formula_structural   Sr4ScRuO8
_chemical_formula_sum   'Sr4 Sc1 Ru1 O8'
_cell_volume   200.05919085
_cell_formula_units_Z   1
loop_
 _symmetry_equiv_pos_site_id
 _symmetry_equiv_pos_as_xyz
  1  'x, y, z'
loop_
 _atom_site_type_symbol
 _atom_site_label
 _atom_site_symmetry_multiplicity
 _atom_site_fract_x
 _atom_site_fract_y
 _atom_site_fract_z
 _atom_site_occupancy
  Sr  Sr0  1  0.64568928  0.35431072  0.00000000  1
  Sr  Sr1  1  0.14543196  0.85456804  0.50000000  1
  Sr  Sr2  1  0.85456804  0.14543196  0.50000000  1
  Sr  Sr3  1  0.35431072  0.64568928  0.00000000  1
  Sc  Sc0  1  0.00000000  0.00000000  0.00000000  1
  Ru  Ru0  1  0.50000000  0.50000000  0.50000000  1
  O  O0  1  0.74289471  0.74289471  0.25979405  1
  O  O1  1  0.25710529  0.25710529  0.74020595  1
  O  O2  1  0.25710529  0.25710529  0.25979405  1
  O  O3  1  0.74289471  0.74289471  0.74020595  1
  O  O4  1  0.83461862  0.16538138  0.00000000  1
  O  O5  1  0.34203857  0.65796143  0.50000000  1
  O  O6  1  0.65796143  0.34203857  0.50000000  1
  O  O7  1  0.16538138  0.83461862  0.00000000  1
loop_
_geom_bond_atom_site_label_1
_geom_bond_atom_site_label_2
_geom_bond_distance
_geom_bond_site_symmetry_2
O0 Ru0 1.919181 1_555
O0 Sc0 2.053467 1_665
O0 Sr2 2.703006 1_565
O0 Sr1 2.703006 1_655
O0 Sr0 2.720962 1_555
O0 Sr3 2.720962 1_555
O1 Ru0 1.919181 1_555
O1 Sc0 2.053467 1_556
O1 Sr1 2.703006 1_545
O1 Sr2 2.703006 1_455
O1 Sr3 2.720962 1_556
O1 Sr0 2.720962 1_556
O2 Ru0 1.919181 1_555
O2 Sc0 2.053467 1_555
O2 Sr1 2.703006 1_545
O2 Sr2 2.703006 1_455
O2 Sr3 2.720962 1_555
O2 Sr0 2.720962 1_555
O3 Ru0 1.919181 1_555
O3 Sc0 2.053467 1_666
O3 Sr2 2.703006 1_565
O3 Sr1 2.703006 1_655
O3 Sr0 2.720962 1_556
O3 Sr3 2.720962 1_556
O4 Sc0 2.096513 1_655
O4 Sr0 2.395027 1_555
O4 Sr3 2.818831 1_545
O4 Sr3 2.818831 1_655
O4 Sr2 2.821692 1_555
O4 Sr2 2.821692 1_554
O5 Ru0 2.002452 1_555
O5 Sr1 2.492350 1_555
O5 Sr2 2.812244 1_455
O5 Sr2 2.812244 1_565
O5 Sr3 2.814639 1_555
O5 Sr3 2.814639 1_556
O6 Ru0 2.002452 1_555
O6 Sr2 2.492350 1_555
O6 Sr1 2.812244 1_655
O6 Sr1 2.812244 1_545
O6 Sr0 2.814639 1_555
O6 Sr0 2.814639 1_556
O7 Sc0 2.096513 1_565
O7 Sr3 2.395027 1_555
O7 Sr0 2.818831 1_565
O7 Sr0 2.818831 1_455
O7 Sr1 2.821692 1_554
O7 Sr1 2.821692 1_555
