# generated using pymatgen
data_Sc4As6Ru3Rh4
_symmetry_space_group_name_H-M   'P 1'
_cell_length_a   7.03102170
_cell_length_b   7.02966281
_cell_length_c   7.02966424
_cell_angle_alpha   109.44026475
_cell_angle_beta   109.48279341
_cell_angle_gamma   109.48277714
_symmetry_Int_Tables_number   1
_chemical_formula_structural   Sc4As6Ru3Rh4
_chemical_formula_sum   'Sc4 As6 Ru3 Rh4'
_cell_volume   267.48997227
_cell_formula_units_Z   1
loop_
 _symmetry_equiv_pos_site_id
 _symmetry_equiv_pos_as_xyz
  1  'x, y, z'
loop_
 _atom_site_type_symbol
 _atom_site_label
 _atom_site_symmetry_multiplicity
 _atom_site_fract_x
 _atom_site_fract_y
 _atom_site_fract_z
 _atom_site_occupancy
  Sc  Sc0  1  0.00252334  0.00126217  0.50126217  1
  Sc  Sc1  1  0.49794319  0.99597410  0.99597410  1
  Sc  Sc2  1  0.00252334  0.50126217  0.00126217  1
  Sc  Sc3  1  0.49794319  0.50196809  0.50196809  1
  As  As0  1  0.31230475  0.99867138  0.31363337  1
  As  As1  1  0.00397545  0.31655814  0.31655814  1
  As  As2  1  0.00397545  0.68741830  0.68741830  1
  As  As3  1  0.31230475  0.31363337  0.99867138  1
  As  As4  1  0.68445013  0.68610882  0.99834031  1
  As  As5  1  0.68445013  0.99834031  0.68610882  1
  Ru  Ru0  1  0.25017803  0.75068700  0.49949103  1
  Ru  Ru1  1  0.25017803  0.49949103  0.75068700  1
  Ru  Ru2  1  0.00022363  0.00011181  0.00011181  1
  Rh  Rh0  1  0.74949116  0.50014322  0.24934794  1
  Rh  Rh1  1  0.49902213  0.74951057  0.24951057  1
  Rh  Rh2  1  0.49902213  0.24951057  0.74951057  1
  Rh  Rh3  1  0.74949116  0.24934794  0.50014322  1
loop_
_geom_bond_atom_site_label_1
_geom_bond_atom_site_label_2
_geom_bond_distance
_geom_bond_site_symmetry_2
As0 Ru0 2.515058 1_555
As0 Rh2 2.529320 1_565
As0 Rh1 2.529326 1_555
As0 Rh3 2.536436 1_565
As0 Ru2 2.544809 1_565
As0 Sc2 2.900134 1_555
As0 Sc0 2.900140 1_565
As0 Sc3 2.936481 1_565
As0 Sc1 2.936487 1_554
As1 Ru0 2.518437 1_555
As1 Ru1 2.518437 1_555
As1 Rh0 2.544117 1_455
As1 Rh3 2.544118 1_455
As1 Ru2 2.554483 1_555
As1 Sc3 2.879251 1_555
As1 Sc0 2.916825 1_555
As1 Sc2 2.916825 1_555
As1 Sc1 2.956122 1_444
As2 Ru1 2.518442 1_555
As2 Ru0 2.518442 1_555
As2 Rh3 2.544122 1_455
As2 Rh0 2.544122 1_455
As2 Ru2 2.554475 1_566
As2 Sc1 2.879248 1_555
As2 Sc0 2.916825 1_565
As2 Sc2 2.916825 1_556
As2 Sc3 2.956119 1_455
As3 Ru1 2.515058 1_555
As3 Rh1 2.529320 1_556
As3 Rh2 2.529327 1_555
As3 Rh0 2.536436 1_556
As3 Ru2 2.544810 1_556
As3 Sc0 2.900134 1_555
As3 Sc2 2.900140 1_556
As3 Sc3 2.936481 1_556
As3 Sc1 2.936486 1_545
As4 Ru1 2.517323 1_555
As4 Rh2 2.532822 1_555
As4 Rh1 2.532822 1_556
As4 Rh0 2.535256 1_556
As4 Ru2 2.548735 1_666
As4 Sc1 2.894749 1_555
As4 Sc3 2.894749 1_555
As4 Sc2 2.935273 1_656
As4 Sc0 2.935284 1_666
As5 Ru0 2.517323 1_555
As5 Rh2 2.532822 1_565
As5 Rh1 2.532822 1_555
As5 Rh3 2.535256 1_565
As5 Ru2 2.548734 1_666
As5 Sc3 2.894749 1_555
As5 Sc1 2.894749 1_555
As5 Sc0 2.935273 1_665
As5 Sc2 2.935284 1_666
Ru0 Sc1 2.850201 1_555
Ru0 Sc3 2.850207 1_555
Ru0 Sc2 2.860188 1_555
Ru0 Sc0 2.860193 1_565
Ru0 Ru1 2.883026 1_555
Ru1 Sc1 2.850201 1_555
Ru1 Sc3 2.850207 1_555
Ru1 Sc0 2.860188 1_555
Ru1 Sc2 2.860194 1_556
Rh0 Ru0 2.874075 1_655
Rh0 Sc2 2.876798 1_655
Rh0 Sc0 2.876803 1_665
Rh0 Sc3 2.894284 1_555
Rh0 Sc1 2.894289 1_544
Rh1 Sc2 2.850034 1_555
Rh1 Ru1 2.863588 1_554
Rh1 Ru0 2.863594 1_555
Rh1 Sc1 2.869410 1_554
Rh1 Sc3 2.869410 1_555
Rh1 Sc0 2.890229 1_665
Rh2 Sc0 2.850034 1_555
Rh2 Ru0 2.863587 1_545
Rh2 Ru1 2.863593 1_555
Rh2 Sc3 2.869410 1_555
Rh2 Sc1 2.869410 1_545
Rh2 Sc2 2.890229 1_656
Rh3 Ru1 2.874075 1_655
Rh3 Sc0 2.876797 1_655
Rh3 Sc2 2.876803 1_656
Rh3 Sc3 2.894283 1_555
Rh3 Sc1 2.894289 1_544
