# generated using pymatgen
data_Ga12ReTcIr2
_symmetry_space_group_name_H-M   'P 1'
_cell_length_a   6.51844512
_cell_length_b   6.51844486
_cell_length_c   6.78406915
_cell_angle_alpha   90.00000000
_cell_angle_beta   90.00000000
_cell_angle_gamma   89.62916288
_symmetry_Int_Tables_number   1
_chemical_formula_structural   Ga12ReTcIr2
_chemical_formula_sum   'Ga12 Re1 Tc1 Ir2'
_cell_volume   288.24990922
_cell_formula_units_Z   1
loop_
 _symmetry_equiv_pos_site_id
 _symmetry_equiv_pos_as_xyz
  1  'x, y, z'
loop_
 _atom_site_type_symbol
 _atom_site_label
 _atom_site_symmetry_multiplicity
 _atom_site_fract_x
 _atom_site_fract_y
 _atom_site_fract_z
 _atom_site_occupancy
  Ga  Ga0  1  0.99921747  0.49874657  0.50000000  1
  Ga  Ga1  1  0.50064380  0.00039865  0.00000000  1
  Ga  Ga2  1  0.50125343  0.00078253  0.50000000  1
  Ga  Ga3  1  0.99960135  0.49935620  0.00000000  1
  Ga  Ga4  1  0.34796909  0.65203091  0.23838063  1
  Ga  Ga5  1  0.65292579  0.34707421  0.23883831  1
  Ga  Ga6  1  0.15575733  0.15654266  0.72982368  1
  Ga  Ga7  1  0.84345734  0.84424267  0.72982368  1
  Ga  Ga8  1  0.65292579  0.34707421  0.76116169  1
  Ga  Ga9  1  0.34796909  0.65203091  0.76161937  1
  Ga  Ga10  1  0.84345734  0.84424267  0.27017632  1
  Ga  Ga11  1  0.15575733  0.15654266  0.27017632  1
  Re  Re0  1  0.16207419  0.83792581  0.50000000  1
  Tc  Tc0  1  0.83730414  0.16269586  0.50000000  1
  Ir  Ir0  1  0.33993693  0.34025041  0.00000000  1
  Ir  Ir1  1  0.65974959  0.66006307  0.00000000  1
loop_
_geom_bond_atom_site_label_1
_geom_bond_atom_site_label_2
_geom_bond_distance
_geom_bond_site_symmetry_2
Ga0 Tc0 2.437675 1_555
Ga0 Re0 2.458758 1_655
Ga1 Ir1 2.442826 1_545
Ga1 Ir0 2.444364 1_555
Ga2 Tc0 2.437675 1_555
Ga2 Re0 2.458758 1_545
Ga3 Ir0 2.442826 1_655
Ga3 Ir1 2.444364 1_555
Ga4 Re0 2.463274 1_555
Ga4 Ir0 2.598031 1_555
Ga4 Ir1 2.598031 1_555
Ga5 Tc0 2.451387 1_555
Ga5 Ir1 2.605941 1_555
Ga5 Ir0 2.605941 1_555
Ga6 Ir0 2.500690 1_556
Ga6 Tc0 2.596242 1_455
Ga6 Re0 2.597107 1_545
Ga7 Ir1 2.500690 1_556
Ga7 Tc0 2.596242 1_565
Ga7 Re0 2.597107 1_655
Ga8 Tc0 2.451387 1_555
Ga8 Ir1 2.605941 1_556
Ga8 Ir0 2.605941 1_556
Ga9 Re0 2.463274 1_555
Ga9 Ir0 2.598031 1_556
Ga9 Ir1 2.598031 1_556
Ga10 Ir1 2.500690 1_555
Ga10 Tc0 2.596242 1_565
Ga10 Re0 2.597107 1_655
Ga11 Ir0 2.500690 1_555
Ga11 Tc0 2.596242 1_455
Ga11 Re0 2.597107 1_545
