# generated using pymatgen
data_Ge(SeF6)2
_symmetry_space_group_name_H-M   'P 1'
_cell_length_a   5.98807067
_cell_length_b   7.59163327
_cell_length_c   9.70582822
_cell_angle_alpha   90.00000000
_cell_angle_beta   90.00000000
_cell_angle_gamma   90.00000000
_symmetry_Int_Tables_number   1
_chemical_formula_structural   Ge(SeF6)2
_chemical_formula_sum   'Ge2 Se4 F24'
_cell_volume   441.21954041
_cell_formula_units_Z   2
loop_
 _symmetry_equiv_pos_site_id
 _symmetry_equiv_pos_as_xyz
  1  'x, y, z'
loop_
 _atom_site_type_symbol
 _atom_site_label
 _atom_site_symmetry_multiplicity
 _atom_site_fract_x
 _atom_site_fract_y
 _atom_site_fract_z
 _atom_site_occupancy
  Ge  Ge0  1  0.00000000  0.50000000  0.00000000  1
  Ge  Ge1  1  0.50000000  0.00000000  0.50000000  1
  Se  Se0  1  0.50000000  0.58529327  0.23998458  1
  Se  Se1  1  0.50000000  0.41470673  0.76001542  1
  Se  Se2  1  0.00000000  0.08529327  0.26001542  1
  Se  Se3  1  0.00000000  0.91470673  0.73998458  1
  F  F0  1  0.21319854  0.36880883  0.91659285  1
  F  F1  1  0.21319854  0.63119117  0.08340715  1
  F  F2  1  0.28680146  0.86880883  0.58340715  1
  F  F3  1  0.28680146  0.13119117  0.41659285  1
  F  F4  1  0.78680146  0.63119117  0.08340715  1
  F  F5  1  0.78680146  0.36880883  0.91659285  1
  F  F6  1  0.79335706  0.96694722  0.85451740  1
  F  F7  1  0.79335706  0.03305278  0.14548260  1
  F  F8  1  0.70664294  0.46694722  0.64548260  1
  F  F9  1  0.70664294  0.53305278  0.35451740  1
  F  F10  1  0.20664294  0.03305278  0.14548260  1
  F  F11  1  0.20664294  0.96694722  0.85451740  1
  F  F12  1  0.29335706  0.53305278  0.35451740  1
  F  F13  1  0.29335706  0.46694722  0.64548260  1
  F  F14  1  0.00000000  0.64812681  0.85444130  1
  F  F15  1  0.00000000  0.35187319  0.14555870  1
  F  F16  1  0.50000000  0.14812681  0.64555870  1
  F  F17  1  0.50000000  0.85187319  0.35444130  1
  F  F18  1  0.50000000  0.62372869  0.82660986  1
  F  F19  1  0.50000000  0.37627131  0.17339014  1
  F  F20  1  0.00000000  0.12372869  0.67339014  1
  F  F21  1  0.00000000  0.87627131  0.32660986  1
  F  F22  1  0.71319854  0.86880883  0.58340715  1
  F  F23  1  0.71319854  0.13119117  0.41659285  1
loop_
_geom_bond_atom_site_label_1
_geom_bond_atom_site_label_2
_geom_bond_distance
_geom_bond_site_symmetry_2
F0 Ge0 1.810277 1_556
F0 Se1 2.319560 1_555
F1 Ge0 1.810277 1_555
F1 Se0 2.319560 1_555
F2 Ge1 1.810277 1_565
F2 Se3 2.319560 1_555
F3 Ge1 1.810277 1_555
F3 Se2 2.319560 1_555
F4 Ge0 1.810277 1_655
F4 Se0 2.319560 1_555
F5 Ge0 1.810277 1_656
F5 Se1 2.319560 1_555
F6 Se3 1.710017 1_655
F7 Se2 1.710017 1_655
F8 Se1 1.710017 1_555
F9 Se0 1.710017 1_555
F10 Se2 1.710017 1_555
F11 Se3 1.710017 1_555
F12 Se0 1.710017 1_555
F13 Se1 1.710017 1_555
F14 Ge0 1.805677 1_556
F14 Se3 2.308629 1_555
F15 Ge0 1.805677 1_555
F15 Se2 2.308629 1_555
F16 Ge1 1.805677 1_555
F16 Se1 2.308629 1_555
F17 Ge1 1.805677 1_565
F17 Se0 2.308629 1_555
F18 Se1 1.713408 1_555
F19 Se0 1.713408 1_555
F20 Se3 1.713408 1_545
F21 Se2 1.713408 1_565
F22 Ge1 1.810277 1_565
F22 Se3 2.319560 1_655
F23 Ge1 1.810277 1_555
F23 Se2 2.319560 1_655
