# generated using pymatgen
data_Na3(WO3)4
_symmetry_space_group_name_H-M   'P 1'
_cell_length_a   6.81324880
_cell_length_b   6.81324880
_cell_length_c   6.81324880
_cell_angle_alpha   109.58610178
_cell_angle_beta   109.42993577
_cell_angle_gamma   109.39768707
_symmetry_Int_Tables_number   1
_chemical_formula_structural   Na3(WO3)4
_chemical_formula_sum   'Na3 W4 O12'
_cell_volume   243.46666694
_cell_formula_units_Z   1
loop_
 _symmetry_equiv_pos_site_id
 _symmetry_equiv_pos_as_xyz
  1  'x, y, z'
loop_
 _atom_site_type_symbol
 _atom_site_label
 _atom_site_symmetry_multiplicity
 _atom_site_fract_x
 _atom_site_fract_y
 _atom_site_fract_z
 _atom_site_occupancy
  Na  Na0  1  0.50000000  0.00000000  0.50000000  1
  Na  Na1  1  0.50000000  0.50000000  0.00000000  1
  Na  Na2  1  0.00000000  0.50000000  0.50000000  1
  W  W0  1  0.50000000  0.00000000  0.00000000  1
  W  W1  1  0.00000000  0.50000000  0.00000000  1
  W  W2  1  0.50000000  0.50000000  0.50000000  1
  W  W3  1  0.00000000  0.00000000  0.50000000  1
  O  O0  1  0.74512800  0.25428800  0.99941600  1
  O  O1  1  0.01743200  0.25094200  0.76648900  1
  O  O2  1  0.74934600  0.02082400  0.27147800  1
  O  O3  1  0.25487200  0.74571200  0.00058400  1
  O  O4  1  0.25487200  0.25428800  0.50915900  1
  O  O5  1  0.25065400  0.52213200  0.27147800  1
  O  O6  1  0.51554700  0.74905800  0.76648900  1
  O  O7  1  0.48445300  0.25094200  0.23351100  1
  O  O8  1  0.74934600  0.47786800  0.72852200  1
  O  O9  1  0.74512800  0.74571200  0.49084100  1
  O  O10  1  0.98256800  0.74905800  0.23351100  1
  O  O11  1  0.25065400  0.97917600  0.72852200  1
loop_
_geom_bond_atom_site_label_1
_geom_bond_atom_site_label_2
_geom_bond_distance
_geom_bond_site_symmetry_2
Na0 O8 2.660491 1_555
Na0 O2 2.660491 1_555
Na0 O11 2.660491 1_545
Na0 O5 2.660491 1_545
Na0 O4 2.777356 1_555
Na0 O9 2.777356 1_545
Na0 O0 2.777356 1_555
Na0 O3 2.777356 1_545
Na0 O7 2.881770 1_555
Na0 O6 2.881770 1_545
Na0 O1 2.881776 1_655
Na0 O10 2.881776 1_445
Na1 O10 2.687853 1_555
Na1 O1 2.687853 1_554
Na1 O6 2.687859 1_554
Na1 O7 2.687859 1_555
Na1 O3 2.729296 1_555
Na1 O0 2.729296 1_554
Na1 O9 2.729302 1_555
Na1 O4 2.729302 1_554
Na1 O5 2.898931 1_555
Na1 O8 2.898931 1_554
Na1 O2 2.898931 1_565
Na1 O11 2.898931 1_544
Na2 O11 2.668101 1_555
Na2 O5 2.668101 1_555
Na2 O2 2.668101 1_455
Na2 O8 2.668101 1_455
Na2 O9 2.784046 1_455
Na2 O4 2.784046 1_555
Na2 O3 2.784046 1_556
Na2 O0 2.784046 1_454
Na2 O6 2.871618 1_555
Na2 O7 2.871618 1_455
Na2 O10 2.871618 1_455
Na2 O1 2.871618 1_555
O0 W1 1.969262 1_656
O0 W0 1.969262 1_556
O1 W3 1.968320 1_555
O1 W1 1.968328 1_556
O2 W0 1.975045 1_555
O2 W3 1.975045 1_655
O3 W1 1.969262 1_555
O3 W0 1.969262 1_565
O4 W2 1.969258 1_555
O4 W3 1.969265 1_555
O5 W2 1.975045 1_555
O5 W1 1.975045 1_555
O6 W2 1.968324 1_555
O6 W0 1.968324 1_566
O7 W2 1.968324 1_555
O7 W0 1.968324 1_555
O8 W1 1.975045 1_656
O8 W2 1.975045 1_555
O9 W2 1.969258 1_555
O9 W3 1.969265 1_665
O10 W3 1.968320 1_665
O10 W1 1.968328 1_655
O11 W0 1.975045 1_566
O11 W3 1.975045 1_565
