# generated using pymatgen
data_SbBr(ClF3)2
_symmetry_space_group_name_H-M   'P 1'
_cell_length_a   6.57333192
_cell_length_b   7.93115448
_cell_length_c   7.30636521
_cell_angle_alpha   90.00000000
_cell_angle_beta   90.00000000
_cell_angle_gamma   90.00000000
_symmetry_Int_Tables_number   1
_chemical_formula_structural   SbBr(ClF3)2
_chemical_formula_sum   'Sb2 Br2 Cl4 F12'
_cell_volume   380.91085451
_cell_formula_units_Z   2
loop_
 _symmetry_equiv_pos_site_id
 _symmetry_equiv_pos_as_xyz
  1  'x, y, z'
loop_
 _atom_site_type_symbol
 _atom_site_label
 _atom_site_symmetry_multiplicity
 _atom_site_fract_x
 _atom_site_fract_y
 _atom_site_fract_z
 _atom_site_occupancy
  Sb  Sb0  1  0.93728953  0.00000000  0.50000000  1
  Sb  Sb1  1  0.06271047  0.50000000  0.00000000  1
  Br  Br0  1  0.63925008  0.00000000  0.00000000  1
  Br  Br1  1  0.36074992  0.50000000  0.50000000  1
  Cl  Cl0  1  0.56654305  0.50000000  0.72396000  1
  Cl  Cl1  1  0.43345695  0.00000000  0.22396000  1
  Cl  Cl2  1  0.43345695  0.00000000  0.77604000  1
  Cl  Cl3  1  0.56654305  0.50000000  0.27604000  1
  F  F0  1  0.74030768  0.17267449  0.50000000  1
  F  F1  1  0.14918446  0.16211942  0.50000000  1
  F  F2  1  0.06788513  0.50000000  0.73781584  1
  F  F3  1  0.74030768  0.82732551  0.50000000  1
  F  F4  1  0.93211487  0.00000000  0.23781584  1
  F  F5  1  0.85081554  0.33788058  0.00000000  1
  F  F6  1  0.93211487  0.00000000  0.76218416  1
  F  F7  1  0.14918446  0.83788058  0.50000000  1
  F  F8  1  0.06788513  0.50000000  0.26218416  1
  F  F9  1  0.85081554  0.66211942  0.00000000  1
  F  F10  1  0.25969232  0.32732551  0.00000000  1
  F  F11  1  0.25969232  0.67267449  0.00000000  1
loop_
_geom_bond_atom_site_label_1
_geom_bond_atom_site_label_2
_geom_bond_distance
_geom_bond_site_symmetry_2
Br0 Cl1 2.123090 1_555
Br0 Cl2 2.123090 1_554
Br1 Cl0 2.123090 1_555
Br1 Cl3 2.123090 1_555
F0 Sb0 1.884709 1_555
F1 Sb0 1.895604 1_455
F2 Sb1 1.915915 1_556
F3 Sb0 1.884709 1_565
F4 Sb0 1.915915 1_555
F5 Sb1 1.895604 1_655
F6 Sb0 1.915915 1_555
F7 Sb0 1.895604 1_465
F8 Sb1 1.915915 1_555
F9 Sb1 1.895604 1_655
F10 Sb1 1.884709 1_555
F11 Sb1 1.884709 1_555
