# generated using pymatgen
data_Y4Mn(Si2Pt)5
_symmetry_space_group_name_H-M   'P 1'
_cell_length_a   8.09848704
_cell_length_b   8.09852738
_cell_length_c   5.86536025
_cell_angle_alpha   68.79117107
_cell_angle_beta   68.79140779
_cell_angle_gamma   88.78631339
_symmetry_Int_Tables_number   1
_chemical_formula_structural   Y4Mn(Si2Pt)5
_chemical_formula_sum   'Y4 Mn1 Si10 Pt5'
_cell_volume   331.66534059
_cell_formula_units_Z   1
loop_
 _symmetry_equiv_pos_site_id
 _symmetry_equiv_pos_as_xyz
  1  'x, y, z'
loop_
 _atom_site_type_symbol
 _atom_site_label
 _atom_site_symmetry_multiplicity
 _atom_site_fract_x
 _atom_site_fract_y
 _atom_site_fract_z
 _atom_site_occupancy
  Y  Y0  1  0.86088119  0.60042799  0.77000566  1
  Y  Y1  1  0.39957344  0.13911816  0.73000108  1
  Y  Y2  1  0.13911231  0.39935549  0.23111845  1
  Y  Y3  1  0.60064244  0.86089060  0.26888424  1
  Mn  Mn0  1  0.00001360  0.99997626  0.74997928  1
  Si  Si0  1  0.77740180  0.22259812  0.75000210  1
  Si  Si1  1  0.22646326  0.77354071  0.25000145  1
  Si  Si2  1  0.50004385  0.49995208  0.75000697  1
  Si  Si3  1  0.50005219  0.49995067  0.24999931  1
  Si  Si4  1  0.22251391  0.77748299  0.74999937  1
  Si  Si5  1  0.77351476  0.22648743  0.25000169  1
  Si  Si6  1  0.04502447  0.25334197  0.83449120  1
  Si  Si7  1  0.25326571  0.04492818  0.36645383  1
  Si  Si8  1  0.95507296  0.74673503  0.13355170  1
  Si  Si9  1  0.74665980  0.95497715  0.66551201  1
  Pt  Pt0  1  0.52307884  0.24598967  0.11372726  1
  Pt  Pt1  1  0.99983805  0.00016221  0.25000158  1
  Pt  Pt2  1  0.24608893  0.52325815  0.61709813  1
  Pt  Pt3  1  0.47674455  0.75391205  0.88289688  1
  Pt  Pt4  1  0.75401293  0.47691610  0.38626782  1
loop_
_geom_bond_atom_site_label_1
_geom_bond_atom_site_label_2
_geom_bond_distance
_geom_bond_site_symmetry_2
Mn0 Si9 2.342191 1_455
Mn0 Si6 2.342471 1_565
Mn0 Si7 2.345265 1_565
Mn0 Si8 2.345396 1_456
Mn0 Si4 2.521128 1_555
Mn0 Si0 2.522488 1_465
Mn0 Y0 3.396642 1_455
Mn0 Y1 3.396865 1_565
Mn0 Y2 3.397633 1_565
Mn0 Y3 3.397697 1_456
Si0 Si9 2.427788 1_545
Si0 Si6 2.427789 1_655
Si0 Y1 3.199714 1_555
Si0 Y0 3.199746 1_555
Si0 Y3 3.235350 1_546
Si0 Y2 3.235364 1_655
Si1 Si7 2.560820 1_565
Si1 Si8 2.560826 1_455
Si1 Y3 3.175790 1_555
Si1 Y2 3.175855 1_555
Si1 Y1 3.252978 1_564
Si1 Y0 3.253010 1_455
Si2 Y1 3.103724 1_555
Si2 Y0 3.103731 1_555
Si2 Y2 3.104878 1_556
Si2 Y3 3.104945 1_555
Si3 Y0 3.101310 1_554
Si3 Y1 3.101351 1_555
Si3 Y2 3.101717 1_555
Si3 Y3 3.101730 1_555
Si4 Si7 2.430247 1_565
Si4 Si8 2.430257 1_456
Si4 Y3 3.202043 1_555
Si4 Y2 3.202054 1_556
Si4 Y0 3.233335 1_455
Si4 Y1 3.233400 1_565
Si5 Si9 2.565380 1_545
Si5 Si6 2.565380 1_654
Si5 Y0 3.174670 1_554
Si5 Y1 3.174679 1_555
Si5 Y2 3.250323 1_655
Si5 Y3 3.250345 1_545
Si6 Y1 2.915509 1_555
Si6 Y2 3.092347 1_555
Si6 Y0 3.119191 1_455
Si6 Y2 3.271382 1_556
Si7 Y2 2.914377 1_555
Si7 Y1 3.094482 1_555
Si7 Y3 3.120545 1_545
Si7 Y1 3.270926 1_554
Si8 Y3 2.914400 1_555
Si8 Y0 3.094482 1_554
Si8 Y2 3.120576 1_655
Si8 Y0 3.270929 1_555
Si9 Y0 2.915511 1_555
Si9 Y3 3.092346 1_556
Si9 Y1 3.119177 1_565
Si9 Y3 3.271396 1_555
Pt0 Si7 2.384127 1_555
Pt0 Si5 2.417690 1_555
Pt0 Si2 2.431689 1_554
Pt0 Si0 2.434335 1_554
Pt0 Si3 2.443157 1_555
Pt0 Y3 3.037489 1_545
Pt0 Y1 3.144838 1_554
Pt0 Y1 3.157936 1_555
Pt0 Y2 3.254547 1_555
Pt0 Y0 3.455856 1_554
Pt1 Si8 2.456661 1_545
Pt1 Si7 2.456664 1_655
Pt1 Si9 2.459370 1_545
Pt1 Si6 2.459372 1_654
Pt1 Si5 2.564497 1_555
Pt1 Si1 2.567886 1_645
Pt1 Y3 3.397198 1_545
Pt1 Y2 3.397199 1_655
Pt1 Y1 3.402316 1_654
Pt1 Y0 3.402322 1_545
Pt2 Si6 2.384830 1_555
Pt2 Si1 2.417848 1_555
Pt2 Si2 2.431103 1_555
Pt2 Si4 2.433067 1_555
Pt2 Si3 2.444452 1_555
Pt2 Y0 3.037346 1_455
Pt2 Y2 3.145234 1_556
Pt2 Y2 3.159472 1_555
Pt2 Y1 3.256202 1_555
Pt2 Y3 3.455636 1_555
Pt3 Si9 2.384827 1_555
Pt3 Si1 2.417882 1_556
Pt3 Si2 2.431092 1_555
Pt3 Si4 2.433088 1_555
Pt3 Si3 2.444455 1_556
Pt3 Y1 3.037346 1_565
Pt3 Y3 3.145194 1_555
Pt3 Y3 3.159499 1_556
Pt3 Y0 3.256169 1_555
Pt3 Y2 3.455652 1_556
Pt4 Si8 2.384154 1_555
Pt4 Si5 2.417617 1_555
Pt4 Si2 2.431790 1_555
Pt4 Si0 2.434335 1_555
Pt4 Si3 2.443126 1_555
Pt4 Y2 3.037475 1_655
Pt4 Y0 3.144919 1_555
Pt4 Y0 3.157871 1_554
Pt4 Y3 3.254627 1_555
Pt4 Y1 3.455840 1_555
