# generated using pymatgen
data_RbAlGeSe4
_symmetry_space_group_name_H-M   'P 1'
_cell_length_a   16.99997676
_cell_length_b   7.25553851
_cell_length_c   7.73450363
_cell_angle_alpha   69.64889692
_cell_angle_beta   90.00000000
_cell_angle_gamma   90.00000000
_symmetry_Int_Tables_number   1
_chemical_formula_structural   RbAlGeSe4
_chemical_formula_sum   'Rb4 Al4 Ge4 Se16'
_cell_volume   894.45471028
_cell_formula_units_Z   4
loop_
 _symmetry_equiv_pos_site_id
 _symmetry_equiv_pos_as_xyz
  1  'x, y, z'
loop_
 _atom_site_type_symbol
 _atom_site_label
 _atom_site_symmetry_multiplicity
 _atom_site_fract_x
 _atom_site_fract_y
 _atom_site_fract_z
 _atom_site_occupancy
  Rb  Rb0  1  0.39579016  0.95515164  0.17712279  1
  Rb  Rb1  1  0.89579016  0.04484836  0.82287721  1
  Rb  Rb2  1  0.60228854  0.51704763  0.82871537  1
  Rb  Rb3  1  0.10228854  0.48295237  0.17128463  1
  Al  Al0  1  0.58281395  0.16417305  0.47903734  1
  Al  Al1  1  0.08281395  0.83582695  0.52096266  1
  Al  Al2  1  0.27288587  0.59477019  0.70438006  1
  Al  Al3  1  0.77288587  0.40522981  0.29561994  1
  Ge  Ge0  1  0.42008168  0.32891175  0.53265677  1
  Ge  Ge1  1  0.92008168  0.67108825  0.46734323  1
  Ge  Ge2  1  0.72469759  0.91031265  0.27809228  1
  Ge  Ge3  1  0.22469759  0.08968735  0.72190772  1
  Se  Se0  1  0.59417344  0.88275277  0.38529625  1
  Se  Se1  1  0.09417344  0.11724723  0.61470375  1
  Se  Se2  1  0.40994465  0.60473642  0.62515809  1
  Se  Se3  1  0.90994465  0.39526358  0.37484191  1
  Se  Se4  1  0.80070416  0.78505222  0.55484379  1
  Se  Se5  1  0.30070416  0.21494778  0.44515621  1
  Se  Se6  1  0.20066278  0.72747414  0.43072491  1
  Se  Se7  1  0.70066278  0.27252586  0.56927509  1
  Se  Se8  1  0.76235204  0.22843872  0.08576383  1
  Se  Se9  1  0.26235204  0.77156128  0.91423617  1
  Se  Se10  1  0.23953490  0.27381567  0.91691892  1
  Se  Se11  1  0.73953490  0.72618433  0.08308108  1
  Se  Se12  1  0.99716403  0.91759436  0.25412324  1
  Se  Se13  1  0.49716403  0.08240564  0.74587676  1
  Se  Se14  1  0.99690422  0.59979005  0.73775849  1
  Se  Se15  1  0.49690422  0.40020995  0.26224151  1
loop_
_geom_bond_atom_site_label_1
_geom_bond_atom_site_label_2
_geom_bond_distance
_geom_bond_site_symmetry_2
Rb0 Se2 3.521708 1_555
Rb0 Se13 3.578518 1_564
Rb0 Se9 3.596990 1_554
Rb0 Se5 3.630672 1_565
Rb0 Se10 3.635340 1_564
Rb0 Se0 3.695127 1_555
Rb0 Se15 3.910775 1_565
Rb0 Se6 3.914858 1_555
Rb1 Se3 3.521708 1_555
Rb1 Se12 3.578518 1_546
Rb1 Se8 3.596990 1_556
Rb1 Se4 3.630672 1_545
Rb1 Se11 3.635340 1_546
Rb1 Se1 3.695127 1_655
Rb1 Se14 3.910775 1_545
Rb1 Se7 3.914858 1_555
Rb2 Se7 3.528050 1_555
Rb2 Se0 3.534444 1_555
Rb2 Se8 3.584155 1_556
Rb2 Se2 3.588692 1_555
Rb2 Se15 3.632420 1_556
Rb2 Se11 3.700447 1_556
Rb2 Se13 3.867120 1_555
Rb3 Se6 3.528050 1_555
Rb3 Se1 3.534444 1_555
Rb3 Se9 3.584155 1_554
Rb3 Se3 3.588692 1_455
Rb3 Se14 3.632420 1_454
Rb3 Se10 3.700447 1_554
Rb3 Se12 3.867120 1_455
Al0 Se7 2.345321 1_555
Al0 Se0 2.400386 1_545
Al0 Se13 2.424862 1_555
Al0 Se15 2.424909 1_555
Al1 Se6 2.345321 1_555
Al1 Se1 2.400386 1_565
Al1 Se12 2.424862 1_455
Al1 Se14 2.424909 1_455
Al2 Se6 2.344568 1_555
Al2 Se9 2.400025 1_555
Al2 Se2 2.403902 1_555
Al2 Se10 2.404998 1_555
Al3 Se7 2.344568 1_555
Al3 Se8 2.400025 1_555
Al3 Se3 2.403902 1_555
Al3 Se11 2.404998 1_555
Ge0 Se2 2.354247 1_555
Ge0 Se13 2.363080 1_555
Ge0 Se15 2.365403 1_555
Ge0 Se5 2.376866 1_555
Ge1 Se3 2.354247 1_555
Ge1 Se12 2.363080 1_555
Ge1 Se14 2.365403 1_555
Ge1 Se4 2.376866 1_555
Ge2 Se11 2.350520 1_555
Ge2 Se0 2.352814 1_555
Ge2 Se8 2.358409 1_565
Ge2 Se4 2.392554 1_555
Ge3 Se10 2.350520 1_555
Ge3 Se1 2.352814 1_555
Ge3 Se9 2.358409 1_545
Ge3 Se5 2.392554 1_555
