# generated using pymatgen
data_Cs8Zr6BeCl20
_symmetry_space_group_name_H-M   'P 1'
_cell_length_a   11.79707725
_cell_length_b   11.79707834
_cell_length_c   11.79707790
_cell_angle_alpha   60.00000124
_cell_angle_beta   59.99999817
_cell_angle_gamma   60.00000186
_symmetry_Int_Tables_number   1
_chemical_formula_structural   Cs8Zr6BeCl20
_chemical_formula_sum   'Cs8 Zr6 Be1 Cl20'
_cell_volume   1160.93616465
_cell_formula_units_Z   1
loop_
 _symmetry_equiv_pos_site_id
 _symmetry_equiv_pos_as_xyz
  1  'x, y, z'
loop_
 _atom_site_type_symbol
 _atom_site_label
 _atom_site_symmetry_multiplicity
 _atom_site_fract_x
 _atom_site_fract_y
 _atom_site_fract_z
 _atom_site_occupancy
  Cs  Cs0  1  0.36063981  0.36063981  0.36063981  1
  Cs  Cs1  1  0.63936019  0.63936019  0.63936019  1
  Cs  Cs2  1  0.36063981  0.36063981  0.91807957  1
  Cs  Cs3  1  0.36063981  0.91807957  0.36063981  1
  Cs  Cs4  1  0.63936019  0.63936019  0.08192043  1
  Cs  Cs5  1  0.63936019  0.08192043  0.63936019  1
  Cs  Cs6  1  0.91807957  0.36063981  0.36063981  1
  Cs  Cs7  1  0.08192043  0.63936019  0.63936019  1
  Zr  Zr0  1  0.85916737  0.14083263  0.14083263  1
  Zr  Zr1  1  0.14083263  0.85916737  0.85916737  1
  Zr  Zr2  1  0.14083263  0.85916737  0.14083263  1
  Zr  Zr3  1  0.85916737  0.14083263  0.85916737  1
  Zr  Zr4  1  0.14083263  0.14083263  0.85916737  1
  Zr  Zr5  1  0.85916737  0.85916737  0.14083263  1
  Be  Be0  1  0.00000000  0.00000000  0.00000000  1
  Cl  Cl0  1  0.31083305  0.00000000  0.00000000  1
  Cl  Cl1  1  0.68916695  0.00000000  1.00000000  1
  Cl  Cl2  1  1.00000000  0.31083305  0.68916695  1
  Cl  Cl3  1  0.00000000  0.68916695  0.31083305  1
  Cl  Cl4  1  1.00000000  0.31083305  1.00000000  1
  Cl  Cl5  1  0.68916695  0.00000000  0.31083305  1
  Cl  Cl6  1  0.00000000  0.68916695  0.00000000  1
  Cl  Cl7  1  0.31083305  0.00000000  0.68916695  1
  Cl  Cl8  1  0.00000000  0.00000000  0.31083305  1
  Cl  Cl9  1  0.00000000  0.00000000  0.68916695  1
  Cl  Cl10  1  0.68916695  0.31083305  1.00000000  1
  Cl  Cl11  1  0.31083305  0.68916695  0.00000000  1
  Cl  Cl12  1  0.69729533  0.30270467  0.30270467  1
  Cl  Cl13  1  0.30270467  0.69729533  0.69729533  1
  Cl  Cl14  1  0.30270467  0.69729533  0.30270467  1
  Cl  Cl15  1  0.69729533  0.30270467  0.69729533  1
  Cl  Cl16  1  0.30270467  0.30270467  0.69729533  1
  Cl  Cl17  1  0.69729533  0.69729533  0.30270467  1
  Cl  Cl18  1  0.25000000  0.25000000  0.25000000  1
  Cl  Cl19  1  0.75000000  0.75000000  0.75000000  1
loop_
_geom_bond_atom_site_label_1
_geom_bond_atom_site_label_2
_geom_bond_distance
_geom_bond_site_symmetry_2
Be0 Zr4 2.349594 1_554
Be0 Zr5 2.349594 1_445
Be0 Zr2 2.349594 1_545
Be0 Zr3 2.349594 1_454
Be0 Zr0 2.349594 1_455
Be0 Zr1 2.349594 1_544
Cl0 Zr2 2.604296 1_545
Cl0 Zr4 2.604296 1_554
Cl1 Zr3 2.604296 1_555
Cl1 Zr5 2.604296 1_546
Cl2 Zr3 2.604296 1_555
Cl2 Zr4 2.604296 1_655
Cl3 Zr2 2.604296 1_555
Cl3 Zr5 2.604296 1_455
Cl4 Zr0 2.604296 1_556
Cl4 Zr4 2.604296 1_655
Cl5 Zr0 2.604296 1_555
Cl5 Zr5 2.604296 1_545
Cl6 Zr1 2.604296 1_554
Cl6 Zr5 2.604296 1_455
Cl7 Zr1 2.604296 1_545
Cl7 Zr4 2.604296 1_555
Cl8 Zr0 2.604296 1_455
Cl8 Zr2 2.604296 1_545
Cl9 Zr1 2.604296 1_545
Cl9 Zr3 2.604296 1_455
Cl10 Zr3 2.604296 1_555
Cl10 Zr0 2.604296 1_556
Cl11 Zr2 2.604296 1_555
Cl11 Zr1 2.604296 1_554
Cl12 Zr0 2.700606 1_555
Cl12 Cs6 3.427197 1_555
Cl12 Cs5 3.427205 1_555
Cl12 Cs4 3.427206 1_555
Cl12 Cs0 3.427208 1_555
Cl13 Zr1 2.700606 1_555
Cl13 Cs7 3.427197 1_555
Cl13 Cs3 3.427205 1_555
Cl13 Cs2 3.427206 1_555
Cl13 Cs1 3.427208 1_555
Cl14 Zr2 2.700606 1_555
Cl14 Cs3 3.427197 1_555
Cl14 Cs4 3.427205 1_555
Cl14 Cs7 3.427205 1_555
Cl14 Cs0 3.427209 1_555
Cl15 Zr3 2.700606 1_555
Cl15 Cs5 3.427197 1_555
Cl15 Cs2 3.427205 1_555
Cl15 Cs6 3.427205 1_555
Cl15 Cs1 3.427209 1_555
Cl16 Zr4 2.700606 1_555
Cl16 Cs2 3.427197 1_555
Cl16 Cs5 3.427205 1_555
Cl16 Cs7 3.427206 1_555
Cl16 Cs0 3.427209 1_555
Cl17 Zr5 2.700606 1_555
Cl17 Cs4 3.427197 1_555
Cl17 Cs3 3.427205 1_555
Cl17 Cs6 3.427206 1_555
Cl17 Cs1 3.427209 1_555
Cl18 Cs0 3.197139 1_555
Cl18 Cs6 3.197148 1_455
Cl18 Cs2 3.197148 1_554
Cl18 Cs3 3.197149 1_545
Cl19 Cs1 3.197139 1_555
Cl19 Cs7 3.197148 1_655
Cl19 Cs4 3.197148 1_556
Cl19 Cs5 3.197149 1_565
