# generated using pymatgen
data_KZrIrSe4
_symmetry_space_group_name_H-M   'P 1'
_cell_length_a   3.81135771
_cell_length_b   8.41207980
_cell_length_c   6.13029709
_cell_angle_alpha   70.04032882
_cell_angle_beta   90.00000001
_cell_angle_gamma   90.00000661
_symmetry_Int_Tables_number   1
_chemical_formula_structural   KZrIrSe4
_chemical_formula_sum   'K1 Zr1 Ir1 Se4'
_cell_volume   184.74026945
_cell_formula_units_Z   1
loop_
 _symmetry_equiv_pos_site_id
 _symmetry_equiv_pos_as_xyz
  1  'x, y, z'
loop_
 _atom_site_type_symbol
 _atom_site_label
 _atom_site_symmetry_multiplicity
 _atom_site_fract_x
 _atom_site_fract_y
 _atom_site_fract_z
 _atom_site_occupancy
  K  K0  1  0.50000000  0.50679086  0.65235254  1
  Zr  Zr0  1  0.00000000  0.99110911  0.95569020  1
  Ir  Ir0  1  0.50000000  0.00533040  0.53316292  1
  Se  Se0  1  0.00000000  0.84181159  0.44070220  1
  Se  Se1  1  0.50000000  0.77593874  0.94147707  1
  Se  Se2  1  1.00000000  0.20846406  0.54305695  1
  Se  Se3  1  0.50000000  0.16967625  0.10051713  1
loop_
_geom_bond_atom_site_label_1
_geom_bond_atom_site_label_2
_geom_bond_distance
_geom_bond_site_symmetry_2
K0 Se3 3.204830 1_556
K0 Se0 3.280399 1_655
K0 Se0 3.280400 1_555
K0 Se1 3.317722 1_555
K0 Se2 3.395042 1_455
K0 Se2 3.395042 1_555
Ir0 Se0 2.525326 1_545
Ir0 Se0 2.525326 1_645
Ir0 Se3 2.538183 1_555
Ir0 Se2 2.574095 1_555
Ir0 Se2 2.574096 1_455
Ir0 Se1 2.586781 1_545
Se0 Zr0 2.805041 1_554
Se1 Zr0 2.650110 1_655
Se1 Zr0 2.650110 1_555
Se2 Zr0 2.565960 1_645
Se3 Zr0 2.754400 1_544
Se3 Zr0 2.754400 1_644
