# generated using pymatgen
data_Rb4TaMnAs4
_symmetry_space_group_name_H-M   'P 1'
_cell_length_a   8.56906389
_cell_length_b   8.56906393
_cell_length_c   8.56906370
_cell_angle_alpha   135.75995122
_cell_angle_beta   127.50290233
_cell_angle_gamma   71.02080937
_symmetry_Int_Tables_number   1
_chemical_formula_structural   Rb4TaMnAs4
_chemical_formula_sum   'Rb4 Ta1 Mn1 As4'
_cell_volume   341.18806443
_cell_formula_units_Z   1
loop_
 _symmetry_equiv_pos_site_id
 _symmetry_equiv_pos_as_xyz
  1  'x, y, z'
loop_
 _atom_site_type_symbol
 _atom_site_label
 _atom_site_symmetry_multiplicity
 _atom_site_fract_x
 _atom_site_fract_y
 _atom_site_fract_z
 _atom_site_occupancy
  Rb  Rb0  1  0.99903448  0.14065923  0.83848594  1
  Rb  Rb1  1  0.00096552  0.83945147  0.14162476  1
  Rb  Rb2  1  0.69782671  0.35934077  0.35837524  1
  Rb  Rb3  1  0.30217329  0.66054853  0.66151406  1
  Ta  Ta0  1  0.50000000  0.25000000  0.75000000  1
  Mn  Mn0  1  0.50000000  0.75000000  0.25000000  1
  As  As0  1  0.22479368  0.39660323  0.81513688  1
  As  As1  1  0.77520632  0.59034219  0.17180855  1
  As  As2  1  0.41853365  0.10339677  0.32819145  1
  As  As3  1  0.58146635  0.90965781  0.68486312  1
loop_
_geom_bond_atom_site_label_1
_geom_bond_atom_site_label_2
_geom_bond_distance
_geom_bond_site_symmetry_2
As0 Ta0 2.474293 1_555
As0 Mn0 2.528623 1_556
As0 Rb0 3.528799 1_455
As0 Rb1 3.534629 1_556
As0 Rb1 3.574672 1_545
As0 Rb2 3.665957 1_455
As0 Rb3 3.686815 1_555
As1 Ta0 2.474289 1_554
As1 Mn0 2.528628 1_555
As1 Rb1 3.528799 1_655
As1 Rb0 3.534635 1_565
As1 Rb0 3.574666 1_554
As1 Rb3 3.665957 1_655
As1 Rb2 3.686815 1_555
As2 Ta0 2.474285 1_555
As2 Mn0 2.528620 1_545
As2 Rb2 3.528806 1_555
As2 Rb3 3.534635 1_544
As2 Rb3 3.574672 1_555
As2 Rb0 3.665962 1_454
As2 Rb1 3.686809 1_545
As3 Ta0 2.474285 1_565
As3 Mn0 2.528620 1_555
As3 Rb3 3.528806 1_555
As3 Rb2 3.534635 1_555
As3 Rb2 3.574672 1_566
As3 Rb1 3.665962 1_656
As3 Rb0 3.686809 1_565
