# generated using pymatgen
data_CsP2IrRh
_symmetry_space_group_name_H-M   'P 1'
_cell_length_a   7.77810659
_cell_length_b   7.77810674
_cell_length_c   7.77810639
_cell_angle_alpha   150.70727617
_cell_angle_beta   150.70728102
_cell_angle_gamma   41.90417880
_symmetry_Int_Tables_number   1
_chemical_formula_structural   CsP2IrRh
_chemical_formula_sum   'Cs1 P2 Ir1 Rh1'
_cell_volume   112.38450146
_cell_formula_units_Z   1
loop_
 _symmetry_equiv_pos_site_id
 _symmetry_equiv_pos_as_xyz
  1  'x, y, z'
loop_
 _atom_site_type_symbol
 _atom_site_label
 _atom_site_symmetry_multiplicity
 _atom_site_fract_x
 _atom_site_fract_y
 _atom_site_fract_z
 _atom_site_occupancy
  Cs  Cs0  1  0.00000000  0.00000000  0.00000000  1
  P  P0  1  0.33676230  0.33676230  0.00000000  1
  P  P1  1  0.66323770  0.66323770  1.00000000  1
  Ir  Ir0  1  0.75000000  0.25000000  0.50000000  1
  Rh  Rh0  1  0.25000000  0.75000000  0.50000000  1
loop_
_geom_bond_atom_site_label_1
_geom_bond_atom_site_label_2
_geom_bond_distance
_geom_bond_site_symmetry_2
Cs0 P1 3.655095 1_443
Cs0 P0 3.655095 1_556
Cs0 P1 3.655095 1_555
Cs0 P0 3.655095 1_444
Cs0 P1 3.655096 1_544
Cs0 P0 3.655096 1_455
Cs0 P1 3.655096 1_454
Cs0 P0 3.655096 1_545
P0 Rh0 2.335957 1_555
P0 Rh0 2.335957 1_544
P1 Rh0 2.335956 1_555
P1 Rh0 2.335956 1_656
Ir0 P0 2.335956 1_555
Ir0 P0 2.335956 1_656
Ir0 P1 2.335957 1_555
Ir0 P1 2.335957 1_544
Ir0 Rh0 2.781351 1_656
Ir0 Rh0 2.781351 1_544
Ir0 Rh0 2.781351 1_645
Ir0 Rh0 2.781351 1_555
