# generated using pymatgen
data_Cs2SiWN4
_symmetry_space_group_name_H-M   'P 1'
_cell_length_a   5.86939373
_cell_length_b   5.86939457
_cell_length_c   5.86939431
_cell_angle_alpha   59.99999593
_cell_angle_beta   59.99999119
_cell_angle_gamma   59.99999887
_symmetry_Int_Tables_number   1
_chemical_formula_structural   Cs2SiWN4
_chemical_formula_sum   'Cs2 Si1 W1 N4'
_cell_volume   142.97654302
_cell_formula_units_Z   1
loop_
 _symmetry_equiv_pos_site_id
 _symmetry_equiv_pos_as_xyz
  1  'x, y, z'
loop_
 _atom_site_type_symbol
 _atom_site_label
 _atom_site_symmetry_multiplicity
 _atom_site_fract_x
 _atom_site_fract_y
 _atom_site_fract_z
 _atom_site_occupancy
  Cs  Cs0  1  0.25000000  0.25000000  0.25000000  1
  Cs  Cs1  1  0.00000000  0.00000000  0.00000000  1
  Si  Si0  1  0.50000000  0.50000000  0.50000000  1
  W  W0  1  0.75000000  0.75000000  0.75000000  1
  N  N0  1  0.62051642  0.62051642  0.62051642  1
  N  N1  1  0.13844873  0.62051642  0.62051642  1
  N  N2  1  0.62051642  0.13844873  0.62051642  1
  N  N3  1  0.62051642  0.62051642  0.13844873  1
loop_
_geom_bond_atom_site_label_1
_geom_bond_atom_site_label_2
_geom_bond_distance
_geom_bond_site_symmetry_2
Cs0 N3 3.430598 1_555
Cs0 N2 3.430598 1_555
Cs0 N1 3.430599 1_555
Cs0 N0 3.430603 1_554
Cs0 N0 3.430603 1_455
Cs0 N0 3.430604 1_545
Cs0 N2 3.430608 1_455
Cs0 N3 3.430608 1_455
Cs0 N2 3.430608 1_554
Cs0 N1 3.430608 1_554
Cs0 N1 3.430608 1_545
Cs0 N3 3.430609 1_545
Cs1 N2 3.453036 1_554
Cs1 N3 3.453037 1_545
Cs1 N2 3.453037 1_455
Cs1 N1 3.453037 1_554
Cs1 N1 3.453037 1_545
Cs1 N3 3.453037 1_455
Cs1 N0 3.453042 1_445
Cs1 N0 3.453042 1_544
Cs1 N0 3.453042 1_454
Cs1 N3 3.453047 1_445
Cs1 N2 3.453047 1_454
Cs1 N1 3.453047 1_544
N0 Si0 1.732667 1_555
N0 W0 1.861588 1_555
N1 Si0 1.732676 1_555
N1 W0 1.861578 1_455
N2 Si0 1.732677 1_555
N2 W0 1.861579 1_545
N3 Si0 1.732677 1_555
N3 W0 1.861578 1_554
