# generated using pymatgen
data_Ca2B4Os3C
_symmetry_space_group_name_H-M   'P 1'
_cell_length_a   5.60905438
_cell_length_b   5.60905367
_cell_length_c   7.93469252
_cell_angle_alpha   58.28308915
_cell_angle_beta   58.28309130
_cell_angle_gamma   42.16194270
_symmetry_Int_Tables_number   1
_chemical_formula_structural   Ca2B4Os3C
_chemical_formula_sum   'Ca2 B4 Os3 C1'
_cell_volume   138.43480437
_cell_formula_units_Z   1
loop_
 _symmetry_equiv_pos_site_id
 _symmetry_equiv_pos_as_xyz
  1  'x, y, z'
loop_
 _atom_site_type_symbol
 _atom_site_label
 _atom_site_symmetry_multiplicity
 _atom_site_fract_x
 _atom_site_fract_y
 _atom_site_fract_z
 _atom_site_occupancy
  Ca  Ca0  1  0.39306689  0.91824284  0.74613541  1
  Ca  Ca1  1  0.08175716  0.60693311  0.25386459  1
  B  B0  1  0.53697600  0.52846067  0.37775420  1
  B  B1  1  0.47153933  0.46302400  0.62224580  1
  B  B2  1  0.07536465  0.62930535  0.81166926  1
  B  B3  1  0.37069465  0.92463535  0.18833074  1
  Os  Os0  1  0.00914174  0.99085826  0.50000000  1
  Os  Os1  1  0.61306613  0.12791593  0.90667772  1
  Os  Os2  1  0.87208407  0.38693387  0.09332228  1
  C  C0  1  0.74258137  0.25741863  0.00000000  1
loop_
_geom_bond_atom_site_label_1
_geom_bond_atom_site_label_2
_geom_bond_distance
_geom_bond_site_symmetry_2
Ca0 Os0 3.174190 1_655
Ca0 Os0 3.301953 1_555
Ca1 Os0 3.174190 1_545
Ca1 Os0 3.301953 1_555
B0 B1 1.653866 1_555
B0 B3 1.719465 1_555
B0 Os2 2.113776 1_555
B0 Os0 2.162177 1_555
B0 Os0 2.198646 1_645
B0 Ca1 2.863164 1_555
B0 Ca1 2.979606 1_655
B1 B2 1.719465 1_555
B1 Os1 2.113776 1_555
B1 Os0 2.162177 1_555
B1 Os0 2.198646 1_645
B1 Ca0 2.863164 1_555
B1 Ca0 2.979606 1_545
B2 Os1 2.127013 1_465
B2 Os2 2.137045 1_456
B2 Os0 2.223126 1_555
B2 Os1 2.271703 1_555
B2 Ca0 2.914386 1_555
B2 Ca0 3.091041 1_455
B2 Ca0 3.165890 1_545
B3 Os2 2.127013 1_465
B3 Os1 2.137045 1_564
B3 Os0 2.223126 1_555
B3 Os2 2.271703 1_555
B3 Ca1 2.914386 1_555
B3 Ca1 3.091041 1_565
B3 Ca1 3.165890 1_655
C0 Os2 1.875407 1_555
C0 Os1 1.875407 1_554
C0 Ca1 2.645833 1_645
C0 Ca0 2.645834 1_644
C0 Ca0 2.677454 1_554
C0 Ca1 2.677455 1_555
