# generated using pymatgen
data_Ir2Rh2Pb4O13
_symmetry_space_group_name_H-M   'P 1'
_cell_length_a   7.23630369
_cell_length_b   7.23861676
_cell_length_c   7.23974834
_cell_angle_alpha   119.95941710
_cell_angle_beta   90.00874534
_cell_angle_gamma   120.01347047
_symmetry_Int_Tables_number   1
_chemical_formula_structural   Ir2Rh2Pb4O13
_chemical_formula_sum   'Ir2 Rh2 Pb4 O13'
_cell_volume   268.24122257
_cell_formula_units_Z   1
loop_
 _symmetry_equiv_pos_site_id
 _symmetry_equiv_pos_as_xyz
  1  'x, y, z'
loop_
 _atom_site_type_symbol
 _atom_site_label
 _atom_site_symmetry_multiplicity
 _atom_site_fract_x
 _atom_site_fract_y
 _atom_site_fract_z
 _atom_site_occupancy
  Ir  Ir0  1  0.62474759  0.75045619  0.37516831  1
  Ir  Ir1  1  0.62472785  0.24952444  0.87424207  1
  Rh  Rh0  1  0.62453241  0.24945731  0.37508844  1
  Rh  Rh1  1  0.12565430  0.75056284  0.37507902  1
  Pb  Pb0  1  0.12302425  0.24619040  0.36904972  1
  Pb  Pb1  1  0.12216899  0.24415931  0.87812005  1
  Pb  Pb2  1  0.12273327  0.75411403  0.87693537  1
  Pb  Pb3  1  0.63403930  0.75597178  0.87808467  1
  O  O0  1  0.54582561  0.09035971  0.04343064  1
  O  O1  1  0.54558415  0.49988119  0.04570789  1
  O  O2  1  0.95314517  0.49755171  0.04340288  1
  O  O3  1  0.29697263  0.99997769  0.29701134  1
  O  O4  1  0.70049539  0.99729099  0.29658076  1
  O  O5  1  0.29937399  0.59617426  0.29658774  1
  O  O6  1  0.95566643  0.49988072  0.45545415  1
  O  O7  1  0.95315990  0.90966097  0.45549867  1
  O  O8  1  0.54582860  0.50233671  0.45551858  1
  O  O9  1  0.29933069  0.00279297  0.70322879  1
  O  O10  1  0.70130578  0.99997302  0.70126461  1
  O  O11  1  0.70039989  0.40372981  0.70318279  1
  O  O12  1  0.25128881  0.49995296  0.75136451  1
loop_
_geom_bond_atom_site_label_1
_geom_bond_atom_site_label_2
_geom_bond_distance
_geom_bond_site_symmetry_2
Ir0 O5 1.961893 1_555
Ir0 O4 1.962717 1_555
Ir0 O10 1.970405 1_555
Ir0 O7 1.975946 1_555
Ir0 O8 1.976814 1_555
Ir0 O1 1.986556 1_555
Ir1 O11 1.961868 1_555
Ir1 O9 1.962291 1_555
Ir1 O10 1.969944 1_545
Ir1 O0 1.976199 1_556
Ir1 O2 1.976272 1_556
Ir1 O1 1.986157 1_556
O0 Rh0 1.999399 1_555
O0 Pb3 2.520182 1_544
O0 Pb2 2.522769 1_544
O1 Pb1 2.523531 1_554
O1 Pb3 2.525632 1_554
O2 Rh1 1.999517 1_655
O2 Pb1 2.518899 1_654
O2 Pb2 2.522578 1_654
O3 Rh1 1.973859 1_555
O3 Rh0 1.974068 1_565
O3 Pb0 2.519711 1_565
O3 Pb2 2.520784 1_554
O4 Rh0 1.981094 1_565
O4 Pb3 2.517044 1_554
O4 Pb0 2.532657 1_665
O5 Rh1 1.980784 1_555
O5 Pb1 2.517020 1_554
O5 Pb0 2.532820 1_555
O6 Rh1 1.991549 1_655
O6 Rh0 1.991728 1_555
O6 Pb0 2.511563 1_655
O6 Pb2 2.514740 1_655
O7 Rh1 1.997991 1_655
O7 Pb1 2.521335 1_665
O7 Pb0 2.522737 1_665
O8 Rh0 1.998150 1_555
O8 Pb3 2.520820 1_555
O8 Pb0 2.521014 1_555
O9 Rh1 1.982006 1_545
O9 Pb1 2.516155 1_555
O9 Pb2 2.532810 1_545
O10 Pb1 2.528206 1_665
O10 Pb3 2.528556 1_555
O11 Rh0 1.981810 1_555
O11 Pb3 2.517065 1_555
O11 Pb2 2.532386 1_655
O12 Pb1 2.260562 1_555
O12 Pb0 2.261036 1_555
O12 Pb3 2.261303 1_555
O12 Pb2 2.262428 1_555
