# generated using pymatgen
data_K2Na2SiS4
_symmetry_space_group_name_H-M   'P 1'
_cell_length_a   12.17678150
_cell_length_b   10.75349111
_cell_length_c   7.50213347
_cell_angle_alpha   81.57296146
_cell_angle_beta   60.87731573
_cell_angle_gamma   37.54971097
_symmetry_Int_Tables_number   1
_chemical_formula_structural   K2Na2SiS4
_chemical_formula_sum   'K4 Na4 Si2 S8'
_cell_volume   467.19719449
_cell_formula_units_Z   2
loop_
 _symmetry_equiv_pos_site_id
 _symmetry_equiv_pos_as_xyz
  1  'x, y, z'
loop_
 _atom_site_type_symbol
 _atom_site_label
 _atom_site_symmetry_multiplicity
 _atom_site_fract_x
 _atom_site_fract_y
 _atom_site_fract_z
 _atom_site_occupancy
  K  K0  1  0.30939893  0.30939893  0.69060107  1
  K  K1  1  0.69060107  0.69060107  0.30939893  1
  K  K2  1  0.55939893  0.55939893  0.94060107  1
  K  K3  1  0.94060107  0.94060107  0.55939893  1
  Na  Na0  1  0.14853960  0.14853960  0.35146040  1
  Na  Na1  1  0.89853960  0.89853960  0.10146040  1
  Na  Na2  1  0.10146040  0.10146040  0.89853960  1
  Na  Na3  1  0.35146040  0.35146040  0.14853960  1
  Si  Si0  1  0.50000000  0.50000000  0.50000000  1
  Si  Si1  1  0.75000000  0.75000000  0.75000000  1
  S  S0  1  0.88932236  0.72874897  0.41877941  1
  S  S1  1  0.96315026  0.41877941  0.72874897  1
  S  S2  1  0.52125103  0.36067764  0.28684974  1
  S  S3  1  0.41877941  0.96315026  0.88932236  1
  S  S4  1  0.28684974  0.83122059  0.52125103  1
  S  S5  1  0.72874897  0.88932236  0.96315026  1
  S  S6  1  0.83122059  0.28684974  0.36067764  1
  S  S7  1  0.36067764  0.52125103  0.83122059  1
loop_
_geom_bond_atom_site_label_1
_geom_bond_atom_site_label_2
_geom_bond_distance
_geom_bond_site_symmetry_2
K0 S7 3.208417 1_555
K0 S2 3.208420 1_555
K0 S1 3.209727 1_455
K0 S3 3.209731 1_545
K0 S5 3.579401 1_455
K0 S0 3.579402 1_545
K1 S6 3.208426 1_555
K1 S4 3.208427 1_555
K1 S5 3.209734 1_554
K1 S0 3.209739 1_555
K1 S1 3.579399 1_554
K1 S3 3.579406 1_555
K2 S3 3.208426 1_555
K2 S1 3.208427 1_555
K2 S2 3.209734 1_556
K2 S7 3.209739 1_555
K2 S4 3.579399 1_556
K2 S6 3.579406 1_555
K3 S0 3.208417 1_555
K3 S5 3.208420 1_555
K3 S4 3.209727 1_655
K3 S6 3.209731 1_565
K3 S2 3.579401 1_655
K3 S7 3.579402 1_565
Na0 S3 2.709580 1_544
Na0 S1 2.709586 1_455
Na0 S4 2.793621 1_545
Na0 S6 2.793625 1_455
Na1 S7 2.709579 1_654
Na1 S2 2.709580 1_565
Na1 S5 2.793614 1_554
Na1 S0 2.793619 1_555
Na2 S6 2.709580 1_456
Na2 S4 2.709586 1_545
Na2 S1 2.793621 1_455
Na2 S3 2.793625 1_545
Na3 S0 2.709579 1_455
Na3 S5 2.709580 1_544
Na3 S2 2.793614 1_555
Na3 S7 2.793619 1_554
S0 Si1 2.133844 1_555
S1 Si1 2.133842 1_555
S2 Si0 2.133850 1_555
S3 Si1 2.133840 1_555
S4 Si0 2.133842 1_555
S5 Si1 2.133850 1_555
S6 Si0 2.133840 1_555
S7 Si0 2.133844 1_555
