# generated using pymatgen
data_Ti5AlSnBi
_symmetry_space_group_name_H-M   'P 1'
_cell_length_a   7.95382898
_cell_length_b   7.95383011
_cell_length_c   7.95382958
_cell_angle_alpha   96.11288291
_cell_angle_beta   96.22179387
_cell_angle_gamma   141.73314867
_symmetry_Int_Tables_number   1
_chemical_formula_structural   Ti5AlSnBi
_chemical_formula_sum   'Ti10 Al2 Sn2 Bi2'
_cell_volume   294.42023557
_cell_formula_units_Z   2
loop_
 _symmetry_equiv_pos_site_id
 _symmetry_equiv_pos_as_xyz
  1  'x, y, z'
loop_
 _atom_site_type_symbol
 _atom_site_label
 _atom_site_symmetry_multiplicity
 _atom_site_fract_x
 _atom_site_fract_y
 _atom_site_fract_z
 _atom_site_occupancy
  Ti  Ti0  1  0.21092140  0.92508827  0.13600867  1
  Ti  Ti1  1  0.42728558  0.71734447  0.14463004  1
  Ti  Ti2  1  0.07467139  0.21441457  0.28908696  1
  Ti  Ti3  1  0.71092140  0.57491173  0.28583313  1
  Ti  Ti4  1  0.75861018  0.24999900  0.50861118  1
  Ti  Ti5  1  0.25861018  0.74999900  0.50861118  1
  Ti  Ti6  1  0.27880372  0.42654336  0.70534708  1
  Ti  Ti7  1  0.92728558  0.78265553  0.70994111  1
  Ti  Ti8  1  0.77880372  0.07345664  0.85226136  1
  Ti  Ti9  1  0.57467039  0.28558543  0.86025582  1
  Al  Al0  1  0.24678306  0.24999900  0.99678406  1
  Al  Al1  1  0.74678306  0.74999900  0.99678406  1
  Sn  Sn0  1  0.66636117  0.83343016  0.49979033  1
  Sn  Sn1  1  0.16636117  0.66656984  0.83293201  1
  Bi  Bi0  1  0.83656051  0.33718580  0.17374631  1
  Bi  Bi1  1  0.33656051  0.16281420  0.49937371  1
loop_
_geom_bond_atom_site_label_1
_geom_bond_atom_site_label_2
_geom_bond_distance
_geom_bond_site_symmetry_2
Ti0 Ti3 3.055204 1_565
Ti0 Ti3 3.055208 1_455
Ti0 Ti1 3.187525 1_555
Ti0 Ti9 3.330309 1_564
Ti0 Ti9 3.330314 1_454
Ti0 Ti7 3.371838 1_454
Ti0 Ti2 3.399703 1_565
Ti0 Ti4 3.511565 1_565
Ti0 Ti5 3.511571 1_555
Ti1 Ti2 3.041075 1_665
Ti1 Ti2 3.041080 1_555
Ti1 Ti3 3.371845 1_555
Ti1 Ti8 3.409446 1_564
Ti1 Ti8 3.409450 1_454
Ti1 Ti6 3.470962 1_554
Ti2 Ti6 3.128604 1_555
Ti2 Ti3 3.330310 1_445
Ti2 Ti3 3.330313 1_555
Ti2 Ti8 3.481632 1_454
Ti3 Ti7 3.187525 1_555
Ti3 Ti9 3.399702 1_554
Ti3 Ti5 3.511560 1_655
Ti3 Ti4 3.511564 1_555
Ti4 Ti5 2.607020 1_545
Ti4 Ti5 2.607020 1_655
Ti4 Ti6 3.247315 1_655
Ti4 Ti8 3.247318 1_555
Ti5 Ti6 3.247312 1_555
Ti5 Ti8 3.247320 1_565
Ti6 Ti8 3.039185 1_565
Ti6 Ti8 3.039188 1_455
Ti6 Ti7 3.409453 1_555
Ti6 Ti7 3.409454 1_445
Ti6 Ti9 3.481622 1_555
Ti7 Ti9 3.041069 1_665
Ti7 Ti9 3.041070 1_555
Ti7 Ti8 3.470965 1_565
Ti8 Ti9 3.128618 1_555
Al0 Al1 2.607020 1_555
Al0 Al1 2.607020 1_445
Al0 Ti0 2.739818 1_546
Al0 Ti3 2.739827 1_556
Al0 Ti9 2.753358 1_555
Al0 Ti2 2.753363 1_556
Al0 Ti7 2.753998 1_445
Al0 Ti1 2.754003 1_556
Al0 Ti8 2.769395 1_455
Al0 Ti6 2.769402 1_555
Al1 Ti3 2.739822 1_556
Al1 Ti0 2.739825 1_656
Al1 Ti9 2.753353 1_555
Al1 Ti2 2.753366 1_666
Al1 Ti1 2.753997 1_556
Al1 Ti7 2.754002 1_555
Al1 Ti6 2.769397 1_555
Al1 Ti8 2.769398 1_565
Sn0 Ti4 2.764639 1_565
Sn0 Ti5 2.764646 1_555
Sn0 Ti3 2.789181 1_555
Sn0 Ti8 2.817753 1_565
Sn0 Ti1 2.823400 1_555
Sn0 Ti7 2.823481 1_555
Sn0 Ti6 3.033659 1_665
Sn0 Ti6 3.033663 1_555
Sn0 Ti2 3.057168 1_665
Sn0 Ti2 3.057177 1_555
Sn1 Ti5 2.764647 1_555
Sn1 Ti4 2.764650 1_455
Sn1 Ti0 2.789173 1_556
Sn1 Ti6 2.817741 1_555
Sn1 Ti7 2.823409 1_455
Sn1 Ti1 2.823470 1_556
Sn1 Ti8 3.033657 1_565
Sn1 Ti8 3.033658 1_455
Sn1 Ti9 3.057180 1_455
Sn1 Ti9 3.057185 1_565
Bi0 Ti5 2.834688 1_655
Bi0 Ti4 2.834692 1_555
Bi0 Ti9 2.835231 1_554
Bi0 Ti2 2.846092 1_655
Bi0 Ti3 2.858293 1_555
Bi0 Ti8 2.870452 1_554
Bi0 Ti1 3.057579 1_655
Bi0 Ti1 3.057580 1_545
Bi0 Ti0 3.074228 1_545
Bi0 Ti0 3.074233 1_655
Bi1 Ti4 2.834686 1_555
Bi1 Ti5 2.834694 1_545
Bi1 Ti2 2.835212 1_555
Bi1 Ti9 2.846087 1_555
Bi1 Ti0 2.858294 1_545
Bi1 Ti6 2.870463 1_555
Bi1 Ti7 3.057582 1_555
Bi1 Ti7 3.057586 1_445
Bi1 Ti3 3.074224 1_555
Bi1 Ti3 3.074228 1_445
