# generated using pymatgen
data_Ta3MnAl2N
_symmetry_space_group_name_H-M   'P 1'
_cell_length_a   8.20866490
_cell_length_b   8.20866566
_cell_length_c   8.20866505
_cell_angle_alpha   60.00000655
_cell_angle_beta   60.00000347
_cell_angle_gamma   60.00000774
_symmetry_Int_Tables_number   1
_chemical_formula_structural   Ta3MnAl2N
_chemical_formula_sum   'Ta12 Mn4 Al8 N4'
_cell_volume   391.11339432
_cell_formula_units_Z   4
loop_
 _symmetry_equiv_pos_site_id
 _symmetry_equiv_pos_as_xyz
  1  'x, y, z'
loop_
 _atom_site_type_symbol
 _atom_site_label
 _atom_site_symmetry_multiplicity
 _atom_site_fract_x
 _atom_site_fract_y
 _atom_site_fract_z
 _atom_site_occupancy
  Ta  Ta0  1  0.55916747  0.94083253  0.55916747  1
  Ta  Ta1  1  0.30916747  0.69083253  0.69083253  1
  Ta  Ta2  1  0.69083253  0.30916747  0.30916747  1
  Ta  Ta3  1  0.30916747  0.69083253  0.30916747  1
  Ta  Ta4  1  0.69083253  0.69083253  0.30916747  1
  Ta  Ta5  1  0.30916747  0.30916747  0.69083253  1
  Ta  Ta6  1  0.55916747  0.55916747  0.94083253  1
  Ta  Ta7  1  0.94083253  0.55916747  0.55916747  1
  Ta  Ta8  1  0.55916747  0.94083253  0.94083253  1
  Ta  Ta9  1  0.94083253  0.94083253  0.55916747  1
  Ta  Ta10  1  0.69083253  0.30916747  0.69083253  1
  Ta  Ta11  1  0.94083253  0.55916747  0.94083253  1
  Mn  Mn0  1  0.12500000  0.12500000  0.12500000  1
  Mn  Mn1  1  0.62500000  0.12500000  0.12500000  1
  Mn  Mn2  1  0.12500000  0.62500000  0.12500000  1
  Mn  Mn3  1  0.12500000  0.12500000  0.62500000  1
  Al  Al0  1  0.91540712  0.91540712  0.91540712  1
  Al  Al1  1  0.99621935  0.33459288  0.33459288  1
  Al  Al2  1  0.33459288  0.99621935  0.33459288  1
  Al  Al3  1  0.33459288  0.33459288  0.99621935  1
  Al  Al4  1  0.91540712  0.25378065  0.91540712  1
  Al  Al5  1  0.91540712  0.91540712  0.25378065  1
  Al  Al6  1  0.25378065  0.91540712  0.91540712  1
  Al  Al7  1  0.33459288  0.33459288  0.33459288  1
  N  N0  1  0.62500000  0.62500000  0.62500000  1
  N  N1  1  0.12500000  0.62500000  0.62500000  1
  N  N2  1  0.62500000  0.12500000  0.62500000  1
  N  N3  1  0.62500000  0.62500000  0.12500000  1
loop_
_geom_bond_atom_site_label_1
_geom_bond_atom_site_label_2
_geom_bond_distance
_geom_bond_site_symmetry_2
Mn0 Ta9 2.963491 1_445
Mn0 Ta5 2.963491 1_554
Mn0 Ta8 2.963491 1_544
Mn0 Ta2 2.963491 1_455
Mn0 Ta11 2.963491 1_454
Mn0 Ta3 2.963491 1_545
Mn1 Ta2 2.963491 1_555
Mn1 Ta8 2.963491 1_544
Mn1 Ta0 2.963491 1_545
Mn1 Ta10 2.963491 1_554
Mn1 Ta6 2.963491 1_554
Mn1 Ta4 2.963491 1_545
Mn2 Ta3 2.963491 1_555
Mn2 Ta11 2.963491 1_454
Mn2 Ta6 2.963491 1_554
Mn2 Ta4 2.963491 1_455
Mn2 Ta7 2.963491 1_455
Mn2 Ta1 2.963491 1_554
Mn3 Ta5 2.963491 1_555
Mn3 Ta9 2.963491 1_445
Mn3 Ta0 2.963491 1_545
Mn3 Ta10 2.963491 1_455
Mn3 Ta7 2.963491 1_455
Mn3 Ta1 2.963491 1_545
Al0 Mn3 2.521935 1_665
Al0 Mn1 2.521935 1_566
Al0 Mn2 2.521935 1_656
Al0 Ta8 2.731537 1_555
Al0 Ta9 2.731537 1_555
Al0 Ta11 2.731537 1_555
Al0 Al6 2.777595 1_655
Al0 Al5 2.777595 1_556
Al0 Al4 2.777595 1_565
Al0 Ta4 2.953880 1_556
Al0 Ta1 2.953880 1_655
Al0 Ta10 2.953881 1_565
Al1 Mn0 2.521931 1_655
Al1 Mn3 2.521944 1_655
Al1 Mn2 2.521944 1_655
Al1 Ta2 2.731520 1_555
Al1 Ta10 2.731530 1_555
Al1 Ta4 2.731530 1_555
Al1 Al7 2.777595 1_655
Al1 Al3 2.777595 1_654
Al1 Al2 2.777595 1_645
Al1 Ta11 2.953874 1_554
Al1 Ta9 2.953874 1_545
Al1 Ta7 2.953888 1_555
Al2 Mn0 2.521931 1_565
Al2 Mn1 2.521944 1_565
Al2 Mn3 2.521944 1_565
Al2 Ta3 2.731521 1_555
Al2 Ta1 2.731530 1_555
Al2 Ta4 2.731530 1_555
Al2 Al7 2.777595 1_565
Al2 Al3 2.777595 1_564
Al2 Ta9 2.953874 1_455
Al2 Ta8 2.953874 1_554
Al2 Ta0 2.953888 1_555
Al3 Mn0 2.521931 1_556
Al3 Mn1 2.521944 1_556
Al3 Mn2 2.521944 1_556
Al3 Ta5 2.731521 1_555
Al3 Ta10 2.731530 1_555
Al3 Ta1 2.731530 1_555
Al3 Al7 2.777595 1_556
Al3 Ta11 2.953874 1_455
Al3 Ta8 2.953874 1_545
Al3 Ta6 2.953888 1_555
Al4 Mn0 2.521931 1_656
Al4 Mn1 2.521944 1_556
Al4 Mn3 2.521944 1_655
Al4 Ta11 2.731521 1_555
Al4 Ta7 2.731530 1_555
Al4 Ta6 2.731530 1_555
Al4 Al5 2.777595 1_546
Al4 Al6 2.777595 1_645
Al4 Ta5 2.953874 1_655
Al4 Ta2 2.953874 1_556
Al4 Ta10 2.953888 1_555
Al5 Mn0 2.521931 1_665
Al5 Mn1 2.521944 1_565
Al5 Mn2 2.521944 1_655
Al5 Ta9 2.731521 1_555
Al5 Ta0 2.731530 1_555
Al5 Ta7 2.731530 1_555
Al5 Al6 2.777595 1_654
Al5 Ta3 2.953874 1_655
Al5 Ta2 2.953874 1_565
Al5 Ta4 2.953888 1_555
Al6 Mn0 2.521931 1_566
Al6 Mn3 2.521944 1_565
Al6 Mn2 2.521944 1_556
Al6 Ta8 2.731520 1_555
Al6 Ta0 2.731530 1_555
Al6 Ta6 2.731530 1_555
Al6 Ta3 2.953874 1_556
Al6 Ta5 2.953874 1_565
Al6 Ta1 2.953888 1_555
Al7 Mn3 2.521935 1_555
Al7 Mn1 2.521935 1_555
Al7 Mn2 2.521935 1_555
Al7 Ta2 2.731537 1_555
Al7 Ta5 2.731537 1_555
Al7 Ta3 2.731537 1_555
Al7 Ta6 2.953880 1_554
Al7 Ta7 2.953880 1_455
Al7 Ta0 2.953881 1_545
N0 Ta7 2.189850 1_555
N0 Ta1 2.189850 1_555
N0 Ta6 2.189850 1_555
N0 Ta4 2.189850 1_555
N0 Ta0 2.189851 1_555
N0 Ta10 2.189851 1_555
N1 Ta1 2.189850 1_555
N1 Ta7 2.189850 1_455
N1 Ta11 2.189850 1_455
N1 Ta3 2.189850 1_555
N1 Ta9 2.189851 1_455
N1 Ta5 2.189851 1_555
N2 Ta10 2.189850 1_555
N2 Ta0 2.189850 1_545
N2 Ta8 2.189851 1_545
N2 Ta2 2.189851 1_555
N2 Ta9 2.189851 1_545
N2 Ta5 2.189851 1_555
N3 Ta4 2.189850 1_555
N3 Ta6 2.189850 1_554
N3 Ta11 2.189850 1_554
N3 Ta3 2.189850 1_555
N3 Ta8 2.189851 1_554
N3 Ta2 2.189851 1_555
