# generated using pymatgen
data_NaTe3Pt2
_symmetry_space_group_name_H-M   'P 1'
_cell_length_a   7.96795862
_cell_length_b   7.96795972
_cell_length_c   11.95459723
_cell_angle_alpha   90.00000000
_cell_angle_beta   90.00000000
_cell_angle_gamma   119.99999942
_symmetry_Int_Tables_number   1
_chemical_formula_structural   NaTe3Pt2
_chemical_formula_sum   'Na4 Te12 Pt8'
_cell_volume   657.29417460
_cell_formula_units_Z   4
loop_
 _symmetry_equiv_pos_site_id
 _symmetry_equiv_pos_as_xyz
  1  'x, y, z'
loop_
 _atom_site_type_symbol
 _atom_site_label
 _atom_site_symmetry_multiplicity
 _atom_site_fract_x
 _atom_site_fract_y
 _atom_site_fract_z
 _atom_site_occupancy
  Na  Na0  1  0.33333300  0.66666700  0.33909297  1
  Na  Na1  1  0.66666700  0.33333300  0.83909297  1
  Na  Na2  1  0.00000000  0.00000000  0.66866385  1
  Na  Na3  1  0.00000000  0.00000000  0.16866385  1
  Te  Te0  1  0.49881821  0.50118179  0.61341458  1
  Te  Te1  1  0.99763843  0.49881821  0.11341458  1
  Te  Te2  1  0.50118179  0.00236157  0.11341458  1
  Te  Te3  1  0.49881821  0.99763843  0.61341458  1
  Te  Te4  1  0.15950418  0.84049582  0.89341531  1
  Te  Te5  1  0.31900836  0.15950418  0.39341531  1
  Te  Te6  1  0.84049582  0.68099164  0.39341531  1
  Te  Te7  1  0.15950418  0.31900836  0.89341531  1
  Te  Te8  1  0.68099164  0.84049582  0.89341531  1
  Te  Te9  1  0.84049582  0.15950418  0.39341531  1
  Te  Te10  1  0.50118179  0.49881821  0.11341458  1
  Te  Te11  1  0.00236157  0.50118179  0.61341458  1
  Pt  Pt0  1  0.83388484  0.16611516  0.00671426  1
  Pt  Pt1  1  0.66776868  0.83388484  0.50671426  1
  Pt  Pt2  1  0.16611516  0.33223132  0.50671426  1
  Pt  Pt3  1  0.83388484  0.66776868  0.00671426  1
  Pt  Pt4  1  0.33223132  0.16611516  0.00671426  1
  Pt  Pt5  1  0.16611516  0.83388484  0.50671426  1
  Pt  Pt6  1  0.66666700  0.33333300  0.49741073  1
  Pt  Pt7  1  0.33333300  0.66666700  0.99741073  1
loop_
_geom_bond_atom_site_label_1
_geom_bond_atom_site_label_2
_geom_bond_distance
_geom_bond_site_symmetry_2
Na0 Pt1 3.056328 1_555
Na0 Pt5 3.056328 1_555
Na0 Pt2 3.056329 1_555
Na0 Te1 3.555918 1_455
Na0 Te2 3.555918 1_565
Na0 Te10 3.555931 1_555
Na1 Pt4 3.056328 1_556
Na1 Pt0 3.056328 1_556
Na1 Pt3 3.056329 1_556
Na1 Te11 3.555918 1_655
Na1 Te3 3.555918 1_545
Na1 Te0 3.555931 1_555
Na2 Pt5 3.000667 1_545
Na2 Pt1 3.000672 1_445
Na2 Pt2 3.000672 1_555
Na2 Te8 3.473427 1_445
Na2 Te4 3.473428 1_545
Na2 Te7 3.473428 1_555
Na3 Pt0 3.000667 1_455
Na3 Pt4 3.000672 1_555
Na3 Pt3 3.000672 1_445
Na3 Te5 3.473427 1_555
Na3 Te9 3.473428 1_455
Na3 Te6 3.473428 1_445
Pt0 Te7 2.624770 1_654
Pt0 Te8 2.624770 1_544
Pt0 Te2 2.626440 1_555
Pt0 Te1 2.626441 1_555
Pt1 Te9 2.624770 1_565
Pt1 Te6 2.624776 1_555
Pt1 Te0 2.626441 1_555
Pt1 Te3 2.626447 1_555
Pt2 Te9 2.624770 1_455
Pt2 Te5 2.624776 1_555
Pt2 Te0 2.626440 1_555
Pt2 Te11 2.626447 1_555
Pt3 Te4 2.624770 1_654
Pt3 Te8 2.624776 1_554
Pt3 Te10 2.626440 1_555
Pt3 Te1 2.626447 1_555
Pt4 Te4 2.624770 1_544
Pt4 Te7 2.624776 1_554
Pt4 Te10 2.626441 1_555
Pt4 Te2 2.626447 1_555
Pt5 Te6 2.624770 1_455
Pt5 Te5 2.624770 1_565
Pt5 Te3 2.626440 1_555
Pt5 Te11 2.626441 1_555
Pt6 Te11 2.699829 1_655
Pt6 Te3 2.699829 1_545
Pt6 Te0 2.699847 1_555
Pt6 Te9 2.701997 1_555
Pt6 Te5 2.702003 1_555
Pt6 Te6 2.702003 1_555
Pt7 Te1 2.699829 1_456
Pt7 Te2 2.699829 1_566
Pt7 Te10 2.699847 1_556
Pt7 Te4 2.701997 1_555
Pt7 Te8 2.702003 1_555
Pt7 Te7 2.702003 1_555
