# generated using pymatgen
data_Cs4ReMoP4
_symmetry_space_group_name_H-M   'P 1'
_cell_length_a   8.67429869
_cell_length_b   8.67429869
_cell_length_c   8.67429905
_cell_angle_alpha   138.91025792
_cell_angle_beta   126.01095188
_cell_angle_gamma   70.02433684
_symmetry_Int_Tables_number   1
_chemical_formula_structural   Cs4ReMoP4
_chemical_formula_sum   'Cs4 Re1 Mo1 P4'
_cell_volume   340.61379711
_cell_formula_units_Z   1
loop_
 _symmetry_equiv_pos_site_id
 _symmetry_equiv_pos_as_xyz
  1  'x, y, z'
loop_
 _atom_site_type_symbol
 _atom_site_label
 _atom_site_symmetry_multiplicity
 _atom_site_fract_x
 _atom_site_fract_y
 _atom_site_fract_z
 _atom_site_occupancy
  Cs  Cs0  1  0.99758600  0.15064360  0.84043576  1
  Cs  Cs1  1  0.00241400  0.84285177  0.15305961  1
  Cs  Cs2  1  0.68979216  0.34935640  0.34694039  1
  Cs  Cs3  1  0.31020784  0.65714823  0.65956424  1
  Re  Re0  1  0.50000000  0.25000000  0.75000000  1
  Mo  Mo0  1  0.50000000  0.75000000  0.25000000  1
  P  P0  1  0.74596098  0.58260873  0.15339680  1
  P  P1  1  0.57078807  0.91739127  0.66335225  1
  P  P2  1  0.42921193  0.09256318  0.34660320  1
  P  P3  1  0.25403902  0.40743682  0.83664775  1
loop_
_geom_bond_atom_site_label_1
_geom_bond_atom_site_label_2
_geom_bond_distance
_geom_bond_site_symmetry_2
Cs0 P0 3.495768 1_556
Cs0 P0 3.514005 1_545
Cs0 P3 3.673327 1_655
Cs0 P1 3.729001 1_545
Cs0 P2 4.032992 1_656
Cs0 P2 4.064590 1_555
Cs1 P3 3.495760 1_565
Cs1 P3 3.514013 1_554
Cs1 P0 3.673320 1_455
Cs1 P2 3.728995 1_565
Cs1 P1 4.032986 1_454
Cs1 P1 4.064592 1_555
Cs2 P1 3.495755 1_544
Cs2 P1 3.514003 1_555
Cs2 P2 3.673342 1_555
Cs2 P0 3.728984 1_555
Cs2 P3 4.032989 1_655
Cs2 P3 4.064586 1_554
Cs3 P2 3.495761 1_555
Cs3 P2 3.514004 1_566
Cs3 P1 3.673334 1_555
Cs3 P3 3.728976 1_555
Cs3 P0 4.032991 1_455
Cs3 P0 4.064581 1_556
Mo0 P2 2.348203 1_565
Mo0 P3 2.348207 1_554
Mo0 P0 2.348211 1_555
Mo0 P1 2.348211 1_555
P0 Re0 2.308588 1_554
P1 Re0 2.308588 1_565
P2 Re0 2.308584 1_555
P3 Re0 2.308589 1_555
