# generated using pymatgen
data_LiTaCl6
_symmetry_space_group_name_H-M   'P 1'
_cell_length_a   9.36923897
_cell_length_b   9.36923832
_cell_length_c   9.36923899
_cell_angle_alpha   84.23302954
_cell_angle_beta   84.23303029
_cell_angle_gamma   84.23303225
_symmetry_Int_Tables_number   1
_chemical_formula_structural   LiTaCl6
_chemical_formula_sum   'Li4 Ta4 Cl24'
_cell_volume   810.75135337
_cell_formula_units_Z   4
loop_
 _symmetry_equiv_pos_site_id
 _symmetry_equiv_pos_as_xyz
  1  'x, y, z'
loop_
 _atom_site_type_symbol
 _atom_site_label
 _atom_site_symmetry_multiplicity
 _atom_site_fract_x
 _atom_site_fract_y
 _atom_site_fract_z
 _atom_site_occupancy
  Li  Li0  1  0.33461562  0.33461562  0.33461562  1
  Li  Li1  1  0.16891336  0.66415790  0.16529081  1
  Li  Li2  1  0.16529081  0.16891336  0.66415790  1
  Li  Li3  1  0.66415790  0.16529081  0.16891336  1
  Ta  Ta0  1  0.50523132  0.98798503  0.50652505  1
  Ta  Ta1  1  0.99982494  0.99982494  0.99982494  1
  Ta  Ta2  1  0.50652505  0.50523132  0.98798503  1
  Ta  Ta3  1  0.98798503  0.50652505  0.50523132  1
  Cl  Cl0  1  0.92784808  0.26862407  0.57154517  1
  Cl  Cl1  1  0.42207064  0.76887984  0.57251179  1
  Cl  Cl2  1  0.08214830  0.22700078  0.92075775  1
  Cl  Cl3  1  0.57251179  0.42207064  0.76887984  1
  Cl  Cl4  1  0.92075775  0.08214830  0.22700078  1
  Cl  Cl5  1  0.42161088  0.08107537  0.72727541  1
  Cl  Cl6  1  0.57154517  0.92784808  0.26862407  1
  Cl  Cl7  1  0.08162152  0.42659818  0.26771457  1
  Cl  Cl8  1  0.23146422  0.41773070  0.57499829  1
  Cl  Cl9  1  0.22700078  0.92075775  0.08214830  1
  Cl  Cl10  1  0.57499829  0.23146422  0.41773070  1
  Cl  Cl11  1  0.93075853  0.76555384  0.07157624  1
  Cl  Cl12  1  0.76887984  0.57251179  0.42207064  1
  Cl  Cl13  1  0.73046628  0.92907495  0.57851356  1
  Cl  Cl14  1  0.42659818  0.26771457  0.08162152  1
  Cl  Cl15  1  0.26771457  0.08162152  0.42659818  1
  Cl  Cl16  1  0.41773070  0.57499829  0.23146422  1
  Cl  Cl17  1  0.76555384  0.07157624  0.93075853  1
  Cl  Cl18  1  0.08107537  0.72727541  0.42161088  1
  Cl  Cl19  1  0.57851356  0.73046628  0.92907495  1
  Cl  Cl20  1  0.92907395  0.57851356  0.73046628  1
  Cl  Cl21  1  0.72727541  0.42161088  0.08107537  1
  Cl  Cl22  1  0.26862407  0.57154517  0.92784808  1
  Cl  Cl23  1  0.07157624  0.93075853  0.76555384  1
loop_
_geom_bond_atom_site_label_1
_geom_bond_atom_site_label_2
_geom_bond_distance
_geom_bond_site_symmetry_2
Cl0 Ta3 2.361236 1_555
Cl0 Li2 2.526289 1_655
Cl1 Ta0 2.274438 1_555
Cl2 Ta1 2.360568 1_445
Cl2 Li2 2.546429 1_555
Cl3 Ta2 2.274438 1_555
Cl4 Ta1 2.360568 1_544
Cl4 Li3 2.546429 1_555
Cl5 Ta0 2.356222 1_545
Cl5 Li2 2.566073 1_555
Cl6 Ta0 2.361236 1_555
Cl6 Li3 2.526289 1_565
Cl7 Ta3 2.468432 1_455
Cl7 Li1 2.514483 1_555
Cl7 Li0 2.556114 1_555
Cl8 Ta3 2.476352 1_455
Cl8 Li2 2.512342 1_555
Cl8 Li0 2.525201 1_555
Cl9 Ta1 2.360568 1_454
Cl9 Li1 2.546429 1_555
Cl10 Ta0 2.476352 1_545
Cl10 Li3 2.512342 1_555
Cl10 Li0 2.525201 1_555
Cl11 Ta1 2.364300 1_554
Cl11 Li1 2.540153 1_655
Cl12 Ta3 2.274439 1_555
Cl13 Ta0 2.278156 1_555
Cl14 Ta2 2.468432 1_554
Cl14 Li3 2.514483 1_555
Cl14 Li0 2.556114 1_555
Cl15 Ta0 2.468432 1_545
Cl15 Li2 2.514483 1_555
Cl15 Li0 2.556114 1_555
Cl16 Ta2 2.476352 1_554
Cl16 Li1 2.512342 1_555
Cl16 Li0 2.525201 1_555
Cl17 Ta1 2.364300 1_545
Cl17 Li3 2.540153 1_556
Cl18 Ta3 2.356222 1_455
Cl18 Li1 2.566073 1_555
Cl19 Ta2 2.278156 1_555
Cl20 Ta3 2.278157 1_555
Cl21 Ta2 2.356222 1_554
Cl21 Li3 2.566072 1_555
Cl22 Ta2 2.361236 1_555
Cl22 Li1 2.526289 1_556
Cl23 Ta1 2.364300 1_455
Cl23 Li2 2.540153 1_565
