# generated using pymatgen
data_Lu12InTc3Sn
_symmetry_space_group_name_H-M   'P 1'
_cell_length_a   8.24842533
_cell_length_b   8.24842463
_cell_length_c   8.24842556
_cell_angle_alpha   108.80479203
_cell_angle_beta   109.20332965
_cell_angle_gamma   110.40987539
_symmetry_Int_Tables_number   1
_chemical_formula_structural   Lu12InTc3Sn
_chemical_formula_sum   'Lu12 In1 Tc3 Sn1'
_cell_volume   431.91518570
_cell_formula_units_Z   1
loop_
 _symmetry_equiv_pos_site_id
 _symmetry_equiv_pos_as_xyz
  1  'x, y, z'
loop_
 _atom_site_type_symbol
 _atom_site_label
 _atom_site_symmetry_multiplicity
 _atom_site_fract_x
 _atom_site_fract_y
 _atom_site_fract_z
 _atom_site_occupancy
  Lu  Lu0  1  0.30391661  0.30600065  0.60991825  1
  Lu  Lu1  1  0.69608339  0.69399935  0.39008175  1
  Lu  Lu2  1  0.69608339  0.30600065  0.00208504  1
  Lu  Lu3  1  0.30391661  0.69399935  0.99791496  1
  Lu  Lu4  1  0.18864288  0.42791030  0.23926742  1
  Lu  Lu5  1  0.81135712  0.57208970  0.76073258  1
  Lu  Lu6  1  0.18864288  0.94937445  0.76073258  1
  Lu  Lu7  1  0.95083584  0.19029511  0.76054173  1
  Lu  Lu8  1  0.81135712  0.05062555  0.23926742  1
  Lu  Lu9  1  0.04916416  0.80970489  0.23945827  1
  Lu  Lu10  1  0.42975338  0.19029511  0.23945827  1
  Lu  Lu11  1  0.57024662  0.80970489  0.76054173  1
  In  In0  1  0.00000000  0.50000000  0.50000000  1
  Tc  Tc0  1  0.37396909  0.37396909  0.00000000  1
  Tc  Tc1  1  0.62603091  0.62603091  1.00000000  1
  Tc  Tc2  1  0.00000000  0.00000000  0.00000000  1
  Sn  Sn0  1  0.50000000  0.00000000  0.50000000  1
loop_
_geom_bond_atom_site_label_1
_geom_bond_atom_site_label_2
_geom_bond_distance
_geom_bond_site_symmetry_2
Lu0 Tc0 2.896369 1_556
Lu0 Tc1 2.896373 1_555
Lu0 Sn0 3.485003 1_555
Lu1 Tc1 2.896369 1_554
Lu1 Tc0 2.896373 1_555
Lu1 Sn0 3.485003 1_565
Lu2 Tc0 2.896376 1_555
Lu2 Tc1 2.896379 1_554
Lu2 Sn0 3.485008 1_554
Lu3 Tc1 2.896376 1_555
Lu3 Tc0 2.896379 1_556
Lu3 Sn0 3.485008 1_566
Lu4 Tc0 2.884904 1_555
Lu4 Tc2 2.903892 1_555
Lu4 Sn0 3.854828 1_565
Lu5 Tc1 2.884904 1_555
Lu5 Tc2 2.903892 1_666
Lu5 Sn0 3.854828 1_555
Lu6 Tc0 2.884911 1_566
Lu6 Tc2 2.903893 1_566
Lu6 Sn0 3.854829 1_565
Lu7 Tc0 2.868064 1_656
Lu7 Tc2 2.906061 1_656
Lu7 Sn0 3.067209 1_555
Lu8 Tc1 2.884911 1_544
Lu8 Tc2 2.903893 1_655
Lu8 Sn0 3.854829 1_555
Lu9 Tc1 2.868064 1_454
Lu9 Tc2 2.906061 1_565
Lu9 Sn0 3.067209 1_565
Lu10 Tc0 2.868058 1_555
Lu10 Tc2 2.906060 1_555
Lu10 Sn0 3.067215 1_555
Lu11 Tc1 2.868058 1_555
Lu11 Tc2 2.906060 1_666
Lu11 Sn0 3.067215 1_565
In0 Lu6 3.069561 1_555
In0 Lu8 3.069561 1_455
In0 Lu5 3.069568 1_455
In0 Lu4 3.069568 1_555
In0 Lu3 3.450329 1_555
In0 Lu2 3.450329 1_455
In0 Lu1 3.450337 1_455
In0 Lu0 3.450337 1_555
In0 Lu11 3.833908 1_555
In0 Lu10 3.833908 1_455
In0 Lu9 3.833908 1_555
In0 Lu7 3.833908 1_455
Tc0 Tc1 2.372862 1_554
