# generated using pymatgen
data_CaGePdRh
_symmetry_space_group_name_H-M   'P 1'
_cell_length_a   9.34198302
_cell_length_b   9.34198252
_cell_length_c   4.13589589
_cell_angle_alpha   90.00000000
_cell_angle_beta   90.00000000
_cell_angle_gamma   154.90331816
_symmetry_Int_Tables_number   1
_chemical_formula_structural   CaGePdRh
_chemical_formula_sum   'Ca2 Ge2 Pd2 Rh2'
_cell_volume   153.09609003
_cell_formula_units_Z   2
loop_
 _symmetry_equiv_pos_site_id
 _symmetry_equiv_pos_as_xyz
  1  'x, y, z'
loop_
 _atom_site_type_symbol
 _atom_site_label
 _atom_site_symmetry_multiplicity
 _atom_site_fract_x
 _atom_site_fract_y
 _atom_site_fract_z
 _atom_site_occupancy
  Ca  Ca0  1  0.09923458  0.90076542  0.75000000  1
  Ca  Ca1  1  0.90076542  0.09923458  0.25000000  1
  Ge  Ge0  1  0.32231814  0.67768186  0.75000000  1
  Ge  Ge1  1  0.67768186  0.32231814  0.25000000  1
  Pd  Pd0  1  0.54474689  0.45525311  0.25000000  1
  Pd  Pd1  1  0.45525311  0.54474689  0.75000000  1
  Rh  Rh0  1  0.25039756  0.74960244  0.25000000  1
  Rh  Rh1  1  0.74960244  0.25039756  0.75000000  1
loop_
_geom_bond_atom_site_label_1
_geom_bond_atom_site_label_2
_geom_bond_distance
_geom_bond_site_symmetry_2
Ca0 Pd0 3.063244 1_566
Ca0 Pd0 3.063244 1_565
Ca0 Pd0 3.063244 1_456
Ca0 Pd0 3.063244 1_455
Ca0 Ge1 3.231541 1_456
Ca0 Ge1 3.231541 1_455
Ca0 Ge1 3.231541 1_565
Ca0 Ge1 3.231541 1_566
Ca0 Pd1 3.318860 1_565
Ca0 Pd1 3.318860 1_455
Ca0 Rh1 3.411757 1_455
Ca0 Rh1 3.411757 1_565
Ca0 Rh0 3.446256 1_555
Ca0 Rh0 3.446256 1_556
Ca1 Pd1 3.063244 1_544
Ca1 Pd1 3.063244 1_545
Ca1 Pd1 3.063244 1_655
Ca1 Pd1 3.063244 1_654
Ca1 Ge0 3.231541 1_654
Ca1 Ge0 3.231541 1_655
Ca1 Ge0 3.231541 1_544
Ca1 Ge0 3.231541 1_545
Ca1 Pd0 3.318860 1_545
Ca1 Pd0 3.318860 1_655
Ca1 Rh0 3.411757 1_655
Ca1 Rh0 3.411757 1_545
Ca1 Rh1 3.446256 1_554
Ca1 Rh1 3.446256 1_555
Ge0 Pd1 2.424423 1_555
Ge0 Rh1 2.424514 1_565
Ge0 Rh1 2.424515 1_455
Ge0 Rh0 2.448851 1_556
Ge0 Rh0 2.448851 1_555
Ge1 Pd0 2.424423 1_555
Ge1 Rh0 2.424514 1_545
Ge1 Rh0 2.424515 1_655
Ge1 Rh1 2.448851 1_555
Ge1 Rh1 2.448851 1_554
Pd0 Pd1 2.634454 1_554
Pd0 Pd1 2.634454 1_555
