# generated using pymatgen
data_TcPt5Rh3
_symmetry_space_group_name_H-M   'P 1'
_cell_length_a   6.17871944
_cell_length_b   6.17871831
_cell_length_c   6.14165669
_cell_angle_alpha   95.61160504
_cell_angle_beta   95.61160565
_cell_angle_gamma   143.66862598
_symmetry_Int_Tables_number   1
_chemical_formula_structural   TcPt5Rh3
_chemical_formula_sum   'Tc1 Pt5 Rh3'
_cell_volume   131.90171152
_cell_formula_units_Z   1
loop_
 _symmetry_equiv_pos_site_id
 _symmetry_equiv_pos_as_xyz
  1  'x, y, z'
loop_
 _atom_site_type_symbol
 _atom_site_label
 _atom_site_symmetry_multiplicity
 _atom_site_fract_x
 _atom_site_fract_y
 _atom_site_fract_z
 _atom_site_occupancy
  Tc  Tc0  1  0.00447673  0.99552327  1.00000000  1
  Pt  Pt0  1  0.33762269  0.66237731  1.00000000  1
  Pt  Pt1  1  0.00232048  0.32781670  0.33013618  1
  Pt  Pt2  1  0.99778304  0.67284109  0.67062412  1
  Pt  Pt3  1  0.67218330  0.99767952  0.66986382  1
  Pt  Pt4  1  0.32715891  0.00221696  0.32937588  1
  Rh  Rh0  1  0.34072588  0.33956690  0.68029278  1
  Rh  Rh1  1  0.66043310  0.65927412  0.31970722  1
  Rh  Rh2  1  0.65729687  0.34270313  0.00000000  1
loop_
_geom_bond_atom_site_label_1
_geom_bond_atom_site_label_2
_geom_bond_distance
_geom_bond_site_symmetry_2
Pt0 Rh0 2.671541 1_555
Pt0 Rh1 2.671542 1_556
Pt0 Pt3 2.723484 1_555
Pt0 Pt1 2.723484 1_556
Pt0 Pt1 2.723487 1_666
Pt0 Pt3 2.723487 1_445
Pt0 Tc0 2.747516 1_545
Pt0 Tc0 2.747516 1_655
Pt0 Pt4 2.814073 1_566
Pt0 Pt2 2.814073 1_455
Pt0 Rh2 2.862455 1_566
Pt0 Rh2 2.862456 1_456
Pt1 Rh1 2.718826 1_555
Pt1 Rh1 2.718828 1_445
Pt1 Tc0 2.749891 1_544
Pt1 Pt3 2.763304 1_555
Pt1 Pt3 2.763309 1_445
Pt1 Rh0 2.801339 1_555
Pt1 Pt4 2.814641 1_565
Pt1 Pt4 2.814644 1_455
Pt1 Pt2 2.855568 1_455
Pt1 Rh2 2.858533 1_455
Pt2 Tc0 2.670391 1_655
Pt2 Rh0 2.706863 1_665
Pt2 Rh0 2.706864 1_555
Pt2 Rh2 2.721027 1_556
Pt2 Rh2 2.721028 1_666
Pt2 Pt4 2.769671 1_665
Pt2 Pt4 2.769671 1_555
Pt2 Rh1 2.793070 1_555
Pt2 Pt3 2.814641 1_655
Pt2 Pt3 2.814643 1_545
Pt3 Rh0 2.718825 1_555
Pt3 Rh0 2.718829 1_665
Pt3 Tc0 2.749891 1_655
Pt3 Rh1 2.801338 1_555
Pt3 Pt4 2.855568 1_565
Pt3 Rh2 2.858533 1_566
Pt4 Tc0 2.670391 1_544
Pt4 Rh1 2.706863 1_555
Pt4 Rh1 2.706864 1_445
Pt4 Rh2 2.721027 1_555
Pt4 Rh2 2.721028 1_445
Pt4 Rh0 2.793069 1_555
Rh0 Rh2 2.619571 1_556
Rh0 Tc0 2.681223 1_545
Rh0 Tc0 2.681224 1_655
Rh0 Rh1 2.851778 1_555
Rh0 Rh1 2.851778 1_445
Rh1 Rh2 2.619571 1_555
Rh1 Tc0 2.681223 1_654
Rh1 Tc0 2.681224 1_544
Rh2 Tc0 2.632555 1_654
Rh2 Tc0 2.632556 1_544
