# generated using pymatgen
data_K5SrNbP4
_symmetry_space_group_name_H-M   'P 1'
_cell_length_a   10.16141529
_cell_length_b   10.16141519
_cell_length_c   7.76564287
_cell_angle_alpha   88.53983929
_cell_angle_beta   88.53984147
_cell_angle_gamma   120.55032435
_symmetry_Int_Tables_number   1
_chemical_formula_structural   K5SrNbP4
_chemical_formula_sum   'K10 Sr2 Nb2 P8'
_cell_volume   689.61549842
_cell_formula_units_Z   2
loop_
 _symmetry_equiv_pos_site_id
 _symmetry_equiv_pos_as_xyz
  1  'x, y, z'
loop_
 _atom_site_type_symbol
 _atom_site_label
 _atom_site_symmetry_multiplicity
 _atom_site_fract_x
 _atom_site_fract_y
 _atom_site_fract_z
 _atom_site_occupancy
  K  K0  1  0.46585967  0.52554280  0.49852993  1
  K  K1  1  0.05809704  0.52761093  0.50127830  1
  K  K2  1  0.52554280  0.46585967  0.99852993  1
  K  K3  1  0.52761093  0.05809704  0.00127830  1
  K  K4  1  0.86460127  0.14241938  0.67899976  1
  K  K5  1  0.29471791  0.15404786  0.71811404  1
  K  K6  1  0.85528582  0.71742706  0.65608831  1
  K  K7  1  0.14241938  0.86460127  0.17899976  1
  K  K8  1  0.71742706  0.85528582  0.15608831  1
  K  K9  1  0.15404786  0.29471791  0.21811404  1
  Sr  Sr0  1  0.46408222  0.93483893  0.49375105  1
  Sr  Sr1  1  0.93483893  0.46408222  0.99375105  1
  Nb  Nb0  1  0.66941398  0.33131938  0.39283108  1
  Nb  Nb1  1  0.33131938  0.66941398  0.89283108  1
  P  P0  1  0.68533944  0.33899879  0.70259636  1
  P  P1  1  0.33899879  0.68533944  0.20259636  1
  P  P2  1  0.79296133  0.19677130  0.28595879  1
  P  P3  1  0.40356229  0.18939733  0.31989728  1
  P  P4  1  0.80021231  0.58748995  0.26624410  1
  P  P5  1  0.19677130  0.79296133  0.78595879  1
  P  P6  1  0.58748995  0.80021231  0.76624410  1
  P  P7  1  0.18939733  0.40356229  0.81989728  1
loop_
_geom_bond_atom_site_label_1
_geom_bond_atom_site_label_2
_geom_bond_distance
_geom_bond_site_symmetry_2
K0 P6 3.249526 1_555
K0 P7 3.406113 1_555
K0 P1 3.415899 1_555
K0 P3 3.475666 1_555
K0 P4 3.556512 1_555
K1 P5 3.277684 1_555
K1 P1 3.304311 1_555
K1 P7 3.348133 1_555
K1 P4 3.518021 1_455
K1 P0 3.553865 1_455
K1 P2 3.558744 1_455
K2 P4 3.249526 1_556
K2 P3 3.406113 1_556
K2 P0 3.415899 1_555
K2 P7 3.475666 1_555
K2 P6 3.556512 1_555
K3 P2 3.277684 1_555
K3 P0 3.304311 1_554
K3 P3 3.348133 1_555
K3 P6 3.518021 1_544
K3 P1 3.553865 1_545
K3 P5 3.558744 1_544
K4 P6 3.210666 1_545
K4 P7 3.249632 1_655
K4 P2 3.253771 1_555
K4 P0 3.323003 1_555
K5 P3 3.206321 1_555
K5 P5 3.300481 1_545
K5 P7 3.319022 1_555
K5 P0 3.417930 1_555
K6 P4 3.280318 1_555
K6 P0 3.323579 1_555
K6 P6 3.330071 1_555
K6 P5 3.340248 1_655
K7 P4 3.210666 1_455
K7 P3 3.249632 1_565
K7 P5 3.253771 1_554
K7 P1 3.323003 1_555
K8 P6 3.280318 1_554
K8 P1 3.323579 1_555
K8 P4 3.330071 1_555
K8 P2 3.340248 1_565
K9 P7 3.206321 1_554
K9 P2 3.300481 1_455
K9 P3 3.319022 1_555
K9 P1 3.417930 1_555
Nb0 P4 2.407205 1_555
Nb0 P0 2.415658 1_555
Nb0 P3 2.420207 1_555
Nb0 P2 2.425633 1_555
Nb1 P6 2.407205 1_555
Nb1 P1 2.415658 1_556
Nb1 P7 2.420207 1_555
Nb1 P5 2.425633 1_555
P0 Sr1 3.212160 1_555
P1 Sr0 3.212160 1_555
P2 Sr1 3.184947 1_554
P2 Sr0 3.364534 1_545
P3 Sr0 3.220753 1_545
P4 Sr1 3.106986 1_554
P5 Sr0 3.184947 1_555
P5 Sr1 3.364534 1_455
P6 Sr0 3.106986 1_555
P7 Sr1 3.220753 1_455
