# generated using pymatgen
data_Li12GeRuN8
_symmetry_space_group_name_H-M   'P 1'
_cell_length_a   6.59709481
_cell_length_b   6.59709481
_cell_length_c   4.82761699
_cell_angle_alpha   90.00000000
_cell_angle_beta   90.00000000
_cell_angle_gamma   90.00000000
_symmetry_Int_Tables_number   1
_chemical_formula_structural   Li12GeRuN8
_chemical_formula_sum   'Li12 Ge1 Ru1 N8'
_cell_volume   210.10590478
_cell_formula_units_Z   1
loop_
 _symmetry_equiv_pos_site_id
 _symmetry_equiv_pos_as_xyz
  1  'x, y, z'
loop_
 _atom_site_type_symbol
 _atom_site_label
 _atom_site_symmetry_multiplicity
 _atom_site_fract_x
 _atom_site_fract_y
 _atom_site_fract_z
 _atom_site_occupancy
  Li  Li0  1  0.00000000  0.50000000  0.57203032  1
  Li  Li1  1  0.50000000  0.00000000  0.89534115  1
  Li  Li2  1  0.50000000  0.00000000  0.42796968  1
  Li  Li3  1  0.00000000  0.50000000  0.10465885  1
  Li  Li4  1  0.22647947  0.22647947  0.50000000  1
  Li  Li5  1  0.77352053  0.77352053  0.50000000  1
  Li  Li6  1  0.70214884  0.70214884  0.00000000  1
  Li  Li7  1  0.29785116  0.29785116  0.00000000  1
  Li  Li8  1  0.77352053  0.22647947  0.50000000  1
  Li  Li9  1  0.22647947  0.77352053  0.50000000  1
  Li  Li10  1  0.29785116  0.70214884  0.00000000  1
  Li  Li11  1  0.70214884  0.29785116  0.00000000  1
  Ge  Ge0  1  0.50000000  0.50000000  0.50000000  1
  Ru  Ru0  1  0.00000000  0.00000000  0.00000000  1
  N  N0  1  0.24994826  0.50000000  0.30602885  1
  N  N1  1  0.75005174  0.50000000  0.30602885  1
  N  N2  1  0.76951265  0.00000000  0.19746637  1
  N  N3  1  0.23048735  0.00000000  0.19746637  1
  N  N4  1  0.50000000  0.24994826  0.69397115  1
  N  N5  1  0.50000000  0.75005174  0.69397115  1
  N  N6  1  0.00000000  0.76951265  0.80253363  1
  N  N7  1  0.00000000  0.23048735  0.80253363  1
loop_
_geom_bond_atom_site_label_1
_geom_bond_atom_site_label_2
_geom_bond_distance
_geom_bond_site_symmetry_2
Li0 N0 2.089983 1_555
Li0 N1 2.089983 1_455
Li0 N6 2.097515 1_555
Li0 N7 2.097515 1_555
Li1 N4 1.914165 1_555
Li1 N5 1.914165 1_545
Li1 N2 2.299704 1_556
Li1 N3 2.299704 1_556
Li2 N4 2.089983 1_555
Li2 N5 2.089983 1_545
Li2 N2 2.097515 1_555
Li2 N3 2.097515 1_555
Li3 N0 1.914165 1_555
Li3 N1 1.914165 1_455
Li3 N6 2.299704 1_554
Li3 N7 2.299704 1_554
Li4 N4 2.038837 1_555
Li4 N0 2.038837 1_555
Li4 N7 2.089536 1_555
Li4 N3 2.089536 1_555
Li5 N5 2.038837 1_555
Li5 N1 2.038837 1_555
Li5 N6 2.089536 1_655
Li5 N2 2.089536 1_565
Li6 N1 2.015199 1_555
Li6 N5 2.015199 1_554
Li6 N2 2.228744 1_565
Li6 N6 2.228744 1_654
Li7 N0 2.015199 1_555
Li7 N4 2.015199 1_554
Li7 N3 2.228744 1_555
Li7 N7 2.228744 1_554
Li8 N4 2.038837 1_555
Li8 N1 2.038837 1_555
Li8 N2 2.089536 1_555
Li8 N7 2.089536 1_655
Li9 N0 2.038837 1_555
Li9 N5 2.038837 1_555
Li9 N6 2.089536 1_555
Li9 N3 2.089536 1_565
Li10 N5 2.015199 1_554
Li10 N0 2.015199 1_555
Li10 N3 2.228744 1_565
Li10 N6 2.228744 1_554
Li11 N1 2.015199 1_555
Li11 N4 2.015199 1_554
Li11 N2 2.228744 1_555
Li11 N7 2.228744 1_654
Ge0 N5 1.896868 1_555
Ge0 N1 1.896868 1_555
Ge0 N4 1.896868 1_555
Ge0 N0 1.896868 1_555
N2 Ru0 1.794667 1_655
N3 Ru0 1.794667 1_555
N6 Ru0 1.794667 1_566
N7 Ru0 1.794667 1_556
