# generated using pymatgen
data_Lu3Mg(AlPt)4
_symmetry_space_group_name_H-M   'P 1'
_cell_length_a   4.27170689
_cell_length_b   6.68270958
_cell_length_c   7.66455076
_cell_angle_alpha   92.38384803
_cell_angle_beta   90.00000000
_cell_angle_gamma   90.00000000
_symmetry_Int_Tables_number   1
_chemical_formula_structural   Lu3Mg(AlPt)4
_chemical_formula_sum   'Lu3 Mg1 Al4 Pt4'
_cell_volume   218.60733730
_cell_formula_units_Z   1
loop_
 _symmetry_equiv_pos_site_id
 _symmetry_equiv_pos_as_xyz
  1  'x, y, z'
loop_
 _atom_site_type_symbol
 _atom_site_label
 _atom_site_symmetry_multiplicity
 _atom_site_fract_x
 _atom_site_fract_y
 _atom_site_fract_z
 _atom_site_occupancy
  Lu  Lu0  1  0.25000000  0.52768618  0.81866092  1
  Lu  Lu1  1  0.75000000  0.97334274  0.32861401  1
  Lu  Lu2  1  0.75000000  0.46912660  0.17951472  1
  Mg  Mg0  1  0.25000000  0.03023615  0.67508991  1
  Al  Al0  1  0.25000000  0.13777560  0.05421273  1
  Al  Al1  1  0.25000000  0.64725847  0.44215866  1
  Al  Al2  1  0.75000000  0.86032095  0.93813925  1
  Al  Al3  1  0.75000000  0.35580945  0.56210785  1
  Pt  Pt0  1  0.25000000  0.26921847  0.37903427  1
  Pt  Pt1  1  0.25000000  0.76850903  0.12656669  1
  Pt  Pt2  1  0.75000000  0.73335911  0.62124574  1
  Pt  Pt3  1  0.75000000  0.22735523  0.87465525  1
loop_
_geom_bond_atom_site_label_1
_geom_bond_atom_site_label_2
_geom_bond_distance
_geom_bond_site_symmetry_2
Lu0 Pt1 2.800619 1_556
Lu0 Pt3 2.974199 1_555
Lu0 Pt3 2.974199 1_455
Lu0 Pt2 2.985542 1_455
Lu0 Pt2 2.985542 1_555
Lu1 Pt2 2.811009 1_555
Lu1 Pt0 2.925264 1_565
Lu1 Pt0 2.925264 1_665
Lu1 Pt1 2.942351 1_555
Lu1 Pt1 2.942351 1_655
Lu2 Pt3 2.784985 1_554
Lu2 Pt1 2.965948 1_555
Lu2 Pt1 2.965948 1_655
Lu2 Pt0 2.975745 1_555
Lu2 Pt0 2.975745 1_655
Mg0 Pt0 2.828604 1_555
Mg0 Pt3 2.910175 1_455
Mg0 Pt3 2.910175 1_555
Mg0 Pt2 2.932593 1_445
Mg0 Pt2 2.932593 1_545
Al0 Pt1 2.551652 1_545
Al0 Pt0 2.605345 1_555
Al0 Pt3 2.623503 1_454
Al0 Pt3 2.623503 1_554
Al0 Lu0 3.231139 1_554
Al1 Pt0 2.552401 1_555
Al1 Pt1 2.582739 1_555
Al1 Pt2 2.590623 1_555
Al1 Pt2 2.590623 1_455
Al1 Lu0 3.026171 1_555
Al2 Pt3 2.520354 1_565
Al2 Pt2 2.539238 1_555
Al2 Pt1 2.664165 1_556
Al2 Pt1 2.664165 1_656
Al2 Lu0 3.189423 1_555
Al2 Lu0 3.189423 1_655
Al3 Pt2 2.544822 1_555
Al3 Pt3 2.578089 1_555
Al3 Pt0 2.607313 1_555
Al3 Pt0 2.607313 1_655
Al3 Lu0 3.091902 1_555
Al3 Lu0 3.091902 1_655
