# generated using pymatgen
data_CdMoF6
_symmetry_space_group_name_H-M   'P 1'
_cell_length_a   5.82551056
_cell_length_b   5.82551105
_cell_length_c   5.82551053
_cell_angle_alpha   53.32453014
_cell_angle_beta   53.32452030
_cell_angle_gamma   53.32451876
_symmetry_Int_Tables_number   1
_chemical_formula_structural   CdMoF6
_chemical_formula_sum   'Cd1 Mo1 F6'
_cell_volume   117.94437913
_cell_formula_units_Z   1
loop_
 _symmetry_equiv_pos_site_id
 _symmetry_equiv_pos_as_xyz
  1  'x, y, z'
loop_
 _atom_site_type_symbol
 _atom_site_label
 _atom_site_symmetry_multiplicity
 _atom_site_fract_x
 _atom_site_fract_y
 _atom_site_fract_z
 _atom_site_occupancy
  Cd  Cd0  1  0.50000000  0.50000000  0.50000000  1
  Mo  Mo0  1  0.00000000  0.00000000  0.00000000  1
  F  F0  1  0.08669079  0.37513072  0.77478109  1
  F  F1  1  0.37513072  0.77478109  0.08669079  1
  F  F2  1  0.22521891  0.91330921  0.62486928  1
  F  F3  1  0.62486928  0.22521891  0.91330921  1
  F  F4  1  0.91330921  0.62486928  0.22521891  1
  F  F5  1  0.77478109  0.08669079  0.37513072  1
loop_
_geom_bond_atom_site_label_1
_geom_bond_atom_site_label_2
_geom_bond_distance
_geom_bond_site_symmetry_2
Cd0 F2 2.232918 1_555
Cd0 F5 2.232918 1_555
Cd0 F4 2.232918 1_555
Cd0 F0 2.232918 1_555
Cd0 F3 2.232918 1_555
Cd0 F1 2.232918 1_555
F0 Mo0 1.963136 1_556
F1 Mo0 1.963135 1_565
F2 Mo0 1.963135 1_566
F3 Mo0 1.963135 1_656
F4 Mo0 1.963136 1_665
F5 Mo0 1.963135 1_655
