# generated using pymatgen
data_LuCo(Sn2Ru)3
_symmetry_space_group_name_H-M   'P 1'
_cell_length_a   6.91550749
_cell_length_b   6.82199825
_cell_length_c   6.78902684
_cell_angle_alpha   120.23404575
_cell_angle_beta   120.69083126
_cell_angle_gamma   89.87565595
_symmetry_Int_Tables_number   1
_chemical_formula_structural   LuCo(Sn2Ru)3
_chemical_formula_sum   'Lu1 Co1 Sn6 Ru3'
_cell_volume   223.52728656
_cell_formula_units_Z   1
loop_
 _symmetry_equiv_pos_site_id
 _symmetry_equiv_pos_as_xyz
  1  'x, y, z'
loop_
 _atom_site_type_symbol
 _atom_site_label
 _atom_site_symmetry_multiplicity
 _atom_site_fract_x
 _atom_site_fract_y
 _atom_site_fract_z
 _atom_site_occupancy
  Lu  Lu0  1  0.97652730  0.02094525  1.00000000  1
  Co  Co0  1  0.41152813  0.74761137  1.00000000  1
  Sn  Sn0  1  0.46336769  0.10824326  1.00000000  1
  Sn  Sn1  1  0.12341394  0.46572146  1.00000000  1
  Sn  Sn2  1  0.87845259  0.87717523  0.34198800  1
  Sn  Sn3  1  0.53646360  0.53518723  0.65801200  1
  Sn  Sn4  1  0.01021181  0.51504062  0.52167689  1
  Sn  Sn5  1  0.48853392  0.99336374  0.47832311  1
  Ru  Ru0  1  0.75842674  0.39026198  1.00000000  1
  Ru  Ru1  1  0.25414768  0.25083598  0.65522209  1
  Ru  Ru2  1  0.59892559  0.59561389  0.34477791  1
loop_
_geom_bond_atom_site_label_1
_geom_bond_atom_site_label_2
_geom_bond_distance
_geom_bond_site_symmetry_2
Lu0 Ru0 2.933628 1_555
Lu0 Ru1 3.194141 1_656
Lu0 Ru2 3.194141 1_545
Lu0 Sn1 3.201869 1_655
Lu0 Sn2 3.273562 1_546
Lu0 Sn3 3.273567 1_545
Lu0 Sn4 3.331418 1_656
Lu0 Sn5 3.331421 1_545
Lu0 Sn0 3.420288 1_655
Lu0 Sn5 3.463068 1_646
Lu0 Sn4 3.463072 1_645
Lu0 Sn0 3.597109 1_555
Lu0 Sn3 3.725038 1_656
Lu0 Sn2 3.725040 1_545
Lu0 Sn1 3.919449 1_645
Co0 Sn0 2.486982 1_565
Co0 Sn4 2.528916 1_555
Co0 Sn5 2.528918 1_556
Co0 Sn3 2.625082 1_555
Co0 Sn2 2.625087 1_556
Co0 Ru2 2.752363 1_556
Co0 Ru1 2.752364 1_555
Co0 Sn1 2.772119 1_555
Co0 Lu0 3.535855 1_465
Sn1 Sn5 3.126563 1_556
Sn1 Sn4 3.126564 1_555
Ru0 Sn1 2.577126 1_655
Ru0 Sn4 2.641037 1_656
Ru0 Sn5 2.641037 1_545
Ru0 Sn2 2.718702 1_556
Ru0 Sn3 2.718702 1_555
Ru0 Sn0 2.807512 1_555
Ru0 Ru2 2.825728 1_556
Ru0 Ru1 2.825728 1_555
Ru1 Sn2 2.588442 1_445
Ru1 Sn4 2.643413 1_555
Ru1 Sn5 2.646749 1_545
Ru1 Sn1 2.672861 1_555
Ru1 Sn0 2.710789 1_555
Ru1 Sn3 2.741668 1_555
Ru2 Sn3 2.588445 1_555
Ru2 Sn5 2.643416 1_555
Ru2 Sn4 2.646755 1_655
Ru2 Sn1 2.672861 1_554
Ru2 Sn0 2.710790 1_554
Ru2 Sn2 2.741673 1_555
