# generated using pymatgen
data_Ba4PtRh3I2
_symmetry_space_group_name_H-M   'P 1'
_cell_length_a   4.48501781
_cell_length_b   4.48501778
_cell_length_c   19.01319932
_cell_angle_alpha   90.00000000
_cell_angle_beta   90.00000000
_cell_angle_gamma   119.99999311
_symmetry_Int_Tables_number   1
_chemical_formula_structural   Ba4PtRh3I2
_chemical_formula_sum   'Ba4 Pt1 Rh3 I2'
_cell_volume   331.21820884
_cell_formula_units_Z   1
loop_
 _symmetry_equiv_pos_site_id
 _symmetry_equiv_pos_as_xyz
  1  'x, y, z'
loop_
 _atom_site_type_symbol
 _atom_site_label
 _atom_site_symmetry_multiplicity
 _atom_site_fract_x
 _atom_site_fract_y
 _atom_site_fract_z
 _atom_site_occupancy
  Ba  Ba0  1  0.00000000  0.00000000  0.11213636  1
  Ba  Ba1  1  0.00000000  0.00000000  0.88789248  1
  Ba  Ba2  1  0.00000000  0.00000000  0.60832210  1
  Ba  Ba3  1  0.00000000  0.00000000  0.39167833  1
  Pt  Pt0  1  0.33333300  0.66666700  0.50043694  1
  Rh  Rh0  1  0.66666700  0.33333300  0.49960369  1
  Rh  Rh1  1  0.66666700  0.33333300  0.00044020  1
  Rh  Rh2  1  0.33333300  0.66666700  0.99942965  1
  I  I0  1  0.33333300  0.66666700  0.25101930  1
  I  I1  1  0.66666700  0.33333300  0.74903995  1
loop_
_geom_bond_atom_site_label_1
_geom_bond_atom_site_label_2
_geom_bond_distance
_geom_bond_site_symmetry_2
Ba0 Rh1 3.348913 1_455
Ba0 Rh1 3.348917 1_445
Ba0 Rh1 3.348917 1_555
Ba0 Rh2 3.361131 1_544
Ba0 Rh2 3.361134 1_554
Ba0 Rh2 3.361134 1_444
Ba0 I0 3.698369 1_545
Ba0 I0 3.698371 1_555
Ba0 I0 3.698371 1_445
Ba1 Rh2 3.346997 1_545
Ba1 Rh2 3.347001 1_555
Ba1 Rh2 3.347001 1_445
Ba1 Rh1 3.359204 1_456
Ba1 Rh1 3.359208 1_446
Ba1 Rh1 3.359208 1_556
Ba1 I1 3.697956 1_455
Ba1 I1 3.697959 1_445
Ba1 I1 3.697959 1_555
Ba2 Pt0 3.303439 1_545
Ba2 Pt0 3.303442 1_555
Ba2 Pt0 3.303442 1_445
Ba2 Rh0 3.313300 1_455
Ba2 Rh0 3.313303 1_445
Ba2 Rh0 3.313303 1_555
Ba2 I1 3.723358 1_455
Ba2 I1 3.723361 1_445
Ba2 I1 3.723361 1_555
Ba3 Rh0 3.303914 1_455
Ba3 Rh0 3.303917 1_445
Ba3 Rh0 3.303917 1_555
Ba3 Pt0 3.313776 1_545
Ba3 Pt0 3.313780 1_555
Ba3 Pt0 3.313780 1_445
Ba3 I0 3.722555 1_545
Ba3 I0 3.722558 1_555
Ba3 I0 3.722558 1_445
Pt0 Rh0 2.589472 1_565
Pt0 Rh0 2.589472 1_455
Pt0 Rh0 2.589480 1_555
Rh1 Rh2 2.589495 1_544
Rh1 Rh2 2.589495 1_654
Rh1 Rh2 2.589503 1_554
