# generated using pymatgen
data_Ta6Si6Tc5Mo
_symmetry_space_group_name_H-M   'P 1'
_cell_length_a   7.52010170
_cell_length_b   7.51000822
_cell_length_c   7.51000726
_cell_angle_alpha   126.95644260
_cell_angle_beta   125.20132225
_cell_angle_gamma   79.73539751
_symmetry_Int_Tables_number   1
_chemical_formula_structural   Ta6Si6Tc5Mo
_chemical_formula_sum   'Ta6 Si6 Tc5 Mo1'
_cell_volume   267.57954270
_cell_formula_units_Z   1
loop_
 _symmetry_equiv_pos_site_id
 _symmetry_equiv_pos_as_xyz
  1  'x, y, z'
loop_
 _atom_site_type_symbol
 _atom_site_label
 _atom_site_symmetry_multiplicity
 _atom_site_fract_x
 _atom_site_fract_y
 _atom_site_fract_z
 _atom_site_occupancy
  Ta  Ta0  1  0.55580082  0.09651532  0.04246532  1
  Ta  Ta1  1  0.44419918  0.48666449  0.54071450  1
  Ta  Ta2  1  0.96299545  0.49584515  0.03622719  1
  Ta  Ta3  1  0.03700455  0.07323274  0.53284970  1
  Ta  Ta4  1  0.75400688  0.91147750  0.65960159  1
  Ta  Ta5  1  0.24599312  0.90559271  0.15747062  1
  Si  Si0  1  0.33612887  0.82550643  0.49750669  1
  Si  Si1  1  0.66387113  0.16137682  0.48937656  1
  Si  Si2  1  0.82680522  0.82205953  0.98688189  1
  Si  Si3  1  0.17319478  0.16007667  0.99525431  1
  Si  Si4  1  0.77185142  0.53284004  0.25947682  1
  Si  Si5  1  0.22814858  0.48762540  0.76098962  1
  Tc  Tc0  1  0.15920240  0.75156858  0.65549963  1
  Tc  Tc1  1  0.84079760  0.49629623  0.59236617  1
  Tc  Tc2  1  0.59716757  0.74975219  0.09247560  1
  Tc  Tc3  1  0.40283243  0.49530703  0.15258462  1
  Tc  Tc4  1  0.50000000  0.24531341  0.74531341  1
  Mo  Mo0  1  0.00000000  0.24494576  0.24494576  1
loop_
_geom_bond_atom_site_label_1
_geom_bond_atom_site_label_2
_geom_bond_distance
_geom_bond_site_symmetry_2
Ta0 Tc0 2.785700 1_544
Ta0 Tc2 2.787884 1_545
Ta0 Tc1 2.800468 1_555
Ta0 Tc3 2.804929 1_555
Ta0 Tc4 2.855999 1_554
Ta1 Tc1 2.785698 1_555
Ta1 Tc3 2.787879 1_555
Ta1 Tc0 2.800470 1_555
Ta1 Tc2 2.804935 1_556
Ta1 Tc4 2.855999 1_555
Ta2 Tc3 2.893295 1_655
Ta2 Tc1 2.904637 1_554
Ta2 Tc4 3.009652 1_554
Ta2 Tc0 3.139053 1_655
Ta2 Tc2 3.143970 1_555
Ta3 Tc2 2.893299 1_445
Ta3 Tc0 2.904650 1_545
Ta3 Tc4 3.009650 1_555
Ta3 Tc1 3.139040 1_455
Ta3 Tc3 3.143967 1_556
Ta4 Tc4 2.849385 1_565
Ta4 Tc1 2.857369 1_555
Ta4 Tc3 2.877489 1_555
Ta4 Tc0 3.080200 1_655
Ta4 Tc2 3.083075 1_555
Ta5 Tc4 2.849387 1_565
Ta5 Tc0 2.857367 1_554
Ta5 Tc2 2.877483 1_555
Ta5 Tc1 3.080199 1_454
Ta5 Tc3 3.083068 1_555
Si0 Tc0 2.522299 1_555
Si0 Tc3 2.538098 1_555
Si0 Tc4 2.570504 1_565
Si0 Ta2 2.638210 1_455
Si0 Ta0 2.647442 1_566
Si0 Ta5 2.654867 1_555
Si0 Ta4 2.672382 1_555
Si0 Ta1 2.681996 1_555
Si0 Ta3 2.682308 1_565
Si1 Tc1 2.522295 1_555
Si1 Tc2 2.538089 1_545
Si1 Tc4 2.570508 1_555
Si1 Ta3 2.638205 1_655
Si1 Ta1 2.647447 1_555
Si1 Ta4 2.654877 1_545
Si1 Ta5 2.672387 1_545
Si1 Ta0 2.681992 1_555
Si1 Ta2 2.682310 1_556
Si2 Tc1 2.515280 1_555
Si2 Tc2 2.517292 1_556
Si2 Ta2 2.635905 1_556
Si2 Ta0 2.650511 1_566
Si2 Ta5 2.656017 1_656
Si2 Ta4 2.663479 1_555
Si2 Ta3 2.675664 1_666
Si2 Ta1 2.677679 1_555
Si3 Tc0 2.515278 1_545
Si3 Tc3 2.517286 1_556
Si3 Ta3 2.635909 1_555
Si3 Ta1 2.650511 1_556
Si3 Ta4 2.656020 1_445
Si3 Ta5 2.663494 1_546
Si3 Ta2 2.675664 1_456
Si3 Ta0 2.677679 1_556
Si4 Tc2 2.397253 1_555
Si4 Tc3 2.421404 1_555
Si4 Tc0 2.423167 1_655
Si4 Tc1 2.423640 1_555
Si4 Tc4 2.489738 1_554
Si4 Ta2 2.651497 1_555
Si4 Ta4 2.681067 1_555
Si4 Ta0 2.908005 1_555
Si5 Tc3 2.397250 1_556
Si5 Tc2 2.421405 1_556
Si5 Tc1 2.423164 1_455
Si5 Tc0 2.423640 1_555
Si5 Tc4 2.489739 1_555
Si5 Ta3 2.651488 1_555
Si5 Ta5 2.681057 1_556
Si5 Ta1 2.908011 1_555
Tc0 Tc1 2.977840 1_455
Tc0 Tc2 3.032146 1_556
Tc1 Tc3 3.032146 1_555
Tc2 Tc4 2.932044 1_554
Tc2 Tc3 2.963792 1_555
Tc3 Tc4 2.932044 1_554
Mo0 Si4 2.498059 1_455
Mo0 Si5 2.498064 1_555
Mo0 Si3 2.588766 1_554
Mo0 Si2 2.588767 1_444
Mo0 Ta4 2.838388 1_444
Mo0 Ta5 2.838397 1_545
Mo0 Ta0 2.854117 1_455
Mo0 Ta1 2.854118 1_555
Mo0 Tc1 2.945840 1_455
Mo0 Tc0 2.945841 1_555
Mo0 Ta3 2.991057 1_555
Mo0 Ta2 2.991063 1_455
