# generated using pymatgen
data_Rb2Cd3SnP4
_symmetry_space_group_name_H-M   'P 1'
_cell_length_a   9.45547771
_cell_length_b   9.45547750
_cell_length_c   7.54128175
_cell_angle_alpha   66.53330375
_cell_angle_beta   66.53330439
_cell_angle_gamma   26.50553181
_symmetry_Int_Tables_number   1
_chemical_formula_structural   Rb2Cd3SnP4
_chemical_formula_sum   'Rb2 Cd3 Sn1 P4'
_cell_volume   274.56749448
_cell_formula_units_Z   1
loop_
 _symmetry_equiv_pos_site_id
 _symmetry_equiv_pos_as_xyz
  1  'x, y, z'
loop_
 _atom_site_type_symbol
 _atom_site_label
 _atom_site_symmetry_multiplicity
 _atom_site_fract_x
 _atom_site_fract_y
 _atom_site_fract_z
 _atom_site_occupancy
  Rb  Rb0  1  0.49491337  0.49491337  0.51024043  1
  Rb  Rb1  1  0.99724734  0.99724734  0.99783158  1
  Cd  Cd0  1  0.19634057  0.19634057  0.48361979  1
  Cd  Cd1  1  0.32185217  0.32185217  0.02554857  1
  Cd  Cd2  1  0.82159045  0.82159045  0.49872252  1
  Sn  Sn0  1  0.68739533  0.68739533  0.96708876  1
  P  P0  1  0.36071474  0.36071474  0.30837396  1
  P  P1  1  0.83965250  0.83965250  0.82444191  1
  P  P2  1  0.63943287  0.63943287  0.69539651  1
  P  P3  1  0.14177269  0.14177269  0.18873596  1
loop_
_geom_bond_atom_site_label_1
_geom_bond_atom_site_label_2
_geom_bond_distance
_geom_bond_site_symmetry_2
Cd0 P2 2.641542 1_545
Cd0 P2 2.641543 1_455
Cd0 P0 2.762163 1_555
Cd0 P3 2.789601 1_555
Cd1 P0 2.511824 1_555
Cd1 P1 2.588344 1_454
Cd1 P1 2.588344 1_544
Cd1 P3 3.027288 1_555
Cd2 P0 2.536146 1_565
Cd2 P0 2.536146 1_655
Cd2 P1 2.610052 1_555
Cd2 P2 3.061619 1_555
P0 Rb0 3.390651 1_555
P0 Rb1 3.418118 1_454
P0 Rb1 3.418118 1_544
P1 Sn0 2.558353 1_555
P1 Rb0 3.597230 1_565
P1 Rb0 3.597230 1_655
P1 Rb1 3.637118 1_555
P2 Sn0 2.541171 1_555
P2 Rb1 3.444749 1_545
P2 Rb1 3.444749 1_455
P2 Rb0 3.473577 1_555
P3 Sn0 2.655052 1_454
P3 Sn0 2.655052 1_544
P3 Rb1 3.504815 1_444
P3 Rb0 3.538652 1_545
P3 Rb0 3.538652 1_455
