# generated using pymatgen
data_Ti6GaSN2
_symmetry_space_group_name_H-M   'P 1'
_cell_length_a   5.46738263
_cell_length_b   5.46738443
_cell_length_c   7.91278864
_cell_angle_alpha   90.00000000
_cell_angle_beta   90.00000000
_cell_angle_gamma   146.68881237
_symmetry_Int_Tables_number   1
_chemical_formula_structural   Ti6GaSN2
_chemical_formula_sum   'Ti6 Ga1 S1 N2'
_cell_volume   129.89968854
_cell_formula_units_Z   1
loop_
 _symmetry_equiv_pos_site_id
 _symmetry_equiv_pos_as_xyz
  1  'x, y, z'
loop_
 _atom_site_type_symbol
 _atom_site_label
 _atom_site_symmetry_multiplicity
 _atom_site_fract_x
 _atom_site_fract_y
 _atom_site_fract_z
 _atom_site_occupancy
  Ti  Ti0  1  0.63180126  0.36819874  0.56374399  1
  Ti  Ti1  1  0.37350012  0.62649988  0.04307682  1
  Ti  Ti2  1  0.37350012  0.62649988  0.45692318  1
  Ti  Ti3  1  0.63180126  0.36819874  0.93625601  1
  Ti  Ti4  1  0.93659177  0.06340823  0.75000000  1
  Ti  Ti5  1  0.04586068  0.95413932  0.25000000  1
  Ga  Ga0  1  0.74485822  0.25514178  0.25000000  1
  S  S0  1  0.25900414  0.74099586  0.75000000  1
  N  N0  1  0.00154122  0.99845878  0.50507281  1
  N  N1  1  0.00154122  0.99845878  0.99492719  1
loop_
_geom_bond_atom_site_label_1
_geom_bond_atom_site_label_2
_geom_bond_distance
_geom_bond_site_symmetry_2
Ga0 Ti5 2.607990 1_545
Ga0 Ti5 2.607991 1_655
Ga0 Ti2 2.636796 1_655
Ga0 Ti1 2.636796 1_655
Ga0 Ti2 2.636797 1_545
Ga0 Ti1 2.636797 1_545
Ga0 Ti0 2.750640 1_555
Ga0 Ti3 2.750640 1_554
S0 Ti4 2.432440 1_565
S0 Ti4 2.432441 1_455
S0 Ti3 2.530515 1_455
S0 Ti0 2.530515 1_455
S0 Ti3 2.530516 1_565
S0 Ti0 2.530516 1_565
S0 Ti1 2.610885 1_556
S0 Ti2 2.610885 1_555
N0 Ti4 2.054026 1_465
N0 Ti5 2.071051 1_555
N0 Ti2 2.097629 1_455
N0 Ti2 2.097630 1_565
N0 Ti0 2.129160 1_565
N0 Ti0 2.129161 1_455
N1 Ti4 2.054026 1_465
N1 Ti5 2.071051 1_556
N1 Ti1 2.097629 1_456
N1 Ti1 2.097630 1_566
N1 Ti3 2.129160 1_565
N1 Ti3 2.129161 1_455
