# generated using pymatgen
data_Sr2Cd3HgPd2
_symmetry_space_group_name_H-M   'P 1'
_cell_length_a   5.81357235
_cell_length_b   5.81357246
_cell_length_c   7.99572906
_cell_angle_alpha   89.94537083
_cell_angle_beta   90.05462842
_cell_angle_gamma   134.38883493
_symmetry_Int_Tables_number   1
_chemical_formula_structural   Sr2Cd3HgPd2
_chemical_formula_sum   'Sr2 Cd3 Hg1 Pd2'
_cell_volume   193.11343767
_cell_formula_units_Z   1
loop_
 _symmetry_equiv_pos_site_id
 _symmetry_equiv_pos_as_xyz
  1  'x, y, z'
loop_
 _atom_site_type_symbol
 _atom_site_label
 _atom_site_symmetry_multiplicity
 _atom_site_fract_x
 _atom_site_fract_y
 _atom_site_fract_z
 _atom_site_occupancy
  Sr  Sr0  1  0.93605380  0.06394620  0.25441017  1
  Sr  Sr1  1  0.06565765  0.93434235  0.74679466  1
  Cd  Cd0  1  0.35109685  0.64890315  0.55882014  1
  Cd  Cd1  1  0.64823889  0.35176111  0.05568800  1
  Cd  Cd2  1  0.35501893  0.64498107  0.94333740  1
  Hg  Hg0  1  0.63901360  0.36098640  0.44310527  1
  Pd  Pd0  1  0.22411964  0.77588036  0.24710440  1
  Pd  Pd1  1  0.78079964  0.21920036  0.75074197  1
loop_
_geom_bond_atom_site_label_1
_geom_bond_atom_site_label_2
_geom_bond_distance
_geom_bond_site_symmetry_2
Cd0 Pd1 2.828893 1_455
Cd0 Pd1 2.828893 1_565
Cd0 Pd0 2.838529 1_555
Cd0 Cd2 3.074740 1_555
Cd0 Hg0 3.222581 1_555
Cd0 Hg0 3.331154 1_455
Cd0 Hg0 3.331154 1_565
Cd0 Sr1 3.410043 1_555
Cd0 Sr0 3.440304 1_565
Cd0 Sr0 3.440304 1_455
Cd0 Sr1 3.552206 1_655
Cd0 Sr1 3.552206 1_545
Cd1 Pd1 2.823298 1_554
Cd1 Pd0 2.842367 1_545
Cd1 Pd0 2.842367 1_655
Cd1 Hg0 3.099363 1_555
Cd1 Sr1 3.457839 1_654
Cd1 Sr1 3.457839 1_544
Cd1 Sr0 3.468558 1_555
Cd1 Sr0 3.575197 1_455
Cd1 Sr0 3.575197 1_565
Cd2 Pd0 2.806195 1_556
Cd2 Pd1 2.842426 1_565
Cd2 Pd1 2.842426 1_455
Cd2 Sr0 3.466125 1_456
Cd2 Sr0 3.466125 1_566
Cd2 Sr1 3.475401 1_555
Cd2 Sr1 3.556924 1_655
Cd2 Sr1 3.556924 1_545
Hg0 Pd1 2.890025 1_555
Hg0 Pd0 2.892878 1_655
Hg0 Pd0 2.892878 1_545
Hg0 Sr1 3.405298 1_545
Hg0 Sr1 3.405298 1_655
Hg0 Sr0 3.475549 1_455
Hg0 Sr0 3.475549 1_565
Hg0 Sr0 3.524549 1_555
Pd0 Sr0 3.088159 1_465
Pd0 Sr0 3.200121 1_565
Pd0 Sr0 3.200121 1_455
Pd1 Sr1 3.053360 1_645
Pd1 Sr1 3.224262 1_545
Pd1 Sr1 3.224262 1_655
