# generated using pymatgen
data_TaTi11(NbP4)2
_symmetry_space_group_name_H-M   'P 1'
_cell_length_a   7.56991890
_cell_length_b   7.56991805
_cell_length_c   13.58889184
_cell_angle_alpha   75.66219545
_cell_angle_beta   75.66219776
_cell_angle_gamma   26.01563798
_symmetry_Int_Tables_number   1
_chemical_formula_structural   TaTi11(NbP4)2
_chemical_formula_sum   'Ta1 Ti11 Nb2 P8'
_cell_volume   330.33199205
_cell_formula_units_Z   1
loop_
 _symmetry_equiv_pos_site_id
 _symmetry_equiv_pos_as_xyz
  1  'x, y, z'
loop_
 _atom_site_type_symbol
 _atom_site_label
 _atom_site_symmetry_multiplicity
 _atom_site_fract_x
 _atom_site_fract_y
 _atom_site_fract_z
 _atom_site_occupancy
  Ta  Ta0  1  0.50000000  0.50000000  0.50000000  1
  Ti  Ti0  1  0.00000000  0.00000000  0.00000000  1
  Ti  Ti1  1  0.19731805  0.19731805  0.69160556  1
  Ti  Ti2  1  0.80268195  0.80268195  0.30839444  1
  Ti  Ti3  1  0.20549328  0.20549328  0.20571872  1
  Ti  Ti4  1  0.79450672  0.79450672  0.79428128  1
  Ti  Ti5  1  0.33878944  0.33878944  0.96740712  1
  Ti  Ti6  1  0.66121056  0.66121056  0.03259288  1
  Ti  Ti7  1  0.00378058  0.00378058  0.33678653  1
  Ti  Ti8  1  0.99621942  0.99621942  0.66321347  1
  Ti  Ti9  1  0.17760812  0.17760812  0.45918448  1
  Ti  Ti10  1  0.82239188  0.82239188  0.54081552  1
  Nb  Nb0  1  0.42679407  0.42679407  0.17023530  1
  Nb  Nb1  1  0.57320593  0.57320593  0.82976470  1
  P  P0  1  0.18181089  0.18181089  0.89165717  1
  P  P1  1  0.81818911  0.81818911  0.10834283  1
  P  P2  1  0.37283427  0.37283427  0.39393528  1
  P  P3  1  0.62716573  0.62716573  0.60606472  1
  P  P4  1  0.36844194  0.36844194  0.65980894  1
  P  P5  1  0.63155806  0.63155806  0.34019106  1
  P  P6  1  0.06312143  0.06312143  0.15086692  1
  P  P7  1  0.93687857  0.93687857  0.84913308  1
loop_
_geom_bond_atom_site_label_1
_geom_bond_atom_site_label_2
_geom_bond_distance
_geom_bond_site_symmetry_2
Nb0 P6 2.597605 1_565
Nb0 P6 2.597606 1_655
Nb0 P1 2.619556 1_545
Nb0 P1 2.619557 1_455
Nb0 P2 2.940106 1_555
Nb1 P7 2.597605 1_545
Nb1 P7 2.597606 1_455
Nb1 P0 2.619556 1_565
Nb1 P0 2.619557 1_655
Nb1 P3 2.940106 1_555
P0 Ti4 2.509889 1_455
P0 Ti4 2.509889 1_545
P0 Ti6 2.523393 1_546
P0 Ti6 2.523393 1_456
P0 Ti1 2.669524 1_555
P0 Ti0 2.711698 1_556
P0 Ti5 2.762866 1_555
P1 Ti3 2.509889 1_655
P1 Ti3 2.509889 1_565
P1 Ti5 2.523393 1_564
P1 Ti5 2.523393 1_654
P1 Ti2 2.669524 1_555
P1 Ti0 2.711698 1_665
P1 Ti6 2.762866 1_555
P2 Ti2 2.436536 1_545
P2 Ti2 2.436536 1_455
P2 Ti7 2.544590 1_565
P2 Ti7 2.544590 1_655
P2 Ti10 2.585667 1_545
P2 Ti10 2.585667 1_455
P2 Ta0 2.640182 1_555
P2 Ti9 2.789573 1_555
P3 Ti1 2.436536 1_565
P3 Ti1 2.436536 1_655
P3 Ti8 2.544590 1_545
P3 Ti8 2.544590 1_455
P3 Ti9 2.585667 1_565
P3 Ti9 2.585667 1_655
P3 Ta0 2.640182 1_555
P3 Ti10 2.789573 1_555
P4 Ti1 2.450386 1_555
P4 Ta0 2.517907 1_555
P4 Ti4 2.533523 1_545
P4 Ti4 2.533523 1_455
P4 Ti8 2.549988 1_455
P4 Ti8 2.549988 1_545
P4 Ti10 2.556876 1_545
P4 Ti10 2.556876 1_455
P5 Ti2 2.450386 1_555
P5 Ta0 2.517907 1_555
P5 Ti3 2.533523 1_565
P5 Ti3 2.533523 1_655
P5 Ti7 2.549988 1_655
P5 Ti7 2.549988 1_565
P5 Ti9 2.556876 1_565
P5 Ti9 2.556876 1_655
P6 Ti3 2.400428 1_555
P6 Ti7 2.454585 1_555
P6 Ti0 2.457703 1_555
P6 Ti6 2.529392 1_455
P6 Ti6 2.529393 1_545
P7 Ti4 2.400428 1_555
P7 Ti8 2.454585 1_555
P7 Ti0 2.457703 1_666
P7 Ti5 2.529392 1_655
P7 Ti5 2.529393 1_565
