# generated using pymatgen
data_HfTi4Re17Tc7
_symmetry_space_group_name_H-M   'P 1'
_cell_length_a   8.33579382
_cell_length_b   8.33579277
_cell_length_c   8.32290761
_cell_angle_alpha   109.48386168
_cell_angle_beta   109.48386172
_cell_angle_gamma   109.59896758
_symmetry_Int_Tables_number   1
_chemical_formula_structural   HfTi4Re17Tc7
_chemical_formula_sum   'Hf1 Ti4 Re17 Tc7'
_cell_volume   444.34847862
_cell_formula_units_Z   1
loop_
 _symmetry_equiv_pos_site_id
 _symmetry_equiv_pos_as_xyz
  1  'x, y, z'
loop_
 _atom_site_type_symbol
 _atom_site_label
 _atom_site_symmetry_multiplicity
 _atom_site_fract_x
 _atom_site_fract_y
 _atom_site_fract_z
 _atom_site_occupancy
  Hf  Hf0  1  0.99927654  0.99927654  0.99957220  1
  Ti  Ti0  1  0.62626872  0.99941723  0.99964002  1
  Ti  Ti1  1  0.99941723  0.62626872  0.99964002  1
  Ti  Ti2  1  0.00105752  0.00105752  0.62842181  1
  Ti  Ti3  1  0.37136951  0.37136951  0.37193231  1
  Re  Re0  1  0.00127109  0.68167344  0.40057928  1
  Re  Re1  1  0.68167344  0.00127109  0.40057928  1
  Re  Re2  1  0.59887324  0.59887324  0.27902675  1
  Re  Re3  1  0.28012255  0.60071141  0.59992297  1
  Re  Re4  1  0.60071141  0.28012255  0.59992297  1
  Re  Re5  1  0.37749218  0.19480273  0.00089323  1
  Re  Re6  1  0.18062304  0.80612646  0.80528691  1
  Re  Re7  1  0.37560672  0.00067197  0.19433960  1
  Re  Re8  1  0.19480273  0.37749218  0.00089323  1
  Re  Re9  1  0.00067197  0.37560672  0.19433960  1
  Re  Re10  1  0.80612646  0.18062304  0.80528691  1
  Re  Re11  1  0.80565396  0.80565396  0.18130292  1
  Re  Re12  1  0.00135109  0.19413470  0.37845546  1
  Re  Re13  1  0.19413470  0.00135109  0.37845546  1
  Re  Re14  1  0.62166174  0.62166174  0.81540407  1
  Re  Re15  1  0.81487867  0.62187677  0.62130860  1
  Re  Re16  1  0.62187677  0.81487867  0.62130860  1
  Tc  Tc0  1  0.40086197  0.68319678  0.00057373  1
  Tc  Tc1  1  0.71987241  0.31780663  0.31700602  1
  Tc  Tc2  1  0.40254889  0.00238601  0.68388358  1
  Tc  Tc3  1  0.68319678  0.40086197  0.00057373  1
  Tc  Tc4  1  0.00238601  0.40254889  0.68388358  1
  Tc  Tc5  1  0.31780663  0.71987241  0.31700602  1
  Tc  Tc6  1  0.31840703  0.31840703  0.72056814  1
loop_
_geom_bond_atom_site_label_1
_geom_bond_atom_site_label_2
_geom_bond_distance
_geom_bond_site_symmetry_2
Hf0 Re11 3.001183 1_556
Hf0 Re10 3.003140 1_565
Hf0 Re6 3.003141 1_655
Hf0 Re9 3.006561 1_666
Hf0 Re7 3.006561 1_666
Hf0 Re14 3.013562 1_555
Hf0 Re15 3.015283 1_555
Hf0 Re16 3.015283 1_555
Hf0 Re12 3.018372 1_666
Hf0 Re13 3.018372 1_666
Hf0 Re8 3.018927 1_666
Hf0 Re5 3.018927 1_666
Hf0 Ti3 3.093015 1_666
Hf0 Ti2 3.098985 1_665
Hf0 Ti1 3.109898 1_555
Hf0 Ti0 3.109898 1_555
Re0 Re9 2.553422 1_555
Re0 Ti2 2.705837 1_565
Re0 Re13 2.714819 1_565
Re0 Re11 2.731531 1_455
Re0 Re3 2.799630 1_555
Re0 Tc1 2.813718 1_455
Re0 Re6 2.815365 1_555
Re0 Re15 2.834236 1_455
Re0 Tc3 2.888295 1_455
Re0 Tc5 2.890623 1_555
Re0 Tc2 2.903445 1_565
Re0 Re2 2.910077 1_455
Re0 Ti1 3.206510 1_454
Re1 Re7 2.553422 1_555
Re1 Ti2 2.705837 1_655
Re1 Re12 2.714819 1_655
Re1 Re11 2.731531 1_545
Re1 Re4 2.799629 1_555
Re1 Tc5 2.813718 1_545
Re1 Re10 2.815365 1_555
Re1 Re16 2.834236 1_545
Re1 Tc0 2.888295 1_545
Re1 Tc1 2.890623 1_555
Re1 Tc4 2.903445 1_655
Re1 Re2 2.910076 1_545
Re1 Ti0 3.206510 1_544
Re2 Ti3 2.708218 1_555
Re2 Re5 2.808612 1_555
Re2 Re8 2.808612 1_555
Re2 Tc3 2.811178 1_555
Re2 Tc0 2.811178 1_555
Re2 Tc1 2.910872 1_555
Re2 Tc5 2.910873 1_555
Re2 Ti2 3.223063 1_665
Re3 Re6 2.547043 1_555
Re3 Ti3 2.711527 1_555
Re3 Tc4 2.803656 1_555
Re3 Re9 2.817606 1_555
Re3 Tc0 2.893544 1_556
Re3 Tc2 2.900318 1_565
Re3 Tc5 2.911055 1_555
Re3 Tc6 2.917895 1_555
Re3 Ti0 3.197873 1_555
Re4 Ti3 2.711527 1_555
Re4 Tc2 2.803656 1_555
Re4 Re7 2.817606 1_555
Re4 Tc3 2.893544 1_556
Re4 Tc4 2.900319 1_655
Re4 Tc1 2.911055 1_555
Re4 Tc6 2.917895 1_555
Re4 Ti1 3.197873 1_555
Re5 Re8 2.488781 1_555
Re5 Tc3 2.552502 1_555
Re5 Re7 2.636094 1_555
Re5 Re6 2.640610 1_544
Re5 Tc2 2.710530 1_554
Re5 Tc1 2.710534 1_555
Re5 Tc6 2.815159 1_554
Re5 Ti3 2.971348 1_555
Re5 Ti2 2.972565 1_554
Re5 Ti0 3.036799 1_544
Re6 Re7 2.640940 1_566
Re6 Tc2 2.727438 1_565
Re6 Tc0 2.728517 1_556
Re6 Tc4 2.814898 1_555
Re6 Ti2 2.967343 1_565
Re6 Ti1 2.978990 1_455
Re6 Ti0 3.041364 1_555
Re7 Tc0 2.720627 1_545
Re7 Tc1 2.724306 1_555
Re7 Tc5 2.814065 1_545
Re7 Ti3 2.965751 1_555
Re7 Ti1 2.978349 1_444
Re7 Ti0 3.042027 1_544
Re8 Tc0 2.552502 1_555
Re8 Re9 2.636094 1_555
Re8 Tc4 2.710530 1_554
Re8 Tc5 2.710534 1_555
Re8 Tc6 2.815159 1_554
Re8 Ti3 2.971348 1_555
Re8 Ti2 2.972565 1_554
Re8 Ti1 3.036799 1_454
Re9 Tc3 2.720627 1_455
Re9 Tc5 2.724306 1_555
Re9 Tc1 2.814065 1_455
Re9 Ti3 2.965751 1_555
Re9 Ti0 2.978349 1_444
Re9 Ti1 3.042027 1_454
Re10 Re16 2.484792 1_545
Re10 Re4 2.547043 1_555
Re10 Re8 2.640610 1_656
Re10 Re9 2.640940 1_656
Re10 Tc4 2.727438 1_655
Re10 Tc3 2.728517 1_556
Re10 Tc2 2.814898 1_555
Re10 Ti2 2.967343 1_655
Re10 Ti0 2.978990 1_545
Re10 Ti1 3.041364 1_555
Re11 Re14 2.483774 1_554
Re11 Re2 2.545764 1_555
Re11 Re12 2.639310 1_665
Re11 Re13 2.639310 1_665
Re11 Tc3 2.823018 1_555
Re11 Tc0 2.823018 1_555
Re11 Ti0 2.978582 1_554
Re11 Ti1 2.978582 1_554
Re11 Ti2 3.047565 1_665
Re12 Re9 2.486525 1_555
Re12 Tc4 2.551387 1_555
Re12 Re13 2.626294 1_555
Re12 Tc6 2.709471 1_555
Re12 Re3 2.824124 1_555
Re12 Tc1 2.829068 1_455
Re12 Ti3 2.967709 1_555
Re12 Ti0 2.992724 1_444
Re12 Ti2 3.025392 1_555
Re13 Re7 2.486526 1_555
Re13 Tc2 2.551387 1_555
Re13 Tc6 2.709471 1_555
Re13 Re4 2.824124 1_555
Re13 Tc5 2.829068 1_545
Re13 Ti3 2.967709 1_555
Re13 Ti1 2.992724 1_444
Re13 Ti2 3.025392 1_555
Re14 Tc6 2.540530 1_555
Re14 Re16 2.634269 1_555
Re14 Re15 2.634270 1_555
Re14 Re4 2.720985 1_555
Re14 Re3 2.720986 1_555
Re14 Tc3 2.832680 1_556
Re14 Tc0 2.832681 1_556
Re14 Ti0 2.987786 1_555
Re14 Ti1 2.987786 1_555
Re14 Ti3 3.022395 1_555
Re15 Re6 2.484792 1_655
Re15 Tc1 2.549351 1_555
Re15 Re16 2.629268 1_555
Re15 Re4 2.715196 1_555
Re15 Re2 2.715990 1_555
Re15 Tc4 2.840089 1_655
Re15 Ti2 2.987567 1_665
Re15 Ti1 2.989451 1_555
Re15 Ti3 3.024426 1_555
Re16 Tc5 2.549351 1_555
Re16 Re3 2.715197 1_555
Re16 Re2 2.715990 1_555
Re16 Tc2 2.840089 1_565
Re16 Ti2 2.987568 1_665
Re16 Ti0 2.989451 1_555
Re16 Ti3 3.024426 1_555
Tc0 Ti0 2.679448 1_554
Tc0 Tc6 2.819940 1_554
Tc0 Tc4 2.878638 1_554
Tc0 Tc5 2.886182 1_555
Tc0 Ti1 3.215314 1_454
Tc1 Ti0 2.681250 1_544
Tc1 Tc4 2.831410 1_655
Tc1 Tc3 2.886182 1_555
Tc1 Ti3 3.235360 1_555
Tc2 Ti0 2.681392 1_545
Tc2 Tc5 2.831409 1_545
Tc2 Tc3 2.878638 1_556
Tc2 Tc6 2.893179 1_555
Tc2 Ti2 3.217934 1_555
Tc3 Ti1 2.679448 1_554
Tc3 Tc6 2.819940 1_554
Tc3 Ti0 3.215313 1_544
Tc4 Ti1 2.681392 1_455
Tc4 Tc6 2.893179 1_555
Tc4 Ti2 3.217934 1_555
Tc5 Ti1 2.681250 1_454
Tc5 Ti3 3.235360 1_555
Tc6 Ti2 2.680036 1_555
Tc6 Ti3 3.223016 1_555
