# generated using pymatgen
data_BaCoP2Os
_symmetry_space_group_name_H-M   'P 1'
_cell_length_a   6.92393975
_cell_length_b   6.92393993
_cell_length_c   6.92394084
_cell_angle_alpha   147.47786948
_cell_angle_beta   147.47787240
_cell_angle_gamma   46.65673280
_symmetry_Int_Tables_number   1
_chemical_formula_structural   BaCoP2Os
_chemical_formula_sum   'Ba1 Co1 P2 Os1'
_cell_volume   95.59645930
_cell_formula_units_Z   1
loop_
 _symmetry_equiv_pos_site_id
 _symmetry_equiv_pos_as_xyz
  1  'x, y, z'
loop_
 _atom_site_type_symbol
 _atom_site_label
 _atom_site_symmetry_multiplicity
 _atom_site_fract_x
 _atom_site_fract_y
 _atom_site_fract_z
 _atom_site_occupancy
  Ba  Ba0  1  0.00000000  0.00000000  0.00000000  1
  Co  Co0  1  0.25000000  0.75000000  0.50000000  1
  P  P0  1  0.65636062  0.65636062  0.00000000  1
  P  P1  1  0.34363938  0.34363938  1.00000000  1
  Os  Os0  1  0.75000000  0.25000000  0.50000000  1
loop_
_geom_bond_atom_site_label_1
_geom_bond_atom_site_label_2
_geom_bond_distance
_geom_bond_site_symmetry_2
Ba0 P0 3.386896 1_556
Ba0 P1 3.386896 1_443
Ba0 P0 3.386896 1_545
Ba0 P1 3.386896 1_454
Ba0 P0 3.386896 1_455
Ba0 P1 3.386896 1_544
Ba0 P0 3.386897 1_444
Ba0 P1 3.386897 1_555
Co0 P0 2.275242 1_455
Co0 P1 2.275242 1_565
Co0 P0 2.275242 1_556
Co0 P1 2.275243 1_554
Co0 Os0 2.741881 1_555
Co0 Os0 2.741881 1_465
Co0 Os0 2.741882 1_454
Co0 Os0 2.741882 1_566
Os0 P1 2.275242 1_655
Os0 P0 2.275242 1_545
Os0 P1 2.275242 1_554
Os0 P0 2.275243 1_556
