# generated using pymatgen
data_CsK4GeAs3
_symmetry_space_group_name_H-M   'P 1'
_cell_length_a   5.27042450
_cell_length_b   14.61156113
_cell_length_c   16.30224354
_cell_angle_alpha   90.00000000
_cell_angle_beta   90.00000000
_cell_angle_gamma   90.00000000
_symmetry_Int_Tables_number   1
_chemical_formula_structural   CsK4GeAs3
_chemical_formula_sum   'Cs4 K16 Ge4 As12'
_cell_volume   1255.42158850
_cell_formula_units_Z   4
loop_
 _symmetry_equiv_pos_site_id
 _symmetry_equiv_pos_as_xyz
  1  'x, y, z'
loop_
 _atom_site_type_symbol
 _atom_site_label
 _atom_site_symmetry_multiplicity
 _atom_site_fract_x
 _atom_site_fract_y
 _atom_site_fract_z
 _atom_site_occupancy
  Cs  Cs0  1  0.25000000  0.13048337  0.52028617  1
  Cs  Cs1  1  0.75000000  0.86951663  0.47971383  1
  Cs  Cs2  1  0.75000000  0.63048337  0.97971383  1
  Cs  Cs3  1  0.25000000  0.36951663  0.02028617  1
  K  K0  1  0.25000000  0.42679515  0.56616580  1
  K  K1  1  0.75000000  0.57320485  0.43383420  1
  K  K2  1  0.75000000  0.92679515  0.93383420  1
  K  K3  1  0.25000000  0.07320485  0.06616580  1
  K  K4  1  0.25000000  0.81852489  0.08398548  1
  K  K5  1  0.75000000  0.18147511  0.91601452  1
  K  K6  1  0.75000000  0.31852489  0.41601452  1
  K  K7  1  0.25000000  0.68147511  0.58398548  1
  K  K8  1  0.25000000  0.23175532  0.26087683  1
  K  K9  1  0.75000000  0.76824468  0.73912317  1
  K  K10  1  0.75000000  0.73175532  0.23912317  1
  K  K11  1  0.25000000  0.26824468  0.76087683  1
  K  K12  1  0.25000000  0.94705667  0.29182324  1
  K  K13  1  0.75000000  0.05294333  0.70817676  1
  K  K14  1  0.75000000  0.44705667  0.20817676  1
  K  K15  1  0.25000000  0.55294333  0.79182324  1
  Ge  Ge0  1  0.25000000  0.58649917  0.29141400  1
  Ge  Ge1  1  0.75000000  0.41350083  0.70858600  1
  Ge  Ge2  1  0.75000000  0.08649917  0.20858600  1
  Ge  Ge3  1  0.25000000  0.91350083  0.79141400  1
  As  As0  1  0.25000000  0.59616778  0.14656590  1
  As  As1  1  0.75000000  0.40383222  0.85343410  1
  As  As2  1  0.75000000  0.09616778  0.35343410  1
  As  As3  1  0.25000000  0.90383222  0.64656590  1
  As  As4  1  0.25000000  0.44060085  0.35454464  1
  As  As5  1  0.75000000  0.55939915  0.64545536  1
  As  As6  1  0.75000000  0.94060085  0.14545536  1
  As  As7  1  0.25000000  0.05939915  0.85454464  1
  As  As8  1  0.25000000  0.71945384  0.37545354  1
  As  As9  1  0.75000000  0.28054616  0.62454646  1
  As  As10  1  0.75000000  0.21945384  0.12454646  1
  As  As11  1  0.25000000  0.78054616  0.87545354  1
loop_
_geom_bond_atom_site_label_1
_geom_bond_atom_site_label_2
_geom_bond_distance
_geom_bond_site_symmetry_2
Ge0 K10 3.489368 1_555
Ge0 K10 3.489368 1_455
Ge0 K1 3.517483 1_555
Ge0 K1 3.517483 1_455
Ge0 K14 3.596799 1_455
Ge0 K14 3.596799 1_555
Ge1 K11 3.489368 1_655
Ge1 K11 3.489368 1_555
Ge1 K0 3.517483 1_555
Ge1 K0 3.517483 1_655
Ge1 K15 3.596799 1_555
Ge1 K15 3.596799 1_655
Ge2 K8 3.489368 1_555
Ge2 K8 3.489368 1_655
Ge2 K3 3.517483 1_555
Ge2 K3 3.517483 1_655
Ge2 K12 3.596799 1_545
Ge2 K12 3.596799 1_645
Ge3 K9 3.489368 1_455
Ge3 K9 3.489368 1_555
Ge3 K2 3.517483 1_555
Ge3 K2 3.517483 1_455
Ge3 K13 3.596799 1_565
Ge3 K13 3.596799 1_465
As0 Ge0 2.365571 1_555
As0 K4 3.405394 1_555
As0 K14 3.563718 1_555
As0 K14 3.563718 1_455
As0 K10 3.625746 1_555
As0 K10 3.625746 1_455
As0 Cs2 3.820274 1_554
As0 Cs2 3.820274 1_454
As0 Cs3 3.899429 1_555
As1 Ge1 2.365571 1_555
As1 K5 3.405394 1_555
As1 K15 3.563718 1_555
As1 K15 3.563718 1_655
As1 K11 3.625746 1_555
As1 K11 3.625746 1_655
As1 Cs3 3.820274 1_556
As1 Cs3 3.820274 1_656
As1 Cs2 3.899429 1_555
As2 Ge2 2.365571 1_555
As2 K6 3.405394 1_555
As2 K12 3.563718 1_645
As2 K12 3.563718 1_545
As2 K8 3.625746 1_555
As2 K8 3.625746 1_655
As2 Cs0 3.820274 1_555
As2 Cs0 3.820274 1_655
As2 Cs1 3.899429 1_545
As3 Ge3 2.365571 1_555
As3 K7 3.405394 1_555
As3 K13 3.563718 1_565
As3 K13 3.563718 1_465
As3 K9 3.625746 1_555
As3 K9 3.625746 1_455
As3 Cs1 3.820274 1_555
As3 Cs1 3.820274 1_455
As3 Cs0 3.899429 1_565
As4 Ge0 2.367229 1_555
As4 K6 3.336195 1_455
As4 K6 3.336195 1_555
As4 K8 3.412291 1_555
As4 K0 3.455792 1_555
As4 K1 3.516996 1_455
As4 K1 3.516996 1_555
As4 K14 3.556239 1_455
As4 K14 3.556239 1_555
As5 Ge1 2.367229 1_555
As5 K7 3.336195 1_555
As5 K7 3.336195 1_655
As5 K9 3.412291 1_555
As5 K1 3.455792 1_555
As5 K0 3.516996 1_555
As5 K0 3.516996 1_655
As5 K15 3.556239 1_555
As5 K15 3.556239 1_655
As6 Ge2 2.367229 1_565
As6 K4 3.336195 1_655
As6 K4 3.336195 1_555
As6 K10 3.412291 1_555
As6 K2 3.455792 1_554
As6 K3 3.516996 1_665
As6 K3 3.516996 1_565
As6 K12 3.556239 1_555
As6 K12 3.556239 1_655
As7 Ge3 2.367229 1_545
As7 K5 3.336195 1_455
As7 K5 3.336195 1_555
As7 K11 3.412291 1_555
As7 K3 3.455792 1_556
As7 K2 3.516996 1_445
As7 K2 3.516996 1_545
As7 K13 3.556239 1_455
As7 K13 3.556239 1_555
As8 Ge0 2.377178 1_555
As8 K7 3.444533 1_555
As8 K10 3.451973 1_455
As8 K10 3.451973 1_555
As8 K1 3.523719 1_455
As8 K1 3.523719 1_555
As8 K12 3.594244 1_555
As8 Cs1 3.826352 1_555
As8 Cs1 3.826352 1_455
As9 Ge1 2.377178 1_555
As9 K6 3.444533 1_555
As9 K11 3.451973 1_655
As9 K11 3.451973 1_555
As9 K0 3.523719 1_655
As9 K0 3.523719 1_555
As9 K13 3.594244 1_555
As9 Cs0 3.826352 1_655
As9 Cs0 3.826352 1_555
As10 Ge2 2.377178 1_555
As10 K5 3.444533 1_554
As10 K8 3.451973 1_555
As10 K8 3.451973 1_655
As10 K3 3.523719 1_555
As10 K3 3.523719 1_655
As10 K14 3.594244 1_555
As10 Cs3 3.826352 1_555
As10 Cs3 3.826352 1_655
As11 Ge3 2.377178 1_555
As11 K4 3.444533 1_556
As11 K9 3.451973 1_455
As11 K9 3.451973 1_555
As11 K2 3.523719 1_455
As11 K2 3.523719 1_555
As11 K15 3.594244 1_555
As11 Cs2 3.826352 1_555
As11 Cs2 3.826352 1_455
