# generated using pymatgen
data_Hf6Si6Tc5Ni
_symmetry_space_group_name_H-M   'P 1'
_cell_length_a   7.67466502
_cell_length_b   7.67491572
_cell_length_c   7.67491583
_cell_angle_alpha   127.16542830
_cell_angle_beta   127.11801847
_cell_angle_gamma   78.02035096
_symmetry_Int_Tables_number   1
_chemical_formula_structural   Hf6Si6Tc5Ni
_chemical_formula_sum   'Hf6 Si6 Tc5 Ni1'
_cell_volume   278.35794319
_cell_formula_units_Z   1
loop_
 _symmetry_equiv_pos_site_id
 _symmetry_equiv_pos_as_xyz
  1  'x, y, z'
loop_
 _atom_site_type_symbol
 _atom_site_label
 _atom_site_symmetry_multiplicity
 _atom_site_fract_x
 _atom_site_fract_y
 _atom_site_fract_z
 _atom_site_occupancy
  Hf  Hf0  1  0.54515798  0.09406946  0.04596178  1
  Hf  Hf1  1  0.45484202  0.50080481  0.54891048  1
  Hf  Hf2  1  0.95200756  0.50077814  0.04585257  1
  Hf  Hf3  1  0.04799244  0.09384501  0.54877158  1
  Hf  Hf4  1  0.74826259  0.89834838  0.64658056  1
  Hf  Hf5  1  0.25173741  0.89831797  0.15008479  1
  Si  Si0  1  0.33479890  0.83335494  0.49857585  1
  Si  Si1  1  0.66520110  0.16377695  0.49855504  1
  Si  Si2  1  0.83506990  0.83533711  0.00006214  1
  Si  Si3  1  0.16493010  0.16499324  0.00026521  1
  Si  Si4  1  0.75052773  0.48893959  0.23937689  1
  Si  Si5  1  0.24947227  0.48884916  0.73841186  1
  Tc  Tc0  1  0.12598454  0.74579774  0.61982116  1
  Tc  Tc1  1  0.87401546  0.49383661  0.61981320  1
  Tc  Tc2  1  0.62649842  0.75145895  0.12496650  1
  Tc  Tc3  1  0.37350158  0.49846708  0.12496153  1
  Tc  Tc4  1  0.50000000  0.24335395  0.74335395  1
  Ni  Ni0  1  1.00000000  0.24967489  0.24967489  1
loop_
_geom_bond_atom_site_label_1
_geom_bond_atom_site_label_2
_geom_bond_distance
_geom_bond_site_symmetry_2
Hf0 Si0 2.694098 1_544
Hf0 Si3 2.696440 1_555
Hf0 Si2 2.698976 1_545
Hf0 Si1 2.701456 1_555
Hf0 Si4 2.756058 1_555
Hf0 Tc2 2.908578 1_545
Hf0 Tc0 2.915321 1_544
Hf0 Tc1 2.941594 1_555
Hf0 Tc3 2.954519 1_555
Hf0 Tc4 2.984225 1_554
Hf0 Ni0 2.990600 1_555
Hf1 Si1 2.694104 1_555
Hf1 Si2 2.696444 1_556
Hf1 Si3 2.698979 1_555
Hf1 Si0 2.701452 1_555
Hf1 Si5 2.756069 1_555
Hf1 Tc3 2.908553 1_555
Hf1 Tc1 2.915317 1_555
Hf1 Tc0 2.941593 1_555
Hf1 Tc2 2.954534 1_556
Hf1 Tc4 2.984239 1_555
Hf1 Ni0 2.990606 1_455
Hf2 Si1 2.693782 1_554
Hf2 Si2 2.697238 1_555
Hf2 Si3 2.699380 1_655
Hf2 Si0 2.701133 1_655
Hf2 Si4 2.756558 1_555
Hf2 Tc3 2.907199 1_655
Hf2 Tc1 2.914345 1_554
Hf2 Tc0 2.942624 1_655
Hf2 Tc2 2.955530 1_555
Hf2 Tc4 2.985015 1_554
Hf2 Ni0 2.991538 1_555
Hf3 Si0 2.693780 1_545
Hf3 Si3 2.697212 1_556
Hf3 Si2 2.699393 1_445
Hf3 Si1 2.701127 1_455
Hf3 Si5 2.756562 1_555
Hf3 Tc2 2.907203 1_445
Hf3 Tc0 2.914340 1_545
Hf3 Tc1 2.942626 1_455
Hf3 Tc3 2.955528 1_556
Hf3 Tc4 2.985018 1_555
Hf3 Ni0 2.991546 1_455
Hf4 Si1 2.688891 1_565
Hf4 Si0 2.688948 1_555
Hf4 Si2 2.703300 1_556
Hf4 Si3 2.703816 1_666
Hf4 Si4 2.796191 1_555
Hf4 Tc4 2.903558 1_565
Hf4 Tc2 2.939401 1_555
Hf4 Tc3 2.939530 1_555
Hf4 Ni0 2.952594 1_566
Hf4 Tc0 2.972473 1_655
Hf4 Tc1 2.972707 1_555
Hf5 Si0 2.688893 1_555
Hf5 Si1 2.688948 1_565
Hf5 Si3 2.703313 1_565
Hf5 Si2 2.703813 1_455
Hf5 Si5 2.796187 1_554
Hf5 Tc4 2.903563 1_565
Hf5 Tc3 2.939414 1_555
Hf5 Tc2 2.939525 1_555
Hf5 Ni0 2.952595 1_465
Hf5 Tc1 2.972472 1_454
Hf5 Tc0 2.972700 1_554
Si0 Tc4 2.584081 1_565
Si0 Tc3 2.592862 1_555
Si0 Tc0 2.624539 1_555
Si1 Tc4 2.584088 1_555
Si1 Tc2 2.592862 1_545
Si1 Tc1 2.624535 1_555
Si2 Tc2 2.630801 1_555
Si2 Tc1 2.638479 1_554
Si3 Tc3 2.630773 1_555
Si3 Tc0 2.638478 1_544
Si4 Tc4 2.396406 1_554
Si4 Tc0 2.442092 1_655
Si4 Tc1 2.442817 1_555
Si4 Tc2 2.463584 1_555
Si4 Tc3 2.464177 1_555
Si5 Tc4 2.396406 1_555
Si5 Tc1 2.442092 1_455
Si5 Tc0 2.442817 1_555
Si5 Tc3 2.463596 1_556
Si5 Tc2 2.464174 1_556
Ni0 Si4 2.361634 1_555
Ni0 Si5 2.361634 1_655
Ni0 Si2 2.601603 1_545
Ni0 Si3 2.601618 1_655
