# generated using pymatgen
data_CuSiRhSe4
_symmetry_space_group_name_H-M   'P 1'
_cell_length_a   7.26111403
_cell_length_b   7.26111401
_cell_length_c   7.26111412
_cell_angle_alpha   120.11241597
_cell_angle_beta   118.76681893
_cell_angle_gamma   90.97726306
_symmetry_Int_Tables_number   1
_chemical_formula_structural   CuSiRhSe4
_chemical_formula_sum   'Cu2 Si2 Rh2 Se8'
_cell_volume   272.90792865
_cell_formula_units_Z   2
loop_
 _symmetry_equiv_pos_site_id
 _symmetry_equiv_pos_as_xyz
  1  'x, y, z'
loop_
 _atom_site_type_symbol
 _atom_site_label
 _atom_site_symmetry_multiplicity
 _atom_site_fract_x
 _atom_site_fract_y
 _atom_site_fract_z
 _atom_site_occupancy
  Cu  Cu0  1  0.37127400  0.62127400  0.75000000  1
  Cu  Cu1  1  0.62872600  0.37872600  0.25000000  1
  Si  Si0  1  0.00000000  0.00000000  0.50000000  1
  Si  Si1  1  0.00000000  0.50000000  0.00000000  1
  Rh  Rh0  1  0.00000000  0.00000000  0.00000000  1
  Rh  Rh1  1  0.50000000  0.00000000  0.50000000  1
  Se  Se0  1  0.23880401  0.75985732  0.02105331  1
  Se  Se1  1  0.23880401  0.21774970  0.47894669  1
  Se  Se2  1  0.23924794  0.75656279  0.48268415  1
  Se  Se3  1  0.77387864  0.75656279  0.01731585  1
  Se  Se4  1  0.76119599  0.24014268  0.97894669  1
  Se  Se5  1  0.76119599  0.78225030  0.52105331  1
  Se  Se6  1  0.76075206  0.24343721  0.51731585  1
  Se  Se7  1  0.22612136  0.24343721  0.98268415  1
loop_
_geom_bond_atom_site_label_1
_geom_bond_atom_site_label_2
_geom_bond_distance
_geom_bond_site_symmetry_2
Cu0 Se0 2.383132 1_556
Cu0 Se1 2.383138 1_555
Cu0 Se2 2.409549 1_555
Cu0 Se3 2.409550 1_556
Cu1 Se4 2.383132 1_554
Cu1 Se5 2.383138 1_555
Cu1 Se6 2.409549 1_555
Cu1 Se7 2.409550 1_554
Rh0 Se3 2.481697 1_445
Rh0 Se7 2.481697 1_554
Rh0 Se4 2.487175 1_454
Rh0 Se0 2.487175 1_545
Rh0 Se5 2.487176 1_444
Rh0 Se1 2.487176 1_555
Rh1 Se6 2.481692 1_555
Rh1 Se2 2.481692 1_545
Rh1 Se5 2.487170 1_545
Rh1 Se1 2.487170 1_555
Rh1 Se4 2.487175 1_555
Rh1 Se0 2.487175 1_545
Se0 Si1 2.436006 1_555
Se1 Si0 2.436001 1_555
Se2 Si1 2.500029 1_555
Se2 Si0 2.500034 1_565
Se3 Si1 2.500029 1_655
Se3 Si0 2.500029 1_665
Se4 Si1 2.436006 1_656
Se5 Si0 2.436001 1_665
Se6 Si1 2.500029 1_656
Se6 Si0 2.500034 1_655
Se7 Si1 2.500029 1_556
Se7 Si0 2.500029 1_555
