# generated using pymatgen
data_Ba2Sr(InAs2)2
_symmetry_space_group_name_H-M   'P 1'
_cell_length_a   4.53193530
_cell_length_b   7.13757142
_cell_length_c   17.41027584
_cell_angle_alpha   90.00000000
_cell_angle_beta   90.00000000
_cell_angle_gamma   90.00000000
_symmetry_Int_Tables_number   1
_chemical_formula_structural   Ba2Sr(InAs2)2
_chemical_formula_sum   'Ba4 Sr2 In4 As8'
_cell_volume   563.17039942
_cell_formula_units_Z   2
loop_
 _symmetry_equiv_pos_site_id
 _symmetry_equiv_pos_as_xyz
  1  'x, y, z'
loop_
 _atom_site_type_symbol
 _atom_site_label
 _atom_site_symmetry_multiplicity
 _atom_site_fract_x
 _atom_site_fract_y
 _atom_site_fract_z
 _atom_site_occupancy
  Ba  Ba0  1  0.00000000  0.28604310  0.80183438  1
  Ba  Ba1  1  0.50000000  0.78604310  0.69816562  1
  Ba  Ba2  1  0.00000000  0.71395690  0.19816562  1
  Ba  Ba3  1  0.50000000  0.21395690  0.30183438  1
  Sr  Sr0  1  0.00000000  0.00000000  0.00000000  1
  Sr  Sr1  1  0.50000000  0.50000000  0.50000000  1
  In  In0  1  0.00000000  0.86747384  0.41669515  1
  In  In1  1  0.50000000  0.36747384  0.08330485  1
  In  In2  1  0.00000000  0.13252616  0.58330485  1
  In  In3  1  0.50000000  0.63252616  0.91669515  1
  As  As0  1  0.50000000  0.25853145  0.93616599  1
  As  As1  1  0.50000000  0.74146855  0.06383401  1
  As  As2  1  0.00000000  0.24356182  0.16046020  1
  As  As3  1  0.00000000  0.24146855  0.43616599  1
  As  As4  1  0.50000000  0.74356182  0.33953980  1
  As  As5  1  0.00000000  0.75643818  0.83953980  1
  As  As6  1  0.00000000  0.75853145  0.56383401  1
  As  As7  1  0.50000000  0.25643818  0.66046020  1
loop_
_geom_bond_atom_site_label_1
_geom_bond_atom_site_label_2
_geom_bond_distance
_geom_bond_site_symmetry_2
As0 In1 2.677142 1_556
As0 In3 2.690852 1_555
As0 Sr0 3.126473 1_556
As0 Sr0 3.126473 1_656
As0 Ba0 3.262349 1_655
As0 Ba0 3.262349 1_555
As1 In3 2.677142 1_554
As1 In1 2.690852 1_555
As1 Sr0 3.126473 1_565
As1 Sr0 3.126473 1_665
As1 Ba2 3.262349 1_655
As1 Ba2 3.262349 1_555
As2 In1 2.778718 1_555
As2 In1 2.778718 1_455
As2 Sr0 3.290393 1_555
As2 Ba3 3.352249 1_555
As2 Ba3 3.352249 1_455
As2 Ba2 3.421053 1_555
As2 Ba2 3.836671 1_545
As3 In2 2.677142 1_555
As3 In0 2.690852 1_545
As3 Sr1 3.126473 1_455
As3 Sr1 3.126473 1_555
As3 Ba3 3.262349 1_455
As3 Ba3 3.262349 1_555
As4 In0 2.778718 1_555
As4 In0 2.778718 1_655
As4 Sr1 3.290393 1_555
As4 Ba2 3.352249 1_555
As4 Ba2 3.352249 1_655
As4 Ba3 3.421053 1_565
As4 Ba3 3.836671 1_555
As5 In3 2.778718 1_455
As5 In3 2.778718 1_555
As5 Sr0 3.290393 1_566
As5 Ba1 3.352249 1_455
As5 Ba1 3.352249 1_555
As5 Ba0 3.421053 1_555
As5 Ba0 3.836671 1_565
As6 In0 2.677142 1_555
As6 In2 2.690852 1_565
As6 Sr1 3.126473 1_455
As6 Sr1 3.126473 1_555
As6 Ba1 3.262349 1_455
As6 Ba1 3.262349 1_555
As7 In2 2.778718 1_655
As7 In2 2.778718 1_555
As7 Sr1 3.290393 1_555
As7 Ba0 3.352249 1_655
As7 Ba0 3.352249 1_555
As7 Ba1 3.421053 1_545
As7 Ba1 3.836671 1_555
