# generated using pymatgen
data_Nb3Co2WN
_symmetry_space_group_name_H-M   'P 1'
_cell_length_a   8.15995474
_cell_length_b   8.15995500
_cell_length_c   8.15995455
_cell_angle_alpha   59.99999780
_cell_angle_beta   59.99999677
_cell_angle_gamma   59.99999655
_symmetry_Int_Tables_number   1
_chemical_formula_structural   Nb3Co2WN
_chemical_formula_sum   'Nb12 Co8 W4 N4'
_cell_volume   384.19191942
_cell_formula_units_Z   4
loop_
 _symmetry_equiv_pos_site_id
 _symmetry_equiv_pos_as_xyz
  1  'x, y, z'
loop_
 _atom_site_type_symbol
 _atom_site_label
 _atom_site_symmetry_multiplicity
 _atom_site_fract_x
 _atom_site_fract_y
 _atom_site_fract_z
 _atom_site_occupancy
  Nb  Nb0  1  0.80960275  0.80960275  0.19039725  1
  Nb  Nb1  1  0.19039725  0.19039725  0.80960275  1
  Nb  Nb2  1  0.80960275  0.19039725  0.80960275  1
  Nb  Nb3  1  0.19039725  0.80960275  0.19039725  1
  Nb  Nb4  1  0.19039725  0.80960275  0.80960275  1
  Nb  Nb5  1  0.80960275  0.19039725  0.19039725  1
  Nb  Nb6  1  0.44039725  0.44039725  0.05960275  1
  Nb  Nb7  1  0.05960275  0.05960275  0.44039725  1
  Nb  Nb8  1  0.44039725  0.05960275  0.44039725  1
  Nb  Nb9  1  0.05960275  0.44039725  0.05960275  1
  Nb  Nb10  1  0.05960275  0.44039725  0.44039725  1
  Nb  Nb11  1  0.44039725  0.05960275  0.05960275  1
  Co  Co0  1  0.73663569  0.42112144  0.42112144  1
  Co  Co1  1  0.42112144  0.73663569  0.42112144  1
  Co  Co2  1  0.42112144  0.42112144  0.73663569  1
  Co  Co3  1  0.42112144  0.42112144  0.42112144  1
  Co  Co4  1  0.51336431  0.82887856  0.82887856  1
  Co  Co5  1  0.82887856  0.51336431  0.82887856  1
  Co  Co6  1  0.82887856  0.82887856  0.51336431  1
  Co  Co7  1  0.82887856  0.82887856  0.82887856  1
  W  W0  1  0.12500000  0.62500000  0.62500000  1
  W  W1  1  0.62500000  0.12500000  0.62500000  1
  W  W2  1  0.62500000  0.62500000  0.12500000  1
  W  W3  1  0.62500000  0.62500000  0.62500000  1
  N  N0  1  0.62500000  0.12500000  0.12500000  1
  N  N1  1  0.12500000  0.62500000  0.12500000  1
  N  N2  1  0.12500000  0.12500000  0.62500000  1
  N  N3  1  0.12500000  0.12500000  0.12500000  1
loop_
_geom_bond_atom_site_label_1
_geom_bond_atom_site_label_2
_geom_bond_distance
_geom_bond_site_symmetry_2
Nb0 W3 2.949531 1_555
Nb0 W2 2.949531 1_555
Nb1 W1 2.949531 1_555
Nb1 W0 2.949531 1_555
Nb2 W3 2.949531 1_555
Nb2 W1 2.949531 1_555
Nb3 W0 2.949531 1_555
Nb3 W2 2.949531 1_555
Nb4 W3 2.949531 1_555
Nb4 W0 2.949531 1_555
Nb5 W1 2.949531 1_555
Nb5 W2 2.949531 1_555
Nb6 W3 2.949531 1_554
Nb6 W2 2.949531 1_555
Nb7 W1 2.949531 1_455
Nb7 W0 2.949531 1_545
Nb8 W3 2.949531 1_545
Nb8 W1 2.949531 1_555
Nb9 W0 2.949531 1_554
Nb9 W2 2.949531 1_455
Nb10 W3 2.949531 1_455
Nb10 W0 2.949531 1_555
Nb11 W1 2.949531 1_554
Nb11 W2 2.949531 1_545
Co0 W2 2.470212 1_555
Co0 W3 2.470212 1_555
Co0 W1 2.470212 1_555
Co0 Co2 2.574582 1_555
Co0 Co1 2.574582 1_555
Co0 Co3 2.574582 1_555
Co0 Nb9 2.801531 1_655
Co0 Nb7 2.801531 1_655
Co0 Nb10 2.801531 1_655
Co0 Nb2 2.957402 1_555
Co0 Nb5 2.957402 1_555
Co0 Nb0 2.957402 1_555
Co1 W2 2.470212 1_555
Co1 W3 2.470212 1_555
Co1 W0 2.470212 1_555
Co1 Co2 2.574582 1_555
Co1 Co3 2.574582 1_555
Co1 Nb7 2.801531 1_565
Co1 Nb11 2.801531 1_565
Co1 Nb8 2.801531 1_565
Co1 Nb4 2.957402 1_555
Co1 Nb0 2.957402 1_555
Co1 Nb3 2.957402 1_555
Co2 W0 2.470212 1_555
Co2 W1 2.470212 1_555
Co2 W3 2.470212 1_555
Co2 Co3 2.574582 1_555
Co2 Nb9 2.801531 1_556
Co2 Nb11 2.801531 1_556
Co2 Nb6 2.801531 1_556
Co2 Nb2 2.957402 1_555
Co2 Nb4 2.957402 1_555
Co2 Nb1 2.957402 1_555
Co3 W0 2.470212 1_555
Co3 W1 2.470212 1_555
Co3 W2 2.470212 1_555
Co3 Nb6 2.801531 1_555
Co3 Nb10 2.801531 1_555
Co3 Nb8 2.801531 1_555
Co3 Nb5 2.957402 1_555
Co3 Nb1 2.957402 1_555
Co3 Nb3 2.957402 1_555
Co4 W2 2.470212 1_556
Co4 W3 2.470212 1_555
Co4 W1 2.470212 1_565
Co4 Co6 2.574582 1_555
Co4 Co5 2.574582 1_555
Co4 Co7 2.574582 1_555
Co4 Nb3 2.801531 1_556
Co4 Nb1 2.801531 1_565
Co4 Nb4 2.801531 1_555
Co4 Nb8 2.957402 1_565
Co4 Nb11 2.957402 1_566
Co4 Nb6 2.957402 1_556
Co5 W2 2.470212 1_556
Co5 W3 2.470212 1_555
Co5 W0 2.470212 1_655
Co5 Co6 2.574582 1_555
Co5 Co7 2.574582 1_555
Co5 Nb1 2.801531 1_655
Co5 Nb5 2.801531 1_556
Co5 Nb2 2.801531 1_555
Co5 Nb10 2.957402 1_655
Co5 Nb6 2.957402 1_556
Co5 Nb9 2.957402 1_656
Co6 W0 2.470212 1_655
Co6 W1 2.470212 1_565
Co6 W3 2.470212 1_555
Co6 Co7 2.574582 1_555
Co6 Nb3 2.801531 1_655
Co6 Nb5 2.801531 1_565
Co6 Nb0 2.801531 1_555
Co6 Nb8 2.957402 1_565
Co6 Nb10 2.957402 1_655
Co6 Nb7 2.957402 1_665
Co7 W0 2.470212 1_655
Co7 W1 2.470212 1_565
Co7 W2 2.470212 1_556
Co7 Nb0 2.801531 1_556
Co7 Nb4 2.801531 1_655
Co7 Nb2 2.801531 1_565
Co7 Nb11 2.957402 1_566
Co7 Nb7 2.957402 1_665
Co7 Nb9 2.957402 1_656
N0 Nb8 2.175108 1_555
N0 Nb2 2.175108 1_554
N0 Nb6 2.175108 1_555
N0 Nb0 2.175108 1_545
N0 Nb5 2.175108 1_555
N0 Nb11 2.175108 1_555
N1 Nb10 2.175108 1_555
N1 Nb4 2.175108 1_554
N1 Nb6 2.175108 1_555
N1 Nb0 2.175108 1_455
N1 Nb3 2.175108 1_555
N1 Nb9 2.175108 1_555
N2 Nb8 2.175108 1_555
N2 Nb2 2.175108 1_455
N2 Nb10 2.175108 1_555
N2 Nb4 2.175108 1_545
N2 Nb1 2.175108 1_555
N2 Nb7 2.175108 1_555
N3 Nb7 2.175108 1_555
N3 Nb1 2.175108 1_554
N3 Nb11 2.175108 1_555
N3 Nb5 2.175108 1_455
N3 Nb9 2.175108 1_555
N3 Nb3 2.175108 1_545
