# generated using pymatgen
data_Sn(SeF6)2
_symmetry_space_group_name_H-M   'P 1'
_cell_length_a   6.25085610
_cell_length_b   7.89353374
_cell_length_c   10.02314164
_cell_angle_alpha   90.00000000
_cell_angle_beta   90.00000000
_cell_angle_gamma   90.00000000
_symmetry_Int_Tables_number   1
_chemical_formula_structural   Sn(SeF6)2
_chemical_formula_sum   'Sn2 Se4 F24'
_cell_volume   494.55527513
_cell_formula_units_Z   2
loop_
 _symmetry_equiv_pos_site_id
 _symmetry_equiv_pos_as_xyz
  1  'x, y, z'
loop_
 _atom_site_type_symbol
 _atom_site_label
 _atom_site_symmetry_multiplicity
 _atom_site_fract_x
 _atom_site_fract_y
 _atom_site_fract_z
 _atom_site_occupancy
  Sn  Sn0  1  0.00000000  0.50000000  0.00000000  1
  Sn  Sn1  1  0.50000000  0.00000000  0.50000000  1
  Se  Se0  1  0.50000000  0.58546153  0.24035802  1
  Se  Se1  1  0.50000000  0.41453847  0.75964198  1
  Se  Se2  1  0.00000000  0.08546153  0.25964198  1
  Se  Se3  1  0.00000000  0.91453847  0.74035802  1
  F  F0  1  0.22370945  0.36763114  0.90662258  1
  F  F1  1  0.22370945  0.63236886  0.09337742  1
  F  F2  1  0.27629055  0.86763114  0.59337742  1
  F  F3  1  0.27629055  0.13236886  0.40662258  1
  F  F4  1  0.77629055  0.63236886  0.09337742  1
  F  F5  1  0.77629055  0.36763114  0.90662258  1
  F  F6  1  0.80259640  0.96841742  0.85112279  1
  F  F7  1  0.80259640  0.03158258  0.14887721  1
  F  F8  1  0.69740360  0.46841742  0.64887721  1
  F  F9  1  0.69740360  0.53158258  0.35112279  1
  F  F10  1  0.19740360  0.03158258  0.14887721  1
  F  F11  1  0.19740360  0.96841742  0.85112279  1
  F  F12  1  0.30259640  0.53158258  0.35112279  1
  F  F13  1  0.30259640  0.46841742  0.64887721  1
  F  F14  1  0.00000000  0.66351244  0.85062862  1
  F  F15  1  0.00000000  0.33648756  0.14937138  1
  F  F16  1  0.50000000  0.16351244  0.64937138  1
  F  F17  1  0.50000000  0.83648756  0.35062862  1
  F  F18  1  0.50000000  0.61483705  0.82758306  1
  F  F19  1  0.50000000  0.38516295  0.17241694  1
  F  F20  1  0.00000000  0.11483705  0.67241694  1
  F  F21  1  0.00000000  0.88516295  0.32758306  1
  F  F22  1  0.72370945  0.86763114  0.59337742  1
  F  F23  1  0.72370945  0.13236886  0.40662258  1
loop_
_geom_bond_atom_site_label_1
_geom_bond_atom_site_label_2
_geom_bond_distance
_geom_bond_site_symmetry_2
F0 Sn0 1.980696 1_556
F0 Se1 2.300032 1_555
F1 Sn0 1.980696 1_555
F1 Se0 2.300032 1_555
F2 Sn1 1.980696 1_565
F2 Se3 2.300032 1_555
F3 Sn1 1.980696 1_555
F3 Se2 2.300032 1_555
F4 Sn0 1.980696 1_655
F4 Se0 2.300032 1_555
F5 Sn0 1.980696 1_656
F5 Se1 2.300032 1_555
F6 Se3 1.713492 1_655
F7 Se2 1.713492 1_655
F8 Se1 1.713492 1_555
F9 Se0 1.713492 1_555
F10 Se2 1.713492 1_555
F11 Se3 1.713492 1_555
F12 Se0 1.713492 1_555
F13 Se1 1.713492 1_555
F14 Sn0 1.976715 1_556
F14 Se3 2.268891 1_555
F15 Sn0 1.976715 1_555
F15 Se2 2.268891 1_555
F16 Sn1 1.976715 1_555
F16 Se1 2.268891 1_555
F17 Sn1 1.976715 1_565
F17 Se0 2.268891 1_555
F18 Se1 1.721482 1_555
F19 Se0 1.721482 1_555
F20 Se3 1.721482 1_545
F21 Se2 1.721482 1_565
F22 Sn1 1.980696 1_565
F22 Se3 2.300032 1_655
F23 Sn1 1.980696 1_555
F23 Se2 2.300032 1_655
