# generated using pymatgen
data_Rb6NbBrO5
_symmetry_space_group_name_H-M   'P 1'
_cell_length_a   8.07426585
_cell_length_b   8.07426606
_cell_length_c   8.07426570
_cell_angle_alpha   60.00000147
_cell_angle_beta   60.00000058
_cell_angle_gamma   59.99999900
_symmetry_Int_Tables_number   1
_chemical_formula_structural   Rb6NbBrO5
_chemical_formula_sum   'Rb6 Nb1 Br1 O5'
_cell_volume   372.21523321
_cell_formula_units_Z   1
loop_
 _symmetry_equiv_pos_site_id
 _symmetry_equiv_pos_as_xyz
  1  'x, y, z'
loop_
 _atom_site_type_symbol
 _atom_site_label
 _atom_site_symmetry_multiplicity
 _atom_site_fract_x
 _atom_site_fract_y
 _atom_site_fract_z
 _atom_site_occupancy
  Rb  Rb0  1  0.48813859  0.01186241  0.01186241  1
  Rb  Rb1  1  0.01186241  0.48813859  0.01186241  1
  Rb  Rb2  1  0.48813859  0.48813859  0.01186241  1
  Rb  Rb3  1  0.01186241  0.01186241  0.48813859  1
  Rb  Rb4  1  0.48813859  0.01186241  0.48813859  1
  Rb  Rb5  1  0.01186241  0.48813859  0.48813859  1
  Nb  Nb0  1  0.50000000  0.50000000  0.50000000  1
  Br  Br0  1  0.00000000  0.00000000  0.00000000  1
  O  O0  1  0.25000000  0.25000000  0.25000000  1
  O  O1  1  0.59494395  0.59494395  0.21516815  1
  O  O2  1  0.59494395  0.21516815  0.59494395  1
  O  O3  1  0.21516815  0.59494395  0.59494395  1
  O  O4  1  0.59494395  0.59494395  0.59494395  1
loop_
_geom_bond_atom_site_label_1
_geom_bond_atom_site_label_2
_geom_bond_distance
_geom_bond_site_symmetry_2
Nb0 O3 1.877785 1_555
Nb0 O4 1.877785 1_555
Nb0 O1 1.877785 1_555
Nb0 O2 1.877785 1_555
Br0 Rb3 4.039397 1_554
Br0 Rb0 4.039397 1_455
Br0 Rb1 4.039397 1_545
Br0 Rb2 4.039404 1_455
Br0 Rb2 4.039404 1_545
Br0 Rb4 4.039404 1_455
Br0 Rb4 4.039404 1_554
Br0 Rb5 4.039404 1_554
Br0 Rb5 4.039404 1_545
Br0 Rb3 4.039413 1_555
Br0 Rb0 4.039413 1_555
Br0 Rb1 4.039413 1_555
O0 Rb0 2.719230 1_555
O0 Rb1 2.719230 1_555
O0 Rb3 2.719230 1_555
O0 Rb4 2.719242 1_555
O0 Rb5 2.719242 1_555
O0 Rb2 2.719242 1_555
O1 Rb2 2.785138 1_555
O1 Rb1 2.785150 1_655
O1 Rb0 2.785150 1_565
O2 Rb4 2.785138 1_555
O2 Rb3 2.785150 1_655
O2 Rb0 2.785150 1_556
O3 Rb5 2.785138 1_555
O3 Rb1 2.785150 1_556
O3 Rb3 2.785150 1_565
O4 Rb2 2.785152 1_556
O4 Rb5 2.785152 1_655
O4 Rb4 2.785153 1_565
