# generated using pymatgen
data_Ca4As7Ir8
_symmetry_space_group_name_H-M   'P 1'
_cell_length_a   4.08638844
_cell_length_b   12.97791693
_cell_length_c   13.54085527
_cell_angle_alpha   81.76102474
_cell_angle_beta   90.00000000
_cell_angle_gamma   90.00000000
_symmetry_Int_Tables_number   1
_chemical_formula_structural   Ca4As7Ir8
_chemical_formula_sum   'Ca8 As14 Ir16'
_cell_volume   710.69797650
_cell_formula_units_Z   2
loop_
 _symmetry_equiv_pos_site_id
 _symmetry_equiv_pos_as_xyz
  1  'x, y, z'
loop_
 _atom_site_type_symbol
 _atom_site_label
 _atom_site_symmetry_multiplicity
 _atom_site_fract_x
 _atom_site_fract_y
 _atom_site_fract_z
 _atom_site_occupancy
  Ca  Ca0  1  0.25000000  0.10138623  0.79775256  1
  Ca  Ca1  1  0.75000000  0.89861377  0.20224744  1
  Ca  Ca2  1  0.25000000  0.28857128  0.10535851  1
  Ca  Ca3  1  0.75000000  0.71142872  0.89464149  1
  Ca  Ca4  1  0.25000000  0.51444217  0.29033457  1
  Ca  Ca5  1  0.75000000  0.48555783  0.70966543  1
  Ca  Ca6  1  0.25000000  0.21408852  0.43290805  1
  Ca  Ca7  1  0.75000000  0.78591148  0.56709195  1
  As  As0  1  0.25000000  0.05997378  0.10094802  1
  As  As1  1  0.75000000  0.94002622  0.89905198  1
  As  As2  1  0.25000000  0.30897444  0.68909163  1
  As  As3  1  0.75000000  0.69102556  0.31090837  1
  As  As4  1  0.25000000  0.60853623  0.56576833  1
  As  As5  1  0.75000000  0.39146377  0.43423167  1
  As  As6  1  0.25000000  0.84842958  0.72014307  1
  As  As7  1  0.75000000  0.15157042  0.27985693  1
  As  As8  1  0.75000000  0.25600912  0.91975581  1
  As  As9  1  0.25000000  0.74399088  0.08024419  1
  As  As10  1  0.75000000  0.09629114  0.58499235  1
  As  As11  1  0.25000000  0.90370886  0.41500765  1
  As  As12  1  0.75000000  0.46923807  0.12828682  1
  As  As13  1  0.25000000  0.53076193  0.87171318  1
  Ir  Ir0  1  0.25000000  0.98587730  0.57266770  1
  Ir  Ir1  1  0.75000000  0.01412270  0.42733230  1
  Ir  Ir2  1  0.25000000  0.66517137  0.72922048  1
  Ir  Ir3  1  0.75000000  0.33482863  0.27077952  1
  Ir  Ir4  1  0.25000000  0.55492212  0.04811478  1
  Ir  Ir5  1  0.75000000  0.44507788  0.95188522  1
  Ir  Ir6  1  0.25000000  0.05382279  0.27990496  1
  Ir  Ir7  1  0.75000000  0.94617721  0.72009504  1
  Ir  Ir8  1  0.25000000  0.42460672  0.52754528  1
  Ir  Ir9  1  0.75000000  0.57539328  0.47245472  1
  Ir  Ir10  1  0.25000000  0.92050691  0.99815777  1
  Ir  Ir11  1  0.75000000  0.07949309  0.00184223  1
  Ir  Ir12  1  0.25000000  0.72126383  0.40050574  1
  Ir  Ir13  1  0.75000000  0.27873617  0.59949426  1
  Ir  Ir14  1  0.25000000  0.34177505  0.86046102  1
  Ir  Ir15  1  0.75000000  0.65822495  0.13953898  1
loop_
_geom_bond_atom_site_label_1
_geom_bond_atom_site_label_2
_geom_bond_distance
_geom_bond_site_symmetry_2
Ca0 Ir7 3.153542 1_545
Ca0 Ir7 3.153542 1_445
Ca0 Ir14 3.348591 1_555
Ca0 Ir0 3.584132 1_545
Ca1 Ir6 3.153542 1_665
Ca1 Ir6 3.153542 1_565
Ca1 Ir15 3.348591 1_555
Ca1 Ir1 3.584132 1_565
Ca2 Ir3 3.152422 1_455
Ca2 Ir3 3.152422 1_555
Ca2 Ir14 3.288948 1_554
Ca2 Ir5 3.377738 1_554
Ca2 Ir5 3.377738 1_454
Ca2 Ir4 3.432424 1_555
Ca3 Ir2 3.152422 1_655
Ca3 Ir2 3.152422 1_555
Ca3 Ir15 3.288948 1_556
Ca3 Ir4 3.377738 1_656
Ca3 Ir4 3.377738 1_556
Ca3 Ir5 3.432424 1_555
Ca4 Ir3 3.139310 1_455
Ca4 Ir3 3.139310 1_555
Ca4 Ir4 3.246483 1_555
Ca4 Ir12 3.252321 1_555
Ca4 Ir8 3.256249 1_555
Ca4 Ir15 3.276270 1_455
Ca4 Ir15 3.276270 1_555
Ca4 Ir9 3.382439 1_555
Ca4 Ir9 3.382439 1_455
Ca5 Ir2 3.139310 1_555
Ca5 Ir2 3.139310 1_655
Ca5 Ir5 3.246483 1_555
Ca5 Ir13 3.252321 1_555
Ca5 Ir9 3.256249 1_555
Ca5 Ir14 3.276270 1_555
Ca5 Ir14 3.276270 1_655
Ca5 Ir8 3.382439 1_655
Ca5 Ir8 3.382439 1_555
Ca6 Ir6 3.139012 1_555
Ca6 Ir8 3.179606 1_555
Ca6 Ir3 3.234759 1_555
Ca6 Ir3 3.234759 1_455
Ca6 Ir13 3.241794 1_455
Ca6 Ir13 3.241794 1_555
Ca6 Ir0 3.278221 1_545
Ca6 Ir1 3.312288 1_555
Ca6 Ir1 3.312288 1_455
Ca7 Ir7 3.139012 1_555
Ca7 Ir9 3.179606 1_555
Ca7 Ir2 3.234759 1_555
Ca7 Ir2 3.234759 1_655
Ca7 Ir12 3.241794 1_555
Ca7 Ir12 3.241794 1_655
Ca7 Ir1 3.278221 1_565
Ca7 Ir0 3.312288 1_655
Ca7 Ir0 3.312288 1_555
As0 Ir6 2.413084 1_555
As0 Ir10 2.436266 1_544
As0 Ir11 2.437680 1_555
As0 Ir11 2.437680 1_455
As0 Ca2 2.975865 1_555
As0 Ca1 3.101325 1_545
As0 Ca1 3.101325 1_445
As1 Ir7 2.413084 1_555
As1 Ir11 2.436266 1_566
As1 Ir10 2.437680 1_655
As1 Ir10 2.437680 1_555
As1 Ca3 2.975865 1_555
As1 Ca0 3.101325 1_565
As1 Ca0 3.101325 1_665
As2 Ir14 2.418466 1_555
As2 Ir13 2.436599 1_555
As2 Ir13 2.436599 1_455
As2 Ir8 2.469053 1_555
As2 Ca0 2.878680 1_555
As2 Ca5 3.112402 1_455
As2 Ca5 3.112402 1_555
As3 Ir15 2.418466 1_555
As3 Ir12 2.436599 1_555
As3 Ir12 2.436599 1_655
As3 Ir9 2.469053 1_555
As3 Ca1 2.878680 1_555
As3 Ca4 3.112402 1_655
As3 Ca4 3.112402 1_555
As4 Ir2 2.430039 1_555
As4 Ir9 2.472239 1_555
As4 Ir9 2.472239 1_455
As4 Ir12 2.491931 1_555
As4 Ir8 2.513930 1_555
As4 Ca7 3.079905 1_455
As4 Ca7 3.079905 1_555
As4 Ca5 3.102773 1_455
As4 Ca5 3.102773 1_555
As5 Ir3 2.430039 1_555
As5 Ir8 2.472239 1_655
As5 Ir8 2.472239 1_555
As5 Ir13 2.491931 1_555
As5 Ir9 2.513930 1_555
As5 Ca6 3.079905 1_555
As5 Ca6 3.079905 1_655
As5 Ca4 3.102773 1_655
As5 Ca4 3.102773 1_555
As6 Ir2 2.363828 1_555
As6 Ir7 2.404923 1_455
As6 Ir7 2.404923 1_555
As6 Ir0 2.479668 1_555
As6 Ca7 3.099981 1_455
As6 Ca7 3.099981 1_555
As6 Ca3 3.422705 1_455
As6 Ca3 3.422705 1_555
As7 Ir3 2.363828 1_555
As7 Ir6 2.404923 1_655
As7 Ir6 2.404923 1_555
As7 Ir1 2.479668 1_555
As7 Ca6 3.099981 1_555
As7 Ca6 3.099981 1_655
As7 Ca2 3.422705 1_555
As7 Ca2 3.422705 1_655
As8 Ir11 2.398648 1_556
As8 Ir14 2.408749 1_555
As8 Ir14 2.408749 1_655
As8 Ir5 2.552639 1_555
As8 Ca2 3.312686 1_556
As8 Ca2 3.312686 1_656
As8 Ca0 3.446845 1_555
As8 Ca0 3.446845 1_655
As9 Ir10 2.398648 1_554
As9 Ir15 2.408749 1_555
As9 Ir15 2.408749 1_455
As9 Ir4 2.552639 1_555
As9 Ca3 3.312686 1_554
As9 Ca3 3.312686 1_454
As9 Ca1 3.446845 1_555
As9 Ca1 3.446845 1_455
As10 Ir13 2.403765 1_555
As10 Ir7 2.473989 1_545
As10 Ir0 2.514827 1_645
As10 Ir0 2.514827 1_545
As10 Ir1 2.519369 1_555
As10 Ca6 3.138533 1_555
As10 Ca6 3.138533 1_655
As10 Ca0 3.540271 1_655
As10 Ca0 3.540271 1_555
As11 Ir12 2.403765 1_555
As11 Ir6 2.473989 1_565
As11 Ir1 2.514827 1_565
As11 Ir1 2.514827 1_465
As11 Ir0 2.519369 1_555
As11 Ca7 3.138533 1_455
As11 Ca7 3.138533 1_555
As11 Ca1 3.540271 1_455
As11 Ca1 3.540271 1_555
As12 Ir3 2.408530 1_555
As12 Ir5 2.453266 1_554
As12 Ir15 2.479080 1_555
As12 Ir4 2.498745 1_655
As12 Ir4 2.498745 1_555
As12 Ca4 3.114891 1_655
As12 Ca4 3.114891 1_555
As12 Ca2 3.158668 1_555
As12 Ca2 3.158668 1_655
As13 Ir2 2.408530 1_555
As13 Ir4 2.453266 1_556
As13 Ir14 2.479080 1_555
As13 Ir5 2.498745 1_555
As13 Ir5 2.498745 1_455
As13 Ca5 3.114891 1_555
As13 Ca5 3.114891 1_455
As13 Ca3 3.158668 1_455
As13 Ca3 3.158668 1_555
Ir0 Ir1 2.824031 1_465
Ir0 Ir1 2.824031 1_565
Ir0 Ir7 2.851403 1_555
Ir0 Ir7 2.851403 1_455
Ir1 Ir6 2.851403 1_655
Ir1 Ir6 2.851403 1_555
Ir4 Ir5 2.904669 1_454
Ir4 Ir5 2.904669 1_554
Ir8 Ir9 2.853450 1_555
Ir8 Ir9 2.853450 1_455
Ir12 Ir9 2.859899 1_555
Ir12 Ir9 2.859899 1_455
Ir13 Ir8 2.859899 1_555
Ir13 Ir8 2.859899 1_655
Ir14 Ir5 2.824929 1_555
Ir14 Ir5 2.824929 1_455
Ir15 Ir4 2.824929 1_555
Ir15 Ir4 2.824929 1_655
