# generated using pymatgen
data_Ti10ZnSb5
_symmetry_space_group_name_H-M   'P 1'
_cell_length_a   5.27101217
_cell_length_b   7.86371840
_cell_length_c   7.86371965
_cell_angle_alpha   96.44929281
_cell_angle_beta   109.58151575
_cell_angle_gamma   70.41849323
_symmetry_Int_Tables_number   1
_chemical_formula_structural   Ti10ZnSb5
_chemical_formula_sum   'Ti10 Zn1 Sb5'
_cell_volume   289.33736852
_cell_formula_units_Z   1
loop_
 _symmetry_equiv_pos_site_id
 _symmetry_equiv_pos_as_xyz
  1  'x, y, z'
loop_
 _atom_site_type_symbol
 _atom_site_label
 _atom_site_symmetry_multiplicity
 _atom_site_fract_x
 _atom_site_fract_y
 _atom_site_fract_z
 _atom_site_occupancy
  Ti  Ti0  1  0.43163132  0.85318294  0.70140374  1
  Ti  Ti1  1  0.58341051  0.14681706  0.29859626  1
  Ti  Ti2  1  0.91658949  0.29859626  0.14681706  1
  Ti  Ti3  1  0.06836868  0.70140374  0.85318294  1
  Ti  Ti4  1  0.73022757  0.70140374  0.14681706  1
  Ti  Ti5  1  0.28481325  0.29859626  0.85318294  1
  Ti  Ti6  1  0.76977243  0.14681706  0.70140374  1
  Ti  Ti7  1  0.21518675  0.85318294  0.29859626  1
  Ti  Ti8  1  0.25000000  0.50000000  0.50000000  1
  Ti  Ti9  1  0.75000000  0.50000000  0.50000000  1
  Zn  Zn0  1  0.75000000  0.00000000  0.00000000  1
  Sb  Sb0  1  0.33632702  0.50000000  0.17265405  1
  Sb  Sb1  1  0.66367298  0.50000000  0.82734595  1
  Sb  Sb2  1  0.83632702  0.82734595  0.50000000  1
  Sb  Sb3  1  0.16367298  0.17265405  0.50000000  1
  Sb  Sb4  1  0.25000000  0.00000000  0.00000000  1
loop_
_geom_bond_atom_site_label_1
_geom_bond_atom_site_label_2
_geom_bond_distance
_geom_bond_site_symmetry_2
Ti0 Zn0 2.776860 1_566
Ti1 Zn0 2.776860 1_555
Ti2 Zn0 2.776860 1_555
Ti3 Zn0 2.776860 1_466
Ti4 Zn0 2.776860 1_565
Ti5 Zn0 2.776863 1_556
Ti6 Zn0 2.776860 1_556
Ti7 Zn0 2.776863 1_465
Ti8 Ti9 2.635506 1_455
Ti8 Ti9 2.635506 1_555
Sb0 Ti9 2.760157 1_555
Sb0 Ti8 2.760157 1_555
Sb0 Ti7 2.778379 1_555
Sb0 Ti1 2.778379 1_555
Sb0 Ti3 2.798318 1_554
Sb0 Ti5 2.798318 1_554
Sb0 Ti4 3.000294 1_455
Sb0 Ti2 3.000295 1_555
Sb0 Ti2 3.069150 1_455
Sb0 Ti4 3.069150 1_555
Sb1 Ti8 2.760157 1_555
Sb1 Ti9 2.760157 1_555
Sb1 Ti0 2.778379 1_555
Sb1 Ti6 2.778379 1_555
Sb1 Ti2 2.798318 1_556
Sb1 Ti4 2.798318 1_556
Sb1 Ti3 3.000294 1_655
Sb1 Ti5 3.000299 1_555
Sb1 Ti5 3.069146 1_655
Sb1 Ti3 3.069150 1_555
Sb2 Ti9 2.760157 1_555
Sb2 Ti8 2.760157 1_655
Sb2 Ti3 2.778379 1_655
Sb2 Ti4 2.778380 1_555
Sb2 Ti1 2.798318 1_565
Sb2 Ti6 2.798318 1_565
Sb2 Ti0 3.000295 1_555
Sb2 Ti7 3.000299 1_655
Sb2 Ti7 3.069145 1_555
Sb2 Ti0 3.069150 1_655
Sb3 Ti8 2.760157 1_555
Sb3 Ti9 2.760157 1_455
Sb3 Ti5 2.778379 1_555
Sb3 Ti2 2.778379 1_455
Sb3 Ti0 2.798318 1_545
Sb3 Ti7 2.798318 1_545
Sb3 Ti1 3.000294 1_455
Sb3 Ti6 3.000294 1_555
Sb3 Ti6 3.069150 1_455
Sb3 Ti1 3.069150 1_555
Sb4 Zn0 2.635506 1_555
Sb4 Zn0 2.635506 1_455
Sb4 Ti5 2.814231 1_554
Sb4 Ti7 2.814231 1_545
Sb4 Ti3 2.814233 1_544
Sb4 Ti4 2.814233 1_545
Sb4 Ti1 2.814233 1_555
Sb4 Ti6 2.814233 1_454
Sb4 Ti2 2.814234 1_455
Sb4 Ti0 2.814234 1_544
