# generated using pymatgen
data_Sc4Co(AsRu)6
_symmetry_space_group_name_H-M   'P 1'
_cell_length_a   6.99858847
_cell_length_b   6.99858394
_cell_length_c   6.99858856
_cell_angle_alpha   109.26995747
_cell_angle_beta   109.87455552
_cell_angle_gamma   109.26994788
_symmetry_Int_Tables_number   1
_chemical_formula_structural   Sc4Co(AsRu)6
_chemical_formula_sum   'Sc4 Co1 As6 Ru6'
_cell_volume   263.87169857
_cell_formula_units_Z   1
loop_
 _symmetry_equiv_pos_site_id
 _symmetry_equiv_pos_as_xyz
  1  'x, y, z'
loop_
 _atom_site_type_symbol
 _atom_site_label
 _atom_site_symmetry_multiplicity
 _atom_site_fract_x
 _atom_site_fract_y
 _atom_site_fract_z
 _atom_site_occupancy
  Sc  Sc0  1  0.00212929  0.00424495  0.50212115  1
  Sc  Sc1  1  0.49787885  0.99575505  0.99787071  1
  Sc  Sc2  1  0.00211972  0.50000000  0.99788028  1
  Sc  Sc3  1  0.49787388  0.50000000  0.50212612  1
  Co  Co0  1  0.74999770  0.50000000  0.25000230  1
  As  As0  1  0.31250689  0.00000042  0.31249521  1
  As  As1  1  0.99718665  0.31327684  0.31047014  1
  As  As2  1  0.99718823  0.68672095  0.68391487  1
  As  As3  1  0.31608513  0.31327905  0.00281177  1
  As  As4  1  0.68952986  0.68672316  0.00281335  1
  As  As5  1  0.68750479  0.99999958  0.68749311  1
  Ru  Ru0  1  0.50265982  0.74917568  0.25183574  1
  Ru  Ru1  1  0.50265929  0.25082304  0.75348381  1
  Ru  Ru2  1  0.74816426  0.25082432  0.49734018  1
  Ru  Ru3  1  0.24651619  0.74917696  0.49734071  1
  Ru  Ru4  1  0.24999927  0.50000000  0.75000073  1
  Ru  Ru5  1  0.99999920  0.00000000  0.00000080  1
loop_
_geom_bond_atom_site_label_1
_geom_bond_atom_site_label_2
_geom_bond_distance
_geom_bond_site_symmetry_2
Co0 Ru0 2.833808 1_555
Co0 Ru2 2.833808 1_555
Co0 Ru1 2.833835 1_554
Co0 Ru3 2.833836 1_655
Co0 Sc2 2.888567 1_654
Co0 Sc1 2.888569 1_544
Co0 Sc0 2.888569 1_665
Co0 Sc3 2.888588 1_555
As0 Ru5 2.512819 1_455
As0 Ru2 2.517524 1_555
As0 Ru3 2.517601 1_545
As0 Ru0 2.543016 1_545
As0 Ru1 2.543087 1_555
As0 Sc1 2.908097 1_544
As0 Sc3 2.908109 1_555
As0 Sc2 2.908112 1_544
As0 Sc0 2.908130 1_555
As1 Co0 2.497804 1_555
As1 Ru2 2.522513 1_555
As1 Ru3 2.522559 1_655
As1 Ru4 2.533905 1_655
As1 Ru5 2.538081 1_555
As1 Sc1 2.898845 1_544
As1 Sc2 2.898867 1_654
As1 Sc0 2.900076 1_655
As1 Sc3 2.900089 1_655
As2 Co0 2.497807 1_555
As2 Ru2 2.522532 1_555
As2 Ru3 2.522571 1_655
As2 Ru4 2.533910 1_655
As2 Ru5 2.538061 1_566
As2 Sc3 2.898877 1_555
As2 Sc0 2.898885 1_665
As2 Sc2 2.900088 1_655
As2 Sc1 2.900101 1_655
As3 Co0 2.497807 1_555
As3 Ru0 2.522532 1_555
As3 Ru1 2.522571 1_554
As3 Ru4 2.533910 1_554
As3 Ru5 2.538062 1_455
As3 Sc3 2.898877 1_555
As3 Sc1 2.898885 1_544
As3 Sc2 2.900088 1_554
As3 Sc0 2.900101 1_554
As4 Co0 2.497804 1_555
As4 Ru0 2.522513 1_555
As4 Ru1 2.522559 1_554
As4 Ru4 2.533905 1_554
As4 Ru5 2.538081 1_565
As4 Sc0 2.898845 1_665
As4 Sc2 2.898866 1_654
As4 Sc1 2.900075 1_554
As4 Sc3 2.900089 1_554
As5 Ru5 2.512819 1_566
As5 Ru0 2.517524 1_555
As5 Ru1 2.517601 1_565
As5 Ru2 2.543017 1_565
As5 Ru3 2.543087 1_555
As5 Sc0 2.908097 1_665
As5 Sc3 2.908109 1_555
As5 Sc2 2.908112 1_665
As5 Sc1 2.908130 1_555
Ru0 Sc3 2.850996 1_555
Ru0 Sc0 2.851014 1_665
Ru0 Sc2 2.856635 1_554
Ru0 Sc1 2.856661 1_554
Ru0 Ru4 2.864000 1_554
Ru0 Ru2 2.874014 1_565
Ru0 Ru3 2.874018 1_555
Ru1 Sc1 2.850932 1_545
Ru1 Sc2 2.850962 1_655
Ru1 Sc0 2.856578 1_555
Ru1 Sc3 2.856605 1_555
Ru1 Ru4 2.864012 1_555
Ru1 Ru3 2.874000 1_545
Ru1 Ru2 2.874018 1_555
Ru2 Sc3 2.850996 1_555
Ru2 Sc1 2.851014 1_544
Ru2 Sc2 2.856635 1_655
Ru2 Sc0 2.856661 1_655
Ru2 Ru4 2.864001 1_655
Ru3 Sc0 2.850931 1_565
Ru3 Sc2 2.850962 1_554
Ru3 Sc1 2.856578 1_555
Ru3 Sc3 2.856605 1_555
Ru3 Ru4 2.864012 1_555
Ru4 Sc3 2.839905 1_555
Ru4 Sc0 2.839934 1_555
Ru4 Sc1 2.839934 1_555
Ru4 Sc2 2.839961 1_555
