# generated using pymatgen
data_Hf5AlSn3
_symmetry_space_group_name_H-M   'P 1'
_cell_length_a   8.60726557
_cell_length_b   8.60726624
_cell_length_c   5.80345418
_cell_angle_alpha   90.00000000
_cell_angle_beta   90.00000000
_cell_angle_gamma   120.00000115
_symmetry_Int_Tables_number   1
_chemical_formula_structural   Hf5AlSn3
_chemical_formula_sum   'Hf10 Al2 Sn6'
_cell_volume   372.34680058
_cell_formula_units_Z   2
loop_
 _symmetry_equiv_pos_site_id
 _symmetry_equiv_pos_as_xyz
  1  'x, y, z'
loop_
 _atom_site_type_symbol
 _atom_site_label
 _atom_site_symmetry_multiplicity
 _atom_site_fract_x
 _atom_site_fract_y
 _atom_site_fract_z
 _atom_site_occupancy
  Hf  Hf0  1  0.33333300  0.66666700  0.00000000  1
  Hf  Hf1  1  0.66666700  0.33333300  0.50000000  1
  Hf  Hf2  1  0.66666700  0.33333300  0.00000000  1
  Hf  Hf3  1  0.33333300  0.66666700  0.50000000  1
  Hf  Hf4  1  0.26971995  1.00000000  0.25000000  1
  Hf  Hf5  1  0.26971995  0.26971995  0.75000000  1
  Hf  Hf6  1  1.00000000  0.73028005  0.75000000  1
  Hf  Hf7  1  0.00000000  0.26971995  0.25000000  1
  Hf  Hf8  1  0.73028005  0.73028005  0.25000000  1
  Hf  Hf9  1  0.73028005  0.00000000  0.75000000  1
  Al  Al0  1  0.00000000  0.00000000  0.00000000  1
  Al  Al1  1  0.00000000  0.00000000  0.50000000  1
  Sn  Sn0  1  0.61315002  1.00000000  0.25000000  1
  Sn  Sn1  1  0.61315002  0.61315002  0.75000000  1
  Sn  Sn2  1  1.00000000  0.38684998  0.75000000  1
  Sn  Sn3  1  0.00000000  0.61315002  0.25000000  1
  Sn  Sn4  1  0.38684998  0.38684998  0.25000000  1
  Sn  Sn5  1  0.38684998  0.00000000  0.75000000  1
loop_
_geom_bond_atom_site_label_1
_geom_bond_atom_site_label_2
_geom_bond_distance
_geom_bond_site_symmetry_2
Hf0 Hf3 2.901727 1_555
Hf0 Hf3 2.901727 1_554
Hf0 Sn3 3.037637 1_555
Hf0 Sn5 3.037638 1_564
Hf0 Sn2 3.037640 1_454
Hf0 Sn0 3.037640 1_555
Hf0 Sn1 3.037645 1_554
Hf0 Sn4 3.037645 1_555
Hf1 Hf2 2.901727 1_555
Hf1 Hf2 2.901727 1_556
Hf1 Sn2 3.037637 1_555
Hf1 Sn0 3.037638 1_545
Hf1 Sn3 3.037640 1_655
Hf1 Sn5 3.037640 1_555
Hf1 Sn4 3.037645 1_555
Hf1 Sn1 3.037645 1_555
Hf2 Sn2 3.037637 1_554
Hf2 Sn0 3.037638 1_545
Hf2 Sn3 3.037640 1_655
Hf2 Sn5 3.037640 1_554
Hf2 Sn4 3.037645 1_555
Hf2 Sn1 3.037645 1_554
Hf3 Sn3 3.037637 1_555
Hf3 Sn5 3.037638 1_565
Hf3 Sn2 3.037640 1_455
Hf3 Sn0 3.037640 1_555
Hf3 Sn1 3.037645 1_555
Hf3 Sn4 3.037645 1_555
Hf4 Sn0 2.955994 1_555
Hf4 Sn3 2.957452 1_555
Hf4 Sn4 2.957452 1_565
Hf4 Sn5 3.071877 1_565
Hf4 Sn5 3.071877 1_564
Hf5 Sn1 2.955994 1_555
Hf5 Sn2 2.957452 1_455
Hf5 Sn5 2.957452 1_555
Hf5 Sn4 3.071877 1_555
Hf5 Sn4 3.071877 1_556
Hf6 Sn2 2.955994 1_555
Hf6 Sn1 2.957452 1_555
Hf6 Sn5 2.957452 1_665
Hf6 Sn3 3.071877 1_656
Hf6 Sn3 3.071877 1_655
Hf7 Sn3 2.955994 1_555
Hf7 Sn4 2.957452 1_555
Hf7 Sn0 2.957452 1_445
Hf7 Sn2 3.071877 1_454
Hf7 Sn2 3.071877 1_455
Hf8 Sn4 2.955994 1_555
Hf8 Sn3 2.957452 1_655
Hf8 Sn0 2.957452 1_555
Hf8 Sn1 3.071877 1_555
Hf8 Sn1 3.071877 1_554
Hf9 Sn5 2.955994 1_555
Hf9 Sn2 2.957452 1_555
Hf9 Sn1 2.957452 1_545
Hf9 Sn0 3.071877 1_546
Hf9 Sn0 3.071877 1_545
Al0 Hf4 2.737628 1_545
Al0 Hf9 2.737628 1_454
Al0 Hf5 2.737628 1_554
Al0 Hf8 2.737628 1_445
Al0 Hf7 2.737628 1_555
Al0 Hf6 2.737628 1_444
Al1 Hf4 2.737628 1_545
Al1 Hf9 2.737628 1_455
Al1 Hf5 2.737628 1_555
Al1 Hf8 2.737628 1_445
Al1 Hf7 2.737628 1_555
Al1 Hf6 2.737628 1_445
