# generated using pymatgen
data_Rb3ScSe3
_symmetry_space_group_name_H-M   'P 1'
_cell_length_a   13.96918298
_cell_length_b   8.50727904
_cell_length_c   10.97475247
_cell_angle_alpha   52.69817279
_cell_angle_beta   90.00000000
_cell_angle_gamma   90.00000000
_symmetry_Int_Tables_number   1
_chemical_formula_structural   Rb3ScSe3
_chemical_formula_sum   'Rb12 Sc4 Se12'
_cell_volume   1037.46050543
_cell_formula_units_Z   4
loop_
 _symmetry_equiv_pos_site_id
 _symmetry_equiv_pos_as_xyz
  1  'x, y, z'
loop_
 _atom_site_type_symbol
 _atom_site_label
 _atom_site_symmetry_multiplicity
 _atom_site_fract_x
 _atom_site_fract_y
 _atom_site_fract_z
 _atom_site_occupancy
  Rb  Rb0  1  0.32170544  0.15536549  0.05552514  1
  Rb  Rb1  1  0.67829456  0.84463451  0.94447486  1
  Rb  Rb2  1  0.82170544  0.84463451  0.44447486  1
  Rb  Rb3  1  0.89276416  0.33281401  0.38878198  1
  Rb  Rb4  1  0.62134433  0.38533127  0.47177234  1
  Rb  Rb5  1  0.12134433  0.61466873  0.02822766  1
  Rb  Rb6  1  0.37865567  0.61466873  0.52822766  1
  Rb  Rb7  1  0.87865567  0.38533127  0.97177234  1
  Rb  Rb8  1  0.60723584  0.33281401  0.88878198  1
  Rb  Rb9  1  0.10723584  0.66718599  0.61121802  1
  Rb  Rb10  1  0.39276416  0.66718599  0.11121802  1
  Rb  Rb11  1  0.17829456  0.15536549  0.55552514  1
  Sc  Sc0  1  0.06411931  0.94263156  0.16101597  1
  Sc  Sc1  1  0.56411931  0.05736844  0.33898403  1
  Sc  Sc2  1  0.43588069  0.94263156  0.66101597  1
  Sc  Sc3  1  0.93588069  0.05736844  0.83898403  1
  Se  Se0  1  0.39606923  0.16494355  0.36898146  1
  Se  Se1  1  0.89606923  0.83505645  0.13101854  1
  Se  Se2  1  0.60393077  0.83505645  0.63101854  1
  Se  Se3  1  0.10393077  0.16494355  0.86898146  1
  Se  Se4  1  0.68797764  0.33058457  0.19424866  1
  Se  Se5  1  0.18797764  0.66941543  0.30575134  1
  Se  Se6  1  0.31202236  0.66941543  0.80575134  1
  Se  Se7  1  0.81202236  0.33058457  0.69424866  1
  Se  Se8  1  0.54693861  0.86890205  0.23047967  1
  Se  Se9  1  0.04693861  0.13109795  0.26952033  1
  Se  Se10  1  0.45306139  0.13109795  0.76952033  1
  Se  Se11  1  0.95306139  0.86890205  0.73047967  1
loop_
_geom_bond_atom_site_label_1
_geom_bond_atom_site_label_2
_geom_bond_distance
_geom_bond_site_symmetry_2
Rb0 Se6 3.482471 1_554
Rb0 Se3 3.640103 1_554
Rb0 Se0 3.641403 1_555
Rb0 Se8 3.722060 1_545
Rb0 Se10 3.747971 1_554
Rb0 Se5 3.789709 1_545
Rb1 Se4 3.482471 1_556
Rb1 Se1 3.640103 1_556
Rb1 Se2 3.641403 1_555
Rb1 Se10 3.722060 1_565
Rb1 Se8 3.747971 1_556
Rb1 Se7 3.789709 1_565
Rb2 Se7 3.482471 1_555
Rb2 Se2 3.640103 1_555
Rb2 Se1 3.641403 1_555
Rb2 Se9 3.722060 1_665
Rb2 Se11 3.747971 1_555
Rb2 Se4 3.789709 1_565
Rb3 Se1 3.407495 1_555
Rb3 Se9 3.466797 1_655
Rb3 Se11 3.522804 1_545
Rb3 Se7 3.526212 1_555
Rb3 Se4 3.576462 1_555
Rb4 Se8 3.436997 1_555
Rb4 Se7 3.448913 1_555
Rb4 Se4 3.475524 1_555
Rb4 Se10 3.509402 1_555
Rb4 Se2 3.887456 1_545
Rb5 Se9 3.436997 1_555
Rb5 Se6 3.448913 1_554
Rb5 Se5 3.475524 1_555
Rb5 Se11 3.509402 1_454
Rb5 Se3 3.887456 1_564
Rb6 Se10 3.436997 1_555
Rb6 Se5 3.448913 1_555
Rb6 Se6 3.475524 1_555
Rb6 Se8 3.509402 1_555
Rb6 Se0 3.887456 1_565
Rb7 Se11 3.436997 1_555
Rb7 Se4 3.448913 1_556
Rb7 Se7 3.475524 1_555
Rb7 Se9 3.509402 1_656
Rb7 Se1 3.887456 1_546
Rb8 Se2 3.407495 1_555
Rb8 Se10 3.466797 1_555
Rb8 Se8 3.522804 1_546
Rb8 Se4 3.526212 1_556
Rb8 Se7 3.576462 1_555
Rb9 Se3 3.407495 1_555
Rb9 Se11 3.466797 1_455
Rb9 Se9 3.522804 1_565
Rb9 Se5 3.526212 1_555
Rb9 Se6 3.576462 1_555
Rb10 Se0 3.407495 1_555
Rb10 Se8 3.466797 1_555
Rb10 Se10 3.522804 1_564
Rb10 Se6 3.526212 1_554
Rb10 Se5 3.576462 1_555
Rb11 Se5 3.482471 1_555
Rb11 Se0 3.640103 1_555
Rb11 Se3 3.641403 1_555
Rb11 Se11 3.722060 1_445
Rb11 Se9 3.747971 1_555
Rb11 Se6 3.789709 1_545
Sc0 Se9 2.521983 1_565
Sc0 Se5 2.538573 1_555
Sc0 Se3 2.609887 1_564
Sc0 Se1 2.611886 1_455
Sc1 Se8 2.521983 1_545
Sc1 Se4 2.538573 1_555
Sc1 Se2 2.609887 1_545
Sc1 Se0 2.611886 1_555
Sc2 Se10 2.521983 1_565
Sc2 Se6 2.538573 1_555
Sc2 Se0 2.609887 1_565
Sc2 Se2 2.611886 1_555
Sc3 Se11 2.521983 1_545
Sc3 Se7 2.538573 1_555
Sc3 Se1 2.609887 1_546
Sc3 Se3 2.611886 1_655
