# generated using pymatgen
data_Th6Mn23
_symmetry_space_group_name_H-M   'P 1'
_cell_length_a   8.59581206
_cell_length_b   8.59581206
_cell_length_c   8.59581206
_cell_angle_alpha   60.00000000
_cell_angle_beta   60.00000000
_cell_angle_gamma   60.00000000
_symmetry_Int_Tables_number   1
_chemical_formula_structural   Th6Mn23
_chemical_formula_sum   'Th6 Mn23'
_cell_volume   449.10277345
_cell_formula_units_Z   1
loop_
 _symmetry_equiv_pos_site_id
 _symmetry_equiv_pos_as_xyz
  1  'x, y, z'
loop_
 _atom_site_type_symbol
 _atom_site_label
 _atom_site_symmetry_multiplicity
 _atom_site_fract_x
 _atom_site_fract_y
 _atom_site_fract_z
 _atom_site_occupancy
  Th  Th0  1  0.29152400  0.29152400  0.70847600  1
  Th  Th1  1  0.29152400  0.70847600  0.70847600  1
  Th  Th2  1  0.70847600  0.29152400  0.29152400  1
  Th  Th3  1  0.29152400  0.70847600  0.29152400  1
  Th  Th4  1  0.70847600  0.29152400  0.70847600  1
  Th  Th5  1  0.70847600  0.70847600  0.29152400  1
  Mn  Mn0  1  0.00000000  0.00000000  0.00000000  1
  Mn  Mn1  1  0.50000000  0.50000000  0.00000000  1
  Mn  Mn2  1  0.00000000  0.50000000  0.50000000  1
  Mn  Mn3  1  0.50000000  0.00000000  0.00000000  1
  Mn  Mn4  1  0.00000000  0.00000000  0.50000000  1
  Mn  Mn5  1  0.00000000  0.50000000  0.00000000  1
  Mn  Mn6  1  0.50000000  0.00000000  0.50000000  1
  Mn  Mn7  1  0.88238100  0.35285600  0.88238100  1
  Mn  Mn8  1  0.11761900  0.11761900  0.64714400  1
  Mn  Mn9  1  0.64714400  0.11761900  0.11761900  1
  Mn  Mn10  1  0.11761900  0.11761900  0.11761900  1
  Mn  Mn11  1  0.35285600  0.88238100  0.88238100  1
  Mn  Mn12  1  0.88238100  0.88238100  0.88238100  1
  Mn  Mn13  1  0.88238100  0.88238100  0.35285600  1
  Mn  Mn14  1  0.11761900  0.64714400  0.11761900  1
  Mn  Mn15  1  0.68058000  0.95826000  0.68058000  1
  Mn  Mn16  1  0.31942000  0.31942000  0.04174000  1
  Mn  Mn17  1  0.04174000  0.31942000  0.31942000  1
  Mn  Mn18  1  0.31942000  0.31942000  0.31942000  1
  Mn  Mn19  1  0.95826000  0.68058000  0.68058000  1
  Mn  Mn20  1  0.68058000  0.68058000  0.68058000  1
  Mn  Mn21  1  0.68058000  0.68058000  0.95826000  1
  Mn  Mn22  1  0.31942000  0.04174000  0.31942000  1
loop_
_geom_bond_atom_site_label_1
_geom_bond_atom_site_label_2
_geom_bond_distance
_geom_bond_site_symmetry_2
Mn0 Mn7 2.476503 1_454
Mn0 Mn11 2.476503 1_544
Mn0 Mn13 2.476503 1_445
Mn0 Mn8 2.476503 1_554
Mn0 Mn9 2.476503 1_455
Mn0 Mn14 2.476503 1_545
Mn0 Mn10 2.476510 1_555
Mn0 Mn12 2.476510 1_444
Mn1 Mn16 2.498630 1_555
Mn1 Mn18 2.498630 1_555
Mn1 Mn20 2.498630 1_554
Mn1 Mn21 2.498630 1_554
Mn1 Mn9 2.687720 1_555
Mn1 Mn14 2.687720 1_555
Mn1 Mn7 2.687720 1_554
Mn1 Mn11 2.687720 1_554
Mn1 Th4 3.080714 1_554
Mn1 Th3 3.080714 1_555
Mn1 Th1 3.080714 1_554
Mn1 Th2 3.080714 1_555
Mn2 Mn20 2.498630 1_455
Mn2 Mn8 2.687720 1_555
Mn2 Mn7 2.687720 1_455
Mn2 Th5 3.080714 1_455
Mn2 Th0 3.080714 1_555
Mn2 Th4 3.080714 1_455
Mn2 Th3 3.080714 1_555
Mn3 Mn9 2.687726 1_555
Mn3 Th0 3.080714 1_554
Mn3 Th5 3.080714 1_545
Mn3 Th3 3.080714 1_545
Mn3 Th4 3.080714 1_554
Mn4 Mn8 2.687726 1_555
Mn4 Th4 3.080714 1_455
Mn4 Th3 3.080714 1_545
Mn4 Th2 3.080714 1_455
Mn4 Th1 3.080714 1_545
Mn5 Mn7 2.687726 1_454
Mn5 Th0 3.080714 1_554
Mn5 Th5 3.080714 1_455
Mn5 Th1 3.080714 1_554
Mn5 Th2 3.080714 1_455
Mn6 Mn9 2.687720 1_555
Mn6 Mn8 2.687720 1_555
Mn6 Th5 3.080714 1_545
Mn6 Th0 3.080714 1_555
Mn6 Th1 3.080714 1_545
Mn6 Th2 3.080714 1_555
Mn7 Mn9 2.859615 1_556
Mn7 Mn8 2.859615 1_655
Mn7 Th4 2.925385 1_555
Mn7 Th2 2.925393 1_556
Mn7 Th0 2.925393 1_655
Mn8 Th0 2.925385 1_555
Mn8 Th1 2.925393 1_545
Mn8 Th4 2.925393 1_455
Mn9 Th2 2.925385 1_555
Mn9 Th4 2.925393 1_554
Mn9 Th5 2.925393 1_545
Mn10 Mn17 2.681337 1_555
Mn10 Mn22 2.681337 1_555
Mn10 Mn16 2.681337 1_555
Mn10 Mn5 2.687719 1_555
Mn10 Mn3 2.687719 1_555
Mn10 Mn4 2.687719 1_555
Mn10 Mn11 2.859627 1_544
Mn10 Mn7 2.859627 1_454
Mn10 Mn13 2.859627 1_445
Mn10 Th2 2.925391 1_455
Mn10 Th0 2.925391 1_554
Mn10 Th3 2.925391 1_545
Mn11 Mn20 2.681341 1_555
Mn11 Mn15 2.681345 1_555
Mn11 Mn21 2.681345 1_555
Mn11 Mn6 2.687720 1_565
Mn11 Mn3 2.687726 1_566
Mn11 Mn14 2.859615 1_556
Mn11 Mn8 2.859615 1_565
Mn11 Th1 2.925385 1_555
Mn11 Th3 2.925393 1_556
Mn11 Th0 2.925393 1_565
Mn12 Mn19 2.681337 1_555
Mn12 Mn21 2.681337 1_555
Mn12 Mn15 2.681337 1_555
Mn12 Mn3 2.687719 1_566
Mn12 Mn4 2.687719 1_665
Mn12 Mn5 2.687719 1_656
Mn12 Mn8 2.859627 1_665
Mn12 Mn14 2.859627 1_656
Mn12 Mn9 2.859627 1_566
Mn12 Th4 2.925391 1_565
Mn12 Th1 2.925391 1_655
Mn12 Th5 2.925391 1_556
Mn13 Mn20 2.681341 1_555
Mn13 Mn15 2.681345 1_555
Mn13 Mn19 2.681345 1_555
Mn13 Mn6 2.687720 1_565
Mn13 Mn2 2.687720 1_655
Mn13 Mn4 2.687726 1_665
Mn13 Mn14 2.859615 1_655
Mn13 Mn9 2.859615 1_565
Mn13 Th5 2.925385 1_555
Mn13 Th3 2.925393 1_655
Mn13 Th2 2.925393 1_565
Mn14 Mn18 2.681341 1_555
Mn14 Mn16 2.681345 1_555
Mn14 Mn17 2.681345 1_555
Mn14 Mn2 2.687720 1_555
Mn14 Mn5 2.687726 1_555
Mn14 Th3 2.925385 1_555
Mn14 Th1 2.925393 1_554
Mn14 Th5 2.925393 1_455
Mn15 Mn21 2.386885 1_555
Mn15 Mn19 2.386885 1_555
Mn15 Mn20 2.386885 1_555
Mn15 Mn3 2.498630 1_566
Mn15 Mn4 2.498630 1_665
Mn15 Mn6 2.498630 1_565
Mn15 Th4 3.122930 1_565
Mn15 Th0 3.122930 1_565
Mn15 Th2 3.122930 1_565
Mn16 Mn22 2.386885 1_555
Mn16 Mn17 2.386885 1_555
Mn16 Mn18 2.386885 1_555
Mn16 Mn3 2.498630 1_555
Mn16 Mn5 2.498630 1_555
Mn16 Mn9 2.681345 1_555
Mn16 Th4 3.122930 1_554
Mn16 Th1 3.122930 1_554
Mn16 Th0 3.122930 1_554
Mn17 Mn22 2.386885 1_555
Mn17 Mn18 2.386885 1_555
Mn17 Mn4 2.498630 1_555
Mn17 Mn2 2.498630 1_555
Mn17 Mn5 2.498630 1_555
Mn17 Mn8 2.681345 1_555
Mn17 Th4 3.122930 1_455
Mn17 Th5 3.122930 1_455
Mn17 Th2 3.122930 1_455
Mn18 Mn22 2.386885 1_555
Mn18 Mn6 2.498630 1_555
Mn18 Mn2 2.498630 1_555
Mn18 Mn8 2.681341 1_555
Mn18 Mn9 2.681341 1_555
Mn18 Th0 3.122930 1_555
Mn18 Th3 3.122930 1_555
Mn18 Th2 3.122930 1_555
Mn19 Mn21 2.386885 1_555
Mn19 Mn20 2.386885 1_555
Mn19 Mn4 2.498630 1_665
Mn19 Mn5 2.498630 1_656
Mn19 Mn2 2.498630 1_655
Mn19 Mn7 2.681345 1_555
Mn19 Th1 3.122930 1_655
Mn19 Th3 3.122930 1_655
Mn19 Th0 3.122930 1_655
Mn20 Mn21 2.386885 1_555
Mn20 Mn6 2.498630 1_565
Mn20 Mn7 2.681341 1_555
Mn20 Th4 3.122930 1_555
Mn20 Th1 3.122930 1_555
Mn20 Th5 3.122930 1_555
Mn21 Mn3 2.498630 1_566
Mn21 Mn5 2.498630 1_656
Mn21 Mn7 2.681345 1_555
Mn21 Th5 3.122930 1_556
Mn21 Th3 3.122930 1_556
Mn21 Th2 3.122930 1_556
Mn22 Mn6 2.498630 1_555
Mn22 Mn4 2.498630 1_555
Mn22 Mn3 2.498630 1_555
Mn22 Mn8 2.681345 1_555
Mn22 Mn9 2.681345 1_555
Mn22 Th1 3.122930 1_545
Mn22 Th5 3.122930 1_545
Mn22 Th3 3.122930 1_545
