# generated using pymatgen
data_NiAg3(NO3)8
_symmetry_space_group_name_H-M   'P 1'
_cell_length_a   7.68379475
_cell_length_b   7.68379483
_cell_length_c   7.68379496
_cell_angle_alpha   88.70141161
_cell_angle_beta   91.29858130
_cell_angle_gamma   91.29858307
_symmetry_Int_Tables_number   1
_chemical_formula_structural   NiAg3(NO3)8
_chemical_formula_sum   'Ni1 Ag3 N8 O24'
_cell_volume   453.31230739
_cell_formula_units_Z   1
loop_
 _symmetry_equiv_pos_site_id
 _symmetry_equiv_pos_as_xyz
  1  'x, y, z'
loop_
 _atom_site_type_symbol
 _atom_site_label
 _atom_site_symmetry_multiplicity
 _atom_site_fract_x
 _atom_site_fract_y
 _atom_site_fract_z
 _atom_site_occupancy
  Ni  Ni0  1  0.00000000  0.00000000  0.50000000  1
  Ag  Ag0  1  0.50000000  0.50000000  0.50000000  1
  Ag  Ag1  1  0.50000000  0.00000000  0.00000000  1
  Ag  Ag2  1  0.00000000  0.50000000  0.00000000  1
  N  N0  1  0.68267485  0.13624727  0.30797798  1
  N  N1  1  0.67751501  0.32248499  0.82248499  1
  N  N2  1  0.86375273  0.80797798  0.81732515  1
  N  N3  1  0.80797798  0.68267485  0.36375273  1
  N  N4  1  0.13624727  0.19202202  0.18267485  1
  N  N5  1  0.19202202  0.31732515  0.63624727  1
  N  N6  1  0.32248499  0.67751501  0.17751501  1
  N  N7  1  0.31732515  0.86375273  0.69202202  1
  O  O0  1  0.55285008  0.21510940  0.80586335  1
  O  O1  1  0.56194949  0.23814446  0.28626929  1
  O  O2  1  0.69413665  0.44714992  0.71510940  1
  O  O3  1  0.71099225  0.02206448  0.19356204  1
  O  O4  1  0.69356204  0.71099225  0.47793552  1
  O  O5  1  0.76185554  0.78626929  0.93805051  1
  O  O6  1  0.78489060  0.30586335  0.94714992  1
  O  O7  1  0.78054331  0.14063097  0.44171493  1
  O  O8  1  0.85936903  0.94171493  0.71945669  1
  O  O9  1  0.78626929  0.56194949  0.26185554  1
  O  O10  1  0.97793552  0.69356204  0.78900775  1
  O  O11  1  0.94171493  0.78054331  0.35936903  1
  O  O12  1  0.05828507  0.21945669  0.64063097  1
  O  O13  1  0.02206448  0.30643796  0.21099225  1
  O  O14  1  0.21373071  0.43805051  0.73814446  1
  O  O15  1  0.14063097  0.05828507  0.28054331  1
  O  O16  1  0.21510940  0.69413665  0.05285008  1
  O  O17  1  0.21945669  0.85936903  0.55828507  1
  O  O18  1  0.23814446  0.21373071  0.06194949  1
  O  O19  1  0.30643796  0.28900775  0.52206448  1
  O  O20  1  0.30586335  0.55285008  0.28489060  1
  O  O21  1  0.28900775  0.97793552  0.80643796  1
  O  O22  1  0.43805051  0.76185554  0.71373071  1
  O  O23  1  0.44714992  0.78489060  0.19413665  1
loop_
_geom_bond_atom_site_label_1
_geom_bond_atom_site_label_2
_geom_bond_distance
_geom_bond_site_symmetry_2
Ni0 O8 2.058670 1_445
Ni0 O15 2.058670 1_555
Ni0 O17 2.058670 1_545
Ni0 O7 2.058670 1_455
Ni0 O12 2.058670 1_555
Ni0 O11 2.058670 1_445
Ag0 O4 2.181471 1_555
Ag0 O19 2.181471 1_555
Ag0 O2 2.237702 1_555
Ag0 O20 2.237702 1_555
Ag0 O22 2.683383 1_555
Ag0 O1 2.683383 1_555
Ag1 O3 2.181471 1_555
Ag1 O21 2.181471 1_544
Ag1 O0 2.237702 1_554
Ag1 O23 2.237702 1_545
Ag1 O18 2.683383 1_555
Ag1 O5 2.683383 1_544
Ag2 O13 2.181471 1_555
Ag2 O10 2.181471 1_454
Ag2 O16 2.237702 1_555
Ag2 O6 2.237702 1_454
Ag2 O14 2.683383 1_554
Ag2 O9 2.683383 1_455
N0 O1 1.233421 1_555
N0 O7 1.260164 1_555
N0 O3 1.281517 1_555
N1 O2 1.256186 1_555
N1 O0 1.256186 1_555
N1 O6 1.256186 1_555
N2 O5 1.233421 1_555
N2 O8 1.260163 1_555
N2 O10 1.281517 1_555
N3 O9 1.233421 1_555
N3 O11 1.260164 1_555
N3 O4 1.281517 1_555
N4 O18 1.233421 1_555
N4 O15 1.260163 1_555
N4 O13 1.281517 1_555
N5 O14 1.233421 1_555
N5 O12 1.260164 1_555
N5 O19 1.281517 1_555
N6 O20 1.256186 1_555
N6 O23 1.256186 1_555
N6 O16 1.256186 1_555
N7 O22 1.233421 1_555
N7 O17 1.260164 1_555
N7 O21 1.281517 1_555
