# generated using pymatgen
data_KLi5(TcH9)3
_symmetry_space_group_name_H-M   'P 1'
_cell_length_a   8.20289806
_cell_length_b   8.20289706
_cell_length_c   5.08459792
_cell_angle_alpha   90.00000000
_cell_angle_beta   90.00000000
_cell_angle_gamma   116.37803997
_symmetry_Int_Tables_number   1
_chemical_formula_structural   KLi5(TcH9)3
_chemical_formula_sum   'K1 Li5 Tc3 H27'
_cell_volume   306.50817082
_cell_formula_units_Z   1
loop_
 _symmetry_equiv_pos_site_id
 _symmetry_equiv_pos_as_xyz
  1  'x, y, z'
loop_
 _atom_site_type_symbol
 _atom_site_label
 _atom_site_symmetry_multiplicity
 _atom_site_fract_x
 _atom_site_fract_y
 _atom_site_fract_z
 _atom_site_occupancy
  K  K0  1  0.37539352  0.37539352  0.00000000  1
  Li  Li0  1  0.30198592  0.00773262  0.50000000  1
  Li  Li1  1  0.00773262  0.30198592  0.50000000  1
  Li  Li2  1  0.72758098  0.72758098  0.50000000  1
  Li  Li3  1  0.71864133  0.14217947  0.00000000  1
  Li  Li4  1  0.14217947  0.71864133  0.00000000  1
  Tc  Tc0  1  0.97420256  0.97420256  0.00000000  1
  Tc  Tc1  1  0.31940227  0.67212537  0.50000000  1
  Tc  Tc2  1  0.67212537  0.31940227  0.50000000  1
  H  H0  1  0.82129976  0.97800239  0.21606768  1
  H  H1  1  0.97800239  0.82129976  0.21606768  1
  H  H2  1  0.82129976  0.97800239  0.78393232  1
  H  H3  1  0.97800239  0.82129976  0.78393232  1
  H  H4  1  0.08782197  0.08782197  0.26726024  1
  H  H5  1  0.08782197  0.08782197  0.73273976  1
  H  H6  1  0.18779448  0.99614553  0.00000000  1
  H  H7  1  0.99614553  0.18779448  0.00000000  1
  H  H8  1  0.78599399  0.78599399  0.00000000  1
  H  H9  1  0.17376346  0.54304395  0.26235575  1
  H  H10  1  0.46173130  0.66270286  0.27448831  1
  H  H11  1  0.17376346  0.54304395  0.73764425  1
  H  H12  1  0.54304395  0.17376346  0.73764425  1
  H  H13  1  0.34569834  0.82632408  0.26711132  1
  H  H14  1  0.46173130  0.66270286  0.72551169  1
  H  H15  1  0.66270286  0.46173130  0.72551169  1
  H  H16  1  0.54304395  0.17376346  0.26235575  1
  H  H17  1  0.34569834  0.82632408  0.73288868  1
  H  H18  1  0.66270286  0.46173130  0.27448831  1
  H  H19  1  0.82632408  0.34569834  0.73288868  1
  H  H20  1  0.82632408  0.34569834  0.26711132  1
  H  H21  1  0.31047544  0.46674142  0.50000000  1
  H  H22  1  0.51813054  0.84712250  0.50000000  1
  H  H23  1  0.46674142  0.31047544  0.50000000  1
  H  H24  1  0.13751526  0.71005960  0.50000000  1
  H  H25  1  0.84712250  0.51813054  0.50000000  1
  H  H26  1  0.71005960  0.13751526  0.50000000  1
loop_
_geom_bond_atom_site_label_1
_geom_bond_atom_site_label_2
_geom_bond_distance
_geom_bond_site_symmetry_2
H0 Tc0 1.678036 1_555
H0 Li3 2.176576 1_565
H0 Li2 2.343425 1_555
H1 Tc0 1.678035 1_555
H1 Li4 2.176576 1_655
H1 Li2 2.343425 1_555
H2 Tc0 1.678036 1_556
H2 Li3 2.176576 1_566
H2 Li2 2.343425 1_555
H3 Tc0 1.678035 1_556
H3 Li4 2.176576 1_656
H3 Li2 2.343425 1_555
H4 Tc0 1.676919 1_445
H4 K0 2.833923 1_555
H5 Tc0 1.676919 1_446
H5 K0 2.833923 1_556
H6 Tc0 1.679860 1_455
H6 Li4 2.136556 1_555
H6 K0 2.791430 1_565
H7 Tc0 1.679859 1_545
H7 Li3 2.136557 1_555
H7 K0 2.791430 1_655
H8 Tc0 1.627590 1_555
H9 Tc1 1.698349 1_555
H9 Li4 2.062276 1_555
H9 Li1 2.198163 1_555
H9 K0 2.902997 1_555
H10 Tc1 1.662533 1_555
H10 Li2 2.307024 1_555
H10 K0 2.553559 1_555
H11 Tc1 1.698349 1_555
H11 Li4 2.062276 1_556
H11 Li1 2.198163 1_555
H11 K0 2.902997 1_556
H12 Tc2 1.698349 1_555
H12 Li3 2.062276 1_556
H12 Li0 2.198163 1_555
H12 K0 2.902997 1_556
H13 Tc1 1.675172 1_555
H13 Li4 2.025222 1_555
H13 Li0 2.054086 1_565
H14 Tc1 1.662533 1_555
H14 Li2 2.307024 1_555
H14 K0 2.553559 1_556
H15 Tc2 1.662532 1_555
H15 Li2 2.307024 1_555
H15 K0 2.553559 1_556
H16 Tc2 1.698349 1_555
H16 Li3 2.062276 1_555
H16 Li0 2.198163 1_555
H16 K0 2.902997 1_555
H17 Tc1 1.675172 1_555
H17 Li4 2.025222 1_556
H17 Li0 2.054086 1_565
H18 Tc2 1.662532 1_555
H18 Li2 2.307024 1_555
H18 K0 2.553559 1_555
H19 Tc2 1.675172 1_555
H19 Li3 2.025222 1_556
H19 Li1 2.054086 1_655
H20 Tc2 1.675172 1_555
H20 Li3 2.025222 1_555
H20 Li1 2.054086 1_655
H21 Tc1 1.653512 1_555
H21 Li1 2.238600 1_555
H21 K0 2.768194 1_556
H21 K0 2.768194 1_555
H22 Tc1 1.624397 1_555
H22 Li2 2.326039 1_555
H23 Tc2 1.653512 1_555
H23 Li0 2.238599 1_555
H23 K0 2.768194 1_555
H23 K0 2.768194 1_556
H24 Tc1 1.653914 1_555
H24 Li0 2.203453 1_565
H25 Tc2 1.624396 1_555
H25 Li2 2.326039 1_555
H26 Tc2 1.653914 1_555
H26 Li1 2.203454 1_655
