# generated using pymatgen
data_Ba2AuClO2
_symmetry_space_group_name_H-M   'P 1'
_cell_length_a   4.35074725
_cell_length_b   4.35074881
_cell_length_c   10.02005720
_cell_angle_alpha   89.99999891
_cell_angle_beta   102.53888077
_cell_angle_gamma   60.00000448
_symmetry_Int_Tables_number   1
_chemical_formula_structural   Ba2AuClO2
_chemical_formula_sum   'Ba2 Au1 Cl1 O2'
_cell_volume   159.01370826
_cell_formula_units_Z   1
loop_
 _symmetry_equiv_pos_site_id
 _symmetry_equiv_pos_as_xyz
  1  'x, y, z'
loop_
 _atom_site_type_symbol
 _atom_site_label
 _atom_site_symmetry_multiplicity
 _atom_site_fract_x
 _atom_site_fract_y
 _atom_site_fract_z
 _atom_site_occupancy
  Ba  Ba0  1  0.48668421  0.25665840  0.23002681  1
  Ba  Ba1  1  0.51331479  0.74334260  0.76997319  1
  Au  Au0  1  0.00000100  0.50000000  0.50000000  1
  Cl  Cl0  1  0.00000000  0.00000000  0.00000000  1
  O  O0  1  0.86222985  0.56888507  0.29334478  1
  O  O1  1  0.13777215  0.43111393  0.70665622  1
loop_
_geom_bond_atom_site_label_1
_geom_bond_atom_site_label_2
_geom_bond_distance
_geom_bond_site_symmetry_2
Ba0 O0 2.585903 1_455
Ba0 O0 2.585903 1_555
Ba0 O0 2.585907 1_545
Ba0 Cl0 3.359803 1_565
Ba0 Cl0 3.359806 1_555
Ba0 Cl0 3.359806 1_655
Ba1 O1 2.585898 1_555
Ba1 O1 2.585899 1_565
Ba1 O1 2.585909 1_655
Ba1 Cl0 3.359803 1_566
Ba1 Cl0 3.359806 1_666
Ba1 Cl0 3.359806 1_656
Au0 O0 2.004576 1_455
Au0 O1 2.004585 1_555
