# generated using pymatgen
data_Lu3Mg2Au3C
_symmetry_space_group_name_H-M   'P 1'
_cell_length_a   8.22802949
_cell_length_b   8.22802942
_cell_length_c   5.83265530
_cell_angle_alpha   90.00000000
_cell_angle_beta   90.00000000
_cell_angle_gamma   120.00000026
_symmetry_Int_Tables_number   1
_chemical_formula_structural   Lu3Mg2Au3C
_chemical_formula_sum   'Lu6 Mg4 Au6 C2'
_cell_volume   341.97047954
_cell_formula_units_Z   2
loop_
 _symmetry_equiv_pos_site_id
 _symmetry_equiv_pos_as_xyz
  1  'x, y, z'
loop_
 _atom_site_type_symbol
 _atom_site_label
 _atom_site_symmetry_multiplicity
 _atom_site_fract_x
 _atom_site_fract_y
 _atom_site_fract_z
 _atom_site_occupancy
  Lu  Lu0  1  0.77275481  0.77275481  0.25000000  1
  Lu  Lu1  1  0.22724519  0.00000000  0.25000000  1
  Lu  Lu2  1  1.00000000  0.22724519  0.25000000  1
  Lu  Lu3  1  0.22724519  0.22724519  0.75000000  1
  Lu  Lu4  1  0.77275481  0.00000000  0.75000000  1
  Lu  Lu5  1  0.00000000  0.77275481  0.75000000  1
  Mg  Mg0  1  0.66666700  0.33333300  0.50000000  1
  Mg  Mg1  1  0.33333300  0.66666700  0.50000000  1
  Mg  Mg2  1  0.33333300  0.66666700  0.00000000  1
  Mg  Mg3  1  0.66666700  0.33333300  0.00000000  1
  Au  Au0  1  0.41118888  0.41118888  0.25000000  1
  Au  Au1  1  0.58881112  0.00000000  0.25000000  1
  Au  Au2  1  0.00000000  0.58881112  0.25000000  1
  Au  Au3  1  0.58881112  0.58881112  0.75000000  1
  Au  Au4  1  0.41118888  0.00000000  0.75000000  1
  Au  Au5  1  0.00000000  0.41118888  0.75000000  1
  C  C0  1  0.00000000  0.00000000  0.50000000  1
  C  C1  1  0.00000000  0.00000000  0.00000000  1
loop_
_geom_bond_atom_site_label_1
_geom_bond_atom_site_label_2
_geom_bond_distance
_geom_bond_site_symmetry_2
Au0 Mg1 2.881311 1_555
Au0 Mg2 2.881311 1_555
Au0 Mg3 2.881311 1_555
Au0 Mg0 2.881311 1_555
Au0 Lu1 2.935412 1_555
Au0 Lu2 2.935412 1_455
Au0 Lu0 2.974975 1_555
Au0 Lu3 3.285671 1_555
Au0 Lu3 3.285671 1_554
Au1 Mg3 2.881304 1_555
Au1 Mg0 2.881304 1_555
Au1 Mg1 2.881306 1_545
Au1 Mg2 2.881306 1_545
Au1 Lu2 2.935412 1_555
Au1 Lu0 2.935412 1_545
Au1 Lu1 2.974975 1_555
Au1 Lu4 3.285671 1_554
Au1 Lu4 3.285671 1_555
Au2 Mg1 2.881304 1_555
Au2 Mg2 2.881304 1_555
Au2 Mg0 2.881306 1_455
Au2 Mg3 2.881306 1_455
Au2 Lu1 2.935412 1_565
Au2 Lu0 2.935412 1_455
Au2 Lu2 2.974975 1_455
Au2 Lu5 3.285671 1_555
Au2 Lu5 3.285671 1_554
Au3 Mg3 2.881311 1_556
Au3 Mg0 2.881311 1_555
Au3 Mg1 2.881311 1_555
Au3 Mg2 2.881311 1_556
Au3 Lu4 2.935412 1_565
Au3 Lu5 2.935412 1_655
Au3 Lu3 2.974975 1_555
Au3 Lu0 3.285671 1_556
Au3 Lu0 3.285671 1_555
Au4 Mg1 2.881304 1_545
Au4 Mg2 2.881304 1_546
Au4 Mg0 2.881306 1_555
Au4 Mg3 2.881306 1_556
Au4 Lu3 2.935412 1_555
Au4 Lu5 2.935412 1_545
Au4 Lu4 2.974975 1_555
Au4 Lu1 3.285671 1_556
Au4 Lu1 3.285671 1_555
Au5 Mg3 2.881304 1_456
Au5 Mg0 2.881304 1_455
Au5 Mg1 2.881306 1_555
Au5 Mg2 2.881306 1_556
Au5 Lu4 2.935412 1_455
Au5 Lu3 2.935412 1_555
Au5 Lu5 2.974975 1_555
Au5 Lu2 3.285671 1_456
Au5 Lu2 3.285671 1_455
C0 Lu3 2.371143 1_555
C0 Lu2 2.371143 1_455
C0 Lu5 2.371143 1_545
C0 Lu0 2.371143 1_445
C0 Lu1 2.371143 1_555
C0 Lu4 2.371143 1_455
C1 Lu2 2.371143 1_455
C1 Lu3 2.371143 1_554
C1 Lu5 2.371143 1_544
C1 Lu0 2.371143 1_445
C1 Lu1 2.371143 1_555
C1 Lu4 2.371143 1_454
