# generated using pymatgen
data_Nb2Rh2Se7S
_symmetry_space_group_name_H-M   'P 1'
_cell_length_a   3.59098514
_cell_length_b   11.82302825
_cell_length_c   12.74652429
_cell_angle_alpha   90.00000000
_cell_angle_beta   90.00000000
_cell_angle_gamma   90.00000000
_symmetry_Int_Tables_number   1
_chemical_formula_structural   Nb2Rh2Se7S
_chemical_formula_sum   'Nb4 Rh4 Se14 S2'
_cell_volume   541.17049764
_cell_formula_units_Z   2
loop_
 _symmetry_equiv_pos_site_id
 _symmetry_equiv_pos_as_xyz
  1  'x, y, z'
loop_
 _atom_site_type_symbol
 _atom_site_label
 _atom_site_symmetry_multiplicity
 _atom_site_fract_x
 _atom_site_fract_y
 _atom_site_fract_z
 _atom_site_occupancy
  Nb  Nb0  1  0.50000000  0.95626891  0.49833471  1
  Nb  Nb1  1  0.00000000  0.04373109  0.99833471  1
  Nb  Nb2  1  0.50000000  0.73706380  0.99492378  1
  Nb  Nb3  1  0.00000000  0.26293620  0.49492378  1
  Rh  Rh0  1  0.50000000  0.47000034  0.49626327  1
  Rh  Rh1  1  0.00000000  0.52999966  0.99626327  1
  Rh  Rh2  1  0.50000000  0.25149227  0.99198355  1
  Rh  Rh3  1  0.00000000  0.74850773  0.49198355  1
  Se  Se0  1  0.50000000  0.80894067  0.36194615  1
  Se  Se1  1  0.00000000  0.19105933  0.86194615  1
  Se  Se2  1  0.50000000  0.65344367  0.59332895  1
  Se  Se3  1  0.00000000  0.34655633  0.09332895  1
  Se  Se4  1  0.50000000  0.58580748  0.12710735  1
  Se  Se5  1  0.00000000  0.41419252  0.62710735  1
  Se  Se6  1  0.50000000  0.43510937  0.89363979  1
  Se  Se7  1  0.00000000  0.56489063  0.39363979  1
  Se  Se8  1  0.50000000  0.31656932  0.35880016  1
  Se  Se9  1  0.00000000  0.68343068  0.85880016  1
  Se  Se10  1  0.50000000  0.15561318  0.60983997  1
  Se  Se11  1  0.00000000  0.84438682  0.10983997  1
  Se  Se12  1  0.50000000  0.10402526  0.13404629  1
  Se  Se13  1  0.00000000  0.89597474  0.63404629  1
  S  S0  1  0.50000000  0.93629619  0.90378402  1
  S  S1  1  0.00000000  0.06370381  0.40378402  1
loop_
_geom_bond_atom_site_label_1
_geom_bond_atom_site_label_2
_geom_bond_distance
_geom_bond_site_symmetry_2
Nb0 Se0 2.460977 1_555
Nb0 S1 2.507929 1_565
Nb0 S1 2.507929 1_665
Nb0 Se13 2.593135 1_555
Nb0 Se13 2.593135 1_655
Nb0 Se10 2.752247 1_565
Nb0 Rh3 3.043696 1_555
Nb0 Rh3 3.043696 1_655
Nb1 Se1 2.460977 1_555
Nb1 S0 2.507929 1_445
Nb1 S0 2.507929 1_545
Nb1 Se12 2.593135 1_556
Nb1 Se12 2.593135 1_456
Nb1 Se11 2.752247 1_546
Nb1 Rh2 3.043696 1_455
Nb1 Rh2 3.043696 1_555
Nb2 Se4 2.457004 1_556
Nb2 Se9 2.576134 1_555
Nb2 Se9 2.576134 1_655
Nb2 S0 2.626424 1_555
Nb2 Se11 2.641864 1_656
Nb2 Se11 2.641864 1_556
Nb2 Rh1 3.036017 1_655
Nb2 Rh1 3.036017 1_555
Nb3 Se5 2.457004 1_555
Nb3 Se8 2.576134 1_455
Nb3 Se8 2.576134 1_555
Nb3 S1 2.626424 1_555
Nb3 Se10 2.641864 1_555
Nb3 Se10 2.641864 1_455
Nb3 Rh0 3.036017 1_455
Nb3 Rh0 3.036017 1_555
Rh0 Se7 2.488682 1_555
Rh0 Se7 2.488682 1_655
Rh0 Se2 2.496943 1_555
Rh0 Se8 2.522061 1_555
Rh0 Se5 2.537860 1_655
Rh0 Se5 2.537860 1_555
Rh1 Se6 2.488682 1_555
Rh1 Se6 2.488682 1_455
Rh1 Se3 2.496943 1_556
Rh1 Se9 2.522061 1_555
Rh1 Se4 2.537860 1_456
Rh1 Se4 2.537860 1_556
Rh2 Se3 2.481088 1_656
Rh2 Se3 2.481088 1_556
Rh2 Se6 2.506834 1_555
Rh2 Se12 2.513729 1_556
Rh2 Se1 2.545917 1_555
Rh2 Se1 2.545917 1_655
Rh3 Se2 2.481088 1_555
Rh3 Se2 2.481088 1_455
Rh3 Se7 2.506834 1_555
Rh3 Se13 2.513729 1_555
Rh3 Se0 2.545917 1_455
Rh3 Se0 2.545917 1_555
