# generated using pymatgen
data_ZnBi3(Pt2O7)2
_symmetry_space_group_name_H-M   'P 1'
_cell_length_a   7.18433537
_cell_length_b   7.32939505
_cell_length_c   7.32939494
_cell_angle_alpha   60.00000049
_cell_angle_beta   59.32980579
_cell_angle_gamma   59.32979709
_symmetry_Int_Tables_number   1
_chemical_formula_structural   ZnBi3(Pt2O7)2
_chemical_formula_sum   'Zn1 Bi3 Pt4 O14'
_cell_volume   270.10544450
_cell_formula_units_Z   1
loop_
 _symmetry_equiv_pos_site_id
 _symmetry_equiv_pos_as_xyz
  1  'x, y, z'
loop_
 _atom_site_type_symbol
 _atom_site_label
 _atom_site_symmetry_multiplicity
 _atom_site_fract_x
 _atom_site_fract_y
 _atom_site_fract_z
 _atom_site_occupancy
  Zn  Zn0  1  0.62500000  0.12500000  0.12500000  1
  Bi  Bi0  1  0.12500000  0.12500000  0.62500000  1
  Bi  Bi1  1  0.12500000  0.62500000  0.12500000  1
  Bi  Bi2  1  0.12500000  0.12500000  0.12500000  1
  Pt  Pt0  1  0.62500000  0.62500000  0.12500000  1
  Pt  Pt1  1  0.62500000  0.12500000  0.62500000  1
  Pt  Pt2  1  0.12500000  0.62500000  0.62500000  1
  Pt  Pt3  1  0.62500000  0.62500000  0.62500000  1
  O  O0  1  0.28907433  0.23697522  0.23697522  1
  O  O1  1  0.96092567  0.01302478  0.01302478  1
  O  O2  1  0.54535058  0.95713334  0.54038175  1
  O  O3  1  0.28765413  0.71016144  0.29202399  1
  O  O4  1  0.54535058  0.54038175  0.95713334  1
  O  O5  1  0.96234587  0.53983856  0.53983856  1
  O  O6  1  0.54535058  0.95713334  0.95713334  1
  O  O7  1  0.96234587  0.95797601  0.53983856  1
  O  O8  1  0.96234587  0.53983856  0.95797601  1
  O  O9  1  0.70464942  0.29286666  0.29286666  1
  O  O10  1  0.28765413  0.71016144  0.71016144  1
  O  O11  1  0.70464942  0.29286666  0.70961825  1
  O  O12  1  0.28765413  0.29202399  0.71016144  1
  O  O13  1  0.70464942  0.70961825  0.29286666  1
loop_
_geom_bond_atom_site_label_1
_geom_bond_atom_site_label_2
_geom_bond_distance
_geom_bond_site_symmetry_2
Bi0 O1 2.320367 1_456
Bi0 O0 2.320367 1_555
Bi0 O2 2.465789 1_545
Bi0 O11 2.465789 1_455
Bi0 O5 2.494272 1_455
Bi0 O10 2.494272 1_545
Bi0 O12 2.494278 1_555
Bi0 O7 2.494278 1_445
Bi1 O1 2.320367 1_465
Bi1 O0 2.320367 1_555
Bi1 O4 2.465790 1_554
Bi1 O13 2.465790 1_455
Bi1 O5 2.494272 1_455
Bi1 O10 2.494272 1_554
Bi1 O3 2.494278 1_555
Bi1 O8 2.494278 1_454
Bi2 O0 2.320367 1_555
Bi2 O1 2.320367 1_455
Bi2 O6 2.465790 1_544
Bi2 O9 2.465790 1_455
Bi2 O8 2.494273 1_454
Bi2 O3 2.494273 1_545
Bi2 O12 2.494273 1_554
Bi2 O7 2.494273 1_445
O0 Zn0 1.950337 1_555
O1 Zn0 1.950337 1_555
O2 Pt3 2.017238 1_555
O2 Pt1 2.017245 1_565
O2 Zn0 2.511037 1_565
O3 Pt0 1.988982 1_555
O3 Pt2 2.005634 1_555
O4 Pt3 2.017238 1_555
O4 Pt0 2.017245 1_556
O4 Zn0 2.511036 1_556
O5 Pt3 1.988980 1_555
O5 Pt2 2.005640 1_655
O6 Pt0 2.017239 1_556
O6 Pt1 2.017240 1_565
O6 Zn0 2.511043 1_566
O7 Pt1 1.988981 1_565
O7 Pt2 2.005634 1_655
O8 Pt0 1.988982 1_556
O8 Pt2 2.005634 1_655
O9 Pt0 2.017239 1_555
O9 Pt1 2.017240 1_555
O9 Zn0 2.511043 1_555
O10 Pt3 1.988980 1_555
O10 Pt2 2.005640 1_555
O11 Pt3 2.017238 1_555
O11 Pt1 2.017245 1_555
O11 Zn0 2.511037 1_556
O12 Pt1 1.988981 1_555
O12 Pt2 2.005634 1_555
O13 Pt3 2.017238 1_555
O13 Pt0 2.017245 1_555
O13 Zn0 2.511036 1_565
