# generated using pymatgen
data_Li4Si2Te5
_symmetry_space_group_name_H-M   'P 1'
_cell_length_a   7.53628972
_cell_length_b   8.98842506
_cell_length_c   9.89634638
_cell_angle_alpha   70.43248134
_cell_angle_beta   72.47622291
_cell_angle_gamma   69.72847032
_symmetry_Int_Tables_number   1
_chemical_formula_structural   Li4Si2Te5
_chemical_formula_sum   'Li8 Si4 Te10'
_cell_volume   579.39945033
_cell_formula_units_Z   2
loop_
 _symmetry_equiv_pos_site_id
 _symmetry_equiv_pos_as_xyz
  1  'x, y, z'
loop_
 _atom_site_type_symbol
 _atom_site_label
 _atom_site_symmetry_multiplicity
 _atom_site_fract_x
 _atom_site_fract_y
 _atom_site_fract_z
 _atom_site_occupancy
  Li  Li0  1  0.22831853  0.45313130  0.43750880  1
  Li  Li1  1  0.77168147  0.54686870  0.56249120  1
  Li  Li2  1  0.84211850  0.38610657  0.17972573  1
  Li  Li3  1  0.15788150  0.61389343  0.82027427  1
  Li  Li4  1  0.65716759  0.05794738  0.57583524  1
  Li  Li5  1  0.34283241  0.94205262  0.42416476  1
  Li  Li6  1  0.42022805  0.74269261  0.03219123  1
  Li  Li7  1  0.57977195  0.25730739  0.96780877  1
  Si  Si0  1  0.88822058  0.76326837  0.14371519  1
  Si  Si1  1  0.11177942  0.23673163  0.85628481  1
  Si  Si2  1  0.91363488  0.94198536  0.25578065  1
  Si  Si3  1  0.08636512  0.05801464  0.74421935  1
  Te  Te0  1  0.81599898  0.47216450  0.87284668  1
  Te  Te1  1  0.18400102  0.52783550  0.12715332  1
  Te  Te2  1  0.39844915  0.83910500  0.72126355  1
  Te  Te3  1  0.60155085  0.16089500  0.27873645  1
  Te  Te4  1  0.99680172  0.22971191  0.50685328  1
  Te  Te5  1  0.00319828  0.77028809  0.49314672  1
  Te  Te6  1  0.40152973  0.33591638  0.70887483  1
  Te  Te7  1  0.59847027  0.66408362  0.29112517  1
  Te  Te8  1  0.79947211  0.94208851  0.89759738  1
  Te  Te9  1  0.20052789  0.05791149  0.10240262  1
loop_
_geom_bond_atom_site_label_1
_geom_bond_atom_site_label_2
_geom_bond_distance
_geom_bond_site_symmetry_2
Li0 Te4 2.886484 1_455
Li0 Te5 2.906151 1_555
Li0 Te1 3.012763 1_555
Li0 Te6 3.047777 1_555
Li1 Te5 2.886484 1_655
Li1 Te4 2.906151 1_555
Li1 Te0 3.012763 1_555
Li1 Te7 3.047777 1_555
Li2 Te7 2.876947 1_555
Li2 Te3 2.913676 1_555
Li2 Te0 2.922546 1_554
Li2 Te1 3.091158 1_655
Li3 Te6 2.876947 1_555
Li3 Te2 2.913676 1_555
Li3 Te1 2.922546 1_556
Li3 Te0 3.091158 1_455
Li4 Te3 2.885765 1_555
Li4 Te2 2.968788 1_545
Li4 Te6 3.004677 1_555
Li4 Te5 3.100875 1_645
Li4 Te4 3.221980 1_555
Li4 Te8 3.381656 1_545
Li5 Te2 2.885765 1_555
Li5 Te3 2.968788 1_565
Li5 Te7 3.004677 1_555
Li5 Te4 3.100875 1_465
Li5 Te5 3.221980 1_555
Li5 Te9 3.381656 1_565
Li6 Te1 2.818046 1_555
Li6 Te9 2.937193 1_565
Li6 Te2 2.943735 1_554
Li6 Te7 3.012053 1_555
Li7 Te0 2.818046 1_555
Li7 Te8 2.937193 1_545
Li7 Te3 2.943735 1_556
Li7 Te6 3.012053 1_555
Si0 Si2 2.319822 1_555
Si0 Te1 2.493492 1_655
Si0 Te7 2.500145 1_555
Si0 Te8 2.564574 1_554
Si1 Si3 2.319822 1_555
Si1 Te0 2.493492 1_455
Si1 Te6 2.500145 1_555
Si1 Te9 2.564574 1_556
Si2 Te5 2.481949 1_655
Si2 Te3 2.495158 1_565
Si2 Te9 2.567061 1_665
Si3 Te4 2.481949 1_455
Si3 Te2 2.495158 1_545
Si3 Te8 2.567061 1_445
