# generated using pymatgen
data_Nd5AgSe8
_symmetry_space_group_name_H-M   'P 1'
_cell_length_a   7.73000129
_cell_length_b   7.72995375
_cell_length_c   7.73002046
_cell_angle_alpha   109.81663434
_cell_angle_beta   109.81707042
_cell_angle_gamma   108.78242671
_symmetry_Int_Tables_number   1
_chemical_formula_structural   Nd5AgSe8
_chemical_formula_sum   'Nd5 Ag1 Se8'
_cell_volume   355.52216886
_cell_formula_units_Z   1
loop_
 _symmetry_equiv_pos_site_id
 _symmetry_equiv_pos_as_xyz
  1  'x, y, z'
loop_
 _atom_site_type_symbol
 _atom_site_label
 _atom_site_symmetry_multiplicity
 _atom_site_fract_x
 _atom_site_fract_y
 _atom_site_fract_z
 _atom_site_occupancy
  Nd  Nd0  1  0.62091155  0.49882298  0.38191184  1
  Nd  Nd1  1  0.50117802  0.88309045  0.12208704  1
  Nd  Nd2  1  0.11691099  0.23899768  0.61808733  1
  Nd  Nd3  1  0.25000078  0.74999948  0.49999785  1
  Nd  Nd4  1  0.76100335  0.37909009  0.87791072  1
  Ag  Ag0  1  0.00000136  0.00000135  -0.00000012  1
  Se  Se0  1  0.72892299  0.97780999  0.61219769  1
  Se  Se1  1  0.23871887  0.49657787  0.10622251  1
  Se  Se2  1  0.86750809  0.76128211  0.25786343  1
  Se  Se3  1  0.02219153  0.63439243  0.75111370  1
  Se  Se4  1  0.39034555  0.13248364  0.89377969  1
  Se  Se5  1  0.50341899  0.60964603  0.74213795  1
  Se  Se6  1  0.88327614  0.27107983  0.24889086  1
  Se  Se7  1  0.36561278  0.11672508  0.38779951  1
loop_
_geom_bond_atom_site_label_1
_geom_bond_atom_site_label_2
_geom_bond_distance
_geom_bond_site_symmetry_2
Nd0 Se2 2.955859 1_555
Nd0 Se3 2.956596 1_655
Nd0 Se1 2.990488 1_555
Nd0 Se7 3.003155 1_555
Nd0 Se5 3.148152 1_555
Nd0 Se0 3.179234 1_555
Nd0 Se4 3.221572 1_554
Nd0 Se6 3.279528 1_555
Nd1 Se1 2.955869 1_555
Nd1 Se7 2.956602 1_565
Nd1 Se5 2.990492 1_554
Nd1 Se6 3.003158 1_565
Nd1 Se4 3.148038 1_564
Nd1 Se3 3.179233 1_554
Nd1 Se2 3.221593 1_555
Nd1 Se0 3.279557 1_555
Nd2 Se5 2.955857 1_555
Nd2 Se6 2.956593 1_455
Nd2 Se4 2.990521 1_555
Nd2 Se0 3.003174 1_445
Nd2 Se2 3.148101 1_445
Nd2 Se7 3.179272 1_555
Nd2 Se1 3.221581 1_556
Nd2 Se3 3.279569 1_555
Nd3 Se5 2.962639 1_555
Nd3 Se2 2.962642 1_455
Nd3 Se4 2.962668 1_565
Nd3 Se1 2.962670 1_555
Nd3 Se6 3.185553 1_455
Nd3 Se0 3.185574 1_555
Nd3 Se7 3.185583 1_565
Nd3 Se3 3.185603 1_555
Nd4 Se4 2.955991 1_555
Nd4 Se0 2.956594 1_545
Nd4 Se2 2.990506 1_556
Nd4 Se3 3.003177 1_655
Nd4 Se1 3.148118 1_656
Nd4 Se6 3.179275 1_556
Nd4 Se5 3.221594 1_555
Nd4 Se7 3.279548 1_555
Ag0 Se3 2.926986 1_544
Ag0 Se7 2.926995 1_555
Ag0 Se0 2.927007 1_444
Ag0 Se6 2.927038 1_455
Ag0 Se4 3.329794 1_554
Ag0 Se1 3.329855 1_555
Ag0 Se5 3.329891 1_444
Ag0 Se2 3.329913 1_445
