# generated using pymatgen
data_Hf5Ti3Al15Ru7
_symmetry_space_group_name_H-M   'P 1'
_cell_length_a   8.72485919
_cell_length_b   8.72488348
_cell_length_c   8.72487186
_cell_angle_alpha   120.24900301
_cell_angle_beta   119.91453264
_cell_angle_gamma   89.85850274
_symmetry_Int_Tables_number   1
_chemical_formula_structural   Hf5Ti3Al15Ru7
_chemical_formula_sum   'Hf5 Ti3 Al15 Ru7'
_cell_volume   469.05052270
_cell_formula_units_Z   1
loop_
 _symmetry_equiv_pos_site_id
 _symmetry_equiv_pos_as_xyz
  1  'x, y, z'
loop_
 _atom_site_type_symbol
 _atom_site_label
 _atom_site_symmetry_multiplicity
 _atom_site_fract_x
 _atom_site_fract_y
 _atom_site_fract_z
 _atom_site_occupancy
  Hf  Hf0  1  0.79401884  0.28347696  0.06616345  1
  Hf  Hf1  1  0.21731745  0.28348692  0.48945098  1
  Hf  Hf2  1  0.20673478  0.70673555  0.50000719  1
  Hf  Hf3  1  0.21732420  0.72787283  0.93384426  1
  Hf  Hf4  1  0.79404653  0.72788120  0.51055764  1
  Ti  Ti0  1  0.77680188  0.27679548  0.49998806  1
  Ti  Ti1  1  0.37935953  0.12132543  0.74197306  1
  Ti  Ti2  1  0.37935426  0.63738906  0.25802976  1
  Al  Al0  1  0.98442060  0.48442428  0.50000483  1
  Al  Al1  1  0.16538972  0.33539610  0.16999149  1
  Al  Al2  1  0.16540736  0.99540335  0.83000678  1
  Al  Al3  1  0.15342169  0.34245455  0.81095638  1
  Al  Al4  1  0.53150136  0.34246532  0.18904228  1
  Al  Al5  1  0.83919779  0.65338281  0.81416914  1
  Al  Al6  1  0.83920884  0.02500884  0.18581168  1
  Al  Al7  1  0.83406931  0.66053446  0.17352279  1
  Al  Al8  1  0.48700736  0.66054421  0.82648472  1
  Al  Al9  1  0.38767188  0.12515654  0.26251357  1
  Al  Al10  1  0.86264158  0.12515713  0.73748413  1
  Al  Al11  1  0.62123364  0.88024997  0.25900862  1
  Al  Al12  1  0.62123988  0.36222462  0.74099296  1
  Al  Al13  1  0.61710771  0.87583317  0.74127679  1
  Al  Al14  1  0.13455118  0.87583356  0.25872629  1
  Ru  Ru0  1  0.99961240  0.99809473  0.50062775  1
  Ru  Ru1  1  0.49748228  0.99810806  0.99849323  1
  Ru  Ru2  1  0.49780214  0.49779250  0.99999374  1
  Ru  Ru3  1  0.49746080  0.49898264  0.49937414  1
  Ru  Ru4  1  0.99961004  0.49898340  0.00150639  1
  Ru  Ru5  1  0.00045518  0.00045012  0.99999808  1
  Ru  Ru6  1  0.49854379  0.99854818  0.50000384  1
loop_
_geom_bond_atom_site_label_1
_geom_bond_atom_site_label_2
_geom_bond_distance
_geom_bond_site_symmetry_2
Hf0 Ti1 2.979546 1_554
Hf0 Ru4 3.027511 1_555
Hf0 Ru5 3.042038 1_654
Hf0 Ru2 3.175640 1_554
Hf0 Ru1 3.204482 1_544
Hf1 Ti1 2.979713 1_555
Hf1 Ru3 3.027267 1_555
Hf1 Ru5 3.041995 1_554
Hf1 Ru2 3.175725 1_555
Hf1 Ru0 3.204734 1_445
Hf2 Ti1 2.995228 1_565
Hf2 Ti2 2.995260 1_555
Hf2 Ru3 3.114619 1_555
Hf2 Ru0 3.114649 1_455
Hf2 Ru1 3.114703 1_555
Hf2 Ru4 3.114780 1_455
Hf3 Ti2 2.979604 1_556
Hf3 Ru1 3.027444 1_555
Hf3 Ru5 3.041928 1_565
Hf3 Ru2 3.175786 1_555
Hf3 Ru4 3.204661 1_456
Hf4 Ti2 2.979765 1_555
Hf4 Ru0 3.027229 1_555
Hf4 Ru5 3.041909 1_665
Hf4 Ru2 3.175839 1_554
Hf4 Ru3 3.204897 1_555
Al0 Ti0 2.564892 1_555
Al0 Hf4 2.686515 1_555
Al0 Hf1 2.686523 1_655
Al0 Hf0 2.686562 1_555
Al0 Hf3 2.686564 1_655
Al0 Hf2 2.746450 1_655
Al1 Ru4 2.504617 1_455
Al1 Ru3 2.504653 1_555
Al1 Ru5 2.517107 1_554
Al1 Ti2 2.751800 1_555
Al1 Al10 2.773054 1_454
Al1 Al9 2.773148 1_555
Al1 Hf1 2.861888 1_555
Al1 Hf0 2.861929 1_455
Al1 Hf2 2.913512 1_555
Al1 Al2 2.955265 1_544
Al2 Ru1 2.504636 1_555
Al2 Ru0 2.504638 1_455
Al2 Ru5 2.517108 1_565
Al2 Ti1 2.751723 1_565
Al2 Al9 2.773061 1_566
Al2 Hf4 2.861822 1_455
Al2 Hf3 2.861882 1_555
Al2 Hf2 2.913432 1_555
Al3 Ru0 2.521631 1_445
Al3 Ru4 2.521652 1_456
Al3 Ru2 2.531851 1_555
Al3 Ti1 2.822258 1_555
Al3 Ti2 2.822326 1_556
Al3 Ti0 2.835131 1_455
Al3 Hf1 2.923753 1_555
Al3 Hf3 2.923839 1_555
Al4 Ru1 2.521631 1_544
Al4 Ru3 2.521700 1_555
Al4 Ru2 2.531816 1_554
Al4 Al9 2.760268 1_555
Al4 Ti2 2.822285 1_555
Al4 Ti1 2.822289 1_554
Al4 Ti0 2.835084 1_555
Al4 Hf0 2.923666 1_555
Al4 Hf4 2.923868 1_555
Al5 Ru3 2.524355 1_555
Al5 Ru4 2.524384 1_556
Al5 Ru5 2.564576 1_665
Al5 Ti0 2.837640 1_555
Al5 Hf4 2.878780 1_555
Al5 Hf3 2.878841 1_655
Al6 Ru1 2.524353 1_544
Al6 Ru0 2.524356 1_545
Al6 Ru5 2.564536 1_654
Al6 Ti0 2.837614 1_555
Al6 Hf1 2.878816 1_655
Al6 Hf0 2.878824 1_555
Al7 Ru2 2.517982 1_554
Al7 Ru4 2.519113 1_555
Al7 Ru0 2.519170 1_555
Al7 Hf4 2.897681 1_555
Al7 Hf0 2.897704 1_555
Al7 Hf2 2.908651 1_655
Al8 Ru2 2.517915 1_555
Al8 Ru1 2.519150 1_555
Al8 Ru3 2.519195 1_555
Al8 Hf3 2.897574 1_555
Al8 Hf1 2.897694 1_555
Al8 Hf2 2.908637 1_555
Al9 Ru6 2.598284 1_545
Al9 Ru3 2.660123 1_555
Al9 Ru1 2.660143 1_544
Al9 Ru5 2.762768 1_554
Al9 Ti0 2.795380 1_555
Al9 Hf3 2.864772 1_544
Al9 Hf1 2.864829 1_555
Al10 Ru6 2.598278 1_545
Al10 Ru0 2.660120 1_545
Al10 Ru4 2.660122 1_556
Al10 Al3 2.760246 1_655
Al10 Ru5 2.762799 1_655
Al10 Al2 2.773144 1_645
Al10 Ti0 2.795409 1_555
Al10 Hf4 2.864736 1_545
Al10 Hf0 2.864889 1_556
Al10 Al12 2.948596 1_555
Al10 Al11 2.948644 1_545
Al10 Al13 3.080357 1_545
Al11 Ru6 2.585593 1_555
Al11 Ru1 2.700205 1_554
Al11 Ru0 2.700243 1_555
Al11 Ru2 2.719254 1_554
Al11 Al8 2.757136 1_554
Al11 Al7 2.757313 1_555
Al11 Al6 2.766917 1_565
Al11 Ti0 2.842706 1_565
Al11 Hf3 2.913109 1_554
Al11 Hf4 2.913183 1_555
Al11 Al9 2.948590 1_565
Al11 Ti2 2.988220 1_555
Al12 Ru6 2.585542 1_545
Al12 Ru4 2.700181 1_556
Al12 Ru3 2.700229 1_555
Al12 Ru2 2.719108 1_555
Al12 Al7 2.757194 1_556
Al12 Al8 2.757317 1_555
Al12 Al5 2.766939 1_555
Al12 Ti0 2.842835 1_555
Al12 Hf0 2.913166 1_556
Al12 Hf1 2.913213 1_555
Al12 Al9 2.948668 1_555
Al12 Ti1 2.988209 1_555
Al13 Ru6 2.596369 1_555
Al13 Ru1 2.679997 1_555
Al13 Ru3 2.680070 1_555
Al13 Ru5 2.734796 1_665
Al13 Al8 2.761989 1_555
Al13 Al5 2.814599 1_555
Al13 Al6 2.814611 1_566
Al13 Hf0 2.927940 1_566
Al13 Hf4 2.928032 1_555
Al13 Hf2 2.967662 1_555
Al13 Ti1 2.977927 1_565
Al13 Ti2 2.977977 1_555
Al14 Ru6 2.596402 1_555
Al14 Ru0 2.679985 1_455
Al14 Ru4 2.680066 1_455
Al14 Ru5 2.734775 1_564
Al14 Al7 2.761860 1_455
Al14 Al6 2.814483 1_465
Al14 Al5 2.814713 1_454
Al14 Hf3 2.928001 1_554
Al14 Hf1 2.928007 1_565
Al14 Hf2 2.967692 1_555
Al14 Ti2 2.977972 1_555
Al14 Ti1 2.977976 1_565
Al14 Al9 3.080393 1_565
Ru0 Ti1 2.710250 1_665
Ru1 Ti1 2.710181 1_565
Ru2 Ti1 2.677883 1_555
Ru2 Ti2 2.677996 1_556
Ru3 Ti2 2.710278 1_555
Ru4 Ti2 2.710231 1_655
Ru6 Ti1 2.567376 1_565
Ru6 Ti2 2.567426 1_555
