# generated using pymatgen
data_RhClF8
_symmetry_space_group_name_H-M   'P 1'
_cell_length_a   5.73778432
_cell_length_b   5.73778392
_cell_length_c   10.01724514
_cell_angle_alpha   73.41207293
_cell_angle_beta   73.41207534
_cell_angle_gamma   88.10088422
_symmetry_Int_Tables_number   1
_chemical_formula_structural   RhClF8
_chemical_formula_sum   'Rh2 Cl2 F16'
_cell_volume   302.49055876
_cell_formula_units_Z   2
loop_
 _symmetry_equiv_pos_site_id
 _symmetry_equiv_pos_as_xyz
  1  'x, y, z'
loop_
 _atom_site_type_symbol
 _atom_site_label
 _atom_site_symmetry_multiplicity
 _atom_site_fract_x
 _atom_site_fract_y
 _atom_site_fract_z
 _atom_site_occupancy
  Rh  Rh0  1  0.00000000  0.00000000  0.50000000  1
  Rh  Rh1  1  0.00000000  0.00000000  0.00000000  1
  Cl  Cl0  1  0.32873983  0.67126017  0.25000000  1
  Cl  Cl1  1  0.67126017  0.32873983  0.75000000  1
  F  F0  1  0.61492643  0.54376137  0.82554842  1
  F  F1  1  0.45623863  0.38507357  0.67445158  1
  F  F2  1  0.38507357  0.45623863  0.17445158  1
  F  F3  1  0.54376137  0.61492643  0.32554842  1
  F  F4  1  0.16540765  0.25588143  0.52403518  1
  F  F5  1  0.74411857  0.83459235  0.97596482  1
  F  F6  1  0.83459235  0.74411857  0.47596482  1
  F  F7  1  0.25588143  0.16540765  0.02403518  1
  F  F8  1  0.27198049  0.97716986  0.34221648  1
  F  F9  1  0.02283014  0.72801951  0.15778352  1
  F  F10  1  0.72801951  0.02283014  0.65778352  1
  F  F11  1  0.97716986  0.27198049  0.84221648  1
  F  F12  1  0.87041591  0.22234771  0.37308123  1
  F  F13  1  0.77765229  0.12958409  0.12691877  1
  F  F14  1  0.12958409  0.77765229  0.62691877  1
  F  F15  1  0.22234771  0.87041591  0.87308123  1
loop_
_geom_bond_atom_site_label_1
_geom_bond_atom_site_label_2
_geom_bond_distance
_geom_bond_site_symmetry_2
Cl0 F2 1.601981 1_555
Cl0 F3 1.601981 1_555
Cl0 F8 2.180915 1_555
Cl0 F9 2.180915 1_555
Cl1 F0 1.601981 1_555
Cl1 F1 1.601981 1_555
Cl1 F10 2.180915 1_555
Cl1 F11 2.180915 1_555
F4 Rh0 1.881212 1_555
F5 Rh1 1.881212 1_666
F6 Rh0 1.881212 1_665
F7 Rh1 1.881212 1_555
F8 Rh0 1.909715 1_565
F9 Rh1 1.909714 1_565
F10 Rh0 1.909715 1_655
F11 Rh1 1.909714 1_656
F12 Rh0 1.829645 1_655
F13 Rh1 1.829645 1_655
F14 Rh0 1.829645 1_565
F15 Rh1 1.829645 1_566
