# generated using pymatgen
data_Sr3CaBi2O9
_symmetry_space_group_name_H-M   'P 1'
_cell_length_a   5.96736711
_cell_length_b   10.36012627
_cell_length_c   8.42448987
_cell_angle_alpha   65.91862873
_cell_angle_beta   89.13065295
_cell_angle_gamma   72.47289003
_symmetry_Int_Tables_number   1
_chemical_formula_structural   Sr3CaBi2O9
_chemical_formula_sum   'Sr6 Ca2 Bi4 O18'
_cell_volume   449.93680450
_cell_formula_units_Z   2
loop_
 _symmetry_equiv_pos_site_id
 _symmetry_equiv_pos_as_xyz
  1  'x, y, z'
loop_
 _atom_site_type_symbol
 _atom_site_label
 _atom_site_symmetry_multiplicity
 _atom_site_fract_x
 _atom_site_fract_y
 _atom_site_fract_z
 _atom_site_occupancy
  Sr  Sr0  1  0.83589980  0.31403845  0.08850426  1
  Sr  Sr1  1  0.15490044  0.66574207  0.42118002  1
  Sr  Sr2  1  0.48510327  0.00638665  0.72803430  1
  Sr  Sr3  1  0.49742839  0.01932178  0.24479534  1
  Sr  Sr4  1  0.84823694  0.32695932  0.60526513  1
  Sr  Sr5  1  0.17845820  0.66758391  0.91215165  1
  Ca  Ca0  1  0.99703294  0.99808339  0.50376114  1
  Ca  Ca1  1  0.33629799  0.33524448  0.82957333  1
  Bi  Bi0  1  0.99775406  0.99631191  0.00055669  1
  Bi  Bi1  1  0.33557619  0.33702877  0.33278621  1
  Bi  Bi2  1  0.66666210  0.66666383  0.66666383  1
  Bi  Bi3  1  0.66667588  0.66667119  0.16666395  1
  O  O0  1  0.96731681  0.47968333  0.19320642  1
  O  O1  1  0.31042159  0.78009486  0.58194379  1
  O  O2  1  0.64958013  0.12089175  0.88917469  1
  O  O3  1  0.36602160  0.85365104  0.14014093  1
  O  O4  1  0.68369773  0.21239261  0.44423853  1
  O  O5  1  0.02290051  0.55322477  0.75141616  1
  O  O6  1  0.59830552  0.71619430  0.89925937  1
  O  O7  1  0.92907783  0.02250170  0.22796461  1
  O  O8  1  0.24439136  0.38134673  0.54558679  1
  O  O9  1  0.91147999  0.78782620  0.11238638  1
  O  O10  1  0.22840285  0.14791350  0.42436697  1
  O  O11  1  0.60106679  0.46432165  0.78137477  1
  O  O12  1  0.73505061  0.61714024  0.43406751  1
  O  O13  1  0.08894162  0.95199721  0.78774379  1
  O  O14  1  0.40427751  0.31084436  0.10536457  1
  O  O15  1  0.42190710  0.54548647  0.22094938  1
  O  O16  1  0.73225877  0.86901399  0.55193335  1
  O  O17  1  0.10487249  0.18544052  0.90894618  1
loop_
_geom_bond_atom_site_label_1
_geom_bond_atom_site_label_2
_geom_bond_distance
_geom_bond_site_symmetry_2
Ca0 O7 2.261409 1_565
Ca0 O10 2.275672 1_665
Ca0 O13 2.280856 1_655
Ca0 O16 2.293333 1_555
Ca0 O4 2.301428 1_565
Ca0 O1 2.304581 1_655
Ca1 O14 2.261457 1_556
Ca1 O17 2.275737 1_555
Ca1 O8 2.280837 1_555
Ca1 O11 2.293348 1_555
Ca1 O2 2.301438 1_555
Ca1 O5 2.304577 1_555
Bi0 O13 2.052507 1_654
Bi0 O7 2.060399 1_565
Bi0 O2 2.078155 1_564
Bi0 O17 2.085381 1_664
Bi0 O9 2.193717 1_555
Bi0 O3 2.258408 1_655
Bi1 O8 2.052421 1_555
Bi1 O14 2.060509 1_555
Bi1 O4 2.078105 1_555
Bi1 O10 2.085455 1_555
Bi1 O15 2.193641 1_555
Bi1 O0 2.258350 1_455
Bi2 O1 2.065524 1_555
Bi2 O5 2.065558 1_655
Bi2 O11 2.076318 1_555
Bi2 O16 2.076403 1_555
Bi2 O12 2.222501 1_555
Bi2 O6 2.222514 1_555
Bi3 O12 2.112593 1_555
Bi3 O6 2.112618 1_554
Bi3 O9 2.129407 1_555
Bi3 O15 2.129441 1_555
Bi3 O0 2.141668 1_555
Bi3 O3 2.141704 1_555
O0 Sr0 2.530790 1_555
O0 Sr5 2.934040 1_654
O1 Sr1 2.471608 1_555
O1 Sr5 2.749113 1_555
O2 Sr2 2.503880 1_555
O2 Sr3 2.971100 1_556
O2 Sr4 2.992495 1_555
O3 Sr3 2.530750 1_565
O3 Sr1 2.933936 1_555
O4 Sr4 2.503891 1_555
O4 Sr0 2.972069 1_555
O4 Sr2 2.991467 1_555
O5 Sr5 2.471599 1_555
O5 Sr1 2.749405 1_555
O6 Sr2 2.615907 1_565
O6 Sr5 2.692477 1_555
O7 Sr3 2.586930 1_555
O7 Sr0 2.631445 1_555
O8 Sr1 2.571770 1_555
O8 Sr4 2.587237 1_455
O9 Sr1 2.607704 1_655
O9 Sr5 2.715414 1_654
O10 Sr2 2.597304 1_555
O10 Sr3 2.631242 1_555
O11 Sr0 2.567277 1_556
O11 Sr4 2.606567 1_555
O12 Sr4 2.615795 1_555
O12 Sr1 2.692453 1_655
O13 Sr5 2.571920 1_555
O13 Sr2 2.587312 1_565
O14 Sr0 2.586819 1_555
O14 Sr3 2.631338 1_555
O15 Sr5 2.607792 1_554
O15 Sr1 2.715535 1_555
O16 Sr3 2.567334 1_565
O16 Sr2 2.606541 1_565
O17 Sr4 2.597226 1_455
O17 Sr0 2.631048 1_456
