# generated using pymatgen
data_MoPbF6
_symmetry_space_group_name_H-M   'P 1'
_cell_length_a   6.14923355
_cell_length_b   6.14766111
_cell_length_c   6.14669630
_cell_angle_alpha   51.77399502
_cell_angle_beta   51.81494478
_cell_angle_gamma   51.77836718
_symmetry_Int_Tables_number   1
_chemical_formula_structural   MoPbF6
_chemical_formula_sum   'Mo1 Pb1 F6'
_cell_volume   132.57004010
_cell_formula_units_Z   1
loop_
 _symmetry_equiv_pos_site_id
 _symmetry_equiv_pos_as_xyz
  1  'x, y, z'
loop_
 _atom_site_type_symbol
 _atom_site_label
 _atom_site_symmetry_multiplicity
 _atom_site_fract_x
 _atom_site_fract_y
 _atom_site_fract_z
 _atom_site_occupancy
  Mo  Mo0  1  0.50000000  0.50000000  0.50000000  1
  Pb  Pb0  1  0.00000000  0.00000000  0.00000000  1
  F  F0  1  0.29232255  0.87445330  0.55650622  1
  F  F1  1  0.55678781  0.29236230  0.87448414  1
  F  F2  1  0.12547250  0.44355609  0.70747756  1
  F  F3  1  0.44321219  0.70763770  0.12551586  1
  F  F4  1  0.70767745  0.12554670  0.44349378  1
  F  F5  1  0.87452750  0.55644391  0.29252244  1
loop_
_geom_bond_atom_site_label_1
_geom_bond_atom_site_label_2
_geom_bond_distance
_geom_bond_site_symmetry_2
F0 Mo0 1.963182 1_555
F0 Pb0 2.467079 1_566
F1 Mo0 1.963642 1_555
F1 Pb0 2.464918 1_656
F2 Mo0 1.964860 1_555
F2 Pb0 2.466669 1_556
F3 Mo0 1.963642 1_555
F3 Pb0 2.464918 1_565
F4 Mo0 1.963182 1_555
F4 Pb0 2.467079 1_655
F5 Mo0 1.964860 1_555
F5 Pb0 2.466669 1_665
