# generated using pymatgen
data_Sr4GaSi6Ag
_symmetry_space_group_name_H-M   'P 1'
_cell_length_a   8.61769583
_cell_length_b   8.34564612
_cell_length_c   6.28335004
_cell_angle_alpha   70.58293441
_cell_angle_beta   65.97253984
_cell_angle_gamma   43.44452679
_symmetry_Int_Tables_number   1
_chemical_formula_structural   Sr4GaSi6Ag
_chemical_formula_sum   'Sr4 Ga1 Si6 Ag1'
_cell_volume   283.33553033
_cell_formula_units_Z   1
loop_
 _symmetry_equiv_pos_site_id
 _symmetry_equiv_pos_as_xyz
  1  'x, y, z'
loop_
 _atom_site_type_symbol
 _atom_site_label
 _atom_site_symmetry_multiplicity
 _atom_site_fract_x
 _atom_site_fract_y
 _atom_site_fract_z
 _atom_site_occupancy
  Sr  Sr0  1  0.24749909  0.75389241  0.24610859  1
  Sr  Sr1  1  0.24950665  0.24950565  0.25049435  1
  Sr  Sr2  1  0.74950565  0.74950565  0.75049535  1
  Sr  Sr3  1  0.75389141  0.24749909  0.75250091  1
  Ga  Ga0  1  0.66664627  0.66664727  0.33335373  1
  Si  Si0  1  0.83838540  0.83838540  0.16161460  1
  Si  Si1  1  0.83731186  0.32426445  0.16268814  1
  Si  Si2  1  0.66979552  0.16538374  0.33020448  1
  Si  Si3  1  0.32426445  0.83731286  0.67573555  1
  Si  Si4  1  0.16538374  0.66979652  0.83461626  1
  Si  Si5  1  0.16426193  0.16426193  0.83573807  1
  Ag  Ag0  1  0.33354603  0.33354603  0.66645397  1
loop_
_geom_bond_atom_site_label_1
_geom_bond_atom_site_label_2
_geom_bond_distance
_geom_bond_site_symmetry_2
Ga0 Si3 2.475544 1_555
Ga0 Si1 2.475551 1_555
Ga0 Si0 2.482013 1_555
Ga0 Sr1 3.362157 1_565
Ga0 Sr2 3.362158 1_554
Ga0 Sr2 3.362164 1_555
Ga0 Sr1 3.362169 1_655
Ga0 Sr0 3.377266 1_555
Ga0 Sr3 3.377272 1_555
Si0 Si4 2.364725 1_654
Si0 Si2 2.364725 1_565
Si0 Sr3 3.297637 1_564
Si0 Sr0 3.297641 1_655
Si0 Sr1 3.394121 1_565
Si0 Sr2 3.394121 1_554
Si0 Sr1 3.394127 1_655
Si0 Sr2 3.394133 1_555
Si1 Si2 2.358864 1_555
Si1 Si5 2.364124 1_654
Si1 Sr0 3.293240 1_645
Si1 Sr3 3.293245 1_554
Si1 Sr2 3.385324 1_554
Si1 Sr1 3.385335 1_655
Si1 Sr0 3.403269 1_555
Si1 Sr3 3.403269 1_555
Si2 Sr0 3.331076 1_645
Si2 Sr3 3.331077 1_554
Si2 Sr1 3.378341 1_555
Si2 Sr2 3.378353 1_545
Si2 Sr3 3.395845 1_555
Si2 Sr0 3.395850 1_555
Si3 Si4 2.358864 1_555
Si3 Si5 2.364116 1_565
Si3 Sr3 3.293245 1_465
Si3 Sr0 3.293245 1_556
Si3 Sr1 3.385324 1_565
Si3 Sr2 3.385325 1_555
Si3 Sr0 3.403269 1_555
Si3 Sr3 3.403274 1_555
Si4 Sr3 3.331071 1_465
Si4 Sr0 3.331077 1_556
Si4 Sr2 3.378351 1_455
Si4 Sr1 3.378353 1_556
Si4 Sr3 3.395845 1_555
Si4 Sr0 3.395845 1_555
Si5 Sr0 3.310577 1_546
Si5 Sr3 3.310582 1_455
Si5 Sr2 3.374589 1_455
Si5 Sr1 3.374590 1_555
Si5 Sr2 3.374591 1_545
Si5 Sr1 3.374596 1_556
Ag0 Si2 2.431204 1_555
Ag0 Si4 2.431211 1_555
Ag0 Si5 2.446539 1_555
Ag0 Sr1 3.368274 1_555
Ag0 Sr2 3.368279 1_455
Ag0 Sr2 3.368281 1_545
Ag0 Sr1 3.368281 1_556
Ag0 Sr3 3.389586 1_555
Ag0 Sr0 3.389591 1_555
