# generated using pymatgen
data_BaScS2F
_symmetry_space_group_name_H-M   'P 1'
_cell_length_a   5.11103641
_cell_length_b   5.11103641
_cell_length_c   4.17926054
_cell_angle_alpha   90.00000000
_cell_angle_beta   90.00000000
_cell_angle_gamma   90.00000000
_symmetry_Int_Tables_number   1
_chemical_formula_structural   BaScS2F
_chemical_formula_sum   'Ba1 Sc1 S2 F1'
_cell_volume   109.17354097
_cell_formula_units_Z   1
loop_
 _symmetry_equiv_pos_site_id
 _symmetry_equiv_pos_as_xyz
  1  'x, y, z'
loop_
 _atom_site_type_symbol
 _atom_site_label
 _atom_site_symmetry_multiplicity
 _atom_site_fract_x
 _atom_site_fract_y
 _atom_site_fract_z
 _atom_site_occupancy
  Ba  Ba0  1  0.00000000  0.00000000  0.00000000  1
  Sc  Sc0  1  0.50000000  0.50000000  0.50000000  1
  S  S0  1  0.50000000  0.00000000  0.50000000  1
  S  S1  1  0.00000000  0.50000000  0.50000000  1
  F  F0  1  0.50000000  0.50000000  0.00000000  1
loop_
_geom_bond_atom_site_label_1
_geom_bond_atom_site_label_2
_geom_bond_distance
_geom_bond_site_symmetry_2
Ba0 S0 3.301095 1_454
Ba0 S1 3.301095 1_555
Ba0 S1 3.301095 1_554
Ba0 S0 3.301095 1_555
Ba0 S1 3.301095 1_544
Ba0 S0 3.301095 1_455
Ba0 S1 3.301095 1_545
Ba0 S0 3.301095 1_554
S0 Sc0 2.555518 1_555
S0 Sc0 2.555518 1_545
S1 Sc0 2.555518 1_555
S1 Sc0 2.555518 1_455
F0 Sc0 2.089630 1_554
F0 Sc0 2.089630 1_555
