# generated using pymatgen
data_BaAlCuP2
_symmetry_space_group_name_H-M   'P 1'
_cell_length_a   7.23885608
_cell_length_b   7.23885645
_cell_length_c   7.23885580
_cell_angle_alpha   148.63148978
_cell_angle_beta   148.63149110
_cell_angle_gamma   44.95400808
_symmetry_Int_Tables_number   1
_chemical_formula_structural   BaAlCuP2
_chemical_formula_sum   'Ba1 Al1 Cu1 P2'
_cell_volume   102.46244562
_cell_formula_units_Z   1
loop_
 _symmetry_equiv_pos_site_id
 _symmetry_equiv_pos_as_xyz
  1  'x, y, z'
loop_
 _atom_site_type_symbol
 _atom_site_label
 _atom_site_symmetry_multiplicity
 _atom_site_fract_x
 _atom_site_fract_y
 _atom_site_fract_z
 _atom_site_occupancy
  Ba  Ba0  1  0.00000000  0.00000000  0.00000000  1
  Al  Al0  1  0.75000000  0.25000000  0.50000000  1
  Cu  Cu0  1  0.25000000  0.75000000  0.50000000  1
  P  P0  1  0.64410496  0.64410496  1.00000000  1
  P  P1  1  0.35589504  0.35589504  0.00000000  1
loop_
_geom_bond_atom_site_label_1
_geom_bond_atom_site_label_2
_geom_bond_distance
_geom_bond_site_symmetry_2
Ba0 P1 3.372770 1_455
Ba0 P0 3.372770 1_544
Ba0 P0 3.372770 1_454
Ba0 P1 3.372770 1_545
Ba0 P1 3.372770 1_556
Ba0 P0 3.372770 1_443
Ba0 P0 3.372771 1_555
Ba0 P1 3.372771 1_444
Al0 P0 2.415874 1_555
Al0 P1 2.415874 1_555
Al0 P1 2.415874 1_656
Al0 P0 2.415874 1_544
Al0 Cu0 2.767506 1_555
Al0 Cu0 2.767506 1_645
Al0 Cu0 2.767507 1_656
Al0 Cu0 2.767507 1_544
Cu0 P1 2.415874 1_555
Cu0 P0 2.415874 1_555
Cu0 P0 2.415874 1_454
Cu0 P1 2.415874 1_566
