# generated using pymatgen
data_Y9ScAl3Ru
_symmetry_space_group_name_H-M   'P 1'
_cell_length_a   9.52048933
_cell_length_b   9.52048985
_cell_length_c   9.54417210
_cell_angle_alpha   90.00000000
_cell_angle_beta   90.00000000
_cell_angle_gamma   120.00000168
_symmetry_Int_Tables_number   1
_chemical_formula_structural   Y9ScAl3Ru
_chemical_formula_sum   'Y18 Sc2 Al6 Ru2'
_cell_volume   749.18220108
_cell_formula_units_Z   2
loop_
 _symmetry_equiv_pos_site_id
 _symmetry_equiv_pos_as_xyz
  1  'x, y, z'
loop_
 _atom_site_type_symbol
 _atom_site_label
 _atom_site_symmetry_multiplicity
 _atom_site_fract_x
 _atom_site_fract_y
 _atom_site_fract_z
 _atom_site_occupancy
  Y  Y0  1  0.20634154  0.79365846  0.44016003  1
  Y  Y1  1  0.20634154  0.41268308  0.44016003  1
  Y  Y2  1  0.58731692  0.79365846  0.44016003  1
  Y  Y3  1  0.79365846  0.20634154  0.55983997  1
  Y  Y4  1  0.79365846  0.58731692  0.55983997  1
  Y  Y5  1  0.41268308  0.20634154  0.55983997  1
  Y  Y6  1  0.79365846  0.20634154  0.94016003  1
  Y  Y7  1  0.79365846  0.58731692  0.94016003  1
  Y  Y8  1  0.41268308  0.20634154  0.94016003  1
  Y  Y9  1  0.20634154  0.79365846  0.05983997  1
  Y  Y10  1  0.20634154  0.41268308  0.05983997  1
  Y  Y11  1  0.58731692  0.79365846  0.05983997  1
  Y  Y12  1  0.54035426  0.45964574  0.25000000  1
  Y  Y13  1  0.54035426  0.08070852  0.25000000  1
  Y  Y14  1  0.91929148  0.45964574  0.25000000  1
  Y  Y15  1  0.45964574  0.54035426  0.75000000  1
  Y  Y16  1  0.45964574  0.91929148  0.75000000  1
  Y  Y17  1  0.08070852  0.54035426  0.75000000  1
  Sc  Sc0  1  0.00000000  0.00000000  0.50000000  1
  Sc  Sc1  1  0.00000000  0.00000000  0.00000000  1
  Al  Al0  1  0.89366258  0.10633742  0.25000000  1
  Al  Al1  1  0.89366258  0.78732815  0.25000000  1
  Al  Al2  1  0.21267185  0.10633742  0.25000000  1
  Al  Al3  1  0.10633742  0.89366258  0.75000000  1
  Al  Al4  1  0.10633742  0.21267185  0.75000000  1
  Al  Al5  1  0.78732815  0.89366258  0.75000000  1
  Ru  Ru0  1  0.33333300  0.66666700  0.25000000  1
  Ru  Ru1  1  0.66666700  0.33333300  0.75000000  1
loop_
_geom_bond_atom_site_label_1
_geom_bond_atom_site_label_2
_geom_bond_distance
_geom_bond_site_symmetry_2
Y0 Y13 3.490591 1_565
Y0 Y14 3.490591 1_455
Y0 Y16 3.620319 1_555
Y0 Y17 3.620320 1_555
Y1 Y12 3.490591 1_555
Y1 Y14 3.490591 1_455
Y1 Y15 3.620319 1_555
Y1 Y17 3.620320 1_555
Y10 Y12 3.490591 1_555
Y10 Y14 3.490591 1_455
Y10 Y15 3.620319 1_554
Y10 Y17 3.620320 1_554
Y11 Y13 3.490592 1_565
Y11 Y12 3.490592 1_555
Y11 Y16 3.620320 1_554
Y11 Y15 3.620320 1_554
Y12 Y2 3.490592 1_555
Y12 Y14 3.607668 1_555
Y12 Y13 3.607668 1_555
Y12 Y4 3.620319 1_555
Y12 Y7 3.620319 1_554
Y12 Y5 3.620320 1_555
Y12 Y8 3.620320 1_554
Y13 Y9 3.490591 1_545
Y13 Y2 3.490592 1_545
Y13 Y14 3.607668 1_555
Y13 Y3 3.620319 1_555
Y13 Y6 3.620319 1_554
Y13 Y5 3.620320 1_555
Y13 Y8 3.620320 1_554
Y14 Y9 3.490591 1_655
Y14 Y4 3.620320 1_555
Y14 Y7 3.620320 1_554
Y14 Y3 3.620320 1_555
Y14 Y6 3.620320 1_554
Y15 Y7 3.490591 1_555
Y15 Y4 3.490591 1_555
Y15 Y8 3.490592 1_555
Y15 Y5 3.490592 1_555
Y15 Y17 3.607668 1_555
Y15 Y16 3.607668 1_555
Y15 Y2 3.620320 1_555
Y16 Y6 3.490591 1_565
Y16 Y3 3.490591 1_565
Y16 Y8 3.490592 1_565
Y16 Y5 3.490592 1_565
Y16 Y17 3.607668 1_555
Y16 Y9 3.620319 1_556
Y16 Y2 3.620320 1_555
Y17 Y7 3.490591 1_455
Y17 Y4 3.490591 1_455
Y17 Y6 3.490591 1_455
Y17 Y3 3.490591 1_455
Y17 Y9 3.620320 1_556
Sc0 Y5 3.450165 1_555
Sc0 Y2 3.450165 1_445
Sc0 Y0 3.450165 1_545
Sc0 Y3 3.450165 1_455
Sc0 Y1 3.450165 1_555
Sc0 Y4 3.450165 1_445
Sc1 Y8 3.450165 1_554
Sc1 Y11 3.450165 1_445
Sc1 Y9 3.450165 1_545
Sc1 Y6 3.450165 1_454
Sc1 Y10 3.450165 1_555
Sc1 Y7 3.450165 1_444
Al0 Sc0 2.961075 1_655
Al0 Sc1 2.961075 1_655
Al0 Al2 3.037124 1_655
Al0 Al1 3.037125 1_545
Al0 Y13 3.248548 1_555
Al0 Y14 3.248548 1_555
Al0 Y3 3.385889 1_555
Al0 Y6 3.385889 1_554
Al0 Y1 3.461178 1_655
Al0 Y10 3.461178 1_655
Al0 Y2 3.461178 1_545
Al0 Y11 3.461178 1_545
Al1 Sc0 2.961061 1_665
Al1 Sc1 2.961061 1_665
Al1 Al2 3.037124 1_665
Al1 Y12 3.248561 1_555
Al1 Y14 3.248577 1_555
Al1 Y4 3.385901 1_555
Al1 Y7 3.385901 1_554
Al1 Y2 3.461166 1_555
Al1 Y11 3.461166 1_555
Al1 Y0 3.461190 1_655
Al1 Y9 3.461190 1_655
Al2 Sc0 2.961061 1_555
Al2 Sc1 2.961061 1_555
Al2 Y12 3.248561 1_555
Al2 Y13 3.248577 1_555
Al2 Y5 3.385901 1_555
Al2 Y8 3.385901 1_554
Al2 Y1 3.461166 1_555
Al2 Y10 3.461166 1_555
Al2 Y0 3.461190 1_545
Al2 Y9 3.461190 1_545
Al3 Sc1 2.961075 1_566
Al3 Sc0 2.961075 1_565
Al3 Al5 3.037124 1_455
Al3 Al4 3.037125 1_565
Al3 Y16 3.248548 1_555
Al3 Y17 3.248548 1_555
Al3 Y9 3.385889 1_556
Al3 Y0 3.385889 1_555
Al3 Y7 3.461178 1_455
Al3 Y4 3.461178 1_455
Al3 Y8 3.461178 1_565
Al3 Y5 3.461178 1_565
Al4 Sc1 2.961061 1_556
Al4 Sc0 2.961061 1_555
Al4 Al5 3.037124 1_445
Al4 Y15 3.248561 1_555
Al4 Y17 3.248577 1_555
Al4 Y10 3.385901 1_556
Al4 Y1 3.385901 1_555
Al4 Y8 3.461166 1_555
Al4 Y5 3.461166 1_555
Al4 Y6 3.461190 1_455
Al4 Y3 3.461190 1_455
Al5 Sc1 2.961061 1_666
Al5 Sc0 2.961061 1_665
Al5 Y15 3.248561 1_555
Al5 Y16 3.248577 1_555
Al5 Y11 3.385901 1_556
Al5 Y2 3.385901 1_555
Al5 Y7 3.461166 1_555
Al5 Y4 3.461166 1_555
Al5 Y6 3.461190 1_565
Al5 Y3 3.461190 1_565
Ru0 Y0 2.771124 1_555
Ru0 Y9 2.771124 1_555
Ru0 Y2 2.771130 1_555
Ru0 Y11 2.771130 1_555
Ru0 Y1 2.771130 1_555
Ru0 Y10 2.771130 1_555
Ru0 Y14 3.413766 1_455
Ru0 Y13 3.413766 1_565
Ru0 Y12 3.413775 1_555
Ru1 Y6 2.771124 1_555
Ru1 Y3 2.771124 1_555
Ru1 Y8 2.771130 1_555
Ru1 Y5 2.771130 1_555
Ru1 Y7 2.771130 1_555
Ru1 Y4 2.771130 1_555
Ru1 Y17 3.413766 1_655
Ru1 Y16 3.413766 1_545
Ru1 Y15 3.413775 1_555
