# generated using pymatgen
data_SrBSbS4
_symmetry_space_group_name_H-M   'P 1'
_cell_length_a   6.19514055
_cell_length_b   9.50768396
_cell_length_c   11.41778550
_cell_angle_alpha   90.00000000
_cell_angle_beta   90.00000000
_cell_angle_gamma   90.00000000
_symmetry_Int_Tables_number   1
_chemical_formula_structural   SrBSbS4
_chemical_formula_sum   'Sr4 B4 Sb4 S16'
_cell_volume   672.52398989
_cell_formula_units_Z   4
loop_
 _symmetry_equiv_pos_site_id
 _symmetry_equiv_pos_as_xyz
  1  'x, y, z'
loop_
 _atom_site_type_symbol
 _atom_site_label
 _atom_site_symmetry_multiplicity
 _atom_site_fract_x
 _atom_site_fract_y
 _atom_site_fract_z
 _atom_site_occupancy
  Sr  Sr0  1  0.25000000  0.49045685  0.66646097  1
  Sr  Sr1  1  0.75000000  0.00954315  0.16646097  1
  Sr  Sr2  1  0.25000000  0.99045685  0.83353903  1
  Sr  Sr3  1  0.75000000  0.50954315  0.33353903  1
  B  B0  1  0.25000000  0.19256292  0.45185612  1
  B  B1  1  0.75000000  0.30743708  0.95185612  1
  B  B2  1  0.25000000  0.69256292  0.04814388  1
  B  B3  1  0.75000000  0.80743708  0.54814388  1
  Sb  Sb0  1  0.25000000  0.80686774  0.45281804  1
  Sb  Sb1  1  0.75000000  0.69313226  0.95281804  1
  Sb  Sb2  1  0.25000000  0.30686774  0.04718196  1
  Sb  Sb3  1  0.75000000  0.19313226  0.54718196  1
  S  S0  1  0.25000000  0.18018322  0.60836953  1
  S  S1  1  0.75000000  0.31981678  0.10836953  1
  S  S2  1  0.25000000  0.68018322  0.89163047  1
  S  S3  1  0.75000000  0.81981678  0.39163047  1
  S  S4  1  0.25000000  0.56092616  0.40828900  1
  S  S5  1  0.75000000  0.93907384  0.90828900  1
  S  S6  1  0.25000000  0.06092616  0.09171100  1
  S  S7  1  0.75000000  0.43907384  0.59171100  1
  S  S8  1  0.00018404  0.79701659  0.62938133  1
  S  S9  1  0.99981596  0.70298341  0.12938133  1
  S  S10  1  0.49981596  0.29701659  0.87061867  1
  S  S11  1  0.50018404  0.20298341  0.37061867  1
  S  S12  1  0.99981596  0.20298341  0.37061867  1
  S  S13  1  0.00018404  0.29701659  0.87061867  1
  S  S14  1  0.50018404  0.70298341  0.12938133  1
  S  S15  1  0.49981596  0.79701659  0.62938133  1
loop_
_geom_bond_atom_site_label_1
_geom_bond_atom_site_label_2
_geom_bond_distance
_geom_bond_site_symmetry_2
B0 S0 1.790909 1_555
B0 S11 1.808988 1_555
B0 S12 1.808988 1_455
B1 S1 1.790909 1_556
B1 S13 1.808988 1_655
B1 S10 1.808988 1_555
B2 S2 1.790909 1_554
B2 S14 1.808988 1_555
B2 S9 1.808988 1_455
B3 S3 1.790909 1_555
B3 S8 1.808988 1_655
B3 S15 1.808988 1_555
S0 Sr0 3.023630 1_555
S0 Sr2 3.140640 1_545
S1 Sr1 3.023630 1_555
S1 Sr3 3.140640 1_555
S2 Sr2 3.023630 1_555
S2 Sr0 3.140640 1_555
S3 Sr3 3.023630 1_555
S3 Sr1 3.140640 1_565
S4 Sb0 2.392970 1_555
S4 Sr0 3.022936 1_555
S4 Sr3 3.249928 1_455
S4 Sr3 3.249928 1_555
S5 Sb1 2.392970 1_555
S5 Sr1 3.022936 1_566
S5 Sr2 3.249928 1_555
S5 Sr2 3.249928 1_655
S6 Sb2 2.392970 1_555
S6 Sr2 3.022936 1_544
S6 Sr1 3.249928 1_455
S6 Sr1 3.249928 1_555
S7 Sb3 2.392970 1_555
S7 Sr3 3.022936 1_555
S7 Sr0 3.249928 1_555
S7 Sr0 3.249928 1_655
S8 Sb0 2.543242 1_555
S8 Sr0 3.327125 1_555
S8 Sr2 3.348349 1_555
S9 Sb1 2.543242 1_554
S9 Sr1 3.327125 1_565
S9 Sr3 3.348349 1_555
S10 Sb2 2.543242 1_556
S10 Sr2 3.327125 1_545
S10 Sr0 3.348349 1_555
S11 Sb3 2.543242 1_555
S11 Sr3 3.327125 1_555
S11 Sr1 3.348349 1_555
S12 Sb3 2.543242 1_555
S12 Sr3 3.327125 1_555
S12 Sr1 3.348349 1_555
S13 Sb2 2.543242 1_556
S13 Sr2 3.327125 1_545
S13 Sr0 3.348349 1_555
S14 Sb1 2.543242 1_554
S14 Sr1 3.327125 1_565
S14 Sr3 3.348349 1_555
S15 Sb0 2.543242 1_555
S15 Sr0 3.327125 1_555
S15 Sr2 3.348349 1_555
