# generated using pymatgen
data_Lu12Co4TcAg
_symmetry_space_group_name_H-M   'P 1'
_cell_length_a   8.01788268
_cell_length_b   8.01788275
_cell_length_c   8.01788473
_cell_angle_alpha   111.28713054
_cell_angle_beta   110.57290603
_cell_angle_gamma   106.59227915
_symmetry_Int_Tables_number   1
_chemical_formula_structural   Lu12Co4TcAg
_chemical_formula_sum   'Lu12 Co4 Tc1 Ag1'
_cell_volume   396.02404344
_cell_formula_units_Z   1
loop_
 _symmetry_equiv_pos_site_id
 _symmetry_equiv_pos_as_xyz
  1  'x, y, z'
loop_
 _atom_site_type_symbol
 _atom_site_label
 _atom_site_symmetry_multiplicity
 _atom_site_fract_x
 _atom_site_fract_y
 _atom_site_fract_z
 _atom_site_occupancy
  Lu  Lu0  1  0.42214023  0.22589855  0.19624068  1
  Lu  Lu1  1  0.57785977  0.77410145  0.80375932  1
  Lu  Lu2  1  0.02965686  0.22589855  0.80375932  1
  Lu  Lu3  1  0.97034314  0.77410145  0.19624068  1
  Lu  Lu4  1  0.18275101  0.27828547  0.46103648  1
  Lu  Lu5  1  0.81724899  0.72171453  0.53896352  1
  Lu  Lu6  1  0.18275101  0.72171453  0.90446654  1
  Lu  Lu7  1  0.81724899  0.27828547  0.09553346  1
  Lu  Lu8  1  0.31237892  0.61726994  0.30489002  1
  Lu  Lu9  1  0.68762108  0.38273006  0.69510998  1
  Lu  Lu10  1  0.31237892  0.00748989  0.69510998  1
  Lu  Lu11  1  0.68762108  0.99251011  0.30489002  1
  Co  Co0  1  0.37628074  0.00000000  0.37628074  1
  Co  Co1  1  0.62371926  1.00000000  0.62371926  1
  Co  Co2  1  0.11159909  0.61159909  0.50000000  1
  Co  Co3  1  0.88840091  0.38840091  0.50000000  1
  Tc  Tc0  1  0.00000000  0.00000000  0.00000000  1
  Ag  Ag0  1  0.50000000  0.50000000  0.00000000  1
loop_
_geom_bond_atom_site_label_1
_geom_bond_atom_site_label_2
_geom_bond_distance
_geom_bond_site_symmetry_2
Lu0 Tc0 2.810521 1_555
Lu1 Tc0 2.810521 1_666
Lu2 Tc0 2.810514 1_556
Lu3 Tc0 2.810514 1_665
Lu4 Tc0 3.021152 1_555
Lu5 Tc0 3.021152 1_666
Lu6 Tc0 3.021151 1_566
Lu7 Tc0 3.021151 1_655
Co0 Co1 2.259596 1_545
Co0 Lu3 2.718565 1_445
Co0 Lu0 2.718573 1_555
Co0 Lu8 2.761799 1_545
Co0 Lu9 2.761803 1_555
Co0 Lu10 2.761806 1_555
Co0 Lu11 2.761809 1_545
Co0 Lu6 3.076613 1_544
Co0 Lu4 3.076619 1_555
Co1 Lu2 2.718565 1_665
Co1 Lu1 2.718573 1_555
Co1 Lu9 2.761799 1_565
Co1 Lu8 2.761803 1_555
Co1 Lu11 2.761806 1_555
Co1 Lu10 2.761809 1_565
Co1 Lu7 3.076613 1_566
Co1 Lu5 3.076619 1_555
Co2 Co3 2.139186 1_455
Co2 Lu8 2.611630 1_555
Co2 Lu10 2.611636 1_565
Co2 Lu4 2.820449 1_555
Co2 Lu5 2.820449 1_455
Co2 Lu7 2.820453 1_455
Co2 Lu6 2.820457 1_555
Co2 Lu1 3.181234 1_555
Co2 Lu3 3.181240 1_455
Co3 Lu9 2.611630 1_555
Co3 Lu11 2.611636 1_545
Co3 Lu5 2.820449 1_555
Co3 Lu4 2.820449 1_655
Co3 Lu6 2.820453 1_655
Co3 Lu7 2.820457 1_555
Co3 Lu0 3.181234 1_555
Co3 Lu2 3.181240 1_655
Ag0 Lu1 3.180077 1_554
Ag0 Lu0 3.180077 1_555
Ag0 Lu2 3.180084 1_554
Ag0 Lu3 3.180084 1_555
Ag0 Lu11 3.293378 1_555
Ag0 Lu10 3.293378 1_554
Ag0 Lu8 3.293387 1_555
Ag0 Lu9 3.293387 1_554
Ag0 Lu7 3.524054 1_555
Ag0 Lu6 3.524054 1_554
Ag0 Lu4 3.524056 1_554
Ag0 Lu5 3.524056 1_555
