# generated using pymatgen
data_Lu6Ti3Al13Ir7
_symmetry_space_group_name_H-M   'P 1'
_cell_length_a   8.86528898
_cell_length_b   8.86528762
_cell_length_c   8.86528781
_cell_angle_alpha   59.74048054
_cell_angle_beta   59.74048934
_cell_angle_gamma   59.74048207
_symmetry_Int_Tables_number   1
_chemical_formula_structural   Lu6Ti3Al13Ir7
_chemical_formula_sum   'Lu6 Ti3 Al13 Ir7'
_cell_volume   489.77489770
_cell_formula_units_Z   1
loop_
 _symmetry_equiv_pos_site_id
 _symmetry_equiv_pos_as_xyz
  1  'x, y, z'
loop_
 _atom_site_type_symbol
 _atom_site_label
 _atom_site_symmetry_multiplicity
 _atom_site_fract_x
 _atom_site_fract_y
 _atom_site_fract_z
 _atom_site_occupancy
  Lu  Lu0  1  0.70737007  0.70737007  0.28768651  1
  Lu  Lu1  1  0.29493337  0.70554056  0.29493337  1
  Lu  Lu2  1  0.70554056  0.29493337  0.29493337  1
  Lu  Lu3  1  0.29493337  0.29493337  0.70554056  1
  Lu  Lu4  1  0.70737007  0.28768651  0.70737007  1
  Lu  Lu5  1  0.28768651  0.70737007  0.70737007  1
  Ti  Ti0  1  0.87858975  0.87858975  0.35972774  1
  Ti  Ti1  1  0.87858975  0.35972774  0.87858975  1
  Ti  Ti2  1  0.35972774  0.87858975  0.87858975  1
  Al  Al0  1  0.88144108  0.88144108  0.88144108  1
  Al  Al1  1  0.12092967  0.12092967  0.64131373  1
  Al  Al2  1  0.12092967  0.64131373  0.12092967  1
  Al  Al3  1  0.64131373  0.12092967  0.12092967  1
  Al  Al4  1  0.12066952  0.12066952  0.12066952  1
  Al  Al5  1  0.67072416  0.67072416  0.98970136  1
  Al  Al6  1  0.67072416  0.98970136  0.67072416  1
  Al  Al7  1  0.98970136  0.67072416  0.67072416  1
  Al  Al8  1  0.66920439  0.66920439  0.66920439  1
  Al  Al9  1  0.32929863  0.32929863  0.01359687  1
  Al  Al10  1  0.32929863  0.01359687  0.32929863  1
  Al  Al11  1  0.01359687  0.32929863  0.32929863  1
  Al  Al12  1  0.32961287  0.32961287  0.32961287  1
  Ir  Ir0  1  0.00221291  0.00221291  0.00221291  1
  Ir  Ir1  1  0.99888081  0.99888081  0.49889768  1
  Ir  Ir2  1  0.50114205  0.99665377  0.50114205  1
  Ir  Ir3  1  0.99665377  0.50114205  0.50114205  1
  Ir  Ir4  1  0.50114205  0.50114205  0.99665377  1
  Ir  Ir5  1  0.99888081  0.49889768  0.99888081  1
  Ir  Ir6  1  0.49889768  0.99888081  0.99888081  1
loop_
_geom_bond_atom_site_label_1
_geom_bond_atom_site_label_2
_geom_bond_distance
_geom_bond_site_symmetry_2
Lu0 Ti0 3.048308 1_555
Lu1 Ti2 3.058027 1_554
Lu1 Ti0 3.058028 1_455
Lu2 Ti0 3.058027 1_545
Lu2 Ti1 3.058027 1_554
Lu3 Ti2 3.058027 1_545
Lu3 Ti1 3.058028 1_455
Lu4 Ti1 3.048308 1_555
Lu5 Ti2 3.048308 1_555
Al0 Ir0 2.627744 1_666
Al0 Ir5 2.764893 1_555
Al0 Ir1 2.764893 1_555
Al0 Ir6 2.764893 1_555
Al0 Al7 2.793495 1_555
Al0 Al6 2.793495 1_555
Al0 Al5 2.793495 1_555
Al0 Lu4 2.988479 1_565
Al0 Lu0 2.988479 1_556
Al0 Lu5 2.988480 1_655
Al0 Al2 2.996654 1_656
Al0 Al3 2.996654 1_566
Al0 Al1 2.996654 1_665
Al1 Ir0 2.604022 1_556
Al1 Ir3 2.745041 1_455
Al1 Ir2 2.745042 1_545
Al1 Al12 2.761533 1_555
Al1 Al11 2.774984 1_555
Al1 Al10 2.774984 1_555
Al1 Ir1 2.805168 1_445
Al1 Ti2 2.978557 1_545
Al1 Ti1 2.978557 1_455
Al1 Lu5 3.035866 1_545
Al1 Lu4 3.035866 1_455
Al1 Lu3 3.041720 1_555
Al2 Ir0 2.604022 1_565
Al2 Ir3 2.745041 1_455
Al2 Ir4 2.745042 1_554
Al2 Al9 2.774984 1_555
Al2 Ir5 2.805168 1_454
Al2 Ti0 2.978557 1_455
Al2 Ti2 2.978557 1_554
Al2 Lu5 3.035866 1_554
Al2 Lu0 3.035866 1_455
Al2 Lu1 3.041720 1_555
Al3 Ir0 2.604023 1_655
Al3 Ir4 2.745041 1_554
Al3 Ir2 2.745041 1_545
Al3 Al9 2.774984 1_555
Al3 Ir6 2.805168 1_544
Al3 Ti0 2.978557 1_545
Al3 Ti1 2.978557 1_554
Al3 Lu0 3.035866 1_545
Al3 Lu4 3.035866 1_554
Al3 Lu2 3.041720 1_555
Al4 Ir0 2.577370 1_555
Al4 Ir5 2.729883 1_454
Al4 Ir1 2.729884 1_445
Al4 Ir6 2.729884 1_544
Al4 Al9 2.766153 1_555
Al4 Ti1 3.029370 1_454
Al4 Ti2 3.029370 1_544
Al4 Ti0 3.029370 1_445
Al4 Lu1 3.043469 1_545
Al4 Lu3 3.043469 1_554
Al4 Lu2 3.043470 1_455
Al5 Ir6 2.537298 1_555
Al5 Ir5 2.537299 1_555
Al5 Ir4 2.572026 1_555
Al5 Ti1 2.784738 1_555
Al5 Ti2 2.784738 1_555
Al5 Lu0 3.004344 1_556
Al5 Lu2 3.039120 1_556
Al5 Lu1 3.039121 1_556
Al6 Ir6 2.537299 1_555
Al6 Ir1 2.537299 1_555
Al6 Ir2 2.572025 1_555
Al6 Ti0 2.784738 1_555
Al6 Ti2 2.784739 1_555
Al6 Lu4 3.004344 1_565
Al6 Lu2 3.039120 1_565
Al6 Lu3 3.039121 1_565
Al7 Ir1 2.537298 1_555
Al7 Ir5 2.537298 1_555
Al7 Ir3 2.572025 1_555
Al7 Ti0 2.784738 1_555
Al7 Ti1 2.784738 1_555
Al7 Lu5 3.004345 1_655
Al7 Lu3 3.039121 1_655
Al7 Lu1 3.039121 1_655
Al8 Ir2 2.527044 1_555
Al8 Ir4 2.527044 1_555
Al8 Ir3 2.527044 1_555
Al8 Ti1 2.761517 1_555
Al8 Ti0 2.761517 1_555
Al8 Ti2 2.761517 1_555
Al8 Lu4 3.078531 1_555
Al8 Lu0 3.078531 1_555
Al8 Lu5 3.078531 1_555
Al9 Ir4 2.557757 1_554
Al9 Ir6 2.570381 1_544
Al9 Ir5 2.570382 1_454
Al9 Lu5 3.054972 1_554
Al9 Lu4 3.054973 1_554
Al9 Lu3 3.068333 1_554
Al10 Ir2 2.557757 1_545
Al10 Ir6 2.570382 1_544
Al10 Ir1 2.570382 1_445
Al10 Al4 2.766153 1_555
Al10 Al3 2.774985 1_555
Al10 Lu5 3.054972 1_545
Al10 Lu0 3.054973 1_545
Al10 Lu1 3.068333 1_545
Al11 Ir3 2.557757 1_455
Al11 Ir1 2.570381 1_445
Al11 Ir5 2.570381 1_454
Al11 Al4 2.766153 1_555
Al11 Al2 2.774984 1_555
Al11 Lu0 3.054972 1_455
Al11 Lu4 3.054973 1_455
Al11 Lu2 3.068333 1_455
Al12 Ir2 2.573068 1_545
Al12 Ir4 2.573068 1_554
Al12 Ir3 2.573069 1_455
Al12 Al2 2.761532 1_555
Al12 Al3 2.761533 1_555
Al12 Lu1 3.053841 1_555
Al12 Lu3 3.053841 1_555
Al12 Lu2 3.053842 1_555
Ir0 Ti1 2.580055 1_454
Ir0 Ti0 2.580056 1_445
Ir0 Ti2 2.580056 1_544
Ir1 Ti0 2.755887 1_555
Ir1 Lu5 3.152231 1_655
Ir1 Lu4 3.152231 1_565
Ir1 Lu2 3.162001 1_565
Ir1 Lu1 3.162001 1_655
Ir2 Ti2 2.725608 1_555
Ir2 Ti0 2.725609 1_555
Ir2 Lu0 3.190520 1_555
Ir2 Lu5 3.190520 1_555
Ir2 Lu3 3.199477 1_565
Ir2 Lu2 3.199477 1_565
Ir3 Ti0 2.725608 1_555
Ir3 Ti1 2.725608 1_555
Ir3 Lu0 3.190520 1_555
Ir3 Lu4 3.190520 1_555
Ir3 Lu3 3.199477 1_655
Ir3 Lu1 3.199477 1_655
Ir4 Ti2 2.725608 1_555
Ir4 Ti1 2.725609 1_555
Ir4 Lu5 3.190520 1_555
Ir4 Lu4 3.190520 1_555
Ir4 Lu2 3.199477 1_556
Ir4 Lu1 3.199477 1_556
Ir5 Ti1 2.755887 1_555
Ir5 Lu0 3.152231 1_556
Ir5 Lu5 3.152231 1_655
Ir5 Lu3 3.162001 1_655
Ir5 Lu2 3.162001 1_556
Ir6 Ti2 2.755887 1_555
Ir6 Lu0 3.152231 1_556
Ir6 Lu4 3.152231 1_565
Ir6 Lu3 3.162000 1_565
Ir6 Lu1 3.162001 1_556
