# generated using pymatgen
data_Cs9Rb3(AlSe3)4
_symmetry_space_group_name_H-M   'P 1'
_cell_length_a   10.92166116
_cell_length_b   10.92166131
_cell_length_c   13.91006588
_cell_angle_alpha   89.88363948
_cell_angle_beta   89.88364279
_cell_angle_gamma   139.96397205
_symmetry_Int_Tables_number   1
_chemical_formula_structural   Cs9Rb3(AlSe3)4
_chemical_formula_sum   'Cs9 Rb3 Al4 Se12'
_cell_volume   1067.31272886
_cell_formula_units_Z   1
loop_
 _symmetry_equiv_pos_site_id
 _symmetry_equiv_pos_as_xyz
  1  'x, y, z'
loop_
 _atom_site_type_symbol
 _atom_site_label
 _atom_site_symmetry_multiplicity
 _atom_site_fract_x
 _atom_site_fract_y
 _atom_site_fract_z
 _atom_site_occupancy
  Cs  Cs0  1  0.37330598  0.37330598  0.82097098  1
  Cs  Cs1  1  0.17380278  0.53153212  0.12938441  1
  Cs  Cs2  1  0.48152472  0.83219369  0.87454119  1
  Cs  Cs3  1  0.96785464  0.32459031  0.62971182  1
  Cs  Cs4  1  0.66902153  0.02157800  0.37348897  1
  Cs  Cs5  1  0.83219369  0.48152472  0.87454119  1
  Cs  Cs6  1  0.53153212  0.17380278  0.12938441  1
  Cs  Cs7  1  0.02157800  0.66902153  0.37348897  1
  Cs  Cs8  1  0.32459031  0.96785464  0.62971182  1
  Rb  Rb0  1  0.85834075  0.85834075  0.66512693  1
  Rb  Rb1  1  0.13474823  0.13474823  0.32583530  1
  Rb  Rb2  1  0.63943779  0.63943779  0.16840342  1
  Al  Al0  1  0.92912888  0.08894735  0.00172297  1
  Al  Al1  1  0.41238476  0.57112384  0.49835532  1
  Al  Al2  1  0.08894735  0.92912888  0.00172297  1
  Al  Al3  1  0.57112384  0.41238476  0.49835532  1
  Se  Se0  1  0.28294566  0.28294566  0.56686522  1
  Se  Se1  1  0.69388065  0.69388065  0.42310292  1
  Se  Se2  1  0.21057429  0.21057429  0.07528539  1
  Se  Se3  1  0.81664260  0.81664260  0.92257385  1
  Se  Se4  1  0.71129499  0.99588683  0.11874315  1
  Se  Se5  1  0.00681398  0.30296160  0.88830542  1
  Se  Se6  1  0.49797707  0.78187523  0.61748852  1
  Se  Se7  1  0.19947491  0.49015783  0.38417470  1
  Se  Se8  1  0.30296160  0.00681398  0.88830542  1
  Se  Se9  1  0.99588683  0.71129499  0.11874315  1
  Se  Se10  1  0.49015783  0.19947491  0.38417470  1
  Se  Se11  1  0.78187523  0.49797707  0.61748852  1
loop_
_geom_bond_atom_site_label_1
_geom_bond_atom_site_label_2
_geom_bond_distance
_geom_bond_site_symmetry_2
Cs0 Se5 3.572397 1_555
Cs0 Se8 3.572397 1_555
Cs0 Se0 3.602560 1_555
Cs0 Se3 3.611372 1_555
Cs0 Se2 3.734118 1_556
Cs1 Se7 3.610449 1_555
Cs1 Se9 3.673427 1_455
Cs1 Se5 3.727020 1_554
Cs1 Se4 3.810211 1_445
Cs1 Se4 3.822020 1_555
Cs1 Se2 3.896223 1_555
Cs2 Se8 3.629387 1_565
Cs2 Se6 3.643617 1_555
Cs2 Se4 3.771164 1_556
Cs2 Se5 3.771694 1_665
Cs2 Se5 3.798570 1_555
Cs2 Se3 3.851304 1_555
Cs3 Se5 3.651346 1_655
Cs3 Se11 3.691985 1_555
Cs3 Se6 3.769332 1_655
Cs3 Se7 3.777506 1_655
Cs3 Se6 3.863548 1_545
Cs3 Se0 3.898709 1_655
Cs4 Se4 3.611686 1_545
Cs4 Se10 3.664034 1_555
Cs4 Se6 3.783164 1_545
Cs4 Se7 3.792407 1_655
Cs4 Se7 3.797791 1_545
Cs4 Se1 3.852002 1_545
Cs5 Se5 3.629387 1_655
Cs5 Se11 3.643617 1_555
Cs5 Se9 3.771164 1_556
Cs5 Se8 3.771694 1_665
Cs5 Se8 3.798570 1_555
Cs5 Se3 3.851305 1_555
Cs6 Se10 3.610449 1_555
Cs6 Se4 3.673427 1_545
Cs6 Se8 3.727020 1_554
Cs6 Se9 3.810211 1_445
Cs6 Se9 3.822020 1_555
Cs6 Se2 3.896223 1_555
Cs7 Se9 3.611686 1_455
Cs7 Se7 3.664034 1_555
Cs7 Se11 3.783164 1_455
Cs7 Se10 3.792407 1_565
Cs7 Se10 3.797791 1_455
Cs7 Se1 3.852002 1_455
Cs8 Se8 3.651346 1_565
Cs8 Se6 3.691985 1_555
Cs8 Se11 3.769332 1_565
Cs8 Se10 3.777506 1_565
Cs8 Se11 3.863548 1_455
Cs8 Se0 3.898709 1_565
Rb0 Se6 3.406838 1_555
Rb0 Se11 3.406838 1_555
Rb0 Se0 3.449164 1_665
Rb0 Se1 3.590978 1_555
Rb0 Se3 3.592808 1_555
Rb1 Se10 3.469701 1_555
Rb1 Se7 3.469701 1_555
Rb1 Se2 3.527661 1_555
Rb1 Se0 3.537356 1_555
Rb1 Se1 3.555927 1_445
Rb2 Se9 3.399574 1_555
Rb2 Se4 3.399574 1_555
Rb2 Se2 3.465580 1_555
Rb2 Se1 3.568596 1_555
Rb2 Se3 3.659907 1_554
Al0 Se5 2.369608 1_654
Al0 Se4 2.370144 1_545
Al0 Se3 2.447488 1_544
Al0 Se2 2.454780 1_655
Al1 Se7 2.362984 1_555
Al1 Se6 2.375925 1_555
Al1 Se0 2.445760 1_555
Al1 Se1 2.452478 1_555
Al2 Se8 2.369608 1_564
Al2 Se9 2.370144 1_455
Al2 Se3 2.447488 1_454
Al2 Se2 2.454780 1_565
Al3 Se10 2.362984 1_555
Al3 Se11 2.375925 1_555
Al3 Se0 2.445760 1_555
Al3 Se1 2.452478 1_555
