# generated using pymatgen
data_BaSb12(OsPd)2
_symmetry_space_group_name_H-M   'P 1'
_cell_length_a   8.18070590
_cell_length_b   8.18070534
_cell_length_c   8.24712712
_cell_angle_alpha   109.27717672
_cell_angle_beta   109.42403069
_cell_angle_gamma   109.38560965
_symmetry_Int_Tables_number   1
_chemical_formula_structural   BaSb12(OsPd)2
_chemical_formula_sum   'Ba1 Sb12 Os2 Pd2'
_cell_volume   426.58077624
_cell_formula_units_Z   1
loop_
 _symmetry_equiv_pos_site_id
 _symmetry_equiv_pos_as_xyz
  1  'x, y, z'
loop_
 _atom_site_type_symbol
 _atom_site_label
 _atom_site_symmetry_multiplicity
 _atom_site_fract_x
 _atom_site_fract_y
 _atom_site_fract_z
 _atom_site_occupancy
  Ba  Ba0  1  0.00000000  0.00000000  0.00000000  1
  Sb  Sb0  1  0.33927109  0.18709769  0.83789779  1
  Sb  Sb1  1  0.66072891  0.81290231  0.16210221  1
  Sb  Sb2  1  0.65079911  0.49862470  0.83789779  1
  Sb  Sb3  1  0.34920089  0.50137530  0.16210221  1
  Sb  Sb4  1  0.18781627  0.84703623  0.34874393  1
  Sb  Sb5  1  0.81218373  0.15296377  0.65125607  1
  Sb  Sb6  1  0.49829131  0.83907234  0.65125607  1
  Sb  Sb7  1  0.50170869  0.16092766  0.34874393  1
  Sb  Sb8  1  0.84493705  0.34892274  0.19385979  1
  Sb  Sb9  1  0.15506295  0.65107726  0.80614021  1
  Sb  Sb10  1  0.84335525  0.66022448  0.50357873  1
  Sb  Sb11  1  0.15664475  0.33977552  0.49642127  1
  Os  Os0  1  0.00000000  0.00000000  0.50000000  1
  Os  Os1  1  0.50000000  0.50000000  0.50000000  1
  Pd  Pd0  1  0.50000000  0.00000000  0.00000000  1
  Pd  Pd1  1  0.00000000  0.50000000  0.00000000  1
loop_
_geom_bond_atom_site_label_1
_geom_bond_atom_site_label_2
_geom_bond_distance
_geom_bond_site_symmetry_2
Ba0 Sb11 3.572353 1_555
Ba0 Sb10 3.572353 1_444
Ba0 Sb0 3.582187 1_554
Ba0 Sb1 3.582187 1_445
Ba0 Sb3 3.582202 1_555
Ba0 Sb2 3.582202 1_444
Ba0 Sb4 3.593370 1_545
Ba0 Sb5 3.593370 1_454
Ba0 Sb7 3.593376 1_555
Ba0 Sb6 3.593376 1_444
Ba0 Sb8 3.612819 1_455
Ba0 Sb9 3.612819 1_544
Sb0 Sb2 2.945880 1_555
Sb0 Sb3 2.990594 1_556
Sb1 Sb3 2.945880 1_555
Sb1 Sb2 2.990594 1_554
Sb4 Sb6 2.946561 1_555
Sb4 Sb7 2.968238 1_565
Sb5 Sb7 2.946561 1_555
Sb5 Sb6 2.968238 1_545
Sb10 Sb9 2.958428 1_655
Sb10 Sb8 2.959543 1_555
Sb11 Sb8 2.958428 1_455
Sb11 Sb9 2.959543 1_555
Os0 Sb5 2.646349 1_455
Os0 Sb4 2.646349 1_545
Os0 Sb0 2.651601 1_555
Os0 Sb1 2.651601 1_445
Os0 Sb11 2.661567 1_555
Os0 Sb10 2.661567 1_445
Os1 Sb6 2.646353 1_555
Os1 Sb7 2.646353 1_555
Os1 Sb2 2.651608 1_555
Os1 Sb3 2.651608 1_555
Os1 Sb10 2.661575 1_555
Os1 Sb11 2.661575 1_555
Pd0 Sb8 2.702886 1_555
Pd0 Sb9 2.702886 1_544
Pd0 Sb1 2.716023 1_545
Pd0 Sb0 2.716023 1_554
Pd0 Sb7 2.732485 1_555
Pd0 Sb6 2.732485 1_544
Pd1 Sb9 2.702886 1_554
Pd1 Sb8 2.702886 1_455
Pd1 Sb3 2.716022 1_555
Pd1 Sb2 2.716022 1_454
Pd1 Sb4 2.732489 1_555
Pd1 Sb5 2.732489 1_454
