# generated using pymatgen
data_Li2InSbRh4
_symmetry_space_group_name_H-M   'P 1'
_cell_length_a   7.52998131
_cell_length_b   7.52998161
_cell_length_c   7.52998224
_cell_angle_alpha   33.59583517
_cell_angle_beta   33.59582707
_cell_angle_gamma   33.59583873
_symmetry_Int_Tables_number   1
_chemical_formula_structural   Li2InSbRh4
_chemical_formula_sum   'Li2 In1 Sb1 Rh4'
_cell_volume   116.44536282
_cell_formula_units_Z   1
loop_
 _symmetry_equiv_pos_site_id
 _symmetry_equiv_pos_as_xyz
  1  'x, y, z'
loop_
 _atom_site_type_symbol
 _atom_site_label
 _atom_site_symmetry_multiplicity
 _atom_site_fract_x
 _atom_site_fract_y
 _atom_site_fract_z
 _atom_site_occupancy
  Li  Li0  1  0.25260123  0.25260123  0.25260123  1
  Li  Li1  1  0.74739877  0.74739877  0.74739877  1
  In  In0  1  0.00000000  0.00000000  0.00000000  1
  Sb  Sb0  1  0.50000000  0.50000000  0.50000000  1
  Rh  Rh0  1  0.62208515  0.62208515  0.62208515  1
  Rh  Rh1  1  0.12764605  0.12764605  0.12764605  1
  Rh  Rh2  1  0.87235395  0.87235395  0.87235395  1
  Rh  Rh3  1  0.37791485  0.37791485  0.37791485  1
loop_
_geom_bond_atom_site_label_1
_geom_bond_atom_site_label_2
_geom_bond_distance
_geom_bond_site_symmetry_2
Li0 Rh0 2.628071 1_554
Li0 Rh0 2.628072 1_455
Li0 Rh0 2.628072 1_545
Li0 Rh1 2.660925 1_555
Li0 Rh3 2.668558 1_555
Li0 Rh2 2.704106 1_445
Li0 Rh2 2.704107 1_544
Li0 Rh2 2.704108 1_454
Li0 Sb0 3.108528 1_455
Li0 Sb0 3.108529 1_554
Li0 Sb0 3.108529 1_545
Li1 Rh3 2.628071 1_556
Li1 Rh3 2.628072 1_655
Li1 Rh3 2.628072 1_565
Li1 Rh2 2.660925 1_555
Li1 Rh0 2.668558 1_555
Li1 Rh1 2.704106 1_665
Li1 Rh1 2.704107 1_566
Li1 Rh1 2.704108 1_656
Li1 Sb0 3.108528 1_655
Li1 Sb0 3.108529 1_556
Li1 Sb0 3.108529 1_565
In0 Rh3 2.686153 1_554
In0 Rh0 2.686153 1_445
In0 Rh3 2.686153 1_455
In0 Rh0 2.686153 1_544
In0 Rh3 2.686154 1_545
In0 Rh0 2.686154 1_454
In0 Rh1 2.718227 1_555
In0 Rh2 2.718227 1_444
In0 Li1 3.044626 1_544
In0 Li0 3.044626 1_455
In0 Li1 3.044627 1_445
In0 Li0 3.044627 1_554
In0 Li1 3.044627 1_454
In0 Li0 3.044627 1_545
Rh0 Sb0 2.599807 1_555
Rh1 Sb0 2.646619 1_554
Rh1 Sb0 2.646620 1_455
Rh1 Sb0 2.646620 1_545
Rh2 Sb0 2.646619 1_556
Rh2 Sb0 2.646620 1_655
Rh2 Sb0 2.646620 1_565
Rh3 Sb0 2.599807 1_555
