# generated using pymatgen
data_Zn13Co
_symmetry_space_group_name_H-M   'P 1'
_cell_length_a   5.02660543
_cell_length_b   6.47502033
_cell_length_c   6.47502200
_cell_angle_alpha   70.19148085
_cell_angle_beta   80.70043787
_cell_angle_gamma   80.70044315
_symmetry_Int_Tables_number   1
_chemical_formula_structural   Zn13Co
_chemical_formula_sum   'Zn13 Co1'
_cell_volume   194.36964833
_cell_formula_units_Z   1
loop_
 _symmetry_equiv_pos_site_id
 _symmetry_equiv_pos_as_xyz
  1  'x, y, z'
loop_
 _atom_site_type_symbol
 _atom_site_label
 _atom_site_symmetry_multiplicity
 _atom_site_fract_x
 _atom_site_fract_y
 _atom_site_fract_z
 _atom_site_occupancy
  Zn  Zn0  1  0.00000000  0.00000000  -0.00000000  1
  Zn  Zn1  1  0.93374004  0.38658121  0.38658121  1
  Zn  Zn2  1  0.06625996  0.61341879  0.61341879  1
  Zn  Zn3  1  0.37047499  0.77823246  0.77823246  1
  Zn  Zn4  1  0.62952501  0.22176754  0.22176754  1
  Zn  Zn5  1  0.31827993  0.62883011  0.21802554  1
  Zn  Zn6  1  0.68172007  0.78197446  0.37116989  1
  Zn  Zn7  1  0.68172007  0.37116989  0.78197446  1
  Zn  Zn8  1  0.31827993  0.21802554  0.62883011  1
  Zn  Zn9  1  0.79905044  0.64371901  0.00358593  1
  Zn  Zn10  1  0.20094956  0.99641407  0.35628099  1
  Zn  Zn11  1  0.20094956  0.35628099  0.99641407  1
  Zn  Zn12  1  0.79905044  0.00358593  0.64371901  1
  Co  Co0  1  0.50000000  0.00000000  -0.00000000  1
loop_
_geom_bond_atom_site_label_1
_geom_bond_atom_site_label_2
_geom_bond_distance
_geom_bond_site_symmetry_2
Zn0 Zn9 2.655553 1_445
Zn0 Zn11 2.655553 1_554
Zn0 Zn10 2.655554 1_545
Zn0 Zn12 2.655554 1_454
Zn0 Zn4 2.694592 1_455
Zn0 Zn3 2.694592 1_544
Zn0 Zn5 2.741587 1_545
Zn0 Zn7 2.741587 1_454
Zn0 Zn6 2.741587 1_445
Zn0 Zn8 2.741587 1_554
Zn1 Zn4 2.538260 1_555
Zn1 Zn5 2.554524 1_655
Zn1 Zn8 2.554524 1_655
Zn1 Zn12 2.600059 1_555
Zn1 Zn9 2.600059 1_555
Zn1 Zn2 2.617802 1_655
Zn1 Zn6 2.643631 1_555
Zn1 Zn7 2.643631 1_555
Zn1 Zn10 2.716439 1_645
Zn1 Zn11 2.716440 1_654
Zn2 Zn3 2.538260 1_555
Zn2 Zn7 2.554524 1_455
Zn2 Zn6 2.554524 1_455
Zn2 Zn8 2.643631 1_555
Zn2 Zn5 2.643631 1_555
Zn2 Zn9 2.716440 1_456
Zn3 Zn9 2.660237 1_556
Zn3 Zn8 2.662212 1_565
Zn3 Zn5 2.662213 1_556
Zn3 Zn7 2.834012 1_555
Zn3 Zn6 2.834013 1_555
Zn4 Zn6 2.662212 1_545
Zn4 Zn7 2.662213 1_554
Zn4 Zn9 2.816725 1_555
Zn4 Zn5 2.834012 1_555
Zn4 Zn8 2.834013 1_555
Zn5 Zn9 2.584084 1_555
Zn5 Zn6 2.672347 1_555
Zn6 Zn9 2.762961 1_555
Zn7 Zn8 2.672347 1_555
Zn7 Zn9 2.801331 1_556
Zn10 Zn12 2.521972 1_465
Zn10 Zn6 2.584084 1_555
Zn10 Zn2 2.600059 1_555
Zn10 Zn4 2.660237 1_565
Zn10 Zn11 2.679409 1_564
Zn10 Zn5 2.762960 1_555
Zn10 Zn8 2.801332 1_565
Zn10 Zn3 2.816726 1_555
Zn11 Zn9 2.521972 1_456
Zn11 Zn7 2.584084 1_555
Zn11 Zn2 2.600059 1_555
Zn11 Zn4 2.660237 1_556
Zn11 Zn8 2.762961 1_555
Zn11 Zn5 2.801331 1_556
Zn11 Zn3 2.816725 1_555
Zn12 Zn8 2.584084 1_555
Zn12 Zn3 2.660237 1_545
Zn12 Zn9 2.679409 1_546
Zn12 Zn2 2.716439 1_645
Zn12 Zn7 2.762960 1_555
Zn12 Zn6 2.801332 1_545
Zn12 Zn4 2.816726 1_555
Co0 Zn0 2.513303 1_555
Co0 Zn0 2.513303 1_655
Co0 Zn11 2.536986 1_554
Co0 Zn9 2.536986 1_545
Co0 Zn12 2.536986 1_554
Co0 Zn10 2.536986 1_545
Co0 Zn3 2.559219 1_544
Co0 Zn4 2.559219 1_555
Co0 Zn5 2.568375 1_545
Co0 Zn7 2.568375 1_554
Co0 Zn6 2.568376 1_545
Co0 Zn8 2.568376 1_554
