# generated using pymatgen
data_Zr(ScRe6)4
_symmetry_space_group_name_H-M   'P 1'
_cell_length_a   8.42214688
_cell_length_b   8.42214657
_cell_length_c   8.42214631
_cell_angle_alpha   109.47415085
_cell_angle_beta   109.47415316
_cell_angle_gamma   109.47415035
_symmetry_Int_Tables_number   1
_chemical_formula_structural   Zr(ScRe6)4
_chemical_formula_sum   'Zr1 Sc4 Re24'
_cell_volume   459.83218188
_cell_formula_units_Z   1
loop_
 _symmetry_equiv_pos_site_id
 _symmetry_equiv_pos_as_xyz
  1  'x, y, z'
loop_
 _atom_site_type_symbol
 _atom_site_label
 _atom_site_symmetry_multiplicity
 _atom_site_fract_x
 _atom_site_fract_y
 _atom_site_fract_z
 _atom_site_occupancy
  Zr  Zr0  1  0.63097549  0.63097549  0.63097549  1
  Sc  Sc0  1  0.00246118  0.00246118  0.00246118  1
  Sc  Sc1  1  0.99958775  0.36864597  0.99958775  1
  Sc  Sc2  1  0.36864597  0.99958775  0.99958775  1
  Sc  Sc3  1  0.99958775  0.99958775  0.36864597  1
  Re  Re0  1  0.00169948  0.60412588  0.32446060  1
  Re  Re1  1  0.60412588  0.00169948  0.32446060  1
  Re  Re2  1  0.32446060  0.00169948  0.60412588  1
  Re  Re3  1  0.27799960  0.67542690  0.67542690  1
  Re  Re4  1  0.67542690  0.27799960  0.67542690  1
  Re  Re5  1  0.00169948  0.32446060  0.60412588  1
  Re  Re6  1  0.39714936  0.72036114  0.39714936  1
  Re  Re7  1  0.72036114  0.39714936  0.39714936  1
  Re  Re8  1  0.32446060  0.60412588  0.00169948  1
  Re  Re9  1  0.60412588  0.32446060  0.00169948  1
  Re  Re10  1  0.67542690  0.67542690  0.27799960  1
  Re  Re11  1  0.39714936  0.39714936  0.72036114  1
  Re  Re12  1  0.62278075  0.00077389  0.80757449  1
  Re  Re13  1  0.00077389  0.62278075  0.80757449  1
  Re  Re14  1  0.80757449  0.00077389  0.62278075  1
  Re  Re15  1  0.81430358  0.19108962  0.19108962  1
  Re  Re16  1  0.19108962  0.81430358  0.19108962  1
  Re  Re17  1  0.00077389  0.80757449  0.62278075  1
  Re  Re18  1  0.37621745  0.18347365  0.37621745  1
  Re  Re19  1  0.18347365  0.37621745  0.37621745  1
  Re  Re20  1  0.80757449  0.62278075  0.00077389  1
  Re  Re21  1  0.62278075  0.80757449  0.00077389  1
  Re  Re22  1  0.19108962  0.19108962  0.81430358  1
  Re  Re23  1  0.37621745  0.37621745  0.18347365  1
loop_
_geom_bond_atom_site_label_1
_geom_bond_atom_site_label_2
_geom_bond_distance
_geom_bond_site_symmetry_2
Sc0 Sc3 3.100282 1_445
Sc0 Sc1 3.100282 1_454
Sc0 Sc2 3.100282 1_544
Sc0 Zr0 3.128254 1_444
Re0 Re17 2.529857 1_555
Re0 Re16 2.752670 1_555
Re0 Re20 2.759456 1_455
Re0 Sc1 2.783141 1_454
Re0 Re3 2.794894 1_555
Re0 Re7 2.820037 1_455
Re0 Re19 2.879309 1_555
Re0 Re15 2.899239 1_455
Re0 Re6 2.914203 1_555
Re0 Re9 2.924451 1_455
Re0 Re2 2.924451 1_565
Re0 Re10 2.933386 1_455
Re0 Sc3 3.232559 1_455
Re1 Re14 2.529857 1_555
Re1 Re15 2.752670 1_555
Re1 Re21 2.759456 1_545
Re1 Sc2 2.783141 1_544
Re1 Re4 2.794894 1_555
Re1 Re6 2.820037 1_545
Re1 Re18 2.879309 1_555
Re1 Re16 2.899239 1_545
Re1 Re7 2.914203 1_555
Re1 Re8 2.924451 1_545
Re1 Re5 2.924451 1_655
Re1 Re10 2.933386 1_545
Re1 Sc3 3.232559 1_545
Re2 Re22 2.752670 1_555
Re2 Sc3 2.783141 1_445
Re2 Re4 2.794894 1_555
Re2 Re6 2.820037 1_545
Re2 Re9 2.924451 1_556
Re2 Re3 2.933386 1_545
Re2 Sc2 3.232559 1_545
Re3 Sc2 2.782233 1_555
Re3 Re5 2.794894 1_555
Re3 Re6 2.923945 1_555
Re3 Re8 2.933385 1_556
Re3 Zr0 3.241703 1_555
Re4 Sc1 2.782233 1_555
Re4 Re7 2.923945 1_555
Re4 Re9 2.933386 1_556
Re4 Re5 2.933386 1_655
Re4 Zr0 3.241703 1_555
Re5 Sc3 2.783141 1_445
Re5 Re7 2.820037 1_455
Re5 Re8 2.924451 1_556
Re5 Sc1 3.232559 1_455
Re6 Zr0 2.777466 1_555
Re6 Re8 2.914203 1_555
Re6 Sc1 3.239667 1_454
Re7 Zr0 2.777466 1_555
Re7 Re9 2.914203 1_555
Re7 Sc2 3.239667 1_544
Re8 Sc1 2.783141 1_454
Re8 Sc2 3.232559 1_554
Re9 Sc2 2.783141 1_544
Re9 Sc1 3.232560 1_554
Re10 Re23 2.534754 1_555
Re10 Re17 2.772265 1_655
Re10 Re14 2.772265 1_565
Re10 Sc3 2.782233 1_555
Re10 Re9 2.794894 1_555
Re10 Re8 2.794894 1_555
Re10 Re21 2.873702 1_555
Re10 Re20 2.873702 1_555
Re10 Re7 2.923945 1_555
Re10 Re6 2.923945 1_555
Re10 Zr0 3.241703 1_555
Re11 Re22 2.544120 1_555
Re11 Re19 2.764139 1_555
Re11 Re18 2.764139 1_555
Re11 Zr0 2.777466 1_555
Re11 Re9 2.820037 1_556
Re11 Re8 2.820037 1_556
Re11 Re21 2.884771 1_556
Re11 Re20 2.884771 1_556
Re11 Re2 2.914203 1_555
Re11 Re5 2.914203 1_555
Re11 Re3 2.923945 1_555
Re11 Re4 2.923945 1_555
Re11 Sc3 3.239667 1_445
Re12 Re2 2.529857 1_555
Re12 Re14 2.541571 1_555
Re12 Re15 2.637089 1_556
Re12 Re21 2.657179 1_546
Re12 Re9 2.759456 1_556
Re12 Re3 2.772266 1_545
Re12 Re4 2.873702 1_555
Re12 Re6 2.884771 1_545
Re12 Sc1 2.994528 1_555
Re12 Zr0 3.006683 1_545
Re12 Sc0 3.061744 1_656
Re12 Sc2 3.082345 1_545
Re13 Re5 2.529857 1_555
Re13 Re17 2.541571 1_555
Re13 Re16 2.637089 1_556
Re13 Re20 2.657179 1_456
Re13 Re8 2.759456 1_556
Re13 Re4 2.772266 1_455
Re13 Re3 2.873702 1_555
Re13 Re7 2.884771 1_455
Re13 Sc2 2.994528 1_555
Re13 Zr0 3.006683 1_455
Re13 Sc0 3.061744 1_566
Re13 Sc1 3.082345 1_455
Re14 Re22 2.637089 1_655
Re14 Re17 2.657179 1_645
Re14 Re5 2.759456 1_655
Re14 Re4 2.873702 1_555
Re14 Re6 2.884771 1_545
Re14 Sc1 2.994528 1_555
Re14 Zr0 3.006683 1_545
Re14 Sc0 3.061744 1_656
Re14 Sc3 3.082345 1_545
Re15 Re19 2.538430 1_655
Re15 Re7 2.544120 1_555
Re15 Re21 2.637089 1_545
Re15 Re9 2.752670 1_555
Re15 Re5 2.899239 1_655
Re15 Sc3 3.000505 1_545
Re15 Sc1 3.000505 1_554
Re15 Sc0 3.038634 1_655
Re15 Sc2 3.079509 1_544
Re16 Re18 2.538430 1_565
Re16 Re6 2.544120 1_555
Re16 Re20 2.637089 1_455
Re16 Re8 2.752670 1_555
Re16 Re2 2.899239 1_565
Re16 Sc2 3.000505 1_554
Re16 Sc3 3.000505 1_455
Re16 Sc0 3.038634 1_565
Re16 Sc1 3.079509 1_454
Re17 Re22 2.637089 1_565
Re17 Re2 2.759456 1_565
Re17 Re3 2.873702 1_555
Re17 Re7 2.884771 1_455
Re17 Sc2 2.994528 1_555
Re17 Zr0 3.006684 1_455
Re17 Sc0 3.061744 1_566
Re17 Sc3 3.082345 1_455
Re18 Re4 2.534754 1_555
Re18 Re23 2.650913 1_555
Re18 Re19 2.650913 1_555
Re18 Re7 2.764140 1_555
Re18 Re2 2.879309 1_555
Re18 Sc2 2.998020 1_544
Re18 Sc3 2.998020 1_445
Re18 Sc0 3.022498 1_555
Re18 Zr0 3.091730 1_555
Re19 Re3 2.534754 1_555
Re19 Re23 2.650913 1_555
Re19 Re6 2.764139 1_555
Re19 Re5 2.879309 1_555
Re19 Sc1 2.998020 1_454
Re19 Sc3 2.998020 1_445
Re19 Sc0 3.022498 1_555
Re19 Zr0 3.091730 1_555
Re20 Re9 2.529857 1_555
Re20 Re21 2.541571 1_555
Re20 Re4 2.772265 1_554
Re20 Sc3 2.994528 1_555
Re20 Zr0 3.006683 1_554
Re20 Sc0 3.061744 1_665
Re20 Sc1 3.082345 1_554
Re21 Re8 2.529857 1_555
Re21 Re3 2.772265 1_554
Re21 Sc3 2.994528 1_555
Re21 Zr0 3.006683 1_554
Re21 Sc0 3.061744 1_665
Re21 Sc2 3.082345 1_554
Re22 Re23 2.538430 1_556
Re22 Re5 2.752670 1_555
Re22 Re8 2.899239 1_556
Re22 Re9 2.899239 1_556
Re22 Sc2 3.000505 1_545
Re22 Sc1 3.000505 1_455
Re22 Sc0 3.038634 1_556
Re22 Sc3 3.079508 1_445
Re23 Re6 2.764139 1_555
Re23 Re7 2.764139 1_555
Re23 Re8 2.879309 1_555
Re23 Re9 2.879309 1_555
Re23 Sc2 2.998020 1_544
Re23 Sc1 2.998020 1_454
Re23 Sc0 3.022498 1_555
Re23 Zr0 3.091730 1_555
