# generated using pymatgen
data_Li2SnSbRh4
_symmetry_space_group_name_H-M   'P 1'
_cell_length_a   7.51564053
_cell_length_b   7.51564123
_cell_length_c   7.51564207
_cell_angle_alpha   33.57496138
_cell_angle_beta   33.57495186
_cell_angle_gamma   33.57496893
_symmetry_Int_Tables_number   1
_chemical_formula_structural   Li2SnSbRh4
_chemical_formula_sum   'Li2 Sn1 Sb1 Rh4'
_cell_volume   115.65039407
_cell_formula_units_Z   1
loop_
 _symmetry_equiv_pos_site_id
 _symmetry_equiv_pos_as_xyz
  1  'x, y, z'
loop_
 _atom_site_type_symbol
 _atom_site_label
 _atom_site_symmetry_multiplicity
 _atom_site_fract_x
 _atom_site_fract_y
 _atom_site_fract_z
 _atom_site_occupancy
  Li  Li0  1  0.24871088  0.24871088  0.24871088  1
  Li  Li1  1  0.75128912  0.75128912  0.75128912  1
  Sn  Sn0  1  0.50000000  0.50000000  0.50000000  1
  Sb  Sb0  1  0.00000000  0.00000000  0.00000000  1
  Rh  Rh0  1  0.62636935  0.62636935  0.62636935  1
  Rh  Rh1  1  0.12359003  0.12359003  0.12359003  1
  Rh  Rh2  1  0.87640997  0.87640997  0.87640997  1
  Rh  Rh3  1  0.37363065  0.37363065  0.37363065  1
loop_
_geom_bond_atom_site_label_1
_geom_bond_atom_site_label_2
_geom_bond_distance
_geom_bond_site_symmetry_2
Li0 Rh2 2.639808 1_445
Li0 Rh2 2.639808 1_544
Li0 Rh2 2.639809 1_454
Li0 Rh3 2.655305 1_555
Li0 Rh1 2.659580 1_555
Li0 Rh0 2.677724 1_554
Li0 Rh0 2.677725 1_455
Li0 Rh0 2.677726 1_545
Li0 Sn0 3.053495 1_455
Li0 Sn0 3.053495 1_554
Li0 Sn0 3.053496 1_545
Li0 Sb0 3.085122 1_655
Li0 Sb0 3.085123 1_556
Li0 Sb0 3.085123 1_565
Li1 Rh1 2.639808 1_665
Li1 Rh1 2.639808 1_566
Li1 Rh1 2.639809 1_656
Li1 Rh0 2.655305 1_555
Li1 Rh2 2.659580 1_555
Li1 Rh3 2.677724 1_556
Li1 Rh3 2.677725 1_655
Li1 Rh3 2.677726 1_565
Li1 Sn0 3.053495 1_655
Li1 Sn0 3.053495 1_556
Li1 Sn0 3.053496 1_565
Li1 Sb0 3.085122 1_566
Li1 Sb0 3.085123 1_665
Li1 Sb0 3.085123 1_656
Rh0 Sb0 2.648812 1_665
Rh0 Sb0 2.648813 1_566
Rh0 Sb0 2.648814 1_656
Rh0 Sn0 2.686118 1_555
Rh1 Sb0 2.627040 1_555
Rh1 Sn0 2.668502 1_554
Rh1 Sn0 2.668503 1_455
Rh1 Sn0 2.668504 1_545
Rh2 Sb0 2.627040 1_666
Rh2 Sn0 2.668502 1_556
Rh2 Sn0 2.668503 1_655
Rh2 Sn0 2.668504 1_565
Rh3 Sb0 2.648812 1_556
Rh3 Sb0 2.648813 1_655
Rh3 Sb0 2.648814 1_565
Rh3 Sn0 2.686118 1_555
