# generated using pymatgen
data_Ag3Pt(NO3)8
_symmetry_space_group_name_H-M   'P 1'
_cell_length_a   7.75091399
_cell_length_b   7.75091297
_cell_length_c   7.75091333
_cell_angle_alpha   90.00791862
_cell_angle_beta   89.99208216
_cell_angle_gamma   89.99207851
_symmetry_Int_Tables_number   1
_chemical_formula_structural   Ag3Pt(NO3)8
_chemical_formula_sum   'Ag3 Pt1 N8 O24'
_cell_volume   465.64896929
_cell_formula_units_Z   1
loop_
 _symmetry_equiv_pos_site_id
 _symmetry_equiv_pos_as_xyz
  1  'x, y, z'
loop_
 _atom_site_type_symbol
 _atom_site_label
 _atom_site_symmetry_multiplicity
 _atom_site_fract_x
 _atom_site_fract_y
 _atom_site_fract_z
 _atom_site_occupancy
  Ag  Ag0  1  0.50000000  0.50000000  0.50000000  1
  Ag  Ag1  1  0.50000000  0.00000000  0.00000000  1
  Ag  Ag2  1  0.00000000  0.50000000  0.00000000  1
  Pt  Pt0  1  0.00000000  0.00000000  0.50000000  1
  N  N0  1  0.69480512  0.12779105  0.31319409  1
  N  N1  1  0.66971724  0.33028276  0.83028276  1
  N  N2  1  0.87220895  0.81319409  0.80519488  1
  N  N3  1  0.81319409  0.69480512  0.37220895  1
  N  N4  1  0.12779105  0.18680591  0.19480512  1
  N  N5  1  0.18680591  0.30519488  0.62779105  1
  N  N6  1  0.33028276  0.66971724  0.16971724  1
  N  N7  1  0.30519488  0.87220895  0.68680591  1
  O  O0  1  0.54711352  0.22536418  0.81306851  1
  O  O1  1  0.57193918  0.22660789  0.29802104  1
  O  O2  1  0.68693149  0.45288648  0.72536418  1
  O  O3  1  0.73928602  0.01980542  0.20482986  1
  O  O4  1  0.70482986  0.73928602  0.48019458  1
  O  O5  1  0.77339211  0.79802104  0.92806082  1
  O  O6  1  0.77463582  0.31306851  0.95288648  1
  O  O7  1  0.78207668  0.14079197  0.45920203  1
  O  O8  1  0.85920803  0.95920203  0.71792332  1
  O  O9  1  0.79802104  0.57193918  0.27339211  1
  O  O10  1  0.98019458  0.70482986  0.76071398  1
  O  O11  1  0.95920203  0.78207668  0.35920803  1
  O  O12  1  0.04079797  0.21792332  0.64079197  1
  O  O13  1  0.01980542  0.29517014  0.23928602  1
  O  O14  1  0.20197896  0.42806082  0.72660789  1
  O  O15  1  0.14079197  0.04079797  0.28207668  1
  O  O16  1  0.22536418  0.68693149  0.04711352  1
  O  O17  1  0.21792332  0.85920803  0.54079797  1
  O  O18  1  0.22660789  0.20197896  0.07193918  1
  O  O19  1  0.29517014  0.26071398  0.51980542  1
  O  O20  1  0.31306851  0.54711352  0.27463582  1
  O  O21  1  0.26071398  0.98019458  0.79517014  1
  O  O22  1  0.42806082  0.77339211  0.70197896  1
  O  O23  1  0.45288648  0.77463582  0.18693149  1
loop_
_geom_bond_atom_site_label_1
_geom_bond_atom_site_label_2
_geom_bond_distance
_geom_bond_site_symmetry_2
Ag0 O2 2.298825 1_555
Ag0 O20 2.298825 1_555
Ag0 O4 2.446381 1_555
Ag0 O19 2.446381 1_555
Ag0 O22 2.692695 1_555
Ag0 O1 2.692695 1_555
Ag1 O0 2.298825 1_554
Ag1 O23 2.298825 1_545
Ag1 O3 2.446381 1_555
Ag1 O21 2.446381 1_544
Ag1 O18 2.692695 1_555
Ag1 O5 2.692695 1_544
Ag2 O6 2.298825 1_454
Ag2 O16 2.298825 1_555
Ag2 O10 2.446381 1_454
Ag2 O13 2.446381 1_555
Ag2 O9 2.692695 1_455
Ag2 O14 2.692695 1_554
N0 O1 1.227697 1_555
N0 O3 1.234717 1_555
N0 O7 1.322365 1_555
N1 O2 1.257932 1_555
N1 O6 1.257932 1_555
N1 O0 1.257932 1_555
N2 O5 1.227697 1_555
N2 O10 1.234717 1_555
N2 O8 1.322365 1_555
N3 O9 1.227697 1_555
N3 O4 1.234717 1_555
N3 O11 1.322365 1_555
N4 O18 1.227697 1_555
N4 O13 1.234717 1_555
N4 O15 1.322365 1_555
N5 O14 1.227697 1_555
N5 O19 1.234717 1_555
N5 O12 1.322365 1_555
N6 O20 1.257932 1_555
N6 O16 1.257932 1_555
N6 O23 1.257932 1_555
N7 O22 1.227697 1_555
N7 O21 1.234717 1_555
N7 O17 1.322365 1_555
O7 Pt0 2.035600 1_655
O8 Pt0 2.035600 1_665
O11 Pt0 2.035600 1_665
O12 Pt0 2.035600 1_555
O15 Pt0 2.035600 1_555
O17 Pt0 2.035600 1_565
