# generated using pymatgen
data_ZnCrRhO4
_symmetry_space_group_name_H-M   'P 1'
_cell_length_a   6.02341840
_cell_length_b   5.95298203
_cell_length_c   5.95303109
_cell_angle_alpha   90.37150384
_cell_angle_beta   59.60805485
_cell_angle_gamma   120.39197498
_symmetry_Int_Tables_number   1
_chemical_formula_structural   ZnCrRhO4
_chemical_formula_sum   'Zn2 Cr2 Rh2 O8'
_cell_volume   149.63225802
_cell_formula_units_Z   2
loop_
 _symmetry_equiv_pos_site_id
 _symmetry_equiv_pos_as_xyz
  1  'x, y, z'
loop_
 _atom_site_type_symbol
 _atom_site_label
 _atom_site_symmetry_multiplicity
 _atom_site_fract_x
 _atom_site_fract_y
 _atom_site_fract_z
 _atom_site_occupancy
  Zn  Zn0  1  0.75004719  0.87076108  0.87066431  1
  Zn  Zn1  1  0.25004887  0.12929000  0.12919066  1
  Cr  Cr0  1  0.99997118  0.50000812  0.00005594  1
  Cr  Cr1  1  0.50001794  0.00000117  0.49996356  1
  Rh  Rh0  1  0.49996205  0.49997569  0.50002839  1
  Rh  Rh1  1  0.99999855  0.49998136  0.50001641  1
  O  O0  1  0.47321519  0.74473455  0.74475273  1
  O  O1  1  0.97323172  0.25526760  0.25527363  1
  O  O2  1  0.51676389  0.25389968  0.72038336  1
  O  O3  1  0.98322869  0.72043304  0.25397312  1
  O  O4  1  0.48325607  0.74604811  0.27954557  1
  O  O5  1  0.01673412  0.27959474  0.74612485  1
  O  O6  1  0.52675334  0.25526551  0.25528119  1
  O  O7  1  0.02676819  0.74473936  0.74474229  1
loop_
_geom_bond_atom_site_label_1
_geom_bond_atom_site_label_2
_geom_bond_distance
_geom_bond_site_symmetry_2
Cr0 O3 1.992686 1_555
Cr0 O5 1.992700 1_654
Cr0 O1 2.000151 1_555
Cr0 O6 2.000155 1_555
Cr0 O0 2.000279 1_654
Cr0 O7 2.000293 1_654
Cr1 O2 1.992583 1_555
Cr1 O4 1.992812 1_545
Cr1 O6 2.000128 1_555
Cr1 O1 2.000144 1_555
Cr1 O7 2.000295 1_545
Cr1 O0 2.000306 1_545
O0 Zn0 1.974011 1_555
O0 Rh0 2.060063 1_555
O1 Zn1 1.974230 1_655
O1 Rh1 2.059960 1_555
O2 Zn1 1.978753 1_556
O2 Rh0 2.046009 1_555
O2 Rh1 2.046018 1_555
O3 Zn1 1.978950 1_665
O3 Rh1 2.046110 1_555
O3 Rh0 2.046121 1_555
O4 Zn0 1.979098 1_554
O4 Rh1 2.046073 1_455
O4 Rh0 2.046079 1_555
O5 Zn0 1.978876 1_445
O5 Rh0 2.045983 1_555
O5 Rh1 2.045987 1_455
O6 Zn1 1.974235 1_555
O6 Rh0 2.059959 1_555
O7 Zn0 1.974000 1_455
O7 Rh1 2.060061 1_455
