# generated using pymatgen
data_Y8Ge(Pd11Pt)2
_symmetry_space_group_name_H-M   'P 1'
_cell_length_a   8.30882689
_cell_length_b   8.29013670
_cell_length_c   8.29013670
_cell_angle_alpha   90.00000000
_cell_angle_beta   90.00000000
_cell_angle_gamma   90.00000000
_symmetry_Int_Tables_number   1
_chemical_formula_structural   Y8Ge(Pd11Pt)2
_chemical_formula_sum   'Y8 Ge1 Pd22 Pt2'
_cell_volume   571.03548247
_cell_formula_units_Z   1
loop_
 _symmetry_equiv_pos_site_id
 _symmetry_equiv_pos_as_xyz
  1  'x, y, z'
loop_
 _atom_site_type_symbol
 _atom_site_label
 _atom_site_symmetry_multiplicity
 _atom_site_fract_x
 _atom_site_fract_y
 _atom_site_fract_z
 _atom_site_occupancy
  Y  Y0  1  0.25312573  0.25361172  0.25361172  1
  Y  Y1  1  0.74687427  0.74638828  0.74638828  1
  Y  Y2  1  0.74687427  0.74638828  0.25361172  1
  Y  Y3  1  0.74687427  0.25361172  0.74638828  1
  Y  Y4  1  0.25312573  0.25361172  0.74638828  1
  Y  Y5  1  0.25312573  0.74638828  0.25361172  1
  Y  Y6  1  0.25312573  0.74638828  0.74638828  1
  Y  Y7  1  0.74687427  0.25361172  0.25361172  1
  Ge  Ge0  1  0.00000000  0.00000000  0.00000000  1
  Pd  Pd0  1  0.26005011  0.50000000  0.00000000  1
  Pd  Pd1  1  0.73994989  0.50000000  0.00000000  1
  Pd  Pd2  1  0.00000000  0.25981549  0.50000000  1
  Pd  Pd3  1  0.50000000  0.25981037  0.00000000  1
  Pd  Pd4  1  0.00000000  0.74018451  0.50000000  1
  Pd  Pd5  1  0.50000000  0.74018963  0.00000000  1
  Pd  Pd6  1  0.50000000  0.00000000  0.25981037  1
  Pd  Pd7  1  0.26005011  0.00000000  0.50000000  1
  Pd  Pd8  1  0.50000000  0.00000000  0.74018963  1
  Pd  Pd9  1  0.73994989  0.00000000  0.50000000  1
  Pd  Pd10  1  0.00000000  0.50000000  0.25981549  1
  Pd  Pd11  1  0.00000000  0.50000000  0.74018451  1
  Pd  Pd12  1  0.50000000  0.25299183  0.50000000  1
  Pd  Pd13  1  0.50000000  0.74700817  0.50000000  1
  Pd  Pd14  1  0.50000000  0.50000000  0.25299183  1
  Pd  Pd15  1  0.50000000  0.50000000  0.74700817  1
  Pd  Pd16  1  0.28942354  0.00000000  0.00000000  1
  Pd  Pd17  1  0.71057646  0.00000000  0.00000000  1
  Pd  Pd18  1  0.00000000  0.28944013  0.00000000  1
  Pd  Pd19  1  0.00000000  0.71055987  0.00000000  1
  Pd  Pd20  1  0.00000000  0.00000000  0.28944013  1
  Pd  Pd21  1  0.00000000  0.00000000  0.71055987  1
  Pt  Pt0  1  0.25275827  0.50000000  0.50000000  1
  Pt  Pt1  1  0.74724173  0.50000000  0.50000000  1
loop_
_geom_bond_atom_site_label_1
_geom_bond_atom_site_label_2
_geom_bond_distance
_geom_bond_site_symmetry_2
Ge0 Pd19 2.399498 1_545
Ge0 Pd21 2.399498 1_554
Ge0 Pd18 2.399498 1_555
Ge0 Pd20 2.399498 1_555
Ge0 Pd16 2.404770 1_555
Ge0 Pd17 2.404770 1_455
Pd0 Pd14 2.893729 1_555
Pd0 Pd15 2.893729 1_554
Pd0 Y5 2.931876 1_555
Pd0 Y6 2.931876 1_554
Pd0 Y0 2.931876 1_555
Pd0 Y4 2.931876 1_554
Pd0 Pd10 3.050899 1_555
Pd0 Pd11 3.050899 1_554
Pd1 Pd14 2.893729 1_555
Pd1 Pd15 2.893729 1_554
Pd1 Y2 2.931876 1_555
Pd1 Y7 2.931876 1_555
Pd1 Y1 2.931876 1_554
Pd1 Y3 2.931876 1_554
Pd1 Pd10 3.050899 1_655
Pd1 Pd11 3.050899 1_654
Pd2 Pd20 2.772422 1_555
Pd2 Pd21 2.772422 1_555
Pd2 Pt0 2.894003 1_555
Pd2 Pt1 2.894003 1_455
Pd2 Y4 2.932266 1_555
Pd2 Y0 2.932266 1_555
Pd2 Y3 2.932266 1_455
Pd2 Y7 2.932266 1_455
Pd2 Pd7 3.050899 1_555
Pd2 Pd9 3.050899 1_455
Pd3 Y7 2.937790 1_555
Pd3 Y0 2.937790 1_555
Pd3 Y3 2.937790 1_554
Pd3 Y4 2.937790 1_554
Pd4 Pt0 2.894003 1_555
Pd4 Pt1 2.894003 1_455
Pd4 Y6 2.932266 1_555
Pd4 Y5 2.932266 1_555
Pd4 Y1 2.932266 1_455
Pd4 Y2 2.932266 1_455
Pd4 Pd7 3.050899 1_565
Pd4 Pd9 3.050899 1_465
Pd5 Y2 2.937790 1_555
Pd5 Y1 2.937790 1_554
Pd5 Y5 2.937790 1_555
Pd5 Y6 2.937790 1_554
Pd6 Y7 2.937790 1_555
Pd6 Y2 2.937790 1_545
Pd6 Y0 2.937790 1_555
Pd6 Y5 2.937790 1_545
Pd7 Y4 2.931876 1_555
Pd7 Y6 2.931876 1_545
Pd7 Y0 2.931876 1_555
Pd7 Y5 2.931876 1_545
Pd8 Y3 2.937790 1_555
Pd8 Y4 2.937790 1_555
Pd8 Y1 2.937790 1_545
Pd8 Y6 2.937790 1_545
Pd9 Y3 2.931876 1_555
Pd9 Y7 2.931876 1_555
Pd9 Y1 2.931876 1_545
Pd9 Y2 2.931876 1_545
Pd10 Pd18 2.772422 1_555
Pd10 Pd19 2.772422 1_555
Pd10 Pd4 2.815929 1_555
Pd10 Pd2 2.815929 1_555
Pd10 Pt0 2.894003 1_555
Pd10 Pt1 2.894003 1_455
Pd10 Y5 2.932266 1_555
Pd10 Y2 2.932266 1_455
Pd10 Y0 2.932266 1_555
Pd10 Y7 2.932266 1_455
Pd11 Pd18 2.772422 1_556
Pd11 Pd19 2.772422 1_556
Pd11 Pd4 2.815929 1_555
Pd11 Pd2 2.815929 1_555
Pd11 Pt0 2.894003 1_555
Pd11 Pt1 2.894003 1_455
Pd11 Y6 2.932266 1_555
Pd11 Y1 2.932266 1_455
Pd11 Y4 2.932266 1_555
Pd11 Y3 2.932266 1_455
Pd12 Pd8 2.892009 1_555
Pd12 Pd6 2.892009 1_555
Pd12 Pd9 2.893729 1_555
Pd12 Pd7 2.893729 1_555
Pd12 Y3 2.894785 1_555
Pd12 Y4 2.894785 1_555
Pd12 Y7 2.894785 1_555
Pd12 Y0 2.894785 1_555
Pd12 Pd15 2.895930 1_555
Pd12 Pd14 2.895930 1_555
Pd12 Pt1 2.900570 1_555
Pd12 Pt0 2.900570 1_555
Pd13 Pd8 2.892009 1_565
Pd13 Pd6 2.892009 1_565
Pd13 Pd9 2.893729 1_565
Pd13 Pd7 2.893729 1_565
Pd13 Y1 2.894785 1_555
Pd13 Y6 2.894785 1_555
Pd13 Y2 2.894785 1_555
Pd13 Y5 2.894785 1_555
Pd13 Pd15 2.895930 1_555
Pd13 Pd14 2.895930 1_555
Pd13 Pt1 2.900570 1_555
Pd13 Pt0 2.900570 1_555
Pd14 Pd5 2.892009 1_555
Pd14 Pd3 2.892009 1_555
Pd14 Y2 2.894785 1_555
Pd14 Y5 2.894785 1_555
Pd14 Y7 2.894785 1_555
Pd14 Y0 2.894785 1_555
Pd14 Pt1 2.900570 1_555
Pd14 Pt0 2.900570 1_555
Pd15 Pd5 2.892009 1_556
Pd15 Pd3 2.892009 1_556
Pd15 Y1 2.894785 1_555
Pd15 Y6 2.894785 1_555
Pd15 Y3 2.894785 1_555
Pd15 Y4 2.894785 1_555
Pd15 Pt1 2.900570 1_555
Pd15 Pt0 2.900570 1_555
Pd16 Y0 2.988606 1_555
Pd16 Y5 2.988606 1_545
Pd16 Y4 2.988606 1_554
Pd16 Y6 2.988606 1_544
Pd17 Y7 2.988606 1_555
Pd17 Y3 2.988606 1_554
Pd17 Y2 2.988606 1_545
Pd17 Y1 2.988606 1_544
Pd18 Y0 2.988642 1_555
Pd18 Y7 2.988642 1_455
Pd18 Y4 2.988642 1_554
Pd18 Y3 2.988642 1_454
Pd19 Y5 2.988642 1_555
Pd19 Y6 2.988642 1_554
Pd19 Y2 2.988642 1_455
Pd19 Y1 2.988642 1_454
Pd20 Pd4 2.772422 1_545
Pd20 Y0 2.988642 1_555
Pd20 Y5 2.988642 1_545
Pd20 Y7 2.988642 1_455
Pd20 Y2 2.988642 1_445
Pd21 Pd4 2.772422 1_545
Pd21 Y4 2.988642 1_555
Pd21 Y6 2.988642 1_545
Pd21 Y3 2.988642 1_455
Pd21 Y1 2.988642 1_445
Pt0 Y6 2.888664 1_555
Pt0 Y4 2.888664 1_555
Pt0 Y5 2.888664 1_555
Pt0 Y0 2.888664 1_555
Pt1 Y1 2.888664 1_555
Pt1 Y3 2.888664 1_555
Pt1 Y2 2.888664 1_555
Pt1 Y7 2.888664 1_555
