# generated using pymatgen
data_Ta3CrPb4O13
_symmetry_space_group_name_H-M   'P 1'
_cell_length_a   7.40546317
_cell_length_b   7.40546431
_cell_length_c   7.40546232
_cell_angle_alpha   60.50187802
_cell_angle_beta   60.50187317
_cell_angle_gamma   60.50187529
_symmetry_Int_Tables_number   1
_chemical_formula_structural   Ta3CrPb4O13
_chemical_formula_sum   'Ta3 Cr1 Pb4 O13'
_cell_volume   290.42889672
_cell_formula_units_Z   1
loop_
 _symmetry_equiv_pos_site_id
 _symmetry_equiv_pos_as_xyz
  1  'x, y, z'
loop_
 _atom_site_type_symbol
 _atom_site_label
 _atom_site_symmetry_multiplicity
 _atom_site_fract_x
 _atom_site_fract_y
 _atom_site_fract_z
 _atom_site_occupancy
  Ta  Ta0  1  0.00118289  0.50060428  0.50060428  1
  Ta  Ta1  1  0.50060428  0.50060428  0.00118289  1
  Ta  Ta2  1  0.50060428  0.00118289  0.50060428  1
  Cr  Cr0  1  0.49963737  0.49963737  0.49963737  1
  Pb  Pb0  1  0.00082406  0.00082406  0.00082406  1
  Pb  Pb1  1  0.50542802  0.00300701  0.00300701  1
  Pb  Pb2  1  0.00300701  0.00300701  0.50542802  1
  Pb  Pb3  1  0.00300701  0.50542802  0.00300701  1
  O  O0  1  0.82521797  0.42669032  0.42669032  1
  O  O1  1  0.42933334  0.81865224  0.81865224  1
  O  O2  1  0.42669032  0.42669032  0.82521797  1
  O  O3  1  0.81865224  0.81865224  0.42933334  1
  O  O4  1  0.81865224  0.42933334  0.81865224  1
  O  O5  1  0.42669032  0.82521797  0.42669032  1
  O  O6  1  0.18491107  0.56242067  0.56242067  1
  O  O7  1  0.56674303  0.18160181  0.18160181  1
  O  O8  1  0.56242067  0.56242067  0.18491107  1
  O  O9  1  0.18160181  0.18160181  0.56674303  1
  O  O10  1  0.18160181  0.56674303  0.18160181  1
  O  O11  1  0.56242067  0.18491107  0.56242067  1
  O  O12  1  0.12576560  0.12576560  0.12576560  1
loop_
_geom_bond_atom_site_label_1
_geom_bond_atom_site_label_2
_geom_bond_distance
_geom_bond_site_symmetry_2
Cr0 O8 1.985712 1_555
Cr0 O6 1.985712 1_555
Cr0 O11 1.985713 1_555
Cr0 O2 2.029526 1_555
Cr0 O0 2.029527 1_555
Cr0 O5 2.029527 1_555
O0 Ta0 1.999300 1_655
O0 Pb3 2.608457 1_655
O0 Pb2 2.608458 1_655
O1 Ta2 1.999056 1_565
O1 Ta1 1.999056 1_556
O1 Pb0 2.659017 1_566
O1 Pb1 2.719566 1_566
O2 Ta1 1.999300 1_556
O2 Pb3 2.608457 1_556
O2 Pb1 2.608458 1_556
O3 Ta2 1.999056 1_565
O3 Ta0 1.999056 1_655
O3 Pb0 2.659016 1_665
O3 Pb2 2.719566 1_665
O4 Ta0 1.999056 1_655
O4 Ta1 1.999056 1_556
O4 Pb0 2.659017 1_656
O4 Pb3 2.719566 1_656
O5 Ta2 1.999300 1_565
O5 Pb1 2.608457 1_565
O5 Pb2 2.608457 1_565
O6 Ta0 1.924438 1_555
O6 Pb3 2.741115 1_556
O6 Pb2 2.741116 1_565
O7 Ta2 2.000611 1_555
O7 Ta1 2.000612 1_555
O7 Pb1 2.570994 1_555
O7 Pb0 2.684557 1_655
O8 Ta1 1.924438 1_555
O8 Pb3 2.741115 1_655
O8 Pb1 2.741116 1_565
O9 Ta2 2.000611 1_555
O9 Ta0 2.000611 1_555
O9 Pb2 2.570994 1_555
O9 Pb0 2.684557 1_556
O10 Ta0 2.000611 1_555
O10 Ta1 2.000611 1_555
O10 Pb3 2.570994 1_555
O10 Pb0 2.684558 1_565
O11 Ta2 1.924439 1_555
O11 Pb1 2.741115 1_556
O11 Pb2 2.741116 1_655
O12 Pb0 2.257756 1_555
O12 Pb2 2.310308 1_555
O12 Pb1 2.310308 1_555
O12 Pb3 2.310309 1_555
