# generated using pymatgen
data_Cs2KCrO4
_symmetry_space_group_name_H-M   'P 1'
_cell_length_a   6.35761085
_cell_length_b   6.59031474
_cell_length_c   8.25667551
_cell_angle_alpha   87.44752780
_cell_angle_beta   90.00000000
_cell_angle_gamma   90.00000000
_symmetry_Int_Tables_number   1
_chemical_formula_structural   Cs2KCrO4
_chemical_formula_sum   'Cs4 K2 Cr2 O8'
_cell_volume   345.60038536
_cell_formula_units_Z   2
loop_
 _symmetry_equiv_pos_site_id
 _symmetry_equiv_pos_as_xyz
  1  'x, y, z'
loop_
 _atom_site_type_symbol
 _atom_site_label
 _atom_site_symmetry_multiplicity
 _atom_site_fract_x
 _atom_site_fract_y
 _atom_site_fract_z
 _atom_site_occupancy
  Cs  Cs0  1  0.75000000  0.18473902  0.51419380  1
  Cs  Cs1  1  0.25000000  0.81526098  0.48580620  1
  Cs  Cs2  1  0.25000000  0.40063522  0.17283021  1
  Cs  Cs3  1  0.75000000  0.59936478  0.82716979  1
  K  K0  1  0.25000000  0.88983341  0.96105524  1
  K  K1  1  0.75000000  0.11016659  0.03894476  1
  Cr  Cr0  1  0.75000000  0.68212278  0.26511535  1
  Cr  Cr1  1  0.25000000  0.31787722  0.73488465  1
  O  O0  1  0.97055722  0.80092547  0.18626898  1
  O  O1  1  0.47055722  0.19907453  0.81373102  1
  O  O2  1  0.02944278  0.19907453  0.81373102  1
  O  O3  1  0.52944278  0.80092547  0.18626898  1
  O  O4  1  0.25000000  0.56058625  0.79892225  1
  O  O5  1  0.25000000  0.29893067  0.53091911  1
  O  O6  1  0.75000000  0.43941375  0.20107775  1
  O  O7  1  0.75000000  0.70106933  0.46908089  1
loop_
_geom_bond_atom_site_label_1
_geom_bond_atom_site_label_2
_geom_bond_distance
_geom_bond_site_symmetry_2
Cs0 O6 3.018984 1_555
Cs0 O2 3.050021 1_655
Cs0 O1 3.050021 1_555
Cs0 O7 3.225659 1_545
Cs0 O5 3.271005 1_655
Cs0 O5 3.271005 1_555
Cs0 O7 3.406576 1_555
Cs1 O4 3.018984 1_555
Cs1 O3 3.050021 1_555
Cs1 O0 3.050021 1_455
Cs1 O5 3.225659 1_565
Cs1 O7 3.271005 1_555
Cs1 O7 3.271005 1_455
Cs1 O5 3.406576 1_555
Cs2 O5 3.002394 1_555
Cs2 O3 3.186518 1_555
Cs2 O0 3.186518 1_455
Cs2 O6 3.198409 1_555
Cs2 O6 3.198409 1_455
Cs2 O4 3.217508 1_554
Cs3 O7 3.002394 1_555
Cs3 O2 3.186518 1_655
Cs3 O1 3.186518 1_555
Cs3 O4 3.198409 1_555
Cs3 O4 3.198409 1_655
Cs3 O6 3.217508 1_556
K0 O4 2.599807 1_555
K0 O3 2.619225 1_556
K0 O0 2.619225 1_456
K0 O1 2.716337 1_565
K0 O2 2.716337 1_565
K1 O6 2.599807 1_555
K1 O2 2.619225 1_654
K1 O1 2.619225 1_554
K1 O0 2.716337 1_545
K1 O3 2.716337 1_545
Cr0 O7 1.694236 1_555
Cr0 O6 1.706864 1_555
Cr0 O0 1.719777 1_555
Cr0 O3 1.719777 1_555
Cr1 O5 1.694236 1_555
Cr1 O4 1.706864 1_555
Cr1 O1 1.719777 1_555
Cr1 O2 1.719777 1_555
