# generated using pymatgen
data_TiHgTeO6
_symmetry_space_group_name_H-M   'P 1'
_cell_length_a   5.19731349
_cell_length_b   5.19729338
_cell_length_c   4.91082192
_cell_angle_alpha   90.01392643
_cell_angle_beta   89.99328217
_cell_angle_gamma   120.00001420
_symmetry_Int_Tables_number   1
_chemical_formula_structural   TiHgTeO6
_chemical_formula_sum   'Ti1 Hg1 Te1 O6'
_cell_volume   114.87906418
_cell_formula_units_Z   1
loop_
 _symmetry_equiv_pos_site_id
 _symmetry_equiv_pos_as_xyz
  1  'x, y, z'
loop_
 _atom_site_type_symbol
 _atom_site_label
 _atom_site_symmetry_multiplicity
 _atom_site_fract_x
 _atom_site_fract_y
 _atom_site_fract_z
 _atom_site_occupancy
  Ti  Ti0  1  0.66665868  0.33332905  0.50000666  1
  Hg  Hg0  1  0.99999862  0.99999914  0.00000243  1
  Te  Te0  1  0.33333863  0.66667019  0.49999441  1
  O  O0  1  0.37154126  0.99380144  0.28481389  1
  O  O1  1  0.00615661  0.37765596  0.28481351  1
  O  O2  1  0.62230508  0.62840930  0.28480920  1
  O  O3  1  0.62230470  0.99389283  0.71518792  1
  O  O4  1  0.37153980  0.37774075  0.71518409  1
  O  O5  1  0.00615961  0.62850233  0.71518388  1
loop_
_geom_bond_atom_site_label_1
_geom_bond_atom_site_label_2
_geom_bond_distance
_geom_bond_site_symmetry_2
Hg0 O1 2.397014 1_665
Hg0 O5 2.397034 1_654
Hg0 O2 2.397688 1_555
Hg0 O3 2.397700 1_554
Hg0 O0 2.397705 1_655
Hg0 O4 2.397731 1_664
O0 Te0 1.926132 1_555
O0 Ti0 1.968788 1_565
O1 Te0 1.926112 1_555
O1 Ti0 1.968860 1_455
O2 Te0 1.926125 1_555
O2 Ti0 1.968837 1_555
O3 Te0 1.926125 1_555
O3 Ti0 1.968804 1_565
O4 Te0 1.926156 1_555
O4 Ti0 1.968768 1_555
O5 Te0 1.926132 1_555
O5 Ti0 1.968819 1_455
