# generated using pymatgen
data_RbBiSb2Se5
_symmetry_space_group_name_H-M   'P 1'
_cell_length_a   4.09826356
_cell_length_b   12.38067388
_cell_length_c   22.13506689
_cell_angle_alpha   90.00000000
_cell_angle_beta   90.00000000
_cell_angle_gamma   90.00000000
_symmetry_Int_Tables_number   1
_chemical_formula_structural   RbBiSb2Se5
_chemical_formula_sum   'Rb4 Bi4 Sb8 Se20'
_cell_volume   1123.11701620
_cell_formula_units_Z   4
loop_
 _symmetry_equiv_pos_site_id
 _symmetry_equiv_pos_as_xyz
  1  'x, y, z'
loop_
 _atom_site_type_symbol
 _atom_site_label
 _atom_site_symmetry_multiplicity
 _atom_site_fract_x
 _atom_site_fract_y
 _atom_site_fract_z
 _atom_site_occupancy
  Rb  Rb0  1  0.25000000  0.49063041  0.21067766  1
  Rb  Rb1  1  0.75000000  0.50936959  0.78932234  1
  Rb  Rb2  1  0.75000000  0.99063041  0.28932234  1
  Rb  Rb3  1  0.25000000  0.00936959  0.71067766  1
  Bi  Bi0  1  0.25000000  0.59265939  0.42906545  1
  Bi  Bi1  1  0.75000000  0.40734061  0.57093455  1
  Bi  Bi2  1  0.75000000  0.09265939  0.07093455  1
  Bi  Bi3  1  0.25000000  0.90734061  0.92906545  1
  Sb  Sb0  1  0.25000000  0.37144615  0.02698725  1
  Sb  Sb1  1  0.75000000  0.62855385  0.97301275  1
  Sb  Sb2  1  0.75000000  0.87144615  0.47301275  1
  Sb  Sb3  1  0.25000000  0.12855385  0.52698725  1
  Sb  Sb4  1  0.25000000  0.81050889  0.12862832  1
  Sb  Sb5  1  0.75000000  0.18949111  0.87137168  1
  Sb  Sb6  1  0.75000000  0.31050889  0.37137168  1
  Sb  Sb7  1  0.25000000  0.68949111  0.62862832  1
  Se  Se0  1  0.25000000  0.81282808  0.38793890  1
  Se  Se1  1  0.75000000  0.18717192  0.61206110  1
  Se  Se2  1  0.75000000  0.31282808  0.11206110  1
  Se  Se3  1  0.25000000  0.68717192  0.88793890  1
  Se  Se4  1  0.25000000  0.25369212  0.29758317  1
  Se  Se5  1  0.75000000  0.74630788  0.70241683  1
  Se  Se6  1  0.75000000  0.75369212  0.20241683  1
  Se  Se7  1  0.25000000  0.24630788  0.79758317  1
  Se  Se8  1  0.25000000  0.36466613  0.47920682  1
  Se  Se9  1  0.75000000  0.63533387  0.52079318  1
  Se  Se10  1  0.75000000  0.86466613  0.02079318  1
  Se  Se11  1  0.25000000  0.13533387  0.97920682  1
  Se  Se12  1  0.25000000  0.01832775  0.15959151  1
  Se  Se13  1  0.75000000  0.98167225  0.84040849  1
  Se  Se14  1  0.75000000  0.51832775  0.34040849  1
  Se  Se15  1  0.25000000  0.48167225  0.65959151  1
  Se  Se16  1  0.25000000  0.57707901  0.06262823  1
  Se  Se17  1  0.75000000  0.42292099  0.93737177  1
  Se  Se18  1  0.75000000  0.07707901  0.43737177  1
  Se  Se19  1  0.25000000  0.92292099  0.56262823  1
loop_
_geom_bond_atom_site_label_1
_geom_bond_atom_site_label_2
_geom_bond_distance
_geom_bond_site_symmetry_2
Rb0 Se16 3.447435 1_555
Rb0 Se4 3.507938 1_555
Rb0 Se14 3.544378 1_455
Rb0 Se14 3.544378 1_555
Rb0 Se2 3.716141 1_555
Rb0 Se2 3.716141 1_455
Rb0 Se6 3.852227 1_455
Rb0 Se6 3.852227 1_555
Rb1 Se17 3.447435 1_555
Rb1 Se5 3.507938 1_555
Rb1 Se15 3.544378 1_555
Rb1 Se15 3.544378 1_655
Rb1 Se3 3.716141 1_555
Rb1 Se3 3.716141 1_655
Rb1 Se7 3.852227 1_555
Rb1 Se7 3.852227 1_655
Rb2 Se18 3.447435 1_565
Rb2 Se6 3.507938 1_555
Rb2 Se12 3.544378 1_665
Rb2 Se12 3.544378 1_565
Rb2 Se0 3.716141 1_655
Rb2 Se0 3.716141 1_555
Rb2 Se4 3.852227 1_565
Rb2 Se4 3.852227 1_665
Rb3 Se19 3.447435 1_545
Rb3 Se7 3.507938 1_555
Rb3 Se13 3.544378 1_545
Rb3 Se13 3.544378 1_445
Rb3 Se1 3.716141 1_455
Rb3 Se1 3.716141 1_555
Rb3 Se5 3.852227 1_545
Rb3 Se5 3.852227 1_445
Bi0 Se0 2.873831 1_555
Bi0 Se9 2.932679 1_555
Bi0 Se9 2.932679 1_455
Bi0 Se14 2.982779 1_455
Bi0 Se14 2.982779 1_555
Bi0 Se8 3.033073 1_555
Bi1 Se1 2.873831 1_555
Bi1 Se8 2.932679 1_555
Bi1 Se8 2.932679 1_655
Bi1 Se15 2.982779 1_655
Bi1 Se15 2.982779 1_555
Bi1 Se9 3.033073 1_555
Bi2 Se2 2.873831 1_555
Bi2 Se11 2.932679 1_554
Bi2 Se11 2.932679 1_654
Bi2 Se12 2.982779 1_555
Bi2 Se12 2.982779 1_655
Bi2 Se10 3.033073 1_545
Bi3 Se3 2.873831 1_555
Bi3 Se10 2.932679 1_456
Bi3 Se10 2.932679 1_556
Bi3 Se13 2.982779 1_455
Bi3 Se13 2.982779 1_555
Bi3 Se11 3.033073 1_565
Sb0 Se16 2.665307 1_555
Sb0 Se2 2.876065 1_455
Sb0 Se2 2.876065 1_555
Sb0 Se17 2.922316 1_554
Sb0 Se17 2.922316 1_454
Sb0 Se11 3.108671 1_554
Sb1 Se17 2.665307 1_555
Sb1 Se3 2.876065 1_555
Sb1 Se3 2.876065 1_655
Sb1 Se16 2.922316 1_556
Sb1 Se16 2.922316 1_656
Sb1 Se10 3.108671 1_556
Sb2 Se18 2.665307 1_565
Sb2 Se0 2.876065 1_555
Sb2 Se0 2.876065 1_655
Sb2 Se19 2.922316 1_655
Sb2 Se19 2.922316 1_555
Sb2 Se9 3.108671 1_555
Sb3 Se19 2.665307 1_545
Sb3 Se1 2.876065 1_455
Sb3 Se1 2.876065 1_555
Sb3 Se18 2.922316 1_555
Sb3 Se18 2.922316 1_455
Sb3 Se8 3.108671 1_555
Sb4 Se12 2.662657 1_565
Sb4 Se6 2.713202 1_455
Sb4 Se6 2.713202 1_555
Sb4 Se10 3.216518 1_555
Sb4 Se10 3.216518 1_455
Sb4 Se16 3.238285 1_555
Sb5 Se13 2.662657 1_545
Sb5 Se7 2.713202 1_555
Sb5 Se7 2.713202 1_655
Sb5 Se11 3.216518 1_655
Sb5 Se11 3.216518 1_555
Sb5 Se17 3.238285 1_555
Sb6 Se14 2.662657 1_555
Sb6 Se4 2.713202 1_555
Sb6 Se4 2.713202 1_655
Sb6 Se8 3.216518 1_555
Sb6 Se8 3.216518 1_655
Sb6 Se18 3.238285 1_555
Sb7 Se15 2.662657 1_555
Sb7 Se5 2.713202 1_555
Sb7 Se5 2.713202 1_455
Sb7 Se9 3.216518 1_455
Sb7 Se9 3.216518 1_555
Sb7 Se19 3.238285 1_555
