# generated using pymatgen
data_Nb4Si3AsRu4
_symmetry_space_group_name_H-M   'P 1'
_cell_length_a   3.85333518
_cell_length_b   6.39446123
_cell_length_c   7.29343030
_cell_angle_alpha   89.64782933
_cell_angle_beta   90.00000000
_cell_angle_gamma   90.00000000
_symmetry_Int_Tables_number   1
_chemical_formula_structural   Nb4Si3AsRu4
_chemical_formula_sum   'Nb4 Si3 As1 Ru4'
_cell_volume   179.70674568
_cell_formula_units_Z   1
loop_
 _symmetry_equiv_pos_site_id
 _symmetry_equiv_pos_as_xyz
  1  'x, y, z'
loop_
 _atom_site_type_symbol
 _atom_site_label
 _atom_site_symmetry_multiplicity
 _atom_site_fract_x
 _atom_site_fract_y
 _atom_site_fract_z
 _atom_site_occupancy
  Nb  Nb0  1  0.25000000  0.01664656  0.82171137  1
  Nb  Nb1  1  0.25000000  0.52787563  0.68281516  1
  Nb  Nb2  1  0.75000000  0.97834813  0.17784254  1
  Nb  Nb3  1  0.75000000  0.48125519  0.31721383  1
  Si  Si0  1  0.25000000  0.27359913  0.12189008  1
  Si  Si1  1  0.25000000  0.77465994  0.37631929  1
  Si  Si2  1  0.75000000  0.72485812  0.88012720  1
  As  As0  1  0.75000000  0.23037384  0.62258661  1
  Ru  Ru0  1  0.25000000  0.14587941  0.43296760  1
  Ru  Ru1  1  0.25000000  0.64842295  0.06356009  1
  Ru  Ru2  1  0.75000000  0.84635276  0.56153723  1
  Ru  Ru3  1  0.75000000  0.35173033  0.94142698  1
loop_
_geom_bond_atom_site_label_1
_geom_bond_atom_site_label_2
_geom_bond_distance
_geom_bond_site_symmetry_2
Nb0 Si2 2.713875 1_445
Nb0 Si2 2.713875 1_545
Nb0 Si0 2.745376 1_556
Nb0 Ru2 2.919585 1_445
Nb0 Ru2 2.919585 1_545
Nb0 Ru1 2.933328 1_546
Nb0 Ru0 2.948369 1_555
Nb0 Ru3 3.014713 1_555
Nb0 Ru3 3.014713 1_455
Nb1 Si2 2.718800 1_455
Nb1 Si2 2.718800 1_555
Nb1 Si1 2.728356 1_555
Nb1 Ru1 2.886499 1_556
Nb1 Ru3 2.917573 1_455
Nb1 Ru3 2.917573 1_555
Nb1 Ru2 2.935914 1_455
Nb1 Ru2 2.935914 1_555
Nb1 Ru0 3.056450 1_555
Nb2 Si2 2.717631 1_554
Nb2 Si0 2.726453 1_565
Nb2 Si0 2.726453 1_665
Nb2 Si1 2.735104 1_655
Nb2 Si1 2.735104 1_555
Nb2 Ru0 2.889034 1_565
Nb2 Ru0 2.889034 1_665
Nb2 Ru2 2.917994 1_555
Nb2 Ru3 2.936505 1_564
Nb2 Ru1 2.979801 1_655
Nb2 Ru1 2.979801 1_555
Nb3 Si1 2.725402 1_555
Nb3 Si1 2.725402 1_655
Nb3 Si0 2.743704 1_555
Nb3 Si0 2.743704 1_655
Nb3 Ru3 2.868055 1_554
Nb3 Ru1 2.872788 1_555
Nb3 Ru1 2.872788 1_655
Nb3 Ru2 2.945653 1_555
Nb3 Ru0 3.000270 1_555
Nb3 Ru0 3.000270 1_655
As0 Ru0 2.434290 1_555
As0 Ru0 2.434290 1_655
As0 Ru3 2.456022 1_555
As0 Ru2 2.498341 1_545
As0 Nb3 2.736820 1_555
As0 Nb1 2.744862 1_555
As0 Nb1 2.744862 1_655
As0 Nb0 2.768505 1_555
As0 Nb0 2.768505 1_655
Ru0 Si0 2.406610 1_555
Ru0 Si1 2.411937 1_545
Ru1 Si2 2.394317 1_454
Ru1 Si2 2.394317 1_554
Ru1 Si1 2.424375 1_555
Ru1 Si0 2.431684 1_555
Ru2 Si1 2.398893 1_555
Ru2 Si1 2.398893 1_655
Ru2 Si2 2.445517 1_555
Ru3 Si0 2.384521 1_656
Ru3 Si0 2.384521 1_556
Ru3 Si2 2.424775 1_555
