# generated using pymatgen
data_SrCO3
_symmetry_space_group_name_H-M   'P 1'
_cell_length_a   6.91629530
_cell_length_b   6.91629530
_cell_length_c   6.91629501
_cell_angle_alpha   44.68017163
_cell_angle_beta   44.68017163
_cell_angle_gamma   44.68016882
_symmetry_Int_Tables_number   1
_chemical_formula_structural   SrCO3
_chemical_formula_sum   'Sr2 C2 O6'
_cell_volume   148.78143430
_cell_formula_units_Z   2
loop_
 _symmetry_equiv_pos_site_id
 _symmetry_equiv_pos_as_xyz
  1  'x, y, z'
loop_
 _atom_site_type_symbol
 _atom_site_label
 _atom_site_symmetry_multiplicity
 _atom_site_fract_x
 _atom_site_fract_y
 _atom_site_fract_z
 _atom_site_occupancy
  Sr  Sr0  1  0.00000000  0.00000000  0.00000000  1
  Sr  Sr1  1  0.50000000  0.50000000  0.50000000  1
  C  C0  1  0.75000000  0.75000000  0.75000000  1
  C  C1  1  0.25000000  0.25000000  0.25000000  1
  O  O0  1  0.00263000  0.49737000  0.25000000  1
  O  O1  1  0.75000000  0.99737000  0.50263000  1
  O  O2  1  0.99737000  0.50263000  0.75000000  1
  O  O3  1  0.25000000  0.00263000  0.49737000  1
  O  O4  1  0.50263000  0.75000000  0.99737000  1
  O  O5  1  0.49737000  0.25000000  0.00263000  1
loop_
_geom_bond_atom_site_label_1
_geom_bond_atom_site_label_2
_geom_bond_distance
_geom_bond_site_symmetry_2
C0 O2 1.300625 1_555
C0 O4 1.300625 1_555
C0 O1 1.300625 1_555
C1 O0 1.300625 1_555
C1 O5 1.300625 1_555
C1 O3 1.300625 1_555
O0 Sr0 2.545941 1_565
O0 Sr1 2.545941 1_455
O1 Sr0 2.545941 1_665
O1 Sr1 2.545941 1_565
O2 Sr0 2.545941 1_656
O2 Sr1 2.545941 1_655
O3 Sr0 2.545941 1_556
O3 Sr1 2.545941 1_545
O4 Sr1 2.545941 1_556
O4 Sr0 2.545941 1_566
O5 Sr1 2.545941 1_554
O5 Sr0 2.545941 1_655
