# generated using pymatgen
data_Cs6Ge2Se6O
_symmetry_space_group_name_H-M   'P 1'
_cell_length_a   13.20456722
_cell_length_b   9.49052660
_cell_length_c   9.67317909
_cell_angle_alpha   68.92472730
_cell_angle_beta   90.00000000
_cell_angle_gamma   90.00000000
_symmetry_Int_Tables_number   1
_chemical_formula_structural   Cs6Ge2Se6O
_chemical_formula_sum   'Cs12 Ge4 Se12 O2'
_cell_volume   1131.13906619
_cell_formula_units_Z   2
loop_
 _symmetry_equiv_pos_site_id
 _symmetry_equiv_pos_as_xyz
  1  'x, y, z'
loop_
 _atom_site_type_symbol
 _atom_site_label
 _atom_site_symmetry_multiplicity
 _atom_site_fract_x
 _atom_site_fract_y
 _atom_site_fract_z
 _atom_site_occupancy
  Cs  Cs0  1  0.33149359  0.99372689  0.00412633  1
  Cs  Cs1  1  0.22384204  0.70252113  0.44978460  1
  Cs  Cs2  1  0.55808930  0.27935974  0.23305112  1
  Cs  Cs3  1  0.83149359  0.50627311  0.99587367  1
  Cs  Cs4  1  0.44191070  0.72064026  0.76694888  1
  Cs  Cs5  1  0.77615796  0.29747887  0.55021540  1
  Cs  Cs6  1  0.05808930  0.22064026  0.76694888  1
  Cs  Cs7  1  0.94191070  0.77935974  0.23305112  1
  Cs  Cs8  1  0.27615796  0.20252113  0.44978460  1
  Cs  Cs9  1  0.72384204  0.79747887  0.55021540  1
  Cs  Cs10  1  0.66850641  0.00627311  0.99587367  1
  Cs  Cs11  1  0.16850641  0.49372689  0.00412633  1
  Ge  Ge0  1  0.48995543  0.35494998  0.67823504  1
  Ge  Ge1  1  0.98995543  0.14505002  0.32176496  1
  Ge  Ge2  1  0.51004457  0.64505002  0.32176496  1
  Ge  Ge3  1  0.01004457  0.85494998  0.67823504  1
  Se  Se0  1  0.98149633  0.62057517  0.65262183  1
  Se  Se1  1  0.88369880  0.91038846  0.82335224  1
  Se  Se2  1  0.82326521  0.12389747  0.24521470  1
  Se  Se3  1  0.61630120  0.41038846  0.82335224  1
  Se  Se4  1  0.32326521  0.37610253  0.75478530  1
  Se  Se5  1  0.11630120  0.08961154  0.17664776  1
  Se  Se6  1  0.48149633  0.87942483  0.34737817  1
  Se  Se7  1  0.38369880  0.58961154  0.17664776  1
  Se  Se8  1  0.01850367  0.37942483  0.34737817  1
  Se  Se9  1  0.67673479  0.62389747  0.24521470  1
  Se  Se10  1  0.51850367  0.12057517  0.65262183  1
  Se  Se11  1  0.17673479  0.87610253  0.75478530  1
  O  O0  1  0.50000000  0.50000000  0.50000000  1
  O  O1  1  0.00000000  0.00000000  0.50000000  1
loop_
_geom_bond_atom_site_label_1
_geom_bond_atom_site_label_2
_geom_bond_distance
_geom_bond_site_symmetry_2
Cs0 Se4 3.564205 1_564
Cs0 Se5 3.574845 1_565
Cs0 Se11 3.629862 1_554
Cs0 Se7 3.656005 1_555
Cs0 Se6 3.678891 1_555
Cs0 Se10 4.020499 1_564
Cs1 Se4 3.667649 1_555
Cs1 Se0 3.687494 1_455
Cs1 Se6 3.765498 1_555
Cs1 Se7 3.823712 1_555
Cs1 Se11 3.911608 1_555
Cs1 Se5 3.938599 1_565
Cs2 Se7 3.621433 1_555
Cs2 Se9 3.665631 1_555
Cs2 Se6 3.692370 1_545
Cs2 Se3 3.781399 1_554
Cs2 Se2 3.785048 1_555
Cs2 Se10 3.823298 1_555
Cs3 Se2 3.564205 1_556
Cs3 Se3 3.574845 1_555
Cs3 Se9 3.629862 1_556
Cs3 Se1 3.656005 1_555
Cs3 Se0 3.678891 1_555
Cs3 Se8 4.020499 1_656
Cs4 Se3 3.621433 1_555
Cs4 Se4 3.665631 1_555
Cs4 Se10 3.692370 1_565
Cs4 Se7 3.781399 1_556
Cs4 Se11 3.785048 1_555
Cs4 Se6 3.823298 1_555
Cs5 Se9 3.667649 1_555
Cs5 Se8 3.687494 1_655
Cs5 Se10 3.765498 1_555
Cs5 Se3 3.823712 1_555
Cs5 Se2 3.911608 1_555
Cs5 Se1 3.938599 1_545
Cs6 Se1 3.621433 1_445
Cs6 Se11 3.665631 1_545
Cs6 Se0 3.692370 1_455
Cs6 Se5 3.781399 1_556
Cs6 Se4 3.785048 1_555
Cs6 Se8 3.823298 1_555
Cs7 Se5 3.621433 1_665
Cs7 Se2 3.665631 1_565
Cs7 Se8 3.692370 1_655
Cs7 Se1 3.781399 1_554
Cs7 Se9 3.785048 1_555
Cs7 Se0 3.823298 1_555
Cs8 Se11 3.667649 1_545
Cs8 Se10 3.687494 1_555
Cs8 Se8 3.765498 1_555
Cs8 Se5 3.823712 1_555
Cs8 Se4 3.911608 1_555
Cs8 Se7 3.938599 1_555
Cs9 Se2 3.667649 1_565
Cs9 Se6 3.687494 1_555
Cs9 Se0 3.765498 1_555
Cs9 Se1 3.823712 1_555
Cs9 Se9 3.911608 1_555
Cs9 Se3 3.938599 1_555
Cs10 Se9 3.564205 1_546
Cs10 Se1 3.574845 1_545
Cs10 Se2 3.629862 1_556
Cs10 Se3 3.656005 1_555
Cs10 Se10 3.678891 1_555
Cs10 Se6 4.020499 1_546
Cs11 Se11 3.564205 1_554
Cs11 Se7 3.574845 1_555
Cs11 Se4 3.629862 1_554
Cs11 Se5 3.656005 1_555
Cs11 Se8 3.678891 1_555
Cs11 Se0 4.020499 1_454
Ge0 O0 1.782757 1_555
Ge0 Se4 2.353772 1_555
Ge0 Se10 2.355319 1_555
Ge0 Se3 2.358358 1_555
Ge1 O1 1.782757 1_655
Ge1 Se2 2.353772 1_555
Ge1 Se8 2.355319 1_655
Ge1 Se5 2.358358 1_655
Ge2 O0 1.782757 1_555
Ge2 Se9 2.353772 1_555
Ge2 Se6 2.355319 1_555
Ge2 Se7 2.358358 1_555
Ge3 O1 1.782757 1_565
Ge3 Se11 2.353772 1_555
Ge3 Se0 2.355319 1_455
Ge3 Se1 2.358358 1_455
