# generated using pymatgen
data_NaYH6Ru
_symmetry_space_group_name_H-M   'P 1'
_cell_length_a   4.94436020
_cell_length_b   4.94435976
_cell_length_c   4.94435948
_cell_angle_alpha   59.99999534
_cell_angle_beta   59.99999831
_cell_angle_gamma   59.99998832
_symmetry_Int_Tables_number   1
_chemical_formula_structural   NaYH6Ru
_chemical_formula_sum   'Na1 Y1 H6 Ru1'
_cell_volume   85.47028400
_cell_formula_units_Z   1
loop_
 _symmetry_equiv_pos_site_id
 _symmetry_equiv_pos_as_xyz
  1  'x, y, z'
loop_
 _atom_site_type_symbol
 _atom_site_label
 _atom_site_symmetry_multiplicity
 _atom_site_fract_x
 _atom_site_fract_y
 _atom_site_fract_z
 _atom_site_occupancy
  Na  Na0  1  0.75000000  0.75000000  0.75000000  1
  Y  Y0  1  0.25000000  0.25000000  0.25000000  1
  H  H0  1  0.75730511  0.75730511  0.24269489  1
  H  H1  1  0.24269489  0.75730511  0.24269489  1
  H  H2  1  0.75730511  0.24269489  0.24269489  1
  H  H3  1  0.24269489  0.24269489  0.75730511  1
  H  H4  1  0.75730511  0.24269489  0.75730511  1
  H  H5  1  0.24269489  0.75730511  0.75730511  1
  Ru  Ru0  1  0.00000000  0.00000000  0.00000000  1
loop_
_geom_bond_atom_site_label_1
_geom_bond_atom_site_label_2
_geom_bond_distance
_geom_bond_site_symmetry_2
H0 Ru0 1.697015 1_665
H0 Y0 2.472707 1_655
H0 Y0 2.472707 1_565
H0 Na0 2.472707 1_555
H0 Na0 2.472707 1_554
H1 Ru0 1.697015 1_565
H1 Na0 2.472708 1_455
H1 Na0 2.472708 1_554
H1 Y0 2.472708 1_555
H1 Y0 2.472708 1_565
H2 Ru0 1.697015 1_655
H2 Na0 2.472707 1_554
H2 Na0 2.472707 1_545
H2 Y0 2.472708 1_555
H2 Y0 2.472708 1_655
H3 Ru0 1.697015 1_556
H3 Na0 2.472707 1_455
H3 Na0 2.472707 1_545
H3 Y0 2.472707 1_555
H3 Y0 2.472707 1_556
H4 Ru0 1.697015 1_656
H4 Y0 2.472708 1_655
H4 Y0 2.472708 1_556
H4 Na0 2.472708 1_555
H4 Na0 2.472708 1_545
H5 Ru0 1.697015 1_566
H5 Y0 2.472707 1_556
H5 Y0 2.472707 1_565
H5 Na0 2.472708 1_555
H5 Na0 2.472708 1_455
