# generated using pymatgen
data_Rb5BiAu2
_symmetry_space_group_name_H-M   'P 1'
_cell_length_a   10.57537126
_cell_length_b   10.57537086
_cell_length_c   10.57537049
_cell_angle_alpha   128.95911748
_cell_angle_beta   128.95911727
_cell_angle_gamma   75.07636377
_symmetry_Int_Tables_number   1
_chemical_formula_structural   Rb5BiAu2
_chemical_formula_sum   'Rb10 Bi2 Au4'
_cell_volume   696.32073434
_cell_formula_units_Z   2
loop_
 _symmetry_equiv_pos_site_id
 _symmetry_equiv_pos_as_xyz
  1  'x, y, z'
loop_
 _atom_site_type_symbol
 _atom_site_label
 _atom_site_symmetry_multiplicity
 _atom_site_fract_x
 _atom_site_fract_y
 _atom_site_fract_z
 _atom_site_occupancy
  Rb  Rb0  1  0.50000000  0.50000000  0.00000000  1
  Rb  Rb1  1  0.00000000  0.00000000  0.00000000  1
  Rb  Rb2  1  0.53475618  0.03475618  0.85146976  1
  Rb  Rb3  1  0.18328842  0.68328842  0.14853024  1
  Rb  Rb4  1  0.03475618  0.18328842  0.50000000  1
  Rb  Rb5  1  0.68328842  0.53475618  0.50000000  1
  Rb  Rb6  1  0.46524382  0.96524382  0.14853024  1
  Rb  Rb7  1  0.81671158  0.31671158  0.85146976  1
  Rb  Rb8  1  0.96524382  0.81671158  0.50000000  1
  Rb  Rb9  1  0.31671158  0.46524382  0.50000000  1
  Bi  Bi0  1  0.25000000  0.25000000  0.00000000  1
  Bi  Bi1  1  0.75000000  0.75000000  0.00000000  1
  Au  Au0  1  0.11195463  0.61195463  0.72390727  1
  Au  Au1  1  0.88804537  0.38804537  0.27609273  1
  Au  Au2  1  0.61195463  0.88804537  0.50000000  1
  Au  Au3  1  0.38804537  0.11195463  0.50000000  1
loop_
_geom_bond_atom_site_label_1
_geom_bond_atom_site_label_2
_geom_bond_distance
_geom_bond_site_symmetry_2
Rb0 Rb7 4.109235 1_554
Rb0 Rb3 4.109235 1_555
Rb0 Rb5 4.109247 1_555
Rb0 Rb9 4.109247 1_554
Rb0 Rb8 4.109247 1_555
Rb0 Rb4 4.109247 1_554
Rb0 Rb6 4.109254 1_555
Rb0 Rb2 4.109254 1_554
Rb1 Rb7 4.109234 1_454
Rb1 Rb3 4.109234 1_545
Rb1 Rb4 4.109247 1_555
Rb1 Rb8 4.109247 1_444
Rb1 Rb9 4.109247 1_555
Rb1 Rb5 4.109247 1_444
Rb1 Rb6 4.109254 1_545
Rb1 Rb2 4.109254 1_454
Bi0 Rb6 3.826057 1_545
Bi0 Rb2 3.826058 1_554
Bi0 Rb9 3.826069 1_555
Bi0 Rb4 3.826069 1_554
Bi0 Rb8 3.826069 1_444
Bi0 Rb5 3.826069 1_555
Bi0 Rb3 3.826074 1_555
Bi0 Rb7 3.826074 1_454
Bi0 Rb0 4.192857 1_555
Bi0 Rb1 4.192857 1_555
Bi1 Rb2 3.826057 1_564
Bi1 Rb6 3.826058 1_555
Bi1 Rb5 3.826069 1_554
Bi1 Rb8 3.826069 1_555
Bi1 Rb4 3.826069 1_665
Bi1 Rb9 3.826069 1_554
Bi1 Rb7 3.826074 1_554
Bi1 Rb3 3.826074 1_655
Bi1 Rb0 4.192857 1_555
Bi1 Rb1 4.192857 1_665
Au0 Au1 2.885478 1_455
Au0 Rb8 3.577782 1_455
Au0 Rb9 3.577782 1_555
Au0 Rb4 3.577805 1_555
Au0 Rb5 3.577805 1_455
Au0 Rb3 3.616118 1_556
Au0 Rb6 3.616119 1_556
Au0 Rb1 3.680270 1_566
Au0 Rb0 3.680270 1_556
Au1 Rb4 3.577782 1_655
Au1 Rb5 3.577782 1_555
Au1 Rb8 3.577805 1_555
Au1 Rb9 3.577805 1_655
Au1 Rb7 3.616118 1_554
Au1 Rb2 3.616119 1_554
Au1 Rb1 3.680270 1_655
Au1 Rb0 3.680270 1_555
Au2 Au3 2.885504 1_565
Au2 Rb7 3.577796 1_565
Au2 Rb3 3.577796 1_555
Au2 Rb6 3.577818 1_555
Au2 Rb2 3.577818 1_565
Au2 Rb5 3.616118 1_555
Au2 Rb8 3.616119 1_555
Au2 Rb0 3.680264 1_555
Au2 Rb1 3.680264 1_666
Au3 Rb3 3.577796 1_545
Au3 Rb7 3.577796 1_555
Au3 Rb2 3.577818 1_555
Au3 Rb6 3.577818 1_545
Au3 Rb9 3.616118 1_555
Au3 Rb4 3.616119 1_555
Au3 Rb0 3.680264 1_556
Au3 Rb1 3.680264 1_555
