# generated using pymatgen
data_Cs7KTiBi4
_symmetry_space_group_name_H-M   'P 1'
_cell_length_a   12.48499478
_cell_length_b   12.35759331
_cell_length_c   12.48499358
_cell_angle_alpha   60.33700109
_cell_angle_beta   60.74584319
_cell_angle_gamma   60.33700034
_symmetry_Int_Tables_number   1
_chemical_formula_structural   Cs7KTiBi4
_chemical_formula_sum   'Cs14 K2 Ti2 Bi8'
_cell_volume   1376.58303024
_cell_formula_units_Z   2
loop_
 _symmetry_equiv_pos_site_id
 _symmetry_equiv_pos_as_xyz
  1  'x, y, z'
loop_
 _atom_site_type_symbol
 _atom_site_label
 _atom_site_symmetry_multiplicity
 _atom_site_fract_x
 _atom_site_fract_y
 _atom_site_fract_z
 _atom_site_occupancy
  Cs  Cs0  1  0.62500000  0.62500000  0.12500000  1
  Cs  Cs1  1  0.12500000  0.62500000  0.62500000  1
  Cs  Cs2  1  0.02381146  0.02755729  0.47523597  1
  Cs  Cs3  1  0.77476403  0.22244271  0.22618854  1
  Cs  Cs4  1  0.22618754  0.77660573  0.77476503  1
  Cs  Cs5  1  0.77476503  0.77660573  0.22618754  1
  Cs  Cs6  1  0.77754127  0.22245773  0.77754127  1
  Cs  Cs7  1  0.22586011  0.77413989  0.22586011  1
  Cs  Cs8  1  0.47245873  0.02754227  0.47245873  1
  Cs  Cs9  1  0.47523597  0.02755729  0.02381146  1
  Cs  Cs10  1  0.02381246  0.47339427  0.47523497  1
  Cs  Cs11  1  0.02413989  0.47586011  0.02413989  1
  Cs  Cs12  1  0.22618854  0.22244271  0.77476403  1
  Cs  Cs13  1  0.47523497  0.47339427  0.02381246  1
  K  K0  1  0.62500000  0.12500000  0.62500000  1
  K  K1  1  0.62500000  0.62500000  0.62500000  1
  Ti  Ti0  1  0.74666090  0.75333910  0.74666090  1
  Ti  Ti1  1  0.50333910  0.49666090  0.50333910  1
  Bi  Bi0  1  0.41045434  0.77878753  0.41045434  1
  Bi  Bi1  1  0.83663867  0.84670175  0.46995682  1
  Bi  Bi2  1  0.46995682  0.84670175  0.83663867  1
  Bi  Bi3  1  0.83954566  0.84969720  0.83954566  1
  Bi  Bi4  1  0.78004318  0.40329825  0.41336133  1
  Bi  Bi5  1  0.41045434  0.40030280  0.41045434  1
  Bi  Bi6  1  0.41336133  0.40329825  0.78004318  1
  Bi  Bi7  1  0.83954566  0.47121247  0.83954566  1
loop_
_geom_bond_atom_site_label_1
_geom_bond_atom_site_label_2
_geom_bond_distance
_geom_bond_site_symmetry_2
Cs0 Ti1 3.884779 1_555
Cs0 Ti0 3.884779 1_554
Cs0 Cs9 4.089103 1_565
Cs0 Cs3 4.089103 1_555
Cs0 Cs5 4.089113 1_555
Cs0 Cs13 4.089113 1_555
Cs0 Cs11 4.109595 1_655
Cs0 Cs7 4.109595 1_555
Cs1 Ti1 3.884779 1_555
Cs1 Ti0 3.884779 1_455
Cs1 Cs2 4.089103 1_565
Cs1 Cs12 4.089103 1_555
Cs1 Cs4 4.089113 1_555
Cs1 Cs10 4.089113 1_555
Cs1 Cs11 4.109595 1_556
Cs1 Cs7 4.109595 1_555
Cs2 K0 4.114959 1_455
Cs2 Cs3 4.445411 1_455
Cs2 Cs6 4.452576 1_455
Cs2 Cs4 4.470622 1_545
Cs2 Cs7 4.474310 1_545
Cs3 K0 4.114958 1_555
Cs3 Cs8 4.452576 1_555
Cs4 K1 4.114970 1_555
Cs4 Cs8 4.452594 1_565
Cs5 K1 4.114970 1_555
Cs5 Cs8 4.452594 1_565
Cs5 Cs9 4.470622 1_565
Cs6 K0 4.097552 1_555
Cs6 K1 4.097572 1_555
Cs6 Cs9 4.452576 1_556
Cs7 Cs9 4.474310 1_565
Cs8 K0 4.097552 1_555
Cs8 K1 4.097572 1_545
Cs9 K0 4.114958 1_554
Cs10 K1 4.114970 1_455
Cs10 Cs5 4.445415 1_455
Cs10 Cs6 4.452594 1_455
Cs10 Cs12 4.470622 1_555
Cs10 Cs7 4.474311 1_555
Cs11 Cs12 4.474310 1_554
Cs11 Cs3 4.474310 1_455
Cs11 Cs5 4.474311 1_455
Cs11 Cs4 4.474311 1_554
Cs12 K0 4.114959 1_555
Cs12 Cs9 4.445411 1_556
Cs12 Cs8 4.452576 1_555
Cs13 K1 4.114970 1_554
Cs13 Cs4 4.445415 1_554
Cs13 Cs6 4.452594 1_554
Cs13 Cs3 4.470622 1_555
Cs13 Cs7 4.474311 1_555
K0 Ti1 3.762094 1_555
K0 Ti0 3.762094 1_545
K1 Ti0 3.762093 1_555
K1 Ti1 3.762093 1_555
Bi0 Ti1 2.855775 1_555
Bi0 K1 3.859645 1_555
Bi0 Cs4 3.961605 1_555
Bi0 Cs5 3.961605 1_555
Bi0 Cs0 3.977815 1_555
Bi0 Cs1 3.977815 1_555
Bi0 Cs8 3.993062 1_565
Bi0 Cs7 4.009921 1_555
Bi0 Cs9 4.166980 1_565
Bi0 Cs2 4.166981 1_565
Bi1 Ti0 2.841199 1_555
Bi1 K1 3.892536 1_555
Bi1 K0 3.892546 1_565
Bi1 Cs8 3.942256 1_565
Bi1 Cs2 3.990731 1_665
Bi1 Cs10 3.990735 1_655
Bi1 Cs1 4.001698 1_655
Bi1 Cs5 4.022346 1_555
Bi1 Cs3 4.022361 1_565
Bi1 Cs7 4.198015 1_655
Bi2 Ti0 2.841199 1_555
Bi2 K1 3.892536 1_555
Bi2 K0 3.892546 1_565
Bi2 Cs8 3.942255 1_565
Bi2 Cs9 3.990731 1_566
Bi2 Cs13 3.990735 1_556
Bi2 Cs0 4.001698 1_556
Bi2 Cs4 4.022346 1_555
Bi2 Cs12 4.022361 1_565
Bi2 Cs7 4.198015 1_556
Bi3 Ti0 2.855785 1_555
Bi3 K0 3.859643 1_565
Bi3 Cs2 3.961587 1_665
Bi3 Cs9 3.961588 1_566
Bi3 Cs1 3.977822 1_655
Bi3 Cs0 3.977823 1_556
Bi3 Cs6 3.993027 1_565
Bi3 Cs11 4.009930 1_656
Bi3 Cs5 4.166971 1_556
Bi3 Cs4 4.166972 1_655
Bi4 Ti1 2.841199 1_555
Bi4 K1 3.892536 1_555
Bi4 K0 3.892546 1_555
Bi4 Cs6 3.942255 1_555
Bi4 Cs3 3.990731 1_555
Bi4 Cs5 3.990735 1_555
Bi4 Cs0 4.001698 1_555
Bi4 Cs10 4.022346 1_655
Bi4 Cs2 4.022361 1_655
Bi4 Cs11 4.198015 1_655
Bi5 Ti1 2.855785 1_555
Bi5 K0 3.859643 1_555
Bi5 Cs12 3.961587 1_555
Bi5 Cs3 3.961588 1_555
Bi5 Cs1 3.977822 1_555
Bi5 Cs0 3.977823 1_555
Bi5 Cs8 3.993027 1_555
Bi5 Cs7 4.009930 1_555
Bi5 Cs13 4.166971 1_555
Bi5 Cs10 4.166972 1_555
Bi6 Ti1 2.841199 1_555
Bi6 K1 3.892536 1_555
Bi6 K0 3.892546 1_555
Bi6 Cs6 3.942256 1_555
Bi6 Cs12 3.990731 1_555
Bi6 Cs4 3.990735 1_555
Bi6 Cs1 4.001698 1_555
Bi6 Cs13 4.022346 1_556
Bi6 Cs9 4.022361 1_556
Bi6 Cs11 4.198015 1_556
Bi7 Ti0 2.855775 1_555
Bi7 K1 3.859645 1_555
Bi7 Cs10 3.961605 1_655
Bi7 Cs13 3.961605 1_556
Bi7 Cs0 3.977815 1_556
Bi7 Cs1 3.977815 1_655
Bi7 Cs6 3.993062 1_555
Bi7 Cs11 4.009921 1_656
Bi7 Cs3 4.166980 1_556
Bi7 Cs12 4.166981 1_655
