# generated using pymatgen
data_Tc5MoAs14
_symmetry_space_group_name_H-M   'P 1'
_cell_length_a   7.59573137
_cell_length_b   7.59574736
_cell_length_c   7.59573107
_cell_angle_alpha   109.32530493
_cell_angle_beta   109.76350784
_cell_angle_gamma   109.32531128
_symmetry_Int_Tables_number   1
_chemical_formula_structural   Tc5MoAs14
_chemical_formula_sum   'Tc5 Mo1 As14'
_cell_volume   337.34863923
_cell_formula_units_Z   1
loop_
 _symmetry_equiv_pos_site_id
 _symmetry_equiv_pos_as_xyz
  1  'x, y, z'
loop_
 _atom_site_type_symbol
 _atom_site_label
 _atom_site_symmetry_multiplicity
 _atom_site_fract_x
 _atom_site_fract_y
 _atom_site_fract_z
 _atom_site_occupancy
  Tc  Tc0  1  0.00028900  0.34180381  0.34209181  1
  Tc  Tc1  1  0.00028900  0.65819619  0.65848419  1
  Tc  Tc2  1  0.34209181  0.34180381  0.00028900  1
  Tc  Tc3  1  0.65848419  0.65819619  0.00028900  1
  Tc  Tc4  1  0.66171775  0.00000000  0.66171775  1
  Mo  Mo0  1  0.34145865  0.99999900  0.34145865  1
  As  As0  1  0.75079581  0.50000000  0.25079481  1
  As  As1  1  0.49926134  0.74915382  0.24841416  1
  As  As2  1  0.49926134  0.25084618  0.75010653  1
  As  As3  1  0.75010653  0.25084618  0.49926134  1
  As  As4  1  0.24841416  0.74915382  0.49926134  1
  As  As5  1  0.25079481  0.50000000  0.75079581  1
  As  As6  1  0.99857867  1.00000000  0.33060544  1
  As  As7  1  0.66915807  0.00000000  0.00017512  1
  As  As8  1  0.99857967  0.66797424  0.99857967  1
  As  As9  1  0.33060544  0.33202676  0.33060544  1
  As  As10  1  0.00017612  0.33101705  0.00017612  1
  As  As11  1  0.66915807  0.66898295  0.66915807  1
  As  As12  1  0.33060544  1.00000000  0.99857867  1
  As  As13  1  0.00017512  0.00000000  0.66915807  1
loop_
_geom_bond_atom_site_label_1
_geom_bond_atom_site_label_2
_geom_bond_distance
_geom_bond_site_symmetry_2
Mo0 Tc4 2.798781 1_565
As0 Tc1 2.585738 1_655
As0 Tc0 2.585743 1_655
As0 Tc3 2.593212 1_555
As0 Tc2 2.593217 1_555
As1 Tc3 2.593217 1_555
As1 Tc2 2.593230 1_555
As1 Mo0 2.599956 1_555
As1 Tc4 2.621760 1_565
As2 Tc3 2.593235 1_556
As2 Tc2 2.593242 1_556
As2 Mo0 2.599951 1_545
As2 Tc4 2.621757 1_555
As3 Tc1 2.593235 1_655
As3 Tc0 2.593242 1_655
As3 Mo0 2.599951 1_545
As3 Tc4 2.621757 1_555
As4 Tc1 2.593217 1_555
As4 Tc0 2.593230 1_555
As4 Mo0 2.599956 1_555
As4 Tc4 2.621760 1_565
As5 Tc3 2.585738 1_556
As5 Tc2 2.585743 1_556
As5 Tc1 2.593212 1_555
As5 Tc0 2.593217 1_555
As6 Tc3 2.564231 1_555
As6 Tc0 2.564237 1_665
As6 Mo0 2.577719 1_655
As6 As7 2.883268 1_565
As6 As8 2.917379 1_554
As6 As9 2.917383 1_665
As7 Tc4 2.552276 1_554
As7 Tc0 2.570855 1_655
As7 Tc3 2.570862 1_545
As8 Tc1 2.564239 1_655
As8 Tc3 2.564239 1_556
As8 Mo0 2.577705 1_656
As9 Tc2 2.564226 1_555
As9 Tc0 2.564226 1_555
As9 Mo0 2.577729 1_545
As10 Tc4 2.552280 1_454
As10 As8 2.567493 1_454
As10 Tc0 2.570846 1_555
As10 Tc2 2.570846 1_555
As10 As9 2.883259 1_555
As10 As7 2.908511 1_455
As10 As13 2.908512 1_554
As11 Tc4 2.552281 1_565
As11 As9 2.567479 1_555
As11 Tc3 2.570862 1_556
As11 Tc1 2.570862 1_655
As11 As8 2.883272 1_555
As11 As13 2.908511 1_665
As11 As7 2.908512 1_566
As12 Tc1 2.564231 1_555
As12 Tc2 2.564237 1_566
As12 As7 2.567480 1_566
As12 Mo0 2.577719 1_556
As12 As13 2.883268 1_565
As12 As8 2.917379 1_455
As12 As9 2.917384 1_566
As13 Tc4 2.552276 1_455
As13 As6 2.567480 1_445
As13 Tc2 2.570855 1_556
As13 Tc1 2.570862 1_545
