# generated using pymatgen
data_K3Sr3AlBi4
_symmetry_space_group_name_H-M   'P 1'
_cell_length_a   11.04821592
_cell_length_b   11.04821545
_cell_length_c   8.13186471
_cell_angle_alpha   90.00000000
_cell_angle_beta   90.00000000
_cell_angle_gamma   120.00000434
_symmetry_Int_Tables_number   1
_chemical_formula_structural   K3Sr3AlBi4
_chemical_formula_sum   'K6 Sr6 Al2 Bi8'
_cell_volume   859.61709844
_cell_formula_units_Z   2
loop_
 _symmetry_equiv_pos_site_id
 _symmetry_equiv_pos_as_xyz
  1  'x, y, z'
loop_
 _atom_site_type_symbol
 _atom_site_label
 _atom_site_symmetry_multiplicity
 _atom_site_fract_x
 _atom_site_fract_y
 _atom_site_fract_z
 _atom_site_occupancy
  K  K0  1  0.86059004  0.13940996  0.54222288  1
  K  K1  1  0.27881991  0.13940996  0.54222288  1
  K  K2  1  0.86059004  0.72118009  0.54222288  1
  K  K3  1  0.13940996  0.86059004  0.04222288  1
  K  K4  1  0.72118009  0.86059004  0.04222288  1
  K  K5  1  0.13940996  0.27881991  0.04222288  1
  Sr  Sr0  1  0.47880772  0.52119228  0.73454954  1
  Sr  Sr1  1  0.04238456  0.52119228  0.73454954  1
  Sr  Sr2  1  0.47880772  0.95761544  0.73454954  1
  Sr  Sr3  1  0.52119228  0.47880772  0.23454954  1
  Sr  Sr4  1  0.95761544  0.47880772  0.23454954  1
  Sr  Sr5  1  0.52119228  0.04238456  0.23454954  1
  Al  Al0  1  0.66666700  0.33333300  0.85452943  1
  Al  Al1  1  0.33333300  0.66666700  0.35452943  1
  Bi  Bi0  1  0.80392560  0.19607440  0.96487578  1
  Bi  Bi1  1  0.39215079  0.19607440  0.96487578  1
  Bi  Bi2  1  0.80392560  0.60784921  0.96487578  1
  Bi  Bi3  1  0.19607440  0.80392560  0.46487578  1
  Bi  Bi4  1  0.60784921  0.80392560  0.46487578  1
  Bi  Bi5  1  0.19607440  0.39215079  0.46487578  1
  Bi  Bi6  1  0.66666700  0.33333300  0.50589295  1
  Bi  Bi7  1  0.33333300  0.66666700  0.00589295  1
loop_
_geom_bond_atom_site_label_1
_geom_bond_atom_site_label_2
_geom_bond_distance
_geom_bond_site_symmetry_2
Al0 Bi2 2.775628 1_555
Al0 Bi1 2.775628 1_555
Al0 Bi0 2.775637 1_555
Al0 Bi6 2.835065 1_555
Al1 Bi5 2.775628 1_555
Al1 Bi4 2.775628 1_555
Al1 Bi3 2.775637 1_555
Al1 Bi7 2.835065 1_555
Bi0 K4 3.403097 1_546
Bi0 K5 3.403098 1_656
Bi0 Sr4 3.485066 1_556
Bi0 Sr5 3.485067 1_556
Bi0 K0 3.603949 1_555
Bi0 Sr1 3.726653 1_655
Bi0 Sr2 3.726653 1_545
Bi1 K3 3.403103 1_546
Bi1 K5 3.403119 1_556
Bi1 Sr5 3.485052 1_556
Bi1 Sr3 3.485067 1_556
Bi1 K1 3.603955 1_555
Bi1 Sr2 3.726640 1_545
Bi1 Sr0 3.726658 1_555
Bi2 K3 3.403104 1_656
Bi2 K4 3.403119 1_556
Bi2 Sr4 3.485052 1_556
Bi2 Sr3 3.485067 1_556
Bi2 K2 3.603955 1_555
Bi2 Sr1 3.726640 1_655
Bi2 Sr0 3.726658 1_555
Bi3 K1 3.403097 1_565
Bi3 K2 3.403098 1_455
Bi3 Sr1 3.485066 1_555
Bi3 Sr2 3.485067 1_555
Bi3 K3 3.603949 1_555
Bi3 Sr4 3.726653 1_455
Bi3 Sr5 3.726653 1_565
Bi4 K0 3.403103 1_565
Bi4 K2 3.403119 1_555
Bi4 Sr2 3.485052 1_555
Bi4 Sr0 3.485067 1_555
Bi4 K4 3.603955 1_555
Bi4 Sr5 3.726640 1_565
Bi4 Sr3 3.726658 1_555
Bi5 K0 3.403104 1_455
Bi5 K1 3.403119 1_555
Bi5 Sr1 3.485052 1_555
Bi5 Sr0 3.485067 1_555
Bi5 K5 3.603955 1_555
Bi5 Sr4 3.726640 1_455
Bi5 Sr3 3.726658 1_555
Bi6 Sr5 3.552230 1_555
Bi6 Sr4 3.552230 1_555
Bi6 Sr3 3.552237 1_555
Bi6 K0 3.722666 1_555
Bi6 K2 3.722676 1_555
Bi6 K1 3.722676 1_555
Bi7 Sr2 3.552230 1_554
Bi7 Sr1 3.552230 1_554
Bi7 Sr0 3.552237 1_554
Bi7 K3 3.722666 1_555
Bi7 K5 3.722676 1_555
Bi7 K4 3.722676 1_555
