# generated using pymatgen
data_H12IrRh3
_symmetry_space_group_name_H-M   'P 1'
_cell_length_a   5.70004811
_cell_length_b   5.70004727
_cell_length_c   5.71717828
_cell_angle_alpha   60.09906658
_cell_angle_beta   60.09906321
_cell_angle_gamma   60.00000133
_symmetry_Int_Tables_number   1
_chemical_formula_structural   H12IrRh3
_chemical_formula_sum   'H12 Ir1 Rh3'
_cell_volume   131.54440990
_cell_formula_units_Z   1
loop_
 _symmetry_equiv_pos_site_id
 _symmetry_equiv_pos_as_xyz
  1  'x, y, z'
loop_
 _atom_site_type_symbol
 _atom_site_label
 _atom_site_symmetry_multiplicity
 _atom_site_fract_x
 _atom_site_fract_y
 _atom_site_fract_z
 _atom_site_occupancy
  H  H0  1  0.76060102  0.76060102  0.24138932  1
  H  H1  1  0.24179734  0.24179734  0.75857042  1
  H  H2  1  0.75783491  0.24179734  0.75857042  1
  H  H3  1  0.23740863  0.76060102  0.24138932  1
  H  H4  1  0.24179734  0.75783491  0.75857042  1
  H  H5  1  0.76060102  0.23740863  0.24138932  1
  H  H6  1  0.48939898  0.48939898  0.00861068  1
  H  H7  1  0.00820266  0.00820266  0.49142958  1
  H  H8  1  0.49216509  0.00820266  0.49142958  1
  H  H9  1  0.01259137  0.48939898  0.00861068  1
  H  H10  1  0.00820266  0.49216509  0.49142958  1
  H  H11  1  0.48939898  0.01259137  0.00861068  1
  Ir  Ir0  1  0.12500000  0.12500000  0.62500000  1
  Rh  Rh0  1  0.62500000  0.12500000  0.12500000  1
  Rh  Rh1  1  0.12500000  0.62500000  0.12500000  1
  Rh  Rh2  1  0.12500000  0.12500000  0.12500000  1
loop_
_geom_bond_atom_site_label_1
_geom_bond_atom_site_label_2
_geom_bond_distance
_geom_bond_site_symmetry_2
H0 Rh0 1.698191 1_565
H0 Rh1 1.698191 1_655
H1 Ir0 1.710723 1_555
H1 Rh2 1.713884 1_556
H2 Ir0 1.710723 1_655
H2 Rh0 1.713884 1_556
H3 Rh2 1.698191 1_565
H3 Rh1 1.698191 1_555
H4 Ir0 1.710723 1_565
H4 Rh1 1.713884 1_556
H5 Rh0 1.698191 1_555
H5 Rh2 1.698191 1_655
H6 Rh0 1.698191 1_555
H6 Rh1 1.698191 1_555
H7 Ir0 1.710723 1_555
H7 Rh2 1.713884 1_555
H8 Ir0 1.710723 1_555
H8 Rh0 1.713884 1_555
H9 Rh2 1.698191 1_555
H9 Rh1 1.698191 1_555
H10 Ir0 1.710723 1_555
H10 Rh1 1.713884 1_555
H11 Rh0 1.698191 1_555
H11 Rh2 1.698191 1_555
