# generated using pymatgen
data_K4HfS4
_symmetry_space_group_name_H-M   'P 1'
_cell_length_a   8.19578747
_cell_length_b   9.78927241
_cell_length_c   14.27213299
_cell_angle_alpha   90.00000000
_cell_angle_beta   90.00000000
_cell_angle_gamma   90.00000000
_symmetry_Int_Tables_number   1
_chemical_formula_structural   K4HfS4
_chemical_formula_sum   'K16 Hf4 S16'
_cell_volume   1145.06459257
_cell_formula_units_Z   4
loop_
 _symmetry_equiv_pos_site_id
 _symmetry_equiv_pos_as_xyz
  1  'x, y, z'
loop_
 _atom_site_type_symbol
 _atom_site_label
 _atom_site_symmetry_multiplicity
 _atom_site_fract_x
 _atom_site_fract_y
 _atom_site_fract_z
 _atom_site_occupancy
  K  K0  1  0.00000000  0.00000000  0.00000000  1
  K  K1  1  0.50000000  0.00000000  0.50000000  1
  K  K2  1  0.00000000  0.50000000  0.00000000  1
  K  K3  1  0.50000000  0.50000000  0.50000000  1
  K  K4  1  0.99015599  0.75000000  0.42974203  1
  K  K5  1  0.49015599  0.25000000  0.07025797  1
  K  K6  1  0.00984401  0.25000000  0.57025797  1
  K  K7  1  0.50984401  0.75000000  0.92974203  1
  K  K8  1  0.84559289  0.05706334  0.27927308  1
  K  K9  1  0.34559289  0.94293666  0.22072692  1
  K  K10  1  0.15440711  0.55706334  0.72072692  1
  K  K11  1  0.65440711  0.44293666  0.77927308  1
  K  K12  1  0.15440711  0.94293666  0.72072692  1
  K  K13  1  0.65440711  0.05706334  0.77927308  1
  K  K14  1  0.84559289  0.44293666  0.27927308  1
  K  K15  1  0.34559289  0.55706334  0.22072692  1
  Hf  Hf0  1  0.75080816  0.75000000  0.66747119  1
  Hf  Hf1  1  0.24919184  0.25000000  0.33252881  1
  Hf  Hf2  1  0.74919184  0.75000000  0.16747119  1
  Hf  Hf3  1  0.25080816  0.25000000  0.83252881  1
  S  S0  1  0.95976575  0.25000000  0.82480785  1
  S  S1  1  0.54023425  0.25000000  0.32480785  1
  S  S2  1  0.45976575  0.75000000  0.67519215  1
  S  S3  1  0.04023425  0.75000000  0.17519215  1
  S  S4  1  0.65873981  0.54874159  0.09110784  1
  S  S5  1  0.15873981  0.45125841  0.40889216  1
  S  S6  1  0.34126019  0.04874159  0.90889216  1
  S  S7  1  0.84126019  0.95125841  0.59110784  1
  S  S8  1  0.34126019  0.45125841  0.90889216  1
  S  S9  1  0.84126019  0.54874159  0.59110784  1
  S  S10  1  0.65873981  0.95125841  0.09110784  1
  S  S11  1  0.15873981  0.04874159  0.40889216  1
  S  S12  1  0.63467288  0.75000000  0.32170540  1
  S  S13  1  0.13467288  0.25000000  0.17829460  1
  S  S14  1  0.36532712  0.25000000  0.67829460  1
  S  S15  1  0.86532712  0.75000000  0.82170540  1
loop_
_geom_bond_atom_site_label_1
_geom_bond_atom_site_label_2
_geom_bond_distance
_geom_bond_site_symmetry_2
K0 S10 3.121071 1_445
K0 S6 3.121071 1_554
K0 S0 3.514247 1_454
K0 S3 3.514247 1_545
K0 S13 3.699033 1_555
K0 S15 3.699033 1_444
K1 S7 3.121071 1_545
K1 S11 3.121071 1_555
K1 S1 3.514247 1_555
K1 S2 3.514247 1_545
K1 S14 3.699033 1_555
K1 S12 3.699033 1_545
K2 S4 3.121071 1_455
K2 S8 3.121071 1_554
K2 S0 3.514247 1_454
K2 S3 3.514247 1_555
K2 S13 3.699033 1_555
K2 S15 3.699033 1_454
K3 S9 3.121071 1_555
K3 S5 3.121071 1_555
K3 S1 3.514247 1_555
K3 S2 3.514247 1_555
K3 S14 3.699033 1_555
K3 S12 3.699033 1_555
K4 S11 3.248086 1_665
K4 S5 3.248086 1_655
K4 S7 3.267220 1_555
K4 S9 3.267220 1_555
K4 S12 3.296326 1_555
K4 S3 3.656080 1_655
K5 S4 3.248086 1_555
K5 S10 3.248086 1_545
K5 S8 3.267220 1_554
K5 S6 3.267220 1_554
K5 S13 3.296326 1_555
K5 S1 3.656080 1_555
K6 S9 3.248086 1_455
K6 S7 3.248086 1_445
K6 S5 3.267220 1_555
K6 S11 3.267220 1_555
K6 S14 3.296326 1_555
K6 S0 3.656080 1_455
K7 S6 3.248086 1_565
K7 S8 3.248086 1_555
K7 S10 3.267220 1_556
K7 S4 3.267220 1_556
K7 S15 3.296326 1_555
K7 S2 3.656080 1_555
K8 S11 3.164769 1_655
K8 S1 3.202006 1_555
K8 S10 3.260370 1_545
K8 S13 3.355221 1_655
K8 S12 3.520028 1_545
K9 S10 3.164769 1_555
K9 S3 3.202006 1_555
K9 S11 3.260370 1_565
K9 S12 3.355221 1_555
K9 S13 3.520028 1_565
K10 S9 3.164769 1_455
K10 S2 3.202006 1_555
K10 S8 3.260370 1_555
K10 S15 3.355221 1_455
K10 S14 3.520028 1_555
K11 S8 3.164769 1_555
K11 S0 3.202006 1_555
K11 S9 3.260370 1_555
K11 S14 3.355221 1_555
K11 S15 3.520028 1_555
K12 S7 3.164769 1_455
K12 S2 3.202006 1_555
K12 S6 3.260370 1_565
K12 S15 3.355221 1_455
K12 S14 3.520028 1_565
K13 S6 3.164769 1_555
K13 S0 3.202006 1_555
K13 S7 3.260370 1_545
K13 S14 3.355221 1_555
K13 S15 3.520028 1_545
K14 S5 3.164769 1_655
K14 S1 3.202006 1_555
K14 S4 3.260370 1_555
K14 S13 3.355221 1_655
K14 S12 3.520028 1_555
K15 S4 3.164769 1_555
K15 S3 3.202006 1_555
K15 S5 3.260370 1_555
K15 S12 3.355221 1_555
K15 S13 3.520028 1_555
Hf0 S7 2.370434 1_555
Hf0 S9 2.370434 1_555
Hf0 S2 2.387866 1_555
Hf0 S15 2.392995 1_555
Hf1 S5 2.370434 1_555
Hf1 S11 2.370434 1_555
Hf1 S1 2.387866 1_555
Hf1 S13 2.392995 1_555
Hf2 S10 2.370434 1_555
Hf2 S4 2.370434 1_555
Hf2 S3 2.387866 1_655
Hf2 S12 2.392995 1_555
Hf3 S8 2.370434 1_555
Hf3 S6 2.370434 1_555
Hf3 S0 2.387866 1_455
Hf3 S14 2.392995 1_555
