# generated using pymatgen
data_Nb6AlZn3N2
_symmetry_space_group_name_H-M   'P 1'
_cell_length_a   7.02339217
_cell_length_b   7.02294615
_cell_length_c   7.02489106
_cell_angle_alpha   90.00000000
_cell_angle_beta   89.93965575
_cell_angle_gamma   90.00000000
_symmetry_Int_Tables_number   1
_chemical_formula_structural   Nb6AlZn3N2
_chemical_formula_sum   'Nb12 Al2 Zn6 N4'
_cell_volume   346.50189181
_cell_formula_units_Z   2
loop_
 _symmetry_equiv_pos_site_id
 _symmetry_equiv_pos_as_xyz
  1  'x, y, z'
loop_
 _atom_site_type_symbol
 _atom_site_label
 _atom_site_symmetry_multiplicity
 _atom_site_fract_x
 _atom_site_fract_y
 _atom_site_fract_z
 _atom_site_occupancy
  Nb  Nb0  1  0.79281184  0.95697640  0.37242200  1
  Nb  Nb1  1  0.70706522  0.04367129  0.87641399  1
  Nb  Nb2  1  0.20718816  0.45697640  0.12757800  1
  Nb  Nb3  1  0.29293478  0.54367129  0.62358601  1
  Nb  Nb4  1  0.95695525  0.37386703  0.79272633  1
  Nb  Nb5  1  0.04304475  0.87386703  0.70727367  1
  Nb  Nb6  1  0.45619943  0.12517803  0.20682192  1
  Nb  Nb7  1  0.54380057  0.62517803  0.29317808  1
  Nb  Nb8  1  0.37310760  0.79359099  0.95664567  1
  Nb  Nb9  1  0.87555339  0.70770628  0.04343541  1
  Nb  Nb10  1  0.12444661  0.20770628  0.45656459  1
  Nb  Nb11  1  0.62689240  0.29359099  0.54335433  1
  Al  Al0  1  0.92647027  0.57348251  0.42744194  1
  Al  Al1  1  0.07352973  0.07348251  0.07255806  1
  Zn  Zn0  1  0.18185193  0.82182061  0.32335148  1
  Zn  Zn1  1  0.32415183  0.17916151  0.81913334  1
  Zn  Zn2  1  0.81814807  0.32182061  0.17664852  1
  Zn  Zn3  1  0.67584817  0.67916151  0.68086666  1
  Zn  Zn4  1  0.57087383  0.42893546  0.92789920  1
  Zn  Zn5  1  0.42912617  0.92893546  0.57210080  1
  N  N0  1  0.87410332  0.12181051  0.62451302  1
  N  N1  1  0.62214653  0.87379937  0.12359733  1
  N  N2  1  0.12589668  0.62181051  0.87548698  1
  N  N3  1  0.37785347  0.37379937  0.37640267  1
loop_
_geom_bond_atom_site_label_1
_geom_bond_atom_site_label_2
_geom_bond_distance
_geom_bond_site_symmetry_2
Nb0 Zn0 2.912682 1_655
Nb0 Zn2 2.913391 1_565
Nb0 Zn5 2.919477 1_555
Nb0 Zn3 3.028658 1_555
Nb1 Zn1 2.881360 1_555
Nb1 Zn4 2.892366 1_555
Nb1 Zn3 2.913590 1_545
Nb1 Zn2 2.979327 1_556
Nb1 Zn5 3.006447 1_545
Nb2 Zn2 2.912682 1_455
Nb2 Zn0 2.913391 1_555
Nb2 Zn4 2.919477 1_554
Nb2 Zn1 3.028658 1_554
Nb3 Zn3 2.881360 1_555
Nb3 Zn5 2.892366 1_555
Nb3 Zn1 2.913590 1_555
Nb3 Zn0 2.979327 1_555
Nb3 Zn4 3.006447 1_555
Nb4 Zn2 2.890045 1_556
Nb4 Zn4 2.898037 1_555
Nb4 Zn1 2.925113 1_655
Nb4 Zn3 3.019228 1_555
Nb5 Zn0 2.890045 1_555
Nb5 Zn5 2.898037 1_555
Nb5 Zn3 2.925113 1_455
Nb5 Zn1 3.019228 1_565
Nb6 Zn2 2.900568 1_555
Nb6 Zn1 2.902836 1_554
Nb6 Zn5 2.918758 1_545
Nb6 Zn0 2.986372 1_545
Nb6 Zn4 3.005903 1_554
Nb7 Zn0 2.900568 1_555
Nb7 Zn3 2.902836 1_555
Nb7 Zn4 2.918758 1_554
Nb7 Zn2 2.986372 1_555
Nb7 Zn5 3.005903 1_555
Nb8 Zn5 2.890246 1_555
Nb8 Zn1 2.895600 1_565
Nb8 Zn0 2.910756 1_556
Nb8 Zn4 2.920270 1_555
Nb8 Zn3 2.985189 1_555
Nb9 Zn2 2.895149 1_555
Nb9 Zn3 2.915864 1_554
Nb9 Zn4 3.012384 1_554
Nb9 Zn0 3.024191 1_655
Nb10 Zn0 2.895149 1_545
Nb10 Zn1 2.915864 1_555
Nb10 Zn5 3.012384 1_545
Nb10 Zn2 3.024191 1_455
Nb11 Zn4 2.890246 1_555
Nb11 Zn3 2.895600 1_555
Nb11 Zn2 2.910756 1_555
Nb11 Zn5 2.920270 1_545
Nb11 Zn1 2.985189 1_555
Al0 Zn0 2.605927 1_655
Al0 Zn2 2.609460 1_555
Al0 Zn3 2.609979 1_555
Al0 Nb7 2.872309 1_555
Al0 Nb0 2.878369 1_555
Al0 Nb9 2.880202 1_555
Al0 Nb3 2.928217 1_655
Al0 Nb10 2.928262 1_655
Al0 Nb4 2.932077 1_555
Al0 Nb11 2.991705 1_555
Al0 Nb2 2.997548 1_655
Al0 Nb5 2.998067 1_655
Al1 Zn2 2.605927 1_455
Al1 Zn0 2.609460 1_545
Al1 Zn1 2.609979 1_554
Al1 Nb6 2.872309 1_555
Al1 Nb2 2.878369 1_555
Al1 Nb10 2.880202 1_555
Al1 Nb1 2.928217 1_454
Al1 Nb9 2.928262 1_445
Al1 Nb5 2.932077 1_544
Al1 Nb8 2.991705 1_544
Al1 Nb0 2.997548 1_445
Al1 Nb4 2.998067 1_454
Zn0 Zn5 2.577201 1_555
Zn1 Zn5 2.576936 1_545
Zn1 Zn4 2.581920 1_555
Zn2 Zn4 2.577201 1_554
Zn3 Zn4 2.576936 1_555
Zn3 Zn5 2.581920 1_555
N0 Nb5 2.186194 1_645
N0 Nb11 2.190238 1_555
N0 Nb0 2.191876 1_545
N0 Nb1 2.191920 1_555
N0 Nb10 2.200677 1_655
N0 Nb4 2.206799 1_555
N1 Nb8 2.180934 1_554
N1 Nb7 2.183865 1_555
N1 Nb1 2.189062 1_564
N1 Nb6 2.194423 1_565
N1 Nb0 2.199497 1_555
N1 Nb9 2.200736 1_555
N2 Nb4 2.186194 1_455
N2 Nb8 2.190238 1_555
N2 Nb2 2.191876 1_556
N2 Nb3 2.191920 1_555
N2 Nb9 2.200677 1_456
N2 Nb5 2.206799 1_555
N3 Nb11 2.180934 1_555
N3 Nb6 2.183865 1_555
N3 Nb3 2.189062 1_555
N3 Nb7 2.194423 1_555
N3 Nb2 2.199497 1_555
N3 Nb10 2.200736 1_555
