# generated using pymatgen
data_SmCd2
_symmetry_space_group_name_H-M   'P 1'
_cell_length_a   9.99471768
_cell_length_b   9.99471593
_cell_length_c   6.94291856
_cell_angle_alpha   90.00000000
_cell_angle_beta   90.00000000
_cell_angle_gamma   119.99999905
_symmetry_Int_Tables_number   1
_chemical_formula_structural   SmCd2
_chemical_formula_sum   'Sm8 Cd16'
_cell_volume   600.63922842
_cell_formula_units_Z   8
loop_
 _symmetry_equiv_pos_site_id
 _symmetry_equiv_pos_as_xyz
  1  'x, y, z'
loop_
 _atom_site_type_symbol
 _atom_site_label
 _atom_site_symmetry_multiplicity
 _atom_site_fract_x
 _atom_site_fract_y
 _atom_site_fract_z
 _atom_site_occupancy
  Sm  Sm0_0  1  0.00000000  0.00000000  0.00000000  1
  Sm  Sm0_1  1  0.00000000  0.00000000  0.50000000  1
  Sm  Sm0_2  1  0.00000000  0.50000000  0.00000000  1
  Sm  Sm0_3  1  0.00000000  0.50000000  0.50000000  1
  Sm  Sm0_4  1  0.50000000  0.00000000  0.00000000  1
  Sm  Sm0_5  1  0.50000000  0.00000000  0.50000000  1
  Sm  Sm0_6  1  0.50000000  0.50000000  0.00000000  1
  Sm  Sm0_7  1  0.50000000  0.50000000  0.50000000  1
  Cd  Cd0_0  1  0.16666650  0.33333350  0.24992386  1
  Cd  Cd0_1  1  0.16666650  0.33333350  0.74992386  1
  Cd  Cd0_2  1  0.16666650  0.83333350  0.24992386  1
  Cd  Cd0_3  1  0.16666650  0.83333350  0.74992386  1
  Cd  Cd0_4  1  0.66666650  0.33333350  0.24992386  1
  Cd  Cd0_5  1  0.66666650  0.33333350  0.74992386  1
  Cd  Cd0_6  1  0.66666650  0.83333350  0.24992386  1
  Cd  Cd0_7  1  0.66666650  0.83333350  0.74992386  1
  Cd  Cd1_0  1  0.33333350  0.16666650  0.25007615  1
  Cd  Cd1_1  1  0.33333350  0.16666650  0.75007614  1
  Cd  Cd1_2  1  0.33333350  0.66666650  0.25007615  1
  Cd  Cd1_3  1  0.33333350  0.66666650  0.75007614  1
  Cd  Cd1_4  1  0.83333350  0.16666650  0.25007615  1
  Cd  Cd1_5  1  0.83333350  0.16666650  0.75007614  1
  Cd  Cd1_6  1  0.83333350  0.66666650  0.25007615  1
  Cd  Cd1_7  1  0.83333350  0.66666650  0.75007614  1
loop_
_geom_bond_atom_site_label_1
_geom_bond_atom_site_label_2
_geom_bond_distance
_geom_bond_site_symmetry_2
Sm0_0 Sm0_1 3.471459 1_554
Sm0_0 Sm0_1 3.471459 1_555
Sm0_2 Sm0_3 3.471459 1_554
Sm0_2 Sm0_3 3.471459 1_555
Sm0_4 Sm0_5 3.471459 1_555
Sm0_4 Sm0_5 3.471459 1_554
Sm0_6 Sm0_7 3.471459 1_554
Sm0_6 Sm0_7 3.471459 1_555
Cd0_0 Cd1_2 2.885223 1_555
Cd0_0 Cd1_4 2.885224 1_455
Cd0_0 Cd1_0 2.885232 1_555
Cd0_0 Sm0_2 3.366814 1_555
Cd0_0 Sm0_0 3.366817 1_555
Cd0_0 Sm0_6 3.366818 1_555
Cd0_0 Sm0_3 3.367359 1_555
Cd0_0 Sm0_1 3.367363 1_555
Cd0_0 Sm0_7 3.367363 1_555
Cd0_0 Cd0_1 3.471459 1_555
Cd0_0 Cd0_1 3.471459 1_554
Cd0_1 Cd1_3 2.885223 1_555
Cd0_1 Cd1_5 2.885224 1_455
Cd0_1 Cd1_1 2.885232 1_555
Cd0_1 Sm0_3 3.366814 1_555
Cd0_1 Sm0_1 3.366817 1_555
Cd0_1 Sm0_7 3.366818 1_555
Cd0_1 Sm0_2 3.367359 1_556
Cd0_1 Sm0_0 3.367363 1_556
Cd0_1 Sm0_6 3.367363 1_556
Cd0_2 Cd1_0 2.885223 1_565
Cd0_2 Cd1_6 2.885224 1_455
Cd0_2 Cd1_2 2.885232 1_555
Cd0_2 Sm0_0 3.366814 1_565
Cd0_2 Sm0_2 3.366817 1_555
Cd0_2 Sm0_4 3.366818 1_565
Cd0_2 Sm0_1 3.367359 1_565
Cd0_2 Sm0_3 3.367363 1_555
Cd0_2 Sm0_5 3.367363 1_565
Cd0_2 Cd0_3 3.471459 1_555
Cd0_2 Cd0_3 3.471459 1_554
Cd0_3 Cd1_1 2.885223 1_565
Cd0_3 Cd1_7 2.885224 1_455
Cd0_3 Cd1_3 2.885232 1_555
Cd0_3 Sm0_1 3.366814 1_565
Cd0_3 Sm0_3 3.366817 1_555
Cd0_3 Sm0_5 3.366818 1_565
Cd0_3 Sm0_0 3.367359 1_566
Cd0_3 Sm0_2 3.367363 1_556
Cd0_3 Sm0_4 3.367363 1_566
Cd0_4 Cd1_6 2.885223 1_555
Cd0_4 Cd1_0 2.885224 1_555
Cd0_4 Cd1_4 2.885232 1_555
Cd0_4 Sm0_6 3.366814 1_555
Cd0_4 Sm0_4 3.366817 1_555
Cd0_4 Sm0_2 3.366818 1_655
Cd0_4 Sm0_7 3.367359 1_555
Cd0_4 Sm0_5 3.367363 1_555
Cd0_4 Sm0_3 3.367363 1_655
Cd0_4 Cd0_5 3.471459 1_555
Cd0_4 Cd0_5 3.471459 1_554
Cd0_5 Cd1_7 2.885223 1_555
Cd0_5 Cd1_1 2.885224 1_555
Cd0_5 Cd1_5 2.885232 1_555
Cd0_5 Sm0_7 3.366814 1_555
Cd0_5 Sm0_5 3.366817 1_555
Cd0_5 Sm0_3 3.366818 1_655
Cd0_5 Sm0_6 3.367359 1_556
Cd0_5 Sm0_4 3.367363 1_556
Cd0_5 Sm0_2 3.367363 1_656
Cd0_6 Cd1_4 2.885223 1_565
Cd0_6 Cd1_2 2.885224 1_555
Cd0_6 Cd1_6 2.885232 1_555
Cd0_6 Sm0_4 3.366814 1_565
Cd0_6 Sm0_6 3.366817 1_555
Cd0_6 Sm0_0 3.366818 1_665
Cd0_6 Sm0_5 3.367359 1_565
Cd0_6 Sm0_7 3.367363 1_555
Cd0_6 Sm0_1 3.367363 1_665
Cd0_6 Cd0_7 3.471459 1_554
Cd0_6 Cd0_7 3.471459 1_555
Cd0_7 Cd1_5 2.885223 1_565
Cd0_7 Cd1_3 2.885224 1_555
Cd0_7 Cd1_7 2.885232 1_555
Cd0_7 Sm0_5 3.366814 1_565
Cd0_7 Sm0_7 3.366817 1_555
Cd0_7 Sm0_1 3.366818 1_665
Cd0_7 Sm0_4 3.367359 1_566
Cd0_7 Sm0_6 3.367363 1_556
Cd0_7 Sm0_0 3.367363 1_666
Cd1_0 Sm0_5 3.366814 1_555
Cd1_0 Sm0_7 3.366817 1_555
Cd1_0 Sm0_1 3.366818 1_555
Cd1_0 Sm0_4 3.367359 1_555
Cd1_0 Sm0_6 3.367363 1_555
Cd1_0 Sm0_0 3.367363 1_555
Cd1_0 Cd1_1 3.471459 1_555
Cd1_0 Cd1_1 3.471459 1_554
Cd1_1 Sm0_4 3.366814 1_556
Cd1_1 Sm0_6 3.366817 1_556
Cd1_1 Sm0_0 3.366818 1_556
Cd1_1 Sm0_5 3.367359 1_555
Cd1_1 Sm0_7 3.367363 1_555
Cd1_1 Sm0_1 3.367363 1_555
Cd1_2 Sm0_7 3.366814 1_555
Cd1_2 Sm0_5 3.366817 1_565
Cd1_2 Sm0_3 3.366818 1_555
Cd1_2 Sm0_6 3.367359 1_555
Cd1_2 Sm0_4 3.367363 1_565
Cd1_2 Sm0_2 3.367363 1_555
Cd1_2 Cd1_3 3.471459 1_555
Cd1_2 Cd1_3 3.471459 1_554
Cd1_3 Sm0_6 3.366814 1_556
Cd1_3 Sm0_4 3.366817 1_566
Cd1_3 Sm0_2 3.366818 1_556
Cd1_3 Sm0_7 3.367359 1_555
Cd1_3 Sm0_5 3.367363 1_565
Cd1_3 Sm0_3 3.367363 1_555
Cd1_4 Sm0_1 3.366814 1_655
Cd1_4 Sm0_3 3.366817 1_655
Cd1_4 Sm0_5 3.366818 1_555
Cd1_4 Sm0_0 3.367359 1_655
Cd1_4 Sm0_2 3.367363 1_655
Cd1_4 Sm0_4 3.367363 1_555
Cd1_4 Cd1_5 3.471459 1_555
Cd1_4 Cd1_5 3.471459 1_554
Cd1_5 Sm0_0 3.366814 1_656
Cd1_5 Sm0_2 3.366817 1_656
Cd1_5 Sm0_4 3.366818 1_556
Cd1_5 Sm0_1 3.367359 1_655
Cd1_5 Sm0_3 3.367363 1_655
Cd1_5 Sm0_5 3.367363 1_555
Cd1_6 Sm0_3 3.366814 1_655
Cd1_6 Sm0_1 3.366817 1_665
Cd1_6 Sm0_7 3.366818 1_555
Cd1_6 Sm0_2 3.367359 1_655
Cd1_6 Sm0_0 3.367363 1_665
Cd1_6 Sm0_6 3.367363 1_555
Cd1_6 Cd1_7 3.471459 1_555
Cd1_6 Cd1_7 3.471459 1_554
Cd1_7 Sm0_2 3.366814 1_656
Cd1_7 Sm0_0 3.366817 1_666
Cd1_7 Sm0_6 3.366818 1_556
Cd1_7 Sm0_3 3.367359 1_655
Cd1_7 Sm0_1 3.367363 1_665
Cd1_7 Sm0_7 3.367363 1_555
