# generated using pymatgen
data_Mn2AlAsRu4
_symmetry_space_group_name_H-M   'P 1'
_cell_length_a   7.30788379
_cell_length_b   7.30788486
_cell_length_c   7.30788406
_cell_angle_alpha   33.60760076
_cell_angle_beta   33.60759075
_cell_angle_gamma   33.60760546
_symmetry_Int_Tables_number   1
_chemical_formula_structural   Mn2AlAsRu4
_chemical_formula_sum   'Mn2 Al1 As1 Ru4'
_cell_volume   106.51045950
_cell_formula_units_Z   1
loop_
 _symmetry_equiv_pos_site_id
 _symmetry_equiv_pos_as_xyz
  1  'x, y, z'
loop_
 _atom_site_type_symbol
 _atom_site_label
 _atom_site_symmetry_multiplicity
 _atom_site_fract_x
 _atom_site_fract_y
 _atom_site_fract_z
 _atom_site_occupancy
  Mn  Mn0  1  0.25288020  0.25288020  0.25288020  1
  Mn  Mn1  1  0.74711980  0.74711980  0.74711980  1
  Al  Al0  1  0.00000000  0.00000000  0.00000000  1
  As  As0  1  0.50000000  0.50000000  0.50000000  1
  Ru  Ru0  1  0.37661192  0.37661192  0.37661192  1
  Ru  Ru1  1  0.87336062  0.87336062  0.87336062  1
  Ru  Ru2  1  0.62338808  0.62338808  0.62338808  1
  Ru  Ru3  1  0.12663938  0.12663938  0.12663938  1
loop_
_geom_bond_atom_site_label_1
_geom_bond_atom_site_label_2
_geom_bond_distance
_geom_bond_site_symmetry_2
Mn0 Ru0 2.557047 1_555
Mn0 Ru2 2.557616 1_554
Mn0 Ru2 2.557617 1_455
Mn0 Ru2 2.557617 1_545
Mn0 Ru3 2.608899 1_555
Mn0 Ru1 2.619587 1_445
Mn0 Ru1 2.619588 1_544
Mn0 Ru1 2.619588 1_454
Mn1 Ru2 2.557047 1_555
Mn1 Ru0 2.557616 1_556
Mn1 Ru0 2.557617 1_655
Mn1 Ru0 2.557617 1_565
Mn1 Ru1 2.608899 1_555
Mn1 Ru3 2.619587 1_665
Mn1 Ru3 2.619588 1_566
Mn1 Ru3 2.619588 1_656
Al0 Ru0 2.598295 1_554
Al0 Ru2 2.598295 1_445
Al0 Ru0 2.598296 1_455
Al0 Ru2 2.598296 1_544
Al0 Ru0 2.598296 1_545
Al0 Ru2 2.598296 1_454
Al0 Ru3 2.617136 1_555
Al0 Ru1 2.617136 1_444
As0 Ru2 2.549945 1_555
As0 Ru0 2.549945 1_555
As0 Ru1 2.575939 1_554
As0 Ru3 2.575939 1_556
As0 Ru1 2.575939 1_455
As0 Ru3 2.575939 1_655
As0 Ru1 2.575940 1_545
As0 Ru3 2.575940 1_565
As0 Mn0 3.020865 1_655
As0 Mn1 3.020865 1_455
As0 Mn0 3.020865 1_556
As0 Mn1 3.020865 1_554
As0 Mn0 3.020866 1_565
As0 Mn1 3.020866 1_545
