# generated using pymatgen
data_Zr6Al16RuPt6
_symmetry_space_group_name_H-M   'P 1'
_cell_length_a   8.71955733
_cell_length_b   8.71955781
_cell_length_c   8.71955754
_cell_angle_alpha   60.00000103
_cell_angle_beta   59.99999918
_cell_angle_gamma   59.99999915
_symmetry_Int_Tables_number   1
_chemical_formula_structural   Zr6Al16RuPt6
_chemical_formula_sum   'Zr6 Al16 Ru1 Pt6'
_cell_volume   468.77921465
_cell_formula_units_Z   1
loop_
 _symmetry_equiv_pos_site_id
 _symmetry_equiv_pos_as_xyz
  1  'x, y, z'
loop_
 _atom_site_type_symbol
 _atom_site_label
 _atom_site_symmetry_multiplicity
 _atom_site_fract_x
 _atom_site_fract_y
 _atom_site_fract_z
 _atom_site_occupancy
  Zr  Zr0  1  0.18789595  0.81210405  0.81210405  1
  Zr  Zr1  1  0.81210405  0.18789595  0.18789595  1
  Zr  Zr2  1  0.81210405  0.18789595  0.81210405  1
  Zr  Zr3  1  0.81210405  0.81210405  0.18789595  1
  Zr  Zr4  1  0.18789595  0.81210405  0.18789595  1
  Zr  Zr5  1  0.18789595  0.18789595  0.81210405  1
  Al  Al0  1  0.83395112  0.83395112  0.83395112  1
  Al  Al1  1  0.83395112  0.83395112  0.49814565  1
  Al  Al2  1  0.49814565  0.83395112  0.83395112  1
  Al  Al3  1  0.83395112  0.49814565  0.83395112  1
  Al  Al4  1  0.16604888  0.16604888  0.16604888  1
  Al  Al5  1  0.16604888  0.16604888  0.50185435  1
  Al  Al6  1  0.16604888  0.50185435  0.16604888  1
  Al  Al7  1  0.50185435  0.16604888  0.16604888  1
  Al  Al8  1  0.61789881  0.61789881  0.61789881  1
  Al  Al9  1  0.61789881  0.61789881  0.14630457  1
  Al  Al10  1  0.14630457  0.61789881  0.61789881  1
  Al  Al11  1  0.61789881  0.14630457  0.61789881  1
  Al  Al12  1  0.38210119  0.38210119  0.38210119  1
  Al  Al13  1  0.38210119  0.38210119  0.85369543  1
  Al  Al14  1  0.38210119  0.85369543  0.38210119  1
  Al  Al15  1  0.85369543  0.38210119  0.38210119  1
  Ru  Ru0  1  0.50000000  0.50000000  0.50000000  1
  Pt  Pt0  1  0.00000000  0.50000000  0.50000000  1
  Pt  Pt1  1  0.50000000  0.00000000  0.00000000  1
  Pt  Pt2  1  0.50000000  0.00000000  0.50000000  1
  Pt  Pt3  1  0.50000000  0.50000000  0.00000000  1
  Pt  Pt4  1  0.00000000  0.50000000  0.00000000  1
  Pt  Pt5  1  0.00000000  0.00000000  0.50000000  1
loop_
_geom_bond_atom_site_label_1
_geom_bond_atom_site_label_2
_geom_bond_distance
_geom_bond_site_symmetry_2
Zr0 Zr3 3.276739 1_456
Zr0 Zr2 3.276739 1_465
Zr0 Zr4 3.276739 1_556
Zr0 Zr5 3.276739 1_565
Zr1 Zr5 3.276739 1_654
Zr1 Zr4 3.276739 1_645
Zr1 Zr2 3.276739 1_554
Zr1 Zr3 3.276739 1_545
Zr2 Zr5 3.276739 1_655
Zr2 Zr3 3.276739 1_546
Zr3 Zr4 3.276739 1_655
Zr4 Zr5 3.276739 1_564
Al0 Pt1 2.517154 1_566
Al0 Pt5 2.517154 1_665
Al0 Pt4 2.517154 1_656
Al0 Al10 2.793405 1_655
Al0 Al11 2.793405 1_565
Al0 Al9 2.793405 1_556
Al0 Zr0 2.908250 1_655
Al0 Zr3 2.908250 1_556
Al0 Zr2 2.908251 1_565
Al0 Al2 2.928075 1_555
Al0 Al1 2.928075 1_555
Al0 Al3 2.928075 1_555
Al1 Pt2 2.517151 1_565
Al1 Pt0 2.517152 1_655
Al1 Pt5 2.517159 1_665
Al1 Al8 2.793400 1_555
Al1 Al10 2.793414 1_655
Al1 Al11 2.793414 1_565
Al1 Zr3 2.908242 1_555
Al1 Zr4 2.908247 1_655
Al1 Zr1 2.908247 1_565
Al1 Al2 2.928075 1_555
Al1 Al3 2.928075 1_555
Al2 Pt2 2.517152 1_565
Al2 Pt3 2.517152 1_556
Al2 Pt1 2.517159 1_566
Al2 Al8 2.793400 1_555
Al2 Al9 2.793414 1_556
Al2 Zr0 2.908242 1_555
Al2 Zr4 2.908247 1_556
Al2 Zr5 2.908247 1_565
Al2 Al3 2.928075 1_555
Al3 Pt3 2.517151 1_556
Al3 Pt0 2.517152 1_655
Al3 Pt4 2.517159 1_656
Al3 Al8 2.793400 1_555
Al3 Al9 2.793414 1_556
Al3 Zr2 2.908242 1_555
Al3 Zr5 2.908247 1_655
Al3 Zr1 2.908247 1_556
Al4 Pt1 2.517154 1_555
Al4 Pt5 2.517154 1_555
Al4 Pt4 2.517154 1_555
Al4 Zr1 2.908250 1_455
Al4 Zr5 2.908250 1_554
Al4 Zr4 2.908251 1_545
Al4 Al7 2.928075 1_555
Al4 Al5 2.928075 1_555
Al4 Al6 2.928075 1_555
Al5 Pt2 2.517151 1_555
Al5 Pt0 2.517152 1_555
Al5 Pt5 2.517159 1_555
Al5 Zr5 2.908242 1_555
Al5 Zr2 2.908247 1_455
Al5 Zr0 2.908247 1_545
Al5 Al7 2.928075 1_555
Al5 Al6 2.928075 1_555
Al6 Pt3 2.517151 1_555
Al6 Pt0 2.517152 1_555
Al6 Pt4 2.517159 1_555
Al6 Zr4 2.908242 1_555
Al6 Zr3 2.908247 1_455
Al6 Zr0 2.908247 1_554
Al6 Al7 2.928075 1_555
Al7 Pt2 2.517152 1_555
Al7 Pt3 2.517152 1_555
Al7 Pt1 2.517159 1_555
Al7 Zr1 2.908242 1_555
Al7 Zr2 2.908247 1_554
Al7 Zr3 2.908247 1_545
Al8 Ru0 2.518138 1_555
Al8 Pt0 2.724121 1_655
Al8 Pt3 2.724121 1_556
Al8 Pt2 2.724121 1_565
Al8 Zr0 3.156334 1_555
Al8 Zr3 3.156334 1_555
Al8 Zr2 3.156334 1_555
Al9 Ru0 2.518131 1_555
Al9 Pt4 2.724121 1_655
Al9 Pt1 2.724121 1_565
Al9 Pt3 2.724128 1_555
Al9 Zr3 3.156328 1_555
Al9 Zr4 3.156335 1_555
Al9 Zr1 3.156336 1_555
Al10 Ru0 2.518131 1_555
Al10 Pt4 2.724121 1_556
Al10 Pt5 2.724121 1_565
Al10 Pt0 2.724128 1_555
Al10 Al3 2.793414 1_455
Al10 Al13 2.907683 1_555
Al10 Al14 2.907683 1_555
Al10 Al12 2.907695 1_555
Al10 Zr0 3.156328 1_555
Al10 Zr4 3.156336 1_555
Al10 Zr5 3.156336 1_555
Al11 Ru0 2.518131 1_555
Al11 Pt5 2.724121 1_655
Al11 Pt1 2.724121 1_556
Al11 Pt2 2.724128 1_555
Al11 Al2 2.793415 1_545
Al11 Al13 2.907683 1_555
Al11 Al15 2.907683 1_555
Al11 Al12 2.907695 1_555
Al11 Zr2 3.156328 1_555
Al11 Zr5 3.156335 1_555
Al11 Zr1 3.156336 1_555
Al12 Ru0 2.518138 1_555
Al12 Pt0 2.724121 1_555
Al12 Pt3 2.724121 1_555
Al12 Pt2 2.724121 1_555
Al12 Al6 2.793400 1_555
Al12 Al7 2.793400 1_555
Al12 Al5 2.793400 1_555
Al12 Al9 2.907695 1_555
Al12 Zr1 3.156334 1_555
Al12 Zr5 3.156334 1_555
Al12 Zr4 3.156334 1_555
Al13 Ru0 2.518131 1_555
Al13 Pt4 2.724121 1_556
Al13 Pt1 2.724121 1_556
Al13 Pt3 2.724128 1_556
Al13 Al4 2.793405 1_556
Al13 Al6 2.793414 1_556
Al13 Al7 2.793414 1_556
Al13 Al8 2.907695 1_555
Al13 Zr5 3.156328 1_555
Al13 Zr2 3.156335 1_555
Al13 Zr0 3.156336 1_555
Al14 Ru0 2.518131 1_555
Al14 Pt5 2.724121 1_565
Al14 Pt1 2.724121 1_565
Al14 Pt2 2.724128 1_565
Al14 Al4 2.793405 1_565
Al14 Al5 2.793414 1_565
Al14 Al7 2.793415 1_565
Al14 Al9 2.907683 1_555
Al14 Al8 2.907695 1_555
Al14 Zr4 3.156328 1_555
Al14 Zr3 3.156335 1_555
Al14 Zr0 3.156336 1_555
Al15 Ru0 2.518131 1_555
Al15 Pt4 2.724121 1_655
Al15 Pt5 2.724121 1_655
Al15 Pt0 2.724128 1_655
Al15 Al4 2.793405 1_655
Al15 Al5 2.793414 1_655
Al15 Al6 2.793414 1_655
Al15 Al9 2.907683 1_555
Al15 Al8 2.907695 1_555
Al15 Zr1 3.156328 1_555
Al15 Zr2 3.156336 1_555
Al15 Zr3 3.156336 1_555
Pt0 Zr5 3.176527 1_555
Pt0 Zr3 3.176527 1_455
Pt0 Zr2 3.176527 1_455
Pt0 Zr4 3.176527 1_555
Pt1 Zr3 3.176527 1_545
Pt1 Zr5 3.176527 1_554
Pt1 Zr2 3.176527 1_554
Pt1 Zr4 3.176527 1_545
Pt2 Zr5 3.176527 1_555
Pt2 Zr3 3.176527 1_545
Pt2 Zr1 3.176527 1_555
Pt2 Zr0 3.176527 1_545
Pt3 Zr4 3.176527 1_555
Pt3 Zr1 3.176527 1_555
Pt3 Zr0 3.176527 1_554
Pt3 Zr2 3.176527 1_554
Pt4 Zr3 3.176527 1_455
Pt4 Zr5 3.176527 1_554
Pt4 Zr0 3.176527 1_554
Pt4 Zr1 3.176527 1_455
Pt5 Zr2 3.176527 1_455
Pt5 Zr0 3.176527 1_545
Pt5 Zr4 3.176527 1_545
Pt5 Zr1 3.176527 1_455
