# generated using pymatgen
data_Rb12Sc(FeSe4)3
_symmetry_space_group_name_H-M   'P 1'
_cell_length_a   10.72883188
_cell_length_b   10.72990976
_cell_length_c   13.64473485
_cell_angle_alpha   90.00521641
_cell_angle_beta   89.98890281
_cell_angle_gamma   140.55040877
_symmetry_Int_Tables_number   1
_chemical_formula_structural   Rb12Sc(FeSe4)3
_chemical_formula_sum   'Rb12 Sc1 Fe3 Se12'
_cell_volume   998.06814769
_cell_formula_units_Z   1
loop_
 _symmetry_equiv_pos_site_id
 _symmetry_equiv_pos_as_xyz
  1  'x, y, z'
loop_
 _atom_site_type_symbol
 _atom_site_label
 _atom_site_symmetry_multiplicity
 _atom_site_fract_x
 _atom_site_fract_y
 _atom_site_fract_z
 _atom_site_occupancy
  Rb  Rb0  1  0.85249872  0.85096477  0.33523993  1
  Rb  Rb1  1  0.14904384  0.14751309  0.66470506  1
  Rb  Rb2  1  0.64346084  0.64721267  0.82990303  1
  Rb  Rb3  1  0.35277135  0.35651071  0.17004314  1
  Rb  Rb4  1  0.83433584  0.47500056  0.13293736  1
  Rb  Rb5  1  0.52496877  0.16566185  0.86701650  1
  Rb  Rb6  1  0.01553031  0.66028728  0.62804706  1
  Rb  Rb7  1  0.33970258  0.98443438  0.37193152  1
  Rb  Rb8  1  0.16285912  0.51645797  0.86959746  1
  Rb  Rb9  1  0.48348718  0.83711950  0.13038971  1
  Rb  Rb10  1  0.98572008  0.33809458  0.37091389  1
  Rb  Rb11  1  0.66189763  0.01429269  0.62906820  1
  Sc  Sc0  1  0.08150119  0.91844519  0.00002199  1
  Fe  Fe0  1  0.58368178  0.41634934  0.49998214  1
  Fe  Fe1  1  0.91515778  0.08492577  0.99997221  1
  Fe  Fe2  1  0.41771940  0.58220788  0.50009220  1
  Se  Se0  1  0.01098913  0.31277734  0.11445988  1
  Se  Se1  1  0.68727225  0.98901562  0.88550465  1
  Se  Se2  1  0.18926212  0.48787026  0.61417357  1
  Se  Se3  1  0.51212129  0.81067734  0.38603683  1
  Se  Se4  1  0.97858566  0.67285527  0.87936456  1
  Se  Se5  1  0.32724730  0.02160570  0.12064449  1
  Se  Se6  1  0.81249087  0.51087358  0.38605875  1
  Se  Se7  1  0.48908966  0.18749739  0.61390680  1
  Se  Se8  1  0.78537908  0.79809636  0.08346607  1
  Se  Se9  1  0.20196454  0.21456547  0.91650613  1
  Se  Se10  1  0.70138283  0.70008770  0.58086303  1
  Se  Se11  1  0.29987886  0.29859974  0.41915584  1
loop_
_geom_bond_atom_site_label_1
_geom_bond_atom_site_label_2
_geom_bond_distance
_geom_bond_site_symmetry_2
Rb0 Se6 3.400392 1_555
Rb0 Se3 3.400646 1_555
Rb0 Se11 3.437499 1_665
Rb0 Se8 3.465830 1_555
Rb0 Se10 3.525208 1_555
Rb1 Se7 3.399462 1_555
Rb1 Se2 3.400793 1_555
Rb1 Se10 3.437406 1_445
Rb1 Se9 3.466104 1_555
Rb1 Se11 3.524171 1_555
Rb2 Se9 3.379808 1_555
Rb2 Se1 3.403599 1_555
Rb2 Se10 3.421999 1_555
Rb2 Se4 3.454256 1_555
Rb2 Se8 3.619902 1_556
Rb3 Se8 3.379924 1_555
Rb3 Se0 3.403721 1_555
Rb3 Se11 3.423000 1_555
Rb3 Se5 3.452889 1_555
Rb3 Se9 3.619501 1_554
Rb4 Se0 3.432216 1_655
Rb4 Se6 3.502915 1_555
Rb4 Se5 3.524055 1_555
Rb4 Sc0 3.670751 1_655
Rb4 Se4 3.714622 1_554
Rb4 Se5 3.806911 1_665
Rb4 Se8 3.944986 1_555
Rb5 Se1 3.433052 1_545
Rb5 Se7 3.502924 1_555
Rb5 Se4 3.525239 1_555
Rb5 Sc0 3.670663 1_546
Rb5 Se5 3.714809 1_556
Rb5 Se4 3.805428 1_445
Rb5 Se9 3.943108 1_555
Rb6 Se4 3.466465 1_455
Rb6 Se2 3.501136 1_555
Rb6 Se6 3.581370 1_455
Rb6 Se7 3.663785 1_455
Rb6 Se7 3.669400 1_565
Rb6 Se10 3.765701 1_455
Rb7 Se5 3.466405 1_565
Rb7 Se3 3.501639 1_555
Rb7 Se7 3.581189 1_565
Rb7 Se6 3.663925 1_565
Rb7 Se6 3.669224 1_455
Rb7 Se11 3.766298 1_565
Rb8 Se4 3.444736 1_455
Rb8 Se2 3.529095 1_555
Rb8 Se0 3.618534 1_556
Rb8 Se9 3.630151 1_555
Rb8 Se1 3.654419 1_555
Rb8 Se1 3.676193 1_445
Rb9 Se5 3.445395 1_565
Rb9 Se3 3.532404 1_555
Rb9 Se1 3.618897 1_554
Rb9 Se8 3.629001 1_555
Rb9 Se0 3.654108 1_555
Rb9 Se0 3.676489 1_665
Rb10 Se6 3.500694 1_555
Rb10 Se0 3.536272 1_655
Rb10 Se2 3.598697 1_655
Rb10 Se3 3.663887 1_655
Rb10 Se3 3.671260 1_545
Rb10 Se11 3.765681 1_655
Rb11 Se7 3.500815 1_555
Rb11 Se1 3.536284 1_545
Rb11 Se3 3.595940 1_545
Rb11 Se2 3.664090 1_545
Rb11 Se2 3.670596 1_655
Rb11 Se10 3.766107 1_545
Sc0 Se5 2.525830 1_565
Sc0 Se4 2.525869 1_454
Sc0 Se8 2.592375 1_455
Sc0 Se9 2.592801 1_564
Fe0 Se6 2.371698 1_555
Fe0 Se7 2.372243 1_555
Fe0 Se11 2.478640 1_555
Fe0 Se10 2.478707 1_555
Fe0 Rb6 3.555942 1_655
Fe0 Rb7 3.556381 1_545
Fe1 Se1 2.364672 1_545
Fe1 Se0 2.364849 1_656
Fe1 Se9 2.467605 1_655
Fe1 Se8 2.467910 1_546
Fe1 Rb8 3.558466 1_655
Fe1 Rb9 3.558857 1_546
Fe2 Se2 2.371197 1_555
Fe2 Se3 2.371280 1_555
Fe2 Se10 2.476441 1_555
Fe2 Se11 2.477222 1_555
Fe2 Rb11 3.563362 1_565
Fe2 Rb10 3.564113 1_455
