# generated using pymatgen
data_Li4Ta3W5N12
_symmetry_space_group_name_H-M   'P 1'
_cell_length_a   5.04882094
_cell_length_b   5.05833169
_cell_length_c   10.40576584
_cell_angle_alpha   90.00000000
_cell_angle_beta   90.00000000
_cell_angle_gamma   120.06233710
_symmetry_Int_Tables_number   1
_chemical_formula_structural   Li4Ta3W5N12
_chemical_formula_sum   'Li4 Ta3 W5 N12'
_cell_volume   230.00051445
_cell_formula_units_Z   1
loop_
 _symmetry_equiv_pos_site_id
 _symmetry_equiv_pos_as_xyz
  1  'x, y, z'
loop_
 _atom_site_type_symbol
 _atom_site_label
 _atom_site_symmetry_multiplicity
 _atom_site_fract_x
 _atom_site_fract_y
 _atom_site_fract_z
 _atom_site_occupancy
  Li  Li0  1  0.33369142  0.66615340  0.00014746  1
  Li  Li1  1  0.33369142  0.66615340  0.49985254  1
  Li  Li2  1  0.66630858  0.33246098  0.49985254  1
  Li  Li3  1  0.66630858  0.33246098  0.00014746  1
  Ta  Ta0  1  0.00000000  0.99815309  0.50563758  1
  Ta  Ta1  1  0.00000000  0.99815309  0.99436242  1
  Ta  Ta2  1  1.00000000  0.66238210  0.75000000  1
  W  W0  1  1.00000000  0.33738563  0.25000000  1
  W  W1  1  0.65892419  0.00094184  0.75000000  1
  W  W2  1  0.34107581  0.34201765  0.75000000  1
  W  W3  1  0.66134476  0.66093844  0.25000000  1
  W  W4  1  0.33865524  0.99959368  0.25000000  1
  N  N0  1  0.66675249  0.67153798  0.62225929  1
  N  N1  1  0.66675249  0.67153798  0.87774071  1
  N  N2  1  0.32797557  0.32745362  0.12530169  1
  N  N3  1  0.32797557  0.32745362  0.37469831  1
  N  N4  1  0.33324751  0.00478449  0.87774071  1
  N  N5  1  0.33324751  0.00478449  0.62225929  1
  N  N6  1  0.00000000  0.67100618  0.37472725  1
  N  N7  1  0.00000000  0.67100618  0.12527275  1
  N  N8  1  0.67202443  0.99947805  0.12530169  1
  N  N9  1  0.67202443  0.99947805  0.37469831  1
  N  N10  1  1.00000000  0.32734203  0.87723760  1
  N  N11  1  1.00000000  0.32734203  0.62276240  1
loop_
_geom_bond_atom_site_label_1
_geom_bond_atom_site_label_2
_geom_bond_distance
_geom_bond_site_symmetry_2
Li0 N1 2.098790 1_554
Li0 N10 2.125683 1_454
Li0 N4 2.135488 1_564
Li0 N8 2.138042 1_555
Li0 N7 2.139084 1_555
Li0 N2 2.140700 1_555
Li1 N0 2.098790 1_555
Li1 N11 2.125683 1_455
Li1 N5 2.135488 1_565
Li1 N9 2.138042 1_555
Li1 N6 2.139084 1_555
Li1 N3 2.140700 1_555
Li2 N5 2.098790 1_555
Li2 N11 2.125681 1_555
Li2 N0 2.135496 1_555
Li2 N3 2.138044 1_555
Li2 N6 2.139086 1_655
Li2 N9 2.140696 1_545
Li3 N4 2.098790 1_554
Li3 N10 2.125681 1_554
Li3 N1 2.135496 1_554
Li3 N2 2.138044 1_555
Li3 N7 2.139086 1_655
Li3 N8 2.140696 1_545
N0 Ta0 2.061086 1_655
N0 W2 2.122016 1_555
N0 W1 2.147267 1_565
N0 Ta2 2.162851 1_555
N1 Ta1 2.061086 1_655
N1 W2 2.122016 1_555
N1 W1 2.147267 1_565
N1 Ta2 2.162851 1_555
N2 W0 2.124043 1_455
N2 W3 2.125465 1_555
N2 W4 2.127578 1_545
N2 Ta1 2.146999 1_544
N3 W0 2.124043 1_455
N3 W3 2.125465 1_555
N3 W4 2.127578 1_545
N3 Ta0 2.146999 1_545
N4 Ta1 2.061089 1_545
N4 W1 2.122014 1_555
N4 W2 2.147271 1_555
N4 Ta2 2.162849 1_445
N5 Ta0 2.061089 1_545
N5 W1 2.122014 1_555
N5 W2 2.147271 1_555
N5 Ta2 2.162849 1_445
N6 W4 2.126806 1_555
N6 W3 2.126806 1_455
N6 W0 2.128936 1_455
N6 Ta0 2.143378 1_555
N7 W4 2.126806 1_555
N7 W3 2.126806 1_455
N7 W0 2.128936 1_455
N7 Ta1 2.143378 1_554
N8 W0 2.124043 1_565
N8 W4 2.125465 1_555
N8 W3 2.127578 1_555
N8 Ta1 2.146999 1_654
N9 W0 2.124043 1_565
N9 W4 2.125465 1_555
N9 W3 2.127578 1_555
N9 Ta0 2.146999 1_655
N10 Ta1 2.063522 1_645
N10 W1 2.143785 1_555
N10 W2 2.143785 1_655
N10 Ta2 2.150615 1_555
N11 Ta0 2.063522 1_645
N11 W1 2.143785 1_555
N11 W2 2.143785 1_655
N11 Ta2 2.150615 1_555
