# generated using pymatgen
data_LuZr(Co5P3)2
_symmetry_space_group_name_H-M   'P 1'
_cell_length_a   3.59766462
_cell_length_b   10.08302571
_cell_length_c   11.56456748
_cell_angle_alpha   90.00000000
_cell_angle_beta   90.00000000
_cell_angle_gamma   90.00000000
_symmetry_Int_Tables_number   1
_chemical_formula_structural   LuZr(Co5P3)2
_chemical_formula_sum   'Lu2 Zr2 Co20 P12'
_cell_volume   419.50867299
_cell_formula_units_Z   2
loop_
 _symmetry_equiv_pos_site_id
 _symmetry_equiv_pos_as_xyz
  1  'x, y, z'
loop_
 _atom_site_type_symbol
 _atom_site_label
 _atom_site_symmetry_multiplicity
 _atom_site_fract_x
 _atom_site_fract_y
 _atom_site_fract_z
 _atom_site_occupancy
  Lu  Lu0  1  0.75000000  0.41975430  0.29738384  1
  Lu  Lu1  1  0.75000000  0.08024570  0.79738384  1
  Zr  Zr0  1  0.25000000  0.58015023  0.70179330  1
  Zr  Zr1  1  0.25000000  0.91984977  0.20179330  1
  Co  Co0  1  0.25000000  0.71393180  0.99112763  1
  Co  Co1  1  0.25000000  0.78606820  0.49112763  1
  Co  Co2  1  0.75000000  0.28683585  0.00923714  1
  Co  Co3  1  0.75000000  0.21316415  0.50923714  1
  Co  Co4  1  0.25000000  0.40803829  0.48784853  1
  Co  Co5  1  0.25000000  0.09196171  0.98784853  1
  Co  Co6  1  0.75000000  0.59400540  0.51540709  1
  Co  Co7  1  0.75000000  0.90599460  0.01540709  1
  Co  Co8  1  0.25000000  0.22338047  0.17576568  1
  Co  Co9  1  0.25000000  0.27661953  0.67576568  1
  Co  Co10  1  0.75000000  0.77549479  0.82465271  1
  Co  Co11  1  0.75000000  0.72450521  0.32465271  1
  Co  Co12  1  0.25000000  0.88007177  0.69969477  1
  Co  Co13  1  0.25000000  0.61992823  0.19969477  1
  Co  Co14  1  0.75000000  0.11735443  0.29944538  1
  Co  Co15  1  0.75000000  0.38264557  0.79944538  1
  Co  Co16  1  0.25000000  0.46655108  0.93133190  1
  Co  Co17  1  0.25000000  0.03344892  0.43133190  1
  Co  Co18  1  0.75000000  0.53623838  0.06664679  1
  Co  Co19  1  0.75000000  0.96376162  0.56664679  1
  P  P0  1  0.25000000  0.42229755  0.11435013  1
  P  P1  1  0.25000000  0.07770245  0.61435013  1
  P  P2  1  0.75000000  0.57814491  0.88343179  1
  P  P3  1  0.75000000  0.92185509  0.38343179  1
  P  P4  1  0.25000000  0.26735698  0.86716478  1
  P  P5  1  0.25000000  0.23264302  0.36716478  1
  P  P6  1  0.75000000  0.73370177  0.13421838  1
  P  P7  1  0.75000000  0.76629823  0.63421838  1
  P  P8  1  0.25000000  0.60097057  0.39154716  1
  P  P9  1  0.25000000  0.89902943  0.89154716  1
  P  P10  1  0.75000000  0.39936809  0.60895301  1
  P  P11  1  0.75000000  0.10063191  0.10895301  1
loop_
_geom_bond_atom_site_label_1
_geom_bond_atom_site_label_2
_geom_bond_distance
_geom_bond_site_symmetry_2
Lu0 P5 2.728821 1_655
Lu0 P5 2.728821 1_555
Lu0 P0 2.777931 1_555
Lu0 P0 2.777931 1_655
Lu0 P8 2.785735 1_655
Lu0 P8 2.785735 1_555
Lu1 P4 2.728821 1_555
Lu1 P4 2.728821 1_655
Lu1 P1 2.777931 1_655
Lu1 P1 2.777931 1_555
Lu1 P9 2.785735 1_545
Lu1 P9 2.785735 1_645
Co0 P9 2.193042 1_555
Co0 P6 2.452313 1_556
Co0 P6 2.452313 1_456
Co0 P2 2.580990 1_455
Co0 P2 2.580990 1_555
Co0 Zr1 3.200980 1_556
Co1 P8 2.193042 1_555
Co1 P7 2.452313 1_555
Co1 P7 2.452313 1_455
Co1 P3 2.580990 1_455
Co1 P3 2.580990 1_555
Co1 Zr0 3.200980 1_555
Co2 P11 2.203362 1_555
Co2 P4 2.444144 1_654
Co2 P4 2.444144 1_554
Co2 P0 2.564962 1_555
Co2 P0 2.564962 1_655
Co2 Lu1 3.215832 1_554
Co3 P10 2.203362 1_555
Co3 P5 2.444144 1_655
Co3 P5 2.444144 1_555
Co3 P1 2.564962 1_655
Co3 P1 2.564962 1_555
Co3 Lu0 3.215832 1_555
Co4 P8 2.241572 1_555
Co4 P5 2.252887 1_555
Co4 P10 2.281425 1_455
Co4 P10 2.281425 1_555
Co4 Lu0 2.846293 1_455
Co4 Lu0 2.846293 1_555
Co4 Zr0 3.022119 1_555
Co5 P9 2.241572 1_545
Co5 P4 2.252887 1_555
Co5 P11 2.281425 1_556
Co5 P11 2.281425 1_456
Co5 Lu1 2.846293 1_555
Co5 Lu1 2.846293 1_455
Co5 Zr1 3.022119 1_546
Co6 P7 2.214917 1_555
Co6 P10 2.240952 1_555
Co6 P8 2.300535 1_555
Co6 P8 2.300535 1_655
Co6 Zr0 2.810941 1_555
Co6 Zr0 2.810941 1_655
Co6 Lu0 3.073134 1_555
Co7 P6 2.214917 1_555
Co7 P11 2.240952 1_565
Co7 P9 2.300535 1_554
Co7 P9 2.300535 1_654
Co7 Zr1 2.810941 1_655
Co7 Zr1 2.810941 1_555
Co7 Lu1 3.073134 1_564
Co8 P0 2.127727 1_555
Co8 P5 2.215417 1_555
Co8 P11 2.316170 1_455
Co8 P11 2.316170 1_555
Co8 Lu0 3.022333 1_555
Co8 Lu0 3.022333 1_455
Co8 Zr1 3.075274 1_545
Co9 P1 2.127727 1_555
Co9 P4 2.215417 1_555
Co9 P10 2.316170 1_555
Co9 P10 2.316170 1_455
Co9 Lu1 3.022333 1_555
Co9 Lu1 3.022333 1_455
Co9 Zr0 3.075274 1_555
Co10 P2 2.102785 1_555
Co10 P7 2.204242 1_555
Co10 P9 2.320730 1_655
Co10 P9 2.320730 1_555
Co10 Zr0 3.022266 1_555
Co10 Zr0 3.022266 1_655
Co10 Lu1 3.088951 1_565
Co11 P3 2.102785 1_555
Co11 P6 2.204242 1_555
Co11 P8 2.320730 1_655
Co11 P8 2.320730 1_555
Co11 Zr1 3.022266 1_655
Co11 Zr1 3.022266 1_555
Co11 Lu0 3.088951 1_555
Co12 P1 2.223743 1_565
Co12 P9 2.226909 1_555
Co12 P7 2.263887 1_455
Co12 P7 2.263887 1_555
Co12 Lu1 2.930165 1_465
Co12 Lu1 2.930165 1_565
Co12 Zr0 3.024214 1_555
Co13 P0 2.223743 1_555
Co13 P8 2.226909 1_555
Co13 P6 2.263887 1_455
Co13 P6 2.263887 1_555
Co13 Lu0 2.930165 1_455
Co13 Lu0 2.930165 1_555
Co13 Zr1 3.024214 1_555
Co14 P3 2.197518 1_545
Co14 P11 2.209405 1_555
Co14 P5 2.280444 1_655
Co14 P5 2.280444 1_555
Co14 Zr1 2.911525 1_545
Co14 Zr1 2.911525 1_645
Co14 Lu0 3.049199 1_555
Co15 P2 2.197518 1_555
Co15 P10 2.209405 1_555
Co15 P4 2.280444 1_555
Co15 P4 2.280444 1_655
Co15 Zr0 2.911525 1_655
Co15 Zr0 2.911525 1_555
Co15 Lu1 3.049199 1_555
Co16 P4 2.141179 1_555
Co16 P0 2.163051 1_556
Co16 P2 2.192883 1_555
Co16 P2 2.192883 1_455
Co16 Zr0 2.891097 1_555
Co17 P5 2.141179 1_555
Co17 P1 2.163051 1_555
Co17 P3 2.192883 1_445
Co17 P3 2.192883 1_545
Co17 Zr1 2.891097 1_545
Co18 P6 2.138887 1_555
Co18 P2 2.160525 1_554
Co18 P0 2.204549 1_555
Co18 P0 2.204549 1_655
Co18 Lu0 2.915424 1_555
Co19 P7 2.138887 1_555
Co19 P3 2.160525 1_555
Co19 P1 2.204549 1_565
Co19 P1 2.204549 1_665
Co19 Lu1 2.915424 1_565
P2 Zr0 2.765611 1_555
P2 Zr0 2.765611 1_655
P3 Zr1 2.765611 1_655
P3 Zr1 2.765611 1_555
P6 Zr1 2.714661 1_655
P6 Zr1 2.714661 1_555
P7 Zr0 2.714661 1_555
P7 Zr0 2.714661 1_655
P10 Zr0 2.776914 1_555
P10 Zr0 2.776914 1_655
P11 Zr1 2.776914 1_645
P11 Zr1 2.776914 1_545
