# generated using pymatgen
data_Cs2Bi(SbTe2)5
_symmetry_space_group_name_H-M   'P 1'
_cell_length_a   4.35920270
_cell_length_b   13.12672969
_cell_length_c   24.21596104
_cell_angle_alpha   90.00000000
_cell_angle_beta   90.00000000
_cell_angle_gamma   90.00000000
_symmetry_Int_Tables_number   1
_chemical_formula_structural   Cs2Bi(SbTe2)5
_chemical_formula_sum   'Cs4 Bi2 Sb10 Te20'
_cell_volume   1385.68755191
_cell_formula_units_Z   2
loop_
 _symmetry_equiv_pos_site_id
 _symmetry_equiv_pos_as_xyz
  1  'x, y, z'
loop_
 _atom_site_type_symbol
 _atom_site_label
 _atom_site_symmetry_multiplicity
 _atom_site_fract_x
 _atom_site_fract_y
 _atom_site_fract_z
 _atom_site_occupancy
  Cs  Cs0  1  0.25000000  0.99469011  0.28710366  1
  Cs  Cs1  1  0.75000000  0.49405041  0.21144939  1
  Cs  Cs2  1  0.75000000  0.00594959  0.71144939  1
  Cs  Cs3  1  0.25000000  0.50530989  0.78710366  1
  Bi  Bi0  1  0.75000000  0.36459240  0.02373650  1
  Bi  Bi1  1  0.75000000  0.13540760  0.52373650  1
  Sb  Sb0  1  0.75000000  0.81267970  0.12087247  1
  Sb  Sb1  1  0.25000000  0.40768140  0.56878519  1
  Sb  Sb2  1  0.25000000  0.18668625  0.87884024  1
  Sb  Sb3  1  0.75000000  0.59563306  0.43148350  1
  Sb  Sb4  1  0.25000000  0.09231860  0.06878519  1
  Sb  Sb5  1  0.25000000  0.63553788  0.97699980  1
  Sb  Sb6  1  0.25000000  0.31331375  0.37884024  1
  Sb  Sb7  1  0.25000000  0.86446212  0.47699980  1
  Sb  Sb8  1  0.75000000  0.90436694  0.93148350  1
  Sb  Sb9  1  0.75000000  0.68732030  0.62087247  1
  Te  Te0  1  0.25000000  0.74480873  0.69646096  1
  Te  Te1  1  0.75000000  0.13860549  0.97965658  1
  Te  Te2  1  0.25000000  0.30005351  0.11239515  1
  Te  Te3  1  0.75000000  0.58825310  0.06182951  1
  Te  Te4  1  0.25000000  0.07903669  0.43655300  1
  Te  Te5  1  0.75000000  0.91174690  0.56182951  1
  Te  Te6  1  0.25000000  0.42096331  0.93655300  1
  Te  Te7  1  0.25000000  0.86073597  0.02027249  1
  Te  Te8  1  0.75000000  0.36139451  0.47965658  1
  Te  Te9  1  0.75000000  0.24420435  0.80325756  1
  Te  Te10  1  0.25000000  0.52871914  0.34839243  1
  Te  Te11  1  0.25000000  0.97128086  0.84839243  1
  Te  Te12  1  0.75000000  0.80288249  0.39033159  1
  Te  Te13  1  0.75000000  0.47030090  0.65158299  1
  Te  Te14  1  0.25000000  0.19994649  0.61239515  1
  Te  Te15  1  0.25000000  0.75519127  0.19646096  1
  Te  Te16  1  0.75000000  0.02969910  0.15158299  1
  Te  Te17  1  0.75000000  0.25579565  0.30325756  1
  Te  Te18  1  0.75000000  0.69711751  0.89033159  1
  Te  Te19  1  0.25000000  0.63926403  0.52027249  1
loop_
_geom_bond_atom_site_label_1
_geom_bond_atom_site_label_2
_geom_bond_distance
_geom_bond_site_symmetry_2
Cs0 Te4 3.784636 1_565
Cs0 Te15 3.834284 1_555
Cs0 Te16 3.966336 1_465
Cs0 Te16 3.966336 1_565
Cs0 Te17 4.080586 1_565
Cs0 Te17 4.080586 1_465
Cs0 Te12 4.163992 1_555
Cs0 Te12 4.163992 1_455
Cs1 Te3 3.828396 1_555
Cs1 Te17 3.837188 1_555
Cs1 Te10 3.994371 1_655
Cs1 Te10 3.994371 1_555
Cs1 Te15 4.078367 1_655
Cs1 Te15 4.078367 1_555
Cs1 Te2 4.121806 1_655
Cs1 Te2 4.121806 1_555
Cs2 Te5 3.828396 1_545
Cs2 Te9 3.837188 1_555
Cs2 Te11 3.994371 1_645
Cs2 Te11 3.994371 1_545
Cs2 Te0 4.078367 1_645
Cs2 Te0 4.078367 1_545
Cs2 Te14 4.121806 1_655
Cs2 Te14 4.121806 1_555
Cs3 Te6 3.784636 1_555
Cs3 Te0 3.834284 1_555
Cs3 Te13 3.966336 1_555
Cs3 Te13 3.966336 1_455
Cs3 Te9 4.080586 1_555
Cs3 Te9 4.080586 1_455
Cs3 Te18 4.163992 1_555
Cs3 Te18 4.163992 1_455
Bi0 Te3 3.077440 1_555
Bi0 Te6 3.123382 1_654
Bi0 Te6 3.123382 1_554
Bi0 Te1 3.152675 1_554
Bi0 Te2 3.174555 1_555
Bi0 Te2 3.174555 1_655
Bi1 Te5 3.077440 1_545
Bi1 Te4 3.123382 1_655
Bi1 Te4 3.123382 1_555
Bi1 Te8 3.152675 1_555
Bi1 Te14 3.174555 1_555
Bi1 Te14 3.174555 1_655
Sb0 Te16 2.944227 1_565
Sb0 Te15 2.944601 1_555
Sb0 Te15 2.944601 1_655
Sb0 Te3 3.274617 1_555
Sb0 Te7 3.329160 1_655
Sb0 Te7 3.329160 1_555
Sb1 Te14 2.924232 1_555
Sb1 Te13 3.073511 1_555
Sb1 Te13 3.073511 1_455
Sb1 Te8 3.127018 1_455
Sb1 Te8 3.127018 1_555
Sb1 Te19 3.259025 1_555
Sb2 Te11 2.922120 1_545
Sb2 Te9 2.944613 1_555
Sb2 Te9 2.944613 1_455
Sb2 Te1 3.333056 1_455
Sb2 Te1 3.333056 1_555
Sb2 Te6 3.377961 1_555
Sb3 Te12 2.897281 1_555
Sb3 Te10 3.093679 1_655
Sb3 Te10 3.093679 1_555
Sb3 Te19 3.114749 1_555
Sb3 Te19 3.114749 1_655
Sb3 Te8 3.288642 1_555
Sb4 Te2 2.924232 1_555
Sb4 Te16 3.073511 1_455
Sb4 Te16 3.073511 1_555
Sb4 Te1 3.127018 1_454
Sb4 Te1 3.127018 1_554
Sb4 Te7 3.259025 1_545
Sb5 Te6 2.982101 1_555
Sb5 Te3 3.058725 1_556
Sb5 Te3 3.058725 1_456
Sb5 Te18 3.131907 1_455
Sb5 Te18 3.131907 1_555
Sb5 Te7 3.136349 1_556
Sb6 Te10 2.922120 1_555
Sb6 Te17 2.944613 1_555
Sb6 Te17 2.944613 1_455
Sb6 Te8 3.333056 1_555
Sb6 Te8 3.333056 1_455
Sb6 Te4 3.377961 1_555
Sb7 Te4 2.982101 1_565
Sb7 Te5 3.058725 1_555
Sb7 Te5 3.058725 1_455
Sb7 Te12 3.131907 1_455
Sb7 Te12 3.131907 1_555
Sb7 Te19 3.136349 1_555
Sb8 Te18 2.897281 1_555
Sb8 Te11 3.093679 1_555
Sb8 Te11 3.093679 1_655
Sb8 Te7 3.114749 1_556
Sb8 Te7 3.114749 1_656
Sb8 Te1 3.288642 1_565
Sb9 Te13 2.944227 1_555
Sb9 Te0 2.944601 1_655
Sb9 Te0 2.944601 1_555
Sb9 Te5 3.274617 1_555
Sb9 Te19 3.329160 1_655
Sb9 Te19 3.329160 1_555
