# generated using pymatgen
data_Nb2P3NO11
_symmetry_space_group_name_H-M   'P 1'
_cell_length_a   8.74642175
_cell_length_b   8.76891802
_cell_length_c   8.98562172
_cell_angle_alpha   90.30752007
_cell_angle_beta   118.85141312
_cell_angle_gamma   120.05821502
_symmetry_Int_Tables_number   1
_chemical_formula_structural   Nb2P3NO11
_chemical_formula_sum   'Nb4 P6 N2 O22'
_cell_volume   493.92259497
_cell_formula_units_Z   2
loop_
 _symmetry_equiv_pos_site_id
 _symmetry_equiv_pos_as_xyz
  1  'x, y, z'
loop_
 _atom_site_type_symbol
 _atom_site_label
 _atom_site_symmetry_multiplicity
 _atom_site_fract_x
 _atom_site_fract_y
 _atom_site_fract_z
 _atom_site_occupancy
  Nb  Nb0  1  0.22216152  0.85101830  0.08944495  1
  Nb  Nb1  1  0.77951751  0.63897564  0.42419130  1
  Nb  Nb2  1  0.22037224  0.35985819  0.57976958  1
  Nb  Nb3  1  0.78346765  0.12488001  0.93188171  1
  P  P0  1  0.99837064  0.96592848  0.25207583  1
  P  P1  1  0.27820678  0.52571395  0.24538410  1
  P  P2  1  0.27933915  0.75047059  0.74834230  1
  P  P3  1  0.71927833  0.25226350  0.24643905  1
  P  P4  1  0.72190704  0.46979281  0.75518624  1
  P  P5  1  0.00387591  0.03401051  0.75418073  1
  N  N0  1  0.27127490  0.70106760  0.21747341  1
  N  N1  1  0.84879770  0.99529499  0.08223526  1
  O  O0  1  0.87423294  0.86914816  0.58412432  1
  O  O1  1  0.85981930  0.78554322  0.27731467  1
  O  O2  1  0.15458374  0.95224235  0.23176941  1
  O  O3  1  0.48700662  0.56709064  0.27589457  1
  O  O4  1  0.07711525  0.70712701  0.57788618  1
  O  O5  1  0.90417431  0.65066761  0.91143321  1
  O  O6  1  0.27023959  0.76884282  0.91034430  1
  O  O7  1  0.46800744  0.92763401  0.76752005  1
  O  O8  1  0.71428437  0.50234174  0.58378773  1
  O  O9  1  0.70406885  0.41549264  0.27726936  1
  O  O10  1  0.29796728  0.58757118  0.72406753  1
  O  O11  1  0.28345203  0.49123873  0.41466764  1
  O  O12  1  0.52702970  0.07575274  0.22205989  1
  O  O13  1  0.72745809  0.24210951  0.08238754  1
  O  O14  1  0.09474758  0.35381429  0.08155663  1
  O  O15  1  0.92077676  0.28918353  0.41456989  1
  O  O16  1  0.51283282  0.43013187  0.72433137  1
  O  O17  1  0.84381901  0.05107697  0.76512749  1
  O  O18  1  0.13837784  0.21338115  0.72280636  1
  O  O19  1  0.13022162  0.12852465  0.42363688  1
  O  O20  1  0.14989758  0.01502635  0.91824112  1
  O  O21  1  0.73331790  0.30678327  0.78260042  1
loop_
_geom_bond_atom_site_label_1
_geom_bond_atom_site_label_2
_geom_bond_distance
_geom_bond_site_symmetry_2
Nb0 O2 2.003905 1_555
Nb0 O12 2.014448 1_565
Nb0 O5 2.040108 1_454
Nb0 O6 2.056754 1_554
Nb0 O20 2.197815 1_564
Nb1 O3 1.950339 1_555
Nb1 O9 1.963355 1_555
Nb1 O1 1.973692 1_555
Nb1 O8 1.985172 1_555
Nb1 O0 1.992547 1_555
Nb1 O4 2.000812 1_655
Nb2 O18 1.949500 1_555
Nb2 O16 1.953450 1_555
Nb2 O10 1.973418 1_555
Nb2 O11 2.001021 1_555
Nb2 O19 2.001133 1_555
Nb2 O15 2.015788 1_455
Nb3 O17 2.009419 1_555
Nb3 O7 2.011205 1_545
Nb3 O14 2.052648 1_656
Nb3 O13 2.062669 1_556
Nb3 O21 2.166118 1_555
N0 P1 1.585507 1_555
N0 Nb0 1.828143 1_555
N1 P0 1.587994 1_555
N1 Nb3 1.834361 1_564
O0 P5 1.540338 1_665
O1 P0 1.539759 1_555
O2 P0 1.522864 1_455
O3 P1 1.547242 1_555
O4 P2 1.524688 1_555
O5 P4 1.520304 1_555
O6 P2 1.507799 1_555
O7 P2 1.523421 1_555
O8 P4 1.543558 1_555
O9 P3 1.537933 1_555
O10 P2 1.542303 1_555
O11 P1 1.535831 1_555
O12 P3 1.518148 1_555
O13 P3 1.514194 1_555
O14 P1 1.512460 1_555
O15 P3 1.531937 1_555
O16 P4 1.553824 1_555
O17 P5 1.527898 1_655
O18 P5 1.551968 1_555
O19 P0 1.533895 1_445
O20 P5 1.493544 1_555
O21 P4 1.495607 1_555
