# generated using pymatgen
data_Cs3Lu(IO3)6
_symmetry_space_group_name_H-M   'P 1'
_cell_length_a   7.27869901
_cell_length_b   7.24761673
_cell_length_c   11.04841290
_cell_angle_alpha   87.99794138
_cell_angle_beta   107.74387172
_cell_angle_gamma   107.39910897
_symmetry_Int_Tables_number   1
_chemical_formula_structural   Cs3Lu(IO3)6
_chemical_formula_sum   'Cs3 Lu1 I6 O18'
_cell_volume   528.69998261
_cell_formula_units_Z   1
loop_
 _symmetry_equiv_pos_site_id
 _symmetry_equiv_pos_as_xyz
  1  'x, y, z'
loop_
 _atom_site_type_symbol
 _atom_site_label
 _atom_site_symmetry_multiplicity
 _atom_site_fract_x
 _atom_site_fract_y
 _atom_site_fract_z
 _atom_site_occupancy
  Cs  Cs0  1  0.00000000  0.00000000  0.00000000  1
  Cs  Cs1  1  0.83547178  0.02641586  0.59891629  1
  Cs  Cs2  1  0.16452822  0.97358414  0.40108371  1
  Lu  Lu0  1  0.50000000  0.50000000  0.00000000  1
  I  I0  1  0.02207112  0.47158154  0.19100065  1
  I  I1  1  0.97792888  0.52841846  0.80899935  1
  I  I2  1  0.55378124  0.95491060  0.18709645  1
  I  I3  1  0.44621876  0.04508940  0.81290355  1
  I  I4  1  0.41894904  0.54916369  0.64185950  1
  I  I5  1  0.58105096  0.45083631  0.35814050  1
  O  O0  1  0.82772948  0.53320886  0.05794732  1
  O  O1  1  0.17227052  0.46679114  0.94205268  1
  O  O2  1  0.95363288  0.54661207  0.32005483  1
  O  O3  1  0.04636712  0.45338793  0.67994517  1
  O  O4  1  0.91427633  0.21198515  0.18754056  1
  O  O5  1  0.08572367  0.78801485  0.81245944  1
  O  O6  1  0.56722235  0.81145401  0.05667790  1
  O  O7  1  0.43277765  0.18854599  0.94332210  1
  O  O8  1  0.29661553  0.83823491  0.18546363  1
  O  O9  1  0.70338447  0.16176509  0.81453637  1
  O  O10  1  0.68795470  0.84527032  0.31956021  1
  O  O11  1  0.31204530  0.15472968  0.68043979  1
  O  O12  1  0.52134026  0.58466926  0.81553797  1
  O  O13  1  0.47865974  0.41533074  0.18446203  1
  O  O14  1  0.65939520  0.56372037  0.61774697  1
  O  O15  1  0.34060480  0.43627963  0.38225303  1
  O  O16  1  0.41478467  0.79444790  0.61368852  1
  O  O17  1  0.58521533  0.20555210  0.38631148  1
loop_
_geom_bond_atom_site_label_1
_geom_bond_atom_site_label_2
_geom_bond_distance
_geom_bond_site_symmetry_2
Cs0 O4 2.937153 1_455
Cs0 O5 2.937153 1_544
Cs0 O8 2.980587 1_545
Cs0 O9 2.980587 1_454
Cs0 O7 3.278798 1_554
Cs0 O6 3.278798 1_445
Cs0 O1 3.350920 1_554
Cs0 O0 3.350920 1_445
Cs1 O17 3.019017 1_555
Cs1 O3 3.041213 1_655
Cs1 O16 3.071805 1_545
Cs1 O9 3.112093 1_555
Cs1 O10 3.134127 1_545
Cs1 O11 3.151793 1_655
Cs1 O14 3.236484 1_545
Cs1 O5 3.293576 1_645
Cs2 O16 3.019017 1_555
Cs2 O2 3.041213 1_455
Cs2 O17 3.071805 1_565
Cs2 O8 3.112093 1_555
Cs2 O11 3.134127 1_565
Cs2 O10 3.151793 1_455
Cs2 O15 3.236484 1_565
Cs2 O4 3.293576 1_465
Lu0 O13 2.145403 1_555
Lu0 O12 2.145403 1_554
Lu0 O0 2.212393 1_555
Lu0 O1 2.212393 1_554
Lu0 O6 2.231235 1_555
Lu0 O7 2.231235 1_554
I0 O2 1.796105 1_455
I0 O4 1.805780 1_455
I0 O0 1.850934 1_455
I1 O3 1.796105 1_655
I1 O5 1.805780 1_655
I1 O1 1.850934 1_655
I2 O10 1.799653 1_555
I2 O8 1.803609 1_555
I2 O6 1.848855 1_555
I2 O4 2.724976 1_565
I3 O11 1.799653 1_555
I3 O9 1.803609 1_555
I3 O7 1.848855 1_555
I3 O5 2.724976 1_545
I4 O16 1.801643 1_555
I4 O14 1.821229 1_555
I4 O12 1.830807 1_555
I5 O17 1.801643 1_555
I5 O15 1.821229 1_555
I5 O13 1.830807 1_555
