# generated using pymatgen
data_Hf5TaSi7Ni16
_symmetry_space_group_name_H-M   'P 1'
_cell_length_a   7.98332282
_cell_length_b   7.98332253
_cell_length_c   7.97010899
_cell_angle_alpha   60.05474062
_cell_angle_beta   60.05474183
_cell_angle_gamma   59.89052334
_symmetry_Int_Tables_number   1
_chemical_formula_structural   Hf5TaSi7Ni16
_chemical_formula_sum   'Hf5 Ta1 Si7 Ni16'
_cell_volume   359.18175806
_cell_formula_units_Z   1
loop_
 _symmetry_equiv_pos_site_id
 _symmetry_equiv_pos_as_xyz
  1  'x, y, z'
loop_
 _atom_site_type_symbol
 _atom_site_label
 _atom_site_symmetry_multiplicity
 _atom_site_fract_x
 _atom_site_fract_y
 _atom_site_fract_z
 _atom_site_occupancy
  Hf  Hf0  1  0.29579559  0.70585425  0.29414575  1
  Hf  Hf1  1  0.70585425  0.29579559  0.29414575  1
  Hf  Hf2  1  0.29149155  0.29149155  0.70850845  1
  Hf  Hf3  1  0.70585425  0.29579559  0.70420441  1
  Hf  Hf4  1  0.29579559  0.70585425  0.70420441  1
  Ta  Ta0  1  0.70565578  0.70565578  0.29434422  1
  Si  Si0  1  0.00250479  0.00250479  0.99749521  1
  Si  Si1  1  0.99970957  0.99970957  0.50029043  1
  Si  Si2  1  0.50217606  0.99898590  0.49782394  1
  Si  Si3  1  0.99898590  0.50217606  0.49782394  1
  Si  Si4  1  0.49970957  0.49970957  0.00029043  1
  Si  Si5  1  0.99898590  0.50217606  0.00101410  1
  Si  Si6  1  0.50217606  0.99898590  0.00101410  1
  Ni  Ni0  1  0.88091562  0.88091562  0.35208506  1
  Ni  Ni1  1  0.88069838  0.35556042  0.88187010  1
  Ni  Ni2  1  0.35556042  0.88069838  0.88187010  1
  Ni  Ni3  1  0.88091562  0.88091562  0.88608369  1
  Ni  Ni4  1  0.11812990  0.11812990  0.64443958  1
  Ni  Ni5  1  0.11391631  0.64791494  0.11908438  1
  Ni  Ni6  1  0.64791494  0.11391631  0.11908438  1
  Ni  Ni7  1  0.11812990  0.11812990  0.11930162  1
  Ni  Ni8  1  0.66816454  0.66816454  0.99627518  1
  Ni  Ni9  1  0.66858707  0.99464489  0.66838402  1
  Ni  Ni10  1  0.99464489  0.66858707  0.66838402  1
  Ni  Ni11  1  0.66816454  0.66816454  0.66739374  1
  Ni  Ni12  1  0.33161598  0.33161598  0.00535511  1
  Ni  Ni13  1  0.33260626  0.00372482  0.33183546  1
  Ni  Ni14  1  0.00372482  0.33260626  0.33183546  1
  Ni  Ni15  1  0.33161598  0.33161598  0.33141293  1
loop_
_geom_bond_atom_site_label_1
_geom_bond_atom_site_label_2
_geom_bond_distance
_geom_bond_site_symmetry_2
Hf0 Ni8 2.708104 1_554
Hf0 Ni13 2.708113 1_565
Hf0 Ni15 2.727234 1_555
Hf0 Ni10 2.727234 1_455
Hf0 Ni7 2.738078 1_565
Hf0 Ni2 2.738079 1_554
Hf0 Ni5 2.758571 1_555
Hf0 Ni0 2.758571 1_455
Hf0 Si1 2.863114 1_455
Hf0 Si4 2.863114 1_555
Hf0 Si6 2.866438 1_555
Hf0 Si3 2.878215 1_455
Hf0 Ta0 3.272041 1_555
Hf1 Ni8 2.708104 1_554
Hf1 Ni14 2.708113 1_655
Hf1 Ni15 2.727234 1_555
Hf1 Ni9 2.727234 1_545
Hf1 Ni7 2.738078 1_655
Hf1 Ni1 2.738079 1_554
Hf1 Ni0 2.758571 1_545
Hf1 Ni6 2.758571 1_555
Hf1 Si1 2.863114 1_545
Hf1 Si4 2.863114 1_555
Hf1 Si5 2.866438 1_555
Hf1 Si2 2.878215 1_545
Hf1 Ta0 3.272041 1_555
Hf2 Ni10 2.723759 1_455
Hf2 Ni9 2.723759 1_545
Hf2 Ni12 2.723759 1_556
Hf2 Ni15 2.723759 1_555
Hf2 Ni4 2.724807 1_555
Hf2 Ni7 2.724812 1_556
Hf2 Ni2 2.724814 1_545
Hf2 Ni1 2.724814 1_455
Hf2 Si2 2.873329 1_545
Hf2 Si3 2.873329 1_455
Hf2 Si6 2.873329 1_546
Hf2 Si5 2.873329 1_456
Hf3 Ni11 2.708098 1_555
Hf3 Ni14 2.708104 1_655
Hf3 Ni9 2.727234 1_545
Hf3 Ni12 2.727234 1_556
Hf3 Ni1 2.738072 1_555
Hf3 Ni4 2.738079 1_655
Hf3 Ni3 2.758571 1_545
Hf3 Ni6 2.758571 1_556
Hf3 Si1 2.863114 1_545
Hf3 Si4 2.863114 1_556
Hf3 Si3 2.866438 1_555
Hf3 Si6 2.878215 1_546
Hf3 Ta0 3.272041 1_555
Hf4 Ni11 2.708098 1_555
Hf4 Ni13 2.708104 1_565
Hf4 Ni10 2.727234 1_455
Hf4 Ni12 2.727234 1_556
Hf4 Ni2 2.738072 1_555
Hf4 Ni4 2.738079 1_565
Hf4 Ni3 2.758571 1_455
Hf4 Ni5 2.758571 1_556
Hf4 Si1 2.863114 1_455
Hf4 Si4 2.863114 1_556
Hf4 Si2 2.866438 1_555
Hf4 Si5 2.878215 1_456
Hf4 Ta0 3.272042 1_555
Si2 Ta0 2.845601 1_555
Si3 Ta0 2.845601 1_555
Si5 Ta0 2.845601 1_555
Si6 Ta0 2.845601 1_555
Ni0 Si0 2.310692 1_664
Ni0 Si3 2.471274 1_555
Ni0 Si2 2.471274 1_555
Ni0 Si1 2.516586 1_555
Ni0 Ni11 2.541015 1_555
Ni0 Ni10 2.554917 1_555
Ni0 Ni9 2.554917 1_555
Ni0 Ni6 2.626252 1_565
Ni0 Ni5 2.626252 1_655
Ni0 Ni7 2.682837 1_665
Ni0 Ta0 2.716031 1_555
Ni1 Si0 2.300161 1_655
Ni1 Si4 2.484516 1_556
Ni1 Si3 2.505458 1_555
Ni1 Si5 2.505464 1_556
Ni1 Ni8 2.533233 1_555
Ni1 Ni11 2.533237 1_555
Ni1 Ni10 2.541281 1_555
Ni1 Ni4 2.676183 1_655
Ni1 Ni7 2.676194 1_656
Ni1 Ni6 2.682831 1_556
Ni2 Si0 2.300161 1_565
Ni2 Si4 2.484516 1_556
Ni2 Si2 2.505458 1_555
Ni2 Si6 2.505464 1_556
Ni2 Ni8 2.533233 1_555
Ni2 Ni9 2.541281 1_555
Ni2 Ni4 2.676183 1_565
Ni2 Ni7 2.676194 1_566
Ni2 Ni5 2.682831 1_556
Ni3 Si0 2.310691 1_665
Ni3 Si5 2.471274 1_556
Ni3 Si6 2.471274 1_556
Ni3 Si1 2.516586 1_555
Ni3 Ni8 2.541020 1_555
Ni3 Ni9 2.554917 1_555
Ni3 Ni6 2.626252 1_566
Ni3 Ni5 2.626252 1_656
Ni3 Ni4 2.682836 1_665
Ni3 Ta0 2.716031 1_556
Ni4 Si0 2.300161 1_555
Ni4 Si1 2.484523 1_445
Ni4 Si3 2.505458 1_455
Ni4 Si2 2.505458 1_545
Ni5 Si0 2.310691 1_564
Ni5 Si5 2.471274 1_455
Ni5 Si3 2.471274 1_455
Ni5 Si4 2.516586 1_555
Ni5 Ta0 2.716031 1_455
Ni6 Si0 2.310691 1_654
Ni6 Si6 2.471274 1_545
Ni6 Si2 2.471274 1_545
Ni6 Si4 2.516586 1_555
Ni6 Ta0 2.716031 1_545
Ni7 Si0 2.300167 1_554
Ni7 Si1 2.484516 1_445
Ni7 Si5 2.505457 1_455
Ni7 Si6 2.505457 1_545
Ni8 Si6 2.295836 1_556
Ni8 Si5 2.295836 1_556
Ni8 Si4 2.312311 1_556
Ni8 Ni9 2.612035 1_555
Ni8 Ta0 2.707850 1_556
Ni9 Si1 2.302581 1_555
Ni9 Si2 2.307338 1_555
Ni9 Si6 2.307339 1_556
Ni10 Si1 2.302581 1_555
Ni10 Si3 2.307338 1_555
Ni10 Si5 2.307338 1_556
Ni10 Ni3 2.554917 1_555
Ni10 Ni9 2.598716 1_555
Ni10 Ni8 2.612035 1_555
Ni10 Ni11 2.612043 1_555
Ni11 Si2 2.295832 1_555
Ni11 Si3 2.295832 1_555
Ni11 Si4 2.312320 1_556
Ni11 Ni2 2.533237 1_555
Ni11 Ni9 2.612043 1_555
Ni11 Ni8 2.621221 1_555
Ni11 Ta0 2.707834 1_555
Ni12 Si4 2.302581 1_555
Ni12 Si6 2.307338 1_545
Ni12 Si5 2.307338 1_455
Ni12 Ni7 2.541274 1_555
Ni12 Ni5 2.554917 1_555
Ni12 Ni6 2.554917 1_555
Ni12 Ni15 2.598716 1_555
Ni12 Ni13 2.612035 1_555
Ni12 Ni14 2.612035 1_555
Ni13 Si2 2.295822 1_545
Ni13 Si6 2.295836 1_545
Ni13 Si1 2.312325 1_445
Ni13 Ni4 2.533233 1_555
Ni13 Ni7 2.533239 1_555
Ni13 Ni6 2.541007 1_555
Ni13 Ni15 2.612027 1_555
Ni13 Ni14 2.621221 1_555
Ni13 Ta0 2.707840 1_545
Ni14 Si3 2.295822 1_455
Ni14 Si5 2.295836 1_455
Ni14 Si1 2.312325 1_445
Ni14 Ni4 2.533233 1_555
Ni14 Ni7 2.533239 1_555
Ni14 Ni5 2.541006 1_555
Ni14 Ni15 2.612027 1_555
Ni14 Ta0 2.707840 1_455
Ni15 Si4 2.302581 1_555
Ni15 Si2 2.307338 1_545
Ni15 Si3 2.307338 1_455
Ni15 Ni4 2.541277 1_555
Ni15 Ni5 2.554917 1_555
Ni15 Ni6 2.554917 1_555
