# generated using pymatgen
data_Sc2NbSnC2
_symmetry_space_group_name_H-M   'P 1'
_cell_length_a   3.27738214
_cell_length_b   3.27738412
_cell_length_c   19.94363622
_cell_angle_alpha   90.00000000
_cell_angle_beta   90.00000000
_cell_angle_gamma   119.99999009
_symmetry_Int_Tables_number   1
_chemical_formula_structural   Sc2NbSnC2
_chemical_formula_sum   'Sc4 Nb2 Sn2 C4'
_cell_volume   185.51944907
_cell_formula_units_Z   2
loop_
 _symmetry_equiv_pos_site_id
 _symmetry_equiv_pos_as_xyz
  1  'x, y, z'
loop_
 _atom_site_type_symbol
 _atom_site_label
 _atom_site_symmetry_multiplicity
 _atom_site_fract_x
 _atom_site_fract_y
 _atom_site_fract_z
 _atom_site_occupancy
  Sc  Sc0  1  0.33333300  0.66666700  0.12555457  1
  Sc  Sc1  1  0.33333300  0.66666700  0.37444543  1
  Sc  Sc2  1  0.66666700  0.33333300  0.62555457  1
  Sc  Sc3  1  0.66666700  0.33333300  0.87444543  1
  Nb  Nb0  1  0.00000000  0.00000000  0.00000000  1
  Nb  Nb1  1  0.00000000  0.00000000  0.50000000  1
  Sn  Sn0  1  0.00000000  0.00000000  0.25000000  1
  Sn  Sn1  1  0.00000000  0.00000000  0.75000000  1
  C  C0  1  0.33333300  0.66666700  0.93508046  1
  C  C1  1  0.66666700  0.33333300  0.06491954  1
  C  C2  1  0.66666700  0.33333300  0.43508046  1
  C  C3  1  0.33333300  0.66666700  0.56491954  1
loop_
_geom_bond_atom_site_label_1
_geom_bond_atom_site_label_2
_geom_bond_distance
_geom_bond_site_symmetry_2
Sc0 Sn0 3.120930 1_565
Sc0 Sn0 3.120932 1_665
Sc0 Sn0 3.120932 1_555
Sc1 Sn0 3.120930 1_565
Sc1 Sn0 3.120932 1_665
Sc1 Sn0 3.120932 1_555
Sc2 Sn1 3.120930 1_655
Sc2 Sn1 3.120932 1_555
Sc2 Sn1 3.120932 1_665
Sc3 Sn1 3.120930 1_655
Sc3 Sn1 3.120932 1_555
Sc3 Sn1 3.120932 1_665
C0 Sc3 2.245611 1_455
C0 Sc3 2.245612 1_565
C0 Sc3 2.245616 1_555
C0 Nb0 2.292757 1_566
C0 Nb0 2.292759 1_666
C0 Nb0 2.292760 1_556
C1 Sc0 2.245611 1_655
C1 Sc0 2.245612 1_545
C1 Sc0 2.245616 1_555
C1 Nb0 2.292757 1_655
C1 Nb0 2.292759 1_555
C1 Nb0 2.292760 1_665
C2 Sc1 2.245611 1_655
C2 Sc1 2.245612 1_545
C2 Sc1 2.245616 1_555
C2 Nb1 2.292757 1_655
C2 Nb1 2.292759 1_555
C2 Nb1 2.292760 1_665
C3 Sc2 2.245611 1_455
C3 Sc2 2.245612 1_565
C3 Sc2 2.245616 1_555
C3 Nb1 2.292757 1_565
C3 Nb1 2.292759 1_665
C3 Nb1 2.292760 1_555
