# generated using pymatgen
data_K5Rb2TaP4
_symmetry_space_group_name_H-M   'P 1'
_cell_length_a   8.29925620
_cell_length_b   8.96656298
_cell_length_c   10.20032159
_cell_angle_alpha   90.00000000
_cell_angle_beta   90.00000000
_cell_angle_gamma   90.00000000
_symmetry_Int_Tables_number   1
_chemical_formula_structural   K5Rb2TaP4
_chemical_formula_sum   'K10 Rb4 Ta2 P8'
_cell_volume   759.06512613
_cell_formula_units_Z   2
loop_
 _symmetry_equiv_pos_site_id
 _symmetry_equiv_pos_as_xyz
  1  'x, y, z'
loop_
 _atom_site_type_symbol
 _atom_site_label
 _atom_site_symmetry_multiplicity
 _atom_site_fract_x
 _atom_site_fract_y
 _atom_site_fract_z
 _atom_site_occupancy
  K  K0  1  0.72143116  0.83575567  0.72170485  1
  K  K1  1  0.22143116  0.16424433  0.77829515  1
  K  K2  1  0.22143116  0.16424433  0.22170485  1
  K  K3  1  0.72143116  0.83575567  0.27829515  1
  K  K4  1  0.86047111  0.45328933  0.74743093  1
  K  K5  1  0.36047111  0.54671067  0.75256907  1
  K  K6  1  0.36047111  0.54671067  0.24743093  1
  K  K7  1  0.86047111  0.45328933  0.25256907  1
  K  K8  1  0.40432522  0.87510570  0.00000000  1
  K  K9  1  0.90432522  0.12489430  0.50000000  1
  Rb  Rb0  1  0.05082024  0.65076072  0.50000000  1
  Rb  Rb1  1  0.55082024  0.34923928  0.00000000  1
  Rb  Rb2  1  0.87040335  0.07020041  0.00000000  1
  Rb  Rb3  1  0.37040335  0.92979959  0.50000000  1
  Ta  Ta0  1  0.01741902  0.68281559  0.00000000  1
  Ta  Ta1  1  0.51741902  0.31718441  0.50000000  1
  P  P0  1  0.72791607  0.67830984  0.00000000  1
  P  P1  1  0.22791607  0.32169016  0.50000000  1
  P  P2  1  0.10079484  0.81531175  0.80302682  1
  P  P3  1  0.60079484  0.18468825  0.69697318  1
  P  P4  1  0.60079484  0.18468825  0.30302682  1
  P  P5  1  0.10079484  0.81531175  0.19697318  1
  P  P6  1  0.62207188  0.57046788  0.50000000  1
  P  P7  1  0.12207188  0.42953212  0.00000000  1
loop_
_geom_bond_atom_site_label_1
_geom_bond_atom_site_label_2
_geom_bond_distance
_geom_bond_site_symmetry_2
K0 P0 3.170827 1_556
K0 P2 3.261034 1_655
K0 P3 3.294685 1_565
K0 P6 3.384153 1_555
K1 P1 3.170827 1_555
K1 P3 3.261034 1_555
K1 P2 3.294685 1_545
K1 P7 3.384153 1_556
K2 P1 3.170827 1_555
K2 P4 3.261034 1_555
K2 P5 3.294685 1_545
K2 P7 3.384153 1_555
K3 P0 3.170827 1_555
K3 P5 3.261034 1_655
K3 P4 3.294685 1_565
K3 P6 3.384153 1_555
K4 P3 3.272609 1_555
K4 P6 3.374685 1_555
K4 P7 3.375836 1_656
K4 P0 3.452309 1_556
K5 P2 3.272609 1_555
K5 P7 3.374685 1_556
K5 P6 3.375836 1_555
K5 P1 3.452309 1_555
K6 P5 3.272609 1_555
K6 P7 3.374685 1_555
K6 P6 3.375836 1_555
K6 P1 3.452309 1_555
K7 P4 3.272609 1_555
K7 P6 3.374685 1_555
K7 P7 3.375836 1_655
K7 P0 3.452309 1_555
K8 P0 3.213410 1_555
K8 P5 3.266503 1_555
K8 P2 3.266503 1_554
K9 P1 3.213410 1_655
K9 P3 3.266503 1_555
K9 P4 3.266503 1_555
P0 Ta0 2.402999 1_655
P0 Rb1 3.296427 1_555
P0 Rb2 3.707556 1_565
P1 Ta1 2.402999 1_555
P1 Rb0 3.296427 1_555
P1 Rb3 3.707556 1_545
P2 Ta0 2.434559 1_556
P2 Rb0 3.450086 1_555
P2 Rb2 3.593923 1_466
P3 Ta1 2.434559 1_555
P3 Rb1 3.450086 1_556
P3 Rb3 3.593923 1_545
P4 Ta1 2.434559 1_555
P4 Rb1 3.450086 1_555
P4 Rb3 3.593923 1_545
P5 Ta0 2.434559 1_555
P5 Rb0 3.450086 1_555
P5 Rb2 3.593923 1_465
P6 Ta1 2.431497 1_555
P6 Rb0 3.630396 1_655
P6 Rb3 3.839740 1_555
P7 Ta0 2.431497 1_555
P7 Rb1 3.630396 1_555
P7 Rb2 3.839740 1_455
