# generated using pymatgen
data_K2Rb6TiAs4
_symmetry_space_group_name_H-M   'P 1'
_cell_length_a   11.15835842
_cell_length_b   11.15835812
_cell_length_c   11.15836010
_cell_angle_alpha   59.99999992
_cell_angle_beta   60.00000081
_cell_angle_gamma   60.00000133
_symmetry_Int_Tables_number   1
_chemical_formula_structural   K2Rb6TiAs4
_chemical_formula_sum   'K4 Rb12 Ti2 As8'
_cell_volume   982.39463998
_cell_formula_units_Z   2
loop_
 _symmetry_equiv_pos_site_id
 _symmetry_equiv_pos_as_xyz
  1  'x, y, z'
loop_
 _atom_site_type_symbol
 _atom_site_label
 _atom_site_symmetry_multiplicity
 _atom_site_fract_x
 _atom_site_fract_y
 _atom_site_fract_z
 _atom_site_occupancy
  K  K0  1  0.62500000  0.62500000  0.12500000  1
  K  K1  1  0.62500000  0.12500000  0.62500000  1
  K  K2  1  0.12500000  0.62500000  0.62500000  1
  K  K3  1  0.62500000  0.62500000  0.62500000  1
  Rb  Rb0  1  0.02622602  0.47377398  0.47377398  1
  Rb  Rb1  1  0.77622602  0.22377398  0.22377398  1
  Rb  Rb2  1  0.47377398  0.02622602  0.47377398  1
  Rb  Rb3  1  0.47377398  0.47377398  0.02622602  1
  Rb  Rb4  1  0.02622602  0.02622602  0.47377398  1
  Rb  Rb5  1  0.02622602  0.47377398  0.02622602  1
  Rb  Rb6  1  0.47377398  0.02622602  0.02622602  1
  Rb  Rb7  1  0.77622602  0.22377398  0.77622602  1
  Rb  Rb8  1  0.22377398  0.77622602  0.22377398  1
  Rb  Rb9  1  0.22377398  0.22377398  0.77622602  1
  Rb  Rb10  1  0.77622602  0.77622602  0.22377398  1
  Rb  Rb11  1  0.22377398  0.77622602  0.77622602  1
  Ti  Ti0  1  0.75000000  0.75000000  0.75000000  1
  Ti  Ti1  1  0.50000000  0.50000000  0.50000000  1
  As  As0  1  0.84372397  0.84372397  0.46882909  1
  As  As1  1  0.84372397  0.46882909  0.84372397  1
  As  As2  1  0.40627603  0.40627603  0.78117091  1
  As  As3  1  0.40627603  0.78117091  0.40627603  1
  As  As4  1  0.78117091  0.40627603  0.40627603  1
  As  As5  1  0.84372397  0.84372397  0.84372397  1
  As  As6  1  0.46882909  0.84372397  0.84372397  1
  As  As7  1  0.40627603  0.40627603  0.40627603  1
loop_
_geom_bond_atom_site_label_1
_geom_bond_atom_site_label_2
_geom_bond_distance
_geom_bond_site_symmetry_2
K0 Ti1 3.416536 1_555
K0 Ti0 3.416536 1_554
K1 Ti0 3.416535 1_545
K1 Ti1 3.416535 1_555
K2 Ti1 3.416536 1_555
K2 Ti0 3.416536 1_455
K3 Ti0 3.416536 1_555
K3 Ti1 3.416536 1_555
As0 Ti0 2.561681 1_555
As0 K1 3.521390 1_565
As0 K2 3.521390 1_655
As0 K3 3.521399 1_555
As0 Rb4 3.559330 1_665
As0 Rb0 3.559340 1_655
As0 Rb2 3.559340 1_565
As0 Rb1 3.646597 1_565
As0 Rb8 3.646597 1_655
As0 Rb10 3.646605 1_555
As1 Ti0 2.561681 1_555
As1 K2 3.521390 1_655
As1 K0 3.521390 1_556
As1 K3 3.521399 1_555
As1 Rb5 3.559330 1_656
As1 Rb3 3.559340 1_556
As1 Rb0 3.559340 1_655
As1 Rb9 3.646597 1_655
As1 Rb1 3.646598 1_556
As1 Rb7 3.646605 1_555
As2 Ti1 2.561681 1_555
As2 K1 3.521390 1_555
As2 K2 3.521390 1_555
As2 K3 3.521399 1_555
As2 Rb9 3.559330 1_555
As2 Rb11 3.559340 1_555
As2 Rb7 3.559340 1_555
As2 Rb6 3.646597 1_556
As2 Rb5 3.646597 1_556
As2 Rb3 3.646605 1_556
As3 Ti1 2.561681 1_555
As3 K2 3.521390 1_555
As3 K0 3.521390 1_555
As3 K3 3.521399 1_555
As3 Rb8 3.559330 1_555
As3 Rb10 3.559340 1_555
As3 Rb11 3.559340 1_555
As3 Rb4 3.646597 1_565
As3 Rb6 3.646598 1_565
As3 Rb2 3.646605 1_565
As4 Ti1 2.561681 1_555
As4 K1 3.521390 1_555
As4 K0 3.521390 1_555
As4 K3 3.521399 1_555
As4 Rb1 3.559330 1_555
As4 Rb10 3.559340 1_555
As4 Rb7 3.559340 1_555
As4 Rb4 3.646597 1_655
As4 Rb5 3.646598 1_655
As4 Rb0 3.646605 1_655
As5 Ti0 2.561690 1_555
As5 K0 3.521397 1_556
As5 K1 3.521397 1_565
As5 K2 3.521397 1_655
As5 Rb5 3.559337 1_656
As5 Rb6 3.559337 1_566
As5 Rb4 3.559337 1_665
As5 Rb7 3.646594 1_565
As5 Rb11 3.646594 1_655
As5 Rb10 3.646595 1_556
As6 Ti0 2.561681 1_555
As6 K1 3.521390 1_565
As6 K0 3.521390 1_556
As6 K3 3.521399 1_555
As6 Rb6 3.559330 1_566
As6 Rb3 3.559340 1_556
As6 Rb2 3.559340 1_565
As6 Rb9 3.646597 1_565
As6 Rb8 3.646598 1_556
As6 Rb11 3.646605 1_555
As7 Ti1 2.561690 1_555
As7 K0 3.521397 1_555
As7 K1 3.521397 1_555
As7 K2 3.521397 1_555
As7 Rb8 3.559337 1_555
As7 Rb1 3.559337 1_555
As7 Rb9 3.559337 1_555
As7 Rb2 3.646594 1_555
As7 Rb0 3.646594 1_555
As7 Rb3 3.646595 1_555
