# generated using pymatgen
data_ZrCu5
_symmetry_space_group_name_H-M   'P 1'
_cell_length_a   4.82465578
_cell_length_b   4.82465605
_cell_length_c   4.82465908
_cell_angle_alpha   59.99997921
_cell_angle_beta   59.99997739
_cell_angle_gamma   59.99994395
_symmetry_Int_Tables_number   1
_chemical_formula_structural   ZrCu5
_chemical_formula_sum   'Zr1 Cu5'
_cell_volume   79.41160942
_cell_formula_units_Z   1
loop_
 _symmetry_equiv_pos_site_id
 _symmetry_equiv_pos_as_xyz
  1  'x, y, z'
loop_
 _atom_site_type_symbol
 _atom_site_label
 _atom_site_symmetry_multiplicity
 _atom_site_fract_x
 _atom_site_fract_y
 _atom_site_fract_z
 _atom_site_occupancy
  Zr  Zr0  1  0.00000000  -0.00000000  -0.00000000  1
  Cu  Cu0  1  0.25000000  0.25000000  0.25000000  1
  Cu  Cu1  1  0.62411083  0.62411083  0.62411083  1
  Cu  Cu2  1  0.62411083  0.62411083  0.12766852  1
  Cu  Cu3  1  0.12766852  0.62411083  0.62411083  1
  Cu  Cu4  1  0.62411083  0.12766852  0.62411083  1
loop_
_geom_bond_atom_site_label_1
_geom_bond_atom_site_label_2
_geom_bond_distance
_geom_bond_site_symmetry_2
Cu0 Cu2 2.826891 1_455
Cu0 Cu2 2.826892 1_545
Cu0 Cu4 2.826893 1_455
Cu0 Cu3 2.826893 1_545
Cu0 Cu1 2.826894 1_455
Cu0 Cu1 2.826894 1_545
Cu0 Cu4 2.826894 1_554
Cu0 Cu3 2.826894 1_554
Cu0 Cu1 2.826896 1_554
Cu0 Cu2 2.826898 1_555
Cu0 Cu4 2.826898 1_555
Cu0 Cu3 2.826898 1_555
Cu0 Zr0 2.954485 1_655
Cu0 Zr0 2.954485 1_565
Cu0 Zr0 2.954488 1_555
Cu0 Zr0 2.954488 1_556
Cu1 Cu3 2.395163 1_555
Cu1 Cu4 2.395163 1_555
Cu1 Cu2 2.395165 1_555
Cu1 Cu3 2.429493 1_655
Cu1 Cu4 2.429493 1_565
Cu1 Cu2 2.429494 1_556
Cu1 Zr0 2.830552 1_566
Cu1 Zr0 2.830552 1_656
Cu1 Zr0 2.830554 1_665
Cu2 Cu3 2.395163 1_555
Cu2 Cu4 2.395163 1_555
Cu2 Cu3 2.429493 1_654
Cu2 Cu4 2.429493 1_564
Cu2 Zr0 2.830552 1_665
Cu2 Zr0 2.830554 1_565
Cu2 Zr0 2.830554 1_655
Cu3 Cu4 2.395161 1_555
Cu3 Cu4 2.429491 1_465
Cu3 Zr0 2.830552 1_566
Cu3 Zr0 2.830555 1_556
Cu3 Zr0 2.830556 1_565
Cu4 Zr0 2.830552 1_656
Cu4 Zr0 2.830555 1_556
Cu4 Zr0 2.830556 1_655
