# generated using pymatgen
data_ZrSc(Ga2Ni)2
_symmetry_space_group_name_H-M   'P 1'
_cell_length_a   5.17501501
_cell_length_b   5.17501581
_cell_length_c   6.32964742
_cell_angle_alpha   90.00000000
_cell_angle_beta   90.00000000
_cell_angle_gamma   133.95360060
_symmetry_Int_Tables_number   1
_chemical_formula_structural   ZrSc(Ga2Ni)2
_chemical_formula_sum   'Zr1 Sc1 Ga4 Ni2'
_cell_volume   122.03271183
_cell_formula_units_Z   1
loop_
 _symmetry_equiv_pos_site_id
 _symmetry_equiv_pos_as_xyz
  1  'x, y, z'
loop_
 _atom_site_type_symbol
 _atom_site_label
 _atom_site_symmetry_multiplicity
 _atom_site_fract_x
 _atom_site_fract_y
 _atom_site_fract_z
 _atom_site_occupancy
  Zr  Zr0  1  0.92461377  0.07538623  0.25000000  1
  Sc  Sc0  1  0.07558812  0.92441188  0.75000000  1
  Ga  Ga0  1  0.63592390  0.36407610  0.45098046  1
  Ga  Ga1  1  0.36416848  0.63583152  0.54930913  1
  Ga  Ga2  1  0.36416848  0.63583152  0.95069087  1
  Ga  Ga3  1  0.63592390  0.36407610  0.04901954  1
  Ni  Ni0  1  0.20466336  0.79533664  0.25000000  1
  Ni  Ni1  1  0.79494899  0.20505101  0.75000000  1
loop_
_geom_bond_atom_site_label_1
_geom_bond_atom_site_label_2
_geom_bond_distance
_geom_bond_site_symmetry_2
Ga0 Ni1 2.424237 1_555
Ga0 Ni0 2.478612 1_655
Ga0 Ni0 2.478613 1_545
Ga0 Ga3 2.544271 1_555
Ga0 Ga1 2.662407 1_555
Ga0 Sc0 2.830024 1_545
Ga0 Sc0 2.830024 1_655
Ga0 Zr0 3.029942 1_555
Ga0 Zr0 3.125120 1_455
Ga0 Zr0 3.125121 1_565
Ga1 Ni0 2.428526 1_555
Ga1 Ni1 2.478885 1_455
Ga1 Ni1 2.478885 1_565
Ga1 Ga2 2.540605 1_555
Ga1 Zr0 2.831462 1_565
Ga1 Zr0 2.831462 1_455
Ga1 Sc0 3.028225 1_555
Ga1 Sc0 3.125047 1_655
Ga1 Sc0 3.125047 1_545
Ga2 Ni0 2.428526 1_556
Ga2 Ni1 2.478885 1_455
Ga2 Ni1 2.478885 1_565
Ga2 Ga3 2.662407 1_556
Ga2 Zr0 2.831462 1_566
Ga2 Zr0 2.831462 1_456
Ga2 Sc0 3.028225 1_555
Ga2 Sc0 3.125047 1_655
Ga2 Sc0 3.125047 1_545
Ga3 Ni1 2.424237 1_554
Ga3 Ni0 2.478612 1_655
Ga3 Ni0 2.478613 1_545
Ga3 Sc0 2.830024 1_544
Ga3 Sc0 2.830024 1_654
Ga3 Zr0 3.029942 1_555
Ga3 Zr0 3.125120 1_455
Ga3 Zr0 3.125121 1_565
Ni0 Zr0 2.667645 1_465
Ni0 Zr0 2.913100 1_565
Ni0 Zr0 2.913101 1_455
Ni1 Sc0 2.673260 1_645
Ni1 Sc0 2.909064 1_545
Ni1 Sc0 2.909065 1_655
