# generated using pymatgen
data_V10B4AsS
_symmetry_space_group_name_H-M   'P 1'
_cell_length_a   6.69024374
_cell_length_b   6.69023056
_cell_length_c   6.69024537
_cell_angle_alpha   129.24654515
_cell_angle_beta   129.24667466
_cell_angle_gamma   74.62250023
_symmetry_Int_Tables_number   1
_chemical_formula_structural   V10B4AsS
_chemical_formula_sum   'V10 B4 As1 S1'
_cell_volume   174.97845969
_cell_formula_units_Z   1
loop_
 _symmetry_equiv_pos_site_id
 _symmetry_equiv_pos_as_xyz
  1  'x, y, z'
loop_
 _atom_site_type_symbol
 _atom_site_label
 _atom_site_symmetry_multiplicity
 _atom_site_fract_x
 _atom_site_fract_y
 _atom_site_fract_z
 _atom_site_occupancy
  V  V0  1  0.53451319  0.69731342  0.50914575  1
  V  V1  1  0.02504147  0.53408287  0.83659662  1
  V  V2  1  0.69742778  0.18832053  0.16319151  1
  V  V3  1  0.96591716  0.47495642  0.16340707  1
  V  V4  1  0.18816058  0.02543993  0.49093638  1
  V  V5  1  0.47455882  0.31183379  0.50906123  1
  V  V6  1  0.80268239  0.96548664  0.49085590  1
  V  V7  1  0.31167438  0.80256874  0.83680538  1
  V  V8  1  0.00081003  0.00081189  0.99995453  1
  V  V9  1  0.49920044  0.49919916  0.00004727  1
  B  B0  1  0.61551961  0.11559655  0.73100149  1
  B  B1  1  0.11568978  0.38432762  0.50000009  1
  B  B2  1  0.88439079  0.61562246  0.49999665  1
  B  B3  1  0.38442373  0.88449716  0.26900137  1
  As  As0  1  0.24991648  0.25006268  0.00000060  1
  S  S0  1  0.75007336  0.74988012  0.99999816  1
loop_
_geom_bond_atom_site_label_1
_geom_bond_atom_site_label_2
_geom_bond_distance
_geom_bond_site_symmetry_2
B0 B3 1.873168 1_545
B0 V5 2.203606 1_555
B0 V0 2.204261 1_545
B0 V6 2.234898 1_545
B0 V4 2.235275 1_555
B0 V3 2.291774 1_556
B0 V2 2.292161 1_556
B0 V9 2.302174 1_556
B0 V8 2.302535 1_655
B1 B2 1.875934 1_455
B1 V7 2.203554 1_555
B1 V2 2.203704 1_455
B1 V3 2.234501 1_455
B1 V1 2.234660 1_555
B1 V5 2.288841 1_555
B1 V4 2.288957 1_555
B1 V8 2.301585 1_554
B1 V9 2.301594 1_556
B2 V3 2.203285 1_555
B2 V1 2.203442 1_655
B2 V7 2.234559 1_655
B2 V2 2.234687 1_555
B2 V6 2.289438 1_555
B2 V0 2.289565 1_555
B2 V9 2.301488 1_555
B2 V8 2.301527 1_665
B3 V4 2.203761 1_565
B3 V6 2.204099 1_555
B3 V0 2.235033 1_555
B3 V5 2.235125 1_565
B3 V1 2.291909 1_554
B3 V7 2.292044 1_554
B3 V8 2.302197 1_564
B3 V9 2.302539 1_555
As0 V6 2.469733 1_444
As0 V3 2.469794 1_455
As0 V0 2.469824 1_555
As0 V1 2.469888 1_554
As0 V5 2.469925 1_555
As0 V4 2.470033 1_554
As0 V7 2.470756 1_544
As0 V2 2.470855 1_555
As0 V8 2.651569 1_554
As0 V9 2.651902 1_555
S0 V5 2.408126 1_555
S0 V4 2.408348 1_666
S0 V3 2.408652 1_556
S0 V6 2.408718 1_556
S0 V1 2.408860 1_655
S0 V0 2.408911 1_555
S0 V7 2.409466 1_555
S0 V2 2.409678 1_566
S0 V9 2.669085 1_556
S0 V8 2.669665 1_665
