# generated using pymatgen
data_Ba8Ir3OsO20
_symmetry_space_group_name_H-M   'P 1'
_cell_length_a   5.73293361
_cell_length_b   7.37215777
_cell_length_c   11.61122685
_cell_angle_alpha   89.66789985
_cell_angle_beta   90.00000000
_cell_angle_gamma   90.00000000
_symmetry_Int_Tables_number   1
_chemical_formula_structural   Ba8Ir3OsO20
_chemical_formula_sum   'Ba8 Ir3 Os1 O20'
_cell_volume   490.72970544
_cell_formula_units_Z   1
loop_
 _symmetry_equiv_pos_site_id
 _symmetry_equiv_pos_as_xyz
  1  'x, y, z'
loop_
 _atom_site_type_symbol
 _atom_site_label
 _atom_site_symmetry_multiplicity
 _atom_site_fract_x
 _atom_site_fract_y
 _atom_site_fract_z
 _atom_site_occupancy
  Ba  Ba0  1  0.75000000  0.48060943  0.28649596  1
  Ba  Ba1  1  0.25000000  0.52591132  0.71321579  1
  Ba  Ba2  1  0.75000000  0.97990264  0.21078821  1
  Ba  Ba3  1  0.25000000  0.01918625  0.78969509  1
  Ba  Ba4  1  0.75000000  0.16300606  0.58192901  1
  Ba  Ba5  1  0.25000000  0.82714728  0.41724275  1
  Ba  Ba6  1  0.75000000  0.66349987  0.92233290  1
  Ba  Ba7  1  0.25000000  0.33852842  0.07658456  1
  Ir  Ir0  1  0.75000000  0.17048912  0.93543005  1
  Ir  Ir1  1  0.25000000  0.83048285  0.06534492  1
  Ir  Ir2  1  0.75000000  0.66855856  0.56172838  1
  Os  Os0  1  0.25000000  0.32489715  0.43634362  1
  O  O0  1  0.48494728  0.17404814  0.38281865  1
  O  O1  1  0.99130767  0.82336982  0.61459663  1
  O  O2  1  0.00892445  0.67871500  0.12210232  1
  O  O3  1  0.50741775  0.32145022  0.88012927  1
  O  O4  1  0.50869233  0.82336982  0.61459663  1
  O  O5  1  0.01505272  0.17404814  0.38281865  1
  O  O6  1  0.99258225  0.32145022  0.88012927  1
  O  O7  1  0.49107555  0.67871500  0.12210232  1
  O  O8  1  0.50151144  0.49612610  0.50001917  1
  O  O9  1  0.99848856  0.49612610  0.50001917  1
  O  O10  1  0.99984829  0.99936576  0.99930017  1
  O  O11  1  0.50015171  0.99936576  0.99930017  1
  O  O12  1  0.75000000  0.29305927  0.08615943  1
  O  O13  1  0.25000000  0.70693403  0.91506641  1
  O  O14  1  0.75000000  0.78733240  0.40896176  1
  O  O15  1  0.25000000  0.22138908  0.58741710  1
  O  O16  1  0.75000000  0.02502871  0.80138040  1
  O  O17  1  0.25000000  0.98077042  0.19710725  1
  O  O18  1  0.75000000  0.52768128  0.69854348  1
  O  O19  1  0.25000000  0.47943380  0.31030148  1
loop_
_geom_bond_atom_site_label_1
_geom_bond_atom_site_label_2
_geom_bond_distance
_geom_bond_site_symmetry_2
Ba0 O14 2.678128 1_555
Ba0 O12 2.712930 1_555
Ba0 O2 2.819156 1_655
Ba0 O7 2.819156 1_555
Ba0 O9 2.862260 1_555
Ba0 O8 2.862260 1_555
Ba0 O19 2.879771 1_655
Ba0 O19 2.879771 1_555
Ba0 O5 2.939086 1_655
Ba0 O0 2.939086 1_555
Ba1 O15 2.685434 1_555
Ba1 O13 2.703758 1_555
Ba1 O3 2.858693 1_555
Ba1 O6 2.858693 1_455
Ba1 O18 2.871550 1_455
Ba1 O18 2.871550 1_555
Ba1 O8 2.874293 1_555
Ba1 O9 2.874293 1_455
Ba1 O4 2.879316 1_555
Ba1 O1 2.879316 1_455
Ba2 O14 2.696727 1_555
Ba2 O12 2.717567 1_565
Ba2 O10 2.845754 1_554
Ba2 O11 2.845754 1_554
Ba2 O7 2.867144 1_555
Ba2 O2 2.867144 1_655
Ba2 O17 2.870870 1_555
Ba2 O17 2.870870 1_655
Ba2 O5 2.894926 1_665
Ba2 O0 2.894926 1_565
Ba3 O13 2.716494 1_545
Ba3 O15 2.774506 1_555
Ba3 O11 2.827919 1_545
Ba3 O10 2.827919 1_445
Ba3 O16 2.870011 1_555
Ba3 O16 2.870011 1_455
Ba3 O3 2.876297 1_555
Ba3 O6 2.876297 1_455
Ba3 O4 2.907058 1_545
Ba3 O1 2.907058 1_445
Ba4 O16 2.738146 1_555
Ba4 O5 2.767376 1_655
Ba4 O0 2.767376 1_555
Ba4 O1 2.883737 1_545
Ba4 O4 2.883737 1_545
Ba4 O15 2.899356 1_555
Ba4 O15 2.899356 1_655
Ba4 O9 2.989629 1_555
Ba4 O8 2.989629 1_555
Ba4 O18 3.017175 1_555
Ba5 O4 2.729576 1_555
Ba5 O1 2.729576 1_455
Ba5 O17 2.789701 1_555
Ba5 O19 2.854782 1_555
Ba5 O14 2.883116 1_555
Ba5 O14 2.883116 1_455
Ba5 O0 2.915903 1_565
Ba5 O5 2.915903 1_565
Ba5 O8 2.988465 1_555
Ba5 O9 2.988465 1_455
Ba6 O7 2.756706 1_556
Ba6 O2 2.756706 1_656
Ba6 O18 2.790118 1_555
Ba6 O13 2.885475 1_555
Ba6 O13 2.885475 1_655
Ba6 O6 2.923562 1_555
Ba6 O3 2.923562 1_555
Ba6 O10 3.001141 1_555
Ba6 O11 3.001141 1_555
Ba6 O16 3.005414 1_565
Ba6 O12 3.319084 1_556
Ba7 O3 2.720368 1_554
Ba7 O6 2.720368 1_454
Ba7 O12 2.888066 1_555
Ba7 O12 2.888066 1_455
Ba7 O19 2.911378 1_555
Ba7 O7 2.914519 1_555
Ba7 O2 2.914519 1_555
Ba7 O17 2.978542 1_545
Ba7 O11 3.023199 1_544
Ba7 O10 3.023199 1_444
Ba7 O13 3.291583 1_554
Ir0 O6 1.891205 1_555
Ir0 O3 1.891205 1_555
Ir0 O16 1.895239 1_555
Ir0 O12 1.974303 1_556
Ir0 O10 2.045070 1_545
Ir0 O11 2.045070 1_545
Ir1 O2 1.894128 1_555
Ir1 O7 1.894128 1_555
Ir1 O17 1.894162 1_555
Ir1 O13 1.973007 1_554
Ir1 O11 2.045425 1_554
Ir1 O10 2.045425 1_454
Ir2 O18 1.892914 1_555
Ir2 O1 1.897709 1_555
Ir2 O4 1.897709 1_555
Ir2 O14 1.973600 1_555
Ir2 O9 2.041887 1_555
Ir2 O8 2.041887 1_555
O0 Os0 1.856133 1_555
O5 Os0 1.856133 1_555
O8 Os0 2.056696 1_555
O9 Os0 2.056696 1_655
O15 Os0 1.908876 1_555
O19 Os0 1.849445 1_555
