# generated using pymatgen
data_Cs2Tc7W5Se14
_symmetry_space_group_name_H-M   'P 1'
_cell_length_a   9.85110089
_cell_length_b   9.86587907
_cell_length_c   9.81598354
_cell_angle_alpha   60.39895295
_cell_angle_beta   61.19162476
_cell_angle_gamma   60.80173388
_symmetry_Int_Tables_number   1
_chemical_formula_structural   Cs2Tc7W5Se14
_chemical_formula_sum   'Cs2 Tc7 W5 Se14'
_cell_volume   686.65861902
_cell_formula_units_Z   1
loop_
 _symmetry_equiv_pos_site_id
 _symmetry_equiv_pos_as_xyz
  1  'x, y, z'
loop_
 _atom_site_type_symbol
 _atom_site_label
 _atom_site_symmetry_multiplicity
 _atom_site_fract_x
 _atom_site_fract_y
 _atom_site_fract_z
 _atom_site_occupancy
  Cs  Cs0  1  0.38073844  0.37727728  0.38083988  1
  Cs  Cs1  1  0.61619751  0.61943292  0.62358037  1
  Tc  Tc0  1  0.30102989  0.12452868  0.99264067  1
  Tc  Tc1  1  0.19430079  0.88760975  0.06130609  1
  Tc  Tc2  1  0.88886400  0.05890994  0.19331197  1
  Tc  Tc3  1  0.93828236  0.80236401  0.11382866  1
  Tc  Tc4  1  0.80351512  0.11342261  0.93966461  1
  Tc  Tc5  1  0.11393760  0.93981928  0.80562641  1
  Tc  Tc6  1  0.99259687  0.29964797  0.12524208  1
  W  W0  1  0.87632023  0.00477051  0.70369990  1
  W  W1  1  0.12573609  0.99624642  0.29399641  1
  W  W2  1  0.00275119  0.70512859  0.87695237  1
  W  W3  1  0.70521889  0.87592554  0.00133785  1
  W  W4  1  0.05899525  0.18839883  0.89441445  1
  Se  Se0  1  0.98153629  0.24037116  0.64524703  1
  Se  Se1  1  0.23688901  0.64632772  0.98470044  1
  Se  Se2  1  0.64683385  0.98177391  0.23684238  1
  Se  Se3  1  0.02253029  0.76450686  0.35601221  1
  Se  Se4  1  0.76052688  0.35424036  0.02308186  1
  Se  Se5  1  0.35738012  0.01582888  0.76685246  1
  Se  Se6  1  0.16611398  0.41517486  0.81807818  1
  Se  Se7  1  0.41742284  0.81526320  0.16754921  1
  Se  Se8  1  0.81527382  0.16982205  0.41221182  1
  Se  Se9  1  0.83011492  0.57996292  0.18702759  1
  Se  Se10  1  0.58130508  0.18865313  0.82628975  1
  Se  Se11  1  0.18602615  0.83328626  0.58063678  1
  Se  Se12  1  0.77644625  0.77717734  0.77275029  1
  Se  Se13  1  0.22311330  0.22412601  0.21627727  1
loop_
_geom_bond_atom_site_label_1
_geom_bond_atom_site_label_2
_geom_bond_distance
_geom_bond_site_symmetry_2
Cs0 Se4 3.698371 1_555
Cs0 Se5 3.706511 1_555
Cs0 Se3 3.723247 1_555
Cs0 Se13 3.797532 1_555
Cs0 Se8 3.835042 1_555
Cs0 Se7 3.878507 1_555
Cs0 Se6 3.885760 1_555
Cs0 Se1 3.951978 1_554
Cs0 Se0 3.988502 1_455
Cs0 Se2 3.999136 1_545
Cs1 Se1 3.714076 1_555
Cs1 Se0 3.715363 1_555
Cs1 Se2 3.717969 1_555
Cs1 Se12 3.732845 1_555
Cs1 Se10 3.814680 1_555
Cs1 Se11 3.834922 1_555
Cs1 Se9 3.885892 1_555
Cs1 Se4 3.981594 1_556
Cs1 Se5 4.002758 1_565
Cs1 Se3 4.088173 1_655
Tc0 W1 2.616260 1_546
Tc0 W4 2.676035 1_555
Tc1 W4 2.590219 1_564
Tc1 W1 2.654680 1_555
Tc2 W4 2.587693 1_654
Tc2 W1 2.648672 1_645
Tc2 Tc4 2.729234 1_554
Tc3 W2 2.629840 1_654
Tc3 W3 2.653901 1_555
Tc3 Tc4 2.670653 1_564
Tc4 W3 2.653625 1_546
Tc4 W0 2.670226 1_555
Tc4 Tc5 2.693409 1_645
Tc4 W4 2.737324 1_655
Tc5 W0 2.655412 1_465
Tc5 W2 2.680467 1_555
Tc5 W4 2.725612 1_565
Tc6 W1 2.605594 1_645
Tc6 W4 2.663528 1_654
W0 W2 2.581667 1_645
W0 W3 2.582277 1_546
W2 W3 2.585701 1_456
Se0 Tc5 2.562397 1_645
Se0 Tc4 2.584339 1_555
Se0 W4 2.646735 1_655
Se0 W0 2.695606 1_555
Se1 Tc5 2.557914 1_555
Se1 Tc3 2.558425 1_456
Se1 Tc1 2.626400 1_556
Se1 W2 2.686005 1_555
Se2 Tc4 2.540141 1_564
Se2 Tc3 2.578031 1_555
Se2 Tc2 2.629379 1_565
Se2 W3 2.698671 1_555
Se3 Tc2 2.536412 1_465
Se3 Tc1 2.554082 1_555
Se3 W1 2.632097 1_555
Se3 Tc3 2.683577 1_455
Se4 Tc2 2.551905 1_555
Se4 W4 2.585753 1_654
Se4 Tc6 2.645127 1_555
Se4 Tc4 2.664709 1_554
Se5 Tc1 2.535899 1_546
Se5 W4 2.604396 1_555
Se5 Tc0 2.636650 1_555
Se5 Tc5 2.655457 1_545
Se6 Tc0 2.558789 1_555
Se6 W4 2.562405 1_555
Se6 Tc6 2.617360 1_456
Se6 W2 2.711531 1_555
Se7 Tc1 2.524162 1_555
Se7 W1 2.594567 1_555
Se7 Tc0 2.623121 1_564
Se7 W3 2.700149 1_555
Se8 Tc2 2.527350 1_555
Se8 Tc6 2.550118 1_555
Se8 W1 2.658135 1_645
Se8 W0 2.701848 1_555
Se9 Tc3 2.540059 1_555
Se9 W3 2.600077 1_555
Se9 Tc6 2.642089 1_555
Se9 W2 2.651102 1_654
Se10 Tc4 2.554960 1_555
Se10 W0 2.612950 1_555
Se10 Tc0 2.651114 1_555
Se10 W3 2.659195 1_546
Se11 Tc5 2.557313 1_555
Se11 W2 2.617523 1_555
Se11 W0 2.657214 1_465
Se11 W1 2.657852 1_555
Se12 W3 2.539969 1_556
Se12 W2 2.540622 1_655
Se12 W0 2.545280 1_565
Se13 Tc0 2.478882 1_554
Se13 Tc6 2.481434 1_455
Se13 W1 2.502242 1_545
