# generated using pymatgen
data_AuS2NO10
_symmetry_space_group_name_H-M   'P 1'
_cell_length_a   4.75369234
_cell_length_b   5.84664758
_cell_length_c   7.86112076
_cell_angle_alpha   101.94150067
_cell_angle_beta   103.85423986
_cell_angle_gamma   84.61119983
_symmetry_Int_Tables_number   1
_chemical_formula_structural   AuS2NO10
_chemical_formula_sum   'Au1 S2 N1 O10'
_cell_volume   207.31212484
_cell_formula_units_Z   1
loop_
 _symmetry_equiv_pos_site_id
 _symmetry_equiv_pos_as_xyz
  1  'x, y, z'
loop_
 _atom_site_type_symbol
 _atom_site_label
 _atom_site_symmetry_multiplicity
 _atom_site_fract_x
 _atom_site_fract_y
 _atom_site_fract_z
 _atom_site_occupancy
  Au  Au0  1  0.00000000  0.00000000  0.00000000  1
  S  S0  1  0.38088397  0.09069991  0.76212638  1
  S  S1  1  0.61911603  0.90930009  0.23787362  1
  N  N0  1  0.50000000  0.50000000  0.50000000  1
  O  O0  1  0.71275616  0.49112762  0.60087825  1
  O  O1  1  0.28724384  0.50887238  0.39912175  1
  O  O2  1  0.28068439  0.18531731  0.93703516  1
  O  O3  1  0.71931561  0.81468269  0.06296484  1
  O  O4  1  0.70536214  0.13840047  0.81529438  1
  O  O5  1  0.29463786  0.86159953  0.18470562  1
  O  O6  1  0.32949923  0.84579125  0.70698345  1
  O  O7  1  0.67050077  0.15420875  0.29301655  1
  O  O8  1  0.26097383  0.23703419  0.63440603  1
  O  O9  1  0.73902617  0.76296581  0.36559397  1
loop_
_geom_bond_atom_site_label_1
_geom_bond_atom_site_label_2
_geom_bond_distance
_geom_bond_site_symmetry_2
Au0 O2 2.002254 1_554
Au0 O3 2.002254 1_445
Au0 O5 2.006036 1_545
Au0 O4 2.006036 1_454
N0 O0 1.130274 1_555
N0 O1 1.130274 1_555
O2 S0 1.540408 1_555
O3 S1 1.540408 1_555
O4 S0 1.534763 1_555
O5 S1 1.534763 1_555
O6 S0 1.433883 1_565
O7 S1 1.433883 1_545
O8 S0 1.433448 1_555
O9 S1 1.433448 1_555
