# generated using pymatgen
data_Ba4Bi3F17
_symmetry_space_group_name_H-M   'P 1'
_cell_length_a   9.43389948
_cell_length_b   9.47423125
_cell_length_c   9.53329293
_cell_angle_alpha   72.73471043
_cell_angle_beta   72.77949369
_cell_angle_gamma   72.93940117
_symmetry_Int_Tables_number   1
_chemical_formula_structural   Ba4Bi3F17
_chemical_formula_sum   'Ba8 Bi6 F34'
_cell_volume   757.22151000
_cell_formula_units_Z   2
loop_
 _symmetry_equiv_pos_site_id
 _symmetry_equiv_pos_as_xyz
  1  'x, y, z'
loop_
 _atom_site_type_symbol
 _atom_site_label
 _atom_site_symmetry_multiplicity
 _atom_site_fract_x
 _atom_site_fract_y
 _atom_site_fract_z
 _atom_site_occupancy
  Ba  Ba0  1  0.30840185  0.89341122  0.05298131  1
  Ba  Ba1  1  0.26300639  0.27032025  0.27019680  1
  Ba  Ba2  1  0.88669019  0.06272888  0.31145674  1
  Ba  Ba3  1  0.93847186  0.68878806  0.11450623  1
  Ba  Ba4  1  0.05942309  0.31377579  0.88119026  1
  Ba  Ba5  1  0.11153689  0.94752619  0.68677896  1
  Ba  Ba6  1  0.72967623  0.73646039  0.73222529  1
  Ba  Ba7  1  0.69033733  0.11201012  0.94197478  1
  Bi  Bi0  1  0.61532289  0.46479742  0.16036475  1
  Bi  Bi1  1  0.15342701  0.61551897  0.46496588  1
  Bi  Bi2  1  0.53209157  0.84586268  0.38582225  1
  Bi  Bi3  1  0.47372490  0.17802999  0.61193657  1
  Bi  Bi4  1  0.81502045  0.38414704  0.53888650  1
  Bi  Bi5  1  0.38521990  0.53333010  0.83867706  1
  F  F0  1  0.00377666  0.00025638  0.99596917  1
  F  F1  1  0.17668845  0.45717709  0.01874311  1
  F  F2  1  0.13852350  0.14396592  0.13668020  1
  F  F3  1  0.48926162  0.35767442  0.04630377  1
  F  F4  1  0.45263107  0.02096171  0.17715553  1
  F  F5  1  0.78823444  0.26431458  0.07497077  1
  F  F6  1  0.01880266  0.17823981  0.45326317  1
  F  F7  1  0.03955438  0.49559592  0.35732239  1
  F  F8  1  0.07579266  0.78997230  0.26165507  1
  F  F9  1  0.34333875  0.54861644  0.25774191  1
  F  F10  1  0.60055780  0.70594358  0.19779882  1
  F  F11  1  0.55704882  0.24731878  0.33817555  1
  F  F12  1  0.35735418  0.04627327  0.48754987  1
  F  F13  1  0.81123250  0.39862781  0.28654966  1
  F  F14  1  0.73783740  0.92490883  0.21227191  1
  F  F15  1  0.29205736  0.80367954  0.40478970  1
  F  F16  1  0.25643271  0.34722768  0.55079795  1
  F  F17  1  0.55182535  0.41889259  0.53779672  1
  F  F18  1  0.74061377  0.65505799  0.45232856  1
  F  F19  1  0.73195675  0.15760599  0.60910507  1
  F  F20  1  0.26504168  0.08362830  0.78055020  1
  F  F21  1  0.19741798  0.59043751  0.70772052  1
  F  F22  1  0.64337677  0.95607737  0.50649753  1
  F  F23  1  0.44967899  0.74348292  0.65501561  1
  F  F24  1  0.40048921  0.28352140  0.81972976  1
  F  F25  1  0.66310542  0.44505968  0.76147023  1
  F  F26  1  0.92124551  0.21578337  0.73631645  1
  F  F27  1  0.95305219  0.51373305  0.64156523  1
  F  F28  1  0.97956833  0.82457656  0.54458309  1
  F  F29  1  0.21377995  0.73685931  0.91850963  1
  F  F30  1  0.54464927  0.98187372  0.82554592  1
  F  F31  1  0.50602981  0.64459568  0.95831301  1
  F  F32  1  0.86165516  0.85818482  0.86220532  1
  F  F33  1  0.82103636  0.54716357  0.98004922  1
loop_
_geom_bond_atom_site_label_1
_geom_bond_atom_site_label_2
_geom_bond_distance
_geom_bond_site_symmetry_2
Ba0 F2 2.641021 1_565
Ba0 F29 2.687612 1_554
Ba0 F8 2.693174 1_555
Ba0 F4 2.735087 1_565
Ba0 F30 2.743527 1_554
Ba0 F31 2.745045 1_554
Ba0 F20 2.752916 1_564
Ba0 F0 2.910352 1_564
Ba0 F15 3.173850 1_555
Ba0 F9 3.248731 1_555
Ba0 F10 3.253026 1_555
Ba1 F12 2.638958 1_555
Ba1 F6 2.647500 1_555
Ba1 F2 2.654579 1_555
Ba1 F7 2.657923 1_555
Ba1 F3 2.662168 1_555
Ba1 F1 2.708226 1_555
Ba1 F4 2.718967 1_555
Ba1 F9 2.910955 1_555
Ba1 F16 2.953460 1_555
Ba1 F11 2.964498 1_555
Ba2 F2 2.642108 1_655
Ba2 F14 2.676931 1_545
Ba2 F5 2.690008 1_555
Ba2 F6 2.693466 1_655
Ba2 F22 2.732346 1_545
Ba2 F8 2.758186 1_645
Ba2 F28 2.795421 1_545
Ba2 F13 3.002160 1_555
Ba2 F19 3.046674 1_555
Ba2 F0 3.053245 1_654
Ba2 F11 3.065692 1_555
Ba3 F32 2.635219 1_554
Ba3 F14 2.676621 1_555
Ba3 F8 2.677333 1_655
Ba3 F7 2.717690 1_655
Ba3 F33 2.721184 1_554
Ba3 F29 2.785645 1_654
Ba3 F1 2.789225 1_655
Ba3 F0 3.006590 1_664
Ba3 F10 3.015477 1_555
Ba3 F13 3.127669 1_555
Ba3 F18 3.184015 1_555
Ba4 F26 2.646872 1_455
Ba4 F20 2.663788 1_555
Ba4 F2 2.668953 1_556
Ba4 F27 2.736316 1_455
Ba4 F5 2.751141 1_456
Ba4 F1 2.754572 1_556
Ba4 F33 2.810574 1_455
Ba4 F0 2.990226 1_555
Ba4 F24 3.036541 1_555
Ba4 F21 3.074821 1_555
Ba4 F16 3.124489 1_555
Ba5 F32 2.658330 1_455
Ba5 F20 2.665603 1_565
Ba5 F29 2.703538 1_555
Ba5 F26 2.727354 1_465
Ba5 F12 2.733279 1_565
Ba5 F28 2.744455 1_455
Ba5 F6 2.764367 1_565
Ba5 F0 2.961968 1_565
Ba5 F15 3.175943 1_555
Ba5 F23 3.187782 1_555
Ba5 F21 3.198193 1_555
Ba6 F22 2.647355 1_555
Ba6 F32 2.649517 1_555
Ba6 F27 2.652457 1_555
Ba6 F31 2.669450 1_555
Ba6 F30 2.677952 1_555
Ba6 F28 2.688104 1_555
Ba6 F33 2.706399 1_555
Ba6 F23 2.922769 1_555
Ba6 F25 2.924199 1_555
Ba6 F18 2.955891 1_555
Ba7 F32 2.655322 1_545
Ba7 F5 2.665318 1_556
Ba7 F26 2.671988 1_555
Ba7 F30 2.711280 1_545
Ba7 F14 2.736654 1_546
Ba7 F3 2.769680 1_556
Ba7 F4 2.794592 1_556
Ba7 F0 2.978296 1_655
Ba7 F19 2.993152 1_555
Ba7 F25 3.089766 1_555
Ba7 F24 3.103403 1_555
Bi0 F5 2.290196 1_555
Bi0 F13 2.333418 1_555
Bi0 F33 2.333933 1_554
Bi0 F11 2.336819 1_555
Bi0 F10 2.373670 1_555
Bi0 F3 2.399108 1_555
Bi0 F31 2.423387 1_554
Bi0 F9 2.430586 1_555
Bi1 F8 2.292058 1_555
Bi1 F28 2.332027 1_455
Bi1 F9 2.344275 1_555
Bi1 F15 2.352480 1_555
Bi1 F7 2.357760 1_555
Bi1 F27 2.357800 1_455
Bi1 F21 2.401838 1_555
Bi1 F16 2.421099 1_555
Bi2 F14 2.298183 1_555
Bi2 F4 2.337857 1_565
Bi2 F18 2.347592 1_555
Bi2 F15 2.359210 1_555
Bi2 F12 2.360723 1_565
Bi2 F22 2.363787 1_555
Bi2 F10 2.368548 1_555
Bi2 F23 2.432021 1_555
Bi3 F16 2.310025 1_555
Bi3 F24 2.315191 1_555
Bi3 F20 2.359150 1_555
Bi3 F19 2.379177 1_555
Bi3 F30 2.424677 1_545
Bi3 F11 2.435412 1_555
Bi3 F17 2.443502 1_555
Bi3 F22 2.514195 1_545
Bi3 F12 2.573559 1_555
Bi4 F25 2.308819 1_555
Bi4 F26 2.342621 1_555
Bi4 F19 2.343544 1_555
Bi4 F13 2.378893 1_555
Bi4 F18 2.406254 1_555
Bi4 F17 2.409811 1_555
Bi4 F6 2.446083 1_655
Bi4 F27 2.562680 1_555
Bi4 F7 2.579618 1_655
Bi5 F29 2.285972 1_555
Bi5 F21 2.310093 1_555
Bi5 F23 2.326013 1_555
Bi5 F1 2.331432 1_556
Bi5 F24 2.386037 1_555
Bi5 F3 2.426392 1_556
Bi5 F31 2.428838 1_555
Bi5 F25 2.459697 1_555
