# generated using pymatgen
data_KSr4Bi2P
_symmetry_space_group_name_H-M   'P 1'
_cell_length_a   8.54581349
_cell_length_b   9.99510338
_cell_length_c   13.61930060
_cell_angle_alpha   90.00000000
_cell_angle_beta   90.00000000
_cell_angle_gamma   90.00000000
_symmetry_Int_Tables_number   1
_chemical_formula_structural   KSr4Bi2P
_chemical_formula_sum   'K4 Sr16 Bi8 P4'
_cell_volume   1163.31012035
_cell_formula_units_Z   4
loop_
 _symmetry_equiv_pos_site_id
 _symmetry_equiv_pos_as_xyz
  1  'x, y, z'
loop_
 _atom_site_type_symbol
 _atom_site_label
 _atom_site_symmetry_multiplicity
 _atom_site_fract_x
 _atom_site_fract_y
 _atom_site_fract_z
 _atom_site_occupancy
  K  K0  1  0.00738808  0.75000000  0.49945370  1
  K  K1  1  0.99261192  0.25000000  0.50054630  1
  K  K2  1  0.50738808  0.25000000  0.00054630  1
  K  K3  1  0.49261192  0.75000000  0.99945370  1
  Sr  Sr0  1  0.84865283  0.75000000  0.80049038  1
  Sr  Sr1  1  0.15134717  0.25000000  0.19950962  1
  Sr  Sr2  1  0.34865283  0.25000000  0.69950962  1
  Sr  Sr3  1  0.65134717  0.75000000  0.30049038  1
  Sr  Sr4  1  0.68749331  0.50221607  0.57035243  1
  Sr  Sr5  1  0.31250669  0.49778393  0.42964757  1
  Sr  Sr6  1  0.18749331  0.49778393  0.92964757  1
  Sr  Sr7  1  0.31250669  0.00221607  0.42964757  1
  Sr  Sr8  1  0.81250669  0.50221607  0.07035243  1
  Sr  Sr9  1  0.68749331  0.99778393  0.57035243  1
  Sr  Sr10  1  0.81250669  0.99778393  0.07035243  1
  Sr  Sr11  1  0.18749331  0.00221607  0.92964757  1
  Sr  Sr12  1  0.34714296  0.75000000  0.70033443  1
  Sr  Sr13  1  0.65285704  0.25000000  0.29966557  1
  Sr  Sr14  1  0.84714296  0.25000000  0.79966557  1
  Sr  Sr15  1  0.15285704  0.75000000  0.20033443  1
  Bi  Bi0  1  0.56383096  0.50037643  0.82140094  1
  Bi  Bi1  1  0.43616904  0.49962357  0.17859906  1
  Bi  Bi2  1  0.06383096  0.49962357  0.67859906  1
  Bi  Bi3  1  0.43616904  0.00037643  0.17859906  1
  Bi  Bi4  1  0.93616904  0.50037643  0.32140094  1
  Bi  Bi5  1  0.56383096  0.99962357  0.82140094  1
  Bi  Bi6  1  0.93616904  0.99962357  0.32140094  1
  Bi  Bi7  1  0.06383096  0.00037643  0.67859906  1
  P  P0  1  0.00355652  0.75000000  0.99944052  1
  P  P1  1  0.99644348  0.25000000  0.00055948  1
  P  P2  1  0.50355652  0.25000000  0.50055948  1
  P  P3  1  0.49644348  0.75000000  0.49944052  1
loop_
_geom_bond_atom_site_label_1
_geom_bond_atom_site_label_2
_geom_bond_distance
_geom_bond_site_symmetry_2
Bi0 Sr14 3.494596 1_555
Bi0 Sr0 3.497245 1_555
Bi0 Sr12 3.517505 1_555
Bi0 Sr2 3.521363 1_555
Bi0 K2 3.528194 1_556
Bi0 K3 3.532127 1_555
Bi0 Sr6 3.537999 1_555
Bi0 Sr4 3.578748 1_555
Bi0 Sr8 4.001542 1_556
Bi1 Sr15 3.494596 1_555
Bi1 Sr1 3.497245 1_555
Bi1 Sr13 3.517505 1_555
Bi1 Sr3 3.521363 1_555
Bi1 K3 3.528194 1_554
Bi1 K2 3.532127 1_555
Bi1 Sr8 3.537999 1_555
Bi1 Sr5 3.578748 1_555
Bi1 Sr6 4.001542 1_554
Bi2 Sr12 3.494596 1_555
Bi2 Sr2 3.497245 1_555
Bi2 Sr14 3.517505 1_455
Bi2 Sr0 3.521363 1_455
Bi2 K0 3.528194 1_555
Bi2 K1 3.532127 1_455
Bi2 Sr4 3.537999 1_455
Bi2 Sr6 3.578748 1_555
Bi2 Sr5 4.001542 1_555
Bi3 Sr15 3.494596 1_545
Bi3 Sr1 3.497245 1_555
Bi3 Sr13 3.517505 1_555
Bi3 Sr3 3.521363 1_545
Bi3 K3 3.528194 1_544
Bi3 K2 3.532127 1_555
Bi3 Sr10 3.537999 1_545
Bi3 Sr7 3.578748 1_555
Bi3 Sr11 4.001542 1_554
Bi4 Sr13 3.494596 1_555
Bi4 Sr3 3.497245 1_555
Bi4 Sr15 3.517505 1_655
Bi4 Sr1 3.521363 1_655
Bi4 K1 3.528194 1_555
Bi4 K0 3.532127 1_655
Bi4 Sr5 3.537999 1_655
Bi4 Sr8 3.578748 1_555
Bi4 Sr4 4.001542 1_555
Bi5 Sr14 3.494596 1_565
Bi5 Sr0 3.497245 1_555
Bi5 Sr12 3.517505 1_555
Bi5 Sr2 3.521363 1_565
Bi5 K2 3.528194 1_566
Bi5 K3 3.532127 1_555
Bi5 Sr11 3.537999 1_565
Bi5 Sr9 3.578748 1_555
Bi5 Sr10 4.001542 1_556
Bi6 Sr13 3.494596 1_565
Bi6 Sr3 3.497245 1_555
Bi6 Sr15 3.517505 1_655
Bi6 Sr1 3.521363 1_665
Bi6 K1 3.528194 1_565
Bi6 K0 3.532127 1_655
Bi6 Sr7 3.537999 1_665
Bi6 Sr10 3.578748 1_555
Bi6 Sr9 4.001542 1_555
Bi7 Sr12 3.494596 1_545
Bi7 Sr2 3.497245 1_555
Bi7 Sr14 3.517505 1_455
Bi7 Sr0 3.521363 1_445
Bi7 K0 3.528194 1_545
Bi7 K1 3.532127 1_455
Bi7 Sr9 3.537999 1_445
Bi7 Sr11 3.578748 1_555
Bi7 Sr7 4.001542 1_555
P0 Sr0 3.015645 1_455
P0 Sr15 3.018906 1_556
P0 Sr6 3.119201 1_555
P0 Sr11 3.119201 1_565
P0 Sr10 3.119619 1_456
P0 Sr8 3.119619 1_456
P1 Sr1 3.015645 1_655
P1 Sr14 3.018906 1_554
P1 Sr8 3.119201 1_555
P1 Sr10 3.119201 1_545
P1 Sr11 3.119619 1_654
P1 Sr6 3.119619 1_654
P2 Sr2 3.015645 1_555
P2 Sr13 3.018906 1_555
P2 Sr4 3.119201 1_555
P2 Sr9 3.119201 1_545
P2 Sr7 3.119619 1_555
P2 Sr5 3.119619 1_555
P3 Sr3 3.015645 1_555
P3 Sr12 3.018906 1_555
P3 Sr5 3.119201 1_555
P3 Sr7 3.119201 1_565
P3 Sr9 3.119619 1_555
P3 Sr4 3.119619 1_555
