# generated using pymatgen
data_LiBO2
_symmetry_space_group_name_H-M   'P 1'
_cell_length_a   4.35917928
_cell_length_b   5.77106619
_cell_length_c   6.37397218
_cell_angle_alpha   113.56401184
_cell_angle_beta   90.00000000
_cell_angle_gamma   90.00000000
_symmetry_Int_Tables_number   1
_chemical_formula_structural   LiBO2
_chemical_formula_sum   'Li4 B4 O8'
_cell_volume   146.97972879
_cell_formula_units_Z   4
loop_
 _symmetry_equiv_pos_site_id
 _symmetry_equiv_pos_as_xyz
  1  'x, y, z'
loop_
 _atom_site_type_symbol
 _atom_site_label
 _atom_site_symmetry_multiplicity
 _atom_site_fract_x
 _atom_site_fract_y
 _atom_site_fract_z
 _atom_site_occupancy
  Li  Li0  1  0.78808511  0.56593821  0.65162707  1
  Li  Li1  1  0.28808511  0.43406179  0.84837293  1
  Li  Li2  1  0.21191489  0.43406179  0.34837293  1
  Li  Li3  1  0.71191489  0.56593821  0.15162707  1
  B  B0  1  0.32283297  0.87395792  0.72574087  1
  B  B1  1  0.82283297  0.12604208  0.77425913  1
  B  B2  1  0.67716703  0.12604208  0.27425913  1
  B  B3  1  0.17716703  0.87395792  0.22574087  1
  O  O0  1  0.64225918  0.91433949  0.73913236  1
  O  O1  1  0.14225918  0.08566051  0.76086764  1
  O  O2  1  0.35774082  0.08566051  0.26086764  1
  O  O3  1  0.85774082  0.91433949  0.23913236  1
  O  O4  1  0.22266755  0.64168680  0.67878482  1
  O  O5  1  0.72266755  0.35831320  0.82121518  1
  O  O6  1  0.77733245  0.35831320  0.32121518  1
  O  O7  1  0.27733245  0.64168680  0.17878482  1
loop_
_geom_bond_atom_site_label_1
_geom_bond_atom_site_label_2
_geom_bond_distance
_geom_bond_site_symmetry_2
Li0 O5 1.929011 1_555
Li0 O4 1.936337 1_655
Li0 O6 1.963584 1_555
Li0 O0 1.965002 1_555
Li1 O4 1.929011 1_555
Li1 O5 1.936337 1_555
Li1 O7 1.963584 1_556
Li1 O1 1.965002 1_555
Li2 O7 1.929011 1_555
Li2 O6 1.936337 1_455
Li2 O4 1.963584 1_555
Li2 O2 1.965002 1_555
Li3 O6 1.929011 1_555
Li3 O7 1.936337 1_555
Li3 O5 1.963584 1_554
Li3 O3 1.965002 1_555
B0 O4 1.325244 1_555
B0 O1 1.394166 1_565
B0 O0 1.408747 1_555
B1 O5 1.325244 1_555
B1 O0 1.394166 1_545
B1 O1 1.408747 1_655
B2 O6 1.325244 1_555
B2 O3 1.394166 1_545
B2 O2 1.408747 1_555
B3 O7 1.325244 1_555
B3 O2 1.394166 1_565
B3 O3 1.408747 1_455
