# generated using pymatgen
data_CrPd3Au2
_symmetry_space_group_name_H-M   'P 1'
_cell_length_a   6.32429449
_cell_length_b   6.32429347
_cell_length_c   4.02957643
_cell_angle_alpha   90.00000000
_cell_angle_beta   90.00000000
_cell_angle_gamma   144.03004636
_symmetry_Int_Tables_number   1
_chemical_formula_structural   CrPd3Au2
_chemical_formula_sum   'Cr1 Pd3 Au2'
_cell_volume   94.66480433
_cell_formula_units_Z   1
loop_
 _symmetry_equiv_pos_site_id
 _symmetry_equiv_pos_as_xyz
  1  'x, y, z'
loop_
 _atom_site_type_symbol
 _atom_site_label
 _atom_site_symmetry_multiplicity
 _atom_site_fract_x
 _atom_site_fract_y
 _atom_site_fract_z
 _atom_site_occupancy
  Cr  Cr0  1  0.00000000  0.00000000  0.00000000  1
  Pd  Pd0  1  0.33776403  0.66223597  0.00000000  1
  Pd  Pd1  1  0.66223597  0.33776403  0.00000000  1
  Pd  Pd2  1  0.50000000  0.50000000  0.50000000  1
  Au  Au0  1  0.83508487  0.16491513  0.50000000  1
  Au  Au1  1  0.16491513  0.83508487  0.50000000  1
loop_
_geom_bond_atom_site_label_1
_geom_bond_atom_site_label_2
_geom_bond_distance
_geom_bond_site_symmetry_2
Cr0 Pd0 2.760915 1_555
Cr0 Pd1 2.760915 1_445
Cr0 Pd1 2.760916 1_555
Cr0 Pd0 2.760916 1_445
Cr0 Pd2 2.805807 1_444
Cr0 Pd2 2.805807 1_445
Cr0 Pd2 2.805807 1_554
Cr0 Pd2 2.805807 1_555
Pd0 Pd2 2.805146 1_554
Pd0 Pd2 2.805146 1_555
Pd0 Pd1 2.876187 1_565
Pd0 Pd1 2.876188 1_455
Pd1 Pd2 2.805146 1_554
Pd1 Pd2 2.805146 1_555
Au0 Pd2 2.783795 1_545
Au0 Pd2 2.783795 1_655
Au0 Pd0 2.805992 1_545
Au0 Pd0 2.805992 1_546
Au0 Pd0 2.805992 1_655
Au0 Pd0 2.805992 1_656
Au0 Cr0 2.827667 1_656
Au0 Cr0 2.827667 1_655
Au0 Au1 2.829196 1_655
Au0 Au1 2.829197 1_545
Au0 Pd1 2.895437 1_556
Au0 Pd1 2.895437 1_555
Au1 Pd2 2.783795 1_565
Au1 Pd2 2.783795 1_455
Au1 Pd1 2.805992 1_566
Au1 Pd1 2.805992 1_565
Au1 Pd1 2.805992 1_455
Au1 Pd1 2.805992 1_456
Au1 Cr0 2.827667 1_566
Au1 Cr0 2.827667 1_565
Au1 Pd0 2.895437 1_556
Au1 Pd0 2.895437 1_555
