# generated using pymatgen
data_CoGeTe
_symmetry_space_group_name_H-M   'P 1'
_cell_length_a   6.16584877
_cell_length_b   6.20895871
_cell_length_c   11.11329482
_cell_angle_alpha   90.00000000
_cell_angle_beta   90.00000000
_cell_angle_gamma   90.00000000
_symmetry_Int_Tables_number   1
_chemical_formula_structural   CoGeTe
_chemical_formula_sum   'Co8 Ge8 Te8'
_cell_volume   425.45582697
_cell_formula_units_Z   8
loop_
 _symmetry_equiv_pos_site_id
 _symmetry_equiv_pos_as_xyz
  1  'x, y, z'
loop_
 _atom_site_type_symbol
 _atom_site_label
 _atom_site_symmetry_multiplicity
 _atom_site_fract_x
 _atom_site_fract_y
 _atom_site_fract_z
 _atom_site_occupancy
  Co  Co0  1  0.99972128  0.61012931  0.11099640  1
  Co  Co1  1  0.49972128  0.88987069  0.88900360  1
  Co  Co2  1  0.00027872  0.11012931  0.38900360  1
  Co  Co3  1  0.50027872  0.38987069  0.61099640  1
  Co  Co4  1  0.00027872  0.38987069  0.88900360  1
  Co  Co5  1  0.50027872  0.11012931  0.11099640  1
  Co  Co6  1  0.99972128  0.88987069  0.61099640  1
  Co  Co7  1  0.49972128  0.61012931  0.38900360  1
  Ge  Ge0  1  0.66319019  0.27428175  0.43150495  1
  Ge  Ge1  1  0.16319019  0.22571825  0.56849505  1
  Ge  Ge2  1  0.33680981  0.77428175  0.06849505  1
  Ge  Ge3  1  0.83680981  0.72571825  0.93150495  1
  Ge  Ge4  1  0.33680981  0.72571825  0.56849505  1
  Ge  Ge5  1  0.83680981  0.77428175  0.43150495  1
  Ge  Ge6  1  0.66319019  0.22571825  0.93150495  1
  Ge  Ge7  1  0.16319019  0.27428175  0.06849505  1
  Te  Te0  1  0.61819511  0.49006272  0.17519822  1
  Te  Te1  1  0.11819511  0.00993728  0.82480178  1
  Te  Te2  1  0.38180489  0.99006272  0.32480178  1
  Te  Te3  1  0.88180489  0.50993728  0.67519822  1
  Te  Te4  1  0.38180489  0.50993728  0.82480178  1
  Te  Te5  1  0.88180489  0.99006272  0.17519822  1
  Te  Te6  1  0.61819511  0.00993728  0.67519822  1
  Te  Te7  1  0.11819511  0.49006272  0.32480178  1
loop_
_geom_bond_atom_site_label_1
_geom_bond_atom_site_label_2
_geom_bond_distance
_geom_bond_site_symmetry_2
Co0 Ge3 2.345861 1_554
Co0 Ge2 2.362583 1_655
Co0 Ge7 2.363754 1_655
Co0 Te0 2.568806 1_555
Co0 Te5 2.569537 1_555
Co0 Te7 2.595214 1_655
Co1 Ge2 2.345861 1_556
Co1 Ge3 2.362583 1_555
Co1 Ge6 2.363754 1_565
Co1 Te1 2.568806 1_565
Co1 Te4 2.569537 1_555
Co1 Te6 2.595214 1_565
Co2 Ge1 2.345861 1_555
Co2 Ge0 2.362583 1_455
Co2 Ge5 2.363754 1_445
Co2 Te2 2.568806 1_545
Co2 Te7 2.569537 1_555
Co2 Te5 2.595214 1_445
Co3 Ge0 2.345861 1_555
Co3 Ge1 2.362583 1_555
Co3 Ge4 2.363754 1_555
Co3 Te3 2.568806 1_555
Co3 Te6 2.569537 1_555
Co3 Te4 2.595214 1_555
Co4 Ge7 2.345861 1_556
Co4 Ge6 2.362583 1_455
Co4 Ge3 2.363754 1_455
Co4 Te4 2.568806 1_555
Co4 Te1 2.569537 1_555
Co4 Te3 2.595214 1_455
Co5 Ge6 2.345861 1_554
Co5 Ge7 2.362583 1_555
Co5 Ge2 2.363754 1_545
Co5 Te5 2.568806 1_545
Co5 Te0 2.569537 1_555
Co5 Te2 2.595214 1_545
Co6 Ge5 2.345861 1_555
Co6 Ge4 2.362583 1_655
Co6 Ge1 2.363754 1_665
Co6 Te6 2.568806 1_565
Co6 Te3 2.569537 1_555
Co6 Te1 2.595214 1_665
Co7 Ge4 2.345861 1_555
Co7 Ge5 2.362583 1_555
Co7 Ge0 2.363754 1_555
Co7 Te7 2.568806 1_555
Co7 Te2 2.569537 1_555
Co7 Te0 2.595214 1_555
Ge0 Te2 2.744178 1_545
Ge1 Te3 2.744178 1_455
Ge2 Te0 2.744178 1_555
Ge3 Te1 2.744178 1_665
Ge4 Te6 2.744178 1_565
Ge5 Te7 2.744178 1_655
Ge6 Te4 2.744178 1_555
Ge7 Te5 2.744178 1_445
