# generated using pymatgen
data_BaNaInBi2
_symmetry_space_group_name_H-M   'P 1'
_cell_length_a   4.85243323
_cell_length_b   4.85243344
_cell_length_c   8.08784971
_cell_angle_alpha   107.45657519
_cell_angle_beta   107.45657201
_cell_angle_gamma   90.00000839
_symmetry_Int_Tables_number   1
_chemical_formula_structural   BaNaInBi2
_chemical_formula_sum   'Ba1 Na1 In1 Bi2'
_cell_volume   172.45055395
_cell_formula_units_Z   1
loop_
 _symmetry_equiv_pos_site_id
 _symmetry_equiv_pos_as_xyz
  1  'x, y, z'
loop_
 _atom_site_type_symbol
 _atom_site_label
 _atom_site_symmetry_multiplicity
 _atom_site_fract_x
 _atom_site_fract_y
 _atom_site_fract_z
 _atom_site_occupancy
  Ba  Ba0  1  0.00000000  0.00000000  0.00000000  1
  Na  Na0  1  0.25000000  0.75000200  0.50000100  1
  In  In0  1  0.75000200  0.25000000  0.50000100  1
  Bi  Bi0  1  0.61648686  0.61648686  0.23297171  1
  Bi  Bi1  1  0.38351314  0.38351314  0.76702729  1
loop_
_geom_bond_atom_site_label_1
_geom_bond_atom_site_label_2
_geom_bond_distance
_geom_bond_site_symmetry_2
Ba0 Bi0 3.832020 1_445
Ba0 Bi1 3.832026 1_554
Ba0 Bi0 3.832026 1_455
Ba0 Bi0 3.832026 1_545
Ba0 Bi1 3.832029 1_544
Ba0 Bi1 3.832030 1_454
Ba0 Bi0 3.832032 1_555
Ba0 Bi1 3.832032 1_444
In0 Na0 3.431175 1_645
In0 Na0 3.431188 1_545
In0 Na0 3.431188 1_655
In0 Na0 3.431202 1_555
Bi0 Na0 3.116295 1_655
Bi0 In0 3.116295 1_565
Bi0 Na0 3.116306 1_555
Bi0 In0 3.116306 1_555
Bi0 Bi1 3.412554 1_554
Bi1 In0 3.116279 1_455
Bi1 Na0 3.116279 1_545
Bi1 In0 3.116294 1_555
Bi1 Na0 3.116294 1_555
