# generated using pymatgen
data_Hf12Al4MoRh7
_symmetry_space_group_name_H-M   'P 1'
_cell_length_a   8.46431295
_cell_length_b   8.46431300
_cell_length_c   8.46431330
_cell_angle_alpha   59.88673396
_cell_angle_beta   59.88673329
_cell_angle_gamma   59.88673745
_symmetry_Int_Tables_number   1
_chemical_formula_structural   Hf12Al4MoRh7
_chemical_formula_sum   'Hf12 Al4 Mo1 Rh7'
_cell_volume   427.70335868
_cell_formula_units_Z   1
loop_
 _symmetry_equiv_pos_site_id
 _symmetry_equiv_pos_as_xyz
  1  'x, y, z'
loop_
 _atom_site_type_symbol
 _atom_site_label
 _atom_site_symmetry_multiplicity
 _atom_site_fract_x
 _atom_site_fract_y
 _atom_site_fract_z
 _atom_site_occupancy
  Hf  Hf0  1  0.80634231  0.80634231  0.18703665  1
  Hf  Hf1  1  0.19282001  0.19282001  0.80662027  1
  Hf  Hf2  1  0.80634231  0.18703665  0.80634231  1
  Hf  Hf3  1  0.19282001  0.80662027  0.19282001  1
  Hf  Hf4  1  0.18703665  0.80634231  0.80634231  1
  Hf  Hf5  1  0.80662027  0.19282001  0.19282001  1
  Hf  Hf6  1  0.44454228  0.44454228  0.05496654  1
  Hf  Hf7  1  0.05662508  0.05662508  0.44483552  1
  Hf  Hf8  1  0.44454228  0.05496654  0.44454228  1
  Hf  Hf9  1  0.05662508  0.44483552  0.05662508  1
  Hf  Hf10  1  0.05496654  0.44454228  0.44454228  1
  Hf  Hf11  1  0.44483552  0.05662508  0.05662508  1
  Al  Al0  1  0.13457267  0.62095781  0.62095781  1
  Al  Al1  1  0.62095781  0.13457267  0.62095781  1
  Al  Al2  1  0.62095781  0.62095781  0.13457267  1
  Al  Al3  1  0.62681195  0.62681195  0.62681195  1
  Mo  Mo0  1  0.83228595  0.83228595  0.83228595  1
  Rh  Rh0  1  0.76769499  0.41347150  0.41347150  1
  Rh  Rh1  1  0.41347150  0.76769499  0.41347150  1
  Rh  Rh2  1  0.41347150  0.41347150  0.76769499  1
  Rh  Rh3  1  0.41056978  0.41056978  0.41056978  1
  Rh  Rh4  1  0.48173923  0.84167624  0.84167624  1
  Rh  Rh5  1  0.84167624  0.48173923  0.84167624  1
  Rh  Rh6  1  0.84167624  0.84167624  0.48173923  1
loop_
_geom_bond_atom_site_label_1
_geom_bond_atom_site_label_2
_geom_bond_distance
_geom_bond_site_symmetry_2
Hf0 Mo0 2.799623 1_554
Hf0 Rh6 2.826328 1_555
Hf0 Rh1 2.984244 1_555
Hf0 Rh0 2.984244 1_555
Hf0 Hf9 3.099624 1_655
Hf0 Hf11 3.099624 1_565
Hf0 Hf8 3.161613 1_565
Hf0 Hf10 3.161613 1_655
Hf0 Hf4 3.216798 1_654
Hf0 Hf2 3.216798 1_564
Hf0 Hf3 3.297290 1_655
Hf0 Hf5 3.297290 1_565
Hf1 Rh5 2.729882 1_455
Hf1 Rh4 2.729882 1_545
Hf1 Rh3 3.006834 1_555
Hf1 Rh2 3.057790 1_555
Hf1 Hf8 3.136118 1_555
Hf1 Hf10 3.136118 1_555
Hf1 Hf9 3.157738 1_556
Hf1 Hf11 3.157738 1_556
Hf1 Hf5 3.263317 1_456
Hf1 Hf3 3.263318 1_546
Hf1 Hf2 3.297290 1_455
Hf1 Hf4 3.297290 1_545
Hf2 Mo0 2.799622 1_545
Hf2 Rh5 2.826328 1_555
Hf2 Rh2 2.984245 1_555
Hf2 Rh0 2.984245 1_555
Hf2 Hf7 3.099624 1_655
Hf2 Hf6 3.161613 1_556
Hf2 Hf4 3.216798 1_645
Hf2 Hf5 3.297290 1_556
Hf3 Rh6 2.729882 1_455
Hf3 Rh4 2.729882 1_554
Hf3 Rh3 3.006834 1_555
Hf3 Rh1 3.057790 1_555
Hf3 Hf6 3.136118 1_555
Hf3 Hf7 3.157738 1_565
Hf3 Hf5 3.263318 1_465
Hf3 Hf4 3.297290 1_554
Hf4 Mo0 2.799622 1_455
Hf4 Rh4 2.826328 1_555
Hf4 Rh1 2.984245 1_555
Hf4 Rh2 2.984245 1_555
Hf4 Hf9 3.099624 1_556
Hf4 Hf7 3.099624 1_565
Hf4 Hf8 3.161613 1_565
Hf4 Hf6 3.161613 1_556
Hf5 Rh5 2.729882 1_554
Hf5 Rh6 2.729882 1_545
Hf5 Rh3 3.006834 1_555
Hf5 Rh0 3.057790 1_555
Hf5 Hf8 3.136118 1_555
Hf5 Hf6 3.136118 1_555
Hf5 Hf9 3.157738 1_655
Hf5 Hf7 3.157738 1_655
Hf6 Rh2 2.720945 1_554
Hf6 Rh3 2.751564 1_555
Hf6 Rh5 3.009999 1_554
Hf6 Rh4 3.009999 1_554
Hf6 Hf9 3.275190 1_555
Hf6 Hf8 3.291844 1_555
Hf7 Rh1 2.758506 1_545
Hf7 Rh0 2.758506 1_455
Hf7 Rh6 2.983114 1_445
Hf7 Mo0 3.014516 1_445
Hf7 Hf8 3.275190 1_555
Hf7 Hf9 3.280308 1_555
Hf8 Rh1 2.720944 1_545
Hf8 Rh3 2.751564 1_555
Hf8 Rh6 3.009999 1_545
Hf8 Rh4 3.009999 1_545
Hf9 Rh2 2.758506 1_554
Hf9 Rh0 2.758506 1_455
Hf9 Rh5 2.983114 1_454
Hf9 Mo0 3.014516 1_454
Hf10 Rh0 2.720944 1_455
Hf10 Rh3 2.751564 1_555
Hf10 Rh5 3.009999 1_455
Hf10 Rh6 3.009999 1_455
Hf10 Hf3 3.136118 1_555
Hf10 Hf2 3.161613 1_455
Hf10 Hf7 3.275190 1_555
Hf10 Hf9 3.275190 1_555
Hf10 Hf6 3.291844 1_555
Hf10 Hf8 3.291844 1_555
Hf11 Rh1 2.758506 1_545
Hf11 Rh2 2.758506 1_554
Hf11 Rh4 2.983114 1_544
Hf11 Mo0 3.014516 1_544
Hf11 Hf2 3.099624 1_554
Hf11 Hf3 3.157738 1_545
Hf11 Hf6 3.275190 1_555
Hf11 Hf8 3.275190 1_555
Hf11 Hf7 3.280308 1_555
Hf11 Hf9 3.280308 1_555
Al0 Rh3 2.575501 1_555
Al0 Rh1 2.606348 1_555
Al0 Rh2 2.606348 1_555
Al0 Mo0 2.640381 1_455
Al0 Rh5 2.664589 1_455
Al0 Rh6 2.664589 1_455
Al0 Hf4 2.998457 1_555
Al0 Hf1 3.019189 1_555
Al0 Hf3 3.019189 1_555
Al0 Hf10 3.028221 1_555
Al0 Hf7 3.047240 1_565
Al0 Hf9 3.047240 1_556
Al1 Rh3 2.575501 1_555
Al1 Rh0 2.606348 1_555
Al1 Rh2 2.606348 1_555
Al1 Mo0 2.640381 1_545
Al1 Rh4 2.664589 1_545
Al1 Rh6 2.664589 1_545
Al1 Hf2 2.998457 1_555
Al1 Hf1 3.019189 1_555
Al1 Hf5 3.019189 1_555
Al1 Hf8 3.028221 1_555
Al1 Hf7 3.047240 1_655
Al1 Hf11 3.047240 1_556
Al2 Rh3 2.575501 1_555
Al2 Rh1 2.606348 1_555
Al2 Rh0 2.606348 1_555
Al2 Mo0 2.640380 1_554
Al2 Rh5 2.664589 1_554
Al2 Rh4 2.664589 1_554
Al2 Hf0 2.998457 1_555
Al2 Hf3 3.019189 1_555
Al2 Hf5 3.019189 1_555
Al2 Hf6 3.028221 1_555
Al2 Hf9 3.047240 1_655
Al2 Hf11 3.047240 1_565
Al3 Rh2 2.625689 1_555
Al3 Rh0 2.625690 1_555
Al3 Rh1 2.625690 1_555
Al3 Rh6 2.638217 1_555
Al3 Rh4 2.638217 1_555
Al3 Rh5 2.638217 1_555
Al3 Hf6 3.010291 1_556
Al3 Hf10 3.010291 1_655
Al3 Hf8 3.010291 1_565
Al3 Hf0 3.072437 1_555
Al3 Hf4 3.072437 1_555
Al3 Hf2 3.072437 1_555
Mo0 Rh4 2.889566 1_555
Mo0 Rh5 2.889566 1_555
Mo0 Rh6 2.889566 1_555
Rh0 Rh2 2.993124 1_555
Rh0 Rh1 2.993124 1_555
Rh0 Rh3 3.047662 1_555
Rh1 Rh2 2.993124 1_555
Rh1 Rh3 3.047662 1_555
Rh2 Rh3 3.047663 1_555
Rh4 Rh6 3.041402 1_555
Rh4 Rh5 3.041402 1_555
Rh5 Rh6 3.041402 1_555
