# generated using pymatgen
data_RbScH6Ru
_symmetry_space_group_name_H-M   'P 1'
_cell_length_a   7.37126355
_cell_length_b   7.37126355
_cell_length_c   7.37126355
_cell_angle_alpha   90.00000000
_cell_angle_beta   90.00000000
_cell_angle_gamma   90.00000000
_symmetry_Int_Tables_number   1
_chemical_formula_structural   RbScH6Ru
_chemical_formula_sum   'Rb4 Sc4 H24 Ru4'
_cell_volume   400.52148462
_cell_formula_units_Z   4
loop_
 _symmetry_equiv_pos_site_id
 _symmetry_equiv_pos_as_xyz
  1  'x, y, z'
loop_
 _atom_site_type_symbol
 _atom_site_label
 _atom_site_symmetry_multiplicity
 _atom_site_fract_x
 _atom_site_fract_y
 _atom_site_fract_z
 _atom_site_occupancy
  Rb  Rb0  1  0.00000000  0.00000000  0.50000000  1
  Rb  Rb1  1  0.00000000  0.50000000  0.00000000  1
  Rb  Rb2  1  0.50000000  0.00000000  0.00000000  1
  Rb  Rb3  1  0.00000000  0.00000000  0.00000000  1
  Sc  Sc0  1  0.50000000  0.50000000  0.50000000  1
  Sc  Sc1  1  0.00000000  0.50000000  0.50000000  1
  Sc  Sc2  1  0.50000000  0.00000000  0.50000000  1
  Sc  Sc3  1  0.50000000  0.50000000  0.00000000  1
  H  H0  1  0.72325348  0.72325348  0.51518780  1
  H  H1  1  0.27674652  0.27674652  0.51518780  1
  H  H2  1  0.05342471  0.70270000  0.70270000  1
  H  H3  1  0.29730000  0.94657529  0.70270000  1
  H  H4  1  0.70270000  0.05342471  0.70270000  1
  H  H5  1  0.94657529  0.29730000  0.70270000  1
  H  H6  1  0.72325348  0.51518780  0.72325348  1
  H  H7  1  0.51518780  0.72325348  0.72325348  1
  H  H8  1  0.48481220  0.27674652  0.72325348  1
  H  H9  1  0.27674652  0.48481220  0.72325348  1
  H  H10  1  0.29730000  0.70270000  0.94657529  1
  H  H11  1  0.70270000  0.29730000  0.94657529  1
  H  H12  1  0.70270000  0.70270000  0.05342471  1
  H  H13  1  0.29730000  0.29730000  0.05342471  1
  H  H14  1  0.27674652  0.51518780  0.27674652  1
  H  H15  1  0.48481220  0.72325348  0.27674652  1
  H  H16  1  0.51518780  0.27674652  0.27674652  1
  H  H17  1  0.72325348  0.48481220  0.27674652  1
  H  H18  1  0.94657529  0.70270000  0.29730000  1
  H  H19  1  0.70270000  0.94657529  0.29730000  1
  H  H20  1  0.29730000  0.05342471  0.29730000  1
  H  H21  1  0.05342471  0.29730000  0.29730000  1
  H  H22  1  0.27674652  0.72325348  0.48481220  1
  H  H23  1  0.72325348  0.27674652  0.48481220  1
  Ru  Ru0  1  0.28907833  0.71092167  0.71092167  1
  Ru  Ru1  1  0.71092167  0.28907833  0.71092167  1
  Ru  Ru2  1  0.71092167  0.71092167  0.28907833  1
  Ru  Ru3  1  0.28907833  0.28907833  0.28907833  1
loop_
_geom_bond_atom_site_label_1
_geom_bond_atom_site_label_2
_geom_bond_distance
_geom_bond_site_symmetry_2
H0 Ru2 1.671663 1_555
H0 Sc0 2.330006 1_555
H0 Sc2 2.623398 1_565
H0 Sc1 2.623398 1_655
H0 Rb0 2.887127 1_665
H1 Ru3 1.671663 1_555
H1 Sc0 2.330006 1_555
H1 Sc1 2.623398 1_555
H1 Sc2 2.623398 1_555
H1 Rb0 2.887127 1_555
H2 Ru0 1.739178 1_555
H2 Sc1 2.149438 1_555
H2 Rb0 2.681446 1_565
H2 Rb1 2.681446 1_556
H2 Rb3 3.124136 1_566
H3 Ru0 1.739178 1_555
H3 Sc2 2.149438 1_565
H3 Rb0 2.681446 1_565
H3 Rb2 2.681446 1_566
H3 Rb3 3.124136 1_566
H4 Ru1 1.739178 1_555
H4 Sc2 2.149438 1_555
H4 Rb0 2.681446 1_655
H4 Rb2 2.681446 1_556
H4 Rb3 3.124136 1_656
H5 Ru1 1.739178 1_555
H5 Sc1 2.149438 1_655
H5 Rb0 2.681446 1_655
H5 Rb1 2.681446 1_656
H5 Rb3 3.124136 1_656
H6 Ru1 1.671663 1_555
H6 Sc0 2.330006 1_555
H6 Sc3 2.623398 1_556
H6 Sc1 2.623398 1_655
H6 Rb1 2.887127 1_656
H7 Ru0 1.671663 1_555
H7 Sc0 2.330006 1_555
H7 Sc3 2.623398 1_556
H7 Sc2 2.623398 1_565
H7 Rb2 2.887127 1_566
H8 Ru1 1.671663 1_555
H8 Sc0 2.330006 1_555
H8 Sc2 2.623398 1_555
H8 Sc3 2.623398 1_556
H8 Rb2 2.887127 1_556
H9 Ru0 1.671663 1_555
H9 Sc0 2.330006 1_555
H9 Sc1 2.623398 1_555
H9 Sc3 2.623398 1_556
H9 Rb1 2.887127 1_556
H10 Ru0 1.739178 1_555
H10 Sc3 2.149438 1_556
H10 Rb1 2.681446 1_556
H10 Rb2 2.681446 1_566
H10 Rb3 3.124136 1_566
H11 Ru1 1.739178 1_555
H11 Sc3 2.149438 1_556
H11 Rb2 2.681446 1_556
H11 Rb1 2.681446 1_656
H11 Rb3 3.124136 1_656
H12 Ru2 1.739178 1_555
H12 Sc3 2.149438 1_555
H12 Rb1 2.681446 1_655
H12 Rb2 2.681446 1_565
H12 Rb3 3.124136 1_665
H13 Ru3 1.739178 1_555
H13 Sc3 2.149438 1_555
H13 Rb1 2.681446 1_555
H13 Rb2 2.681446 1_555
H13 Rb3 3.124136 1_555
H14 Ru3 1.671663 1_555
H14 Sc0 2.330006 1_555
H14 Sc1 2.623398 1_555
H14 Sc3 2.623398 1_555
H14 Rb1 2.887127 1_555
H15 Ru2 1.671663 1_555
H15 Sc0 2.330006 1_555
H15 Sc3 2.623398 1_555
H15 Sc2 2.623398 1_565
H15 Rb2 2.887127 1_565
H16 Ru3 1.671663 1_555
H16 Sc0 2.330006 1_555
H16 Sc3 2.623398 1_555
H16 Sc2 2.623398 1_555
H16 Rb2 2.887127 1_555
H17 Ru2 1.671663 1_555
H17 Sc0 2.330006 1_555
H17 Sc3 2.623398 1_555
H17 Sc1 2.623398 1_655
H17 Rb1 2.887127 1_655
H18 Ru2 1.739178 1_555
H18 Sc1 2.149438 1_655
H18 Rb1 2.681446 1_655
H18 Rb0 2.681446 1_665
H18 Rb3 3.124136 1_665
H19 Ru2 1.739178 1_555
H19 Sc2 2.149438 1_565
H19 Rb2 2.681446 1_565
H19 Rb0 2.681446 1_665
H19 Rb3 3.124136 1_665
H20 Ru3 1.739178 1_555
H20 Sc2 2.149438 1_555
H20 Rb0 2.681446 1_555
H20 Rb2 2.681446 1_555
H20 Rb3 3.124136 1_555
H21 Ru3 1.739178 1_555
H21 Sc1 2.149438 1_555
H21 Rb1 2.681446 1_555
H21 Rb0 2.681446 1_555
H21 Rb3 3.124136 1_555
H22 Ru0 1.671663 1_555
H22 Sc0 2.330006 1_555
H22 Sc1 2.623398 1_555
H22 Sc2 2.623398 1_565
H22 Rb0 2.887127 1_565
H23 Ru1 1.671663 1_555
H23 Sc0 2.330006 1_555
H23 Sc2 2.623398 1_555
H23 Sc1 2.623398 1_655
H23 Rb0 2.887127 1_655
