# generated using pymatgen
data_Li3Co3(PO4)4
_symmetry_space_group_name_H-M   'P 1'
_cell_length_a   7.88955700
_cell_length_b   7.58353500
_cell_length_c   9.97414842
_cell_angle_alpha   86.10641760
_cell_angle_beta   90.00000000
_cell_angle_gamma   90.00000000
_symmetry_Int_Tables_number   1
_chemical_formula_structural   Li3Co3(PO4)4
_chemical_formula_sum   'Li6 Co6 P8 O32'
_cell_volume   595.38320909
_cell_formula_units_Z   2
loop_
 _symmetry_equiv_pos_site_id
 _symmetry_equiv_pos_as_xyz
  1  'x, y, z'
loop_
 _atom_site_type_symbol
 _atom_site_label
 _atom_site_symmetry_multiplicity
 _atom_site_fract_x
 _atom_site_fract_y
 _atom_site_fract_z
 _atom_site_occupancy
  Li  Li0  1  0.14048200  0.85104200  0.57644600  1
  Li  Li1  1  0.86730900  0.66441200  0.17704800  1
  Li  Li2  1  0.13820300  0.83764000  0.07150300  1
  Li  Li3  1  0.64048200  0.14895800  0.42355400  1
  Li  Li4  1  0.36730900  0.33558800  0.82295200  1
  Li  Li5  1  0.63820300  0.16236000  0.92849700  1
  Co  Co0  1  0.51032700  0.77383700  0.12521900  1
  Co  Co1  1  0.85385800  0.65142500  0.68241400  1
  Co  Co2  1  0.01032700  0.22616300  0.87478100  1
  Co  Co3  1  0.99387100  0.24527300  0.37763400  1
  Co  Co4  1  0.35385800  0.34857500  0.31758600  1
  Co  Co5  1  0.49387100  0.75472700  0.62236600  1
  P  P0  1  0.81996200  0.05911400  0.14415400  1
  P  P1  1  0.68231300  0.56162500  0.89864400  1
  P  P2  1  0.30159500  0.94993100  0.35589900  1
  P  P3  1  0.80159500  0.05006900  0.64410100  1
  P  P4  1  0.68935700  0.55386800  0.39077200  1
  P  P5  1  0.18935700  0.44613200  0.60922800  1
  P  P6  1  0.31996200  0.94088600  0.85584600  1
  P  P7  1  0.18231300  0.43837500  0.10135600  1
  O  O0  1  0.93978200  0.90548200  0.15354000  1
  O  O1  1  0.92379800  0.88939700  0.64994900  1
  O  O2  1  0.05954700  0.59918700  0.60067600  1
  O  O3  1  0.18779200  0.36567900  0.46629600  1
  O  O4  1  0.19640000  0.34137900  0.97167100  1
  O  O5  1  0.55954700  0.40081300  0.39932400  1
  O  O6  1  0.14409800  0.29272700  0.71203000  1
  O  O7  1  0.86788100  0.48547400  0.35662700  1
  O  O8  1  0.30693300  0.86501200  0.21850500  1
  O  O9  1  0.43978200  0.09451800  0.84646000  1
  O  O10  1  0.36447400  0.49162100  0.15629900  1
  O  O11  1  0.69640000  0.65862100  0.02832900  1
  O  O12  1  0.14686500  0.29344200  0.22492600  1
  O  O13  1  0.64409800  0.70727300  0.28797000  1
  O  O14  1  0.87424800  0.20892200  0.03470500  1
  O  O15  1  0.35761000  0.80441800  0.46404200  1
  O  O16  1  0.80693300  0.13498800  0.78149500  1
  O  O17  1  0.42379800  0.11060300  0.35005100  1
  O  O18  1  0.68779200  0.63432100  0.53370400  1
  O  O19  1  0.62232300  0.98879500  0.60034000  1
  O  O20  1  0.37424800  0.79107800  0.96529500  1
  O  O21  1  0.81234200  0.15176900  0.28069600  1
  O  O22  1  0.12232300  0.01120500  0.39966000  1
  O  O23  1  0.13556800  0.98849100  0.89330300  1
  O  O24  1  0.36788100  0.51452600  0.64337300  1
  O  O25  1  0.06306300  0.59051600  0.09240600  1
  O  O26  1  0.86447400  0.50837900  0.84370100  1
  O  O27  1  0.85761000  0.19558200  0.53595800  1
  O  O28  1  0.31234200  0.84823100  0.71930400  1
  O  O29  1  0.56306300  0.40948400  0.90759400  1
  O  O30  1  0.64686500  0.70655800  0.77507400  1
  O  O31  1  0.63556800  0.01150900  0.10669700  1
loop_
_geom_bond_atom_site_label_1
_geom_bond_atom_site_label_2
_geom_bond_distance
_geom_bond_site_symmetry_2
Li0 O1 1.890389 1_455
Li0 O28 1.965984 1_555
Li0 O2 2.012801 1_555
Li0 O22 2.077045 1_565
Li0 O15 2.090529 1_555
Li1 O25 1.864464 1_655
Li1 O0 1.914647 1_555
Li1 O11 2.007302 1_555
Li1 O13 2.116542 1_555
Li1 O7 2.172451 1_555
Li2 O0 1.855274 1_455
Li2 O25 1.963159 1_555
Li2 O8 2.001581 1_555
Li2 O23 2.047467 1_554
Li2 O20 2.183071 1_554
Li3 O17 1.890389 1_555
Li3 O21 1.965984 1_555
Li3 O5 2.012801 1_555
Li3 O19 2.077045 1_545
Li3 O27 2.090529 1_555
Li4 O29 1.864464 1_555
Li4 O9 1.914647 1_555
Li4 O4 2.007302 1_555
Li4 O6 2.116542 1_555
Li4 O24 2.172451 1_555
Li5 O9 1.855274 1_555
Li5 O29 1.963159 1_555
Li5 O16 2.001581 1_555
Li5 O31 2.047467 1_556
Li5 O14 2.183071 1_556
Co0 O20 1.919833 1_554
Co0 O13 1.972941 1_555
Co0 O11 1.991769 1_555
Co0 O8 2.001550 1_555
Co0 O31 2.052770 1_565
Co0 O10 2.431168 1_555
Co1 O2 1.870540 1_655
Co1 O26 1.880083 1_555
Co1 O1 1.893885 1_555
Co1 O30 1.936079 1_555
Co1 O18 1.989872 1_555
Co2 O14 1.919833 1_456
Co2 O6 1.972941 1_555
Co2 O4 1.991769 1_555
Co2 O16 2.001550 1_455
Co2 O23 2.052770 1_545
Co2 O26 2.431168 1_455
Co3 O21 1.892595 1_555
Co3 O27 1.926292 1_555
Co3 O12 1.958262 1_655
Co3 O3 2.016483 1_655
Co3 O22 2.042839 1_655
Co3 O7 2.073220 1_555
Co4 O5 1.870540 1_555
Co4 O10 1.880083 1_555
Co4 O17 1.893885 1_555
Co4 O12 1.936079 1_555
Co4 O3 1.989872 1_555
Co5 O28 1.892595 1_555
Co5 O15 1.926292 1_555
Co5 O30 1.958262 1_555
Co5 O18 2.016483 1_555
Co5 O19 2.042839 1_555
Co5 O24 2.073220 1_555
O0 P0 1.498329 1_565
O1 P3 1.551754 1_565
O2 P5 1.545936 1_555
O3 P5 1.588373 1_555
O4 P7 1.534852 1_556
O5 P4 1.545936 1_555
O6 P5 1.539565 1_555
O7 P4 1.546866 1_555
O8 P2 1.553804 1_555
O9 P6 1.498329 1_545
O10 P7 1.599647 1_555
O11 P1 1.534852 1_554
O12 P7 1.619056 1_555
O13 P4 1.539565 1_555
O14 P0 1.580314 1_555
O15 P2 1.553972 1_555
O16 P3 1.553804 1_555
O17 P2 1.551754 1_545
O18 P4 1.588373 1_555
O19 P3 1.560269 1_565
O20 P6 1.580314 1_555
O21 P0 1.575449 1_555
O22 P2 1.560269 1_545
O23 P6 1.550687 1_555
O24 P5 1.546866 1_555
O25 P7 1.486714 1_555
O26 P1 1.599647 1_555
O27 P3 1.553972 1_555
O28 P6 1.575449 1_555
O29 P1 1.486714 1_555
O30 P1 1.619056 1_555
O31 P0 1.550687 1_555
