# generated using pymatgen
data_K2Rb6SnAs4
_symmetry_space_group_name_H-M   'P 1'
_cell_length_a   11.29835095
_cell_length_b   11.29835068
_cell_length_c   11.29835046
_cell_angle_alpha   59.99999781
_cell_angle_beta   59.99999860
_cell_angle_gamma   60.00000153
_symmetry_Int_Tables_number   1
_chemical_formula_structural   K2Rb6SnAs4
_chemical_formula_sum   'K4 Rb12 Sn2 As8'
_cell_volume   1019.83555328
_cell_formula_units_Z   2
loop_
 _symmetry_equiv_pos_site_id
 _symmetry_equiv_pos_as_xyz
  1  'x, y, z'
loop_
 _atom_site_type_symbol
 _atom_site_label
 _atom_site_symmetry_multiplicity
 _atom_site_fract_x
 _atom_site_fract_y
 _atom_site_fract_z
 _atom_site_occupancy
  K  K0  1  0.62500000  0.12500000  0.62500000  1
  K  K1  1  0.62500000  0.62500000  0.12500000  1
  K  K2  1  0.12500000  0.62500000  0.62500000  1
  K  K3  1  0.62500000  0.62500000  0.62500000  1
  Rb  Rb0  1  0.02328045  0.02328045  0.47671955  1
  Rb  Rb1  1  0.77328045  0.22671955  0.22671955  1
  Rb  Rb2  1  0.22671955  0.77328045  0.77328045  1
  Rb  Rb3  1  0.77328045  0.77328045  0.22671955  1
  Rb  Rb4  1  0.77328045  0.22671955  0.77328045  1
  Rb  Rb5  1  0.22671955  0.77328045  0.22671955  1
  Rb  Rb6  1  0.47671955  0.02328045  0.47671955  1
  Rb  Rb7  1  0.47671955  0.02328045  0.02328045  1
  Rb  Rb8  1  0.02328045  0.47671955  0.47671955  1
  Rb  Rb9  1  0.02328045  0.47671955  0.02328045  1
  Rb  Rb10  1  0.22671955  0.22671955  0.77328045  1
  Rb  Rb11  1  0.47671955  0.47671955  0.02328045  1
  Sn  Sn0  1  0.75000000  0.75000000  0.75000000  1
  Sn  Sn1  1  0.50000000  0.50000000  0.50000000  1
  As  As0  1  0.40193387  0.79419838  0.40193387  1
  As  As1  1  0.84806613  0.84806613  0.45580162  1
  As  As2  1  0.45580162  0.84806613  0.84806613  1
  As  As3  1  0.84806613  0.84806613  0.84806613  1
  As  As4  1  0.79419838  0.40193387  0.40193387  1
  As  As5  1  0.40193387  0.40193387  0.40193387  1
  As  As6  1  0.40193387  0.40193387  0.79419838  1
  As  As7  1  0.84806613  0.45580162  0.84806613  1
loop_
_geom_bond_atom_site_label_1
_geom_bond_atom_site_label_2
_geom_bond_distance
_geom_bond_site_symmetry_2
K0 Sn0 3.459399 1_545
K0 Sn1 3.459399 1_555
K1 Sn1 3.459399 1_555
K1 Sn0 3.459399 1_554
K2 Sn0 3.459399 1_455
K2 Sn1 3.459399 1_555
K3 Sn1 3.459399 1_555
K3 Sn0 3.459399 1_555
As0 Sn1 2.713999 1_555
As0 Rb2 3.570493 1_555
As0 Rb5 3.570493 1_555
As0 Rb3 3.570493 1_555
As0 K2 3.615803 1_555
As0 K1 3.615803 1_555
As0 K3 3.615803 1_555
As0 Rb7 3.635215 1_565
As0 Rb6 3.635215 1_565
As0 Rb0 3.635215 1_565
As1 Sn0 2.713999 1_555
As1 Rb0 3.570493 1_665
As1 Rb8 3.570493 1_655
As1 Rb6 3.570493 1_565
As1 K3 3.615803 1_555
As1 K0 3.615803 1_565
As1 K2 3.615803 1_655
As1 Rb1 3.635215 1_565
As1 Rb3 3.635215 1_555
As1 Rb5 3.635215 1_655
As2 Sn0 2.713999 1_555
As2 Rb6 3.570493 1_565
As2 Rb11 3.570493 1_556
As2 Rb7 3.570493 1_566
As2 K0 3.615803 1_565
As2 K1 3.615803 1_556
As2 K3 3.615803 1_555
As2 Rb5 3.635215 1_556
As2 Rb2 3.635215 1_555
As2 Rb10 3.635215 1_565
As3 Sn0 2.713999 1_555
As3 Rb0 3.570493 1_665
As3 Rb9 3.570493 1_656
As3 Rb7 3.570493 1_566
As3 K1 3.615803 1_556
As3 K0 3.615803 1_565
As3 K2 3.615803 1_655
As3 Rb3 3.635215 1_556
As3 Rb4 3.635215 1_565
As3 Rb2 3.635215 1_655
As4 Sn1 2.713999 1_555
As4 Rb4 3.570493 1_555
As4 Rb3 3.570493 1_555
As4 Rb1 3.570493 1_555
As4 K0 3.615803 1_555
As4 K1 3.615803 1_555
As4 K3 3.615803 1_555
As4 Rb9 3.635215 1_655
As4 Rb8 3.635215 1_655
As4 Rb0 3.635215 1_655
As5 Sn1 2.713999 1_555
As5 Rb10 3.570493 1_555
As5 Rb5 3.570493 1_555
As5 Rb1 3.570493 1_555
As5 K1 3.615803 1_555
As5 K0 3.615803 1_555
As5 K2 3.615803 1_555
As5 Rb11 3.635215 1_555
As5 Rb6 3.635215 1_555
As5 Rb8 3.635215 1_555
As6 Sn1 2.713999 1_555
As6 Rb10 3.570493 1_555
As6 Rb2 3.570493 1_555
As6 Rb4 3.570493 1_555
As6 K3 3.615803 1_555
As6 K0 3.615803 1_555
As6 K2 3.615803 1_555
As6 Rb7 3.635215 1_556
As6 Rb11 3.635215 1_556
As6 Rb9 3.635215 1_556
As7 Sn0 2.713999 1_555
As7 Rb8 3.570493 1_655
As7 Rb9 3.570493 1_656
As7 Rb11 3.570493 1_556
As7 K2 3.615803 1_655
As7 K1 3.615803 1_556
As7 K3 3.615803 1_555
As7 Rb1 3.635215 1_556
As7 Rb4 3.635215 1_555
As7 Rb10 3.635215 1_655
