# generated using pymatgen
data_Sc2Ni2PRh4
_symmetry_space_group_name_H-M   'P 1'
_cell_length_a   5.70934179
_cell_length_b   5.70934138
_cell_length_c   5.53135621
_cell_angle_alpha   61.02598585
_cell_angle_beta   61.02598816
_cell_angle_gamma   60.25807835
_symmetry_Int_Tables_number   1
_chemical_formula_structural   Sc2Ni2PRh4
_chemical_formula_sum   'Sc2 Ni2 P1 Rh4'
_cell_volume   129.69332335
_cell_formula_units_Z   1
loop_
 _symmetry_equiv_pos_site_id
 _symmetry_equiv_pos_as_xyz
  1  'x, y, z'
loop_
 _atom_site_type_symbol
 _atom_site_label
 _atom_site_symmetry_multiplicity
 _atom_site_fract_x
 _atom_site_fract_y
 _atom_site_fract_z
 _atom_site_occupancy
  Sc  Sc0  1  0.24497863  0.24497863  0.24915936  1
  Sc  Sc1  1  0.75502137  0.75502137  0.73911762  1
  Ni  Ni0  1  0.71245460  0.28754640  0.26316472  1
  Ni  Ni1  1  0.28754640  0.71245460  0.26316472  1
  P  P0  1  1.00000000  1.00000000  0.03346960  1
  Rh  Rh0  1  0.73308956  0.73308956  0.25762488  1
  Rh  Rh1  1  0.26690944  0.26690944  0.72380500  1
  Rh  Rh2  1  0.73760559  0.26239541  0.73524806  1
  Rh  Rh3  1  0.26239541  0.73760559  0.73524806  1
loop_
_geom_bond_atom_site_label_1
_geom_bond_atom_site_label_2
_geom_bond_distance
_geom_bond_site_symmetry_2
Ni0 P0 2.080978 1_545
Ni0 Rh0 2.589180 1_555
Ni0 Rh1 2.589192 1_555
Ni0 Rh2 2.615237 1_555
Ni0 Sc1 2.837360 1_554
Ni0 Sc0 2.837369 1_555
Ni0 Sc0 2.892365 1_655
Ni0 Sc1 2.892373 1_545
Ni1 P0 2.080978 1_455
Ni1 Rh0 2.589180 1_555
Ni1 Rh1 2.589192 1_555
Ni1 Rh3 2.615237 1_555
Ni1 Sc1 2.837360 1_554
Ni1 Sc0 2.837369 1_555
Ni1 Sc0 2.892365 1_565
Ni1 Sc1 2.892373 1_455
P0 Rh1 2.196525 1_664
P0 Rh0 2.196533 1_555
P0 Rh2 2.232244 1_564
P0 Rh3 2.232244 1_654
Rh0 Sc1 2.752591 1_554
Rh0 Sc1 2.790396 1_555
Rh0 Sc0 2.867512 1_565
Rh0 Sc0 2.867512 1_655
Rh1 Sc0 2.752596 1_555
Rh1 Sc0 2.790390 1_556
Rh1 Sc1 2.867512 1_545
Rh1 Sc1 2.867512 1_455
Rh2 Sc0 2.838630 1_655
Rh2 Sc1 2.838633 1_545
Rh2 Sc1 2.873805 1_555
Rh2 Sc0 2.873808 1_556
Rh3 Sc0 2.838630 1_565
Rh3 Sc1 2.838634 1_455
Rh3 Sc1 2.873805 1_555
Rh3 Sc0 2.873808 1_556
