# generated using pymatgen
data_Rb4HfSe4
_symmetry_space_group_name_H-M   'P 1'
_cell_length_a   9.17002402
_cell_length_b   9.17002458
_cell_length_c   8.14962056
_cell_angle_alpha   100.02413156
_cell_angle_beta   100.02413223
_cell_angle_gamma   89.40642158
_symmetry_Int_Tables_number   1
_chemical_formula_structural   Rb4HfSe4
_chemical_formula_sum   'Rb8 Hf2 Se8'
_cell_volume   664.39273267
_cell_formula_units_Z   2
loop_
 _symmetry_equiv_pos_site_id
 _symmetry_equiv_pos_as_xyz
  1  'x, y, z'
loop_
 _atom_site_type_symbol
 _atom_site_label
 _atom_site_symmetry_multiplicity
 _atom_site_fract_x
 _atom_site_fract_y
 _atom_site_fract_z
 _atom_site_occupancy
  Rb  Rb0  1  0.60055961  0.38758007  0.01566770  1
  Rb  Rb1  1  0.22059650  0.95318839  0.40648777  1
  Rb  Rb2  1  0.79099224  0.77238565  0.41856114  1
  Rb  Rb3  1  0.03351767  0.39328405  0.44709571  1
  Rb  Rb4  1  0.38757907  0.60055961  0.51566870  1
  Rb  Rb5  1  0.95318839  0.22059650  0.90648877  1
  Rb  Rb6  1  0.77238665  0.79099224  0.91856214  1
  Rb  Rb7  1  0.39328405  0.03351767  0.94709471  1
  Hf  Hf0  1  0.62037908  0.20699919  0.45889279  1
  Hf  Hf1  1  0.20699919  0.62037908  0.95889279  1
  Se  Se0  1  0.44963589  0.72440162  0.13023059  1
  Se  Se1  1  0.02628702  0.61266994  0.15702410  1
  Se  Se2  1  0.78671300  0.11192356  0.24656840  1
  Se  Se3  1  0.36870841  0.25177211  0.30616881  1
  Se  Se4  1  0.72440162  0.44963489  0.63023059  1
  Se  Se5  1  0.61266994  0.02628702  0.65702410  1
  Se  Se6  1  0.11192256  0.78671300  0.74656840  1
  Se  Se7  1  0.25177211  0.36870841  0.80616881  1
loop_
_geom_bond_atom_site_label_1
_geom_bond_atom_site_label_2
_geom_bond_distance
_geom_bond_site_symmetry_2
Rb0 Se7 3.343984 1_554
Rb0 Se0 3.418227 1_555
Rb0 Se2 3.645938 1_555
Rb0 Se4 3.654845 1_554
Rb0 Se3 3.809149 1_555
Rb1 Se3 3.354509 1_565
Rb1 Se6 3.670267 1_555
Rb1 Se1 3.701717 1_555
Rb1 Se0 3.713765 1_555
Rb1 Se5 3.816079 1_565
Rb2 Se5 3.365086 1_565
Rb2 Se1 3.433992 1_655
Rb2 Se0 3.552679 1_555
Rb2 Se6 3.601512 1_655
Rb2 Se2 3.627420 1_565
Rb2 Se4 3.780146 1_555
Rb3 Se7 3.286492 1_555
Rb3 Se1 3.352355 1_555
Rb3 Se4 3.421027 1_455
Rb3 Se2 3.437320 1_455
Rb3 Se3 3.616370 1_555
Rb4 Se3 3.343988 1_555
Rb4 Se4 3.418237 1_555
Rb4 Se6 3.645933 1_555
Rb4 Se0 3.654859 1_555
Rb4 Se7 3.809138 1_555
Rb5 Se7 3.354513 1_655
Rb5 Se2 3.670256 1_556
Rb5 Se5 3.701720 1_555
Rb5 Se4 3.713763 1_555
Rb5 Se1 3.816076 1_656
Rb6 Se1 3.365077 1_656
Rb6 Se5 3.434000 1_565
Rb6 Se4 3.552691 1_555
Rb6 Se2 3.601514 1_566
Rb6 Se6 3.627407 1_655
Rb6 Se0 3.780141 1_556
Rb7 Se3 3.286499 1_556
Rb7 Se5 3.352348 1_555
Rb7 Se0 3.421032 1_546
Rb7 Se6 3.437324 1_545
Rb7 Se7 3.616367 1_555
Hf0 Se3 2.490394 1_555
Hf0 Se4 2.511753 1_555
Hf0 Se5 2.516347 1_555
Hf0 Se2 2.539063 1_555
Hf1 Se7 2.490394 1_555
Hf1 Se0 2.511760 1_556
Hf1 Se1 2.516347 1_556
Hf1 Se6 2.539065 1_555
