# generated using pymatgen
data_Ta3Nb7(SiB2)2
_symmetry_space_group_name_H-M   'P 1'
_cell_length_a   7.32015193
_cell_length_b   7.32015194
_cell_length_c   7.31716744
_cell_angle_alpha   129.44542605
_cell_angle_beta   129.44541965
_cell_angle_gamma   74.29444766
_symmetry_Int_Tables_number   1
_chemical_formula_structural   Ta3Nb7(SiB2)2
_chemical_formula_sum   'Ta3 Nb7 Si2 B4'
_cell_volume   227.93093692
_cell_formula_units_Z   1
loop_
 _symmetry_equiv_pos_site_id
 _symmetry_equiv_pos_as_xyz
  1  'x, y, z'
loop_
 _atom_site_type_symbol
 _atom_site_label
 _atom_site_symmetry_multiplicity
 _atom_site_fract_x
 _atom_site_fract_y
 _atom_site_fract_z
 _atom_site_occupancy
  Ta  Ta0  1  0.00024504  0.99968497  0.00027202  1
  Ta  Ta1  1  0.49968497  0.50024504  0.00027202  1
  Ta  Ta2  1  0.80647436  0.30647436  0.83675476  1
  Nb  Nb0  1  0.19317944  0.69317944  0.16292534  1
  Nb  Nb1  1  0.47002778  0.97002778  0.16295190  1
  Nb  Nb2  1  0.30702996  0.46929852  0.49976532  1
  Nb  Nb3  1  0.02971862  0.19302607  0.50007384  1
  Nb  Nb4  1  0.53067501  0.03067501  0.83782360  1
  Nb  Nb5  1  0.69302607  0.52971862  0.50007384  1
  Nb  Nb6  1  0.96929852  0.80702996  0.49976532  1
  Si  Si0  1  0.24909303  0.24998771  0.99973180  1
  Si  Si1  1  0.74998771  0.74909303  0.99973180  1
  B  B0  1  0.11459136  0.61459136  0.72902154  1
  B  B1  1  0.88432841  0.38432841  0.26768893  1
  B  B2  1  0.61567357  0.88696615  0.50157449  1
  B  B3  1  0.38696615  0.11567357  0.50157449  1
loop_
_geom_bond_atom_site_label_1
_geom_bond_atom_site_label_2
_geom_bond_distance
_geom_bond_site_symmetry_2
Nb0 Si0 2.664209 1_554
Nb0 Si1 2.664210 1_454
Nb1 Si1 2.665172 1_554
Nb1 Si0 2.665172 1_564
Nb2 Si0 2.660301 1_554
Nb2 Si1 2.663366 1_555
Nb3 Si0 2.661687 1_555
Nb3 Si1 2.667517 1_444
Nb4 Si0 2.669116 1_555
Nb4 Si1 2.669116 1_545
Nb5 Si1 2.661687 1_555
Nb5 Si0 2.667518 1_554
Nb6 Si1 2.660301 1_554
Nb6 Si0 2.663366 1_665
Si0 Ta2 2.661292 1_455
Si0 Ta0 2.915601 1_546
Si0 Ta1 2.919203 1_556
Si1 Ta2 2.661292 1_555
Si1 Ta1 2.915601 1_556
Si1 Ta0 2.919203 1_656
B0 B1 2.038461 1_455
B0 Nb2 2.419524 1_555
B0 Nb6 2.419524 1_455
B0 Nb3 2.421104 1_555
B0 Nb5 2.421105 1_455
B0 Nb0 2.505912 1_556
B0 Nb1 2.508160 1_556
B0 Ta0 2.512081 1_556
B0 Ta1 2.512082 1_556
B1 Nb6 2.422380 1_555
B1 Nb2 2.422381 1_655
B1 Nb5 2.429888 1_555
B1 Nb3 2.429888 1_655
B1 Ta2 2.490236 1_554
B1 Nb4 2.496338 1_554
B1 Ta0 2.508423 1_645
B1 Ta1 2.508423 1_555
B2 B3 2.021950 1_565
B2 Ta2 2.407321 1_565
B2 Nb4 2.418537 1_565
B2 Nb1 2.419156 1_555
B2 Nb0 2.426517 1_555
B2 Nb6 2.501404 1_555
B2 Ta0 2.509939 1_656
B2 Nb5 2.515804 1_555
B2 Ta1 2.517700 1_555
B3 Ta2 2.407321 1_555
B3 Nb4 2.418537 1_555
B3 Nb1 2.419156 1_545
B3 Nb0 2.426517 1_545
B3 Nb2 2.501404 1_555
B3 Ta1 2.509939 1_556
B3 Nb3 2.515804 1_555
B3 Ta0 2.517701 1_545
