# generated using pymatgen
data_K4MnCdSe4
_symmetry_space_group_name_H-M   'P 1'
_cell_length_a   8.22744137
_cell_length_b   8.22740712
_cell_length_c   8.22741589
_cell_angle_alpha   132.63221241
_cell_angle_beta   128.47611796
_cell_angle_gamma   72.57376464
_symmetry_Int_Tables_number   1
_chemical_formula_structural   K4MnCdSe4
_chemical_formula_sum   'K4 Mn1 Cd1 Se4'
_cell_volume   313.49795814
_cell_formula_units_Z   1
loop_
 _symmetry_equiv_pos_site_id
 _symmetry_equiv_pos_as_xyz
  1  'x, y, z'
loop_
 _atom_site_type_symbol
 _atom_site_label
 _atom_site_symmetry_multiplicity
 _atom_site_fract_x
 _atom_site_fract_y
 _atom_site_fract_z
 _atom_site_occupancy
  K  K0  1  0.47877933  0.14571842  0.33502417  1
  K  K1  1  0.52122016  0.85624046  0.66693664  1
  K  K2  1  0.18930603  0.35428086  0.83305522  1
  K  K3  1  0.81069555  0.64375871  0.16498014  1
  Mn  Mn0  1  0.99999979  0.74999930  0.74999841  1
  Cd  Cd0  1  0.99999902  0.24999972  0.25000050  1
  Se  Se0  1  0.09472316  0.88057479  0.19062881  1
  Se  Se1  1  0.90527594  0.09590563  0.78585119  1
  Se  Se2  1  0.31005720  0.61942743  0.71415082  1
  Se  Se3  1  0.68994484  0.40409468  0.30937410  1
loop_
_geom_bond_atom_site_label_1
_geom_bond_atom_site_label_2
_geom_bond_distance
_geom_bond_site_symmetry_2
K0 Se3 3.295116 1_555
K0 Se1 3.352678 1_555
K0 Se2 3.403616 1_544
K0 Se0 3.478688 1_545
K0 Se2 3.539275 1_555
K1 Se2 3.295107 1_555
K1 Se0 3.352689 1_555
K1 Se3 3.403597 1_555
K1 Se1 3.478698 1_565
K1 Se3 3.539304 1_566
K2 Se1 3.295179 1_455
K2 Se3 3.352700 1_556
K2 Se0 3.403639 1_556
K2 Se2 3.478659 1_555
K2 Se0 3.539242 1_545
K3 Se0 3.295139 1_655
K3 Se2 3.352679 1_554
K3 Se1 3.403606 1_565
K3 Se3 3.478708 1_555
K3 Se1 3.539290 1_554
Mn0 Se1 2.571786 1_565
Mn0 Se3 2.571786 1_555
Mn0 Se0 2.571795 1_656
Mn0 Se2 2.571805 1_655
Cd0 Se0 2.669799 1_645
Cd0 Se1 2.669813 1_554
Cd0 Se3 2.669823 1_555
Cd0 Se2 2.669830 1_655
