# generated using pymatgen
data_NaAg2PdO4
_symmetry_space_group_name_H-M   'P 1'
_cell_length_a   5.78085201
_cell_length_b   5.85419037
_cell_length_c   5.78085201
_cell_angle_alpha   90.00000000
_cell_angle_beta   90.00000000
_cell_angle_gamma   90.00000000
_symmetry_Int_Tables_number   1
_chemical_formula_structural   NaAg2PdO4
_chemical_formula_sum   'Na2 Ag4 Pd2 O8'
_cell_volume   195.63679733
_cell_formula_units_Z   2
loop_
 _symmetry_equiv_pos_site_id
 _symmetry_equiv_pos_as_xyz
  1  'x, y, z'
loop_
 _atom_site_type_symbol
 _atom_site_label
 _atom_site_symmetry_multiplicity
 _atom_site_fract_x
 _atom_site_fract_y
 _atom_site_fract_z
 _atom_site_occupancy
  Na  Na0  1  0.50000000  0.50000000  0.50000000  1
  Na  Na1  1  0.00000000  0.00000000  0.00000000  1
  Ag  Ag0  1  0.74477543  0.00000000  0.50000000  1
  Ag  Ag1  1  0.00000000  0.50000000  0.24477543  1
  Ag  Ag2  1  0.00000000  0.50000000  0.75522457  1
  Ag  Ag3  1  0.25522457  0.00000000  0.50000000  1
  Pd  Pd0  1  0.50000000  0.75000000  0.00000000  1
  Pd  Pd1  1  0.50000000  0.25000000  0.00000000  1
  O  O0  1  0.74423885  0.25000000  0.24423885  1
  O  O1  1  0.25576115  0.25000000  0.75576115  1
  O  O2  1  0.25576115  0.75000000  0.24423885  1
  O  O3  1  0.74423885  0.75000000  0.75576115  1
  O  O4  1  0.25576115  0.25000000  0.24423885  1
  O  O5  1  0.74423885  0.75000000  0.24423885  1
  O  O6  1  0.74423885  0.25000000  0.75576115  1
  O  O7  1  0.25576115  0.75000000  0.75576115  1
loop_
_geom_bond_atom_site_label_1
_geom_bond_atom_site_label_2
_geom_bond_distance
_geom_bond_site_symmetry_2
Na0 O5 2.514254 1_555
Na0 O2 2.514254 1_555
Na0 O0 2.514254 1_555
Na0 O4 2.514254 1_555
Na0 O1 2.514254 1_555
Na0 O7 2.514254 1_555
Na0 O3 2.514254 1_555
Na0 O6 2.514254 1_555
Na1 O6 2.514254 1_454
Na1 O3 2.514254 1_444
Na1 O7 2.514254 1_544
Na1 O0 2.514254 1_455
Na1 O5 2.514254 1_445
Na1 O1 2.514254 1_554
Na1 O4 2.514254 1_555
Na1 O2 2.514254 1_545
Ag0 O0 2.080383 1_555
Ag0 O5 2.080383 1_545
Ag0 O6 2.080383 1_555
Ag0 O3 2.080383 1_545
Ag1 O5 2.080383 1_455
Ag1 O0 2.080383 1_455
Ag1 O4 2.080383 1_555
Ag1 O2 2.080383 1_555
Ag2 O6 2.080383 1_455
Ag2 O3 2.080383 1_455
Ag2 O1 2.080383 1_555
Ag2 O7 2.080383 1_555
Ag3 O4 2.080383 1_555
Ag3 O2 2.080383 1_545
Ag3 O1 2.080383 1_555
Ag3 O7 2.080383 1_545
O0 Pd1 1.996740 1_555
O1 Pd1 1.996740 1_556
O2 Pd0 1.996740 1_555
O3 Pd0 1.996740 1_556
O4 Pd1 1.996740 1_555
O5 Pd0 1.996740 1_555
O6 Pd1 1.996740 1_556
O7 Pd0 1.996740 1_556
