# generated using pymatgen
data_Sr2Mg(CoSi)4
_symmetry_space_group_name_H-M   'P 1'
_cell_length_a   6.06798554
_cell_length_b   6.06798526
_cell_length_c   10.74096674
_cell_angle_alpha   90.00000000
_cell_angle_beta   90.00000000
_cell_angle_gamma   112.27581709
_symmetry_Int_Tables_number   1
_chemical_formula_structural   Sr2Mg(CoSi)4
_chemical_formula_sum   'Sr4 Mg2 Co8 Si8'
_cell_volume   365.97190334
_cell_formula_units_Z   2
loop_
 _symmetry_equiv_pos_site_id
 _symmetry_equiv_pos_as_xyz
  1  'x, y, z'
loop_
 _atom_site_type_symbol
 _atom_site_label
 _atom_site_symmetry_multiplicity
 _atom_site_fract_x
 _atom_site_fract_y
 _atom_site_fract_z
 _atom_site_occupancy
  Sr  Sr0  1  0.20482386  0.79517614  0.50000000  1
  Sr  Sr1  1  0.20482386  0.79517614  0.00000000  1
  Sr  Sr2  1  0.79517614  0.20482386  0.50000000  1
  Sr  Sr3  1  0.79517614  0.20482386  0.00000000  1
  Mg  Mg0  1  0.02682218  0.02682218  0.25000000  1
  Mg  Mg1  1  0.97317782  0.97317782  0.75000000  1
  Co  Co0  1  0.50776986  0.25669220  0.25000000  1
  Co  Co1  1  0.74330780  0.49223014  0.75000000  1
  Co  Co2  1  0.49223014  0.74330780  0.75000000  1
  Co  Co3  1  0.25669220  0.50776986  0.25000000  1
  Co  Co4  1  0.66763184  0.66763184  0.36639118  1
  Co  Co5  1  0.33236816  0.33236816  0.63360882  1
  Co  Co6  1  0.66763184  0.66763184  0.13360882  1
  Co  Co7  1  0.33236816  0.33236816  0.86639118  1
  Si  Si0  1  0.52227713  0.89691258  0.25000000  1
  Si  Si1  1  0.10308742  0.47772287  0.75000000  1
  Si  Si2  1  0.47772287  0.10308742  0.75000000  1
  Si  Si3  1  0.89691258  0.52227713  0.25000000  1
  Si  Si4  1  0.34782685  0.34782685  0.42569303  1
  Si  Si5  1  0.65217315  0.65217315  0.57430697  1
  Si  Si6  1  0.34782685  0.34782685  0.07430697  1
  Si  Si7  1  0.65217315  0.65217315  0.92569303  1
loop_
_geom_bond_atom_site_label_1
_geom_bond_atom_site_label_2
_geom_bond_distance
_geom_bond_site_symmetry_2
Mg0 Si3 2.857437 1_445
Mg0 Si0 2.857437 1_445
Mg0 Si4 2.876283 1_555
Mg0 Si6 2.876283 1_555
Mg0 Sr1 3.391749 1_545
Mg0 Sr0 3.391749 1_545
Mg0 Sr2 3.391749 1_455
Mg0 Sr3 3.391749 1_455
Mg1 Si1 2.857437 1_665
Mg1 Si2 2.857437 1_665
Mg1 Si7 2.876283 1_555
Mg1 Si5 2.876283 1_555
Mg1 Sr3 3.391749 1_566
Mg1 Sr2 3.391749 1_565
Mg1 Sr0 3.391749 1_655
Mg1 Sr1 3.391749 1_656
Co0 Si0 2.218003 1_545
Co0 Si4 2.283820 1_555
Co0 Si6 2.283820 1_555
Co0 Si3 2.299552 1_555
Co0 Mg0 2.715960 1_555
Co0 Sr2 3.281337 1_555
Co0 Sr3 3.281337 1_555
Co1 Si1 2.218003 1_655
Co1 Si7 2.283820 1_555
Co1 Si5 2.283820 1_555
Co1 Si2 2.299552 1_555
Co1 Mg1 2.715960 1_555
Co1 Sr3 3.281337 1_556
Co1 Sr2 3.281337 1_555
Co2 Si2 2.218003 1_565
Co2 Si7 2.283820 1_555
Co2 Si5 2.283820 1_555
Co2 Si1 2.299552 1_555
Co2 Mg1 2.715960 1_555
Co2 Sr0 3.281337 1_555
Co2 Sr1 3.281337 1_556
Co3 Si3 2.218003 1_455
Co3 Si4 2.283820 1_555
Co3 Si6 2.283820 1_555
Co3 Si0 2.299552 1_555
Co3 Mg0 2.715960 1_555
Co3 Sr1 3.281337 1_555
Co3 Sr0 3.281337 1_555
Co4 Si5 2.235662 1_555
Co4 Si4 2.254411 1_555
Co4 Si0 2.281837 1_555
Co4 Si3 2.281837 1_555
Co4 Mg0 2.731734 1_665
Co4 Sr2 3.372140 1_565
Co4 Sr0 3.372140 1_655
Co5 Si4 2.235662 1_555
Co5 Si5 2.254411 1_555
Co5 Si2 2.281837 1_555
Co5 Si1 2.281837 1_555
Co5 Mg1 2.731734 1_445
Co5 Sr0 3.372140 1_545
Co5 Sr2 3.372140 1_455
Co6 Si7 2.235662 1_554
Co6 Si6 2.254411 1_555
Co6 Si0 2.281837 1_555
Co6 Si3 2.281837 1_555
Co6 Mg0 2.731734 1_665
Co6 Sr3 3.372140 1_565
Co6 Sr1 3.372140 1_655
Co7 Si6 2.235662 1_556
Co7 Si7 2.254411 1_555
Co7 Si2 2.281837 1_555
Co7 Si1 2.281837 1_555
Co7 Mg1 2.731734 1_445
Co7 Sr1 3.372140 1_546
Co7 Sr3 3.372140 1_456
Si0 Sr0 3.225014 1_555
Si0 Sr1 3.225014 1_555
Si0 Sr2 3.331361 1_565
Si0 Sr3 3.331361 1_565
Si1 Sr0 3.225014 1_555
Si1 Sr1 3.225014 1_556
Si1 Sr2 3.331361 1_455
Si1 Sr3 3.331361 1_456
Si2 Sr2 3.225014 1_555
Si2 Sr3 3.225014 1_556
Si2 Sr0 3.331361 1_545
Si2 Sr1 3.331361 1_546
Si3 Sr3 3.225014 1_555
Si3 Sr2 3.225014 1_555
Si3 Sr1 3.331361 1_655
Si3 Sr0 3.331361 1_655
Si4 Si5 2.604515 1_555
Si4 Sr0 3.229499 1_545
Si4 Sr2 3.229499 1_455
Si4 Sr0 3.247200 1_555
Si4 Sr2 3.247200 1_555
Si5 Sr2 3.229499 1_565
Si5 Sr0 3.229499 1_655
Si5 Sr2 3.247200 1_555
Si5 Sr0 3.247200 1_555
Si6 Si7 2.604515 1_554
Si6 Sr1 3.229499 1_545
Si6 Sr3 3.229499 1_455
Si6 Sr1 3.247200 1_555
Si6 Sr3 3.247200 1_555
Si7 Sr3 3.229499 1_566
Si7 Sr1 3.229499 1_656
Si7 Sr3 3.247200 1_556
Si7 Sr1 3.247200 1_556
