# generated using pymatgen
data_Na5CaNbP4
_symmetry_space_group_name_H-M   'P 1'
_cell_length_a   9.22888076
_cell_length_b   9.22888151
_cell_length_c   7.18105773
_cell_angle_alpha   90.77238880
_cell_angle_beta   90.77238604
_cell_angle_gamma   120.13428690
_symmetry_Int_Tables_number   1
_chemical_formula_structural   Na5CaNbP4
_chemical_formula_sum   'Na10 Ca2 Nb2 P8'
_cell_volume   528.77309830
_cell_formula_units_Z   2
loop_
 _symmetry_equiv_pos_site_id
 _symmetry_equiv_pos_as_xyz
  1  'x, y, z'
loop_
 _atom_site_type_symbol
 _atom_site_label
 _atom_site_symmetry_multiplicity
 _atom_site_fract_x
 _atom_site_fract_y
 _atom_site_fract_z
 _atom_site_occupancy
  Na  Na0  1  0.53898971  0.47124546  0.61181887  1
  Na  Na1  1  0.93665356  0.46950999  0.61375793  1
  Na  Na2  1  0.47124546  0.53898971  0.11181887  1
  Na  Na3  1  0.46950999  0.93665356  0.11375793  1
  Na  Na4  1  0.13635705  0.85506413  0.77958444  1
  Na  Na5  1  0.70901783  0.84779755  0.80768408  1
  Na  Na6  1  0.14677684  0.28855512  0.76479016  1
  Na  Na7  1  0.85506413  0.13635705  0.27958444  1
  Na  Na8  1  0.28855512  0.14677684  0.26479016  1
  Na  Na9  1  0.84779755  0.70901783  0.30768408  1
  Ca  Ca0  1  0.53404760  0.06161937  0.60657783  1
  Ca  Ca1  1  0.06161937  0.53404760  0.10657783  1
  Nb  Nb0  1  0.33197156  0.66384947  0.50054864  1
  Nb  Nb1  1  0.66384947  0.33197156  0.00054864  1
  P  P0  1  0.81172043  0.19600366  0.88990118  1
  P  P1  1  0.38530302  0.18960527  0.87588193  1
  P  P2  1  0.81642268  0.61906120  0.91302791  1
  P  P3  1  0.19600366  0.81172043  0.38990118  1
  P  P4  1  0.61906120  0.81642268  0.41302791  1
  P  P5  1  0.18960527  0.38530302  0.37588193  1
  P  P6  1  0.32421140  0.66621710  0.83352704  1
  P  P7  1  0.66621710  0.32421140  0.33352704  1
loop_
_geom_bond_atom_site_label_1
_geom_bond_atom_site_label_2
_geom_bond_distance
_geom_bond_site_symmetry_2
Na0 P7 2.967093 1_555
Na0 P1 2.977799 1_555
Na0 P2 3.059298 1_555
Na0 P4 3.243362 1_555
Na0 Nb0 3.294718 1_555
Na0 P5 3.338449 1_555
Na1 P7 2.916907 1_555
Na1 P0 2.984544 1_555
Na1 P2 3.045758 1_555
Na1 P5 3.296191 1_655
Na1 P3 3.307281 1_655
Na2 P6 2.967093 1_554
Na2 P5 2.977799 1_555
Na2 P4 3.059298 1_555
Na2 P2 3.243361 1_554
Na2 Nb1 3.294718 1_555
Na2 P1 3.338449 1_554
Na3 P6 2.916907 1_554
Na3 P3 2.984544 1_555
Na3 P4 3.045758 1_555
Na3 P1 3.296191 1_564
Na3 P0 3.307281 1_564
Na4 P2 2.838256 1_455
Na4 P1 2.840144 1_565
Na4 P3 2.919960 1_555
Na4 P6 3.037620 1_555
Na5 P2 2.852160 1_555
Na5 P0 2.906783 1_565
Na5 P4 2.911698 1_555
Na5 P6 3.083083 1_555
Na6 P1 2.882168 1_555
Na6 P5 2.914734 1_555
Na6 P0 2.922687 1_455
Na6 P6 3.045386 1_555
Na7 P4 2.838257 1_545
Na7 P5 2.840143 1_655
Na7 P0 2.919960 1_554
Na7 P7 3.037620 1_555
Na8 P5 2.882168 1_555
Na8 P1 2.914734 1_554
Na8 P3 2.922688 1_545
Na8 P7 3.045386 1_555
Na9 P4 2.852160 1_555
Na9 P3 2.906782 1_655
Na9 P2 2.911698 1_554
Na9 P7 3.083083 1_555
Ca0 P7 2.903471 1_555
Ca0 P1 2.942366 1_555
Ca0 P0 2.974032 1_555
Ca0 P4 3.065171 1_545
Ca0 P3 3.165605 1_545
Ca1 P6 2.903471 1_554
Ca1 P5 2.942366 1_555
Ca1 P3 2.974032 1_555
Ca1 P2 3.065171 1_454
Ca1 P0 3.165605 1_454
Nb0 P5 2.377199 1_555
Nb0 P4 2.391760 1_555
Nb0 P6 2.393308 1_555
Nb0 P3 2.406252 1_555
Nb1 P1 2.377199 1_554
Nb1 P2 2.391760 1_554
Nb1 P7 2.393308 1_555
Nb1 P0 2.406251 1_554
