# generated using pymatgen
data_Li2PS3
_symmetry_space_group_name_H-M   'P 1'
_cell_length_a   6.16365300
_cell_length_b   6.43985500
_cell_length_c   10.66574500
_cell_angle_alpha   90.00000000
_cell_angle_beta   90.00000000
_cell_angle_gamma   90.00000000
_symmetry_Int_Tables_number   1
_chemical_formula_structural   Li2PS3
_chemical_formula_sum   'Li8 P4 S12'
_cell_volume   423.35575322
_cell_formula_units_Z   4
loop_
 _symmetry_equiv_pos_site_id
 _symmetry_equiv_pos_as_xyz
  1  'x, y, z'
loop_
 _atom_site_type_symbol
 _atom_site_label
 _atom_site_symmetry_multiplicity
 _atom_site_fract_x
 _atom_site_fract_y
 _atom_site_fract_z
 _atom_site_occupancy
  Li  Li0  1  0.74379900  0.49973700  0.08325600  1
  Li  Li1  1  0.75620100  0.99973700  0.08325600  1
  Li  Li2  1  0.24379900  0.00026300  0.91674400  1
  Li  Li3  1  0.25620100  0.50026300  0.58325600  1
  Li  Li4  1  0.25620100  0.50026300  0.91674400  1
  Li  Li5  1  0.24379900  0.00026300  0.58325600  1
  Li  Li6  1  0.75620100  0.99973700  0.41674400  1
  Li  Li7  1  0.74379900  0.49973700  0.41674400  1
  P  P0  1  0.74994000  0.29614000  0.75000000  1
  P  P1  1  0.25006000  0.70386000  0.25000000  1
  P  P2  1  0.24994000  0.20386000  0.25000000  1
  P  P3  1  0.75006000  0.79614000  0.75000000  1
  S  S0  1  0.91400800  0.75021300  0.91409200  1
  S  S1  1  0.58599200  0.25021300  0.91409200  1
  S  S2  1  0.58599200  0.25021300  0.58590800  1
  S  S3  1  0.42174000  0.75497400  0.75000000  1
  S  S4  1  0.41400800  0.74978700  0.08590800  1
  S  S5  1  0.41400800  0.74978700  0.41409200  1
  S  S6  1  0.08599200  0.24978700  0.41409200  1
  S  S7  1  0.08599200  0.24978700  0.08590800  1
  S  S8  1  0.07826000  0.25497400  0.75000000  1
  S  S9  1  0.92174000  0.74502600  0.25000000  1
  S  S10  1  0.91400800  0.75021300  0.58590800  1
  S  S11  1  0.57826000  0.24502600  0.25000000  1
loop_
_geom_bond_atom_site_label_1
_geom_bond_atom_site_label_2
_geom_bond_distance
_geom_bond_site_symmetry_2
Li0 S4 2.593407 1_555
Li0 S1 2.604527 1_554
Li0 S9 2.619350 1_555
Li0 S11 2.625744 1_555
Li0 S0 2.637773 1_554
Li0 S7 2.653356 1_655
Li1 S7 2.593407 1_665
Li1 S0 2.604527 1_554
Li1 S11 2.619350 1_565
Li1 S9 2.625744 1_555
Li1 S1 2.637773 1_564
Li1 S4 2.653356 1_555
Li2 S0 2.593407 1_445
Li2 S7 2.604527 1_556
Li2 S3 2.619350 1_545
Li2 S8 2.625744 1_555
Li2 S4 2.637773 1_546
Li2 S1 2.653356 1_555
Li3 S2 2.593407 1_555
Li3 S5 2.604527 1_555
Li3 S8 2.619350 1_555
Li3 S3 2.625744 1_555
Li3 S6 2.637773 1_555
Li3 S10 2.653356 1_455
Li4 S1 2.593407 1_555
Li4 S4 2.604527 1_556
Li4 S8 2.619350 1_555
Li4 S3 2.625744 1_555
Li4 S7 2.637773 1_556
Li4 S0 2.653356 1_455
Li5 S10 2.593407 1_445
Li5 S6 2.604527 1_555
Li5 S3 2.619350 1_545
Li5 S8 2.625744 1_555
Li5 S5 2.637773 1_545
Li5 S2 2.653356 1_555
Li6 S6 2.593407 1_665
Li6 S10 2.604527 1_555
Li6 S11 2.619350 1_565
Li6 S9 2.625744 1_555
Li6 S2 2.637773 1_565
Li6 S5 2.653356 1_555
Li7 S5 2.593407 1_555
Li7 S2 2.604527 1_555
Li7 S9 2.619350 1_555
Li7 S11 2.625744 1_555
Li7 S10 2.637773 1_555
Li7 S6 2.653356 1_655
P0 S8 2.040941 1_655
P0 S1 2.042473 1_555
P0 S2 2.042473 1_555
P1 S9 2.040941 1_455
P1 S5 2.042473 1_555
P1 S4 2.042473 1_555
P2 S11 2.040941 1_555
P2 S6 2.042473 1_555
P2 S7 2.042473 1_555
P3 S3 2.040941 1_555
P3 S0 2.042473 1_555
P3 S10 2.042473 1_555
