# generated using pymatgen
data_Cd2BiPO6
_symmetry_space_group_name_H-M   'P 1'
_cell_length_a   7.10920386
_cell_length_b   7.10920395
_cell_length_c   5.53430847
_cell_angle_alpha   90.00000000
_cell_angle_beta   90.00000000
_cell_angle_gamma   106.07269053
_symmetry_Int_Tables_number   1
_chemical_formula_structural   Cd2BiPO6
_chemical_formula_sum   'Cd4 Bi2 P2 O12'
_cell_volume   268.77481405
_cell_formula_units_Z   2
loop_
 _symmetry_equiv_pos_site_id
 _symmetry_equiv_pos_as_xyz
  1  'x, y, z'
loop_
 _atom_site_type_symbol
 _atom_site_label
 _atom_site_symmetry_multiplicity
 _atom_site_fract_x
 _atom_site_fract_y
 _atom_site_fract_z
 _atom_site_occupancy
  Cd  Cd0  1  0.41322019  0.19067094  0.36967373  1
  Cd  Cd1  1  0.80932906  0.58677981  0.36967373  1
  Cd  Cd2  1  0.58677981  0.80932906  0.86967373  1
  Cd  Cd3  1  0.19067094  0.41322019  0.86967373  1
  Bi  Bi0  1  0.90206933  0.09793067  0.37697623  1
  Bi  Bi1  1  0.09793067  0.90206933  0.87697623  1
  P  P0  1  0.33194109  0.66805891  0.35227914  1
  P  P1  1  0.66805891  0.33194109  0.85227914  1
  O  O0  1  0.15865055  0.15328668  0.62018227  1
  O  O1  1  0.12891068  0.57571111  0.23489851  1
  O  O2  1  0.15328668  0.15865055  0.12018227  1
  O  O3  1  0.84671332  0.84134945  0.62018227  1
  O  O4  1  0.84134945  0.84671332  0.12018227  1
  O  O5  1  0.53557849  0.46442151  0.80452548  1
  O  O6  1  0.30560935  0.69439065  0.62812013  1
  O  O7  1  0.87108932  0.42428889  0.73489851  1
  O  O8  1  0.57571111  0.12891068  0.73489851  1
  O  O9  1  0.46442151  0.53557849  0.30452548  1
  O  O10  1  0.69439065  0.30560935  0.12812013  1
  O  O11  1  0.42428889  0.87108932  0.23489851  1
loop_
_geom_bond_atom_site_label_1
_geom_bond_atom_site_label_2
_geom_bond_distance
_geom_bond_site_symmetry_2
Cd0 O0 2.236452 1_555
Cd0 O2 2.267203 1_555
Cd0 O10 2.354994 1_555
Cd0 O9 2.404304 1_555
Cd0 O11 2.413169 1_545
Cd0 O8 2.427671 1_555
Cd1 O3 2.236452 1_555
Cd1 O4 2.267203 1_555
Cd1 O10 2.354994 1_555
Cd1 O9 2.404304 1_555
Cd1 O1 2.413169 1_655
Cd1 O7 2.427671 1_555
Cd2 O4 2.236452 1_556
Cd2 O3 2.267203 1_555
Cd2 O6 2.354994 1_555
Cd2 O5 2.404304 1_555
Cd2 O8 2.413169 1_565
Cd2 O11 2.427671 1_556
Cd3 O2 2.236452 1_556
Cd3 O0 2.267203 1_555
Cd3 O6 2.354994 1_555
Cd3 O5 2.404304 1_555
Cd3 O7 2.413169 1_455
Cd3 O1 2.427671 1_556
Bi0 O0 2.212768 1_655
Bi0 O3 2.212768 1_545
Bi0 O2 2.229089 1_655
Bi0 O4 2.229089 1_545
Bi0 O10 2.731942 1_555
Bi1 O4 2.212768 1_456
Bi1 O2 2.212768 1_566
Bi1 O3 2.229089 1_455
Bi1 O0 2.229089 1_565
Bi1 O6 2.731942 1_555
O1 P0 1.552958 1_555
O5 P1 1.528104 1_555
O6 P0 1.555623 1_555
O7 P1 1.552958 1_555
O8 P1 1.552958 1_555
O9 P0 1.528104 1_555
O10 P1 1.555623 1_554
O11 P0 1.552958 1_555
