# generated using pymatgen
data_K2TaCl6
_symmetry_space_group_name_H-M   'P 1'
_cell_length_a   6.98323280
_cell_length_b   6.98323223
_cell_length_c   6.98323043
_cell_angle_alpha   59.99999415
_cell_angle_beta   59.99999677
_cell_angle_gamma   59.99997907
_symmetry_Int_Tables_number   1
_chemical_formula_structural   K2TaCl6
_chemical_formula_sum   'K2 Ta1 Cl6'
_cell_volume   240.79877972
_cell_formula_units_Z   1
loop_
 _symmetry_equiv_pos_site_id
 _symmetry_equiv_pos_as_xyz
  1  'x, y, z'
loop_
 _atom_site_type_symbol
 _atom_site_label
 _atom_site_symmetry_multiplicity
 _atom_site_fract_x
 _atom_site_fract_y
 _atom_site_fract_z
 _atom_site_occupancy
  K  K0  1  0.75000000  0.75000000  0.75000000  1
  K  K1  1  0.25000000  0.25000000  0.25000000  1
  Ta  Ta0  1  0.00000000  -0.00000000  0.00000000  1
  Cl  Cl0  1  0.24370059  0.75629941  0.75629941  1
  Cl  Cl1  1  0.75629941  0.24370059  0.75629941  1
  Cl  Cl2  1  0.75629941  0.75629941  0.24370059  1
  Cl  Cl3  1  0.75629941  0.24370059  0.24370059  1
  Cl  Cl4  1  0.24370059  0.24370059  0.75629941  1
  Cl  Cl5  1  0.24370059  0.75629941  0.24370059  1
loop_
_geom_bond_atom_site_label_1
_geom_bond_atom_site_label_2
_geom_bond_distance
_geom_bond_site_symmetry_2
Cl0 Ta0 2.406733 1_566
Cl0 K1 3.492170 1_565
Cl0 K1 3.492170 1_556
Cl0 K0 3.492171 1_555
Cl0 K0 3.492171 1_455
Cl1 Ta0 2.406733 1_656
Cl1 K1 3.492170 1_655
Cl1 K1 3.492170 1_556
Cl1 K0 3.492170 1_555
Cl1 K0 3.492170 1_545
Cl2 Ta0 2.406734 1_665
Cl2 K1 3.492169 1_655
Cl2 K1 3.492169 1_565
Cl2 K0 3.492169 1_555
Cl2 K0 3.492169 1_554
Cl3 Ta0 2.406733 1_655
Cl3 K0 3.492170 1_545
Cl3 K0 3.492170 1_554
Cl3 K1 3.492171 1_555
Cl3 K1 3.492171 1_655
Cl4 Ta0 2.406734 1_556
Cl4 K0 3.492169 1_455
Cl4 K0 3.492169 1_545
Cl4 K1 3.492169 1_555
Cl4 K1 3.492169 1_556
Cl5 Ta0 2.406733 1_565
Cl5 K0 3.492170 1_455
Cl5 K0 3.492170 1_554
Cl5 K1 3.492170 1_555
Cl5 K1 3.492170 1_565
