# generated using pymatgen
data_NdMg12
_symmetry_space_group_name_H-M   'P 1'
_cell_length_a   5.89608218
_cell_length_b   7.81261111
_cell_length_c   7.81261077
_cell_angle_alpha   81.76584415
_cell_angle_beta   67.83074192
_cell_angle_gamma   67.83074459
_symmetry_Int_Tables_number   1
_chemical_formula_structural   NdMg12
_chemical_formula_sum   'Nd1 Mg12'
_cell_volume   308.63582969
_cell_formula_units_Z   1
loop_
 _symmetry_equiv_pos_site_id
 _symmetry_equiv_pos_as_xyz
  1  'x, y, z'
loop_
 _atom_site_type_symbol
 _atom_site_label
 _atom_site_symmetry_multiplicity
 _atom_site_fract_x
 _atom_site_fract_y
 _atom_site_fract_z
 _atom_site_occupancy
  Nd  Nd0  1  0.00000000  -0.00000000  -0.00000000  1
  Mg  Mg0  1  0.50000000  -0.00000000  0.50000000  1
  Mg  Mg1  1  0.00000000  0.50000000  -0.00000000  1
  Mg  Mg2  1  0.50000000  0.50000000  -0.00000000  1
  Mg  Mg3  1  0.00000000  -0.00000000  0.50000000  1
  Mg  Mg4  1  0.35219442  0.64780558  0.64780558  1
  Mg  Mg5  1  0.00000000  0.35223439  0.64776561  1
  Mg  Mg6  1  -0.00000000  0.64776561  0.35223439  1
  Mg  Mg7  1  0.64780558  0.35219442  0.35219442  1
  Mg  Mg8  1  0.28818239  0.21181761  0.21181761  1
  Mg  Mg9  1  0.50000000  0.78819272  0.21180728  1
  Mg  Mg10  1  0.50000000  0.21180728  0.78819272  1
  Mg  Mg11  1  0.71181761  0.78818239  0.78818239  1
loop_
_geom_bond_atom_site_label_1
_geom_bond_atom_site_label_2
_geom_bond_distance
_geom_bond_site_symmetry_2
Mg0 Mg3 2.948041 1_555
Mg0 Mg3 2.948041 1_655
Mg0 Mg8 2.976982 1_555
Mg0 Mg11 2.976982 1_545
Mg0 Mg10 2.979074 1_555
Mg0 Mg9 2.979074 1_545
Mg0 Mg7 3.131146 1_555
Mg0 Mg4 3.131146 1_545
Mg0 Mg5 3.132967 1_555
Mg0 Mg6 3.132967 1_645
Mg0 Nd0 3.906305 1_655
Mg0 Nd0 3.906305 1_556
Mg1 Mg2 2.948041 1_555
Mg1 Mg2 2.948041 1_455
Mg1 Mg11 2.976982 1_454
Mg1 Mg8 2.976982 1_555
Mg1 Mg9 2.979074 1_455
Mg1 Mg10 2.979074 1_554
Mg1 Mg4 3.131145 1_554
Mg1 Mg7 3.131145 1_455
Mg1 Mg5 3.132967 1_554
Mg1 Mg6 3.132967 1_555
Mg1 Nd0 3.906306 1_565
Mg1 Nd0 3.906306 1_555
Mg2 Mg8 2.976982 1_555
Mg2 Mg9 2.979074 1_555
Mg2 Mg7 3.131146 1_555
Mg2 Mg4 3.131146 1_554
Mg2 Mg5 3.132967 1_654
Mg2 Mg6 3.132967 1_555
Mg2 Nd0 3.906305 1_655
Mg2 Nd0 3.906305 1_565
Mg3 Mg8 2.976982 1_555
Mg3 Mg9 2.979074 1_545
Mg3 Mg4 3.131146 1_545
Mg3 Mg7 3.131146 1_455
Mg3 Mg6 3.132967 1_545
Mg3 Mg5 3.132967 1_555
Mg3 Nd0 3.906305 1_556
Mg3 Nd0 3.906305 1_555
Mg4 Mg7 3.026130 1_555
Mg4 Mg9 3.313025 1_555
Mg4 Nd0 3.605364 1_566
Mg5 Mg6 3.022383 1_555
Mg5 Mg8 3.314617 1_555
Mg5 Nd0 3.602283 1_556
Mg6 Mg9 3.279245 1_555
Mg6 Mg9 3.279245 1_455
Mg6 Mg8 3.314617 1_555
Mg6 Nd0 3.602283 1_565
Mg7 Mg8 3.279629 1_655
Mg7 Mg8 3.279629 1_555
Mg7 Mg9 3.313025 1_555
Mg7 Nd0 3.605364 1_655
Mg8 Mg9 3.064947 1_545
Mg8 Nd0 3.659600 1_655
Mg8 Nd0 3.659600 1_555
Mg9 Nd0 3.658295 1_665
Mg9 Nd0 3.658295 1_565
Mg10 Mg3 2.979074 1_655
Mg10 Mg2 2.979074 1_556
Mg10 Mg8 3.064947 1_556
Mg10 Mg11 3.064947 1_545
Mg10 Mg5 3.279245 1_655
Mg10 Mg5 3.279245 1_555
Mg10 Mg7 3.313025 1_555
Mg10 Mg4 3.313025 1_555
Mg10 Nd0 3.658295 1_556
Mg10 Nd0 3.658295 1_656
Mg11 Mg3 2.976982 1_665
Mg11 Mg2 2.976982 1_556
Mg11 Mg9 3.064947 1_556
Mg11 Mg4 3.279629 1_655
Mg11 Mg4 3.279629 1_555
Mg11 Mg6 3.314617 1_655
Mg11 Mg5 3.314617 1_655
Mg11 Nd0 3.659600 1_566
Mg11 Nd0 3.659600 1_666
