# generated using pymatgen
data_Cs5Sb2Au
_symmetry_space_group_name_H-M   'P 1'
_cell_length_a   10.75290039
_cell_length_b   10.75290128
_cell_length_c   10.75290084
_cell_angle_alpha   35.19944271
_cell_angle_beta   35.19943454
_cell_angle_gamma   35.19943666
_symmetry_Int_Tables_number   1
_chemical_formula_structural   Cs5Sb2Au
_chemical_formula_sum   'Cs5 Sb2 Au1'
_cell_volume   368.98038661
_cell_formula_units_Z   1
loop_
 _symmetry_equiv_pos_site_id
 _symmetry_equiv_pos_as_xyz
  1  'x, y, z'
loop_
 _atom_site_type_symbol
 _atom_site_label
 _atom_site_symmetry_multiplicity
 _atom_site_fract_x
 _atom_site_fract_y
 _atom_site_fract_z
 _atom_site_occupancy
  Cs  Cs0  1  0.21564909  0.21564909  0.21564909  1
  Cs  Cs1  1  0.36144140  0.36144140  0.36144140  1
  Cs  Cs2  1  0.50000000  0.50000000  0.50000000  1
  Cs  Cs3  1  0.63855860  0.63855860  0.63855860  1
  Cs  Cs4  1  0.78434991  0.78434991  0.78434991  1
  Sb  Sb0  1  0.08797564  0.08797564  0.08797564  1
  Sb  Sb1  1  0.91202436  0.91202436  0.91202436  1
  Au  Au0  1  0.00000000  0.00000000  0.00000000  1
loop_
_geom_bond_atom_site_label_1
_geom_bond_atom_site_label_2
_geom_bond_distance
_geom_bond_site_symmetry_2
Cs0 Sb0 3.859398 1_555
Cs0 Sb1 3.860197 1_544
Cs0 Sb1 3.860198 1_445
Cs0 Sb1 3.860198 1_454
Cs0 Cs2 4.035718 1_455
Cs0 Cs2 4.035719 1_554
Cs0 Cs2 4.035719 1_545
Cs1 Sb0 4.167697 1_655
Cs1 Sb0 4.167698 1_556
Cs1 Sb0 4.167698 1_565
Cs1 Cs2 4.188442 1_555
Cs2 Cs4 4.035729 1_455
Cs2 Cs4 4.035730 1_554
Cs2 Cs4 4.035730 1_545
Cs2 Cs3 4.188442 1_555
Cs2 Sb1 4.444430 1_455
Cs2 Sb0 4.444430 1_655
Cs2 Sb1 4.444430 1_554
Cs2 Sb0 4.444430 1_556
Cs2 Sb1 4.444431 1_545
Cs2 Sb0 4.444431 1_565
Cs3 Sb1 4.167697 1_455
Cs3 Sb1 4.167698 1_554
Cs3 Sb1 4.167698 1_545
Cs4 Sb1 3.859428 1_555
Cs4 Sb0 3.860190 1_566
Cs4 Sb0 3.860191 1_665
Cs4 Sb0 3.860191 1_656
Au0 Sb0 2.659386 1_555
Au0 Sb1 2.659386 1_444
Au0 Cs1 3.849229 1_455
Au0 Cs3 3.849229 1_544
Au0 Cs1 3.849230 1_554
Au0 Cs3 3.849230 1_445
Au0 Cs1 3.849230 1_545
Au0 Cs3 3.849230 1_454
