# generated using pymatgen
data_Cs12Nb3VS16
_symmetry_space_group_name_H-M   'P 1'
_cell_length_a   9.99103622
_cell_length_b   10.02566651
_cell_length_c   11.64027741
_cell_angle_alpha   90.00000000
_cell_angle_beta   90.00000000
_cell_angle_gamma   89.91321579
_symmetry_Int_Tables_number   1
_chemical_formula_structural   Cs12Nb3VS16
_chemical_formula_sum   'Cs12 Nb3 V1 S16'
_cell_volume   1165.96796867
_cell_formula_units_Z   1
loop_
 _symmetry_equiv_pos_site_id
 _symmetry_equiv_pos_as_xyz
  1  'x, y, z'
loop_
 _atom_site_type_symbol
 _atom_site_label
 _atom_site_symmetry_multiplicity
 _atom_site_fract_x
 _atom_site_fract_y
 _atom_site_fract_z
 _atom_site_occupancy
  Cs  Cs0  1  0.54992831  0.21277239  0.04332233  1
  Cs  Cs1  1  0.04429798  0.29329903  0.45786394  1
  Cs  Cs2  1  0.45398585  0.78940035  0.53941344  1
  Cs  Cs3  1  0.95158305  0.70667891  0.96167241  1
  Cs  Cs4  1  0.45398585  0.78940035  0.96058656  1
  Cs  Cs5  1  0.95158305  0.70667891  0.53832759  1
  Cs  Cs6  1  0.54992831  0.21277239  0.45667767  1
  Cs  Cs7  1  0.04429798  0.29329903  0.04213606  1
  Cs  Cs8  1  0.64938800  0.41267203  0.75000000  1
  Cs  Cs9  1  0.14781363  0.08488281  0.75000000  1
  Cs  Cs10  1  0.35493877  0.58250692  0.25000000  1
  Cs  Cs11  1  0.84944901  0.91670953  0.25000000  1
  Nb  Nb0  1  0.72142259  0.98251459  0.75000000  1
  Nb  Nb1  1  0.22264617  0.51623302  0.75000000  1
  Nb  Nb2  1  0.27718684  0.01578983  0.25000000  1
  V  V0  1  0.77927294  0.48439255  0.25000000  1
  S  S0  1  0.83141453  0.04777070  0.58717896  1
  S  S1  1  0.33326691  0.45193740  0.91297287  1
  S  S2  1  0.16679433  0.95081413  0.08744000  1
  S  S3  1  0.67419236  0.54656286  0.40237275  1
  S  S4  1  0.16679433  0.95081413  0.41256000  1
  S  S5  1  0.67419236  0.54656286  0.09762725  1
  S  S6  1  0.83141453  0.04777070  0.91282104  1
  S  S7  1  0.33326691  0.45193740  0.58702713  1
  S  S8  1  0.50968781  0.07128498  0.75000000  1
  S  S9  1  0.01068665  0.42804528  0.75000000  1
  S  S10  1  0.48969378  0.92792589  0.25000000  1
  S  S11  1  0.97913506  0.56743005  0.25000000  1
  S  S12  1  0.70652100  0.75462616  0.75000000  1
  S  S13  1  0.20630015  0.74354713  0.75000000  1
  S  S14  1  0.29205839  0.24346114  0.25000000  1
  S  S15  1  0.79287256  0.26950457  0.25000000  1
loop_
_geom_bond_atom_site_label_1
_geom_bond_atom_site_label_2
_geom_bond_distance
_geom_bond_site_symmetry_2
Cs0 S15 3.465127 1_555
Cs0 S14 3.538056 1_555
Cs0 S1 3.566747 1_554
Cs0 S6 3.597122 1_554
Cs0 S5 3.626628 1_555
Cs0 S8 3.719319 1_554
Cs0 S10 3.782940 1_545
Cs1 S15 3.496184 1_455
Cs1 S14 3.496837 1_555
Cs1 S0 3.586766 1_455
Cs1 S7 3.624817 1_555
Cs1 S9 3.674247 1_555
Cs1 S4 3.681453 1_545
Cs1 S11 3.718371 1_455
Cs2 S13 3.513888 1_555
Cs2 S12 3.534637 1_555
Cs2 S4 3.608082 1_555
Cs2 S7 3.636055 1_555
Cs2 S3 3.646385 1_555
Cs2 S10 3.661522 1_555
Cs2 S8 3.782858 1_565
Cs3 S12 3.506169 1_555
Cs3 S13 3.561862 1_655
Cs3 S2 3.573972 1_656
Cs3 S5 3.574299 1_556
Cs3 S11 3.645239 1_556
Cs3 S6 3.666952 1_565
Cs3 S9 3.770703 1_655
Cs4 S13 3.513888 1_555
Cs4 S12 3.534637 1_555
Cs4 S2 3.608082 1_556
Cs4 S1 3.636055 1_555
Cs4 S5 3.646385 1_556
Cs4 S10 3.661522 1_556
Cs4 S8 3.782858 1_565
Cs5 S12 3.506169 1_555
Cs5 S13 3.561862 1_655
Cs5 S4 3.573972 1_655
Cs5 S3 3.574299 1_555
Cs5 S11 3.645239 1_555
Cs5 S0 3.666952 1_565
Cs5 S9 3.770703 1_655
Cs6 S15 3.465127 1_555
Cs6 S14 3.538056 1_555
Cs6 S7 3.566747 1_555
Cs6 S0 3.597122 1_555
Cs6 S3 3.626628 1_555
Cs6 S8 3.719319 1_555
Cs6 S10 3.782940 1_545
Cs7 S15 3.496184 1_455
Cs7 S14 3.496837 1_555
Cs7 S6 3.586766 1_454
Cs7 S1 3.624817 1_554
Cs7 S9 3.674247 1_554
Cs7 S2 3.681453 1_545
Cs7 S11 3.718371 1_455
Cs8 S12 3.476367 1_555
Cs8 S9 3.613270 1_655
Cs8 S8 3.698243 1_555
Cs8 S1 3.704773 1_555
Cs8 S7 3.704773 1_555
Cs9 S13 3.470776 1_545
Cs9 S8 3.617861 1_555
Cs9 S9 3.701258 1_555
Cs9 S0 3.704996 1_455
Cs9 S6 3.704996 1_455
Cs10 S14 3.457664 1_555
Cs10 S3 3.666916 1_555
Cs10 S5 3.666916 1_555
Cs10 S10 3.717461 1_555
Cs10 S11 3.757939 1_455
Cs11 S15 3.581043 1_565
Cs11 S10 3.595916 1_555
Cs11 S4 3.708576 1_655
Cs11 S2 3.708576 1_655
Cs11 S11 3.731944 1_555
Nb0 S0 2.286909 1_565
Nb0 S6 2.286909 1_565
Nb0 S12 2.289804 1_555
Nb0 S8 2.293795 1_565
Nb1 S13 2.284573 1_555
Nb1 S1 2.287719 1_555
Nb1 S7 2.287719 1_555
Nb1 S9 2.296086 1_555
Nb2 S4 2.285516 1_545
Nb2 S2 2.285516 1_545
Nb2 S14 2.287612 1_555
Nb2 S10 2.297420 1_545
S3 V0 2.152814 1_555
S5 V0 2.152814 1_555
S11 V0 2.164586 1_555
S15 V0 2.158470 1_555
