# generated using pymatgen
data_Hf16Ir5Pd3O4
_symmetry_space_group_name_H-M   'P 1'
_cell_length_a   8.70703781
_cell_length_b   8.70703736
_cell_length_c   8.70703843
_cell_angle_alpha   60.05820149
_cell_angle_beta   60.05820524
_cell_angle_gamma   60.05821002
_symmetry_Int_Tables_number   1
_chemical_formula_structural   Hf16Ir5Pd3O4
_chemical_formula_sum   'Hf16 Ir5 Pd3 O4'
_cell_volume   467.37861450
_cell_formula_units_Z   1
loop_
 _symmetry_equiv_pos_site_id
 _symmetry_equiv_pos_as_xyz
  1  'x, y, z'
loop_
 _atom_site_type_symbol
 _atom_site_label
 _atom_site_symmetry_multiplicity
 _atom_site_fract_x
 _atom_site_fract_y
 _atom_site_fract_z
 _atom_site_occupancy
  Hf  Hf0  1  0.12025374  0.62555091  0.62555091  1
  Hf  Hf1  1  0.62555091  0.12025374  0.62555091  1
  Hf  Hf2  1  0.62555091  0.62555091  0.12025374  1
  Hf  Hf3  1  0.62976222  0.62976222  0.62976222  1
  Hf  Hf4  1  0.81727754  0.81727754  0.18305861  1
  Hf  Hf5  1  0.18428193  0.18428193  0.81527910  1
  Hf  Hf6  1  0.81727754  0.18305861  0.81727754  1
  Hf  Hf7  1  0.18428193  0.81527910  0.18428193  1
  Hf  Hf8  1  0.18305861  0.81727754  0.81727754  1
  Hf  Hf9  1  0.81527910  0.18428193  0.18428193  1
  Hf  Hf10  1  0.43543880  0.43543880  0.06683618  1
  Hf  Hf11  1  0.06267856  0.06267856  0.43679557  1
  Hf  Hf12  1  0.43543880  0.06683618  0.43543880  1
  Hf  Hf13  1  0.06267856  0.43679557  0.06267856  1
  Hf  Hf14  1  0.06683618  0.43543880  0.43543880  1
  Hf  Hf15  1  0.43679557  0.06267856  0.06267856  1
  Ir  Ir0  1  0.40230569  0.40230569  0.40230569  1
  Ir  Ir1  1  0.45956644  0.84849142  0.84849142  1
  Ir  Ir2  1  0.84849142  0.45956644  0.84849142  1
  Ir  Ir3  1  0.84849142  0.84849142  0.45956644  1
  Ir  Ir4  1  0.84648955  0.84648955  0.84648955  1
  Pd  Pd0  1  0.77689983  0.40861323  0.40861323  1
  Pd  Pd1  1  0.40861323  0.77689983  0.40861323  1
  Pd  Pd2  1  0.40861323  0.40861323  0.77689983  1
  O  O0  1  0.62279556  0.12505549  0.12505549  1
  O  O1  1  0.12505549  0.62279556  0.12505549  1
  O  O2  1  0.12505549  0.12505549  0.62279556  1
  O  O3  1  0.12518076  0.12518076  0.12518076  1
loop_
_geom_bond_atom_site_label_1
_geom_bond_atom_site_label_2
_geom_bond_distance
_geom_bond_site_symmetry_2
Hf0 Ir2 2.735691 1_455
Hf0 Ir3 2.735691 1_455
Hf0 Ir4 2.760904 1_455
Hf0 Pd1 2.773493 1_555
Hf0 Pd2 2.773493 1_555
Hf0 Ir0 2.798050 1_555
Hf1 Ir1 2.735691 1_545
Hf1 Ir3 2.735691 1_545
Hf1 Ir4 2.760904 1_545
Hf1 Pd0 2.773493 1_555
Hf1 Pd2 2.773493 1_555
Hf1 Ir0 2.798050 1_555
Hf2 Ir1 2.735691 1_554
Hf2 Ir2 2.735691 1_554
Hf2 Ir4 2.760904 1_554
Hf2 Pd0 2.773493 1_555
Hf2 Pd1 2.773493 1_555
Hf2 Ir0 2.798050 1_555
Hf3 Ir3 2.726947 1_555
Hf3 Ir2 2.726947 1_555
Hf3 Ir1 2.726947 1_555
Hf3 Pd2 2.798739 1_555
Hf3 Pd1 2.798739 1_555
Hf3 Pd0 2.798739 1_555
Hf4 O0 2.297124 1_565
Hf4 O1 2.297124 1_655
Hf4 Ir4 2.700700 1_554
Hf4 Ir3 2.706323 1_555
Hf4 Pd0 3.197729 1_555
Hf4 Pd1 3.197729 1_555
Hf5 O3 2.302762 1_556
Hf5 O2 2.309043 1_555
Hf5 Ir1 2.688750 1_545
Hf5 Ir2 2.688750 1_455
Hf5 Ir0 3.179051 1_555
Hf5 Pd2 3.201171 1_555
Hf6 O0 2.297124 1_556
Hf6 O2 2.297124 1_655
Hf6 Ir4 2.700700 1_545
Hf6 Ir2 2.706323 1_555
Hf6 Pd0 3.197729 1_555
Hf6 Pd2 3.197729 1_555
Hf7 O3 2.302762 1_565
Hf7 O1 2.309043 1_555
Hf7 Ir1 2.688750 1_554
Hf7 Ir3 2.688750 1_455
Hf7 Ir0 3.179051 1_555
Hf7 Pd1 3.201171 1_555
Hf8 O2 2.297124 1_565
Hf8 O1 2.297124 1_556
Hf8 Ir4 2.700700 1_455
Hf8 Ir1 2.706323 1_555
Hf8 Pd2 3.197729 1_555
Hf8 Pd1 3.197729 1_555
Hf9 O3 2.302762 1_655
Hf9 O0 2.309043 1_555
Hf9 Ir3 2.688750 1_545
Hf9 Ir2 2.688750 1_554
Hf9 Ir0 3.179051 1_555
Hf9 Pd0 3.201171 1_555
Hf10 O0 2.297567 1_555
Hf10 O1 2.297567 1_555
Hf10 Ir0 2.664412 1_555
Hf10 Pd2 2.777377 1_554
Hf10 Ir1 3.181698 1_554
Hf10 Ir2 3.181698 1_554
Hf11 O2 2.294188 1_555
Hf11 O3 2.302544 1_555
Hf11 Pd0 2.777469 1_455
Hf11 Pd1 2.777469 1_545
Hf11 Ir3 3.119124 1_445
Hf11 Ir4 3.153211 1_445
Hf12 O0 2.297567 1_555
Hf12 O2 2.297567 1_555
Hf12 Ir0 2.664412 1_555
Hf12 Pd1 2.777377 1_545
Hf12 Ir1 3.181698 1_545
Hf12 Ir3 3.181698 1_545
Hf13 O1 2.294187 1_555
Hf13 O3 2.302543 1_555
Hf13 Pd0 2.777469 1_455
Hf13 Pd2 2.777469 1_554
Hf13 Ir2 3.119124 1_454
Hf13 Ir4 3.153211 1_454
Hf14 O2 2.297567 1_555
Hf14 O1 2.297567 1_555
Hf14 Ir0 2.664412 1_555
Hf14 Pd0 2.777377 1_455
Hf14 Ir3 3.181698 1_455
Hf14 Ir2 3.181699 1_455
Hf15 O0 2.294187 1_555
Hf15 O3 2.302544 1_555
Hf15 Pd2 2.777468 1_554
Hf15 Pd1 2.777469 1_545
Hf15 Ir1 3.119124 1_544
Hf15 Ir4 3.153211 1_544
