# generated using pymatgen
data_Cs2Ge(PdSe2)3
_symmetry_space_group_name_H-M   'P 1'
_cell_length_a   8.59483987
_cell_length_b   8.59484070
_cell_length_c   8.59484011
_cell_angle_alpha   50.09351196
_cell_angle_beta   50.09350900
_cell_angle_gamma   50.09351619
_symmetry_Int_Tables_number   1
_chemical_formula_structural   Cs2Ge(PdSe2)3
_chemical_formula_sum   'Cs2 Ge1 Pd3 Se6'
_cell_volume   343.88898860
_cell_formula_units_Z   1
loop_
 _symmetry_equiv_pos_site_id
 _symmetry_equiv_pos_as_xyz
  1  'x, y, z'
loop_
 _atom_site_type_symbol
 _atom_site_label
 _atom_site_symmetry_multiplicity
 _atom_site_fract_x
 _atom_site_fract_y
 _atom_site_fract_z
 _atom_site_occupancy
  Cs  Cs0  1  0.79959646  0.79959646  0.79959646  1
  Cs  Cs1  1  0.20040354  0.20040354  0.20040354  1
  Ge  Ge0  1  0.00000000  0.00000000  0.00000000  1
  Pd  Pd0  1  0.50000000  0.50000000  0.00000000  1
  Pd  Pd1  1  0.50000000  0.00000000  0.50000000  1
  Pd  Pd2  1  0.00000000  0.50000000  0.50000000  1
  Se  Se0  1  0.76909220  0.76909220  0.28333560  1
  Se  Se1  1  0.28333560  0.76909220  0.76909220  1
  Se  Se2  1  0.76909220  0.28333560  0.76909220  1
  Se  Se3  1  0.71666440  0.23090780  0.23090780  1
  Se  Se4  1  0.23090780  0.23090780  0.71666440  1
  Se  Se5  1  0.23090780  0.71666440  0.23090780  1
loop_
_geom_bond_atom_site_label_1
_geom_bond_atom_site_label_2
_geom_bond_distance
_geom_bond_site_symmetry_2
Cs0 Pd0 3.654292 1_556
Cs0 Pd1 3.654292 1_565
Cs0 Pd2 3.654292 1_655
Cs0 Se1 3.835959 1_655
Cs0 Se0 3.835959 1_556
Cs0 Se2 3.835959 1_565
Cs0 Se5 3.996531 1_556
Cs0 Se5 3.996531 1_655
Cs0 Se3 3.996531 1_565
Cs0 Se3 3.996531 1_556
Cs0 Se4 3.996531 1_565
Cs0 Se4 3.996532 1_655
Cs1 Pd0 3.654292 1_555
Cs1 Pd1 3.654292 1_555
Cs1 Pd2 3.654292 1_555
Cs1 Se3 3.835959 1_455
Cs1 Se4 3.835959 1_554
Cs1 Se5 3.835959 1_545
Cs1 Se2 3.996531 1_554
Cs1 Se2 3.996531 1_455
Cs1 Se1 3.996531 1_545
Cs1 Se1 3.996531 1_554
Cs1 Se0 3.996531 1_545
Cs1 Se0 3.996532 1_455
Ge0 Se4 2.541498 1_554
Ge0 Se0 2.541498 1_445
Ge0 Se5 2.541498 1_545
Ge0 Se2 2.541498 1_454
Ge0 Se3 2.541498 1_455
Ge0 Se1 2.541498 1_544
Pd0 Se3 2.466180 1_555
Pd0 Se1 2.466180 1_554
Pd0 Se5 2.466180 1_555
Pd0 Se2 2.466180 1_554
Pd1 Se3 2.466180 1_555
Pd1 Se1 2.466180 1_545
Pd1 Se4 2.466180 1_555
Pd1 Se0 2.466180 1_545
Pd2 Se5 2.466180 1_555
Pd2 Se2 2.466180 1_455
Pd2 Se4 2.466180 1_555
Pd2 Se0 2.466180 1_455
