# generated using pymatgen
data_Sr4H12PtAu
_symmetry_space_group_name_H-M   'P 1'
_cell_length_a   7.37695028
_cell_length_b   7.37695073
_cell_length_c   5.70347639
_cell_angle_alpha   90.03554263
_cell_angle_beta   90.03553341
_cell_angle_gamma   134.48166173
_symmetry_Int_Tables_number   1
_chemical_formula_structural   Sr4H12PtAu
_chemical_formula_sum   'Sr4 H12 Pt1 Au1'
_cell_volume   221.44783340
_cell_formula_units_Z   1
loop_
 _symmetry_equiv_pos_site_id
 _symmetry_equiv_pos_as_xyz
  1  'x, y, z'
loop_
 _atom_site_type_symbol
 _atom_site_label
 _atom_site_symmetry_multiplicity
 _atom_site_fract_x
 _atom_site_fract_y
 _atom_site_fract_z
 _atom_site_occupancy
  Sr  Sr0  1  0.64656517  0.35343483  1.00000000  1
  Sr  Sr1  1  0.35343483  0.64656517  0.00000000  1
  Sr  Sr2  1  0.85339093  0.14660907  0.50000000  1
  Sr  Sr3  1  0.14660907  0.85339093  0.50000000  1
  H  H0  1  0.87811025  0.12188975  1.00000000  1
  H  H1  1  0.12188975  0.87811025  0.00000000  1
  H  H2  1  0.62192095  0.37807905  0.50000000  1
  H  H3  1  0.37807905  0.62192095  0.50000000  1
  H  H4  1  0.00021577  0.49999647  0.24976408  1
  H  H5  1  0.99978423  0.50000353  0.75023592  1
  H  H6  1  0.50000353  0.99978423  0.75023592  1
  H  H7  1  0.49999647  0.00021577  0.24976408  1
  H  H8  1  0.28384638  0.28384638  0.28846586  1
  H  H9  1  0.71615362  0.71615362  0.71153414  1
  H  H10  1  0.28839320  0.28839320  0.71638131  1
  H  H11  1  0.71160680  0.71160680  0.28361869  1
  Pt  Pt0  1  0.50000000  0.50000000  0.50000000  1
  Au  Au0  1  0.00000000  0.00000000  0.00000000  1
loop_
_geom_bond_atom_site_label_1
_geom_bond_atom_site_label_2
_geom_bond_distance
_geom_bond_site_symmetry_2
H0 Sr2 2.871500 1_556
H0 Sr2 2.871501 1_555
H0 Sr1 2.873514 1_546
H0 Sr1 2.873514 1_656
H1 Sr3 2.871500 1_554
H1 Sr3 2.871501 1_555
H1 Sr0 2.873514 1_564
H1 Sr0 2.873514 1_454
H2 Pt0 1.658753 1_555
H2 Sr0 2.871381 1_554
H2 Sr0 2.871381 1_555
H2 Sr3 2.873534 1_655
H2 Sr3 2.873535 1_545
H3 Pt0 1.658753 1_555
H3 Sr1 2.871381 1_556
H3 Sr1 2.871381 1_555
H3 Sr2 2.873534 1_455
H3 Sr2 2.873535 1_565
H4 Sr0 2.458681 1_454
H4 Sr1 2.458921 1_555
H4 Sr3 2.459195 1_555
H4 Sr2 2.460847 1_455
H5 Sr1 2.458681 1_656
H5 Sr0 2.458921 1_555
H5 Sr2 2.459195 1_555
H5 Sr3 2.460847 1_655
H6 Sr0 2.458681 1_565
H6 Sr1 2.458922 1_556
H6 Sr3 2.459195 1_555
H6 Sr2 2.460846 1_565
H7 Sr1 2.458681 1_545
H7 Sr0 2.458922 1_554
H7 Sr2 2.459195 1_555
H7 Sr3 2.460846 1_545
H8 Pt0 1.724216 1_555
H8 Sr2 2.839925 1_455
H8 Sr3 2.839925 1_545
H8 Sr0 2.865603 1_554
H8 Sr1 2.865604 1_555
H9 Pt0 1.724216 1_555
H9 Sr3 2.839925 1_655
H9 Sr2 2.839925 1_565
H9 Sr1 2.865603 1_556
H9 Sr0 2.865604 1_555
H10 Pt0 1.728174 1_555
H10 Sr1 2.836431 1_556
H10 Sr0 2.836431 1_555
H10 Sr2 2.864372 1_455
H10 Sr3 2.864372 1_545
H11 Pt0 1.728174 1_555
H11 Sr0 2.836431 1_554
H11 Sr1 2.836431 1_555
H11 Sr3 2.864372 1_655
H11 Sr2 2.864372 1_565
Au0 H1 1.658328 1_545
Au0 H0 1.658328 1_454
Au0 H8 2.307175 1_555
Au0 H9 2.307175 1_444
Au0 H10 2.309697 1_554
Au0 H11 2.309697 1_445
