# generated using pymatgen
data_TbAlPd
_symmetry_space_group_name_H-M   'P 1'
_cell_length_a   7.14004824
_cell_length_b   7.14004788
_cell_length_c   4.05340965
_cell_angle_alpha   90.00000000
_cell_angle_beta   90.00000000
_cell_angle_gamma   120.00000165
_symmetry_Int_Tables_number   1
_chemical_formula_structural   TbAlPd
_chemical_formula_sum   'Tb3 Al3 Pd3'
_cell_volume   178.95893722
_cell_formula_units_Z   3
loop_
 _symmetry_equiv_pos_site_id
 _symmetry_equiv_pos_as_xyz
  1  'x, y, z'
loop_
 _atom_site_type_symbol
 _atom_site_label
 _atom_site_symmetry_multiplicity
 _atom_site_fract_x
 _atom_site_fract_y
 _atom_site_fract_z
 _atom_site_occupancy
  Tb  Tb0  1  -0.00000000  0.58279195  0.50000000  1
  Tb  Tb1  1  0.41720805  0.41720805  0.50000000  1
  Tb  Tb2  1  0.58279195  0.00000000  0.50000000  1
  Al  Al0  1  0.76559506  0.76559506  -0.00000000  1
  Al  Al1  1  0.23440494  0.00000000  0.00000000  1
  Al  Al2  1  0.00000000  0.23440494  -0.00000000  1
  Pd  Pd0  1  0.33333300  0.66666700  -0.00000000  1
  Pd  Pd1  1  0.66666700  0.33333300  0.00000000  1
  Pd  Pd2  1  -0.00000000  0.00000000  0.50000000  1
loop_
_geom_bond_atom_site_label_1
_geom_bond_atom_site_label_2
_geom_bond_distance
_geom_bond_site_symmetry_2
Al0 Pd2 2.628437 1_664
Al0 Pd2 2.628437 1_665
Al0 Pd1 2.800814 1_555
Al0 Pd0 2.800814 1_555
Al0 Tb1 3.208612 1_554
Al0 Tb1 3.208612 1_555
Al0 Tb2 3.285847 1_565
Al0 Tb2 3.285847 1_564
Al0 Tb0 3.285847 1_655
Al0 Tb0 3.285847 1_654
Al1 Pd2 2.628437 1_555
Al1 Pd2 2.628437 1_554
Al1 Pd0 2.800807 1_545
Al1 Pd1 2.800812 1_555
Al1 Tb2 3.208612 1_555
Al1 Tb2 3.208612 1_554
Al1 Tb0 3.285847 1_545
Al1 Tb0 3.285847 1_544
Al1 Tb1 3.285847 1_555
Al1 Tb1 3.285847 1_554
Al2 Pd2 2.628437 1_554
Al2 Pd2 2.628437 1_555
Al2 Pd1 2.800807 1_455
Al2 Pd0 2.800812 1_555
Al2 Tb0 3.208612 1_555
Al2 Tb0 3.208612 1_554
Al2 Tb2 3.285847 1_455
Al2 Tb2 3.285847 1_454
Al2 Tb1 3.285847 1_554
Al2 Tb1 3.285847 1_555
Pd0 Tb0 2.950478 1_555
Pd0 Tb0 2.950478 1_554
Pd0 Tb2 2.950480 1_565
Pd0 Tb2 2.950480 1_564
Pd0 Tb1 2.950483 1_554
Pd0 Tb1 2.950483 1_555
Pd1 Tb2 2.950478 1_555
Pd1 Tb2 2.950478 1_554
Pd1 Tb0 2.950480 1_655
Pd1 Tb0 2.950480 1_654
Pd1 Tb1 2.950483 1_554
Pd1 Tb1 2.950483 1_555
Pd2 Tb0 2.978885 1_545
Pd2 Tb1 2.978885 1_555
Pd2 Tb2 2.978886 1_455
