# generated using pymatgen
data_LiY6RhBr12
_symmetry_space_group_name_H-M   'P 1'
_cell_length_a   9.13737267
_cell_length_b   9.13737381
_cell_length_c   9.13737362
_cell_angle_alpha   107.70671727
_cell_angle_beta   107.70670405
_cell_angle_gamma   107.70671943
_symmetry_Int_Tables_number   1
_chemical_formula_structural   LiY6RhBr12
_chemical_formula_sum   'Li1 Y6 Rh1 Br12'
_cell_volume   622.69096912
_cell_formula_units_Z   1
loop_
 _symmetry_equiv_pos_site_id
 _symmetry_equiv_pos_as_xyz
  1  'x, y, z'
loop_
 _atom_site_type_symbol
 _atom_site_label
 _atom_site_symmetry_multiplicity
 _atom_site_fract_x
 _atom_site_fract_y
 _atom_site_fract_z
 _atom_site_occupancy
  Li  Li0  1  0.50000000  0.50000000  0.50000000  1
  Y  Y0  1  0.32411979  0.11431103  0.03553200  1
  Y  Y1  1  0.03553200  0.32411979  0.11431103  1
  Y  Y2  1  0.11431103  0.03553200  0.32411979  1
  Y  Y3  1  0.67588021  0.88568897  0.96446800  1
  Y  Y4  1  0.96446800  0.67588021  0.88568897  1
  Y  Y5  1  0.88568897  0.96446800  0.67588021  1
  Rh  Rh0  1  0.00000000  0.00000000  0.00000000  1
  Br  Br0  1  0.68177995  0.22174556  0.07282391  1
  Br  Br1  1  0.07282391  0.68177995  0.22174556  1
  Br  Br2  1  0.22174556  0.07282391  0.68177995  1
  Br  Br3  1  0.31822005  0.77825444  0.92717609  1
  Br  Br4  1  0.92717609  0.31822005  0.77825444  1
  Br  Br5  1  0.77825444  0.92717609  0.31822005  1
  Br  Br6  1  0.46430315  0.16820180  0.38531574  1
  Br  Br7  1  0.38531574  0.46430315  0.16820180  1
  Br  Br8  1  0.16820180  0.38531574  0.46430315  1
  Br  Br9  1  0.53569685  0.83179820  0.61468426  1
  Br  Br10  1  0.61468426  0.53569685  0.83179820  1
  Br  Br11  1  0.83179820  0.61468426  0.53569685  1
loop_
_geom_bond_atom_site_label_1
_geom_bond_atom_site_label_2
_geom_bond_distance
_geom_bond_site_symmetry_2
Rh0 Y0 2.700857 1_555
Rh0 Y3 2.700857 1_444
Rh0 Y1 2.700857 1_555
Rh0 Y4 2.700857 1_444
Rh0 Y2 2.700858 1_555
Rh0 Y5 2.700858 1_444
Br0 Y3 2.903398 1_544
Br0 Y1 2.943908 1_655
Br0 Y0 2.987932 1_555
Br1 Y4 2.903398 1_454
Br1 Y2 2.943909 1_565
Br1 Y1 2.987932 1_555
Br2 Y5 2.903397 1_445
Br2 Y0 2.943909 1_556
Br2 Y2 2.987932 1_555
Br3 Y0 2.903398 1_566
Br3 Y4 2.943908 1_455
Br3 Y3 2.987932 1_555
Br4 Y1 2.903398 1_656
Br4 Y5 2.943909 1_545
Br4 Y4 2.987932 1_555
Br5 Y2 2.903397 1_665
Br5 Y3 2.943909 1_554
Br5 Y5 2.987932 1_555
Br6 Li0 2.766606 1_555
Br6 Y2 2.855027 1_555
Br6 Y0 2.875237 1_555
Br7 Li0 2.766606 1_555
Br7 Y0 2.855027 1_555
Br7 Y1 2.875236 1_555
Br8 Li0 2.766606 1_555
Br8 Y1 2.855027 1_555
Br8 Y2 2.875237 1_555
Br9 Li0 2.766606 1_555
Br9 Y5 2.855027 1_555
Br9 Y3 2.875237 1_555
Br10 Li0 2.766606 1_555
Br10 Y3 2.855027 1_555
Br10 Y4 2.875236 1_555
Br11 Li0 2.766606 1_555
Br11 Y4 2.855027 1_555
Br11 Y5 2.875237 1_555
