# generated using pymatgen
data_Lu4Zn4Si3Ge
_symmetry_space_group_name_H-M   'P 1'
_cell_length_a   4.08889250
_cell_length_b   4.08889316
_cell_length_c   15.31231509
_cell_angle_alpha   90.00000000
_cell_angle_beta   90.00000000
_cell_angle_gamma   120.00000241
_symmetry_Int_Tables_number   1
_chemical_formula_structural   Lu4Zn4Si3Ge
_chemical_formula_sum   'Lu4 Zn4 Si3 Ge1'
_cell_volume   221.70880174
_cell_formula_units_Z   1
loop_
 _symmetry_equiv_pos_site_id
 _symmetry_equiv_pos_as_xyz
  1  'x, y, z'
loop_
 _atom_site_type_symbol
 _atom_site_label
 _atom_site_symmetry_multiplicity
 _atom_site_fract_x
 _atom_site_fract_y
 _atom_site_fract_z
 _atom_site_occupancy
  Lu  Lu0  1  0.00000000  0.00000000  0.99801064  1
  Lu  Lu1  1  0.00000000  0.00000000  0.25246354  1
  Lu  Lu2  1  0.00000000  0.00000000  0.50058471  1
  Lu  Lu3  1  0.00000000  0.00000000  0.74887405  1
  Zn  Zn0  1  0.66666700  0.33333400  0.14831656  1
  Zn  Zn1  1  0.66666700  0.33333400  0.35914788  1
  Zn  Zn2  1  0.33333400  0.66666800  0.64149786  1
  Zn  Zn3  1  0.33333400  0.66666800  0.85580249  1
  Si  Si0  1  0.33333400  0.66666800  0.38431676  1
  Si  Si1  1  0.66666700  0.33333400  0.61652193  1
  Si  Si2  1  0.66666700  0.33333400  0.88214599  1
  Ge  Ge0  1  0.33333400  0.66666800  0.11231759  1
loop_
_geom_bond_atom_site_label_1
_geom_bond_atom_site_label_2
_geom_bond_distance
_geom_bond_site_symmetry_2
Lu0 Si2 2.953072 1_445
Lu0 Si2 2.953074 1_555
Lu0 Si2 2.953075 1_455
Lu0 Zn3 3.211645 1_445
Lu0 Zn3 3.211645 1_545
Lu0 Zn3 3.211651 1_555
Lu1 Zn0 2.848890 1_445
Lu1 Zn0 2.848892 1_555
Lu1 Zn0 2.848893 1_455
Lu1 Zn1 2.870819 1_445
Lu1 Zn1 2.870822 1_555
Lu1 Zn1 2.870822 1_455
Lu1 Si0 3.106328 1_445
Lu1 Si0 3.106328 1_545
Lu1 Si0 3.106334 1_555
Lu2 Si1 2.953740 1_445
Lu2 Si1 2.953742 1_555
Lu2 Si1 2.953742 1_455
Lu2 Si0 2.956786 1_445
Lu2 Si0 2.956786 1_545
Lu2 Si0 2.956792 1_555
Lu2 Zn2 3.198234 1_445
Lu2 Zn2 3.198234 1_545
Lu2 Zn2 3.198239 1_555
Lu2 Zn1 3.203650 1_445
Lu2 Zn1 3.203652 1_555
Lu2 Zn1 3.203652 1_455
Lu3 Zn3 2.872947 1_445
Lu3 Zn3 2.872948 1_545
Lu3 Zn3 2.872953 1_555
Lu3 Zn2 2.876860 1_445
Lu3 Zn2 2.876860 1_545
Lu3 Zn2 2.876866 1_555
Lu3 Si1 3.111299 1_445
Lu3 Si1 3.111301 1_555
Lu3 Si1 3.111302 1_455
Lu3 Si2 3.120492 1_445
Lu3 Si2 3.120494 1_555
Lu3 Si2 3.120494 1_455
Si0 Zn1 2.391973 1_565
Si0 Zn1 2.391976 1_455
Si0 Zn1 2.391976 1_555
Si1 Zn2 2.391498 1_545
Si1 Zn2 2.391501 1_655
Si1 Zn2 2.391502 1_555
Si2 Zn3 2.394936 1_545
Si2 Zn3 2.394939 1_655
Si2 Zn3 2.394940 1_555
Ge0 Zn0 2.424223 1_565
Ge0 Zn0 2.424226 1_455
Ge0 Zn0 2.424226 1_555
Ge0 Lu0 2.938804 1_664
Ge0 Lu0 2.938804 1_564
Ge0 Lu0 2.938810 1_554
Ge0 Lu1 3.190320 1_665
Ge0 Lu1 3.190320 1_565
Ge0 Lu1 3.190326 1_555
