# generated using pymatgen
data_Y2Ga9Os2Pd
_symmetry_space_group_name_H-M   'P 1'
_cell_length_a   7.48938983
_cell_length_b   7.48939055
_cell_length_c   9.56397181
_cell_angle_alpha   90.00000000
_cell_angle_beta   90.00000000
_cell_angle_gamma   119.16120263
_symmetry_Int_Tables_number   1
_chemical_formula_structural   Y2Ga9Os2Pd
_chemical_formula_sum   'Y4 Ga18 Os4 Pd2'
_cell_volume   468.45826410
_cell_formula_units_Z   2
loop_
 _symmetry_equiv_pos_site_id
 _symmetry_equiv_pos_as_xyz
  1  'x, y, z'
loop_
 _atom_site_type_symbol
 _atom_site_label
 _atom_site_symmetry_multiplicity
 _atom_site_fract_x
 _atom_site_fract_y
 _atom_site_fract_z
 _atom_site_occupancy
  Y  Y0  1  0.99911878  0.67245228  0.25000000  1
  Y  Y1  1  0.00088122  0.32754772  0.75000000  1
  Y  Y2  1  0.67245228  0.99911878  0.25000000  1
  Y  Y3  1  0.32754772  0.00088122  0.75000000  1
  Ga  Ga0  1  0.13583172  0.13583172  0.25000000  1
  Ga  Ga1  1  0.86416828  0.86416828  0.75000000  1
  Ga  Ga2  1  0.00604848  0.34073451  0.07812072  1
  Ga  Ga3  1  0.99395152  0.65926549  0.92187928  1
  Ga  Ga4  1  0.99395152  0.65926549  0.57812072  1
  Ga  Ga5  1  0.34073451  0.00604848  0.42187928  1
  Ga  Ga6  1  0.00604848  0.34073451  0.42187928  1
  Ga  Ga7  1  0.65926549  0.99395152  0.57812072  1
  Ga  Ga8  1  0.65926549  0.99395152  0.92187928  1
  Ga  Ga9  1  0.34073451  0.00604848  0.07812072  1
  Ga  Ga10  1  0.34277091  0.34277091  0.56667923  1
  Ga  Ga11  1  0.65722909  0.65722909  0.43332077  1
  Ga  Ga12  1  0.65722909  0.65722909  0.06667923  1
  Ga  Ga13  1  0.34277091  0.34277091  0.93332077  1
  Ga  Ga14  1  0.33515896  0.54848059  0.25000000  1
  Ga  Ga15  1  0.66484104  0.45151941  0.75000000  1
  Ga  Ga16  1  0.54848059  0.33515896  0.25000000  1
  Ga  Ga17  1  0.45151941  0.66484104  0.75000000  1
  Os  Os0  1  0.67439514  0.32560486  0.00000000  1
  Os  Os1  1  0.32560486  0.67439514  0.00000000  1
  Os  Os2  1  0.32560486  0.67439514  0.50000000  1
  Os  Os3  1  0.67439514  0.32560486  0.50000000  1
  Pd  Pd0  1  0.00000000  0.00000000  0.00000000  1
  Pd  Pd1  1  0.00000000  0.00000000  0.50000000  1
loop_
_geom_bond_atom_site_label_1
_geom_bond_atom_site_label_2
_geom_bond_distance
_geom_bond_site_symmetry_2
Ga0 Pd1 2.603477 1_555
Ga0 Pd0 2.603477 1_555
Ga0 Ga16 2.698807 1_555
Ga0 Ga14 2.698808 1_555
Ga0 Ga5 2.730503 1_555
Ga0 Ga9 2.730503 1_555
Ga0 Ga2 2.730503 1_555
Ga0 Ga6 2.730503 1_555
Ga0 Y2 3.103121 1_445
Ga0 Y0 3.103122 1_445
Ga1 Pd1 2.603477 1_665
Ga1 Pd0 2.603477 1_666
Ga1 Ga17 2.698807 1_555
Ga1 Ga15 2.698808 1_555
Ga1 Ga7 2.730503 1_555
Ga1 Ga8 2.730503 1_555
Ga1 Ga4 2.730503 1_555
Ga1 Ga3 2.730503 1_555
Ga1 Y3 3.103121 1_665
Ga1 Y1 3.103122 1_665
Ga2 Os0 2.542920 1_455
Ga2 Os1 2.588875 1_555
Ga2 Pd0 2.638140 1_555
Ga2 Ga3 2.853566 1_454
Ga2 Y0 3.000442 1_455
Ga2 Ga8 3.024908 1_444
Ga2 Y2 3.043162 1_445
Ga2 Y1 3.139336 1_554
Ga3 Os1 2.542920 1_656
Ga3 Os0 2.588875 1_556
Ga3 Pd0 2.638140 1_666
Ga3 Y1 3.000442 1_655
Ga3 Ga9 3.024908 1_666
Ga3 Y3 3.043162 1_665
Ga3 Y0 3.139336 1_556
Ga4 Os2 2.542920 1_655
Ga4 Os3 2.588875 1_555
Ga4 Pd1 2.638140 1_665
Ga4 Ga6 2.853566 1_655
Ga4 Y1 3.000442 1_655
Ga4 Ga5 3.024908 1_665
Ga4 Y3 3.043162 1_665
Ga4 Y0 3.139336 1_555
Ga5 Os2 2.542920 1_545
Ga5 Os3 2.588875 1_555
Ga5 Pd1 2.638140 1_555
Ga5 Ga7 2.853566 1_545
Ga5 Y2 3.000441 1_545
Ga5 Y0 3.043162 1_445
Ga5 Y3 3.139336 1_555
Ga6 Os3 2.542920 1_455
Ga6 Os2 2.588875 1_555
Ga6 Pd1 2.638140 1_555
Ga6 Y0 3.000442 1_455
Ga6 Ga7 3.024908 1_445
Ga6 Y2 3.043162 1_445
Ga6 Y1 3.139336 1_555
Ga7 Os3 2.542920 1_565
Ga7 Os2 2.588875 1_555
Ga7 Pd1 2.638140 1_665
Ga7 Y3 3.000441 1_565
Ga7 Y1 3.043162 1_665
Ga7 Y2 3.139336 1_555
Ga8 Os0 2.542920 1_566
Ga8 Os1 2.588875 1_556
Ga8 Pd0 2.638140 1_666
Ga8 Ga9 2.853566 1_566
Ga8 Y3 3.000441 1_565
Ga8 Y1 3.043162 1_665
Ga8 Y2 3.139336 1_556
Ga9 Os1 2.542920 1_545
Ga9 Os0 2.588875 1_555
Ga9 Pd0 2.638140 1_555
Ga9 Y2 3.000441 1_545
Ga9 Y0 3.043162 1_445
Ga9 Y3 3.139336 1_554
Ga10 Os3 2.627351 1_555
Ga10 Os2 2.627351 1_555
Ga10 Pd1 2.676701 1_555
Ga10 Ga11 2.704527 1_555
Ga10 Ga15 2.764244 1_555
Ga10 Ga17 2.764244 1_555
Ga10 Ga6 2.870592 1_555
Ga10 Ga5 2.870592 1_555
Ga10 Y1 3.059226 1_555
Ga10 Y3 3.059226 1_555
Ga11 Os2 2.627351 1_555
Ga11 Os3 2.627351 1_555
Ga11 Pd1 2.676701 1_665
Ga11 Ga14 2.764244 1_555
Ga11 Ga16 2.764244 1_555
Ga11 Ga4 2.870592 1_555
Ga11 Ga7 2.870592 1_555
Ga11 Y0 3.059226 1_555
Ga11 Y2 3.059226 1_555
Ga12 Os1 2.627351 1_555
Ga12 Os0 2.627351 1_555
Ga12 Pd0 2.676701 1_665
Ga12 Ga13 2.704527 1_554
Ga12 Ga14 2.764244 1_555
Ga12 Ga16 2.764244 1_555
Ga12 Ga3 2.870592 1_554
Ga12 Ga8 2.870592 1_554
Ga12 Y0 3.059226 1_555
Ga12 Y2 3.059226 1_555
Ga13 Os0 2.627351 1_556
Ga13 Os1 2.627351 1_556
Ga13 Pd0 2.676701 1_556
Ga13 Ga15 2.764244 1_555
Ga13 Ga17 2.764244 1_555
Ga13 Ga2 2.870592 1_556
Ga13 Ga9 2.870592 1_556
Ga13 Y1 3.059226 1_555
Ga13 Y3 3.059226 1_555
Ga14 Os1 2.583993 1_555
Ga14 Os2 2.583993 1_555
Ga14 Ga2 2.731499 1_555
Ga14 Ga6 2.731499 1_555
Ga14 Ga16 2.755441 1_555
Ga14 Y2 3.076259 1_555
Ga14 Y0 3.077863 1_455
Ga15 Os3 2.583993 1_555
Ga15 Os0 2.583993 1_556
Ga15 Ga4 2.731499 1_555
Ga15 Ga3 2.731499 1_555
Ga15 Ga17 2.755441 1_555
Ga15 Y3 3.076259 1_555
Ga15 Y1 3.077863 1_655
Ga16 Os3 2.583993 1_555
Ga16 Os0 2.583993 1_555
Ga16 Ga9 2.731500 1_555
Ga16 Ga5 2.731500 1_555
Ga16 Y0 3.076258 1_555
Ga16 Y2 3.077863 1_545
Ga17 Os2 2.583993 1_555
Ga17 Os1 2.583993 1_556
Ga17 Ga7 2.731500 1_555
Ga17 Ga8 2.731500 1_555
Ga17 Y1 3.076258 1_555
Ga17 Y3 3.077863 1_565
