# generated using pymatgen
data_AlZn3P7N12
_symmetry_space_group_name_H-M   'P 1'
_cell_length_a   7.06186539
_cell_length_b   7.04854181
_cell_length_c   7.06186558
_cell_angle_alpha   109.43301251
_cell_angle_beta   109.50940715
_cell_angle_gamma   109.43300388
_symmetry_Int_Tables_number   1
_chemical_formula_structural   AlZn3P7N12
_chemical_formula_sum   'Al1 Zn3 P7 N12'
_cell_volume   270.72032202
_cell_formula_units_Z   1
loop_
 _symmetry_equiv_pos_site_id
 _symmetry_equiv_pos_as_xyz
  1  'x, y, z'
loop_
 _atom_site_type_symbol
 _atom_site_label
 _atom_site_symmetry_multiplicity
 _atom_site_fract_x
 _atom_site_fract_y
 _atom_site_fract_z
 _atom_site_occupancy
  Al  Al0  1  0.00000000  0.34803794  0.00000000  1
  Zn  Zn0  1  0.68159629  0.68157926  0.68159629  1
  Zn  Zn1  1  0.31840371  0.99998297  1.00000000  1
  Zn  Zn2  1  0.00000000  0.99998297  0.31840371  1
  P  P0  1  0.75129500  0.24807156  0.49922548  1
  P  P1  1  0.25207052  0.74884708  0.50077452  1
  P  P2  1  0.50077452  0.74884708  0.25207052  1
  P  P3  1  0.49922548  0.24807156  0.75129500  1
  P  P4  1  0.74792948  0.49677656  0.24870500  1
  P  P5  1  0.24870500  0.49677656  0.74792948  1
  P  P6  1  1.00000000  0.01678575  1.00000000  1
  N  N0  1  0.55538448  0.26506185  0.00000000  1
  N  N1  1  0.45056705  0.44892201  0.72366849  1
  N  N2  1  0.00000000  0.26506185  0.55538448  1
  N  N3  1  0.27310245  0.99835497  0.54943295  1
  N  N4  1  0.72366849  0.44892201  0.45056705  1
  N  N5  1  0.00000000  0.54809593  0.26290817  1
  N  N6  1  0.54943295  0.99835497  0.27310245  1
  N  N7  1  0.44461552  0.70967737  0.44461552  1
  N  N8  1  0.26290817  0.54809593  0.00000000  1
  N  N9  1  0.73709183  0.28518676  0.73709183  1
  N  N10  1  0.72689755  0.72525252  0.27633151  1
  N  N11  1  0.27633151  0.72525252  0.72689755  1
loop_
_geom_bond_atom_site_label_1
_geom_bond_atom_site_label_2
_geom_bond_distance
_geom_bond_site_symmetry_2
Al0 N9 1.921819 1_454
Al0 N5 1.921822 1_555
Al0 N8 1.921822 1_555
Al0 P6 2.334845 1_454
P6 Zn0 2.290652 1_545
P6 Zn1 2.290652 1_645
P6 Zn2 2.290653 1_646
N0 P4 1.618485 1_555
N0 P3 1.618486 1_554
N0 Zn1 2.052084 1_544
N1 P5 1.618601 1_555
N1 P3 1.619585 1_555
N1 Zn0 2.075329 1_555
N2 P5 1.618485 1_555
N2 P0 1.618486 1_455
N2 Zn2 2.052084 1_545
N3 P3 1.618601 1_565
N3 P1 1.619578 1_555
N3 Zn2 2.075333 1_555
N4 P4 1.618601 1_555
N4 P0 1.619585 1_555
N4 Zn0 2.075328 1_555
N5 P1 1.654616 1_555
N5 P4 1.654619 1_455
N6 P0 1.618601 1_565
N6 P2 1.619578 1_555
N6 Zn1 2.075333 1_554
N7 P1 1.618481 1_555
N7 P2 1.618482 1_555
N7 Zn0 2.052084 1_555
N8 P2 1.654616 1_555
N8 P5 1.654619 1_554
N9 P3 1.654613 1_555
N9 P0 1.654613 1_555
N10 P2 1.618604 1_555
N10 P4 1.619578 1_555
N10 Zn2 2.075337 1_655
N11 P1 1.618604 1_555
N11 P5 1.619578 1_555
N11 Zn1 2.075336 1_555
