# generated using pymatgen
data_Sc22OsRu3Pt4
_symmetry_space_group_name_H-M   'P 1'
_cell_length_a   9.47342899
_cell_length_b   9.47342756
_cell_length_c   9.55175189
_cell_angle_alpha   59.72611429
_cell_angle_beta   59.72611936
_cell_angle_gamma   60.54774987
_symmetry_Int_Tables_number   1
_chemical_formula_structural   Sc22OsRu3Pt4
_chemical_formula_sum   'Sc22 Os1 Ru3 Pt4'
_cell_volume   606.06952783
_cell_formula_units_Z   1
loop_
 _symmetry_equiv_pos_site_id
 _symmetry_equiv_pos_as_xyz
  1  'x, y, z'
loop_
 _atom_site_type_symbol
 _atom_site_label
 _atom_site_symmetry_multiplicity
 _atom_site_fract_x
 _atom_site_fract_y
 _atom_site_fract_z
 _atom_site_occupancy
  Sc  Sc0  1  0.80480586  0.80480586  0.19519414  1
  Sc  Sc1  1  0.19535097  0.80464903  0.19535097  1
  Sc  Sc2  1  0.80464903  0.19535097  0.19535097  1
  Sc  Sc3  1  0.19519414  0.19519414  0.80480586  1
  Sc  Sc4  1  0.80464903  0.19535097  0.80464903  1
  Sc  Sc5  1  0.19535097  0.80464903  0.80464903  1
  Sc  Sc6  1  0.61550963  0.61550963  0.15127563  1
  Sc  Sc7  1  0.61770611  0.15127563  0.61550963  1
  Sc  Sc8  1  0.15127563  0.61770611  0.61550963  1
  Sc  Sc9  1  0.61550963  0.61550963  0.61770611  1
  Sc  Sc10  1  0.38449037  0.38449037  0.84872437  1
  Sc  Sc11  1  0.38229389  0.84872437  0.38449037  1
  Sc  Sc12  1  0.84872437  0.38229389  0.38449037  1
  Sc  Sc13  1  0.38449037  0.38449037  0.38229389  1
  Sc  Sc14  1  0.84554652  0.84554652  0.47138390  1
  Sc  Sc15  1  0.83752105  0.47138390  0.84554652  1
  Sc  Sc16  1  0.47138390  0.83752105  0.84554652  1
  Sc  Sc17  1  0.84554652  0.84554652  0.83752105  1
  Sc  Sc18  1  0.15445348  0.15445348  0.52861610  1
  Sc  Sc19  1  0.16247895  0.52861610  0.15445348  1
  Sc  Sc20  1  0.52861610  0.16247895  0.15445348  1
  Sc  Sc21  1  0.15445348  0.15445348  0.16247895  1
  Os  Os0  1  0.50000000  0.50000000  0.50000000  1
  Ru  Ru0  1  0.00000000  0.00000000  0.00000000  1
  Ru  Ru1  1  0.00000000  0.00000000  0.50000000  1
  Ru  Ru2  1  0.50000000  0.50000000  0.00000000  1
  Pt  Pt0  1  0.50000000  0.00000000  0.50000000  1
  Pt  Pt1  1  0.00000000  0.50000000  0.50000000  1
  Pt  Pt2  1  0.00000000  0.50000000  0.00000000  1
  Pt  Pt3  1  0.50000000  0.00000000  0.00000000  1
loop_
_geom_bond_atom_site_label_1
_geom_bond_atom_site_label_2
_geom_bond_distance
_geom_bond_site_symmetry_2
Os0 Sc10 2.705058 1_555
Os0 Sc6 2.705058 1_555
Os0 Sc11 2.705059 1_555
Os0 Sc7 2.705059 1_555
Os0 Sc12 2.705059 1_555
Os0 Sc8 2.705059 1_555
Os0 Sc9 2.705067 1_555
Os0 Sc13 2.705067 1_555
Ru0 Sc3 2.593302 1_554
Ru0 Sc0 2.593302 1_445
Ru0 Sc1 2.638843 1_545
Ru0 Sc2 2.638843 1_455
Ru0 Sc4 2.638843 1_454
Ru0 Sc5 2.638843 1_544
Ru1 Sc17 2.696014 1_445
Ru1 Sc21 2.696014 1_555
Ru1 Sc18 2.696027 1_555
Ru1 Sc14 2.696027 1_445
Ru1 Sc12 2.974679 1_455
Ru1 Sc8 2.974679 1_545
Ru1 Sc11 2.974680 1_545
Ru1 Sc7 2.974680 1_455
Ru2 Sc16 2.696010 1_554
Ru2 Sc20 2.696010 1_555
Ru2 Sc15 2.696010 1_554
Ru2 Sc19 2.696010 1_555
Ru2 Sc13 2.974678 1_555
Ru2 Sc9 2.974678 1_554
Ru2 Sc6 2.974687 1_555
Ru2 Sc10 2.974687 1_554
Pt0 Sc16 2.778912 1_545
Pt0 Sc20 2.778912 1_555
Pt0 Sc14 2.778913 1_545
Pt0 Sc18 2.778913 1_555
Pt0 Sc13 2.986742 1_555
Pt0 Sc9 2.986742 1_545
Pt0 Sc7 2.986750 1_555
Pt0 Sc11 2.986750 1_545
Pt1 Sc15 2.778912 1_455
Pt1 Sc19 2.778912 1_555
Pt1 Sc14 2.778912 1_455
Pt1 Sc18 2.778912 1_555
Pt1 Sc13 2.986742 1_555
Pt1 Sc9 2.986742 1_455
Pt1 Sc8 2.986750 1_555
Pt1 Sc12 2.986750 1_455
Pt2 Sc17 2.778916 1_454
Pt2 Sc21 2.778916 1_555
Pt2 Sc19 2.778929 1_555
Pt2 Sc15 2.778929 1_454
Pt2 Sc12 2.986742 1_455
Pt2 Sc8 2.986742 1_554
Pt2 Sc6 2.986743 1_455
Pt2 Sc10 2.986743 1_554
Pt3 Sc21 2.778917 1_555
Pt3 Sc17 2.778917 1_544
Pt3 Sc20 2.778929 1_555
Pt3 Sc16 2.778929 1_544
Pt3 Sc11 2.986742 1_545
Pt3 Sc7 2.986742 1_554
Pt3 Sc10 2.986742 1_554
Pt3 Sc6 2.986742 1_545
