# generated using pymatgen
data_Al11Zn(Co2Si)4
_symmetry_space_group_name_H-M   'P 1'
_cell_length_a   7.49591026
_cell_length_b   7.49591035
_cell_length_c   7.49591026
_cell_angle_alpha   120.15918510
_cell_angle_beta   90.02075004
_cell_angle_gamma   119.81715005
_symmetry_Int_Tables_number   1
_chemical_formula_structural   Al11Zn(Co2Si)4
_chemical_formula_sum   'Al11 Zn1 Co8 Si4'
_cell_volume   297.87286766
_cell_formula_units_Z   1
loop_
 _symmetry_equiv_pos_site_id
 _symmetry_equiv_pos_as_xyz
  1  'x, y, z'
loop_
 _atom_site_type_symbol
 _atom_site_label
 _atom_site_symmetry_multiplicity
 _atom_site_fract_x
 _atom_site_fract_y
 _atom_site_fract_z
 _atom_site_occupancy
  Al  Al0  1  0.55047658  0.50000100  0.05047558  1
  Al  Al1  1  0.55146761  0.09992971  0.04827540  1
  Al  Al2  1  0.94834669  0.49681079  0.04827640  1
  Al  Al3  1  0.19932764  0.00000000  0.19932764  1
  Al  Al4  1  0.79953344  0.99811172  0.19752804  1
  Al  Al5  1  0.19941531  0.39799459  0.19752804  1
  Al  Al6  1  0.95101556  0.50000100  0.45101456  1
  Al  Al7  1  0.94834669  0.90006929  0.45153590  1
  Al  Al8  1  0.55146761  0.50319121  0.45153690  1
  Al  Al9  1  0.19941531  0.00188828  0.80142172  1
  Al  Al10  1  0.79953344  0.60200541  0.80142172  1
  Zn  Zn0  1  0.80934005  0.00000000  0.80934005  1
  Co  Co0  1  0.59176413  0.18348503  0.40827910  1
  Co  Co1  1  0.22479507  0.81651497  0.40827910  1
  Co  Co2  1  0.58953006  0.81631541  0.40584448  1
  Co  Co3  1  0.15729943  0.31724490  0.47454534  1
  Co  Co4  1  0.58953006  0.18368459  0.77321365  1
  Co  Co5  1  0.16390356  0.32343461  0.84046796  1
  Co  Co6  1  0.15729943  0.68275410  0.84005353  1
  Co  Co7  1  0.51703335  0.67656439  0.84046796  1
  Si  Si0  1  0.37467446  0.75051339  0.12518784  1
  Si  Si1  1  0.37467446  0.24948561  0.62416007  1
  Si  Si2  1  0.87345097  0.24754195  0.62590801  1
  Si  Si3  1  0.37836606  0.75245705  0.62590801  1
loop_
_geom_bond_atom_site_label_1
_geom_bond_atom_site_label_2
_geom_bond_distance
_geom_bond_site_symmetry_2
Al0 Co2 2.401306 1_555
Al0 Co4 2.401313 1_554
Al0 Co7 2.591475 1_554
Al0 Co5 2.591483 1_554
Al0 Si0 2.642188 1_555
Al0 Si1 2.642193 1_554
Al0 Al2 2.994346 1_555
Al0 Al7 2.994346 1_555
Al0 Al8 2.994354 1_555
Al0 Al1 2.994358 1_555
Al1 Co4 2.418618 1_554
Al1 Co0 2.424602 1_555
Al1 Co7 2.604260 1_544
Al1 Si3 2.615639 1_544
Al1 Co6 2.617035 1_544
Al1 Si0 2.648550 1_545
Al1 Al4 2.749483 1_545
Al1 Zn0 2.756762 1_554
Al1 Al9 2.762156 1_554
Al1 Al3 2.774666 1_555
Al1 Al2 2.983192 1_555
Al1 Al6 3.006930 1_555
Al1 Al8 3.015536 1_555
Al2 Co4 2.418621 1_554
Al2 Co1 2.424598 1_655
Al2 Co5 2.604268 1_654
Al2 Si2 2.615644 1_554
Al2 Co6 2.617027 1_654
Al2 Si0 2.648545 1_655
Al2 Al5 2.749485 1_655
Al2 Zn0 2.756778 1_554
Al2 Al3 2.774650 1_665
Al2 Al6 3.006926 1_555
Al2 Al7 3.015517 1_555
Al3 Co3 2.413777 1_555
Al3 Co6 2.413782 1_544
Al3 Co0 2.608995 1_555
Al3 Co1 2.608997 1_545
Al3 Si1 2.633344 1_555
Al3 Si0 2.633349 1_545
Al3 Al7 2.774652 1_445
Al3 Al8 2.774662 1_555
Al4 Co3 2.418933 1_665
Al4 Co7 2.428021 1_554
Al4 Co2 2.603849 1_555
Al4 Co0 2.607730 1_565
Al4 Si0 2.643955 1_555
Al4 Si2 2.655137 1_565
Al4 Al7 2.762148 1_555
Al4 Zn0 2.917735 1_564
Al5 Co3 2.418937 1_555
Al5 Co5 2.428021 1_554
Al5 Co2 2.603859 1_555
Al5 Co1 2.607722 1_555
Al5 Si0 2.643955 1_555
Al5 Si3 2.655137 1_555
Al5 Al8 2.762156 1_555
Al5 Zn0 2.917731 1_454
Al6 Co1 2.421851 1_655
Al6 Co0 2.421863 1_555
Al6 Co6 2.578359 1_655
Al6 Co3 2.578366 1_655
Al6 Si3 2.652753 1_655
Al6 Si2 2.652764 1_555
Al6 Al7 3.006919 1_555
Al6 Al8 3.006926 1_555
Al7 Co2 2.418621 1_555
Al7 Co1 2.424598 1_655
Al7 Co5 2.604264 1_665
Al7 Si2 2.615644 1_565
Al7 Co3 2.617027 1_665
Al7 Si1 2.648545 1_665
Al7 Al9 2.749483 1_665
Al7 Zn0 2.756778 1_565
Al7 Al8 2.983188 1_555
Al8 Co2 2.418618 1_555
Al8 Co0 2.424598 1_555
Al8 Co7 2.604260 1_555
Al8 Si3 2.615639 1_555
Al8 Co3 2.617037 1_555
Al8 Si1 2.648550 1_555
Al8 Zn0 2.756768 1_565
Al9 Co6 2.418935 1_545
Al9 Co5 2.428012 1_555
Al9 Co4 2.603864 1_555
Al9 Co1 2.607735 1_545
Al9 Si1 2.643957 1_555
Al9 Si3 2.655150 1_545
Al9 Zn0 2.917727 1_455
Al10 Co6 2.418933 1_655
Al10 Co7 2.428016 1_555
Al10 Co4 2.603851 1_555
Al10 Co0 2.607730 1_555
Al10 Si1 2.643956 1_555
Al10 Si2 2.655144 1_555
Al10 Al8 2.749485 1_555
Al10 Al2 2.762142 1_556
Al10 Zn0 2.917735 1_565
Co0 Si1 2.347244 1_555
Co0 Si0 2.347250 1_545
Co0 Si2 2.356351 1_555
Co1 Si0 2.347245 1_555
Co1 Si1 2.347246 1_565
Co1 Si3 2.356346 1_555
Co2 Si0 2.329782 1_555
Co2 Si2 2.344672 1_565
Co2 Si3 2.344677 1_555
Co2 Zn0 2.704521 1_565
Co3 Si1 2.358991 1_555
Co3 Si2 2.362054 1_455
Co3 Si3 2.362060 1_555
Co4 Si1 2.329782 1_555
Co4 Si2 2.344672 1_555
Co4 Si3 2.344678 1_545
Co4 Zn0 2.704517 1_555
Co5 Si1 2.324244 1_555
Co5 Si0 2.324244 1_556
Co5 Si2 2.344557 1_455
Co5 Zn0 2.453423 1_455
Co6 Si0 2.358996 1_556
Co6 Si3 2.362058 1_555
Co6 Si2 2.362058 1_455
Co7 Si0 2.324244 1_556
Co7 Si1 2.324244 1_555
Co7 Si3 2.344557 1_555
Co7 Zn0 2.453423 1_565
Si2 Zn0 2.691086 1_555
Si3 Zn0 2.691086 1_565
