# generated using pymatgen
data_Ho12InPt7
_symmetry_space_group_name_H-M   'P 1'
_cell_length_a   10.84494847
_cell_length_b   10.84493020
_cell_length_c   10.84494008
_cell_angle_alpha   115.91988459
_cell_angle_beta   115.91991937
_cell_angle_gamma   97.22541572
_symmetry_Int_Tables_number   1
_chemical_formula_structural   Ho12InPt7
_chemical_formula_sum   'Ho24 In2 Pt14'
_cell_volume   949.35514902
_cell_formula_units_Z   2
loop_
 _symmetry_equiv_pos_site_id
 _symmetry_equiv_pos_as_xyz
  1  'x, y, z'
loop_
 _atom_site_type_symbol
 _atom_site_label
 _atom_site_symmetry_multiplicity
 _atom_site_fract_x
 _atom_site_fract_y
 _atom_site_fract_z
 _atom_site_occupancy
  Ho  Ho0  1  0.85277926  0.57189723  0.13389060  1
  Ho  Ho1  1  0.56199826  0.28111273  0.13389758  1
  Ho  Ho2  1  0.14721915  0.42810137  0.86610822  1
  Ho  Ho3  1  0.93800543  0.07189946  0.71911835  1
  Ho  Ho4  1  0.28111236  0.14721859  0.71911667  1
  Ho  Ho5  1  0.42810180  0.56199618  0.28088524  1
  Ho  Ho6  1  0.64721444  0.78110918  0.71911240  1
  Ho  Ho7  1  0.78111078  0.06199585  0.13389298  1
  Ho  Ho8  1  0.92810027  0.64721565  0.86610449  1
  Ho  Ho9  1  0.43800179  0.71888898  0.86610182  1
  Ho  Ho10  1  0.67682122  0.17682089  0.85364379  1
  Ho  Ho11  1  0.06199412  0.92810026  0.28088197  1
  Ho  Ho12  1  0.71888827  0.85278166  0.28088314  1
  Ho  Ho13  1  0.57189805  0.43800314  0.71911243  1
  Ho  Ho14  1  0.63391491  0.13391358  0.49999921  1
  Ho  Ho15  1  0.13391565  0.63391473  0.50000023  1
  Ho  Ho16  1  0.86608447  0.36608587  0.50000006  1
  Ho  Ho17  1  0.36608436  0.86608505  0.50000091  1
  Ho  Ho18  1  0.17682435  0.32318002  0.49999959  1
  Ho  Ho19  1  0.21888943  0.93800443  0.86610737  1
  Ho  Ho20  1  0.82317660  0.67682052  0.50000026  1
  Ho  Ho21  1  0.32317915  0.82317869  0.14635594  1
  Ho  Ho22  1  0.35278474  0.21889009  0.28088720  1
  Ho  Ho23  1  0.07190029  0.35278440  0.13389618  1
  In  In0  1  0.50000003  0.49999968  -0.00000034  1
  In  In1  1  0.00000023  0.00000015  0.00000043  1
  Pt  Pt0  1  0.02007229  0.86325581  0.49999899  1
  Pt  Pt1  1  0.97992964  0.13674584  0.50000374  1
  Pt  Pt2  1  0.63673947  0.47992640  0.50000280  1
  Pt  Pt3  1  0.52007685  0.02007567  0.15681758  1
  Pt  Pt4  1  0.13673669  0.63674164  0.15681084  1
  Pt  Pt5  1  0.47992435  0.97992621  0.84318452  1
  Pt  Pt6  1  0.12744799  0.62744883  0.75489588  1
  Pt  Pt7  1  0.62744566  0.87255149  0.49999892  1
  Pt  Pt8  1  0.37255333  0.12744694  0.49999963  1
  Pt  Pt9  1  0.87255232  0.37255219  0.24510525  1
  Pt  Pt10  1  0.25001102  0.25000573  0.00001661  1
  Pt  Pt11  1  0.74998846  0.74999382  -0.00001650  1
  Pt  Pt12  1  0.36326015  0.52007560  0.49999729  1
  Pt  Pt13  1  0.86326234  0.36325745  0.84318774  1
loop_
_geom_bond_atom_site_label_1
_geom_bond_atom_site_label_2
_geom_bond_distance
_geom_bond_site_symmetry_2
Ho0 Pt9 2.888681 1_555
Ho0 Pt11 2.942879 1_555
Ho0 Pt4 2.944979 1_655
Ho0 Pt13 3.035404 1_554
Ho0 Pt0 3.214460 1_655
Ho0 In0 3.279769 1_555
Ho1 Pt9 2.888644 1_555
Ho1 Pt10 2.942758 1_555
Ho1 Pt3 2.944970 1_555
Ho1 Pt5 3.035418 1_544
Ho1 Pt2 3.214467 1_555
Ho1 In0 3.279809 1_555
Ho2 Pt6 2.888688 1_555
Ho2 Pt10 2.942881 1_556
Ho2 Pt13 2.944971 1_455
Ho2 Pt4 3.035399 1_556
Ho2 Pt1 3.214427 1_455
Ho2 In0 3.279784 1_556
Ho3 Pt7 2.888688 1_545
Ho3 Pt10 2.942925 1_656
Ho3 Pt1 2.945007 1_555
Ho3 Pt0 3.035431 1_645
Ho3 Pt13 3.214421 1_555
Ho3 In1 3.279781 1_656
Ho4 Pt8 2.888672 1_555
Ho4 Pt10 2.942908 1_556
Ho4 Pt0 2.945017 1_545
Ho4 Pt1 3.035396 1_455
Ho4 Pt5 3.214448 1_545
Ho4 In0 3.279775 1_556
Ho5 Pt7 2.888641 1_555
Ho5 Pt10 2.942732 1_555
Ho5 Pt12 2.944932 1_555
Ho5 Pt2 3.035413 1_555
Ho5 Pt4 3.214508 1_555
Ho5 In0 3.279808 1_555
Ho6 Pt7 2.888652 1_555
Ho6 Pt11 2.942721 1_556
Ho6 Pt12 2.944934 1_555
Ho6 Pt2 3.035373 1_555
Ho6 Pt5 3.214476 1_555
Ho6 In1 3.279824 1_666
Ho7 Pt9 2.888650 1_555
Ho7 Pt11 2.942842 1_545
Ho7 Pt3 2.944969 1_555
Ho7 Pt5 3.035412 1_544
Ho7 Pt1 3.214487 1_555
Ho7 In1 3.279797 1_655
Ho8 Pt6 2.888667 1_655
Ho8 Pt11 2.942813 1_556
Ho8 Pt13 2.944996 1_555
Ho8 Pt4 3.035363 1_656
Ho8 Pt2 3.214433 1_555
Ho8 In1 3.279805 1_666
Ho9 Pt6 2.888646 1_555
Ho9 Pt11 2.942758 1_556
Ho9 Pt5 2.944956 1_555
Ho9 Pt3 3.035428 1_566
Ho9 Pt12 3.214459 1_555
Ho9 In0 3.279832 1_556
Ho10 Pt5 2.749841 1_545
Ho10 Pt13 2.749851 1_555
Ho10 Pt9 3.185121 1_556
Ho10 Pt8 3.546943 1_555
Ho10 Pt7 3.546946 1_545
Ho11 Pt8 2.888680 1_565
Ho11 Pt11 2.942926 1_455
Ho11 Pt0 2.945009 1_555
Ho11 Pt1 3.035437 1_465
Ho11 Pt4 3.214426 1_555
Ho11 In1 3.279782 1_565
Ho12 Pt7 2.888677 1_555
Ho12 Pt11 2.942897 1_555
Ho12 Pt1 2.945030 1_565
Ho12 Pt0 3.035409 1_655
Ho12 Pt3 3.214450 1_565
Ho12 In0 3.279783 1_555
Ho13 Pt8 2.888650 1_555
Ho13 Pt11 2.942740 1_556
Ho13 Pt2 2.944919 1_555
Ho13 Pt12 3.035420 1_555
Ho13 Pt13 3.214503 1_555
Ho13 In0 3.279823 1_556
Ho14 Pt7 2.826485 1_545
Ho14 Pt8 2.826491 1_555
Ho14 Pt3 2.912525 1_555
Ho14 Pt13 2.912570 1_555
Ho15 Pt9 2.826495 1_455
Ho15 Pt6 2.826496 1_555
Ho15 Pt0 2.912534 1_555
Ho15 Pt12 2.912549 1_555
Ho16 Pt9 2.826490 1_555
Ho16 Pt6 2.826499 1_655
Ho16 Pt1 2.912539 1_555
Ho16 Pt2 2.912562 1_555
Ho17 Pt8 2.826491 1_565
Ho17 Pt7 2.826496 1_555
Ho17 Pt5 2.912533 1_555
Ho17 Pt4 2.912578 1_555
Ho18 Pt1 2.749847 1_455
Ho18 Pt12 2.749851 1_555
Ho18 Pt8 3.185131 1_555
Ho18 Pt9 3.546947 1_455
Ho18 Pt6 3.546961 1_555
Ho19 Pt6 2.888645 1_555
Ho19 Pt10 2.942837 1_566
Ho19 Pt5 2.944970 1_555
Ho19 Pt3 3.035421 1_566
Ho19 Pt0 3.214469 1_555
Ho19 In1 3.279798 1_566
Ho20 Pt0 2.749842 1_655
Ho20 Pt2 2.749851 1_555
Ho20 Pt7 3.185130 1_555
Ho20 Pt6 3.546945 1_655
Ho20 Pt9 3.546948 1_555
Ho21 Pt3 2.749847 1_565
Ho21 Pt4 2.749856 1_555
Ho21 Pt6 3.185110 1_554
Ho21 Pt7 3.546934 1_555
Ho21 Pt8 3.546939 1_565
Ho22 Pt8 2.888648 1_555
Ho22 Pt10 2.942718 1_555
Ho22 Pt2 2.944950 1_555
Ho22 Pt12 3.035394 1_555
Ho22 Pt3 3.214469 1_555
Ho22 In1 3.279811 1_555
Ho23 Pt9 2.888673 1_455
Ho23 Pt10 2.942808 1_555
Ho23 Pt4 2.944995 1_555
Ho23 Pt13 3.035378 1_454
Ho23 Pt12 3.214424 1_555
Ho23 In1 3.279803 1_555
Pt0 Pt1 3.051435 1_465
Pt3 Pt5 3.051394 1_544
Pt12 Pt2 3.051340 1_555
Pt13 Pt4 3.051338 1_656
