# generated using pymatgen
data_Sc22Tc7Ir
_symmetry_space_group_name_H-M   'P 1'
_cell_length_a   9.50453248
_cell_length_b   9.50453281
_cell_length_c   9.50453277
_cell_angle_alpha   60.00000012
_cell_angle_beta   59.99999898
_cell_angle_gamma   60.00000046
_symmetry_Int_Tables_number   1
_chemical_formula_structural   Sc22Tc7Ir
_chemical_formula_sum   'Sc22 Tc7 Ir1'
_cell_volume   607.12386784
_cell_formula_units_Z   1
loop_
 _symmetry_equiv_pos_site_id
 _symmetry_equiv_pos_as_xyz
  1  'x, y, z'
loop_
 _atom_site_type_symbol
 _atom_site_label
 _atom_site_symmetry_multiplicity
 _atom_site_fract_x
 _atom_site_fract_y
 _atom_site_fract_z
 _atom_site_occupancy
  Sc  Sc0  1  0.80186695  0.80186695  0.19813305  1
  Sc  Sc1  1  0.19813305  0.80186695  0.19813305  1
  Sc  Sc2  1  0.80186695  0.19813305  0.19813305  1
  Sc  Sc3  1  0.19813305  0.19813305  0.80186695  1
  Sc  Sc4  1  0.80186695  0.19813305  0.80186695  1
  Sc  Sc5  1  0.19813305  0.80186695  0.80186695  1
  Sc  Sc6  1  0.61703936  0.61703936  0.14887993  1
  Sc  Sc7  1  0.61703936  0.14887993  0.61703936  1
  Sc  Sc8  1  0.14887993  0.61703936  0.61703936  1
  Sc  Sc9  1  0.61703936  0.61703936  0.61703936  1
  Sc  Sc10  1  0.38296064  0.38296064  0.85112007  1
  Sc  Sc11  1  0.38296064  0.85112007  0.38296064  1
  Sc  Sc12  1  0.85112007  0.38296064  0.38296064  1
  Sc  Sc13  1  0.38296064  0.38296064  0.38296064  1
  Sc  Sc14  1  0.84383450  0.84383450  0.46849449  1
  Sc  Sc15  1  0.84383450  0.46849449  0.84383450  1
  Sc  Sc16  1  0.46849449  0.84383450  0.84383450  1
  Sc  Sc17  1  0.84383450  0.84383450  0.84383450  1
  Sc  Sc18  1  0.15616550  0.15616550  0.53150551  1
  Sc  Sc19  1  0.15616550  0.53150551  0.15616550  1
  Sc  Sc20  1  0.53150551  0.15616550  0.15616550  1
  Sc  Sc21  1  0.15616550  0.15616550  0.15616550  1
  Tc  Tc0  1  0.00000000  0.00000000  0.00000000  1
  Tc  Tc1  1  0.00000000  0.00000000  0.50000000  1
  Tc  Tc2  1  0.50000000  0.00000000  0.50000000  1
  Tc  Tc3  1  0.00000000  0.50000000  0.50000000  1
  Tc  Tc4  1  0.50000000  0.50000000  0.00000000  1
  Tc  Tc5  1  0.00000000  0.50000000  0.00000000  1
  Tc  Tc6  1  0.50000000  0.00000000  0.00000000  1
  Ir  Ir0  1  0.50000000  0.50000000  0.50000000  1
loop_
_geom_bond_atom_site_label_1
_geom_bond_atom_site_label_2
_geom_bond_distance
_geom_bond_site_symmetry_2
Sc0 Tc0 2.663193 1_665
Sc0 Sc14 3.021663 1_555
Sc0 Sc19 3.021675 1_655
Sc0 Sc20 3.021675 1_565
Sc0 Sc17 3.021682 1_554
Sc0 Sc11 3.334927 1_555
Sc0 Sc12 3.334927 1_555
Sc0 Sc9 3.334931 1_555
Sc0 Sc6 3.334943 1_555
Sc1 Tc0 2.663193 1_565
Sc1 Sc19 3.021663 1_555
Sc1 Sc14 3.021675 1_455
Sc1 Sc16 3.021675 1_554
Sc1 Sc21 3.021682 1_565
Sc1 Sc6 3.334927 1_555
Sc1 Sc8 3.334927 1_555
Sc1 Sc13 3.334931 1_555
Sc1 Sc11 3.334943 1_555
Sc2 Tc0 2.663193 1_655
Sc2 Sc20 3.021663 1_555
Sc2 Sc21 3.021682 1_655
Sc2 Sc7 3.334927 1_555
Sc2 Sc6 3.334927 1_555
Sc3 Tc0 2.663193 1_556
Sc3 Sc7 3.334927 1_555
Sc3 Sc8 3.334927 1_555
Sc4 Tc0 2.663193 1_656
Sc4 Sc9 3.334931 1_555
Sc4 Sc7 3.334943 1_555
Sc5 Tc0 2.663193 1_566
Sc5 Sc9 3.334931 1_555
Sc5 Sc8 3.334943 1_555
Sc6 Tc4 2.977051 1_555
Sc6 Tc5 2.977066 1_655
Sc6 Tc6 2.977066 1_565
Sc7 Tc2 2.977051 1_555
Sc7 Tc1 2.977066 1_655
Sc7 Tc6 2.977066 1_556
Sc8 Tc3 2.977051 1_555
Sc8 Tc5 2.977066 1_556
Sc8 Tc1 2.977066 1_565
Sc9 Tc3 2.977067 1_655
Sc9 Tc4 2.977067 1_556
Sc9 Tc2 2.977067 1_565
Sc10 Tc4 2.977051 1_556
Sc10 Tc5 2.977066 1_556
Sc10 Tc6 2.977066 1_556
Sc10 Sc21 3.137866 1_556
Sc10 Sc19 3.137866 1_556
Sc10 Sc20 3.137866 1_556
Sc10 Sc9 3.146355 1_555
Sc10 Sc8 3.146382 1_555
Sc10 Sc7 3.146382 1_555
Sc10 Sc4 3.334927 1_555
Sc10 Sc5 3.334927 1_555
Sc10 Sc3 3.334943 1_555
Sc11 Tc2 2.977051 1_565
Sc11 Tc1 2.977066 1_565
Sc11 Tc6 2.977066 1_565
Sc11 Sc20 3.137866 1_565
Sc11 Sc18 3.137866 1_565
Sc11 Sc21 3.137866 1_565
Sc11 Sc9 3.146355 1_555
Sc11 Sc8 3.146382 1_555
Sc11 Sc6 3.146382 1_555
Sc11 Sc5 3.334927 1_555
Sc12 Tc3 2.977051 1_655
Sc12 Tc5 2.977066 1_655
Sc12 Tc1 2.977066 1_655
Sc12 Sc19 3.137866 1_655
Sc12 Sc18 3.137866 1_655
Sc12 Sc21 3.137866 1_655
Sc12 Sc9 3.146355 1_555
Sc12 Sc7 3.146382 1_555
Sc12 Sc6 3.146382 1_555
Sc12 Sc4 3.334927 1_555
Sc12 Sc2 3.334943 1_555
Sc13 Tc3 2.977067 1_555
Sc13 Tc4 2.977067 1_555
Sc13 Tc2 2.977067 1_555
Sc13 Sc18 3.137866 1_555
Sc13 Sc19 3.137866 1_555
Sc13 Sc20 3.137866 1_555
Sc13 Sc6 3.146355 1_555
Sc13 Sc8 3.146355 1_555
Sc13 Sc7 3.146355 1_555
Sc13 Sc2 3.334931 1_555
Sc13 Sc3 3.334931 1_555
Sc14 Tc2 2.754589 1_565
Sc14 Tc3 2.754589 1_655
Sc14 Tc1 2.754605 1_665
Sc14 Sc2 3.021675 1_565
Sc14 Sc9 3.137866 1_555
Sc14 Sc8 3.137866 1_655
Sc14 Sc7 3.137866 1_565
Sc15 Tc4 2.754589 1_556
Sc15 Tc3 2.754589 1_655
Sc15 Tc5 2.754605 1_656
Sc15 Sc4 3.021663 1_555
Sc15 Sc3 3.021675 1_655
Sc15 Sc2 3.021675 1_556
Sc15 Sc8 3.137866 1_655
Sc15 Sc6 3.137866 1_556
Sc15 Sc9 3.137866 1_555
Sc16 Tc2 2.754589 1_565
Sc16 Tc4 2.754589 1_556
Sc16 Tc6 2.754605 1_566
Sc16 Sc5 3.021663 1_555
Sc16 Sc3 3.021675 1_565
Sc16 Sc7 3.137866 1_565
Sc16 Sc6 3.137866 1_556
Sc16 Sc9 3.137866 1_555
Sc17 Tc6 2.754593 1_566
Sc17 Tc1 2.754593 1_665
Sc17 Tc5 2.754593 1_656
Sc17 Sc5 3.021682 1_655
Sc17 Sc4 3.021682 1_565
Sc17 Sc6 3.137866 1_556
Sc17 Sc8 3.137866 1_655
Sc17 Sc7 3.137866 1_565
Sc18 Tc2 2.754589 1_555
Sc18 Tc3 2.754589 1_555
Sc18 Tc1 2.754605 1_555
Sc18 Sc3 3.021663 1_555
Sc18 Sc4 3.021675 1_455
Sc18 Sc5 3.021675 1_545
Sc19 Tc4 2.754589 1_555
Sc19 Tc3 2.754589 1_555
Sc19 Tc5 2.754605 1_555
Sc19 Sc5 3.021675 1_554
Sc20 Tc2 2.754589 1_555
Sc20 Tc4 2.754589 1_555
Sc20 Tc6 2.754605 1_555
Sc20 Sc4 3.021675 1_554
Sc21 Tc6 2.754593 1_555
Sc21 Tc1 2.754593 1_555
Sc21 Tc5 2.754593 1_555
Sc21 Sc3 3.021682 1_554
Ir0 Sc9 2.724823 1_555
Ir0 Sc13 2.724823 1_555
Ir0 Sc12 2.724839 1_555
Ir0 Sc8 2.724839 1_555
Ir0 Sc6 2.724839 1_555
Ir0 Sc10 2.724839 1_555
Ir0 Sc11 2.724839 1_555
Ir0 Sc7 2.724839 1_555
