# generated using pymatgen
data_Rb3Ag2As2Au
_symmetry_space_group_name_H-M   'P 1'
_cell_length_a   8.12975369
_cell_length_b   7.93912652
_cell_length_c   7.93912830
_cell_angle_alpha   45.55406031
_cell_angle_beta   46.05818631
_cell_angle_gamma   46.05818415
_symmetry_Int_Tables_number   1
_chemical_formula_structural   Rb3Ag2As2Au
_chemical_formula_sum   'Rb3 Ag2 As2 Au1'
_cell_volume   240.87687081
_cell_formula_units_Z   1
loop_
 _symmetry_equiv_pos_site_id
 _symmetry_equiv_pos_as_xyz
  1  'x, y, z'
loop_
 _atom_site_type_symbol
 _atom_site_label
 _atom_site_symmetry_multiplicity
 _atom_site_fract_x
 _atom_site_fract_y
 _atom_site_fract_z
 _atom_site_occupancy
  Rb  Rb0  1  0.50000000  0.50000000  0.50000000  1
  Rb  Rb1  1  0.91018274  0.91176087  0.91176087  1
  Rb  Rb2  1  0.08981726  0.08823913  0.08823913  1
  Ag  Ag0  1  0.50000000  0.00000000  0.50000000  1
  Ag  Ag1  1  0.50000000  0.50000000  0.00000000  1
  As  As0  1  0.24937834  0.25041402  0.25041402  1
  As  As1  1  0.75062166  0.74958598  0.74958598  1
  Au  Au0  1  0.00000000  0.50000000  0.50000000  1
loop_
_geom_bond_atom_site_label_1
_geom_bond_atom_site_label_2
_geom_bond_distance
_geom_bond_site_symmetry_2
Rb0 Rb1 3.968836 1_554
Rb0 Rb2 3.968836 1_556
Rb0 Rb1 3.968836 1_545
Rb0 Rb2 3.968836 1_565
Rb0 Rb1 3.977697 1_455
Rb0 Rb2 3.977697 1_655
Ag0 As1 2.548447 1_545
Ag0 As0 2.548447 1_555
Ag0 Ag1 3.073601 1_555
Ag0 Ag1 3.073601 1_546
Ag0 Au0 3.144284 1_645
Ag0 Au0 3.144284 1_555
Ag0 Rb2 3.625863 1_556
Ag0 Rb1 3.625863 1_544
Ag0 Rb2 3.724227 1_655
Ag0 Rb1 3.724227 1_445
Ag0 Rb0 3.969563 1_555
Ag0 Rb0 3.969563 1_545
Ag1 As1 2.548446 1_554
Ag1 As0 2.548446 1_555
Ag1 Au0 3.144285 1_654
Ag1 Au0 3.144285 1_555
Ag1 Rb2 3.625863 1_565
Ag1 Rb1 3.625863 1_544
Ag1 Rb2 3.724228 1_655
Ag1 Rb1 3.724228 1_454
Ag1 Rb0 3.969564 1_554
Ag1 Rb0 3.969564 1_555
As0 Au0 2.512152 1_555
As0 Rb2 3.457697 1_555
As0 Rb1 3.581365 1_454
As0 Rb1 3.581365 1_445
As0 Rb1 3.653701 1_544
As0 Rb0 3.974290 1_545
As0 Rb0 3.974291 1_554
As0 Rb0 4.118158 1_455
As1 Au0 2.512152 1_655
As1 Rb1 3.457697 1_555
As1 Rb2 3.581365 1_656
As1 Rb2 3.581365 1_665
As1 Rb2 3.653701 1_566
As1 Rb0 3.974290 1_565
As1 Rb0 3.974291 1_556
As1 Rb0 4.118158 1_655
Au0 Rb2 3.615090 1_565
Au0 Rb1 3.615090 1_445
Au0 Rb2 3.615090 1_556
Au0 Rb1 3.615090 1_454
Au0 Rb0 4.064877 1_455
Au0 Rb0 4.064877 1_555
