# generated using pymatgen
data_P2PbO6
_symmetry_space_group_name_H-M   'P 1'
_cell_length_a   8.00542535
_cell_length_b   7.29905854
_cell_length_c   17.39992285
_cell_angle_alpha   88.75138664
_cell_angle_beta   90.00002639
_cell_angle_gamma   90.00008729
_symmetry_Int_Tables_number   1
_chemical_formula_structural   P2PbO6
_chemical_formula_sum   'P16 Pb8 O48'
_cell_volume   1016.47206561
_cell_formula_units_Z   8
loop_
 _symmetry_equiv_pos_site_id
 _symmetry_equiv_pos_as_xyz
  1  'x, y, z'
loop_
 _atom_site_type_symbol
 _atom_site_label
 _atom_site_symmetry_multiplicity
 _atom_site_fract_x
 _atom_site_fract_y
 _atom_site_fract_z
 _atom_site_occupancy
  P  P0  1  0.78411779  0.75080319  0.58930844  1
  P  P1  1  0.28411835  0.24919557  0.91069145  1
  P  P2  1  0.21588157  0.24919711  0.41069213  1
  P  P3  1  0.71588330  0.75080330  0.08930853  1
  P  P4  1  0.80335369  0.36247661  0.54073367  1
  P  P5  1  0.30335516  0.63752063  0.95926627  1
  P  P6  1  0.19664697  0.63752477  0.45926784  1
  P  P7  1  0.69664626  0.36247741  0.04073152  1
  P  P8  1  0.51733123  0.26401653  0.64176325  1
  P  P9  1  0.01733035  0.73598412  0.85823611  1
  P  P10  1  0.48266826  0.73598428  0.35823650  1
  P  P11  1  0.98266973  0.26401627  0.14176292  1
  P  P12  1  0.98461233  0.87003640  0.19233791  1
  P  P13  1  0.48461254  0.12996686  0.30766283  1
  P  P14  1  0.01538668  0.12996482  0.80766261  1
  P  P15  1  0.51538790  0.87003402  0.69233774  1
  Pb  Pb0  1  0.14771120  0.51980249  0.67568583  1
  Pb  Pb1  1  0.64771110  0.48019255  0.82431419  1
  Pb  Pb2  1  0.85228859  0.48019791  0.32431407  1
  Pb  Pb3  1  0.35228874  0.51980504  0.17568548  1
  Pb  Pb4  1  0.12024052  0.02516743  0.60336517  1
  Pb  Pb5  1  0.62023923  0.97482648  0.89663921  1
  Pb  Pb6  1  0.87975935  0.97483151  0.39663678  1
  Pb  Pb7  1  0.37976190  0.02516837  0.10336391  1
  O  O0  1  0.59530567  0.79692124  0.76371270  1
  O  O1  1  0.09530632  0.20307724  0.73628778  1
  O  O2  1  0.40469318  0.20308060  0.23628667  1
  O  O3  1  0.90469410  0.79692292  0.26371245  1
  O  O4  1  0.33200208  0.84787306  0.68256034  1
  O  O5  1  0.83200168  0.15212638  0.81743868  1
  O  O6  1  0.66799694  0.15212718  0.31743909  1
  O  O7  1  0.16799989  0.84787278  0.18256156  1
  O  O8  1  0.93115963  0.08137729  0.18735692  1
  O  O9  1  0.43115730  0.91862451  0.31264240  1
  O  O10  1  0.06884168  0.91862380  0.81264303  1
  O  O11  1  0.56884086  0.08137615  0.68735639  1
  O  O12  1  0.59888403  0.79000274  0.61723733  1
  O  O13  1  0.09888391  0.20999740  0.88276285  1
  O  O14  1  0.40111497  0.20999820  0.38276226  1
  O  O15  1  0.90111642  0.79000275  0.11723783  1
  O  O16  1  0.15694561  0.24972639  0.11203822  1
  O  O17  1  0.65694566  0.75027317  0.38796006  1
  O  O18  1  0.39733645  0.28478297  0.84382598  1
  O  O19  1  0.34305440  0.24972739  0.61203902  1
  O  O20  1  0.94302683  0.42256525  0.19051488  1
  O  O21  1  0.44302561  0.57743544  0.30948433  1
  O  O22  1  0.05697313  0.57743570  0.80948433  1
  O  O23  1  0.55697317  0.42256423  0.69051501  1
  O  O24  1  0.86245286  0.26080377  0.06883542  1
  O  O25  1  0.36245354  0.73919701  0.43116452  1
  O  O26  1  0.13754746  0.73919517  0.93116464  1
  O  O27  1  0.63754798  0.26080353  0.56883516  1
  O  O28  1  0.89733750  0.71521685  0.65617345  1
  O  O29  1  0.66605131  0.90302990  0.03527427  1
  O  O30  1  0.10266186  0.28478404  0.34382613  1
  O  O31  1  0.60266242  0.71521730  0.15617432  1
  O  O32  1  0.67152038  0.31107595  0.95951237  1
  O  O33  1  0.17152103  0.68892561  0.54048736  1
  O  O34  1  0.32848050  0.68892608  0.04048945  1
  O  O35  1  0.82847847  0.31107541  0.45951137  1
  O  O36  1  0.55709488  0.32899999  0.09654854  1
  O  O37  1  0.05709564  0.67100112  0.40345085  1
  O  O38  1  0.44290348  0.67099872  0.90345216  1
  O  O39  1  0.94290423  0.32900043  0.59654834  1
  O  O40  1  0.74848885  0.57283208  0.04098043  1
  O  O41  1  0.24848964  0.42716883  0.45901946  1
  O  O42  1  0.25151118  0.42716671  0.95902032  1
  O  O43  1  0.75151013  0.57283196  0.54098019  1
  O  O44  1  0.83394929  0.90303098  0.53527326  1
  O  O45  1  0.33394895  0.09696816  0.96472628  1
  O  O46  1  0.16605031  0.09697076  0.46472633  1
  O  O47  1  0.84305487  0.75027121  0.88796088  1
loop_
_geom_bond_atom_site_label_1
_geom_bond_atom_site_label_2
_geom_bond_distance
_geom_bond_site_symmetry_2
O0 P15 1.485792 1_555
O0 Pb1 2.554637 1_555
O0 Pb5 2.684492 1_555
O1 P14 1.485796 1_555
O1 Pb0 2.554616 1_555
O1 Pb4 2.684451 1_555
O2 P13 1.485818 1_555
O2 Pb3 2.554606 1_555
O2 Pb7 2.684460 1_555
O3 P12 1.485789 1_555
O3 Pb2 2.554613 1_555
O3 Pb6 2.684473 1_555
O4 P15 1.487134 1_555
O4 Pb4 2.523814 1_565
O4 Pb0 2.817358 1_555
O5 P14 1.487126 1_655
O5 Pb5 2.523887 1_545
O5 Pb1 2.817335 1_555
O6 P13 1.487120 1_555
O6 Pb6 2.523847 1_545
O6 Pb2 2.817363 1_555
O7 P12 1.487149 1_455
O7 Pb7 2.523842 1_565
O7 Pb3 2.817338 1_555
O8 P11 1.590742 1_555
O8 P12 1.601367 1_545
O9 P10 1.590753 1_555
O9 P13 1.601381 1_565
O10 P9 1.590741 1_555
O10 P14 1.601373 1_565
O11 P8 1.590743 1_555
O11 P15 1.601376 1_545
O12 P0 1.588396 1_555
O12 P15 1.590241 1_555
O13 P1 1.588397 1_555
O13 P14 1.590244 1_555
O14 P2 1.588398 1_555
O14 P13 1.590231 1_555
O15 P3 1.588392 1_555
O15 P12 1.590240 1_555
O16 P11 1.492376 1_455
O16 Pb7 2.429366 1_555
O16 Pb3 2.766439 1_555
O17 P10 1.492379 1_555
O17 Pb6 2.429352 1_555
O17 Pb2 2.766415 1_555
O18 P1 1.493122 1_555
O18 Pb1 2.479101 1_555
O19 P8 1.492379 1_555
O19 Pb4 2.429357 1_555
O19 Pb0 2.766421 1_555
O20 P11 1.484024 1_555
O20 Pb2 2.483410 1_555
O21 P10 1.484024 1_555
O21 Pb3 2.483397 1_555
O22 P9 1.484019 1_555
O22 Pb0 2.483399 1_555
O23 P8 1.484012 1_555
O23 Pb1 2.483402 1_555
O24 P7 1.592458 1_555
O24 P11 1.593181 1_555
O25 P6 1.592449 1_555
O25 P10 1.593178 1_555
O26 P5 1.592457 1_555
O26 P9 1.593196 1_555
O27 P4 1.592436 1_555
O27 P8 1.593189 1_555
O28 P0 1.493122 1_555
O28 Pb0 2.479119 1_655
O29 P3 1.494036 1_555
O29 Pb5 2.484539 1_554
O29 Pb7 2.738085 1_565
O30 P2 1.493136 1_555
O30 Pb2 2.479114 1_455
O31 P3 1.493138 1_555
O31 Pb3 2.479104 1_555
O32 P7 1.483739 1_556
O32 Pb1 2.639596 1_555
O32 Pb5 2.739702 1_545
O33 P6 1.483744 1_555
O33 Pb0 2.639622 1_555
O33 Pb4 2.739686 1_565
O34 P5 1.483813 1_554
O34 Pb3 2.639577 1_555
O34 Pb7 2.739664 1_565
O35 P4 1.483790 1_555
O35 Pb2 2.639602 1_555
O35 Pb6 2.739676 1_545
O36 P7 1.496891 1_555
O36 Pb3 2.570489 1_555
O36 Pb7 2.633639 1_555
O37 P6 1.496889 1_555
O37 Pb2 2.570481 1_455
O37 Pb6 2.633649 1_455
O38 P5 1.496841 1_555
O38 Pb1 2.570511 1_555
O38 Pb5 2.633626 1_555
O39 P4 1.496858 1_555
O39 Pb0 2.570483 1_655
O39 Pb4 2.633666 1_655
O40 P3 1.584399 1_555
O40 P7 1.590590 1_555
O41 P2 1.584397 1_555
O41 P6 1.590600 1_555
O42 P1 1.584408 1_555
O42 P5 1.590586 1_555
O43 P0 1.584403 1_555
O43 P4 1.590597 1_555
O44 P0 1.494051 1_555
O44 Pb6 2.484566 1_555
O44 Pb4 2.738106 1_665
O45 P1 1.494044 1_555
O45 Pb7 2.484588 1_556
O45 Pb5 2.738079 1_545
O46 P2 1.494032 1_555
O46 Pb4 2.484609 1_555
O46 Pb6 2.738093 1_445
O47 P9 1.492372 1_655
O47 Pb5 2.429354 1_555
O47 Pb1 2.766438 1_555
