# generated using pymatgen
data_CaHg3(P2O7)2
_symmetry_space_group_name_H-M   'P 1'
_cell_length_a   6.85353677
_cell_length_b   6.87514559
_cell_length_c   7.00434540
_cell_angle_alpha   78.55455225
_cell_angle_beta   66.16422923
_cell_angle_gamma   79.69007475
_symmetry_Int_Tables_number   1
_chemical_formula_structural   CaHg3(P2O7)2
_chemical_formula_sum   'Ca1 Hg3 P4 O14'
_cell_volume   294.08351601
_cell_formula_units_Z   1
loop_
 _symmetry_equiv_pos_site_id
 _symmetry_equiv_pos_as_xyz
  1  'x, y, z'
loop_
 _atom_site_type_symbol
 _atom_site_label
 _atom_site_symmetry_multiplicity
 _atom_site_fract_x
 _atom_site_fract_y
 _atom_site_fract_z
 _atom_site_occupancy
  Ca  Ca0  1  0.09802627  0.17293849  0.25038433  1
  Hg  Hg0  1  0.89755884  0.82617078  0.75275408  1
  Hg  Hg1  1  0.30463346  0.31533168  0.62941086  1
  Hg  Hg2  1  0.69675805  0.68202561  0.36911350  1
  P  P0  1  0.21415266  0.65762770  0.26564540  1
  P  P1  1  0.78548405  0.34208991  0.73489504  1
  P  P2  1  0.36096524  0.87149147  0.83164094  1
  P  P3  1  0.63746212  0.12929097  0.17107407  1
  O  O0  1  0.22810340  0.76853127  0.76564700  1
  O  O1  1  0.77196068  0.23422496  0.23067750  1
  O  O2  1  0.09457038  0.51077724  0.23424829  1
  O  O3  1  0.91174177  0.48151416  0.77021376  1
  O  O4  1  0.25534263  0.08223443  0.89409300  1
  O  O5  1  0.74369669  0.91670889  0.11233384  1
  O  O6  1  0.36553603  0.56077484  0.37860455  1
  O  O7  1  0.63126330  0.44572606  0.62746877  1
  O  O8  1  0.61885026  0.24645814  0.95465570  1
  O  O9  1  0.38353888  0.74722595  0.04225431  1
  O  O10  1  0.93678544  0.17261415  0.62378074  1
  O  O11  1  0.06476629  0.83397852  0.36218671  1
  O  O12  1  0.40776594  0.12061516  0.32380790  1
  O  O13  1  0.59103862  0.88164863  0.67510870  1
loop_
_geom_bond_atom_site_label_1
_geom_bond_atom_site_label_2
_geom_bond_distance
_geom_bond_site_symmetry_2
Ca0 O1 2.253813 1_455
Ca0 O2 2.299242 1_555
Ca0 O11 2.327569 1_545
Ca0 O12 2.331487 1_555
Ca0 O10 2.392510 1_455
Ca0 O4 2.445725 1_554
Hg0 O0 2.264295 1_655
Hg0 O13 2.325655 1_555
Hg0 O3 2.334823 1_555
Hg0 O10 2.395941 1_565
Hg0 O5 2.466485 1_556
Hg0 O11 2.495986 1_655
Hg1 O6 2.142623 1_555
Hg1 O4 2.151253 1_555
Hg1 O12 2.539564 1_555
Hg1 O7 2.550283 1_555
Hg1 O3 2.593889 1_455
Hg2 O5 2.123236 1_555
Hg2 O7 2.133832 1_555
Hg2 O6 2.527018 1_555
Hg2 O13 2.560979 1_555
Hg2 O2 2.631101 1_655
O0 P2 1.498218 1_555
O1 P3 1.487637 1_555
O2 P0 1.506434 1_555
O3 P1 1.514209 1_555
O4 P2 1.560391 1_545
O5 P3 1.565599 1_565
O6 P0 1.533922 1_555
O7 P1 1.533450 1_555
O8 P1 1.597567 1_555
O8 P3 1.611804 1_556
O9 P2 1.602199 1_554
O9 P0 1.606476 1_555
O10 P1 1.521102 1_555
O11 P0 1.515578 1_555
O12 P3 1.507768 1_555
O13 P2 1.518243 1_555
