# generated using pymatgen
data_CsRbHfTe3
_symmetry_space_group_name_H-M   'P 1'
_cell_length_a   14.83979364
_cell_length_b   6.97631870
_cell_length_c   9.95791704
_cell_angle_alpha   70.31098165
_cell_angle_beta   90.00000000
_cell_angle_gamma   90.00000000
_symmetry_Int_Tables_number   1
_chemical_formula_structural   CsRbHfTe3
_chemical_formula_sum   'Cs4 Rb4 Hf4 Te12'
_cell_volume   970.64229182
_cell_formula_units_Z   4
loop_
 _symmetry_equiv_pos_site_id
 _symmetry_equiv_pos_as_xyz
  1  'x, y, z'
loop_
 _atom_site_type_symbol
 _atom_site_label
 _atom_site_symmetry_multiplicity
 _atom_site_fract_x
 _atom_site_fract_y
 _atom_site_fract_z
 _atom_site_occupancy
  Cs  Cs0  1  0.94878481  0.66944387  0.66390277  1
  Cs  Cs1  1  0.44878481  0.83055613  0.33609723  1
  Cs  Cs2  1  0.05121519  0.33055613  0.33609723  1
  Cs  Cs3  1  0.55121519  0.16944387  0.66390277  1
  Rb  Rb0  1  0.86736388  0.06911963  0.89783577  1
  Rb  Rb1  1  0.36736388  0.43088037  0.10216423  1
  Rb  Rb2  1  0.13263612  0.93088037  0.10216423  1
  Rb  Rb3  1  0.63263612  0.56911963  0.89783577  1
  Hf  Hf0  1  0.74885357  0.65213355  0.28851616  1
  Hf  Hf1  1  0.24885357  0.84786645  0.71148384  1
  Hf  Hf2  1  0.25114643  0.34786645  0.71148384  1
  Hf  Hf3  1  0.75114643  0.15213355  0.28851616  1
  Te  Te0  1  0.90679848  0.88957101  0.27062523  1
  Te  Te1  1  0.40679848  0.61042899  0.72937477  1
  Te  Te2  1  0.09320152  0.11042899  0.72937477  1
  Te  Te3  1  0.59320152  0.38957101  0.27062523  1
  Te  Te4  1  0.81493413  0.27468104  0.51268979  1
  Te  Te5  1  0.31493413  0.22531896  0.48731021  1
  Te  Te6  1  0.18506587  0.72531896  0.48731021  1
  Te  Te7  1  0.68506587  0.77468104  0.51268979  1
  Te  Te8  1  0.84170320  0.48118543  0.08223790  1
  Te  Te9  1  0.34170320  0.01881457  0.91776210  1
  Te  Te10  1  0.15829680  0.51881457  0.91776210  1
  Te  Te11  1  0.65829680  0.98118543  0.08223790  1
loop_
_geom_bond_atom_site_label_1
_geom_bond_atom_site_label_2
_geom_bond_distance
_geom_bond_site_symmetry_2
Cs0 Te0 3.745783 1_555
Cs0 Te6 3.882903 1_655
Cs0 Te10 3.920613 1_655
Cs0 Te2 3.979206 1_665
Cs0 Te4 4.073271 1_555
Cs0 Te7 4.168594 1_555
Cs0 Rb0 4.225201 1_555
Cs0 Te8 4.232835 1_556
Cs0 Te2 4.302754 1_655
Cs0 Rb0 4.363200 1_565
Cs0 Te4 4.444855 1_565
Cs1 Te1 3.745783 1_555
Cs1 Te7 3.882903 1_555
Cs1 Te11 3.920613 1_555
Cs1 Te3 3.979206 1_555
Cs1 Te5 4.073271 1_565
Cs1 Te6 4.168594 1_555
Cs1 Rb1 4.225201 1_565
Cs1 Te9 4.232835 1_564
Cs1 Te3 4.302754 1_565
Cs1 Rb1 4.363200 1_555
Cs1 Te5 4.444855 1_555
Cs2 Te2 3.745783 1_555
Cs2 Te4 3.882903 1_455
Cs2 Te8 3.920613 1_455
Cs2 Te0 3.979206 1_445
Cs2 Te6 4.073271 1_555
Cs2 Te5 4.168594 1_555
Cs2 Rb2 4.225201 1_555
Cs2 Te10 4.232835 1_554
Cs2 Te0 4.302754 1_455
Cs2 Rb2 4.363200 1_545
Cs2 Te6 4.444855 1_545
Cs3 Te3 3.745783 1_555
Cs3 Te5 3.882903 1_555
Cs3 Te9 3.920613 1_555
Cs3 Te1 3.979206 1_555
Cs3 Te7 4.073271 1_545
Cs3 Te4 4.168594 1_555
Cs3 Rb3 4.225201 1_545
Cs3 Te11 4.232835 1_546
Cs3 Te1 4.302754 1_545
Cs3 Rb3 4.363200 1_555
Cs3 Te7 4.444855 1_555
Rb0 Te0 3.543825 1_546
Rb0 Te11 3.551721 1_546
Rb0 Te4 3.696619 1_555
Rb0 Te2 3.715258 1_655
Rb0 Te8 3.907055 1_546
Rb0 Te8 3.916341 1_556
Rb1 Te1 3.543825 1_554
Rb1 Te10 3.551721 1_554
Rb1 Te5 3.696619 1_555
Rb1 Te3 3.715258 1_555
Rb1 Te9 3.907055 1_564
Rb1 Te9 3.916341 1_554
Rb2 Te2 3.543825 1_564
Rb2 Te9 3.551721 1_564
Rb2 Te6 3.696619 1_555
Rb2 Te0 3.715258 1_455
Rb2 Te10 3.907055 1_564
Rb2 Te10 3.916341 1_554
Rb3 Te3 3.543825 1_556
Rb3 Te8 3.551721 1_556
Rb3 Te7 3.696619 1_555
Rb3 Te1 3.715258 1_555
Rb3 Te11 3.907055 1_546
Rb3 Te11 3.916341 1_556
Hf0 Te7 2.810001 1_555
Hf0 Te0 2.840846 1_555
Hf0 Te11 2.849134 1_555
Hf0 Te4 2.986270 1_555
Hf0 Te3 2.990353 1_555
Hf0 Te8 3.031634 1_555
Hf1 Te6 2.810001 1_555
Hf1 Te1 2.840846 1_555
Hf1 Te10 2.849134 1_555
Hf1 Te5 2.986270 1_565
Hf1 Te2 2.990353 1_565
Hf1 Te9 3.031634 1_565
Hf2 Te5 2.810001 1_555
Hf2 Te2 2.840846 1_555
Hf2 Te9 2.849134 1_555
Hf2 Te6 2.986270 1_555
Hf2 Te1 2.990353 1_555
Hf2 Te10 3.031634 1_555
Hf3 Te4 2.810001 1_555
Hf3 Te3 2.840846 1_555
Hf3 Te8 2.849134 1_555
Hf3 Te7 2.986270 1_545
Hf3 Te0 2.990353 1_545
Hf3 Te11 3.031634 1_545
