# generated using pymatgen
data_Sr2Pt2I
_symmetry_space_group_name_H-M   'P 1'
_cell_length_a   4.47089405
_cell_length_b   4.47089361
_cell_length_c   17.80823101
_cell_angle_alpha   90.00000000
_cell_angle_beta   90.00000000
_cell_angle_gamma   119.99998894
_symmetry_Int_Tables_number   1
_chemical_formula_structural   Sr2Pt2I
_chemical_formula_sum   'Sr4 Pt4 I2'
_cell_volume   308.27632594
_cell_formula_units_Z   2
loop_
 _symmetry_equiv_pos_site_id
 _symmetry_equiv_pos_as_xyz
  1  'x, y, z'
loop_
 _atom_site_type_symbol
 _atom_site_label
 _atom_site_symmetry_multiplicity
 _atom_site_fract_x
 _atom_site_fract_y
 _atom_site_fract_z
 _atom_site_occupancy
  Sr  Sr0  1  0.00000000  0.00000000  0.10855460  1
  Sr  Sr1  1  0.00000000  0.00000000  0.89144540  1
  Sr  Sr2  1  0.00000000  0.00000000  0.60855460  1
  Sr  Sr3  1  0.00000000  0.00000000  0.39144540  1
  Pt  Pt0  1  0.33333300  0.66666700  0.50136835  1
  Pt  Pt1  1  0.66666700  0.33333300  0.49863165  1
  Pt  Pt2  1  0.66666700  0.33333300  0.00136835  1
  Pt  Pt3  1  0.33333300  0.66666700  0.99863165  1
  I  I0  1  0.33333300  0.66666700  0.25000000  1
  I  I1  1  0.66666700  0.33333300  0.75000000  1
loop_
_geom_bond_atom_site_label_1
_geom_bond_atom_site_label_2
_geom_bond_distance
_geom_bond_site_symmetry_2
Pt0 Pt1 2.581729 1_565
Pt0 Pt1 2.581730 1_455
Pt0 Pt1 2.581737 1_555
Pt0 Sr2 3.210367 1_565
Pt0 Sr2 3.210371 1_555
Pt0 Sr2 3.210371 1_665
Pt0 Sr3 3.239581 1_565
Pt0 Sr3 3.239585 1_555
Pt0 Sr3 3.239585 1_665
Pt1 Sr3 3.210367 1_655
Pt1 Sr3 3.210371 1_665
Pt1 Sr3 3.210371 1_555
Pt1 Sr2 3.239581 1_655
Pt1 Sr2 3.239585 1_665
Pt1 Sr2 3.239585 1_555
Pt2 Pt3 2.581729 1_544
Pt2 Pt3 2.581730 1_654
Pt2 Pt3 2.581737 1_554
Pt2 Sr0 3.210367 1_655
Pt2 Sr0 3.210371 1_665
Pt2 Sr0 3.210371 1_555
Pt2 Sr1 3.239581 1_654
Pt2 Sr1 3.239585 1_664
Pt2 Sr1 3.239585 1_554
Pt3 Sr1 3.210367 1_565
Pt3 Sr1 3.210371 1_555
Pt3 Sr1 3.210371 1_665
Pt3 Sr0 3.239581 1_566
Pt3 Sr0 3.239585 1_556
Pt3 Sr0 3.239585 1_666
I0 Sr3 3.606628 1_565
I0 Sr0 3.606628 1_565
I0 Sr3 3.606631 1_555
I0 Sr0 3.606631 1_555
I0 Sr3 3.606632 1_665
I0 Sr0 3.606632 1_665
I1 Sr1 3.606628 1_655
I1 Sr2 3.606628 1_655
I1 Sr1 3.606631 1_665
I1 Sr2 3.606631 1_665
I1 Sr1 3.606632 1_555
I1 Sr2 3.606632 1_555
