# generated using pymatgen
data_AgSnP7Au2
_symmetry_space_group_name_H-M   'P 1'
_cell_length_a   11.09014202
_cell_length_b   6.33392336
_cell_length_c   6.48633454
_cell_angle_alpha   71.04508592
_cell_angle_beta   90.00000000
_cell_angle_gamma   90.00000000
_symmetry_Int_Tables_number   1
_chemical_formula_structural   AgSnP7Au2
_chemical_formula_sum   'Ag2 Sn2 P14 Au4'
_cell_volume   430.92019135
_cell_formula_units_Z   2
loop_
 _symmetry_equiv_pos_site_id
 _symmetry_equiv_pos_as_xyz
  1  'x, y, z'
loop_
 _atom_site_type_symbol
 _atom_site_label
 _atom_site_symmetry_multiplicity
 _atom_site_fract_x
 _atom_site_fract_y
 _atom_site_fract_z
 _atom_site_occupancy
  Ag  Ag0  1  0.60492886  0.30755117  0.31663809  1
  Ag  Ag1  1  0.10492886  0.69244883  0.68336191  1
  Sn  Sn0  1  0.25313605  0.69392434  0.04231220  1
  Sn  Sn1  1  0.75313605  0.30607566  0.95768780  1
  P  P0  1  0.24717561  0.26281836  0.28295873  1
  P  P1  1  0.74717561  0.73718164  0.71704127  1
  P  P2  1  0.58771009  0.20252011  0.71729162  1
  P  P3  1  0.08771009  0.79747989  0.28270838  1
  P  P4  1  0.41208657  0.80186242  0.29230596  1
  P  P5  1  0.91208657  0.19813758  0.70769404  1
  P  P6  1  0.40839825  0.28427306  0.80711324  1
  P  P7  1  0.90839825  0.71572694  0.19288676  1
  P  P8  1  0.91743386  0.83288886  0.83364518  1
  P  P9  1  0.41743386  0.16711114  0.16635482  1
  P  P10  1  0.07814210  0.16149805  0.16159985  1
  P  P11  1  0.57814210  0.83850195  0.83840015  1
  P  P12  1  0.09103173  0.27715613  0.80412573  1
  P  P13  1  0.59103173  0.72284387  0.19587427  1
  Au  Au0  1  0.39953015  0.68911703  0.68908951  1
  Au  Au1  1  0.89953015  0.31088297  0.31091049  1
  Au  Au2  1  0.25042674  0.07811608  0.68023645  1
  Au  Au3  1  0.75042674  0.92188392  0.31976355  1
loop_
_geom_bond_atom_site_label_1
_geom_bond_atom_site_label_2
_geom_bond_distance
_geom_bond_site_symmetry_2
Ag0 P2 2.471742 1_555
Ag0 P13 2.493579 1_555
Ag0 P9 2.574584 1_555
Ag0 Sn1 2.852476 1_554
Ag0 Au3 2.922178 1_545
Ag0 Au1 3.267372 1_555
Ag1 P3 2.471742 1_555
Ag1 P12 2.493579 1_555
Ag1 P8 2.574584 1_455
Ag1 Sn0 2.852476 1_556
Ag1 Au2 2.922178 1_565
Ag1 Au0 3.267372 1_555
P0 P9 2.191491 1_555
P0 P10 2.207674 1_555
P0 Sn0 2.669834 1_555
P1 P8 2.191491 1_555
P1 P11 2.207674 1_555
P1 Sn1 2.669834 1_555
P2 P6 2.181300 1_555
P2 Sn1 2.625221 1_555
P3 P7 2.181300 1_455
P3 Sn0 2.625221 1_555
P4 P9 2.189792 1_565
P4 Sn0 2.631429 1_555
P5 P8 2.189792 1_545
P5 Sn1 2.631429 1_555
P6 P9 2.206134 1_556
P7 P8 2.206134 1_554
P10 P3 2.183524 1_545
P10 P12 2.197715 1_554
P11 P2 2.183524 1_565
P11 P13 2.197715 1_556
P12 P5 2.187112 1_455
P13 P4 2.187112 1_555
Au0 P6 2.428131 1_555
Au0 P4 2.441136 1_555
Au0 P11 2.520366 1_555
Au0 Sn0 2.816263 1_556
Au0 Au2 2.952365 1_565
Au1 P7 2.428131 1_555
Au1 P5 2.441136 1_555
Au1 P10 2.520366 1_655
Au1 Sn1 2.816263 1_554
Au1 Au3 2.952365 1_545
Au2 P12 2.453179 1_555
Au2 P0 2.460033 1_555
Au2 P6 2.479860 1_555
Au2 Sn0 2.779466 1_546
Au3 P13 2.453179 1_555
Au3 P1 2.460033 1_555
Au3 P7 2.479860 1_555
Au3 Sn1 2.779466 1_564
