# generated using pymatgen
data_ZrSeBr8
_symmetry_space_group_name_H-M   'P 1'
_cell_length_a   6.75571245
_cell_length_b   7.93491413
_cell_length_c   6.62765098
_cell_angle_alpha   90.00000000
_cell_angle_beta   107.07419989
_cell_angle_gamma   90.00000000
_symmetry_Int_Tables_number   1
_chemical_formula_structural   ZrSeBr8
_chemical_formula_sum   'Zr1 Se1 Br8'
_cell_volume   339.62291367
_cell_formula_units_Z   1
loop_
 _symmetry_equiv_pos_site_id
 _symmetry_equiv_pos_as_xyz
  1  'x, y, z'
loop_
 _atom_site_type_symbol
 _atom_site_label
 _atom_site_symmetry_multiplicity
 _atom_site_fract_x
 _atom_site_fract_y
 _atom_site_fract_z
 _atom_site_occupancy
  Zr  Zr0  1  0.00000000  0.15826057  0.75000000  1
  Se  Se0  1  0.00000000  0.84127529  0.25000000  1
  Br  Br0  1  0.76173279  0.10872125  0.99437936  1
  Br  Br1  1  0.76896431  0.64345042  0.03823171  1
  Br  Br2  1  0.23103469  0.64345042  0.46176729  1
  Br  Br3  1  0.23826821  0.10872125  0.50561964  1
  Br  Br4  1  0.77487758  0.88535290  0.50925555  1
  Br  Br5  1  0.74880416  0.36270500  0.52540663  1
  Br  Br6  1  0.25119584  0.36270500  0.97459437  1
  Br  Br7  1  0.22512342  0.88535290  0.99074445  1
loop_
_geom_bond_atom_site_label_1
_geom_bond_atom_site_label_2
_geom_bond_distance
_geom_bond_site_symmetry_2
Br0 Zr0 2.626745 1_655
Br0 Se0 2.891956 1_646
Br1 Se0 2.362977 1_655
Br2 Se0 2.362971 1_555
Br3 Zr0 2.626756 1_555
Br3 Se0 2.891956 1_545
Br4 Se0 2.631025 1_655
Br4 Zr0 2.850137 1_665
Br5 Zr0 2.498779 1_655
Br6 Zr0 2.498781 1_555
Br7 Se0 2.631030 1_556
Br7 Zr0 2.850139 1_565
