# generated using pymatgen
data_Ba2CaAs2
_symmetry_space_group_name_H-M   'P 1'
_cell_length_a   9.35982540
_cell_length_b   9.35982543
_cell_length_c   8.40536977
_cell_angle_alpha   90.00000000
_cell_angle_beta   90.00000000
_cell_angle_gamma   150.34052782
_symmetry_Int_Tables_number   1
_chemical_formula_structural   Ba2CaAs2
_chemical_formula_sum   'Ba4 Ca2 As4'
_cell_volume   364.38520684
_cell_formula_units_Z   2
loop_
 _symmetry_equiv_pos_site_id
 _symmetry_equiv_pos_as_xyz
  1  'x, y, z'
loop_
 _atom_site_type_symbol
 _atom_site_label
 _atom_site_symmetry_multiplicity
 _atom_site_fract_x
 _atom_site_fract_y
 _atom_site_fract_z
 _atom_site_occupancy
  Ba  Ba0  1  0.54458866  0.45541234  0.23006477  1
  Ba  Ba1  1  0.29677886  0.70322214  0.38868698  1
  Ba  Ba2  1  0.45541234  0.54458866  0.73006477  1
  Ba  Ba3  1  0.70322214  0.29677886  0.88868698  1
  Ca  Ca0  1  0.90580684  0.09419516  0.08566560  1
  Ca  Ca1  1  0.09419516  0.90580684  0.58566560  1
  As  As0  1  0.94315656  0.05684544  0.43062619  1
  As  As1  1  0.67495127  0.32504973  0.49931845  1
  As  As2  1  0.05684544  0.94315656  0.93062619  1
  As  As3  1  0.32504973  0.67495127  0.99931945  1
loop_
_geom_bond_atom_site_label_1
_geom_bond_atom_site_label_2
_geom_bond_distance
_geom_bond_site_symmetry_2
As0 Ca0 2.977254 1_555
As0 Ca1 3.027983 1_645
As0 Ba0 3.456890 1_655
As0 Ba0 3.456894 1_545
As0 Ba2 3.481801 1_655
As0 Ba2 3.481804 1_545
As0 Ba1 3.588832 1_655
As0 Ba1 3.588836 1_545
As1 Ca1 2.898516 1_545
As1 Ca1 2.898519 1_655
As1 Ba0 3.269115 1_555
As1 Ba3 3.312531 1_555
As1 Ba1 3.385855 1_655
As1 Ba1 3.385855 1_545
As2 Ca1 2.977254 1_555
As2 Ca0 3.027983 1_466
As2 Ba2 3.456890 1_565
As2 Ba2 3.456894 1_455
As2 Ba0 3.481801 1_566
As2 Ba0 3.481804 1_456
As2 Ba3 3.588832 1_565
As2 Ba3 3.588836 1_455
As3 Ca0 2.898513 1_456
As3 Ca0 2.898517 1_566
As3 Ba2 3.269121 1_555
As3 Ba1 3.312522 1_556
As3 Ba3 3.385857 1_455
As3 Ba3 3.385857 1_565
