# generated using pymatgen
data_Sc2Mo3P7Rh9
_symmetry_space_group_name_H-M   'P 1'
_cell_length_a   3.87289622
_cell_length_b   9.39643279
_cell_length_c   9.39595345
_cell_angle_alpha   120.00034768
_cell_angle_beta   90.00014695
_cell_angle_gamma   90.00014584
_symmetry_Int_Tables_number   1
_chemical_formula_structural   Sc2Mo3P7Rh9
_chemical_formula_sum   'Sc2 Mo3 P7 Rh9'
_cell_volume   296.12074789
_cell_formula_units_Z   1
loop_
 _symmetry_equiv_pos_site_id
 _symmetry_equiv_pos_as_xyz
  1  'x, y, z'
loop_
 _atom_site_type_symbol
 _atom_site_label
 _atom_site_symmetry_multiplicity
 _atom_site_fract_x
 _atom_site_fract_y
 _atom_site_fract_z
 _atom_site_occupancy
  Sc  Sc0  1  0.26188908  0.66664713  0.33331179  1
  Sc  Sc1  1  0.76189627  0.33333525  0.66667147  1
  Mo  Mo0  1  0.76191941  0.09120906  0.87003344  1
  Mo  Mo1  1  0.76192002  0.12996813  0.22118336  1
  Mo  Mo2  1  0.76192048  0.77881636  0.90878180  1
  P  P0  1  0.26177535  0.00002055  0.00001280  1
  P  P1  1  0.76189439  0.87743369  0.59095215  1
  P  P2  1  0.76189479  0.40904695  0.28647863  1
  P  P3  1  0.76190105  0.71351980  0.12256839  1
  P  P4  1  0.26182717  0.11986059  0.41578674  1
  P  P5  1  0.26183598  0.58421348  0.70408971  1
  P  P6  1  0.26184125  0.29590570  0.88011966  1
  Rh  Rh0  1  0.26193669  0.88390261  0.16204773  1
  Rh  Rh1  1  0.26193752  0.83796629  0.72184478  1
  Rh  Rh2  1  0.26193725  0.27817957  0.11613321  1
  Rh  Rh3  1  0.76194090  0.61104106  0.55429899  1
  Rh  Rh4  1  0.76193507  0.44565853  0.05672773  1
  Rh  Rh5  1  0.76193671  0.94325401  0.38895057  1
  Rh  Rh6  1  0.26195447  0.36922550  0.44089012  1
  Rh  Rh7  1  0.26195367  0.55912216  0.92832731  1
  Rh  Rh8  1  0.26195248  0.07167257  0.63079059  1
loop_
_geom_bond_atom_site_label_1
_geom_bond_atom_site_label_2
_geom_bond_distance
_geom_bond_site_symmetry_2
Mo0 P1 2.375645 1_545
Mo0 P0 2.649498 1_656
Mo0 P0 2.650315 1_556
Mo0 P6 2.697198 1_655
Mo0 P6 2.697640 1_555
Mo0 Rh1 2.835017 1_545
Mo0 Rh1 2.835126 1_645
Mo0 Rh2 2.849663 1_556
Mo0 Rh2 2.849742 1_656
Mo0 Rh4 2.885709 1_556
Mo0 Rh8 2.902321 1_555
Mo0 Rh8 2.902501 1_655
Mo1 P2 2.375760 1_555
Mo1 P0 2.649469 1_655
Mo1 P0 2.650276 1_555
Mo1 P4 2.697120 1_655
Mo1 P4 2.697643 1_555
Mo1 Rh2 2.835131 1_555
Mo1 Rh2 2.835221 1_655
Mo1 Rh0 2.849482 1_545
Mo1 Rh0 2.849580 1_645
Mo1 Rh5 2.885919 1_545
Mo1 Rh6 2.902431 1_555
Mo1 Rh6 2.902594 1_655
Mo2 P3 2.375693 1_556
Mo2 P0 2.649711 1_666
Mo2 P0 2.650544 1_566
Mo2 P5 2.697107 1_655
Mo2 P5 2.697563 1_555
Mo2 Rh0 2.835084 1_556
Mo2 Rh0 2.835158 1_656
Mo2 Rh1 2.849533 1_555
Mo2 Rh1 2.849627 1_655
Mo2 Rh3 2.885833 1_555
Mo2 Rh7 2.902355 1_555
Mo2 Rh7 2.902533 1_655
P0 Rh0 2.273673 1_545
P0 Rh1 2.273755 1_544
P0 Rh2 2.273789 1_555
P1 Rh5 2.271296 1_555
P1 Rh3 2.349946 1_555
P1 Rh1 2.419790 1_555
P1 Rh1 2.420054 1_655
P1 Rh8 2.556772 1_565
P1 Rh8 2.557104 1_665
P1 Sc0 2.956037 1_655
P1 Sc0 2.956049 1_555
P2 Rh3 2.271258 1_555
P2 Rh4 2.349704 1_555
P2 Rh2 2.419685 1_555
P2 Rh2 2.419960 1_655
P2 Rh6 2.556714 1_555
P2 Rh6 2.557060 1_655
P2 Sc0 2.955866 1_655
P2 Sc0 2.955904 1_555
P3 Rh4 2.271698 1_555
P3 Rh5 2.349774 1_555
P3 Rh0 2.419959 1_555
P3 Rh0 2.420172 1_655
P3 Rh7 2.556732 1_554
P3 Rh7 2.557054 1_654
P3 Sc0 2.955789 1_655
P3 Sc0 2.955855 1_555
P4 Rh6 2.234560 1_555
P4 Rh8 2.280532 1_555
P4 Rh0 2.305169 1_545
P4 Rh5 2.479346 1_445
P4 Rh5 2.480016 1_545
P4 Sc1 2.932709 1_455
P4 Sc1 2.933048 1_555
P5 Rh7 2.234161 1_555
P5 Rh6 2.280535 1_555
P5 Rh1 2.305489 1_555
P5 Rh3 2.479402 1_455
P5 Rh3 2.480041 1_555
P5 Sc1 2.932720 1_455
P5 Sc1 2.933038 1_555
P6 Rh8 2.234170 1_555
P6 Rh7 2.280801 1_555
P6 Rh2 2.305372 1_556
P6 Rh4 2.479330 1_456
P6 Rh4 2.479885 1_556
P6 Sc1 2.932624 1_455
P6 Sc1 2.932911 1_555
Rh0 Rh5 2.723439 1_555
Rh0 Rh5 2.723449 1_455
Rh0 Sc0 3.168910 1_555
Rh1 Rh3 2.723577 1_455
Rh1 Rh3 2.723609 1_555
Rh1 Sc0 3.168873 1_555
Rh2 Rh4 2.723288 1_555
Rh2 Rh4 2.723303 1_455
Rh2 Sc0 3.168498 1_555
Rh3 Rh6 2.761652 1_555
Rh3 Rh6 2.761738 1_655
Rh3 Sc0 3.068936 1_655
Rh3 Sc0 3.069185 1_555
Rh3 Sc1 3.267906 1_555
Rh4 Rh7 2.761885 1_554
Rh4 Rh7 2.761987 1_654
Rh4 Sc0 3.068902 1_655
Rh4 Sc0 3.069142 1_555
Rh4 Sc1 3.267666 1_554
Rh5 Rh8 2.761728 1_565
Rh5 Rh8 2.761801 1_665
Rh5 Sc0 3.069052 1_655
Rh5 Sc0 3.069275 1_555
Rh5 Sc1 3.267947 1_565
Rh6 Sc1 3.013068 1_555
Rh6 Sc1 3.013364 1_455
Rh6 Sc0 3.414234 1_555
Rh7 Sc1 3.013041 1_555
Rh7 Sc1 3.013312 1_455
Rh7 Sc0 3.414063 1_556
Rh8 Sc1 3.013119 1_555
Rh8 Sc1 3.013408 1_455
Rh8 Sc0 3.414522 1_545
