# generated using pymatgen
data_In2Sb2Cl2O5
_symmetry_space_group_name_H-M   'P 1'
_cell_length_a   6.78051819
_cell_length_b   7.67452212
_cell_length_c   9.45146900
_cell_angle_alpha   106.99309200
_cell_angle_beta   105.71611786
_cell_angle_gamma   102.02836280
_symmetry_Int_Tables_number   1
_chemical_formula_structural   In2Sb2Cl2O5
_chemical_formula_sum   'In4 Sb4 Cl4 O10'
_cell_volume   430.11541283
_cell_formula_units_Z   2
loop_
 _symmetry_equiv_pos_site_id
 _symmetry_equiv_pos_as_xyz
  1  'x, y, z'
loop_
 _atom_site_type_symbol
 _atom_site_label
 _atom_site_symmetry_multiplicity
 _atom_site_fract_x
 _atom_site_fract_y
 _atom_site_fract_z
 _atom_site_occupancy
  In  In0  1  0.41544448  0.69542189  0.52491522  1
  In  In1  1  0.58455552  0.30457811  0.47508478  1
  In  In2  1  0.86986611  0.78124422  0.35844270  1
  In  In3  1  0.13013389  0.21875578  0.64155730  1
  Sb  Sb0  1  0.91619791  0.83907358  0.76799332  1
  Sb  Sb1  1  0.08380209  0.16092642  0.23200668  1
  Sb  Sb2  1  0.70077926  0.23357559  0.80327434  1
  Sb  Sb3  1  0.29922074  0.76642441  0.19672566  1
  Cl  Cl0  1  0.23900932  0.60291654  0.70824093  1
  Cl  Cl1  1  0.76099068  0.39708346  0.29175907  1
  Cl  Cl2  1  0.76506047  0.71589571  0.06563251  1
  Cl  Cl3  1  0.23493953  0.28410429  0.93436749  1
  O  O0  1  0.83181781  0.26547985  0.64478687  1
  O  O1  1  0.16818219  0.73452015  0.35521313  1
  O  O2  1  0.56005516  0.78349584  0.36076524  1
  O  O3  1  0.43994484  0.21650416  0.63923476  1
  O  O4  1  0.66112804  0.95043300  0.72960755  1
  O  O5  1  0.33887196  0.04956700  0.27039245  1
  O  O6  1  0.69029172  0.60731277  0.61332447  1
  O  O7  1  0.30970828  0.39268723  0.38667553  1
  O  O8  1  0.01085024  0.91514694  0.61030279  1
  O  O9  1  0.98914976  0.08485306  0.38969721  1
loop_
_geom_bond_atom_site_label_1
_geom_bond_atom_site_label_2
_geom_bond_distance
_geom_bond_site_symmetry_2
In0 O1 2.123135 1_555
In0 O6 2.154152 1_555
In0 O7 2.154758 1_555
In0 O2 2.232981 1_555
In0 O4 2.242815 1_555
In1 O0 2.123135 1_555
In1 O7 2.154152 1_555
In1 O6 2.154758 1_555
In1 O3 2.232981 1_555
In1 O5 2.242815 1_555
In2 O2 2.110337 1_555
In2 O1 2.133153 1_655
In2 O8 2.136428 1_655
In2 O9 2.203032 1_565
In3 O3 2.110337 1_555
In3 O0 2.133153 1_455
In3 O9 2.136428 1_455
In3 O8 2.203032 1_545
Cl0 In0 2.534840 1_555
Cl0 In3 2.718284 1_555
Cl1 In1 2.534840 1_555
Cl1 In2 2.718284 1_555
Cl2 In2 2.527896 1_555
Cl3 In3 2.527896 1_555
O0 Sb2 1.984428 1_555
O1 Sb3 1.984428 1_555
O2 Sb3 1.961652 1_555
O3 Sb2 1.961652 1_555
O4 Sb2 2.012378 1_565
O4 Sb0 2.076192 1_555
O5 Sb3 2.012378 1_545
O5 Sb1 2.076192 1_555
O6 Sb0 1.943833 1_555
O7 Sb1 1.943833 1_555
O8 Sb0 1.960790 1_455
O9 Sb1 1.960790 1_655
