# generated using pymatgen
data_Sr10Sb6BrCl
_symmetry_space_group_name_H-M   'P 1'
_cell_length_a   9.63088714
_cell_length_b   9.63088780
_cell_length_c   7.55662615
_cell_angle_alpha   90.00000000
_cell_angle_beta   90.00000000
_cell_angle_gamma   120.00000111
_symmetry_Int_Tables_number   1
_chemical_formula_structural   Sr10Sb6BrCl
_chemical_formula_sum   'Sr10 Sb6 Br1 Cl1'
_cell_volume   607.00347920
_cell_formula_units_Z   1
loop_
 _symmetry_equiv_pos_site_id
 _symmetry_equiv_pos_as_xyz
  1  'x, y, z'
loop_
 _atom_site_type_symbol
 _atom_site_label
 _atom_site_symmetry_multiplicity
 _atom_site_fract_x
 _atom_site_fract_y
 _atom_site_fract_z
 _atom_site_occupancy
  Sr  Sr0  1  0.25919374  1.00000000  0.24238426  1
  Sr  Sr1  1  0.00000000  0.74080626  0.75761574  1
  Sr  Sr2  1  0.74080626  0.74080626  0.24238426  1
  Sr  Sr3  1  0.25919374  0.25919374  0.75761574  1
  Sr  Sr4  1  0.74080626  0.00000000  0.75761574  1
  Sr  Sr5  1  0.00000000  0.25919374  0.24238426  1
  Sr  Sr6  1  0.66666700  0.33333300  0.50000000  1
  Sr  Sr7  1  0.33333300  0.66666700  0.00000000  1
  Sr  Sr8  1  0.33333300  0.66666700  0.50000000  1
  Sr  Sr9  1  0.66666700  0.33333300  0.00000000  1
  Sb  Sb0  1  0.60860646  0.60860646  0.75102602  1
  Sb  Sb1  1  0.00000000  0.60860646  0.24897398  1
  Sb  Sb2  1  0.60860646  0.00000000  0.24897398  1
  Sb  Sb3  1  0.39139354  0.00000000  0.75102602  1
  Sb  Sb4  1  0.00000000  0.39139354  0.75102602  1
  Sb  Sb5  1  0.39139354  0.39139354  0.24897398  1
  Br  Br0  1  0.00000000  0.00000000  0.50000000  1
  Cl  Cl0  1  0.00000000  0.00000000  0.00000000  1
loop_
_geom_bond_atom_site_label_1
_geom_bond_atom_site_label_2
_geom_bond_distance
_geom_bond_site_symmetry_2
Sb0 Sr1 3.321613 1_655
Sb0 Sr4 3.321613 1_565
Sb0 Sr3 3.365523 1_555
Sb0 Sr7 3.516145 1_556
Sb0 Sr9 3.516145 1_556
Sb0 Sr8 3.524466 1_555
Sb0 Sr6 3.524467 1_555
Sb0 Sr2 3.925237 1_556
Sb0 Sr2 4.049003 1_555
Sb1 Sr2 3.321613 1_455
Sb1 Sr0 3.321613 1_555
Sb1 Sr5 3.365523 1_555
Sb1 Sr7 3.516137 1_555
Sb1 Sr9 3.516140 1_455
Sb1 Sr8 3.524458 1_555
Sb1 Sr6 3.524461 1_455
Sb1 Sr1 3.925237 1_554
Sb1 Sr1 4.049003 1_555
Sb2 Sr5 3.321613 1_655
Sb2 Sr2 3.321613 1_545
Sb2 Sr0 3.365523 1_545
Sb2 Sr9 3.516137 1_555
Sb2 Sr7 3.516140 1_545
Sb2 Sr6 3.524459 1_555
Sb2 Sr8 3.524461 1_545
Sb2 Sr4 3.925237 1_554
Sb2 Sr4 4.049003 1_555
Sb3 Sr1 3.321613 1_545
Sb3 Sr3 3.321613 1_555
Sb3 Sr4 3.365523 1_555
Sb3 Sr7 3.516137 1_546
Sb3 Sr9 3.516140 1_556
Sb3 Sr8 3.524459 1_545
Sb3 Sr6 3.524461 1_555
Sb3 Sr0 3.925237 1_546
Sb3 Sr0 4.049003 1_545
Sb4 Sr3 3.321613 1_555
Sb4 Sr4 3.321613 1_455
Sb4 Sr1 3.365523 1_555
Sb4 Sr9 3.516137 1_456
Sb4 Sr7 3.516140 1_556
Sb4 Sr6 3.524458 1_455
Sb4 Sr8 3.524461 1_555
Sb4 Sr5 3.925237 1_556
Sb4 Sr5 4.049003 1_555
Sb5 Sr5 3.321613 1_555
Sb5 Sr0 3.321613 1_545
Sb5 Sr2 3.365523 1_555
Sb5 Sr9 3.516145 1_555
Sb5 Sr7 3.516145 1_555
Sb5 Sr6 3.524466 1_555
Sb5 Sr8 3.524467 1_555
Sb5 Sr3 3.925237 1_554
Sb5 Sr3 4.049003 1_555
Br0 Sr0 3.165597 1_545
Br0 Sr4 3.165597 1_455
Br0 Sr3 3.165597 1_555
Br0 Sr2 3.165597 1_445
Br0 Sr5 3.165597 1_555
Br0 Sr1 3.165597 1_545
Cl0 Sr0 3.096147 1_545
Cl0 Sr4 3.096147 1_454
Cl0 Sr3 3.096147 1_554
Cl0 Sr2 3.096147 1_445
Cl0 Sr5 3.096147 1_555
Cl0 Sr1 3.096147 1_544
