# generated using pymatgen
data_Zr3TeC
_symmetry_space_group_name_H-M   'P 1'
_cell_length_a   6.21358549
_cell_length_b   6.21358526
_cell_length_c   8.91677966
_cell_angle_alpha   90.00000000
_cell_angle_beta   90.00000000
_cell_angle_gamma   146.74130904
_symmetry_Int_Tables_number   1
_chemical_formula_structural   Zr3TeC
_chemical_formula_sum   'Zr6 Te2 C2'
_cell_volume   188.80170832
_cell_formula_units_Z   2
loop_
 _symmetry_equiv_pos_site_id
 _symmetry_equiv_pos_as_xyz
  1  'x, y, z'
loop_
 _atom_site_type_symbol
 _atom_site_label
 _atom_site_symmetry_multiplicity
 _atom_site_fract_x
 _atom_site_fract_y
 _atom_site_fract_z
 _atom_site_occupancy
  Zr  Zr0  1  0.37718266  0.62281934  0.04985803  1
  Zr  Zr1  1  0.04765164  0.95235036  0.25000000  1
  Zr  Zr2  1  0.37718266  0.62281934  0.45014197  1
  Zr  Zr3  1  0.62281934  0.37718266  0.54985803  1
  Zr  Zr4  1  0.95235036  0.04765164  0.75000000  1
  Zr  Zr5  1  0.62281934  0.37718266  0.95014197  1
  Te  Te0  1  0.74319247  0.25680953  0.25000000  1
  Te  Te1  1  0.25680953  0.74319247  0.75000000  1
  C  C0  1  0.00000000  0.00000000  0.00000000  1
  C  C1  1  0.00000000  0.00000000  0.50000000  1
loop_
_geom_bond_atom_site_label_1
_geom_bond_atom_site_label_2
_geom_bond_distance
_geom_bond_site_symmetry_2
Te0 Zr1 2.929740 1_655
Te0 Zr1 2.929740 1_545
Te0 Zr2 2.982015 1_545
Te0 Zr0 2.982015 1_545
Te0 Zr2 2.982015 1_655
Te0 Zr0 2.982015 1_655
Te0 Zr3 3.033724 1_555
Te0 Zr5 3.033724 1_554
Te1 Zr4 2.929740 1_455
Te1 Zr4 2.929740 1_565
Te1 Zr5 2.982015 1_565
Te1 Zr3 2.982015 1_565
Te1 Zr5 2.982015 1_455
Te1 Zr3 2.982015 1_455
Te1 Zr0 3.033724 1_556
Te1 Zr2 3.033724 1_555
C0 Zr4 2.300271 1_454
C0 Zr1 2.300271 1_545
C0 Zr5 2.344863 1_444
C0 Zr0 2.344863 1_445
C0 Zr0 2.344868 1_555
C0 Zr5 2.344868 1_554
C1 Zr4 2.300271 1_455
C1 Zr1 2.300271 1_545
C1 Zr3 2.344863 1_445
C1 Zr2 2.344863 1_445
C1 Zr2 2.344868 1_555
C1 Zr3 2.344868 1_555
