# generated using pymatgen
data_HfZr3Cu2O
_symmetry_space_group_name_H-M   'P 1'
_cell_length_a   8.64619581
_cell_length_b   8.64619553
_cell_length_c   8.64619617
_cell_angle_alpha   60.00000131
_cell_angle_beta   60.00000236
_cell_angle_gamma   60.00000052
_symmetry_Int_Tables_number   1
_chemical_formula_structural   HfZr3Cu2O
_chemical_formula_sum   'Hf4 Zr12 Cu8 O4'
_cell_volume   457.04632348
_cell_formula_units_Z   4
loop_
 _symmetry_equiv_pos_site_id
 _symmetry_equiv_pos_as_xyz
  1  'x, y, z'
loop_
 _atom_site_type_symbol
 _atom_site_label
 _atom_site_symmetry_multiplicity
 _atom_site_fract_x
 _atom_site_fract_y
 _atom_site_fract_z
 _atom_site_occupancy
  Hf  Hf0  1  0.12500000  0.62500000  0.62500000  1
  Hf  Hf1  1  0.62500000  0.12500000  0.62500000  1
  Hf  Hf2  1  0.62500000  0.62500000  0.12500000  1
  Hf  Hf3  1  0.62500000  0.62500000  0.62500000  1
  Zr  Zr0  1  0.81686887  0.81686887  0.18313113  1
  Zr  Zr1  1  0.18313113  0.18313113  0.81686887  1
  Zr  Zr2  1  0.81686887  0.18313113  0.81686887  1
  Zr  Zr3  1  0.18313113  0.81686887  0.18313113  1
  Zr  Zr4  1  0.18313113  0.81686887  0.81686887  1
  Zr  Zr5  1  0.81686887  0.18313113  0.18313113  1
  Zr  Zr6  1  0.43313113  0.43313113  0.06686887  1
  Zr  Zr7  1  0.06686887  0.06686887  0.43313113  1
  Zr  Zr8  1  0.43313113  0.06686887  0.43313113  1
  Zr  Zr9  1  0.06686887  0.43313113  0.06686887  1
  Zr  Zr10  1  0.06686887  0.43313113  0.43313113  1
  Zr  Zr11  1  0.43313113  0.06686887  0.06686887  1
  Cu  Cu0  1  0.74693993  0.41768669  0.41768669  1
  Cu  Cu1  1  0.41768669  0.74693993  0.41768669  1
  Cu  Cu2  1  0.41768669  0.41768669  0.74693993  1
  Cu  Cu3  1  0.41768669  0.41768669  0.41768669  1
  Cu  Cu4  1  0.50306007  0.83231331  0.83231331  1
  Cu  Cu5  1  0.83231331  0.50306007  0.83231331  1
  Cu  Cu6  1  0.83231331  0.83231331  0.50306007  1
  Cu  Cu7  1  0.83231331  0.83231331  0.83231331  1
  O  O0  1  0.62500000  0.12500000  0.12500000  1
  O  O1  1  0.12500000  0.62500000  0.12500000  1
  O  O2  1  0.12500000  0.12500000  0.62500000  1
  O  O3  1  0.12500000  0.12500000  0.12500000  1
loop_
_geom_bond_atom_site_label_1
_geom_bond_atom_site_label_2
_geom_bond_distance
_geom_bond_site_symmetry_2
Cu0 Hf1 2.640224 1_555
Cu0 Hf3 2.640224 1_555
Cu0 Hf2 2.640224 1_555
Cu0 Cu1 2.846788 1_555
Cu0 Cu3 2.846788 1_555
Cu0 Cu2 2.846788 1_555
Cu0 Zr7 2.905847 1_655
Cu0 Zr10 2.905847 1_655
Cu0 Zr9 2.905847 1_655
Cu0 Zr0 3.201832 1_555
Cu0 Zr5 3.201832 1_555
Cu0 Zr2 3.201832 1_555
Cu1 Hf3 2.640224 1_555
Cu1 Hf0 2.640224 1_555
Cu1 Hf2 2.640224 1_555
Cu1 Cu3 2.846788 1_555
Cu1 Cu2 2.846788 1_555
Cu1 Zr8 2.905847 1_565
Cu1 Zr7 2.905847 1_565
Cu1 Zr11 2.905847 1_565
Cu1 Zr3 3.201832 1_555
Cu1 Zr0 3.201832 1_555
Cu1 Zr4 3.201832 1_555
Cu2 Hf3 2.640224 1_555
Cu2 Hf1 2.640224 1_555
Cu2 Hf0 2.640224 1_555
Cu2 Cu3 2.846788 1_555
Cu2 Zr11 2.905847 1_556
Cu2 Zr6 2.905847 1_556
Cu2 Zr9 2.905847 1_556
Cu2 Zr4 3.201832 1_555
Cu2 Zr1 3.201832 1_555
Cu2 Zr2 3.201832 1_555
Cu3 Hf1 2.640224 1_555
Cu3 Hf0 2.640224 1_555
Cu3 Hf2 2.640224 1_555
Cu3 Zr8 2.905847 1_555
Cu3 Zr10 2.905847 1_555
Cu3 Zr6 2.905847 1_555
Cu3 Zr3 3.201832 1_555
Cu3 Zr5 3.201832 1_555
Cu3 Zr1 3.201832 1_555
Cu4 Hf1 2.640224 1_565
Cu4 Hf3 2.640224 1_555
Cu4 Hf2 2.640224 1_556
Cu4 Cu5 2.846788 1_555
Cu4 Cu7 2.846788 1_555
Cu4 Cu6 2.846788 1_555
Cu4 Zr1 2.905847 1_565
Cu4 Zr4 2.905847 1_555
Cu4 Zr3 2.905847 1_556
Cu4 Zr6 3.201832 1_556
Cu4 Zr11 3.201832 1_566
Cu4 Zr8 3.201832 1_565
Cu5 Hf3 2.640224 1_555
Cu5 Hf0 2.640224 1_655
Cu5 Hf2 2.640224 1_556
Cu5 Cu7 2.846788 1_555
Cu5 Cu6 2.846788 1_555
Cu5 Zr2 2.905847 1_555
Cu5 Zr1 2.905847 1_655
Cu5 Zr5 2.905847 1_556
Cu5 Zr9 3.201832 1_656
Cu5 Zr6 3.201832 1_556
Cu5 Zr10 3.201832 1_655
Cu6 Hf3 2.640224 1_555
Cu6 Hf1 2.640224 1_565
Cu6 Hf0 2.640224 1_655
Cu6 Cu7 2.846788 1_555
Cu6 Zr5 2.905847 1_565
Cu6 Zr0 2.905847 1_555
Cu6 Zr3 2.905847 1_655
Cu6 Zr10 3.201832 1_655
Cu6 Zr7 3.201832 1_665
Cu6 Zr8 3.201832 1_565
Cu7 Hf1 2.640224 1_565
Cu7 Hf0 2.640224 1_655
Cu7 Hf2 2.640224 1_556
Cu7 Zr2 2.905847 1_565
Cu7 Zr4 2.905847 1_655
Cu7 Zr0 2.905847 1_556
Cu7 Zr9 3.201832 1_656
Cu7 Zr11 3.201832 1_566
Cu7 Zr7 3.201832 1_665
O0 Zr6 2.275419 1_555
O0 Zr0 2.275419 1_545
O0 Zr5 2.275419 1_555
O0 Zr11 2.275419 1_555
O0 Zr8 2.275420 1_555
O0 Zr2 2.275420 1_554
O1 Zr3 2.275419 1_555
O1 Zr9 2.275419 1_555
O1 Zr6 2.275419 1_555
O1 Zr0 2.275419 1_455
O1 Zr4 2.275420 1_554
O1 Zr10 2.275420 1_555
O2 Zr10 2.275419 1_555
O2 Zr4 2.275419 1_545
O2 Zr1 2.275420 1_555
O2 Zr7 2.275420 1_555
O2 Zr8 2.275420 1_555
O2 Zr2 2.275420 1_455
O3 Zr9 2.275419 1_555
O3 Zr3 2.275419 1_545
O3 Zr11 2.275420 1_555
O3 Zr5 2.275420 1_455
O3 Zr7 2.275420 1_555
O3 Zr1 2.275420 1_554
