# generated using pymatgen
data_Cs4InMoCl12
_symmetry_space_group_name_H-M   'P 1'
_cell_length_a   7.47034992
_cell_length_b   7.47034992
_cell_length_c   10.11689851
_cell_angle_alpha   90.00000000
_cell_angle_beta   90.00000000
_cell_angle_gamma   90.00000000
_symmetry_Int_Tables_number   1
_chemical_formula_structural   Cs4InMoCl12
_chemical_formula_sum   'Cs4 In1 Mo1 Cl12'
_cell_volume   564.58493185
_cell_formula_units_Z   1
loop_
 _symmetry_equiv_pos_site_id
 _symmetry_equiv_pos_as_xyz
  1  'x, y, z'
loop_
 _atom_site_type_symbol
 _atom_site_label
 _atom_site_symmetry_multiplicity
 _atom_site_fract_x
 _atom_site_fract_y
 _atom_site_fract_z
 _atom_site_occupancy
  Cs  Cs0  1  0.50000000  0.00000000  0.76704018  1
  Cs  Cs1  1  0.00000000  0.50000000  0.23295982  1
  Cs  Cs2  1  0.50000000  0.00000000  0.23295982  1
  Cs  Cs3  1  0.00000000  0.50000000  0.76704018  1
  In  In0  1  0.00000000  0.00000000  0.00000000  1
  Mo  Mo0  1  0.50000000  0.50000000  0.50000000  1
  Cl  Cl0  1  0.00000000  0.00000000  0.74948386  1
  Cl  Cl1  1  0.50000000  0.50000000  0.27089304  1
  Cl  Cl2  1  0.72273472  0.72273472  0.50000000  1
  Cl  Cl3  1  0.24070320  0.24070320  0.00000000  1
  Cl  Cl4  1  0.72273472  0.27726528  0.50000000  1
  Cl  Cl5  1  0.24070320  0.75929680  0.00000000  1
  Cl  Cl6  1  0.00000000  0.00000000  0.25051614  1
  Cl  Cl7  1  0.50000000  0.50000000  0.72910696  1
  Cl  Cl8  1  0.27726528  0.27726528  0.50000000  1
  Cl  Cl9  1  0.75929680  0.75929680  0.00000000  1
  Cl  Cl10  1  0.27726528  0.72273472  0.50000000  1
  Cl  Cl11  1  0.75929680  0.24070320  0.00000000  1
loop_
_geom_bond_atom_site_label_1
_geom_bond_atom_site_label_2
_geom_bond_distance
_geom_bond_site_symmetry_2
Cl0 In0 2.534446 1_556
Cl0 Cs3 3.739396 1_545
Cl0 Cs3 3.739396 1_555
Cl0 Cs0 3.739396 1_555
Cl0 Cs0 3.739396 1_455
Cl1 Mo0 2.317852 1_555
Cl1 Cs1 3.754838 1_555
Cl1 Cs2 3.754838 1_565
Cl1 Cs1 3.754838 1_655
Cl1 Cs2 3.754838 1_555
Cl2 Mo0 2.353119 1_555
Cl2 Cs3 3.789127 1_655
Cl2 Cs0 3.789127 1_565
Cl2 Cs1 3.789127 1_655
Cl2 Cs2 3.789127 1_565
Cl3 In0 2.542950 1_555
Cl3 Cs2 3.541195 1_555
Cl3 Cs1 3.541195 1_555
Cl3 Cs0 3.541195 1_554
Cl3 Cs3 3.541195 1_554
Cl4 Mo0 2.353119 1_555
Cl4 Cs0 3.789127 1_555
Cl4 Cs3 3.789127 1_655
Cl4 Cs2 3.789127 1_555
Cl4 Cs1 3.789127 1_655
Cl5 In0 2.542950 1_565
Cl5 Cs1 3.541195 1_555
Cl5 Cs3 3.541195 1_554
Cl5 Cs2 3.541195 1_565
Cl5 Cs0 3.541195 1_564
Cl6 In0 2.534446 1_555
Cl6 Cs2 3.739396 1_555
Cl6 Cs1 3.739396 1_555
Cl6 Cs1 3.739396 1_545
Cl6 Cs2 3.739396 1_455
Cl7 Mo0 2.317852 1_555
Cl7 Cs0 3.754838 1_555
Cl7 Cs3 3.754838 1_655
Cl7 Cs0 3.754838 1_565
Cl7 Cs3 3.754838 1_555
Cl8 Mo0 2.353119 1_555
Cl8 Cs0 3.789127 1_555
Cl8 Cs3 3.789127 1_555
Cl8 Cs2 3.789127 1_555
Cl8 Cs1 3.789127 1_555
Cl9 In0 2.542950 1_665
Cl9 Cs2 3.541195 1_565
Cl9 Cs1 3.541195 1_655
Cl9 Cs0 3.541195 1_564
Cl9 Cs3 3.541195 1_654
Cl10 Mo0 2.353119 1_555
Cl10 Cs3 3.789127 1_555
Cl10 Cs0 3.789127 1_565
Cl10 Cs1 3.789127 1_555
Cl10 Cs2 3.789127 1_565
Cl11 In0 2.542950 1_655
Cl11 Cs2 3.541195 1_555
Cl11 Cs0 3.541195 1_554
Cl11 Cs1 3.541195 1_655
Cl11 Cs3 3.541195 1_654
