# generated using pymatgen
data_B36O5
_symmetry_space_group_name_H-M   'P 1'
_cell_length_a   7.41053200
_cell_length_b   7.41035387
_cell_length_c   11.59296564
_cell_angle_alpha   87.34021340
_cell_angle_beta   73.46900386
_cell_angle_gamma   87.94909739
_symmetry_Int_Tables_number   1
_chemical_formula_structural   B36O5
_chemical_formula_sum   'B72 O10'
_cell_volume   609.48253476
_cell_formula_units_Z   2
loop_
 _symmetry_equiv_pos_site_id
 _symmetry_equiv_pos_as_xyz
  1  'x, y, z'
loop_
 _atom_site_type_symbol
 _atom_site_label
 _atom_site_symmetry_multiplicity
 _atom_site_fract_x
 _atom_site_fract_y
 _atom_site_fract_z
 _atom_site_occupancy
  B  B0  1  0.61401500  0.93859100  0.37389400  1
  B  B1  1  0.66936000  0.16748000  0.33140500  1
  B  B2  1  0.21545200  0.16526300  0.55622900  1
  B  B3  1  0.28587400  0.28391600  0.28589700  1
  B  B4  1  0.45985000  0.43350600  0.19814700  1
  B  B5  1  0.54015000  0.56649400  0.80185300  1
  B  B6  1  0.11175100  0.43496600  0.37236100  1
  B  B7  1  0.38776300  0.66402800  0.22066000  1
  B  B8  1  0.22081300  0.49642600  0.22007700  1
  B  B9  1  0.46104200  0.79962100  0.95888700  1
  B  B10  1  0.63975700  0.93060800  0.85920000  1
  B  B11  1  0.16719000  0.66466700  0.33118800  1
  B  B12  1  0.33064000  0.83252000  0.66859500  1
  B  B13  1  0.27898100  0.94053500  0.04114800  1
  B  B14  1  0.55740800  0.16549300  0.88571200  1
  B  B15  1  0.39172400  0.99973500  0.88571900  1
  B  B16  1  0.72349400  0.67511100  0.55707700  1
  B  B17  1  0.27481900  0.99790600  0.77917200  1
  B  B18  1  0.62531000  0.30184600  0.62638700  1
  B  B19  1  0.38598500  0.06140900  0.62610600  1
  B  B20  1  0.33286800  0.16787500  0.99854500  1
  B  B21  1  0.79591700  0.79936600  0.29181900  1
  B  B22  1  0.96714900  0.94137700  0.19797600  1
  B  B23  1  0.49825800  0.32541100  0.33257000  1
  B  B24  1  0.03285100  0.05862300  0.80202400  1
  B  B25  1  0.20408300  0.20063400  0.70818100  1
  B  B26  1  0.44518200  0.44233300  0.70807500  1
  B  B27  1  0.55535600  0.50581000  0.55537800  1
  B  B28  1  0.72518100  0.00209400  0.22082800  1
  B  B29  1  0.89330200  0.16951700  0.22027000  1
  B  B30  1  0.44464400  0.49419000  0.44462200  1
  B  B31  1  0.27650600  0.32488900  0.44292300  1
  B  B32  1  0.55481800  0.55766700  0.29192500  1
  B  B33  1  0.50174200  0.67458900  0.66743000  1
  B  B34  1  0.95879500  0.29848200  0.95897900  1
  B  B35  1  0.12833800  0.43881300  0.86566300  1
  B  B36  1  0.20496800  0.55766400  0.46656800  1
  B  B37  1  0.37469000  0.69815400  0.37361300  1
  B  B38  1  0.83281000  0.33533300  0.66881200  1
  B  B39  1  0.77803600  0.43825000  0.04103200  1
  B  B40  1  0.05387200  0.66708600  0.88919700  1
  B  B41  1  0.88825900  0.50151500  0.88920800  1
  B  B42  1  0.60827600  0.00026500  0.11428100  1
  B  B43  1  0.44259200  0.83450700  0.11428800  1
  B  B44  1  0.77918700  0.50357400  0.77992300  1
  B  B45  1  0.12150500  0.79695400  0.62734100  1
  B  B46  1  0.88824900  0.56503400  0.62763900  1
  B  B47  1  0.29208900  0.93716800  0.53335600  1
  B  B48  1  0.83239400  0.66747100  0.00027800  1
  B  B49  1  0.36024300  0.06939200  0.14080000  1
  B  B50  1  0.53895800  0.20037900  0.04111300  1
  B  B51  1  0.00846800  0.83554400  0.33182700  1
  B  B52  1  0.71412600  0.71608400  0.71410300  1
  B  B53  1  0.92715600  0.92846200  0.71409000  1
  B  B54  1  0.04761700  0.99848100  0.55794900  1
  B  B55  1  0.61223700  0.33597200  0.77934000  1
  B  B56  1  0.95238300  0.00151900  0.44205100  1
  B  B57  1  0.78454800  0.83473700  0.44377100  1
  B  B58  1  0.07284400  0.07153800  0.28591000  1
  B  B59  1  0.99153200  0.16445600  0.66817300  1
  B  B60  1  0.16760600  0.33252900  0.99972200  1
  B  B61  1  0.70791100  0.06283200  0.46664400  1
  B  B62  1  0.87849500  0.20304600  0.37265900  1
  B  B63  1  0.11174100  0.49848500  0.11079200  1
  B  B64  1  0.94612800  0.33291400  0.11080300  1
  B  B65  1  0.22196400  0.56175000  0.95896800  1
  B  B66  1  0.79503200  0.44233600  0.53343200  1
  B  B67  1  0.87166200  0.56118700  0.13433700  1
  B  B68  1  0.04120500  0.70151800  0.04102100  1
  B  B69  1  0.10669800  0.83048300  0.77973000  1
  B  B70  1  0.66713200  0.83212500  0.00145500  1
  B  B71  1  0.72101900  0.05946500  0.95885200  1
  O  O0  1  0.58087900  0.37752000  0.07978500  1
  O  O1  1  0.41912100  0.62248000  0.92021500  1
  O  O2  1  0.58542200  0.12306700  0.58577500  1
  O  O3  1  0.08239600  0.87949100  0.07960300  1
  O  O4  1  0.24700400  0.37947800  0.74720200  1
  O  O5  1  0.91760400  0.12050900  0.92039700  1
  O  O6  1  0.41457800  0.87693300  0.41422500  1
  O  O7  1  0.08645200  0.61957500  0.58524500  1
  O  O8  1  0.91354800  0.38042500  0.41475500  1
  O  O9  1  0.75299600  0.62052200  0.25279800  1
loop_
_geom_bond_atom_site_label_1
_geom_bond_atom_site_label_2
_geom_bond_distance
_geom_bond_site_symmetry_2
B0 O6 1.498977 1_555
B0 B1 1.773428 1_565
B0 B28 1.779683 1_565
B0 B57 1.816769 1_555
B1 B23 1.692060 1_555
B1 B28 1.767542 1_555
B1 B62 1.778428 1_555
B1 B29 1.788143 1_555
B1 B61 1.807549 1_555
B2 B31 1.698599 1_555
B2 B25 1.770808 1_555
B2 B47 1.771168 1_545
B2 B54 1.780002 1_545
B2 B59 1.792273 1_455
B3 B4 1.782449 1_555
B3 B6 1.785320 1_555
B3 B8 1.827047 1_555
B3 B31 1.840849 1_555
B3 B58 2.268632 1_555
B3 B49 2.306138 1_555
B4 O0 1.478254 1_555
B4 B8 1.765069 1_555
B4 B7 1.779980 1_555
B5 O1 1.478254 1_555
B5 B55 1.779980 1_555
B5 B52 1.782449 1_555
B6 O8 1.474958 1_455
B6 B8 1.765532 1_555
B7 B8 1.785704 1_555
B9 O1 1.477731 1_555
B10 B71 1.774399 1_565
B10 B9 1.774439 1_555
B10 B15 1.833311 1_555
B10 B70 1.833455 1_556
B10 B14 1.833953 1_565
B10 B52 2.306138 1_555
B10 B53 2.308112 1_555
B11 B51 1.695953 1_555
B11 B7 1.766861 1_555
B11 B37 1.771149 1_555
B11 B6 1.776805 1_555
B11 B8 1.787107 1_555
B11 B36 1.813547 1_555
B12 B33 1.692060 1_555
B12 B17 1.767542 1_555
B12 B19 1.773428 1_565
B12 B45 1.778428 1_555
B12 B69 1.788143 1_555
B12 B47 1.807549 1_555
B13 O3 1.478007 1_555
B13 B20 1.760739 1_564
B13 B49 1.774399 1_565
B13 B15 1.798176 1_554
B13 B43 1.805911 1_555
B14 B55 1.699636 1_555
B14 B15 1.767533 1_545
B14 B50 1.797682 1_556
B14 B20 1.800429 1_555
B14 B71 1.805911 1_555
B15 B17 1.699342 1_555
B15 B20 1.800343 1_565
B15 B9 1.805298 1_555
B16 B57 1.698599 1_555
B16 B33 1.772216 1_555
B16 B66 1.796484 1_555
B16 B27 1.804162 1_555
B16 B46 1.805640 1_555
B16 B52 1.840849 1_555
B17 B19 1.779683 1_565
B17 B24 1.780692 1_565
B17 B69 1.787952 1_555
B17 B25 1.812002 1_565
B18 O2 1.493081 1_555
B18 B38 1.771149 1_555
B18 B55 1.777529 1_555
B18 B27 1.817184 1_555
B19 O2 1.498977 1_555
B19 B2 1.816769 1_555
B20 B60 1.695246 1_555
B20 B50 1.760754 1_556
B20 B49 1.833455 1_556
B21 O9 1.493289 1_555
B21 B57 1.770808 1_555
B21 B51 1.795964 1_655
B21 B28 1.812002 1_565
B22 O3 1.478621 1_655
B22 B29 1.765855 1_565
B22 B28 1.780692 1_565
B22 B58 1.784025 1_665
B22 B51 1.804698 1_655
B23 B31 1.772216 1_555
B23 B32 1.795512 1_555
B23 B30 1.797525 1_555
B23 B4 1.808694 1_555
B23 B3 1.843666 1_555
B24 O5 1.478621 1_455
B24 B69 1.765855 1_545
B24 B53 1.784025 1_445
B24 B59 1.804698 1_455
B25 O4 1.493289 1_555
B25 B59 1.795964 1_455
B26 O4 1.493239 1_555
B26 B27 1.774609 1_555
B26 B33 1.795512 1_555
B26 B55 1.813310 1_555
B27 B30 1.715795 1_555
B27 B66 1.770525 1_555
B27 B33 1.797525 1_555
B28 B42 1.699342 1_555
B28 B29 1.787952 1_555
B29 B64 1.684768 1_555
B29 B62 1.767276 1_555
B29 B58 1.825431 1_655
B30 B36 1.770525 1_555
B30 B32 1.774609 1_555
B30 B31 1.804162 1_555
B30 B37 1.817184 1_555
B31 B36 1.796484 1_555
B31 B6 1.805640 1_555
B32 O9 1.493239 1_555
B32 B7 1.813310 1_555
B33 B5 1.808694 1_555
B33 B52 1.843666 1_555
B34 O5 1.481162 1_555
B34 B64 1.765723 1_556
B34 B60 1.770912 1_655
B34 B41 1.806237 1_555
B35 O4 1.481133 1_555
B35 B40 1.769394 1_555
B35 B41 1.769716 1_455
B35 B60 1.802139 1_555
B36 O7 1.488901 1_555
B37 O6 1.493081 1_555
B37 B7 1.777529 1_555
B38 B59 1.695953 1_555
B38 B55 1.766861 1_555
B38 B46 1.776805 1_555
B38 B44 1.787107 1_555
B38 B66 1.813547 1_555
B39 O0 1.481136 1_555
B39 B41 1.765668 1_554
B39 B48 1.771142 1_555
B39 B64 1.805647 1_555
B40 B69 1.684768 1_555
B40 B68 1.765723 1_556
B40 B41 1.766146 1_455
B40 B48 1.774639 1_456
B40 B65 1.805647 1_555
B41 B44 1.684860 1_555
B41 B48 1.774527 1_556
B42 B43 1.767533 1_545
B42 B71 1.798176 1_554
B42 B70 1.800343 1_545
B42 B50 1.805298 1_555
B42 B49 1.833311 1_555
B43 B7 1.699636 1_555
B43 B9 1.797682 1_554
B43 B70 1.800429 1_555
B43 B49 1.833953 1_565
B44 B5 1.765069 1_555
B44 B46 1.765532 1_555
B44 B55 1.785704 1_555
B44 B52 1.827047 1_555
B45 O7 1.479698 1_555
B45 B69 1.767276 1_555
B45 B53 1.789302 1_455
B45 B54 1.804939 1_555
B46 O7 1.474958 1_655
B46 B52 1.785320 1_555
B47 O6 1.498459 1_555
B47 B54 1.796951 1_555
B48 B70 1.695246 1_555
B48 B68 1.770912 1_655
B48 B67 1.802139 1_555
B49 B50 1.774439 1_555
B49 B58 2.308112 1_555
B50 O0 1.477731 1_555
B51 B56 1.767869 1_465
B51 B57 1.792273 1_455
B51 B58 1.843379 1_565
B52 B53 2.268632 1_555
B53 B69 1.825431 1_655
B53 B54 1.835521 1_655
B53 B59 1.843379 1_565
B54 B56 1.685080 1_465
B54 B59 1.767869 1_465
B56 B57 1.780002 1_545
B56 B61 1.796951 1_555
B56 B62 1.804939 1_555
B56 B58 1.835521 1_655
B57 B61 1.771168 1_565
B58 B62 1.789302 1_455
B60 B65 1.771142 1_555
B60 B63 1.774527 1_556
B60 B64 1.774639 1_456
B61 O2 1.498459 1_555
B62 O8 1.479698 1_555
B63 B8 1.684860 1_555
B63 B65 1.765668 1_554
B63 B64 1.766146 1_455
B63 B67 1.769716 1_455
B63 B68 1.806237 1_555
B64 B67 1.769394 1_555
B65 O1 1.481136 1_555
B66 O8 1.488901 1_555
B67 O9 1.481133 1_555
B68 O3 1.481162 1_555
B70 B71 1.760739 1_564
B70 B9 1.760754 1_554
B71 O5 1.478007 1_555
