# generated using pymatgen
data_Ti3BeGe2Ru3
_symmetry_space_group_name_H-M   'P 1'
_cell_length_a   6.70623674
_cell_length_b   6.33397508
_cell_length_c   7.41641898
_cell_angle_alpha   115.27830228
_cell_angle_beta   116.88295648
_cell_angle_gamma   89.99953724
_symmetry_Int_Tables_number   1
_chemical_formula_structural   Ti3BeGe2Ru3
_chemical_formula_sum   'Ti6 Be2 Ge4 Ru6'
_cell_volume   246.69019349
_cell_formula_units_Z   2
loop_
 _symmetry_equiv_pos_site_id
 _symmetry_equiv_pos_as_xyz
  1  'x, y, z'
loop_
 _atom_site_type_symbol
 _atom_site_label
 _atom_site_symmetry_multiplicity
 _atom_site_fract_x
 _atom_site_fract_y
 _atom_site_fract_z
 _atom_site_occupancy
  Ti  Ti0  1  0.24671844  0.44459277  0.38917939  1
  Ti  Ti1  1  0.85751503  0.55539273  0.61077349  1
  Ti  Ti2  1  0.63532455  0.74981701  0.99962072  1
  Ti  Ti3  1  0.63570436  0.25017736  0.00035858  1
  Ti  Ti4  1  0.85818744  0.05573418  0.61146630  1
  Ti  Ti5  1  0.24670777  0.94426188  0.38850482  1
  Be  Be0  1  0.24666457  0.25009002  0.00022086  1
  Be  Be1  1  0.24643290  0.74989774  0.99986185  1
  Ge  Ge0  1  0.58004146  0.83361085  0.66665554  1
  Ge  Ge1  1  0.91339506  0.16638435  0.33333347  1
  Ge  Ge2  1  0.91338981  0.66695055  0.33332416  1
  Ge  Ge3  1  0.58004768  0.33305047  0.66666489  1
  Ru  Ru0  1  0.00032226  0.99998607  0.99998645  1
  Ru  Ru1  1  0.00032199  0.49997876  0.99998615  1
  Ru  Ru2  1  0.49307754  0.62330124  0.24636556  1
  Ru  Ru3  1  0.24673658  0.37674724  0.75366796  1
  Ru  Ru4  1  0.24673280  0.87693979  0.75366791  1
  Ru  Ru5  1  0.49307676  0.12308699  0.24636188  1
loop_
_geom_bond_atom_site_label_1
_geom_bond_atom_site_label_2
_geom_bond_distance
_geom_bond_site_symmetry_2
Be0 Ru0 2.287758 1_544
Be0 Ru1 2.287825 1_554
Be0 Ru5 2.288303 1_555
Be0 Ru2 2.288640 1_555
Be0 Ru4 2.289020 1_544
Be0 Ru3 2.289270 1_554
Be0 Ti4 2.606028 1_454
Be0 Ti0 2.608274 1_555
Be0 Ti3 2.608531 1_555
Be1 Ru1 2.287481 1_555
Be1 Ru0 2.287659 1_555
Be1 Ru3 2.288640 1_555
Be1 Ru2 2.288757 1_556
Be1 Ru4 2.288984 1_555
Be1 Ru5 2.289183 1_566
Be1 Ti5 2.605417 1_556
Be1 Ti1 2.608624 1_455
Be1 Ti2 2.608809 1_555
Ge0 Ru0 2.576797 1_655
Ge0 Ru2 2.576920 1_555
Ge0 Ru4 2.577069 1_555
Ge0 Ti5 2.609258 1_555
Ge0 Ti2 2.609312 1_555
Ge0 Ti4 2.609340 1_565
Ge0 Ti0 2.610101 1_555
Ge0 Ti1 2.610255 1_555
Ge0 Ti3 2.610341 1_566
Ge1 Ru0 2.576950 1_644
Ge1 Ru3 2.577061 1_655
Ge1 Ru5 2.577082 1_555
Ge1 Ti5 2.609169 1_645
Ge1 Ti3 2.609306 1_555
Ge1 Ti4 2.609314 1_555
Ge1 Ti1 2.610134 1_555
Ge1 Ti0 2.610178 1_655
Ge1 Ti2 2.610360 1_544
Ge2 Ru1 2.576913 1_654
Ge2 Ru2 2.577070 1_555
Ge2 Ru4 2.577105 1_655
Ge2 Ti5 2.609254 1_655
Ge2 Ti3 2.609346 1_555
Ge2 Ti4 2.609348 1_565
Ge2 Ti1 2.610126 1_555
Ge2 Ti0 2.610161 1_655
Ge2 Ti2 2.610303 1_554
Ge3 Ru1 2.576748 1_655
Ge3 Ru5 2.576991 1_555
Ge3 Ru3 2.577044 1_555
Ge3 Ti5 2.609271 1_545
Ge3 Ti4 2.609320 1_555
Ge3 Ti2 2.609351 1_555
Ge3 Ti0 2.610117 1_555
Ge3 Ti3 2.610294 1_556
Ge3 Ti1 2.610310 1_555
Ru0 Ti5 2.778537 1_556
Ru0 Ti4 2.778670 1_465
Ru0 Ti0 2.781584 1_566
Ru0 Ti1 2.781623 1_455
Ru0 Ti3 2.914219 1_466
Ru0 Ti2 2.914236 1_455
Ru1 Ti4 2.778620 1_455
Ru1 Ti5 2.778727 1_556
Ru1 Ti0 2.781443 1_556
Ru1 Ti1 2.781706 1_455
Ru1 Ti3 2.914180 1_456
Ru1 Ti2 2.914334 1_455
Ru2 Ti5 2.778268 1_555
Ru2 Ti3 2.779336 1_555
Ru2 Ti2 2.780649 1_554
Ru2 Ti0 2.781927 1_555
Ru2 Ti1 2.912333 1_555
Ru2 Ti4 2.915430 1_565
Ru3 Ti4 2.778445 1_455
Ru3 Ti2 2.778908 1_555
Ru3 Ti3 2.780475 1_556
Ru3 Ti1 2.781935 1_455
Ru3 Ti0 2.912687 1_555
Ru3 Ti5 2.915840 1_545
Ru4 Ti4 2.778330 1_465
Ru4 Ti2 2.778904 1_555
Ru4 Ti3 2.780450 1_566
Ru4 Ti1 2.781976 1_455
Ru4 Ti0 2.912767 1_555
Ru4 Ti5 2.915825 1_555
Ru5 Ti5 2.778305 1_545
Ru5 Ti3 2.779210 1_555
Ru5 Ti2 2.780682 1_544
Ru5 Ti0 2.781868 1_555
Ru5 Ti1 2.912349 1_555
Ru5 Ti4 2.915474 1_555
