# generated using pymatgen
data_Na2Zr6MnCl15
_symmetry_space_group_name_H-M   'P 1'
_cell_length_a   9.16645335
_cell_length_b   9.16645215
_cell_length_c   9.16645327
_cell_angle_alpha   108.71579326
_cell_angle_beta   108.71578918
_cell_angle_gamma   110.99287853
_symmetry_Int_Tables_number   1
_chemical_formula_structural   Na2Zr6MnCl15
_chemical_formula_sum   'Na2 Zr6 Mn1 Cl15'
_cell_volume   592.58623760
_cell_formula_units_Z   1
loop_
 _symmetry_equiv_pos_site_id
 _symmetry_equiv_pos_as_xyz
  1  'x, y, z'
loop_
 _atom_site_type_symbol
 _atom_site_label
 _atom_site_symmetry_multiplicity
 _atom_site_fract_x
 _atom_site_fract_y
 _atom_site_fract_z
 _atom_site_occupancy
  Na  Na0  1  0.25000000  0.75000000  0.50000000  1
  Na  Na1  1  0.75000000  0.25000000  0.50000000  1
  Zr  Zr0  1  0.76380948  0.76380948  1.00000000  1
  Zr  Zr1  1  0.00000000  0.22459435  0.22459435  1
  Zr  Zr2  1  0.22459435  1.00000000  0.22459435  1
  Zr  Zr3  1  0.23619052  0.23619052  0.00000000  1
  Zr  Zr4  1  1.00000000  0.77540565  0.77540565  1
  Zr  Zr5  1  0.77540565  0.00000000  0.77540565  1
  Mn  Mn0  1  0.00000000  0.00000000  0.00000000  1
  Cl  Cl0  1  0.50000000  0.50000000  0.00000000  1
  Cl  Cl1  1  0.00000000  0.50000000  0.50000000  1
  Cl  Cl2  1  0.50000000  0.00000000  0.50000000  1
  Cl  Cl3  1  0.23968528  0.23968528  0.47936956  1
  Cl  Cl4  1  0.99361252  0.75196607  0.24164645  1
  Cl  Cl5  1  0.75196607  0.99361252  0.24164645  1
  Cl  Cl6  1  0.23968528  0.76031472  1.00000000  1
  Cl  Cl7  1  0.48967937  0.24803393  0.24164645  1
  Cl  Cl8  1  0.24803393  0.00638748  0.75835355  1
  Cl  Cl9  1  0.76031472  0.23968528  0.00000000  1
  Cl  Cl10  1  0.00638748  0.24803393  0.75835355  1
  Cl  Cl11  1  0.24803393  0.48967937  0.24164645  1
  Cl  Cl12  1  0.76031472  0.76031472  0.52063044  1
  Cl  Cl13  1  0.51032063  0.75196607  0.75835355  1
  Cl  Cl14  1  0.75196607  0.51032063  0.75835355  1
loop_
_geom_bond_atom_site_label_1
_geom_bond_atom_site_label_2
_geom_bond_distance
_geom_bond_site_symmetry_2
Mn0 Zr1 2.399332 1_555
Mn0 Zr4 2.399332 1_444
Mn0 Zr2 2.399332 1_545
Mn0 Zr5 2.399332 1_454
Mn0 Zr3 2.452794 1_555
Mn0 Zr0 2.452794 1_444
Cl0 Zr0 2.739612 1_554
Cl0 Zr3 2.739612 1_555
Cl1 Na1 2.596203 1_455
Cl1 Na0 2.596203 1_555
Cl1 Zr4 2.942147 1_455
Cl1 Zr1 2.942147 1_555
Cl2 Na1 2.596203 1_555
Cl2 Na0 2.596203 1_545
Cl2 Zr5 2.942147 1_555
Cl2 Zr2 2.942147 1_545
Cl3 Zr2 2.565612 1_545
Cl3 Zr1 2.565612 1_555
Cl4 Zr2 2.582219 1_655
Cl4 Zr0 2.584427 1_554
Cl4 Na0 2.760056 1_655
Cl5 Zr1 2.582219 1_665
Cl5 Zr0 2.584427 1_554
Cl5 Na1 2.760055 1_565
Cl6 Zr2 2.565618 1_556
Cl6 Zr4 2.565618 1_455
Cl7 Zr2 2.582214 1_545
Cl7 Zr3 2.584421 1_555
Cl7 Na1 2.760061 1_555
Cl8 Zr4 2.582219 1_445
Cl8 Zr3 2.584427 1_556
Cl8 Na0 2.760055 1_545
Cl9 Zr5 2.565618 1_554
Cl9 Zr1 2.565618 1_655
Cl10 Zr5 2.582219 1_455
Cl10 Zr3 2.584427 1_556
Cl10 Na1 2.760056 1_455
Cl11 Zr1 2.582213 1_555
Cl11 Zr3 2.584421 1_555
Cl11 Na0 2.760061 1_555
Cl12 Zr5 2.565612 1_565
Cl12 Zr4 2.565612 1_555
Cl13 Zr5 2.582214 1_565
Cl13 Zr0 2.584421 1_555
Cl13 Na0 2.760061 1_555
Cl14 Zr4 2.582213 1_555
Cl14 Zr0 2.584421 1_555
Cl14 Na1 2.760061 1_555
