# generated using pymatgen
data_KH3Au
_symmetry_space_group_name_H-M   'P 1'
_cell_length_a   5.68670864
_cell_length_b   5.68670839
_cell_length_c   5.68670820
_cell_angle_alpha   115.51741537
_cell_angle_beta   115.51741263
_cell_angle_gamma   97.95696795
_symmetry_Int_Tables_number   1
_chemical_formula_structural   KH3Au
_chemical_formula_sum   'K2 H6 Au2'
_cell_volume   137.41032391
_cell_formula_units_Z   2
loop_
 _symmetry_equiv_pos_site_id
 _symmetry_equiv_pos_as_xyz
  1  'x, y, z'
loop_
 _atom_site_type_symbol
 _atom_site_label
 _atom_site_symmetry_multiplicity
 _atom_site_fract_x
 _atom_site_fract_y
 _atom_site_fract_z
 _atom_site_occupancy
  K  K0  1  0.75000000  0.75000000  0.00000000  1
  K  K1  1  0.25000000  0.25000000  0.00000000  1
  H  H0  1  0.80645354  0.30645354  0.11290709  1
  H  H1  1  0.75000000  0.25000000  0.50000000  1
  H  H2  1  0.69354646  0.80645354  0.50000000  1
  H  H3  1  0.25000000  0.75000000  0.50000000  1
  H  H4  1  0.30645354  0.19354646  0.50000000  1
  H  H5  1  0.19354646  0.69354646  0.88709291  1
  Au  Au0  1  0.50000000  0.00000000  0.50000000  1
  Au  Au1  1  0.00000000  0.50000000  0.50000000  1
loop_
_geom_bond_atom_site_label_1
_geom_bond_atom_site_label_2
_geom_bond_distance
_geom_bond_site_symmetry_2
H0 K0 2.884324 1_545
H0 K0 2.884324 1_555
H0 K1 2.884324 1_555
H0 K1 2.884324 1_655
H1 K0 3.033779 1_556
H1 K0 3.033779 1_545
H1 K1 3.033779 1_555
H1 K1 3.033779 1_656
H2 K1 2.884323 1_555
H2 K1 2.884324 1_666
H2 K0 2.884324 1_555
H2 K0 2.884324 1_556
H3 K1 3.033779 1_555
H3 K1 3.033779 1_566
H3 K0 3.033779 1_455
H3 K0 3.033779 1_556
H4 K0 2.884323 1_556
H4 K0 2.884324 1_445
H4 K1 2.884324 1_556
H4 K1 2.884324 1_555
H5 K1 2.884324 1_566
H5 K1 2.884324 1_556
H5 K0 2.884324 1_556
H5 K0 2.884324 1_456
Au0 H4 1.660788 1_555
Au0 H2 1.660788 1_545
Au0 H3 1.866214 1_545
Au0 H1 1.866214 1_555
Au1 H5 1.660788 1_555
Au1 H0 1.660788 1_455
Au1 H3 1.866214 1_555
Au1 H1 1.866214 1_455
