# generated using pymatgen
data_KBaH6Ir
_symmetry_space_group_name_H-M   'P 1'
_cell_length_a   5.69283511
_cell_length_b   5.69283446
_cell_length_c   5.69283478
_cell_angle_alpha   59.99999814
_cell_angle_beta   60.00000191
_cell_angle_gamma   59.99999750
_symmetry_Int_Tables_number   1
_chemical_formula_structural   KBaH6Ir
_chemical_formula_sum   'K1 Ba1 H6 Ir1'
_cell_volume   130.45800561
_cell_formula_units_Z   1
loop_
 _symmetry_equiv_pos_site_id
 _symmetry_equiv_pos_as_xyz
  1  'x, y, z'
loop_
 _atom_site_type_symbol
 _atom_site_label
 _atom_site_symmetry_multiplicity
 _atom_site_fract_x
 _atom_site_fract_y
 _atom_site_fract_z
 _atom_site_occupancy
  K  K0  1  0.25000000  0.25000000  0.25000000  1
  Ba  Ba0  1  0.75000000  0.75000000  0.75000000  1
  H  H0  1  0.79129801  0.20870199  0.20870199  1
  H  H1  1  0.20870199  0.79129801  0.20870199  1
  H  H2  1  0.79129801  0.79129801  0.20870199  1
  H  H3  1  0.20870199  0.79129801  0.79129801  1
  H  H4  1  0.79129801  0.20870199  0.79129801  1
  H  H5  1  0.20870199  0.20870199  0.79129801  1
  Ir  Ir0  1  0.00000000  0.00000000  0.00000000  1
loop_
_geom_bond_atom_site_label_1
_geom_bond_atom_site_label_2
_geom_bond_distance
_geom_bond_site_symmetry_2
Ba0 H0 2.865770 1_556
Ba0 H4 2.865770 1_555
Ba0 H5 2.865770 1_655
Ba0 H4 2.865770 1_565
Ba0 H0 2.865770 1_565
Ba0 H5 2.865770 1_565
Ba0 H2 2.865770 1_556
Ba0 H2 2.865770 1_555
Ba0 H3 2.865770 1_655
Ba0 H1 2.865770 1_655
Ba0 H1 2.865770 1_556
Ba0 H3 2.865770 1_555
H0 Ir0 1.680235 1_655
H0 K0 2.865770 1_655
H0 K0 2.865770 1_555
H1 Ir0 1.680235 1_565
H1 K0 2.865770 1_555
H1 K0 2.865770 1_565
H2 Ir0 1.680236 1_665
H2 K0 2.865770 1_655
H2 K0 2.865770 1_565
H3 Ir0 1.680235 1_566
H3 K0 2.865770 1_556
H3 K0 2.865770 1_565
H4 Ir0 1.680235 1_656
H4 K0 2.865770 1_655
H4 K0 2.865770 1_556
H5 Ir0 1.680236 1_556
H5 K0 2.865770 1_555
H5 K0 2.865770 1_556
