# generated using pymatgen
data_Rb2V(TeO4)3
_symmetry_space_group_name_H-M   'P 1'
_cell_length_a   7.06067362
_cell_length_b   7.17560231
_cell_length_c   7.06085091
_cell_angle_alpha   89.99990435
_cell_angle_beta   61.09152864
_cell_angle_gamma   120.54045072
_symmetry_Int_Tables_number   1
_chemical_formula_structural   Rb2V(TeO4)3
_chemical_formula_sum   'Rb2 V1 Te3 O12'
_cell_volume   254.99744586
_cell_formula_units_Z   1
loop_
 _symmetry_equiv_pos_site_id
 _symmetry_equiv_pos_as_xyz
  1  'x, y, z'
loop_
 _atom_site_type_symbol
 _atom_site_label
 _atom_site_symmetry_multiplicity
 _atom_site_fract_x
 _atom_site_fract_y
 _atom_site_fract_z
 _atom_site_occupancy
  Rb  Rb0  1  0.26128926  0.12800232  0.63063384  1
  Rb  Rb1  1  0.73872456  0.86672651  0.36936833  1
  V  V0  1  0.00000729  0.49732100  0.99996288  1
  Te  Te0  1  0.50002621  0.49730019  0.00001289  1
  Te  Te1  1  0.49995965  0.99730023  0.99999165  1
  Te  Te2  1  0.99999560  0.49732397  0.49999989  1
  O  O0  1  0.64830907  0.82148105  0.93072676  1
  O  O1  1  0.86301575  0.42886153  0.31901465  1
  O  O2  1  0.25056747  0.42887271  0.93154418  1
  O  O3  1  0.25485878  0.82147822  0.32412856  1
  O  O4  1  0.25056848  0.81637492  0.93146371  1
  O  O5  1  0.25484534  0.42802006  0.32415381  1
  O  O6  1  0.35171349  0.17318374  0.06927630  1
  O  O7  1  0.13695298  0.56581111  0.68096542  1
  O  O8  1  0.74944045  0.56581493  0.06854695  1
  O  O9  1  0.74510703  0.17314857  0.67586843  1
  O  O10  1  0.74945653  0.17831673  0.06844795  1
  O  O11  1  0.74515905  0.56666321  0.67589279  1
loop_
_geom_bond_atom_site_label_1
_geom_bond_atom_site_label_2
_geom_bond_distance
_geom_bond_site_symmetry_2
O0 Te1 1.943119 1_555
O0 Te0 1.943272 1_556
O0 Rb0 3.085198 1_665
O1 Te2 1.876669 1_555
O1 V0 1.913710 1_654
O1 Rb0 3.031984 1_555
O2 Te0 1.876565 1_556
O2 V0 1.913424 1_555
O2 Rb0 3.031762 1_555
O3 Te2 1.943251 1_455
O3 Te1 1.943297 1_554
O3 Rb0 3.084976 1_565
O4 Te1 1.876354 1_555
O4 V0 1.913531 1_555
O4 Rb0 3.031552 1_565
O5 Te2 1.943236 1_455
O5 Te0 1.943432 1_555
O5 Rb0 3.084528 1_555
O6 Te0 1.942806 1_555
O6 Te1 1.942999 1_544
O6 Rb1 3.085242 1_445
O7 Te2 1.876427 1_455
O7 V0 1.913415 1_555
O7 Rb1 3.032196 1_555
O8 Te0 1.876466 1_555
O8 V0 1.913479 1_654
O8 Rb1 3.031541 1_555
O9 Te1 1.943259 1_545
O9 Te2 1.943359 1_555
O9 Rb1 3.084436 1_545
O10 Te1 1.876665 1_544
O10 V0 1.913277 1_654
O10 Rb1 3.031745 1_545
O11 Te0 1.943140 1_556
O11 Te2 1.943414 1_555
O11 Rb1 3.084934 1_555
