# generated using pymatgen
data_KNa3(Al3Te5)4
_symmetry_space_group_name_H-M   'P 1'
_cell_length_a   10.53819432
_cell_length_b   10.53819342
_cell_length_c   10.53819424
_cell_angle_alpha   90.11199125
_cell_angle_beta   90.11199095
_cell_angle_gamma   90.11199539
_symmetry_Int_Tables_number   1
_chemical_formula_structural   KNa3(Al3Te5)4
_chemical_formula_sum   'K1 Na3 Al12 Te20'
_cell_volume   1170.29695417
_cell_formula_units_Z   1
loop_
 _symmetry_equiv_pos_site_id
 _symmetry_equiv_pos_as_xyz
  1  'x, y, z'
loop_
 _atom_site_type_symbol
 _atom_site_label
 _atom_site_symmetry_multiplicity
 _atom_site_fract_x
 _atom_site_fract_y
 _atom_site_fract_z
 _atom_site_occupancy
  K  K0  1  0.50000000  0.50000000  0.50000000  1
  Na  Na0  1  0.25273086  0.00000000  0.74726914  1
  Na  Na1  1  0.74726914  0.25273086  1.00000000  1
  Na  Na2  1  0.00000000  0.74726914  0.25273086  1
  Al  Al0  1  0.83993006  0.87962005  0.57178279  1
  Al  Al1  1  0.57178279  0.83993006  0.87962005  1
  Al  Al2  1  0.87962005  0.57178279  0.83993006  1
  Al  Al3  1  0.16006994  0.42821721  0.12037995  1
  Al  Al4  1  0.12037995  0.16006994  0.42821721  1
  Al  Al5  1  0.42821721  0.12037995  0.16006994  1
  Al  Al6  1  0.74778719  0.16213262  0.34451091  1
  Al  Al7  1  0.34451091  0.74778719  0.16213262  1
  Al  Al8  1  0.16213262  0.34451091  0.74778719  1
  Al  Al9  1  0.25221281  0.65548909  0.83786738  1
  Al  Al10  1  0.83786738  0.25221281  0.65548909  1
  Al  Al11  1  0.65548909  0.83786738  0.25221281  1
  Te  Te0  1  0.17520156  0.82479844  1.00000000  1
  Te  Te1  1  0.82479844  1.00000000  0.17520156  1
  Te  Te2  1  0.17869142  0.17869142  0.17869142  1
  Te  Te3  1  0.82130858  0.82130858  0.82130858  1
  Te  Te4  1  0.00000000  0.17520156  0.82479844  1
  Te  Te5  1  0.92493551  0.50000000  0.07506449  1
  Te  Te6  1  0.07506449  0.92493551  0.50000000  1
  Te  Te7  1  0.50000000  0.07506449  0.92493551  1
  Te  Te8  1  0.75445529  0.69585965  0.42788305  1
  Te  Te9  1  0.42788305  0.75445529  0.69585965  1
  Te  Te10  1  0.69585965  0.42788305  0.75445529  1
  Te  Te11  1  0.24554471  0.57211695  0.30414035  1
  Te  Te12  1  0.30414035  0.24554471  0.57211695  1
  Te  Te13  1  0.57211695  0.30414035  0.24554471  1
  Te  Te14  1  0.67766591  0.07229038  0.57214467  1
  Te  Te15  1  0.57214467  0.67766591  0.07229038  1
  Te  Te16  1  0.07229038  0.57214467  0.67766591  1
  Te  Te17  1  0.32233409  0.42785533  0.92770962  1
  Te  Te18  1  0.92770962  0.32233409  0.42785533  1
  Te  Te19  1  0.42785533  0.92770962  0.32233409  1
loop_
_geom_bond_atom_site_label_1
_geom_bond_atom_site_label_2
_geom_bond_distance
_geom_bond_site_symmetry_2
K0 Te12 3.467073 1_555
K0 Te8 3.467073 1_555
K0 Te9 3.467073 1_555
K0 Te13 3.467074 1_555
K0 Te10 3.467074 1_555
K0 Te11 3.467074 1_555
Na0 Te12 3.226949 1_555
Na0 Te9 3.226949 1_545
Na0 Te7 3.299744 1_555
Na0 Te6 3.299744 1_545
Na0 Te0 3.345372 1_545
Na0 Te4 3.345372 1_555
Na1 Te10 3.226949 1_555
Na1 Te13 3.226949 1_556
Na1 Te5 3.299744 1_556
Na1 Te7 3.299744 1_555
Na1 Te1 3.345372 1_546
Na1 Te4 3.345372 1_655
Na2 Te8 3.226949 1_455
Na2 Te11 3.226949 1_555
Na2 Te5 3.299744 1_455
Na2 Te6 3.299744 1_555
Na2 Te1 3.345372 1_455
Na2 Te0 3.345372 1_554
Al0 Te8 2.614833 1_555
Al0 Te6 2.635213 1_655
Al0 Te14 2.657084 1_565
Al0 Te3 2.708970 1_555
Al1 Te9 2.614834 1_555
Al1 Te7 2.635212 1_565
Al1 Te15 2.657084 1_556
Al1 Te3 2.708970 1_555
Al2 Te10 2.614833 1_555
Al2 Te5 2.635213 1_556
Al2 Te16 2.657084 1_655
Al2 Te3 2.708970 1_555
Al3 Te11 2.614834 1_555
Al3 Te5 2.635213 1_455
Al3 Te17 2.657084 1_554
Al3 Te2 2.708970 1_555
Al4 Te12 2.614834 1_555
Al4 Te6 2.635212 1_545
Al4 Te18 2.657084 1_455
Al4 Te2 2.708970 1_555
Al5 Te13 2.614833 1_555
Al5 Te7 2.635213 1_554
Al5 Te19 2.657084 1_545
Al5 Te2 2.708970 1_555
Al6 Te1 2.600092 1_545
Al6 Te13 2.600715 1_555
Al6 Te18 2.681745 1_555
Al6 Te14 2.685141 1_555
Al7 Te0 2.600092 1_554
Al7 Te11 2.600715 1_555
Al7 Te19 2.681745 1_555
Al7 Te15 2.685141 1_555
Al8 Te4 2.600092 1_555
Al8 Te12 2.600715 1_555
Al8 Te17 2.681746 1_555
Al8 Te16 2.685141 1_555
Al9 Te0 2.600092 1_555
Al9 Te9 2.600715 1_555
Al9 Te16 2.681746 1_555
Al9 Te17 2.685141 1_555
Al10 Te4 2.600092 1_655
Al10 Te10 2.600715 1_555
Al10 Te14 2.681745 1_555
Al10 Te18 2.685141 1_555
Al11 Te1 2.600092 1_555
Al11 Te8 2.600715 1_555
Al11 Te15 2.681745 1_555
Al11 Te19 2.685141 1_555
