# generated using pymatgen
data_CsRb2P2Pt3
_symmetry_space_group_name_H-M   'P 1'
_cell_length_a   7.93404120
_cell_length_b   7.93404080
_cell_length_c   7.93403955
_cell_angle_alpha   42.63907877
_cell_angle_beta   42.63908252
_cell_angle_gamma   42.63907062
_symmetry_Int_Tables_number   1
_chemical_formula_structural   CsRb2P2Pt3
_chemical_formula_sum   'Cs1 Rb2 P2 Pt3'
_cell_volume   207.56154949
_cell_formula_units_Z   1
loop_
 _symmetry_equiv_pos_site_id
 _symmetry_equiv_pos_as_xyz
  1  'x, y, z'
loop_
 _atom_site_type_symbol
 _atom_site_label
 _atom_site_symmetry_multiplicity
 _atom_site_fract_x
 _atom_site_fract_y
 _atom_site_fract_z
 _atom_site_occupancy
  Cs  Cs0  1  0.50000000  0.50000000  0.50000000  1
  Rb  Rb0  1  0.08756630  0.08756630  0.08756630  1
  Rb  Rb1  1  0.91243470  0.91243470  0.91243470  1
  P  P0  1  0.25703383  0.25703383  0.25703383  1
  P  P1  1  0.74296617  0.74296617  0.74296617  1
  Pt  Pt0  1  0.50000000  0.50000000  0.00000000  1
  Pt  Pt1  1  0.50000000  0.00000000  0.49999900  1
  Pt  Pt2  1  0.00000000  0.50000000  0.49999900  1
loop_
_geom_bond_atom_site_label_1
_geom_bond_atom_site_label_2
_geom_bond_distance
_geom_bond_site_symmetry_2
Cs0 Rb0 3.743575 1_565
Cs0 Rb0 3.743576 1_655
Cs0 Rb0 3.743577 1_556
Cs0 Rb1 3.743585 1_545
Cs0 Rb1 3.743585 1_455
Cs0 Rb1 3.743587 1_554
Cs0 P0 3.860756 1_556
Cs0 P1 3.860756 1_554
Cs0 P0 3.860757 1_565
Cs0 P1 3.860757 1_545
Cs0 P0 3.860757 1_655
Cs0 P1 3.860757 1_455
Cs0 Pt1 3.967015 1_565
Cs0 Pt2 3.967015 1_655
Cs0 Pt0 3.967020 1_555
Cs0 Pt0 3.967020 1_556
Cs0 Pt1 3.967026 1_555
Cs0 Pt2 3.967026 1_555
P0 Pt1 2.343171 1_555
P0 Pt2 2.343172 1_555
P0 Pt0 2.343179 1_555
P0 Rb1 3.339695 1_454
P0 Rb1 3.339695 1_544
P0 Rb1 3.339695 1_445
P0 Rb0 3.661017 1_555
P1 Pt0 2.343179 1_556
P1 Pt1 2.343184 1_565
P1 Pt2 2.343184 1_655
P1 Rb0 3.339696 1_656
P1 Rb0 3.339696 1_566
P1 Rb0 3.339697 1_665
P1 Rb1 3.661038 1_555
Pt0 Rb1 3.449520 1_544
Pt0 Rb1 3.449521 1_454
Pt0 Rb0 3.449532 1_565
Pt0 Rb0 3.449532 1_655
Pt1 Rb1 3.449514 1_544
Pt1 Rb1 3.449520 1_445
Pt1 Rb0 3.449535 1_655
Pt1 Rb0 3.449539 1_556
Pt2 Rb1 3.449514 1_454
Pt2 Rb1 3.449520 1_445
Pt2 Rb0 3.449535 1_565
Pt2 Rb0 3.449538 1_556
