# generated using pymatgen
data_Zr3Ti3CoSe2
_symmetry_space_group_name_H-M   'P 1'
_cell_length_a   7.16001072
_cell_length_b   7.16001055
_cell_length_c   3.50720067
_cell_angle_alpha   90.00000000
_cell_angle_beta   90.00000000
_cell_angle_gamma   120.00000531
_symmetry_Int_Tables_number   1
_chemical_formula_structural   Zr3Ti3CoSe2
_chemical_formula_sum   'Zr3 Ti3 Co1 Se2'
_cell_volume   155.71073615
_cell_formula_units_Z   1
loop_
 _symmetry_equiv_pos_site_id
 _symmetry_equiv_pos_as_xyz
  1  'x, y, z'
loop_
 _atom_site_type_symbol
 _atom_site_label
 _atom_site_symmetry_multiplicity
 _atom_site_fract_x
 _atom_site_fract_y
 _atom_site_fract_z
 _atom_site_occupancy
  Zr  Zr0  1  1.00000000  0.58817476  0.50000000  1
  Zr  Zr1  1  0.41182524  0.41182524  0.50000000  1
  Zr  Zr2  1  0.58817476  1.00000000  0.50000000  1
  Ti  Ti0  1  0.23759961  1.00000000  0.00000000  1
  Ti  Ti1  1  0.76240039  0.76240039  0.00000000  1
  Ti  Ti2  1  1.00000000  0.23759961  0.00000000  1
  Co  Co0  1  0.00000000  0.00000000  0.50000000  1
  Se  Se0  1  0.33333300  0.66666700  0.00000000  1
  Se  Se1  1  0.66666700  0.33333300  0.00000000  1
loop_
_geom_bond_atom_site_label_1
_geom_bond_atom_site_label_2
_geom_bond_distance
_geom_bond_site_symmetry_2
Co0 Ti1 2.443205 1_446
Co0 Ti1 2.443205 1_445
Co0 Ti2 2.443205 1_456
Co0 Ti2 2.443205 1_455
Co0 Ti0 2.443205 1_545
Co0 Ti0 2.443205 1_546
Co0 Zr1 2.948673 1_555
Co0 Zr0 2.948673 1_445
Co0 Zr2 2.948673 1_445
Se0 Zr0 2.783133 1_454
Se0 Zr0 2.783133 1_455
Se0 Zr2 2.783134 1_554
Se0 Zr2 2.783134 1_555
Se0 Zr1 2.783138 1_555
Se0 Zr1 2.783138 1_554
Se0 Ti0 2.793201 1_555
Se0 Ti2 2.793206 1_455
Se0 Ti1 2.793208 1_555
Se1 Zr2 2.783133 1_545
Se1 Zr2 2.783133 1_544
Se1 Zr0 2.783134 1_555
Se1 Zr0 2.783134 1_554
Se1 Zr1 2.783138 1_555
Se1 Zr1 2.783138 1_554
Se1 Ti2 2.793202 1_555
Se1 Ti0 2.793206 1_545
Se1 Ti1 2.793208 1_555
