# generated using pymatgen
data_K8ZrSb4
_symmetry_space_group_name_H-M   'P 1'
_cell_length_a   11.55420856
_cell_length_b   11.55420832
_cell_length_c   11.55420894
_cell_angle_alpha   59.99999823
_cell_angle_beta   59.99999893
_cell_angle_gamma   59.99999859
_symmetry_Int_Tables_number   1
_chemical_formula_structural   K8ZrSb4
_chemical_formula_sum   'K16 Zr2 Sb8'
_cell_volume   1090.70072332
_cell_formula_units_Z   2
loop_
 _symmetry_equiv_pos_site_id
 _symmetry_equiv_pos_as_xyz
  1  'x, y, z'
loop_
 _atom_site_type_symbol
 _atom_site_label
 _atom_site_symmetry_multiplicity
 _atom_site_fract_x
 _atom_site_fract_y
 _atom_site_fract_z
 _atom_site_occupancy
  K  K0  1  0.62500000  0.12500000  0.62500000  1
  K  K1  1  0.62500000  0.62500000  0.12500000  1
  K  K2  1  0.12500000  0.62500000  0.62500000  1
  K  K3  1  0.62500000  0.62500000  0.62500000  1
  K  K4  1  0.02725561  0.02725561  0.47274439  1
  K  K5  1  0.77725561  0.22274439  0.22274439  1
  K  K6  1  0.22274439  0.77725561  0.77725561  1
  K  K7  1  0.77725561  0.77725561  0.22274439  1
  K  K8  1  0.77725561  0.22274439  0.77725561  1
  K  K9  1  0.22274439  0.77725561  0.22274439  1
  K  K10  1  0.47274439  0.02725561  0.47274439  1
  K  K11  1  0.47274439  0.02725561  0.02725561  1
  K  K12  1  0.02725561  0.47274439  0.47274439  1
  K  K13  1  0.02725561  0.47274439  0.02725561  1
  K  K14  1  0.22274439  0.22274439  0.77725561  1
  K  K15  1  0.47274439  0.47274439  0.02725561  1
  Zr  Zr0  1  0.75000000  0.75000000  0.75000000  1
  Zr  Zr1  1  0.50000000  0.50000000  0.50000000  1
  Sb  Sb0  1  0.39857200  0.80428300  0.39857200  1
  Sb  Sb1  1  0.85142800  0.85142800  0.44571700  1
  Sb  Sb2  1  0.44571700  0.85142800  0.85142800  1
  Sb  Sb3  1  0.85142800  0.85142800  0.85142800  1
  Sb  Sb4  1  0.80428300  0.39857200  0.39857200  1
  Sb  Sb5  1  0.39857200  0.39857200  0.39857200  1
  Sb  Sb6  1  0.39857200  0.39857200  0.80428300  1
  Sb  Sb7  1  0.85142800  0.44571700  0.85142800  1
loop_
_geom_bond_atom_site_label_1
_geom_bond_atom_site_label_2
_geom_bond_distance
_geom_bond_site_symmetry_2
K0 Zr0 3.537739 1_545
K0 Zr1 3.537739 1_555
K0 Sb4 3.739736 1_555
K0 Sb2 3.739736 1_545
K0 Sb6 3.739736 1_555
K0 Sb1 3.739736 1_545
K0 Sb3 3.739743 1_545
K0 Sb5 3.739743 1_555
K1 Zr0 3.537739 1_554
K1 Zr1 3.537739 1_555
K1 Sb4 3.739736 1_555
K1 Sb2 3.739736 1_554
K1 Sb0 3.739736 1_555
K1 Sb7 3.739736 1_554
K1 Sb3 3.739743 1_554
K1 Sb5 3.739743 1_555
K2 Zr1 3.537739 1_555
K2 Zr0 3.537739 1_455
K2 Sb0 3.739736 1_555
K2 Sb7 3.739736 1_455
K2 Sb6 3.739736 1_555
K2 Sb1 3.739736 1_455
K2 Sb3 3.739743 1_455
K2 Sb5 3.739743 1_555
K3 Zr0 3.537739 1_555
K3 Zr1 3.537739 1_555
K3 Sb1 3.739745 1_555
K3 Sb6 3.739745 1_555
K3 Sb2 3.739745 1_555
K3 Sb4 3.739745 1_555
K3 Sb7 3.739745 1_555
K3 Sb0 3.739745 1_555
K4 Sb4 3.640910 1_455
K4 Sb0 3.640910 1_545
K4 Sb1 3.707818 1_445
K4 Sb3 3.707826 1_445
K5 Sb1 3.640910 1_545
K5 Sb7 3.640910 1_554
K5 Sb4 3.707818 1_555
K5 Sb5 3.707825 1_555
K6 Sb3 3.640908 1_455
K6 Sb2 3.640919 1_555
K6 Sb6 3.707828 1_555
K6 Sb0 3.707828 1_555
K7 Sb3 3.640908 1_554
K7 Sb1 3.640919 1_555
K7 Sb4 3.707828 1_555
K7 Sb0 3.707828 1_555
K8 Sb3 3.640908 1_545
K8 Sb7 3.640919 1_555
K8 Sb6 3.707828 1_555
K8 Sb4 3.707828 1_555
K9 Sb1 3.640910 1_455
K9 Sb2 3.640911 1_554
K9 Sb0 3.707818 1_555
K9 Sb5 3.707825 1_555
K10 Sb5 3.640908 1_555
K10 Sb0 3.640919 1_545
K10 Sb1 3.707828 1_545
K10 Sb2 3.707828 1_545
K11 Sb6 3.640910 1_554
K11 Sb0 3.640910 1_545
K11 Sb2 3.707818 1_544
K11 Sb3 3.707825 1_544
K12 Sb5 3.640908 1_555
K12 Sb4 3.640919 1_455
K12 Sb1 3.707828 1_455
K12 Sb7 3.707828 1_455
K13 Sb6 3.640910 1_554
K13 Sb4 3.640911 1_455
K13 Sb7 3.707818 1_454
K13 Sb3 3.707825 1_454
K14 Sb2 3.640910 1_545
K14 Sb7 3.640910 1_455
K14 Sb6 3.707818 1_555
K14 Sb5 3.707826 1_555
K15 Sb5 3.640908 1_555
K15 Sb6 3.640919 1_554
K15 Sb2 3.707828 1_554
K15 Sb7 3.707828 1_554
Sb0 Zr1 2.870597 1_555
Sb1 Zr0 2.870597 1_555
Sb2 Zr0 2.870597 1_555
Sb3 Zr0 2.870607 1_555
Sb4 Zr1 2.870597 1_555
Sb5 Zr1 2.870607 1_555
Sb6 Zr1 2.870597 1_555
Sb7 Zr0 2.870597 1_555
