# generated using pymatgen
data_Hf16Tc3Ni4Pt
_symmetry_space_group_name_H-M   'P 1'
_cell_length_a   8.58447915
_cell_length_b   8.58447910
_cell_length_c   8.58453870
_cell_angle_alpha   60.04854368
_cell_angle_beta   60.04854589
_cell_angle_gamma   60.04844134
_symmetry_Int_Tables_number   1
_chemical_formula_structural   Hf16Tc3Ni4Pt
_chemical_formula_sum   'Hf16 Tc3 Ni4 Pt1'
_cell_volume   447.82373992
_cell_formula_units_Z   1
loop_
 _symmetry_equiv_pos_site_id
 _symmetry_equiv_pos_as_xyz
  1  'x, y, z'
loop_
 _atom_site_type_symbol
 _atom_site_label
 _atom_site_symmetry_multiplicity
 _atom_site_fract_x
 _atom_site_fract_y
 _atom_site_fract_z
 _atom_site_occupancy
  Hf  Hf0  1  0.68420340  0.10478804  0.10477975  1
  Hf  Hf1  1  0.10478804  0.68420340  0.10477975  1
  Hf  Hf2  1  0.10478244  0.10478244  0.68421108  1
  Hf  Hf3  1  0.10371750  0.10371750  0.10371378  1
  Hf  Hf4  1  0.31554901  0.31554901  0.69165105  1
  Hf  Hf5  1  0.68567155  0.68567155  0.31500144  1
  Hf  Hf6  1  0.31554851  0.69164713  0.31555432  1
  Hf  Hf7  1  0.68567839  0.31499167  0.68568232  1
  Hf  Hf8  1  0.69164713  0.31554851  0.31555432  1
  Hf  Hf9  1  0.31499167  0.68567839  0.68568232  1
  Hf  Hf10  1  0.95173820  0.95173820  0.54787943  1
  Hf  Hf11  1  0.55029959  0.55029959  0.94770390  1
  Hf  Hf12  1  0.95173446  0.54787863  0.95172959  1
  Hf  Hf13  1  0.55029294  0.94770733  0.55030433  1
  Hf  Hf14  1  0.54787863  0.95173446  0.95172959  1
  Hf  Hf15  1  0.94770733  0.55029294  0.55030433  1
  Tc  Tc0  1  0.99629931  0.33299117  0.33299082  1
  Tc  Tc1  1  0.33299117  0.99629931  0.33299082  1
  Tc  Tc2  1  0.33298725  0.33298725  0.99630840  1
  Ni  Ni0  1  0.32242687  0.89125649  0.89125034  1
  Ni  Ni1  1  0.89125649  0.32242687  0.89125034  1
  Ni  Ni2  1  0.89126355  0.89126355  0.32242464  1
  Ni  Ni3  1  0.89314269  0.89314269  0.89311605  1
  Pt  Pt0  1  0.33340288  0.33340288  0.33340632  1
loop_
_geom_bond_atom_site_label_1
_geom_bond_atom_site_label_2
_geom_bond_distance
_geom_bond_site_symmetry_2
Hf0 Ni3 2.570578 1_544
Hf0 Ni1 2.579320 1_554
Hf0 Ni2 2.579404 1_545
Hf0 Pt0 2.969061 1_555
Hf0 Tc2 2.979795 1_554
Hf0 Tc1 2.979841 1_545
Hf0 Hf7 3.113671 1_554
Hf0 Hf5 3.113808 1_545
Hf1 Ni3 2.570578 1_454
Hf1 Ni0 2.579320 1_554
Hf1 Ni2 2.579404 1_455
Hf1 Pt0 2.969060 1_555
Hf1 Tc2 2.979795 1_554
Hf1 Tc0 2.979841 1_455
Hf1 Hf9 3.113671 1_554
Hf1 Hf5 3.113808 1_455
Hf2 Ni3 2.570395 1_445
Hf2 Ni0 2.579276 1_545
Hf2 Ni1 2.579276 1_455
Hf2 Pt0 2.969077 1_555
Hf2 Tc0 2.979891 1_455
Hf2 Tc1 2.979891 1_545
Hf2 Hf9 3.113704 1_545
Hf2 Hf7 3.113704 1_455
Hf3 Ni2 2.580815 1_445
Hf3 Ni1 2.580918 1_454
Hf3 Ni0 2.580918 1_544
Hf3 Tc2 2.973444 1_554
Hf3 Tc1 2.973497 1_545
Hf3 Tc0 2.973497 1_455
Hf4 Tc2 2.772921 1_555
Hf4 Pt0 2.930358 1_555
Hf4 Hf9 3.149733 1_555
Hf4 Hf7 3.149733 1_555
Hf5 Tc0 2.860699 1_555
Hf5 Tc1 2.860699 1_555
Hf5 Ni2 3.093335 1_555
Hf5 Ni3 3.121933 1_554
Hf5 Hf8 3.149669 1_555
Hf5 Hf6 3.149669 1_555
Hf5 Hf7 3.184444 1_555
Hf5 Hf9 3.184444 1_555
Hf6 Tc1 2.772872 1_555
Hf6 Pt0 2.930337 1_555
Hf6 Hf9 3.149745 1_555
Hf7 Tc0 2.860743 1_555
Hf7 Tc2 2.860757 1_555
Hf7 Ni1 3.093123 1_555
Hf7 Ni3 3.121627 1_545
Hf7 Hf8 3.149745 1_555
Hf7 Hf9 3.184482 1_555
Hf8 Tc0 2.772872 1_555
Hf8 Pt0 2.930337 1_555
Hf9 Tc1 2.860743 1_555
Hf9 Tc2 2.860756 1_555
Hf9 Ni0 3.093123 1_555
Hf9 Ni3 3.121627 1_455
Hf10 Ni2 2.561363 1_555
Hf10 Ni3 2.562229 1_555
Hf10 Tc0 2.962734 1_565
Hf10 Tc1 2.962734 1_655
Hf10 Hf9 3.195909 1_655
Hf10 Hf7 3.195909 1_565
Hf11 Ni0 2.538002 1_555
Hf11 Ni1 2.538002 1_555
Hf11 Pt0 3.007771 1_556
Hf11 Tc2 3.009143 1_555
Hf11 Hf9 3.173818 1_555
Hf11 Hf7 3.173818 1_555
Hf12 Ni1 2.561375 1_555
Hf12 Ni3 2.562399 1_555
Hf12 Tc2 2.962786 1_655
Hf12 Tc0 2.962825 1_556
Hf12 Hf9 3.195918 1_655
Hf12 Hf5 3.196009 1_556
Hf13 Ni0 2.537940 1_555
Hf13 Ni2 2.538105 1_555
Hf13 Pt0 3.007714 1_565
Hf13 Tc1 3.009136 1_555
Hf13 Hf9 3.173815 1_555
Hf13 Hf5 3.173884 1_555
Hf14 Ni0 2.561375 1_555
Hf14 Ni3 2.562399 1_555
Hf14 Tc2 2.962786 1_565
Hf14 Tc1 2.962825 1_556
Hf14 Hf7 3.195918 1_565
Hf14 Hf5 3.196009 1_556
Hf15 Ni1 2.537940 1_555
Hf15 Ni2 2.538105 1_555
Hf15 Pt0 3.007714 1_655
Hf15 Tc0 3.009136 1_555
Hf15 Hf7 3.173815 1_555
Hf15 Hf5 3.173884 1_555
Tc0 Tc2 2.892397 1_654
Tc0 Tc1 2.892440 1_645
Tc1 Tc2 2.892397 1_564
Pt0 Tc2 2.897397 1_554
Pt0 Tc1 2.897408 1_545
Pt0 Tc0 2.897408 1_455
