# generated using pymatgen
data_Nb3Co2SiN
_symmetry_space_group_name_H-M   'P 1'
_cell_length_a   7.98941776
_cell_length_b   7.98948991
_cell_length_c   7.98939898
_cell_angle_alpha   59.99982281
_cell_angle_beta   59.99951391
_cell_angle_gamma   59.99991458
_symmetry_Int_Tables_number   1
_chemical_formula_structural   Nb3Co2SiN
_chemical_formula_sum   'Nb12 Co8 Si4 N4'
_cell_volume   360.60424718
_cell_formula_units_Z   4
loop_
 _symmetry_equiv_pos_site_id
 _symmetry_equiv_pos_as_xyz
  1  'x, y, z'
loop_
 _atom_site_type_symbol
 _atom_site_label
 _atom_site_symmetry_multiplicity
 _atom_site_fract_x
 _atom_site_fract_y
 _atom_site_fract_z
 _atom_site_occupancy
  Nb  Nb0  1  0.79950671  0.79950127  0.20049878  1
  Nb  Nb1  1  0.20048979  0.20049492  0.79951041  1
  Nb  Nb2  1  0.79949827  0.20050233  0.79950842  1
  Nb  Nb3  1  0.20049420  0.79950186  0.20049333  1
  Nb  Nb4  1  0.20049637  0.79949891  0.79951216  1
  Nb  Nb5  1  0.79950148  0.20049850  0.20049366  1
  Nb  Nb6  1  0.45049329  0.45049873  0.04950122  1
  Nb  Nb7  1  0.04951021  0.04950508  0.45048959  1
  Nb  Nb8  1  0.45050173  0.04949767  0.45049158  1
  Nb  Nb9  1  0.04950580  0.45049814  0.04950667  1
  Nb  Nb10  1  0.04950363  0.45050109  0.45048784  1
  Nb  Nb11  1  0.45049852  0.04950150  0.04950634  1
  Co  Co0  1  0.73778756  0.42073396  0.42073771  1
  Co  Co1  1  0.42074752  0.73776558  0.42074115  1
  Co  Co2  1  0.42073976  0.42072898  0.73779277  1
  Co  Co3  1  0.42074106  0.42073058  0.42073699  1
  Co  Co4  1  0.51221244  0.82926604  0.82926229  1
  Co  Co5  1  0.82925248  0.51223442  0.82925885  1
  Co  Co6  1  0.82926024  0.82927102  0.51220723  1
  Co  Co7  1  0.82925894  0.82926942  0.82926301  1
  Si  Si0  1  0.12500000  0.62500000  0.62500000  1
  Si  Si1  1  0.62500000  0.12500000  0.62500000  1
  Si  Si2  1  0.62500000  0.62500000  0.12500000  1
  Si  Si3  1  0.62500000  0.62500000  0.62500000  1
  N  N0  1  0.62500000  0.12500000  0.12500000  1
  N  N1  1  0.12500000  0.62500000  0.12500000  1
  N  N2  1  0.12500000  0.12500000  0.62500000  1
  N  N3  1  0.12500000  0.12500000  0.12500000  1
loop_
_geom_bond_atom_site_label_1
_geom_bond_atom_site_label_2
_geom_bond_distance
_geom_bond_site_symmetry_2
Nb0 Si3 2.806551 1_555
Nb0 Si2 2.806616 1_555
Nb1 Si1 2.806617 1_555
Nb1 Si0 2.806624 1_555
Nb2 Si3 2.806569 1_555
Nb2 Si1 2.806621 1_555
Nb3 Si0 2.806591 1_555
Nb3 Si2 2.806596 1_555
Nb4 Si3 2.806577 1_555
Nb4 Si0 2.806622 1_555
Nb5 Si1 2.806579 1_555
Nb5 Si2 2.806597 1_555
Nb6 Si3 2.806551 1_554
Nb6 Si2 2.806616 1_555
Nb7 Si1 2.806617 1_455
Nb7 Si0 2.806624 1_545
Nb8 Si3 2.806569 1_545
Nb8 Si1 2.806621 1_555
Nb9 Si0 2.806591 1_554
Nb9 Si2 2.806596 1_455
Nb10 Si3 2.806577 1_455
Nb10 Si0 2.806622 1_555
Nb11 Si1 2.806579 1_554
Nb11 Si2 2.806597 1_545
Co0 Si1 2.420847 1_555
Co0 Si2 2.420858 1_555
Co0 Si3 2.420888 1_555
Co0 Co1 2.532940 1_555
Co0 Co3 2.533033 1_555
Co0 Co2 2.533035 1_555
Co0 Nb9 2.748798 1_655
Co0 Nb10 2.748828 1_655
Co0 Nb7 2.748839 1_655
Co0 Nb5 2.792212 1_555
Co0 Nb2 2.792219 1_555
Co0 Nb0 2.792247 1_555
Co1 Si2 2.420782 1_555
Co1 Si3 2.420823 1_555
Co1 Si0 2.420826 1_555
Co1 Co3 2.532990 1_555
Co1 Co2 2.533000 1_555
Co1 Nb11 2.748894 1_565
Co1 Nb8 2.748917 1_565
Co1 Nb7 2.748925 1_565
Co1 Nb0 2.792216 1_555
Co1 Nb3 2.792270 1_555
Co1 Nb4 2.792284 1_555
Co2 Si1 2.420838 1_555
Co2 Si3 2.420896 1_555
Co2 Si0 2.420898 1_555
Co2 Co3 2.533074 1_555
Co2 Nb6 2.748791 1_556
Co2 Nb11 2.748797 1_556
Co2 Nb9 2.748800 1_556
Co2 Nb2 2.792159 1_555
Co2 Nb1 2.792232 1_555
Co2 Nb4 2.792269 1_555
Co3 Si1 2.420836 1_555
Co3 Si2 2.420864 1_555
Co3 Si0 2.420894 1_555
Co3 Nb6 2.748824 1_555
Co3 Nb10 2.748842 1_555
Co3 Nb8 2.748855 1_555
Co3 Nb5 2.792161 1_555
Co3 Nb1 2.792240 1_555
Co3 Nb3 2.792269 1_555
Co4 Si1 2.420847 1_565
Co4 Si2 2.420858 1_556
Co4 Si3 2.420888 1_555
Co4 Co5 2.532940 1_555
Co4 Co7 2.533033 1_555
Co4 Co6 2.533035 1_555
Co4 Nb3 2.748798 1_556
Co4 Nb4 2.748828 1_555
Co4 Nb1 2.748839 1_565
Co4 Nb11 2.792212 1_566
Co4 Nb8 2.792219 1_565
Co4 Nb6 2.792247 1_556
Co5 Si2 2.420782 1_556
Co5 Si3 2.420823 1_555
Co5 Si0 2.420826 1_655
Co5 Co7 2.532990 1_555
Co5 Co6 2.533000 1_555
Co5 Nb5 2.748894 1_556
Co5 Nb2 2.748917 1_555
Co5 Nb1 2.748925 1_655
Co5 Nb6 2.792216 1_556
Co5 Nb9 2.792270 1_656
Co5 Nb10 2.792284 1_655
Co6 Si1 2.420838 1_565
Co6 Si3 2.420896 1_555
Co6 Si0 2.420898 1_655
Co6 Co7 2.533074 1_555
Co6 Nb0 2.748791 1_555
Co6 Nb5 2.748797 1_565
Co6 Nb3 2.748800 1_655
Co6 Nb8 2.792159 1_565
Co6 Nb7 2.792232 1_665
Co6 Nb10 2.792269 1_655
Co7 Si1 2.420836 1_565
Co7 Si2 2.420864 1_556
Co7 Si0 2.420894 1_655
Co7 Nb0 2.748824 1_556
Co7 Nb4 2.748842 1_655
Co7 Nb2 2.748855 1_565
Co7 Nb11 2.792161 1_566
Co7 Nb7 2.792240 1_665
Co7 Nb9 2.792269 1_656
N0 Nb8 2.171825 1_555
N0 Nb2 2.171825 1_554
N0 Nb5 2.171866 1_555
N0 Nb11 2.171866 1_555
N0 Nb6 2.171913 1_555
N0 Nb0 2.171913 1_545
N1 Nb10 2.171810 1_555
N1 Nb4 2.171810 1_554
N1 Nb3 2.171848 1_555
N1 Nb9 2.171848 1_555
N1 Nb6 2.171853 1_555
N1 Nb0 2.171853 1_455
N2 Nb1 2.171886 1_555
N2 Nb7 2.171886 1_555
N2 Nb2 2.171905 1_455
N2 Nb8 2.171905 1_555
N2 Nb10 2.171933 1_555
N2 Nb4 2.171933 1_545
N3 Nb7 2.171827 1_555
N3 Nb1 2.171827 1_554
N3 Nb11 2.171889 1_555
N3 Nb5 2.171889 1_455
N3 Nb9 2.171920 1_555
N3 Nb3 2.171920 1_545
