# generated using pymatgen
data_K4Sr2SiAs4
_symmetry_space_group_name_H-M   'P 1'
_cell_length_a   10.13699526
_cell_length_b   10.13699472
_cell_length_c   7.66399816
_cell_angle_alpha   88.41575999
_cell_angle_beta   88.41575738
_cell_angle_gamma   119.26314408
_symmetry_Int_Tables_number   1
_chemical_formula_structural   K4Sr2SiAs4
_chemical_formula_sum   'K8 Sr4 Si2 As8'
_cell_volume   686.01109627
_cell_formula_units_Z   2
loop_
 _symmetry_equiv_pos_site_id
 _symmetry_equiv_pos_as_xyz
  1  'x, y, z'
loop_
 _atom_site_type_symbol
 _atom_site_label
 _atom_site_symmetry_multiplicity
 _atom_site_fract_x
 _atom_site_fract_y
 _atom_site_fract_z
 _atom_site_occupancy
  K  K0  1  0.04823139  0.52129247  0.61026802  1
  K  K1  1  0.52129247  0.04823139  0.11026802  1
  K  K2  1  0.27511755  0.13470129  0.82790575  1
  K  K3  1  0.86946129  0.72294612  0.77263797  1
  K  K4  1  0.85971923  0.14982373  0.80578218  1
  K  K5  1  0.72294612  0.86946129  0.27263797  1
  K  K6  1  0.13470129  0.27511755  0.32790575  1
  K  K7  1  0.14982373  0.85971923  0.30578218  1
  Sr  Sr0  1  0.47550742  0.95089688  0.61017086  1
  Sr  Sr1  1  0.47377110  0.52052660  0.61120616  1
  Sr  Sr2  1  0.95089688  0.47550742  0.11017086  1
  Sr  Sr3  1  0.52052660  0.47377110  0.11120616  1
  Si  Si0  1  0.66670539  0.33711066  0.49810158  1
  Si  Si1  1  0.33711066  0.66670539  0.99810158  1
  As  As0  1  0.66271209  0.34373688  0.81477990  1
  As  As1  1  0.34373688  0.66271209  0.31477990  1
  As  As2  1  0.59291979  0.78784703  0.87118684  1
  As  As3  1  0.20861350  0.40526492  0.91580784  1
  As  As4  1  0.20223432  0.79068938  0.89817089  1
  As  As5  1  0.40526492  0.20861350  0.41580784  1
  As  As6  1  0.78784703  0.59291979  0.37118684  1
  As  As7  1  0.79068938  0.20223432  0.39817089  1
loop_
_geom_bond_atom_site_label_1
_geom_bond_atom_site_label_2
_geom_bond_distance
_geom_bond_site_symmetry_2
K0 Si0 3.520764 1_455
K1 Si1 3.520764 1_544
Si0 Sr1 3.403501 1_555
Si1 Sr3 3.403501 1_556
As0 Si0 2.429573 1_555
As0 Sr3 3.289081 1_556
As0 K3 3.360217 1_555
As0 K1 3.376976 1_556
As0 K4 3.419751 1_555
As0 K2 3.429944 1_555
As0 Sr2 3.487332 1_556
As0 Sr1 3.560974 1_555
As0 K0 3.687466 1_655
As1 Si1 2.429573 1_554
As1 Sr1 3.289081 1_555
As1 K5 3.360217 1_555
As1 K0 3.376976 1_555
As1 K7 3.419751 1_555
As1 K6 3.429944 1_555
As1 Sr0 3.487332 1_555
As1 Sr3 3.560974 1_555
As1 K1 3.687465 1_565
As2 Si1 2.420691 1_555
As2 Sr1 3.162881 1_555
As2 Sr0 3.165791 1_555
As2 K3 3.251958 1_555
As2 K4 3.339352 1_565
As2 K5 3.344680 1_556
As2 Sr3 3.372856 1_556
As2 K1 3.594322 1_566
As3 Si1 2.425091 1_555
As3 K2 3.211768 1_555
As3 Sr1 3.235985 1_555
As3 Sr3 3.300741 1_556
As3 K6 3.308969 1_556
As3 Sr2 3.348584 1_456
As3 K4 3.355134 1_455
As3 K0 3.381954 1_555
As4 Si1 2.391684 1_555
As4 Sr0 3.201348 1_555
As4 K2 3.217463 1_565
As4 K3 3.275321 1_455
As4 Sr2 3.296214 1_456
As4 K7 3.305062 1_556
As4 K0 3.334531 1_555
As4 K1 3.491282 1_566
As5 Si0 2.425092 1_555
As5 K6 3.211768 1_555
As5 Sr3 3.235985 1_555
As5 Sr1 3.300741 1_555
As5 K2 3.308969 1_555
As5 Sr0 3.348584 1_545
As5 K7 3.355134 1_545
As5 K1 3.381953 1_555
As6 Si0 2.420691 1_555
As6 Sr3 3.162881 1_555
As6 Sr2 3.165791 1_555
As6 K5 3.251958 1_555
As6 K7 3.339352 1_655
As6 K3 3.344680 1_555
As6 Sr1 3.372856 1_555
As6 K0 3.594322 1_655
As7 Si0 2.391684 1_555
As7 Sr2 3.201348 1_555
As7 K6 3.217463 1_655
As7 K5 3.275321 1_545
As7 Sr0 3.296214 1_545
As7 K4 3.305062 1_555
As7 K1 3.334531 1_555
As7 K0 3.491282 1_655
