# generated using pymatgen
data_Na6Ga4PtAu
_symmetry_space_group_name_H-M   'P 1'
_cell_length_a   9.06138537
_cell_length_b   9.00795548
_cell_length_c   9.00795613
_cell_angle_alpha   59.45096799
_cell_angle_beta   59.80360418
_cell_angle_gamma   59.80359746
_symmetry_Int_Tables_number   1
_chemical_formula_structural   Na6Ga4PtAu
_chemical_formula_sum   'Na12 Ga8 Pt2 Au2'
_cell_volume   516.19364077
_cell_formula_units_Z   2
loop_
 _symmetry_equiv_pos_site_id
 _symmetry_equiv_pos_as_xyz
  1  'x, y, z'
loop_
 _atom_site_type_symbol
 _atom_site_label
 _atom_site_symmetry_multiplicity
 _atom_site_fract_x
 _atom_site_fract_y
 _atom_site_fract_z
 _atom_site_occupancy
  Na  Na0  1  0.45357737  0.04642263  0.04642263  1
  Na  Na1  1  0.79583946  0.20392982  0.79303222  1
  Na  Na2  1  0.45416054  0.45696778  0.04607018  1
  Na  Na3  1  0.79583946  0.79303222  0.20392982  1
  Na  Na4  1  0.20778479  0.79221521  0.79221521  1
  Na  Na5  1  0.04221521  0.45778479  0.45778479  1
  Na  Na6  1  0.04280150  0.04607018  0.45696778  1
  Na  Na7  1  0.20719850  0.20392982  0.79303222  1
  Na  Na8  1  0.45416054  0.04607018  0.45696778  1
  Na  Na9  1  0.79642263  0.20357737  0.20357737  1
  Na  Na10  1  0.04280150  0.45696778  0.04607018  1
  Na  Na11  1  0.20719850  0.79303222  0.20392982  1
  Ga  Ga0  1  0.43134015  0.41763471  0.41763471  1
  Ga  Ga1  1  0.73338943  0.41763471  0.41763471  1
  Ga  Ga2  1  0.81865985  0.83236529  0.83236529  1
  Ga  Ga3  1  0.42728469  0.41364187  0.73178676  1
  Ga  Ga4  1  0.82271531  0.83635813  0.51821324  1
  Ga  Ga5  1  0.42728469  0.73178676  0.41364187  1
  Ga  Ga6  1  0.82271531  0.51821324  0.83635813  1
  Ga  Ga7  1  0.51661057  0.83236529  0.83236529  1
  Pt  Pt0  1  0.62500000  0.62500000  0.12500000  1
  Pt  Pt1  1  0.62500000  0.12500000  0.62500000  1
  Au  Au0  1  0.12500000  0.62500000  0.62500000  1
  Au  Au1  1  0.62500000  0.62500000  0.62500000  1
loop_
_geom_bond_atom_site_label_1
_geom_bond_atom_site_label_2
_geom_bond_distance
_geom_bond_site_symmetry_2
Na0 Pt0 3.125303 1_545
Na0 Pt1 3.125303 1_554
Na0 Na3 3.294663 1_545
Na0 Na7 3.294663 1_554
Na0 Na11 3.294663 1_545
Na0 Na1 3.294663 1_554
Na0 Na2 3.699219 1_555
Na0 Na10 3.699219 1_555
Na0 Na8 3.699220 1_555
Na0 Na6 3.699220 1_555
Na1 Pt1 3.122699 1_555
Na1 Na6 3.248766 1_655
Na1 Na5 3.265951 1_655
Na1 Na2 3.325694 1_556
Na1 Na3 3.670589 1_546
Na1 Na9 3.699220 1_556
Na1 Na4 3.709781 1_645
Na1 Na7 3.727483 1_655
Na2 Pt0 3.122699 1_555
Na2 Na4 3.265951 1_554
Na2 Na9 3.294663 1_555
Na2 Na8 3.670589 1_555
Na2 Na5 3.709782 1_555
Na3 Pt0 3.122699 1_555
Na3 Na5 3.265951 1_655
Na3 Na8 3.325694 1_565
Na3 Na9 3.699219 1_565
Na3 Na4 3.709782 1_654
Na4 Na6 3.265951 1_565
Na4 Na8 3.265951 1_565
Na4 Na7 3.709781 1_565
Na5 Na7 3.265951 1_555
Na5 Na6 3.709781 1_555
Na5 Na8 3.709781 1_555
Na6 Pt1 3.122699 1_455
Na6 Na9 3.294663 1_455
Na6 Na8 3.727483 1_555
Na7 Pt1 3.122699 1_555
Na7 Na8 3.248766 1_555
Na7 Na9 3.699220 1_456
Na8 Pt1 3.122699 1_555
Na8 Na9 3.294663 1_555
Na9 Pt0 3.125303 1_555
Na9 Pt1 3.125303 1_555
Na10 Pt0 3.122699 1_455
Na10 Na3 3.248766 1_455
Na10 Na4 3.265951 1_554
Na10 Na9 3.294663 1_455
Na10 Na7 3.325694 1_554
Na10 Na6 3.670589 1_555
Na10 Na5 3.709781 1_555
Na10 Na2 3.727483 1_555
Na11 Pt0 3.122699 1_555
Na11 Na2 3.248766 1_555
Na11 Na5 3.265951 1_555
Na11 Na6 3.325694 1_565
Na11 Na7 3.670589 1_564
Na11 Na9 3.699219 1_465
Na11 Na4 3.709781 1_554
Na11 Na3 3.727483 1_455
Ga0 Pt1 2.675066 1_555
Ga0 Pt0 2.675066 1_555
Ga0 Ga1 2.736985 1_555
Ga0 Ga5 2.793573 1_555
Ga0 Ga3 2.793573 1_555
Ga0 Na9 3.053873 1_555
Ga0 Na8 3.089161 1_555
Ga0 Na2 3.089161 1_555
Ga0 Na11 3.110093 1_555
Ga0 Na7 3.110094 1_555
Ga0 Na5 3.203389 1_555
Ga1 Pt0 2.675061 1_555
Ga1 Pt1 2.675061 1_555
Ga1 Ga5 2.793577 1_555
Ga1 Ga3 2.793578 1_555
Ga1 Na9 3.053869 1_555
Ga1 Na6 3.089164 1_655
Ga1 Na10 3.089165 1_655
Ga1 Na3 3.110097 1_555
Ga1 Na1 3.110097 1_555
Ga1 Na5 3.203398 1_655
Ga2 Pt1 2.675066 1_565
Ga2 Pt0 2.675066 1_556
Ga2 Ga7 2.736985 1_555
Ga2 Ga6 2.793573 1_555
Ga2 Ga4 2.793573 1_555
Ga2 Na0 3.053873 1_566
Ga2 Na1 3.089161 1_565
Ga2 Na3 3.089161 1_556
Ga2 Na10 3.110093 1_656
Ga2 Na6 3.110094 1_665
Ga2 Na4 3.203389 1_655
Ga3 Pt1 2.649239 1_555
Ga3 Ga5 2.842020 1_555
Ga3 Na0 3.063944 1_556
Ga3 Na7 3.077929 1_555
Ga3 Na1 3.077945 1_555
Ga3 Na4 3.139511 1_555
Ga3 Na10 3.184140 1_556
Ga3 Na2 3.184150 1_556
Ga4 Pt1 2.649239 1_565
Ga4 Ga7 2.793578 1_555
Ga4 Ga6 2.842020 1_555
Ga4 Na9 3.063944 1_565
Ga4 Na6 3.077929 1_665
Ga4 Na8 3.077945 1_565
Ga4 Na5 3.139511 1_655
Ga4 Na11 3.184140 1_655
Ga4 Na3 3.184150 1_555
Ga5 Pt0 2.649240 1_555
Ga5 Na0 3.063944 1_565
Ga5 Na11 3.077929 1_555
Ga5 Na3 3.077945 1_555
Ga5 Na4 3.139512 1_555
Ga5 Na6 3.184139 1_565
Ga5 Na8 3.184150 1_565
Ga6 Pt0 2.649240 1_556
Ga6 Ga7 2.793577 1_555
Ga6 Na9 3.063944 1_556
Ga6 Na10 3.077929 1_656
Ga6 Na2 3.077945 1_556
Ga6 Na5 3.139512 1_655
Ga6 Na7 3.184139 1_655
Ga6 Na1 3.184150 1_555
Ga7 Pt0 2.675061 1_556
Ga7 Pt1 2.675061 1_565
Ga7 Na0 3.053869 1_566
Ga7 Na7 3.089164 1_565
Ga7 Na11 3.089165 1_556
Ga7 Na2 3.110097 1_556
Ga7 Na8 3.110097 1_565
Ga7 Na4 3.203398 1_555
Au0 Ga3 2.756032 1_555
Au0 Ga4 2.756032 1_455
Au0 Ga5 2.756032 1_555
Au0 Ga6 2.756032 1_455
Au0 Ga2 2.792661 1_455
Au0 Ga0 2.792661 1_555
Au0 Na4 3.111275 1_555
Au0 Na5 3.111275 1_555
Au0 Na6 3.112645 1_565
Au0 Na7 3.112645 1_555
Au0 Na10 3.112646 1_556
Au0 Na11 3.112646 1_555
Au1 Ga6 2.756047 1_555
Au1 Ga5 2.756047 1_555
Au1 Ga4 2.756047 1_555
Au1 Ga3 2.756047 1_555
Au1 Ga7 2.792664 1_555
Au1 Ga1 2.792664 1_555
Au1 Na5 3.111275 1_655
Au1 Na4 3.111275 1_555
Au1 Na8 3.112645 1_565
Au1 Na1 3.112645 1_555
Au1 Na2 3.112646 1_556
Au1 Na3 3.112646 1_555
