# generated using pymatgen
data_BaBi(PdO2)4
_symmetry_space_group_name_H-M   'P 1'
_cell_length_a   5.77620309
_cell_length_b   6.05666177
_cell_length_c   6.65964343
_cell_angle_alpha   114.80865846
_cell_angle_beta   96.71893338
_cell_angle_gamma   109.65449590
_symmetry_Int_Tables_number   1
_chemical_formula_structural   BaBi(PdO2)4
_chemical_formula_sum   'Ba1 Bi1 Pd4 O8'
_cell_volume   189.86479482
_cell_formula_units_Z   1
loop_
 _symmetry_equiv_pos_site_id
 _symmetry_equiv_pos_as_xyz
  1  'x, y, z'
loop_
 _atom_site_type_symbol
 _atom_site_label
 _atom_site_symmetry_multiplicity
 _atom_site_fract_x
 _atom_site_fract_y
 _atom_site_fract_z
 _atom_site_occupancy
  Ba  Ba0  1  0.87532347  0.26086968  0.62062038  1
  Bi  Bi0  1  0.14225018  0.75182108  0.33167365  1
  Pd  Pd0  1  0.99883049  0.99969062  0.00269020  1
  Pd  Pd1  1  0.49588457  0.49851628  0.00351133  1
  Pd  Pd2  1  0.50351221  0.50283890  0.50351054  1
  Pd  Pd3  1  0.49362697  0.00006883  0.99755597  1
  O  O0  1  0.63283689  0.39566725  0.22840863  1
  O  O1  1  0.37327951  0.60752727  0.77608944  1
  O  O2  1  0.84006634  0.82422268  0.65918930  1
  O  O3  1  0.17468533  0.14845869  0.34203861  1
  O  O4  1  0.50296818  0.85857114  0.22680557  1
  O  O5  1  0.46020639  0.13433201  0.77265797  1
  O  O6  1  0.86734085  0.65575998  0.00778931  1
  O  O7  1  0.13918863  0.36165458  0.02746011  1
loop_
_geom_bond_atom_site_label_1
_geom_bond_atom_site_label_2
_geom_bond_distance
_geom_bond_site_symmetry_2
Ba0 O7 2.656399 1_656
Ba0 O1 2.677649 1_655
Ba0 O4 2.689489 1_545
Ba0 O6 2.701400 1_556
Ba0 O2 2.705820 1_545
Ba0 O5 2.710186 1_555
Ba0 O3 2.716284 1_655
Bi0 O6 2.244196 1_455
Bi0 O4 2.249507 1_555
Bi0 O3 2.316455 1_565
Bi0 O7 2.373810 1_555
Bi0 O5 2.744294 1_565
Bi0 O0 2.792142 1_455
O0 Pd2 1.996080 1_555
O0 Pd3 2.018538 1_554
O0 Pd1 2.023413 1_555
O1 Pd2 1.984351 1_555
O1 Pd3 2.004171 1_565
O1 Pd1 2.033229 1_556
O2 Pd2 1.983005 1_555
O2 Pd0 2.004208 1_556
O3 Pd0 2.022210 1_445
O3 Pd2 2.052710 1_555
O4 Pd1 2.042791 1_555
O4 Pd3 2.044030 1_564
O5 Pd3 2.000445 1_555
O5 Pd1 2.011391 1_556
O6 Pd0 1.979473 1_555
O6 Pd1 2.024792 1_555
O7 Pd0 1.990038 1_445
O7 Pd1 1.999137 1_555
