# generated using pymatgen
data_BaCd2GaGe
_symmetry_space_group_name_H-M   'P 1'
_cell_length_a   6.63231953
_cell_length_b   6.63231949
_cell_length_c   6.63231955
_cell_angle_alpha   138.82227765
_cell_angle_beta   138.82227580
_cell_angle_gamma   59.64595201
_symmetry_Int_Tables_number   1
_chemical_formula_structural   BaCd2GaGe
_chemical_formula_sum   'Ba1 Cd2 Ga1 Ge1'
_cell_volume   125.19990944
_cell_formula_units_Z   1
loop_
 _symmetry_equiv_pos_site_id
 _symmetry_equiv_pos_as_xyz
  1  'x, y, z'
loop_
 _atom_site_type_symbol
 _atom_site_label
 _atom_site_symmetry_multiplicity
 _atom_site_fract_x
 _atom_site_fract_y
 _atom_site_fract_z
 _atom_site_occupancy
  Ba  Ba0  1  0.99805692  0.99805692  1.00000000  1
  Cd  Cd0  1  0.74787909  0.24787909  0.50000000  1
  Cd  Cd1  1  0.24787909  0.74787909  0.50000000  1
  Ga  Ga0  1  0.61420116  0.61420116  0.00000000  1
  Ge  Ge0  1  0.39198374  0.39198374  0.00000000  1
loop_
_geom_bond_atom_site_label_1
_geom_bond_atom_site_label_2
_geom_bond_distance
_geom_bond_site_symmetry_2
Ba0 Ge0 3.517030 1_555
Ba0 Ge0 3.517030 1_667
Ba0 Ge0 3.517030 1_656
Ba0 Ge0 3.517030 1_566
Ba0 Ga0 3.558915 1_667
Ba0 Ga0 3.558915 1_555
Ba0 Ga0 3.558916 1_566
Ba0 Ga0 3.558916 1_656
Ba0 Cd1 3.702026 1_666
Ba0 Cd0 3.702027 1_666
Ba0 Cd1 3.702027 1_655
Ba0 Cd0 3.702027 1_565
Ba0 Cd0 3.705206 1_555
Ba0 Cd1 3.705206 1_555
Ba0 Cd0 3.705206 1_566
Ba0 Cd1 3.705206 1_656
Cd0 Ga0 2.793969 1_545
Cd0 Ga0 2.793969 1_556
Cd0 Ge0 2.861789 1_656
Cd0 Ge0 2.861789 1_555
Cd1 Ga0 2.793969 1_455
Cd1 Ga0 2.793969 1_556
Cd1 Ge0 2.861789 1_566
Cd1 Ge0 2.861789 1_555
Ga0 Ge0 2.557267 1_555
