# generated using pymatgen
data_TlSb5S8
_symmetry_space_group_name_H-M   'P 1'
_cell_length_a   19.67596600
_cell_length_b   8.56401500
_cell_length_c   12.53067115
_cell_angle_alpha   47.14016187
_cell_angle_beta   90.00000000
_cell_angle_gamma   90.00000000
_symmetry_Int_Tables_number   1
_chemical_formula_structural   TlSb5S8
_chemical_formula_sum   'Tl4 Sb20 S32'
_cell_volume   1547.75981096
_cell_formula_units_Z   4
loop_
 _symmetry_equiv_pos_site_id
 _symmetry_equiv_pos_as_xyz
  1  'x, y, z'
loop_
 _atom_site_type_symbol
 _atom_site_label
 _atom_site_symmetry_multiplicity
 _atom_site_fract_x
 _atom_site_fract_y
 _atom_site_fract_z
 _atom_site_occupancy
  Tl  Tl0  1  0.45081000  0.00929900  0.99839100  1
  Tl  Tl1  1  0.54919000  0.00929900  0.49839100  1
  Tl  Tl2  1  0.05214300  0.08146300  0.72694600  1
  Tl  Tl3  1  0.94785700  0.08146300  0.22694600  1
  Sb  Sb0  1  0.28616500  0.21511300  0.54404600  1
  Sb  Sb1  1  0.71383500  0.21511300  0.04404600  1
  Sb  Sb2  1  0.45806800  0.58225300  0.44702000  1
  Sb  Sb3  1  0.54193200  0.58225300  0.94702000  1
  Sb  Sb4  1  0.21520200  0.38780500  0.73506400  1
  Sb  Sb5  1  0.78479800  0.38780500  0.23506400  1
  Sb  Sb6  1  0.26449900  0.81290800  0.98440900  1
  Sb  Sb7  1  0.73550100  0.81290800  0.48440900  1
  Sb  Sb8  1  0.36904500  0.64301000  0.79095400  1
  Sb  Sb9  1  0.63095500  0.64301000  0.29095400  1
  Sb  Sb10  1  0.12933400  0.01398500  0.46321600  1
  Sb  Sb11  1  0.87066600  0.01398500  0.96321600  1
  Sb  Sb12  1  0.04377100  0.57996900  0.19173100  1
  Sb  Sb13  1  0.95622900  0.57996900  0.69173100  1
  Sb  Sb14  1  0.15402200  0.40483200  0.02912600  1
  Sb  Sb15  1  0.84597800  0.40483200  0.52912600  1
  Sb  Sb16  1  0.22942600  0.80347000  0.29203500  1
  Sb  Sb17  1  0.77057400  0.80347000  0.79203500  1
  Sb  Sb18  1  0.35031300  0.15783800  0.26532700  1
  Sb  Sb19  1  0.64968700  0.15783800  0.76532700  1
  S  S0  1  0.27751300  0.82725400  0.46381700  1
  S  S1  1  0.72248700  0.82725400  0.96381700  1
  S  S2  1  0.22904800  0.78172800  0.81242900  1
  S  S3  1  0.77095200  0.78172800  0.31242900  1
  S  S4  1  0.19768800  0.44608900  0.19470200  1
  S  S5  1  0.80231200  0.44608900  0.69470200  1
  S  S6  1  0.40440100  0.60694300  0.99517100  1
  S  S7  1  0.59559900  0.60694300  0.49517100  1
  S  S8  1  0.49247600  0.54774700  0.78168000  1
  S  S9  1  0.50752400  0.54774700  0.28168000  1
  S  S10  1  0.01703800  0.19873500  0.41268600  1
  S  S11  1  0.98296200  0.19873500  0.91268600  1
  S  S12  1  0.08359100  0.65047900  0.68332700  1
  S  S13  1  0.91640900  0.65047900  0.18332700  1
  S  S14  1  0.03702800  0.56255400  0.00425900  1
  S  S15  1  0.96297200  0.56255400  0.50425900  1
  S  S16  1  0.29222400  0.17124700  0.08359900  1
  S  S17  1  0.70777600  0.17124700  0.58359900  1
  S  S18  1  0.11182500  0.00748700  0.27031500  1
  S  S19  1  0.88817500  0.00748700  0.77031500  1
  S  S20  1  0.16783600  0.42911600  0.53664400  1
  S  S21  1  0.83216400  0.42911600  0.03664400  1
  S  S22  1  0.34075400  0.57328000  0.33392900  1
  S  S23  1  0.65924600  0.57328000  0.83392900  1
  S  S24  1  0.45959000  0.98094400  0.28553300  1
  S  S25  1  0.54041000  0.98094400  0.78553300  1
  S  S26  1  0.32342400  0.21551900  0.73698800  1
  S  S27  1  0.67657600  0.21551900  0.23698800  1
  S  S28  1  0.39768900  0.02628000  0.58116900  1
  S  S29  1  0.60231100  0.02628000  0.08116900  1
  S  S30  1  0.16293700  0.02975200  0.94778700  1
  S  S31  1  0.83706300  0.02975200  0.44778700  1
loop_
_geom_bond_atom_site_label_1
_geom_bond_atom_site_label_2
_geom_bond_distance
_geom_bond_site_symmetry_2
S0 Sb16 2.483267 1_555
S0 Sb18 2.583368 1_565
S1 Sb17 2.483267 1_555
S1 Sb19 2.583368 1_565
S2 Sb6 2.446392 1_555
S2 Sb14 2.836788 1_556
S2 Sb0 3.060668 1_565
S2 Sb8 3.083230 1_555
S3 Sb7 2.446392 1_555
S3 Sb15 2.836788 1_555
S3 Sb1 3.060668 1_565
S3 Sb9 3.083230 1_555
S4 Sb14 2.482942 1_555
S4 Sb6 2.697961 1_554
S5 Sb15 2.482942 1_555
S5 Sb7 2.697961 1_555
S6 Sb8 2.460167 1_555
S6 Sb3 2.811593 1_555
S6 Sb18 3.110063 1_556
S7 Sb9 2.460167 1_555
S7 Sb2 2.811593 1_555
S7 Sb19 3.110063 1_555
S8 Sb3 2.481852 1_555
S8 Sb8 2.589649 1_555
S8 Tl1 3.222096 1_565
S9 Sb2 2.481852 1_555
S9 Sb9 2.589649 1_555
S9 Tl0 3.222096 1_564
S10 Sb12 2.510864 1_555
S10 Sb10 2.534448 1_555
S11 Sb13 2.510864 1_555
S11 Sb11 2.534448 1_555
S12 Sb10 2.535292 1_565
S12 Sb13 2.563026 1_455
S13 Sb11 2.535292 1_564
S13 Sb12 2.563026 1_655
S14 Sb12 2.456620 1_555
S14 Sb14 2.578383 1_555
S15 Sb13 2.456620 1_555
S15 Sb15 2.578383 1_555
S16 Sb18 2.479781 1_555
S16 Sb16 2.660347 1_545
S17 Sb19 2.479781 1_555
S17 Sb17 2.660347 1_545
S18 Sb10 2.479421 1_555
S18 Sb14 2.722486 1_555
S18 Sb16 2.798942 1_545
S19 Sb11 2.479421 1_555
S19 Sb15 2.722486 1_555
S19 Sb17 2.798942 1_545
S20 Sb4 2.445186 1_555
S20 Sb16 2.788083 1_555
S20 Sb0 2.925221 1_555
S20 Tl2 3.173961 1_555
S21 Sb5 2.445186 1_555
S21 Sb17 2.788083 1_554
S21 Sb1 2.925221 1_555
S21 Tl3 3.173961 1_555
S22 Sb0 2.551025 1_555
S22 Sb2 2.736847 1_555
S22 Sb16 2.748121 1_555
S23 Sb1 2.551025 1_556
S23 Sb3 2.736847 1_555
S23 Sb17 2.748121 1_555
S24 Sb2 2.520789 1_555
S24 Sb18 2.541721 1_565
S25 Sb3 2.520789 1_555
S25 Sb19 2.541721 1_565
S26 Sb0 2.528662 1_555
S26 Sb4 2.581356 1_555
S26 Sb6 2.881349 1_545
S27 Sb1 2.528662 1_555
S27 Sb5 2.581356 1_555
S27 Sb7 2.881349 1_545
S28 Sb8 2.502683 1_545
S28 Sb0 2.573590 1_555
S28 Tl1 3.191898 1_555
S29 Sb9 2.502683 1_545
S29 Sb1 2.573590 1_555
S29 Tl0 3.191898 1_554
S30 Sb4 2.538878 1_555
S30 Sb6 2.548180 1_545
S31 Sb5 2.538878 1_555
S31 Sb7 2.548180 1_545
