# generated using pymatgen
data_Ca4In4Ag3Au
_symmetry_space_group_name_H-M   'P 1'
_cell_length_a   4.62309918
_cell_length_b   7.43015078
_cell_length_c   8.54030929
_cell_angle_alpha   90.04805515
_cell_angle_beta   90.00000000
_cell_angle_gamma   90.00000000
_symmetry_Int_Tables_number   1
_chemical_formula_structural   Ca4In4Ag3Au
_chemical_formula_sum   'Ca4 In4 Ag3 Au1'
_cell_volume   293.36228756
_cell_formula_units_Z   1
loop_
 _symmetry_equiv_pos_site_id
 _symmetry_equiv_pos_as_xyz
  1  'x, y, z'
loop_
 _atom_site_type_symbol
 _atom_site_label
 _atom_site_symmetry_multiplicity
 _atom_site_fract_x
 _atom_site_fract_y
 _atom_site_fract_z
 _atom_site_occupancy
  Ca  Ca0  1  0.75000000  0.97174398  0.68347775  1
  Ca  Ca1  1  0.25000000  0.02951027  0.31102840  1
  Ca  Ca2  1  0.75000000  0.47048464  0.82054203  1
  Ca  Ca3  1  0.25000000  0.52096032  0.18411991  1
  In  In0  1  0.75000000  0.34350100  0.44136145  1
  In  In1  1  0.25000000  0.15607381  0.93917511  1
  In  In2  1  0.25000000  0.65572705  0.55971280  1
  In  In3  1  0.75000000  0.84647189  0.06028910  1
  Ag  Ag0  1  0.25000000  0.77437413  0.87530336  1
  Ag  Ag1  1  0.25000000  0.27375113  0.62496377  1
  Ag  Ag2  1  0.75000000  0.72640061  0.37399660  1
  Au  Au0  1  0.75000000  0.23099914  0.12602972  1
loop_
_geom_bond_atom_site_label_1
_geom_bond_atom_site_label_2
_geom_bond_distance
_geom_bond_site_symmetry_2
Ca0 In3 3.350742 1_556
Ca0 In0 3.451807 1_565
Ca0 In2 3.459723 1_555
Ca0 In2 3.459723 1_655
Ca0 In1 3.461610 1_565
Ca0 In1 3.461610 1_665
Ca0 Ca2 3.885268 1_565
Ca0 Ca2 3.904990 1_555
Ca0 Ca1 3.955688 1_565
Ca0 Ca1 3.955688 1_665
Ca1 In1 3.312804 1_554
Ca1 In3 3.431259 1_545
Ca1 In3 3.431259 1_445
Ca1 In0 3.467095 1_455
Ca1 In0 3.467095 1_555
Ca1 In2 3.497685 1_545
Ca1 Ca3 3.809875 1_555
Ca1 Ca3 3.930098 1_545
Ca2 In0 3.372209 1_555
Ca2 In1 3.439649 1_655
Ca2 In1 3.439649 1_555
Ca2 In3 3.462247 1_556
Ca2 In2 3.493545 1_655
Ca2 In2 3.493545 1_555
Ca2 Ca3 3.888883 1_556
Ca2 Ca3 3.888883 1_656
Ca3 In2 3.359538 1_555
Ca3 In1 3.423003 1_554
Ca3 In0 3.451545 1_555
Ca3 In0 3.451545 1_455
Ca3 In3 3.509359 1_555
Ca3 In3 3.509359 1_455
In1 In3 3.421831 1_546
In1 In3 3.421831 1_446
Ag0 In2 2.835048 1_555
Ag0 In3 2.850385 1_556
Ag0 In3 2.850385 1_456
Ag0 In1 2.887619 1_565
Ag0 Ca0 3.190884 1_555
Ag0 Ca0 3.190884 1_455
Ag0 Ca3 3.241832 1_556
Ag0 Ca2 3.264740 1_555
Ag0 Ca2 3.264740 1_455
Ag1 In1 2.823014 1_555
Ag1 In0 2.841109 1_455
Ag1 In0 2.841109 1_555
Ag1 In2 2.892789 1_555
Ag1 Ca2 3.204030 1_455
Ag1 Ca2 3.204030 1_555
Ag1 Ca1 3.236274 1_555
Ag1 Ca0 3.260402 1_445
Ag1 Ca0 3.260402 1_545
Ag2 In3 2.824505 1_555
Ag2 In2 2.852374 1_555
Ag2 In2 2.852374 1_655
Ag2 In0 2.903062 1_555
Ag2 Ca3 3.209170 1_555
Ag2 Ca3 3.209170 1_655
Ag2 Ca0 3.209488 1_555
Ag2 Ca1 3.272105 1_565
Ag2 Ca1 3.272105 1_665
Au0 In0 2.819109 1_555
Au0 In1 2.863260 1_654
Au0 In1 2.863260 1_554
Au0 In3 2.911275 1_545
Au0 Ca2 3.159235 1_554
Au0 Ca1 3.175649 1_655
Au0 Ca1 3.175649 1_555
Au0 Ca3 3.198323 1_555
Au0 Ca3 3.198323 1_655
