# generated using pymatgen
data_K6ScAlP4
_symmetry_space_group_name_H-M   'P 1'
_cell_length_a   8.81806937
_cell_length_b   8.81806824
_cell_length_c   8.81806737
_cell_angle_alpha   136.91066902
_cell_angle_beta   127.73678624
_cell_angle_gamma   69.98144203
_symmetry_Int_Tables_number   1
_chemical_formula_structural   K6ScAlP4
_chemical_formula_sum   'K6 Sc1 Al1 P4'
_cell_volume   363.42047081
_cell_formula_units_Z   1
loop_
 _symmetry_equiv_pos_site_id
 _symmetry_equiv_pos_as_xyz
  1  'x, y, z'
loop_
 _atom_site_type_symbol
 _atom_site_label
 _atom_site_symmetry_multiplicity
 _atom_site_fract_x
 _atom_site_fract_y
 _atom_site_fract_z
 _atom_site_occupancy
  K  K0  1  0.00878543  0.80086224  0.18586156  1
  K  K1  1  0.50000000  0.75000000  0.25000000  1
  K  K2  1  0.61500069  0.32292487  0.31413844  1
  K  K3  1  0.38499931  0.69913776  0.70792519  1
  K  K4  1  0.50000000  0.25000000  0.75000000  1
  K  K5  1  0.99121457  0.17707513  0.79207481  1
  Sc  Sc0  1  0.00000000  0.25000000  0.25000000  1
  Al  Al0  1  0.00000000  0.75000000  0.75000000  1
  P  P0  1  0.08763700  0.42186975  0.69485356  1
  P  P1  1  0.91236300  0.60721456  0.33423174  1
  P  P2  1  0.27298282  0.07813025  0.16576826  1
  P  P3  1  0.72701718  0.89278544  0.80514644  1
loop_
_geom_bond_atom_site_label_1
_geom_bond_atom_site_label_2
_geom_bond_distance
_geom_bond_site_symmetry_2
K0 P3 3.238274 1_454
K0 P1 3.312011 1_455
K0 P0 3.370266 1_554
K0 P0 3.674788 1_565
K1 P3 3.206947 1_555
K1 P2 3.206955 1_565
K1 P0 3.206958 1_554
K1 P1 3.206963 1_555
K2 P0 3.238263 1_655
K2 P2 3.312024 1_555
K2 P3 3.370272 1_555
K2 P3 3.674793 1_544
K3 P1 3.238263 1_455
K3 P3 3.312036 1_555
K3 P2 3.370266 1_566
K3 P2 3.674788 1_555
K4 P3 3.300681 1_545
K4 P2 3.300685 1_555
K4 P1 3.300690 1_556
K4 P0 3.300695 1_555
K5 P2 3.238274 1_656
K5 P0 3.311996 1_655
K5 P1 3.370272 1_545
K5 P1 3.674793 1_556
Al0 P3 2.465729 1_455
Al0 P2 2.465733 1_566
Al0 P1 2.465736 1_455
Al0 P0 2.465736 1_555
P0 Sc0 2.586476 1_555
P1 Sc0 2.586464 1_655
P2 Sc0 2.586465 1_555
P3 Sc0 2.586465 1_666
