# generated using pymatgen
data_Cs2KSbO4
_symmetry_space_group_name_H-M   'P 1'
_cell_length_a   6.63230516
_cell_length_b   6.79182823
_cell_length_c   8.45681636
_cell_angle_alpha   87.19021718
_cell_angle_beta   90.00000000
_cell_angle_gamma   90.00000000
_symmetry_Int_Tables_number   1
_chemical_formula_structural   Cs2KSbO4
_chemical_formula_sum   'Cs4 K2 Sb2 O8'
_cell_volume   380.48335592
_cell_formula_units_Z   2
loop_
 _symmetry_equiv_pos_site_id
 _symmetry_equiv_pos_as_xyz
  1  'x, y, z'
loop_
 _atom_site_type_symbol
 _atom_site_label
 _atom_site_symmetry_multiplicity
 _atom_site_fract_x
 _atom_site_fract_y
 _atom_site_fract_z
 _atom_site_occupancy
  Cs  Cs0  1  0.25000000  0.10015877  0.82732632  1
  Cs  Cs1  1  0.75000000  0.89984123  0.17267368  1
  Cs  Cs2  1  0.25000000  0.67169917  0.52048664  1
  Cs  Cs3  1  0.75000000  0.32830083  0.47951336  1
  K  K0  1  0.75000000  0.38701313  0.96325183  1
  K  K1  1  0.25000000  0.61298687  0.03674817  1
  Sb  Sb0  1  0.25000000  0.17918312  0.27004576  1
  Sb  Sb1  1  0.75000000  0.82081688  0.72995424  1
  O  O0  1  0.97926880  0.69303773  0.82106258  1
  O  O1  1  0.47926880  0.30696227  0.17893742  1
  O  O2  1  0.02073120  0.30696227  0.17893742  1
  O  O3  1  0.52073120  0.69303773  0.82106258  1
  O  O4  1  0.75000000  0.08566046  0.78925663  1
  O  O5  1  0.75000000  0.79594048  0.50846194  1
  O  O6  1  0.25000000  0.91433954  0.21074337  1
  O  O7  1  0.25000000  0.20405952  0.49153806  1
loop_
_geom_bond_atom_site_label_1
_geom_bond_atom_site_label_2
_geom_bond_distance
_geom_bond_site_symmetry_2
Cs0 O7 2.892302 1_555
Cs0 O0 3.299546 1_445
Cs0 O3 3.299546 1_545
Cs0 O4 3.333665 1_455
Cs0 O4 3.333665 1_555
Cs0 O6 3.421301 1_546
Cs0 O1 3.679161 1_556
Cs0 O2 3.679161 1_556
Cs1 O5 2.892302 1_555
Cs1 O1 3.299546 1_565
Cs1 O2 3.299546 1_665
Cs1 O6 3.333665 1_555
Cs1 O6 3.333665 1_655
Cs1 O4 3.421301 1_564
Cs1 O3 3.679161 1_554
Cs1 O0 3.679161 1_554
Cs2 O6 3.025569 1_555
Cs2 O0 3.121303 1_455
Cs2 O3 3.121303 1_555
Cs2 O7 3.197492 1_555
Cs2 O5 3.422110 1_455
Cs2 O5 3.422110 1_555
Cs2 O7 3.611985 1_565
Cs3 O4 3.025569 1_555
Cs3 O1 3.121303 1_555
Cs3 O2 3.121303 1_655
Cs3 O5 3.197492 1_555
Cs3 O7 3.422110 1_555
Cs3 O7 3.422110 1_655
Cs3 O5 3.611985 1_545
K0 O4 2.578671 1_555
K0 O1 2.597976 1_556
K0 O2 2.597976 1_656
K0 O3 2.798765 1_555
K0 O0 2.798765 1_555
K1 O6 2.578671 1_555
K1 O0 2.597976 1_454
K1 O3 2.597976 1_554
K1 O1 2.798765 1_555
K1 O2 2.798765 1_555
O0 Sb1 1.895634 1_555
O1 Sb0 1.895634 1_555
O2 Sb0 1.895634 1_555
O3 Sb1 1.895634 1_555
O4 Sb1 1.890909 1_545
O5 Sb1 1.888955 1_555
O6 Sb0 1.890909 1_565
O7 Sb0 1.888955 1_555
