# generated using pymatgen
data_Zr6Ti4Al12Rh7
_symmetry_space_group_name_H-M   'P 1'
_cell_length_a   8.73749134
_cell_length_b   8.73749222
_cell_length_c   8.73749212
_cell_angle_alpha   59.99987598
_cell_angle_beta   59.99982999
_cell_angle_gamma   59.99982991
_symmetry_Int_Tables_number   1
_chemical_formula_structural   Zr6Ti4Al12Rh7
_chemical_formula_sum   'Zr6 Ti4 Al12 Rh7'
_cell_volume   471.67606260
_cell_formula_units_Z   1
loop_
 _symmetry_equiv_pos_site_id
 _symmetry_equiv_pos_as_xyz
  1  'x, y, z'
loop_
 _atom_site_type_symbol
 _atom_site_label
 _atom_site_symmetry_multiplicity
 _atom_site_fract_x
 _atom_site_fract_y
 _atom_site_fract_z
 _atom_site_occupancy
  Zr  Zr0  1  0.69148846  0.69148434  0.30851552  1
  Zr  Zr1  1  0.30851581  0.69147753  0.30852193  1
  Zr  Zr2  1  0.69147869  0.30851975  0.30851975  1
  Zr  Zr3  1  0.30851581  0.30852193  0.69147753  1
  Zr  Zr4  1  0.69148846  0.30851552  0.69148434  1
  Zr  Zr5  1  0.30851422  0.69148598  0.69148598  1
  Ti  Ti0  1  0.88042724  0.88042287  0.35871420  1
  Ti  Ti1  1  0.88042724  0.35871420  0.88042287  1
  Ti  Ti2  1  0.35871279  0.88042460  0.88042460  1
  Ti  Ti3  1  0.88043124  0.88042908  0.88042908  1
  Al  Al0  1  0.12029389  0.12029452  0.63911542  1
  Al  Al1  1  0.12029389  0.63911542  0.12029452  1
  Al  Al2  1  0.63911805  0.12029344  0.12029344  1
  Al  Al3  1  0.12029213  0.12029294  0.12029294  1
  Al  Al4  1  0.66445393  0.66445318  0.00663704  1
  Al  Al5  1  0.66445393  0.00663704  0.66445318  1
  Al  Al6  1  0.00663868  0.66445417  0.66445417  1
  Al  Al7  1  0.66445374  0.66444877  0.66444877  1
  Al  Al8  1  0.33462434  0.33462431  0.99612636  1
  Al  Al9  1  0.33462434  0.99612636  0.33462431  1
  Al  Al10  1  0.99612594  0.33462451  0.33462451  1
  Al  Al11  1  0.33462438  0.33462434  0.33462434  1
  Rh  Rh0  1  0.99999726  0.00000071  0.00000071  1
  Rh  Rh1  1  0.99804477  0.99804619  0.50195566  1
  Rh  Rh2  1  0.50196003  0.99804015  0.50195807  1
  Rh  Rh3  1  0.99803814  0.50196196  0.50196196  1
  Rh  Rh4  1  0.50196003  0.50195807  0.99804015  1
  Rh  Rh5  1  0.99804477  0.50195566  0.99804619  1
  Rh  Rh6  1  0.50195382  0.99804847  0.99804847  1
loop_
_geom_bond_atom_site_label_1
_geom_bond_atom_site_label_2
_geom_bond_distance
_geom_bond_site_symmetry_2
Ti0 Zr0 3.133126 1_555
Ti0 Zr1 3.133222 1_655
Ti0 Zr2 3.133281 1_565
Ti1 Zr4 3.133126 1_555
Ti1 Zr3 3.133222 1_655
Ti1 Zr2 3.133281 1_556
Ti2 Zr5 3.133124 1_555
Ti2 Zr1 3.133281 1_556
Ti2 Zr3 3.133281 1_565
Ti3 Zr5 3.133170 1_655
Ti3 Zr0 3.133194 1_556
Ti3 Zr4 3.133194 1_565
Al0 Rh0 2.574599 1_456
Al0 Rh1 2.723835 1_445
Al0 Rh2 2.723888 1_545
Al0 Rh3 2.723898 1_455
Al0 Zr4 3.134969 1_455
Al0 Zr5 3.134991 1_545
Al0 Zr3 3.135035 1_555
Al1 Rh0 2.574599 1_465
Al1 Rh5 2.723835 1_454
Al1 Rh4 2.723888 1_554
Al1 Rh3 2.723898 1_455
Al1 Zr0 3.134969 1_455
Al1 Zr5 3.134991 1_554
Al1 Zr1 3.135035 1_555
Al2 Rh0 2.574554 1_555
Al2 Rh6 2.723814 1_544
Al2 Rh2 2.723879 1_545
Al2 Rh4 2.723879 1_554
Al2 Zr4 3.134996 1_554
Al2 Zr0 3.134996 1_545
Al2 Zr2 3.135051 1_555
Al3 Rh0 2.574564 1_455
Al3 Rh6 2.723860 1_544
Al3 Rh1 2.723868 1_445
Al3 Rh5 2.723868 1_454
Al3 Zr2 3.135042 1_455
Al3 Zr3 3.135054 1_554
Al3 Zr1 3.135054 1_545
Al4 Rh4 2.503278 1_554
Al4 Rh5 2.503322 1_554
Al4 Rh6 2.503362 1_554
Al4 Zr2 2.893164 1_555
Al4 Zr1 2.893193 1_555
Al4 Zr0 2.893209 1_555
Al5 Rh2 2.503278 1_545
Al5 Rh1 2.503322 1_545
Al5 Rh6 2.503362 1_545
Al5 Zr2 2.893164 1_555
Al5 Zr3 2.893193 1_555
Al5 Zr4 2.893209 1_555
Al6 Rh3 2.503262 1_455
Al6 Rh5 2.503325 1_455
Al6 Rh1 2.503325 1_455
Al6 Zr1 2.893135 1_555
Al6 Zr3 2.893135 1_555
Al6 Zr5 2.893173 1_555
Al7 Rh3 2.503224 1_555
Al7 Rh4 2.503288 1_555
Al7 Rh2 2.503288 1_555
Al7 Zr0 2.893095 1_555
Al7 Zr4 2.893095 1_555
Al7 Zr5 2.893134 1_555
Al8 Rh6 2.542017 1_545
Al8 Rh5 2.542051 1_455
Al8 Rh4 2.542100 1_555
Al8 Zr5 2.907884 1_555
Al8 Zr4 2.907900 1_555
Al8 Zr3 2.907911 1_555
Al9 Rh6 2.542017 1_554
Al9 Rh1 2.542051 1_455
Al9 Rh2 2.542100 1_555
Al9 Zr5 2.907884 1_555
Al9 Zr0 2.907900 1_555
Al9 Zr1 2.907911 1_555
Al10 Rh5 2.542045 1_554
Al10 Rh1 2.542045 1_545
Al10 Rh3 2.542133 1_555
Al10 Zr4 2.907862 1_555
Al10 Zr0 2.907862 1_555
Al10 Zr2 2.907890 1_555
Al11 Rh4 2.542097 1_554
Al11 Rh2 2.542097 1_545
Al11 Rh3 2.542120 1_455
Al11 Zr3 2.907852 1_555
Al11 Zr1 2.907852 1_555
Al11 Zr2 2.907868 1_555
Rh0 Ti3 2.559082 1_544
Rh0 Ti0 2.559105 1_545
Rh0 Ti1 2.559105 1_554
Rh0 Ti2 2.559118 1_644
Rh1 Ti3 2.703168 1_555
Rh1 Ti0 2.703237 1_555
Rh1 Zr4 3.172730 1_565
Rh1 Zr5 3.172746 1_655
Rh1 Zr1 3.172770 1_655
Rh1 Zr2 3.172770 1_565
Rh2 Ti2 2.703121 1_555
Rh2 Ti0 2.703123 1_555
Rh2 Zr0 3.172736 1_555
Rh2 Zr5 3.172746 1_555
Rh2 Zr2 3.172757 1_565
Rh2 Zr3 3.172768 1_565
Rh3 Ti1 2.703082 1_555
Rh3 Ti0 2.703082 1_555
Rh3 Zr3 3.172721 1_655
Rh3 Zr1 3.172721 1_655
Rh3 Zr0 3.172724 1_555
Rh3 Zr4 3.172724 1_555
Rh4 Ti2 2.703121 1_555
Rh4 Ti1 2.703123 1_555
Rh4 Zr4 3.172736 1_555
Rh4 Zr5 3.172746 1_555
Rh4 Zr2 3.172757 1_556
Rh4 Zr1 3.172768 1_556
Rh5 Ti3 2.703168 1_555
Rh5 Ti1 2.703237 1_555
Rh5 Zr0 3.172730 1_556
Rh5 Zr5 3.172746 1_655
Rh5 Zr3 3.172770 1_655
Rh5 Zr2 3.172770 1_556
Rh6 Ti3 2.703193 1_555
Rh6 Ti2 2.703283 1_555
Rh6 Zr0 3.172757 1_556
Rh6 Zr4 3.172757 1_565
Rh6 Zr3 3.172809 1_565
Rh6 Zr1 3.172809 1_556
