# generated using pymatgen
data_Zr4Sn(PO4)6
_symmetry_space_group_name_H-M   'P 1'
_cell_length_a   8.78193556
_cell_length_b   8.78192917
_cell_length_c   9.25493553
_cell_angle_alpha   118.32348383
_cell_angle_beta   118.32332477
_cell_angle_gamma   59.99989011
_symmetry_Int_Tables_number   1
_chemical_formula_structural   Zr4Sn(PO4)6
_chemical_formula_sum   'Zr4 Sn1 P6 O24'
_cell_volume   517.11980981
_cell_formula_units_Z   1
loop_
 _symmetry_equiv_pos_site_id
 _symmetry_equiv_pos_as_xyz
  1  'x, y, z'
loop_
 _atom_site_type_symbol
 _atom_site_label
 _atom_site_symmetry_multiplicity
 _atom_site_fract_x
 _atom_site_fract_y
 _atom_site_fract_z
 _atom_site_occupancy
  Zr  Zr0  1  0.35048132  0.35048048  0.05144243  1
  Zr  Zr1  1  0.14217440  0.14216969  0.42651666  1
  Zr  Zr2  1  0.85782618  0.85782936  0.57348157  1
  Zr  Zr3  1  0.64952355  0.64952251  0.94856687  1
  Sn  Sn0  1  0.49999347  0.50001477  0.50002275  1
  P  P0  1  0.74362078  0.04355517  0.25818209  1
  P  P1  1  0.04355468  0.47100382  0.25818122  1
  P  P2  1  0.47100726  0.74361849  0.25818014  1
  P  P3  1  0.52899205  0.25638039  0.74181925  1
  P  P4  1  0.95644657  0.52899365  0.74181832  1
  P  P5  1  0.25637902  0.95644742  0.74181735  1
  O  O0  1  0.88986499  0.50460194  0.09175225  1
  O  O1  1  0.50460798  0.69728221  0.09175298  1
  O  O2  1  0.69728297  0.88986397  0.09175353  1
  O  O3  1  0.58986852  0.23080270  0.23843186  1
  O  O4  1  0.23080280  0.41776383  0.23843500  1
  O  O5  1  0.41776326  0.58986727  0.23843395  1
  O  O6  1  0.92743994  0.04502215  0.28476974  1
  O  O7  1  0.04502118  0.31230599  0.28476932  1
  O  O8  1  0.31230654  0.92743652  0.28476379  1
  O  O9  1  0.74753101  0.01851807  0.41183876  1
  O  O10  1  0.01851628  0.64578778  0.41183826  1
  O  O11  1  0.64578615  0.74753816  0.41184021  1
  O  O12  1  0.35421355  0.25246128  0.58815888  1
  O  O13  1  0.98148474  0.35421020  0.58816111  1
  O  O14  1  0.25246892  0.98147886  0.58815816  1
  O  O15  1  0.68769446  0.07256348  0.71523543  1
  O  O16  1  0.95497946  0.68769152  0.71522845  1
  O  O17  1  0.07256187  0.95497640  0.71522950  1
  O  O18  1  0.58223375  0.41013370  0.76155902  1
  O  O19  1  0.76919322  0.58223534  0.76156044  1
  O  O20  1  0.41013145  0.76919210  0.76155986  1
  O  O21  1  0.30272012  0.11013379  0.90824602  1
  O  O22  1  0.49539275  0.30272302  0.90824796  1
  O  O23  1  0.11013379  0.49539396  0.90824690  1
loop_
_geom_bond_atom_site_label_1
_geom_bond_atom_site_label_2
_geom_bond_distance
_geom_bond_site_symmetry_2
O0 P1 1.530216 1_655
O0 Zr3 2.022567 1_554
O1 P2 1.530214 1_555
O1 Zr3 2.022554 1_554
O2 P0 1.530218 1_565
O2 Zr3 2.022545 1_554
O3 P0 1.546377 1_555
O3 Zr0 2.140852 1_555
O3 Sn0 2.567021 1_555
O4 P1 1.546380 1_555
O4 Zr0 2.140872 1_555
O4 Sn0 2.566893 1_555
O5 P2 1.546377 1_555
O5 Zr0 2.140854 1_555
O5 Sn0 2.566957 1_555
O6 P0 1.519048 1_555
O6 Zr1 2.050463 1_655
O7 P1 1.519047 1_555
O7 Zr1 2.050464 1_555
O8 P2 1.519045 1_555
O8 Zr1 2.050471 1_565
O9 P0 1.521399 1_555
O9 Zr2 2.104502 1_545
O10 P1 1.521398 1_555
O10 Zr2 2.104515 1_455
O11 P2 1.521395 1_555
O11 Zr2 2.104504 1_555
O12 P3 1.521394 1_555
O12 Zr1 2.104500 1_555
O13 P4 1.521397 1_555
O13 Zr1 2.104517 1_655
O14 P5 1.521394 1_555
O14 Zr1 2.104508 1_565
O15 P3 1.519047 1_555
O15 Zr2 2.050476 1_545
O16 P4 1.519054 1_555
O16 Zr2 2.050472 1_555
O17 P5 1.519046 1_555
O17 Zr2 2.050469 1_455
O18 P3 1.546407 1_555
O18 Zr3 2.140926 1_555
O18 Sn0 2.566618 1_555
O19 P4 1.546402 1_555
O19 Zr3 2.140919 1_555
O19 Sn0 2.566691 1_555
O20 P5 1.546409 1_555
O20 Zr3 2.140933 1_555
O20 Sn0 2.566566 1_555
O21 P5 1.530203 1_545
O21 Zr0 2.022596 1_556
O22 P3 1.530204 1_555
O22 Zr0 2.022598 1_556
O23 P4 1.530210 1_455
O23 Zr0 2.022607 1_556
