# generated using pymatgen
data_Hf10Sn6PH
_symmetry_space_group_name_H-M   'P 1'
_cell_length_a   5.75224287
_cell_length_b   8.44210929
_cell_length_c   8.44210962
_cell_angle_alpha   120.00000129
_cell_angle_beta   90.00000000
_cell_angle_gamma   90.00000000
_symmetry_Int_Tables_number   1
_chemical_formula_structural   Hf10Sn6PH
_chemical_formula_sum   'Hf10 Sn6 P1 H1'
_cell_volume   355.03387894
_cell_formula_units_Z   1
loop_
 _symmetry_equiv_pos_site_id
 _symmetry_equiv_pos_as_xyz
  1  'x, y, z'
loop_
 _atom_site_type_symbol
 _atom_site_label
 _atom_site_symmetry_multiplicity
 _atom_site_fract_x
 _atom_site_fract_y
 _atom_site_fract_z
 _atom_site_occupancy
  Hf  Hf0  1  0.73687521  0.75218190  0.75218190  1
  Hf  Hf1  1  0.26312479  0.24781810  0.24781810  1
  Hf  Hf2  1  0.73687521  0.00000000  0.24781810  1
  Hf  Hf3  1  0.26312479  0.00000000  0.75218190  1
  Hf  Hf4  1  0.73687521  0.24781810  0.00000000  1
  Hf  Hf5  1  0.26312479  0.75218190  1.00000000  1
  Hf  Hf6  1  0.00000000  0.66666700  0.33333300  1
  Hf  Hf7  1  0.00000000  0.33333300  0.66666700  1
  Hf  Hf8  1  0.50000000  0.33333300  0.66666700  1
  Hf  Hf9  1  0.50000000  0.66666700  0.33333300  1
  Sn  Sn0  1  0.75253887  0.39542619  0.39542619  1
  Sn  Sn1  1  0.24746113  0.60457381  0.60457381  1
  Sn  Sn2  1  0.75253887  0.00000000  0.60457381  1
  Sn  Sn3  1  0.24746113  0.00000000  0.39542619  1
  Sn  Sn4  1  0.75253887  0.60457381  1.00000000  1
  Sn  Sn5  1  0.24746113  0.39542619  0.00000000  1
  P  P0  1  0.00000000  0.00000000  0.00000000  1
  H  H0  1  0.50000000  0.00000000  0.00000000  1
loop_
_geom_bond_atom_site_label_1
_geom_bond_atom_site_label_2
_geom_bond_distance
_geom_bond_site_symmetry_2
Hf0 P0 2.582203 1_666
Hf0 Sn2 2.923163 1_565
Hf0 Sn4 2.923163 1_555
Hf0 Sn0 3.013118 1_555
Hf0 Sn1 3.078691 1_555
Hf0 Sn1 3.190435 1_655
Hf1 P0 2.582203 1_555
Hf1 Sn3 2.923163 1_555
Hf1 Sn5 2.923163 1_555
Hf1 Sn1 3.013118 1_555
Hf1 Sn0 3.078691 1_555
Hf1 Sn0 3.190435 1_455
Hf2 P0 2.582203 1_655
Hf2 Sn0 2.923163 1_555
Hf2 Sn4 2.923163 1_544
Hf2 Sn2 3.013118 1_555
Hf2 Sn3 3.078691 1_555
Hf2 Sn3 3.190435 1_655
Hf3 P0 2.582203 1_556
Hf3 Sn5 2.923163 1_556
Hf3 Sn1 2.923163 1_545
Hf3 Sn3 3.013118 1_555
Hf3 Sn2 3.078691 1_555
Hf3 Sn2 3.190435 1_455
Hf4 P0 2.582203 1_655
Hf4 Sn2 2.923163 1_554
Hf4 Sn0 2.923163 1_555
Hf4 Sn4 3.013118 1_554
Hf4 Sn5 3.078691 1_555
Hf4 Sn5 3.190435 1_655
Hf5 P0 2.582203 1_566
Hf5 Sn3 2.923163 1_566
Hf5 Sn1 2.923163 1_555
Hf5 Sn5 3.013118 1_556
Hf5 Sn4 3.078691 1_555
Hf5 Sn4 3.190435 1_455
Hf6 Sn3 2.957142 1_565
Hf6 Sn4 2.957142 1_454
Hf6 Sn2 2.957144 1_465
Hf6 Sn5 2.957144 1_555
Hf6 Sn0 2.957149 1_455
Hf6 Sn1 2.957149 1_555
Hf7 Sn2 2.957142 1_455
Hf7 Sn5 2.957142 1_556
Hf7 Sn3 2.957144 1_555
Hf7 Sn4 2.957144 1_455
Hf7 Sn1 2.957149 1_555
Hf7 Sn0 2.957149 1_455
Hf8 Sn2 2.971312 1_555
Hf8 Sn5 2.971312 1_556
Hf8 Sn3 2.971314 1_555
Hf8 Sn4 2.971314 1_555
Hf8 Sn1 2.971319 1_555
Hf8 Sn0 2.971319 1_555
Hf9 Sn3 2.971312 1_565
Hf9 Sn4 2.971312 1_554
Hf9 Sn2 2.971314 1_565
Hf9 Sn5 2.971314 1_555
Hf9 Sn0 2.971319 1_555
Hf9 Sn1 2.971319 1_555
H0 Hf4 2.496697 1_555
H0 Hf5 2.496697 1_544
H0 Hf1 2.496697 1_555
H0 Hf0 2.496697 1_544
H0 Hf2 2.496697 1_555
H0 Hf3 2.496697 1_554
