# generated using pymatgen
data_Ir2SeS3
_symmetry_space_group_name_H-M   'P 1'
_cell_length_a   3.62408081
_cell_length_b   5.67288221
_cell_length_c   20.28845829
_cell_angle_alpha   90.00000000
_cell_angle_beta   90.00000000
_cell_angle_gamma   90.00000000
_symmetry_Int_Tables_number   1
_chemical_formula_structural   Ir2SeS3
_chemical_formula_sum   'Ir8 Se4 S12'
_cell_volume   417.11008106
_cell_formula_units_Z   4
loop_
 _symmetry_equiv_pos_site_id
 _symmetry_equiv_pos_as_xyz
  1  'x, y, z'
loop_
 _atom_site_type_symbol
 _atom_site_label
 _atom_site_symmetry_multiplicity
 _atom_site_fract_x
 _atom_site_fract_y
 _atom_site_fract_z
 _atom_site_occupancy
  Ir  Ir0  1  0.25000000  0.94070724  0.80272701  1
  Ir  Ir1  1  0.75000000  0.05929276  0.19727299  1
  Ir  Ir2  1  0.75000000  0.44070724  0.69727299  1
  Ir  Ir3  1  0.25000000  0.55929276  0.30272701  1
  Ir  Ir4  1  0.25000000  0.92652174  0.58107292  1
  Ir  Ir5  1  0.75000000  0.07347826  0.41892708  1
  Ir  Ir6  1  0.75000000  0.42652174  0.91892708  1
  Ir  Ir7  1  0.25000000  0.57347826  0.08107292  1
  Se  Se0  1  0.25000000  0.23673914  0.49185074  1
  Se  Se1  1  0.75000000  0.76326086  0.50814926  1
  Se  Se2  1  0.75000000  0.73673914  0.00814926  1
  Se  Se3  1  0.25000000  0.26326086  0.99185074  1
  S  S0  1  0.25000000  0.17867423  0.26285900  1
  S  S1  1  0.75000000  0.82132577  0.73714100  1
  S  S2  1  0.75000000  0.67867423  0.23714100  1
  S  S3  1  0.25000000  0.32132577  0.76285900  1
  S  S4  1  0.25000000  0.93607188  0.35693417  1
  S  S5  1  0.75000000  0.06392812  0.64306583  1
  S  S6  1  0.75000000  0.43607188  0.14306583  1
  S  S7  1  0.25000000  0.56392812  0.85693417  1
  S  S8  1  0.25000000  0.54736755  0.62667915  1
  S  S9  1  0.75000000  0.45263245  0.37332085  1
  S  S10  1  0.75000000  0.04736755  0.87332085  1
  S  S11  1  0.25000000  0.95263245  0.12667915  1
loop_
_geom_bond_atom_site_label_1
_geom_bond_atom_site_label_2
_geom_bond_distance
_geom_bond_site_symmetry_2
Ir0 S3 2.305736 1_565
Ir0 S1 2.347923 1_455
Ir0 S1 2.347923 1_555
Ir0 S10 2.387659 1_565
Ir0 S10 2.387659 1_465
Ir0 S7 2.403767 1_555
Ir1 S2 2.305736 1_545
Ir1 S0 2.347923 1_655
Ir1 S0 2.347923 1_555
Ir1 S11 2.387659 1_645
Ir1 S11 2.387659 1_545
Ir1 S6 2.403767 1_555
Ir2 S1 2.305736 1_555
Ir2 S3 2.347923 1_655
Ir2 S3 2.347923 1_555
Ir2 S8 2.387659 1_655
Ir2 S8 2.387659 1_555
Ir2 S5 2.403767 1_555
Ir3 S0 2.305736 1_555
Ir3 S2 2.347923 1_555
Ir3 S2 2.347923 1_455
Ir3 S9 2.387659 1_455
Ir3 S9 2.387659 1_555
Ir3 S4 2.403767 1_555
Ir4 S5 2.339446 1_465
Ir4 S5 2.339446 1_565
Ir4 S8 2.341474 1_555
Ir4 Se1 2.515990 1_455
Ir4 Se1 2.515990 1_555
Ir4 Se0 2.524627 1_565
Ir5 S4 2.339446 1_645
Ir5 S4 2.339446 1_545
Ir5 S9 2.341474 1_555
Ir5 Se0 2.515990 1_555
Ir5 Se0 2.515990 1_655
Ir5 Se1 2.524627 1_545
Ir6 S7 2.339446 1_555
Ir6 S7 2.339446 1_655
Ir6 S10 2.341474 1_555
Ir6 Se3 2.515990 1_555
Ir6 Se3 2.515990 1_655
Ir6 Se2 2.524627 1_556
Ir7 S6 2.339446 1_455
Ir7 S6 2.339446 1_555
Ir7 S11 2.341474 1_555
Ir7 Se2 2.515990 1_555
Ir7 Se2 2.515990 1_455
Ir7 Se3 2.524627 1_554
S0 S4 2.353080 1_545
S1 S5 2.353080 1_565
S2 S6 2.353080 1_555
S3 S7 2.353080 1_555
