# generated using pymatgen
data_RbMg2H8Ir
_symmetry_space_group_name_H-M   'P 1'
_cell_length_a   5.00658468
_cell_length_b   5.00658468
_cell_length_c   11.01624683
_cell_angle_alpha   90.00000000
_cell_angle_beta   90.00000000
_cell_angle_gamma   90.00000000
_symmetry_Int_Tables_number   1
_chemical_formula_structural   RbMg2H8Ir
_chemical_formula_sum   'Rb2 Mg4 H16 Ir2'
_cell_volume   276.13203267
_cell_formula_units_Z   2
loop_
 _symmetry_equiv_pos_site_id
 _symmetry_equiv_pos_as_xyz
  1  'x, y, z'
loop_
 _atom_site_type_symbol
 _atom_site_label
 _atom_site_symmetry_multiplicity
 _atom_site_fract_x
 _atom_site_fract_y
 _atom_site_fract_z
 _atom_site_occupancy
  Rb  Rb0  1  0.50000000  0.00000000  0.00000000  1
  Rb  Rb1  1  0.00000000  0.50000000  0.50000000  1
  Mg  Mg0  1  0.50000000  0.00000000  0.63223283  1
  Mg  Mg1  1  0.00000000  0.50000000  0.13223283  1
  Mg  Mg2  1  0.50000000  0.00000000  0.36776717  1
  Mg  Mg3  1  0.00000000  0.50000000  0.86776717  1
  H  H0  1  0.23622284  0.23622284  0.75000000  1
  H  H1  1  0.76377716  0.76377716  0.75000000  1
  H  H2  1  0.76377716  0.23622284  0.25000000  1
  H  H3  1  0.23622284  0.76377716  0.25000000  1
  H  H4  1  0.76377716  0.76377716  0.25000000  1
  H  H5  1  0.23622284  0.23622284  0.25000000  1
  H  H6  1  0.23622284  0.76377716  0.75000000  1
  H  H7  1  0.76377716  0.23622284  0.75000000  1
  H  H8  1  0.50000000  0.24434303  0.50000000  1
  H  H9  1  0.50000000  0.75565697  0.50000000  1
  H  H10  1  0.75565697  0.50000000  0.00000000  1
  H  H11  1  0.24434303  0.50000000  0.00000000  1
  H  H12  1  0.00000000  0.00000000  0.59955165  1
  H  H13  1  0.00000000  0.00000000  0.09955165  1
  H  H14  1  0.00000000  0.00000000  0.40044835  1
  H  H15  1  0.00000000  0.00000000  0.90044835  1
  Ir  Ir0  1  0.00000000  0.00000000  0.75000000  1
  Ir  Ir1  1  0.00000000  0.00000000  0.25000000  1
loop_
_geom_bond_atom_site_label_1
_geom_bond_atom_site_label_2
_geom_bond_distance
_geom_bond_site_symmetry_2
H0 Ir0 1.672547 1_555
H0 Mg3 2.196787 1_555
H0 Mg0 2.196787 1_555
H1 Ir0 1.672547 1_665
H1 Mg3 2.196787 1_655
H1 Mg0 2.196787 1_565
H2 Ir1 1.672547 1_655
H2 Mg2 2.196787 1_555
H2 Mg1 2.196787 1_655
H3 Ir1 1.672547 1_565
H3 Mg2 2.196787 1_565
H3 Mg1 2.196787 1_555
H4 Ir1 1.672547 1_665
H4 Mg2 2.196787 1_565
H4 Mg1 2.196787 1_655
H5 Ir1 1.672547 1_555
H5 Mg2 2.196787 1_555
H5 Mg1 2.196787 1_555
H6 Ir0 1.672547 1_565
H6 Mg3 2.196787 1_555
H6 Mg0 2.196787 1_565
H7 Ir0 1.672547 1_655
H7 Mg3 2.196787 1_655
H7 Mg0 2.196787 1_555
H8 Mg0 1.902242 1_555
H8 Mg2 1.902242 1_555
H8 Rb1 2.811546 1_655
H8 Rb1 2.811546 1_555
H9 Mg0 1.902242 1_565
H9 Mg2 1.902242 1_565
H9 Rb1 2.811546 1_655
H9 Rb1 2.811546 1_555
H10 Mg1 1.902242 1_655
H10 Mg3 1.902242 1_654
H10 Rb0 2.811546 1_565
H10 Rb0 2.811546 1_555
H11 Mg1 1.902242 1_555
H11 Mg3 1.902242 1_554
H11 Rb0 2.811546 1_565
H11 Rb0 2.811546 1_555
H12 Ir0 1.657376 1_555
H12 Rb1 2.732982 1_545
H12 Rb1 2.732982 1_555
H13 Ir1 1.657376 1_555
H13 Rb0 2.732982 1_555
H13 Rb0 2.732982 1_455
H14 Ir1 1.657376 1_555
H14 Rb1 2.732982 1_545
H14 Rb1 2.732982 1_555
H15 Ir0 1.657376 1_555
H15 Rb0 2.732982 1_456
H15 Rb0 2.732982 1_556
