# generated using pymatgen
data_Sr6TiRh4O15
_symmetry_space_group_name_H-M   'P 1'
_cell_length_a   7.05372869
_cell_length_b   7.05372871
_cell_length_c   7.05372868
_cell_angle_alpha   86.65104512
_cell_angle_beta   86.65104820
_cell_angle_gamma   86.65105570
_symmetry_Int_Tables_number   1
_chemical_formula_structural   Sr6TiRh4O15
_chemical_formula_sum   'Sr6 Ti1 Rh4 O15'
_cell_volume   349.22810004
_cell_formula_units_Z   1
loop_
 _symmetry_equiv_pos_site_id
 _symmetry_equiv_pos_as_xyz
  1  'x, y, z'
loop_
 _atom_site_type_symbol
 _atom_site_label
 _atom_site_symmetry_multiplicity
 _atom_site_fract_x
 _atom_site_fract_y
 _atom_site_fract_z
 _atom_site_occupancy
  Sr  Sr0  1  0.32537449  0.67462551  1.00000000  1
  Sr  Sr1  1  0.67462551  0.00000000  0.32537449  1
  Sr  Sr2  1  1.00000000  0.32537449  0.67462551  1
  Sr  Sr3  1  0.13959035  0.86040965  0.50000000  1
  Sr  Sr4  1  0.86040965  0.50000000  0.13959035  1
  Sr  Sr5  1  0.50000000  0.13959035  0.86040965  1
  Ti  Ti0  1  0.50000000  0.50000000  0.50000000  1
  Rh  Rh0  1  0.90445926  0.90445926  0.90445926  1
  Rh  Rh1  1  0.09554074  0.09554074  0.09554074  1
  Rh  Rh2  1  0.70680836  0.70680836  0.70680836  1
  Rh  Rh3  1  0.29319164  0.29319164  0.29319164  1
  O  O0  1  0.25253598  0.55733448  0.38026016  1
  O  O1  1  0.38026016  0.25253598  0.55733448  1
  O  O2  1  0.55733448  0.38026016  0.25253598  1
  O  O3  1  0.74746402  0.61973984  0.44266552  1
  O  O4  1  0.44266552  0.74746402  0.61973984  1
  O  O5  1  0.61973984  0.44266552  0.74746402  1
  O  O6  1  0.00000000  0.83406215  0.16593785  1
  O  O7  1  0.16593785  1.00000000  0.83406215  1
  O  O8  1  0.83406215  0.16593785  0.00000000  1
  O  O9  1  0.35028500  0.01912422  0.20156975  1
  O  O10  1  0.20156975  0.35028500  0.01912422  1
  O  O11  1  0.79843025  0.98087578  0.64971500  1
  O  O12  1  0.98087578  0.64971500  0.79843025  1
  O  O13  1  0.64971500  0.79843025  0.98087578  1
  O  O14  1  0.01912422  0.20156975  0.35028500  1
loop_
_geom_bond_atom_site_label_1
_geom_bond_atom_site_label_2
_geom_bond_distance
_geom_bond_site_symmetry_2
O0 Ti0 1.993418 1_555
O0 Rh3 1.995395 1_555
O0 Sr3 2.419022 1_555
O0 Sr0 2.787889 1_554
O0 Sr2 3.110143 1_455
O1 Ti0 1.993418 1_555
O1 Rh3 1.995395 1_555
O1 Sr5 2.419022 1_555
O1 Sr2 2.787889 1_455
O1 Sr1 3.110143 1_555
O2 Ti0 1.993418 1_555
O2 Rh3 1.995395 1_555
O2 Sr4 2.419022 1_555
O2 Sr1 2.787889 1_555
O2 Sr0 3.110143 1_554
O3 Ti0 1.993418 1_555
O3 Rh2 1.995395 1_555
O3 Sr4 2.419022 1_555
O3 Sr1 2.787889 1_565
O3 Sr2 3.110143 1_555
O4 Ti0 1.993418 1_555
O4 Rh2 1.995395 1_555
O4 Sr3 2.419022 1_555
O4 Sr0 2.787889 1_555
O4 Sr1 3.110143 1_565
O5 Ti0 1.993418 1_555
O5 Rh2 1.995395 1_555
O5 Sr5 2.419022 1_555
O5 Sr2 2.787889 1_555
O5 Sr0 3.110143 1_555
O6 Rh1 2.025258 1_565
O6 Rh0 2.025258 1_454
O6 Sr4 2.626824 1_455
O6 Sr3 2.626824 1_555
O6 Sr0 2.727760 1_554
O6 Sr1 2.727760 1_465
O7 Rh0 2.025258 1_455
O7 Rh1 2.025258 1_566
O7 Sr5 2.626824 1_565
O7 Sr3 2.626824 1_555
O7 Sr0 2.727760 1_555
O7 Sr2 2.727760 1_465
O8 Rh1 2.025258 1_655
O8 Rh0 2.025258 1_544
O8 Sr5 2.626824 1_554
O8 Sr4 2.626824 1_555
O8 Sr1 2.727759 1_555
O8 Sr2 2.727759 1_554
O9 Rh1 2.018784 1_555
O9 Rh3 2.083677 1_555
O9 Sr1 2.489679 1_555
O9 Sr5 2.682781 1_554
O9 Sr3 2.728891 1_545
O9 Sr0 2.905182 1_544
O10 Rh1 2.018784 1_555
O10 Rh3 2.083677 1_555
O10 Sr0 2.489679 1_554
O10 Sr4 2.682782 1_455
O10 Sr5 2.728891 1_554
O10 Sr2 2.905182 1_454
O11 Rh0 2.018784 1_555
O11 Rh2 2.083677 1_555
O11 Sr1 2.489679 1_565
O11 Sr3 2.682782 1_655
O11 Sr5 2.728891 1_565
O11 Sr2 2.905182 1_565
O12 Rh0 2.018784 1_555
O12 Rh2 2.083677 1_555
O12 Sr2 2.489679 1_555
O12 Sr4 2.682781 1_556
O12 Sr3 2.728891 1_655
O12 Sr0 2.905182 1_655
O13 Rh0 2.018784 1_555
O13 Rh2 2.083677 1_555
O13 Sr0 2.489679 1_555
O13 Sr5 2.682782 1_565
O13 Sr4 2.728891 1_556
O13 Sr1 2.905182 1_566
O14 Rh1 2.018784 1_555
O14 Rh3 2.083677 1_555
O14 Sr2 2.489679 1_455
O14 Sr3 2.682782 1_545
O14 Sr4 2.728891 1_455
O14 Sr1 2.905182 1_455
