# generated using pymatgen
data_Ga3Ni13Ge6
_symmetry_space_group_name_H-M   'P 1'
_cell_length_a   7.89462542
_cell_length_b   7.89462542
_cell_length_c   15.11128300
_cell_angle_alpha   90.00000000
_cell_angle_beta   90.00000000
_cell_angle_gamma   119.99999514
_symmetry_Int_Tables_number   1
_chemical_formula_structural   Ga3Ni13Ge6
_chemical_formula_sum   'Ga9 Ni39 Ge18'
_cell_volume   815.63348936
_cell_formula_units_Z   3
loop_
 _symmetry_equiv_pos_site_id
 _symmetry_equiv_pos_as_xyz
  1  'x, y, z'
loop_
 _atom_site_type_symbol
 _atom_site_label
 _atom_site_symmetry_multiplicity
 _atom_site_fract_x
 _atom_site_fract_y
 _atom_site_fract_z
 _atom_site_occupancy
  Ga  Ga0  1  0.48995700  0.00000000  0.83333300  1
  Ga  Ga1  1  0.00000000  0.48995700  0.16666700  1
  Ga  Ga2  1  0.51004300  0.51004300  0.50000000  1
  Ga  Ga3  1  0.30550300  0.19414900  0.92005800  1
  Ga  Ga4  1  0.80585100  0.11135400  0.25339200  1
  Ga  Ga5  1  0.88864600  0.69449700  0.58672500  1
  Ga  Ga6  1  0.11135400  0.80585100  0.74660800  1
  Ga  Ga7  1  0.69449700  0.88864600  0.41327500  1
  Ga  Ga8  1  0.19414900  0.30550300  0.07994200  1
  Ni  Ni0  1  0.00828000  0.00000000  0.33333300  1
  Ni  Ni1  1  0.00000000  0.00828000  0.66666700  1
  Ni  Ni2  1  0.99172000  0.99172000  0.00000000  1
  Ni  Ni3  1  0.49175800  0.00000000  0.33333300  1
  Ni  Ni4  1  0.00000000  0.49175800  0.66666700  1
  Ni  Ni5  1  0.50824200  0.50824200  0.00000000  1
  Ni  Ni6  1  0.99823600  0.00000000  0.83333300  1
  Ni  Ni7  1  0.00000000  0.99823600  0.16666700  1
  Ni  Ni8  1  0.00176400  0.00176400  0.50000000  1
  Ni  Ni9  1  0.50234500  0.99671900  0.99828100  1
  Ni  Ni10  1  0.00328100  0.50562600  0.33161400  1
  Ni  Ni11  1  0.49437400  0.49765500  0.66494800  1
  Ni  Ni12  1  0.50562600  0.00328100  0.66838600  1
  Ni  Ni13  1  0.49765500  0.49437400  0.33505200  1
  Ni  Ni14  1  0.99671900  0.50234500  0.00171900  1
  Ni  Ni15  1  0.49675300  0.00222900  0.16631300  1
  Ni  Ni16  1  0.99777100  0.49452500  0.49964700  1
  Ni  Ni17  1  0.50547500  0.50324700  0.83298000  1
  Ni  Ni18  1  0.49452500  0.99777100  0.50035300  1
  Ni  Ni19  1  0.50324700  0.50547500  0.16702000  1
  Ni  Ni20  1  0.00222900  0.49675300  0.83368700  1
  Ni  Ni21  1  0.67958400  0.34215500  0.24627000  1
  Ni  Ni22  1  0.65784500  0.33742900  0.57960300  1
  Ni  Ni23  1  0.66257100  0.32041600  0.91293600  1
  Ni  Ni24  1  0.33742900  0.65784500  0.42039700  1
  Ni  Ni25  1  0.32041600  0.66257100  0.08706400  1
  Ni  Ni26  1  0.34215500  0.67958400  0.75373000  1
  Ni  Ni27  1  0.34097500  0.18170000  0.42640700  1
  Ni  Ni28  1  0.81830000  0.15927500  0.75974000  1
  Ni  Ni29  1  0.84072500  0.65902500  0.09307300  1
  Ni  Ni30  1  0.15927500  0.81830000  0.24026000  1
  Ni  Ni31  1  0.65902500  0.84072500  0.90692700  1
  Ni  Ni32  1  0.18170000  0.34097500  0.57359300  1
  Ni  Ni33  1  0.34066000  0.16482000  0.75098900  1
  Ni  Ni34  1  0.83518000  0.17584000  0.08432200  1
  Ni  Ni35  1  0.82416000  0.65934000  0.41765600  1
  Ni  Ni36  1  0.17584000  0.83518000  0.91567800  1
  Ni  Ni37  1  0.65934000  0.82416000  0.58234400  1
  Ni  Ni38  1  0.16482000  0.34066000  0.24901100  1
  Ge  Ge0  1  0.61321300  0.30629000  0.07772400  1
  Ge  Ge1  1  0.69371000  0.30692300  0.41105700  1
  Ge  Ge2  1  0.69307700  0.38678700  0.74439100  1
  Ge  Ge3  1  0.30692300  0.69371000  0.58894300  1
  Ge  Ge4  1  0.38678700  0.69307700  0.25560900  1
  Ge  Ge5  1  0.30629000  0.61321300  0.92227600  1
  Ge  Ge6  1  0.33387400  0.16713300  0.25214700  1
  Ge  Ge7  1  0.83286700  0.16674100  0.58548000  1
  Ge  Ge8  1  0.83325900  0.66612600  0.91881300  1
  Ge  Ge9  1  0.16674100  0.83286700  0.41452000  1
  Ge  Ge10  1  0.66612600  0.83325900  0.08118700  1
  Ge  Ge11  1  0.16713300  0.33387400  0.74785300  1
  Ge  Ge12  1  0.30711800  0.11372100  0.58948400  1
  Ge  Ge13  1  0.88627900  0.19339600  0.92281800  1
  Ge  Ge14  1  0.80660400  0.69288200  0.25615100  1
  Ge  Ge15  1  0.19339600  0.88627900  0.07718200  1
  Ge  Ge16  1  0.69288200  0.80660400  0.74384900  1
  Ge  Ge17  1  0.11372100  0.30711800  0.41051600  1
loop_
_geom_bond_atom_site_label_1
_geom_bond_atom_site_label_2
_geom_bond_distance
_geom_bond_site_symmetry_2
Ga0 Ni33 2.482798 1_555
Ga0 Ni36 2.482806 1_545
Ga0 Ni12 2.495121 1_555
Ga0 Ni9 2.495136 1_545
Ga0 Ni26 2.501118 1_545
Ga0 Ni23 2.501118 1_555
Ga0 Ni28 2.505522 1_555
Ga0 Ni31 2.505528 1_545
Ga1 Ni38 2.482798 1_555
Ga1 Ni34 2.482806 1_455
Ga1 Ni10 2.495121 1_555
Ga1 Ni14 2.495136 1_455
Ga1 Ni21 2.501118 1_455
Ga1 Ni25 2.501118 1_555
Ga1 Ni30 2.505522 1_555
Ga1 Ni29 2.505528 1_455
Ga2 Ni37 2.482798 1_555
Ga2 Ni35 2.482798 1_555
Ga2 Ni13 2.495136 1_555
Ga2 Ni11 2.495136 1_555
Ga2 Ni22 2.501118 1_555
Ga2 Ni24 2.501118 1_555
Ga2 Ni27 2.505522 1_555
Ga2 Ni32 2.505522 1_555
Ga3 Ni23 2.478219 1_555
Ga3 Ni36 2.486450 1_545
Ga3 Ni2 2.488163 1_446
Ga3 Ni5 2.490168 1_556
Ga3 Ni6 2.496600 1_455
Ga3 Ni17 2.515166 1_555
Ga3 Ni33 2.592714 1_555
Ga3 Ni9 2.943399 1_545
Ga4 Ni21 2.478219 1_555
Ga4 Ni38 2.486451 1_655
Ga4 Ni0 2.488156 1_655
Ga4 Ni3 2.490160 1_555
Ga4 Ni7 2.496600 1_645
Ga4 Ni15 2.515175 1_555
Ga4 Ni34 2.592729 1_555
Ga4 Ni10 2.943393 1_655
Ga5 Ni22 2.478219 1_555
Ga5 Ni37 2.486451 1_555
Ga5 Ni1 2.488163 1_665
Ga5 Ni4 2.490168 1_655
Ga5 Ni8 2.496600 1_665
Ga5 Ni16 2.515161 1_555
Ga5 Ni35 2.592714 1_555
Ga5 Ni11 2.943399 1_555
Ga6 Ni26 2.478219 1_555
Ga6 Ni33 2.486451 1_565
Ga6 Ni1 2.488156 1_565
Ga6 Ni4 2.490160 1_555
Ga6 Ni6 2.496600 1_465
Ga6 Ni20 2.515175 1_555
Ga6 Ni36 2.592729 1_555
Ga6 Ni12 2.943393 1_565
Ga7 Ni24 2.478219 1_555
Ga7 Ni35 2.486451 1_555
Ga7 Ni0 2.488163 1_665
Ga7 Ni3 2.490168 1_565
Ga7 Ni8 2.496600 1_665
Ga7 Ni18 2.515161 1_555
Ga7 Ni37 2.592714 1_555
Ga7 Ni13 2.943399 1_555
Ga8 Ni25 2.478219 1_555
Ga8 Ni34 2.486450 1_455
Ga8 Ni2 2.488163 1_445
Ga8 Ni5 2.490168 1_555
Ga8 Ni7 2.496600 1_545
Ga8 Ni19 2.515166 1_555
Ga8 Ni38 2.592714 1_555
Ga8 Ni14 2.943399 1_455
Ni0 Ni7 2.519243 1_545
Ni0 Ni8 2.519258 1_555
Ni0 Ni38 2.657077 1_555
Ni0 Ni35 2.657084 1_445
Ni0 Ni30 2.677066 1_545
Ni0 Ni27 2.677074 1_555
Ni1 Ni6 2.519243 1_455
Ni1 Ni8 2.519258 1_555
Ni1 Ni33 2.657077 1_555
Ni1 Ni37 2.657084 1_445
Ni1 Ni28 2.677066 1_455
Ni1 Ni32 2.677074 1_555
Ni2 Ni7 2.519258 1_655
Ni2 Ni6 2.519258 1_564
Ni2 Ni34 2.657077 1_565
Ni2 Ni36 2.657077 1_654
Ni2 Ni31 2.677067 1_554
Ni2 Ni29 2.677067 1_555
Ni3 Ni30 2.675873 1_545
Ni10 Ni16 2.540328 1_455
Ni10 Ni30 2.544727 1_555
Ni10 Ni38 2.557622 1_555
Ni10 Ni21 2.561482 1_455
Ni10 Ni35 2.622753 1_455
Ni10 Ni24 2.651959 1_555
Ni11 Ni17 2.540313 1_555
Ni11 Ni32 2.544735 1_555
Ni11 Ni37 2.557629 1_555
Ni11 Ni22 2.561489 1_555
Ni11 Ni33 2.622745 1_555
Ni11 Ni26 2.651952 1_555
Ni12 Ni18 2.540328 1_545
Ni12 Ni28 2.544727 1_555
Ni12 Ni33 2.557622 1_555
Ni12 Ni26 2.561482 1_545
Ni12 Ni37 2.622753 1_545
Ni12 Ni22 2.651959 1_555
Ni13 Ni19 2.540313 1_555
Ni13 Ni27 2.544735 1_555
Ni13 Ni35 2.557629 1_555
Ni13 Ni24 2.561489 1_555
Ni13 Ni38 2.622745 1_555
Ni13 Ni21 2.651952 1_555
Ni14 Ni20 2.540313 1_654
Ni14 Ni29 2.544727 1_555
Ni14 Ni34 2.557622 1_555
Ni14 Ni25 2.561489 1_655
Ni14 Ni36 2.622745 1_654
Ni14 Ni23 2.651959 1_554
Ni15 Ni3 2.524118 1_555
Ni15 Ni9 2.540313 1_544
Ni15 Ni30 2.566469 1_545
Ni15 Ni25 2.613331 1_545
Ni15 Ni21 2.621341 1_555
Ni15 Ni34 2.624882 1_555
Ni16 Ni4 2.524119 1_655
Ni16 Ni32 2.566468 1_655
Ni16 Ni24 2.613338 1_655
Ni16 Ni22 2.621334 1_555
Ni16 Ni35 2.624876 1_555
Ni17 Ni5 2.524118 1_556
Ni17 Ni31 2.566468 1_555
Ni17 Ni26 2.613332 1_555
Ni17 Ni23 2.621340 1_555
Ni17 Ni33 2.624882 1_555
Ni18 Ni3 2.524119 1_565
Ni18 Ni27 2.566468 1_565
Ni18 Ni22 2.613338 1_565
Ni18 Ni24 2.621334 1_555
Ni18 Ni37 2.624876 1_555
Ni19 Ni5 2.524118 1_555
Ni19 Ni29 2.566468 1_555
Ni19 Ni21 2.613332 1_555
Ni19 Ni25 2.621340 1_555
Ni19 Ni38 2.624882 1_555
Ni20 Ni4 2.524118 1_555
Ni20 Ni28 2.566469 1_455
Ni20 Ni23 2.613331 1_455
Ni20 Ni26 2.621341 1_555
Ni20 Ni36 2.624882 1_555
Ni21 Ni3 2.687132 1_555
Ni22 Ni4 2.687139 1_655
Ni23 Ni9 2.561489 1_545
Ni23 Ni5 2.687139 1_556
Ni24 Ni3 2.687139 1_565
Ni25 Ni9 2.651959 1_554
Ni25 Ni5 2.687139 1_555
Ni26 Ni4 2.687132 1_555
Ni27 Ni8 2.573309 1_555
Ni27 Ni3 2.675881 1_555
Ni28 Ni6 2.573309 1_555
Ni28 Ni4 2.675873 1_655
Ni29 Ni7 2.573316 1_655
Ni29 Ni5 2.675873 1_555
Ni30 Ni7 2.573309 1_555
Ni31 Ni9 2.544727 1_555
Ni31 Ni6 2.573316 1_565
Ni31 Ni5 2.675873 1_556
Ni32 Ni8 2.573309 1_555
Ni32 Ni4 2.675881 1_555
Ni33 Ni6 2.651754 1_455
Ni34 Ni9 2.622745 1_544
Ni34 Ni7 2.651761 1_645
Ni35 Ni8 2.651754 1_665
Ni36 Ni9 2.557622 1_555
Ni36 Ni6 2.651761 1_465
Ni37 Ni8 2.651754 1_665
Ni38 Ni7 2.651754 1_545
Ge0 Ni5 2.435030 1_555
Ge0 Ni34 2.438425 1_555
Ge0 Ni29 2.456173 1_555
Ge0 Ni9 2.457851 1_544
Ge0 Ni15 2.488487 1_555
Ge0 Ni23 2.514300 1_554
Ge0 Ni19 2.532263 1_555
Ge0 Ni21 2.587140 1_555
Ge0 Ni14 2.862729 1_555
Ge1 Ni3 2.435030 1_555
Ge1 Ni35 2.438426 1_555
Ge1 Ni27 2.456174 1_555
Ge1 Ni10 2.457851 1_655
Ge1 Ni16 2.488497 1_555
Ge1 Ni21 2.514285 1_555
Ge1 Ni18 2.532269 1_545
Ge1 Ni22 2.587140 1_555
Ge1 Ni13 2.862729 1_555
Ge2 Ni4 2.435030 1_655
Ge2 Ni33 2.438426 1_555
Ge2 Ni28 2.456173 1_555
Ge2 Ni11 2.457851 1_555
Ge2 Ni17 2.488494 1_555
Ge2 Ni22 2.514300 1_555
Ge2 Ni20 2.532270 1_655
Ge2 Ni23 2.587125 1_555
Ge2 Ni12 2.862729 1_555
Ge3 Ni4 2.435030 1_555
Ge3 Ni37 2.438426 1_555
Ge3 Ni32 2.456174 1_555
Ge3 Ni12 2.457851 1_565
Ge3 Ni18 2.488497 1_555
Ge3 Ni26 2.514285 1_555
Ge3 Ni16 2.532269 1_455
Ge3 Ni24 2.587140 1_555
Ge3 Ni11 2.862729 1_555
Ge4 Ni3 2.435030 1_565
Ge4 Ni38 2.438426 1_555
Ge4 Ni30 2.456173 1_555
Ge4 Ni13 2.457851 1_555
Ge4 Ni19 2.488494 1_555
Ge4 Ni24 2.514300 1_555
Ge4 Ni15 2.532270 1_565
Ge4 Ni25 2.587125 1_555
Ge4 Ni10 2.862729 1_555
Ge5 Ni5 2.435030 1_556
Ge5 Ni36 2.438425 1_555
Ge5 Ni31 2.456173 1_555
Ge5 Ni14 2.457851 1_456
Ge5 Ni20 2.488487 1_555
Ge5 Ni25 2.514300 1_556
Ge5 Ni17 2.532263 1_555
Ge5 Ni26 2.587140 1_555
Ge5 Ni9 2.862729 1_555
Ge6 Ni38 2.342754 1_555
Ge6 Ni21 2.365330 1_555
Ge6 Ni30 2.391708 1_545
Ge6 Ni3 2.538556 1_555
Ge6 Ni0 2.541978 1_555
Ge6 Ni13 2.564206 1_555
Ge6 Ni15 2.589338 1_555
Ge6 Ni7 2.622858 1_545
Ge6 Ni27 2.635175 1_555
Ge6 Ni19 2.646845 1_555
Ge7 Ni37 2.342754 1_545
Ge7 Ni22 2.365330 1_555
Ge7 Ni32 2.391708 1_655
Ge7 Ni4 2.538563 1_655
Ge7 Ni1 2.541985 1_655
Ge7 Ni12 2.564214 1_555
Ge7 Ni16 2.589336 1_555
Ge7 Ni8 2.622858 1_655
Ge7 Ni28 2.635175 1_555
Ge7 Ni18 2.646845 1_545
Ge8 Ni36 2.342754 1_655
Ge8 Ni23 2.365330 1_555
Ge8 Ni31 2.391707 1_555
Ge8 Ni5 2.538563 1_556
Ge8 Ni2 2.541985 1_556
Ge8 Ni14 2.564213 1_556
Ge8 Ni17 2.589336 1_555
Ge8 Ni6 2.622858 1_565
Ge8 Ni29 2.635175 1_556
Ge8 Ni20 2.646843 1_655
Ge9 Ni35 2.342754 1_455
Ge9 Ni24 2.365330 1_555
Ge9 Ni27 2.391708 1_565
Ge9 Ni3 2.538563 1_565
Ge9 Ni0 2.541985 1_565
Ge9 Ni10 2.564214 1_555
Ge9 Ni18 2.589336 1_555
Ge9 Ni8 2.622858 1_565
Ge9 Ni30 2.635175 1_555
Ge9 Ni16 2.646845 1_455
Ge10 Ni34 2.342754 1_565
Ge10 Ni25 2.365330 1_555
Ge10 Ni29 2.391707 1_555
Ge10 Ni5 2.538563 1_555
Ge10 Ni2 2.541985 1_555
Ge10 Ni9 2.564213 1_554
Ge10 Ni19 2.589336 1_555
Ge10 Ni7 2.622858 1_655
Ge10 Ni31 2.635175 1_554
Ge10 Ni15 2.646843 1_565
Ge11 Ni33 2.342754 1_555
Ge11 Ni26 2.365330 1_555
Ge11 Ni28 2.391708 1_455
Ge11 Ni4 2.538556 1_555
Ge11 Ni1 2.541978 1_555
Ge11 Ni11 2.564206 1_555
Ge11 Ni20 2.589338 1_555
Ge11 Ni6 2.622858 1_455
Ge11 Ni32 2.635175 1_555
Ge11 Ni17 2.646845 1_555
Ge12 Ni1 2.431787 1_555
Ge12 Ni22 2.432672 1_555
Ge12 Ni12 2.450326 1_555
Ge12 Ni32 2.456244 1_555
Ge12 Ni33 2.466234 1_555
Ge12 Ni18 2.489032 1_545
Ge12 Ni27 2.507748 1_555
Ge12 Ni8 2.508043 1_555
Ge12 Ni11 2.862183 1_555
Ge13 Ni2 2.431773 1_546
Ge13 Ni23 2.432679 1_555
Ge13 Ni14 2.450325 1_556
Ge13 Ni31 2.456238 1_545
Ge13 Ni34 2.466219 1_556
Ge13 Ni20 2.489032 1_655
Ge13 Ni28 2.507763 1_555
Ge13 Ni6 2.508045 1_555
Ge13 Ni9 2.862177 1_545
Ge14 Ni0 2.431778 1_665
Ge14 Ni21 2.432671 1_555
Ge14 Ni13 2.450324 1_555
Ge14 Ni30 2.456237 1_655
Ge14 Ni35 2.466233 1_555
Ge14 Ni19 2.489032 1_555
Ge14 Ni29 2.507761 1_555
Ge14 Ni7 2.508042 1_655
Ge14 Ni10 2.862170 1_655
Ge15 Ni2 2.431773 1_455
Ge15 Ni25 2.432679 1_555
Ge15 Ni9 2.450325 1_554
Ge15 Ni29 2.456238 1_455
Ge15 Ni36 2.466219 1_554
Ge15 Ni15 2.489032 1_565
Ge15 Ni30 2.507763 1_555
Ge15 Ni7 2.508045 1_555
Ge15 Ni14 2.862177 1_455
Ge16 Ni1 2.431778 1_665
Ge16 Ni26 2.432671 1_555
Ge16 Ni11 2.450324 1_555
Ge16 Ni28 2.456237 1_565
Ge16 Ni37 2.466233 1_555
Ge16 Ni17 2.489032 1_555
Ge16 Ni31 2.507761 1_555
Ge16 Ni6 2.508042 1_565
Ge16 Ni12 2.862170 1_565
Ge17 Ni0 2.431787 1_555
Ge17 Ni24 2.432672 1_555
Ge17 Ni10 2.450326 1_555
Ge17 Ni27 2.456244 1_555
Ge17 Ni38 2.466234 1_555
Ge17 Ni16 2.489032 1_455
Ge17 Ni32 2.507748 1_555
Ge17 Ni8 2.508043 1_555
Ge17 Ni13 2.862183 1_555
