# generated using pymatgen
data_Rb3Li2SiP3
_symmetry_space_group_name_H-M   'P 1'
_cell_length_a   9.78931771
_cell_length_b   9.78931773
_cell_length_c   15.37011114
_cell_angle_alpha   90.00000000
_cell_angle_beta   90.00000000
_cell_angle_gamma   142.90968010
_symmetry_Int_Tables_number   1
_chemical_formula_structural   Rb3Li2SiP3
_chemical_formula_sum   'Rb12 Li8 Si4 P12'
_cell_volume   888.28413382
_cell_formula_units_Z   4
loop_
 _symmetry_equiv_pos_site_id
 _symmetry_equiv_pos_as_xyz
  1  'x, y, z'
loop_
 _atom_site_type_symbol
 _atom_site_label
 _atom_site_symmetry_multiplicity
 _atom_site_fract_x
 _atom_site_fract_y
 _atom_site_fract_z
 _atom_site_occupancy
  Rb  Rb0  1  0.94648141  0.60915917  0.83130717  1
  Rb  Rb1  1  0.55351859  0.89084083  0.33130717  1
  Rb  Rb2  1  0.39084083  0.05351859  0.16869283  1
  Rb  Rb3  1  0.05351859  0.39084083  0.16869283  1
  Rb  Rb4  1  0.89084083  0.55351859  0.33130717  1
  Rb  Rb5  1  0.44648141  0.10915917  0.66869283  1
  Rb  Rb6  1  0.60915917  0.94648141  0.83130717  1
  Rb  Rb7  1  0.28067615  0.28067615  0.32138943  1
  Rb  Rb8  1  0.78067615  0.78067615  0.17861057  1
  Rb  Rb9  1  0.21932385  0.21932385  0.82138943  1
  Rb  Rb10  1  0.71932385  0.71932385  0.67861057  1
  Rb  Rb11  1  0.10915917  0.44648141  0.66869283  1
  Li  Li0  1  0.91954756  0.08045244  0.00000000  1
  Li  Li1  1  0.58045244  0.41954756  0.50000000  1
  Li  Li2  1  0.08045244  0.91954756  0.00000000  1
  Li  Li3  1  0.41954756  0.58045244  0.50000000  1
  Li  Li4  1  0.75271896  0.24728104  0.00000000  1
  Li  Li5  1  0.74728104  0.25271896  0.50000000  1
  Li  Li6  1  0.24728104  0.75271896  0.00000000  1
  Li  Li7  1  0.25271896  0.74728104  0.50000000  1
  Si  Si0  1  0.58700865  0.41299135  0.00000000  1
  Si  Si1  1  0.91299135  0.08700865  0.50000000  1
  Si  Si2  1  0.41299135  0.58700865  0.00000000  1
  Si  Si3  1  0.08700865  0.91299135  0.50000000  1
  P  P0  1  0.87578266  0.56156562  0.08208639  1
  P  P1  1  0.43843438  0.12421734  0.91791361  1
  P  P2  1  0.62421734  0.93843438  0.58208639  1
  P  P3  1  0.93843438  0.62421734  0.58208639  1
  P  P4  1  0.12421734  0.43843438  0.91791361  1
  P  P5  1  0.56156562  0.87578266  0.08208639  1
  P  P6  1  0.37578266  0.06156562  0.41791361  1
  P  P7  1  0.19857103  0.19857103  0.57623723  1
  P  P8  1  0.69857103  0.69857103  0.92376277  1
  P  P9  1  0.30142897  0.30142897  0.07623723  1
  P  P10  1  0.06156562  0.37578266  0.41791361  1
  P  P11  1  0.80142897  0.80142897  0.42376277  1
loop_
_geom_bond_atom_site_label_1
_geom_bond_atom_site_label_2
_geom_bond_distance
_geom_bond_site_symmetry_2
Rb0 Si0 3.465945 1_556
Rb1 Si1 3.465945 1_565
Rb2 Si0 3.465945 1_555
Rb3 Si2 3.465945 1_555
Rb4 Si3 3.465945 1_655
Rb5 Si3 3.465945 1_545
Rb6 Si2 3.465945 1_556
Rb11 Si1 3.465945 1_455
Li0 P5 2.585600 1_545
Li0 P4 2.585600 1_654
Li0 P9 2.669517 1_655
Li0 P8 2.669517 1_544
Li0 Rb6 3.364182 1_544
Li0 Rb3 3.364182 1_655
Li1 P3 2.585600 1_555
Li1 P6 2.585600 1_555
Li1 P7 2.669517 1_555
Li1 P11 2.669517 1_555
Li1 Rb4 3.364182 1_555
Li1 Rb5 3.364182 1_555
Li2 P1 2.585600 1_564
Li2 P0 2.585600 1_455
Li2 P8 2.669517 1_454
Li2 P9 2.669517 1_565
Li2 Rb2 3.364182 1_565
Li2 Rb0 3.364182 1_454
Li3 P10 2.585600 1_555
Li3 P2 2.585600 1_555
Li3 P11 2.669517 1_555
Li3 P7 2.669517 1_555
Li3 Rb11 3.364182 1_555
Li3 Rb1 3.364182 1_555
Li4 P1 2.568201 1_554
Li4 P0 2.568201 1_555
Li4 P4 2.731713 1_654
Li4 P5 2.731713 1_545
Li4 Rb3 3.281243 1_655
Li4 Rb6 3.281243 1_544
Li4 Rb2 3.485700 1_555
Li4 Rb0 3.485700 1_554
Li5 P10 2.568201 1_655
Li5 P2 2.568201 1_545
Li5 P6 2.731713 1_555
Li5 P3 2.731713 1_555
Li5 Rb5 3.281243 1_555
Li5 Rb4 3.281243 1_555
Li5 Rb11 3.485700 1_655
Li5 Rb1 3.485700 1_545
Li6 P5 2.568201 1_555
Li6 P4 2.568201 1_554
Li6 P0 2.731713 1_455
Li6 P1 2.731713 1_564
Li6 Rb0 3.281243 1_454
Li6 Rb2 3.281243 1_565
Li6 Rb6 3.485700 1_554
Li6 Rb3 3.485700 1_555
Li7 P3 2.568201 1_455
Li7 P6 2.568201 1_565
Li7 P2 2.731713 1_555
Li7 P10 2.731713 1_555
Li7 Rb1 3.281243 1_555
Li7 Rb11 3.281243 1_555
Li7 Rb4 3.485700 1_455
Li7 Rb5 3.485700 1_565
P0 Si0 2.266965 1_555
P0 Rb8 3.294629 1_555
P0 Rb2 3.372899 1_555
P0 Rb2 3.412962 1_665
P0 Rb3 3.497368 1_655
P0 Rb4 3.836611 1_555
P1 Si0 2.266965 1_556
P1 Rb9 3.294629 1_555
P1 Rb0 3.372899 1_555
P1 Rb0 3.412962 1_445
P1 Rb6 3.497368 1_545
P1 Rb5 3.836611 1_555
P2 Si1 2.266965 1_565
P2 Rb10 3.294629 1_555
P2 Rb11 3.372899 1_665
P2 Rb11 3.412962 1_555
P2 Rb5 3.497368 1_565
P2 Rb6 3.836611 1_555
P3 Si3 2.266965 1_655
P3 Rb10 3.294629 1_555
P3 Rb5 3.372899 1_665
P3 Rb5 3.412962 1_555
P3 Rb11 3.497368 1_655
P3 Rb0 3.836611 1_555
P4 Si2 2.266965 1_556
P4 Rb9 3.294629 1_555
P4 Rb6 3.372899 1_555
P4 Rb6 3.412962 1_445
P4 Rb0 3.497368 1_455
P4 Rb11 3.836611 1_555
P5 Si2 2.266965 1_555
P5 Rb8 3.294629 1_555
P5 Rb3 3.372899 1_555
P5 Rb3 3.412962 1_665
P5 Rb2 3.497368 1_565
P5 Rb1 3.836611 1_555
P6 Si3 2.266965 1_545
P6 Rb7 3.294629 1_555
P6 Rb4 3.372899 1_445
P6 Rb4 3.412962 1_555
P6 Rb1 3.497368 1_545
P6 Rb2 3.836611 1_555
P7 Si1 2.347424 1_455
P7 Si3 2.347424 1_545
P7 Rb10 3.373695 1_445
P7 Rb5 3.473342 1_555
P7 Rb11 3.473342 1_555
P7 Rb10 3.604336 1_555
P7 Rb9 3.770232 1_555
P8 Si2 2.347424 1_556
P8 Si0 2.347424 1_556
P8 Rb9 3.373695 1_555
P8 Rb0 3.473342 1_555
P8 Rb6 3.473342 1_555
P8 Rb9 3.604336 1_665
P8 Rb10 3.770232 1_555
P9 Si0 2.347424 1_555
P9 Si2 2.347424 1_555
P9 Rb8 3.373695 1_555
P9 Rb3 3.473342 1_555
P9 Rb2 3.473342 1_555
P9 Rb8 3.604336 1_445
P9 Rb7 3.770232 1_555
P10 Si1 2.266965 1_455
P10 Rb7 3.294629 1_555
P10 Rb1 3.372899 1_445
P10 Rb1 3.412962 1_555
P10 Rb4 3.497368 1_455
P10 Rb3 3.836611 1_555
P11 Si3 2.347424 1_655
P11 Si1 2.347424 1_565
P11 Rb7 3.373695 1_665
P11 Rb1 3.473342 1_555
P11 Rb4 3.473342 1_555
P11 Rb7 3.604336 1_555
P11 Rb8 3.770232 1_555
