# generated using pymatgen
data_Zr6Zn15Ag8P
_symmetry_space_group_name_H-M   'P 1'
_cell_length_a   8.81865998
_cell_length_b   8.81865894
_cell_length_c   8.81865942
_cell_angle_alpha   59.99999821
_cell_angle_beta   60.00000208
_cell_angle_gamma   59.99999751
_symmetry_Int_Tables_number   1
_chemical_formula_structural   Zr6Zn15Ag8P
_chemical_formula_sum   'Zr6 Zn15 Ag8 P1'
_cell_volume   484.94525019
_cell_formula_units_Z   1
loop_
 _symmetry_equiv_pos_site_id
 _symmetry_equiv_pos_as_xyz
  1  'x, y, z'
loop_
 _atom_site_type_symbol
 _atom_site_label
 _atom_site_symmetry_multiplicity
 _atom_site_fract_x
 _atom_site_fract_y
 _atom_site_fract_z
 _atom_site_occupancy
  Zr  Zr0  1  0.70375014  0.29624986  0.29624986  1
  Zr  Zr1  1  0.29624986  0.70375014  0.70375014  1
  Zr  Zr2  1  0.29624986  0.70375014  0.29624986  1
  Zr  Zr3  1  0.70375014  0.29624986  0.70375014  1
  Zr  Zr4  1  0.29624986  0.29624986  0.70375014  1
  Zr  Zr5  1  0.70375014  0.70375014  0.29624986  1
  Zn  Zn0  1  0.50000000  0.00000000  0.00000000  1
  Zn  Zn1  1  0.00000000  0.50000000  0.50000000  1
  Zn  Zn2  1  0.00000000  0.50000000  0.00000000  1
  Zn  Zn3  1  0.50000000  0.00000000  0.50000000  1
  Zn  Zn4  1  0.00000000  0.00000000  0.50000000  1
  Zn  Zn5  1  0.50000000  0.50000000  0.00000000  1
  Zn  Zn6  1  0.33273958  0.33273958  0.33273958  1
  Zn  Zn7  1  0.66726042  0.66726042  0.66726042  1
  Zn  Zn8  1  0.33273958  0.33273958  0.00178426  1
  Zn  Zn9  1  0.33273958  0.00178426  0.33273958  1
  Zn  Zn10  1  0.66726042  0.66726042  0.99821574  1
  Zn  Zn11  1  0.66726042  0.99821574  0.66726042  1
  Zn  Zn12  1  0.00178426  0.33273958  0.33273958  1
  Zn  Zn13  1  0.99821574  0.66726042  0.66726042  1
  Zn  Zn14  1  0.00000000  0.00000000  0.00000000  1
  Ag  Ag0  1  0.12062306  0.12062306  0.12062306  1
  Ag  Ag1  1  0.87937694  0.87937694  0.87937694  1
  Ag  Ag2  1  0.12062306  0.12062306  0.63813181  1
  Ag  Ag3  1  0.12062306  0.63813181  0.12062306  1
  Ag  Ag4  1  0.87937694  0.87937694  0.36186819  1
  Ag  Ag5  1  0.87937694  0.36186819  0.87937694  1
  Ag  Ag6  1  0.63813181  0.12062306  0.12062306  1
  Ag  Ag7  1  0.36186819  0.87937694  0.87937694  1
  P  P0  1  0.50000000  0.50000000  0.50000000  1
loop_
_geom_bond_atom_site_label_1
_geom_bond_atom_site_label_2
_geom_bond_distance
_geom_bond_site_symmetry_2
Zn0 Zn8 2.545768 1_555
Zn0 Zn10 2.545768 1_544
Zn0 Zn9 2.545768 1_555
Zn0 Zn11 2.545768 1_544
Zn0 Zr5 3.170772 1_545
Zn0 Zr4 3.170772 1_554
Zn0 Zr3 3.170772 1_554
Zn0 Zr2 3.170772 1_545
Zn1 Zn13 2.545745 1_455
Zn1 Zn12 2.545745 1_555
Zn1 Zn6 2.545760 1_555
Zn1 Zn7 2.545760 1_455
Zn1 Zr4 3.170772 1_555
Zn1 Zr5 3.170772 1_455
Zn1 Zr2 3.170772 1_555
Zn1 Zr3 3.170772 1_455
Zn2 Zn8 2.545768 1_555
Zn2 Zr5 3.170772 1_455
Zn2 Zr4 3.170772 1_554
Zn2 Zr1 3.170772 1_554
Zn2 Zr0 3.170772 1_455
Zn3 Zn9 2.545745 1_555
Zn3 Zn7 2.545760 1_545
Zn3 Zn6 2.545760 1_555
Zn3 Zr4 3.170772 1_555
Zn3 Zr5 3.170772 1_545
Zn3 Zr0 3.170772 1_555
Zn3 Zr1 3.170772 1_545
Zn4 Zn9 2.545768 1_555
Zn4 Zr1 3.170772 1_545
Zn4 Zr3 3.170772 1_455
Zn4 Zr2 3.170772 1_545
Zn4 Zr0 3.170772 1_455
Zn5 Zn8 2.545745 1_555
Zn5 Zn6 2.545760 1_555
Zn5 Zn7 2.545760 1_554
Zn5 Zr2 3.170772 1_555
Zn5 Zr0 3.170772 1_555
Zn5 Zr3 3.170772 1_554
Zn5 Zr1 3.170772 1_554
Zn6 Zn9 2.918582 1_555
Zn6 Zn8 2.918582 1_555
Zn6 Zr2 2.984920 1_555
Zn6 Zr4 2.984920 1_555
Zn6 Zr0 2.984920 1_555
Zn7 Zr3 2.984920 1_555
Zn7 Zr5 2.984920 1_555
Zn7 Zr1 2.984920 1_555
Zn8 Zn9 2.918582 1_555
Zn8 Zr1 2.984930 1_554
Zn8 Zr3 2.984931 1_554
Zn8 Zr4 2.984946 1_554
Zn9 Zr1 2.984930 1_545
Zn9 Zr5 2.984930 1_545
Zn9 Zr2 2.984946 1_545
Zn10 Zn5 2.545745 1_556
Zn10 Zn2 2.545768 1_656
Zn10 Zn11 2.918582 1_555
Zn10 Zn7 2.918582 1_555
Zn10 Zn13 2.918582 1_555
Zn10 Zr0 2.984930 1_556
Zn10 Zr2 2.984931 1_556
Zn10 Zr5 2.984946 1_556
Zn11 Zn3 2.545745 1_565
Zn11 Zn4 2.545768 1_665
Zn11 Zn7 2.918582 1_555
Zn11 Zn13 2.918582 1_555
Zn11 Zr0 2.984930 1_565
Zn11 Zr4 2.984930 1_565
Zn11 Zr3 2.984946 1_565
Zn12 Zn4 2.545768 1_555
Zn12 Zn2 2.545768 1_555
Zn12 Zn9 2.918582 1_555
Zn12 Zn6 2.918582 1_555
Zn12 Zn8 2.918582 1_555
Zn12 Zr5 2.984930 1_455
Zn12 Zr3 2.984930 1_455
Zn12 Zr0 2.984946 1_455
Zn13 Zn4 2.545768 1_665
Zn13 Zn2 2.545768 1_656
Zn13 Zn7 2.918582 1_555
Zn13 Zr4 2.984930 1_655
Zn13 Zr2 2.984930 1_655
Zn13 Zr1 2.984946 1_655
Ag0 Zn14 2.605605 1_555
Ag0 Zn2 2.733121 1_555
Ag0 Zn4 2.733122 1_555
Ag0 Zn0 2.733122 1_555
Ag0 Zn12 2.770344 1_555
Ag0 Zn9 2.770345 1_555
Ag0 Zn8 2.770345 1_555
Ag0 Zr2 3.053463 1_545
Ag0 Zr4 3.053463 1_554
Ag0 Zr0 3.053463 1_455
Ag1 Zn14 2.605605 1_666
Ag1 Zn2 2.733121 1_656
Ag1 Zn4 2.733122 1_665
Ag1 Zn0 2.733122 1_566
Ag1 Zn13 2.770344 1_555
Ag1 Zn11 2.770345 1_555
Ag1 Zn10 2.770345 1_555
Ag1 Zr3 3.053463 1_565
Ag1 Zr5 3.053463 1_556
Ag1 Zr1 3.053463 1_655
Ag2 Zn14 2.605598 1_556
Ag2 Zn1 2.733122 1_555
Ag2 Zn3 2.733122 1_555
Ag2 Zn4 2.733129 1_555
Ag2 Zn12 2.770330 1_555
Ag2 Zn9 2.770330 1_555
Ag2 Zn6 2.770339 1_555
Ag2 Zr4 3.053457 1_555
Ag2 Zr1 3.053464 1_545
Ag2 Zr3 3.053465 1_455
Ag3 Zn14 2.605597 1_565
Ag3 Zn1 2.733122 1_555
Ag3 Zn5 2.733122 1_555
Ag3 Zn2 2.733129 1_555
Ag3 Zn8 2.770330 1_555
Ag3 Zn12 2.770330 1_555
Ag3 Zn6 2.770339 1_555
Ag3 Zr2 3.053457 1_555
Ag3 Zr1 3.053465 1_554
Ag3 Zr5 3.053465 1_455
Ag4 Zn14 2.605598 1_665
Ag4 Zn1 2.733122 1_655
Ag4 Zn3 2.733122 1_565
Ag4 Zn4 2.733129 1_665
Ag4 Zn13 2.770330 1_555
Ag4 Zn11 2.770330 1_555
Ag4 Zn7 2.770339 1_555
Ag4 Zr5 3.053457 1_555
Ag4 Zr0 3.053464 1_565
Ag4 Zr2 3.053465 1_655
Ag5 Zn14 2.605597 1_656
Ag5 Zn1 2.733122 1_655
Ag5 Zn5 2.733122 1_556
Ag5 Zn2 2.733129 1_656
Ag5 Zn10 2.770330 1_555
Ag5 Zn13 2.770330 1_555
Ag5 Zn7 2.770339 1_555
Ag5 Zr3 3.053457 1_555
Ag5 Zr0 3.053465 1_556
Ag5 Zr4 3.053465 1_655
Ag6 Zn14 2.605598 1_655
Ag6 Zn5 2.733122 1_555
Ag6 Zn3 2.733122 1_555
Ag6 Zn0 2.733129 1_555
Ag6 Zn8 2.770330 1_555
Ag6 Zn9 2.770330 1_555
Ag6 Zn6 2.770339 1_555
Ag6 Zr0 3.053457 1_555
Ag6 Zr5 3.053464 1_545
Ag6 Zr3 3.053464 1_554
Ag7 Zn14 2.605598 1_566
Ag7 Zn5 2.733122 1_556
Ag7 Zn3 2.733122 1_565
Ag7 Zn0 2.733129 1_566
Ag7 Zn10 2.770330 1_555
Ag7 Zn11 2.770330 1_555
Ag7 Zn7 2.770339 1_555
Ag7 Zr1 3.053457 1_555
Ag7 Zr4 3.053464 1_565
Ag7 Zr2 3.053464 1_556
P0 Zr1 2.541063 1_555
P0 Zr3 2.541063 1_555
P0 Zr0 2.541063 1_555
P0 Zr2 2.541063 1_555
P0 Zr5 2.541063 1_555
P0 Zr4 2.541063 1_555
