# generated using pymatgen
data_AlSb2(TeBr2)2
_symmetry_space_group_name_H-M   'P 1'
_cell_length_a   9.93085161
_cell_length_b   11.98985036
_cell_length_c   12.83540285
_cell_angle_alpha   66.45843582
_cell_angle_beta   78.31518478
_cell_angle_gamma   72.13423983
_symmetry_Int_Tables_number   1
_chemical_formula_structural   AlSb2(TeBr2)2
_chemical_formula_sum   'Al4 Sb8 Te8 Br16'
_cell_volume   1327.92439433
_cell_formula_units_Z   4
loop_
 _symmetry_equiv_pos_site_id
 _symmetry_equiv_pos_as_xyz
  1  'x, y, z'
loop_
 _atom_site_type_symbol
 _atom_site_label
 _atom_site_symmetry_multiplicity
 _atom_site_fract_x
 _atom_site_fract_y
 _atom_site_fract_z
 _atom_site_occupancy
  Al  Al0  1  0.80152120  0.31196662  0.55085535  1
  Al  Al1  1  0.19847880  0.68803338  0.44914465  1
  Al  Al2  1  0.89038638  0.81054488  0.02456663  1
  Al  Al3  1  0.10961362  0.18945512  0.97543337  1
  Sb  Sb0  1  0.34679430  0.98770107  0.42701403  1
  Sb  Sb1  1  0.65320570  0.01229893  0.57298597  1
  Sb  Sb2  1  0.56004911  0.62207788  0.67410913  1
  Sb  Sb3  1  0.43995089  0.37792212  0.32589087  1
  Sb  Sb4  1  0.57324209  0.86126279  0.81135975  1
  Sb  Sb5  1  0.42675791  0.13873721  0.18864025  1
  Sb  Sb6  1  0.70812694  0.43298088  0.00931087  1
  Sb  Sb7  1  0.29187306  0.56701912  0.99068913  1
  Te  Te0  1  0.63049613  0.84658928  0.46838907  1
  Te  Te1  1  0.36950387  0.15341072  0.53161093  1
  Te  Te2  1  0.34653817  0.79382469  0.76048236  1
  Te  Te3  1  0.65346183  0.20617531  0.23951764  1
  Te  Te4  1  0.77064219  0.64708613  0.77957191  1
  Te  Te5  1  0.22935781  0.35291387  0.22042809  1
  Te  Te6  1  0.50803226  0.39209632  0.90834153  1
  Te  Te7  1  0.49196774  0.60790368  0.09165847  1
  Br  Br0  1  0.72517708  0.44088533  0.37268992  1
  Br  Br1  1  0.27482292  0.55911467  0.62731008  1
  Br  Br2  1  0.61304357  0.23818531  0.67131016  1
  Br  Br3  1  0.38695643  0.76181469  0.32868984  1
  Br  Br4  1  0.87023395  0.43096087  0.62479940  1
  Br  Br5  1  0.12976605  0.56903913  0.37520060  1
  Br  Br6  1  0.98657712  0.14789206  0.53414431  1
  Br  Br7  1  0.01342288  0.85210794  0.46585569  1
  Br  Br8  1  0.88859506  0.60163443  0.08006637  1
  Br  Br9  1  0.11140494  0.39836557  0.91993363  1
  Br  Br10  1  0.88521146  0.90266376  0.82791612  1
  Br  Br11  1  0.11478854  0.09733624  0.17208388  1
  Br  Br12  1  0.10450470  0.81521247  0.06542227  1
  Br  Br13  1  0.89549530  0.18478753  0.93457773  1
  Br  Br14  1  0.69632971  0.90485276  0.11854545  1
  Br  Br15  1  0.30367029  0.09514724  0.88145455  1
loop_
_geom_bond_atom_site_label_1
_geom_bond_atom_site_label_2
_geom_bond_distance
_geom_bond_site_symmetry_2
Al0 Br6 2.291836 1_555
Al0 Br4 2.311570 1_555
Al0 Br0 2.313690 1_555
Al0 Br2 2.329717 1_555
Al1 Br7 2.291836 1_555
Al1 Br5 2.311570 1_555
Al1 Br1 2.313690 1_555
Al1 Br3 2.329717 1_555
Al2 Br14 2.293129 1_555
Al2 Br12 2.312516 1_655
Al2 Br8 2.319194 1_555
Al2 Br10 2.320405 1_554
Al3 Br15 2.293129 1_555
Al3 Br13 2.312516 1_455
Al3 Br9 2.319194 1_555
Al3 Br11 2.320405 1_556
Sb0 Te0 2.836520 1_555
Sb0 Te1 2.886030 1_565
Sb0 Sb5 2.956927 1_565
Sb1 Te1 2.836520 1_555
Sb1 Te0 2.886030 1_545
Sb1 Sb4 2.956927 1_545
Sb2 Te4 2.855141 1_555
Sb2 Te2 2.856185 1_555
Sb2 Te0 3.071981 1_555
Sb2 Te6 3.245256 1_555
Sb3 Te5 2.855141 1_555
Sb3 Te3 2.856185 1_555
Sb3 Te1 3.071981 1_555
Sb3 Te7 3.245256 1_555
Sb4 Te4 2.833372 1_555
Sb4 Te2 2.878045 1_555
Sb5 Te5 2.833372 1_555
Sb5 Te3 2.878045 1_555
Sb6 Te6 2.831388 1_554
Sb6 Te7 2.865882 1_555
Sb6 Te4 3.140081 1_554
Sb6 Te3 3.202783 1_555
Sb7 Te7 2.831388 1_556
Sb7 Te6 2.865882 1_555
Sb7 Te5 3.140081 1_556
Sb7 Te2 3.202783 1_555
Br0 Sb3 3.364144 1_555
Br1 Sb2 3.364144 1_555
Br2 Sb1 3.309177 1_555
Br3 Sb0 3.309177 1_555
Br4 Sb2 3.343363 1_555
Br5 Sb3 3.343363 1_555
Br10 Sb4 3.344319 1_555
Br11 Sb5 3.344319 1_555
Br12 Sb7 3.376037 1_554
Br13 Sb6 3.376037 1_556
