# generated using pymatgen
data_Y6Sc4Al12Rh7
_symmetry_space_group_name_H-M   'P 1'
_cell_length_a   9.08580574
_cell_length_b   9.08580583
_cell_length_c   9.08580467
_cell_angle_alpha   59.99999707
_cell_angle_beta   59.99999673
_cell_angle_gamma   60.00000230
_symmetry_Int_Tables_number   1
_chemical_formula_structural   Y6Sc4Al12Rh7
_chemical_formula_sum   'Y6 Sc4 Al12 Rh7'
_cell_volume   530.36552238
_cell_formula_units_Z   1
loop_
 _symmetry_equiv_pos_site_id
 _symmetry_equiv_pos_as_xyz
  1  'x, y, z'
loop_
 _atom_site_type_symbol
 _atom_site_label
 _atom_site_symmetry_multiplicity
 _atom_site_fract_x
 _atom_site_fract_y
 _atom_site_fract_z
 _atom_site_occupancy
  Y  Y0  1  0.70286577  0.70286577  0.29713423  1
  Y  Y1  1  0.29713423  0.70286577  0.29713423  1
  Y  Y2  1  0.70286577  0.29713423  0.29713423  1
  Y  Y3  1  0.29713423  0.29713423  0.70286577  1
  Y  Y4  1  0.70286577  0.29713423  0.70286577  1
  Y  Y5  1  0.29713423  0.70286577  0.70286577  1
  Sc  Sc0  1  0.88172843  0.88172843  0.35481370  1
  Sc  Sc1  1  0.88172843  0.35481370  0.88172843  1
  Sc  Sc2  1  0.35481370  0.88172843  0.88172843  1
  Sc  Sc3  1  0.88172843  0.88172843  0.88172843  1
  Al  Al0  1  0.12151556  0.12151556  0.63545332  1
  Al  Al1  1  0.12151556  0.63545332  0.12151556  1
  Al  Al2  1  0.63545332  0.12151556  0.12151556  1
  Al  Al3  1  0.12151556  0.12151556  0.12151556  1
  Al  Al4  1  0.67074449  0.67074449  0.98776752  1
  Al  Al5  1  0.67074449  0.98776752  0.67074449  1
  Al  Al6  1  0.98776752  0.67074449  0.67074449  1
  Al  Al7  1  0.67074449  0.67074449  0.67074449  1
  Al  Al8  1  0.32787320  0.32787320  0.01638041  1
  Al  Al9  1  0.32787320  0.01638041  0.32787320  1
  Al  Al10  1  0.01638041  0.32787320  0.32787320  1
  Al  Al11  1  0.32787320  0.32787320  0.32787320  1
  Rh  Rh0  1  0.00000000  0.00000000  0.00000000  1
  Rh  Rh1  1  0.00119497  0.00119497  0.49880503  1
  Rh  Rh2  1  0.49880503  0.00119497  0.49880503  1
  Rh  Rh3  1  0.00119497  0.49880503  0.49880503  1
  Rh  Rh4  1  0.49880503  0.49880503  0.00119497  1
  Rh  Rh5  1  0.00119497  0.49880503  0.00119497  1
  Rh  Rh6  1  0.49880503  0.00119497  0.00119497  1
loop_
_geom_bond_atom_site_label_1
_geom_bond_atom_site_label_2
_geom_bond_distance
_geom_bond_site_symmetry_2
Y0 Y5 3.686398 1_555
Y0 Y4 3.686398 1_555
Y0 Y1 3.686398 1_555
Y0 Y2 3.686398 1_555
Y1 Y5 3.686398 1_555
Y1 Y3 3.686398 1_555
Y1 Y2 3.686398 1_555
Y2 Y4 3.686398 1_555
Y2 Y3 3.686398 1_555
Y3 Y4 3.686398 1_555
Y3 Y5 3.686398 1_555
Y4 Y5 3.686398 1_555
Sc0 Y0 3.146574 1_555
Sc0 Y1 3.146582 1_655
Sc0 Y2 3.146582 1_565
Sc1 Y4 3.146574 1_555
Sc1 Y2 3.146582 1_556
Sc1 Y3 3.146582 1_655
Sc2 Y5 3.146574 1_555
Sc2 Y1 3.146582 1_556
Sc2 Y3 3.146582 1_565
Sc3 Y0 3.146580 1_556
Sc3 Y5 3.146581 1_655
Sc3 Y4 3.146581 1_565
Al0 Rh0 2.704400 1_556
Al0 Rh1 2.800243 1_555
Al0 Rh2 2.800243 1_555
Al0 Rh3 2.800243 1_555
Al0 Al11 2.806513 1_555
Al0 Al9 2.806513 1_555
Al0 Al10 2.806513 1_555
Al0 Sc1 3.081647 1_455
Al0 Sc2 3.081647 1_545
Al0 Sc3 3.081653 1_445
Al0 Y3 3.157209 1_555
Al0 Y4 3.157209 1_455
Al0 Y5 3.157209 1_545
Al1 Rh0 2.704400 1_565
Al1 Rh3 2.800243 1_555
Al1 Rh5 2.800243 1_555
Al1 Rh4 2.800243 1_555
Al1 Al10 2.806513 1_555
Al1 Al11 2.806513 1_555
Al1 Al8 2.806513 1_555
Al1 Sc2 3.081647 1_554
Al1 Sc0 3.081647 1_455
Al1 Sc3 3.081653 1_454
Al1 Y5 3.157209 1_554
Al1 Y1 3.157209 1_555
Al1 Y0 3.157209 1_455
Al2 Rh0 2.704400 1_655
Al2 Rh2 2.800243 1_555
Al2 Rh6 2.800243 1_555
Al2 Rh4 2.800243 1_555
Al2 Al9 2.806513 1_555
Al2 Al8 2.806513 1_555
Al2 Sc1 3.081647 1_554
Al2 Sc0 3.081647 1_545
Al2 Sc3 3.081653 1_544
Al2 Y4 3.157209 1_554
Al2 Y2 3.157209 1_555
Al2 Y0 3.157209 1_545
Al3 Rh0 2.704400 1_555
Al3 Rh1 2.800243 1_555
Al3 Rh6 2.800243 1_555
Al3 Rh5 2.800243 1_555
Al3 Al9 2.806513 1_555
Al3 Al8 2.806513 1_555
Al3 Sc0 3.081653 1_445
Al3 Sc1 3.081653 1_454
Al3 Sc2 3.081653 1_544
Al3 Y3 3.157209 1_554
Al3 Y2 3.157209 1_455
Al3 Y1 3.157209 1_545
Al4 Rh5 2.637262 1_656
Al4 Rh6 2.637262 1_566
Al4 Rh4 2.637270 1_556
Al4 Sc3 2.873785 1_555
Al4 Sc2 2.873801 1_555
Al4 Sc1 2.873801 1_555
Al4 Al7 2.880409 1_555
Al4 Al6 2.880409 1_555
Al4 Al5 2.880409 1_555
Al4 Y0 3.130025 1_556
Al4 Y1 3.130030 1_556
Al4 Y2 3.130030 1_556
Al5 Rh6 2.637262 1_566
Al5 Rh1 2.637262 1_665
Al5 Rh2 2.637270 1_565
Al5 Sc3 2.873785 1_555
Al5 Sc0 2.873800 1_555
Al5 Sc2 2.873800 1_555
Al5 Al7 2.880410 1_555
Al5 Al6 2.880410 1_555
Al5 Y4 3.130025 1_565
Al5 Y2 3.130030 1_565
Al5 Y3 3.130031 1_565
Al6 Rh5 2.637262 1_656
Al6 Rh1 2.637262 1_665
Al6 Rh3 2.637270 1_655
Al6 Sc3 2.873785 1_555
Al6 Sc0 2.873800 1_555
Al6 Sc1 2.873800 1_555
Al6 Al7 2.880410 1_555
Al6 Y5 3.130025 1_655
Al6 Y1 3.130030 1_655
Al6 Y3 3.130031 1_655
Al7 Rh4 2.637265 1_556
Al7 Rh3 2.637265 1_655
Al7 Rh2 2.637265 1_565
Al7 Sc0 2.873791 1_555
Al7 Sc2 2.873791 1_555
Al7 Sc1 2.873791 1_555
Al7 Y0 3.130034 1_555
Al7 Y5 3.130034 1_555
Al7 Y4 3.130034 1_555
Al8 Rh4 2.612739 1_555
Al8 Rh5 2.612739 1_555
Al8 Rh6 2.612739 1_555
Al8 Al9 2.830163 1_555
Al8 Y3 3.152661 1_554
Al8 Y4 3.152661 1_554
Al8 Y5 3.152661 1_554
Al9 Rh6 2.612739 1_555
Al9 Rh2 2.612739 1_555
Al9 Rh1 2.612739 1_555
Al9 Y5 3.152661 1_545
Al9 Y1 3.152661 1_545
Al9 Y0 3.152661 1_545
Al10 Rh5 2.612739 1_555
Al10 Rh3 2.612739 1_555
Al10 Rh1 2.612739 1_555
Al10 Al3 2.806513 1_555
Al10 Al8 2.830163 1_555
Al10 Al11 2.830163 1_555
Al10 Al9 2.830163 1_555
Al10 Y4 3.152660 1_455
Al10 Y2 3.152661 1_455
Al10 Y0 3.152661 1_455
Al11 Rh4 2.612739 1_555
Al11 Rh3 2.612739 1_555
Al11 Rh2 2.612739 1_555
Al11 Al2 2.806513 1_555
Al11 Al8 2.830163 1_555
Al11 Al9 2.830163 1_555
Al11 Y3 3.152660 1_555
Al11 Y2 3.152661 1_555
Al11 Y1 3.152661 1_555
Rh0 Sc0 2.632195 1_445
Rh0 Sc2 2.632196 1_544
Rh0 Sc1 2.632196 1_454
Rh0 Sc3 2.632203 1_444
Rh1 Sc3 2.843639 1_445
Rh1 Sc0 2.843647 1_445
Rh1 Y4 3.268948 1_455
Rh1 Y5 3.268948 1_545
Rh1 Y2 3.268948 1_455
Rh1 Y1 3.268948 1_545
Rh2 Sc2 2.843640 1_545
Rh2 Sc0 2.843640 1_545
Rh2 Y5 3.268948 1_545
Rh2 Y2 3.268948 1_555
Rh2 Y3 3.268948 1_555
Rh2 Y0 3.268948 1_545
Rh3 Sc1 2.843640 1_455
Rh3 Sc0 2.843640 1_455
Rh3 Y4 3.268948 1_455
Rh3 Y1 3.268948 1_555
Rh3 Y3 3.268948 1_555
Rh3 Y0 3.268948 1_455
Rh4 Sc1 2.843640 1_554
Rh4 Sc2 2.843640 1_554
Rh4 Y4 3.268948 1_554
Rh4 Y5 3.268948 1_554
Rh4 Y2 3.268948 1_555
Rh4 Y1 3.268948 1_555
Rh5 Sc3 2.843640 1_454
Rh5 Sc1 2.843647 1_454
Rh5 Y5 3.268947 1_554
Rh5 Y2 3.268947 1_455
Rh5 Y3 3.268948 1_554
Rh5 Y0 3.268948 1_455
Rh6 Sc3 2.843640 1_544
Rh6 Sc2 2.843647 1_544
Rh6 Y4 3.268947 1_554
Rh6 Y1 3.268947 1_545
Rh6 Y3 3.268948 1_554
Rh6 Y0 3.268948 1_545
