# generated using pymatgen
data_Er10Ti6O27
_symmetry_space_group_name_H-M   'P 1'
_cell_length_a   7.41200228
_cell_length_b   7.41200228
_cell_length_c   12.12584449
_cell_angle_alpha   71.17990532
_cell_angle_beta   71.17990532
_cell_angle_gamma   61.38534185
_symmetry_Int_Tables_number   1
_chemical_formula_structural   Er10Ti6O27
_chemical_formula_sum   'Er10 Ti6 O27'
_cell_volume   542.09024504
_cell_formula_units_Z   1
loop_
 _symmetry_equiv_pos_site_id
 _symmetry_equiv_pos_as_xyz
  1  'x, y, z'
loop_
 _atom_site_type_symbol
 _atom_site_label
 _atom_site_symmetry_multiplicity
 _atom_site_fract_x
 _atom_site_fract_y
 _atom_site_fract_z
 _atom_site_occupancy
  Er  Er0  1  0.01065500  0.48255400  0.98180900  1
  Er  Er1  1  0.48255400  0.01065500  0.98180900  1
  Er  Er2  1  0.27833700  0.72105400  0.75307900  1
  Er  Er3  1  0.73447800  0.24962800  0.24899300  1
  Er  Er4  1  0.73243200  0.73243200  0.75691600  1
  Er  Er5  1  0.99493700  0.99493700  0.52022200  1
  Er  Er6  1  0.72105400  0.27833700  0.75307900  1
  Er  Er7  1  0.25429800  0.25429800  0.24560000  1
  Er  Er8  1  0.24962800  0.73447800  0.24899300  1
  Er  Er9  1  0.74059100  0.74059100  0.25022400  1
  Ti  Ti0  1  0.00263800  0.00263800  0.99659400  1
  Ti  Ti1  1  0.50525700  0.01642600  0.49976200  1
  Ti  Ti2  1  0.50241900  0.50241900  0.51028100  1
  Ti  Ti3  1  0.01642600  0.50525700  0.49976200  1
  Ti  Ti4  1  0.50880600  0.50880600  0.01614400  1
  Ti  Ti5  1  0.26087700  0.26087700  0.71979700  1
  O  O0  1  0.09323600  0.76608500  0.93489100  1
  O  O1  1  0.42006500  0.42006500  0.69290200  1
  O  O2  1  0.54774000  0.54774000  0.83818100  1
  O  O3  1  0.76608500  0.09323600  0.93489100  1
  O  O4  1  0.36022200  0.99341800  0.68595200  1
  O  O5  1  0.72336600  0.13191100  0.44638900  1
  O  O6  1  0.75701400  0.75701400  0.56228600  1
  O  O7  1  0.61875000  0.04420800  0.77058900  1
  O  O8  1  0.93691400  0.93691400  0.16858400  1
  O  O9  1  0.69431500  0.69431500  0.95591700  1
  O  O10  1  0.99341800  0.36022200  0.68595200  1
  O  O11  1  0.04420800  0.61875000  0.77058900  1
  O  O12  1  0.13191100  0.72336600  0.44638900  1
  O  O13  1  0.77243400  0.38530800  0.54392100  1
  O  O14  1  0.94695100  0.41696700  0.18422300  1
  O  O15  1  0.34893000  0.34893000  0.02960800  1
  O  O16  1  0.01412800  0.56632000  0.33935000  1
  O  O17  1  0.17561200  0.17561200  0.45082900  1
  O  O18  1  0.17528900  0.17528900  0.90102800  1
  O  O19  1  0.41696700  0.94695100  0.18422300  1
  O  O20  1  0.38530800  0.77243400  0.54392100  1
  O  O21  1  0.56632000  0.01412800  0.33935000  1
  O  O22  1  0.33405100  0.33405100  0.53385900  1
  O  O23  1  0.31744900  0.78563000  0.04674700  1
  O  O24  1  0.43373700  0.43373700  0.19960800  1
  O  O25  1  0.55706200  0.55706200  0.34251000  1
  O  O26  1  0.78563000  0.31744900  0.04674700  1
loop_
_geom_bond_atom_site_label_1
_geom_bond_atom_site_label_2
_geom_bond_distance
_geom_bond_site_symmetry_2
Er0 O9 2.166059 1_455
Er0 O14 2.277245 1_456
Er0 O0 2.313174 1_555
Er0 O26 2.320648 1_456
Er0 O18 2.375193 1_555
Er0 O15 2.406675 1_556
Er0 O11 2.408755 1_555
Er1 O9 2.166059 1_545
Er1 O19 2.277245 1_546
Er1 O3 2.313174 1_555
Er1 O23 2.320648 1_546
Er1 O18 2.375193 1_555
Er1 O15 2.406675 1_556
Er1 O7 2.408755 1_555
Er2 O11 2.133156 1_555
Er2 O2 2.172465 1_555
Er2 O4 2.213813 1_555
Er2 O1 2.219018 1_555
Er2 O0 2.222320 1_555
Er2 O20 2.361080 1_555
Er3 O24 2.147103 1_555
Er3 O14 2.253840 1_555
Er3 O5 2.256443 1_555
Er3 O26 2.279908 1_555
Er3 O8 2.399469 1_545
Er3 O21 2.402009 1_555
Er3 O25 2.458157 1_555
Er4 O7 2.090374 1_565
Er4 O11 2.090374 1_655
Er4 O2 2.184786 1_555
Er4 O6 2.261231 1_555
Er4 O9 2.275788 1_555
Er4 O10 2.727554 1_555
Er4 O4 2.727554 1_555
Er5 O12 2.121989 1_655
Er5 O5 2.121989 1_565
Er5 O17 2.135048 1_665
Er5 O20 2.614277 1_655
Er5 O13 2.614277 1_565
Er6 O7 2.133156 1_555
Er6 O2 2.172465 1_555
Er6 O10 2.213813 1_555
Er6 O1 2.219018 1_555
Er6 O3 2.222320 1_555
Er6 O13 2.361080 1_555
Er7 O24 2.141501 1_555
Er7 O19 2.254164 1_545
Er7 O14 2.254164 1_455
Er7 O17 2.307866 1_555
Er7 O15 2.438089 1_555
Er7 O21 2.501419 1_555
Er7 O16 2.501419 1_555
Er8 O24 2.147103 1_555
Er8 O19 2.253840 1_555
Er8 O12 2.256443 1_555
Er8 O23 2.279908 1_555
Er8 O8 2.399469 1_455
Er8 O16 2.402009 1_555
Er8 O25 2.458157 1_555
Er9 O25 2.182044 1_555
Er9 O16 2.225227 1_655
Er9 O21 2.225227 1_565
Er9 O8 2.320395 1_555
Er9 O19 2.380834 1_555
Er9 O14 2.380834 1_555
O0 Ti0 1.865315 1_565
O1 Ti5 1.930705 1_555
O1 Ti2 2.064357 1_555
O2 Ti4 2.024722 1_556
O3 Ti0 1.865315 1_655
O4 Ti5 1.890060 1_565
O4 Ti1 2.154816 1_565
O5 Ti1 2.014446 1_555
O6 Ti1 2.071105 1_565
O6 Ti3 2.071105 1_655
O7 Ti5 2.515969 1_555
O8 Ti0 1.934001 1_664
O9 Ti4 2.197653 1_556
O10 Ti5 1.890060 1_655
O10 Ti3 2.154816 1_655
O11 Ti5 2.515969 1_555
O12 Ti3 2.014446 1_555
O13 Ti2 1.886683 1_555
O13 Ti3 2.226166 1_655
O15 Ti4 1.982544 1_555
O16 Ti3 1.853282 1_555
O17 Ti1 2.331620 1_555
O17 Ti3 2.331620 1_555
O18 Ti5 2.054449 1_555
O18 Ti0 2.067140 1_555
O20 Ti2 1.886683 1_555
O20 Ti1 2.226166 1_565
O21 Ti1 1.853282 1_555
O22 Ti2 2.056153 1_555
O22 Ti5 2.091793 1_555
O22 Ti3 2.179836 1_555
O22 Ti1 2.179836 1_555
O23 Ti4 1.929654 1_555
O23 Ti0 2.256369 1_564
O24 Ti4 2.065803 1_555
O25 Ti2 1.886961 1_555
O26 Ti4 1.929654 1_555
O26 Ti0 2.256369 1_654
