# generated using pymatgen
data_Cs3Ba3ScAs4
_symmetry_space_group_name_H-M   'P 1'
_cell_length_a   11.19275096
_cell_length_b   11.19275206
_cell_length_c   8.05368969
_cell_angle_alpha   90.00000000
_cell_angle_beta   90.00000000
_cell_angle_gamma   119.99999675
_symmetry_Int_Tables_number   1
_chemical_formula_structural   Cs3Ba3ScAs4
_chemical_formula_sum   'Cs6 Ba6 Sc2 As8'
_cell_volume   873.77429098
_cell_formula_units_Z   2
loop_
 _symmetry_equiv_pos_site_id
 _symmetry_equiv_pos_as_xyz
  1  'x, y, z'
loop_
 _atom_site_type_symbol
 _atom_site_label
 _atom_site_symmetry_multiplicity
 _atom_site_fract_x
 _atom_site_fract_y
 _atom_site_fract_z
 _atom_site_occupancy
  Cs  Cs0  1  0.13499582  0.86500418  0.17811878  1
  Cs  Cs1  1  0.26999364  0.13499582  0.67811878  1
  Cs  Cs2  1  0.86500418  0.73000636  0.67811878  1
  Cs  Cs3  1  0.13499582  0.26999364  0.17811878  1
  Cs  Cs4  1  0.73000636  0.86500418  0.17811878  1
  Cs  Cs5  1  0.86500418  0.13499582  0.67811878  1
  Ba  Ba0  1  0.46706678  0.93413157  0.49842751  1
  Ba  Ba1  1  0.53293322  0.06586843  0.99842751  1
  Ba  Ba2  1  0.93413157  0.46706678  0.99842751  1
  Ba  Ba3  1  0.46706678  0.53293322  0.49842751  1
  Ba  Ba4  1  0.53293322  0.46706678  0.99842751  1
  Ba  Ba5  1  0.06586843  0.53293322  0.49842751  1
  Sc  Sc0  1  0.33333300  0.66666700  0.88754428  1
  Sc  Sc1  1  0.66666700  0.33333300  0.38754428  1
  As  As0  1  0.20619171  0.79380829  0.76591462  1
  As  As1  1  0.41238342  0.20619171  0.26591462  1
  As  As2  1  0.79380829  0.58761658  0.26591462  1
  As  As3  1  0.20619171  0.41238342  0.76591462  1
  As  As4  1  0.58761658  0.79380829  0.76591462  1
  As  As5  1  0.79380829  0.20619171  0.26591462  1
  As  As6  1  0.33333300  0.66666700  0.22575500  1
  As  As7  1  0.66666700  0.33333300  0.72575500  1
loop_
_geom_bond_atom_site_label_1
_geom_bond_atom_site_label_2
_geom_bond_distance
_geom_bond_site_symmetry_2
As0 Sc0 2.652331 1_555
As0 Ba0 3.323774 1_555
As0 Ba5 3.323775 1_555
As0 Cs2 3.586959 1_455
As0 Cs1 3.586959 1_565
As0 Cs0 3.595258 1_556
As0 Ba1 3.875245 1_565
As0 Ba2 3.875245 1_455
As1 Sc1 2.652340 1_555
As1 Ba1 3.323760 1_554
As1 Ba4 3.323775 1_554
As1 Cs0 3.586966 1_545
As1 Cs3 3.586980 1_555
As1 Cs1 3.595250 1_555
As1 Ba3 3.875238 1_555
As1 Ba0 3.875257 1_545
As2 Sc1 2.652340 1_555
As2 Ba2 3.323760 1_554
As2 Ba4 3.323775 1_554
As2 Cs0 3.586966 1_655
As2 Cs4 3.586980 1_555
As2 Cs2 3.595250 1_555
As2 Ba3 3.875237 1_555
As2 Ba5 3.875257 1_655
As3 Sc0 2.652340 1_555
As3 Ba5 3.323760 1_555
As3 Ba3 3.323775 1_555
As3 Cs5 3.586966 1_455
As3 Cs1 3.586980 1_555
As3 Cs3 3.595250 1_556
As3 Ba4 3.875237 1_555
As3 Ba2 3.875257 1_455
As4 Sc0 2.652340 1_555
As4 Ba0 3.323760 1_555
As4 Ba3 3.323775 1_555
As4 Cs5 3.586966 1_565
As4 Cs2 3.586980 1_555
As4 Cs4 3.595250 1_556
As4 Ba4 3.875238 1_555
As4 Ba1 3.875257 1_565
As5 Sc1 2.652331 1_555
As5 Ba1 3.323774 1_554
As5 Ba2 3.323775 1_554
As5 Cs3 3.586959 1_655
As5 Cs4 3.586959 1_545
As5 Cs5 3.595258 1_555
As5 Ba0 3.875245 1_545
As5 Ba5 3.875245 1_655
As6 Sc0 2.723844 1_554
As6 Ba5 3.397650 1_555
As6 Ba0 3.397650 1_555
As6 Ba3 3.397672 1_555
As6 Cs4 3.864129 1_555
As6 Cs3 3.864130 1_555
As6 Cs0 3.864139 1_555
As7 Sc1 2.723844 1_555
As7 Ba2 3.397650 1_555
As7 Ba1 3.397650 1_555
As7 Ba4 3.397672 1_555
As7 Cs1 3.864129 1_555
As7 Cs2 3.864130 1_555
As7 Cs5 3.864139 1_555
