# generated using pymatgen
data_Dy10Ti6O27
_symmetry_space_group_name_H-M   'P 1'
_cell_length_a   7.42739033
_cell_length_b   7.42739033
_cell_length_c   12.55316637
_cell_angle_alpha   72.04427981
_cell_angle_beta   72.04427981
_cell_angle_gamma   58.67671621
_symmetry_Int_Tables_number   1
_chemical_formula_structural   Dy10Ti6O27
_chemical_formula_sum   'Dy10 Ti6 O27'
_cell_volume   553.34825365
_cell_formula_units_Z   1
loop_
 _symmetry_equiv_pos_site_id
 _symmetry_equiv_pos_as_xyz
  1  'x, y, z'
loop_
 _atom_site_type_symbol
 _atom_site_label
 _atom_site_symmetry_multiplicity
 _atom_site_fract_x
 _atom_site_fract_y
 _atom_site_fract_z
 _atom_site_occupancy
  Dy  Dy0  1  0.51994800  0.51994800  0.99628100  1
  Dy  Dy1  1  0.98159100  0.98159100  0.99059300  1
  Dy  Dy2  1  0.25752400  0.25752400  0.27493700  1
  Dy  Dy3  1  0.25820000  0.74968900  0.25317000  1
  Dy  Dy4  1  0.74968900  0.25820000  0.25317000  1
  Dy  Dy5  1  0.51629100  0.51629100  0.50312800  1
  Dy  Dy6  1  0.74572800  0.74572800  0.23397700  1
  Dy  Dy7  1  0.77187700  0.27907600  0.73135400  1
  Dy  Dy8  1  0.27907600  0.77187700  0.73135400  1
  Dy  Dy9  1  0.24960600  0.24960600  0.76774600  1
  Ti  Ti0  1  0.02145100  0.49521200  0.00432000  1
  Ti  Ti1  1  0.49521200  0.02145100  0.00432000  1
  Ti  Ti2  1  0.74783800  0.74783800  0.75686700  1
  Ti  Ti3  1  0.00152700  0.00152700  0.50628400  1
  Ti  Ti4  1  0.00781400  0.51961000  0.49414200  1
  Ti  Ti5  1  0.51961000  0.00781400  0.49414200  1
  O  O0  1  0.60776600  0.02651000  0.31721700  1
  O  O1  1  0.78918700  0.78918700  0.04130200  1
  O  O2  1  0.83397500  0.27658600  0.06486700  1
  O  O3  1  0.02651000  0.60776600  0.31721700  1
  O  O4  1  0.91994800  0.55649400  0.86330400  1
  O  O5  1  0.43647500  0.43647500  0.18672200  1
  O  O6  1  0.14340700  0.67959400  0.47678100  1
  O  O7  1  0.26767500  0.26767500  0.45689200  1
  O  O8  1  0.05929600  0.05929600  0.34183500  1
  O  O9  1  0.27658600  0.83397500  0.06486700  1
  O  O10  1  0.42275100  0.99865800  0.16405100  1
  O  O11  1  0.43183500  0.43183500  0.68971200  1
  O  O12  1  0.28293900  0.88012400  0.53767300  1
  O  O13  1  0.57016700  0.57016700  0.31511400  1
  O  O14  1  0.67959400  0.14340700  0.47678100  1
  O  O15  1  0.55649400  0.91994800  0.86330400  1
  O  O16  1  0.62671500  0.19843400  0.94262700  1
  O  O17  1  0.90596900  0.90596900  0.67419600  1
  O  O18  1  0.58692400  0.58692400  0.79565000  1
  O  O19  1  0.99865800  0.42275100  0.16405100  1
  O  O20  1  0.69686700  0.69686700  0.49903700  1
  O  O21  1  0.88012400  0.28293900  0.53767300  1
  O  O22  1  0.97364900  0.46578900  0.66019800  1
  O  O23  1  0.06440600  0.06440600  0.81085700  1
  O  O24  1  0.19843400  0.62671500  0.94262700  1
  O  O25  1  0.23737800  0.23737800  0.95196400  1
  O  O26  1  0.46578900  0.97364900  0.66019800  1
loop_
_geom_bond_atom_site_label_1
_geom_bond_atom_site_label_2
_geom_bond_distance
_geom_bond_site_symmetry_2
Dy0 O5 2.248527 1_556
Dy0 O2 2.311660 1_556
Dy0 O9 2.311660 1_556
Dy0 O16 2.340622 1_555
Dy0 O24 2.340622 1_555
Dy0 O18 2.355926 1_555
Dy1 O23 2.128240 1_665
Dy1 O9 2.236884 1_656
Dy1 O2 2.236884 1_566
Dy1 O1 2.343338 1_556
Dy1 O24 2.422963 1_655
Dy1 O16 2.422963 1_565
Dy2 O5 2.186623 1_555
Dy2 O19 2.298693 1_455
Dy2 O10 2.298693 1_545
Dy2 O7 2.333839 1_555
Dy2 O0 2.375263 1_555
Dy2 O3 2.375263 1_555
Dy2 O8 2.402050 1_555
Dy3 O9 2.230599 1_555
Dy3 O13 2.238483 1_555
Dy3 O5 2.274579 1_555
Dy3 O3 2.286781 1_555
Dy3 O8 2.396126 1_565
Dy3 O10 2.529052 1_555
Dy3 O6 2.638607 1_555
Dy4 O2 2.230599 1_555
Dy4 O13 2.238483 1_555
Dy4 O5 2.274579 1_555
Dy4 O0 2.286781 1_555
Dy4 O8 2.396126 1_655
Dy4 O19 2.529052 1_555
Dy4 O14 2.638607 1_555
Dy5 O11 2.206883 1_555
Dy5 O13 2.211907 1_555
Dy5 O20 2.320710 1_555
Dy5 O12 2.425688 1_555
Dy5 O21 2.425688 1_555
Dy5 O14 2.464896 1_555
Dy5 O6 2.464896 1_555
Dy6 O13 2.137323 1_555
Dy6 O0 2.225448 1_565
Dy6 O3 2.225448 1_655
Dy6 O1 2.281229 1_555
Dy6 O19 2.377029 1_555
Dy6 O10 2.377029 1_555
Dy7 O18 2.226001 1_555
Dy7 O23 2.238957 1_655
Dy7 O21 2.309597 1_555
Dy7 O11 2.325565 1_555
Dy7 O22 2.353453 1_555
Dy7 O16 2.546380 1_555
Dy7 O17 2.664970 1_545
Dy8 O18 2.226001 1_555
Dy8 O23 2.238957 1_565
Dy8 O12 2.309597 1_555
Dy8 O11 2.325565 1_555
Dy8 O26 2.353453 1_555
Dy8 O24 2.546380 1_555
Dy8 O17 2.664970 1_455
Dy9 O11 2.212057 1_555
Dy9 O25 2.261377 1_555
Dy9 O23 2.264183 1_555
Dy9 O26 2.355768 1_545
Dy9 O22 2.355768 1_455
Dy9 O4 2.588775 1_455
Dy9 O15 2.588775 1_545
O0 Ti5 2.094867 1_555
O1 Ti0 2.043006 1_655
O1 Ti1 2.043006 1_565
O2 Ti0 2.467967 1_655
O3 Ti4 2.094867 1_555
O4 Ti2 1.852701 1_555
O4 Ti0 1.969368 1_656
O6 Ti4 1.850129 1_555
O6 Ti3 2.156529 1_565
O7 Ti5 1.916577 1_555
O7 Ti4 1.916577 1_555
O8 Ti3 1.931045 1_555
O9 Ti1 2.467967 1_565
O10 Ti1 1.886513 1_565
O12 Ti3 1.914739 1_565
O12 Ti5 2.260465 1_565
O14 Ti5 1.850129 1_555
O14 Ti3 2.156529 1_655
O15 Ti2 1.852701 1_555
O15 Ti1 1.969368 1_566
O16 Ti1 1.876860 1_556
O17 Ti2 1.940909 1_555
O17 Ti3 2.032089 1_665
O18 Ti2 1.965086 1_555
O19 Ti0 1.886513 1_655
O20 Ti5 1.967727 1_565
O20 Ti4 1.967727 1_655
O21 Ti3 1.914739 1_655
O21 Ti4 2.260465 1_655
O22 Ti4 1.958317 1_655
O22 Ti2 2.309438 1_555
O24 Ti0 1.876860 1_556
O25 Ti1 1.898479 1_556
O25 Ti0 1.898479 1_556
O26 Ti5 1.958317 1_565
O26 Ti2 2.309438 1_555
