# generated using pymatgen
data_PPb2Br
_symmetry_space_group_name_H-M   'P 1'
_cell_length_a   7.91271657
_cell_length_b   7.91271675
_cell_length_c   7.91271645
_cell_angle_alpha   31.31622778
_cell_angle_beta   31.31622790
_cell_angle_gamma   31.31621812
_symmetry_Int_Tables_number   1
_chemical_formula_structural   PPb2Br
_chemical_formula_sum   'P1 Pb2 Br1'
_cell_volume   118.78890295
_cell_formula_units_Z   1
loop_
 _symmetry_equiv_pos_site_id
 _symmetry_equiv_pos_as_xyz
  1  'x, y, z'
loop_
 _atom_site_type_symbol
 _atom_site_label
 _atom_site_symmetry_multiplicity
 _atom_site_fract_x
 _atom_site_fract_y
 _atom_site_fract_z
 _atom_site_occupancy
  P  P0  1  0.50000000  0.50000000  0.50000000  1
  Pb  Pb0  1  0.23482037  0.23482037  0.23482037  1
  Pb  Pb1  1  0.76517963  0.76517963  0.76517963  1
  Br  Br0  1  0.00000000  0.00000000  0.00000000  1
loop_
_geom_bond_atom_site_label_1
_geom_bond_atom_site_label_2
_geom_bond_distance
_geom_bond_site_symmetry_2
P0 Pb0 2.905913 1_655
P0 Pb1 2.905913 1_455
P0 Pb0 2.905913 1_565
P0 Pb1 2.905913 1_545
P0 Pb0 2.905914 1_556
P0 Pb1 2.905914 1_554
Br0 Pb1 3.319434 1_544
Br0 Pb0 3.319434 1_455
Br0 Pb1 3.319434 1_454
Br0 Pb0 3.319434 1_545
Br0 Pb1 3.319434 1_445
Br0 Pb0 3.319434 1_554
