# generated using pymatgen
data_Y4ReOs5Ru2
_symmetry_space_group_name_H-M   'P 1'
_cell_length_a   5.35484939
_cell_length_b   5.20602760
_cell_length_c   9.05165237
_cell_angle_alpha   90.00000000
_cell_angle_beta   90.00000000
_cell_angle_gamma   120.95023068
_symmetry_Int_Tables_number   1
_chemical_formula_structural   Y4ReOs5Ru2
_chemical_formula_sum   'Y4 Re1 Os5 Ru2'
_cell_volume   216.40816230
_cell_formula_units_Z   1
loop_
 _symmetry_equiv_pos_site_id
 _symmetry_equiv_pos_as_xyz
  1  'x, y, z'
loop_
 _atom_site_type_symbol
 _atom_site_label
 _atom_site_symmetry_multiplicity
 _atom_site_fract_x
 _atom_site_fract_y
 _atom_site_fract_z
 _atom_site_occupancy
  Y  Y0  1  0.33494869  0.66989838  0.43304042  1
  Y  Y1  1  0.67077749  0.34155298  0.56492783  1
  Y  Y2  1  0.67077749  0.34155298  0.93507217  1
  Y  Y3  1  0.33494869  0.66989838  0.06695958  1
  Re  Re0  1  0.15935112  0.31870123  0.75000000  1
  Os  Os0  1  0.17132630  0.82026758  0.75000000  1
  Os  Os1  1  0.33288015  0.16486573  0.25000000  1
  Os  Os2  1  0.82377378  0.64754757  0.25000000  1
  Os  Os3  1  0.64894128  0.82026758  0.75000000  1
  Os  Os4  1  0.83198558  0.16486573  0.25000000  1
  Ru  Ru0  1  0.01014472  0.02028943  0.00041115  1
  Ru  Ru1  1  0.01014472  0.02028943  0.49958885  1
loop_
_geom_bond_atom_site_label_1
_geom_bond_atom_site_label_2
_geom_bond_distance
_geom_bond_site_symmetry_2
Y0 Y1 3.227667 1_565
Y0 Y1 3.277625 1_455
Y0 Y1 3.277639 1_555
Y0 Y3 3.313636 1_555
Y2 Y3 3.227667 1_546
Y2 Y3 3.277625 1_656
Y2 Y3 3.277639 1_556
Re0 Ru0 2.629212 1_556
Re0 Ru1 2.629212 1_555
Re0 Y2 3.159956 1_455
Re0 Y1 3.159956 1_455
Re0 Y2 3.159961 1_555
Re0 Y1 3.159961 1_555
Re0 Y3 3.269537 1_556
Re0 Y0 3.269537 1_555
Os0 Os3 2.557556 1_555
Os0 Re0 2.578776 1_555
Os0 Re0 2.628414 1_565
Os0 Os3 2.797293 1_455
Os0 Ru0 2.809161 1_566
Os0 Ru1 2.809161 1_565
Os0 Y2 3.054632 1_455
Os0 Y1 3.054632 1_455
Os0 Y2 3.139821 1_565
Os0 Y1 3.139821 1_565
Os0 Y3 3.212040 1_556
Os0 Y0 3.212040 1_555
Os1 Os2 2.535750 1_555
Os1 Os2 2.670824 1_445
Os1 Os4 2.672634 1_555
Os1 Os4 2.682215 1_455
Os1 Ru1 2.705399 1_555
Os1 Ru0 2.705399 1_555
Os1 Y0 3.068305 1_545
Os1 Y3 3.068305 1_545
Os1 Y0 3.102899 1_555
Os1 Y3 3.102899 1_555
Os1 Y1 3.245626 1_555
Os1 Y2 3.245626 1_554
Os2 Os4 2.535750 1_555
Os2 Os4 2.670824 1_565
Os2 Ru1 2.805980 1_665
Os2 Ru0 2.805980 1_665
Os2 Y0 3.150174 1_655
Os2 Y3 3.150174 1_655
Os2 Y0 3.150178 1_555
Os2 Y3 3.150178 1_555
Os2 Y1 3.161092 1_555
Os2 Y2 3.161092 1_554
Os3 Re0 2.578773 1_555
Os3 Re0 2.628417 1_665
Os3 Ru0 2.809161 1_666
Os3 Ru1 2.809161 1_665
Os3 Y2 3.054637 1_555
Os3 Y1 3.054637 1_555
Os3 Y2 3.139817 1_565
Os3 Y1 3.139817 1_565
Os3 Y3 3.212042 1_556
Os3 Y0 3.212042 1_555
Os4 Ru1 2.705399 1_655
Os4 Ru0 2.705399 1_655
Os4 Y0 3.068307 1_545
Os4 Y3 3.068307 1_545
Os4 Y0 3.102896 1_655
Os4 Y3 3.102896 1_655
Os4 Y1 3.245622 1_555
Os4 Y2 3.245622 1_554
Ru0 Y3 2.962244 1_555
Ru0 Y2 3.087571 1_444
Ru0 Y2 3.094473 1_454
Ru0 Y2 3.094482 1_554
Ru0 Y3 3.158929 1_545
Ru0 Y3 3.158933 1_445
Ru1 Y0 2.962244 1_555
Ru1 Y1 3.087571 1_445
Ru1 Y1 3.094473 1_455
Ru1 Y1 3.094482 1_555
Ru1 Y0 3.158929 1_545
Ru1 Y0 3.158933 1_445
