# generated using pymatgen
data_K2RbAg3As2
_symmetry_space_group_name_H-M   'P 1'
_cell_length_a   7.97346651
_cell_length_b   7.97346602
_cell_length_c   7.97346592
_cell_angle_alpha   44.40335970
_cell_angle_beta   44.40336145
_cell_angle_gamma   44.40335766
_symmetry_Int_Tables_number   1
_chemical_formula_structural   K2RbAg3As2
_chemical_formula_sum   'K2 Rb1 Ag3 As2'
_cell_volume   225.60725921
_cell_formula_units_Z   1
loop_
 _symmetry_equiv_pos_site_id
 _symmetry_equiv_pos_as_xyz
  1  'x, y, z'
loop_
 _atom_site_type_symbol
 _atom_site_label
 _atom_site_symmetry_multiplicity
 _atom_site_fract_x
 _atom_site_fract_y
 _atom_site_fract_z
 _atom_site_occupancy
  K  K0  1  0.09085896  0.09085896  0.09085896  1
  K  K1  1  0.90914104  0.90914104  0.90914104  1
  Rb  Rb0  1  0.50000000  0.50000000  0.50000000  1
  Ag  Ag0  1  0.00000000  0.50000000  0.50000000  1
  Ag  Ag1  1  0.50000000  0.50000000  0.00000000  1
  Ag  Ag2  1  0.50000000  0.00000000  0.50000000  1
  As  As0  1  0.75351441  0.75351441  0.75351441  1
  As  As1  1  0.24648559  0.24648559  0.24648559  1
loop_
_geom_bond_atom_site_label_1
_geom_bond_atom_site_label_2
_geom_bond_distance
_geom_bond_site_symmetry_2
K0 Rb0 3.842628 1_545
K0 Rb0 3.842628 1_455
K0 Rb0 3.842628 1_554
K1 Rb0 3.842628 1_565
K1 Rb0 3.842628 1_655
K1 Rb0 3.842628 1_556
Ag0 As0 2.553428 1_455
Ag0 As1 2.553428 1_555
Ag0 K0 3.591934 1_556
Ag0 K1 3.591934 1_454
Ag0 K0 3.591934 1_565
Ag0 K1 3.591934 1_445
Ag0 Rb0 3.986733 1_555
Ag0 Rb0 3.986733 1_455
Ag1 As0 2.553428 1_554
Ag1 As1 2.553428 1_555
Ag1 K0 3.591934 1_565
Ag1 K1 3.591934 1_544
Ag1 K0 3.591934 1_655
Ag1 K1 3.591934 1_454
Ag1 Rb0 3.986733 1_554
Ag1 Rb0 3.986733 1_555
Ag2 As0 2.553428 1_545
Ag2 As1 2.553428 1_555
Ag2 K0 3.591934 1_556
Ag2 K1 3.591934 1_544
Ag2 K0 3.591934 1_655
Ag2 K1 3.591934 1_445
Ag2 Rb0 3.986733 1_545
Ag2 Rb0 3.986733 1_555
As0 K1 3.349602 1_555
As0 K0 3.480088 1_656
As0 K0 3.480088 1_566
As0 K0 3.480088 1_665
As0 Rb0 3.880074 1_565
As0 Rb0 3.880074 1_556
As0 Rb0 3.880074 1_655
As1 K0 3.349602 1_555
As1 K1 3.480088 1_454
As1 K1 3.480088 1_544
As1 K1 3.480088 1_445
As1 Rb0 3.880074 1_545
As1 Rb0 3.880074 1_554
As1 Rb0 3.880074 1_455
