# generated using pymatgen
data_Sc2Tc3B4
_symmetry_space_group_name_H-M   'P 1'
_cell_length_a   6.05745275
_cell_length_b   6.05745275
_cell_length_c   11.17558685
_cell_angle_alpha   90.00000000
_cell_angle_beta   90.00000000
_cell_angle_gamma   90.00000000
_symmetry_Int_Tables_number   1
_chemical_formula_structural   Sc2Tc3B4
_chemical_formula_sum   'Sc8 Tc12 B16'
_cell_volume   410.06283379
_cell_formula_units_Z   4
loop_
 _symmetry_equiv_pos_site_id
 _symmetry_equiv_pos_as_xyz
  1  'x, y, z'
loop_
 _atom_site_type_symbol
 _atom_site_label
 _atom_site_symmetry_multiplicity
 _atom_site_fract_x
 _atom_site_fract_y
 _atom_site_fract_z
 _atom_site_occupancy
  Sc  Sc0  1  0.99431284  0.65225665  0.03993158  1
  Sc  Sc1  1  0.00568716  0.34774335  0.53993158  1
  Sc  Sc2  1  0.34774335  0.00568716  0.46006842  1
  Sc  Sc3  1  0.15225665  0.50568716  0.78993158  1
  Sc  Sc4  1  0.84774335  0.49431284  0.28993158  1
  Sc  Sc5  1  0.50568716  0.15225665  0.21006842  1
  Sc  Sc6  1  0.49431284  0.84774335  0.71006842  1
  Sc  Sc7  1  0.65225665  0.99431284  0.96006842  1
  Tc  Tc0  1  0.67502433  0.67502433  0.50000000  1
  Tc  Tc1  1  0.17502433  0.82497567  0.25000000  1
  Tc  Tc2  1  0.32497567  0.32497567  0.00000000  1
  Tc  Tc3  1  0.00358764  0.85243230  0.62507029  1
  Tc  Tc4  1  0.99641236  0.14756770  0.12507029  1
  Tc  Tc5  1  0.85243230  0.00358764  0.37492971  1
  Tc  Tc6  1  0.35243230  0.49641236  0.37507029  1
  Tc  Tc7  1  0.64756770  0.50358764  0.87507029  1
  Tc  Tc8  1  0.49641236  0.35243230  0.62492971  1
  Tc  Tc9  1  0.50358764  0.64756770  0.12492971  1
  Tc  Tc10  1  0.14756770  0.99641236  0.87492971  1
  Tc  Tc11  1  0.82497567  0.17502433  0.75000000  1
  B  B0  1  0.06435662  0.71038451  0.44292299  1
  B  B1  1  0.64303363  0.29001980  0.44195059  1
  B  B2  1  0.35696637  0.70998020  0.94195059  1
  B  B3  1  0.20998020  0.14303363  0.69195059  1
  B  B4  1  0.29001980  0.64303363  0.55804941  1
  B  B5  1  0.70998020  0.35696637  0.05804941  1
  B  B6  1  0.79001980  0.85696637  0.19195059  1
  B  B7  1  0.14303363  0.20998020  0.30804941  1
  B  B8  1  0.93564338  0.28961549  0.94292299  1
  B  B9  1  0.71038451  0.06435662  0.55707701  1
  B  B10  1  0.21038451  0.43564338  0.19292299  1
  B  B11  1  0.78961549  0.56435662  0.69292299  1
  B  B12  1  0.43564338  0.21038451  0.80707701  1
  B  B13  1  0.56435662  0.78961549  0.30707701  1
  B  B14  1  0.28961549  0.93564338  0.05707701  1
  B  B15  1  0.85696637  0.79001980  0.80804941  1
loop_
_geom_bond_atom_site_label_1
_geom_bond_atom_site_label_2
_geom_bond_distance
_geom_bond_site_symmetry_2
Sc0 Tc1 2.793614 1_655
Sc0 Tc2 2.853299 1_655
Sc1 Tc11 2.793614 1_455
Sc1 Tc0 2.853299 1_455
Sc2 Tc1 2.793614 1_545
Sc2 Tc0 2.853299 1_545
Sc3 Tc2 2.793614 1_556
Sc3 Tc11 2.853299 1_455
Sc4 Tc0 2.793614 1_555
Sc4 Tc1 2.853299 1_655
Sc5 Tc2 2.793614 1_555
Sc5 Tc1 2.853299 1_545
Sc6 Tc0 2.793614 1_555
Sc6 Tc11 2.853299 1_565
Sc7 Tc11 2.793614 1_565
Sc7 Tc2 2.853299 1_566
Tc0 Tc8 2.634066 1_555
Tc0 Tc6 2.634066 1_555
Tc0 Tc3 2.658878 1_655
Tc0 Tc5 2.658878 1_565
Tc1 Tc5 2.634066 1_465
Tc1 Tc4 2.634066 1_465
Tc1 Tc6 2.658878 1_555
Tc1 Tc9 2.658878 1_555
Tc2 Tc9 2.634066 1_555
Tc2 Tc7 2.634066 1_554
Tc2 Tc4 2.658878 1_455
Tc10 Tc11 2.634066 1_465
Tc10 Tc2 2.658878 1_566
Tc11 Tc3 2.634066 1_645
Tc11 Tc7 2.658878 1_555
Tc11 Tc8 2.658878 1_555
B0 B4 1.921024 1_555
B0 Tc3 2.240436 1_555
B0 Tc6 2.302172 1_555
B0 Tc5 2.319427 1_465
B0 Tc1 2.362131 1_555
B0 Tc0 2.452474 1_455
B0 Sc1 2.475287 1_555
B0 Sc2 2.486599 1_565
B0 Sc4 2.521518 1_455
B1 B9 1.921024 1_555
B1 Tc8 2.261273 1_555
B1 Tc5 2.276025 1_555
B1 Tc6 2.284808 1_555
B1 Tc0 2.428440 1_555
B1 Sc4 2.440350 1_555
B1 Sc1 2.479317 1_655
B1 Sc2 2.491364 1_555
B1 Sc5 2.846754 1_555
B2 Tc9 2.261273 1_556
B2 Tc10 2.276025 1_555
B2 Tc7 2.284808 1_555
B2 Tc2 2.428440 1_556
B2 Sc3 2.440350 1_555
B2 Sc0 2.479317 1_456
B2 Sc7 2.491364 1_555
B2 Sc6 2.846754 1_555
B3 Tc10 2.261273 1_545
B3 Tc8 2.276025 1_555
B3 Tc3 2.284808 1_545
B3 Tc11 2.428440 1_455
B3 Sc1 2.440350 1_555
B3 Sc3 2.479317 1_555
B3 Sc6 2.491364 1_545
B3 Sc2 2.846754 1_555
B4 Tc6 2.261273 1_555
B4 Tc3 2.276025 1_555
B4 Tc8 2.284808 1_555
B4 Tc0 2.428440 1_555
B4 Sc6 2.440350 1_555
B4 Sc2 2.479317 1_565
B4 Sc1 2.491364 1_555
B4 Sc3 2.846754 1_555
B5 B8 1.921024 1_554
B5 Tc7 2.261273 1_554
B5 Tc4 2.276025 1_555
B5 Tc9 2.284808 1_555
B5 Tc2 2.428440 1_555
B5 Sc5 2.440350 1_555
B5 Sc7 2.479317 1_544
B5 Sc0 2.491364 1_555
B5 Sc4 2.846754 1_555
B6 Tc5 2.261273 1_565
B6 Tc9 2.276025 1_555
B6 Tc4 2.284808 1_565
B6 Tc1 2.428440 1_655
B6 Sc0 2.440350 1_555
B6 Sc4 2.479317 1_555
B6 Sc5 2.491364 1_565
B6 Sc7 2.846754 1_554
B7 Tc4 2.261273 1_455
B7 Tc6 2.276025 1_555
B7 Tc5 2.284808 1_455
B7 Tc1 2.428440 1_545
B7 Sc2 2.440350 1_555
B7 Sc5 2.479317 1_555
B7 Sc4 2.491364 1_455
B7 Sc1 2.846754 1_555
B8 Tc4 2.240436 1_556
B8 Tc7 2.302172 1_555
B8 Tc10 2.319427 1_645
B8 Tc11 2.362131 1_555
B8 Tc2 2.452474 1_656
B8 Sc0 2.475287 1_556
B8 Sc7 2.486599 1_545
B8 Sc3 2.521518 1_655
B9 Tc5 2.240436 1_555
B9 Tc8 2.302172 1_555
B9 Tc3 2.319427 1_645
B9 Tc11 2.362131 1_555
B9 Tc0 2.452474 1_545
B9 Sc2 2.475287 1_555
B9 Sc1 2.486599 1_655
B9 Sc6 2.521518 1_545
B10 B7 1.921024 1_555
B10 Tc6 2.240436 1_555
B10 Tc4 2.302172 1_455
B10 Tc9 2.319427 1_555
B10 Tc2 2.362131 1_555
B10 Tc1 2.452474 1_555
B10 Sc4 2.475287 1_455
B10 Sc5 2.486599 1_555
B10 Sc0 2.521518 1_455
B11 B15 1.921024 1_555
B11 Tc7 2.240436 1_555
B11 Tc3 2.302172 1_655
B11 Tc8 2.319427 1_555
B11 Tc0 2.362131 1_555
B11 Tc11 2.452474 1_555
B11 Sc3 2.475287 1_655
B11 Sc6 2.486599 1_555
B11 Sc1 2.521518 1_655
B12 B3 1.921024 1_555
B12 Tc8 2.240436 1_555
B12 Tc10 2.302172 1_545
B12 Tc7 2.319427 1_555
B12 Tc2 2.362131 1_556
B12 Tc11 2.452474 1_555
B12 Sc6 2.475287 1_545
B12 Sc3 2.486599 1_555
B12 Sc7 2.521518 1_545
B13 B6 1.921024 1_555
B13 Tc9 2.240436 1_555
B13 Tc5 2.302172 1_565
B13 Tc6 2.319427 1_555
B13 Tc0 2.362131 1_555
B13 Tc1 2.452474 1_555
B13 Sc5 2.475287 1_565
B13 Sc4 2.486599 1_555
B13 Sc2 2.521518 1_565
B14 B2 1.921024 1_554
B14 Tc10 2.240436 1_554
B14 Tc9 2.302172 1_555
B14 Tc4 2.319427 1_465
B14 Tc1 2.362131 1_555
B14 Tc2 2.452474 1_565
B14 Sc7 2.475287 1_554
B14 Sc0 2.486599 1_455
B14 Sc5 2.521518 1_565
B15 Tc3 2.261273 1_655
B15 Tc7 2.276025 1_555
B15 Tc10 2.284808 1_655
B15 Tc11 2.428440 1_565
B15 Sc7 2.440350 1_555
B15 Sc6 2.479317 1_555
B15 Sc3 2.491364 1_655
B15 Sc0 2.846754 1_556
