# generated using pymatgen
data_RbTiAs2Pd
_symmetry_space_group_name_H-M   'P 1'
_cell_length_a   7.85691963
_cell_length_b   7.85691964
_cell_length_c   7.85691960
_cell_angle_alpha   149.74364136
_cell_angle_beta   149.74364343
_cell_angle_gamma   43.31783821
_symmetry_Int_Tables_number   1
_chemical_formula_structural   RbTiAs2Pd
_chemical_formula_sum   'Rb1 Ti1 As2 Pd1'
_cell_volume   122.80909984
_cell_formula_units_Z   1
loop_
 _symmetry_equiv_pos_site_id
 _symmetry_equiv_pos_as_xyz
  1  'x, y, z'
loop_
 _atom_site_type_symbol
 _atom_site_label
 _atom_site_symmetry_multiplicity
 _atom_site_fract_x
 _atom_site_fract_y
 _atom_site_fract_z
 _atom_site_occupancy
  Rb  Rb0  1  0.00000000  0.00000000  0.00000000  1
  Ti  Ti0  1  0.25000000  0.75000000  0.50000000  1
  As  As0  1  0.35170698  0.35170698  1.00000000  1
  As  As1  1  0.64829302  0.64829302  0.00000000  1
  Pd  Pd0  1  0.75000000  0.25000000  0.50000000  1
loop_
_geom_bond_atom_site_label_1
_geom_bond_atom_site_label_2
_geom_bond_distance
_geom_bond_site_symmetry_2
As0 Pd0 2.531965 1_556
As0 Pd0 2.531965 1_455
As0 Ti0 2.531965 1_556
As0 Ti0 2.531965 1_545
As0 Rb0 3.619314 1_555
As0 Rb0 3.619314 1_656
As0 Rb0 3.619314 1_566
As0 Rb0 3.619314 1_667
As1 Ti0 2.531965 1_554
As1 Ti0 2.531965 1_655
As1 Pd0 2.531965 1_554
As1 Pd0 2.531965 1_565
As1 Rb0 3.619314 1_666
As1 Rb0 3.619314 1_565
As1 Rb0 3.619314 1_655
As1 Rb0 3.619314 1_554
Pd0 Ti0 2.899836 1_645
Pd0 Ti0 2.899836 1_555
Pd0 Ti0 2.899836 1_656
Pd0 Ti0 2.899836 1_544
