# generated using pymatgen
data_Ba4LiAgO6
_symmetry_space_group_name_H-M   'P 1'
_cell_length_a   7.25396925
_cell_length_b   7.25396853
_cell_length_c   11.29200987
_cell_angle_alpha   90.00000000
_cell_angle_beta   90.00000000
_cell_angle_gamma   133.14181974
_symmetry_Int_Tables_number   1
_chemical_formula_structural   Ba4LiAgO6
_chemical_formula_sum   'Ba8 Li2 Ag2 O12'
_cell_volume   433.55596777
_cell_formula_units_Z   2
loop_
 _symmetry_equiv_pos_site_id
 _symmetry_equiv_pos_as_xyz
  1  'x, y, z'
loop_
 _atom_site_type_symbol
 _atom_site_label
 _atom_site_symmetry_multiplicity
 _atom_site_fract_x
 _atom_site_fract_y
 _atom_site_fract_z
 _atom_site_occupancy
  Ba  Ba0  1  0.19016437  0.89118741  0.75000000  1
  Ba  Ba1  1  0.64595481  0.35404519  0.50000000  1
  Ba  Ba2  1  0.80983563  0.10881259  0.25000000  1
  Ba  Ba3  1  0.89118741  0.19016437  0.75000000  1
  Ba  Ba4  1  0.10881259  0.80983563  0.25000000  1
  Ba  Ba5  1  0.35404519  0.64595481  0.00000000  1
  Ba  Ba6  1  0.35404519  0.64595481  0.50000000  1
  Ba  Ba7  1  0.64595481  0.35404519  0.00000000  1
  Li  Li0  1  0.52807580  0.52807580  0.25000000  1
  Li  Li1  1  0.47192420  0.47192420  0.75000000  1
  Ag  Ag0  1  0.00000000  0.00000000  0.00000000  1
  Ag  Ag1  1  0.00000000  0.00000000  0.50000000  1
  O  O0  1  0.26646406  0.56931252  0.25000000  1
  O  O1  1  0.15274870  0.84725130  0.50000000  1
  O  O2  1  0.56931252  0.26646406  0.25000000  1
  O  O3  1  0.73495361  0.73495361  0.38775651  1
  O  O4  1  0.15274870  0.84725130  0.00000000  1
  O  O5  1  0.84725130  0.15274870  0.00000000  1
  O  O6  1  0.43068748  0.73353594  0.75000000  1
  O  O7  1  0.73353594  0.43068748  0.75000000  1
  O  O8  1  0.73495361  0.73495361  0.11224349  1
  O  O9  1  0.84725130  0.15274870  0.50000000  1
  O  O10  1  0.26504639  0.26504639  0.61224349  1
  O  O11  1  0.26504639  0.26504639  0.88775651  1
loop_
_geom_bond_atom_site_label_1
_geom_bond_atom_site_label_2
_geom_bond_distance
_geom_bond_site_symmetry_2
Ba0 O7 2.645379 1_455
Ba0 O6 2.660967 1_555
Ba0 O4 2.833070 1_556
Ba0 O1 2.833070 1_555
Ba0 O11 2.838110 1_565
Ba0 O10 2.838110 1_565
Ba0 O7 3.123409 1_565
Ba1 O9 2.679619 1_555
Ba1 O3 2.686697 1_555
Ba1 O10 2.686697 1_555
Ba1 O2 2.863390 1_555
Ba1 O7 2.863390 1_555
Ba1 O1 2.885696 1_545
Ba1 O1 2.885696 1_655
Ba2 O0 2.645379 1_655
Ba2 O2 2.660967 1_555
Ba2 O5 2.833070 1_555
Ba2 O9 2.833070 1_555
Ba2 O3 2.838110 1_545
Ba2 O8 2.838110 1_545
Ba2 O0 3.123409 1_545
Ba3 O6 2.645379 1_545
Ba3 O7 2.660967 1_555
Ba3 O9 2.833070 1_555
Ba3 O5 2.833070 1_556
Ba3 O11 2.838110 1_655
Ba3 O10 2.838110 1_655
Ba3 O6 3.123409 1_655
Ba4 O2 2.645379 1_565
Ba4 O0 2.660967 1_555
Ba4 O4 2.833070 1_555
Ba4 O1 2.833070 1_555
Ba4 O3 2.838110 1_455
Ba4 O8 2.838110 1_455
Ba4 O2 3.123409 1_455
Ba5 O4 2.679619 1_555
Ba5 O11 2.686697 1_554
Ba5 O8 2.686697 1_555
Ba5 O6 2.863390 1_554
Ba5 O0 2.863390 1_555
Ba5 O5 2.885696 1_565
Ba5 O5 2.885696 1_455
Ba6 O1 2.679619 1_555
Ba6 O10 2.686697 1_555
Ba6 O3 2.686697 1_555
Ba6 O6 2.863390 1_555
Ba6 O0 2.863390 1_555
Ba6 O9 2.885696 1_565
Ba6 O9 2.885696 1_455
Ba7 O5 2.679619 1_555
Ba7 O8 2.686697 1_555
Ba7 O11 2.686697 1_554
Ba7 O2 2.863390 1_555
Ba7 O7 2.863390 1_554
Ba7 O4 2.885696 1_545
Ba7 O4 2.885696 1_655
Li0 O3 1.960587 1_555
Li0 O8 1.960587 1_555
Li0 O2 2.113570 1_555
Li0 O0 2.113571 1_555
Li1 O11 1.960587 1_555
Li1 O10 1.960587 1_555
Li1 O6 2.113570 1_555
Li1 O7 2.113571 1_555
Ag0 O8 1.985972 1_445
Ag0 O11 1.985972 1_554
Ag0 O4 2.033360 1_545
Ag0 O5 2.033360 1_455
Ag1 O10 1.985972 1_555
Ag1 O3 1.985972 1_445
Ag1 O1 2.033360 1_545
Ag1 O9 2.033360 1_455
