# generated using pymatgen
data_Ta3FeCo3B7
_symmetry_space_group_name_H-M   'P 1'
_cell_length_a   9.24446609
_cell_length_b   9.24446535
_cell_length_c   8.79842262
_cell_angle_alpha   90.00000000
_cell_angle_beta   90.00000000
_cell_angle_gamma   160.16192953
_symmetry_Int_Tables_number   1
_chemical_formula_structural   Ta3FeCo3B7
_chemical_formula_sum   'Ta6 Fe2 Co6 B14'
_cell_volume   255.17196950
_cell_formula_units_Z   2
loop_
 _symmetry_equiv_pos_site_id
 _symmetry_equiv_pos_as_xyz
  1  'x, y, z'
loop_
 _atom_site_type_symbol
 _atom_site_label
 _atom_site_symmetry_multiplicity
 _atom_site_fract_x
 _atom_site_fract_y
 _atom_site_fract_z
 _atom_site_occupancy
  Ta  Ta0  1  0.69868168  0.30131832  0.25000000  1
  Ta  Ta1  1  0.30131832  0.69868168  0.75000000  1
  Ta  Ta2  1  0.58173446  0.41826554  0.55542852  1
  Ta  Ta3  1  0.41826554  0.58173446  0.44457148  1
  Ta  Ta4  1  0.41826554  0.58173446  0.05542852  1
  Ta  Ta5  1  0.58173446  0.41826554  0.94457148  1
  Fe  Fe0  1  0.54186587  0.45813413  0.25000000  1
  Fe  Fe1  1  0.45813413  0.54186587  0.75000000  1
  Co  Co0  1  0.84372733  0.15627267  0.25000000  1
  Co  Co1  1  0.15627267  0.84372733  0.75000000  1
  Co  Co2  1  0.80140471  0.19859529  0.50664839  1
  Co  Co3  1  0.19859529  0.80140471  0.49335161  1
  Co  Co4  1  0.19859529  0.80140471  0.00664839  1
  Co  Co5  1  0.80140471  0.19859529  0.99335161  1
  B  B0  1  0.95514853  0.04485147  0.25000000  1
  B  B1  1  0.04485147  0.95514853  0.75000000  1
  B  B2  1  0.89036950  0.10963050  0.64875033  1
  B  B3  1  0.10963050  0.89036950  0.35124967  1
  B  B4  1  0.10963050  0.89036950  0.14875033  1
  B  B5  1  0.89036950  0.10963050  0.85124967  1
  B  B6  1  0.71014847  0.28985153  0.64392408  1
  B  B7  1  0.28985153  0.71014847  0.35607592  1
  B  B8  1  0.28985153  0.71014847  0.14392408  1
  B  B9  1  0.71014847  0.28985153  0.85607592  1
  B  B10  1  0.98467930  0.01532070  0.59369329  1
  B  B11  1  0.01532070  0.98467930  0.40630671  1
  B  B12  1  0.01532070  0.98467930  0.09369329  1
  B  B13  1  0.98467930  0.01532070  0.90630671  1
loop_
_geom_bond_atom_site_label_1
_geom_bond_atom_site_label_2
_geom_bond_distance
_geom_bond_site_symmetry_2
Co0 Ta0 2.641653 1_555
Co1 Ta1 2.641653 1_555
Co2 Ta1 2.668361 1_655
Co2 Ta1 2.668361 1_545
Co3 Ta0 2.668361 1_455
Co3 Ta0 2.668361 1_565
Co4 Ta0 2.668361 1_455
Co4 Ta0 2.668361 1_565
Co5 Ta1 2.668361 1_655
Co5 Ta1 2.668361 1_545
B0 B11 1.758492 1_645
B0 B12 1.758492 1_645
B0 Co0 2.029266 1_555
B0 Fe0 2.242794 1_545
B0 Fe0 2.242794 1_655
B0 Ta3 2.432632 1_655
B0 Ta4 2.432632 1_655
B0 Ta3 2.432632 1_545
B0 Ta4 2.432632 1_545
B1 B13 1.758492 1_465
B1 B10 1.758492 1_465
B1 Co1 2.029266 1_555
B1 Fe1 2.242794 1_565
B1 Fe1 2.242794 1_455
B1 Ta5 2.432632 1_455
B1 Ta2 2.432632 1_455
B1 Ta5 2.432632 1_565
B1 Ta2 2.432632 1_565
B2 B5 1.781675 1_555
B2 Co2 2.046577 1_555
B2 Fe1 2.202852 1_545
B2 Fe1 2.202852 1_655
B2 Ta1 2.441267 1_655
B2 Ta1 2.441267 1_545
B2 Ta3 2.453805 1_545
B2 Ta3 2.453805 1_655
B3 B4 1.781675 1_555
B3 Co3 2.046577 1_555
B3 Fe0 2.202852 1_565
B3 Fe0 2.202852 1_455
B3 Ta0 2.441267 1_455
B3 Ta0 2.441267 1_565
B3 Ta2 2.453805 1_565
B3 Ta2 2.453805 1_455
B4 Co4 2.046577 1_555
B4 Fe0 2.202852 1_565
B4 Fe0 2.202852 1_455
B4 Ta0 2.441267 1_455
B4 Ta0 2.441267 1_565
B4 Ta5 2.453805 1_564
B4 Ta5 2.453805 1_454
B5 Co5 2.046577 1_555
B5 Fe1 2.202852 1_545
B5 Fe1 2.202852 1_655
B5 Ta1 2.441267 1_655
B5 Ta1 2.441267 1_545
B5 Ta4 2.453805 1_546
B5 Ta4 2.453805 1_656
B6 B9 1.866601 1_555
B6 Co2 2.054527 1_555
B6 Co3 2.082106 1_655
B6 Co3 2.082106 1_545
B6 Co1 2.090366 1_655
B6 Co1 2.090366 1_545
B6 Ta2 2.464953 1_555
B6 Ta1 2.482719 1_545
B6 Ta1 2.482720 1_655
B7 B8 1.866601 1_555
B7 Co3 2.054527 1_555
B7 Co2 2.082106 1_455
B7 Co2 2.082106 1_565
B7 Co0 2.090366 1_455
B7 Co0 2.090366 1_565
B7 Ta3 2.464953 1_555
B7 Ta0 2.482719 1_565
B7 Ta0 2.482720 1_455
B8 Co4 2.054527 1_555
B8 Co5 2.082106 1_454
B8 Co5 2.082106 1_564
B8 Co0 2.090366 1_455
B8 Co0 2.090366 1_565
B8 Ta4 2.464953 1_555
B8 Ta0 2.482719 1_565
B8 Ta0 2.482720 1_455
B9 Co5 2.054527 1_555
B9 Co4 2.082106 1_656
B9 Co4 2.082106 1_546
B9 Co1 2.090366 1_655
B9 Co1 2.090366 1_545
B9 Ta5 2.464953 1_555
B9 Ta1 2.482719 1_545
B9 Ta1 2.482720 1_655
B10 B11 1.740592 1_645
B10 B2 1.784625 1_555
B10 Fe1 2.158899 1_655
B10 Fe1 2.158899 1_545
B10 Ta3 2.391711 1_655
B10 Ta3 2.391711 1_545
B10 Ta2 2.402838 1_545
B10 Ta2 2.402839 1_655
B11 B3 1.784625 1_555
B11 Fe0 2.158899 1_455
B11 Fe0 2.158899 1_565
B11 Ta2 2.391711 1_455
B11 Ta2 2.391711 1_565
B11 Ta3 2.402838 1_565
B11 Ta3 2.402839 1_455
B12 B13 1.740592 1_464
B12 B4 1.784625 1_555
B12 Fe0 2.158899 1_455
B12 Fe0 2.158899 1_565
B12 Ta5 2.391711 1_454
B12 Ta5 2.391711 1_564
B12 Ta4 2.402838 1_565
B12 Ta4 2.402839 1_455
B13 B5 1.784625 1_555
B13 Fe1 2.158899 1_655
B13 Fe1 2.158899 1_545
B13 Ta4 2.391711 1_656
B13 Ta4 2.391711 1_546
B13 Ta5 2.402838 1_545
B13 Ta5 2.402839 1_655
