# generated using pymatgen
data_Cs2NaIrCl6
_symmetry_space_group_name_H-M   'P 1'
_cell_length_a   12.90066385
_cell_length_b   12.90066431
_cell_length_c   12.90066309
_cell_angle_alpha   32.93090799
_cell_angle_beta   32.93090589
_cell_angle_gamma   32.93090703
_symmetry_Int_Tables_number   1
_chemical_formula_structural   Cs2NaIrCl6
_chemical_formula_sum   'Cs4 Na2 Ir2 Cl12'
_cell_volume   564.59632045
_cell_formula_units_Z   2
loop_
 _symmetry_equiv_pos_site_id
 _symmetry_equiv_pos_as_xyz
  1  'x, y, z'
loop_
 _atom_site_type_symbol
 _atom_site_label
 _atom_site_symmetry_multiplicity
 _atom_site_fract_x
 _atom_site_fract_y
 _atom_site_fract_z
 _atom_site_occupancy
  Cs  Cs0  1  0.12627731  0.12627731  0.12627731  1
  Cs  Cs1  1  0.29077546  0.29077546  0.29077546  1
  Cs  Cs2  1  0.70922454  0.70922454  0.70922454  1
  Cs  Cs3  1  0.87372269  0.87372269  0.87372269  1
  Na  Na0  1  0.41115308  0.41115308  0.41115308  1
  Na  Na1  1  0.58884692  0.58884692  0.58884692  1
  Ir  Ir0  1  0.00000000  0.00000000  0.00000000  1
  Ir  Ir1  1  0.50000000  0.50000000  0.50000000  1
  Cl  Cl0  1  0.61689391  0.61689391  0.15469103  1
  Cl  Cl1  1  0.73353775  0.18960779  0.18960779  1
  Cl  Cl2  1  0.18960779  0.73353775  0.18960779  1
  Cl  Cl3  1  0.81039221  0.81039221  0.26646325  1
  Cl  Cl4  1  0.84530997  0.38310509  0.38310509  1
  Cl  Cl5  1  0.38310509  0.84530997  0.38310509  1
  Cl  Cl6  1  0.61689491  0.15469003  0.61689491  1
  Cl  Cl7  1  0.15469003  0.61689491  0.61689491  1
  Cl  Cl8  1  0.18960779  0.18960779  0.73353675  1
  Cl  Cl9  1  0.81039221  0.26646225  0.81039221  1
  Cl  Cl10  1  0.26646225  0.81039221  0.81039221  1
  Cl  Cl11  1  0.38310609  0.38310609  0.84530897  1
loop_
_geom_bond_atom_site_label_1
_geom_bond_atom_site_label_2
_geom_bond_distance
_geom_bond_site_symmetry_2
Cl0 Ir1 2.378346 1_555
Cl0 Na0 2.716508 1_555
Cl0 Cs3 3.633436 1_554
Cl0 Cs0 3.661897 1_655
Cl0 Cs0 3.661897 1_565
Cl0 Cs2 3.906878 1_554
Cl1 Ir0 2.365840 1_655
Cl1 Na0 2.727520 1_555
Cl1 Cs2 3.665744 1_545
Cl1 Cs2 3.665744 1_554
Cl1 Cs1 3.723456 1_555
Cl1 Cs0 3.772078 1_655
Cl2 Ir0 2.365840 1_565
Cl2 Na0 2.727520 1_555
Cl2 Cs2 3.665744 1_455
Cl2 Cs2 3.665744 1_554
Cl2 Cs1 3.723456 1_555
Cl2 Cs0 3.772078 1_565
Cl3 Ir0 2.365837 1_665
Cl3 Na1 2.727523 1_555
Cl3 Cs1 3.665744 1_565
Cl3 Cs1 3.665744 1_655
Cl3 Cs2 3.723443 1_555
Cl3 Cs3 3.772090 1_554
Cl4 Ir1 2.378346 1_555
Cl4 Na1 2.716522 1_555
Cl4 Cs0 3.633421 1_655
Cl4 Cs3 3.661897 1_545
Cl4 Cs3 3.661897 1_554
Cl4 Cs1 3.906883 1_655
Cl5 Ir1 2.378346 1_555
Cl5 Na1 2.716522 1_555
Cl5 Cs0 3.633421 1_565
Cl5 Cs3 3.661897 1_455
Cl5 Cs3 3.661897 1_554
Cl5 Cs1 3.906883 1_565
Cl6 Ir1 2.378346 1_555
Cl6 Na0 2.716522 1_555
Cl6 Cs3 3.633421 1_545
Cl6 Cs0 3.661897 1_655
Cl6 Cs0 3.661897 1_556
Cl6 Cs2 3.906883 1_545
Cl7 Ir1 2.378346 1_555
Cl7 Na0 2.716522 1_555
Cl7 Cs3 3.633421 1_455
Cl7 Cs0 3.661897 1_565
Cl7 Cs0 3.661897 1_556
Cl7 Cs2 3.906883 1_455
Cl8 Ir0 2.365837 1_556
Cl8 Na0 2.727523 1_555
Cl8 Cs2 3.665744 1_545
Cl8 Cs2 3.665744 1_455
Cl8 Cs1 3.723443 1_555
Cl8 Cs0 3.772090 1_556
Cl9 Ir0 2.365840 1_656
Cl9 Na1 2.727520 1_555
Cl9 Cs1 3.665744 1_655
Cl9 Cs1 3.665744 1_556
Cl9 Cs2 3.723456 1_555
Cl9 Cs3 3.772078 1_545
Cl10 Ir0 2.365840 1_566
Cl10 Na1 2.727520 1_555
Cl10 Cs1 3.665744 1_565
Cl10 Cs1 3.665744 1_556
Cl10 Cs2 3.723456 1_555
Cl10 Cs3 3.772078 1_455
Cl11 Ir1 2.378346 1_555
Cl11 Na1 2.716508 1_555
Cl11 Cs0 3.633436 1_556
Cl11 Cs3 3.661897 1_455
Cl11 Cs3 3.661897 1_545
Cl11 Cs1 3.906878 1_556
