# generated using pymatgen
data_Na2Mn(SiS3)2
_symmetry_space_group_name_H-M   'P 1'
_cell_length_a   7.14878604
_cell_length_b   7.14878539
_cell_length_c   11.37479813
_cell_angle_alpha   84.92032921
_cell_angle_beta   84.92033264
_cell_angle_gamma   119.03637331
_symmetry_Int_Tables_number   1
_chemical_formula_structural   Na2Mn(SiS3)2
_chemical_formula_sum   'Na4 Mn2 Si4 S12'
_cell_volume   500.44465908
_cell_formula_units_Z   2
loop_
 _symmetry_equiv_pos_site_id
 _symmetry_equiv_pos_as_xyz
  1  'x, y, z'
loop_
 _atom_site_type_symbol
 _atom_site_label
 _atom_site_symmetry_multiplicity
 _atom_site_fract_x
 _atom_site_fract_y
 _atom_site_fract_z
 _atom_site_occupancy
  Na  Na0  1  0.16491498  0.76100675  0.12332970  1
  Na  Na1  1  0.76100675  0.16491498  0.62332970  1
  Na  Na2  1  0.58466760  0.56260231  0.98554315  1
  Na  Na3  1  0.56260231  0.58466760  0.48554315  1
  Mn  Mn0  1  0.64933077  0.15673927  0.27727282  1
  Mn  Mn1  1  0.15673927  0.64933077  0.77727282  1
  Si  Si0  1  0.23050371  0.18306666  0.75243696  1
  Si  Si1  1  0.18306666  0.23050371  0.25243696  1
  Si  Si2  1  0.16802909  0.89519539  0.50330518  1
  Si  Si3  1  0.89519539  0.16802909  0.00330518  1
  S  S0  1  0.39061700  0.01989649  0.80379585  1
  S  S1  1  0.01989649  0.39061700  0.30379585  1
  S  S2  1  0.94027944  0.61604208  0.61877916  1
  S  S3  1  0.61604208  0.94027944  0.11877916  1
  S  S4  1  0.02753552  0.89467415  0.34179337  1
  S  S5  1  0.89467415  0.02753552  0.84179337  1
  S  S6  1  0.92925732  0.47730029  0.96873673  1
  S  S7  1  0.47730029  0.92925732  0.46873673  1
  S  S8  1  0.51459166  0.40684546  0.26137344  1
  S  S9  1  0.40684546  0.51459166  0.76137344  1
  S  S10  1  0.17708464  0.17751841  0.56706162  1
  S  S11  1  0.17751841  0.17708464  0.06706162  1
loop_
_geom_bond_atom_site_label_1
_geom_bond_atom_site_label_2
_geom_bond_distance
_geom_bond_site_symmetry_2
Na0 S6 2.807686 1_454
Na0 S3 2.827080 1_555
Na0 S1 2.880210 1_555
Na0 S11 2.942387 1_565
Na0 S4 2.991996 1_555
Na1 S7 2.807686 1_545
Na1 S2 2.827080 1_555
Na1 S0 2.880210 1_555
Na1 S10 2.942388 1_655
Na1 S5 2.991996 1_555
Na2 S6 2.805747 1_555
Na2 S11 2.865254 1_556
Na2 S9 2.922523 1_555
Na2 S3 3.135877 1_556
Na2 S5 3.142881 1_565
Na2 S8 3.145843 1_556
Na3 S7 2.805747 1_555
Na3 S10 2.865254 1_555
Na3 S8 2.922523 1_555
Na3 S2 3.135877 1_555
Na3 S4 3.142881 1_655
Na3 S9 3.145843 1_555
Mn0 S8 2.408871 1_555
Mn0 S1 2.415672 1_655
Mn0 S7 2.420176 1_545
Mn0 S3 2.431847 1_545
Mn1 S9 2.408871 1_555
Mn1 S0 2.415672 1_565
Mn1 S6 2.420176 1_455
Mn1 S2 2.431848 1_455
S0 Si0 2.075065 1_555
S1 Si1 2.075065 1_555
S2 Si2 2.088457 1_655
S3 Si3 2.088457 1_565
S4 Si2 2.169850 1_555
S4 Si1 2.193083 1_565
S5 Si3 2.169850 1_556
S5 Si0 2.193084 1_655
S6 Si3 2.099653 1_556
S7 Si2 2.099653 1_555
S8 Si1 2.093212 1_555
S9 Si0 2.093212 1_555
S10 Si0 2.176311 1_555
S10 Si2 2.178119 1_545
S11 Si1 2.176311 1_555
S11 Si3 2.178120 1_455
