# generated using pymatgen
data_Rb9HfTaAs6
_symmetry_space_group_name_H-M   'P 1'
_cell_length_a   9.52484151
_cell_length_b   9.79279160
_cell_length_c   13.41671217
_cell_angle_alpha   83.57914911
_cell_angle_beta   90.00000000
_cell_angle_gamma   90.00000000
_symmetry_Int_Tables_number   1
_chemical_formula_structural   Rb9HfTaAs6
_chemical_formula_sum   'Rb18 Hf2 Ta2 As12'
_cell_volume   1243.59105457
_cell_formula_units_Z   2
loop_
 _symmetry_equiv_pos_site_id
 _symmetry_equiv_pos_as_xyz
  1  'x, y, z'
loop_
 _atom_site_type_symbol
 _atom_site_label
 _atom_site_symmetry_multiplicity
 _atom_site_fract_x
 _atom_site_fract_y
 _atom_site_fract_z
 _atom_site_occupancy
  Rb  Rb0  1  0.34983608  0.58588358  0.17189429  1
  Rb  Rb1  1  0.41372869  0.93760741  0.56916402  1
  Rb  Rb2  1  0.43425490  0.62934551  0.90233859  1
  Rb  Rb3  1  0.48603994  0.16534375  0.29728030  1
  Rb  Rb4  1  0.51396006  0.16534375  0.79728030  1
  Rb  Rb5  1  0.56574510  0.62934551  0.40233859  1
  Rb  Rb6  1  0.58627131  0.93760741  0.06916402  1
  Rb  Rb7  1  0.65016392  0.58588358  0.67189429  1
  Rb  Rb8  1  0.80978492  0.01366771  0.60334577  1
  Rb  Rb9  1  0.82738158  0.40050320  0.33689792  1
  Rb  Rb10  1  0.94559146  0.07570083  0.89832568  1
  Rb  Rb11  1  0.92998041  0.39820209  0.61281993  1
  Rb  Rb12  1  0.92711838  0.80248915  0.22139704  1
  Rb  Rb13  1  0.07288162  0.80248915  0.72139704  1
  Rb  Rb14  1  0.07001959  0.39820209  0.11281993  1
  Rb  Rb15  1  0.05440854  0.07570083  0.39832568  1
  Rb  Rb16  1  0.17261842  0.40050320  0.83689792  1
  Rb  Rb17  1  0.19021508  0.01366771  0.10334577  1
  Hf  Hf0  1  0.31924681  0.34156682  0.54956216  1
  Hf  Hf1  1  0.68075319  0.34156682  0.04956216  1
  Ta  Ta0  1  0.83619210  0.65602589  0.94784503  1
  Ta  Ta1  1  0.16380790  0.65602589  0.44784503  1
  As  As0  1  0.29790199  0.59030575  0.60935969  1
  As  As1  1  0.28496915  0.83575731  0.33489892  1
  As  As2  1  0.41976279  0.28233792  0.03204736  1
  As  As3  1  0.58023721  0.28233792  0.53204736  1
  As  As4  1  0.71503085  0.83575731  0.83489892  1
  As  As5  1  0.70209801  0.59030575  0.10935969  1
  As  As6  1  0.81724426  0.42563132  0.88135328  1
  As  As7  1  0.82214449  0.15509752  0.15783482  1
  As  As8  1  0.91980041  0.72273225  0.48073318  1
  As  As9  1  0.08019959  0.72273225  0.98073318  1
  As  As10  1  0.17785551  0.15509752  0.65783482  1
  As  As11  1  0.18275574  0.42563132  0.38135328  1
loop_
_geom_bond_atom_site_label_1
_geom_bond_atom_site_label_2
_geom_bond_distance
_geom_bond_site_symmetry_2
As0 Ta1 2.535635 1_555
As0 Hf0 2.656209 1_555
As0 Rb13 3.445186 1_555
As0 Rb7 3.457646 1_555
As0 Rb1 3.558776 1_555
As0 Rb16 3.595734 1_555
As0 Rb5 3.759233 1_555
As1 Ta1 2.475775 1_555
As1 Rb15 3.393406 1_565
As1 Rb5 3.412859 1_555
As1 Rb17 3.505827 1_565
As1 Rb0 3.514140 1_555
As1 Rb1 3.616478 1_555
As1 Rb3 3.738379 1_565
As1 Rb12 3.762149 1_455
As2 Hf1 2.569394 1_555
As2 Rb17 3.472009 1_555
As2 Rb4 3.584132 1_554
As2 Rb16 3.613595 1_554
As2 Rb2 3.643142 1_554
As2 Rb3 3.669138 1_555
As2 Rb6 3.712654 1_545
As2 Rb14 3.719413 1_555
As2 Rb0 3.748014 1_555
As3 Hf0 2.569394 1_555
As3 Rb8 3.472009 1_555
As3 Rb3 3.584132 1_555
As3 Rb9 3.613595 1_555
As3 Rb5 3.643142 1_555
As3 Rb4 3.669138 1_555
As3 Rb1 3.712654 1_545
As3 Rb11 3.719413 1_555
As3 Rb7 3.748014 1_555
As4 Ta0 2.475775 1_555
As4 Rb10 3.393406 1_565
As4 Rb2 3.412859 1_555
As4 Rb8 3.505827 1_565
As4 Rb7 3.514140 1_555
As4 Rb6 3.616478 1_556
As4 Rb4 3.738379 1_565
As4 Rb13 3.762149 1_655
As5 Ta0 2.535635 1_554
As5 Hf1 2.656209 1_555
As5 Rb12 3.445186 1_555
As5 Rb0 3.457646 1_555
As5 Rb6 3.558776 1_555
As5 Rb9 3.595734 1_555
As5 Rb2 3.759233 1_554
As6 Ta0 2.523699 1_555
As6 Hf1 2.654337 1_556
As6 Rb7 3.450577 1_555
As6 Rb16 3.450588 1_655
As6 Rb10 3.621427 1_555
As6 Rb11 3.797637 1_555
As7 Hf1 2.581684 1_555
As7 Rb14 3.359310 1_655
As7 Rb6 3.400836 1_545
As7 Rb9 3.583423 1_555
As7 Rb12 3.604401 1_545
As7 Rb3 3.714958 1_555
As7 Rb10 3.836039 1_554
As7 Rb17 3.869089 1_655
As7 Rb15 3.917719 1_655
As8 Ta1 2.467284 1_655
As8 Rb11 3.462710 1_555
As8 Rb12 3.480454 1_555
As8 Rb8 3.601353 1_565
As8 Rb5 3.678356 1_555
As8 Rb13 3.704858 1_655
As8 Rb15 3.736205 1_665
As8 Rb7 3.768427 1_555
As9 Ta0 2.467284 1_455
As9 Rb14 3.462710 1_556
As9 Rb13 3.480454 1_555
As9 Rb17 3.601353 1_566
As9 Rb2 3.678356 1_555
As9 Rb12 3.704858 1_456
As9 Rb10 3.736205 1_465
As9 Rb0 3.768427 1_556
As10 Hf0 2.581684 1_555
As10 Rb11 3.359310 1_455
As10 Rb1 3.400836 1_545
As10 Rb16 3.583423 1_555
As10 Rb13 3.604401 1_545
As10 Rb4 3.714958 1_555
As10 Rb15 3.836039 1_555
As10 Rb8 3.869089 1_455
As10 Rb10 3.917719 1_455
As11 Ta1 2.523699 1_555
As11 Hf0 2.654337 1_555
As11 Rb0 3.450577 1_555
As11 Rb9 3.450588 1_455
As11 Rb15 3.621427 1_555
As11 Rb14 3.797637 1_555
