# generated using pymatgen
data_Ca4Si6NiHg
_symmetry_space_group_name_H-M   'P 1'
_cell_length_a   8.30414613
_cell_length_b   8.13998029
_cell_length_c   5.98076262
_cell_angle_alpha   70.14482482
_cell_angle_beta   67.21434556
_cell_angle_gamma   42.64081457
_symmetry_Int_Tables_number   1
_chemical_formula_structural   Ca4Si6NiHg
_chemical_formula_sum   'Ca4 Si6 Ni1 Hg1'
_cell_volume   251.51100650
_cell_formula_units_Z   1
loop_
 _symmetry_equiv_pos_site_id
 _symmetry_equiv_pos_as_xyz
  1  'x, y, z'
loop_
 _atom_site_type_symbol
 _atom_site_label
 _atom_site_symmetry_multiplicity
 _atom_site_fract_x
 _atom_site_fract_y
 _atom_site_fract_z
 _atom_site_occupancy
  Ca  Ca0  1  0.74554916  0.74554916  0.75445084  1
  Ca  Ca1  1  0.75515356  0.25346182  0.74653818  1
  Ca  Ca2  1  0.24554916  0.24554916  0.25445084  1
  Ca  Ca3  1  0.25346182  0.75515356  0.24484644  1
  Si  Si0  1  0.82447994  0.34939558  0.17552006  1
  Si  Si1  1  0.68611648  0.15673148  0.31388352  1
  Si  Si2  1  0.15673148  0.68611648  0.84326852  1
  Si  Si3  1  0.34939558  0.82447994  0.65060442  1
  Si  Si4  1  0.15773209  0.15773209  0.84226791  1
  Si  Si5  1  0.82515385  0.82515385  0.17484615  1
  Ni  Ni0  1  0.66616859  0.66616859  0.33383141  1
  Hg  Hg0  1  0.33450829  0.33450829  0.66549171  1
loop_
_geom_bond_atom_site_label_1
_geom_bond_atom_site_label_2
_geom_bond_distance
_geom_bond_site_symmetry_2
Ca0 Si3 3.134114 1_555
Ca0 Si0 3.134114 1_556
Ca0 Ni0 3.193068 1_556
Ca0 Ni0 3.193069 1_555
Ca0 Si5 3.194178 1_555
Ca0 Si5 3.194178 1_556
Ca0 Si4 3.236702 1_565
Ca0 Si4 3.236702 1_655
Ca0 Hg0 3.242899 1_655
Ca0 Hg0 3.242899 1_565
Ca0 Si2 3.312883 1_655
Ca0 Si1 3.312883 1_565
Ca1 Si4 3.075386 1_655
Ca1 Si2 3.131239 1_645
Ca1 Si1 3.131239 1_556
Ca1 Si3 3.151392 1_555
Ca1 Si0 3.151393 1_555
Ca1 Ni0 3.170509 1_555
Ca1 Hg0 3.252046 1_555
Ca1 Si3 3.269580 1_645
Ca1 Si0 3.269580 1_556
Ca1 Si2 3.292642 1_555
Ca1 Si1 3.292643 1_555
Ca1 Si5 3.340655 1_546
Ca2 Si0 3.134114 1_455
Ca2 Si3 3.134114 1_545
Ca2 Ni0 3.193068 1_455
Ca2 Ni0 3.193068 1_545
Ca2 Si5 3.194177 1_545
Ca2 Si5 3.194177 1_455
Ca2 Si4 3.236702 1_555
Ca2 Si4 3.236703 1_554
Ca2 Hg0 3.242900 1_554
Ca2 Hg0 3.242900 1_555
Ca2 Si1 3.312883 1_555
Ca2 Si2 3.312883 1_554
Ca3 Si4 3.075386 1_564
Ca3 Si1 3.131239 1_465
Ca3 Si2 3.131239 1_554
Ca3 Si0 3.151392 1_555
Ca3 Si3 3.151393 1_555
Ca3 Ni0 3.170509 1_555
Ca3 Hg0 3.252046 1_555
Ca3 Si0 3.269580 1_465
Ca3 Si3 3.269580 1_554
Ca3 Si1 3.292643 1_555
Ca3 Si2 3.292643 1_555
Ca3 Si5 3.340655 1_455
Si0 Si1 2.344676 1_555
Si0 Si4 2.356444 1_654
Si1 Si5 2.346382 1_545
Si2 Si3 2.344676 1_555
Si2 Si5 2.346382 1_456
Si3 Si4 2.356444 1_565
Ni0 Si3 2.231728 1_555
Ni0 Si0 2.231728 1_555
Ni0 Si5 2.242184 1_555
Hg0 Si1 2.477183 1_555
Hg0 Si2 2.477183 1_555
Hg0 Si4 2.493091 1_555
