# generated using pymatgen
data_Mg4Ni4(As2Ru)3
_symmetry_space_group_name_H-M   'P 1'
_cell_length_a   6.89128747
_cell_length_b   6.82770080
_cell_length_c   6.82770061
_cell_angle_alpha   109.74421281
_cell_angle_beta   109.14949784
_cell_angle_gamma   109.14949305
_symmetry_Int_Tables_number   1
_chemical_formula_structural   Mg4Ni4(As2Ru)3
_chemical_formula_sum   'Mg4 Ni4 As6 Ru3'
_cell_volume   248.41939208
_cell_formula_units_Z   1
loop_
 _symmetry_equiv_pos_site_id
 _symmetry_equiv_pos_as_xyz
  1  'x, y, z'
loop_
 _atom_site_type_symbol
 _atom_site_label
 _atom_site_symmetry_multiplicity
 _atom_site_fract_x
 _atom_site_fract_y
 _atom_site_fract_z
 _atom_site_occupancy
  Mg  Mg0  1  0.00000000  0.00221526  0.50309634  1
  Mg  Mg1  1  0.50000000  0.99955940  0.00044060  1
  Mg  Mg2  1  1.00000000  0.49690366  0.99778474  1
  Mg  Mg3  1  0.50000000  0.49955940  0.50044060  1
  Ni  Ni0  1  0.50000000  0.24685079  0.75314921  1
  Ni  Ni1  1  0.50000000  0.74685079  0.25314921  1
  Ni  Ni2  1  0.74794392  0.50155994  0.24638398  1
  Ni  Ni3  1  0.25205608  0.75361602  0.49844006  1
  As  As0  1  0.68847639  0.68533756  0.00313883  1
  As  As1  1  0.31850868  0.31692934  0.00158034  1
  As  As2  1  0.00000000  0.68440876  0.68378593  1
  As  As3  1  1.00000000  0.31621407  0.31559124  1
  As  As4  1  0.68149132  0.99841966  0.68307066  1
  As  As5  1  0.31152361  0.99686117  0.31466244  1
  Ru  Ru0  1  0.00000000  0.00124651  0.99875349  1
  Ru  Ru1  1  0.25904203  0.50625536  0.75278767  1
  Ru  Ru2  1  0.74095797  0.24721233  0.49374464  1
loop_
_geom_bond_atom_site_label_1
_geom_bond_atom_site_label_2
_geom_bond_distance
_geom_bond_site_symmetry_2
Mg0 Ni3 2.798793 1_545
Mg0 Ni2 2.798793 1_445
Mg0 Ru2 2.818759 1_455
Mg0 Ru1 2.818765 1_555
Mg0 Ni0 2.831109 1_555
Mg0 Ni1 2.831109 1_445
Mg1 Ru2 2.757081 1_565
Mg1 Ru1 2.757081 1_554
Mg1 Ni0 2.761834 1_564
Mg1 Ni3 2.806028 1_554
Mg1 Ni2 2.806028 1_565
Mg1 Ni1 2.822335 1_555
Mg2 Ni2 2.798793 1_556
Mg2 Ni3 2.798793 1_656
Mg2 Ru1 2.818759 1_655
Mg2 Ru2 2.818765 1_555
Mg2 Ni0 2.831109 1_555
Mg2 Ni1 2.831109 1_656
Mg3 Ru2 2.757086 1_555
Mg3 Ru1 2.757086 1_555
Mg3 Ni1 2.761834 1_555
Mg3 Ni3 2.806028 1_555
Mg3 Ni2 2.806028 1_555
Mg3 Ni0 2.822335 1_555
Ni0 Ni2 2.757429 1_556
Ni0 Ni3 2.757429 1_545
Ni0 Ru1 2.797138 1_555
Ni0 Ru2 2.797138 1_555
Ni1 Ni2 2.757428 1_555
Ni1 Ni3 2.757428 1_555
Ni1 Ru1 2.797133 1_554
Ni1 Ru2 2.797133 1_565
Ni2 Ru2 2.801903 1_555
Ni2 Ni3 2.854152 1_655
Ni3 Ru1 2.801903 1_555
As0 Ni2 2.408220 1_555
As0 Ru1 2.463702 1_554
As0 Ni1 2.470894 1_555
As0 Ni0 2.470894 1_554
As0 Ru0 2.511947 1_664
As0 Mg2 2.845544 1_554
As0 Mg0 2.845544 1_665
As0 Mg1 2.851195 1_555
As0 Mg3 2.851195 1_554
As1 Ni1 2.430312 1_555
As1 Ni0 2.430317 1_554
As1 Ni2 2.454460 1_555
As1 Ru1 2.469587 1_554
As1 Ru0 2.510795 1_554
As1 Mg3 2.834226 1_555
As1 Mg1 2.834231 1_545
As1 Mg2 2.842904 1_454
As1 Mg0 2.842910 1_554
As2 Ru1 2.479564 1_555
As2 Ru2 2.479569 1_455
As2 Ni3 2.479826 1_555
As2 Ni2 2.479826 1_455
As2 Ru0 2.482185 1_565
As2 Mg0 2.835330 1_565
As2 Mg2 2.844234 1_455
As2 Mg3 2.877852 1_455
As2 Mg1 2.877853 1_556
As3 Ru2 2.479564 1_555
As3 Ru1 2.479569 1_655
As3 Ni2 2.479826 1_555
As3 Ni3 2.479826 1_655
As3 Ru0 2.482185 1_654
As3 Mg2 2.835330 1_554
As3 Mg0 2.844234 1_655
As3 Mg3 2.877852 1_655
As3 Mg1 2.877853 1_545
As4 Ni1 2.430311 1_555
As4 Ni0 2.430317 1_565
As4 Ni3 2.454460 1_555
As4 Ru2 2.469587 1_565
As4 Ru0 2.510795 1_665
As4 Mg3 2.834226 1_555
As4 Mg1 2.834231 1_556
As4 Mg0 2.842904 1_665
As4 Mg2 2.842910 1_565
As5 Ni3 2.408220 1_555
As5 Ru2 2.463702 1_565
As5 Ni1 2.470894 1_555
As5 Ni0 2.470894 1_565
As5 Ru0 2.511947 1_564
As5 Mg0 2.845544 1_565
As5 Mg2 2.845544 1_454
As5 Mg1 2.851195 1_555
As5 Mg3 2.851195 1_565
