# generated using pymatgen
data_MgMnCl6
_symmetry_space_group_name_H-M   'P 1'
_cell_length_a   6.11428927
_cell_length_b   6.11428838
_cell_length_c   6.27771740
_cell_angle_alpha   80.88429212
_cell_angle_beta   80.88429849
_cell_angle_gamma   119.79340110
_symmetry_Int_Tables_number   1
_chemical_formula_structural   MgMnCl6
_chemical_formula_sum   'Mg1 Mn1 Cl6'
_cell_volume   193.24142626
_cell_formula_units_Z   1
loop_
 _symmetry_equiv_pos_site_id
 _symmetry_equiv_pos_as_xyz
  1  'x, y, z'
loop_
 _atom_site_type_symbol
 _atom_site_label
 _atom_site_symmetry_multiplicity
 _atom_site_fract_x
 _atom_site_fract_y
 _atom_site_fract_z
 _atom_site_occupancy
  Mg  Mg0  1  0.16749206  0.83250794  1.00000000  1
  Mn  Mn0  1  0.83323399  0.16676601  0.00000000  1
  Cl  Cl0  1  0.45269999  0.08425233  0.22406256  1
  Cl  Cl1  1  0.91574767  0.54730001  0.77593744  1
  Cl  Cl2  1  0.20240345  0.22758820  0.77561456  1
  Cl  Cl3  1  0.77241180  0.79759655  0.22438544  1
  Cl  Cl4  1  0.05768031  0.40166927  0.22328461  1
  Cl  Cl5  1  0.59833073  0.94231969  0.77671539  1
loop_
_geom_bond_atom_site_label_1
_geom_bond_atom_site_label_2
_geom_bond_distance
_geom_bond_site_symmetry_2
Cl0 Mn0 2.284341 1_555
Cl0 Mg0 2.486887 1_544
Cl1 Mn0 2.284341 1_556
Cl1 Mg0 2.486887 1_655
Cl2 Mn0 2.282520 1_456
Cl2 Mg0 2.485804 1_545
Cl3 Mn0 2.282519 1_565
Cl3 Mg0 2.485804 1_654
Cl4 Mn0 2.280280 1_455
Cl4 Mg0 2.475713 1_554
Cl5 Mn0 2.280280 1_566
Cl5 Mg0 2.475713 1_555
