# generated using pymatgen
data_Ca2TiTcO6
_symmetry_space_group_name_H-M   'P 1'
_cell_length_a   5.52022092
_cell_length_b   5.39296162
_cell_length_c   9.38933821
_cell_angle_alpha   54.97799846
_cell_angle_beta   90.00000000
_cell_angle_gamma   90.00000000
_symmetry_Int_Tables_number   1
_chemical_formula_structural   Ca2TiTcO6
_chemical_formula_sum   'Ca4 Ti2 Tc2 O12'
_cell_volume   228.91089855
_cell_formula_units_Z   2
loop_
 _symmetry_equiv_pos_site_id
 _symmetry_equiv_pos_as_xyz
  1  'x, y, z'
loop_
 _atom_site_type_symbol
 _atom_site_label
 _atom_site_symmetry_multiplicity
 _atom_site_fract_x
 _atom_site_fract_y
 _atom_site_fract_z
 _atom_site_occupancy
  Ca  Ca0  1  0.45134997  0.26149887  0.74963877  1
  Ca  Ca1  1  0.95134997  0.73850113  0.75036123  1
  Ca  Ca2  1  0.54865003  0.73850113  0.25036123  1
  Ca  Ca3  1  0.04865003  0.26149887  0.24963877  1
  Ti  Ti0  1  0.50000000  0.00000000  0.50000000  1
  Ti  Ti1  1  0.00000000  0.00000000  0.00000000  1
  Tc  Tc0  1  0.50000000  0.50000000  0.00000000  1
  Tc  Tc1  1  0.00000000  0.50000000  0.50000000  1
  O  O0  1  0.20426247  0.33552926  0.95667069  1
  O  O1  1  0.70426247  0.66447074  0.54332931  1
  O  O2  1  0.79573753  0.66447074  0.04332931  1
  O  O3  1  0.29573753  0.33552926  0.45667069  1
  O  O4  1  0.28996709  0.75276353  0.04478022  1
  O  O5  1  0.78996709  0.24723647  0.45521978  1
  O  O6  1  0.71003291  0.24723647  0.95521978  1
  O  O7  1  0.21003291  0.75276353  0.54478022  1
  O  O8  1  0.02320343  0.16279189  0.75292576  1
  O  O9  1  0.52320343  0.83720811  0.74707424  1
  O  O10  1  0.47679657  0.16279189  0.25292576  1
  O  O11  1  0.97679657  0.83720811  0.24707424  1
loop_
_geom_bond_atom_site_label_1
_geom_bond_atom_site_label_2
_geom_bond_distance
_geom_bond_site_symmetry_2
Ca0 O9 2.336008 1_545
Ca0 O1 2.364858 1_555
Ca0 O6 2.366557 1_555
Ca0 O8 2.418971 1_555
Ca0 O7 2.577672 1_555
Ca0 O0 2.586373 1_555
Ca0 O3 2.683942 1_555
Ca0 O4 2.697001 1_546
Ca1 O8 2.336008 1_665
Ca1 O0 2.364858 1_655
Ca1 O7 2.366557 1_655
Ca1 O9 2.418971 1_555
Ca1 O6 2.577672 1_555
Ca1 O1 2.586373 1_555
Ca1 O2 2.683942 1_556
Ca1 O5 2.697001 1_565
Ca2 O10 2.336008 1_565
Ca2 O3 2.364858 1_555
Ca2 O4 2.366557 1_555
Ca2 O11 2.418971 1_555
Ca2 O5 2.577672 1_555
Ca2 O2 2.586373 1_555
Ca2 O1 2.683942 1_555
Ca2 O6 2.697001 1_564
Ca3 O11 2.336008 1_445
Ca3 O2 2.364858 1_455
Ca3 O5 2.366557 1_455
Ca3 O10 2.418971 1_555
Ca3 O4 2.577672 1_555
Ca3 O3 2.586373 1_555
Ca3 O0 2.683942 1_554
Ca3 O7 2.697001 1_545
O0 Ti1 1.966280 1_556
O0 Tc0 2.007888 1_556
O1 Ti0 1.966280 1_565
O1 Tc1 2.007888 1_655
O2 Ti1 1.966280 1_665
O2 Tc0 2.007888 1_555
O3 Ti0 1.966280 1_555
O3 Tc1 2.007888 1_555
O4 Ti1 1.968069 1_565
O4 Tc0 2.009244 1_555
O5 Ti0 1.968069 1_555
O5 Tc1 2.009244 1_655
O6 Ti1 1.968069 1_656
O6 Tc0 2.009244 1_556
O7 Ti0 1.968069 1_565
O7 Tc1 2.009244 1_555
O8 Ti1 1.957364 1_556
O8 Tc1 2.001575 1_555
O9 Ti0 1.957364 1_565
O9 Tc0 2.001575 1_556
O10 Ti0 1.957364 1_555
O10 Tc0 2.001575 1_555
O11 Ti1 1.957364 1_665
O11 Tc1 2.001575 1_655
