# generated using pymatgen
data_Rb2V2ZnO7
_symmetry_space_group_name_H-M   'P 1'
_cell_length_a   5.90316566
_cell_length_b   8.50515482
_cell_length_c   8.50515705
_cell_angle_alpha   90.00001016
_cell_angle_beta   90.00081593
_cell_angle_gamma   90.00082419
_symmetry_Int_Tables_number   1
_chemical_formula_structural   Rb2V2ZnO7
_chemical_formula_sum   'Rb4 V4 Zn2 O14'
_cell_volume   427.02129407
_cell_formula_units_Z   2
loop_
 _symmetry_equiv_pos_site_id
 _symmetry_equiv_pos_as_xyz
  1  'x, y, z'
loop_
 _atom_site_type_symbol
 _atom_site_label
 _atom_site_symmetry_multiplicity
 _atom_site_fract_x
 _atom_site_fract_y
 _atom_site_fract_z
 _atom_site_occupancy
  Rb  Rb0  1  0.50866968  0.16075511  0.66075451  1
  Rb  Rb1  1  0.49128862  0.33924538  0.16077325  1
  Rb  Rb2  1  0.50875336  0.83922896  0.33922884  1
  Rb  Rb3  1  0.49128871  0.66077308  0.83924667  1
  V  V0  1  0.95454800  0.64192825  0.14192712  1
  V  V1  1  0.04549385  0.14191614  0.35806850  1
  V  V2  1  0.95447833  0.35807956  0.85807915  1
  V  V3  1  0.04549039  0.85806827  0.64191728  1
  Zn  Zn0  1  0.99999021  0.49997976  0.50003419  1
  Zn  Zn1  1  0.99998791  0.00003417  0.99997904  1
  O  O0  1  0.14393441  0.99992595  0.49992616  1
  O  O1  1  0.85609039  0.50000738  0.00000748  1
  O  O2  1  0.76471660  0.14501851  0.35497848  1
  O  O3  1  0.23524619  0.35496589  0.85496575  1
  O  O4  1  0.76472156  0.85497717  0.64501910  1
  O  O5  1  0.23532059  0.64501144  0.14500867  1
  O  O6  1  0.16083350  0.31955171  0.41243696  1
  O  O7  1  0.83910632  0.18043415  0.91238960  1
  O  O8  1  0.16082055  0.68039559  0.58766932  1
  O  O9  1  0.83923047  0.81958783  0.08761901  1
  O  O10  1  0.83923214  0.58762109  0.31958773  1
  O  O11  1  0.16083337  0.91243772  0.81955210  1
  O  O12  1  0.83910723  0.41239061  0.68043434  1
  O  O13  1  0.16081664  0.08766828  0.18039678  1
loop_
_geom_bond_atom_site_label_1
_geom_bond_atom_site_label_2
_geom_bond_distance
_geom_bond_site_symmetry_2
O0 V1 1.803275 1_565
O0 V3 1.803287 1_555
O0 Rb2 2.893810 1_555
O0 Rb0 2.894442 1_565
O1 V2 1.803233 1_554
O1 V0 1.803254 1_555
O1 Rb3 2.894237 1_554
O1 Rb1 2.894242 1_555
O2 V1 1.657893 1_655
O2 Rb1 2.839441 1_555
O2 Rb2 3.010817 1_545
O2 Rb0 3.011001 1_555
O3 V2 1.657843 1_455
O3 Rb0 2.839403 1_555
O3 Rb3 3.011172 1_555
O3 Rb1 3.011176 1_556
O4 V3 1.657843 1_655
O4 Rb3 2.839455 1_555
O4 Rb2 3.010838 1_555
O4 Rb0 3.011029 1_565
O5 V0 1.657861 1_455
O5 Rb2 2.839458 1_555
O5 Rb3 3.010672 1_554
O5 Rb1 3.010702 1_555
O6 V1 1.720448 1_555
O6 Zn0 1.952319 1_455
O6 Rb1 2.900862 1_555
O6 Rb0 3.240477 1_555
O7 V2 1.720470 1_555
O7 Zn1 1.952206 1_555
O7 Rb0 2.900561 1_555
O7 Rb1 3.240864 1_556
O8 V3 1.720450 1_555
O8 Zn0 1.952292 1_455
O8 Rb3 2.900299 1_555
O8 Rb2 3.241664 1_555
O9 V0 1.720455 1_555
O9 Zn1 1.952313 1_564
O9 Rb2 2.900588 1_555
O9 Rb3 3.241215 1_554
O10 V0 1.720457 1_555
O10 Zn0 1.952320 1_555
O10 Rb2 2.900582 1_555
O10 Rb1 3.241239 1_555
O11 V3 1.720452 1_555
O11 Zn1 1.952316 1_465
O11 Rb3 2.900869 1_555
O11 Rb0 3.240480 1_565
O12 V2 1.720465 1_555
O12 Zn0 1.952210 1_555
O12 Rb0 2.900566 1_555
O12 Rb3 3.240864 1_555
O13 V1 1.720426 1_555
O13 Zn1 1.952297 1_454
O13 Rb1 2.900312 1_555
O13 Rb2 3.241667 1_545
