# generated using pymatgen
data_K3Ag(PAu)2
_symmetry_space_group_name_H-M   'P 1'
_cell_length_a   7.64532740
_cell_length_b   7.32697216
_cell_length_c   7.64532743
_cell_angle_alpha   47.13348475
_cell_angle_beta   48.33745797
_cell_angle_gamma   47.13348598
_symmetry_Int_Tables_number   1
_chemical_formula_structural   K3Ag(PAu)2
_chemical_formula_sum   'K3 Ag1 P2 Au2'
_cell_volume   213.19221426
_cell_formula_units_Z   1
loop_
 _symmetry_equiv_pos_site_id
 _symmetry_equiv_pos_as_xyz
  1  'x, y, z'
loop_
 _atom_site_type_symbol
 _atom_site_label
 _atom_site_symmetry_multiplicity
 _atom_site_fract_x
 _atom_site_fract_y
 _atom_site_fract_z
 _atom_site_occupancy
  K  K0  1  0.91135642  0.90869843  0.91135642  1
  K  K1  1  0.50000000  0.50000000  0.50000000  1
  K  K2  1  0.08864358  0.09130157  0.08864358  1
  Ag  Ag0  1  0.50000000  0.00000000  0.50000000  1
  P  P0  1  0.24936251  0.25195190  0.24936251  1
  P  P1  1  0.75063749  0.74804810  0.75063749  1
  Au  Au0  1  0.00000000  0.50000000  0.50000000  1
  Au  Au1  1  0.50000000  0.50000000  0.00000000  1
loop_
_geom_bond_atom_site_label_1
_geom_bond_atom_site_label_2
_geom_bond_distance
_geom_bond_site_symmetry_2
K0 P1 3.216859 1_555
K0 P0 3.398748 1_656
K0 P0 3.571327 1_665
K0 P0 3.571327 1_566
K1 P0 3.721801 1_565
K1 P1 3.721801 1_545
K2 P0 3.216859 1_555
K2 P1 3.398748 1_454
K2 P1 3.571327 1_445
K2 P1 3.571327 1_544
Ag0 P1 2.450991 1_545
Ag0 P0 2.450991 1_555
Ag0 Au1 2.996644 1_546
Ag0 Au1 2.996644 1_555
Ag0 Au0 2.996644 1_555
Ag0 Au0 2.996644 1_645
Ag0 K2 3.606726 1_655
Ag0 K0 3.606726 1_445
Ag0 K2 3.606726 1_556
Ag0 K0 3.606726 1_544
Ag0 K1 3.663486 1_555
Ag0 K1 3.663486 1_545
Au0 P1 2.403497 1_455
Au0 P0 2.403497 1_555
Au0 K2 3.426798 1_565
Au0 K0 3.426798 1_445
Au0 K2 3.554938 1_556
Au0 K0 3.554938 1_454
Au0 K1 3.822664 1_455
Au0 K1 3.822664 1_555
Au1 P1 2.403497 1_554
Au1 P0 2.403497 1_555
Au1 K2 3.426798 1_565
Au1 K0 3.426798 1_544
Au1 K2 3.554938 1_655
Au1 K0 3.554938 1_454
Au1 K1 3.822664 1_554
Au1 K1 3.822664 1_555
