# generated using pymatgen
data_Re3HSe4
_symmetry_space_group_name_H-M   'P 1'
_cell_length_a   10.52429567
_cell_length_b   6.64130552
_cell_length_c   10.29278391
_cell_angle_alpha   69.61826129
_cell_angle_beta   90.00000000
_cell_angle_gamma   90.00000000
_symmetry_Int_Tables_number   1
_chemical_formula_structural   Re3HSe4
_chemical_formula_sum   'Re12 H4 Se16'
_cell_volume   674.37440614
_cell_formula_units_Z   4
loop_
 _symmetry_equiv_pos_site_id
 _symmetry_equiv_pos_as_xyz
  1  'x, y, z'
loop_
 _atom_site_type_symbol
 _atom_site_label
 _atom_site_symmetry_multiplicity
 _atom_site_fract_x
 _atom_site_fract_y
 _atom_site_fract_z
 _atom_site_occupancy
  Re  Re0  1  0.62562434  0.99635892  0.37335855  1
  Re  Re1  1  0.87437566  0.99635892  0.87335855  1
  Re  Re2  1  0.37437566  0.00364108  0.62664145  1
  Re  Re3  1  0.12562434  0.00364108  0.12664145  1
  Re  Re4  1  0.37358194  0.99567854  0.37432982  1
  Re  Re5  1  0.12641806  0.99567854  0.87432982  1
  Re  Re6  1  0.62641806  0.00432146  0.62567018  1
  Re  Re7  1  0.87358194  0.00432146  0.12567018  1
  Re  Re8  1  0.50028727  0.70215326  0.57008733  1
  Re  Re9  1  0.99971273  0.70215326  0.07008733  1
  Re  Re10  1  0.49971273  0.29784674  0.42991267  1
  Re  Re11  1  0.00028727  0.29784674  0.92991267  1
  H  H0  1  0.24874175  0.99882455  0.25157055  1
  H  H1  1  0.25125825  0.99882455  0.75157055  1
  H  H2  1  0.75125825  0.00117545  0.74842945  1
  H  H3  1  0.74874175  0.00117545  0.24842945  1
  Se  Se0  1  0.49943437  0.72049530  0.30903001  1
  Se  Se1  1  0.00056563  0.72049530  0.80903001  1
  Se  Se2  1  0.50056563  0.27950470  0.69096999  1
  Se  Se3  1  0.99943437  0.27950470  0.19096999  1
  Se  Se4  1  0.26023312  0.71342550  0.56929927  1
  Se  Se5  1  0.23976688  0.71342550  0.06929927  1
  Se  Se6  1  0.73976688  0.28657450  0.43070073  1
  Se  Se7  1  0.76023312  0.28657450  0.93070073  1
  Se  Se8  1  0.49897881  0.27656201  0.18965418  1
  Se  Se9  1  0.00102119  0.27656201  0.68965418  1
  Se  Se10  1  0.50102119  0.72343799  0.81034582  1
  Se  Se11  1  0.99897881  0.72343799  0.31034582  1
  Se  Se12  1  0.74030515  0.71469293  0.56742090  1
  Se  Se13  1  0.75969485  0.71469293  0.06742090  1
  Se  Se14  1  0.25969485  0.28530707  0.43257910  1
  Se  Se15  1  0.24030515  0.28530707  0.93257910  1
loop_
_geom_bond_atom_site_label_1
_geom_bond_atom_site_label_2
_geom_bond_distance
_geom_bond_site_symmetry_2
Re0 Se6 2.509718 1_565
Re0 Se12 2.518550 1_555
Re0 Se8 2.522662 1_565
Re0 Se0 2.530548 1_555
Re1 Se7 2.509718 1_565
Re1 Se13 2.518550 1_556
Re1 Se9 2.522662 1_665
Re1 Se1 2.530548 1_655
Re2 Se4 2.509718 1_545
Re2 Se14 2.518550 1_555
Re2 Se10 2.522662 1_545
Re2 Se2 2.530548 1_555
Re3 Se5 2.509718 1_545
Re3 Se15 2.518550 1_554
Re3 Se11 2.522662 1_445
Re3 Se3 2.530548 1_455
Re4 Se14 2.509827 1_565
Re4 Se4 2.518695 1_555
Re4 Se8 2.522849 1_565
Re4 Se0 2.530157 1_555
Re5 Se15 2.509827 1_565
Re5 Se5 2.518695 1_556
Re5 Se9 2.522849 1_565
Re5 Se1 2.530157 1_555
Re6 Se12 2.509827 1_545
Re6 Se6 2.518695 1_555
Re6 Se10 2.522849 1_545
Re6 Se2 2.530157 1_555
Re7 Se13 2.509827 1_545
Re7 Se7 2.518695 1_554
Re7 Se11 2.522849 1_545
Re7 Se3 2.530157 1_555
Re8 Se10 2.525650 1_555
Re8 Se12 2.527226 1_555
Re8 Se4 2.527439 1_555
Re8 Se2 2.644682 1_555
Re8 Se0 2.647061 1_555
Re9 Se11 2.525650 1_555
Re9 Se13 2.527226 1_555
Re9 Se5 2.527439 1_655
Re9 Se3 2.644682 1_555
Re9 Se1 2.647061 1_654
Re10 Se8 2.525650 1_555
Re10 Se14 2.527226 1_555
Re10 Se6 2.527439 1_555
Re10 Se0 2.644682 1_555
Re10 Se2 2.647061 1_555
Re11 Se9 2.525650 1_555
Re11 Se15 2.527226 1_555
Re11 Se7 2.527439 1_455
Re11 Se1 2.644682 1_555
Re11 Se3 2.647061 1_456
H0 Re3 1.817892 1_565
H0 Re4 1.817906 1_555
H1 Re2 1.817892 1_565
H1 Re5 1.817906 1_555
H2 Re1 1.817892 1_545
H2 Re6 1.817906 1_555
H3 Re0 1.817892 1_545
H3 Re7 1.817906 1_555
