# generated using pymatgen
data_Hf16TiPt7
_symmetry_space_group_name_H-M   'P 1'
_cell_length_a   8.82370973
_cell_length_b   8.82371013
_cell_length_c   8.82371050
_cell_angle_alpha   59.57939111
_cell_angle_beta   59.57939463
_cell_angle_gamma   59.57939598
_symmetry_Int_Tables_number   1
_chemical_formula_structural   Hf16TiPt7
_chemical_formula_sum   'Hf16 Ti1 Pt7'
_cell_volume   481.13438070
_cell_formula_units_Z   1
loop_
 _symmetry_equiv_pos_site_id
 _symmetry_equiv_pos_as_xyz
  1  'x, y, z'
loop_
 _atom_site_type_symbol
 _atom_site_label
 _atom_site_symmetry_multiplicity
 _atom_site_fract_x
 _atom_site_fract_y
 _atom_site_fract_z
 _atom_site_occupancy
  Hf  Hf0  1  0.15603341  0.61241121  0.61241121  1
  Hf  Hf1  1  0.61241121  0.15603341  0.61241121  1
  Hf  Hf2  1  0.61241121  0.61241121  0.15603341  1
  Hf  Hf3  1  0.62782337  0.62782337  0.62782337  1
  Hf  Hf4  1  0.81423566  0.81423566  0.17255939  1
  Hf  Hf5  1  0.18245333  0.18245333  0.81570659  1
  Hf  Hf6  1  0.81423566  0.17255939  0.81423566  1
  Hf  Hf7  1  0.18245333  0.81570659  0.18245333  1
  Hf  Hf8  1  0.17255939  0.81423566  0.81423566  1
  Hf  Hf9  1  0.81570659  0.18245333  0.18245333  1
  Hf  Hf10  1  0.44018487  0.44018487  0.05701479  1
  Hf  Hf11  1  0.05443070  0.05443070  0.45057566  1
  Hf  Hf12  1  0.44018487  0.05701479  0.44018487  1
  Hf  Hf13  1  0.05443070  0.45057566  0.05443070  1
  Hf  Hf14  1  0.05701479  0.44018487  0.44018487  1
  Hf  Hf15  1  0.45057566  0.05443070  0.05443070  1
  Ti  Ti0  1  0.83237421  0.83237421  0.83237421  1
  Pt  Pt0  1  0.79872664  0.40598759  0.40598759  1
  Pt  Pt1  1  0.40598759  0.79872664  0.40598759  1
  Pt  Pt2  1  0.40598759  0.40598759  0.79872664  1
  Pt  Pt3  1  0.39547559  0.39547559  0.39547559  1
  Pt  Pt4  1  0.47234049  0.85097857  0.85097857  1
  Pt  Pt5  1  0.85097857  0.47234049  0.85097857  1
  Pt  Pt6  1  0.85097857  0.85097857  0.47234049  1
loop_
_geom_bond_atom_site_label_1
_geom_bond_atom_site_label_2
_geom_bond_distance
_geom_bond_site_symmetry_2
Hf0 Pt3 2.703970 1_555
Hf0 Pt1 2.730556 1_555
Hf0 Pt2 2.730556 1_555
Hf0 Pt5 2.863620 1_455
Hf0 Pt6 2.863620 1_455
Hf0 Ti0 2.877229 1_455
Hf0 Hf8 3.178307 1_555
Hf0 Hf11 3.189065 1_565
Hf0 Hf13 3.189065 1_556
Hf0 Hf5 3.209562 1_555
Hf0 Hf7 3.209563 1_555
Hf0 Hf14 3.226472 1_555
Hf1 Pt3 2.703969 1_555
Hf1 Pt0 2.730556 1_555
Hf1 Pt2 2.730557 1_555
Hf1 Pt4 2.863620 1_545
Hf1 Pt6 2.863620 1_545
Hf1 Ti0 2.877228 1_545
Hf1 Hf6 3.178307 1_555
Hf1 Hf11 3.189064 1_655
Hf1 Hf15 3.189065 1_556
Hf1 Hf5 3.209562 1_555
Hf1 Hf9 3.209563 1_555
Hf1 Hf12 3.226472 1_555
Hf2 Pt3 2.703969 1_555
Hf2 Pt0 2.730556 1_555
Hf2 Pt1 2.730557 1_555
Hf2 Pt4 2.863620 1_554
Hf2 Pt5 2.863621 1_554
Hf2 Ti0 2.877228 1_554
Hf2 Hf4 3.178307 1_555
Hf2 Hf7 3.209562 1_555
Hf2 Hf9 3.209563 1_555
Hf3 Pt2 2.799755 1_555
Hf3 Pt1 2.799755 1_555
Hf3 Pt0 2.799755 1_555
Hf3 Pt6 2.844567 1_555
Hf3 Pt5 2.844568 1_555
Hf3 Pt4 2.844568 1_555
Hf3 Hf6 3.302328 1_555
Hf3 Hf8 3.302328 1_555
Hf3 Hf4 3.302328 1_555
Hf4 Ti0 2.848564 1_554
Hf4 Pt6 3.008421 1_555
Hf4 Hf6 3.141623 1_564
Hf4 Hf8 3.141623 1_654
Hf4 Pt1 3.152371 1_555
Hf4 Pt0 3.152371 1_555
Hf4 Hf7 3.300786 1_655
Hf4 Hf9 3.300786 1_565
Hf5 Pt4 2.739037 1_545
Hf5 Pt5 2.739037 1_455
Hf5 Pt3 3.205772 1_555
Hf5 Hf7 3.215472 1_546
Hf5 Hf9 3.215472 1_456
Hf5 Hf6 3.300786 1_455
Hf5 Hf8 3.300786 1_545
Hf5 Pt2 3.338319 1_555
Hf6 Ti0 2.848564 1_545
Hf6 Pt5 3.008421 1_555
Hf6 Hf8 3.141623 1_645
Hf6 Pt2 3.152371 1_555
Hf6 Pt0 3.152371 1_555
Hf6 Hf9 3.300786 1_556
Hf7 Pt4 2.739037 1_554
Hf7 Pt6 2.739037 1_455
Hf7 Pt3 3.205772 1_555
Hf7 Hf9 3.215472 1_465
Hf7 Hf8 3.300786 1_554
Hf7 Pt1 3.338320 1_555
Hf8 Ti0 2.848564 1_455
Hf8 Pt4 3.008421 1_555
Hf8 Pt2 3.152371 1_555
Hf8 Pt1 3.152371 1_555
Hf9 Pt6 2.739037 1_545
Hf9 Pt5 2.739037 1_554
Hf9 Pt3 3.205772 1_555
Hf9 Pt0 3.338320 1_555
Hf10 Pt2 2.619403 1_554
Hf10 Pt3 2.646071 1_555
Hf10 Hf3 3.146582 1_554
Hf10 Pt5 3.220252 1_554
Hf10 Pt4 3.220252 1_554
Hf10 Hf2 3.226472 1_555
Hf10 Hf9 3.303040 1_555
Hf10 Hf7 3.303040 1_555
Hf10 Hf8 3.335990 1_554
Hf10 Hf6 3.335990 1_554
Hf10 Hf13 3.369734 1_555
Hf10 Hf15 3.369734 1_555
Hf11 Pt1 2.728249 1_545
Hf11 Pt0 2.728249 1_455
Hf11 Pt6 3.007949 1_445
Hf11 Ti0 3.089684 1_445
Hf11 Hf8 3.183988 1_545
Hf11 Hf6 3.183989 1_455
Hf11 Hf9 3.352741 1_455
Hf11 Hf7 3.352741 1_545
Hf11 Hf12 3.369734 1_555
Hf11 Hf14 3.369734 1_555
Hf11 Hf13 3.473222 1_555
Hf11 Hf15 3.473223 1_555
Hf12 Pt1 2.619403 1_545
Hf12 Pt3 2.646071 1_555
Hf12 Hf3 3.146582 1_545
Hf12 Pt6 3.220252 1_545
Hf12 Pt4 3.220252 1_545
Hf12 Hf9 3.303040 1_555
Hf12 Hf5 3.303040 1_555
Hf12 Hf8 3.335990 1_545
Hf12 Hf4 3.335990 1_545
Hf12 Hf15 3.369734 1_555
Hf13 Pt2 2.728249 1_554
Hf13 Pt0 2.728249 1_455
Hf13 Pt5 3.007949 1_454
Hf13 Ti0 3.089684 1_454
Hf13 Hf8 3.183988 1_554
Hf13 Hf4 3.183988 1_455
Hf13 Hf2 3.189065 1_455
Hf13 Hf9 3.352741 1_455
Hf13 Hf5 3.352741 1_554
Hf13 Hf14 3.369734 1_555
Hf13 Hf15 3.473223 1_555
Hf14 Pt0 2.619403 1_455
Hf14 Pt3 2.646071 1_555
Hf14 Hf3 3.146582 1_455
Hf14 Pt6 3.220252 1_455
Hf14 Pt5 3.220252 1_455
Hf14 Hf7 3.303040 1_555
Hf14 Hf5 3.303040 1_555
Hf14 Hf6 3.335990 1_455
Hf14 Hf4 3.335990 1_455
Hf15 Pt2 2.728249 1_554
Hf15 Pt1 2.728249 1_545
Hf15 Pt4 3.007949 1_544
Hf15 Ti0 3.089684 1_544
Hf15 Hf6 3.183988 1_554
Hf15 Hf4 3.183988 1_545
Hf15 Hf2 3.189065 1_545
Hf15 Hf7 3.352741 1_545
Hf15 Hf5 3.352741 1_554
Pt4 Ti0 3.019471 1_555
Pt4 Pt5 3.319730 1_555
Pt4 Pt6 3.319730 1_555
Pt5 Ti0 3.019471 1_555
Pt5 Pt6 3.319730 1_555
Pt6 Ti0 3.019472 1_555
