# generated using pymatgen
data_Sc5NCl8
_symmetry_space_group_name_H-M   'P 1'
_cell_length_a   9.12271664
_cell_length_b   9.12271664
_cell_length_c   12.04301996
_cell_angle_alpha   50.85905560
_cell_angle_beta   50.85905560
_cell_angle_gamma   22.13077511
_symmetry_Int_Tables_number   1
_chemical_formula_structural   Sc5NCl8
_chemical_formula_sum   'Sc5 N1 Cl8'
_cell_volume   289.11327371
_cell_formula_units_Z   1
loop_
 _symmetry_equiv_pos_site_id
 _symmetry_equiv_pos_as_xyz
  1  'x, y, z'
loop_
 _atom_site_type_symbol
 _atom_site_label
 _atom_site_symmetry_multiplicity
 _atom_site_fract_x
 _atom_site_fract_y
 _atom_site_fract_z
 _atom_site_occupancy
  Sc  Sc0  1  0.15814316  0.15814316  0.32981132  1
  Sc  Sc1  1  0.84185684  0.84185684  0.67018868  1
  Sc  Sc2  1  0.51124015  0.51124015  0.61093684  1
  Sc  Sc3  1  0.48875985  0.48875985  0.38906316  1
  Sc  Sc4  1  -0.00000000  -0.00000000  0.00000000  1
  N  N0  1  -0.00000000  -0.00000000  0.50000000  1
  Cl  Cl0  1  0.97210116  0.97210116  0.23760305  1
  Cl  Cl1  1  0.02789884  0.02789884  0.76239695  1
  Cl  Cl2  1  0.67057644  0.67057644  0.16526022  1
  Cl  Cl3  1  0.32942356  0.32942356  0.83473978  1
  Cl  Cl4  1  0.30164015  0.30164015  0.56280778  1
  Cl  Cl5  1  0.69835985  0.69835985  0.43719222  1
  Cl  Cl6  1  0.63276371  0.63276371  0.89366325  1
  Cl  Cl7  1  0.36723629  0.36723629  0.10633675  1
loop_
_geom_bond_atom_site_label_1
_geom_bond_atom_site_label_2
_geom_bond_distance
_geom_bond_site_symmetry_2
N0 Sc1 2.180272 1_445
N0 Sc0 2.180272 1_555
N0 Sc3 2.288460 1_545
N0 Sc3 2.288460 1_455
N0 Sc2 2.288460 1_455
N0 Sc2 2.288460 1_545
Cl0 Sc4 2.568786 1_665
Cl0 Sc3 2.679872 1_565
Cl0 Sc3 2.679872 1_655
Cl1 Sc4 2.568786 1_556
Cl1 Sc2 2.679872 1_545
Cl1 Sc2 2.679872 1_455
Cl2 Sc0 2.544570 1_565
Cl2 Sc0 2.544570 1_655
Cl2 Sc3 2.564365 1_555
Cl3 Sc1 2.544570 1_545
Cl3 Sc1 2.544570 1_455
Cl3 Sc2 2.564365 1_555
Cl4 Sc1 2.540588 1_455
Cl4 Sc1 2.540588 1_545
Cl4 Sc3 2.566354 1_555
Cl5 Sc0 2.540588 1_655
Cl5 Sc0 2.540588 1_565
Cl5 Sc2 2.566354 1_555
Cl6 Sc4 2.537908 1_566
Cl6 Sc4 2.537908 1_656
Cl6 Sc1 2.880816 1_555
Cl7 Sc4 2.537908 1_655
Cl7 Sc4 2.537908 1_565
Cl7 Sc0 2.880816 1_555
