# generated using pymatgen
data_Ti2InSnRh3
_symmetry_space_group_name_H-M   'P 1'
_cell_length_a   7.53341848
_cell_length_b   7.53341775
_cell_length_c   7.53341854
_cell_angle_alpha   34.02891863
_cell_angle_beta   34.02892553
_cell_angle_gamma   34.02891574
_symmetry_Int_Tables_number   1
_chemical_formula_structural   Ti2InSnRh3
_chemical_formula_sum   'Ti2 In1 Sn1 Rh3'
_cell_volume   119.35238003
_cell_formula_units_Z   1
loop_
 _symmetry_equiv_pos_site_id
 _symmetry_equiv_pos_as_xyz
  1  'x, y, z'
loop_
 _atom_site_type_symbol
 _atom_site_label
 _atom_site_symmetry_multiplicity
 _atom_site_fract_x
 _atom_site_fract_y
 _atom_site_fract_z
 _atom_site_occupancy
  Ti  Ti0  1  0.75314391  0.75314391  0.75314391  1
  Ti  Ti1  1  0.24779933  0.24779933  0.24779933  1
  In  In0  1  0.99332750  0.99332750  0.99332750  1
  Sn  Sn0  1  0.50409858  0.50409858  0.50409858  1
  Rh  Rh0  1  0.12358348  0.12358348  0.12358348  1
  Rh  Rh1  1  0.62745257  0.62745257  0.62745257  1
  Rh  Rh2  1  0.37559364  0.37559364  0.37559364  1
loop_
_geom_bond_atom_site_label_1
_geom_bond_atom_site_label_2
_geom_bond_distance
_geom_bond_site_symmetry_2
In0 Rh1 2.637834 1_565
In0 Rh1 2.637834 1_655
In0 Rh1 2.637835 1_556
In0 Rh2 2.749984 1_656
In0 Rh2 2.749984 1_566
In0 Rh2 2.749985 1_665
In0 Rh0 2.770689 1_666
In0 Ti1 3.048433 1_656
In0 Ti1 3.048434 1_566
In0 Ti1 3.048434 1_665
Sn0 Ti1 3.027217 1_565
Sn0 Ti1 3.027218 1_655
Sn0 Ti1 3.027218 1_556
Sn0 Ti0 3.113442 1_545
Sn0 Ti0 3.113442 1_455
Sn0 Ti0 3.113443 1_554
Rh0 Ti1 2.642209 1_555
Rh0 Ti0 2.664960 1_454
Rh0 Ti0 2.664960 1_544
Rh0 Ti0 2.664961 1_445
Rh0 Sn0 2.736104 1_545
Rh0 Sn0 2.736104 1_455
Rh0 Sn0 2.736104 1_554
Rh1 Sn0 2.623877 1_555
Rh1 Ti0 2.673595 1_555
Rh1 Ti1 2.729432 1_565
Rh1 Ti1 2.729433 1_655
Rh1 Ti1 2.729433 1_556
Rh2 Ti0 2.713605 1_545
Rh2 Ti0 2.713606 1_455
Rh2 Ti0 2.713606 1_554
Rh2 Ti1 2.718327 1_555
Rh2 Sn0 2.733443 1_555
