# generated using pymatgen
data_Rb2HfBe3As4
_symmetry_space_group_name_H-M   'P 1'
_cell_length_a   7.80323049
_cell_length_b   7.80323084
_cell_length_c   5.68643284
_cell_angle_alpha   90.00000000
_cell_angle_beta   90.00000000
_cell_angle_gamma   137.27937363
_symmetry_Int_Tables_number   1
_chemical_formula_structural   Rb2HfBe3As4
_chemical_formula_sum   'Rb2 Hf1 Be3 As4'
_cell_volume   234.90384844
_cell_formula_units_Z   1
loop_
 _symmetry_equiv_pos_site_id
 _symmetry_equiv_pos_as_xyz
  1  'x, y, z'
loop_
 _atom_site_type_symbol
 _atom_site_label
 _atom_site_symmetry_multiplicity
 _atom_site_fract_x
 _atom_site_fract_y
 _atom_site_fract_z
 _atom_site_occupancy
  Rb  Rb0  1  0.50000000  0.00000000  0.25199954  1
  Rb  Rb1  1  0.00000000  0.50000000  0.74800046  1
  Hf  Hf0  1  0.00000000  0.00000000  0.00000000  1
  Be  Be0  1  0.50000000  0.50000000  0.50000000  1
  Be  Be1  1  0.50000000  0.50000000  0.00000000  1
  Be  Be2  1  0.00000000  0.00000000  0.50000000  1
  As  As0  1  0.64136434  0.82799605  0.73537963  1
  As  As1  1  0.17200395  0.35863566  0.26462037  1
  As  As2  1  0.82799605  0.64136434  0.26462037  1
  As  As3  1  0.35863566  0.17200395  0.73537963  1
loop_
_geom_bond_atom_site_label_1
_geom_bond_atom_site_label_2
_geom_bond_distance
_geom_bond_site_symmetry_2
As0 Be0 2.326072 1_555
As0 Be1 2.425566 1_556
As0 Be2 2.430149 1_665
As0 Hf0 2.525546 1_666
As0 Rb0 3.570594 1_565
As0 Rb1 3.575177 1_555
As0 Rb1 3.711054 1_665
As0 Rb0 3.718060 1_566
As1 Be0 2.326072 1_555
As1 Be1 2.425566 1_555
As1 Be2 2.430150 1_555
As1 Hf0 2.525546 1_555
As1 Rb1 3.570594 1_555
As1 Rb0 3.575178 1_565
As1 Rb0 3.711054 1_455
As1 Rb1 3.718060 1_554
As2 Be0 2.326072 1_555
As2 Be1 2.425566 1_555
As2 Be2 2.430150 1_665
As2 Hf0 2.525546 1_665
As2 Rb1 3.570594 1_655
As2 Rb0 3.575178 1_555
As2 Rb0 3.711054 1_665
As2 Rb1 3.718060 1_654
As3 Be0 2.326072 1_555
As3 Be1 2.425566 1_556
As3 Be2 2.430149 1_555
As3 Hf0 2.525546 1_556
As3 Rb0 3.570594 1_555
As3 Rb1 3.575177 1_655
As3 Rb1 3.711054 1_545
As3 Rb0 3.718060 1_556
