# generated using pymatgen
data_Zr2In2PdPt
_symmetry_space_group_name_H-M   'P 1'
_cell_length_a   7.49202603
_cell_length_b   7.49202591
_cell_length_c   7.20388202
_cell_angle_alpha   90.00000000
_cell_angle_beta   90.00000000
_cell_angle_gamma   119.99999187
_symmetry_Int_Tables_number   1
_chemical_formula_structural   Zr2In2PdPt
_chemical_formula_sum   'Zr6 In6 Pd3 Pt3'
_cell_volume   350.18360348
_cell_formula_units_Z   3
loop_
 _symmetry_equiv_pos_site_id
 _symmetry_equiv_pos_as_xyz
  1  'x, y, z'
loop_
 _atom_site_type_symbol
 _atom_site_label
 _atom_site_symmetry_multiplicity
 _atom_site_fract_x
 _atom_site_fract_y
 _atom_site_fract_z
 _atom_site_occupancy
  Zr  Zr0  1  0.01821483  0.60557037  0.75170937  1
  Zr  Zr1  1  0.97468902  0.58263052  0.24982618  1
  Zr  Zr2  1  0.60794149  0.02531098  0.24982618  1
  Zr  Zr3  1  0.58735455  0.98178517  0.75170937  1
  Zr  Zr4  1  0.41736948  0.39205851  0.24982618  1
  Zr  Zr5  1  0.39442963  0.41264545  0.75170937  1
  In  In0  1  0.00481803  0.27048337  0.50069977  1
  In  In1  1  0.73306248  0.73477083  0.00113071  1
  In  In2  1  0.00170835  0.26693752  0.00113071  1
  In  In3  1  0.26566534  0.99518197  0.50069977  1
  In  In4  1  0.26522917  0.99829165  0.00113071  1
  In  In5  1  0.72951663  0.73433466  0.50069977  1
  Pd  Pd0  1  0.33333300  0.66666700  0.45688109  1
  Pd  Pd1  1  0.00000000  0.00000000  0.25199020  1
  Pd  Pd2  1  0.00000000  0.00000000  0.75017878  1
  Pt  Pt0  1  0.66666700  0.33333300  0.53659684  1
  Pt  Pt1  1  0.66666700  0.33333300  0.96194854  1
  Pt  Pt2  1  0.33333300  0.66666700  0.03230744  1
loop_
_geom_bond_atom_site_label_1
_geom_bond_atom_site_label_2
_geom_bond_distance
_geom_bond_site_symmetry_2
In0 Pd1 2.691621 1_555
In0 Pd2 2.695314 1_555
In0 Pd0 2.768063 1_555
In0 Pt0 2.810661 1_455
In0 Zr1 3.051911 1_455
In0 Zr0 3.054563 1_555
In0 Zr5 3.132992 1_555
In0 Zr2 3.165386 1_455
In0 Zr4 3.291488 1_555
In0 Zr3 3.311391 1_445
In1 Pd1 2.690727 1_665
In1 Pd2 2.691175 1_664
In1 Pt2 2.784146 1_555
In1 Pt1 2.806526 1_554
In1 Zr4 3.053452 1_555
In1 Zr5 3.060495 1_554
In1 Zr1 3.138387 1_555
In1 Zr3 3.140907 1_554
In1 Zr0 3.285953 1_654
In1 Zr2 3.296534 1_565
In2 Pd1 2.690727 1_555
In2 Pd2 2.691175 1_554
In2 Pt2 2.784143 1_555
In2 Pt1 2.806518 1_454
In2 Zr1 3.053452 1_455
In2 Zr0 3.060498 1_554
In2 Zr2 3.138387 1_455
In2 Zr5 3.140901 1_554
In2 Zr3 3.285958 1_444
In2 Zr4 3.296534 1_555
In3 Pd1 2.691621 1_565
In3 Pd2 2.695314 1_565
In3 Pd0 2.768058 1_555
In3 Pt0 2.810666 1_565
In3 Zr2 3.051911 1_565
In3 Zr3 3.054557 1_555
In3 Zr0 3.132993 1_555
In3 Zr4 3.165386 1_565
In3 Zr1 3.291488 1_455
In3 Zr5 3.311393 1_565
In4 Pd1 2.690727 1_565
In4 Pd2 2.691175 1_564
In4 Pt2 2.784138 1_555
In4 Pt1 2.806524 1_564
In4 Zr2 3.053452 1_565
In4 Zr3 3.060491 1_554
In4 Zr4 3.138387 1_565
In4 Zr0 3.140902 1_554
In4 Zr5 3.285959 1_564
In4 Zr1 3.296534 1_455
In5 Pd1 2.691621 1_665
In5 Pd2 2.695314 1_665
In5 Pd0 2.768066 1_555
In5 Pt0 2.810668 1_555
In5 Zr4 3.051911 1_555
In5 Zr5 3.054561 1_555
In5 Zr3 3.132997 1_555
In5 Zr1 3.165386 1_555
In5 Zr2 3.291488 1_565
In5 Zr0 3.311386 1_655
Pd0 Zr1 2.854707 1_455
Pd0 Zr2 2.854709 1_565
Pd0 Zr4 2.854713 1_555
Pd0 Zr5 3.035387 1_555
Pd0 Zr0 3.035387 1_555
Pd0 Zr3 3.035387 1_555
Pd0 Pt2 3.058578 1_555
Pd1 Zr2 3.036612 1_455
Pd1 Zr1 3.036612 1_445
Pd1 Zr4 3.036612 1_555
Pd2 Zr0 3.025639 1_545
Pd2 Zr5 3.025643 1_555
Pd2 Zr3 3.025647 1_445
Pt0 Zr3 2.850681 1_545
Pt0 Zr0 2.850685 1_655
Pt0 Zr5 2.850693 1_555
Pt0 Zr2 2.961681 1_555
Pt0 Zr1 2.961683 1_555
Pt0 Zr4 2.961686 1_555
Pt1 Zr3 2.831750 1_545
Pt1 Zr0 2.831754 1_655
Pt1 Zr5 2.831762 1_555
Pt1 Zr2 2.967249 1_556
Pt1 Zr1 2.967251 1_556
Pt1 Zr4 2.967254 1_556
Pt2 Zr1 2.894807 1_455
Pt2 Zr2 2.894809 1_565
Pt2 Zr4 2.894813 1_555
Pt2 Zr5 2.964562 1_554
Pt2 Zr0 2.964562 1_554
Pt2 Zr3 2.964562 1_554
