# generated using pymatgen
data_Ti8Mn(Al2Ir)7
_symmetry_space_group_name_H-M   'P 1'
_cell_length_a   8.58639537
_cell_length_b   8.58638525
_cell_length_c   8.58640663
_cell_angle_alpha   120.10393106
_cell_angle_beta   119.85408861
_cell_angle_gamma   90.03663753
_symmetry_Int_Tables_number   1
_chemical_formula_structural   Ti8Mn(Al2Ir)7
_chemical_formula_sum   'Ti8 Mn1 Al14 Ir7'
_cell_volume   447.76718284
_cell_formula_units_Z   1
loop_
 _symmetry_equiv_pos_site_id
 _symmetry_equiv_pos_as_xyz
  1  'x, y, z'
loop_
 _atom_site_type_symbol
 _atom_site_label
 _atom_site_symmetry_multiplicity
 _atom_site_fract_x
 _atom_site_fract_y
 _atom_site_fract_z
 _atom_site_occupancy
  Ti  Ti0  1  0.80476414  0.30056476  0.09585088  1
  Ti  Ti1  1  0.20471670  0.30056532  0.49580237  1
  Ti  Ti2  1  0.19299806  0.69299806  0.50000331  1
  Ti  Ti3  1  0.20471950  0.70892149  0.90416290  1
  Ti  Ti4  1  0.80476098  0.70891972  0.50420389  1
  Ti  Ti5  1  0.78963991  0.28964088  0.50000157  1
  Ti  Ti6  1  0.37874829  0.12236669  0.74361287  1
  Ti  Ti7  1  0.37875303  0.63513668  0.25638580  1
  Mn  Mn0  1  0.99439910  0.49440985  0.50002875  1
  Al  Al0  1  0.15787377  0.33929793  0.18142171  1
  Al  Al1  1  0.15787381  0.97644670  0.81857147  1
  Al  Al2  1  0.14962147  0.34696877  0.80265448  1
  Al  Al3  1  0.54431144  0.34696230  0.19733884  1
  Al  Al4  1  0.84493395  0.65251569  0.80757924  1
  Al  Al5  1  0.84493368  0.03734858  0.19240997  1
  Al  Al6  1  0.83971863  0.65728732  0.18242506  1
  Al  Al7  1  0.47486024  0.65728860  0.81756800  1
  Al  Al8  1  0.38011509  0.12042802  0.25968567  1
  Al  Al9  1  0.86074270  0.12042588  0.74031095  1
  Al  Al10  1  0.62087690  0.87865032  0.25777427  1
  Al  Al11  1  0.62087452  0.36310025  0.74222205  1
  Al  Al12  1  0.62210551  0.87823768  0.74386134  1
  Al  Al13  1  0.13437593  0.87824131  0.25613437  1
  Ir  Ir0  1  0.00176479  0.99915789  0.50185106  1
  Ir  Ir1  1  0.49730400  0.99915604  0.99739326  1
  Ir  Ir2  1  0.49723058  0.49723421  0.99999740  1
  Ir  Ir3  1  0.49731047  0.49991924  0.49815199  1
  Ir  Ir4  1  0.00176946  0.49991911  0.00260480  1
  Ir  Ir5  1  0.99994929  0.99993842  0.99999634  1
  Ir  Ir6  1  0.49795009  0.99794729  0.49999541  1
loop_
_geom_bond_atom_site_label_1
_geom_bond_atom_site_label_2
_geom_bond_distance
_geom_bond_site_symmetry_2
Ti0 Ti6 3.034010 1_554
Ti1 Ti6 3.033966 1_555
Ti2 Ti6 3.073477 1_565
Ti2 Ti7 3.073514 1_555
Ti3 Ti7 3.033949 1_556
Ti4 Ti7 3.033948 1_555
Mn0 Ti2 2.410903 1_655
Mn0 Ti3 2.457730 1_655
Mn0 Ti4 2.457814 1_555
Mn0 Ti1 2.457903 1_655
Mn0 Ti0 2.457997 1_555
Mn0 Ti5 2.485488 1_555
Al0 Ir5 2.468714 1_444
Al0 Ir3 2.476638 1_555
Al0 Ir4 2.476641 1_555
Al0 Ti0 2.716399 1_455
Al0 Ti1 2.716420 1_555
Al0 Ti7 2.757185 1_555
Al0 Al9 2.760342 1_454
Al0 Al8 2.760353 1_555
Al0 Ti2 2.764220 1_555
Al1 Ir5 2.468666 1_455
Al1 Ir1 2.476586 1_555
Al1 Ir0 2.476597 1_555
Al1 Ti4 2.716374 1_455
Al1 Ti3 2.716395 1_555
Al1 Ti6 2.757174 1_565
Al1 Al9 2.760343 1_465
Al1 Al8 2.760366 1_566
Al1 Ti2 2.764154 1_555
Al2 Ir4 2.488829 1_556
Al2 Ir0 2.488872 1_545
Al2 Ir2 2.492228 1_555
Al2 Ti5 2.695803 1_455
Al2 Ti1 2.740907 1_555
Al2 Ti3 2.740915 1_555
Al2 Al9 2.801817 1_455
Al2 Ti6 2.804252 1_555
Al2 Ti7 2.804260 1_556
Al3 Ir1 2.488839 1_544
Al3 Ir3 2.488915 1_555
Al3 Ir2 2.492259 1_554
Al3 Ti5 2.695830 1_555
Al3 Ti0 2.740879 1_555
Al3 Ti4 2.740952 1_555
Al3 Al8 2.801819 1_555
Al3 Ti6 2.804228 1_554
Al3 Ti7 2.804280 1_555
Al4 Ir5 2.502336 1_555
Al4 Ir3 2.508492 1_555
Al4 Ir4 2.508498 1_656
Al4 Ti5 2.720939 1_555
Al4 Ti4 2.740481 1_555
Al4 Ti3 2.740509 1_655
Al5 Ir5 2.502379 1_544
Al5 Ir1 2.508546 1_544
Al5 Ir0 2.508569 1_645
Al5 Ti5 2.721027 1_555
Al5 Ti0 2.740493 1_555
Al5 Ti1 2.740531 1_655
Al6 Ir4 2.488837 1_655
Al6 Ir0 2.488839 1_655
Al6 Ir2 2.497910 1_554
Al6 Ti0 2.741722 1_555
Al6 Ti4 2.741801 1_555
Al6 Ti2 2.766983 1_655
Al7 Ir3 2.488805 1_555
Al7 Ir1 2.488819 1_555
Al7 Ir2 2.497892 1_555
Al7 Ti1 2.741708 1_555
Al7 Ti3 2.741776 1_555
Al7 Ti2 2.766940 1_555
Al8 Ir6 2.546959 1_545
Al8 Ir1 2.659694 1_544
Al8 Ir3 2.659754 1_555
Al8 Ir5 2.670720 1_444
Al8 Ti5 2.914743 1_555
Al8 Ti3 2.944069 1_544
Al8 Ti1 2.944149 1_555
Al9 Ir6 2.546969 1_545
Al9 Ir0 2.659699 1_645
Al9 Ir4 2.659768 1_656
Al9 Ir5 2.670776 1_545
Al9 Ti5 2.914746 1_555
Al9 Ti4 2.944071 1_545
Al9 Ti0 2.944176 1_556
Al10 Ir6 2.557100 1_555
Al10 Ir2 2.671371 1_554
Al10 Ir1 2.674924 1_554
Al10 Ir0 2.674927 1_655
Al10 Al6 2.746540 1_555
Al10 Al7 2.746544 1_554
Al10 Al5 2.777005 1_565
Al10 Ti5 2.917037 1_565
Al10 Al9 2.930638 1_565
Al10 Al8 2.930657 1_565
Al10 Ti7 2.939199 1_555
Al10 Ti3 2.977272 1_554
Al10 Ti4 2.977299 1_555
Al11 Ir6 2.557126 1_545
Al11 Ir2 2.671403 1_555
Al11 Ir3 2.674942 1_555
Al11 Ir4 2.674976 1_656
Al11 Al6 2.746519 1_556
Al11 Al7 2.746523 1_555
Al11 Al4 2.776983 1_555
Al11 Ti5 2.917020 1_555
Al11 Al8 2.930636 1_555
Al11 Al9 2.930675 1_555
Al11 Ti6 2.939209 1_555
Al11 Ti1 2.977292 1_555
Al11 Ti0 2.977345 1_556
Al12 Ir6 2.552569 1_555
Al12 Ir3 2.649774 1_555
Al12 Ir1 2.649889 1_555
Al12 Ir5 2.653485 1_555
Al12 Al7 2.756116 1_555
Al12 Al5 2.782553 1_566
Al12 Al4 2.782566 1_555
Al12 Al9 2.940103 1_565
Al12 Ti7 2.960662 1_555
Al12 Ti6 2.960729 1_565
Al12 Ti4 3.003800 1_555
Al12 Ti0 3.003895 1_566
Al12 Ti2 3.075782 1_555
Al13 Ir6 2.552554 1_555
Al13 Ir4 2.649800 1_555
Al13 Ir0 2.649850 1_555
Al13 Ir5 2.653429 1_454
Al13 Al6 2.756121 1_455
Al13 Al5 2.782566 1_465
Al13 Al4 2.782590 1_454
Al13 Al8 2.940096 1_565
Al13 Ti6 2.960680 1_565
Al13 Ti7 2.960702 1_555
Al13 Ti3 3.003810 1_554
Al13 Ti1 3.003870 1_565
Al13 Ti2 3.075818 1_555
Ir0 Ti6 2.647448 1_565
Ir1 Ti6 2.647506 1_565
Ir2 Ti7 2.626717 1_556
Ir2 Ti6 2.626718 1_555
Ir3 Ti7 2.647453 1_555
Ir4 Ti7 2.647447 1_555
Ir6 Ti7 2.540740 1_555
Ir6 Ti6 2.540810 1_565
