# generated using pymatgen
data_Cs12Nb3FeS16
_symmetry_space_group_name_H-M   'P 1'
_cell_length_a   10.00328420
_cell_length_b   9.96582321
_cell_length_c   11.65132275
_cell_angle_alpha   90.00000000
_cell_angle_beta   90.00000000
_cell_angle_gamma   90.76598698
_symmetry_Int_Tables_number   1
_chemical_formula_structural   Cs12Nb3FeS16
_chemical_formula_sum   'Cs12 Nb3 Fe1 S16'
_cell_volume   1161.42777318
_cell_formula_units_Z   1
loop_
 _symmetry_equiv_pos_site_id
 _symmetry_equiv_pos_as_xyz
  1  'x, y, z'
loop_
 _atom_site_type_symbol
 _atom_site_label
 _atom_site_symmetry_multiplicity
 _atom_site_fract_x
 _atom_site_fract_y
 _atom_site_fract_z
 _atom_site_occupancy
  Cs  Cs0  1  0.55369996  0.21671004  0.04649212  1
  Cs  Cs1  1  0.04695618  0.29126991  0.45719080  1
  Cs  Cs2  1  0.45337638  0.79242801  0.53827447  1
  Cs  Cs3  1  0.94979858  0.70330406  0.96072829  1
  Cs  Cs4  1  0.45337638  0.79242801  0.96172553  1
  Cs  Cs5  1  0.94979858  0.70330406  0.53927171  1
  Cs  Cs6  1  0.55369996  0.21671004  0.45350788  1
  Cs  Cs7  1  0.04695618  0.29126991  0.04280920  1
  Cs  Cs8  1  0.64871630  0.40999643  0.75000000  1
  Cs  Cs9  1  0.14914285  0.08520236  0.75000000  1
  Cs  Cs10  1  0.34956064  0.58511363  0.25000000  1
  Cs  Cs11  1  0.84552196  0.90602741  0.25000000  1
  Nb  Nb0  1  0.72120070  0.98189791  0.75000000  1
  Nb  Nb1  1  0.22433838  0.51590696  0.75000000  1
  Nb  Nb2  1  0.27638389  0.01489054  0.25000000  1
  Fe  Fe0  1  0.77827892  0.48550671  0.25000000  1
  S  S0  1  0.83125486  0.04726124  0.58690374  1
  S  S1  1  0.33530143  0.45203261  0.91254170  1
  S  S2  1  0.16597476  0.94740558  0.08772862  1
  S  S3  1  0.66764868  0.55931144  0.39105783  1
  S  S4  1  0.16597476  0.94740558  0.41227138  1
  S  S5  1  0.66764868  0.55931144  0.10894217  1
  S  S6  1  0.83125486  0.04726124  0.91309626  1
  S  S7  1  0.33530143  0.45203261  0.58745830  1
  S  S8  1  0.51067461  0.07060928  0.75000000  1
  S  S9  1  0.01197811  0.42524040  0.75000000  1
  S  S10  1  0.48896526  0.93098651  0.25000000  1
  S  S11  1  0.97999086  0.55565961  0.25000000  1
  S  S12  1  0.70403288  0.75230175  0.75000000  1
  S  S13  1  0.20761484  0.74405484  0.75000000  1
  S  S14  1  0.29285610  0.24370529  0.25000000  1
  S  S15  1  0.80272304  0.27345557  0.25000000  1
loop_
_geom_bond_atom_site_label_1
_geom_bond_atom_site_label_2
_geom_bond_distance
_geom_bond_site_symmetry_2
Cs0 S15 3.479907 1_555
Cs0 S14 3.538623 1_555
Cs0 S1 3.584073 1_554
Cs0 S6 3.619592 1_554
Cs0 S5 3.658161 1_555
Cs0 S10 3.755051 1_545
Cs0 S8 3.771234 1_554
Cs1 S15 3.437506 1_455
Cs1 S14 3.483410 1_555
Cs1 S0 3.565526 1_455
Cs1 S7 3.614791 1_555
Cs1 S11 3.642257 1_455
Cs1 S4 3.680225 1_545
Cs1 S9 3.681928 1_555
Cs2 S13 3.511419 1_555
Cs2 S12 3.543900 1_555
Cs2 S4 3.595116 1_555
Cs2 S3 3.614805 1_555
Cs2 S7 3.622732 1_555
Cs2 S10 3.647155 1_555
Cs2 S8 3.749297 1_565
Cs3 S12 3.513246 1_555
Cs3 S2 3.555714 1_656
Cs3 S13 3.580019 1_655
Cs3 S5 3.591542 1_556
Cs3 S6 3.684127 1_565
Cs3 S11 3.691571 1_556
Cs3 S9 3.760381 1_655
Cs4 S13 3.511419 1_555
Cs4 S12 3.543900 1_555
Cs4 S2 3.595116 1_556
Cs4 S5 3.614805 1_556
Cs4 S1 3.622732 1_555
Cs4 S10 3.647155 1_556
Cs4 S8 3.749297 1_565
Cs5 S12 3.513246 1_555
Cs5 S4 3.555714 1_655
Cs5 S13 3.580019 1_655
Cs5 S3 3.591542 1_555
Cs5 S0 3.684127 1_565
Cs5 S11 3.691571 1_555
Cs5 S9 3.760381 1_655
Cs6 S15 3.479907 1_555
Cs6 S14 3.538623 1_555
Cs6 S7 3.584073 1_555
Cs6 S0 3.619592 1_555
Cs6 S3 3.658161 1_555
Cs6 S10 3.755051 1_545
Cs6 S8 3.771234 1_555
Cs7 S15 3.437506 1_455
Cs7 S14 3.483410 1_555
Cs7 S6 3.565526 1_454
Cs7 S1 3.614791 1_554
Cs7 S11 3.642257 1_455
Cs7 S2 3.680225 1_545
Cs7 S9 3.681928 1_554
Cs8 S12 3.448632 1_555
Cs8 S9 3.634956 1_655
Cs8 S8 3.636165 1_555
Cs8 S1 3.691413 1_555
Cs8 S7 3.691413 1_555
Cs9 S13 3.457461 1_545
Cs9 S8 3.621370 1_555
Cs9 S9 3.672963 1_555
Cs9 S6 3.719386 1_455
Cs9 S0 3.719386 1_455
Cs10 S14 3.441886 1_555
Cs10 S3 3.593574 1_555
Cs10 S5 3.593574 1_555
Cs10 S10 3.700986 1_555
Cs10 S11 3.704633 1_455
Cs11 S10 3.578716 1_555
Cs11 S15 3.692348 1_565
Cs11 S4 3.739667 1_655
Cs11 S2 3.739667 1_655
Cs11 S11 3.758583 1_555
Nb0 S6 2.286531 1_565
Nb0 S0 2.286531 1_565
Nb0 S12 2.292260 1_555
Nb0 S8 2.294867 1_565
Nb1 S13 2.282057 1_555
Nb1 S1 2.289709 1_555
Nb1 S7 2.289709 1_555
Nb1 S9 2.297338 1_555
Nb2 S14 2.284075 1_555
Nb2 S4 2.286248 1_545
Nb2 S2 2.286248 1_545
Nb2 S10 2.295382 1_545
Fe0 S3 2.118631 1_555
Fe0 S5 2.118631 1_555
Fe0 S11 2.126619 1_555
Fe0 S15 2.130608 1_555
