# generated using pymatgen
data_TaNbV3Re
_symmetry_space_group_name_H-M   'P 1'
_cell_length_a   5.07990256
_cell_length_b   5.07990355
_cell_length_c   5.06722780
_cell_angle_alpha   59.91723394
_cell_angle_beta   59.91723593
_cell_angle_gamma   60.00000215
_symmetry_Int_Tables_number   1
_chemical_formula_structural   TaNbV3Re
_chemical_formula_sum   'Ta1 Nb1 V3 Re1'
_cell_volume   92.34680040
_cell_formula_units_Z   1
loop_
 _symmetry_equiv_pos_site_id
 _symmetry_equiv_pos_as_xyz
  1  'x, y, z'
loop_
 _atom_site_type_symbol
 _atom_site_label
 _atom_site_symmetry_multiplicity
 _atom_site_fract_x
 _atom_site_fract_y
 _atom_site_fract_z
 _atom_site_occupancy
  Ta  Ta0  1  0.99970545  0.99970545  0.00088464  1
  Nb  Nb0  1  0.25014383  0.25014383  0.24956650  1
  V  V0  1  0.62502025  0.12495307  0.62500644  1
  V  V1  1  0.12495307  0.62502025  0.62500644  1
  V  V2  1  0.62502025  0.62502025  0.62500644  1
  Re  Re0  1  0.62515715  0.62515715  0.12452855  1
loop_
_geom_bond_atom_site_label_1
_geom_bond_atom_site_label_2
_geom_bond_distance
_geom_bond_site_symmetry_2
Ta0 V1 2.966658 1_655
Ta0 V0 2.966658 1_565
Ta0 V2 2.966661 1_555
Ta0 V0 2.977209 1_664
Ta0 V1 2.977209 1_664
Ta0 V2 2.977211 1_654
Ta0 V2 2.977211 1_564
Ta0 V0 2.977213 1_564
Ta0 V1 2.977213 1_654
Nb0 V1 2.968426 1_554
Nb0 V0 2.968426 1_554
Nb0 V2 2.968431 1_554
Nb0 V0 2.976262 1_455
Nb0 V1 2.976263 1_545
Nb0 V2 2.976267 1_455
Nb0 V2 2.976267 1_545
Nb0 V0 2.976270 1_555
Nb0 V1 2.976271 1_555
Nb0 Re0 2.978044 1_455
Nb0 Re0 2.978044 1_545
Nb0 Re0 2.978053 1_555
Nb0 Ta0 3.104590 1_446
Nb0 Ta0 3.107686 1_445
Nb0 Ta0 3.107699 1_545
Nb0 Ta0 3.107700 1_455
V0 V1 2.539610 1_645
V0 V2 2.539611 1_545
V0 V1 2.540293 1_555
V0 V2 2.540293 1_555
V1 V2 2.539610 1_455
V1 V2 2.540293 1_555
Re0 V2 2.531890 1_554
Re0 V1 2.531890 1_654
Re0 V0 2.531890 1_564
Re0 V2 2.535338 1_555
Re0 V1 2.535339 1_555
Re0 V0 2.535339 1_555
Re0 Ta0 2.977051 1_455
Re0 Ta0 2.977052 1_545
Re0 Ta0 2.977056 1_555
