# generated using pymatgen
data_Ti9Nb(ZnGa3)2
_symmetry_space_group_name_H-M   'P 1'
_cell_length_a   7.82037819
_cell_length_b   7.82037887
_cell_length_c   5.38492297
_cell_angle_alpha   90.00000000
_cell_angle_beta   90.00000000
_cell_angle_gamma   119.99999716
_symmetry_Int_Tables_number   1
_chemical_formula_structural   Ti9Nb(ZnGa3)2
_chemical_formula_sum   'Ti9 Nb1 Zn2 Ga6'
_cell_volume   285.21061741
_cell_formula_units_Z   1
loop_
 _symmetry_equiv_pos_site_id
 _symmetry_equiv_pos_as_xyz
  1  'x, y, z'
loop_
 _atom_site_type_symbol
 _atom_site_label
 _atom_site_symmetry_multiplicity
 _atom_site_fract_x
 _atom_site_fract_y
 _atom_site_fract_z
 _atom_site_occupancy
  Ti  Ti0  1  0.66666700  0.33333300  0.50000000  1
  Ti  Ti1  1  0.66666700  0.33333300  0.00000000  1
  Ti  Ti2  1  0.33333300  0.66666700  0.50000000  1
  Ti  Ti3  1  0.29930227  0.99707953  0.24390545  1
  Ti  Ti4  1  0.29930227  0.30222374  0.75609455  1
  Ti  Ti5  1  0.00292047  0.70069773  0.75609455  1
  Ti  Ti6  1  0.00292047  0.30222374  0.24390545  1
  Ti  Ti7  1  0.69777626  0.70069773  0.24390545  1
  Ti  Ti8  1  0.69777626  0.99707953  0.75609455  1
  Nb  Nb0  1  0.33333300  0.66666700  0.00000000  1
  Zn  Zn0  1  0.00000000  0.00000000  0.00000000  1
  Zn  Zn1  1  0.00000000  0.00000000  0.50000000  1
  Ga  Ga0  1  0.63728327  0.00325477  0.25545523  1
  Ga  Ga1  1  0.63728327  0.63402851  0.74454477  1
  Ga  Ga2  1  0.99674523  0.36271673  0.74454477  1
  Ga  Ga3  1  0.99674523  0.63402851  0.25545523  1
  Ga  Ga4  1  0.36597149  0.36271673  0.25545523  1
  Ga  Ga5  1  0.36597149  0.00325477  0.74454477  1
loop_
_geom_bond_atom_site_label_1
_geom_bond_atom_site_label_2
_geom_bond_distance
_geom_bond_site_symmetry_2
Ti0 Ti1 2.692461 1_555
Ti0 Ti1 2.692461 1_556
Ti0 Ti6 3.084748 1_655
Ti0 Ti8 3.084748 1_545
Ti0 Ti3 3.084756 1_545
Ti0 Ti5 3.084756 1_655
Ti0 Ti4 3.084762 1_555
Ti0 Ti7 3.084762 1_555
Ti1 Ti6 3.055968 1_655
Ti1 Ti8 3.055968 1_544
Ti1 Ti3 3.055976 1_545
Ti1 Ti5 3.055977 1_654
Ti1 Ti4 3.055982 1_554
Ti1 Ti7 3.055983 1_555
Ti2 Ti7 3.055664 1_555
Ti2 Ti5 3.055664 1_555
Ti2 Ti8 3.055664 1_555
Ti2 Ti3 3.055664 1_555
Ti2 Ti6 3.055664 1_555
Ti2 Ti4 3.055664 1_555
Ti3 Zn0 2.694013 1_565
Ti3 Zn1 2.726616 1_565
Ti4 Zn0 2.694017 1_556
Ti4 Zn1 2.726619 1_555
Ti5 Zn0 2.694013 1_566
Ti5 Zn1 2.726616 1_565
Ti6 Zn0 2.694020 1_555
Ti6 Zn1 2.726622 1_555
Ti7 Zn0 2.694017 1_665
Ti7 Zn1 2.726619 1_665
Ti8 Zn0 2.694020 1_666
Ti8 Zn1 2.726622 1_665
Nb0 Ti2 2.692461 1_554
Nb0 Ti2 2.692461 1_555
Nb0 Ti7 3.026608 1_555
Nb0 Ti5 3.026608 1_554
Nb0 Ti8 3.026608 1_554
Nb0 Ti3 3.026608 1_555
Nb0 Ti4 3.026608 1_554
Nb0 Ti6 3.026608 1_555
Zn0 Zn1 2.692461 1_554
Zn0 Zn1 2.692461 1_555
Ga0 Ti3 2.620065 1_545
Ga0 Ti7 2.635433 1_545
Ga0 Ti6 2.638402 1_655
Ga0 Ti8 2.734923 1_544
Ga0 Ti8 2.741693 1_545
Ga0 Ti0 2.803041 1_555
Ga0 Ti1 2.831118 1_555
Ga0 Ti2 2.838329 1_545
Ga0 Nb0 2.866060 1_545
Ga1 Ti4 2.620062 1_555
Ga1 Ti8 2.635440 1_555
Ga1 Ti5 2.638400 1_655
Ga1 Ti7 2.734924 1_556
Ga1 Ti7 2.741694 1_555
Ga1 Ti0 2.803048 1_555
Ga1 Ti1 2.831125 1_556
Ga1 Ti2 2.838333 1_555
Ga1 Nb0 2.866064 1_556
Ga2 Ti5 2.620065 1_655
Ga2 Ti4 2.635433 1_655
Ga2 Ti8 2.638403 1_545
Ga2 Ti6 2.734923 1_656
Ga2 Ti6 2.741693 1_655
Ga2 Ti0 2.803041 1_555
Ga2 Ti1 2.831118 1_556
Ga2 Ti2 2.838329 1_655
Ga2 Nb0 2.866060 1_656
Ga3 Ti6 2.620058 1_655
Ga3 Ti3 2.635438 1_655
Ga3 Ti7 2.638407 1_555
Ga3 Ti5 2.734924 1_654
Ga3 Ti5 2.741694 1_655
Ga3 Ti0 2.803044 1_555
Ga3 Ti1 2.831121 1_555
Ga3 Ti2 2.838326 1_655
Ga3 Nb0 2.866057 1_655
Ga4 Ti7 2.620062 1_555
Ga4 Ti6 2.635440 1_555
Ga4 Ti3 2.638400 1_545
Ga4 Ti4 2.734924 1_554
Ga4 Ti4 2.741694 1_555
Ga4 Ti0 2.803048 1_555
Ga4 Ti1 2.831124 1_555
Ga4 Ti2 2.838333 1_555
Ga4 Nb0 2.866064 1_555
Ga5 Ti8 2.620057 1_545
Ga5 Ti5 2.635438 1_545
Ga5 Ti4 2.638407 1_555
Ga5 Ti3 2.734924 1_546
Ga5 Ti3 2.741694 1_545
Ga5 Ti0 2.803044 1_555
Ga5 Ti1 2.831121 1_556
Ga5 Ti2 2.838326 1_545
Ga5 Nb0 2.866057 1_546
