# generated using pymatgen
data_RbSiBiSe4
_symmetry_space_group_name_H-M   'P 1'
_cell_length_a   7.15552879
_cell_length_b   6.82516017
_cell_length_c   18.64194666
_cell_angle_alpha   71.87550001
_cell_angle_beta   90.00000000
_cell_angle_gamma   90.00000000
_symmetry_Int_Tables_number   1
_chemical_formula_structural   RbSiBiSe4
_chemical_formula_sum   'Rb4 Si4 Bi4 Se16'
_cell_volume   865.25558013
_cell_formula_units_Z   4
loop_
 _symmetry_equiv_pos_site_id
 _symmetry_equiv_pos_as_xyz
  1  'x, y, z'
loop_
 _atom_site_type_symbol
 _atom_site_label
 _atom_site_symmetry_multiplicity
 _atom_site_fract_x
 _atom_site_fract_y
 _atom_site_fract_z
 _atom_site_occupancy
  Rb  Rb0  1  0.75094072  0.27127954  0.46699462  1
  Rb  Rb1  1  0.25094072  0.72872046  0.03300538  1
  Rb  Rb2  1  0.24905928  0.72872046  0.53300538  1
  Rb  Rb3  1  0.74905928  0.27127954  0.96699462  1
  Si  Si0  1  0.22626809  0.20304886  0.34056823  1
  Si  Si1  1  0.72626809  0.79695114  0.15943177  1
  Si  Si2  1  0.77373191  0.79695114  0.65943177  1
  Si  Si3  1  0.27373191  0.20304886  0.84056823  1
  Bi  Bi0  1  0.80619549  0.24177940  0.22071127  1
  Bi  Bi1  1  0.69380451  0.24177940  0.72071127  1
  Bi  Bi2  1  0.30619549  0.75822060  0.27928873  1
  Bi  Bi3  1  0.19380451  0.75822060  0.77928873  1
  Se  Se0  1  0.51324473  0.97780463  0.86494711  1
  Se  Se1  1  0.74804726  0.59154288  0.08482672  1
  Se  Se2  1  0.01115143  0.00707386  0.85473588  1
  Se  Se3  1  0.48884857  0.00707386  0.35473588  1
  Se  Se4  1  0.98884857  0.99292614  0.14526412  1
  Se  Se5  1  0.32314704  0.40700231  0.71818993  1
  Se  Se6  1  0.25195274  0.40845712  0.91517328  1
  Se  Se7  1  0.98675527  0.97780463  0.36494711  1
  Se  Se8  1  0.24804726  0.40845712  0.41517328  1
  Se  Se9  1  0.01324473  0.02219537  0.63505289  1
  Se  Se10  1  0.75195274  0.59154288  0.58482672  1
  Se  Se11  1  0.67685296  0.59299769  0.28181007  1
  Se  Se12  1  0.51115143  0.99292614  0.64526412  1
  Se  Se13  1  0.82314704  0.59299769  0.78181007  1
  Se  Se14  1  0.17685296  0.40700231  0.21818993  1
  Se  Se15  1  0.48675527  0.02219537  0.13505289  1
loop_
_geom_bond_atom_site_label_1
_geom_bond_atom_site_label_2
_geom_bond_distance
_geom_bond_site_symmetry_2
Rb0 Se11 3.507705 1_555
Rb0 Se10 3.548301 1_555
Rb0 Se7 3.584555 1_545
Rb0 Se9 3.593679 1_655
Rb0 Se3 3.673717 1_555
Rb0 Se12 3.697222 1_545
Rb0 Se8 3.728241 1_655
Rb0 Se8 3.767768 1_555
Rb1 Se14 3.507705 1_555
Rb1 Se6 3.548301 1_554
Rb1 Se15 3.584555 1_565
Rb1 Se0 3.593679 1_554
Rb1 Se4 3.673717 1_455
Rb1 Se2 3.697222 1_564
Rb1 Se1 3.728241 1_555
Rb1 Se1 3.767768 1_455
Rb2 Se5 3.507705 1_555
Rb2 Se8 3.548301 1_555
Rb2 Se9 3.584555 1_565
Rb2 Se7 3.593679 1_455
Rb2 Se12 3.673717 1_555
Rb2 Se3 3.697222 1_565
Rb2 Se10 3.728241 1_455
Rb2 Se10 3.767768 1_555
Rb3 Se13 3.507705 1_555
Rb3 Se1 3.548301 1_556
Rb3 Se0 3.584555 1_545
Rb3 Se15 3.593679 1_556
Rb3 Se2 3.673717 1_655
Rb3 Se4 3.697222 1_546
Rb3 Se6 3.728241 1_555
Rb3 Se6 3.767768 1_655
Bi0 Se4 2.838561 1_545
Bi0 Se14 2.876684 1_655
Bi0 Se1 2.919993 1_555
Bi0 Se7 3.021772 1_545
Bi0 Se11 3.098193 1_555
Bi0 Se3 3.387455 1_555
Bi0 Se15 3.392588 1_555
Bi1 Se12 2.838561 1_545
Bi1 Se5 2.876684 1_555
Bi1 Se10 2.919993 1_555
Bi1 Se0 3.021772 1_545
Bi1 Se13 3.098193 1_555
Bi1 Se2 3.387455 1_655
Bi1 Se9 3.392588 1_655
Bi2 Se3 2.838561 1_565
Bi2 Se11 2.876684 1_555
Bi2 Se8 2.919993 1_555
Bi2 Se15 3.021772 1_565
Bi2 Se14 3.098193 1_555
Bi2 Se4 3.387455 1_455
Bi2 Se7 3.392588 1_455
Bi3 Se2 2.838561 1_565
Bi3 Se13 2.876684 1_455
Bi3 Se6 2.919993 1_555
Bi3 Se9 3.021772 1_565
Bi3 Se5 3.098193 1_555
Bi3 Se12 3.387455 1_555
Bi3 Se0 3.392588 1_555
Se0 Si3 2.252217 1_565
Se1 Si1 2.266520 1_555
Se2 Si3 2.273611 1_555
Se3 Si0 2.273611 1_555
Se4 Si1 2.273611 1_555
Se5 Si3 2.300341 1_555
Se6 Si3 2.266520 1_555
Se7 Si0 2.252217 1_665
Se8 Si0 2.266520 1_555
Se9 Si2 2.252217 1_445
Se10 Si2 2.266520 1_555
Se11 Si1 2.300341 1_555
Se12 Si2 2.273611 1_555
Se13 Si2 2.300341 1_555
Se14 Si0 2.300341 1_555
Se15 Si1 2.252217 1_545
