# generated using pymatgen
data_Sc6Ti7Ga9Ir7
_symmetry_space_group_name_H-M   'P 1'
_cell_length_a   8.85197782
_cell_length_b   8.85197807
_cell_length_c   8.85197868
_cell_angle_alpha   59.27709016
_cell_angle_beta   59.27708883
_cell_angle_gamma   59.27708698
_symmetry_Int_Tables_number   1
_chemical_formula_structural   Sc6Ti7Ga9Ir7
_chemical_formula_sum   'Sc6 Ti7 Ga9 Ir7'
_cell_volume   482.38823565
_cell_formula_units_Z   1
loop_
 _symmetry_equiv_pos_site_id
 _symmetry_equiv_pos_as_xyz
  1  'x, y, z'
loop_
 _atom_site_type_symbol
 _atom_site_label
 _atom_site_symmetry_multiplicity
 _atom_site_fract_x
 _atom_site_fract_y
 _atom_site_fract_z
 _atom_site_occupancy
  Sc  Sc0  1  0.69675069  0.69675069  0.30564172  1
  Sc  Sc1  1  0.29645109  0.71213913  0.29645109  1
  Sc  Sc2  1  0.71213913  0.29645109  0.29645109  1
  Sc  Sc3  1  0.29645109  0.29645109  0.71213913  1
  Sc  Sc4  1  0.69675069  0.30564172  0.69675069  1
  Sc  Sc5  1  0.30564172  0.69675069  0.69675069  1
  Ti  Ti0  1  0.87829687  0.87829687  0.36796548  1
  Ti  Ti1  1  0.87829687  0.36796548  0.87829687  1
  Ti  Ti2  1  0.36796548  0.87829687  0.87829687  1
  Ti  Ti3  1  0.87514004  0.87514004  0.87514004  1
  Ti  Ti4  1  0.12327451  0.12327451  0.63120560  1
  Ti  Ti5  1  0.12327451  0.63120560  0.12327451  1
  Ti  Ti6  1  0.63120560  0.12327451  0.12327451  1
  Ga  Ga0  1  0.11528185  0.11528185  0.11528185  1
  Ga  Ga1  1  0.65869487  0.65869487  0.02325173  1
  Ga  Ga2  1  0.65869487  0.02325173  0.65869487  1
  Ga  Ga3  1  0.02325173  0.65869487  0.65869487  1
  Ga  Ga4  1  0.65560708  0.65560708  0.65560708  1
  Ga  Ga5  1  0.33750937  0.33750937  0.99012566  1
  Ga  Ga6  1  0.33750937  0.99012566  0.33750937  1
  Ga  Ga7  1  0.99012566  0.33750937  0.33750937  1
  Ga  Ga8  1  0.33770516  0.33770516  0.33770516  1
  Ir  Ir0  1  0.99435839  0.99435839  0.99435839  1
  Ir  Ir1  1  0.00057825  0.00057825  0.50281520  1
  Ir  Ir2  1  0.50164569  0.00236027  0.50164569  1
  Ir  Ir3  1  0.00236027  0.50164569  0.50164569  1
  Ir  Ir4  1  0.50164569  0.50164569  0.00236027  1
  Ir  Ir5  1  0.00057825  0.50281520  0.00057825  1
  Ir  Ir6  1  0.50281520  0.00057825  0.00057825  1
loop_
_geom_bond_atom_site_label_1
_geom_bond_atom_site_label_2
_geom_bond_distance
_geom_bond_site_symmetry_2
Sc0 Ti5 3.112666 1_655
Sc0 Ti6 3.112666 1_565
Sc0 Ti3 3.124068 1_554
Sc0 Ti0 3.149624 1_555
Sc0 Sc5 3.424190 1_555
Sc0 Sc4 3.424190 1_555
Sc0 Sc1 3.517272 1_555
Sc0 Sc2 3.517272 1_555
Sc1 Ti0 3.042938 1_455
Sc1 Ti2 3.042938 1_554
Sc1 Ti5 3.139840 1_555
Sc1 Sc5 3.517273 1_555
Sc1 Sc2 3.639381 1_555
Sc1 Sc3 3.639382 1_555
Sc2 Ti0 3.042938 1_545
Sc2 Ti1 3.042938 1_554
Sc2 Ti6 3.139840 1_555
Sc2 Sc4 3.517273 1_555
Sc2 Sc3 3.639382 1_555
Sc3 Ti1 3.042938 1_455
Sc3 Ti2 3.042938 1_545
Sc3 Ti4 3.139840 1_555
Sc3 Sc4 3.517272 1_555
Sc3 Sc5 3.517272 1_555
Sc4 Ti4 3.112666 1_655
Sc4 Ti6 3.112666 1_556
Sc4 Ti3 3.124068 1_545
Sc4 Ti1 3.149624 1_555
Sc4 Sc5 3.424190 1_555
Sc5 Ti4 3.112666 1_565
Sc5 Ti5 3.112666 1_556
Sc5 Ti3 3.124068 1_455
Sc5 Ti2 3.149624 1_555
Ti0 Ti5 3.061562 1_655
Ti0 Ti6 3.061562 1_565
Ti1 Ti6 3.061562 1_556
Ti1 Ti4 3.061562 1_655
Ti2 Ti5 3.061562 1_556
Ti2 Ti4 3.061562 1_565
Ti3 Ti4 3.090137 1_665
Ti3 Ti6 3.090137 1_566
Ti3 Ti5 3.090137 1_656
Ga0 Ir0 2.636197 1_444
Ga0 Ir6 2.786625 1_555
Ga0 Ir5 2.786625 1_555
Ga0 Ir1 2.786626 1_555
Ga0 Ga5 2.909826 1_554
Ga0 Ga6 2.909826 1_545
Ga0 Ga7 2.909826 1_455
Ga0 Ti2 2.951645 1_544
Ga0 Ti0 2.951645 1_445
Ga0 Ti1 2.951645 1_454
Ga0 Sc2 2.968396 1_455
Ga0 Sc1 2.968396 1_545
Ga0 Sc3 2.968396 1_554
Ga1 Ir4 2.529741 1_555
Ga1 Ir5 2.549225 1_655
Ga1 Ir6 2.549225 1_565
Ga1 Ti3 2.770973 1_554
Ga1 Ti2 2.786059 1_554
Ga1 Ti1 2.786059 1_554
Ga1 Sc1 2.837230 1_555
Ga1 Sc2 2.837230 1_555
Ga1 Sc0 2.883103 1_555
Ga2 Ir2 2.529741 1_555
Ga2 Ir1 2.549225 1_655
Ga2 Ir6 2.549225 1_556
Ga2 Ti3 2.770973 1_545
Ga2 Ti2 2.786059 1_545
Ga2 Ti0 2.786060 1_545
Ga2 Sc3 2.837230 1_555
Ga2 Sc2 2.837230 1_555
Ga2 Sc4 2.883103 1_555
Ga3 Ir3 2.529741 1_555
Ga3 Ir1 2.549225 1_565
Ga3 Ir5 2.549225 1_556
Ga3 Ti3 2.770973 1_455
Ga3 Ti1 2.786059 1_455
Ga3 Ti0 2.786060 1_455
Ga3 Sc3 2.837230 1_555
Ga3 Sc1 2.837230 1_555
Ga3 Sc5 2.883103 1_555
Ga4 Ir3 2.546666 1_655
Ga4 Ir2 2.546667 1_565
Ga4 Ir4 2.546667 1_556
Ga4 Sc5 2.773458 1_555
Ga4 Sc4 2.773458 1_555
Ga4 Sc0 2.773458 1_555
Ga4 Ti2 2.822804 1_555
Ga4 Ti1 2.822804 1_555
Ga4 Ti0 2.822804 1_555
Ga5 Ir5 2.538149 1_556
Ga5 Ir6 2.538149 1_556
Ga5 Ir4 2.590806 1_556
Ga5 Ti6 2.748440 1_556
Ga5 Ti5 2.748440 1_556
Ga5 Sc3 2.877845 1_555
Ga5 Sc4 2.886164 1_555
Ga5 Sc5 2.886164 1_555
Ga5 Ga7 3.041372 1_456
Ga5 Ga6 3.041372 1_546
Ga5 Ga8 3.078538 1_556
Ga6 Ir1 2.538149 1_565
Ga6 Ir6 2.538149 1_565
Ga6 Ir2 2.590807 1_565
Ga6 Ti6 2.748440 1_565
Ga6 Ti4 2.748440 1_565
Ga6 Sc1 2.877844 1_555
Ga6 Sc0 2.886164 1_555
Ga6 Sc5 2.886164 1_555
Ga6 Ga7 3.041372 1_465
Ga6 Ga8 3.078538 1_565
Ga7 Ir1 2.538149 1_655
Ga7 Ir5 2.538149 1_655
Ga7 Ir3 2.590807 1_655
Ga7 Ti5 2.748440 1_655
Ga7 Ti4 2.748440 1_655
Ga7 Sc2 2.877844 1_555
Ga7 Sc0 2.886164 1_555
Ga7 Sc4 2.886164 1_555
Ga7 Ga8 3.078538 1_655
Ga8 Ir3 2.524344 1_555
Ga8 Ir2 2.524344 1_555
Ga8 Ir4 2.524344 1_555
Ga8 Ti6 2.749441 1_555
Ga8 Ti5 2.749441 1_555
Ga8 Ti4 2.749441 1_555
Ga8 Sc2 2.985848 1_555
Ga8 Sc1 2.985848 1_555
Ga8 Sc3 2.985848 1_555
Ir0 Ti3 2.599024 1_555
Ir0 Ti6 2.602372 1_566
Ir0 Ti5 2.602372 1_656
Ir0 Ti4 2.602372 1_665
Ir0 Ti2 2.680196 1_655
Ir0 Ti1 2.680196 1_565
Ir0 Ti0 2.680196 1_556
Ir1 Ti3 2.666361 1_445
Ir1 Ti4 2.716375 1_555
Ir1 Ti0 2.757864 1_445
Ir1 Sc1 3.124097 1_545
Ir1 Sc2 3.124097 1_455
Ir1 Sc4 3.173480 1_455
Ir1 Sc5 3.173480 1_545
Ir2 Ti0 2.697762 1_545
Ir2 Ti2 2.697763 1_545
Ir2 Ti4 2.710235 1_555
Ir2 Ti6 2.710235 1_555
Ir2 Sc2 3.196060 1_555
Ir2 Sc3 3.196060 1_555
Ir2 Sc5 3.204947 1_545
Ir2 Sc0 3.204947 1_545
Ir3 Ti0 2.697763 1_455
Ir3 Ti1 2.697763 1_455
Ir3 Ti4 2.710235 1_555
Ir3 Ti5 2.710235 1_555
Ir3 Sc1 3.196060 1_555
Ir3 Sc3 3.196060 1_555
Ir3 Sc4 3.204947 1_455
Ir3 Sc0 3.204947 1_455
Ir4 Ti1 2.697762 1_554
Ir4 Ti2 2.697763 1_554
Ir4 Ti5 2.710235 1_555
Ir4 Ti6 2.710235 1_555
Ir4 Sc1 3.196060 1_555
Ir4 Sc2 3.196060 1_555
Ir4 Sc4 3.204947 1_554
Ir4 Sc5 3.204947 1_554
Ir5 Ti3 2.666361 1_454
Ir5 Ti5 2.716375 1_555
Ir5 Ti1 2.757864 1_454
Ir5 Sc3 3.124097 1_554
Ir5 Sc2 3.124097 1_455
Ir5 Sc5 3.173480 1_554
Ir5 Sc0 3.173480 1_455
Ir6 Ti3 2.666360 1_544
Ir6 Ti6 2.716375 1_555
Ir6 Ti2 2.757864 1_544
Ir6 Sc1 3.124097 1_545
Ir6 Sc3 3.124097 1_554
Ir6 Sc4 3.173480 1_554
Ir6 Sc0 3.173480 1_545
