# generated using pymatgen
data_Ba4Cd(IO6)2
_symmetry_space_group_name_H-M   'P 1'
_cell_length_a   10.12506537
_cell_length_b   10.12506486
_cell_length_c   10.12506506
_cell_angle_alpha   33.53695416
_cell_angle_beta   33.53695821
_cell_angle_gamma   33.53695471
_symmetry_Int_Tables_number   1
_chemical_formula_structural   Ba4Cd(IO6)2
_chemical_formula_sum   'Ba4 Cd1 I2 O12'
_cell_volume   282.19330158
_cell_formula_units_Z   1
loop_
 _symmetry_equiv_pos_site_id
 _symmetry_equiv_pos_as_xyz
  1  'x, y, z'
loop_
 _atom_site_type_symbol
 _atom_site_label
 _atom_site_symmetry_multiplicity
 _atom_site_fract_x
 _atom_site_fract_y
 _atom_site_fract_z
 _atom_site_occupancy
  Ba  Ba0  1  0.71083477  0.71083477  0.71083477  1
  Ba  Ba1  1  0.28916523  0.28916523  0.28916523  1
  Ba  Ba2  1  0.86549867  0.86549867  0.86549867  1
  Ba  Ba3  1  0.13450133  0.13450133  0.13450133  1
  Cd  Cd0  1  0.00000000  0.00000000  0.00000000  1
  I  I0  1  0.58097588  0.58097588  0.58097588  1
  I  I1  1  0.41902412  0.41902412  0.41902412  1
  O  O0  1  0.22764743  0.68144744  0.22764743  1
  O  O1  1  0.22764743  0.22764743  0.68144744  1
  O  O2  1  0.68144744  0.22764743  0.22764743  1
  O  O3  1  0.77235257  0.31855256  0.77235257  1
  O  O4  1  0.77235257  0.77235257  0.31855256  1
  O  O5  1  0.31855256  0.77235257  0.77235257  1
  O  O6  1  0.39045071  0.85977159  0.39045071  1
  O  O7  1  0.39045071  0.39045071  0.85977159  1
  O  O8  1  0.85977159  0.39045071  0.39045071  1
  O  O9  1  0.60954929  0.14022841  0.60954929  1
  O  O10  1  0.60954929  0.60954929  0.14022841  1
  O  O11  1  0.14022841  0.60954929  0.60954929  1
loop_
_geom_bond_atom_site_label_1
_geom_bond_atom_site_label_2
_geom_bond_distance
_geom_bond_site_symmetry_2
Ba0 O9 2.809465 1_565
Ba0 O10 2.809465 1_556
Ba0 O11 2.809465 1_655
Ba0 O2 2.925566 1_565
Ba0 O2 2.925566 1_556
Ba0 O1 2.925566 1_565
Ba0 O1 2.925566 1_655
Ba0 O0 2.925566 1_556
Ba0 O0 2.925566 1_655
Ba0 O3 2.991661 1_555
Ba0 O4 2.991661 1_555
Ba0 O5 2.991662 1_555
Ba1 O6 2.809465 1_545
Ba1 O7 2.809465 1_554
Ba1 O8 2.809465 1_455
Ba1 O5 2.925566 1_545
Ba1 O5 2.925566 1_554
Ba1 O4 2.925566 1_545
Ba1 O4 2.925566 1_455
Ba1 O3 2.925566 1_554
Ba1 O3 2.925566 1_455
Ba1 O0 2.991661 1_555
Ba1 O1 2.991661 1_555
Ba1 O2 2.991662 1_555
Ba2 O9 2.886281 1_565
Ba2 O11 2.886281 1_655
Ba2 O10 2.886281 1_556
Ba2 O8 2.953234 1_565
Ba2 O8 2.953234 1_556
Ba2 O7 2.953234 1_565
Ba2 O7 2.953234 1_655
Ba2 O6 2.953235 1_556
Ba2 O6 2.953235 1_655
Ba2 O3 3.143233 1_565
Ba2 O4 3.143233 1_556
Ba2 O5 3.143233 1_655
Ba3 O6 2.886281 1_545
Ba3 O8 2.886281 1_455
Ba3 O7 2.886281 1_554
Ba3 O11 2.953234 1_545
Ba3 O11 2.953234 1_554
Ba3 O10 2.953234 1_545
Ba3 O10 2.953234 1_455
Ba3 O9 2.953235 1_554
Ba3 O9 2.953235 1_455
Ba3 O0 3.143233 1_545
Ba3 O1 3.143233 1_554
Ba3 O2 3.143233 1_455
Cd0 O0 2.257969 1_545
Cd0 O3 2.257969 1_454
Cd0 O2 2.257970 1_455
Cd0 O5 2.257970 1_544
Cd0 O1 2.257970 1_554
Cd0 O4 2.257970 1_445
I0 O6 1.859827 1_555
I0 O8 1.859827 1_555
I0 O7 1.859827 1_555
I0 O3 1.913800 1_555
I0 O5 1.913800 1_555
I0 O4 1.913800 1_555
I1 O9 1.859827 1_555
I1 O11 1.859827 1_555
I1 O10 1.859827 1_555
I1 O0 1.913800 1_555
I1 O2 1.913800 1_555
I1 O1 1.913800 1_555
