# generated using pymatgen
data_IrRh7S16
_symmetry_space_group_name_H-M   'P 1'
_cell_length_a   3.54695898
_cell_length_b   5.66910074
_cell_length_c   19.95368409
_cell_angle_alpha   89.94653602
_cell_angle_beta   90.00000000
_cell_angle_gamma   90.00000000
_symmetry_Int_Tables_number   1
_chemical_formula_structural   IrRh7S16
_chemical_formula_sum   'Ir1 Rh7 S16'
_cell_volume   401.22985710
_cell_formula_units_Z   1
loop_
 _symmetry_equiv_pos_site_id
 _symmetry_equiv_pos_as_xyz
  1  'x, y, z'
loop_
 _atom_site_type_symbol
 _atom_site_label
 _atom_site_symmetry_multiplicity
 _atom_site_fract_x
 _atom_site_fract_y
 _atom_site_fract_z
 _atom_site_occupancy
  Ir  Ir0  1  0.25000000  0.57651246  0.07694434  1
  Rh  Rh0  1  0.25000000  0.94771083  0.80362252  1
  Rh  Rh1  1  0.75000000  0.05310310  0.19647633  1
  Rh  Rh2  1  0.75000000  0.44753205  0.69594754  1
  Rh  Rh3  1  0.25000000  0.55392826  0.30424805  1
  Rh  Rh4  1  0.25000000  0.92121677  0.57598981  1
  Rh  Rh5  1  0.75000000  0.07900610  0.42396066  1
  Rh  Rh6  1  0.75000000  0.42016785  0.92379517  1
  S  S0  1  0.25000000  0.22325507  0.49286012  1
  S  S1  1  0.75000000  0.77693874  0.50719262  1
  S  S2  1  0.75000000  0.72280724  0.00718059  1
  S  S3  1  0.25000000  0.27595287  0.99277265  1
  S  S4  1  0.25000000  0.17037791  0.26679258  1
  S  S5  1  0.75000000  0.83156936  0.73295550  1
  S  S6  1  0.75000000  0.67105404  0.23419026  1
  S  S7  1  0.25000000  0.33157447  0.76664182  1
  S  S8  1  0.25000000  0.94117726  0.35603347  1
  S  S9  1  0.75000000  0.05974070  0.64417327  1
  S  S10  1  0.75000000  0.43961357  0.14253387  1
  S  S11  1  0.25000000  0.55906656  0.85549786  1
  S  S12  1  0.25000000  0.54386222  0.62275053  1
  S  S13  1  0.75000000  0.45647952  0.37740466  1
  S  S14  1  0.75000000  0.04384263  0.87670496  1
  S  S15  1  0.25000000  0.95350942  0.12333382  1
loop_
_geom_bond_atom_site_label_1
_geom_bond_atom_site_label_2
_geom_bond_distance
_geom_bond_site_symmetry_2
Ir0 S15 2.329865 1_555
Ir0 S10 2.336341 1_455
Ir0 S10 2.336341 1_555
Ir0 S3 2.393630 1_554
Ir0 S2 2.401812 1_455
Ir0 S2 2.401812 1_555
Rh0 S7 2.297212 1_565
Rh0 S5 2.359823 1_455
Rh0 S5 2.359823 1_555
Rh0 S14 2.360138 1_565
Rh0 S14 2.360138 1_465
Rh0 S11 2.433424 1_555
Rh1 S6 2.292221 1_545
Rh1 S4 2.357453 1_555
Rh1 S4 2.357453 1_655
Rh1 S15 2.365498 1_645
Rh1 S15 2.365498 1_545
Rh1 S10 2.440357 1_555
Rh2 S5 2.299623 1_555
Rh2 S7 2.359124 1_655
Rh2 S7 2.359124 1_555
Rh2 S12 2.361182 1_555
Rh2 S12 2.361182 1_655
Rh2 S9 2.429937 1_555
Rh3 S4 2.299903 1_555
Rh3 S6 2.353411 1_555
Rh3 S6 2.353411 1_455
Rh3 S13 2.362155 1_455
Rh3 S13 2.362155 1_555
Rh3 S8 2.427250 1_555
Rh4 S12 2.333086 1_555
Rh4 S9 2.369582 1_565
Rh4 S9 2.369582 1_465
Rh4 S0 2.382866 1_565
Rh4 S1 2.387633 1_455
Rh4 S1 2.387633 1_555
Rh5 S13 2.332077 1_555
Rh5 S8 2.365342 1_645
Rh5 S8 2.365342 1_545
Rh5 S1 2.384404 1_545
Rh5 S0 2.388751 1_555
Rh5 S0 2.388751 1_655
Rh6 S14 2.331981 1_555
Rh6 S11 2.370749 1_555
Rh6 S11 2.370749 1_655
Rh6 S3 2.388703 1_655
Rh6 S3 2.388703 1_555
Rh6 S2 2.391091 1_556
S4 S8 2.203375 1_545
S5 S9 2.192547 1_565
S10 S6 2.251841 1_555
S11 S7 2.193417 1_555
