# generated using pymatgen
data_Zr10GaBi5S
_symmetry_space_group_name_H-M   'P 1'
_cell_length_a   8.57596542
_cell_length_b   8.63367723
_cell_length_c   5.87624208
_cell_angle_alpha   90.00460163
_cell_angle_beta   89.99072821
_cell_angle_gamma   119.77913128
_symmetry_Int_Tables_number   1
_chemical_formula_structural   Zr10GaBi5S
_chemical_formula_sum   'Zr10 Ga1 Bi5 S1'
_cell_volume   377.63428179
_cell_formula_units_Z   1
loop_
 _symmetry_equiv_pos_site_id
 _symmetry_equiv_pos_as_xyz
  1  'x, y, z'
loop_
 _atom_site_type_symbol
 _atom_site_label
 _atom_site_symmetry_multiplicity
 _atom_site_fract_x
 _atom_site_fract_y
 _atom_site_fract_z
 _atom_site_occupancy
  Zr  Zr0  1  0.00340987  0.75672661  0.24001037  1
  Zr  Zr1  1  0.24668327  0.24327339  0.24001037  1
  Zr  Zr2  1  0.75586463  0.00000000  0.23095014  1
  Zr  Zr3  1  0.98143005  0.23556948  0.76193449  1
  Zr  Zr4  1  0.74586057  0.76443052  0.76193449  1
  Zr  Zr5  1  0.25573086  0.00000000  0.75831856  1
  Zr  Zr6  1  0.34143415  0.67660295  0.50445007  1
  Zr  Zr7  1  0.66483221  0.32339705  0.50445007  1
  Zr  Zr8  1  0.66554543  0.32608180  0.99569349  1
  Zr  Zr9  1  0.33946263  0.67391820  0.99569349  1
  Ga  Ga0  1  0.60292866  1.00000000  0.75437193  1
  Bi  Bi0  1  0.00297338  0.39612367  0.25060945  1
  Bi  Bi1  1  0.60684971  0.60387633  0.25060945  1
  Bi  Bi2  1  0.40086516  0.00000000  0.24821985  1
  Bi  Bi3  1  0.99720373  0.60902665  0.75061715  1
  Bi  Bi4  1  0.38817708  0.39097335  0.75061715  1
  S  S0  1  0.00074962  0.00000000  0.50150849  1
loop_
_geom_bond_atom_site_label_1
_geom_bond_atom_site_label_2
_geom_bond_distance
_geom_bond_site_symmetry_2
Ga0 Zr3 2.849100 1_565
Ga0 Zr4 2.849100 1_555
Ga0 Zr8 2.953474 1_565
Ga0 Zr9 2.953476 1_555
Ga0 Zr7 2.960155 1_565
Ga0 Zr6 2.960157 1_555
Ga0 Zr5 2.977643 1_565
Ga0 Zr2 3.092596 1_566
Ga0 Zr2 3.343528 1_565
Bi0 Zr1 2.975456 1_555
Bi0 Zr2 3.000261 1_455
Bi0 Zr7 3.036222 1_455
Bi0 Zr8 3.040802 1_454
Bi0 Zr9 3.073737 1_554
Bi0 Zr6 3.087570 1_555
Bi0 Zr0 3.112100 1_555
Bi0 Zr3 3.153836 1_454
Bi0 Zr3 3.275630 1_455
Bi1 Zr0 2.975456 1_655
Bi1 Zr2 3.000261 1_565
Bi1 Zr6 3.036230 1_555
Bi1 Zr9 3.040809 1_554
Bi1 Zr8 3.073742 1_554
Bi1 Zr7 3.087575 1_555
Bi1 Zr1 3.112100 1_555
Bi1 Zr4 3.153836 1_554
Bi1 Zr4 3.275630 1_555
Bi2 Zr6 2.984884 1_545
Bi2 Zr7 2.984887 1_555
Bi2 Zr0 2.986772 1_545
Bi2 Zr1 2.986773 1_555
Bi2 Zr9 2.988662 1_544
Bi2 Zr8 2.988664 1_554
Bi2 Zr2 3.046138 1_555
Bi2 Zr5 3.136514 1_554
Bi2 Zr5 3.245424 1_555
Bi3 Zr5 2.979595 1_665
Bi3 Zr8 3.037925 1_555
Bi3 Zr7 3.052402 1_555
Bi3 Zr4 3.053440 1_555
Bi3 Zr9 3.061214 1_655
Bi3 Zr6 3.071761 1_655
Bi3 Zr0 3.135471 1_656
Bi3 Zr3 3.160011 1_555
Bi3 Zr0 3.250353 1_655
Bi4 Zr5 2.979595 1_555
Bi4 Zr9 3.037930 1_555
Bi4 Zr6 3.052407 1_555
Bi4 Zr3 3.053440 1_455
Bi4 Zr8 3.061221 1_555
Bi4 Zr7 3.071769 1_555
Bi4 Zr1 3.135471 1_556
Bi4 Zr4 3.160011 1_555
Bi4 Zr1 3.250353 1_555
S0 Zr1 2.611561 1_555
S0 Zr0 2.611561 1_545
S0 Zr4 2.615331 1_445
S0 Zr3 2.615331 1_455
S0 Zr2 2.634252 1_455
S0 Zr5 2.657082 1_555
