# generated using pymatgen
data_K6LuFeF12
_symmetry_space_group_name_H-M   'P 1'
_cell_length_a   6.39836960
_cell_length_b   6.10852265
_cell_length_c   10.62725278
_cell_angle_alpha   55.46209253
_cell_angle_beta   89.91038329
_cell_angle_gamma   90.18553195
_symmetry_Int_Tables_number   1
_chemical_formula_structural   K6LuFeF12
_chemical_formula_sum   'K6 Lu1 Fe1 F12'
_cell_volume   342.15007747
_cell_formula_units_Z   1
loop_
 _symmetry_equiv_pos_site_id
 _symmetry_equiv_pos_as_xyz
  1  'x, y, z'
loop_
 _atom_site_type_symbol
 _atom_site_label
 _atom_site_symmetry_multiplicity
 _atom_site_fract_x
 _atom_site_fract_y
 _atom_site_fract_z
 _atom_site_occupancy
  K  K0  1  0.50000000  0.50000000  0.00000000  1
  K  K1  1  0.00000000  0.50000000  0.50000000  1
  K  K2  1  0.05741236  0.74097458  0.74005762  1
  K  K3  1  0.94258764  0.25902542  0.25994238  1
  K  K4  1  0.55264327  0.28204684  0.73398400  1
  K  K5  1  0.44735673  0.71795316  0.26601600  1
  Lu  Lu0  1  0.00000000  0.00000000  0.00000000  1
  Fe  Fe0  1  0.50000000  0.00000000  0.50000000  1
  F  F0  1  0.74976152  0.77824654  0.55419492  1
  F  F1  1  0.25023848  0.22175346  0.44580508  1
  F  F2  1  0.27023335  0.24007572  0.92425930  1
  F  F3  1  0.72976665  0.75992428  0.07574070  1
  F  F4  1  0.46039730  0.88161776  0.71070256  1
  F  F5  1  0.53960270  0.11838224  0.28929744  1
  F  F6  1  0.94475105  0.11026199  0.77625921  1
  F  F7  1  0.05524895  0.88973801  0.22374079  1
  F  F8  1  0.32666717  0.70475765  0.53798637  1
  F  F9  1  0.67333283  0.29524235  0.46201363  1
  F  F10  1  0.82717744  0.33239092  0.94751779  1
  F  F11  1  0.17282256  0.66760908  0.05248221  1
loop_
_geom_bond_atom_site_label_1
_geom_bond_atom_site_label_2
_geom_bond_distance
_geom_bond_site_symmetry_2
F0 Fe0 1.962829 1_565
F0 K1 2.628483 1_655
F0 K2 2.708003 1_655
F0 K4 2.798127 1_555
F0 K3 3.078462 1_565
F1 Fe0 1.962829 1_555
F1 K1 2.628483 1_555
F1 K3 2.708003 1_455
F1 K5 2.798127 1_555
F1 K2 3.078462 1_545
F2 Lu0 2.104497 1_556
F2 K0 2.601511 1_556
F2 K4 2.611029 1_555
F2 K2 2.879586 1_555
F3 Lu0 2.104497 1_665
F3 K0 2.601511 1_555
F3 K5 2.611029 1_555
F3 K3 2.879586 1_555
F4 Fe0 1.939607 1_565
F4 K0 2.613467 1_556
F4 K4 2.658943 1_565
F4 K2 2.676384 1_555
F5 Fe0 1.939607 1_555
F5 K0 2.613467 1_555
F5 K5 2.658943 1_545
F5 K3 2.676384 1_555
F6 Lu0 2.102506 1_656
F6 K1 2.545203 1_655
F6 K2 2.598077 1_645
F6 K4 2.661451 1_555
F7 Lu0 2.102506 1_565
F7 K1 2.545203 1_555
F7 K3 2.598077 1_465
F7 K5 2.661451 1_555
F8 Fe0 1.950807 1_565
F8 K1 2.579593 1_555
F8 K4 2.651714 1_555
F8 K2 2.856247 1_555
F8 K5 2.947047 1_555
F9 Fe0 1.950807 1_555
F9 K1 2.579593 1_655
F9 K5 2.651714 1_555
F9 K3 2.856247 1_555
F9 K4 2.947047 1_555
F10 Lu0 2.094949 1_656
F10 K0 2.529703 1_556
F10 K2 2.643241 1_655
F10 K4 3.021592 1_555
F10 K3 3.176879 1_556
F11 Lu0 2.094949 1_565
F11 K0 2.529703 1_555
F11 K3 2.643241 1_455
F11 K5 3.021592 1_555
F11 K2 3.176879 1_554
