# generated using pymatgen
data_Cs4Ba(TaS4)2
_symmetry_space_group_name_H-M   'P 1'
_cell_length_a   12.21513515
_cell_length_b   12.21513553
_cell_length_c   12.21513519
_cell_angle_alpha   132.61153563
_cell_angle_beta   128.32467648
_cell_angle_gamma   72.71402718
_symmetry_Int_Tables_number   1
_chemical_formula_structural   Cs4Ba(TaS4)2
_chemical_formula_sum   'Cs8 Ba2 Ta4 S16'
_cell_volume   1028.28481784
_cell_formula_units_Z   2
loop_
 _symmetry_equiv_pos_site_id
 _symmetry_equiv_pos_as_xyz
  1  'x, y, z'
loop_
 _atom_site_type_symbol
 _atom_site_label
 _atom_site_symmetry_multiplicity
 _atom_site_fract_x
 _atom_site_fract_y
 _atom_site_fract_z
 _atom_site_occupancy
  Cs  Cs0  1  0.50378357  0.25378357  0.25000000  1
  Cs  Cs1  1  0.99621643  0.74621643  0.25000000  1
  Cs  Cs2  1  0.57901875  0.70383779  0.12482004  1
  Cs  Cs3  1  0.42098125  0.29616221  0.87517996  1
  Cs  Cs4  1  0.49621643  0.74621643  0.75000000  1
  Cs  Cs5  1  0.07901875  0.45419871  0.37517996  1
  Cs  Cs6  1  0.92098125  0.54580129  0.62482004  1
  Cs  Cs7  1  0.00378357  0.25378357  0.75000000  1
  Ba  Ba0  1  0.25000000  0.00000000  0.25000000  1
  Ba  Ba1  1  0.75000000  0.00000000  0.75000000  1
  Ta  Ta0  1  0.12829124  0.92811485  0.79982361  1
  Ta  Ta1  1  0.87170876  0.07188515  0.20017639  1
  Ta  Ta2  1  0.37170876  0.67153337  0.29982361  1
  Ta  Ta3  1  0.62829124  0.32846663  0.70017639  1
  S  S0  1  0.59303378  0.62448940  0.38106572  1
  S  S1  1  0.75801296  0.99520157  0.23718961  1
  S  S2  1  0.89783985  0.87139368  0.97355283  1
  S  S3  1  0.75657532  0.37551060  0.96854339  1
  S  S4  1  0.74342468  0.21196806  0.11893428  1
  S  S5  1  0.74198704  0.47917665  0.73718961  1
  S  S6  1  0.24198704  0.00479843  0.76281039  1
  S  S7  1  0.24342468  0.62448940  0.03145661  1
  S  S8  1  0.25801296  0.52082335  0.26281039  1
  S  S9  1  0.25657532  0.78803194  0.88106572  1
  S  S10  1  0.10216015  0.12860632  0.02644717  1
  S  S11  1  0.90696622  0.78803194  0.53145661  1
  S  S12  1  0.09303378  0.21196806  0.46854339  1
  S  S13  1  0.60216015  0.07571298  0.47355283  1
  S  S14  1  0.40696622  0.37551060  0.61893428  1
  S  S15  1  0.39783985  0.92428702  0.52644717  1
loop_
_geom_bond_atom_site_label_1
_geom_bond_atom_site_label_2
_geom_bond_distance
_geom_bond_site_symmetry_2
Cs0 S5 3.544220 1_555
Cs0 S6 3.544220 1_554
Cs0 S8 3.707997 1_555
Cs0 S1 3.708004 1_545
Cs0 S0 3.899902 1_555
Cs0 S4 3.899914 1_555
Cs0 S13 4.006469 1_555
Cs0 S10 4.006472 1_555
Cs1 S1 3.544212 1_555
Cs1 S8 3.544220 1_655
Cs1 S6 3.707996 1_665
Cs1 S5 3.707997 1_554
Cs1 S3 3.899904 1_554
Cs1 S11 3.899914 1_555
Cs1 S15 4.006469 1_655
Cs1 S2 4.006479 1_554
Cs2 S13 3.453811 1_565
Cs2 S11 3.553968 1_555
Cs2 S9 3.553978 1_554
Cs2 S1 3.690394 1_555
Cs2 S3 3.745900 1_554
Cs2 S14 3.745911 1_554
Cs2 S7 3.756446 1_555
Cs2 S0 3.756446 1_555
Cs3 S15 3.453811 1_545
Cs3 S12 3.553968 1_555
Cs3 S4 3.553978 1_556
Cs3 S6 3.690394 1_555
Cs3 S7 3.745900 1_556
Cs3 S0 3.745911 1_556
Cs3 S3 3.756446 1_555
Cs3 S14 3.756446 1_555
Cs4 S8 3.544220 1_555
Cs4 S1 3.544220 1_556
Cs4 S5 3.707997 1_555
Cs4 S6 3.708004 1_565
Cs4 S14 3.899902 1_555
Cs4 S9 3.899914 1_555
Cs4 S15 4.006469 1_555
Cs4 S2 4.006472 1_555
Cs5 S10 3.453809 1_555
Cs5 S14 3.553966 1_555
Cs5 S3 3.553976 1_454
Cs5 S8 3.690394 1_555
Cs5 S9 3.745914 1_555
Cs5 S11 3.745914 1_455
Cs5 S4 3.756446 1_455
Cs5 S12 3.756446 1_555
Cs6 S2 3.453809 1_555
Cs6 S0 3.553966 1_555
Cs6 S7 3.553976 1_656
Cs6 S5 3.690394 1_555
Cs6 S4 3.745914 1_555
Cs6 S12 3.745914 1_655
Cs6 S9 3.756446 1_655
Cs6 S11 3.756446 1_555
Cs7 S6 3.544212 1_555
Cs7 S5 3.544220 1_455
Cs7 S1 3.707996 1_445
Cs7 S8 3.707997 1_556
Cs7 S7 3.899904 1_556
Cs7 S12 3.899914 1_555
Cs7 S13 4.006469 1_455
Cs7 S10 4.006479 1_556
Ba0 S10 3.345530 1_555
Ba0 S2 3.345539 1_444
Ba0 S13 3.345541 1_555
Ba0 S15 3.345541 1_545
Ba0 S9 3.397847 1_544
Ba0 S12 3.397847 1_555
Ba0 S14 3.397855 1_555
Ba0 S7 3.397858 1_545
Ba1 S2 3.345530 1_545
Ba1 S10 3.345539 1_656
Ba1 S15 3.345541 1_545
Ba1 S13 3.345541 1_555
Ba1 S4 3.397847 1_556
Ba1 S11 3.397847 1_545
Ba1 S0 3.397855 1_545
Ba1 S3 3.397858 1_555
S0 Ta2 2.268370 1_555
S1 Ta1 2.266255 1_565
S2 Ta1 2.283490 1_566
S3 Ta3 2.268353 1_555
S4 Ta1 2.268365 1_555
S5 Ta3 2.266257 1_555
S6 Ta0 2.266255 1_545
S7 Ta2 2.268353 1_555
S8 Ta2 2.266257 1_555
S9 Ta0 2.268365 1_555
S10 Ta0 2.283490 1_544
S11 Ta0 2.268365 1_655
S12 Ta1 2.268365 1_455
S13 Ta3 2.283485 1_555
S14 Ta3 2.268370 1_555
S15 Ta2 2.283485 1_555
