# generated using pymatgen
data_CsSb(IO3)6
_symmetry_space_group_name_H-M   'P 1'
_cell_length_a   7.70238670
_cell_length_b   7.70238641
_cell_length_c   7.70238696
_cell_angle_alpha   97.48832588
_cell_angle_beta   97.48832498
_cell_angle_gamma   97.48832002
_symmetry_Int_Tables_number   1
_chemical_formula_structural   CsSb(IO3)6
_chemical_formula_sum   'Cs1 Sb1 I6 O18'
_cell_volume   444.12426348
_cell_formula_units_Z   1
loop_
 _symmetry_equiv_pos_site_id
 _symmetry_equiv_pos_as_xyz
  1  'x, y, z'
loop_
 _atom_site_type_symbol
 _atom_site_label
 _atom_site_symmetry_multiplicity
 _atom_site_fract_x
 _atom_site_fract_y
 _atom_site_fract_z
 _atom_site_occupancy
  Cs  Cs0  1  0.64072949  0.64072949  0.64072949  1
  Sb  Sb0  1  0.00103988  0.00103988  0.00103988  1
  I  I0  1  0.62790378  0.83697696  0.20031409  1
  I  I1  1  0.20031409  0.62790378  0.83697696  1
  I  I2  1  0.83697696  0.20031409  0.62790378  1
  I  I3  1  0.36565232  0.16391848  0.79473549  1
  I  I4  1  0.79473549  0.36565232  0.16391848  1
  I  I5  1  0.16391848  0.79473549  0.36565232  1
  O  O0  1  0.80287475  0.82786023  0.04618539  1
  O  O1  1  0.04618539  0.80287475  0.82786023  1
  O  O2  1  0.82786023  0.04618539  0.80287475  1
  O  O3  1  0.19308655  0.17317508  0.94946867  1
  O  O4  1  0.94946867  0.19308655  0.17317508  1
  O  O5  1  0.17317508  0.94946867  0.19308655  1
  O  O6  1  0.59645864  0.60088152  0.18724752  1
  O  O7  1  0.18724752  0.59645864  0.60088152  1
  O  O8  1  0.60088152  0.18724752  0.59645864  1
  O  O9  1  0.40168846  0.40104461  0.81604839  1
  O  O10  1  0.81604839  0.40168846  0.40104461  1
  O  O11  1  0.40104461  0.81604839  0.40168846  1
  O  O12  1  0.78837177  0.89949768  0.39890439  1
  O  O13  1  0.39890439  0.78837177  0.89949768  1
  O  O14  1  0.89949768  0.39890439  0.78837177  1
  O  O15  1  0.20588451  0.10199191  0.59761745  1
  O  O16  1  0.59761745  0.20588451  0.10199191  1
  O  O17  1  0.10199191  0.59761745  0.20588451  1
loop_
_geom_bond_atom_site_label_1
_geom_bond_atom_site_label_2
_geom_bond_distance
_geom_bond_site_symmetry_2
Cs0 O10 3.005595 1_555
Cs0 O11 3.005595 1_555
Cs0 O9 3.005595 1_555
Cs0 O14 3.108722 1_555
Cs0 O13 3.108723 1_555
Cs0 O12 3.108723 1_555
Cs0 O2 3.275850 1_565
Cs0 O1 3.275850 1_655
Cs0 O0 3.275850 1_556
Cs0 O8 3.434185 1_555
Cs0 O7 3.434186 1_555
Cs0 O6 3.434186 1_555
I0 O6 1.790773 1_555
I0 O12 1.805377 1_555
I0 O0 1.910632 1_555
I0 O11 2.486608 1_555
I0 O13 2.675139 1_554
I1 O7 1.790773 1_555
I1 O13 1.805377 1_555
I1 O1 1.910631 1_555
I1 O9 2.486607 1_555
I1 O14 2.675139 1_455
I2 O8 1.790773 1_555
I2 O14 1.805377 1_555
I2 O2 1.910632 1_555
I2 O10 2.486608 1_555
I2 O12 2.675139 1_545
I3 O9 1.793795 1_555
I3 O15 1.793962 1_555
I3 O3 1.899380 1_555
I4 O10 1.793795 1_555
I4 O16 1.793962 1_555
I4 O4 1.899380 1_555
I5 O11 1.793795 1_555
I5 O17 1.793962 1_555
I5 O5 1.899380 1_555
O0 Sb0 1.989594 1_665
O1 Sb0 1.989594 1_566
O2 Sb0 1.989594 1_656
O3 Sb0 1.970530 1_556
O4 Sb0 1.970529 1_655
O5 Sb0 1.970530 1_565
