# generated using pymatgen
data_Na4HfAs2O9
_symmetry_space_group_name_H-M   'P 1'
_cell_length_a   8.77236460
_cell_length_b   8.77236424
_cell_length_c   7.79586993
_cell_angle_alpha   89.78173228
_cell_angle_beta   89.78172910
_cell_angle_gamma   50.03885337
_symmetry_Int_Tables_number   1
_chemical_formula_structural   Na4HfAs2O9
_chemical_formula_sum   'Na8 Hf2 As4 O18'
_cell_volume   459.82755292
_cell_formula_units_Z   2
loop_
 _symmetry_equiv_pos_site_id
 _symmetry_equiv_pos_as_xyz
  1  'x, y, z'
loop_
 _atom_site_type_symbol
 _atom_site_label
 _atom_site_symmetry_multiplicity
 _atom_site_fract_x
 _atom_site_fract_y
 _atom_site_fract_z
 _atom_site_occupancy
  Na  Na0  1  0.74618230  0.25381770  1.00000000  1
  Na  Na1  1  0.63059323  0.63059323  0.27974852  1
  Na  Na2  1  0.89150825  0.89150825  0.23495166  1
  Na  Na3  1  0.10849175  0.10849175  0.76504834  1
  Na  Na4  1  0.50000000  0.00000000  0.50000000  1
  Na  Na5  1  0.25381770  0.74618230  0.00000000  1
  Na  Na6  1  0.36940677  0.36940677  0.72025148  1
  Na  Na7  1  0.00000000  0.50000000  0.50000000  1
  Hf  Hf0  1  0.00000000  0.50000000  0.00000000  1
  Hf  Hf1  1  0.50000000  0.00000000  0.00000000  1
  As  As0  1  0.12546193  0.12546193  0.28494183  1
  As  As1  1  0.39331844  0.39331844  0.24394652  1
  As  As2  1  0.87453807  0.87453807  0.71505817  1
  As  As3  1  0.60668156  0.60668156  0.75605348  1
  O  O0  1  0.55070166  0.17191354  0.13232909  1
  O  O1  1  0.50227842  0.50227842  0.78126264  1
  O  O2  1  0.44929834  0.82808646  0.86767091  1
  O  O3  1  0.13894177  0.13894177  0.49686931  1
  O  O4  1  0.36937724  0.98773517  0.21769519  1
  O  O5  1  0.98773517  0.36937724  0.21769519  1
  O  O6  1  0.82808646  0.44929834  0.86767091  1
  O  O7  1  0.96822204  0.96822204  0.81320379  1
  O  O8  1  0.17191354  0.55070166  0.13232909  1
  O  O9  1  0.24063056  0.24063056  0.90534567  1
  O  O10  1  0.01226483  0.63062276  0.78230481  1
  O  O11  1  0.75936944  0.75936944  0.09465433  1
  O  O12  1  0.86105823  0.86105823  0.50313069  1
  O  O13  1  0.49772158  0.49772158  0.21873736  1
  O  O14  1  0.63062276  0.01226483  0.78230481  1
  O  O15  1  0.65418310  0.65418310  0.56375983  1
  O  O16  1  0.03177796  0.03177796  0.18679621  1
  O  O17  1  0.34581690  0.34581690  0.43624017  1
loop_
_geom_bond_atom_site_label_1
_geom_bond_atom_site_label_2
_geom_bond_distance
_geom_bond_site_symmetry_2
Na0 O7 2.434973 1_545
Na0 O16 2.434973 1_656
Na0 O6 2.466708 1_555
Na0 O0 2.466708 1_556
Na0 O13 2.499100 1_556
Na0 O1 2.499100 1_555
Na1 O13 2.167282 1_555
Na1 O15 2.247208 1_555
Na1 O4 2.464848 1_555
Na1 O5 2.464848 1_555
Na1 O11 2.499782 1_555
Na2 O12 2.144022 1_555
Na2 O16 2.259887 1_665
Na2 O11 2.372537 1_555
Na2 O8 2.487088 1_655
Na2 O0 2.487088 1_565
Na3 O3 2.144022 1_555
Na3 O7 2.259887 1_445
Na3 O9 2.372537 1_555
Na3 O6 2.487088 1_455
Na3 O2 2.487088 1_545
Na4 O17 2.449977 1_555
Na4 O15 2.449977 1_545
Na4 O14 2.519434 1_555
Na4 O4 2.519434 1_545
Na4 O12 2.561173 1_545
Na4 O3 2.561173 1_555
Na5 O16 2.434973 1_565
Na5 O7 2.434973 1_454
Na5 O8 2.466708 1_555
Na5 O2 2.466708 1_554
Na5 O1 2.499100 1_554
Na5 O13 2.499100 1_555
Na6 O1 2.167282 1_555
Na6 O17 2.247208 1_555
Na6 O14 2.464848 1_555
Na6 O10 2.464848 1_555
Na6 O9 2.499782 1_555
Na7 O17 2.449978 1_555
Na7 O15 2.449978 1_455
Na7 O10 2.519434 1_555
Na7 O5 2.519434 1_455
Na7 O12 2.561173 1_455
Na7 O3 2.561173 1_555
Hf0 O11 2.002188 1_455
Hf0 O9 2.002188 1_554
Hf0 O10 2.084941 1_554
Hf0 O5 2.084941 1_455
Hf0 O8 2.100799 1_555
Hf0 O6 2.100799 1_454
Hf1 O11 2.002189 1_545
Hf1 O9 2.002189 1_554
Hf1 O14 2.084941 1_554
Hf1 O4 2.084941 1_545
Hf1 O0 2.100799 1_555
Hf1 O2 2.100799 1_544
As0 O3 1.666894 1_555
As0 O16 1.677318 1_555
As0 O5 1.728715 1_455
As0 O4 1.728715 1_545
As1 O13 1.670617 1_555
As1 O17 1.675737 1_555
As1 O0 1.730559 1_555
As1 O8 1.730559 1_555
As2 O12 1.666894 1_555
As2 O7 1.677318 1_555
As2 O10 1.728715 1_655
As2 O14 1.728715 1_565
As3 O1 1.670617 1_555
As3 O15 1.675737 1_555
As3 O2 1.730559 1_555
As3 O6 1.730559 1_555
