# generated using pymatgen
data_KGaGePd3
_symmetry_space_group_name_H-M   'P 1'
_cell_length_a   6.92550945
_cell_length_b   6.92551064
_cell_length_c   6.92551030
_cell_angle_alpha   115.51829624
_cell_angle_beta   86.44059001
_cell_angle_gamma   129.14493671
_symmetry_Int_Tables_number   1
_chemical_formula_structural   KGaGePd3
_chemical_formula_sum   'K2 Ga2 Ge2 Pd6'
_cell_volume   221.78296315
_cell_formula_units_Z   2
loop_
 _symmetry_equiv_pos_site_id
 _symmetry_equiv_pos_as_xyz
  1  'x, y, z'
loop_
 _atom_site_type_symbol
 _atom_site_label
 _atom_site_symmetry_multiplicity
 _atom_site_fract_x
 _atom_site_fract_y
 _atom_site_fract_z
 _atom_site_occupancy
  K  K0  1  0.47015477  0.22015477  0.25000000  1
  K  K1  1  0.51776850  0.76776750  0.75000000  1
  Ga  Ga0  1  0.79925648  0.70409109  0.09516439  1
  Ga  Ga1  1  0.10892670  0.70409109  0.40483461  1
  Ge  Ge0  1  0.86914481  0.30422354  0.56492227  1
  Ge  Ge1  1  0.23930127  0.30422354  0.93507873  1
  Pd  Pd0  1  0.00121501  0.47296717  0.97175316  1
  Pd  Pd1  1  0.99817767  0.20919061  0.21085806  1
  Pd  Pd2  1  0.49833255  0.78731961  0.28914194  1
  Pd  Pd3  1  0.00121501  0.02946186  0.52824684  1
  Pd  Pd4  1  0.49833255  0.20919061  0.71101294  1
  Pd  Pd5  1  0.99817767  0.78731961  0.78898706  1
loop_
_geom_bond_atom_site_label_1
_geom_bond_atom_site_label_2
_geom_bond_distance
_geom_bond_site_symmetry_2
K0 Pd5 3.246914 1_444
K0 Pd1 3.246914 1_455
K0 Pd4 3.246914 1_555
K0 Pd2 3.246914 1_545
K0 Pd3 3.464839 1_555
K0 Pd0 3.464844 1_544
K0 Pd5 3.696133 1_555
K0 Pd1 3.696133 1_555
K0 Pd4 3.696133 1_554
K0 Pd2 3.696133 1_555
K0 K1 3.705449 1_555
K0 K1 3.705457 1_544
K0 Pd0 3.768588 1_654
K0 Pd3 3.768589 1_665
K1 Pd5 3.266791 1_555
K1 Pd1 3.266795 1_566
K1 Pd2 3.266799 1_555
K1 Pd4 3.266803 1_565
K1 Pd0 3.309301 1_665
K1 Pd3 3.309302 1_665
K1 Pd3 3.481725 1_555
K1 Pd0 3.481729 1_555
K1 Pd4 3.674632 1_555
K1 Pd2 3.674636 1_556
K1 Pd1 3.674639 1_455
K1 Pd5 3.674643 1_455
Ga0 Pd5 2.532613 1_554
Ga0 Pd1 2.532618 1_565
Ga0 Pd0 2.597749 1_654
Ga0 Pd3 2.597749 1_665
Ga0 Pd4 2.642356 1_554
Ga0 Pd2 2.642362 1_555
Ga0 Ge1 2.875122 1_554
Ga0 K0 3.275021 1_555
Ga0 K0 3.444132 1_665
Ga0 K1 3.504473 1_554
Ga1 Pd2 2.532613 1_555
Ga1 Pd4 2.532618 1_565
Ga1 Pd0 2.597743 1_554
Ga1 Pd3 2.597750 1_565
Ga1 Pd1 2.642356 1_455
Ga1 Pd5 2.642362 1_455
Ga1 Ge0 2.875122 1_455
Ga1 K0 3.275021 1_455
Ga1 K0 3.444133 1_565
Ga1 K1 3.504482 1_555
Ge0 Pd4 2.483728 1_555
Ge0 Pd2 2.483733 1_545
Ge0 Pd0 2.504828 1_655
Ge0 Pd3 2.504831 1_655
Ge0 Pd5 2.514829 1_555
Ge0 Pd1 2.514835 1_555
Ge0 K0 3.217774 1_555
Ge0 K1 3.330128 1_655
Ge1 Pd1 2.483729 1_456
Ge1 Pd5 2.483733 1_445
Ge1 Pd0 2.504820 1_555
Ge1 Pd3 2.504831 1_555
Ge1 Pd2 2.514829 1_556
Ge1 Pd4 2.514835 1_555
Ge1 K0 3.217774 1_556
Ge1 K1 3.330123 1_555
