# generated using pymatgen
data_Nb3Al2CoN
_symmetry_space_group_name_H-M   'P 1'
_cell_length_a   8.18325805
_cell_length_b   8.18325882
_cell_length_c   8.18325903
_cell_angle_alpha   59.99999917
_cell_angle_beta   59.99999603
_cell_angle_gamma   60.00000281
_symmetry_Int_Tables_number   1
_chemical_formula_structural   Nb3Al2CoN
_chemical_formula_sum   'Nb12 Al8 Co4 N4'
_cell_volume   387.49296977
_cell_formula_units_Z   4
loop_
 _symmetry_equiv_pos_site_id
 _symmetry_equiv_pos_as_xyz
  1  'x, y, z'
loop_
 _atom_site_type_symbol
 _atom_site_label
 _atom_site_symmetry_multiplicity
 _atom_site_fract_x
 _atom_site_fract_y
 _atom_site_fract_z
 _atom_site_occupancy
  Nb  Nb0  1  0.55926398  0.94073602  0.55926398  1
  Nb  Nb1  1  0.30926398  0.69073602  0.69073602  1
  Nb  Nb2  1  0.69073602  0.30926398  0.30926398  1
  Nb  Nb3  1  0.30926398  0.69073602  0.30926398  1
  Nb  Nb4  1  0.69073602  0.69073602  0.30926398  1
  Nb  Nb5  1  0.30926398  0.30926398  0.69073602  1
  Nb  Nb6  1  0.55926398  0.55926398  0.94073602  1
  Nb  Nb7  1  0.94073602  0.55926398  0.55926398  1
  Nb  Nb8  1  0.55926398  0.94073602  0.94073602  1
  Nb  Nb9  1  0.94073602  0.94073602  0.55926398  1
  Nb  Nb10  1  0.69073602  0.30926398  0.69073602  1
  Nb  Nb11  1  0.94073602  0.55926398  0.94073602  1
  Al  Al0  1  0.91811093  0.91811093  0.91811093  1
  Al  Al1  1  0.00433078  0.33188907  0.33188907  1
  Al  Al2  1  0.33188907  0.00433078  0.33188907  1
  Al  Al3  1  0.33188907  0.33188907  0.00433078  1
  Al  Al4  1  0.91811093  0.24566922  0.91811093  1
  Al  Al5  1  0.91811093  0.91811093  0.24566922  1
  Al  Al6  1  0.24566922  0.91811093  0.91811093  1
  Al  Al7  1  0.33188907  0.33188907  0.33188907  1
  Co  Co0  1  0.12500000  0.12500000  0.12500000  1
  Co  Co1  1  0.62500000  0.12500000  0.12500000  1
  Co  Co2  1  0.12500000  0.62500000  0.12500000  1
  Co  Co3  1  0.12500000  0.12500000  0.62500000  1
  N  N0  1  0.62500000  0.62500000  0.62500000  1
  N  N1  1  0.12500000  0.62500000  0.62500000  1
  N  N2  1  0.62500000  0.12500000  0.62500000  1
  N  N3  1  0.62500000  0.62500000  0.12500000  1
loop_
_geom_bond_atom_site_label_1
_geom_bond_atom_site_label_2
_geom_bond_distance
_geom_bond_site_symmetry_2
Al0 Co3 2.496100 1_665
Al0 Co1 2.496100 1_566
Al0 Co2 2.496100 1_656
Al1 Co0 2.496096 1_555
Al1 Co2 2.496109 1_555
Al1 Co3 2.496109 1_555
Al2 Co0 2.496096 1_555
Al2 Co1 2.496109 1_555
Al2 Co3 2.496109 1_555
Al3 Co0 2.496095 1_555
Al3 Co1 2.496109 1_555
Al3 Co2 2.496109 1_555
Al4 Co0 2.496096 1_656
Al4 Co1 2.496109 1_556
Al4 Co3 2.496109 1_655
Al5 Co0 2.496095 1_665
Al5 Co1 2.496109 1_565
Al5 Co2 2.496109 1_655
Al6 Co0 2.496096 1_566
Al6 Co2 2.496109 1_556
Al6 Co3 2.496109 1_565
Al7 Co3 2.496100 1_555
Al7 Co1 2.496100 1_555
Al7 Co2 2.496100 1_555
Co0 Nb8 2.955124 1_544
Co0 Nb2 2.955124 1_455
Co0 Nb9 2.955124 1_445
Co0 Nb5 2.955124 1_554
Co0 Nb11 2.955125 1_454
Co0 Nb3 2.955125 1_545
Co1 Nb2 2.955125 1_555
Co1 Nb0 2.955125 1_545
Co1 Nb10 2.955125 1_554
Co1 Nb8 2.955125 1_544
Co1 Nb6 2.955125 1_554
Co1 Nb4 2.955125 1_545
Co2 Nb6 2.955124 1_554
Co2 Nb4 2.955124 1_455
Co2 Nb3 2.955124 1_555
Co2 Nb7 2.955124 1_455
Co2 Nb1 2.955124 1_554
Co2 Nb11 2.955124 1_454
Co3 Nb0 2.955124 1_545
Co3 Nb10 2.955124 1_455
Co3 Nb5 2.955124 1_555
Co3 Nb9 2.955124 1_445
Co3 Nb7 2.955125 1_455
Co3 Nb1 2.955125 1_545
N0 Nb7 2.182683 1_555
N0 Nb1 2.182683 1_555
N0 Nb6 2.182683 1_555
N0 Nb4 2.182683 1_555
N0 Nb0 2.182683 1_555
N0 Nb10 2.182683 1_555
N1 Nb1 2.182683 1_555
N1 Nb11 2.182683 1_455
N1 Nb3 2.182683 1_555
N1 Nb7 2.182683 1_455
N1 Nb9 2.182683 1_455
N1 Nb5 2.182683 1_555
N2 Nb9 2.182683 1_545
N2 Nb5 2.182683 1_555
N2 Nb10 2.182683 1_555
N2 Nb8 2.182683 1_545
N2 Nb2 2.182683 1_555
N2 Nb0 2.182683 1_545
N3 Nb11 2.182683 1_554
N3 Nb3 2.182683 1_555
N3 Nb4 2.182683 1_555
N3 Nb6 2.182683 1_554
N3 Nb8 2.182683 1_554
N3 Nb2 2.182683 1_555
