# generated using pymatgen
data_Sb3As(SO6)2
_symmetry_space_group_name_H-M   'P 1'
_cell_length_a   4.98817223
_cell_length_b   5.02737079
_cell_length_c   10.89099315
_cell_angle_alpha   89.25411492
_cell_angle_beta   89.78014480
_cell_angle_gamma   90.68549113
_symmetry_Int_Tables_number   1
_chemical_formula_structural   Sb3As(SO6)2
_chemical_formula_sum   'Sb3 As1 S2 O12'
_cell_volume   273.07283248
_cell_formula_units_Z   1
loop_
 _symmetry_equiv_pos_site_id
 _symmetry_equiv_pos_as_xyz
  1  'x, y, z'
loop_
 _atom_site_type_symbol
 _atom_site_label
 _atom_site_symmetry_multiplicity
 _atom_site_fract_x
 _atom_site_fract_y
 _atom_site_fract_z
 _atom_site_occupancy
  Sb  Sb0  1  0.84794582  0.80462579  0.31616480  1
  Sb  Sb1  1  0.15456071  0.78381576  0.69105994  1
  Sb  Sb2  1  0.35530412  0.21434037  0.18808448  1
  As  As0  1  0.66947496  0.15729869  0.81423601  1
  S  S0  1  0.00387515  0.81271761  0.99872250  1
  S  S1  1  0.49630770  0.19649176  0.50052973  1
  O  O0  1  0.95023504  0.64820320  0.10765778  1
  O  O1  1  0.06595393  0.64378681  0.89351931  1
  O  O2  1  0.43718894  0.35477885  0.38905760  1
  O  O3  1  0.55033779  0.37037703  0.60294727  1
  O  O4  1  0.49137328  0.87220381  0.24926470  1
  O  O5  1  0.51670195  0.87020815  0.75255979  1
  O  O6  1  0.26226981  0.01611974  0.52661141  1
  O  O7  1  0.73301234  0.02467308  0.47833035  1
  O  O8  1  0.75505860  0.97012833  0.97211473  1
  O  O9  1  0.22702734  0.00292877  0.01854941  1
  O  O10  1  0.99088362  0.11716209  0.75161166  1
  O  O11  1  0.99249090  0.14014214  0.24897852  1
loop_
_geom_bond_atom_site_label_1
_geom_bond_atom_site_label_2
_geom_bond_distance
_geom_bond_site_symmetry_2
As0 O10 1.754768 1_555
As0 O5 1.765767 1_545
As0 O8 1.999333 1_545
O0 S0 1.459432 1_654
O0 Sb0 2.466316 1_555
O1 S0 1.469302 1_555
O1 Sb1 2.344686 1_555
O2 S1 1.475574 1_555
O2 Sb2 2.344430 1_555
O3 S1 1.450198 1_555
O4 Sb0 1.956485 1_555
O4 Sb2 1.965906 1_565
O5 Sb1 1.974466 1_555
O6 S1 1.493740 1_555
O6 Sb1 2.187111 1_545
O7 S1 1.492098 1_555
O7 Sb0 2.174863 1_545
O8 S0 1.506967 1_655
O9 S0 1.477111 1_544
O9 Sb2 2.234316 1_555
O10 Sb1 1.991824 1_645
O11 Sb2 1.955110 1_655
O11 Sb0 1.958361 1_545
