# generated using pymatgen
data_NdInRh
_symmetry_space_group_name_H-M   'P 1'
_cell_length_a   7.58092525
_cell_length_b   7.58092492
_cell_length_c   4.05514585
_cell_angle_alpha   90.00000000
_cell_angle_beta   90.00000000
_cell_angle_gamma   120.00000147
_symmetry_Int_Tables_number   1
_chemical_formula_structural   NdInRh
_chemical_formula_sum   'Nd3 In3 Rh3'
_cell_volume   201.82804537
_cell_formula_units_Z   3
loop_
 _symmetry_equiv_pos_site_id
 _symmetry_equiv_pos_as_xyz
  1  'x, y, z'
loop_
 _atom_site_type_symbol
 _atom_site_label
 _atom_site_symmetry_multiplicity
 _atom_site_fract_x
 _atom_site_fract_y
 _atom_site_fract_z
 _atom_site_occupancy
  Nd  Nd0  1  0.58966462  -0.00000000  0.50000000  1
  Nd  Nd1  1  0.41033538  0.41033538  0.50000000  1
  Nd  Nd2  1  -0.00000000  0.58966462  0.50000000  1
  In  In0  1  0.24989039  -0.00000000  -0.00000000  1
  In  In1  1  0.75010961  0.75010961  0.00000000  1
  In  In2  1  0.00000000  0.24989039  -0.00000000  1
  Rh  Rh0  1  -0.00000000  -0.00000000  0.50000000  1
  Rh  Rh1  1  0.33333300  0.66666700  -0.00000000  1
  Rh  Rh2  1  0.66666700  0.33333300  0.00000000  1
loop_
_geom_bond_atom_site_label_1
_geom_bond_atom_site_label_2
_geom_bond_distance
_geom_bond_site_symmetry_2
Nd0 Rh2 3.059785 1_556
Nd0 Rh2 3.059785 1_555
Nd0 Rh1 3.059787 1_545
Nd0 Rh1 3.059787 1_546
Nd0 Rh0 3.110722 1_655
Nd1 Rh1 3.059791 1_555
Nd1 Rh1 3.059791 1_556
Nd1 Rh2 3.059791 1_555
Nd1 Rh2 3.059791 1_556
Nd1 Rh0 3.110722 1_555
Nd2 Rh1 3.059785 1_556
Nd2 Rh1 3.059785 1_555
Nd2 Rh2 3.059787 1_456
Nd2 Rh2 3.059787 1_455
Nd2 Rh0 3.110722 1_565
In0 Rh0 2.774852 1_555
In0 Rh0 2.774852 1_554
In0 Rh1 2.895553 1_545
In0 Rh2 2.895558 1_555
In0 Nd0 3.278081 1_555
In0 Nd0 3.278081 1_554
In0 Nd2 3.388723 1_545
In0 Nd2 3.388723 1_544
In0 Nd1 3.388723 1_555
In0 Nd1 3.388723 1_554
In1 Rh0 2.774852 1_665
In1 Rh0 2.774852 1_664
In1 Rh2 2.895561 1_555
In1 Rh1 2.895561 1_555
In1 Nd1 3.278081 1_554
In1 Nd1 3.278081 1_555
In1 Nd0 3.388723 1_565
In1 Nd0 3.388723 1_564
In1 Nd2 3.388723 1_655
In1 Nd2 3.388723 1_654
In2 Rh0 2.774852 1_554
In2 Rh0 2.774852 1_555
In2 Rh2 2.895554 1_455
In2 Rh1 2.895558 1_555
In2 Nd2 3.278081 1_554
In2 Nd2 3.278081 1_555
In2 Nd0 3.388723 1_455
In2 Nd0 3.388723 1_454
In2 Nd1 3.388723 1_555
In2 Nd1 3.388723 1_554
