# generated using pymatgen
data_BaZrN2
_symmetry_space_group_name_H-M   'P 1'
_cell_length_a   4.18039391
_cell_length_b   4.18039391
_cell_length_c   8.43381836
_cell_angle_alpha   90.00000000
_cell_angle_beta   90.00000000
_cell_angle_gamma   90.00000000
_symmetry_Int_Tables_number   1
_chemical_formula_structural   BaZrN2
_chemical_formula_sum   'Ba2 Zr2 N4'
_cell_volume   147.38682252
_cell_formula_units_Z   2
loop_
 _symmetry_equiv_pos_site_id
 _symmetry_equiv_pos_as_xyz
  1  'x, y, z'
loop_
 _atom_site_type_symbol
 _atom_site_label
 _atom_site_symmetry_multiplicity
 _atom_site_fract_x
 _atom_site_fract_y
 _atom_site_fract_z
 _atom_site_occupancy
  Ba  Ba0  1  0.75000000  0.75000000  0.15296413  1
  Ba  Ba1  1  0.25000000  0.25000000  0.84703587  1
  Zr  Zr0  1  0.25000000  0.25000000  0.41288856  1
  Zr  Zr1  1  0.75000000  0.75000000  0.58711144  1
  N  N0  1  0.75000000  0.75000000  0.82331353  1
  N  N1  1  0.25000000  0.25000000  0.17668647  1
  N  N2  1  0.75000000  0.25000000  0.50000000  1
  N  N3  1  0.25000000  0.75000000  0.50000000  1
loop_
_geom_bond_atom_site_label_1
_geom_bond_atom_site_label_2
_geom_bond_distance
_geom_bond_site_symmetry_2
Ba0 N0 2.780213 1_554
Ba0 N1 2.962748 1_655
Ba0 N1 2.962748 1_565
Ba0 N1 2.962748 1_665
Ba0 N1 2.962748 1_555
Ba1 N1 2.780213 1_556
Ba1 N0 2.962748 1_555
Ba1 N0 2.962748 1_545
Ba1 N0 2.962748 1_455
Ba1 N0 2.962748 1_445
N0 Zr1 1.992086 1_555
N1 Zr0 1.992086 1_555
N2 Zr0 2.215554 1_655
N2 Zr0 2.215554 1_555
N2 Zr1 2.215554 1_555
N2 Zr1 2.215554 1_545
N3 Zr0 2.215554 1_565
N3 Zr0 2.215554 1_555
N3 Zr1 2.215554 1_555
N3 Zr1 2.215554 1_455
