# generated using pymatgen
data_Nb8AlSiSb4
_symmetry_space_group_name_H-M   'P 1'
_cell_length_a   7.82236195
_cell_length_b   7.82185693
_cell_length_c   7.82236102
_cell_angle_alpha   95.80524142
_cell_angle_beta   95.81225347
_cell_angle_gamma   142.90548543
_symmetry_Int_Tables_number   1
_chemical_formula_structural   Nb8AlSiSb4
_chemical_formula_sum   'Nb8 Al1 Si1 Sb4'
_cell_volume   273.66563876
_cell_formula_units_Z   1
loop_
 _symmetry_equiv_pos_site_id
 _symmetry_equiv_pos_as_xyz
  1  'x, y, z'
loop_
 _atom_site_type_symbol
 _atom_site_label
 _atom_site_symmetry_multiplicity
 _atom_site_fract_x
 _atom_site_fract_y
 _atom_site_fract_z
 _atom_site_occupancy
  Nb  Nb0  1  0.91274263  0.79061062  0.70709930  1
  Nb  Nb1  1  0.79038824  0.08329371  0.87781837  1
  Nb  Nb2  1  0.41648868  0.70938938  0.12213201  1
  Nb  Nb3  1  0.58753473  0.29466013  0.87787773  1
  Nb  Nb4  1  0.70951633  0.58729876  0.29287383  1
  Nb  Nb5  1  0.29452267  0.41670629  0.70709453  1
  Nb  Nb6  1  0.20557507  0.91270124  0.12221657  1
  Nb  Nb7  1  0.08321760  0.20533987  0.29287460  1
  Al  Al0  1  0.24997453  0.25000000  0.99997453  1
  Si  Si0  1  0.74996359  0.75000000  0.99996359  1
  Sb  Sb0  1  0.64245684  0.85749321  0.49997798  1
  Sb  Sb1  1  0.14248476  0.64250679  0.78496363  1
  Sb  Sb2  1  0.85755412  0.35750491  0.21508411  1
  Sb  Sb3  1  0.35757920  0.14249509  0.50004821  1
loop_
_geom_bond_atom_site_label_1
_geom_bond_atom_site_label_2
_geom_bond_distance
_geom_bond_site_symmetry_2
Nb0 Si0 2.657666 1_555
Nb0 Sb1 2.860920 1_655
Nb0 Sb0 2.934447 1_555
Nb0 Sb3 2.995957 1_555
Nb0 Sb3 3.011899 1_665
Nb1 Si0 2.656917 1_545
Nb1 Sb0 2.860930 1_545
Nb1 Sb2 2.934862 1_556
Nb1 Sb1 2.995479 1_545
Nb1 Sb1 3.012493 1_655
Nb2 Si0 2.657667 1_554
Nb2 Sb0 2.860920 1_555
Nb2 Sb1 2.934447 1_554
Nb2 Sb2 2.995955 1_565
Nb2 Sb2 3.011893 1_455
Nb3 Si0 2.656775 1_555
Nb3 Sb3 2.860693 1_555
Nb3 Sb2 2.934900 1_556
Nb3 Sb1 2.995420 1_655
Nb3 Sb1 3.012704 1_545
Nb4 Si0 2.657793 1_554
Nb4 Sb2 2.860744 1_555
Nb4 Sb0 2.935018 1_555
Nb4 Sb3 2.996082 1_665
Nb4 Sb3 3.012368 1_555
Nb5 Si0 2.656924 1_555
Nb5 Sb1 2.860916 1_555
Nb5 Sb3 2.934879 1_555
Nb5 Sb0 2.995480 1_555
Nb5 Sb0 3.012485 1_445
Nb6 Si0 2.657792 1_454
Nb6 Sb3 2.860744 1_565
Nb6 Sb1 2.935011 1_554
Nb6 Sb2 2.996087 1_455
Nb6 Sb2 3.012373 1_565
Nb7 Si0 2.656775 1_444
Nb7 Sb2 2.860686 1_455
Nb7 Sb3 2.934896 1_555
Nb7 Sb0 2.995420 1_445
Nb7 Sb0 3.012704 1_555
Al0 Si0 2.488109 1_555
Al0 Si0 2.488109 1_445
Al0 Nb0 2.666109 1_445
Al0 Nb2 2.666109 1_556
Al0 Nb6 2.666734 1_546
Al0 Nb4 2.666737 1_556
Al0 Nb1 2.666758 1_455
Al0 Nb5 2.666760 1_555
Al0 Nb7 2.667084 1_556
Al0 Nb3 2.667085 1_555
