# generated using pymatgen
data_VPd3Pt5
_symmetry_space_group_name_H-M   'P 1'
_cell_length_a   6.18561103
_cell_length_b   6.18561080
_cell_length_c   6.18036442
_cell_angle_alpha   95.66887103
_cell_angle_beta   95.66887984
_cell_angle_gamma   143.37997859
_symmetry_Int_Tables_number   1
_chemical_formula_structural   VPd3Pt5
_chemical_formula_sum   'V1 Pd3 Pt5'
_cell_volume   133.90261321
_cell_formula_units_Z   1
loop_
 _symmetry_equiv_pos_site_id
 _symmetry_equiv_pos_as_xyz
  1  'x, y, z'
loop_
 _atom_site_type_symbol
 _atom_site_label
 _atom_site_symmetry_multiplicity
 _atom_site_fract_x
 _atom_site_fract_y
 _atom_site_fract_z
 _atom_site_occupancy
  V  V0  1  0.00650278  0.00650278  0.01300556  1
  Pd  Pd0  1  0.67101897  0.00065411  0.67167307  1
  Pd  Pd1  1  0.00065411  0.67101897  0.67167307  1
  Pd  Pd2  1  0.33689614  0.33689614  0.67379329  1
  Pt  Pt0  1  0.65780130  0.33826196  0.99606226  1
  Pt  Pt1  1  0.33826196  0.65780130  0.99606226  1
  Pt  Pt2  1  0.66163501  0.66163501  0.32326703  1
  Pt  Pt3  1  0.32822437  0.99900736  0.32723173  1
  Pt  Pt4  1  0.99900736  0.32822437  0.32723173  1
loop_
_geom_bond_atom_site_label_1
_geom_bond_atom_site_label_2
_geom_bond_distance
_geom_bond_site_symmetry_2
Pd0 Pt1 2.720625 1_545
Pd0 Pt1 2.720628 1_655
Pd0 Pd2 2.742915 1_655
Pd0 Pd2 2.742918 1_545
Pd0 V0 2.785220 1_656
Pd0 Pd1 2.789251 1_655
Pd0 Pd1 2.789251 1_545
Pd0 Pt4 2.803556 1_555
Pd0 Pt4 2.803557 1_445
Pd0 Pt0 2.804720 1_555
Pd0 Pt2 2.815206 1_545
Pd0 Pt3 2.845549 1_545
Pd1 Pt0 2.720625 1_455
Pd1 Pt0 2.720628 1_565
Pd1 Pd2 2.742915 1_565
Pd1 Pd2 2.742918 1_455
Pd1 V0 2.785220 1_566
Pd1 Pt3 2.803556 1_555
Pd1 Pt3 2.803557 1_445
Pd1 Pt1 2.804720 1_555
Pd1 Pt2 2.815206 1_455
Pd1 Pt4 2.845549 1_455
Pd2 Pt0 2.663830 1_555
Pd2 Pt1 2.663830 1_555
Pd2 V0 2.781522 1_556
Pd2 V0 2.781525 1_666
Pd2 Pt4 2.805666 1_455
Pd2 Pt3 2.805666 1_545
Pd2 Pt2 2.829391 1_445
Pd2 Pt2 2.829401 1_555
Pt0 Pt2 2.684461 1_556
Pt0 V0 2.703201 1_666
Pt0 V0 2.703204 1_556
Pt0 Pt3 2.748547 1_656
Pt0 Pt3 2.748549 1_546
Pt0 Pt4 2.833650 1_556
Pt0 Pt1 2.875499 1_545
Pt0 Pt1 2.875499 1_655
Pt1 Pt2 2.684461 1_556
Pt1 V0 2.703201 1_666
Pt1 V0 2.703204 1_556
Pt1 Pt4 2.748547 1_566
Pt1 Pt4 2.748549 1_456
Pt1 Pt3 2.833650 1_556
Pt2 V0 2.662639 1_665
Pt2 V0 2.662648 1_555
Pt2 Pt4 2.741251 1_565
Pt2 Pt3 2.741251 1_655
Pt2 Pt3 2.741259 1_545
Pt2 Pt4 2.741259 1_455
Pt3 V0 2.671386 1_565
Pt3 Pt4 2.792776 1_455
Pt3 Pt4 2.792776 1_565
Pt4 V0 2.671386 1_655
