# generated using pymatgen
data_Ti10Nb3MoP8
_symmetry_space_group_name_H-M   'P 1'
_cell_length_a   7.52916021
_cell_length_b   7.52916093
_cell_length_c   13.57318356
_cell_angle_alpha   75.76414481
_cell_angle_beta   75.76414367
_cell_angle_gamma   26.29102752
_symmetry_Int_Tables_number   1
_chemical_formula_structural   Ti10Nb3MoP8
_chemical_formula_sum   'Ti10 Nb3 Mo1 P8'
_cell_volume   329.76267677
_cell_formula_units_Z   1
loop_
 _symmetry_equiv_pos_site_id
 _symmetry_equiv_pos_as_xyz
  1  'x, y, z'
loop_
 _atom_site_type_symbol
 _atom_site_label
 _atom_site_symmetry_multiplicity
 _atom_site_fract_x
 _atom_site_fract_y
 _atom_site_fract_z
 _atom_site_occupancy
  Ti  Ti0  1  0.19785410  0.19785410  0.68860326  1
  Ti  Ti1  1  0.80214590  0.80214590  0.31139674  1
  Ti  Ti2  1  0.20623936  0.20623936  0.20856394  1
  Ti  Ti3  1  0.79376064  0.79376064  0.79143606  1
  Ti  Ti4  1  0.34044601  0.34044601  0.96821578  1
  Ti  Ti5  1  0.65955399  0.65955399  0.03178422  1
  Ti  Ti6  1  0.00419254  0.00419254  0.34165494  1
  Ti  Ti7  1  0.99580746  0.99580746  0.65834506  1
  Ti  Ti8  1  0.17526390  0.17526390  0.46021416  1
  Ti  Ti9  1  0.82473610  0.82473610  0.53978584  1
  Nb  Nb0  1  0.00000000  0.00000000  0.00000000  1
  Nb  Nb1  1  0.42694274  0.42694274  0.17337213  1
  Nb  Nb2  1  0.57305726  0.57305726  0.82662787  1
  Mo  Mo0  1  0.50000000  0.50000000  0.50000000  1
  P  P0  1  0.18304907  0.18304907  0.88957999  1
  P  P1  1  0.81695093  0.81695093  0.11042001  1
  P  P2  1  0.37324563  0.37324563  0.39491385  1
  P  P3  1  0.62675437  0.62675437  0.60508615  1
  P  P4  1  0.36916905  0.36916905  0.65797475  1
  P  P5  1  0.63083095  0.63083095  0.34202525  1
  P  P6  1  0.06428553  0.06428553  0.15486549  1
  P  P7  1  0.93571447  0.93571447  0.84513451  1
loop_
_geom_bond_atom_site_label_1
_geom_bond_atom_site_label_2
_geom_bond_distance
_geom_bond_site_symmetry_2
Nb0 P6 2.511549 1_555
Nb0 P7 2.511549 1_444
Nb0 P0 2.723831 1_554
Nb0 P1 2.723831 1_445
Nb1 P6 2.606846 1_655
Nb1 P6 2.606847 1_565
Nb1 P1 2.638106 1_455
Nb1 P1 2.638107 1_545
Nb1 P2 2.909700 1_555
Nb2 P7 2.606846 1_455
Nb2 P7 2.606847 1_545
Nb2 P0 2.638106 1_655
Nb2 P0 2.638107 1_565
Nb2 P3 2.909700 1_555
Mo0 P4 2.490094 1_555
Mo0 P5 2.490094 1_555
Mo0 P2 2.613086 1_555
Mo0 P3 2.613086 1_555
Mo0 Ti7 2.736483 1_545
Mo0 Ti6 2.736483 1_565
Mo0 Ti7 2.736483 1_455
Mo0 Ti6 2.736483 1_655
Mo0 Ti8 3.021210 1_655
Mo0 Ti9 3.021210 1_455
Mo0 Ti8 3.021211 1_565
Mo0 Ti9 3.021211 1_545
P0 Ti3 2.499980 1_545
P0 Ti3 2.499980 1_455
P0 Ti5 2.537795 1_456
P0 Ti5 2.537795 1_546
P0 Ti0 2.681311 1_555
P0 Ti4 2.776758 1_555
P1 Ti2 2.499980 1_565
P1 Ti2 2.499980 1_655
P1 Ti4 2.537795 1_654
P1 Ti4 2.537795 1_564
P1 Ti1 2.681311 1_555
P1 Ti5 2.776758 1_555
P2 Ti1 2.429192 1_455
P2 Ti1 2.429193 1_545
P2 Ti6 2.537833 1_655
P2 Ti6 2.537833 1_565
P2 Ti9 2.568696 1_455
P2 Ti9 2.568697 1_545
P2 Ti8 2.813229 1_555
P3 Ti0 2.429192 1_655
P3 Ti0 2.429193 1_565
P3 Ti7 2.537833 1_455
P3 Ti7 2.537833 1_545
P3 Ti8 2.568696 1_655
P3 Ti8 2.568697 1_565
P3 Ti9 2.813229 1_555
P4 Ti0 2.440510 1_555
P4 Ti7 2.526893 1_545
P4 Ti7 2.526894 1_455
P4 Ti3 2.534676 1_455
P4 Ti3 2.534677 1_545
P4 Ti9 2.541243 1_455
P4 Ti9 2.541243 1_545
P5 Ti1 2.440510 1_555
P5 Ti6 2.526893 1_565
P5 Ti6 2.526894 1_655
P5 Ti2 2.534676 1_655
P5 Ti2 2.534677 1_565
P5 Ti8 2.541243 1_655
P5 Ti8 2.541243 1_565
P6 Ti2 2.372856 1_555
P6 Ti6 2.464958 1_555
P6 Ti5 2.548688 1_545
P6 Ti5 2.548689 1_455
P7 Ti3 2.372856 1_555
P7 Ti7 2.464958 1_555
P7 Ti4 2.548688 1_565
P7 Ti4 2.548689 1_655
