# generated using pymatgen
data_Sc22Tc4Ag3Os
_symmetry_space_group_name_H-M   'P 1'
_cell_length_a   9.72138137
_cell_length_b   9.61188846
_cell_length_c   9.58933892
_cell_angle_alpha   60.83386006
_cell_angle_beta   59.83564490
_cell_angle_gamma   59.46846338
_symmetry_Int_Tables_number   1
_chemical_formula_structural   Sc22Tc4Ag3Os
_chemical_formula_sum   'Sc22 Tc4 Ag3 Os1'
_cell_volume   634.05967123
_cell_formula_units_Z   1
loop_
 _symmetry_equiv_pos_site_id
 _symmetry_equiv_pos_as_xyz
  1  'x, y, z'
loop_
 _atom_site_type_symbol
 _atom_site_label
 _atom_site_symmetry_multiplicity
 _atom_site_fract_x
 _atom_site_fract_y
 _atom_site_fract_z
 _atom_site_occupancy
  Sc  Sc0  1  0.83923312  0.83629528  0.86163349  1
  Sc  Sc1  1  0.51976299  0.15368738  0.14650877  1
  Sc  Sc2  1  0.14650877  0.18004086  0.51976299  1
  Sc  Sc3  1  0.13836651  0.53715989  0.16076688  1
  Sc  Sc4  1  0.85349123  0.81995914  0.48023701  1
  Sc  Sc5  1  0.86163349  0.46284011  0.83923312  1
  Sc  Sc6  1  0.48023701  0.84631262  0.85349123  1
  Sc  Sc7  1  0.16076688  0.16370472  0.13836651  1
  Sc  Sc8  1  0.19502686  0.80497314  0.19502686  1
  Sc  Sc9  1  0.19523913  0.81268622  0.80476087  1
  Sc  Sc10  1  0.80476087  0.18731378  0.19523913  1
  Sc  Sc11  1  0.79745094  0.80675016  0.20254906  1
  Sc  Sc12  1  0.20254906  0.19324984  0.79745094  1
  Sc  Sc13  1  0.80497314  0.19502686  0.80497314  1
  Sc  Sc14  1  0.37511025  0.39593233  0.38608473  1
  Sc  Sc15  1  0.15475966  0.60786565  0.62663339  1
  Sc  Sc16  1  0.61391527  0.15712831  0.62488975  1
  Sc  Sc17  1  0.62663339  0.61074029  0.15475966  1
  Sc  Sc18  1  0.38608473  0.84287169  0.37511025  1
  Sc  Sc19  1  0.37336661  0.38925971  0.84524034  1
  Sc  Sc20  1  0.84524034  0.39213435  0.37336661  1
  Sc  Sc21  1  0.62488975  0.60406767  0.61391527  1
  Tc  Tc0  1  0.00000000  0.50000000  0.50000000  1
  Tc  Tc1  1  0.50000000  0.00000000  0.00000000  1
  Tc  Tc2  1  0.00000000  0.50000000  0.00000000  1
  Tc  Tc3  1  0.00000000  0.00000000  0.00000000  1
  Ag  Ag0  1  0.50000000  0.50000000  0.00000000  1
  Ag  Ag1  1  0.00000000  0.00000000  0.50000000  1
  Ag  Ag2  1  0.50000000  0.00000000  0.50000000  1
  Os  Os0  1  0.50000000  0.50000000  0.50000000  1
loop_
_geom_bond_atom_site_label_1
_geom_bond_atom_site_label_2
_geom_bond_distance
_geom_bond_site_symmetry_2
Sc0 Tc2 2.724424 1_656
Sc0 Tc1 2.734461 1_566
Sc1 Tc1 2.602957 1_555
Sc2 Tc0 2.602957 1_555
Sc3 Tc2 2.724411 1_555
Sc3 Tc0 2.734465 1_555
Sc4 Tc0 2.602957 1_655
Sc5 Tc2 2.724411 1_656
Sc5 Tc0 2.734465 1_655
Sc6 Tc1 2.602957 1_566
Sc7 Tc2 2.724424 1_555
Sc7 Tc1 2.734461 1_555
Sc8 Tc3 2.672343 1_565
Sc9 Tc3 2.567403 1_566
Sc10 Tc3 2.567403 1_655
Sc11 Tc3 2.730596 1_665
Sc12 Tc3 2.730596 1_556
Sc13 Tc3 2.672343 1_656
Sc14 Tc0 2.974424 1_555
Sc15 Tc2 2.951383 1_556
Sc15 Tc0 3.075868 1_555
Sc16 Tc1 2.974425 1_556
Sc17 Tc2 2.951383 1_655
Sc17 Tc1 3.075875 1_565
Sc18 Tc1 2.974425 1_565
Sc19 Tc2 2.951383 1_556
Sc19 Tc1 3.075875 1_556
Sc20 Tc2 2.951383 1_655
Sc20 Tc0 3.075868 1_655
Sc21 Tc0 2.974424 1_655
Ag0 Sc1 2.855583 1_555
Ag0 Sc6 2.855583 1_554
Ag0 Sc5 2.945801 1_554
Ag0 Sc3 2.945801 1_555
Ag0 Sc14 3.047726 1_555
Ag0 Sc21 3.047726 1_554
Ag0 Sc17 3.091584 1_555
Ag0 Sc19 3.091584 1_554
Ag0 Sc8 3.438237 1_555
Ag0 Sc13 3.438237 1_554
Ag0 Sc10 3.515472 1_555
Ag0 Sc9 3.515472 1_554
Ag1 Sc2 2.855583 1_555
Ag1 Sc4 2.855583 1_445
Ag1 Sc7 2.945797 1_555
Ag1 Sc0 2.945797 1_445
Ag1 Sc18 3.047727 1_545
Ag1 Sc16 3.047727 1_455
Ag1 Sc20 3.091592 1_455
Ag1 Sc15 3.091592 1_545
Ag1 Sc13 3.438237 1_455
Ag1 Sc8 3.438237 1_545
Ag1 Sc9 3.515472 1_545
Ag1 Sc10 3.515472 1_455
Ag2 Sc4 2.909071 1_545
Ag2 Sc2 2.909071 1_555
Ag2 Sc6 2.909072 1_545
Ag2 Sc1 2.909072 1_555
Ag2 Sc14 3.120372 1_555
Ag2 Sc21 3.120372 1_545
Ag2 Sc16 3.120380 1_555
Ag2 Sc18 3.120380 1_545
Ag2 Sc12 3.371309 1_555
Ag2 Sc11 3.371309 1_545
Ag2 Sc10 3.485640 1_555
Ag2 Sc9 3.485640 1_545
Os0 Sc18 2.701781 1_555
Os0 Sc16 2.701781 1_555
Os0 Sc21 2.701789 1_555
Os0 Sc14 2.701789 1_555
Os0 Sc19 2.722058 1_555
Os0 Sc17 2.722058 1_555
Os0 Sc20 2.722058 1_555
Os0 Sc15 2.722058 1_555
