# generated using pymatgen
data_RbBa2IO6
_symmetry_space_group_name_H-M   'P 1'
_cell_length_a   6.16924899
_cell_length_b   6.42186502
_cell_length_c   8.81172079
_cell_angle_alpha   90.00000000
_cell_angle_beta   90.02704458
_cell_angle_gamma   90.00000000
_symmetry_Int_Tables_number   1
_chemical_formula_structural   RbBa2IO6
_chemical_formula_sum   'Rb2 Ba4 I2 O12'
_cell_volume   349.10345836
_cell_formula_units_Z   2
loop_
 _symmetry_equiv_pos_site_id
 _symmetry_equiv_pos_as_xyz
  1  'x, y, z'
loop_
 _atom_site_type_symbol
 _atom_site_label
 _atom_site_symmetry_multiplicity
 _atom_site_fract_x
 _atom_site_fract_y
 _atom_site_fract_z
 _atom_site_occupancy
  Rb  Rb0  1  0.50000000  0.50000000  0.00000000  1
  Rb  Rb1  1  0.00000000  0.00000000  0.50000000  1
  Ba  Ba0  1  0.51138508  0.04091672  0.75286460  1
  Ba  Ba1  1  0.98861492  0.54091672  0.74713540  1
  Ba  Ba2  1  0.48861492  0.95908328  0.24713540  1
  Ba  Ba3  1  0.01138508  0.45908328  0.25286460  1
  I  I0  1  0.50000000  0.50000000  0.50000000  1
  I  I1  1  0.00000000  0.00000000  0.00000000  1
  O  O0  1  0.65885194  0.73703316  0.56301388  1
  O  O1  1  0.84114806  0.23703316  0.93698612  1
  O  O2  1  0.34114806  0.26296684  0.43698612  1
  O  O3  1  0.15885194  0.76296684  0.06301388  1
  O  O4  1  0.41130978  0.45138518  0.70156802  1
  O  O5  1  0.08869022  0.95138518  0.79843198  1
  O  O6  1  0.58869022  0.54861482  0.29843198  1
  O  O7  1  0.91130978  0.04861482  0.20156802  1
  O  O8  1  0.74675419  0.33308359  0.53318708  1
  O  O9  1  0.75324581  0.83308359  0.96681292  1
  O  O10  1  0.25324581  0.66691641  0.46681292  1
  O  O11  1  0.24675419  0.16691641  0.03318708  1
loop_
_geom_bond_atom_site_label_1
_geom_bond_atom_site_label_2
_geom_bond_distance
_geom_bond_site_symmetry_2
Ba0 O5 2.700545 1_545
Ba0 O0 2.726918 1_545
Ba0 O4 2.744736 1_555
Ba0 O9 2.749408 1_545
Ba0 O1 2.890341 1_555
Ba0 O8 3.062437 1_555
Ba0 O11 3.070072 1_556
Ba0 O2 3.298657 1_555
Ba1 O4 2.700545 1_655
Ba1 O1 2.726918 1_555
Ba1 O5 2.744736 1_655
Ba1 O8 2.749408 1_555
Ba1 O0 2.890341 1_555
Ba1 O9 3.062437 1_555
Ba1 O10 3.070072 1_655
Ba1 O3 3.298657 1_656
Ba2 O7 2.700545 1_565
Ba2 O2 2.726918 1_565
Ba2 O6 2.744736 1_555
Ba2 O11 2.749408 1_565
Ba2 O3 2.890341 1_555
Ba2 O10 3.062437 1_555
Ba2 O9 3.070072 1_554
Ba2 O0 3.298657 1_555
Ba3 O6 2.700545 1_455
Ba3 O3 2.726918 1_555
Ba3 O7 2.744736 1_455
Ba3 O10 2.749408 1_555
Ba3 O2 2.890341 1_555
Ba3 O11 3.062437 1_555
Ba3 O8 3.070072 1_455
Ba3 O1 3.298657 1_454
I0 O10 1.884532 1_555
I0 O8 1.884532 1_555
I0 O4 1.884810 1_555
I0 O6 1.884810 1_555
I0 O0 1.893482 1_555
I0 O2 1.893482 1_555
I1 O11 1.884532 1_555
I1 O9 1.884532 1_444
I1 O7 1.884810 1_455
I1 O5 1.884810 1_544
I1 O1 1.893482 1_454
I1 O3 1.893482 1_545
O0 Rb1 2.755124 1_665
O1 Rb0 2.755124 1_556
O2 Rb1 2.755124 1_555
O3 Rb0 2.755124 1_555
O4 Rb0 2.703850 1_556
O5 Rb1 2.703850 1_565
O6 Rb0 2.703850 1_555
O7 Rb1 2.703850 1_655
O8 Rb1 2.665003 1_655
O9 Rb0 2.665003 1_556
O10 Rb1 2.665003 1_565
O11 Rb0 2.665003 1_555
