# generated using pymatgen
data_Cs2ScV3F12
_symmetry_space_group_name_H-M   'P 1'
_cell_length_a   7.55160170
_cell_length_b   7.55160216
_cell_length_c   7.55160127
_cell_angle_alpha   59.01828715
_cell_angle_beta   59.01828991
_cell_angle_gamma   59.01828340
_symmetry_Int_Tables_number   1
_chemical_formula_structural   Cs2ScV3F12
_chemical_formula_sum   'Cs2 Sc1 V3 F12'
_cell_volume   297.69219268
_cell_formula_units_Z   1
loop_
 _symmetry_equiv_pos_site_id
 _symmetry_equiv_pos_as_xyz
  1  'x, y, z'
loop_
 _atom_site_type_symbol
 _atom_site_label
 _atom_site_symmetry_multiplicity
 _atom_site_fract_x
 _atom_site_fract_y
 _atom_site_fract_z
 _atom_site_occupancy
  Cs  Cs0  1  0.37907539  0.37907539  0.37907539  1
  Cs  Cs1  1  0.62092461  0.62092461  0.62092461  1
  Sc  Sc0  1  0.00000000  0.00000000  0.00000000  1
  V  V0  1  0.50000000  0.00000000  0.00000000  1
  V  V1  1  0.00000000  0.00000000  0.50000000  1
  V  V2  1  0.00000000  0.50000000  0.00000000  1
  F  F0  1  0.93241394  0.32024824  0.32024824  1
  F  F1  1  0.32018358  0.92988464  0.92988464  1
  F  F2  1  0.32024824  0.32024824  0.93241394  1
  F  F3  1  0.92988464  0.92988464  0.32018358  1
  F  F4  1  0.92988464  0.32018358  0.92988464  1
  F  F5  1  0.32024824  0.93241394  0.32024824  1
  F  F6  1  0.06758606  0.67975176  0.67975176  1
  F  F7  1  0.67981642  0.07011536  0.07011536  1
  F  F8  1  0.67975176  0.67975176  0.06758606  1
  F  F9  1  0.07011536  0.07011536  0.67981642  1
  F  F10  1  0.07011536  0.67981642  0.07011536  1
  F  F11  1  0.67975176  0.06758606  0.67975176  1
loop_
_geom_bond_atom_site_label_1
_geom_bond_atom_site_label_2
_geom_bond_distance
_geom_bond_site_symmetry_2
Cs0 F11 3.186631 1_555
Cs0 F6 3.186632 1_555
Cs0 F8 3.186632 1_555
Cs0 F10 3.277007 1_555
Cs0 F7 3.277007 1_555
Cs0 F9 3.277007 1_555
Cs1 F5 3.186631 1_555
Cs1 F0 3.186632 1_555
Cs1 F2 3.186632 1_555
Cs1 F4 3.277007 1_555
Cs1 F1 3.277007 1_555
Cs1 F3 3.277007 1_555
F0 V2 2.003616 1_655
F0 V1 2.003616 1_655
F1 Sc0 2.014817 1_566
F1 V0 2.042956 1_566
F2 V2 2.003616 1_556
F2 V0 2.003616 1_556
F3 Sc0 2.014817 1_665
F3 V1 2.042956 1_665
F4 Sc0 2.014817 1_656
F4 V2 2.042956 1_656
F5 V0 2.003616 1_565
F5 V1 2.003616 1_565
F6 V2 2.003616 1_556
F6 V1 2.003616 1_565
F7 Sc0 2.014817 1_655
F7 V0 2.042956 1_555
F8 V2 2.003616 1_655
F8 V0 2.003616 1_565
F9 Sc0 2.014817 1_556
F9 V1 2.042956 1_555
F10 Sc0 2.014817 1_565
F10 V2 2.042956 1_555
F11 V0 2.003616 1_556
F11 V1 2.003616 1_655
