# generated using pymatgen
data_Hf9Nb(Sn3Ge)2
_symmetry_space_group_name_H-M   'P 1'
_cell_length_a   8.57371188
_cell_length_b   8.57374095
_cell_length_c   5.76540628
_cell_angle_alpha   90.00000727
_cell_angle_beta   90.00000086
_cell_angle_gamma   119.99988675
_symmetry_Int_Tables_number   1
_chemical_formula_structural   Hf9Nb(Sn3Ge)2
_chemical_formula_sum   'Hf9 Nb1 Sn6 Ge2'
_cell_volume   367.02892065
_cell_formula_units_Z   1
loop_
 _symmetry_equiv_pos_site_id
 _symmetry_equiv_pos_as_xyz
  1  'x, y, z'
loop_
 _atom_site_type_symbol
 _atom_site_label
 _atom_site_symmetry_multiplicity
 _atom_site_fract_x
 _atom_site_fract_y
 _atom_site_fract_z
 _atom_site_occupancy
  Hf  Hf0  1  0.66666599  0.33333290  0.50000016  1
  Hf  Hf1  1  0.66666642  0.33333344  0.99999970  1
  Hf  Hf2  1  0.33333368  0.66666685  0.49999953  1
  Hf  Hf3  1  0.26446618  0.99991931  0.25056629  1
  Hf  Hf4  1  0.26446498  0.26454561  0.74943295  1
  Hf  Hf5  1  0.00008128  0.73553574  0.74943306  1
  Hf  Hf6  1  0.00008159  0.26454652  0.25056640  1
  Hf  Hf7  1  0.73545289  0.73553412  0.25056680  1
  Hf  Hf8  1  0.73545216  0.99991881  0.74943386  1
  Nb  Nb0  1  0.33333698  0.66666793  0.00000151  1
  Sn  Sn0  1  0.60531833  0.99854893  0.24823983  1
  Sn  Sn1  1  0.60531819  0.60676952  0.75175965  1
  Sn  Sn2  1  0.00145314  0.39468087  0.75176160  1
  Sn  Sn3  1  0.00145338  0.60677177  0.24823868  1
  Sn  Sn4  1  0.39322655  0.39467823  0.24823990  1
  Sn  Sn5  1  0.39322735  0.99854866  0.75176036  1
  Ge  Ge0  1  0.00000038  0.00000046  0.00000002  1
  Ge  Ge1  1  0.00000053  0.00000032  0.49999971  1
loop_
_geom_bond_atom_site_label_1
_geom_bond_atom_site_label_2
_geom_bond_distance
_geom_bond_site_symmetry_2
Hf0 Hf1 2.882701 1_555
Hf0 Hf1 2.882706 1_554
Hf0 Sn1 3.018720 1_555
Hf0 Sn0 3.018723 1_545
Hf0 Sn4 3.018725 1_555
Hf0 Sn5 3.018730 1_545
Hf0 Sn2 3.018740 1_655
Hf0 Sn3 3.018746 1_655
Hf1 Sn1 3.009015 1_555
Hf1 Sn0 3.009020 1_546
Hf1 Sn4 3.009020 1_556
Hf1 Sn2 3.009023 1_655
Hf1 Sn5 3.009025 1_545
Hf1 Sn3 3.009030 1_656
Hf2 Nb0 2.882692 1_555
Hf2 Nb0 2.882715 1_556
Hf2 Sn3 3.000988 1_555
Hf2 Sn1 3.000992 1_555
Hf2 Sn2 3.001001 1_555
Hf2 Sn0 3.001001 1_555
Hf2 Sn4 3.001005 1_555
Hf2 Sn5 3.001012 1_555
Hf3 Sn0 2.928291 1_555
Hf3 Sn3 2.974243 1_555
Hf3 Sn4 2.989608 1_565
Hf3 Sn5 3.082560 1_554
Hf3 Sn5 3.095409 1_555
Hf4 Sn1 2.928312 1_555
Hf4 Sn2 2.974227 1_555
Hf4 Sn5 2.989601 1_545
Hf4 Sn4 3.082569 1_556
Hf4 Sn4 3.095407 1_555
Hf5 Sn2 2.928331 1_555
Hf5 Sn5 2.974226 1_555
Hf5 Sn1 2.989621 1_455
Hf5 Sn3 3.082571 1_556
Hf5 Sn3 3.095423 1_555
Hf6 Sn3 2.928318 1_555
Hf6 Sn4 2.974215 1_555
Hf6 Sn0 2.989628 1_445
Hf6 Sn2 3.082562 1_554
Hf6 Sn2 3.095423 1_555
Hf7 Sn4 2.928333 1_555
Hf7 Sn0 2.974250 1_555
Hf7 Sn3 2.989625 1_655
Hf7 Sn1 3.082577 1_554
Hf7 Sn1 3.095414 1_555
Hf8 Sn5 2.928312 1_555
Hf8 Sn1 2.974258 1_555
Hf8 Sn2 2.989633 1_665
Hf8 Sn0 3.082568 1_556
Hf8 Sn0 3.095416 1_555
Nb0 Sn1 2.991214 1_554
Nb0 Sn0 2.991220 1_555
Nb0 Sn4 2.991231 1_555
Nb0 Sn3 2.991237 1_555
Nb0 Sn2 2.991250 1_554
Nb0 Sn5 2.991251 1_554
Ge0 Hf4 2.688835 1_554
Ge0 Hf5 2.688836 1_544
Ge0 Hf3 2.688836 1_545
Ge0 Hf6 2.688836 1_555
Ge0 Hf8 2.688843 1_444
Ge0 Hf7 2.688848 1_445
Ge1 Hf4 2.685328 1_555
Ge1 Hf5 2.685329 1_545
Ge1 Hf3 2.685331 1_545
Ge1 Hf6 2.685334 1_555
Ge1 Hf7 2.685342 1_445
Ge1 Hf8 2.685344 1_445
