# generated using pymatgen
data_Al4SnPbI16
_symmetry_space_group_name_H-M   'P 1'
_cell_length_a   7.87550531
_cell_length_b   8.39386550
_cell_length_c   15.38764570
_cell_angle_alpha   87.99583108
_cell_angle_beta   90.15126156
_cell_angle_gamma   89.83033059
_symmetry_Int_Tables_number   1
_chemical_formula_structural   Al4SnPbI16
_chemical_formula_sum   'Al4 Sn1 Pb1 I16'
_cell_volume   1016.58413187
_cell_formula_units_Z   1
loop_
 _symmetry_equiv_pos_site_id
 _symmetry_equiv_pos_as_xyz
  1  'x, y, z'
loop_
 _atom_site_type_symbol
 _atom_site_label
 _atom_site_symmetry_multiplicity
 _atom_site_fract_x
 _atom_site_fract_y
 _atom_site_fract_z
 _atom_site_occupancy
  Al  Al0  1  0.93675928  0.21843488  0.57828705  1
  Al  Al1  1  0.06382769  0.21325498  0.08161478  1
  Al  Al2  1  0.57165701  0.64746372  0.77748964  1
  Al  Al3  1  0.42847729  0.64297970  0.27817682  1
  Sn  Sn0  1  0.23955897  0.07370746  0.31251481  1
  Pb  Pb0  1  0.76376986  0.08133573  0.81413670  1
  I  I0  1  0.42685461  0.62129335  0.63508604  1
  I  I1  1  0.57340272  0.61648547  0.13605242  1
  I  I2  1  0.88609191  0.72924651  0.75976256  1
  I  I3  1  0.11487965  0.73289657  0.25886720  1
  I  I4  1  0.94150920  0.47392143  0.49170960  1
  I  I5  1  0.05495627  0.46641130  0.99309504  1
  I  I6  1  0.92777878  0.97657679  0.00622796  1
  I  I7  1  0.07033202  0.98134599  0.50139443  1
  I  I8  1  0.63012359  0.13222124  0.61759904  1
  I  I9  1  0.37208502  0.12860391  0.12047945  1
  I  I10  1  0.55254376  0.39513917  0.87744505  1
  I  I11  1  0.44169099  0.39050511  0.37716275  1
  I  I12  1  0.43111467  0.86881592  0.86613167  1
  I  I13  1  0.56640011  0.86511022  0.36710166  1
  I  I14  1  0.91129401  0.23776973  0.22917433  1
  I  I15  1  0.09489059  0.24128083  0.72489202  1
loop_
_geom_bond_atom_site_label_1
_geom_bond_atom_site_label_2
_geom_bond_distance
_geom_bond_site_symmetry_2
Al0 I4 2.485174 1_555
Al0 I7 2.574081 1_645
Al0 I15 2.587210 1_655
Al0 I8 2.590146 1_555
Al1 I5 2.484321 1_554
Al1 I6 2.570538 1_445
Al1 I14 2.585852 1_455
Al1 I9 2.590090 1_555
Al2 I0 2.484413 1_555
Al2 I10 2.578650 1_555
Al2 I2 2.584264 1_555
Al2 I12 2.590520 1_555
Al3 I1 2.486091 1_555
Al3 I11 2.567897 1_555
Al3 I13 2.590619 1_555
Al3 I3 2.593636 1_555
I2 Pb0 3.243881 1_565
I3 Sn0 3.163365 1_565
I6 Pb0 3.312077 1_564
I7 Sn0 3.270086 1_565
I8 Pb0 3.213494 1_555
I9 Sn0 3.155537 1_555
I10 Pb0 3.288835 1_555
I11 Sn0 3.285811 1_555
I12 Pb0 3.259557 1_565
I13 Sn0 3.202502 1_565
I14 Sn0 3.172137 1_655
I15 Pb0 3.224799 1_455
