# generated using pymatgen
data_TaMn(SiRu2)2
_symmetry_space_group_name_H-M   'P 1'
_cell_length_a   7.37015536
_cell_length_b   7.37015481
_cell_length_c   7.37015340
_cell_angle_alpha   33.46110569
_cell_angle_beta   33.46110986
_cell_angle_gamma   33.46111688
_symmetry_Int_Tables_number   1
_chemical_formula_structural   TaMn(SiRu2)2
_chemical_formula_sum   'Ta1 Mn1 Si2 Ru4'
_cell_volume   108.39062518
_cell_formula_units_Z   1
loop_
 _symmetry_equiv_pos_site_id
 _symmetry_equiv_pos_as_xyz
  1  'x, y, z'
loop_
 _atom_site_type_symbol
 _atom_site_label
 _atom_site_symmetry_multiplicity
 _atom_site_fract_x
 _atom_site_fract_y
 _atom_site_fract_z
 _atom_site_occupancy
  Ta  Ta0  1  0.50000000  0.50000000  0.50000000  1
  Mn  Mn0  1  0.00000000  0.00000000  0.00000000  1
  Si  Si0  1  0.25392818  0.25392818  0.25392818  1
  Si  Si1  1  0.74607182  0.74607182  0.74607182  1
  Ru  Ru0  1  0.62442696  0.62442696  0.62442696  1
  Ru  Ru1  1  0.12491167  0.12491167  0.12491167  1
  Ru  Ru2  1  0.87508833  0.87508833  0.87508833  1
  Ru  Ru3  1  0.37557304  0.37557304  0.37557304  1
loop_
_geom_bond_atom_site_label_1
_geom_bond_atom_site_label_2
_geom_bond_distance
_geom_bond_site_symmetry_2
Mn0 Ru3 2.603414 1_554
Mn0 Ru0 2.603414 1_445
Mn0 Ru3 2.603414 1_545
Mn0 Ru0 2.603414 1_454
Mn0 Ru3 2.603414 1_455
Mn0 Ru0 2.603414 1_544
Mn0 Ru1 2.604807 1_555
Mn0 Ru2 2.604807 1_444
Ru0 Si1 2.536683 1_555
Ru0 Si0 2.569543 1_556
Ru0 Si0 2.569543 1_565
Ru0 Si0 2.569543 1_655
Ru0 Ta0 2.594699 1_555
Ru1 Ta0 2.600011 1_554
Ru1 Ta0 2.600011 1_545
Ru1 Ta0 2.600012 1_455
Ru1 Si1 2.627245 1_445
Ru1 Si1 2.627245 1_454
Ru1 Si1 2.627245 1_544
Ru1 Si0 2.690406 1_555
Ru2 Ta0 2.600011 1_556
Ru2 Ta0 2.600011 1_565
Ru2 Ta0 2.600012 1_655
Ru2 Si0 2.627245 1_665
Ru2 Si0 2.627245 1_656
Ru2 Si0 2.627245 1_566
Ru2 Si1 2.690406 1_555
Ru3 Si0 2.536683 1_555
Ru3 Si1 2.569543 1_554
Ru3 Si1 2.569543 1_545
Ru3 Si1 2.569543 1_455
Ru3 Ta0 2.594699 1_555
