# generated using pymatgen
data_Na2CaPO4F
_symmetry_space_group_name_H-M   'P 1'
_cell_length_a   7.14897468
_cell_length_b   7.14897468
_cell_length_c   14.29540937
_cell_angle_alpha   74.71110898
_cell_angle_beta   74.71110898
_cell_angle_gamma   59.31313205
_symmetry_Int_Tables_number   1
_chemical_formula_structural   Na2CaPO4F
_chemical_formula_sum   'Na10 Ca5 P5 O20 F5'
_cell_volume   598.67722268
_cell_formula_units_Z   5
loop_
 _symmetry_equiv_pos_site_id
 _symmetry_equiv_pos_as_xyz
  1  'x, y, z'
loop_
 _atom_site_type_symbol
 _atom_site_label
 _atom_site_symmetry_multiplicity
 _atom_site_fract_x
 _atom_site_fract_y
 _atom_site_fract_z
 _atom_site_occupancy
  Na  Na0  1  0.58139600  0.04718400  0.79533400  1
  Na  Na1  1  0.04718400  0.58139600  0.79533400  1
  Na  Na2  1  0.80137500  0.28982800  0.59401400  1
  Na  Na3  1  0.28982800  0.80137500  0.59401400  1
  Na  Na4  1  0.70596100  0.21239400  0.38758800  1
  Na  Na5  1  0.21239400  0.70596100  0.38758800  1
  Na  Na6  1  0.92886000  0.43301200  0.19046100  1
  Na  Na7  1  0.43301200  0.92886000  0.19046100  1
  Na  Na8  1  0.84271100  0.34500600  0.99343000  1
  Na  Na9  1  0.34500600  0.84271100  0.99343000  1
  Ca  Ca0  1  0.58189000  0.58189000  0.79413200  1
  Ca  Ca1  1  0.30853100  0.30853100  0.59636400  1
  Ca  Ca2  1  0.68556400  0.68556400  0.39149100  1
  Ca  Ca3  1  0.45011500  0.45011500  0.19087600  1
  Ca  Ca4  1  0.82553600  0.82553600  0.99105900  1
  P  P0  1  0.06513800  0.06513800  0.79795400  1
  P  P1  1  0.20424800  0.20424800  0.40187400  1
  P  P2  1  0.33864200  0.33864200  0.00219600  1
  P  P3  1  0.79950500  0.79950500  0.58771900  1
  P  P4  1  0.92768000  0.92768000  0.19982700  1
  O  O0  1  0.02772500  0.02772500  0.91300700  1
  O  O1  1  0.17300800  0.17300800  0.51713200  1
  O  O2  1  0.30507800  0.30507800  0.11704900  1
  O  O3  1  0.47082500  0.10994900  0.96672200  1
  O  O4  1  0.47020300  0.47020300  0.95938500  1
  O  O5  1  0.10994900  0.47082500  0.96672200  1
  O  O6  1  0.68821200  0.05285200  0.55226000  1
  O  O7  1  0.69261700  0.69261700  0.55238400  1
  O  O8  1  0.05285200  0.68821200  0.55226000  1
  O  O9  1  0.97421600  0.33353600  0.36812000  1
  O  O10  1  0.33529000  0.33529000  0.35710700  1
  O  O11  1  0.33353600  0.97421600  0.36812000  1
  O  O12  1  0.82127600  0.18149800  0.16531200  1
  O  O13  1  0.18149800  0.82127600  0.16531200  1
  O  O14  1  0.82737300  0.82737300  0.15545000  1
  O  O15  1  0.96211300  0.31723700  0.75574200  1
  O  O16  1  0.31723700  0.96211300  0.75574200  1
  O  O17  1  0.95938600  0.95938600  0.76246200  1
  O  O18  1  0.76423100  0.76423100  0.70036100  1
  O  O19  1  0.88084800  0.88084800  0.31455700  1
  F  F0  1  0.42752300  0.42752300  0.71798100  1
  F  F1  1  0.49686400  0.49686400  0.49846100  1
  F  F2  1  0.57208700  0.57208700  0.28870100  1
  F  F3  1  0.63655900  0.63655900  0.08833800  1
  F  F4  1  0.70291900  0.70291900  0.89217000  1
loop_
_geom_bond_atom_site_label_1
_geom_bond_atom_site_label_2
_geom_bond_distance
_geom_bond_site_symmetry_2
Na0 O18 2.336094 1_545
Na0 O17 2.381506 1_545
Na0 O3 2.454661 1_555
Na0 O16 2.484752 1_545
Na1 O18 2.336094 1_455
Na1 O17 2.381506 1_455
Na1 O5 2.454661 1_555
Na1 O15 2.484752 1_455
Na2 O1 2.375581 1_655
Na2 O6 2.463273 1_555
Na2 O7 2.511069 1_555
Na2 O17 2.892410 1_545
Na2 O15 2.928115 1_555
Na3 O1 2.375581 1_565
Na3 O8 2.463273 1_555
Na3 O7 2.511069 1_555
Na3 O17 2.892410 1_455
Na3 O16 2.928115 1_555
Na4 O6 2.330832 1_555
Na4 O9 2.406632 1_555
Na4 O19 2.421351 1_545
Na4 O10 2.452456 1_555
Na5 O8 2.330832 1_555
Na5 O11 2.406632 1_555
Na5 O19 2.421351 1_455
Na5 O10 2.452456 1_555
Na6 O2 2.382961 1_655
Na6 O12 2.419112 1_555
Na6 O14 2.466735 1_555
Na6 O9 2.511458 1_555
Na7 O2 2.382961 1_565
Na7 O13 2.419112 1_555
Na7 O14 2.466735 1_555
Na7 O11 2.511458 1_555
Na8 O0 2.393159 1_655
Na8 O5 2.406856 1_655
Na8 O12 2.428345 1_556
Na8 O4 2.480069 1_555
Na9 O0 2.393159 1_565
Na9 O3 2.406856 1_565
Na9 O13 2.428345 1_556
Na9 O4 2.480069 1_555
Ca0 O18 2.255385 1_555
Ca0 F4 2.346180 1_555
Ca0 O4 2.348831 1_555
Ca0 O15 2.404392 1_555
Ca0 O16 2.404392 1_555
Ca0 F0 2.476078 1_555
Ca1 O1 2.296908 1_555
Ca1 F1 2.333893 1_555
Ca1 O6 2.397357 1_555
Ca1 O8 2.397357 1_555
Ca1 F0 2.601617 1_555
Ca1 O15 2.875736 1_455
Ca1 O16 2.875736 1_545
Ca2 F2 2.324758 1_555
Ca2 O7 2.328120 1_555
Ca2 O19 2.340416 1_555
Ca2 O9 2.341478 1_555
Ca2 O11 2.341478 1_555
Ca2 F1 2.379019 1_555
Ca3 F3 2.335466 1_555
Ca3 O2 2.348523 1_555
Ca3 O12 2.349405 1_555
Ca3 O13 2.349405 1_555
Ca3 F2 2.353418 1_555
Ca3 O10 2.371706 1_555
Ca4 F3 2.337861 1_556
Ca4 O5 2.348427 1_655
Ca4 O3 2.348427 1_565
Ca4 O14 2.357063 1_556
Ca4 F4 2.372039 1_555
Ca4 O0 2.419718 1_665
O0 P0 1.567558 1_555
O1 P1 1.573953 1_555
O2 P2 1.566565 1_555
O3 P2 1.559070 1_556
O4 P2 1.561891 1_556
O5 P2 1.559070 1_556
O6 P3 1.558203 1_545
O7 P3 1.557589 1_555
O8 P3 1.558203 1_455
O9 P1 1.556706 1_655
O10 P1 1.558280 1_555
O11 P1 1.556706 1_565
O12 P4 1.559348 1_545
O13 P4 1.559348 1_455
O14 P4 1.560631 1_555
O15 P0 1.568658 1_655
O16 P0 1.568658 1_565
O17 P0 1.545486 1_665
O18 P3 1.535169 1_555
O19 P4 1.565053 1_555
F0 Na0 2.414319 1_555
F0 Na1 2.414319 1_555
F0 Na3 2.643759 1_555
F0 Na2 2.643759 1_555
F1 Na2 2.451299 1_555
F1 Na3 2.451299 1_555
F1 Na4 2.495993 1_555
F1 Na5 2.495993 1_555
F2 Na7 2.392731 1_555
F2 Na6 2.392731 1_555
F2 Na5 2.410627 1_555
F2 Na4 2.410627 1_555
F3 Na8 2.378779 1_554
F3 Na9 2.378779 1_554
F3 Na6 2.449534 1_555
F3 Na7 2.449534 1_555
F4 Na0 2.320211 1_565
F4 Na1 2.320211 1_655
F4 Na8 2.416763 1_555
F4 Na9 2.416763 1_555
