# generated using pymatgen
data_K2BeI4
_symmetry_space_group_name_H-M   'P 1'
_cell_length_a   7.99755978
_cell_length_b   7.61946526
_cell_length_c   9.68194263
_cell_angle_alpha   71.35701077
_cell_angle_beta   90.00000000
_cell_angle_gamma   90.00000000
_symmetry_Int_Tables_number   1
_chemical_formula_structural   K2BeI4
_chemical_formula_sum   'K4 Be2 I8'
_cell_volume   559.03233058
_cell_formula_units_Z   2
loop_
 _symmetry_equiv_pos_site_id
 _symmetry_equiv_pos_as_xyz
  1  'x, y, z'
loop_
 _atom_site_type_symbol
 _atom_site_label
 _atom_site_symmetry_multiplicity
 _atom_site_fract_x
 _atom_site_fract_y
 _atom_site_fract_z
 _atom_site_occupancy
  K  K0  1  0.75000000  0.79295960  0.54468555  1
  K  K1  1  0.25000000  0.20704040  0.45531445  1
  K  K2  1  0.75000000  0.71953099  0.07400947  1
  K  K3  1  0.25000000  0.28046901  0.92599053  1
  Be  Be0  1  0.75000000  0.21210421  0.70483860  1
  Be  Be1  1  0.25000000  0.78789579  0.29516140  1
  I  I0  1  0.75000000  0.38096018  0.44493262  1
  I  I1  1  0.25000000  0.61903982  0.55506738  1
  I  I2  1  0.00740108  0.99198678  0.23569444  1
  I  I3  1  0.99259892  0.00801322  0.76430556  1
  I  I4  1  0.50740108  0.00801322  0.76430556  1
  I  I5  1  0.49259892  0.99198678  0.23569444  1
  I  I6  1  0.75000000  0.41018750  0.85928905  1
  I  I7  1  0.25000000  0.58981250  0.14071095  1
loop_
_geom_bond_atom_site_label_1
_geom_bond_atom_site_label_2
_geom_bond_distance
_geom_bond_site_symmetry_2
Be0 I0 2.432622 1_555
Be0 I3 2.437554 1_555
Be0 I4 2.437554 1_555
Be0 I6 2.440713 1_555
Be1 I1 2.432622 1_555
Be1 I5 2.437554 1_555
Be1 I2 2.437554 1_555
Be1 I7 2.440713 1_555
I0 K0 3.567329 1_555
I0 K2 3.691744 1_555
I1 K1 3.567329 1_555
I1 K3 3.691744 1_555
I2 K0 3.547790 1_455
I2 K2 3.616028 1_455
I2 K1 3.632950 1_565
I2 K3 3.656944 1_564
I3 K1 3.547790 1_655
I3 K3 3.616028 1_655
I3 K0 3.632950 1_545
I3 K2 3.656944 1_546
I4 K1 3.547790 1_555
I4 K3 3.616028 1_555
I4 K0 3.632950 1_545
I4 K2 3.656944 1_546
I5 K0 3.547790 1_555
I5 K2 3.616028 1_555
I5 K1 3.632950 1_565
I5 K3 3.656944 1_564
I6 K0 3.479132 1_555
I6 K2 3.606976 1_556
I7 K1 3.479132 1_555
I7 K3 3.606976 1_554
