# generated using pymatgen
data_Zr3Sn3Ir2Rh
_symmetry_space_group_name_H-M   'P 1'
_cell_length_a   7.37255462
_cell_length_b   7.37255461
_cell_length_c   7.29946893
_cell_angle_alpha   90.00000000
_cell_angle_beta   90.00000000
_cell_angle_gamma   120.00000008
_symmetry_Int_Tables_number   1
_chemical_formula_structural   Zr3Sn3Ir2Rh
_chemical_formula_sum   'Zr6 Sn6 Ir4 Rh2'
_cell_volume   343.60374817
_cell_formula_units_Z   2
loop_
 _symmetry_equiv_pos_site_id
 _symmetry_equiv_pos_as_xyz
  1  'x, y, z'
loop_
 _atom_site_type_symbol
 _atom_site_label
 _atom_site_symmetry_multiplicity
 _atom_site_fract_x
 _atom_site_fract_y
 _atom_site_fract_z
 _atom_site_occupancy
  Zr  Zr0  1  0.58919925  0.97744254  0.75000000  1
  Zr  Zr1  1  0.38824329  0.41080075  0.75000000  1
  Zr  Zr2  1  0.02255746  0.61175671  0.75000000  1
  Zr  Zr3  1  0.61175671  0.02255746  0.25000000  1
  Zr  Zr4  1  0.41080075  0.38824329  0.25000000  1
  Zr  Zr5  1  0.97744254  0.58919925  0.25000000  1
  Sn  Sn0  1  0.26913873  0.00000000  0.00000000  1
  Sn  Sn1  1  0.73086127  0.73086127  0.50000000  1
  Sn  Sn2  1  0.00000000  0.26913873  0.50000000  1
  Sn  Sn3  1  0.00000000  0.26913873  0.00000000  1
  Sn  Sn4  1  0.73086127  0.73086127  0.00000000  1
  Sn  Sn5  1  0.26913873  0.00000000  0.50000000  1
  Ir  Ir0  1  0.66666700  0.33333300  0.95986151  1
  Ir  Ir1  1  0.66666700  0.33333300  0.54013849  1
  Ir  Ir2  1  0.33333300  0.66666700  0.04013849  1
  Ir  Ir3  1  0.33333300  0.66666700  0.45986151  1
  Rh  Rh0  1  0.00000000  0.00000000  0.75000000  1
  Rh  Rh1  1  0.00000000  0.00000000  0.25000000  1
loop_
_geom_bond_atom_site_label_1
_geom_bond_atom_site_label_2
_geom_bond_distance
_geom_bond_site_symmetry_2
Sn0 Zr3 3.052579 1_555
Sn0 Zr0 3.052579 1_544
Sn0 Zr4 3.102336 1_555
Sn0 Zr2 3.102336 1_544
Sn0 Zr1 3.257984 1_554
Sn0 Zr5 3.257984 1_445
Sn1 Zr4 3.052579 1_555
Sn1 Zr1 3.052579 1_555
Sn1 Zr0 3.102336 1_555
Sn1 Zr5 3.102336 1_555
Sn1 Zr3 3.257984 1_565
Sn1 Zr2 3.257984 1_655
Sn2 Zr2 3.052579 1_555
Sn2 Zr5 3.052579 1_455
Sn2 Zr3 3.102336 1_455
Sn2 Zr1 3.102336 1_555
Sn2 Zr0 3.257984 1_445
Sn2 Zr4 3.257984 1_555
Sn3 Zr2 3.052579 1_554
Sn3 Zr5 3.052579 1_455
Sn3 Zr3 3.102336 1_455
Sn3 Zr1 3.102336 1_554
Sn3 Zr0 3.257984 1_444
Sn3 Zr4 3.257984 1_555
Sn4 Zr4 3.052579 1_555
Sn4 Zr1 3.052579 1_554
Sn4 Zr0 3.102336 1_554
Sn4 Zr5 3.102336 1_555
Sn4 Zr3 3.257984 1_565
Sn4 Zr2 3.257984 1_654
Sn5 Zr3 3.052579 1_555
Sn5 Zr0 3.052579 1_545
Sn5 Zr4 3.102336 1_555
Sn5 Zr2 3.102336 1_545
Sn5 Zr1 3.257984 1_555
Sn5 Zr5 3.257984 1_445
Ir0 Sn3 2.740857 1_656
Ir0 Sn0 2.740862 1_556
Ir0 Sn4 2.740865 1_556
Ir0 Zr0 2.838790 1_545
Ir0 Zr2 2.838792 1_655
Ir0 Zr1 2.838796 1_555
Ir0 Zr3 2.995212 1_556
Ir0 Zr5 2.995214 1_556
Ir0 Zr4 2.995218 1_556
Ir1 Sn2 2.740857 1_655
Ir1 Sn5 2.740862 1_555
Ir1 Sn1 2.740865 1_555
Ir1 Zr0 2.838790 1_545
Ir1 Zr2 2.838792 1_655
Ir1 Zr1 2.838796 1_555
Ir1 Zr3 2.995212 1_555
Ir1 Zr5 2.995214 1_555
Ir1 Zr4 2.995218 1_555
Ir2 Sn0 2.740857 1_565
Ir2 Sn3 2.740862 1_555
Ir2 Sn4 2.740865 1_555
Ir2 Zr5 2.838790 1_455
Ir2 Zr3 2.838792 1_565
Ir2 Zr4 2.838796 1_555
Ir2 Zr2 2.995212 1_554
Ir2 Zr0 2.995214 1_554
Ir2 Zr1 2.995218 1_554
Ir3 Sn5 2.740857 1_565
Ir3 Sn2 2.740862 1_555
Ir3 Sn1 2.740865 1_555
Ir3 Zr5 2.838790 1_455
Ir3 Zr3 2.838792 1_565
Ir3 Zr4 2.838796 1_555
Ir3 Zr2 2.995212 1_555
Ir3 Zr0 2.995214 1_555
Ir3 Zr1 2.995218 1_555
Rh0 Sn3 2.695802 1_556
Rh0 Sn2 2.695802 1_555
Rh0 Sn1 2.695802 1_445
Rh0 Sn4 2.695802 1_446
Rh0 Sn0 2.695802 1_556
Rh0 Sn5 2.695802 1_555
Rh0 Zr1 2.949017 1_555
Rh0 Zr2 2.949017 1_545
Rh0 Zr0 2.949017 1_445
Rh1 Sn3 2.695802 1_555
Rh1 Sn2 2.695802 1_555
Rh1 Sn4 2.695802 1_445
Rh1 Sn1 2.695802 1_445
Rh1 Sn5 2.695802 1_555
Rh1 Sn0 2.695802 1_555
Rh1 Zr5 2.949017 1_445
Rh1 Zr4 2.949017 1_555
Rh1 Zr3 2.949017 1_455
