# generated using pymatgen
data_Sc3Nb2Sn3As
_symmetry_space_group_name_H-M   'P 1'
_cell_length_a   8.56986054
_cell_length_b   8.56986061
_cell_length_c   5.75573622
_cell_angle_alpha   90.00000000
_cell_angle_beta   90.00000000
_cell_angle_gamma   119.99999976
_symmetry_Int_Tables_number   1
_chemical_formula_structural   Sc3Nb2Sn3As
_chemical_formula_sum   'Sc6 Nb4 Sn6 As2'
_cell_volume   366.08254981
_cell_formula_units_Z   2
loop_
 _symmetry_equiv_pos_site_id
 _symmetry_equiv_pos_as_xyz
  1  'x, y, z'
loop_
 _atom_site_type_symbol
 _atom_site_label
 _atom_site_symmetry_multiplicity
 _atom_site_fract_x
 _atom_site_fract_y
 _atom_site_fract_z
 _atom_site_occupancy
  Sc  Sc0  1  0.73718599  0.73718599  0.75000000  1
  Sc  Sc1  1  0.26281401  0.00000000  0.75000000  1
  Sc  Sc2  1  0.00000000  0.26281401  0.75000000  1
  Sc  Sc3  1  0.26281401  0.26281401  0.25000000  1
  Sc  Sc4  1  0.73718599  0.00000000  0.25000000  1
  Sc  Sc5  1  0.00000000  0.73718599  0.25000000  1
  Nb  Nb0  1  0.66666700  0.33333300  0.00000000  1
  Nb  Nb1  1  0.33333300  0.66666700  0.00000000  1
  Nb  Nb2  1  0.33333300  0.66666700  0.50000000  1
  Nb  Nb3  1  0.66666700  0.33333300  0.50000000  1
  Sn  Sn0  1  0.39693537  0.39693537  0.75000000  1
  Sn  Sn1  1  0.60306463  0.00000000  0.75000000  1
  Sn  Sn2  1  0.00000000  0.60306463  0.75000000  1
  Sn  Sn3  1  0.60306463  0.60306463  0.25000000  1
  Sn  Sn4  1  0.39693537  0.00000000  0.25000000  1
  Sn  Sn5  1  1.00000000  0.39693537  0.25000000  1
  As  As0  1  0.00000000  0.00000000  0.00000000  1
  As  As1  1  0.00000000  0.00000000  0.50000000  1
loop_
_geom_bond_atom_site_label_1
_geom_bond_atom_site_label_2
_geom_bond_distance
_geom_bond_site_symmetry_2
Sc0 Sn0 2.915900 1_555
Sc0 Sn2 2.997108 1_655
Sc0 Sn1 2.997108 1_565
Sc0 Sn3 3.098911 1_556
Sc0 Sn3 3.098911 1_555
Sc1 Sn1 2.915900 1_555
Sc1 Sn0 2.997108 1_555
Sc1 Sn2 2.997108 1_545
Sc1 Sn4 3.098911 1_556
Sc1 Sn4 3.098911 1_555
Sc2 Sn2 2.915900 1_555
Sc2 Sn0 2.997108 1_555
Sc2 Sn1 2.997108 1_455
Sc2 Sn5 3.098911 1_456
Sc2 Sn5 3.098911 1_455
Sc3 Sn3 2.915900 1_555
Sc3 Sn5 2.997108 1_455
Sc3 Sn4 2.997108 1_555
Sc3 Sn0 3.098911 1_554
Sc3 Sn0 3.098911 1_555
Sc4 Sn4 2.915900 1_555
Sc4 Sn5 2.997108 1_555
Sc4 Sn3 2.997108 1_545
Sc4 Sn1 3.098911 1_555
Sc4 Sn1 3.098911 1_554
Sc5 Sn5 2.915900 1_455
Sc5 Sn3 2.997108 1_455
Sc5 Sn4 2.997108 1_565
Sc5 Sn2 3.098911 1_554
Sc5 Sn2 3.098911 1_555
Nb0 Nb3 2.877868 1_554
Nb0 Nb3 2.877868 1_555
Nb0 Sn5 2.995138 1_555
Nb0 Sn1 2.995138 1_554
Nb0 Sn2 2.995140 1_654
Nb0 Sn4 2.995140 1_555
Nb0 Sn0 2.995145 1_554
Nb0 Sn3 2.995145 1_555
Nb0 Sc2 3.510325 1_654
Nb0 Sc4 3.510325 1_555
Nb0 Sc1 3.510330 1_554
Nb0 Sc5 3.510330 1_655
Nb0 Sc3 3.510332 1_555
Nb0 Sc0 3.510333 1_554
Nb1 Nb2 2.877868 1_555
Nb1 Nb2 2.877868 1_554
Nb1 Sn2 2.995138 1_554
Nb1 Sn4 2.995138 1_565
Nb1 Sn5 2.995140 1_455
Nb1 Sn1 2.995140 1_564
Nb1 Sn3 2.995145 1_555
Nb1 Sn0 2.995145 1_554
Nb1 Sc5 3.510325 1_555
Nb1 Sc1 3.510325 1_564
Nb1 Sc4 3.510330 1_565
Nb1 Sc2 3.510330 1_554
Nb1 Sc0 3.510332 1_554
Nb1 Sc3 3.510333 1_555
Nb2 Sn2 2.995138 1_555
Nb2 Sn4 2.995138 1_565
Nb2 Sn5 2.995140 1_455
Nb2 Sn1 2.995140 1_565
Nb2 Sn3 2.995145 1_555
Nb2 Sn0 2.995145 1_555
Nb2 Sc5 3.510325 1_555
Nb2 Sc1 3.510325 1_565
Nb2 Sc4 3.510330 1_565
Nb2 Sc2 3.510330 1_555
Nb2 Sc0 3.510332 1_555
Nb2 Sc3 3.510333 1_555
Nb3 Sn5 2.995138 1_555
Nb3 Sn1 2.995138 1_555
Nb3 Sn2 2.995140 1_655
Nb3 Sn4 2.995140 1_555
Nb3 Sn0 2.995145 1_555
Nb3 Sn3 2.995145 1_555
Nb3 Sc2 3.510325 1_655
Nb3 Sc4 3.510325 1_555
Nb3 Sc1 3.510330 1_555
Nb3 Sc5 3.510330 1_655
Nb3 Sc3 3.510332 1_555
Nb3 Sc0 3.510333 1_555
As0 Sc1 2.672694 1_554
As0 Sc4 2.672694 1_455
As0 Sc3 2.672694 1_555
As0 Sc2 2.672694 1_554
As0 Sc5 2.672694 1_545
As0 Sc0 2.672694 1_444
As1 Sc1 2.672694 1_555
As1 Sc4 2.672694 1_455
As1 Sc3 2.672694 1_555
As1 Sc2 2.672694 1_555
As1 Sc5 2.672694 1_545
As1 Sc0 2.672694 1_445
