# generated using pymatgen
data_Ba2GaIrCl
_symmetry_space_group_name_H-M   'P 1'
_cell_length_a   4.40954067
_cell_length_b   4.40954112
_cell_length_c   17.91276592
_cell_angle_alpha   90.00000000
_cell_angle_beta   90.00000000
_cell_angle_gamma   120.00000411
_symmetry_Int_Tables_number   1
_chemical_formula_structural   Ba2GaIrCl
_chemical_formula_sum   'Ba4 Ga2 Ir2 Cl2'
_cell_volume   301.63380600
_cell_formula_units_Z   2
loop_
 _symmetry_equiv_pos_site_id
 _symmetry_equiv_pos_as_xyz
  1  'x, y, z'
loop_
 _atom_site_type_symbol
 _atom_site_label
 _atom_site_symmetry_multiplicity
 _atom_site_fract_x
 _atom_site_fract_y
 _atom_site_fract_z
 _atom_site_occupancy
  Ba  Ba0  1  0.00000000  0.00000000  0.12180370  1
  Ba  Ba1  1  0.00000000  0.00000000  0.37819630  1
  Ba  Ba2  1  0.00000000  0.00000000  0.62234922  1
  Ba  Ba3  1  0.00000000  0.00000000  0.87765078  1
  Ga  Ga0  1  0.66666600  0.33333400  0.50046934  1
  Ga  Ga1  1  0.66666600  0.33333400  0.99953066  1
  Ir  Ir0  1  0.33333400  0.66666700  0.00030240  1
  Ir  Ir1  1  0.33333400  0.66666700  0.49969760  1
  Cl  Cl0  1  0.66666600  0.33333400  0.25000000  1
  Cl  Cl1  1  0.33333400  0.66666700  0.75000000  1
loop_
_geom_bond_atom_site_label_1
_geom_bond_atom_site_label_2
_geom_bond_distance
_geom_bond_site_symmetry_2
Ba0 Ir0 3.349352 1_445
Ba0 Ir0 3.349355 1_555
Ba0 Ir0 3.349355 1_545
Ba0 Ga1 3.358351 1_554
Ba0 Ga1 3.358352 1_444
Ba0 Ga1 3.358357 1_454
Ba0 Cl0 3.428493 1_555
Ba0 Cl0 3.428493 1_445
Ba0 Cl0 3.428498 1_455
Ba1 Ir1 3.349352 1_445
Ba1 Ir1 3.349355 1_555
Ba1 Ir1 3.349355 1_545
Ba1 Ga0 3.358351 1_555
Ba1 Ga0 3.358352 1_445
Ba1 Ga0 3.358357 1_455
Ba1 Cl0 3.428493 1_555
Ba1 Cl0 3.428493 1_445
Ba1 Cl0 3.428498 1_455
Ba2 Ga0 3.353763 1_555
Ba2 Ga0 3.353763 1_445
Ba2 Ga0 3.353769 1_455
Ba2 Ir1 3.362778 1_445
Ba2 Ir1 3.362781 1_555
Ba2 Ir1 3.362781 1_545
Ba2 Cl1 3.421955 1_445
Ba2 Cl1 3.421958 1_555
Ba2 Cl1 3.421958 1_545
Ba3 Ga1 3.353763 1_555
Ba3 Ga1 3.353763 1_445
Ba3 Ga1 3.353769 1_455
Ba3 Ir0 3.362778 1_446
Ba3 Ir0 3.362781 1_556
Ba3 Ir0 3.362781 1_546
Ba3 Cl1 3.421955 1_445
Ba3 Cl1 3.421958 1_555
Ba3 Cl1 3.421958 1_545
Ga0 Ir1 2.545881 1_555
Ga0 Ir1 2.545888 1_545
Ga0 Ir1 2.545892 1_655
Ga1 Ir0 2.545881 1_556
Ga1 Ir0 2.545888 1_546
Ga1 Ir0 2.545892 1_656
