# generated using pymatgen
data_CsRb6(BPt)12
_symmetry_space_group_name_H-M   'P 1'
_cell_length_a   9.46456691
_cell_length_b   9.46456628
_cell_length_c   9.46456673
_cell_angle_alpha   112.04736986
_cell_angle_beta   112.04736977
_cell_angle_gamma   112.04737791
_symmetry_Int_Tables_number   1
_chemical_formula_structural   CsRb6(BPt)12
_chemical_formula_sum   'Cs1 Rb6 B12 Pt12'
_cell_volume   582.16175068
_cell_formula_units_Z   1
loop_
 _symmetry_equiv_pos_site_id
 _symmetry_equiv_pos_as_xyz
  1  'x, y, z'
loop_
 _atom_site_type_symbol
 _atom_site_label
 _atom_site_symmetry_multiplicity
 _atom_site_fract_x
 _atom_site_fract_y
 _atom_site_fract_z
 _atom_site_occupancy
  Cs  Cs0  1  0.50000000  0.50000000  0.50000000  1
  Rb  Rb0  1  0.00639561  0.72517281  0.72517281  1
  Rb  Rb1  1  0.72517281  0.72517281  0.00639561  1
  Rb  Rb2  1  0.72517281  0.00639561  0.72517281  1
  Rb  Rb3  1  0.27482719  0.99360439  0.27482719  1
  Rb  Rb4  1  0.99360439  0.27482719  0.27482719  1
  Rb  Rb5  1  0.27482719  0.27482719  0.99360439  1
  B  B0  1  0.27603983  0.72396017  0.50000000  1
  B  B1  1  0.72396017  0.50000000  0.27603983  1
  B  B2  1  0.50000000  0.27603983  0.72396017  1
  B  B3  1  0.72396017  0.27603983  0.50000000  1
  B  B4  1  0.27603983  0.50000000  0.72396017  1
  B  B5  1  0.50000000  0.72396017  0.27603983  1
  B  B6  1  0.05591645  0.94408355  0.50000000  1
  B  B7  1  0.94408355  0.50000000  0.05591645  1
  B  B8  1  0.50000000  0.05591645  0.94408355  1
  B  B9  1  0.94408355  0.05591645  0.50000000  1
  B  B10  1  0.05591645  0.50000000  0.94408355  1
  B  B11  1  0.50000000  0.94408355  0.05591645  1
  Pt  Pt0  1  0.67289667  0.32710333  1.00000000  1
  Pt  Pt1  1  0.32710333  1.00000000  0.67289667  1
  Pt  Pt2  1  0.00000000  0.67289667  0.32710333  1
  Pt  Pt3  1  0.32710333  0.67289667  0.00000000  1
  Pt  Pt4  1  0.67289667  0.00000000  0.32710333  1
  Pt  Pt5  1  1.00000000  0.32710333  0.67289667  1
  Pt  Pt6  1  0.63346967  0.25143514  0.25143514  1
  Pt  Pt7  1  0.25143514  0.25143514  0.63346967  1
  Pt  Pt8  1  0.25143514  0.63346967  0.25143514  1
  Pt  Pt9  1  0.74856486  0.36653033  0.74856486  1
  Pt  Pt10  1  0.36653033  0.74856486  0.74856486  1
  Pt  Pt11  1  0.74856486  0.74856486  0.36653033  1
loop_
_geom_bond_atom_site_label_1
_geom_bond_atom_site_label_2
_geom_bond_distance
_geom_bond_site_symmetry_2
Cs0 Pt11 3.601662 1_555
Cs0 Pt7 3.601662 1_555
Cs0 Pt10 3.601662 1_555
Cs0 Pt6 3.601662 1_555
Cs0 Pt9 3.601662 1_555
Cs0 Pt8 3.601662 1_555
Cs0 Rb2 3.648062 1_565
Cs0 Rb3 3.648062 1_545
Cs0 Rb0 3.648062 1_655
Cs0 Rb4 3.648062 1_455
Cs0 Rb1 3.648063 1_556
Cs0 Rb5 3.648063 1_554
B0 Pt8 2.061214 1_555
B0 Pt10 2.061214 1_555
B0 Pt1 2.232876 1_555
B0 Pt2 2.232876 1_555
B0 Rb4 3.185641 1_455
B0 Rb2 3.185641 1_565
B0 Cs0 3.515578 1_555
B1 Pt6 2.061214 1_555
B1 Pt11 2.061214 1_555
B1 Pt2 2.232876 1_655
B1 Pt0 2.232876 1_554
B1 Rb5 3.185641 1_554
B1 Rb0 3.185641 1_655
B1 Cs0 3.515578 1_555
B2 Pt9 2.061214 1_555
B2 Pt7 2.061214 1_555
B2 Pt1 2.232876 1_545
B2 Pt0 2.232876 1_555
B2 Rb1 3.185641 1_556
B2 Rb3 3.185641 1_545
B2 Cs0 3.515578 1_555
B3 Pt9 2.061214 1_555
B3 Pt6 2.061214 1_555
B3 Pt4 2.232876 1_555
B3 Pt5 2.232876 1_555
B3 Rb0 3.185641 1_655
B3 Rb3 3.185641 1_545
B3 Cs0 3.515578 1_555
B4 Pt10 2.061214 1_555
B4 Pt7 2.061214 1_555
B4 Pt5 2.232876 1_455
B4 Pt3 2.232876 1_556
B4 Rb1 3.185641 1_556
B4 Rb4 3.185641 1_455
B4 Cs0 3.515578 1_555
B5 Pt8 2.061214 1_555
B5 Pt11 2.061214 1_555
B5 Pt4 2.232876 1_565
B5 Pt3 2.232876 1_555
B5 Rb5 3.185641 1_554
B5 Rb2 3.185641 1_565
B5 Cs0 3.515578 1_555
B6 B9 1.755479 1_465
B6 Pt2 2.173134 1_555
B6 Pt1 2.173135 1_555
B6 Pt7 2.219710 1_565
B6 Pt11 2.219711 1_455
B7 Pt0 2.173134 1_554
B7 Pt2 2.173135 1_655
B7 Pt8 2.219711 1_655
B7 Pt9 2.219711 1_554
B8 Pt0 2.173134 1_555
B8 Pt1 2.173135 1_545
B8 Pt10 2.219710 1_545
B8 Pt6 2.219711 1_556
B9 Pt5 2.173134 1_555
B9 Pt4 2.173135 1_555
B9 Pt11 2.219710 1_545
B9 Pt7 2.219711 1_655
B10 B7 1.755479 1_456
B10 Pt3 2.173134 1_556
B10 Pt5 2.173135 1_455
B10 Pt9 2.219711 1_455
B10 Pt8 2.219711 1_556
B11 B8 1.755479 1_564
B11 Pt3 2.173134 1_555
B11 Pt4 2.173135 1_565
B11 Pt6 2.219710 1_565
B11 Pt10 2.219711 1_554
Pt6 Rb4 3.247486 1_555
Pt7 Rb5 3.247486 1_555
Pt8 Rb3 3.247486 1_555
Pt9 Rb2 3.247486 1_555
Pt10 Rb0 3.247486 1_555
Pt11 Rb1 3.247486 1_555
