# generated using pymatgen
data_Li3Mg2AuO6
_symmetry_space_group_name_H-M   'P 1'
_cell_length_a   5.17187814
_cell_length_b   5.17187781
_cell_length_c   5.12633107
_cell_angle_alpha   99.53692667
_cell_angle_beta   99.53692234
_cell_angle_gamma   120.10145502
_symmetry_Int_Tables_number   1
_chemical_formula_structural   Li3Mg2AuO6
_chemical_formula_sum   'Li3 Mg2 Au1 O6'
_cell_volume   111.90498838
_cell_formula_units_Z   1
loop_
 _symmetry_equiv_pos_site_id
 _symmetry_equiv_pos_as_xyz
  1  'x, y, z'
loop_
 _atom_site_type_symbol
 _atom_site_label
 _atom_site_symmetry_multiplicity
 _atom_site_fract_x
 _atom_site_fract_y
 _atom_site_fract_z
 _atom_site_occupancy
  Li  Li0  1  0.84359413  0.15634041  0.49997174  1
  Li  Li1  1  0.49997058  0.49997058  0.49996824  1
  Li  Li2  1  0.15634041  0.84359413  0.49997174  1
  Mg  Mg0  1  0.66699544  0.33302173  0.99999249  1
  Mg  Mg1  1  0.33302173  0.66699544  0.99999249  1
  Au  Au0  1  0.00000403  0.00000403  0.00000833  1
  O  O0  1  0.75244172  0.75244172  0.23247927  1
  O  O1  1  0.40038649  0.07723961  0.23480307  1
  O  O2  1  0.07723961  0.40038649  0.23480307  1
  O  O3  1  0.92278462  0.59966394  0.76524297  1
  O  O4  1  0.59966394  0.92278462  0.76524297  1
  O  O5  1  0.24755929  0.24755929  0.76753462  1
loop_
_geom_bond_atom_site_label_1
_geom_bond_atom_site_label_2
_geom_bond_distance
_geom_bond_site_symmetry_2
Li0 O0 2.077250 1_545
Li0 O5 2.077551 1_655
Li0 O2 2.117562 1_655
Li0 O4 2.117576 1_545
Li0 O1 2.260979 1_555
Li0 O3 2.261487 1_555
Li1 O1 2.132305 1_555
Li1 O2 2.132305 1_555
Li1 O4 2.132675 1_555
Li1 O3 2.132675 1_555
Li1 O0 2.183269 1_555
Li1 O5 2.183348 1_555
Li2 O0 2.077250 1_455
Li2 O5 2.077550 1_565
Li2 O1 2.117562 1_565
Li2 O3 2.117576 1_455
Li2 O2 2.260979 1_555
Li2 O4 2.261487 1_555
Mg0 O5 2.080449 1_555
Mg0 O0 2.080466 1_556
Mg0 O4 2.084469 1_545
Mg0 O2 2.084543 1_656
Mg0 O3 2.085075 1_555
Mg0 O1 2.085233 1_556
Mg1 O5 2.080448 1_555
Mg1 O0 2.080466 1_556
Mg1 O3 2.084469 1_455
Mg1 O1 2.084543 1_566
Mg1 O4 2.085075 1_555
Mg1 O2 2.085233 1_556
Au0 O5 2.016346 1_554
Au0 O0 2.016365 1_445
Au0 O3 2.020019 1_444
Au0 O4 2.020019 1_444
Au0 O2 2.020225 1_555
Au0 O1 2.020225 1_555
