# generated using pymatgen
data_Nb4VGa3N
_symmetry_space_group_name_H-M   'P 1'
_cell_length_a   7.64152093
_cell_length_b   7.64152013
_cell_length_c   5.26122616
_cell_angle_alpha   90.00000000
_cell_angle_beta   90.00000000
_cell_angle_gamma   119.99999920
_symmetry_Int_Tables_number   1
_chemical_formula_structural   Nb4VGa3N
_chemical_formula_sum   'Nb8 V2 Ga6 N2'
_cell_volume   266.05852238
_cell_formula_units_Z   2
loop_
 _symmetry_equiv_pos_site_id
 _symmetry_equiv_pos_as_xyz
  1  'x, y, z'
loop_
 _atom_site_type_symbol
 _atom_site_label
 _atom_site_symmetry_multiplicity
 _atom_site_fract_x
 _atom_site_fract_y
 _atom_site_fract_z
 _atom_site_occupancy
  Nb  Nb0  1  0.23316461  1.00000000  0.25219858  1
  Nb  Nb1  1  0.76683539  0.00000000  0.74780142  1
  Nb  Nb2  1  0.00000000  0.23316461  0.25219858  1
  Nb  Nb3  1  1.00000000  0.76683539  0.74780142  1
  Nb  Nb4  1  0.76683539  0.76683539  0.25219858  1
  Nb  Nb5  1  0.23316461  0.23316461  0.74780142  1
  Nb  Nb6  1  0.66666700  0.33333300  0.50000000  1
  Nb  Nb7  1  0.33333300  0.66666700  0.50000000  1
  V  V0  1  0.33333300  0.66666700  0.00000000  1
  V  V1  1  0.66666700  0.33333300  0.00000000  1
  Ga  Ga0  1  0.58890218  0.00000000  0.23305891  1
  Ga  Ga1  1  0.41109782  1.00000000  0.76694109  1
  Ga  Ga2  1  1.00000000  0.58890218  0.23305891  1
  Ga  Ga3  1  0.00000000  0.41109782  0.76694109  1
  Ga  Ga4  1  0.41109782  0.41109782  0.23305891  1
  Ga  Ga5  1  0.58890218  0.58890218  0.76694109  1
  N  N0  1  0.00000000  0.00000000  0.00000000  1
  N  N1  1  0.00000000  0.00000000  0.50000000  1
loop_
_geom_bond_atom_site_label_1
_geom_bond_atom_site_label_2
_geom_bond_distance
_geom_bond_site_symmetry_2
Nb6 V1 2.630613 1_556
Nb6 V1 2.630613 1_555
Nb7 V0 2.630613 1_555
Nb7 V0 2.630613 1_556
Ga0 V1 2.613632 1_555
Ga0 V0 2.613634 1_545
Ga0 Nb6 2.701853 1_555
Ga0 Nb7 2.701855 1_545
Ga0 Nb0 2.720241 1_545
Ga0 Nb4 2.730572 1_545
Ga0 Nb2 2.730573 1_655
Ga0 Ga1 2.803584 1_544
Ga0 Nb1 2.892541 1_554
Ga0 Nb1 3.030339 1_555
Ga1 V0 2.613632 1_556
Ga1 V1 2.613634 1_566
Ga1 Nb7 2.701853 1_555
Ga1 Nb6 2.701855 1_565
Ga1 Nb1 2.720241 1_565
Ga1 Nb5 2.730572 1_565
Ga1 Nb3 2.730573 1_455
Ga1 Nb0 2.892541 1_556
Ga1 Nb0 3.030339 1_555
Ga2 V0 2.613633 1_655
Ga2 V1 2.613635 1_555
Ga2 Nb7 2.701854 1_655
Ga2 Nb6 2.701856 1_555
Ga2 Nb2 2.720240 1_655
Ga2 Nb0 2.730572 1_655
Ga2 Nb4 2.730572 1_555
Ga2 Ga3 2.803584 1_654
Ga2 Nb3 2.892541 1_554
Ga2 Nb3 3.030339 1_555
Ga3 V1 2.613633 1_456
Ga3 V0 2.613635 1_556
Ga3 Nb6 2.701854 1_455
Ga3 Nb7 2.701856 1_555
Ga3 Nb3 2.720240 1_455
Ga3 Nb1 2.730572 1_455
Ga3 Nb5 2.730572 1_555
Ga3 Nb2 2.892541 1_556
Ga3 Nb2 3.030339 1_555
Ga4 V0 2.613639 1_555
Ga4 V1 2.613639 1_555
Ga4 Nb7 2.701860 1_555
Ga4 Nb6 2.701860 1_555
Ga4 Nb4 2.720240 1_555
Ga4 Nb0 2.730572 1_545
Ga4 Nb2 2.730573 1_555
Ga4 Ga5 2.803584 1_554
Ga4 Nb5 2.892541 1_554
Ga4 Nb5 3.030339 1_555
Ga5 V1 2.613639 1_556
Ga5 V0 2.613639 1_556
Ga5 Nb6 2.701860 1_555
Ga5 Nb7 2.701860 1_555
Ga5 Nb5 2.720240 1_555
Ga5 Nb1 2.730572 1_565
Ga5 Nb3 2.730573 1_555
Ga5 Nb4 2.892541 1_556
Ga5 Nb4 3.030339 1_555
N0 Nb2 2.221523 1_555
N0 Nb3 2.221523 1_444
N0 Nb5 2.221523 1_554
N0 Nb4 2.221523 1_445
N0 Nb0 2.221523 1_545
N0 Nb1 2.221523 1_454
N1 Nb2 2.207783 1_555
N1 Nb3 2.207783 1_445
N1 Nb5 2.207783 1_555
N1 Nb4 2.207783 1_445
N1 Nb0 2.207783 1_545
N1 Nb1 2.207783 1_455
