# generated using pymatgen
data_Ca4(H4Pt)3
_symmetry_space_group_name_H-M   'P 1'
_cell_length_a   6.43166321
_cell_length_b   6.43166420
_cell_length_c   6.43166353
_cell_angle_alpha   109.47121235
_cell_angle_beta   109.47121545
_cell_angle_gamma   109.47122708
_symmetry_Int_Tables_number   1
_chemical_formula_structural   Ca4(H4Pt)3
_chemical_formula_sum   'Ca4 H12 Pt3'
_cell_volume   204.80856719
_cell_formula_units_Z   1
loop_
 _symmetry_equiv_pos_site_id
 _symmetry_equiv_pos_as_xyz
  1  'x, y, z'
loop_
 _atom_site_type_symbol
 _atom_site_label
 _atom_site_symmetry_multiplicity
 _atom_site_fract_x
 _atom_site_fract_y
 _atom_site_fract_z
 _atom_site_occupancy
  Ca  Ca0  1  0.00000000  0.00000000  0.50000000  1
  Ca  Ca1  1  0.00000000  0.50000000  0.00000000  1
  Ca  Ca2  1  0.50000000  0.00000000  0.00000000  1
  Ca  Ca3  1  0.50000000  0.50000000  0.50000000  1
  H  H0  1  0.72957260  0.72957260  0.00000000  1
  H  H1  1  0.27042740  0.00000000  0.27042740  1
  H  H2  1  0.00000000  0.27042740  0.27042740  1
  H  H3  1  0.27042740  0.27042740  0.00000000  1
  H  H4  1  0.72957260  0.00000000  0.72957260  1
  H  H5  1  0.00000000  0.72957260  0.72957260  1
  H  H6  1  0.75000000  0.25000000  0.50000000  1
  H  H7  1  0.75000000  0.50000000  0.25000000  1
  H  H8  1  0.50000000  0.25000000  0.75000000  1
  H  H9  1  0.25000000  0.50000000  0.75000000  1
  H  H10  1  0.25000000  0.75000000  0.50000000  1
  H  H11  1  0.50000000  0.75000000  0.25000000  1
  Pt  Pt0  1  0.00000000  0.50000000  0.50000000  1
  Pt  Pt1  1  0.50000000  0.50000000  0.00000000  1
  Pt  Pt2  1  0.50000000  0.00000000  0.50000000  1
loop_
_geom_bond_atom_site_label_1
_geom_bond_atom_site_label_2
_geom_bond_distance
_geom_bond_site_symmetry_2
Ca0 H11 2.625716 1_445
Ca0 H8 2.625716 1_555
Ca0 H10 2.625716 1_545
Ca0 H6 2.625716 1_455
Ca0 H9 2.625716 1_555
Ca0 H7 2.625716 1_445
Ca0 H1 2.630094 1_555
Ca0 H4 2.630094 1_455
Ca0 H5 2.630095 1_545
Ca0 H2 2.630095 1_555
Ca0 H0 2.630095 1_445
Ca0 H3 2.630095 1_556
Ca1 H9 2.625715 1_554
Ca1 H7 2.625715 1_455
Ca1 H11 2.625716 1_555
Ca1 H8 2.625716 1_454
Ca1 H10 2.625716 1_555
Ca1 H6 2.625716 1_454
Ca1 H5 2.630095 1_554
Ca1 H2 2.630095 1_555
Ca1 H3 2.630095 1_555
Ca1 H0 2.630095 1_455
Ca1 H1 2.630095 1_565
Ca1 H4 2.630095 1_454
Ca2 H8 2.625716 1_554
Ca2 H11 2.625716 1_545
Ca2 H10 2.625716 1_544
Ca2 H6 2.625716 1_555
Ca2 H9 2.625716 1_544
Ca2 H7 2.625716 1_555
Ca2 H1 2.630094 1_555
Ca2 H4 2.630094 1_554
Ca2 H2 2.630095 1_655
Ca2 H5 2.630095 1_544
Ca2 H3 2.630095 1_555
Ca2 H0 2.630095 1_545
Ca3 H9 2.625715 1_555
Ca3 H7 2.625715 1_555
Ca3 H11 2.625716 1_555
Ca3 H8 2.625716 1_555
Ca3 H6 2.625716 1_555
Ca3 H10 2.625716 1_555
Ca3 H5 2.630095 1_655
Ca3 H2 2.630095 1_555
Ca3 H3 2.630095 1_555
Ca3 H0 2.630095 1_556
Ca3 H1 2.630095 1_555
Ca3 H4 2.630095 1_565
H0 Pt1 1.704954 1_555
H1 Pt2 1.704954 1_555
H2 Pt0 1.704955 1_555
H3 Pt1 1.704954 1_555
H4 Pt2 1.704954 1_555
H5 Pt0 1.704955 1_555
H6 Pt0 1.856661 1_655
H6 Pt2 1.856661 1_555
H7 Pt1 1.856661 1_555
H7 Pt0 1.856661 1_655
H8 Pt1 1.856662 1_556
H8 Pt2 1.856662 1_555
H9 Pt0 1.856661 1_555
H9 Pt1 1.856661 1_556
H10 Pt2 1.856661 1_565
H10 Pt0 1.856661 1_555
H11 Pt1 1.856662 1_555
H11 Pt2 1.856662 1_565
