# generated using pymatgen
data_Hf3CoRe2Ge3
_symmetry_space_group_name_H-M   'P 1'
_cell_length_a   6.94744136
_cell_length_b   6.87143772
_cell_length_c   3.46153174
_cell_angle_alpha   90.00000000
_cell_angle_beta   90.00000000
_cell_angle_gamma   119.63877685
_symmetry_Int_Tables_number   1
_chemical_formula_structural   Hf3CoRe2Ge3
_chemical_formula_sum   'Hf3 Co1 Re2 Ge3'
_cell_volume   143.62854895
_cell_formula_units_Z   1
loop_
 _symmetry_equiv_pos_site_id
 _symmetry_equiv_pos_as_xyz
  1  'x, y, z'
loop_
 _atom_site_type_symbol
 _atom_site_label
 _atom_site_symmetry_multiplicity
 _atom_site_fract_x
 _atom_site_fract_y
 _atom_site_fract_z
 _atom_site_occupancy
  Hf  Hf0  1  0.58756209  0.98834722  0.50000000  1
  Hf  Hf1  1  0.41243791  0.40078713  0.50000000  1
  Hf  Hf2  1  0.00000000  0.60400354  0.50000000  1
  Co  Co0  1  1.00000000  0.25836059  0.00000000  1
  Re  Re0  1  0.25286334  0.99795147  0.00000000  1
  Re  Re1  1  0.74713666  0.74508812  0.00000000  1
  Ge  Ge0  1  1.00000000  0.02284217  0.50000000  1
  Ge  Ge1  1  0.32573163  0.65417669  0.00000000  1
  Ge  Ge2  1  0.67426837  0.32844306  0.00000000  1
loop_
_geom_bond_atom_site_label_1
_geom_bond_atom_site_label_2
_geom_bond_distance
_geom_bond_site_symmetry_2
Hf0 Re0 2.925526 1_555
Hf0 Re0 2.925526 1_556
Hf0 Re1 2.975151 1_556
Hf0 Re1 2.975151 1_555
Hf1 Re1 2.925520 1_555
Hf1 Re1 2.925520 1_556
Hf1 Re0 2.975161 1_546
Hf1 Re0 2.975161 1_545
Hf2 Re0 2.950599 1_555
Hf2 Re0 2.950599 1_556
Hf2 Re1 2.950599 1_455
Hf2 Re1 2.950599 1_456
Co0 Ge0 2.369516 1_555
Co0 Ge0 2.369516 1_554
Co0 Ge2 2.535931 1_555
Co0 Ge1 2.535940 1_655
Co0 Hf2 2.938789 1_654
Co0 Hf2 2.938789 1_655
Co0 Hf1 3.064343 1_654
Co0 Hf1 3.064343 1_655
Co0 Hf0 3.064345 1_544
Co0 Hf0 3.064345 1_545
Ge0 Re1 2.531435 1_545
Ge0 Re1 2.531435 1_546
Ge0 Re0 2.531435 1_646
Ge0 Re0 2.531435 1_645
Ge0 Hf0 2.755881 1_545
Ge0 Hf1 2.755887 1_655
Ge0 Hf2 2.878024 1_645
Ge1 Re0 2.649376 1_555
Ge1 Re1 2.674452 1_555
Ge1 Hf1 2.725325 1_555
Ge1 Hf1 2.725325 1_554
Ge1 Hf0 2.728720 1_555
Ge1 Hf0 2.728720 1_554
Ge1 Hf2 2.732019 1_554
Ge1 Hf2 2.732019 1_555
Ge2 Re1 2.649390 1_555
Ge2 Re0 2.674448 1_545
Ge2 Hf0 2.725325 1_545
Ge2 Hf0 2.725325 1_544
Ge2 Hf1 2.728734 1_554
Ge2 Hf1 2.728734 1_555
Ge2 Hf2 2.732022 1_655
Ge2 Hf2 2.732022 1_654
