# generated using pymatgen
data_Y2NiB8Pt
_symmetry_space_group_name_H-M   'P 1'
_cell_length_a   6.91942312
_cell_length_b   6.91942272
_cell_length_c   6.91942346
_cell_angle_alpha   111.53946002
_cell_angle_beta   113.46904734
_cell_angle_gamma   103.56831532
_symmetry_Int_Tables_number   1
_chemical_formula_structural   Y2NiB8Pt
_chemical_formula_sum   'Y4 Ni2 B16 Pt2'
_cell_volume   252.94581875
_cell_formula_units_Z   2
loop_
 _symmetry_equiv_pos_site_id
 _symmetry_equiv_pos_as_xyz
  1  'x, y, z'
loop_
 _atom_site_type_symbol
 _atom_site_label
 _atom_site_symmetry_multiplicity
 _atom_site_fract_x
 _atom_site_fract_y
 _atom_site_fract_z
 _atom_site_occupancy
  Y  Y0  1  0.79519268  0.79519268  1.00000000  1
  Y  Y1  1  0.20480732  0.20480732  0.00000000  1
  Y  Y2  1  0.74693591  0.24693591  0.50000000  1
  Y  Y3  1  0.25306409  0.75306409  0.50000000  1
  Ni  Ni0  1  0.50000000  0.74184155  0.24184155  1
  Ni  Ni1  1  0.50000000  0.25815845  0.75815845  1
  B  B0  1  0.27448238  0.10871140  0.38319278  1
  B  B1  1  0.72551762  0.89128860  0.61680722  1
  B  B2  1  0.27448238  0.89128860  0.16577099  1
  B  B3  1  0.72551762  0.10871140  0.83422901  1
  B  B4  1  0.11032948  0.73444650  0.84477598  1
  B  B5  1  0.88967052  0.26555350  0.15522402  1
  B  B6  1  0.11032948  0.26555350  0.37588299  1
  B  B7  1  0.88967052  0.73444650  0.62411701  1
  B  B8  1  0.11401757  0.10725260  0.52705555  1
  B  B9  1  0.58019705  0.58696202  0.47294445  1
  B  B10  1  0.11401757  0.58696202  0.00676497  1
  B  B11  1  0.58019705  0.10725260  0.99323503  1
  B  B12  1  0.88598243  0.89274740  0.47294445  1
  B  B13  1  0.41980295  0.41303798  0.52705555  1
  B  B14  1  0.88598243  0.41303798  0.99323503  1
  B  B15  1  0.41980295  0.89274740  0.00676497  1
  Pt  Pt0  1  0.27356384  0.50000000  0.77356384  1
  Pt  Pt1  1  0.72643616  0.50000000  0.22643616  1
loop_
_geom_bond_atom_site_label_1
_geom_bond_atom_site_label_2
_geom_bond_distance
_geom_bond_site_symmetry_2
Ni0 Pt0 2.549274 1_554
Ni0 Pt1 2.549274 1_555
Ni0 Y2 2.916832 1_565
Ni0 Y3 2.916832 1_555
Ni0 Y1 3.151336 1_555
Ni0 Y0 3.151336 1_554
Ni1 Pt1 2.549274 1_556
Ni1 Pt0 2.549274 1_555
Ni1 Y3 2.916832 1_545
Ni1 Y2 2.916832 1_555
Ni1 Y0 3.151336 1_555
Ni1 Y1 3.151336 1_556
B0 B2 1.692552 1_545
B0 B6 1.744538 1_555
B0 B13 1.762466 1_555
B0 B8 1.762473 1_555
B0 Ni1 2.069786 1_555
B0 Y2 2.848830 1_555
B0 Y3 2.848837 1_545
B0 Y1 2.851610 1_555
B0 Y0 2.851614 1_444
B1 B3 1.692552 1_565
B1 B7 1.744538 1_555
B1 B9 1.762466 1_555
B1 B12 1.762473 1_555
B1 Ni0 2.069786 1_555
B1 Y3 2.848830 1_555
B1 Y2 2.848837 1_565
B1 Y0 2.851610 1_555
B1 Y1 2.851614 1_666
B2 B4 1.744538 1_554
B2 Ni0 2.069781 1_555
B2 Y2 2.848832 1_565
B2 Y3 2.848832 1_555
B2 Y0 2.851616 1_454
B2 Y1 2.851616 1_565
B3 B5 1.744538 1_556
B3 Ni1 2.069781 1_555
B3 Y3 2.848832 1_545
B3 Y2 2.848832 1_555
B3 Y1 2.851616 1_656
B3 Y0 2.851616 1_545
B4 B7 1.674994 1_455
B4 Pt0 2.205961 1_555
B4 Y1 2.837105 1_566
B4 Y0 2.837106 1_455
B4 Y2 2.953985 1_455
B4 Y3 2.953986 1_555
B5 B6 1.674994 1_655
B5 Pt1 2.205961 1_555
B5 Y0 2.837105 1_544
B5 Y1 2.837106 1_655
B5 Y3 2.953985 1_655
B5 Y2 2.953986 1_555
B6 B8 1.768556 1_555
B6 Pt0 2.205961 1_555
B6 Y0 2.837105 1_444
B6 Y1 2.837106 1_555
B6 Y3 2.953985 1_555
B6 Y2 2.953986 1_455
B7 B9 1.768555 1_555
B7 Pt1 2.205961 1_555
B7 Y1 2.837105 1_666
B7 Y0 2.837106 1_555
B7 Y2 2.953985 1_555
B7 Y3 2.953986 1_655
B8 Ni1 2.200940 1_555
B8 Pt0 2.280832 1_555
B8 Y3 2.807132 1_545
B8 Y1 2.846241 1_556
B8 Y2 2.885620 1_455
B8 Y0 2.898915 1_444
B9 Ni0 2.200940 1_555
B9 Pt1 2.280833 1_555
B9 Y3 2.807132 1_555
B9 Y1 2.846240 1_555
B9 Y2 2.885620 1_555
B9 Y0 2.898915 1_555
B10 B14 1.689786 1_454
B10 B2 1.762467 1_555
B10 B4 1.768556 1_554
B10 Ni0 2.200940 1_555
B10 Pt0 2.280833 1_554
B10 Y3 2.807132 1_555
B10 Y1 2.846240 1_555
B10 Y2 2.885620 1_454
B10 Y0 2.898915 1_454
B11 B15 1.689786 1_546
B11 B3 1.762467 1_555
B11 B5 1.768555 1_556
B11 Ni1 2.200940 1_555
B11 Pt1 2.280832 1_556
B11 Y3 2.807132 1_545
B11 Y1 2.846241 1_556
B11 Y2 2.885620 1_556
B11 Y0 2.898915 1_545
B12 B8 1.689786 1_665
B12 B7 1.768556 1_555
B12 Ni0 2.200940 1_555
B12 Pt1 2.280832 1_555
B12 Y2 2.807132 1_565
B12 Y0 2.846241 1_554
B12 Y3 2.885620 1_655
B12 Y1 2.898915 1_666
B13 B9 1.689786 1_555
B13 B6 1.768555 1_555
B13 Ni1 2.200940 1_555
B13 Pt0 2.280833 1_555
B13 Y2 2.807132 1_555
B13 Y0 2.846240 1_555
B13 Y3 2.885620 1_555
B13 Y1 2.898915 1_555
B14 B3 1.762467 1_555
B14 B5 1.768556 1_556
B14 Ni1 2.200940 1_555
B14 Pt1 2.280833 1_556
B14 Y2 2.807132 1_555
B14 Y0 2.846240 1_555
B14 Y3 2.885620 1_656
B14 Y1 2.898915 1_656
B15 B2 1.762467 1_555
B15 B4 1.768555 1_554
B15 Ni0 2.200940 1_555
B15 Pt0 2.280832 1_554
B15 Y2 2.807132 1_565
B15 Y0 2.846241 1_554
B15 Y3 2.885620 1_554
B15 Y1 2.898915 1_565
Pt0 Y2 3.000988 1_455
Pt0 Y3 3.000989 1_555
Pt0 Y0 3.056304 1_555
Pt0 Y1 3.056304 1_556
Pt1 Y3 3.000988 1_655
Pt1 Y2 3.000989 1_555
Pt1 Y1 3.056304 1_555
Pt1 Y0 3.056304 1_554
