# generated using pymatgen
data_In2Ir(RhS)2
_symmetry_space_group_name_H-M   'P 1'
_cell_length_a   5.59800852
_cell_length_b   5.58686360
_cell_length_c   5.59800878
_cell_angle_alpha   60.74370831
_cell_angle_beta   60.40205180
_cell_angle_gamma   60.74369220
_symmetry_Int_Tables_number   1
_chemical_formula_structural   In2Ir(RhS)2
_chemical_formula_sum   'In2 Ir1 Rh2 S2'
_cell_volume   125.55760222
_cell_formula_units_Z   1
loop_
 _symmetry_equiv_pos_site_id
 _symmetry_equiv_pos_as_xyz
  1  'x, y, z'
loop_
 _atom_site_type_symbol
 _atom_site_label
 _atom_site_symmetry_multiplicity
 _atom_site_fract_x
 _atom_site_fract_y
 _atom_site_fract_z
 _atom_site_occupancy
  In  In0  1  0.00000000  0.00000000  0.00000000  1
  In  In1  1  0.50000000  0.50000000  0.50000000  1
  Ir  Ir0  1  0.00000000  0.50000000  0.00000000  1
  Rh  Rh0  1  0.00000000  0.00000000  0.50000000  1
  Rh  Rh1  1  0.50000000  0.00000000  0.00000000  1
  S  S0  1  0.71433670  0.71572355  0.71433670  1
  S  S1  1  0.28566330  0.28427645  0.28566330  1
loop_
_geom_bond_atom_site_label_1
_geom_bond_atom_site_label_2
_geom_bond_distance
_geom_bond_site_symmetry_2
In0 Ir0 2.793432 1_555
In0 Ir0 2.793432 1_545
In0 Rh1 2.799004 1_555
In0 Rh1 2.799004 1_455
In0 Rh0 2.799004 1_554
In0 Rh0 2.799004 1_555
In1 Ir0 2.815997 1_556
In1 Ir0 2.815997 1_655
In1 Rh0 2.827595 1_655
In1 Rh0 2.827595 1_565
In1 Rh1 2.827596 1_556
In1 Rh1 2.827596 1_565
In1 S0 2.929321 1_555
In1 S1 2.929321 1_555
Ir0 S1 2.307716 1_555
Ir0 S0 2.307716 1_454
Rh0 S1 2.289937 1_555
Rh0 S0 2.289937 1_445
Rh1 S1 2.289937 1_555
Rh1 S0 2.289937 1_544
