# generated using pymatgen
data_K2Rb3HfP3
_symmetry_space_group_name_H-M   'P 1'
_cell_length_a   11.37203263
_cell_length_b   11.37203186
_cell_length_c   15.21938503
_cell_angle_alpha   90.00000000
_cell_angle_beta   90.00000000
_cell_angle_gamma   140.43115655
_symmetry_Int_Tables_number   1
_chemical_formula_structural   K2Rb3HfP3
_chemical_formula_sum   'K8 Rb12 Hf4 P12'
_cell_volume   1253.76471651
_cell_formula_units_Z   4
loop_
 _symmetry_equiv_pos_site_id
 _symmetry_equiv_pos_as_xyz
  1  'x, y, z'
loop_
 _atom_site_type_symbol
 _atom_site_label
 _atom_site_symmetry_multiplicity
 _atom_site_fract_x
 _atom_site_fract_y
 _atom_site_fract_z
 _atom_site_occupancy
  K  K0  1  0.92413799  0.07586201  0.00000000  1
  K  K1  1  0.57586201  0.42413799  0.50000000  1
  K  K2  1  0.07586201  0.92413799  0.00000000  1
  K  K3  1  0.42413799  0.57586201  0.50000000  1
  K  K4  1  0.76234618  0.23765382  0.00000000  1
  K  K5  1  0.73765382  0.26234618  0.50000000  1
  K  K6  1  0.23765382  0.76234618  0.00000000  1
  K  K7  1  0.26234618  0.73765382  0.50000000  1
  Rb  Rb0  1  0.89651744  0.56835896  0.81625008  1
  Rb  Rb1  1  0.60348256  0.93164104  0.31625008  1
  Rb  Rb2  1  0.43164104  0.10348256  0.18374992  1
  Rb  Rb3  1  0.10348256  0.43164104  0.18374992  1
  Rb  Rb4  1  0.93164104  0.60348256  0.31625008  1
  Rb  Rb5  1  0.39651744  0.06835896  0.68374992  1
  Rb  Rb6  1  0.56835896  0.89651744  0.81625008  1
  Rb  Rb7  1  0.22837049  0.22837049  0.30777933  1
  Rb  Rb8  1  0.72837049  0.72837049  0.19222067  1
  Rb  Rb9  1  0.27162951  0.27162951  0.80777933  1
  Rb  Rb10  1  0.77162951  0.77162951  0.69222067  1
  Rb  Rb11  1  0.06835896  0.39651744  0.68374992  1
  Hf  Hf0  1  0.58164139  0.41835861  0.00000000  1
  Hf  Hf1  1  0.91835861  0.08164139  0.50000000  1
  Hf  Hf2  1  0.41835861  0.58164139  0.00000000  1
  Hf  Hf3  1  0.08164139  0.91835861  0.50000000  1
  P  P0  1  0.83916015  0.54271268  0.09555552  1
  P  P1  1  0.45728732  0.16083985  0.90444448  1
  P  P2  1  0.66083985  0.95728732  0.59555552  1
  P  P3  1  0.95728732  0.66083985  0.59555552  1
  P  P4  1  0.16083985  0.45728732  0.90444448  1
  P  P5  1  0.54271268  0.83916015  0.09555552  1
  P  P6  1  0.33916015  0.04271268  0.40444448  1
  P  P7  1  0.17549414  0.17549414  0.58569908  1
  P  P8  1  0.67549414  0.67549414  0.91430092  1
  P  P9  1  0.32450586  0.32450586  0.08569908  1
  P  P10  1  0.04271268  0.33916015  0.40444448  1
  P  P11  1  0.82450586  0.82450586  0.41430092  1
loop_
_geom_bond_atom_site_label_1
_geom_bond_atom_site_label_2
_geom_bond_distance
_geom_bond_site_symmetry_2
K0 P4 3.189739 1_654
K0 P5 3.189739 1_545
K0 P8 3.252400 1_544
K0 P9 3.252400 1_655
K1 P6 3.189739 1_555
K1 P3 3.189739 1_555
K1 P11 3.252400 1_555
K1 P7 3.252400 1_555
K2 P0 3.189739 1_455
K2 P1 3.189739 1_564
K2 P9 3.252400 1_565
K2 P8 3.252400 1_454
K3 P2 3.189739 1_555
K3 P10 3.189739 1_555
K3 P7 3.252400 1_555
K3 P11 3.252400 1_555
K4 P0 3.200146 1_555
K4 P1 3.200146 1_554
K4 P5 3.382201 1_545
K4 P4 3.382201 1_654
K5 P2 3.200146 1_545
K5 P10 3.200146 1_655
K5 P3 3.382201 1_555
K5 P6 3.382201 1_555
K6 P4 3.200146 1_554
K6 P5 3.200146 1_555
K6 P1 3.382201 1_564
K6 P0 3.382201 1_455
K7 P6 3.200146 1_565
K7 P3 3.200146 1_455
K7 P10 3.382201 1_555
K7 P2 3.382201 1_555
Hf0 P1 2.511206 1_554
Hf0 P0 2.511206 1_555
Hf0 P8 2.565024 1_554
Hf0 P9 2.565024 1_555
Hf1 P10 2.511206 1_655
Hf1 P2 2.511206 1_545
Hf1 P11 2.565024 1_545
Hf1 P7 2.565024 1_655
Hf2 P5 2.511206 1_555
Hf2 P4 2.511206 1_554
Hf2 P9 2.565024 1_555
Hf2 P8 2.565024 1_554
Hf3 P3 2.511206 1_455
Hf3 P6 2.511206 1_565
Hf3 P7 2.565024 1_565
Hf3 P11 2.565024 1_455
P0 Rb4 3.427083 1_555
P0 Rb8 3.508617 1_555
P0 Rb2 3.541195 1_555
P1 Rb5 3.427083 1_555
P1 Rb9 3.508617 1_555
P1 Rb0 3.541195 1_555
P2 Rb6 3.427083 1_555
P2 Rb10 3.508617 1_555
P2 Rb11 3.541195 1_665
P3 Rb0 3.427083 1_555
P3 Rb10 3.508617 1_555
P3 Rb5 3.541195 1_665
P4 Rb11 3.427083 1_555
P4 Rb9 3.508617 1_555
P4 Rb6 3.541195 1_555
P5 Rb1 3.427083 1_555
P5 Rb8 3.508617 1_555
P5 Rb3 3.541195 1_555
P6 Rb2 3.427083 1_555
P6 Rb7 3.508617 1_555
P6 Rb4 3.541195 1_445
P7 Rb9 3.460005 1_555
P7 Rb10 3.506421 1_445
P7 Rb11 3.840578 1_555
P7 Rb5 3.840578 1_555
P8 Rb10 3.460005 1_555
P8 Rb9 3.506421 1_555
P8 Rb6 3.840578 1_555
P8 Rb0 3.840578 1_555
P9 Rb7 3.460005 1_555
P9 Rb8 3.506421 1_555
P9 Rb2 3.840578 1_555
P9 Rb3 3.840578 1_555
P10 Rb3 3.427083 1_555
P10 Rb7 3.508617 1_555
P10 Rb1 3.541195 1_445
P11 Rb8 3.460005 1_555
P11 Rb7 3.506421 1_665
P11 Rb4 3.840578 1_555
P11 Rb1 3.840578 1_555
