# generated using pymatgen
data_Sc2Co
_symmetry_space_group_name_H-M   'P 1'
_cell_length_a   5.25854835
_cell_length_b   5.25854894
_cell_length_c   5.25854939
_cell_angle_alpha   106.63695875
_cell_angle_beta   106.63696248
_cell_angle_gamma   115.30183489
_symmetry_Int_Tables_number   1
_chemical_formula_structural   Sc2Co
_chemical_formula_sum   'Sc4 Co2'
_cell_volume   111.05935707
_cell_formula_units_Z   2
loop_
 _symmetry_equiv_pos_site_id
 _symmetry_equiv_pos_as_xyz
  1  'x, y, z'
loop_
 _atom_site_type_symbol
 _atom_site_label
 _atom_site_symmetry_multiplicity
 _atom_site_fract_x
 _atom_site_fract_y
 _atom_site_fract_z
 _atom_site_occupancy
  Sc  Sc0  1  0.32158685  0.82158685  0.14317471  1
  Sc  Sc1  1  0.82158685  0.67841315  0.50000000  1
  Sc  Sc2  1  0.67841315  0.17841315  0.85682529  1
  Sc  Sc3  1  0.17841315  0.32158685  0.50000000  1
  Co  Co0  1  0.75000000  0.75000000  -0.00000000  1
  Co  Co1  1  0.25000000  0.25000000  -0.00000000  1
loop_
_geom_bond_atom_site_label_1
_geom_bond_atom_site_label_2
_geom_bond_distance
_geom_bond_site_symmetry_2
Sc0 Sc2 3.087917 1_454
Sc0 Sc2 3.087927 1_564
Sc0 Sc2 3.170352 1_565
Sc0 Sc1 3.267526 1_555
Sc0 Sc3 3.267526 1_565
Sc0 Sc1 3.267533 1_454
Sc0 Sc3 3.267533 1_554
Sc0 Sc1 3.597583 1_455
Sc0 Sc3 3.597584 1_555
Sc0 Sc3 3.597588 1_665
Sc0 Sc1 3.597588 1_565
Sc1 Sc3 3.087918 1_555
Sc1 Sc3 3.087918 1_665
Sc1 Sc3 3.170360 1_655
Sc1 Sc2 3.267526 1_565
Sc1 Sc2 3.267533 1_554
Sc1 Sc2 3.597584 1_555
Sc1 Sc2 3.597588 1_665
Sc2 Sc3 3.267526 1_555
Sc2 Sc3 3.267533 1_656
Sc2 Sc3 3.597583 1_655
Sc2 Sc3 3.597588 1_545
Co0 Sc0 2.705112 1_655
Co0 Sc2 2.705112 1_554
Co0 Sc1 2.705112 1_555
Co0 Sc1 2.705112 1_554
Co0 Sc3 2.705113 1_554
Co0 Sc3 2.705113 1_665
Co0 Sc0 2.705115 1_555
Co0 Sc2 2.705115 1_564
Co0 Co1 2.813724 1_665
Co0 Co1 2.813724 1_555
Co1 Sc2 2.705112 1_454
Co1 Sc0 2.705112 1_555
Co1 Sc3 2.705112 1_554
Co1 Sc3 2.705112 1_555
Co1 Sc1 2.705113 1_555
Co1 Sc1 2.705113 1_444
Co1 Sc2 2.705115 1_554
Co1 Sc0 2.705115 1_545
