# generated using pymatgen
data_V10GeB4Se
_symmetry_space_group_name_H-M   'P 1'
_cell_length_a   6.76952714
_cell_length_b   6.76952739
_cell_length_c   6.76952762
_cell_angle_alpha   129.45547034
_cell_angle_beta   129.45547272
_cell_angle_gamma   74.27880384
_symmetry_Int_Tables_number   1
_chemical_formula_structural   V10GeB4Se
_chemical_formula_sum   'V10 Ge1 B4 Se1'
_cell_volume   180.29294512
_cell_formula_units_Z   1
loop_
 _symmetry_equiv_pos_site_id
 _symmetry_equiv_pos_as_xyz
  1  'x, y, z'
loop_
 _atom_site_type_symbol
 _atom_site_label
 _atom_site_symmetry_multiplicity
 _atom_site_fract_x
 _atom_site_fract_y
 _atom_site_fract_z
 _atom_site_occupancy
  V  V0  1  0.53115230  0.69581961  0.49889733  1
  V  V1  1  0.03225597  0.53115230  0.83533269  1
  V  V2  1  0.69581961  0.19692228  0.16466731  1
  V  V3  1  0.96884770  0.46774403  0.16466731  1
  V  V4  1  0.19692228  0.03225597  0.50110267  1
  V  V5  1  0.46774403  0.30307772  0.49889733  1
  V  V6  1  0.80418039  0.96884770  0.50110267  1
  V  V7  1  0.30307772  0.80418039  0.83533269  1
  V  V8  1  0.99829715  0.99829715  1.00000000  1
  V  V9  1  0.50170285  0.50170285  0.00000000  1
  Ge  Ge0  1  0.75000000  0.75000000  0.00000000  1
  B  B0  1  0.61584592  0.11584592  0.73169084  1
  B  B1  1  0.11584592  0.38415408  0.50000000  1
  B  B2  1  0.88415408  0.61584592  0.50000000  1
  B  B3  1  0.38415408  0.88415408  0.26830916  1
  Se  Se0  1  0.25000000  0.25000000  0.00000000  1
loop_
_geom_bond_atom_site_label_1
_geom_bond_atom_site_label_2
_geom_bond_distance
_geom_bond_site_symmetry_2
V0 V8 2.597565 1_555
V0 V9 2.611203 1_555
V1 V8 2.597565 1_455
V1 V9 2.611197 1_556
V2 V8 2.597565 1_544
V2 V9 2.611203 1_555
V3 V9 2.597565 1_555
V3 V8 2.611197 1_544
V4 V8 2.597561 1_444
V4 V9 2.611199 1_556
V5 V9 2.597561 1_556
V5 V8 2.611199 1_444
V6 V9 2.597565 1_555
V6 V8 2.611203 1_555
V7 V9 2.597565 1_556
V7 V8 2.611203 1_455
Ge0 V7 2.482426 1_554
Ge0 V0 2.482426 1_554
Ge0 V2 2.482426 1_565
Ge0 V6 2.482426 1_555
Ge0 V4 2.482427 1_665
Ge0 V5 2.482427 1_554
Ge0 V1 2.482432 1_654
Ge0 V3 2.482432 1_555
Ge0 V8 2.679850 1_554
Ge0 V9 2.679850 1_555
B0 B3 1.893908 1_545
B0 V6 2.218100 1_545
B0 V4 2.218106 1_555
B0 V5 2.221944 1_555
B0 V0 2.221952 1_545
B0 V3 2.298905 1_556
B0 V2 2.298916 1_556
B0 V8 2.319288 1_545
B0 V9 2.319288 1_556
B1 B2 1.893916 1_455
B1 V3 2.218100 1_455
B1 V1 2.218100 1_555
B1 V2 2.221950 1_455
B1 V7 2.221950 1_555
B1 V5 2.298903 1_555
B1 V4 2.298903 1_555
B1 V9 2.319286 1_556
B1 V8 2.319286 1_444
B2 V7 2.218105 1_655
B2 V2 2.218105 1_555
B2 V1 2.221949 1_655
B2 V3 2.221949 1_555
B2 V0 2.298909 1_555
B2 V6 2.298910 1_555
B2 V9 2.319286 1_555
B2 V8 2.319286 1_555
B3 V0 2.218100 1_555
B3 V5 2.218106 1_565
B3 V4 2.221944 1_565
B3 V6 2.221952 1_555
B3 V1 2.298905 1_554
B3 V7 2.298916 1_554
B3 V8 2.319288 1_454
B3 V9 2.319288 1_555
Se0 V3 2.474994 1_455
Se0 V1 2.474994 1_554
Se0 V6 2.474994 1_444
Se0 V0 2.474994 1_555
Se0 V2 2.474995 1_555
Se0 V7 2.474995 1_544
Se0 V5 2.474996 1_555
Se0 V4 2.474996 1_554
Se0 V9 2.716607 1_555
Se0 V8 2.716607 1_444
