# generated using pymatgen
data_LiReF6
_symmetry_space_group_name_H-M   'P 1'
_cell_length_a   5.40997955
_cell_length_b   5.40998047
_cell_length_c   5.40998043
_cell_angle_alpha   55.21561637
_cell_angle_beta   55.21561692
_cell_angle_gamma   55.21561541
_symmetry_Int_Tables_number   1
_chemical_formula_structural   LiReF6
_chemical_formula_sum   'Li1 Re1 F6'
_cell_volume   99.51001938
_cell_formula_units_Z   1
loop_
 _symmetry_equiv_pos_site_id
 _symmetry_equiv_pos_as_xyz
  1  'x, y, z'
loop_
 _atom_site_type_symbol
 _atom_site_label
 _atom_site_symmetry_multiplicity
 _atom_site_fract_x
 _atom_site_fract_y
 _atom_site_fract_z
 _atom_site_occupancy
  Li  Li0  1  0.50000000  0.50000000  0.50000000  1
  Re  Re0  1  0.00000000  0.00000000  0.00000000  1
  F  F0  1  0.88208896  0.63106264  0.23954497  1
  F  F1  1  0.63106264  0.23954497  0.88208896  1
  F  F2  1  0.23954497  0.88208896  0.63106264  1
  F  F3  1  0.11791104  0.36893736  0.76045503  1
  F  F4  1  0.36893736  0.76045503  0.11791104  1
  F  F5  1  0.76045503  0.11791104  0.36893736  1
loop_
_geom_bond_atom_site_label_1
_geom_bond_atom_site_label_2
_geom_bond_distance
_geom_bond_site_symmetry_2
F0 Re0 1.904827 1_665
F0 Li0 1.992522 1_555
F1 Re0 1.904826 1_656
F1 Li0 1.992522 1_555
F2 Re0 1.904827 1_566
F2 Li0 1.992522 1_555
F3 Re0 1.904827 1_556
F3 Li0 1.992522 1_555
F4 Re0 1.904826 1_565
F4 Li0 1.992522 1_555
F5 Re0 1.904827 1_655
F5 Li0 1.992522 1_555
