# generated using pymatgen
data_NaY6AuBr12
_symmetry_space_group_name_H-M   'P 1'
_cell_length_a   9.17510610
_cell_length_b   9.17484156
_cell_length_c   9.17473756
_cell_angle_alpha   106.94167665
_cell_angle_beta   106.94251229
_cell_angle_gamma   106.94916177
_symmetry_Int_Tables_number   1
_chemical_formula_structural   NaY6AuBr12
_chemical_formula_sum   'Na1 Y6 Au1 Br12'
_cell_volume   644.17661135
_cell_formula_units_Z   1
loop_
 _symmetry_equiv_pos_site_id
 _symmetry_equiv_pos_as_xyz
  1  'x, y, z'
loop_
 _atom_site_type_symbol
 _atom_site_label
 _atom_site_symmetry_multiplicity
 _atom_site_fract_x
 _atom_site_fract_y
 _atom_site_fract_z
 _atom_site_occupancy
  Na  Na0  1  0.50000000  0.50000000  0.50000000  1
  Y  Y0  1  0.11456101  0.32669171  0.03254302  1
  Y  Y1  1  0.32668486  0.03255374  0.11456218  1
  Y  Y2  1  0.03252721  0.11455316  0.32667922  1
  Y  Y3  1  0.96747379  0.88544684  0.67332178  1
  Y  Y4  1  0.67331514  0.96744726  0.88543782  1
  Y  Y5  1  0.88543899  0.67330829  0.96745698  1
  Au  Au0  1  0.00000000  0.00000000  0.00000000  1
  Br  Br0  1  0.22064302  0.68084705  0.07502467  1
  Br  Br1  1  0.45657540  0.37286263  0.14899325  1
  Br  Br2  1  0.68087793  0.07506962  0.22064778  1
  Br  Br3  1  0.92494513  0.77934190  0.31914044  1
  Br  Br4  1  0.14898804  0.45658989  0.37284817  1
  Br  Br5  1  0.37281987  0.14896877  0.45655856  1
  Br  Br6  1  0.62718013  0.85103123  0.54344244  1
  Br  Br7  1  0.85101296  0.54341011  0.62715183  1
  Br  Br8  1  0.07505587  0.22065810  0.68086056  1
  Br  Br9  1  0.31912307  0.92493138  0.77935222  1
  Br  Br10  1  0.54342460  0.62713737  0.85100775  1
  Br  Br11  1  0.77935698  0.31915295  0.92497533  1
loop_
_geom_bond_atom_site_label_1
_geom_bond_atom_site_label_2
_geom_bond_distance
_geom_bond_site_symmetry_2
Au0 Y0 2.763453 1_555
Au0 Y5 2.763453 1_444
Au0 Y3 2.763472 1_444
Au0 Y2 2.763478 1_555
Au0 Y1 2.763530 1_555
Au0 Y4 2.763532 1_444
Br0 Y5 2.916305 1_454
Br0 Y1 2.961825 1_565
Br0 Y0 2.975601 1_555
Br1 Y0 2.859242 1_555
Br1 Y1 2.881832 1_555
Br1 Na0 2.946571 1_555
Br2 Y4 2.916186 1_544
Br2 Y2 2.961626 1_655
Br2 Y1 2.975999 1_555
Br3 Y2 2.916181 1_665
Br3 Y5 2.961782 1_554
Br3 Y3 2.975775 1_555
Br4 Y2 2.859284 1_555
Br4 Y0 2.881920 1_555
Br4 Na0 2.946739 1_555
Br5 Y1 2.859101 1_555
Br5 Y2 2.881915 1_555
Br5 Na0 2.946655 1_555
Br6 Y4 2.859092 1_555
Br6 Y3 2.881924 1_555
Br6 Na0 2.946652 1_555
Br7 Y3 2.859281 1_555
Br7 Y5 2.881923 1_555
Br7 Na0 2.946747 1_555
Br8 Y3 2.916181 1_445
Br8 Y0 2.961776 1_556
Br8 Y2 2.975775 1_555
Br9 Y1 2.916190 1_566
Br9 Y3 2.961623 1_455
Br9 Y4 2.975990 1_555
Br10 Y5 2.859242 1_555
Br10 Y4 2.881844 1_555
Br10 Na0 2.946580 1_555
Br11 Y0 2.916305 1_656
Br11 Y4 2.961816 1_545
Br11 Y5 2.975601 1_555
