# generated using pymatgen
data_AlV(Fe2Si)2
_symmetry_space_group_name_H-M   'P 1'
_cell_length_a   6.80004355
_cell_length_b   6.80004354
_cell_length_c   6.80004306
_cell_angle_alpha   33.50554822
_cell_angle_beta   33.50555119
_cell_angle_gamma   33.50554994
_symmetry_Int_Tables_number   1
_chemical_formula_structural   AlV(Fe2Si)2
_chemical_formula_sum   'Al1 V1 Fe4 Si2'
_cell_volume   85.33891823
_cell_formula_units_Z   1
loop_
 _symmetry_equiv_pos_site_id
 _symmetry_equiv_pos_as_xyz
  1  'x, y, z'
loop_
 _atom_site_type_symbol
 _atom_site_label
 _atom_site_symmetry_multiplicity
 _atom_site_fract_x
 _atom_site_fract_y
 _atom_site_fract_z
 _atom_site_occupancy
  Al  Al0  1  0.00000000  0.00000000  0.00000000  1
  V  V0  1  0.50000000  0.50000000  0.50000000  1
  Fe  Fe0  1  0.62362281  0.62362281  0.62362281  1
  Fe  Fe1  1  0.12668005  0.12668005  0.12668005  1
  Fe  Fe2  1  0.87331995  0.87331995  0.87331995  1
  Fe  Fe3  1  0.37637719  0.37637719  0.37637719  1
  Si  Si0  1  0.25152034  0.25152034  0.25152034  1
  Si  Si1  1  0.74847966  0.74847966  0.74847966  1
loop_
_geom_bond_atom_site_label_1
_geom_bond_atom_site_label_2
_geom_bond_distance
_geom_bond_site_symmetry_2
Al0 Fe3 2.410001 1_545
Al0 Fe0 2.410001 1_454
Al0 Fe3 2.410001 1_554
Al0 Fe0 2.410001 1_445
Al0 Fe3 2.410001 1_455
Al0 Fe0 2.410001 1_544
Al0 Fe1 2.436947 1_555
Al0 Fe2 2.436947 1_444
Al0 Si1 2.756706 1_445
Al0 Si0 2.756706 1_554
Al0 Si1 2.756706 1_454
Al0 Si0 2.756706 1_545
Al0 Si1 2.756706 1_544
Al0 Si0 2.756706 1_455
Fe0 V0 2.378135 1_555
Fe0 Si0 2.382998 1_565
Fe0 Si0 2.382999 1_556
Fe0 Si0 2.382999 1_655
Fe0 Si1 2.401874 1_555
Fe1 V0 2.390432 1_545
Fe1 V0 2.390432 1_554
Fe1 V0 2.390432 1_455
Fe1 Si0 2.401556 1_555
Fe1 Si1 2.422275 1_454
Fe1 Si1 2.422275 1_445
Fe1 Si1 2.422275 1_544
Fe2 V0 2.390432 1_565
Fe2 V0 2.390432 1_556
Fe2 V0 2.390432 1_655
Fe2 Si1 2.401556 1_555
Fe2 Si0 2.422275 1_656
Fe2 Si0 2.422275 1_665
Fe2 Si0 2.422275 1_566
Fe3 V0 2.378135 1_555
Fe3 Si1 2.382998 1_545
Fe3 Si1 2.382999 1_554
Fe3 Si1 2.382999 1_455
Fe3 Si0 2.401874 1_555
Si0 V0 2.790514 1_554
Si0 V0 2.790514 1_545
Si0 V0 2.790514 1_455
Si1 V0 2.790514 1_556
Si1 V0 2.790514 1_565
Si1 V0 2.790514 1_655
