# generated using pymatgen
data_In7PPtO8
_symmetry_space_group_name_H-M   'P 1'
_cell_length_a   7.27811634
_cell_length_b   7.27811557
_cell_length_c   7.27811634
_cell_angle_alpha   119.99999916
_cell_angle_beta   90.00000000
_cell_angle_gamma   119.99999916
_symmetry_Int_Tables_number   1
_chemical_formula_structural   In7PPtO8
_chemical_formula_sum   'In7 P1 Pt1 O8'
_cell_volume   272.61010357
_cell_formula_units_Z   1
loop_
 _symmetry_equiv_pos_site_id
 _symmetry_equiv_pos_as_xyz
  1  'x, y, z'
loop_
 _atom_site_type_symbol
 _atom_site_label
 _atom_site_symmetry_multiplicity
 _atom_site_fract_x
 _atom_site_fract_y
 _atom_site_fract_z
 _atom_site_occupancy
  In  In0  1  0.25393616  0.50787133  0.25393616  1
  In  In1  1  0.25393616  1.00000000  0.25393616  1
  In  In2  1  0.74606384  0.00000000  0.25393616  1
  In  In3  1  0.74606384  0.49212767  0.74606384  1
  In  In4  1  0.25393616  0.00000000  0.74606384  1
  In  In5  1  0.74606384  0.00000000  0.74606384  1
  In  In6  1  0.25000000  0.50000000  0.75000000  1
  P  P0  1  0.75000000  0.50000000  0.25000000  1
  Pt  Pt0  1  0.00000000  0.00000000  0.00000000  1
  O  O0  1  0.39199424  0.78398948  0.17598372  1
  O  O1  1  0.01051349  0.67367633  0.33683716  1
  O  O2  1  0.66316284  0.67367633  0.33683716  1
  O  O3  1  0.66316284  0.32632367  0.33683716  1
  O  O4  1  0.39199424  0.78398948  0.60800576  1
  O  O5  1  0.39199424  0.21601052  0.60800576  1
  O  O6  1  0.82401628  0.21601052  0.60800576  1
  O  O7  1  0.66316284  0.32632367  0.98948651  1
loop_
_geom_bond_atom_site_label_1
_geom_bond_atom_site_label_2
_geom_bond_distance
_geom_bond_site_symmetry_2
In0 O4 2.119184 1_555
In0 O0 2.119189 1_555
In0 O2 2.523661 1_555
In0 O1 2.523668 1_555
In0 Pt0 2.613712 1_555
In1 O0 2.119177 1_555
In1 O5 2.119183 1_565
In1 O1 2.523652 1_555
In1 O3 2.523663 1_565
In1 Pt0 2.613717 1_565
In2 O6 2.119183 1_555
In2 O0 2.119183 1_545
In2 O3 2.523652 1_555
In2 O2 2.523652 1_545
In2 Pt0 2.613717 1_655
In3 O6 2.119183 1_555
In3 O5 2.119183 1_555
In3 O7 2.523663 1_555
In3 O3 2.523663 1_555
In3 Pt0 2.613717 1_666
In4 O5 2.119177 1_555
In4 O4 2.119177 1_545
In4 O1 2.523663 1_545
In4 O7 2.523663 1_555
In4 Pt0 2.613717 1_556
In5 O6 2.119177 1_555
In5 O4 2.119183 1_545
In5 O7 2.523652 1_555
In5 O2 2.523663 1_545
In5 Pt0 2.613717 1_656
In6 O4 2.531432 1_555
In6 O5 2.531432 1_555
In6 O6 2.531433 1_455
In6 O0 2.531433 1_556
O1 P0 1.548116 1_455
O2 P0 1.548116 1_555
O3 P0 1.548116 1_555
O7 P0 1.548116 1_556
