# generated using pymatgen
data_Zr6Zn18SiIr5
_symmetry_space_group_name_H-M   'P 1'
_cell_length_a   8.68849064
_cell_length_b   8.68849016
_cell_length_c   8.68849052
_cell_angle_alpha   59.86429133
_cell_angle_beta   59.86429026
_cell_angle_gamma   59.86429211
_symmetry_Int_Tables_number   1
_chemical_formula_structural   Zr6Zn18SiIr5
_chemical_formula_sum   'Zr6 Zn18 Si1 Ir5'
_cell_volume   462.35815592
_cell_formula_units_Z   1
loop_
 _symmetry_equiv_pos_site_id
 _symmetry_equiv_pos_as_xyz
  1  'x, y, z'
loop_
 _atom_site_type_symbol
 _atom_site_label
 _atom_site_symmetry_multiplicity
 _atom_site_fract_x
 _atom_site_fract_y
 _atom_site_fract_z
 _atom_site_occupancy
  Zr  Zr0  1  0.71078372  0.28280030  0.28280030  1
  Zr  Zr1  1  0.28921628  0.71719970  0.71719970  1
  Zr  Zr2  1  0.28280030  0.71078372  0.28280030  1
  Zr  Zr3  1  0.71719970  0.28921628  0.71719970  1
  Zr  Zr4  1  0.28280030  0.28280030  0.71078372  1
  Zr  Zr5  1  0.71719970  0.71719970  0.28921628  1
  Zn  Zn0  1  0.12242454  0.12242454  0.62723164  1
  Zn  Zn1  1  0.12242454  0.62723164  0.12242454  1
  Zn  Zn2  1  0.87757546  0.87757546  0.37276836  1
  Zn  Zn3  1  0.87757546  0.37276836  0.87757546  1
  Zn  Zn4  1  0.62723164  0.12242454  0.12242454  1
  Zn  Zn5  1  0.37276836  0.87757546  0.87757546  1
  Zn  Zn6  1  0.50000000  0.00000000  0.00000000  1
  Zn  Zn7  1  0.00000000  0.50000000  0.00000000  1
  Zn  Zn8  1  0.00000000  0.00000000  0.50000000  1
  Zn  Zn9  1  0.33671379  0.33671379  0.33671379  1
  Zn  Zn10  1  0.66328621  0.66328621  0.66328621  1
  Zn  Zn11  1  0.33328384  0.33328384  0.98908175  1
  Zn  Zn12  1  0.33328384  0.98908175  0.33328384  1
  Zn  Zn13  1  0.66671616  0.66671616  0.01091825  1
  Zn  Zn14  1  0.66671616  0.01091825  0.66671616  1
  Zn  Zn15  1  0.98908175  0.33328384  0.33328384  1
  Zn  Zn16  1  0.01091825  0.66671616  0.66671616  1
  Zn  Zn17  1  0.00000000  0.00000000  0.00000000  1
  Si  Si0  1  0.50000000  0.50000000  0.50000000  1
  Ir  Ir0  1  0.11892587  0.11892587  0.11892587  1
  Ir  Ir1  1  0.88107413  0.88107413  0.88107413  1
  Ir  Ir2  1  0.00000000  0.50000000  0.50000000  1
  Ir  Ir3  1  0.50000000  0.00000000  0.50000000  1
  Ir  Ir4  1  0.50000000  0.50000000  0.00000000  1
loop_
_geom_bond_atom_site_label_1
_geom_bond_atom_site_label_2
_geom_bond_distance
_geom_bond_site_symmetry_2
Zn0 Zn17 2.640141 1_556
Zn0 Zn8 2.642400 1_555
Zn0 Zn9 2.710591 1_555
Zn0 Zn12 2.713484 1_545
Zn0 Zn15 2.713484 1_455
Zn0 Zr1 2.891014 1_545
Zn0 Zr3 2.891014 1_455
Zn0 Zr4 2.896760 1_555
Zn1 Zn17 2.640141 1_565
Zn1 Zn7 2.642400 1_555
Zn1 Zn9 2.710591 1_555
Zn1 Zn15 2.713484 1_455
Zn1 Zn11 2.713484 1_554
Zn1 Zr1 2.891014 1_554
Zn1 Zr5 2.891014 1_455
Zn1 Zr2 2.896760 1_555
Zn2 Zn8 2.642400 1_665
Zn2 Zr0 2.891014 1_565
Zn2 Zr2 2.891014 1_655
Zn2 Zr5 2.896760 1_555
Zn3 Zn7 2.642400 1_656
Zn3 Zr0 2.891014 1_556
Zn3 Zr4 2.891014 1_655
Zn3 Zr3 2.896760 1_555
Zn4 Zn6 2.642400 1_555
Zn4 Zn9 2.710591 1_555
Zn4 Zr5 2.891014 1_545
Zn4 Zr3 2.891014 1_554
Zn4 Zr0 2.896760 1_555
Zn5 Zn6 2.642400 1_566
Zn5 Zr4 2.891014 1_565
Zn5 Zr2 2.891014 1_556
Zn5 Zr1 2.896760 1_555
Zn6 Zr3 3.133538 1_554
Zn6 Zr2 3.133538 1_545
Zn6 Zr5 3.133538 1_545
Zn6 Zr4 3.133538 1_554
Zn7 Zr1 3.133538 1_554
Zn7 Zr0 3.133538 1_455
Zn7 Zr5 3.133538 1_455
Zn7 Zr4 3.133538 1_554
Zn8 Zr3 3.133538 1_455
Zn8 Zr2 3.133538 1_545
Zn8 Zr1 3.133539 1_545
Zn8 Zr0 3.133539 1_455
Zn9 Zr2 2.857444 1_555
Zn9 Zr4 2.857444 1_555
Zn9 Zr0 2.857444 1_555
Zn10 Zn2 2.710591 1_555
Zn10 Zn5 2.710591 1_555
Zn10 Zn3 2.710591 1_555
Zn10 Zr3 2.857444 1_555
Zn10 Zr5 2.857444 1_555
Zn10 Zr1 2.857444 1_555
Zn11 Zn6 2.478489 1_556
Zn11 Zn7 2.478489 1_556
Zn11 Zn4 2.713484 1_556
Zn11 Zr4 2.924812 1_555
Zn11 Zr1 2.926979 1_555
Zn11 Zr3 2.926979 1_555
Zn12 Zn6 2.478489 1_565
Zn12 Zn8 2.478489 1_565
Zn12 Zn4 2.713484 1_565
Zn12 Zr2 2.924811 1_555
Zn12 Zr1 2.926979 1_555
Zn12 Zr5 2.926979 1_555
Zn13 Zn6 2.478489 1_565
Zn13 Zn7 2.478489 1_655
Zn13 Zn3 2.713484 1_554
Zn13 Zn5 2.713484 1_554
Zn13 Zr5 2.924812 1_555
Zn13 Zr0 2.926979 1_555
Zn13 Zr2 2.926979 1_555
Zn14 Zn6 2.478489 1_556
Zn14 Zn8 2.478489 1_655
Zn14 Zn2 2.713484 1_545
Zn14 Zn5 2.713484 1_545
Zn14 Zr3 2.924811 1_555
Zn14 Zr0 2.926979 1_555
Zn14 Zr4 2.926979 1_555
Zn15 Zn8 2.478489 1_655
Zn15 Zn7 2.478489 1_655
Zn15 Zr0 2.924812 1_555
Zn15 Zr5 2.926979 1_555
Zn15 Zr3 2.926979 1_555
Zn16 Zn8 2.478489 1_565
Zn16 Zn7 2.478489 1_556
Zn16 Zn3 2.713484 1_455
Zn16 Zn2 2.713484 1_455
Zn16 Zr1 2.924812 1_555
Zn16 Zr4 2.926979 1_555
Zn16 Zr2 2.926979 1_555
Zn17 Zn3 2.640141 1_454
Zn17 Zn2 2.640141 1_445
Zn17 Zn5 2.640141 1_544
Zn17 Zn4 2.640141 1_455
Si0 Zr5 2.666823 1_555
Si0 Zr4 2.666823 1_555
Si0 Zr1 2.666823 1_555
Si0 Zr0 2.666823 1_555
Si0 Zr3 2.666823 1_555
Si0 Zr2 2.666823 1_555
Ir0 Zn17 2.533617 1_555
Ir0 Zn7 2.701755 1_555
Ir0 Zn8 2.701755 1_555
Ir0 Zn6 2.701755 1_555
Ir0 Zn15 2.733789 1_455
Ir0 Zn11 2.733789 1_554
Ir0 Zn12 2.733790 1_545
Ir0 Zr2 2.919877 1_545
Ir0 Zr4 2.919877 1_554
Ir0 Zr0 2.919877 1_455
Ir0 Zn2 2.964196 1_445
Ir0 Zn5 2.964196 1_544
Ir0 Zn3 2.964196 1_454
Ir1 Zn17 2.533617 1_666
Ir1 Zn7 2.701755 1_656
Ir1 Zn8 2.701755 1_665
Ir1 Zn6 2.701755 1_566
Ir1 Zn16 2.733789 1_655
Ir1 Zn13 2.733789 1_556
Ir1 Zn14 2.733790 1_565
Ir1 Zr3 2.919877 1_565
Ir1 Zr5 2.919877 1_556
Ir1 Zr1 2.919877 1_655
Ir1 Zn0 2.964196 1_665
Ir1 Zn4 2.964196 1_566
Ir1 Zn1 2.964196 1_656
Ir2 Zn9 2.504040 1_555
Ir2 Zn10 2.504040 1_455
Ir2 Zn15 2.566731 1_455
Ir2 Zn16 2.566731 1_555
Ir2 Zn0 2.674143 1_555
Ir2 Zn2 2.674143 1_455
Ir2 Zn3 2.674143 1_455
Ir2 Zn1 2.674143 1_555
Ir2 Zr2 3.056938 1_555
Ir2 Zr3 3.056938 1_455
Ir2 Zr4 3.056939 1_555
Ir2 Zr5 3.056939 1_455
Ir3 Zn9 2.504040 1_555
Ir3 Zn10 2.504040 1_545
Ir3 Zn14 2.566731 1_555
Ir3 Zn12 2.566731 1_545
Ir3 Zn5 2.674143 1_545
Ir3 Zn4 2.674143 1_555
Ir3 Zn2 2.674144 1_545
Ir3 Zn0 2.674144 1_555
Ir3 Zr0 3.056938 1_555
Ir3 Zr1 3.056938 1_545
Ir3 Zr4 3.056938 1_555
Ir3 Zr5 3.056938 1_545
Ir4 Zn9 2.504040 1_555
Ir4 Zn10 2.504040 1_554
Ir4 Zn11 2.566731 1_554
Ir4 Zn13 2.566731 1_555
Ir4 Zn5 2.674143 1_554
Ir4 Zn4 2.674143 1_555
Ir4 Zn3 2.674144 1_554
Ir4 Zn1 2.674144 1_555
Ir4 Zr2 3.056938 1_555
Ir4 Zr3 3.056938 1_554
Ir4 Zr0 3.056939 1_555
Ir4 Zr1 3.056939 1_554
