# generated using pymatgen
data_NaHf2NiF11
_symmetry_space_group_name_H-M   'P 1'
_cell_length_a   5.58319759
_cell_length_b   5.58319858
_cell_length_c   7.65119055
_cell_angle_alpha   69.34089960
_cell_angle_beta   69.34089468
_cell_angle_gamma   72.86695577
_symmetry_Int_Tables_number   1
_chemical_formula_structural   NaHf2NiF11
_chemical_formula_sum   'Na1 Hf2 Ni1 F11'
_cell_volume   204.83669003
_cell_formula_units_Z   1
loop_
 _symmetry_equiv_pos_site_id
 _symmetry_equiv_pos_as_xyz
  1  'x, y, z'
loop_
 _atom_site_type_symbol
 _atom_site_label
 _atom_site_symmetry_multiplicity
 _atom_site_fract_x
 _atom_site_fract_y
 _atom_site_fract_z
 _atom_site_occupancy
  Na  Na0  1  0.00000000  0.00000000  0.00000000  1
  Hf  Hf0  1  0.50733807  0.50733807  0.76325091  1
  Hf  Hf1  1  0.49266193  0.49266193  0.23674909  1
  Ni  Ni0  1  0.00000000  0.00000000  0.50000000  1
  F  F0  1  0.22132851  0.81418371  0.68679906  1
  F  F1  1  0.18581629  0.77867149  0.31320094  1
  F  F2  1  0.77867149  0.18581629  0.31320094  1
  F  F3  1  0.81418371  0.22132851  0.68679906  1
  F  F4  1  0.50000000  0.50000000  0.50000000  1
  F  F5  1  0.67153478  0.32846522  0.00000000  1
  F  F6  1  0.32846522  0.67153478  1.00000000  1
  F  F7  1  0.24514964  0.24514964  0.35047138  1
  F  F8  1  0.75485036  0.75485036  0.64952862  1
  F  F9  1  0.26751093  0.26751093  0.89008520  1
  F  F10  1  0.73248907  0.73248907  0.10991480  1
loop_
_geom_bond_atom_site_label_1
_geom_bond_atom_site_label_2
_geom_bond_distance
_geom_bond_site_symmetry_2
F0 Ni0 2.022534 1_565
F0 Hf0 2.041381 1_555
F0 Na0 2.693559 1_566
F1 Ni0 2.022534 1_565
F1 Hf1 2.041381 1_555
F1 Na0 2.693559 1_565
F2 Ni0 2.022534 1_655
F2 Hf1 2.041381 1_555
F2 Na0 2.693559 1_655
F3 Ni0 2.022534 1_655
F3 Hf0 2.041381 1_555
F3 Na0 2.693559 1_656
F4 Hf0 2.043951 1_555
F4 Hf1 2.043951 1_555
F5 Hf1 2.115384 1_555
F5 Hf0 2.115384 1_554
F5 Na0 2.178250 1_655
F6 Hf0 2.115384 1_555
F6 Hf1 2.115384 1_556
F6 Na0 2.178250 1_566
F7 Ni0 1.987359 1_555
F7 Hf1 2.001177 1_555
F8 Ni0 1.987359 1_665
F8 Hf0 2.001177 1_555
F9 Hf0 1.936541 1_555
F9 Na0 2.170359 1_556
F10 Hf1 1.936541 1_555
F10 Na0 2.170359 1_665
