# generated using pymatgen
data_NaTiIrSe4
_symmetry_space_group_name_H-M   'P 1'
_cell_length_a   3.68712334
_cell_length_b   5.94548268
_cell_length_c   8.07291452
_cell_angle_alpha   62.98012131
_cell_angle_beta   90.00000000
_cell_angle_gamma   90.00000000
_symmetry_Int_Tables_number   1
_chemical_formula_structural   NaTiIrSe4
_chemical_formula_sum   'Na1 Ti1 Ir1 Se4'
_cell_volume   157.65553219
_cell_formula_units_Z   1
loop_
 _symmetry_equiv_pos_site_id
 _symmetry_equiv_pos_as_xyz
  1  'x, y, z'
loop_
 _atom_site_type_symbol
 _atom_site_label
 _atom_site_symmetry_multiplicity
 _atom_site_fract_x
 _atom_site_fract_y
 _atom_site_fract_z
 _atom_site_occupancy
  Na  Na0  1  0.50000000  0.58424922  0.51103671  1
  Ti  Ti0  1  0.50000000  0.56504507  0.00733581  1
  Ir  Ir0  1  0.00000000  0.98107475  0.99246420  1
  Se  Se0  1  0.00000000  0.52460351  0.23401414  1
  Se  Se1  1  0.50000000  0.05702090  0.17169639  1
  Se  Se2  1  0.00000000  0.45683826  0.81865874  1
  Se  Se3  1  0.50000000  0.99626829  0.76949400  1
loop_
_geom_bond_atom_site_label_1
_geom_bond_atom_site_label_2
_geom_bond_distance
_geom_bond_site_symmetry_2
Na0 Se1 2.899853 1_565
Na0 Se2 2.903546 1_555
Na0 Se2 2.903546 1_655
Na0 Se0 3.040798 1_655
Na0 Se0 3.040798 1_555
Na0 Se3 3.153878 1_545
Ir0 Se1 2.507952 1_566
Ir0 Se1 2.507952 1_466
Ir0 Se0 2.521809 1_556
Ir0 Se2 2.522659 1_565
Ir0 Se3 2.549355 1_555
Ir0 Se3 2.549355 1_455
Se0 Ti0 2.530905 1_455
Se0 Ti0 2.530905 1_555
Se1 Ti0 2.691145 1_555
Se2 Ti0 2.650099 1_556
Se2 Ti0 2.650099 1_456
Se3 Ti0 2.405642 1_556
