# generated using pymatgen
data_TlSbO3
_symmetry_space_group_name_H-M   'P 1'
_cell_length_a   7.87291404
_cell_length_b   7.87291472
_cell_length_c   7.87291397
_cell_angle_alpha   39.59483374
_cell_angle_beta   39.59483301
_cell_angle_gamma   39.59483544
_symmetry_Int_Tables_number   1
_chemical_formula_structural   TlSbO3
_chemical_formula_sum   'Tl2 Sb2 O6'
_cell_volume   178.47189652
_cell_formula_units_Z   2
loop_
 _symmetry_equiv_pos_site_id
 _symmetry_equiv_pos_as_xyz
  1  'x, y, z'
loop_
 _atom_site_type_symbol
 _atom_site_label
 _atom_site_symmetry_multiplicity
 _atom_site_fract_x
 _atom_site_fract_y
 _atom_site_fract_z
 _atom_site_occupancy
  Tl  Tl0  1  0.62139489  0.62139489  0.62139489  1
  Tl  Tl1  1  0.37860511  0.37860511  0.37860511  1
  Sb  Sb0  1  0.83329742  0.83329742  0.83329742  1
  Sb  Sb1  1  0.16670258  0.16670258  0.16670258  1
  O  O0  1  0.83045798  0.44869454  0.06783882  1
  O  O1  1  0.44869454  0.06783882  0.83045798  1
  O  O2  1  0.06783882  0.83045798  0.44869454  1
  O  O3  1  0.16954202  0.55130546  0.93216118  1
  O  O4  1  0.93216118  0.16954202  0.55130546  1
  O  O5  1  0.55130546  0.93216118  0.16954202  1
loop_
_geom_bond_atom_site_label_1
_geom_bond_atom_site_label_2
_geom_bond_distance
_geom_bond_site_symmetry_2
O0 Sb1 1.999343 1_655
O0 Sb0 2.000629 1_554
O0 Tl1 2.544925 1_555
O1 Sb1 1.999343 1_556
O1 Sb0 2.000629 1_545
O1 Tl1 2.544925 1_555
O2 Sb1 1.999343 1_565
O2 Sb0 2.000629 1_455
O2 Tl1 2.544925 1_555
O3 Sb0 1.999343 1_455
O3 Sb1 2.000629 1_556
O3 Tl0 2.544925 1_555
O4 Sb0 1.999343 1_545
O4 Sb1 2.000629 1_655
O4 Tl0 2.544925 1_555
O5 Sb0 1.999343 1_554
O5 Sb1 2.000629 1_565
O5 Tl0 2.544925 1_555
