# generated using pymatgen
data_LaBRh3
_symmetry_space_group_name_H-M   'P 1'
_cell_length_a   4.26187973
_cell_length_b   4.26187973
_cell_length_c   4.26187973
_cell_angle_alpha   90.00000000
_cell_angle_beta   90.00000000
_cell_angle_gamma   90.00000000
_symmetry_Int_Tables_number   1
_chemical_formula_structural   LaBRh3
_chemical_formula_sum   'La1 B1 Rh3'
_cell_volume   77.41115893
_cell_formula_units_Z   1
loop_
 _symmetry_equiv_pos_site_id
 _symmetry_equiv_pos_as_xyz
  1  'x, y, z'
loop_
 _atom_site_type_symbol
 _atom_site_label
 _atom_site_symmetry_multiplicity
 _atom_site_fract_x
 _atom_site_fract_y
 _atom_site_fract_z
 _atom_site_occupancy
  La  La0  1  0.00000000  -0.00000000  -0.00000000  1
  B  B0  1  0.50000000  0.50000000  0.50000000  1
  Rh  Rh0  1  -0.00000000  0.50000000  0.50000000  1
  Rh  Rh1  1  0.50000000  0.50000000  -0.00000000  1
  Rh  Rh2  1  0.50000000  -0.00000000  0.50000000  1
loop_
_geom_bond_atom_site_label_1
_geom_bond_atom_site_label_2
_geom_bond_distance
_geom_bond_site_symmetry_2
La0 Rh2 3.013604 1_455
La0 Rh2 3.013604 1_554
La0 Rh1 3.013604 1_545
La0 Rh0 3.013604 1_545
La0 Rh1 3.013604 1_555
La0 Rh0 3.013604 1_555
La0 Rh2 3.013604 1_454
La0 Rh2 3.013604 1_555
La0 Rh0 3.013604 1_554
La0 Rh1 3.013604 1_455
La0 Rh0 3.013604 1_544
La0 Rh1 3.013604 1_445
B0 Rh2 2.130940 1_565
B0 Rh0 2.130940 1_555
B0 Rh2 2.130940 1_555
B0 Rh0 2.130940 1_655
B0 Rh1 2.130940 1_555
B0 Rh1 2.130940 1_556
