# generated using pymatgen
data_CsK(BiPb)2
_symmetry_space_group_name_H-M   'P 1'
_cell_length_a   7.01836274
_cell_length_b   7.01836214
_cell_length_c   7.01836220
_cell_angle_alpha   118.88637014
_cell_angle_beta   120.79216010
_cell_angle_gamma   90.28651311
_symmetry_Int_Tables_number   1
_chemical_formula_structural   CsK(BiPb)2
_chemical_formula_sum   'Cs1 K1 Bi2 Pb2'
_cell_volume   244.95767570
_cell_formula_units_Z   1
loop_
 _symmetry_equiv_pos_site_id
 _symmetry_equiv_pos_as_xyz
  1  'x, y, z'
loop_
 _atom_site_type_symbol
 _atom_site_label
 _atom_site_symmetry_multiplicity
 _atom_site_fract_x
 _atom_site_fract_y
 _atom_site_fract_z
 _atom_site_occupancy
  Cs  Cs0  1  0.99639424  0.99639424  1.00000000  1
  K  K0  1  0.25291889  0.75291889  0.50000000  1
  Bi  Bi0  1  0.64191516  0.36328766  0.27862750  1
  Bi  Bi1  1  0.08466216  0.36328766  0.72137250  1
  Pb  Pb0  1  0.63705427  0.35998588  0.72293161  1
  Pb  Pb1  1  0.63705427  0.91412267  0.27706839  1
loop_
_geom_bond_atom_site_label_1
_geom_bond_atom_site_label_2
_geom_bond_distance
_geom_bond_site_symmetry_2
Cs0 Pb1 4.060902 1_555
Cs0 Pb0 4.060903 1_565
Cs0 Pb0 4.060903 1_666
Cs0 Pb1 4.060903 1_656
Cs0 Pb0 4.070194 1_555
Cs0 Pb1 4.070194 1_556
Cs0 K0 4.222727 1_656
Cs0 K0 4.222728 1_555
Cs0 K0 4.379675 1_666
Cs0 K0 4.379675 1_655
K0 Pb0 4.122504 1_565
K0 Pb1 4.122505 1_555
K0 Pb1 4.152818 1_556
K0 Pb0 4.152818 1_454
K0 Pb0 4.152818 1_555
K0 Pb1 4.152819 1_455
Bi0 Bi1 3.070072 1_655
Bi0 Pb1 3.147084 1_545
Bi0 Pb0 3.147085 1_555
Bi0 Cs0 4.101735 1_555
Bi0 Cs0 4.101736 1_544
Bi0 Cs0 4.114323 1_444
Bi0 K0 4.151785 1_655
Bi0 K0 4.202149 1_544
Bi0 K0 4.202149 1_555
Bi1 Pb1 3.147091 1_445
Bi1 Pb0 3.147099 1_455
Bi1 Cs0 4.101729 1_444
Bi1 Cs0 4.101741 1_455
Bi1 Cs0 4.114328 1_445
Bi1 K0 4.151778 1_555
Bi1 K0 4.202143 1_545
Bi1 K0 4.202155 1_556
Pb0 Pb1 3.181754 1_545
