# generated using pymatgen
data_BaAl5Ir2
_symmetry_space_group_name_H-M   'P 1'
_cell_length_a   13.74917221
_cell_length_b   13.74917096
_cell_length_c   13.74917161
_cell_angle_alpha   144.00408576
_cell_angle_beta   116.38234658
_cell_angle_gamma   75.32012897
_symmetry_Int_Tables_number   1
_chemical_formula_structural   BaAl5Ir2
_chemical_formula_sum   'Ba8 Al40 Ir16'
_cell_volume   1340.41521959
_cell_formula_units_Z   8
loop_
 _symmetry_equiv_pos_site_id
 _symmetry_equiv_pos_as_xyz
  1  'x, y, z'
loop_
 _atom_site_type_symbol
 _atom_site_label
 _atom_site_symmetry_multiplicity
 _atom_site_fract_x
 _atom_site_fract_y
 _atom_site_fract_z
 _atom_site_occupancy
  Ba  Ba0_0  1  0.00000000  0.00000000  0.00000000  1
  Ba  Ba0_1  1  0.00000000  0.00000000  0.50000000  1
  Ba  Ba0_2  1  0.00000000  0.50000000  0.00000000  1
  Ba  Ba0_3  1  0.00000000  0.50000000  0.50000000  1
  Ba  Ba0_4  1  0.50000000  0.00000000  0.00000000  1
  Ba  Ba0_5  1  0.50000000  0.00000000  0.50000000  1
  Ba  Ba0_6  1  0.50000000  0.50000000  0.00000000  1
  Ba  Ba0_7  1  0.50000000  0.50000000  0.50000000  1
  Al  Al0_0  1  0.25096877  0.15732841  0.09364037  1
  Al  Al0_1  1  0.25096877  0.15732841  0.59364037  1
  Al  Al0_2  1  0.25096877  0.65732841  0.09364037  1
  Al  Al0_3  1  0.25096877  0.65732841  0.59364037  1
  Al  Al0_4  1  0.75096877  0.15732841  0.09364037  1
  Al  Al0_5  1  0.75096877  0.15732841  0.59364037  1
  Al  Al0_6  1  0.75096877  0.65732841  0.09364037  1
  Al  Al0_7  1  0.75096877  0.65732841  0.59364037  1
  Al  Al1_0  1  0.43631246  0.34267159  0.09364037  1
  Al  Al1_1  1  0.43631246  0.34267159  0.59364037  1
  Al  Al1_2  1  0.43631246  0.84267159  0.09364037  1
  Al  Al1_3  1  0.43631246  0.84267159  0.59364037  1
  Al  Al1_4  1  0.93631246  0.34267159  0.09364037  1
  Al  Al1_5  1  0.93631246  0.34267159  0.59364037  1
  Al  Al1_6  1  0.93631246  0.84267159  0.09364037  1
  Al  Al1_7  1  0.93631246  0.84267159  0.59364037  1
  Al  Al2_0  1  0.25000050  0.00000000  0.25000050  1
  Al  Al2_1  1  0.25000050  0.00000000  0.75000050  1
  Al  Al2_2  1  0.25000050  0.50000000  0.25000050  1
  Al  Al2_3  1  0.25000050  0.50000000  0.75000050  1
  Al  Al2_4  1  0.75000050  0.00000000  0.25000050  1
  Al  Al2_5  1  0.75000050  0.00000000  0.75000050  1
  Al  Al2_6  1  0.75000050  0.50000000  0.25000050  1
  Al  Al2_7  1  0.75000050  0.50000000  0.75000050  1
  Al  Al3_0  1  0.06368804  0.15732841  0.40635963  1
  Al  Al3_1  1  0.06368804  0.15732841  0.90635963  1
  Al  Al3_2  1  0.06368804  0.65732841  0.40635963  1
  Al  Al3_3  1  0.06368804  0.65732841  0.90635963  1
  Al  Al3_4  1  0.56368804  0.15732841  0.40635963  1
  Al  Al3_5  1  0.56368804  0.15732841  0.90635963  1
  Al  Al3_6  1  0.56368804  0.65732841  0.40635963  1
  Al  Al3_7  1  0.56368804  0.65732841  0.90635963  1
  Al  Al4_0  1  0.24903123  0.34267109  0.40635963  1
  Al  Al4_1  1  0.24903123  0.34267109  0.90635963  1
  Al  Al4_2  1  0.24903123  0.84267109  0.40635963  1
  Al  Al4_3  1  0.24903123  0.84267109  0.90635963  1
  Al  Al4_4  1  0.74903123  0.34267109  0.40635963  1
  Al  Al4_5  1  0.74903123  0.34267109  0.90635963  1
  Al  Al4_6  1  0.74903123  0.84267109  0.40635963  1
  Al  Al4_7  1  0.74903123  0.84267109  0.90635963  1
  Ir  Ir0_0  1  0.35733044  0.10732994  0.25000050  1
  Ir  Ir0_1  1  0.35733044  0.10732994  0.75000050  1
  Ir  Ir0_2  1  0.35733044  0.60732994  0.25000050  1
  Ir  Ir0_3  1  0.35733044  0.60732994  0.75000050  1
  Ir  Ir0_4  1  0.85733044  0.10732994  0.25000050  1
  Ir  Ir0_5  1  0.85733044  0.10732994  0.75000050  1
  Ir  Ir0_6  1  0.85733044  0.60732994  0.25000050  1
  Ir  Ir0_7  1  0.85733044  0.60732994  0.75000050  1
  Ir  Ir1_0  1  0.14266956  0.39266956  0.24999950  1
  Ir  Ir1_1  1  0.14266956  0.39266956  0.74999950  1
  Ir  Ir1_2  1  0.14266956  0.89266956  0.24999950  1
  Ir  Ir1_3  1  0.14266956  0.89266956  0.74999950  1
  Ir  Ir1_4  1  0.64266956  0.39266956  0.24999950  1
  Ir  Ir1_5  1  0.64266956  0.39266956  0.74999950  1
  Ir  Ir1_6  1  0.64266956  0.89266956  0.24999950  1
  Ir  Ir1_7  1  0.64266956  0.89266956  0.74999950  1
loop_
_geom_bond_atom_site_label_1
_geom_bond_atom_site_label_2
_geom_bond_distance
_geom_bond_site_symmetry_2
Ba0_0 Ir1_0 3.762689 1_555
Ba0_0 Ir1_3 3.762692 1_544
Ba0_0 Ir0_7 3.762695 1_444
Ba0_0 Ir0_4 3.762695 1_455
Ba0_0 Ba0_3 4.248261 1_544
Ba0_0 Ba0_3 4.248261 1_555
Ba0_1 Ir1_1 3.762689 1_555
Ba0_1 Ir1_2 3.762692 1_545
Ba0_1 Ir0_6 3.762695 1_445
Ba0_1 Ir0_5 3.762695 1_455
Ba0_1 Ba0_2 4.248261 1_556
Ba0_1 Ba0_2 4.248261 1_545
Ba0_2 Ir1_2 3.762689 1_555
Ba0_2 Ir1_1 3.762692 1_554
Ba0_2 Ir0_5 3.762695 1_454
Ba0_2 Ir0_6 3.762695 1_455
Ba0_3 Ir1_3 3.762689 1_555
Ba0_3 Ir1_0 3.762692 1_555
Ba0_3 Ir0_4 3.762695 1_455
Ba0_3 Ir0_7 3.762695 1_455
Ba0_4 Ir1_4 3.762689 1_555
Ba0_4 Ir1_7 3.762692 1_544
Ba0_4 Ir0_3 3.762695 1_544
Ba0_4 Ir0_0 3.762695 1_555
Ba0_4 Ba0_7 4.248261 1_555
Ba0_4 Ba0_7 4.248261 1_544
Ba0_5 Ir1_5 3.762689 1_555
Ba0_5 Ir1_6 3.762692 1_545
Ba0_5 Ir0_2 3.762695 1_545
Ba0_5 Ir0_1 3.762695 1_555
Ba0_5 Ba0_6 4.248261 1_556
Ba0_5 Ba0_6 4.248261 1_545
Ba0_6 Ir1_6 3.762689 1_555
Ba0_6 Ir1_5 3.762692 1_554
Ba0_6 Ir0_1 3.762695 1_554
Ba0_6 Ir0_2 3.762695 1_555
Ba0_7 Ir1_7 3.762689 1_555
Ba0_7 Ir1_4 3.762692 1_555
Ba0_7 Ir0_0 3.762695 1_555
Ba0_7 Ir0_3 3.762695 1_555
Al0_0 Ir0_0 2.514102 1_555
Al0_0 Ir1_0 2.540830 1_555
Al0_0 Ir1_3 2.540834 1_544
Al0_0 Al4_0 2.705444 1_555
Al0_0 Al4_3 2.705447 1_544
Al0_0 Al3_1 2.714449 1_554
Al0_0 Ba0_0 3.684010 1_555
Al0_0 Ba0_4 3.703747 1_555
Al0_0 Ba0_7 3.703747 1_555
Al0_1 Ir0_1 2.514102 1_555
Al0_1 Ir1_1 2.540830 1_555
Al0_1 Ir1_2 2.540834 1_545
Al0_1 Al4_1 2.705444 1_555
Al0_1 Al4_2 2.705447 1_545
Al0_1 Al3_0 2.714449 1_555
Al0_1 Ba0_1 3.684010 1_555
Al0_1 Ba0_5 3.703747 1_555
Al0_1 Ba0_6 3.703747 1_556
Al0_2 Ir0_2 2.514102 1_555
Al0_2 Ir1_2 2.540830 1_555
Al0_2 Ir1_1 2.540834 1_554
Al0_2 Al4_2 2.705444 1_555
Al0_2 Al4_1 2.705447 1_554
Al0_2 Al3_3 2.714449 1_554
Al0_2 Ba0_2 3.684010 1_555
Al0_2 Ba0_6 3.703747 1_555
Al0_2 Ba0_5 3.703747 1_565
Al0_3 Ir0_3 2.514102 1_555
Al0_3 Ir1_3 2.540830 1_555
Al0_3 Ir1_0 2.540834 1_555
Al0_3 Al4_3 2.705444 1_555
Al0_3 Al4_0 2.705447 1_555
Al0_3 Al3_2 2.714449 1_555
Al0_3 Ba0_3 3.684010 1_555
Al0_3 Ba0_7 3.703747 1_555
Al0_3 Ba0_4 3.703747 1_566
Al0_4 Ir0_4 2.514102 1_555
Al0_4 Ir1_4 2.540830 1_555
Al0_4 Ir1_7 2.540834 1_544
Al0_4 Al4_4 2.705444 1_555
Al0_4 Al4_7 2.705447 1_544
Al0_4 Al3_5 2.714449 1_554
Al0_4 Ba0_4 3.684010 1_555
Al0_4 Ba0_0 3.703747 1_655
Al0_4 Ba0_3 3.703747 1_655
Al0_5 Ir0_5 2.514102 1_555
Al0_5 Ir1_5 2.540830 1_555
Al0_5 Ir1_6 2.540834 1_545
Al0_5 Al4_5 2.705444 1_555
Al0_5 Al4_6 2.705447 1_545
Al0_5 Al3_4 2.714449 1_555
Al0_5 Ba0_5 3.684010 1_555
Al0_5 Ba0_1 3.703747 1_655
Al0_5 Ba0_2 3.703747 1_656
Al0_6 Ir0_6 2.514102 1_555
Al0_6 Ir1_6 2.540830 1_555
Al0_6 Ir1_5 2.540834 1_554
Al0_6 Al4_6 2.705444 1_555
Al0_6 Al4_5 2.705447 1_554
Al0_6 Al3_7 2.714449 1_554
Al0_6 Ba0_6 3.684010 1_555
Al0_6 Ba0_2 3.703747 1_655
Al0_6 Ba0_1 3.703747 1_665
Al0_7 Ir0_7 2.514102 1_555
Al0_7 Ir1_7 2.540830 1_555
Al0_7 Ir1_4 2.540834 1_555
Al0_7 Al4_7 2.705444 1_555
Al0_7 Al4_4 2.705447 1_555
Al0_7 Al3_6 2.714449 1_555
Al0_7 Ba0_7 3.684010 1_555
Al0_7 Ba0_3 3.703747 1_655
Al0_7 Ba0_0 3.703747 1_666
Al1_0 Ir1_4 2.514084 1_555
Al1_0 Ir0_1 2.540825 1_554
Al1_0 Ir0_2 2.540828 1_555
Al1_0 Al3_5 2.705436 1_554
Al1_0 Al3_6 2.705440 1_555
Al1_0 Al4_1 2.714449 1_554
Al1_0 Ba0_6 3.684006 1_555
Al1_0 Ba0_4 3.703746 1_555
Al1_0 Ba0_7 3.703749 1_555
Al1_1 Ir1_5 2.514084 1_555
Al1_1 Ir0_0 2.540825 1_555
Al1_1 Ir0_3 2.540828 1_555
Al1_1 Al3_4 2.705436 1_555
Al1_1 Al3_7 2.705440 1_555
Al1_1 Al4_0 2.714449 1_555
Al1_1 Ba0_7 3.684006 1_555
Al1_1 Ba0_5 3.703746 1_555
Al1_1 Ba0_6 3.703749 1_556
Al1_2 Ir1_6 2.514084 1_555
Al1_2 Ir0_3 2.540825 1_554
Al1_2 Ir0_0 2.540828 1_565
Al1_2 Al3_7 2.705436 1_554
Al1_2 Al3_4 2.705440 1_565
Al1_2 Al4_3 2.714449 1_554
Al1_2 Ba0_4 3.684006 1_565
Al1_2 Ba0_6 3.703746 1_555
Al1_2 Ba0_5 3.703749 1_565
Al1_3 Ir1_7 2.514084 1_555
Al1_3 Ir0_2 2.540825 1_555
Al1_3 Ir0_1 2.540828 1_565
Al1_3 Al3_6 2.705436 1_555
Al1_3 Al3_5 2.705440 1_565
Al1_3 Al4_2 2.714449 1_555
Al1_3 Ba0_5 3.684006 1_565
Al1_3 Ba0_7 3.703746 1_555
Al1_3 Ba0_4 3.703749 1_566
Al1_4 Ir1_0 2.514084 1_655
Al1_4 Ir0_5 2.540825 1_554
Al1_4 Ir0_6 2.540828 1_555
Al1_4 Al3_1 2.705436 1_654
Al1_4 Al3_2 2.705440 1_655
Al1_4 Al4_5 2.714449 1_554
Al1_4 Ba0_2 3.684006 1_655
Al1_4 Ba0_0 3.703746 1_655
Al1_4 Ba0_3 3.703749 1_655
Al1_5 Ir1_1 2.514084 1_655
Al1_5 Ir0_4 2.540825 1_555
Al1_5 Ir0_7 2.540828 1_555
Al1_5 Al3_0 2.705436 1_655
Al1_5 Al3_3 2.705440 1_655
Al1_5 Al4_4 2.714449 1_555
Al1_5 Ba0_3 3.684006 1_655
Al1_5 Ba0_1 3.703746 1_655
Al1_5 Ba0_2 3.703749 1_656
Al1_6 Ir1_2 2.514084 1_655
Al1_6 Ir0_7 2.540825 1_554
Al1_6 Ir0_4 2.540828 1_565
Al1_6 Al3_3 2.705436 1_654
Al1_6 Al3_0 2.705440 1_665
Al1_6 Al4_7 2.714449 1_554
Al1_6 Ba0_0 3.684006 1_665
Al1_6 Ba0_2 3.703746 1_655
Al1_6 Ba0_1 3.703749 1_665
Al1_7 Ir1_3 2.514084 1_655
Al1_7 Ir0_6 2.540825 1_555
Al1_7 Ir0_5 2.540828 1_565
Al1_7 Al3_2 2.705436 1_655
Al1_7 Al3_1 2.705440 1_665
Al1_7 Al4_6 2.714449 1_555
Al1_7 Ba0_1 3.684006 1_665
Al1_7 Ba0_3 3.703746 1_655
Al1_7 Ba0_0 3.703749 1_666
Al2_0 Ir0_0 2.336471 1_555
Al2_0 Ir1_2 2.336476 1_545
Al2_0 Ba0_5 3.623496 1_555
Al2_0 Ba0_0 3.623510 1_555
Al2_1 Ir0_1 2.336471 1_555
Al2_1 Ir1_3 2.336476 1_545
Al2_1 Ba0_4 3.623496 1_556
Al2_1 Ba0_1 3.623510 1_555
Al2_2 Ir0_2 2.336471 1_555
Al2_2 Ir1_0 2.336476 1_555
Al2_2 Ba0_7 3.623496 1_555
Al2_2 Ba0_2 3.623510 1_555
Al2_3 Ir0_3 2.336471 1_555
Al2_3 Ir1_1 2.336476 1_555
Al2_3 Ba0_6 3.623496 1_556
Al2_3 Ba0_3 3.623510 1_555
Al2_4 Ir0_4 2.336471 1_555
Al2_4 Ir1_6 2.336476 1_545
Al2_4 Ba0_1 3.623496 1_655
Al2_4 Ba0_4 3.623510 1_555
Al2_5 Ir0_5 2.336471 1_555
Al2_5 Ir1_7 2.336476 1_545
Al2_5 Ba0_0 3.623496 1_656
Al2_5 Ba0_5 3.623510 1_555
Al2_6 Ir0_6 2.336471 1_555
Al2_6 Ir1_4 2.336476 1_555
Al2_6 Ba0_3 3.623496 1_655
Al2_6 Ba0_6 3.623510 1_555
Al2_7 Ir0_7 2.336471 1_555
Al2_7 Ir1_5 2.336476 1_555
Al2_7 Ba0_2 3.623496 1_656
Al2_7 Ba0_7 3.623510 1_555
Al3_0 Ir0_4 2.514089 1_455
Al3_0 Ir1_1 2.540826 1_555
Al3_0 Ir1_2 2.540830 1_545
Al3_0 Ba0_1 3.684010 1_555
Al3_0 Ba0_3 3.703747 1_555
Al3_0 Ba0_0 3.703747 1_555
Al3_1 Ir0_5 2.514089 1_455
Al3_1 Ir1_0 2.540826 1_556
Al3_1 Ir1_3 2.540830 1_545
Al3_1 Ba0_0 3.684010 1_556
Al3_1 Ba0_2 3.703747 1_556
Al3_1 Ba0_1 3.703747 1_555
Al3_2 Ir0_6 2.514089 1_455
Al3_2 Ir1_3 2.540826 1_555
Al3_2 Ir1_0 2.540830 1_555
Al3_2 Ba0_3 3.684010 1_555
Al3_2 Ba0_1 3.703747 1_565
Al3_2 Ba0_2 3.703747 1_555
Al3_3 Ir0_7 2.514089 1_455
Al3_3 Ir1_2 2.540826 1_556
Al3_3 Ir1_1 2.540830 1_555
Al3_3 Ba0_2 3.684010 1_556
Al3_3 Ba0_0 3.703747 1_566
Al3_3 Ba0_3 3.703747 1_555
Al3_4 Ir0_0 2.514089 1_555
Al3_4 Ir1_5 2.540826 1_555
Al3_4 Ir1_6 2.540830 1_545
Al3_4 Ba0_5 3.684010 1_555
Al3_4 Ba0_7 3.703747 1_555
Al3_4 Ba0_4 3.703747 1_555
Al3_5 Ir0_1 2.514089 1_555
Al3_5 Ir1_4 2.540826 1_556
Al3_5 Ir1_7 2.540830 1_545
Al3_5 Ba0_4 3.684010 1_556
Al3_5 Ba0_6 3.703747 1_556
Al3_5 Ba0_5 3.703747 1_555
Al3_6 Ir0_2 2.514089 1_555
Al3_6 Ir1_7 2.540826 1_555
Al3_6 Ir1_4 2.540830 1_555
Al3_6 Ba0_7 3.684010 1_555
Al3_6 Ba0_5 3.703747 1_565
Al3_6 Ba0_6 3.703747 1_555
Al3_7 Ir0_3 2.514089 1_555
Al3_7 Ir1_6 2.540826 1_556
Al3_7 Ir1_5 2.540830 1_555
Al3_7 Ba0_6 3.684010 1_556
Al3_7 Ba0_4 3.703747 1_566
Al3_7 Ba0_7 3.703747 1_555
Al4_0 Ir1_0 2.514102 1_555
Al4_0 Ir0_0 2.540830 1_555
Al4_0 Ir0_3 2.540834 1_555
Al4_0 Ba0_7 3.684014 1_555
Al4_0 Ba0_0 3.703745 1_555
Al4_0 Ba0_3 3.703747 1_555
Al4_1 Ir1_1 2.514102 1_555
Al4_1 Ir0_1 2.540830 1_555
Al4_1 Ir0_2 2.540834 1_556
Al4_1 Ba0_6 3.684014 1_556
Al4_1 Ba0_1 3.703745 1_555
Al4_1 Ba0_2 3.703747 1_556
Al4_2 Ir1_2 2.514102 1_555
Al4_2 Ir0_2 2.540830 1_555
Al4_2 Ir0_1 2.540834 1_565
Al4_2 Ba0_5 3.684014 1_565
Al4_2 Ba0_2 3.703745 1_555
Al4_2 Ba0_1 3.703747 1_565
Al4_3 Ir1_3 2.514102 1_555
Al4_3 Ir0_3 2.540830 1_555
Al4_3 Ir0_0 2.540834 1_566
Al4_3 Ba0_4 3.684014 1_566
Al4_3 Ba0_3 3.703745 1_555
Al4_3 Ba0_0 3.703747 1_566
Al4_4 Ir1_4 2.514102 1_555
Al4_4 Ir0_4 2.540830 1_555
Al4_4 Ir0_7 2.540834 1_555
Al4_4 Ba0_3 3.684014 1_655
Al4_4 Ba0_4 3.703745 1_555
Al4_4 Ba0_7 3.703747 1_555
Al4_5 Ir1_5 2.514102 1_555
Al4_5 Ir0_5 2.540830 1_555
Al4_5 Ir0_6 2.540834 1_556
Al4_5 Ba0_2 3.684014 1_656
Al4_5 Ba0_5 3.703745 1_555
Al4_5 Ba0_6 3.703747 1_556
Al4_6 Ir1_6 2.514102 1_555
Al4_6 Ir0_6 2.540830 1_555
Al4_6 Ir0_5 2.540834 1_565
Al4_6 Ba0_1 3.684014 1_665
Al4_6 Ba0_6 3.703745 1_555
Al4_6 Ba0_5 3.703747 1_565
Al4_7 Ir1_7 2.514102 1_555
Al4_7 Ir0_7 2.540830 1_555
Al4_7 Ir0_4 2.540834 1_566
Al4_7 Ba0_0 3.684014 1_666
Al4_7 Ba0_7 3.703745 1_555
Al4_7 Ba0_4 3.703747 1_566
