# generated using pymatgen
data_CaNb6SnSe12
_symmetry_space_group_name_H-M   'P 1'
_cell_length_a   6.09134967
_cell_length_b   6.09134891
_cell_length_c   14.95223593
_cell_angle_alpha   90.00000000
_cell_angle_beta   90.00000000
_cell_angle_gamma   120.00001501
_symmetry_Int_Tables_number   1
_chemical_formula_structural   CaNb6SnSe12
_chemical_formula_sum   'Ca1 Nb6 Sn1 Se12'
_cell_volume   480.46716540
_cell_formula_units_Z   1
loop_
 _symmetry_equiv_pos_site_id
 _symmetry_equiv_pos_as_xyz
  1  'x, y, z'
loop_
 _atom_site_type_symbol
 _atom_site_label
 _atom_site_symmetry_multiplicity
 _atom_site_fract_x
 _atom_site_fract_y
 _atom_site_fract_z
 _atom_site_occupancy
  Ca  Ca0  1  0.00000000  0.00000000  0.50000000  1
  Nb  Nb0  1  0.33333300  0.66666700  0.25083701  1
  Nb  Nb1  1  0.66666700  0.33333300  0.74916299  1
  Nb  Nb2  1  0.66666700  0.33333300  0.25083701  1
  Nb  Nb3  1  0.33333300  0.66666700  0.74916299  1
  Nb  Nb4  1  0.00000000  0.00000000  0.25101492  1
  Nb  Nb5  1  0.00000000  0.00000000  0.74898508  1
  Sn  Sn0  1  0.00000000  0.00000000  0.00000000  1
  Se  Se0  1  0.33631503  1.00000000  0.14030142  1
  Se  Se1  1  1.00000000  0.33631503  0.14030142  1
  Se  Se2  1  0.66368497  0.66368497  0.14030142  1
  Se  Se3  1  0.33762184  0.33762184  0.63808854  1
  Se  Se4  1  0.66237816  0.66237816  0.36191146  1
  Se  Se5  1  0.66237816  0.00000000  0.63808854  1
  Se  Se6  1  0.00000000  0.66237816  0.63808854  1
  Se  Se7  1  0.00000000  0.66368497  0.85969858  1
  Se  Se8  1  0.33631503  0.33631503  0.85969858  1
  Se  Se9  1  1.00000000  0.33762184  0.36191146  1
  Se  Se10  1  0.33762184  1.00000000  0.36191146  1
  Se  Se11  1  0.66368497  0.00000000  0.85969858  1
loop_
_geom_bond_atom_site_label_1
_geom_bond_atom_site_label_2
_geom_bond_distance
_geom_bond_site_symmetry_2
Ca0 Se3 2.914208 1_555
Ca0 Se4 2.914208 1_445
Ca0 Se6 2.914208 1_545
Ca0 Se9 2.914208 1_455
Ca0 Se5 2.914209 1_455
Ca0 Se10 2.914209 1_545
Nb0 Se0 2.611084 1_555
Nb0 Se1 2.611086 1_455
Nb0 Se2 2.611089 1_555
Nb0 Se10 2.613168 1_555
Nb0 Se9 2.613170 1_455
Nb0 Se4 2.613173 1_555
Nb1 Se11 2.611084 1_555
Nb1 Se7 2.611086 1_655
Nb1 Se8 2.611089 1_555
Nb1 Se5 2.613168 1_555
Nb1 Se6 2.613170 1_655
Nb1 Se3 2.613173 1_555
Nb2 Se1 2.611085 1_555
Nb2 Se0 2.611086 1_545
Nb2 Se2 2.611089 1_555
Nb2 Se9 2.613169 1_555
Nb2 Se10 2.613170 1_545
Nb2 Se4 2.613173 1_555
Nb3 Se7 2.611085 1_555
Nb3 Se11 2.611086 1_565
Nb3 Se8 2.611089 1_555
Nb3 Se6 2.613169 1_555
Nb3 Se5 2.613170 1_565
Nb3 Se3 2.613173 1_555
Nb4 Se2 2.633858 1_445
Nb4 Se1 2.633858 1_455
Nb4 Se0 2.633858 1_545
Nb4 Se4 2.641771 1_445
Nb4 Se9 2.641771 1_455
Nb4 Se10 2.641772 1_545
Nb5 Se8 2.633858 1_555
Nb5 Se7 2.633858 1_545
Nb5 Se11 2.633858 1_455
Nb5 Se3 2.641771 1_555
Nb5 Se6 2.641771 1_545
Nb5 Se5 2.641772 1_455
Se0 Sn0 2.932177 1_565
Se1 Sn0 2.932177 1_655
Se2 Sn0 2.932176 1_665
Se7 Sn0 2.932177 1_566
Se8 Sn0 2.932176 1_556
Se11 Sn0 2.932177 1_656
