# generated using pymatgen
data_Lu5Hf(Be2Ir5)2
_symmetry_space_group_name_H-M   'P 1'
_cell_length_a   19.55834940
_cell_length_b   19.55834940
_cell_length_c   6.36920802
_cell_angle_alpha   90.00000000
_cell_angle_beta   90.00000000
_cell_angle_gamma   90.00000000
_symmetry_Int_Tables_number   1
_chemical_formula_structural   Lu5Hf(Be2Ir5)2
_chemical_formula_sum   'Lu40 Hf8 Be32 Ir80'
_cell_volume   2436.40697401
_cell_formula_units_Z   8
loop_
 _symmetry_equiv_pos_site_id
 _symmetry_equiv_pos_as_xyz
  1  'x, y, z'
loop_
 _atom_site_type_symbol
 _atom_site_label
 _atom_site_symmetry_multiplicity
 _atom_site_fract_x
 _atom_site_fract_y
 _atom_site_fract_z
 _atom_site_occupancy
  Lu  Lu0_0  1  0.08872637  0.33764118  0.00000000  1
  Lu  Lu0_1  1  0.08872637  0.33764118  0.50000000  1
  Lu  Lu0_2  1  0.08872637  0.83764118  0.00000000  1
  Lu  Lu0_3  1  0.08872637  0.83764118  0.50000000  1
  Lu  Lu0_4  1  0.58872637  0.33764118  0.00000000  1
  Lu  Lu0_5  1  0.58872637  0.33764118  0.50000000  1
  Lu  Lu0_6  1  0.58872637  0.83764118  0.00000000  1
  Lu  Lu0_7  1  0.58872637  0.83764118  0.50000000  1
  Lu  Lu1_0  1  0.16235882  0.08872637  0.00000000  1
  Lu  Lu1_1  1  0.16235882  0.08872637  0.50000000  1
  Lu  Lu1_2  1  0.16235882  0.58872637  0.00000000  1
  Lu  Lu1_3  1  0.16235882  0.58872637  0.50000000  1
  Lu  Lu1_4  1  0.66235882  0.08872637  0.00000000  1
  Lu  Lu1_5  1  0.66235882  0.08872637  0.50000000  1
  Lu  Lu1_6  1  0.66235882  0.58872637  0.00000000  1
  Lu  Lu1_7  1  0.66235882  0.58872637  0.50000000  1
  Lu  Lu2_0  1  0.41127363  0.16235882  0.00000000  1
  Lu  Lu2_1  1  0.41127363  0.16235882  0.50000000  1
  Lu  Lu2_2  1  0.41127363  0.66235882  0.00000000  1
  Lu  Lu2_3  1  0.41127363  0.66235882  0.50000000  1
  Lu  Lu2_4  1  0.91127363  0.16235882  0.00000000  1
  Lu  Lu2_5  1  0.91127363  0.16235882  0.50000000  1
  Lu  Lu2_6  1  0.91127363  0.66235882  0.00000000  1
  Lu  Lu2_7  1  0.91127363  0.66235882  0.50000000  1
  Lu  Lu3_0  1  0.25000000  0.25000000  0.00000000  1
  Lu  Lu3_1  1  0.25000000  0.25000000  0.50000000  1
  Lu  Lu3_2  1  0.25000000  0.75000000  0.00000000  1
  Lu  Lu3_3  1  0.25000000  0.75000000  0.50000000  1
  Lu  Lu3_4  1  0.75000000  0.25000000  0.00000000  1
  Lu  Lu3_5  1  0.75000000  0.25000000  0.50000000  1
  Lu  Lu3_6  1  0.75000000  0.75000000  0.00000000  1
  Lu  Lu3_7  1  0.75000000  0.75000000  0.50000000  1
  Lu  Lu4_0  1  0.33764118  0.41127363  0.00000000  1
  Lu  Lu4_1  1  0.33764118  0.41127363  0.50000000  1
  Lu  Lu4_2  1  0.33764118  0.91127363  0.00000000  1
  Lu  Lu4_3  1  0.33764118  0.91127363  0.50000000  1
  Lu  Lu4_4  1  0.83764118  0.41127363  0.00000000  1
  Lu  Lu4_5  1  0.83764118  0.41127363  0.50000000  1
  Lu  Lu4_6  1  0.83764118  0.91127363  0.00000000  1
  Lu  Lu4_7  1  0.83764118  0.91127363  0.50000000  1
  Hf  Hf0_0  1  0.00000000  0.00000000  0.00000000  1
  Hf  Hf0_1  1  0.00000000  0.00000000  0.50000000  1
  Hf  Hf0_2  1  0.00000000  0.50000000  0.00000000  1
  Hf  Hf0_3  1  0.00000000  0.50000000  0.50000000  1
  Hf  Hf0_4  1  0.50000000  0.00000000  0.00000000  1
  Hf  Hf0_5  1  0.50000000  0.00000000  0.50000000  1
  Hf  Hf0_6  1  0.50000000  0.50000000  0.00000000  1
  Hf  Hf0_7  1  0.50000000  0.50000000  0.50000000  1
  Be  Be0_0  1  0.18940514  0.44021802  0.00000000  1
  Be  Be0_1  1  0.18940514  0.44021802  0.50000000  1
  Be  Be0_2  1  0.18940514  0.94021802  0.00000000  1
  Be  Be0_3  1  0.18940514  0.94021802  0.50000000  1
  Be  Be0_4  1  0.68940514  0.44021802  0.00000000  1
  Be  Be0_5  1  0.68940514  0.44021802  0.50000000  1
  Be  Be0_6  1  0.68940514  0.94021802  0.00000000  1
  Be  Be0_7  1  0.68940514  0.94021802  0.50000000  1
  Be  Be1_0  1  0.05978198  0.18940514  0.00000000  1
  Be  Be1_1  1  0.05978198  0.18940514  0.50000000  1
  Be  Be1_2  1  0.05978198  0.68940514  0.00000000  1
  Be  Be1_3  1  0.05978198  0.68940514  0.50000000  1
  Be  Be1_4  1  0.55978198  0.18940514  0.00000000  1
  Be  Be1_5  1  0.55978198  0.18940514  0.50000000  1
  Be  Be1_6  1  0.55978198  0.68940514  0.00000000  1
  Be  Be1_7  1  0.55978198  0.68940514  0.50000000  1
  Be  Be2_0  1  0.44021802  0.31059486  0.00000000  1
  Be  Be2_1  1  0.44021802  0.31059486  0.50000000  1
  Be  Be2_2  1  0.44021802  0.81059486  0.00000000  1
  Be  Be2_3  1  0.44021802  0.81059486  0.50000000  1
  Be  Be2_4  1  0.94021802  0.31059486  0.00000000  1
  Be  Be2_5  1  0.94021802  0.31059486  0.50000000  1
  Be  Be2_6  1  0.94021802  0.81059486  0.00000000  1
  Be  Be2_7  1  0.94021802  0.81059486  0.50000000  1
  Be  Be3_0  1  0.31059486  0.05978198  0.00000000  1
  Be  Be3_1  1  0.31059486  0.05978198  0.50000000  1
  Be  Be3_2  1  0.31059486  0.55978198  0.00000000  1
  Be  Be3_3  1  0.31059486  0.55978198  0.50000000  1
  Be  Be3_4  1  0.81059486  0.05978198  0.00000000  1
  Be  Be3_5  1  0.81059486  0.05978198  0.50000000  1
  Be  Be3_6  1  0.81059486  0.55978198  0.00000000  1
  Be  Be3_7  1  0.81059486  0.55978198  0.50000000  1
  Ir  Ir0_0  1  0.10780255  0.46643415  0.25000000  1
  Ir  Ir0_1  1  0.10780255  0.46643415  0.75000000  1
  Ir  Ir0_2  1  0.10780255  0.96643415  0.25000000  1
  Ir  Ir0_3  1  0.10780255  0.96643415  0.75000000  1
  Ir  Ir0_4  1  0.60780255  0.46643415  0.25000000  1
  Ir  Ir0_5  1  0.60780255  0.46643415  0.75000000  1
  Ir  Ir0_6  1  0.60780255  0.96643415  0.25000000  1
  Ir  Ir0_7  1  0.60780255  0.96643415  0.75000000  1
  Ir  Ir1_0  1  0.46643415  0.39219745  0.25000000  1
  Ir  Ir1_1  1  0.46643415  0.39219745  0.75000000  1
  Ir  Ir1_2  1  0.46643415  0.89219745  0.25000000  1
  Ir  Ir1_3  1  0.46643415  0.89219745  0.75000000  1
  Ir  Ir1_4  1  0.96643415  0.39219745  0.25000000  1
  Ir  Ir1_5  1  0.96643415  0.39219745  0.75000000  1
  Ir  Ir1_6  1  0.96643415  0.89219745  0.25000000  1
  Ir  Ir1_7  1  0.96643415  0.89219745  0.75000000  1
  Ir  Ir2_0  1  0.21397485  0.36061955  0.25000000  1
  Ir  Ir2_1  1  0.21397485  0.36061955  0.75000000  1
  Ir  Ir2_2  1  0.21397485  0.86061955  0.25000000  1
  Ir  Ir2_3  1  0.21397485  0.86061955  0.75000000  1
  Ir  Ir2_4  1  0.71397485  0.36061955  0.25000000  1
  Ir  Ir2_5  1  0.71397485  0.36061955  0.75000000  1
  Ir  Ir2_6  1  0.71397485  0.86061955  0.25000000  1
  Ir  Ir2_7  1  0.71397485  0.86061955  0.75000000  1
  Ir  Ir3_0  1  0.28602515  0.13938045  0.25000000  1
  Ir  Ir3_1  1  0.28602515  0.13938045  0.75000000  1
  Ir  Ir3_2  1  0.28602515  0.63938045  0.25000000  1
  Ir  Ir3_3  1  0.28602515  0.63938045  0.75000000  1
  Ir  Ir3_4  1  0.78602515  0.13938045  0.25000000  1
  Ir  Ir3_5  1  0.78602515  0.13938045  0.75000000  1
  Ir  Ir3_6  1  0.78602515  0.63938045  0.25000000  1
  Ir  Ir3_7  1  0.78602515  0.63938045  0.75000000  1
  Ir  Ir4_0  1  0.36061955  0.28602515  0.25000000  1
  Ir  Ir4_1  1  0.36061955  0.28602515  0.75000000  1
  Ir  Ir4_2  1  0.36061955  0.78602515  0.25000000  1
  Ir  Ir4_3  1  0.36061955  0.78602515  0.75000000  1
  Ir  Ir4_4  1  0.86061955  0.28602515  0.25000000  1
  Ir  Ir4_5  1  0.86061955  0.28602515  0.75000000  1
  Ir  Ir4_6  1  0.86061955  0.78602515  0.25000000  1
  Ir  Ir4_7  1  0.86061955  0.78602515  0.75000000  1
  Ir  Ir5_0  1  0.13938045  0.21397485  0.25000000  1
  Ir  Ir5_1  1  0.13938045  0.21397485  0.75000000  1
  Ir  Ir5_2  1  0.13938045  0.71397485  0.25000000  1
  Ir  Ir5_3  1  0.13938045  0.71397485  0.75000000  1
  Ir  Ir5_4  1  0.63938045  0.21397485  0.25000000  1
  Ir  Ir5_5  1  0.63938045  0.21397485  0.75000000  1
  Ir  Ir5_6  1  0.63938045  0.71397485  0.25000000  1
  Ir  Ir5_7  1  0.63938045  0.71397485  0.75000000  1
  Ir  Ir6_0  1  0.03356585  0.10780255  0.25000000  1
  Ir  Ir6_1  1  0.03356585  0.10780255  0.75000000  1
  Ir  Ir6_2  1  0.03356585  0.60780255  0.25000000  1
  Ir  Ir6_3  1  0.03356585  0.60780255  0.75000000  1
  Ir  Ir6_4  1  0.53356585  0.10780255  0.25000000  1
  Ir  Ir6_5  1  0.53356585  0.10780255  0.75000000  1
  Ir  Ir6_6  1  0.53356585  0.60780255  0.25000000  1
  Ir  Ir6_7  1  0.53356585  0.60780255  0.75000000  1
  Ir  Ir7_0  1  0.00000000  0.25000000  0.25000000  1
  Ir  Ir7_1  1  0.00000000  0.25000000  0.75000000  1
  Ir  Ir7_2  1  0.00000000  0.75000000  0.25000000  1
  Ir  Ir7_3  1  0.00000000  0.75000000  0.75000000  1
  Ir  Ir7_4  1  0.50000000  0.25000000  0.25000000  1
  Ir  Ir7_5  1  0.50000000  0.25000000  0.75000000  1
  Ir  Ir7_6  1  0.50000000  0.75000000  0.25000000  1
  Ir  Ir7_7  1  0.50000000  0.75000000  0.75000000  1
  Ir  Ir8_0  1  0.25000000  0.00000000  0.25000000  1
  Ir  Ir8_1  1  0.25000000  0.00000000  0.75000000  1
  Ir  Ir8_2  1  0.25000000  0.50000000  0.25000000  1
  Ir  Ir8_3  1  0.25000000  0.50000000  0.75000000  1
  Ir  Ir8_4  1  0.75000000  0.00000000  0.25000000  1
  Ir  Ir8_5  1  0.75000000  0.00000000  0.75000000  1
  Ir  Ir8_6  1  0.75000000  0.50000000  0.25000000  1
  Ir  Ir8_7  1  0.75000000  0.50000000  0.75000000  1
  Ir  Ir9_0  1  0.39219745  0.03356585  0.25000000  1
  Ir  Ir9_1  1  0.39219745  0.03356585  0.75000000  1
  Ir  Ir9_2  1  0.39219745  0.53356585  0.25000000  1
  Ir  Ir9_3  1  0.39219745  0.53356585  0.75000000  1
  Ir  Ir9_4  1  0.89219745  0.03356585  0.25000000  1
  Ir  Ir9_5  1  0.89219745  0.03356585  0.75000000  1
  Ir  Ir9_6  1  0.89219745  0.53356585  0.25000000  1
  Ir  Ir9_7  1  0.89219745  0.53356585  0.75000000  1
loop_
_geom_bond_atom_site_label_1
_geom_bond_atom_site_label_2
_geom_bond_distance
_geom_bond_site_symmetry_2
Lu0_0 Lu0_1 3.184604 1_555
Lu0_0 Lu0_1 3.184604 1_554
Lu0_2 Lu0_3 3.184604 1_554
Lu0_2 Lu0_3 3.184604 1_555
Lu0_4 Lu0_5 3.184604 1_555
Lu0_4 Lu0_5 3.184604 1_554
Lu0_6 Lu0_7 3.184604 1_554
Lu0_6 Lu0_7 3.184604 1_555
Lu1_0 Lu1_1 3.184604 1_554
Lu1_0 Lu1_1 3.184604 1_555
Lu1_2 Lu1_3 3.184604 1_555
Lu1_2 Lu1_3 3.184604 1_554
Lu1_4 Lu1_5 3.184604 1_554
Lu1_4 Lu1_5 3.184604 1_555
Lu1_6 Lu1_7 3.184604 1_555
Lu1_6 Lu1_7 3.184604 1_554
Lu2_0 Lu2_1 3.184604 1_554
Lu2_0 Lu2_1 3.184604 1_555
Lu2_2 Lu2_3 3.184604 1_554
Lu2_2 Lu2_3 3.184604 1_555
Lu2_4 Lu2_5 3.184604 1_555
Lu2_4 Lu2_5 3.184604 1_554
Lu2_6 Lu2_7 3.184604 1_554
Lu2_6 Lu2_7 3.184604 1_555
Lu4_0 Lu4_1 3.184604 1_555
Lu4_0 Lu4_1 3.184604 1_554
Lu4_2 Lu4_3 3.184604 1_555
Lu4_2 Lu4_3 3.184604 1_554
Lu4_4 Lu4_5 3.184604 1_555
Lu4_4 Lu4_5 3.184604 1_554
Lu4_6 Lu4_7 3.184604 1_555
Lu4_6 Lu4_7 3.184604 1_554
Hf0_0 Ir6_1 2.722485 1_554
Hf0_0 Ir6_0 2.722485 1_555
Hf0_0 Ir0_2 2.722485 1_545
Hf0_0 Ir0_3 2.722485 1_544
Hf0_0 Ir9_5 2.722485 1_454
Hf0_0 Ir9_4 2.722485 1_455
Hf0_0 Ir1_7 2.722485 1_444
Hf0_0 Ir1_6 2.722485 1_445
Hf0_1 Ir6_0 2.722485 1_555
Hf0_1 Ir6_1 2.722485 1_555
Hf0_1 Ir0_2 2.722485 1_545
Hf0_1 Ir0_3 2.722485 1_545
Hf0_1 Ir9_5 2.722485 1_455
Hf0_1 Ir9_4 2.722485 1_455
Hf0_1 Ir1_6 2.722485 1_445
Hf0_1 Ir1_7 2.722485 1_445
Hf0_2 Ir6_3 2.722485 1_554
Hf0_2 Ir6_2 2.722485 1_555
Hf0_2 Ir0_1 2.722485 1_554
Hf0_2 Ir0_0 2.722485 1_555
Hf0_2 Ir9_7 2.722485 1_454
Hf0_2 Ir9_6 2.722485 1_455
Hf0_2 Ir1_5 2.722485 1_454
Hf0_2 Ir1_4 2.722485 1_455
Hf0_3 Ir6_2 2.722485 1_555
Hf0_3 Ir6_3 2.722485 1_555
Hf0_3 Ir0_0 2.722485 1_555
Hf0_3 Ir0_1 2.722485 1_555
Hf0_3 Ir9_7 2.722485 1_455
Hf0_3 Ir9_6 2.722485 1_455
Hf0_3 Ir1_4 2.722485 1_455
Hf0_3 Ir1_5 2.722485 1_455
Hf0_4 Ir6_5 2.722485 1_554
Hf0_4 Ir6_4 2.722485 1_555
Hf0_4 Ir0_7 2.722485 1_544
Hf0_4 Ir0_6 2.722485 1_545
Hf0_4 Ir9_1 2.722485 1_554
Hf0_4 Ir9_0 2.722485 1_555
Hf0_4 Ir1_3 2.722485 1_544
Hf0_4 Ir1_2 2.722485 1_545
Hf0_5 Ir6_4 2.722485 1_555
Hf0_5 Ir6_5 2.722485 1_555
Hf0_5 Ir0_6 2.722485 1_545
Hf0_5 Ir0_7 2.722485 1_545
Hf0_5 Ir9_1 2.722485 1_555
Hf0_5 Ir9_0 2.722485 1_555
Hf0_5 Ir1_2 2.722485 1_545
Hf0_5 Ir1_3 2.722485 1_545
Hf0_6 Ir6_7 2.722485 1_554
Hf0_6 Ir6_6 2.722485 1_555
Hf0_6 Ir0_5 2.722485 1_554
Hf0_6 Ir0_4 2.722485 1_555
Hf0_6 Ir9_3 2.722485 1_554
Hf0_6 Ir9_2 2.722485 1_555
Hf0_6 Ir1_1 2.722485 1_554
Hf0_6 Ir1_0 2.722485 1_555
Hf0_7 Ir6_6 2.722485 1_555
Hf0_7 Ir6_7 2.722485 1_555
Hf0_7 Ir0_4 2.722485 1_555
Hf0_7 Ir0_5 2.722485 1_555
Hf0_7 Ir9_2 2.722485 1_555
Hf0_7 Ir9_3 2.722485 1_555
Hf0_7 Ir1_0 2.722485 1_555
Hf0_7 Ir1_1 2.722485 1_555
Be0_0 Ir2_1 2.278162 1_554
Be0_0 Ir2_0 2.278162 1_555
Be0_0 Ir8_3 2.303711 1_554
Be0_0 Ir8_2 2.303711 1_555
Be0_0 Ir0_1 2.312052 1_554
Be0_0 Ir0_0 2.312052 1_555
Be0_0 Lu0_0 2.811116 1_555
Be0_0 Lu1_2 2.952354 1_555
Be0_0 Lu4_0 2.954004 1_555
Be0_1 Ir2_0 2.278162 1_555
Be0_1 Ir2_1 2.278162 1_555
Be0_1 Ir8_2 2.303711 1_555
Be0_1 Ir8_3 2.303711 1_555
Be0_1 Ir0_0 2.312052 1_555
Be0_1 Ir0_1 2.312052 1_555
Be0_1 Lu0_1 2.811116 1_555
Be0_1 Lu1_3 2.952354 1_555
Be0_1 Lu4_1 2.954004 1_555
Be0_2 Ir2_3 2.278162 1_554
Be0_2 Ir2_2 2.278162 1_555
Be0_2 Ir8_1 2.303711 1_564
Be0_2 Ir8_0 2.303711 1_565
Be0_2 Ir0_3 2.312052 1_554
Be0_2 Ir0_2 2.312052 1_555
Be0_2 Lu0_2 2.811116 1_555
Be0_2 Lu1_0 2.952354 1_565
Be0_2 Lu4_2 2.954004 1_555
Be0_3 Ir2_2 2.278162 1_555
Be0_3 Ir2_3 2.278162 1_555
Be0_3 Ir8_0 2.303711 1_565
Be0_3 Ir8_1 2.303711 1_565
Be0_3 Ir0_2 2.312052 1_555
Be0_3 Ir0_3 2.312052 1_555
Be0_3 Lu0_3 2.811116 1_555
Be0_3 Lu1_1 2.952354 1_565
Be0_3 Lu4_3 2.954004 1_555
Be0_4 Ir2_5 2.278162 1_554
Be0_4 Ir2_4 2.278162 1_555
Be0_4 Ir8_7 2.303711 1_554
Be0_4 Ir8_6 2.303711 1_555
Be0_4 Ir0_5 2.312052 1_554
Be0_4 Ir0_4 2.312052 1_555
Be0_4 Lu0_4 2.811116 1_555
Be0_4 Lu1_6 2.952354 1_555
Be0_4 Lu4_4 2.954004 1_555
Be0_5 Ir2_4 2.278162 1_555
Be0_5 Ir2_5 2.278162 1_555
Be0_5 Ir8_6 2.303711 1_555
Be0_5 Ir8_7 2.303711 1_555
Be0_5 Ir0_5 2.312052 1_555
Be0_5 Ir0_4 2.312052 1_555
Be0_5 Lu0_5 2.811116 1_555
Be0_5 Lu1_7 2.952354 1_555
Be0_5 Lu4_5 2.954004 1_555
Be0_6 Ir2_7 2.278162 1_554
Be0_6 Ir2_6 2.278162 1_555
Be0_6 Ir8_5 2.303711 1_564
Be0_6 Ir8_4 2.303711 1_565
Be0_6 Ir0_7 2.312052 1_554
Be0_6 Ir0_6 2.312052 1_555
Be0_6 Lu0_6 2.811116 1_555
Be0_6 Lu1_4 2.952354 1_565
Be0_6 Lu4_6 2.954004 1_555
Be0_7 Ir2_6 2.278162 1_555
Be0_7 Ir2_7 2.278162 1_555
Be0_7 Ir8_4 2.303711 1_565
Be0_7 Ir8_5 2.303711 1_565
Be0_7 Ir0_6 2.312052 1_555
Be0_7 Ir0_7 2.312052 1_555
Be0_7 Lu0_7 2.811116 1_555
Be0_7 Lu1_5 2.952354 1_565
Be0_7 Lu4_7 2.954004 1_555
Be1_0 Ir5_1 2.278162 1_554
Be1_0 Ir5_0 2.278162 1_555
Be1_0 Ir7_0 2.303711 1_555
Be1_0 Ir7_1 2.303711 1_554
Be1_0 Ir6_1 2.312052 1_554
Be1_0 Ir6_0 2.312052 1_555
Be1_0 Lu1_0 2.811116 1_555
Be1_0 Lu2_4 2.952354 1_455
Be1_0 Lu0_0 2.954004 1_555
Be1_1 Ir5_0 2.278162 1_555
Be1_1 Ir5_1 2.278162 1_555
Be1_1 Ir7_0 2.303711 1_555
Be1_1 Ir7_1 2.303711 1_555
Be1_1 Ir6_0 2.312052 1_555
Be1_1 Ir6_1 2.312052 1_555
Be1_1 Lu1_1 2.811116 1_555
Be1_1 Lu2_5 2.952354 1_455
Be1_1 Lu0_1 2.954004 1_555
Be1_2 Ir5_2 2.278162 1_555
Be1_2 Ir5_3 2.278162 1_554
Be1_2 Ir7_3 2.303711 1_554
Be1_2 Ir7_2 2.303711 1_555
Be1_2 Ir6_3 2.312052 1_554
Be1_2 Ir6_2 2.312052 1_555
Be1_2 Lu1_2 2.811116 1_555
Be1_2 Lu2_6 2.952354 1_455
Be1_2 Lu0_2 2.954004 1_555
Be1_3 Ir5_2 2.278162 1_555
Be1_3 Ir5_3 2.278162 1_555
Be1_3 Ir7_2 2.303711 1_555
Be1_3 Ir7_3 2.303711 1_555
Be1_3 Ir6_2 2.312052 1_555
Be1_3 Ir6_3 2.312052 1_555
Be1_3 Lu1_3 2.811116 1_555
Be1_3 Lu2_7 2.952354 1_455
Be1_3 Lu0_3 2.954004 1_555
Be1_4 Ir5_4 2.278162 1_555
Be1_4 Ir5_5 2.278162 1_554
Be1_4 Ir7_5 2.303711 1_554
Be1_4 Ir7_4 2.303711 1_555
Be1_4 Ir6_5 2.312052 1_554
Be1_4 Ir6_4 2.312052 1_555
Be1_4 Lu1_4 2.811116 1_555
Be1_4 Lu2_0 2.952354 1_555
Be1_4 Lu0_4 2.954004 1_555
Be1_5 Ir5_4 2.278162 1_555
Be1_5 Ir5_5 2.278162 1_555
Be1_5 Ir7_4 2.303711 1_555
Be1_5 Ir7_5 2.303711 1_555
Be1_5 Ir6_5 2.312052 1_555
Be1_5 Ir6_4 2.312052 1_555
Be1_5 Lu1_5 2.811116 1_555
Be1_5 Lu2_1 2.952354 1_555
Be1_5 Lu0_5 2.954004 1_555
Be1_6 Ir5_7 2.278162 1_554
Be1_6 Ir5_6 2.278162 1_555
Be1_6 Ir7_7 2.303711 1_554
Be1_6 Ir7_6 2.303711 1_555
Be1_6 Ir6_7 2.312052 1_554
Be1_6 Ir6_6 2.312052 1_555
Be1_6 Lu1_6 2.811116 1_555
Be1_6 Lu2_2 2.952354 1_555
Be1_6 Lu0_6 2.954004 1_555
Be1_7 Ir5_6 2.278162 1_555
Be1_7 Ir5_7 2.278162 1_555
Be1_7 Ir7_6 2.303711 1_555
Be1_7 Ir7_7 2.303711 1_555
Be1_7 Ir6_6 2.312052 1_555
Be1_7 Ir6_7 2.312052 1_555
Be1_7 Lu1_7 2.811116 1_555
Be1_7 Lu2_3 2.952354 1_555
Be1_7 Lu0_7 2.954004 1_555
Be2_0 Ir4_1 2.278162 1_554
Be2_0 Ir4_0 2.278162 1_555
Be2_0 Ir7_5 2.303711 1_554
Be2_0 Ir7_4 2.303711 1_555
Be2_0 Ir1_1 2.312052 1_554
Be2_0 Ir1_0 2.312052 1_555
Be2_0 Lu4_0 2.811116 1_555
Be2_0 Lu0_4 2.952354 1_555
Be2_0 Lu2_0 2.954004 1_555
Be2_1 Ir4_0 2.278162 1_555
Be2_1 Ir4_1 2.278162 1_555
Be2_1 Ir7_4 2.303711 1_555
Be2_1 Ir7_5 2.303711 1_555
Be2_1 Ir1_0 2.312052 1_555
Be2_1 Ir1_1 2.312052 1_555
Be2_1 Lu4_1 2.811116 1_555
Be2_1 Lu0_5 2.952354 1_555
Be2_1 Lu2_1 2.954004 1_555
Be2_2 Ir4_3 2.278162 1_554
Be2_2 Ir4_2 2.278162 1_555
Be2_2 Ir7_7 2.303711 1_554
Be2_2 Ir7_6 2.303711 1_555
Be2_2 Ir1_3 2.312052 1_554
Be2_2 Ir1_2 2.312052 1_555
Be2_2 Lu4_2 2.811116 1_555
Be2_2 Lu0_6 2.952354 1_555
Be2_2 Lu2_2 2.954004 1_555
Be2_3 Ir4_2 2.278162 1_555
Be2_3 Ir4_3 2.278162 1_555
Be2_3 Ir7_6 2.303711 1_555
Be2_3 Ir7_7 2.303711 1_555
Be2_3 Ir1_2 2.312052 1_555
Be2_3 Ir1_3 2.312052 1_555
Be2_3 Lu4_3 2.811116 1_555
Be2_3 Lu0_7 2.952354 1_555
Be2_3 Lu2_3 2.954004 1_555
Be2_4 Ir4_5 2.278162 1_554
Be2_4 Ir4_4 2.278162 1_555
Be2_4 Ir7_1 2.303711 1_654
Be2_4 Ir7_0 2.303711 1_655
Be2_4 Ir1_5 2.312052 1_554
Be2_4 Ir1_4 2.312052 1_555
Be2_4 Lu4_4 2.811116 1_555
Be2_4 Lu0_0 2.952354 1_655
Be2_4 Lu2_4 2.954004 1_555
Be2_5 Ir4_4 2.278162 1_555
Be2_5 Ir4_5 2.278162 1_555
Be2_5 Ir7_0 2.303711 1_655
Be2_5 Ir7_1 2.303711 1_655
Be2_5 Ir1_4 2.312052 1_555
Be2_5 Ir1_5 2.312052 1_555
Be2_5 Lu4_5 2.811116 1_555
Be2_5 Lu0_1 2.952354 1_655
Be2_5 Lu2_5 2.954004 1_555
Be2_6 Ir4_7 2.278162 1_554
Be2_6 Ir4_6 2.278162 1_555
Be2_6 Ir7_3 2.303711 1_654
Be2_6 Ir7_2 2.303711 1_655
Be2_6 Ir1_7 2.312052 1_554
Be2_6 Ir1_6 2.312052 1_555
Be2_6 Lu4_6 2.811116 1_555
Be2_6 Lu0_2 2.952354 1_655
Be2_6 Lu2_6 2.954004 1_555
Be2_7 Ir4_6 2.278162 1_555
Be2_7 Ir4_7 2.278162 1_555
Be2_7 Ir7_2 2.303711 1_655
Be2_7 Ir7_3 2.303711 1_655
Be2_7 Ir1_6 2.312052 1_555
Be2_7 Ir1_7 2.312052 1_555
Be2_7 Lu4_7 2.811116 1_555
Be2_7 Lu0_3 2.952354 1_655
Be2_7 Lu2_7 2.954004 1_555
Be3_0 Ir3_1 2.278162 1_554
Be3_0 Ir3_0 2.278162 1_555
Be3_0 Ir8_1 2.303711 1_554
Be3_0 Ir8_0 2.303711 1_555
Be3_0 Ir9_1 2.312052 1_554
Be3_0 Ir9_0 2.312052 1_555
Be3_0 Lu2_0 2.811116 1_555
Be3_0 Lu4_2 2.952354 1_545
Be3_0 Lu1_0 2.954004 1_555
Be3_1 Ir3_0 2.278162 1_555
Be3_1 Ir3_1 2.278162 1_555
Be3_1 Ir8_0 2.303711 1_555
Be3_1 Ir8_1 2.303711 1_555
Be3_1 Ir9_0 2.312052 1_555
Be3_1 Ir9_1 2.312052 1_555
Be3_1 Lu2_1 2.811116 1_555
Be3_1 Lu4_3 2.952354 1_545
Be3_1 Lu1_1 2.954004 1_555
Be3_2 Ir3_3 2.278162 1_554
Be3_2 Ir3_2 2.278162 1_555
Be3_2 Ir8_3 2.303711 1_554
Be3_2 Ir8_2 2.303711 1_555
Be3_2 Ir9_3 2.312052 1_554
Be3_2 Ir9_2 2.312052 1_555
Be3_2 Lu2_2 2.811116 1_555
Be3_2 Lu4_0 2.952354 1_555
Be3_2 Lu1_2 2.954004 1_555
Be3_3 Ir3_2 2.278162 1_555
Be3_3 Ir3_3 2.278162 1_555
Be3_3 Ir8_2 2.303711 1_555
Be3_3 Ir8_3 2.303711 1_555
Be3_3 Ir9_2 2.312052 1_555
Be3_3 Ir9_3 2.312052 1_555
Be3_3 Lu2_3 2.811116 1_555
Be3_3 Lu4_1 2.952354 1_555
Be3_3 Lu1_3 2.954004 1_555
Be3_4 Ir3_4 2.278162 1_555
Be3_4 Ir3_5 2.278162 1_554
Be3_4 Ir8_5 2.303711 1_554
Be3_4 Ir8_4 2.303711 1_555
Be3_4 Ir9_5 2.312052 1_554
Be3_4 Ir9_4 2.312052 1_555
Be3_4 Lu2_4 2.811116 1_555
Be3_4 Lu4_6 2.952354 1_545
Be3_4 Lu1_4 2.954004 1_555
Be3_5 Ir3_4 2.278162 1_555
Be3_5 Ir3_5 2.278162 1_555
Be3_5 Ir8_4 2.303711 1_555
Be3_5 Ir8_5 2.303711 1_555
Be3_5 Ir9_4 2.312052 1_555
Be3_5 Ir9_5 2.312052 1_555
Be3_5 Lu2_5 2.811116 1_555
Be3_5 Lu4_7 2.952354 1_545
Be3_5 Lu1_5 2.954004 1_555
Be3_6 Ir3_7 2.278162 1_554
Be3_6 Ir3_6 2.278162 1_555
Be3_6 Ir8_7 2.303711 1_554
Be3_6 Ir8_6 2.303711 1_555
Be3_6 Ir9_7 2.312052 1_554
Be3_6 Ir9_6 2.312052 1_555
Be3_6 Lu2_6 2.811116 1_555
Be3_6 Lu4_4 2.952354 1_555
Be3_6 Lu1_6 2.954004 1_555
Be3_7 Ir3_6 2.278162 1_555
Be3_7 Ir3_7 2.278162 1_555
Be3_7 Ir8_6 2.303711 1_555
Be3_7 Ir8_7 2.303711 1_555
Be3_7 Ir9_6 2.312052 1_555
Be3_7 Ir9_7 2.312052 1_555
Be3_7 Lu2_7 2.811116 1_555
Be3_7 Lu4_5 2.952354 1_555
Be3_7 Lu1_7 2.954004 1_555
Ir0_0 Lu0_1 3.003311 1_555
Ir0_0 Lu0_0 3.003311 1_555
Ir0_0 Lu1_2 3.065102 1_555
Ir0_0 Lu1_3 3.065102 1_555
Ir0_1 Lu0_0 3.003311 1_556
Ir0_1 Lu0_1 3.003311 1_555
Ir0_1 Lu1_2 3.065102 1_556
Ir0_1 Lu1_3 3.065102 1_555
Ir0_2 Lu0_3 3.003311 1_555
Ir0_2 Lu0_2 3.003311 1_555
Ir0_2 Lu1_0 3.065102 1_565
Ir0_2 Lu1_1 3.065102 1_565
Ir0_3 Lu0_2 3.003311 1_556
Ir0_3 Lu0_3 3.003311 1_555
Ir0_3 Lu1_0 3.065102 1_566
Ir0_3 Lu1_1 3.065102 1_565
Ir0_4 Lu0_4 3.003311 1_555
Ir0_4 Lu0_5 3.003311 1_555
Ir0_4 Lu1_6 3.065102 1_555
Ir0_4 Lu1_7 3.065102 1_555
Ir0_5 Lu0_4 3.003311 1_556
Ir0_5 Lu0_5 3.003311 1_555
Ir0_5 Lu1_6 3.065102 1_556
Ir0_5 Lu1_7 3.065102 1_555
Ir0_6 Lu0_6 3.003311 1_555
Ir0_6 Lu0_7 3.003311 1_555
Ir0_6 Lu1_4 3.065102 1_565
Ir0_6 Lu1_5 3.065102 1_565
Ir0_7 Lu0_6 3.003311 1_556
Ir0_7 Lu0_7 3.003311 1_555
Ir0_7 Lu1_4 3.065102 1_566
Ir0_7 Lu1_5 3.065102 1_565
Ir1_0 Lu4_0 3.003311 1_555
Ir1_0 Lu4_1 3.003311 1_555
Ir1_0 Lu0_5 3.065102 1_555
Ir1_0 Lu0_4 3.065102 1_555
Ir1_1 Lu4_0 3.003311 1_556
Ir1_1 Lu4_1 3.003311 1_555
Ir1_1 Lu0_4 3.065102 1_556
Ir1_1 Lu0_5 3.065102 1_555
Ir1_2 Lu4_3 3.003311 1_555
Ir1_2 Lu4_2 3.003311 1_555
Ir1_2 Lu0_6 3.065102 1_555
Ir1_2 Lu0_7 3.065102 1_555
Ir1_3 Lu4_2 3.003311 1_556
Ir1_3 Lu4_3 3.003311 1_555
Ir1_3 Lu0_6 3.065102 1_556
Ir1_3 Lu0_7 3.065102 1_555
Ir1_4 Lu4_4 3.003311 1_555
Ir1_4 Lu4_5 3.003311 1_555
Ir1_4 Lu0_0 3.065102 1_655
Ir1_4 Lu0_1 3.065102 1_655
Ir1_5 Lu4_4 3.003311 1_556
Ir1_5 Lu4_5 3.003311 1_555
Ir1_5 Lu0_0 3.065102 1_656
Ir1_5 Lu0_1 3.065102 1_655
Ir1_6 Lu4_7 3.003311 1_555
Ir1_6 Lu4_6 3.003311 1_555
Ir1_6 Lu0_2 3.065102 1_655
Ir1_6 Lu0_3 3.065102 1_655
Ir1_7 Lu4_6 3.003311 1_556
Ir1_7 Lu4_7 3.003311 1_555
Ir1_7 Lu0_2 3.065102 1_656
Ir1_7 Lu0_3 3.065102 1_655
Ir2_0 Lu3_0 2.777186 1_555
Ir2_0 Lu3_1 2.777186 1_555
Ir2_0 Lu0_1 2.956046 1_555
Ir2_0 Lu0_0 2.956046 1_555
Ir2_0 Lu4_0 3.060570 1_555
Ir2_0 Lu4_1 3.060570 1_555
Ir2_1 Lu3_0 2.777186 1_556
Ir2_1 Lu3_1 2.777186 1_555
Ir2_1 Lu0_0 2.956046 1_556
Ir2_1 Lu0_1 2.956046 1_555
Ir2_1 Lu4_0 3.060570 1_556
Ir2_1 Lu4_1 3.060570 1_555
Ir2_2 Lu3_3 2.777186 1_555
Ir2_2 Lu3_2 2.777186 1_555
Ir2_2 Lu0_3 2.956046 1_555
Ir2_2 Lu0_2 2.956046 1_555
Ir2_2 Lu4_3 3.060570 1_555
Ir2_2 Lu4_2 3.060570 1_555
Ir2_3 Lu3_2 2.777186 1_556
Ir2_3 Lu3_3 2.777186 1_555
Ir2_3 Lu0_2 2.956046 1_556
Ir2_3 Lu0_3 2.956046 1_555
Ir2_3 Lu4_2 3.060570 1_556
Ir2_3 Lu4_3 3.060570 1_555
Ir2_4 Lu3_5 2.777186 1_555
Ir2_4 Lu3_4 2.777186 1_555
Ir2_4 Lu0_5 2.956046 1_555
Ir2_4 Lu0_4 2.956046 1_555
Ir2_4 Lu4_5 3.060570 1_555
Ir2_4 Lu4_4 3.060570 1_555
Ir2_5 Lu3_4 2.777186 1_556
Ir2_5 Lu3_5 2.777186 1_555
Ir2_5 Lu0_4 2.956046 1_556
Ir2_5 Lu0_5 2.956046 1_555
Ir2_5 Lu4_4 3.060570 1_556
Ir2_5 Lu4_5 3.060570 1_555
Ir2_6 Lu3_6 2.777186 1_555
Ir2_6 Lu3_7 2.777186 1_555
Ir2_6 Lu0_7 2.956046 1_555
Ir2_6 Lu0_6 2.956046 1_555
Ir2_6 Lu4_7 3.060570 1_555
Ir2_6 Lu4_6 3.060570 1_555
Ir2_7 Lu3_6 2.777186 1_556
Ir2_7 Lu3_7 2.777186 1_555
Ir2_7 Lu0_6 2.956046 1_556
Ir2_7 Lu0_7 2.956046 1_555
Ir2_7 Lu4_6 3.060570 1_556
Ir2_7 Lu4_7 3.060570 1_555
Ir3_0 Lu3_1 2.777186 1_555
Ir3_0 Lu3_0 2.777186 1_555
Ir3_0 Lu2_0 2.956046 1_555
Ir3_0 Lu2_1 2.956046 1_555
Ir3_0 Lu1_0 3.060570 1_555
Ir3_0 Lu1_1 3.060570 1_555
Ir3_1 Lu3_0 2.777186 1_556
Ir3_1 Lu3_1 2.777186 1_555
Ir3_1 Lu2_0 2.956046 1_556
Ir3_1 Lu2_1 2.956046 1_555
Ir3_1 Lu1_0 3.060570 1_556
Ir3_1 Lu1_1 3.060570 1_555
Ir3_2 Lu3_2 2.777186 1_555
Ir3_2 Lu3_3 2.777186 1_555
Ir3_2 Lu2_2 2.956046 1_555
Ir3_2 Lu2_3 2.956046 1_555
Ir3_2 Lu1_2 3.060570 1_555
Ir3_2 Lu1_3 3.060570 1_555
Ir3_3 Lu3_2 2.777186 1_556
Ir3_3 Lu3_3 2.777186 1_555
Ir3_3 Lu2_2 2.956046 1_556
Ir3_3 Lu2_3 2.956046 1_555
Ir3_3 Lu1_2 3.060570 1_556
Ir3_3 Lu1_3 3.060570 1_555
Ir3_4 Lu3_4 2.777186 1_555
Ir3_4 Lu3_5 2.777186 1_555
Ir3_4 Lu2_4 2.956046 1_555
Ir3_4 Lu2_5 2.956046 1_555
Ir3_4 Lu1_5 3.060570 1_555
Ir3_4 Lu1_4 3.060570 1_555
Ir3_5 Lu3_4 2.777186 1_556
Ir3_5 Lu3_5 2.777186 1_555
Ir3_5 Lu2_4 2.956046 1_556
Ir3_5 Lu2_5 2.956046 1_555
Ir3_5 Lu1_4 3.060570 1_556
Ir3_5 Lu1_5 3.060570 1_555
Ir3_6 Lu3_6 2.777186 1_555
Ir3_6 Lu3_7 2.777186 1_555
Ir3_6 Lu2_6 2.956046 1_555
Ir3_6 Lu2_7 2.956046 1_555
Ir3_6 Lu1_6 3.060570 1_555
Ir3_6 Lu1_7 3.060570 1_555
Ir3_7 Lu3_6 2.777186 1_556
Ir3_7 Lu3_7 2.777186 1_555
Ir3_7 Lu2_6 2.956046 1_556
Ir3_7 Lu2_7 2.956046 1_555
Ir3_7 Lu1_6 3.060570 1_556
Ir3_7 Lu1_7 3.060570 1_555
Ir4_0 Lu3_0 2.777186 1_555
Ir4_0 Lu3_1 2.777186 1_555
Ir4_0 Lu4_1 2.956046 1_555
Ir4_0 Lu4_0 2.956046 1_555
Ir4_0 Lu2_0 3.060570 1_555
Ir4_0 Lu2_1 3.060570 1_555
Ir4_1 Lu3_0 2.777186 1_556
Ir4_1 Lu3_1 2.777186 1_555
Ir4_1 Lu4_0 2.956046 1_556
Ir4_1 Lu4_1 2.956046 1_555
Ir4_1 Lu2_0 3.060570 1_556
Ir4_1 Lu2_1 3.060570 1_555
Ir4_2 Lu3_3 2.777186 1_555
Ir4_2 Lu3_2 2.777186 1_555
Ir4_2 Lu4_3 2.956046 1_555
Ir4_2 Lu4_2 2.956046 1_555
Ir4_2 Lu2_2 3.060570 1_555
Ir4_2 Lu2_3 3.060570 1_555
Ir4_3 Lu3_2 2.777186 1_556
Ir4_3 Lu3_3 2.777186 1_555
Ir4_3 Lu4_2 2.956046 1_556
Ir4_3 Lu4_3 2.956046 1_555
Ir4_3 Lu2_2 3.060570 1_556
Ir4_3 Lu2_3 3.060570 1_555
Ir4_4 Lu3_4 2.777186 1_555
Ir4_4 Lu3_5 2.777186 1_555
Ir4_4 Lu4_4 2.956046 1_555
Ir4_4 Lu4_5 2.956046 1_555
Ir4_4 Lu2_4 3.060570 1_555
Ir4_4 Lu2_5 3.060570 1_555
Ir4_5 Lu3_4 2.777186 1_556
Ir4_5 Lu3_5 2.777186 1_555
Ir4_5 Lu4_4 2.956046 1_556
Ir4_5 Lu4_5 2.956046 1_555
Ir4_5 Lu2_4 3.060570 1_556
Ir4_5 Lu2_5 3.060570 1_555
Ir4_6 Lu3_6 2.777186 1_555
Ir4_6 Lu3_7 2.777186 1_555
Ir4_6 Lu4_6 2.956046 1_555
Ir4_6 Lu4_7 2.956046 1_555
Ir4_6 Lu2_7 3.060570 1_555
Ir4_6 Lu2_6 3.060570 1_555
Ir4_7 Lu3_6 2.777186 1_556
Ir4_7 Lu3_7 2.777186 1_555
Ir4_7 Lu4_6 2.956046 1_556
Ir4_7 Lu4_7 2.956046 1_555
Ir4_7 Lu2_6 3.060570 1_556
Ir4_7 Lu2_7 3.060570 1_555
Ir5_0 Lu3_0 2.777186 1_555
Ir5_0 Lu3_1 2.777186 1_555
Ir5_0 Lu1_0 2.956046 1_555
Ir5_0 Lu1_1 2.956046 1_555
Ir5_0 Lu0_1 3.060570 1_555
Ir5_0 Lu0_0 3.060570 1_555
Ir5_1 Lu3_0 2.777186 1_556
Ir5_1 Lu3_1 2.777186 1_555
Ir5_1 Lu1_0 2.956046 1_556
Ir5_1 Lu1_1 2.956046 1_555
Ir5_1 Lu0_0 3.060570 1_556
Ir5_1 Lu0_1 3.060570 1_555
Ir5_2 Lu3_2 2.777186 1_555
Ir5_2 Lu3_3 2.777186 1_555
Ir5_2 Lu1_3 2.956046 1_555
Ir5_2 Lu1_2 2.956046 1_555
Ir5_2 Lu0_2 3.060570 1_555
Ir5_2 Lu0_3 3.060570 1_555
Ir5_3 Lu3_2 2.777186 1_556
Ir5_3 Lu3_3 2.777186 1_555
Ir5_3 Lu1_2 2.956046 1_556
Ir5_3 Lu1_3 2.956046 1_555
Ir5_3 Lu0_2 3.060570 1_556
Ir5_3 Lu0_3 3.060570 1_555
Ir5_4 Lu3_4 2.777186 1_555
Ir5_4 Lu3_5 2.777186 1_555
Ir5_4 Lu1_4 2.956046 1_555
Ir5_4 Lu1_5 2.956046 1_555
Ir5_4 Lu0_5 3.060570 1_555
Ir5_4 Lu0_4 3.060570 1_555
Ir5_5 Lu3_4 2.777186 1_556
Ir5_5 Lu3_5 2.777186 1_555
Ir5_5 Lu1_4 2.956046 1_556
Ir5_5 Lu1_5 2.956046 1_555
Ir5_5 Lu0_4 3.060570 1_556
Ir5_5 Lu0_5 3.060570 1_555
Ir5_6 Lu3_6 2.777186 1_555
Ir5_6 Lu3_7 2.777186 1_555
Ir5_6 Lu1_6 2.956046 1_555
Ir5_6 Lu1_7 2.956046 1_555
Ir5_6 Lu0_6 3.060570 1_555
Ir5_6 Lu0_7 3.060570 1_555
Ir5_7 Lu3_6 2.777186 1_556
Ir5_7 Lu3_7 2.777186 1_555
Ir5_7 Lu1_6 2.956046 1_556
Ir5_7 Lu1_7 2.956046 1_555
Ir5_7 Lu0_6 3.060570 1_556
Ir5_7 Lu0_7 3.060570 1_555
Ir6_0 Lu1_0 3.003311 1_555
Ir6_0 Lu1_1 3.003311 1_555
Ir6_0 Lu2_4 3.065102 1_455
Ir6_0 Lu2_5 3.065102 1_455
Ir6_1 Lu1_0 3.003311 1_556
Ir6_1 Lu1_1 3.003311 1_555
Ir6_1 Lu2_4 3.065102 1_456
Ir6_1 Lu2_5 3.065102 1_455
Ir6_2 Lu1_2 3.003311 1_555
Ir6_2 Lu1_3 3.003311 1_555
Ir6_2 Lu2_6 3.065102 1_455
Ir6_2 Lu2_7 3.065102 1_455
Ir6_3 Lu1_2 3.003311 1_556
Ir6_3 Lu1_3 3.003311 1_555
Ir6_3 Lu2_6 3.065102 1_456
Ir6_3 Lu2_7 3.065102 1_455
Ir6_4 Lu1_4 3.003311 1_555
Ir6_4 Lu1_5 3.003311 1_555
Ir6_4 Lu2_1 3.065102 1_555
Ir6_4 Lu2_0 3.065102 1_555
Ir6_5 Lu1_4 3.003311 1_556
Ir6_5 Lu1_5 3.003311 1_555
Ir6_5 Lu2_0 3.065102 1_556
Ir6_5 Lu2_1 3.065102 1_555
Ir6_6 Lu1_6 3.003311 1_555
Ir6_6 Lu1_7 3.003311 1_555
Ir6_6 Lu2_2 3.065102 1_555
Ir6_6 Lu2_3 3.065102 1_555
Ir6_7 Lu1_6 3.003311 1_556
Ir6_7 Lu1_7 3.003311 1_555
Ir6_7 Lu2_2 3.065102 1_556
Ir6_7 Lu2_3 3.065102 1_555
Ir7_0 Lu0_0 2.912908 1_555
Ir7_0 Lu0_1 2.912908 1_555
Ir7_0 Lu2_4 2.912908 1_455
Ir7_0 Lu2_5 2.912908 1_455
Ir7_1 Lu0_0 2.912908 1_556
Ir7_1 Lu0_1 2.912908 1_555
Ir7_1 Lu2_4 2.912908 1_456
Ir7_1 Lu2_5 2.912908 1_455
Ir7_2 Lu0_2 2.912908 1_555
Ir7_2 Lu0_3 2.912908 1_555
Ir7_2 Lu2_6 2.912908 1_455
Ir7_2 Lu2_7 2.912908 1_455
Ir7_3 Lu0_2 2.912908 1_556
Ir7_3 Lu0_3 2.912908 1_555
Ir7_3 Lu2_6 2.912908 1_456
Ir7_3 Lu2_7 2.912908 1_455
Ir7_4 Lu0_5 2.912908 1_555
Ir7_4 Lu0_4 2.912908 1_555
Ir7_4 Lu2_0 2.912908 1_555
Ir7_4 Lu2_1 2.912908 1_555
Ir7_5 Lu0_4 2.912908 1_556
Ir7_5 Lu0_5 2.912908 1_555
Ir7_5 Lu2_0 2.912908 1_556
Ir7_5 Lu2_1 2.912908 1_555
Ir7_6 Lu0_6 2.912908 1_555
Ir7_6 Lu0_7 2.912908 1_555
Ir7_6 Lu2_2 2.912908 1_555
Ir7_6 Lu2_3 2.912908 1_555
Ir7_7 Lu0_6 2.912908 1_556
Ir7_7 Lu0_7 2.912908 1_555
Ir7_7 Lu2_2 2.912908 1_556
Ir7_7 Lu2_3 2.912908 1_555
Ir8_0 Lu4_3 2.912908 1_545
Ir8_0 Lu4_2 2.912908 1_545
Ir8_0 Lu1_0 2.912908 1_555
Ir8_0 Lu1_1 2.912908 1_555
Ir8_1 Lu4_2 2.912908 1_546
Ir8_1 Lu4_3 2.912908 1_545
Ir8_1 Lu1_0 2.912908 1_556
Ir8_1 Lu1_1 2.912908 1_555
Ir8_2 Lu1_2 2.912908 1_555
Ir8_2 Lu1_3 2.912908 1_555
Ir8_2 Lu4_0 2.912908 1_555
Ir8_2 Lu4_1 2.912908 1_555
Ir8_3 Lu1_2 2.912908 1_556
Ir8_3 Lu4_0 2.912908 1_556
Ir8_3 Lu4_1 2.912908 1_555
Ir8_3 Lu1_3 2.912908 1_555
Ir8_4 Lu1_5 2.912908 1_555
Ir8_4 Lu1_4 2.912908 1_555
Ir8_4 Lu4_6 2.912908 1_545
Ir8_4 Lu4_7 2.912908 1_545
Ir8_5 Lu1_4 2.912908 1_556
Ir8_5 Lu4_6 2.912908 1_546
Ir8_5 Lu4_7 2.912908 1_545
Ir8_5 Lu1_5 2.912908 1_555
Ir8_6 Lu1_6 2.912908 1_555
Ir8_6 Lu1_7 2.912908 1_555
Ir8_6 Lu4_4 2.912908 1_555
Ir8_6 Lu4_5 2.912908 1_555
Ir8_7 Lu1_6 2.912908 1_556
Ir8_7 Lu1_7 2.912908 1_555
Ir8_7 Lu4_4 2.912908 1_556
Ir8_7 Lu4_5 2.912908 1_555
Ir9_0 Lu2_1 3.003311 1_555
Ir9_0 Lu2_0 3.003311 1_555
Ir9_0 Lu4_2 3.065102 1_545
Ir9_0 Lu4_3 3.065102 1_545
Ir9_1 Lu2_0 3.003311 1_556
Ir9_1 Lu2_1 3.003311 1_555
Ir9_1 Lu4_2 3.065102 1_546
Ir9_1 Lu4_3 3.065102 1_545
Ir9_2 Lu2_2 3.003311 1_555
Ir9_2 Lu2_3 3.003311 1_555
Ir9_2 Lu4_0 3.065102 1_555
Ir9_2 Lu4_1 3.065102 1_555
Ir9_3 Lu2_2 3.003311 1_556
Ir9_3 Lu2_3 3.003311 1_555
Ir9_3 Lu4_0 3.065102 1_556
Ir9_3 Lu4_1 3.065102 1_555
Ir9_4 Lu2_4 3.003311 1_555
Ir9_4 Lu2_5 3.003311 1_555
Ir9_4 Lu4_6 3.065102 1_545
Ir9_4 Lu4_7 3.065102 1_545
Ir9_5 Lu2_4 3.003311 1_556
Ir9_5 Lu2_5 3.003311 1_555
Ir9_5 Lu4_6 3.065102 1_546
Ir9_5 Lu4_7 3.065102 1_545
Ir9_6 Lu2_7 3.003311 1_555
Ir9_6 Lu2_6 3.003311 1_555
Ir9_6 Lu4_4 3.065102 1_555
Ir9_6 Lu4_5 3.065102 1_555
Ir9_7 Lu2_6 3.003311 1_556
Ir9_7 Lu2_7 3.003311 1_555
Ir9_7 Lu4_4 3.065102 1_556
Ir9_7 Lu4_5 3.065102 1_555
