# generated using pymatgen
data_SrLuTcH6
_symmetry_space_group_name_H-M   'P 1'
_cell_length_a   5.11278787
_cell_length_b   5.11278923
_cell_length_c   5.11278747
_cell_angle_alpha   59.99999856
_cell_angle_beta   59.99998979
_cell_angle_gamma   59.99999459
_symmetry_Int_Tables_number   1
_chemical_formula_structural   SrLuTcH6
_chemical_formula_sum   'Sr1 Lu1 Tc1 H6'
_cell_volume   94.50577553
_cell_formula_units_Z   1
loop_
 _symmetry_equiv_pos_site_id
 _symmetry_equiv_pos_as_xyz
  1  'x, y, z'
loop_
 _atom_site_type_symbol
 _atom_site_label
 _atom_site_symmetry_multiplicity
 _atom_site_fract_x
 _atom_site_fract_y
 _atom_site_fract_z
 _atom_site_occupancy
  Sr  Sr0  1  0.75000000  0.75000000  0.75000000  1
  Lu  Lu0  1  0.25000000  0.25000000  0.25000000  1
  Tc  Tc0  1  0.00000000  0.00000000  0.00000000  1
  H  H0  1  0.75545002  0.75545002  0.24454998  1
  H  H1  1  0.24454998  0.75545002  0.24454998  1
  H  H2  1  0.75545002  0.24454998  0.24454998  1
  H  H3  1  0.24454998  0.24454998  0.75545002  1
  H  H4  1  0.75545002  0.24454998  0.75545002  1
  H  H5  1  0.24454998  0.75545002  0.75545002  1
loop_
_geom_bond_atom_site_label_1
_geom_bond_atom_site_label_2
_geom_bond_distance
_geom_bond_site_symmetry_2
H0 Tc0 1.768237 1_665
H0 Sr0 2.556697 1_555
H0 Sr0 2.556697 1_554
H0 Lu0 2.556698 1_565
H0 Lu0 2.556698 1_655
H1 Tc0 1.768237 1_565
H1 Sr0 2.556697 1_455
H1 Sr0 2.556697 1_554
H1 Lu0 2.556698 1_565
H1 Lu0 2.556698 1_555
H2 Tc0 1.768237 1_655
H2 Lu0 2.556698 1_555
H2 Lu0 2.556698 1_655
H2 Sr0 2.556698 1_545
H2 Sr0 2.556698 1_554
H3 Tc0 1.768237 1_556
H3 Lu0 2.556697 1_555
H3 Lu0 2.556697 1_556
H3 Sr0 2.556698 1_545
H3 Sr0 2.556698 1_455
H4 Tc0 1.768237 1_656
H4 Lu0 2.556697 1_655
H4 Lu0 2.556697 1_556
H4 Sr0 2.556698 1_545
H4 Sr0 2.556698 1_555
H5 Tc0 1.768237 1_566
H5 Sr0 2.556698 1_555
H5 Sr0 2.556698 1_455
H5 Lu0 2.556698 1_565
H5 Lu0 2.556698 1_556
