# generated using pymatgen
data_CaCu4HgO8
_symmetry_space_group_name_H-M   'P 1'
_cell_length_a   6.20981718
_cell_length_b   6.20981692
_cell_length_c   6.20981636
_cell_angle_alpha   124.90229156
_cell_angle_beta   124.90229360
_cell_angle_gamma   81.69993369
_symmetry_Int_Tables_number   1
_chemical_formula_structural   CaCu4HgO8
_chemical_formula_sum   'Ca1 Cu4 Hg1 O8'
_cell_volume   154.98676381
_cell_formula_units_Z   1
loop_
 _symmetry_equiv_pos_site_id
 _symmetry_equiv_pos_as_xyz
  1  'x, y, z'
loop_
 _atom_site_type_symbol
 _atom_site_label
 _atom_site_symmetry_multiplicity
 _atom_site_fract_x
 _atom_site_fract_y
 _atom_site_fract_z
 _atom_site_occupancy
  Ca  Ca0  1  0.00000000  0.00000000  0.00000000  1
  Cu  Cu0  1  0.87562923  0.62329208  0.24854340  1
  Cu  Cu1  1  0.37474968  0.62708583  0.75145660  1
  Cu  Cu2  1  0.37291417  0.12437077  0.74766385  1
  Cu  Cu3  1  0.37670792  0.62525032  0.25233615  1
  Hg  Hg0  1  0.75000000  0.25000000  0.50000000  1
  O  O0  1  0.02680175  0.93661764  0.36313094  1
  O  O1  1  0.06338236  0.42651229  0.09018410  1
  O  O2  1  0.33632819  0.97319825  0.90981590  1
  O  O3  1  0.17808462  0.59263483  0.87031964  1
  O  O4  1  0.40736517  0.27768581  0.58545080  1
  O  O5  1  0.69223502  0.82191538  0.41454920  1
  O  O6  1  0.57348771  0.66367181  0.63686906  1
  O  O7  1  0.72231419  0.30776498  0.12968036  1
loop_
_geom_bond_atom_site_label_1
_geom_bond_atom_site_label_2
_geom_bond_distance
_geom_bond_site_symmetry_2
Ca0 O6 2.415527 1_444
Ca0 O1 2.415528 1_555
Ca0 O2 2.415528 1_544
Ca0 O0 2.415534 1_545
Ca0 O3 2.480098 1_544
Ca0 O4 2.480101 1_555
Ca0 O5 2.480103 1_444
Ca0 O7 2.480103 1_455
Cu0 O1 1.828984 1_655
Cu0 O0 1.830816 1_655
Cu0 O5 1.834081 1_555
Cu0 O7 1.835682 1_555
Cu1 O2 1.828985 1_555
Cu1 O6 1.830819 1_555
Cu1 O4 1.834077 1_555
Cu1 O3 1.835685 1_555
Cu2 O0 1.828984 1_545
Cu2 O2 1.830814 1_545
Cu2 O7 1.834079 1_556
Cu2 O4 1.835685 1_555
Cu3 O6 1.828980 1_555
Cu3 O1 1.830819 1_555
Cu3 O3 1.834082 1_554
Cu3 O5 1.835683 1_555
Hg0 O7 2.433148 1_555
Hg0 O5 2.433148 1_545
Hg0 O3 2.433151 1_655
Hg0 O4 2.433154 1_555
Hg0 O0 2.505466 1_645
Hg0 O1 2.505467 1_656
Hg0 O2 2.505467 1_544
Hg0 O6 2.505467 1_555
