# generated using pymatgen
data_Ti8Al15Fe3Rh4
_symmetry_space_group_name_H-M   'P 1'
_cell_length_a   8.54646501
_cell_length_b   8.50934950
_cell_length_c   8.54646409
_cell_angle_alpha   119.83303084
_cell_angle_beta   120.09521152
_cell_angle_gamma   90.18690160
_symmetry_Int_Tables_number   1
_chemical_formula_structural   Ti8Al15Fe3Rh4
_chemical_formula_sum   'Ti8 Al15 Fe3 Rh4'
_cell_volume   439.24962454
_cell_formula_units_Z   1
loop_
 _symmetry_equiv_pos_site_id
 _symmetry_equiv_pos_as_xyz
  1  'x, y, z'
loop_
 _atom_site_type_symbol
 _atom_site_label
 _atom_site_symmetry_multiplicity
 _atom_site_fract_x
 _atom_site_fract_y
 _atom_site_fract_z
 _atom_site_occupancy
  Ti  Ti0  1  0.77869893  0.28516022  0.06779080  1
  Ti  Ti1  1  0.21736942  0.28516022  0.50646129  1
  Ti  Ti2  1  0.21315721  0.72320582  0.51004861  1
  Ti  Ti3  1  0.22645132  0.72230826  0.93115275  1
  Ti  Ti4  1  0.79115551  0.72230826  0.49585694  1
  Ti  Ti5  1  0.77946072  0.26941950  0.48995878  1
  Ti  Ti6  1  0.37738792  0.12388478  0.74649685  1
  Ti  Ti7  1  0.38087906  0.63284733  0.25196827  1
  Al  Al0  1  0.99615196  0.49590048  0.49974952  1
  Al  Al1  1  0.14988004  0.34821886  0.19833682  1
  Al  Al2  1  0.15953602  0.97607468  0.81653866  1
  Al  Al3  1  0.15453597  0.34261959  0.80795144  1
  Al  Al4  1  0.53466715  0.34261959  0.18808362  1
  Al  Al5  1  0.84770194  0.64857575  0.80087381  1
  Al  Al6  1  0.84188980  0.02754680  0.18565701  1
  Al  Al7  1  0.83931541  0.65748233  0.18264353  1
  Al  Al8  1  0.47483880  0.65748233  0.81816692  1
  Al  Al9  1  0.37743075  0.12417780  0.25881967  1
  Al  Al10  1  0.86535913  0.12417780  0.74674805  1
  Al  Al11  1  0.62163129  0.87380696  0.25217567  1
  Al  Al12  1  0.62022713  0.36677323  0.74654510  1
  Al  Al13  1  0.62143132  0.87793425  0.74338563  1
  Al  Al14  1  0.13454762  0.87793425  0.25650293  1
  Fe  Fe0  1  0.00155877  0.99937616  0.50172955  1
  Fe  Fe1  1  0.49764661  0.99937616  0.99781739  1
  Fe  Fe2  1  0.49662013  0.49949780  0.00287767  1
  Rh  Rh0  1  0.49820480  0.49904912  0.49766785  1
  Rh  Rh1  1  0.00138026  0.49904912  0.00084432  1
  Rh  Rh2  1  0.99986332  0.99881977  0.99895645  1
  Rh  Rh3  1  0.50101671  0.99921081  0.49819409  1
loop_
_geom_bond_atom_site_label_1
_geom_bond_atom_site_label_2
_geom_bond_distance
_geom_bond_site_symmetry_2
Ti0 Ti6 2.821671 1_554
Ti1 Ti6 2.821671 1_555
Ti2 Ti6 2.819150 1_565
Ti2 Ti7 3.000253 1_555
Ti3 Ti7 2.879794 1_556
Ti4 Ti7 2.879794 1_555
Al0 Ti1 2.609455 1_655
Al0 Ti0 2.609461 1_555
Al0 Ti3 2.609525 1_655
Al0 Ti4 2.609531 1_555
Al0 Ti5 2.609920 1_555
Al0 Ti2 2.613827 1_655
Al1 Rh1 2.474792 1_555
Al1 Rh0 2.474805 1_555
Al1 Rh2 2.475997 1_444
Al1 Ti0 2.727609 1_455
Al1 Ti1 2.727620 1_555
Al1 Ti2 2.767225 1_555
Al2 Fe0 2.447555 1_555
Al2 Fe1 2.447555 1_555
Al2 Rh2 2.483020 1_455
Al2 Ti6 2.694145 1_565
Al2 Ti2 2.702551 1_555
Al2 Ti4 2.738668 1_455
Al2 Ti3 2.738668 1_555
Al3 Fe2 2.445852 1_556
Al3 Fe0 2.455150 1_545
Al3 Rh1 2.488979 1_556
Al3 Ti1 2.702330 1_555
Al3 Ti6 2.724231 1_555
Al3 Ti5 2.759609 1_455
Al3 Ti3 2.806858 1_555
Al4 Fe2 2.445853 1_555
Al4 Fe1 2.455152 1_544
Al4 Rh0 2.488966 1_555
Al4 Ti0 2.702339 1_555
Al4 Ti6 2.724233 1_554
Al4 Ti5 2.759611 1_555
Al4 Ti4 2.806860 1_555
Al5 Rh2 2.487258 1_555
Al5 Rh1 2.487595 1_656
Al5 Rh0 2.487596 1_555
Al5 Ti5 2.777427 1_555
Al5 Ti4 2.790795 1_555
Al5 Ti3 2.790796 1_655
Al6 Fe0 2.483190 1_645
Al6 Fe1 2.483190 1_544
Al6 Rh2 2.490614 1_544
Al6 Ti5 2.712475 1_555
Al6 Ti1 2.787649 1_655
Al6 Ti0 2.787649 1_555
Al7 Fe0 2.472090 1_655
Al7 Fe2 2.480401 1_555
Al7 Rh1 2.497283 1_655
Al7 Ti4 2.697516 1_555
Al7 Ti0 2.766704 1_555
Al7 Ti2 2.795726 1_655
Al8 Fe1 2.472090 1_555
Al8 Fe2 2.480401 1_556
Al8 Rh0 2.497290 1_555
Al8 Ti3 2.697516 1_555
Al8 Ti1 2.766704 1_555
Al8 Ti2 2.795726 1_555
Al9 Rh3 2.537025 1_545
Al9 Rh0 2.606651 1_555
Al9 Rh2 2.629872 1_444
Al9 Fe1 2.666040 1_544
Al9 Ti5 2.823412 1_555
Al9 Ti3 2.832057 1_544
Al9 Ti1 2.873744 1_555
Al10 Rh3 2.537032 1_545
Al10 Rh1 2.606651 1_656
Al10 Rh2 2.629865 1_545
Al10 Fe0 2.666040 1_645
Al10 Ti5 2.823418 1_555
Al10 Ti4 2.832056 1_545
Al10 Ti0 2.873743 1_556
Al10 Al12 2.945958 1_555
Al11 Rh3 2.563331 1_555
Al11 Fe2 2.601718 1_555
Al11 Fe1 2.645478 1_554
Al11 Fe0 2.645478 1_655
Al11 Ti5 2.774283 1_565
Al11 Ti4 2.784908 1_555
Al11 Ti3 2.784908 1_554
Al12 Rh3 2.555605 1_545
Al12 Rh0 2.654023 1_555
Al12 Rh1 2.654024 1_656
Al12 Fe2 2.656668 1_556
Al12 Al8 2.704498 1_555
Al12 Al7 2.704502 1_556
Al12 Al5 2.775220 1_555
Al12 Ti1 2.833456 1_555
Al12 Ti0 2.833463 1_556
Al12 Ti5 2.922308 1_555
Al12 Ti6 2.923939 1_555
Al12 Al9 2.945945 1_555
Al13 Rh3 2.551684 1_555
Al13 Rh0 2.633868 1_555
Al13 Rh2 2.635820 1_555
Al13 Fe1 2.644609 1_555
Al13 Ti0 2.859151 1_566
Al13 Ti2 2.874866 1_555
Al13 Ti4 2.938660 1_555
Al13 Ti6 2.959689 1_565
Al14 Rh3 2.551691 1_555
Al14 Rh1 2.633868 1_555
Al14 Rh2 2.635820 1_454
Al14 Fe0 2.644601 1_555
Al14 Ti1 2.859150 1_565
Al14 Ti2 2.874864 1_555
Al14 Ti3 2.938667 1_554
Al14 Ti6 2.959688 1_565
Fe0 Ti6 2.617191 1_565
Fe0 Ti4 2.925534 1_455
Fe0 Ti2 2.977095 1_555
Fe0 Ti5 2.993388 1_465
Fe0 Ti1 3.019177 1_565
Fe1 Ti6 2.617191 1_565
Fe1 Ti3 2.925534 1_555
Fe1 Ti2 2.977095 1_555
Fe1 Ti5 2.993388 1_566
Fe1 Ti0 3.019177 1_566
Fe2 Ti7 2.552211 1_555
Fe2 Ti6 2.612826 1_554
Fe2 Ti4 3.011202 1_555
Fe2 Ti3 3.011202 1_554
Fe2 Ti1 3.023286 1_554
Fe2 Ti0 3.023287 1_555
Rh0 Ti7 2.643036 1_555
Rh0 Ti1 3.060630 1_555
Rh0 Ti5 3.108346 1_555
Rh0 Ti2 3.110036 1_555
Rh0 Ti4 3.148810 1_555
Rh1 Ti7 2.643044 1_555
Rh1 Ti0 3.060624 1_455
Rh1 Ti5 3.108347 1_454
Rh1 Ti2 3.110034 1_555
Rh1 Ti3 3.148816 1_554
Rh2 Ti4 3.069327 1_555
Rh2 Ti3 3.069327 1_655
Rh2 Ti1 3.094312 1_666
Rh2 Ti0 3.094312 1_566
Rh3 Ti7 2.546853 1_555
Rh3 Ti6 2.600237 1_565
