# generated using pymatgen
data_Ba2Sr2As2O
_symmetry_space_group_name_H-M   'P 1'
_cell_length_a   9.28209467
_cell_length_b   9.28209450
_cell_length_c   9.28209421
_cell_angle_alpha   149.15358096
_cell_angle_beta   149.15358118
_cell_angle_gamma   44.18528782
_symmetry_Int_Tables_number   1
_chemical_formula_structural   Ba2Sr2As2O
_chemical_formula_sum   'Ba2 Sr2 As2 O1'
_cell_volume   209.63723179
_cell_formula_units_Z   1
loop_
 _symmetry_equiv_pos_site_id
 _symmetry_equiv_pos_as_xyz
  1  'x, y, z'
loop_
 _atom_site_type_symbol
 _atom_site_label
 _atom_site_symmetry_multiplicity
 _atom_site_fract_x
 _atom_site_fract_y
 _atom_site_fract_z
 _atom_site_occupancy
  Ba  Ba0  1  0.67205000  0.67205000  0.00000000  1
  Ba  Ba1  1  0.32795000  0.32795000  1.00000000  1
  Sr  Sr0  1  0.50000000  0.00000000  0.50000000  1
  Sr  Sr1  1  0.00000000  0.50000000  0.50000000  1
  As  As0  1  0.86941870  0.86941870  1.00000000  1
  As  As1  1  0.13058130  0.13058130  0.00000000  1
  O  O0  1  0.50000000  0.50000000  0.00000000  1
loop_
_geom_bond_atom_site_label_1
_geom_bond_atom_site_label_2
_geom_bond_distance
_geom_bond_site_symmetry_2
Ba0 O0 2.959458 1_555
Ba1 O0 2.959458 1_556
As0 Sr0 3.337496 1_565
As0 Sr1 3.337496 1_655
As0 Sr1 3.337496 1_666
As0 Sr0 3.337496 1_666
As0 Ba0 3.394968 1_556
As0 Ba1 3.563174 1_655
As0 Ba1 3.563174 1_565
As0 Ba1 3.563174 1_666
As0 Ba1 3.563174 1_554
As1 Sr0 3.337496 1_555
As1 Sr1 3.337496 1_555
As1 Sr1 3.337496 1_544
As1 Sr0 3.337496 1_454
As1 Ba1 3.394968 1_554
As1 Ba0 3.563174 1_455
As1 Ba0 3.563174 1_545
As1 Ba0 3.563174 1_444
As1 Ba0 3.563174 1_556
O0 Sr0 2.468542 1_554
O0 Sr0 2.468542 1_565
O0 Sr1 2.468542 1_554
O0 Sr1 2.468542 1_655
