# generated using pymatgen
data_BaZn2SbAs
_symmetry_space_group_name_H-M   'P 1'
_cell_length_a   4.40820548
_cell_length_b   10.29359218
_cell_length_c   11.27925364
_cell_angle_alpha   90.00000000
_cell_angle_beta   90.00000000
_cell_angle_gamma   90.00000000
_symmetry_Int_Tables_number   1
_chemical_formula_structural   BaZn2SbAs
_chemical_formula_sum   'Ba4 Zn8 Sb4 As4'
_cell_volume   511.81045241
_cell_formula_units_Z   4
loop_
 _symmetry_equiv_pos_site_id
 _symmetry_equiv_pos_as_xyz
  1  'x, y, z'
loop_
 _atom_site_type_symbol
 _atom_site_label
 _atom_site_symmetry_multiplicity
 _atom_site_fract_x
 _atom_site_fract_y
 _atom_site_fract_z
 _atom_site_occupancy
  Ba  Ba0  1  0.25000000  0.74502770  0.32897772  1
  Ba  Ba1  1  0.75000000  0.25497230  0.67102228  1
  Ba  Ba2  1  0.25000000  0.24502770  0.17102228  1
  Ba  Ba3  1  0.75000000  0.75497230  0.82897772  1
  Zn  Zn0  1  0.75000000  0.38909191  0.95094171  1
  Zn  Zn1  1  0.25000000  0.61090809  0.04905829  1
  Zn  Zn2  1  0.25000000  0.11090809  0.45094171  1
  Zn  Zn3  1  0.75000000  0.88909191  0.54905829  1
  Zn  Zn4  1  0.75000000  0.95117007  0.10793608  1
  Zn  Zn5  1  0.25000000  0.04882993  0.89206392  1
  Zn  Zn6  1  0.75000000  0.45117007  0.39206392  1
  Zn  Zn7  1  0.25000000  0.54882993  0.60793608  1
  Sb  Sb0  1  0.75000000  0.52492352  0.16189846  1
  Sb  Sb1  1  0.25000000  0.47507648  0.83810154  1
  Sb  Sb2  1  0.75000000  0.02492352  0.33810154  1
  Sb  Sb3  1  0.25000000  0.97507648  0.66189846  1
  As  As0  1  0.75000000  0.64625772  0.54025673  1
  As  As1  1  0.25000000  0.35374228  0.45974327  1
  As  As2  1  0.25000000  0.85374228  0.04025673  1
  As  As3  1  0.75000000  0.14625772  0.95974327  1
loop_
_geom_bond_atom_site_label_1
_geom_bond_atom_site_label_2
_geom_bond_distance
_geom_bond_site_symmetry_2
Ba0 Zn1 3.445927 1_555
Ba0 Sb2 3.628993 1_565
Ba0 Sb2 3.628993 1_465
Ba0 Zn3 3.635823 1_555
Ba0 Zn3 3.635823 1_455
Ba0 Sb0 3.680047 1_555
Ba0 Sb0 3.680047 1_455
Ba1 Zn0 3.445927 1_555
Ba1 Sb3 3.628993 1_545
Ba1 Sb3 3.628993 1_645
Ba1 Zn2 3.635823 1_555
Ba1 Zn2 3.635823 1_655
Ba1 Sb1 3.680047 1_555
Ba1 Sb1 3.680047 1_655
Ba2 Zn2 3.445927 1_555
Ba2 Sb0 3.628993 1_455
Ba2 Sb0 3.628993 1_555
Ba2 Zn0 3.635823 1_554
Ba2 Zn0 3.635823 1_454
Ba2 Sb2 3.680047 1_455
Ba2 Sb2 3.680047 1_555
Ba3 Zn3 3.445927 1_555
Ba3 Sb1 3.628993 1_555
Ba3 Sb1 3.628993 1_655
Ba3 Zn1 3.635823 1_656
Ba3 Zn1 3.635823 1_556
Ba3 Sb3 3.680047 1_555
Ba3 Sb3 3.680047 1_655
Sb0 Zn1 2.694690 1_555
Sb0 Zn1 2.694690 1_655
Sb0 Zn6 2.704824 1_555
Sb0 Zn0 2.759830 1_554
Sb1 Zn0 2.694690 1_455
Sb1 Zn0 2.694690 1_555
Sb1 Zn7 2.704824 1_555
Sb1 Zn1 2.759830 1_556
Sb2 Zn2 2.694690 1_555
Sb2 Zn2 2.694690 1_655
Sb2 Zn4 2.704824 1_545
Sb2 Zn3 2.759830 1_545
Sb3 Zn3 2.694690 1_455
Sb3 Zn3 2.694690 1_555
Sb3 Zn5 2.704824 1_565
Sb3 Zn2 2.759830 1_565
As0 Zn3 2.501607 1_555
As0 Zn7 2.539011 1_655
As0 Zn7 2.539011 1_555
As0 Zn6 2.612777 1_555
As0 Ba0 3.401583 1_655
As0 Ba0 3.401583 1_555
As0 Ba3 3.443468 1_555
As1 Zn2 2.501607 1_555
As1 Zn6 2.539011 1_555
As1 Zn6 2.539011 1_455
As1 Zn7 2.612777 1_555
As1 Ba1 3.401583 1_455
As1 Ba1 3.401583 1_555
As1 Ba2 3.443468 1_555
As2 Zn1 2.501607 1_555
As2 Zn4 2.539011 1_455
As2 Zn4 2.539011 1_555
As2 Zn5 2.612777 1_564
As2 Ba3 3.401583 1_454
As2 Ba3 3.401583 1_554
As2 Ba0 3.443468 1_555
As3 Zn0 2.501607 1_555
As3 Zn5 2.539011 1_555
As3 Zn5 2.539011 1_655
As3 Zn4 2.612777 1_546
As3 Ba2 3.401583 1_656
As3 Ba2 3.401583 1_556
As3 Ba1 3.443468 1_555
