# generated using pymatgen
data_Sr4Re2NiO12
_symmetry_space_group_name_H-M   'P 1'
_cell_length_a   9.60657907
_cell_length_b   11.18721570
_cell_length_c   9.68842085
_cell_angle_alpha   90.00002772
_cell_angle_beta   99.67648140
_cell_angle_gamma   106.92579891
_symmetry_Int_Tables_number   1
_chemical_formula_structural   Sr4Re2NiO12
_chemical_formula_sum   'Sr16 Re8 Ni4 O48'
_cell_volume   980.62485599
_cell_formula_units_Z   4
loop_
 _symmetry_equiv_pos_site_id
 _symmetry_equiv_pos_as_xyz
  1  'x, y, z'
loop_
 _atom_site_type_symbol
 _atom_site_label
 _atom_site_symmetry_multiplicity
 _atom_site_fract_x
 _atom_site_fract_y
 _atom_site_fract_z
 _atom_site_occupancy
  Sr  Sr0  1  0.60240800  0.40060200  0.93373500  1
  Sr  Sr1  1  0.60240800  0.90060200  0.93373500  1
  Sr  Sr2  1  0.60240800  0.15060200  0.43373400  1
  Sr  Sr3  1  0.60240800  0.65060200  0.43373500  1
  Sr  Sr4  1  0.39759200  0.84939800  0.56626600  1
  Sr  Sr5  1  0.39759200  0.34939900  0.56626600  1
  Sr  Sr6  1  0.39759200  0.59939800  0.06626500  1
  Sr  Sr7  1  0.39759200  0.09939800  0.06626600  1
  Sr  Sr8  1  0.87544800  0.96886200  0.64590800  1
  Sr  Sr9  1  0.87544900  0.46886300  0.64590800  1
  Sr  Sr10  1  0.87544900  0.71886200  0.14590900  1
  Sr  Sr11  1  0.87544800  0.21886300  0.14590800  1
  Sr  Sr12  1  0.12455200  0.28113800  0.85409200  1
  Sr  Sr13  1  0.12455200  0.78113700  0.85409100  1
  Sr  Sr14  1  0.12455200  0.03113700  0.35409200  1
  Sr  Sr15  1  0.12455100  0.53113800  0.35409100  1
  Re  Re0  1  0.73926600  0.18481700  0.78987700  1
  Re  Re1  1  0.73926700  0.68481600  0.78987700  1
  Re  Re2  1  0.73926600  0.93481600  0.28987700  1
  Re  Re3  1  0.73926600  0.43481600  0.28987700  1
  Re  Re4  1  0.26073400  0.06518300  0.71012300  1
  Re  Re5  1  0.26073300  0.56518400  0.71012300  1
  Re  Re6  1  0.26073500  0.81518300  0.21012300  1
  Re  Re7  1  0.26073400  0.31518400  0.21012300  1
  Ni  Ni0  1  0.00000000  0.75000000  0.50000000  1
  Ni  Ni1  1  0.00000000  0.50000000  0.00000000  1
  Ni  Ni2  1  0.00000000  0.25000000  0.50000000  1
  Ni  Ni3  1  0.00000000  0.00000000  0.00000000  1
  O  O0  1  0.63104200  0.15776100  0.93434000  1
  O  O1  1  0.63104200  0.65776100  0.93433900  1
  O  O2  1  0.63104200  0.90776100  0.43434000  1
  O  O3  1  0.63104200  0.40776100  0.43434000  1
  O  O4  1  0.63104100  0.27963500  0.69059100  1
  O  O5  1  0.63104100  0.77963600  0.69059000  1
  O  O6  1  0.63104100  0.02963600  0.19059000  1
  O  O7  1  0.63104200  0.52963500  0.19059100  1
  O  O8  1  0.63104100  0.03588600  0.69059000  1
  O  O9  1  0.63104200  0.53588700  0.69059100  1
  O  O10  1  0.63104200  0.78588700  0.19059000  1
  O  O11  1  0.63104100  0.28588600  0.19059000  1
  O  O12  1  0.36895900  0.21411400  0.80941000  1
  O  O13  1  0.36895800  0.71411300  0.80940900  1
  O  O14  1  0.36895900  0.96411400  0.30941000  1
  O  O15  1  0.36895800  0.46411300  0.30941000  1
  O  O16  1  0.36895800  0.09223900  0.56566000  1
  O  O17  1  0.36895800  0.59223900  0.56566000  1
  O  O18  1  0.36895800  0.84223900  0.06566000  1
  O  O19  1  0.36895800  0.34223900  0.06566000  1
  O  O20  1  0.36895900  0.97036500  0.80940900  1
  O  O21  1  0.36895900  0.47036400  0.80941000  1
  O  O22  1  0.36895900  0.72036500  0.30941000  1
  O  O23  1  0.36895900  0.22036400  0.30941000  1
  O  O24  1  0.13016900  0.03254200  0.84802900  1
  O  O25  1  0.13017100  0.53254200  0.84802700  1
  O  O26  1  0.13017000  0.78254100  0.34802800  1
  O  O27  1  0.13017000  0.28254100  0.34802900  1
  O  O28  1  0.86983100  0.09770700  0.89147200  1
  O  O29  1  0.86982900  0.59770800  0.89147000  1
  O  O30  1  0.86982900  0.84770800  0.39147200  1
  O  O31  1  0.86983100  0.34770700  0.39147200  1
  O  O32  1  0.86983000  0.21745800  0.65197100  1
  O  O33  1  0.86982900  0.71745800  0.65197300  1
  O  O34  1  0.86983000  0.96745900  0.15197100  1
  O  O35  1  0.86982900  0.46745900  0.15197200  1
  O  O36  1  0.86983000  0.33720800  0.89147100  1
  O  O37  1  0.86983000  0.83720800  0.89147200  1
  O  O38  1  0.86983100  0.08720900  0.39147200  1
  O  O39  1  0.86983000  0.58720800  0.39147100  1
  O  O40  1  0.13017000  0.91279200  0.60852800  1
  O  O41  1  0.13017000  0.41279200  0.60852800  1
  O  O42  1  0.13017000  0.66279200  0.10852900  1
  O  O43  1  0.13016900  0.16279100  0.10852800  1
  O  O44  1  0.13016900  0.15229300  0.60852800  1
  O  O45  1  0.13017100  0.65229200  0.60853000  1
  O  O46  1  0.13016900  0.90229300  0.10852800  1
  O  O47  1  0.13017100  0.40229200  0.10852900  1
loop_
_geom_bond_atom_site_label_1
_geom_bond_atom_site_label_2
_geom_bond_distance
_geom_bond_site_symmetry_2
Ni0 O40 2.053772 1_555
Ni0 O39 2.053776 1_455
Ni0 O26 2.053777 1_555
Ni0 O30 2.053785 1_455
Ni0 O33 2.053792 1_455
Ni0 O45 2.053793 1_555
Ni1 O42 2.053776 1_555
Ni1 O36 2.053776 1_454
Ni1 O35 2.053784 1_455
Ni1 O47 2.053789 1_555
Ni1 O25 2.053792 1_554
Ni1 O29 2.053793 1_454
Ni2 O38 2.053761 1_455
Ni2 O31 2.053764 1_455
Ni2 O44 2.053764 1_555
Ni2 O32 2.053769 1_455
Ni2 O27 2.053769 1_555
Ni2 O41 2.053772 1_555
Ni3 O43 2.053761 1_555
Ni3 O24 2.053763 1_554
Ni3 O46 2.053764 1_545
Ni3 O28 2.053764 1_454
Ni3 O34 2.053769 1_445
Ni3 O37 2.053772 1_444
O0 Re0 1.854019 1_555
O0 Sr7 2.683376 1_556
O0 Sr11 2.762076 1_556
O0 Sr0 2.809061 1_555
O0 Sr1 2.809073 1_545
O1 Re1 1.854017 1_555
O1 Sr6 2.683376 1_556
O1 Sr10 2.762094 1_556
O1 Sr1 2.809061 1_555
O1 Sr0 2.809073 1_555
O2 Re2 1.854019 1_555
O2 Sr4 2.683376 1_555
O2 Sr8 2.762076 1_555
O2 Sr2 2.809061 1_565
O2 Sr3 2.809073 1_555
O3 Re3 1.854019 1_555
O3 Sr5 2.683376 1_555
O3 Sr9 2.762083 1_555
O3 Sr3 2.809061 1_555
O3 Sr2 2.809073 1_555
O4 Re0 1.854009 1_555
O4 Sr5 2.683373 1_555
O4 Sr9 2.762095 1_555
O4 Sr0 2.809064 1_555
O4 Sr2 2.809079 1_555
O5 Re1 1.854036 1_555
O5 Sr4 2.683358 1_555
O5 Sr8 2.762074 1_555
O5 Sr1 2.809066 1_555
O5 Sr3 2.809068 1_555
O6 Re2 1.854030 1_545
O6 Sr7 2.683358 1_555
O6 Sr11 2.762080 1_555
O6 Sr2 2.809058 1_555
O6 Sr1 2.809068 1_544
O7 Re3 1.854011 1_555
O7 Sr6 2.683378 1_555
O7 Sr10 2.762080 1_555
O7 Sr3 2.809068 1_555
O7 Sr0 2.809069 1_554
O8 Re0 1.854019 1_555
O8 Sr4 2.683369 1_545
O8 Sr8 2.762080 1_545
O8 Sr2 2.809069 1_555
O8 Sr1 2.809077 1_545
O9 Re1 1.853998 1_555
O9 Sr5 2.683377 1_555
O9 Sr9 2.762083 1_555
O9 Sr3 2.809064 1_555
O9 Sr0 2.809075 1_555
O10 Re2 1.854000 1_555
O10 Sr6 2.683383 1_555
O10 Sr10 2.762083 1_555
O10 Sr1 2.809056 1_554
O10 Sr3 2.809083 1_555
O11 Re3 1.854010 1_555
O11 Sr7 2.683369 1_555
O11 Sr11 2.762074 1_555
O11 Sr0 2.809060 1_554
O11 Sr2 2.809068 1_555
O12 Re4 1.854019 1_555
O12 Sr0 2.683372 1_555
O12 Sr12 2.762080 1_555
O12 Sr7 2.809069 1_556
O12 Sr5 2.809074 1_555
O13 Re5 1.853998 1_555
O13 Sr1 2.683386 1_555
O13 Sr13 2.762071 1_555
O13 Sr6 2.809064 1_556
O13 Sr4 2.809066 1_555
O14 Re6 1.854017 1_555
O14 Sr2 2.683369 1_565
O14 Sr14 2.762074 1_565
O14 Sr7 2.809068 1_565
O14 Sr4 2.809069 1_555
O15 Re7 1.854000 1_555
O15 Sr3 2.683383 1_555
O15 Sr15 2.762083 1_555
O15 Sr5 2.809059 1_555
O15 Sr6 2.809083 1_555
O16 Re4 1.854019 1_555
O16 Sr2 2.683376 1_555
O16 Sr14 2.762076 1_555
O16 Sr4 2.809061 1_545
O16 Sr5 2.809084 1_555
O17 Re5 1.854025 1_555
O17 Sr3 2.683370 1_555
O17 Sr15 2.762089 1_555
O17 Sr5 2.809050 1_555
O17 Sr4 2.809073 1_555
O18 Re6 1.854013 1_555
O18 Sr1 2.683370 1_554
O18 Sr13 2.762082 1_554
O18 Sr6 2.809061 1_555
O18 Sr7 2.809073 1_565
O19 Re7 1.854019 1_555
O19 Sr0 2.683370 1_554
O19 Sr12 2.762076 1_554
O19 Sr7 2.809061 1_555
O19 Sr6 2.809073 1_555
O20 Re4 1.854009 1_565
O20 Sr1 2.683370 1_555
O20 Sr13 2.762086 1_555
O20 Sr4 2.809056 1_555
O20 Sr7 2.809079 1_566
O21 Re5 1.854036 1_555
O21 Sr0 2.683361 1_555
O21 Sr12 2.762074 1_555
O21 Sr5 2.809052 1_555
O21 Sr6 2.809068 1_556
O22 Re6 1.854007 1_555
O22 Sr3 2.683367 1_555
O22 Sr15 2.762084 1_555
O22 Sr4 2.809071 1_555
O22 Sr6 2.809072 1_555
O23 Re7 1.854030 1_555
O23 Sr2 2.683358 1_555
O23 Sr14 2.762080 1_555
O23 Sr7 2.809058 1_555
O23 Sr5 2.809081 1_555
O24 Re4 1.946378 1_555
O24 Sr8 2.775626 1_445
O24 Sr12 2.798090 1_555
O24 Sr13 2.798096 1_545
O24 Sr7 2.947034 1_556
O25 Re5 1.946342 1_555
O25 Sr9 2.775622 1_455
O25 Sr12 2.798080 1_555
O25 Sr13 2.798085 1_555
O25 Sr6 2.947027 1_556
O26 Re6 1.946370 1_555
O26 Sr10 2.775616 1_455
O26 Sr15 2.798068 1_555
O26 Sr14 2.798093 1_565
O26 Sr4 2.947033 1_555
O27 Re7 1.946371 1_555
O27 Sr11 2.775633 1_455
O27 Sr14 2.798082 1_555
O27 Sr15 2.798107 1_555
O27 Sr5 2.947028 1_555
O28 Re0 1.946391 1_555
O28 Sr12 2.775624 1_655
O28 Sr8 2.798086 1_545
O28 Sr11 2.798097 1_556
O28 Sr1 2.947029 1_545
O29 Re1 1.946347 1_555
O29 Sr13 2.775624 1_655
O29 Sr9 2.798078 1_555
O29 Sr10 2.798104 1_556
O29 Sr0 2.947027 1_555
O30 Re2 1.946362 1_555
O30 Sr14 2.775626 1_665
O30 Sr8 2.798081 1_555
O30 Sr10 2.798092 1_555
O30 Sr3 2.947021 1_555
O31 Re3 1.946383 1_555
O31 Sr15 2.775620 1_655
O31 Sr11 2.798080 1_555
O31 Sr9 2.798094 1_555
O31 Sr2 2.947026 1_555
O32 Re0 1.946371 1_555
O32 Sr12 2.775633 1_655
O32 Sr9 2.798091 1_555
O32 Sr8 2.798093 1_545
O32 Sr2 2.947028 1_555
O33 Re1 1.946342 1_555
O33 Sr13 2.775623 1_655
O33 Sr8 2.798080 1_555
O33 Sr9 2.798088 1_555
O33 Sr3 2.947027 1_555
O34 Re2 1.946371 1_555
O34 Sr14 2.775633 1_665
O34 Sr11 2.798082 1_565
O34 Sr10 2.798107 1_555
O34 Sr1 2.947022 1_554
O35 Re3 1.946357 1_555
O35 Sr15 2.775622 1_655
O35 Sr10 2.798066 1_555
O35 Sr11 2.798096 1_555
O35 Sr0 2.947021 1_554
O36 Re0 1.946374 1_555
O36 Sr12 2.775625 1_655
O36 Sr9 2.798087 1_555
O36 Sr11 2.798093 1_556
O36 Sr0 2.947022 1_555
O37 Re1 1.946382 1_555
O37 Sr13 2.775636 1_655
O37 Sr8 2.798090 1_555
O37 Sr10 2.798099 1_556
O37 Sr1 2.947019 1_555
O38 Re2 1.946396 1_545
O38 Sr14 2.775629 1_655
O38 Sr11 2.798090 1_555
O38 Sr8 2.798095 1_545
O38 Sr2 2.947020 1_555
O39 Re3 1.946381 1_555
O39 Sr15 2.775618 1_655
O39 Sr10 2.798073 1_555
O39 Sr9 2.798093 1_555
O39 Sr3 2.947022 1_555
O40 Re4 1.946378 1_565
O40 Sr8 2.775628 1_455
O40 Sr14 2.798085 1_565
O40 Sr13 2.798087 1_555
O40 Sr4 2.947016 1_555
O41 Re5 1.946382 1_555
O41 Sr9 2.775624 1_455
O41 Sr12 2.798090 1_555
O41 Sr15 2.798099 1_555
O41 Sr5 2.947011 1_555
O42 Re6 1.946377 1_555
O42 Sr10 2.775618 1_455
O42 Sr15 2.798073 1_555
O42 Sr13 2.798102 1_554
O42 Sr6 2.947022 1_555
O43 Re7 1.946396 1_555
O43 Sr11 2.775629 1_455
O43 Sr14 2.798090 1_555
O43 Sr12 2.798095 1_554
O43 Sr7 2.947020 1_555
O44 Re4 1.946391 1_555
O44 Sr8 2.775624 1_445
O44 Sr12 2.798086 1_555
O44 Sr14 2.798097 1_555
O44 Sr5 2.947032 1_555
O45 Re5 1.946347 1_555
O45 Sr9 2.775614 1_455
O45 Sr13 2.798067 1_555
O45 Sr15 2.798104 1_555
O45 Sr4 2.947024 1_555
O46 Re6 1.946397 1_555
O46 Sr10 2.775620 1_455
O46 Sr14 2.798080 1_565
O46 Sr13 2.798105 1_554
O46 Sr7 2.947026 1_565
O47 Re7 1.946358 1_555
O47 Sr11 2.775624 1_455
O47 Sr15 2.798084 1_555
O47 Sr12 2.798089 1_554
O47 Sr6 2.947024 1_555
