# generated using pymatgen
data_Sc5(SiBi)2
_symmetry_space_group_name_H-M   'P 1'
_cell_length_a   8.15353794
_cell_length_b   8.15353762
_cell_length_c   7.46419133
_cell_angle_alpha   90.00000000
_cell_angle_beta   90.00000000
_cell_angle_gamma   125.65093292
_symmetry_Int_Tables_number   1
_chemical_formula_structural   Sc5(SiBi)2
_chemical_formula_sum   'Sc10 Si4 Bi4'
_cell_volume   403.22054398
_cell_formula_units_Z   2
loop_
 _symmetry_equiv_pos_site_id
 _symmetry_equiv_pos_as_xyz
  1  'x, y, z'
loop_
 _atom_site_type_symbol
 _atom_site_label
 _atom_site_symmetry_multiplicity
 _atom_site_fract_x
 _atom_site_fract_y
 _atom_site_fract_z
 _atom_site_occupancy
  Sc  Sc0  1  0.54412600  0.78309474  0.16492038  1
  Sc  Sc1  1  0.28309474  0.04412600  0.33507962  1
  Sc  Sc2  1  0.21690526  0.45587400  0.83507962  1
  Sc  Sc3  1  0.95587400  0.71690526  0.66492038  1
  Sc  Sc4  1  0.71690526  0.95587400  0.66492038  1
  Sc  Sc5  1  0.45587400  0.21690526  0.83507962  1
  Sc  Sc6  1  0.78309474  0.54412600  0.16492038  1
  Sc  Sc7  1  0.04412600  0.28309474  0.33507962  1
  Sc  Sc8  1  0.50000000  0.50000000  0.50000000  1
  Sc  Sc9  1  0.00000000  0.00000000  0.00000000  1
  Si  Si0  1  0.63296626  0.63296626  0.86887611  1
  Si  Si1  1  0.13296626  0.13296626  0.63112389  1
  Si  Si2  1  0.86703374  0.86703374  0.36887611  1
  Si  Si3  1  0.36703374  0.36703374  0.13112389  1
  Bi  Bi0  1  0.29235525  0.70764475  0.50000000  1
  Bi  Bi1  1  0.20764475  0.79235525  0.00000000  1
  Bi  Bi2  1  0.70764475  0.29235525  0.50000000  1
  Bi  Bi3  1  0.79235525  0.20764475  0.00000000  1
loop_
_geom_bond_atom_site_label_1
_geom_bond_atom_site_label_2
_geom_bond_distance
_geom_bond_site_symmetry_2
Sc0 Si2 2.759958 1_555
Sc0 Si0 2.817724 1_554
Sc0 Si3 2.819004 1_555
Sc1 Si3 2.759958 1_555
Sc1 Si1 2.817724 1_555
Sc1 Si2 2.819004 1_445
Sc2 Si1 2.759958 1_555
Sc2 Si3 2.817724 1_556
Sc2 Si0 2.819004 1_555
Sc3 Si0 2.759958 1_555
Sc3 Si2 2.817724 1_555
Sc3 Si1 2.819004 1_665
Sc4 Si0 2.759958 1_555
Sc4 Si2 2.817724 1_555
Sc4 Si1 2.819004 1_665
Sc5 Si1 2.759958 1_555
Sc5 Si3 2.817724 1_556
Sc5 Si0 2.819004 1_555
Sc6 Si2 2.759958 1_555
Sc6 Si0 2.817724 1_554
Sc6 Si3 2.819004 1_555
Sc7 Si3 2.759958 1_555
Sc7 Si1 2.817724 1_555
Sc7 Si2 2.819004 1_445
Sc8 Si2 2.903415 1_555
Sc8 Si1 2.903415 1_555
Sc8 Si0 2.926025 1_555
Sc8 Si3 2.926025 1_555
Sc9 Si3 2.903415 1_555
Sc9 Si0 2.903415 1_444
Sc9 Si2 2.926025 1_445
Sc9 Si1 2.926025 1_554
Bi0 Sc8 3.012321 1_555
Bi0 Sc1 3.047850 1_565
Bi0 Sc3 3.047850 1_455
Bi0 Sc2 3.062012 1_555
Bi0 Sc0 3.062012 1_555
Bi0 Sc7 3.070403 1_555
Bi0 Sc4 3.070403 1_555
Bi1 Sc9 3.012321 1_565
Bi1 Sc2 3.047850 1_554
Bi1 Sc0 3.047850 1_555
Bi1 Sc1 3.062012 1_565
Bi1 Sc3 3.062012 1_454
Bi1 Sc5 3.070403 1_564
Bi1 Sc6 3.070403 1_455
Bi2 Sc8 3.012321 1_555
Bi2 Sc4 3.047850 1_545
Bi2 Sc7 3.047850 1_655
Bi2 Sc6 3.062012 1_555
Bi2 Sc5 3.062012 1_555
Bi2 Sc3 3.070403 1_555
Bi2 Sc1 3.070403 1_555
Bi3 Sc9 3.012321 1_655
Bi3 Sc6 3.047850 1_555
Bi3 Sc5 3.047850 1_554
Bi3 Sc4 3.062012 1_544
Bi3 Sc7 3.062012 1_655
Bi3 Sc0 3.070403 1_545
Bi3 Sc2 3.070403 1_654
