# generated using pymatgen
data_Pr5Cl12
_symmetry_space_group_name_H-M   'P 1'
_cell_length_a   8.18542303
_cell_length_b   8.18542303
_cell_length_c   23.35209300
_cell_angle_alpha   90.00000000
_cell_angle_beta   90.00000000
_cell_angle_gamma   119.99999213
_symmetry_Int_Tables_number   1
_chemical_formula_structural   Pr5Cl12
_chemical_formula_sum   'Pr15 Cl36'
_cell_volume   1354.99825338
_cell_formula_units_Z   3
loop_
 _symmetry_equiv_pos_site_id
 _symmetry_equiv_pos_as_xyz
  1  'x, y, z'
loop_
 _atom_site_type_symbol
 _atom_site_label
 _atom_site_symmetry_multiplicity
 _atom_site_fract_x
 _atom_site_fract_y
 _atom_site_fract_z
 _atom_site_occupancy
  Pr  Pr0  1  0.33333300  0.66666700  0.78737600  1
  Pr  Pr1  1  0.33333300  0.66666700  0.95629600  1
  Pr  Pr2  1  0.33333300  0.66666700  0.12723700  1
  Pr  Pr3  1  0.33333300  0.66666700  0.29495700  1
  Pr  Pr4  1  0.33333300  0.66666700  0.46196400  1
  Pr  Pr5  1  0.00000000  0.00000000  0.35151000  1
  Pr  Pr6  1  0.33333300  0.66666700  0.62289500  1
  Pr  Pr7  1  0.00000000  0.00000000  0.50000000  1
  Pr  Pr8  1  0.00000000  0.00000000  0.64849000  1
  Pr  Pr9  1  0.66666700  0.33333300  0.87276300  1
  Pr  Pr10  1  0.66666700  0.33333300  0.04370400  1
  Pr  Pr11  1  0.66666700  0.33333300  0.21262400  1
  Pr  Pr12  1  0.66666700  0.33333300  0.37710500  1
  Pr  Pr13  1  0.66666700  0.33333300  0.53803600  1
  Pr  Pr14  1  0.66666700  0.33333300  0.70504300  1
  Cl  Cl0  1  0.30274300  0.90201300  0.87172200  1
  Cl  Cl1  1  0.30307700  0.89850500  0.04245300  1
  Cl  Cl2  1  0.31362100  0.91117400  0.21327700  1
  Cl  Cl3  1  0.30651300  0.92056800  0.37766500  1
  Cl  Cl4  1  0.30378600  0.92528900  0.54051700  1
  Cl  Cl5  1  0.28685800  0.91710800  0.70239500  1
  Cl  Cl6  1  0.09798700  0.40073000  0.87172200  1
  Cl  Cl7  1  0.10149500  0.40457200  0.04245300  1
  Cl  Cl8  1  0.08882600  0.40244800  0.21327700  1
  Cl  Cl9  1  0.07943200  0.38594500  0.37766500  1
  Cl  Cl10  1  0.07471100  0.37849700  0.54051700  1
  Cl  Cl11  1  0.08289200  0.36975000  0.70239500  1
  Cl  Cl12  1  0.40244800  0.31362100  0.78672300  1
  Cl  Cl13  1  0.40457200  0.30307700  0.95754700  1
  Cl  Cl14  1  0.40073000  0.30274300  0.12827800  1
  Cl  Cl15  1  0.36975000  0.28685800  0.29760500  1
  Cl  Cl16  1  0.37849700  0.30378600  0.45948300  1
  Cl  Cl17  1  0.38594500  0.30651300  0.62233500  1
  Cl  Cl18  1  0.59927000  0.69725700  0.87172200  1
  Cl  Cl19  1  0.59542800  0.69692300  0.04245300  1
  Cl  Cl20  1  0.59755200  0.68637900  0.21327700  1
  Cl  Cl21  1  0.61405500  0.69348700  0.37766500  1
  Cl  Cl22  1  0.62150300  0.69621400  0.54051700  1
  Cl  Cl23  1  0.63025000  0.71314200  0.70239500  1
  Cl  Cl24  1  0.91117400  0.59755200  0.78672300  1
  Cl  Cl25  1  0.89850500  0.59542800  0.95754700  1
  Cl  Cl26  1  0.90201300  0.59927000  0.12827800  1
  Cl  Cl27  1  0.91710800  0.63025000  0.29760500  1
  Cl  Cl28  1  0.92528900  0.62150300  0.45948300  1
  Cl  Cl29  1  0.92056800  0.61405500  0.62233500  1
  Cl  Cl30  1  0.68637900  0.08882600  0.78672300  1
  Cl  Cl31  1  0.69692300  0.10149500  0.95754700  1
  Cl  Cl32  1  0.69725700  0.09798700  0.12827800  1
  Cl  Cl33  1  0.71314200  0.08289200  0.29760500  1
  Cl  Cl34  1  0.69621400  0.07471100  0.45948300  1
  Cl  Cl35  1  0.69348700  0.07943200  0.62233500  1
loop_
_geom_bond_atom_site_label_1
_geom_bond_atom_site_label_2
_geom_bond_distance
_geom_bond_site_symmetry_2
Cl0 Pr0 2.852304 1_555
Cl0 Pr1 2.855983 1_555
Cl0 Pr9 3.289672 1_565
Cl1 Pr2 2.837691 1_555
Cl1 Pr1 2.860153 1_554
Cl1 Pr10 3.306614 1_565
Cl2 Pr3 2.827138 1_555
Cl2 Pr2 2.896805 1_555
Cl2 Pr11 3.210331 1_565
Cl3 Pr3 2.924731 1_555
Cl3 Pr4 2.949397 1_555
Cl3 Pr5 2.953274 1_565
Cl3 Pr12 3.185271 1_565
Cl4 Pr4 2.901175 1_555
Cl4 Pr6 2.958462 1_555
Cl4 Pr7 2.995518 1_565
Cl4 Pr13 3.171904 1_565
Cl5 Pr6 2.928050 1_555
Cl5 Pr0 3.010830 1_555
Cl5 Pr8 3.025138 1_565
Cl5 Pr14 3.268734 1_565
Cl6 Pr0 2.852308 1_555
Cl6 Pr1 2.855987 1_555
Cl6 Pr9 3.289669 1_455
Cl7 Pr2 2.837694 1_555
Cl7 Pr1 2.860157 1_554
Cl7 Pr10 3.306611 1_455
Cl8 Pr3 2.827138 1_555
Cl8 Pr2 2.896805 1_555
Cl8 Pr11 3.210325 1_455
Cl9 Pr3 2.924734 1_555
Cl9 Pr4 2.949401 1_555
Cl9 Pr5 2.953275 1_555
Cl9 Pr12 3.185267 1_455
Cl10 Pr4 2.901179 1_555
Cl10 Pr6 2.958465 1_555
Cl10 Pr7 2.995518 1_555
Cl10 Pr13 3.171900 1_455
Cl11 Pr6 2.928055 1_555
Cl11 Pr0 3.010834 1_555
Cl11 Pr8 3.025138 1_555
Cl11 Pr14 3.268730 1_455
Cl12 Pr14 2.827138 1_555
Cl12 Pr9 2.896805 1_555
Cl12 Pr0 3.210341 1_555
Cl13 Pr9 2.837697 1_555
Cl13 Pr10 2.860159 1_556
Cl13 Pr1 3.306619 1_555
Cl14 Pr11 2.852310 1_555
Cl14 Pr10 2.855989 1_555
Cl14 Pr2 3.289677 1_555
Cl15 Pr12 2.928057 1_555
Cl15 Pr11 3.010836 1_555
Cl15 Pr5 3.025138 1_555
Cl15 Pr3 3.268738 1_555
Cl16 Pr13 2.901181 1_555
Cl16 Pr12 2.958468 1_555
Cl16 Pr7 2.995518 1_555
Cl16 Pr4 3.171909 1_555
Cl17 Pr14 2.924737 1_555
Cl17 Pr13 2.949404 1_555
Cl17 Pr8 2.953275 1_555
Cl17 Pr6 3.185275 1_555
Cl18 Pr0 2.852310 1_555
Cl18 Pr1 2.855989 1_555
Cl18 Pr9 3.289677 1_555
Cl19 Pr2 2.837697 1_555
Cl19 Pr1 2.860159 1_554
Cl19 Pr10 3.306619 1_555
Cl20 Pr3 2.827138 1_555
Cl20 Pr2 2.896805 1_555
Cl20 Pr11 3.210341 1_555
Cl21 Pr3 2.924737 1_555
Cl21 Pr4 2.949404 1_555
Cl21 Pr5 2.953275 1_665
Cl21 Pr12 3.185275 1_555
Cl22 Pr4 2.901181 1_555
Cl22 Pr6 2.958468 1_555
Cl22 Pr7 2.995518 1_665
Cl22 Pr13 3.171909 1_555
Cl23 Pr6 2.928057 1_555
Cl23 Pr0 3.010836 1_555
Cl23 Pr8 3.025138 1_665
Cl23 Pr14 3.268738 1_555
Cl24 Pr14 2.827138 1_555
Cl24 Pr9 2.896805 1_555
Cl24 Pr0 3.210325 1_655
Cl25 Pr9 2.837694 1_555
Cl25 Pr10 2.860157 1_556
Cl25 Pr1 3.306611 1_655
Cl26 Pr11 2.852308 1_555
Cl26 Pr10 2.855987 1_555
Cl26 Pr2 3.289669 1_655
Cl27 Pr12 2.928055 1_555
Cl27 Pr11 3.010834 1_555
Cl27 Pr5 3.025138 1_665
Cl27 Pr3 3.268730 1_655
Cl28 Pr13 2.901179 1_555
Cl28 Pr12 2.958465 1_555
Cl28 Pr7 2.995518 1_665
Cl28 Pr4 3.171900 1_655
Cl29 Pr14 2.924734 1_555
Cl29 Pr13 2.949401 1_555
Cl29 Pr8 2.953275 1_665
Cl29 Pr6 3.185267 1_655
Cl30 Pr14 2.827138 1_555
Cl30 Pr9 2.896805 1_555
Cl30 Pr0 3.210331 1_545
Cl31 Pr9 2.837691 1_555
Cl31 Pr10 2.860153 1_556
Cl31 Pr1 3.306614 1_545
Cl32 Pr11 2.852304 1_555
Cl32 Pr10 2.855983 1_555
Cl32 Pr2 3.289672 1_545
Cl33 Pr12 2.928050 1_555
Cl33 Pr11 3.010830 1_555
Cl33 Pr5 3.025138 1_655
Cl33 Pr3 3.268734 1_545
Cl34 Pr13 2.901175 1_555
Cl34 Pr12 2.958462 1_555
Cl34 Pr7 2.995518 1_655
Cl34 Pr4 3.171904 1_545
Cl35 Pr14 2.924731 1_555
Cl35 Pr13 2.949397 1_555
Cl35 Pr8 2.953274 1_655
Cl35 Pr6 3.185271 1_545
