# generated using pymatgen
data_Cs2VTe3
_symmetry_space_group_name_H-M   'P 1'
_cell_length_a   8.54215375
_cell_length_b   8.54215348
_cell_length_c   10.97217398
_cell_angle_alpha   118.90917706
_cell_angle_beta   118.90917582
_cell_angle_gamma   55.68087132
_symmetry_Int_Tables_number   1
_chemical_formula_structural   Cs2VTe3
_chemical_formula_sum   'Cs4 V2 Te6'
_cell_volume   553.67545128
_cell_formula_units_Z   2
loop_
 _symmetry_equiv_pos_site_id
 _symmetry_equiv_pos_as_xyz
  1  'x, y, z'
loop_
 _atom_site_type_symbol
 _atom_site_label
 _atom_site_symmetry_multiplicity
 _atom_site_fract_x
 _atom_site_fract_y
 _atom_site_fract_z
 _atom_site_occupancy
  Cs  Cs0  1  0.30382741  0.30382741  0.18257225  1
  Cs  Cs1  1  0.08805549  0.08805549  0.36619531  1
  Cs  Cs2  1  0.91194451  0.91194451  0.63380469  1
  Cs  Cs3  1  0.69617259  0.69617259  0.81742675  1
  V  V0  1  0.60572628  0.60572628  0.16408265  1
  V  V1  1  0.39427272  0.39427272  0.83591735  1
  Te  Te0  1  0.75254832  0.24745168  1.00000000  1
  Te  Te1  1  0.24745168  0.75254832  0.00000000  1
  Te  Te2  1  0.79266733  0.79266733  0.22455953  1
  Te  Te3  1  0.60922052  0.60922052  0.39596873  1
  Te  Te4  1  0.39077948  0.39077948  0.60403127  1
  Te  Te5  1  0.20733267  0.20733267  0.77544047  1
loop_
_geom_bond_atom_site_label_1
_geom_bond_atom_site_label_2
_geom_bond_distance
_geom_bond_site_symmetry_2
Cs0 Te3 3.867254 1_555
Cs0 Te5 3.867822 1_554
Cs0 Te2 4.029879 1_545
Cs0 Te2 4.029879 1_455
Cs0 Te4 4.058087 1_555
Cs0 Te1 4.350212 1_545
Cs0 Te0 4.350212 1_454
Cs1 Te5 3.816135 1_555
Cs1 Te4 3.830825 1_555
Cs1 Te2 3.839972 1_445
Cs1 Te1 3.995915 1_545
Cs1 Te0 3.995915 1_454
Cs1 Te3 4.001135 1_455
Cs1 Te3 4.001135 1_545
Cs2 Te2 3.816135 1_555
Cs2 Te3 3.830825 1_555
Cs2 Te5 3.839972 1_665
Cs2 Te0 3.995915 1_565
Cs2 Te1 3.995915 1_656
Cs2 Te4 4.001135 1_655
Cs2 Te4 4.001135 1_565
Cs3 Te4 3.867254 1_555
Cs3 Te2 3.867833 1_556
Cs3 Te5 4.029877 1_565
Cs3 Te5 4.029877 1_655
Cs3 Te3 4.058076 1_555
Cs3 Te0 4.350210 1_565
Cs3 Te1 4.350211 1_656
Te0 V0 2.590035 1_556
Te0 V1 2.590039 1_555
Te1 V0 2.590035 1_555
Te1 V1 2.590039 1_554
Te2 V0 2.523248 1_555
Te3 V0 2.515824 1_555
Te4 V1 2.515832 1_555
Te5 V1 2.523233 1_555
