# generated using pymatgen
data_Cs2RbScSb2
_symmetry_space_group_name_H-M   'P 1'
_cell_length_a   10.27689934
_cell_length_b   10.27709922
_cell_length_c   10.27690058
_cell_angle_alpha   130.28361335
_cell_angle_beta   67.85679170
_cell_angle_gamma   136.91360709
_symmetry_Int_Tables_number   1
_chemical_formula_structural   Cs2RbScSb2
_chemical_formula_sum   'Cs4 Rb2 Sc2 Sb4'
_cell_volume   556.07842128
_cell_formula_units_Z   2
loop_
 _symmetry_equiv_pos_site_id
 _symmetry_equiv_pos_as_xyz
  1  'x, y, z'
loop_
 _atom_site_type_symbol
 _atom_site_label
 _atom_site_symmetry_multiplicity
 _atom_site_fract_x
 _atom_site_fract_y
 _atom_site_fract_z
 _atom_site_occupancy
  Cs  Cs0  1  0.31897196  0.76893016  0.08785473  1
  Cs  Cs1  1  0.18107443  0.26892916  0.44995720  1
  Cs  Cs2  1  0.81892557  0.73107084  0.55004180  1
  Cs  Cs3  1  0.68102804  0.23107084  0.91214527  1
  Rb  Rb0  1  0.25002851  0.25000000  0.00002851  1
  Rb  Rb1  1  0.74997149  0.75000000  0.99997149  1
  Sc  Sc0  1  0.74991671  0.25000000  0.49991771  1
  Sc  Sc1  1  0.25008229  0.75000000  0.50008229  1
  Sb  Sb0  1  0.90962662  0.31571845  0.22504167  1
  Sb  Sb1  1  0.59067677  0.81571845  0.40609183  1
  Sb  Sb2  1  0.40932423  0.18428155  0.59390917  1
  Sb  Sb3  1  0.09037438  0.68428155  0.77495833  1
loop_
_geom_bond_atom_site_label_1
_geom_bond_atom_site_label_2
_geom_bond_distance
_geom_bond_site_symmetry_2
Cs0 Sb2 3.908176 1_565
Cs0 Sb3 3.963358 1_554
Cs0 Sb0 4.096302 1_455
Cs0 Sb0 4.098128 1_565
Cs1 Sb3 3.908162 1_555
Cs1 Sb2 3.963390 1_555
Cs1 Sb1 4.096295 1_445
Cs1 Sb1 4.098129 1_555
Cs2 Sb0 3.908169 1_555
Cs2 Sb1 3.963366 1_555
Cs2 Sb2 4.096301 1_665
Cs2 Sb2 4.098141 1_555
Cs3 Sb1 3.908170 1_545
Cs3 Sb0 3.963374 1_556
Cs3 Sb3 4.096296 1_655
Cs3 Sb3 4.098122 1_545
Rb0 Sb2 3.657130 1_554
Rb0 Sb0 3.657137 1_455
Rb0 Sb1 3.658085 1_555
Rb0 Sb3 3.658090 1_544
Rb1 Sb1 3.657137 1_556
Rb1 Sb3 3.657146 1_655
Rb1 Sb2 3.658078 1_555
Rb1 Sb0 3.658085 1_566
Sb0 Sc0 2.912523 1_555
Sb0 Sc1 2.912656 1_655
Sb1 Sc1 2.912522 1_555
Sb1 Sc0 2.912661 1_565
Sb2 Sc0 2.912504 1_555
Sb2 Sc1 2.912647 1_545
Sb3 Sc1 2.912522 1_555
Sb3 Sc0 2.912665 1_455
