# generated using pymatgen
data_K8ZrBi4
_symmetry_space_group_name_H-M   'P 1'
_cell_length_a   11.74025095
_cell_length_b   11.74025061
_cell_length_c   11.74025084
_cell_angle_alpha   59.99999937
_cell_angle_beta   60.00000033
_cell_angle_gamma   59.99999450
_symmetry_Int_Tables_number   1
_chemical_formula_structural   K8ZrBi4
_chemical_formula_sum   'K16 Zr2 Bi8'
_cell_volume   1144.23995047
_cell_formula_units_Z   2
loop_
 _symmetry_equiv_pos_site_id
 _symmetry_equiv_pos_as_xyz
  1  'x, y, z'
loop_
 _atom_site_type_symbol
 _atom_site_label
 _atom_site_symmetry_multiplicity
 _atom_site_fract_x
 _atom_site_fract_y
 _atom_site_fract_z
 _atom_site_occupancy
  K  K0  1  0.62500000  0.62500000  0.12500000  1
  K  K1  1  0.62500000  0.12500000  0.62500000  1
  K  K2  1  0.12500000  0.62500000  0.62500000  1
  K  K3  1  0.62500000  0.62500000  0.62500000  1
  K  K4  1  0.02878257  0.47121743  0.47121743  1
  K  K5  1  0.77878257  0.22121743  0.22121743  1
  K  K6  1  0.47121743  0.02878257  0.47121743  1
  K  K7  1  0.47121743  0.47121743  0.02878257  1
  K  K8  1  0.02878257  0.02878257  0.47121743  1
  K  K9  1  0.02878257  0.47121743  0.02878257  1
  K  K10  1  0.47121743  0.02878257  0.02878257  1
  K  K11  1  0.77878257  0.22121743  0.77878257  1
  K  K12  1  0.22121743  0.77878257  0.22121743  1
  K  K13  1  0.22121743  0.22121743  0.77878257  1
  K  K14  1  0.77878257  0.77878257  0.22121743  1
  K  K15  1  0.22121743  0.77878257  0.77878257  1
  Zr  Zr0  1  0.75000000  0.75000000  0.75000000  1
  Zr  Zr1  1  0.50000000  0.50000000  0.50000000  1
  Bi  Bi0  1  0.85210974  0.85210974  0.44367178  1
  Bi  Bi1  1  0.85210974  0.44367178  0.85210974  1
  Bi  Bi2  1  0.39789026  0.39789026  0.80632822  1
  Bi  Bi3  1  0.39789026  0.80632822  0.39789026  1
  Bi  Bi4  1  0.80632822  0.39789026  0.39789026  1
  Bi  Bi5  1  0.85210974  0.85210974  0.85210974  1
  Bi  Bi6  1  0.44367178  0.85210974  0.85210974  1
  Bi  Bi7  1  0.39789026  0.39789026  0.39789026  1
loop_
_geom_bond_atom_site_label_1
_geom_bond_atom_site_label_2
_geom_bond_distance
_geom_bond_site_symmetry_2
K0 Zr0 3.594703 1_554
K0 Zr1 3.594703 1_555
K0 K10 3.890226 1_565
K0 K5 3.890226 1_555
K0 K9 3.890226 1_655
K0 K12 3.890226 1_555
K0 K14 3.890227 1_555
K0 K7 3.890227 1_555
K1 Zr1 3.594703 1_555
K1 Zr0 3.594703 1_545
K1 K8 3.890227 1_655
K1 K13 3.890227 1_555
K1 K11 3.890227 1_555
K1 K6 3.890227 1_555
K1 K10 3.890227 1_556
K1 K5 3.890227 1_555
K2 Zr0 3.594703 1_455
K2 Zr1 3.594703 1_555
K2 K8 3.890226 1_565
K2 K9 3.890227 1_556
K2 K4 3.890227 1_555
K3 Zr0 3.594703 1_555
K3 Zr1 3.594703 1_555
K3 K6 3.890226 1_565
K3 K4 3.890226 1_655
K3 K7 3.890227 1_556
K5 K7 4.205464 1_555
K5 K8 4.205464 1_655
K5 K9 4.205465 1_655
K5 K6 4.205465 1_555
K10 K14 4.205464 1_545
K10 K13 4.205464 1_554
K10 K12 4.205465 1_545
K10 K11 4.205465 1_554
K11 K3 3.890226 1_555
K11 K7 4.205464 1_556
K11 K8 4.205464 1_655
K11 K4 4.205465 1_655
K12 K2 3.890227 1_555
K12 K7 4.205464 1_555
K12 K8 4.205464 1_565
K12 K4 4.205465 1_555
K13 K2 3.890226 1_555
K13 K4 4.205464 1_555
K13 K9 4.205464 1_556
K13 K6 4.205464 1_555
K14 K3 3.890227 1_555
K14 K4 4.205464 1_655
K14 K9 4.205464 1_655
K14 K6 4.205464 1_565
K15 K3 3.890226 1_555
K15 K2 3.890227 1_555
K15 K7 4.205464 1_556
K15 K8 4.205464 1_565
K15 K9 4.205465 1_556
K15 K6 4.205465 1_565
Bi0 Zr0 2.936424 1_555
Bi0 K5 3.679777 1_565
Bi0 K12 3.679778 1_655
Bi0 K14 3.679786 1_555
Bi0 K8 3.788515 1_665
Bi0 K4 3.788525 1_655
Bi0 K6 3.788525 1_565
Bi0 K1 3.808858 1_565
Bi0 K2 3.808858 1_655
Bi0 K3 3.808868 1_555
Bi1 Zr0 2.936424 1_555
Bi1 K13 3.679777 1_655
Bi1 K5 3.679778 1_556
Bi1 K11 3.679786 1_555
Bi1 K9 3.788515 1_656
Bi1 K7 3.788525 1_556
Bi1 K4 3.788525 1_655
Bi1 K0 3.808859 1_556
Bi1 K2 3.808859 1_655
Bi1 K3 3.808868 1_555
Bi2 Zr1 2.936424 1_555
Bi2 K10 3.679777 1_556
Bi2 K9 3.679778 1_556
Bi2 K7 3.679786 1_556
Bi2 K13 3.788515 1_555
Bi2 K15 3.788525 1_555
Bi2 K11 3.788525 1_555
Bi2 K1 3.808858 1_555
Bi2 K2 3.808858 1_555
Bi2 K3 3.808868 1_555
Bi3 Zr1 2.936424 1_555
Bi3 K8 3.679777 1_565
Bi3 K10 3.679778 1_565
Bi3 K6 3.679786 1_565
Bi3 K12 3.788515 1_555
Bi3 K14 3.788525 1_555
Bi3 K15 3.788525 1_555
Bi3 K0 3.808859 1_555
Bi3 K2 3.808859 1_555
Bi3 K3 3.808868 1_555
Bi4 Zr1 2.936424 1_555
Bi4 K8 3.679777 1_655
Bi4 K9 3.679778 1_655
Bi4 K4 3.679786 1_655
Bi4 K5 3.788515 1_555
Bi4 K14 3.788525 1_555
Bi4 K11 3.788525 1_555
Bi4 K0 3.808859 1_555
Bi4 K1 3.808859 1_555
Bi4 K3 3.808868 1_555
Bi5 Zr0 2.936434 1_555
Bi5 K11 3.679775 1_565
Bi5 K15 3.679775 1_655
Bi5 K14 3.679775 1_556
Bi5 K9 3.788522 1_656
Bi5 K10 3.788522 1_566
Bi5 K8 3.788522 1_665
Bi5 K1 3.808866 1_565
Bi5 K2 3.808866 1_655
Bi5 K0 3.808866 1_556
Bi6 Zr0 2.936424 1_555
Bi6 K13 3.679777 1_565
Bi6 K12 3.679778 1_556
Bi6 K15 3.679786 1_555
Bi6 K10 3.788515 1_566
Bi6 K7 3.788525 1_556
Bi6 K6 3.788525 1_565
Bi6 K0 3.808859 1_556
Bi6 K1 3.808859 1_565
Bi6 K3 3.808868 1_555
Bi7 Zr1 2.936434 1_555
Bi7 K6 3.679775 1_555
Bi7 K4 3.679775 1_555
Bi7 K7 3.679775 1_555
Bi7 K12 3.788522 1_555
Bi7 K5 3.788522 1_555
Bi7 K13 3.788522 1_555
Bi7 K1 3.808866 1_555
Bi7 K2 3.808866 1_555
Bi7 K0 3.808866 1_555
