# generated using pymatgen
data_Ba4NaBi2As
_symmetry_space_group_name_H-M   'P 1'
_cell_length_a   9.12566983
_cell_length_b   10.39450183
_cell_length_c   13.85911108
_cell_angle_alpha   90.00000000
_cell_angle_beta   90.00000000
_cell_angle_gamma   90.00000000
_symmetry_Int_Tables_number   1
_chemical_formula_structural   Ba4NaBi2As
_chemical_formula_sum   'Ba16 Na4 Bi8 As4'
_cell_volume   1314.63081334
_cell_formula_units_Z   4
loop_
 _symmetry_equiv_pos_site_id
 _symmetry_equiv_pos_as_xyz
  1  'x, y, z'
loop_
 _atom_site_type_symbol
 _atom_site_label
 _atom_site_symmetry_multiplicity
 _atom_site_fract_x
 _atom_site_fract_y
 _atom_site_fract_z
 _atom_site_occupancy
  Ba  Ba0  1  0.84631922  0.75000000  0.79280488  1
  Ba  Ba1  1  0.15368078  0.25000000  0.20719512  1
  Ba  Ba2  1  0.34631922  0.25000000  0.70719512  1
  Ba  Ba3  1  0.65368078  0.75000000  0.29280488  1
  Ba  Ba4  1  0.70338805  0.50296349  0.56164592  1
  Ba  Ba5  1  0.29661195  0.49703651  0.43835408  1
  Ba  Ba6  1  0.20338805  0.49703651  0.93835408  1
  Ba  Ba7  1  0.29661195  0.00296349  0.43835408  1
  Ba  Ba8  1  0.79661195  0.50296349  0.06164592  1
  Ba  Ba9  1  0.70338805  0.99703651  0.56164592  1
  Ba  Ba10  1  0.79661195  0.99703651  0.06164592  1
  Ba  Ba11  1  0.20338805  0.00296349  0.93835408  1
  Ba  Ba12  1  0.34272284  0.75000000  0.70831578  1
  Ba  Ba13  1  0.65727716  0.25000000  0.29168422  1
  Ba  Ba14  1  0.84272284  0.25000000  0.79168422  1
  Ba  Ba15  1  0.15727716  0.75000000  0.20831578  1
  Na  Na0  1  0.00689161  0.75000000  0.50027640  1
  Na  Na1  1  0.99310839  0.25000000  0.49972360  1
  Na  Na2  1  0.50689161  0.25000000  0.99972360  1
  Na  Na3  1  0.49310839  0.75000000  0.00027640  1
  Bi  Bi0  1  0.56710884  0.50116722  0.83336301  1
  Bi  Bi1  1  0.43289116  0.49883278  0.16663699  1
  Bi  Bi2  1  0.06710884  0.49883278  0.66663699  1
  Bi  Bi3  1  0.43289116  0.00116722  0.16663699  1
  Bi  Bi4  1  0.93289116  0.50116722  0.33336301  1
  Bi  Bi5  1  0.56710884  0.99883278  0.83336301  1
  Bi  Bi6  1  0.93289116  0.99883278  0.33336301  1
  Bi  Bi7  1  0.06710884  0.00116722  0.66663699  1
  As  As0  1  0.00634668  0.75000000  0.99874912  1
  As  As1  1  0.99365332  0.25000000  0.00125088  1
  As  As2  1  0.50634668  0.25000000  0.50125088  1
  As  As3  1  0.49365332  0.75000000  0.49874912  1
loop_
_geom_bond_atom_site_label_1
_geom_bond_atom_site_label_2
_geom_bond_distance
_geom_bond_site_symmetry_2
Ba0 Bi5 3.673978 1_555
Ba0 Bi0 3.673978 1_555
Ba0 Bi7 3.732721 1_665
Ba0 Bi2 3.732721 1_655
Ba1 Bi1 3.673978 1_555
Ba1 Bi3 3.673978 1_555
Ba1 Bi4 3.732721 1_455
Ba1 Bi6 3.732721 1_445
Ba2 Bi2 3.673978 1_555
Ba2 Bi7 3.673978 1_555
Ba2 Bi0 3.732721 1_555
Ba2 Bi5 3.732721 1_545
Ba3 Bi6 3.673978 1_555
Ba3 Bi4 3.673978 1_555
Ba3 Bi3 3.732721 1_565
Ba3 Bi1 3.732721 1_555
Ba4 Bi2 3.624386 1_655
Ba4 Bi4 3.794253 1_555
Ba4 Bi0 3.965843 1_555
Ba5 Bi4 3.624386 1_455
Ba5 Bi2 3.794253 1_555
Ba5 Bi1 3.965843 1_555
Ba6 Bi0 3.624386 1_555
Ba6 Bi1 3.794253 1_556
Ba6 Bi2 3.965843 1_555
Ba7 Bi6 3.624386 1_445
Ba7 Bi7 3.794253 1_555
Ba7 Bi3 3.965843 1_555
Ba8 Bi1 3.624386 1_555
Ba8 Bi0 3.794253 1_554
Ba8 Bi4 3.965843 1_555
Ba9 Bi7 3.624386 1_665
Ba9 Bi6 3.794253 1_555
Ba9 Bi5 3.965843 1_555
Ba10 Bi3 3.624386 1_565
Ba10 Bi5 3.794253 1_554
Ba10 Bi6 3.965843 1_555
Ba11 Bi5 3.624386 1_545
Ba11 Bi3 3.794253 1_556
Ba11 Bi7 3.965843 1_555
Ba12 Bi7 3.670934 1_565
Ba12 Bi2 3.670934 1_555
Ba12 Bi5 3.726439 1_555
Ba12 Bi0 3.726439 1_555
Ba13 Bi4 3.670934 1_555
Ba13 Bi6 3.670934 1_545
Ba13 Bi1 3.726439 1_555
Ba13 Bi3 3.726439 1_555
Ba14 Bi0 3.670934 1_555
Ba14 Bi5 3.670934 1_545
Ba14 Bi2 3.726439 1_655
Ba14 Bi7 3.726439 1_655
Ba15 Bi3 3.670934 1_565
Ba15 Bi1 3.670934 1_555
Ba15 Bi6 3.726439 1_455
Ba15 Bi4 3.726439 1_455
Bi0 Na2 3.526169 1_555
Bi0 Na3 3.535138 1_556
Bi1 Na3 3.526169 1_555
Bi1 Na2 3.535138 1_554
Bi2 Na0 3.526169 1_555
Bi2 Na1 3.535138 1_455
Bi3 Na3 3.526169 1_545
Bi3 Na2 3.535138 1_554
Bi4 Na1 3.526169 1_555
Bi4 Na0 3.535138 1_655
Bi5 Na2 3.526169 1_565
Bi5 Na3 3.535138 1_556
Bi6 Na1 3.526169 1_565
Bi6 Na0 3.535138 1_655
Bi7 Na0 3.526169 1_545
Bi7 Na1 3.535138 1_455
As0 Ba0 3.206108 1_455
As0 Ba15 3.214445 1_556
As0 Ba11 3.293599 1_565
As0 Ba6 3.293599 1_555
As0 Ba10 3.319162 1_456
As0 Ba8 3.319162 1_456
As1 Ba1 3.206108 1_655
As1 Ba14 3.214445 1_554
As1 Ba8 3.293599 1_555
As1 Ba10 3.293599 1_545
As1 Ba6 3.319162 1_654
As1 Ba11 3.319162 1_654
As2 Ba2 3.206108 1_555
As2 Ba13 3.214445 1_555
As2 Ba4 3.293599 1_555
As2 Ba9 3.293599 1_545
As2 Ba5 3.319162 1_555
As2 Ba7 3.319162 1_555
As3 Ba3 3.206108 1_555
As3 Ba12 3.214445 1_555
As3 Ba7 3.293599 1_565
As3 Ba5 3.293599 1_555
As3 Ba9 3.319162 1_555
As3 Ba4 3.319162 1_555
