# generated using pymatgen
data_RbSrAsS4
_symmetry_space_group_name_H-M   'P 1'
_cell_length_a   6.83970749
_cell_length_b   6.88743895
_cell_length_c   17.32536919
_cell_angle_alpha   90.00000000
_cell_angle_beta   90.00000000
_cell_angle_gamma   90.00000000
_symmetry_Int_Tables_number   1
_chemical_formula_structural   RbSrAsS4
_chemical_formula_sum   'Rb4 Sr4 As4 S16'
_cell_volume   816.16466673
_cell_formula_units_Z   4
loop_
 _symmetry_equiv_pos_site_id
 _symmetry_equiv_pos_as_xyz
  1  'x, y, z'
loop_
 _atom_site_type_symbol
 _atom_site_label
 _atom_site_symmetry_multiplicity
 _atom_site_fract_x
 _atom_site_fract_y
 _atom_site_fract_z
 _atom_site_occupancy
  Rb  Rb0  1  0.96180202  0.00348407  0.03469565  1
  Rb  Rb1  1  0.46180202  0.49651593  0.96530435  1
  Rb  Rb2  1  0.03819798  0.50348407  0.46530435  1
  Rb  Rb3  1  0.53819798  0.99651593  0.53469565  1
  Sr  Sr0  1  0.28678194  0.48205092  0.22454636  1
  Sr  Sr1  1  0.78678194  0.01794908  0.77545364  1
  Sr  Sr2  1  0.71321806  0.98205092  0.27545364  1
  Sr  Sr3  1  0.21321806  0.51794908  0.72454636  1
  As  As0  1  0.21829802  0.00901846  0.34227741  1
  As  As1  1  0.28170198  0.99098154  0.84227741  1
  As  As2  1  0.71829802  0.49098154  0.65772259  1
  As  As3  1  0.78170198  0.50901846  0.15772259  1
  S  S0  1  0.36692453  0.96217059  0.72202567  1
  S  S1  1  0.13307547  0.03782941  0.22202567  1
  S  S2  1  0.41583254  0.24732838  0.36676026  1
  S  S3  1  0.91583254  0.25267162  0.63323974  1
  S  S4  1  0.89156411  0.75112368  0.64009702  1
  S  S5  1  0.96873702  0.00896203  0.41825918  1
  S  S6  1  0.03126298  0.50896203  0.08174082  1
  S  S7  1  0.10843589  0.25112368  0.85990298  1
  S  S8  1  0.63307547  0.46217059  0.77797433  1
  S  S9  1  0.08416746  0.75267162  0.86676026  1
  S  S10  1  0.58416746  0.74732838  0.13323974  1
  S  S11  1  0.86692453  0.53782941  0.27797433  1
  S  S12  1  0.39156411  0.74887632  0.35990298  1
  S  S13  1  0.46873702  0.49103797  0.58174082  1
  S  S14  1  0.53126298  0.99103797  0.91825918  1
  S  S15  1  0.60843589  0.24887632  0.14009702  1
loop_
_geom_bond_atom_site_label_1
_geom_bond_atom_site_label_2
_geom_bond_distance
_geom_bond_site_symmetry_2
Rb0 S1 3.458605 1_655
Rb0 S15 3.468823 1_555
Rb0 S9 3.485687 1_644
Rb0 S6 3.534237 1_645
Rb0 S10 3.563557 1_545
Rb0 S14 3.570502 1_544
Rb0 S6 3.607013 1_655
Rb0 S7 3.617436 1_654
Rb1 S8 3.458605 1_555
Rb1 S7 3.468823 1_555
Rb1 S10 3.485687 1_556
Rb1 S14 3.534237 1_555
Rb1 S9 3.563557 1_555
Rb1 S6 3.570502 1_556
Rb1 S14 3.607013 1_545
Rb1 S15 3.617436 1_556
Rb2 S11 3.458605 1_455
Rb2 S12 3.468823 1_555
Rb2 S3 3.485687 1_455
Rb2 S5 3.534237 1_455
Rb2 S2 3.563557 1_555
Rb2 S13 3.570502 1_555
Rb2 S5 3.607013 1_465
Rb2 S4 3.617436 1_455
Rb3 S0 3.458605 1_555
Rb3 S4 3.468823 1_555
Rb3 S2 3.485687 1_565
Rb3 S13 3.534237 1_565
Rb3 S3 3.563557 1_565
Rb3 S5 3.570502 1_565
Rb3 S13 3.607013 1_555
Rb3 S12 3.617436 1_555
As0 S5 2.155581 1_455
As0 S2 2.167798 1_555
As0 S12 2.169775 1_545
As0 S1 2.172493 1_555
As1 S14 2.155581 1_555
As1 S9 2.167798 1_555
As1 S7 2.169775 1_565
As1 S0 2.172493 1_555
As2 S13 2.155581 1_555
As2 S3 2.167798 1_555
As2 S4 2.169775 1_555
As2 S8 2.172493 1_555
As3 S6 2.155581 1_655
As3 S10 2.167798 1_555
As3 S15 2.169775 1_555
As3 S11 2.172493 1_555
S0 Sr1 3.041563 1_565
S0 Sr3 3.235428 1_555
S1 Sr2 3.041563 1_445
S1 Sr0 3.235428 1_555
S2 Sr0 3.076274 1_555
S2 Sr2 3.158794 1_545
S3 Sr1 3.076274 1_555
S3 Sr3 3.158794 1_655
S4 Sr1 3.064383 1_565
S4 Sr3 3.091917 1_655
S5 Sr2 3.034828 1_545
S6 Sr0 3.034828 1_555
S7 Sr3 3.064383 1_555
S7 Sr1 3.091917 1_455
S8 Sr3 3.041563 1_555
S8 Sr1 3.235428 1_555
S9 Sr3 3.076274 1_555
S9 Sr1 3.158794 1_465
S10 Sr2 3.076274 1_555
S10 Sr0 3.158794 1_555
S11 Sr0 3.041563 1_655
S11 Sr2 3.235428 1_555
S12 Sr0 3.064383 1_555
S12 Sr2 3.091917 1_555
S13 Sr3 3.034828 1_555
S14 Sr1 3.034828 1_565
S15 Sr2 3.064383 1_545
S15 Sr0 3.091917 1_555
