# generated using pymatgen
data_Sc12InNi4Rh
_symmetry_space_group_name_H-M   'P 1'
_cell_length_a   7.74467843
_cell_length_b   7.74467826
_cell_length_c   7.74467756
_cell_angle_alpha   111.26902548
_cell_angle_beta   110.68654661
_cell_angle_gamma   106.49892515
_symmetry_Int_Tables_number   1
_chemical_formula_structural   Sc12InNi4Rh
_chemical_formula_sum   'Sc12 In1 Ni4 Rh1'
_cell_volume   356.86559012
_cell_formula_units_Z   1
loop_
 _symmetry_equiv_pos_site_id
 _symmetry_equiv_pos_as_xyz
  1  'x, y, z'
loop_
 _atom_site_type_symbol
 _atom_site_label
 _atom_site_symmetry_multiplicity
 _atom_site_fract_x
 _atom_site_fract_y
 _atom_site_fract_z
 _atom_site_occupancy
  Sc  Sc0  1  0.41883543  0.22328533  0.19554910  1
  Sc  Sc1  1  0.58116457  0.77671467  0.80445090  1
  Sc  Sc2  1  0.02773723  0.22328533  0.80445090  1
  Sc  Sc3  1  0.97226277  0.77671467  0.19554910  1
  Sc  Sc4  1  0.32284181  0.62396738  0.30112457  1
  Sc  Sc5  1  0.67715819  0.37603262  0.69887543  1
  Sc  Sc6  1  0.32284181  0.02171624  0.69887543  1
  Sc  Sc7  1  0.67715819  0.97828376  0.30112457  1
  Sc  Sc8  1  0.18356322  0.28337954  0.46694376  1
  Sc  Sc9  1  0.81643678  0.71661946  0.53305624  1
  Sc  Sc10  1  0.18356322  0.71661946  0.90018268  1
  Sc  Sc11  1  0.81643678  0.28337954  0.09981732  1
  In  In0  1  0.50000000  0.50000000  0.00000000  1
  Ni  Ni0  1  0.35543073  1.00000000  0.35543073  1
  Ni  Ni1  1  0.64456927  0.00000000  0.64456927  1
  Ni  Ni2  1  0.12492129  0.62492129  0.50000000  1
  Ni  Ni3  1  0.87507871  0.37507871  0.50000000  1
  Rh  Rh0  1  0.00000000  0.00000000  0.00000000  1
loop_
_geom_bond_atom_site_label_1
_geom_bond_atom_site_label_2
_geom_bond_distance
_geom_bond_site_symmetry_2
In0 Sc3 3.089261 1_555
In0 Sc2 3.089261 1_554
In0 Sc1 3.089265 1_554
In0 Sc0 3.089265 1_555
In0 Sc4 3.102811 1_555
In0 Sc5 3.102811 1_554
In0 Sc7 3.102816 1_555
In0 Sc6 3.102816 1_554
In0 Sc8 3.369822 1_554
In0 Sc9 3.369824 1_555
In0 Sc10 3.369824 1_554
In0 Sc11 3.369830 1_555
Ni0 Sc0 2.503089 1_565
Ni0 Sc3 2.503094 1_455
Ni0 Ni1 2.546776 1_565
Ni0 Sc4 2.709372 1_555
Ni0 Sc5 2.709376 1_565
Ni0 Sc7 2.709377 1_555
Ni0 Sc6 2.709381 1_565
Ni0 Sc8 2.903538 1_565
Ni0 Sc10 2.903543 1_554
Ni0 Rh0 3.130688 1_565
Ni1 Sc1 2.503089 1_545
Ni1 Sc2 2.503094 1_655
Ni1 Sc5 2.709372 1_555
Ni1 Sc4 2.709376 1_545
Ni1 Sc6 2.709377 1_555
Ni1 Sc7 2.709381 1_545
Ni1 Sc11 2.903542 1_556
Ni1 Sc9 2.903544 1_545
Ni1 Rh0 3.130688 1_656
Ni2 Ni3 2.315486 1_455
Ni2 Sc6 2.527463 1_565
Ni2 Sc4 2.527470 1_555
Ni2 Sc10 2.746212 1_555
Ni2 Sc9 2.746212 1_455
Ni2 Sc11 2.746214 1_455
Ni2 Sc8 2.746220 1_555
Ni2 Sc1 3.028244 1_555
Ni2 Sc3 3.028252 1_455
Ni3 Sc7 2.527463 1_545
Ni3 Sc5 2.527470 1_555
Ni3 Sc11 2.746210 1_555
Ni3 Sc10 2.746212 1_655
Ni3 Sc9 2.746212 1_555
Ni3 Sc8 2.746216 1_655
Ni3 Sc0 3.028244 1_555
Ni3 Sc2 3.028252 1_655
Rh0 Sc2 2.692397 1_554
Rh0 Sc3 2.692397 1_445
Rh0 Sc0 2.692403 1_555
Rh0 Sc1 2.692403 1_444
Rh0 Sc11 2.958555 1_455
Rh0 Sc8 2.958559 1_555
Rh0 Sc9 2.958561 1_444
Rh0 Sc10 2.958561 1_544
