# generated using pymatgen
data_Rb6ScBiSe3
_symmetry_space_group_name_H-M   'P 1'
_cell_length_a   10.88338338
_cell_length_b   10.88338251
_cell_length_c   8.79273980
_cell_angle_alpha   90.00000000
_cell_angle_beta   90.00000000
_cell_angle_gamma   119.99999668
_symmetry_Int_Tables_number   1
_chemical_formula_structural   Rb6ScBiSe3
_chemical_formula_sum   'Rb12 Sc2 Bi2 Se6'
_cell_volume   901.95046888
_cell_formula_units_Z   2
loop_
 _symmetry_equiv_pos_site_id
 _symmetry_equiv_pos_as_xyz
  1  'x, y, z'
loop_
 _atom_site_type_symbol
 _atom_site_label
 _atom_site_symmetry_multiplicity
 _atom_site_fract_x
 _atom_site_fract_y
 _atom_site_fract_z
 _atom_site_occupancy
  Rb  Rb0  1  0.14177047  0.85822953  0.53497303  1
  Rb  Rb1  1  0.28353993  0.14177047  0.03497303  1
  Rb  Rb2  1  0.85822953  0.71646007  0.03497303  1
  Rb  Rb3  1  0.14177047  0.28353993  0.53497303  1
  Rb  Rb4  1  0.71646007  0.85822953  0.53497303  1
  Rb  Rb5  1  0.85822953  0.14177047  0.03497303  1
  Rb  Rb6  1  0.52801902  0.47198098  0.37433825  1
  Rb  Rb7  1  0.05603904  0.52801902  0.87433825  1
  Rb  Rb8  1  0.47198098  0.94396096  0.87433825  1
  Rb  Rb9  1  0.52801902  0.05603904  0.37433825  1
  Rb  Rb10  1  0.94396096  0.47198098  0.37433825  1
  Rb  Rb11  1  0.47198098  0.52801902  0.87433825  1
  Sc  Sc0  1  0.33333300  0.66666700  0.24497735  1
  Sc  Sc1  1  0.66666700  0.33333300  0.74497735  1
  Bi  Bi0  1  0.33333300  0.66666700  0.57104320  1
  Bi  Bi1  1  0.66666700  0.33333300  0.07104320  1
  Se  Se0  1  0.19950459  0.80049541  0.15524854  1
  Se  Se1  1  0.39900819  0.19950459  0.65524854  1
  Se  Se2  1  0.80049541  0.60099181  0.65524854  1
  Se  Se3  1  0.19950459  0.39900819  0.15524854  1
  Se  Se4  1  0.60099181  0.80049541  0.15524854  1
  Se  Se5  1  0.80049541  0.19950459  0.65524854  1
loop_
_geom_bond_atom_site_label_1
_geom_bond_atom_site_label_2
_geom_bond_distance
_geom_bond_site_symmetry_2
Rb0 Se0 3.511717 1_555
Rb0 Se1 3.514732 1_565
Rb0 Se2 3.514732 1_455
Rb1 Se1 3.511717 1_554
Rb1 Se3 3.514717 1_555
Rb1 Se0 3.514737 1_545
Rb2 Se2 3.511717 1_554
Rb2 Se4 3.514717 1_555
Rb2 Se0 3.514738 1_655
Rb3 Se3 3.511717 1_555
Rb3 Se1 3.514717 1_555
Rb3 Se5 3.514738 1_455
Rb4 Se4 3.511717 1_555
Rb4 Se2 3.514717 1_555
Rb4 Se5 3.514737 1_565
Rb5 Se5 3.511717 1_554
Rb5 Se4 3.514732 1_545
Rb5 Se3 3.514732 1_655
Rb6 Se1 3.564047 1_555
Rb6 Se2 3.564047 1_555
Rb6 Se4 3.779598 1_555
Rb6 Se3 3.779598 1_555
Rb7 Se3 3.564047 1_556
Rb7 Se0 3.564047 1_556
Rb7 Se5 3.779603 1_455
Rb7 Se2 3.779616 1_455
Rb8 Se4 3.564047 1_556
Rb8 Se0 3.564047 1_556
Rb8 Se5 3.779604 1_565
Rb8 Se1 3.779616 1_565
Rb9 Se1 3.564047 1_555
Rb9 Se5 3.564047 1_555
Rb9 Se0 3.779604 1_545
Rb9 Se4 3.779616 1_545
Rb10 Se2 3.564047 1_555
Rb10 Se5 3.564047 1_555
Rb10 Se0 3.779603 1_655
Rb10 Se3 3.779616 1_655
Rb11 Se4 3.564047 1_556
Rb11 Se3 3.564047 1_556
Rb11 Se1 3.779598 1_555
Rb11 Se2 3.779598 1_555
Sc0 Se0 2.643234 1_555
Sc0 Se3 2.643252 1_555
Sc0 Se4 2.643253 1_555
Sc1 Se5 2.643234 1_555
Sc1 Se2 2.643252 1_555
Sc1 Se1 2.643253 1_555
Bi0 Sc0 2.867012 1_555
Bi0 Rb0 3.624964 1_555
Bi0 Rb3 3.624983 1_555
Bi0 Rb4 3.624983 1_555
Bi0 Rb8 3.733975 1_555
Bi0 Rb7 3.733975 1_555
Bi0 Rb11 3.733988 1_555
Bi0 Rb6 4.057082 1_555
Bi0 Rb9 4.057082 1_565
Bi0 Rb10 4.057082 1_455
Bi1 Sc1 2.867012 1_554
Bi1 Rb5 3.624964 1_555
Bi1 Rb2 3.624983 1_555
Bi1 Rb1 3.624983 1_555
Bi1 Rb9 3.733975 1_555
Bi1 Rb10 3.733975 1_555
Bi1 Rb6 3.733988 1_555
Bi1 Rb11 4.057082 1_554
Bi1 Rb8 4.057082 1_544
Bi1 Rb7 4.057082 1_654
