# generated using pymatgen
data_Hf4Si5GeIr7
_symmetry_space_group_name_H-M   'P 1'
_cell_length_a   6.97666215
_cell_length_b   6.97666189
_cell_length_c   6.97666317
_cell_angle_alpha   109.79419197
_cell_angle_beta   109.79418614
_cell_angle_gamma   108.82718513
_symmetry_Int_Tables_number   1
_chemical_formula_structural   Hf4Si5GeIr7
_chemical_formula_sum   'Hf4 Si5 Ge1 Ir7'
_cell_volume   261.38472060
_cell_formula_units_Z   1
loop_
 _symmetry_equiv_pos_site_id
 _symmetry_equiv_pos_as_xyz
  1  'x, y, z'
loop_
 _atom_site_type_symbol
 _atom_site_label
 _atom_site_symmetry_multiplicity
 _atom_site_fract_x
 _atom_site_fract_y
 _atom_site_fract_z
 _atom_site_occupancy
  Hf  Hf0  1  0.47822348  0.47822348  0.47694022  1
  Hf  Hf1  1  0.00128426  0.00128426  0.52305978  1
  Hf  Hf2  1  0.00128426  0.47822348  0.00000000  1
  Hf  Hf3  1  0.47822348  0.00128426  0.00000000  1
  Si  Si0  1  0.99519186  0.31440216  0.31921030  1
  Si  Si1  1  0.31440216  0.99519186  0.31921030  1
  Si  Si2  1  0.33225024  0.33225024  1.00000000  1
  Si  Si3  1  0.99519186  0.67598155  0.68078970  1
  Si  Si4  1  0.67598155  0.99519186  0.68078970  1
  Ge  Ge0  1  0.69818116  0.69818116  0.00000000  1
  Ir  Ir0  1  0.50067056  0.75287117  0.25220061  1
  Ir  Ir1  1  0.24847096  0.50067056  0.74779939  1
  Ir  Ir2  1  0.75007085  0.25007085  0.50000000  1
  Ir  Ir3  1  0.75287117  0.50067056  0.25220061  1
  Ir  Ir4  1  0.50067056  0.24847096  0.74779939  1
  Ir  Ir5  1  0.25007085  0.75007085  0.50000000  1
  Ir  Ir6  1  0.02695576  0.02695576  1.00000000  1
loop_
_geom_bond_atom_site_label_1
_geom_bond_atom_site_label_2
_geom_bond_distance
_geom_bond_site_symmetry_2
Hf0 Si2 2.808309 1_554
Hf0 Si1 2.832733 1_545
Hf0 Si0 2.832733 1_455
Hf0 Ir5 2.841097 1_555
Hf0 Ir2 2.841097 1_555
Hf0 Ir3 2.856904 1_555
Hf0 Ir0 2.856904 1_555
Hf0 Ir1 2.859695 1_555
Hf0 Ir4 2.859695 1_555
Hf0 Si4 2.986596 1_555
Hf0 Si3 2.986596 1_555
Hf0 Ir6 3.210623 1_554
Hf1 Si2 2.808307 1_555
Hf1 Si4 2.832738 1_445
Hf1 Si3 2.832738 1_445
Hf1 Ir5 2.841097 1_545
Hf1 Ir2 2.841097 1_455
Hf1 Ir1 2.856898 1_555
Hf1 Ir4 2.856898 1_555
Hf1 Ir3 2.859706 1_445
Hf1 Ir0 2.859706 1_445
Hf1 Si1 2.986590 1_545
Hf1 Si0 2.986590 1_455
Hf1 Ir6 3.210627 1_555
Hf2 Si2 2.808302 1_554
Hf2 Si0 2.832734 1_455
Hf2 Si4 2.832734 1_444
Hf2 Ir5 2.841098 1_555
Hf2 Ir2 2.841098 1_454
Hf2 Ir0 2.856899 1_555
Hf2 Ir1 2.856904 1_554
Hf2 Ir3 2.859706 1_455
Hf2 Ir4 2.859707 1_454
Hf2 Si3 2.986596 1_454
Hf2 Si1 2.986596 1_555
Hf2 Ir6 3.210619 1_554
Hf3 Si2 2.808302 1_554
Hf3 Si1 2.832734 1_545
Hf3 Si3 2.832734 1_444
Hf3 Ir5 2.841098 1_544
Hf3 Ir2 2.841098 1_555
Hf3 Ir3 2.856899 1_555
Hf3 Ir4 2.856904 1_554
Hf3 Ir0 2.859706 1_545
Hf3 Ir1 2.859706 1_544
Hf3 Si4 2.986595 1_544
Hf3 Si0 2.986596 1_555
Hf3 Ir6 3.210619 1_554
Ge0 Ir4 2.582056 1_554
Ge0 Ir1 2.582056 1_554
Ge0 Ir0 2.582061 1_555
Ge0 Ir3 2.582061 1_555
Ge0 Ir6 2.669603 1_664
Ge0 Hf0 2.986818 1_554
Ge0 Hf1 2.986819 1_665
Ge0 Hf3 2.986823 1_565
Ge0 Hf2 2.986823 1_655
Ir0 Si2 2.442374 1_554
Ir0 Si1 2.461627 1_555
Ir0 Si4 2.461627 1_555
Ir1 Si2 2.442373 1_555
Ir1 Si0 2.461628 1_455
Ir1 Si3 2.461632 1_455
Ir2 Si0 2.462883 1_555
Ir2 Si3 2.462883 1_555
Ir2 Si4 2.527345 1_545
Ir2 Si1 2.527345 1_545
Ir3 Si2 2.442374 1_554
Ir3 Si0 2.461627 1_555
Ir3 Si3 2.461628 1_555
Ir4 Si2 2.442373 1_555
Ir4 Si1 2.461628 1_545
Ir4 Si4 2.461632 1_545
Ir5 Si1 2.462883 1_555
Ir5 Si4 2.462883 1_555
Ir5 Si3 2.527345 1_455
Ir5 Si0 2.527345 1_455
Ir6 Si2 2.478948 1_555
Ir6 Si0 2.574237 1_456
Ir6 Si3 2.574237 1_445
Ir6 Si1 2.574238 1_546
Ir6 Si4 2.574238 1_445
