# generated using pymatgen
data_Sr4Ir6O18F
_symmetry_space_group_name_H-M   'P 1'
_cell_length_a   8.02810699
_cell_length_b   8.02810704
_cell_length_c   8.02810683
_cell_angle_alpha   109.47122011
_cell_angle_beta   109.47122023
_cell_angle_gamma   109.47122448
_symmetry_Int_Tables_number   1
_chemical_formula_structural   Sr4Ir6O18F
_chemical_formula_sum   'Sr4 Ir6 O18 F1'
_cell_volume   398.30663654
_cell_formula_units_Z   1
loop_
 _symmetry_equiv_pos_site_id
 _symmetry_equiv_pos_as_xyz
  1  'x, y, z'
loop_
 _atom_site_type_symbol
 _atom_site_label
 _atom_site_symmetry_multiplicity
 _atom_site_fract_x
 _atom_site_fract_y
 _atom_site_fract_z
 _atom_site_occupancy
  Sr  Sr0  1  0.00000000  0.00000000  0.32128823  1
  Sr  Sr1  1  0.67871177  0.67871177  0.67871177  1
  Sr  Sr2  1  1.00000000  0.32128823  1.00000000  1
  Sr  Sr3  1  0.32128823  1.00000000  1.00000000  1
  Ir  Ir0  1  0.50000000  0.65826509  0.15826509  1
  Ir  Ir1  1  0.34173491  0.84173491  0.50000000  1
  Ir  Ir2  1  0.84173491  0.50000000  0.34173491  1
  Ir  Ir3  1  0.50000000  0.34173491  0.84173491  1
  Ir  Ir4  1  0.15826509  0.50000000  0.65826509  1
  Ir  Ir5  1  0.65826509  0.15826509  0.50000000  1
  O  O0  1  0.65391443  0.95388439  0.28468823  1
  O  O1  1  0.36922620  0.71531177  0.66919616  1
  O  O2  1  0.70003004  0.33080384  0.04611561  1
  O  O3  1  0.66919616  0.36922620  0.71531177  1
  O  O4  1  0.04611561  0.70003004  0.33080384  1
  O  O5  1  0.28468823  0.65391443  0.95388439  1
  O  O6  1  0.33080384  0.04611561  0.70003004  1
  O  O7  1  0.95388439  0.28468823  0.65391443  1
  O  O8  1  0.71531177  0.66919616  0.36922620  1
  O  O9  1  0.34608557  0.63077380  0.29996996  1
  O  O10  1  0.63077380  0.29996996  0.34608557  1
  O  O11  1  0.29996996  0.34608557  0.63077380  1
  O  O12  1  0.64762284  0.64762284  1.00000000  1
  O  O13  1  0.64762284  1.00000000  0.64762284  1
  O  O14  1  0.00000000  0.35237716  0.35237716  1
  O  O15  1  0.35237716  0.00000000  0.35237716  1
  O  O16  1  1.00000000  0.64762284  0.64762284  1
  O  O17  1  0.35237716  0.35237716  0.00000000  1
  F  F0  1  0.00000000  0.00000000  0.00000000  1
loop_
_geom_bond_atom_site_label_1
_geom_bond_atom_site_label_2
_geom_bond_distance
_geom_bond_site_symmetry_2
Ir0 O8 1.926666 1_555
Ir0 O5 1.926666 1_554
Ir0 O0 1.947411 1_555
Ir0 O9 1.947411 1_555
Ir0 O17 2.006285 1_555
Ir0 O12 2.006285 1_554
Ir1 O9 1.926666 1_555
Ir1 O6 1.926666 1_565
Ir1 O4 1.947411 1_555
Ir1 O1 1.947411 1_555
Ir1 O13 2.006285 1_555
Ir1 O15 2.006285 1_565
Ir2 O10 1.926666 1_555
Ir2 O4 1.926666 1_655
Ir2 O2 1.947411 1_555
Ir2 O8 1.947411 1_555
Ir2 O16 2.006285 1_555
Ir2 O14 2.006285 1_655
Ir3 O11 1.926666 1_555
Ir3 O2 1.926666 1_556
Ir3 O6 1.947411 1_555
Ir3 O3 1.947411 1_555
Ir3 O12 2.006285 1_555
Ir3 O17 2.006285 1_556
Ir4 O1 1.926666 1_555
Ir4 O7 1.926666 1_455
Ir4 O5 1.947411 1_555
Ir4 O11 1.947411 1_555
Ir4 O14 2.006285 1_555
Ir4 O16 2.006285 1_455
Ir5 O3 1.926666 1_555
Ir5 O0 1.926666 1_545
Ir5 O7 1.947411 1_555
Ir5 O10 1.947411 1_555
Ir5 O15 2.006285 1_555
Ir5 O13 2.006285 1_545
O0 Sr0 2.576907 1_665
O0 Sr3 3.105777 1_554
O1 Sr1 2.576907 1_555
O1 Sr3 3.105777 1_555
O2 Sr2 2.576907 1_554
O2 Sr3 3.105777 1_544
O3 Sr1 2.576907 1_555
O3 Sr2 3.105777 1_555
O4 Sr0 2.576907 1_565
O4 Sr2 3.105777 1_454
O5 Sr3 2.576907 1_555
O5 Sr2 3.105777 1_455
O6 Sr3 2.576907 1_545
O6 Sr0 3.105777 1_555
O7 Sr2 2.576907 1_555
O7 Sr0 3.105777 1_655
O8 Sr1 2.576907 1_555
O8 Sr0 3.105777 1_665
O9 Sr2 2.576907 1_454
O9 Sr1 3.105777 1_555
O10 Sr3 2.576907 1_544
O10 Sr1 3.105777 1_555
O11 Sr0 2.576907 1_555
O11 Sr1 3.105777 1_555
O12 Sr0 2.755791 1_666
O12 Sr1 2.755791 1_555
O13 Sr2 2.755791 1_565
O13 Sr1 2.755791 1_555
O14 Sr2 2.755791 1_454
O14 Sr0 2.755791 1_555
O15 Sr3 2.755791 1_544
O15 Sr0 2.755791 1_555
O16 Sr3 2.755791 1_655
O16 Sr1 2.755791 1_555
O17 Sr2 2.755791 1_454
O17 Sr3 2.755791 1_544
F0 Sr1 2.579336 1_444
F0 Sr0 2.579336 1_555
F0 Sr3 2.579336 1_544
F0 Sr2 2.579336 1_454
