# generated using pymatgen
data_KPb2Br5
_symmetry_space_group_name_H-M   'P 1'
_cell_length_a   8.45293601
_cell_length_b   9.29672003
_cell_length_c   13.15695212
_cell_angle_alpha   89.86356577
_cell_angle_beta   90.00000000
_cell_angle_gamma   90.00000000
_symmetry_Int_Tables_number   1
_chemical_formula_structural   KPb2Br5
_chemical_formula_sum   'K4 Pb8 Br20'
_cell_volume   1033.93061903
_cell_formula_units_Z   4
loop_
 _symmetry_equiv_pos_site_id
 _symmetry_equiv_pos_as_xyz
  1  'x, y, z'
loop_
 _atom_site_type_symbol
 _atom_site_label
 _atom_site_symmetry_multiplicity
 _atom_site_fract_x
 _atom_site_fract_y
 _atom_site_fract_z
 _atom_site_occupancy
  K  K0  1  0.55015552  0.49062744  0.32778174  1
  K  K1  1  0.05015552  0.50937256  0.17221826  1
  K  K2  1  0.44984448  0.50937256  0.67221826  1
  K  K3  1  0.94984448  0.49062744  0.82778174  1
  Pb  Pb0  1  0.49840163  0.98621811  0.32405616  1
  Pb  Pb1  1  0.56921867  0.74438449  0.00604679  1
  Pb  Pb2  1  0.06921867  0.25561551  0.49395321  1
  Pb  Pb3  1  0.43078133  0.25561551  0.99395321  1
  Pb  Pb4  1  0.93078133  0.74438449  0.50604679  1
  Pb  Pb5  1  0.00159837  0.98621811  0.82405616  1
  Pb  Pb6  1  0.50159837  0.01378189  0.67594384  1
  Pb  Pb7  1  -0.00159837  0.01378189  0.17594384  1
  Br  Br0  1  0.31157012  0.23589610  0.21873510  1
  Br  Br1  1  0.65069400  0.23574784  0.81173866  1
  Br  Br2  1  0.15069400  0.76425216  0.68826134  1
  Br  Br3  1  0.34930600  0.76425216  0.18826134  1
  Br  Br4  1  0.84930600  0.23574784  0.31173866  1
  Br  Br5  1  0.68842988  0.76410390  0.78126490  1
  Br  Br6  1  0.18842988  0.23589610  0.71873510  1
  Br  Br7  1  0.53979525  0.77875384  0.50258416  1
  Br  Br8  1  0.66284202  0.04228908  0.10020148  1
  Br  Br9  1  0.16284202  0.95771092  0.39979852  1
  Br  Br10  1  0.33715798  0.95771092  0.89979852  1
  Br  Br11  1  0.83715798  0.04228908  0.60020148  1
  Br  Br12  1  0.46020475  0.22124616  0.49741584  1
  Br  Br13  1  0.03979525  0.22124616  0.99741584  1
  Br  Br14  1  0.82001315  0.45780683  0.58009256  1
  Br  Br15  1  0.96020475  0.77875384  0.00258416  1
  Br  Br16  1  0.67998685  0.45780683  0.08009256  1
  Br  Br17  1  0.17998685  0.54219317  0.41990744  1
  Br  Br18  1  0.32001315  0.54219317  0.91990744  1
  Br  Br19  1  0.81157012  0.76410390  0.28126490  1
loop_
_geom_bond_atom_site_label_1
_geom_bond_atom_site_label_2
_geom_bond_distance
_geom_bond_site_symmetry_2
Br0 Pb0 3.128398 1_545
Br0 Pb3 3.129366 1_554
Br0 Pb7 3.405010 1_555
Br0 K1 3.422571 1_555
Br0 K0 3.427840 1_555
Br1 Pb6 3.009363 1_555
Br1 Pb3 3.039611 1_555
Br1 K3 3.472175 1_555
Br1 K2 3.563821 1_555
Br2 Pb5 3.009363 1_555
Br2 Pb4 3.039611 1_455
Br2 K2 3.472175 1_555
Br2 K3 3.563821 1_455
Br3 Pb0 3.009363 1_555
Br3 Pb1 3.039611 1_555
Br3 K1 3.472175 1_555
Br3 K0 3.563821 1_555
Br4 Pb7 3.009363 1_655
Br4 Pb2 3.039611 1_655
Br4 K0 3.472175 1_555
Br4 K1 3.563821 1_655
Br5 Pb6 3.128398 1_565
Br5 Pb1 3.129366 1_556
Br5 Pb5 3.405010 1_655
Br5 K3 3.422571 1_555
Br5 K2 3.427840 1_555
Br6 Pb5 3.128398 1_545
Br6 Pb2 3.129366 1_555
Br6 Pb6 3.405010 1_555
Br6 K2 3.422571 1_555
Br6 K3 3.427840 1_455
Br7 Pb0 3.055837 1_555
Br7 Pb6 3.178774 1_565
Br7 Pb4 3.320692 1_555
Br7 K2 3.435779 1_555
Br7 K0 3.535740 1_555
Br8 Pb7 3.017879 1_655
Br8 Pb3 3.118013 1_554
Br8 Pb1 3.138083 1_545
Br8 Pb0 3.297120 1_545
Br9 Pb0 3.017879 1_555
Br9 Pb4 3.118013 1_455
Br9 Pb2 3.138083 1_565
Br9 Pb7 3.297120 1_565
Br10 Pb5 3.017879 1_555
Br10 Pb1 3.118013 1_556
Br10 Pb3 3.138083 1_565
Br10 Pb6 3.297120 1_565
Br11 Pb6 3.017879 1_555
Br11 Pb2 3.118013 1_655
Br11 Pb4 3.138083 1_545
Br11 Pb5 3.297120 1_645
Br12 Pb6 3.055837 1_555
Br12 Pb0 3.178774 1_545
Br12 Pb2 3.320692 1_555
Br12 K0 3.435779 1_555
Br12 K2 3.535740 1_555
Br13 Pb7 3.055837 1_556
Br13 Pb5 3.178774 1_545
Br13 Pb3 3.320692 1_555
Br13 K3 3.435779 1_455
Br13 K1 3.535740 1_556
Br14 Pb4 2.985223 1_555
Br14 Pb2 3.043902 1_655
Br14 K2 3.390055 1_555
Br14 K3 3.452861 1_555
Br15 Pb5 3.055837 1_654
Br15 Pb7 3.178774 1_665
Br15 Pb1 3.320692 1_555
Br15 K1 3.435779 1_655
Br15 K3 3.535740 1_554
Br16 Pb1 2.985223 1_555
Br16 Pb3 3.043902 1_554
Br16 K1 3.390055 1_655
Br16 K0 3.452861 1_555
Br17 Pb2 2.985223 1_555
Br17 Pb4 3.043902 1_455
Br17 K0 3.390055 1_555
Br17 K1 3.452861 1_555
Br18 Pb3 2.985223 1_555
Br18 Pb1 3.043902 1_556
Br18 K3 3.390055 1_455
Br18 K2 3.452861 1_555
Br19 Pb7 3.128398 1_665
Br19 Pb4 3.129366 1_555
Br19 Pb0 3.405010 1_555
Br19 K0 3.422571 1_555
Br19 K1 3.427840 1_655
