# generated using pymatgen
data_Be4Ir2W6C
_symmetry_space_group_name_H-M   'P 1'
_cell_length_a   7.68205099
_cell_length_b   7.68204967
_cell_length_c   7.68205012
_cell_angle_alpha   59.99999382
_cell_angle_beta   59.99999952
_cell_angle_gamma   59.99999643
_symmetry_Int_Tables_number   1
_chemical_formula_structural   Be4Ir2W6C
_chemical_formula_sum   'Be8 Ir4 W12 C2'
_cell_volume   320.56521976
_cell_formula_units_Z   2
loop_
 _symmetry_equiv_pos_site_id
 _symmetry_equiv_pos_as_xyz
  1  'x, y, z'
loop_
 _atom_site_type_symbol
 _atom_site_label
 _atom_site_symmetry_multiplicity
 _atom_site_fract_x
 _atom_site_fract_y
 _atom_site_fract_z
 _atom_site_occupancy
  Be  Be0  1  0.41767806  0.41767806  0.74696381  1
  Be  Be1  1  0.41767806  0.74696381  0.41767806  1
  Be  Be2  1  0.74696381  0.41767806  0.41767806  1
  Be  Be3  1  0.41767806  0.41767806  0.41767806  1
  Be  Be4  1  0.83232194  0.83232194  0.50303619  1
  Be  Be5  1  0.83232194  0.50303619  0.83232194  1
  Be  Be6  1  0.50303619  0.83232194  0.83232194  1
  Be  Be7  1  0.83232194  0.83232194  0.83232194  1
  Ir  Ir0  1  0.62500000  0.62500000  0.12500000  1
  Ir  Ir1  1  0.62500000  0.12500000  0.62500000  1
  Ir  Ir2  1  0.12500000  0.62500000  0.62500000  1
  Ir  Ir3  1  0.62500000  0.62500000  0.62500000  1
  W  W0  1  0.05383918  0.05383918  0.44616082  1
  W  W1  1  0.44616082  0.05383918  0.44616082  1
  W  W2  1  0.05383918  0.44616082  0.44616082  1
  W  W3  1  0.44616082  0.44616082  0.05383918  1
  W  W4  1  0.05383918  0.44616082  0.05383918  1
  W  W5  1  0.44616082  0.05383918  0.05383918  1
  W  W6  1  0.19616082  0.19616082  0.80383918  1
  W  W7  1  0.80383918  0.19616082  0.80383918  1
  W  W8  1  0.19616082  0.80383918  0.80383918  1
  W  W9  1  0.80383918  0.80383918  0.19616082  1
  W  W10  1  0.19616082  0.80383918  0.19616082  1
  W  W11  1  0.80383918  0.19616082  0.19616082  1
  C  C0  1  0.25000000  0.25000000  0.25000000  1
  C  C1  1  0.00000000  0.00000000  0.00000000  1
loop_
_geom_bond_atom_site_label_1
_geom_bond_atom_site_label_2
_geom_bond_distance
_geom_bond_site_symmetry_2
Be0 Ir1 2.345854 1_555
Be0 Ir2 2.345854 1_555
Be0 Ir3 2.345867 1_555
Be0 W5 2.594746 1_556
Be0 W4 2.594746 1_556
Be0 W3 2.594755 1_556
Be0 W6 2.718694 1_555
Be0 W8 2.718707 1_555
Be0 W7 2.718707 1_555
Be1 Ir0 2.345854 1_555
Be1 Ir2 2.345855 1_555
Be1 Ir3 2.345867 1_555
Be1 W5 2.594746 1_565
Be1 W0 2.594746 1_565
Be1 W1 2.594755 1_565
Be1 W10 2.718694 1_555
Be1 W8 2.718707 1_555
Be1 W9 2.718707 1_555
Be2 Ir1 2.345854 1_555
Be2 Ir0 2.345854 1_555
Be2 Ir3 2.345867 1_555
Be2 W0 2.594746 1_655
Be2 W4 2.594746 1_655
Be2 W2 2.594755 1_655
Be2 W11 2.718694 1_555
Be2 W9 2.718707 1_555
Be2 W7 2.718707 1_555
Be3 Ir1 2.345862 1_555
Be3 Ir0 2.345863 1_555
Be3 Ir2 2.345863 1_555
Be3 W1 2.594740 1_555
Be3 W3 2.594740 1_555
Be3 W2 2.594740 1_555
Be3 W10 2.718701 1_555
Be3 W6 2.718701 1_555
Be3 W11 2.718701 1_555
Be4 Ir1 2.345854 1_565
Be4 Ir2 2.345854 1_655
Be4 Ir3 2.345867 1_555
Be4 W11 2.594746 1_565
Be4 W10 2.594746 1_655
Be4 W9 2.594755 1_555
Be4 W0 2.718694 1_665
Be4 W2 2.718707 1_655
Be4 W1 2.718707 1_565
Be5 Ir0 2.345854 1_556
Be5 Ir2 2.345855 1_655
Be5 Ir3 2.345867 1_555
Be5 W11 2.594746 1_556
Be5 W6 2.594746 1_655
Be5 W7 2.594755 1_555
Be5 W4 2.718694 1_656
Be5 W2 2.718707 1_655
Be5 W3 2.718707 1_556
Be6 Ir1 2.345854 1_565
Be6 Ir0 2.345854 1_556
Be6 Ir3 2.345867 1_555
Be6 W6 2.594746 1_565
Be6 W10 2.594746 1_556
Be6 W8 2.594755 1_555
Be6 W5 2.718694 1_566
Be6 W3 2.718707 1_556
Be6 W1 2.718707 1_565
Be7 Ir1 2.345862 1_565
Be7 Ir0 2.345863 1_556
Be7 Ir2 2.345863 1_655
Be7 W7 2.594740 1_565
Be7 W9 2.594740 1_556
Be7 W8 2.594740 1_655
Be7 W4 2.718701 1_656
Be7 W0 2.718701 1_665
Be7 W5 2.718701 1_566
C0 W2 2.131103 1_555
C0 W5 2.131103 1_555
C0 W1 2.131103 1_555
C0 W4 2.131103 1_555
C0 W3 2.131103 1_555
C0 W0 2.131103 1_555
C1 W11 2.131103 1_455
C1 W8 2.131103 1_544
C1 W7 2.131103 1_454
C1 W10 2.131103 1_545
C1 W6 2.131103 1_554
C1 W9 2.131103 1_445
