# generated using pymatgen
data_NaSr4(AsRu)10
_symmetry_space_group_name_H-M   'P 1'
_cell_length_a   9.31022584
_cell_length_b   8.69421916
_cell_length_c   9.31022584
_cell_angle_alpha   57.62718261
_cell_angle_beta   90.00000000
_cell_angle_gamma   57.62717468
_symmetry_Int_Tables_number   1
_chemical_formula_structural   NaSr4(AsRu)10
_chemical_formula_sum   'Na1 Sr4 As10 Ru10'
_cell_volume   492.24412223
_cell_formula_units_Z   1
loop_
 _symmetry_equiv_pos_site_id
 _symmetry_equiv_pos_as_xyz
  1  'x, y, z'
loop_
 _atom_site_type_symbol
 _atom_site_label
 _atom_site_symmetry_multiplicity
 _atom_site_fract_x
 _atom_site_fract_y
 _atom_site_fract_z
 _atom_site_occupancy
  Na  Na0  1  0.00000000  0.00000000  0.00000000  1
  Sr  Sr0  1  0.19800960  1.00000000  0.60340120  1
  Sr  Sr1  1  0.39659880  1.00000000  0.19800960  1
  Sr  Sr2  1  0.60340120  0.00000000  0.80199040  1
  Sr  Sr3  1  0.80199040  0.00000000  0.39659880  1
  As  As0  1  0.15670293  0.28549289  0.75721591  1
  As  As1  1  0.35773428  0.28453045  0.35773428  1
  As  As2  1  0.55780318  0.28549289  0.95729020  1
  As  As3  1  0.75721591  0.28549289  0.55780318  1
  As  As4  1  0.95729020  0.28549289  0.15670293  1
  As  As5  1  0.64226572  0.71546955  0.64226572  1
  As  As6  1  0.84329707  0.71450711  0.24278409  1
  As  As7  1  0.04270880  0.71450711  0.84329707  1
  As  As8  1  0.24278409  0.71450711  0.44219682  1
  As  As9  1  0.44219682  0.71450711  0.04270880  1
  Ru  Ru0  1  0.94930075  0.50142517  0.84909920  1
  Ru  Ru1  1  0.15090080  0.49857483  0.45072592  1
  Ru  Ru2  1  0.35052437  0.49857483  0.05069925  1
  Ru  Ru3  1  0.54927408  0.50142517  0.64947563  1
  Ru  Ru4  1  0.75000000  0.50000000  0.25000000  1
  Ru  Ru5  1  0.84909920  0.50142517  0.54927408  1
  Ru  Ru6  1  0.05069925  0.49857483  0.15090080  1
  Ru  Ru7  1  0.25000000  0.50000000  0.75000000  1
  Ru  Ru8  1  0.45072592  0.49857483  0.35052437  1
  Ru  Ru9  1  0.64947563  0.50142517  0.94930075  1
loop_
_geom_bond_atom_site_label_1
_geom_bond_atom_site_label_2
_geom_bond_distance
_geom_bond_site_symmetry_2
Na0 Ru9 3.526977 1_454
Na0 Ru2 3.526977 1_545
Na0 Ru8 3.526977 1_545
Na0 Ru3 3.526977 1_454
Na0 Ru0 3.526977 1_454
Na0 Ru6 3.526977 1_545
Na0 Ru5 3.526977 1_454
Na0 Ru1 3.526977 1_545
As0 Ru1 2.410259 1_555
As0 Ru0 2.413033 1_455
As0 Ru5 2.413446 1_455
As0 Ru7 2.416130 1_555
As0 Sr0 3.338243 1_545
As0 Sr1 3.338653 1_546
As0 Na0 3.356872 1_556
As0 Sr2 3.386536 1_555
As1 Ru6 2.410123 1_555
As1 Ru2 2.410127 1_555
As1 Ru1 2.410130 1_555
As1 Ru8 2.410134 1_555
As1 Sr1 3.382698 1_545
As1 Sr0 3.382701 1_545
As1 Sr3 3.382706 1_555
As1 Sr2 3.382709 1_555
As2 Ru2 2.410262 1_556
As2 Ru3 2.413029 1_555
As2 Ru9 2.413456 1_555
As2 Ru7 2.416119 1_555
As2 Sr3 3.338253 1_556
As2 Sr2 3.338643 1_555
As2 Na0 3.356877 1_656
As2 Sr1 3.386531 1_546
As3 Ru8 2.410255 1_555
As3 Ru5 2.413036 1_555
As3 Ru3 2.413453 1_555
As3 Ru4 2.416123 1_555
As3 Sr2 3.338245 1_555
As3 Sr0 3.338651 1_645
As3 Na0 3.356880 1_656
As3 Sr3 3.386528 1_555
As4 Ru6 2.410266 1_655
As4 Ru9 2.413026 1_554
As4 Ru0 2.413449 1_554
As4 Ru4 2.416126 1_555
As4 Sr1 3.338250 1_645
As4 Sr3 3.338646 1_555
As4 Na0 3.356869 1_655
As4 Sr0 3.386539 1_645
As5 Ru0 2.410123 1_555
As5 Ru9 2.410127 1_555
As5 Ru5 2.410130 1_555
As5 Ru3 2.410134 1_555
As5 Sr2 3.382698 1_565
As5 Sr3 3.382701 1_565
As5 Sr0 3.382706 1_555
As5 Sr1 3.382709 1_555
As6 Ru5 2.410259 1_555
As6 Ru6 2.413033 1_655
As6 Ru1 2.413446 1_655
As6 Ru4 2.416130 1_555
As6 Sr3 3.338243 1_565
As6 Sr2 3.338653 1_564
As6 Na0 3.356872 1_665
As6 Sr1 3.386536 1_555
As7 Ru0 2.410259 1_455
As7 Ru2 2.413033 1_556
As7 Ru6 2.413446 1_556
As7 Ru7 2.416129 1_555
As7 Sr2 3.338243 1_465
As7 Sr0 3.338653 1_555
As7 Na0 3.356872 1_566
As7 Sr3 3.386536 1_465
As8 Ru3 2.410255 1_555
As8 Ru1 2.413036 1_555
As8 Ru8 2.413453 1_555
As8 Ru7 2.416123 1_555
As8 Sr1 3.338245 1_555
As8 Sr3 3.338651 1_465
As8 Na0 3.356880 1_565
As8 Sr0 3.386528 1_555
As9 Ru9 2.410255 1_554
As9 Ru8 2.413036 1_555
As9 Ru2 2.413453 1_555
As9 Ru4 2.416122 1_555
As9 Sr0 3.338245 1_554
As9 Sr1 3.338651 1_555
As9 Na0 3.356880 1_565
As9 Sr2 3.386528 1_564
Ru0 Sr1 3.506284 1_646
Ru0 Sr2 3.516910 1_565
Ru0 Sr3 3.535160 1_565
Ru1 Sr3 3.506283 1_465
Ru1 Sr0 3.516910 1_545
Ru1 Sr2 3.535159 1_555
Ru2 Sr0 3.506284 1_554
Ru2 Sr3 3.516910 1_555
Ru2 Sr1 3.535160 1_545
Ru3 Sr2 3.506284 1_555
Ru3 Sr1 3.516910 1_555
Ru3 Sr0 3.535159 1_555
Ru4 Sr1 3.519607 1_555
Ru4 Sr0 3.519607 1_645
Ru4 Sr3 3.519608 1_555
Ru4 Sr2 3.519608 1_564
Ru5 Sr0 3.506283 1_645
Ru5 Sr3 3.516910 1_565
Ru5 Sr1 3.535159 1_555
Ru6 Sr2 3.506284 1_464
Ru6 Sr1 3.516910 1_545
Ru6 Sr0 3.535160 1_545
Ru7 Sr2 3.519607 1_555
Ru7 Sr3 3.519607 1_465
Ru7 Sr0 3.519608 1_555
Ru7 Sr1 3.519608 1_546
Ru8 Sr1 3.506284 1_555
Ru8 Sr2 3.516910 1_555
Ru8 Sr3 3.535159 1_555
Ru9 Sr3 3.506284 1_556
Ru9 Sr0 3.516910 1_555
Ru9 Sr2 3.535160 1_565
