# generated using pymatgen
data_RbNaS2O7
_symmetry_space_group_name_H-M   'P 1'
_cell_length_a   5.86892332
_cell_length_b   7.33327819
_cell_length_c   7.63773368
_cell_angle_alpha   101.61450285
_cell_angle_beta   90.42099294
_cell_angle_gamma   93.22391569
_symmetry_Int_Tables_number   1
_chemical_formula_structural   RbNaS2O7
_chemical_formula_sum   'Rb2 Na2 S4 O14'
_cell_volume   321.41734550
_cell_formula_units_Z   2
loop_
 _symmetry_equiv_pos_site_id
 _symmetry_equiv_pos_as_xyz
  1  'x, y, z'
loop_
 _atom_site_type_symbol
 _atom_site_label
 _atom_site_symmetry_multiplicity
 _atom_site_fract_x
 _atom_site_fract_y
 _atom_site_fract_z
 _atom_site_occupancy
  Rb  Rb0  1  0.22304639  0.77518878  0.43150265  1
  Rb  Rb1  1  0.77695361  0.22481122  0.56849735  1
  Na  Na0  1  0.20766071  0.63390672  0.90082582  1
  Na  Na1  1  0.79233929  0.36609328  0.09917418  1
  S  S0  1  0.71524632  0.72256181  0.70171796  1
  S  S1  1  0.72190354  0.82495127  0.09087836  1
  S  S2  1  0.27809646  0.17504873  0.90912164  1
  S  S3  1  0.28475368  0.27743819  0.29828204  1
  O  O0  1  0.73434023  0.87614397  0.89040701  1
  O  O1  1  0.50496803  0.25670310  0.89537274  1
  O  O2  1  0.89751114  0.69314659  0.09530342  1
  O  O3  1  0.49612420  0.38710421  0.29453702  1
  O  O4  1  0.26565977  0.12385603  0.10959299  1
  O  O5  1  0.49503197  0.74329690  0.10462726  1
  O  O6  1  0.10248886  0.30685341  0.90469658  1
  O  O7  1  0.50387580  0.61289579  0.70546298  1
  O  O8  1  0.08447373  0.38483914  0.30252703  1
  O  O9  1  0.28187007  0.15840014  0.42685412  1
  O  O10  1  0.22966090  0.99393382  0.79948883  1
  O  O11  1  0.71812993  0.84159986  0.57314588  1
  O  O12  1  0.91552627  0.61516086  0.69747297  1
  O  O13  1  0.77033910  0.00606618  0.20051117  1
loop_
_geom_bond_atom_site_label_1
_geom_bond_atom_site_label_2
_geom_bond_distance
_geom_bond_site_symmetry_2
Na0 O5 2.284163 1_556
Na0 O12 2.284543 1_455
Na0 O7 2.290878 1_555
Na0 O2 2.361606 1_456
Na0 O6 2.448748 1_555
Na0 O10 2.893475 1_555
Na1 O1 2.284163 1_554
Na1 O8 2.284543 1_655
Na1 O3 2.290878 1_555
Na1 O6 2.361606 1_654
Na1 O2 2.448748 1_555
Na1 O13 2.893475 1_555
O0 S0 1.639461 1_555
O0 S1 1.649448 1_556
O1 S2 1.442272 1_555
O1 Rb1 2.949771 1_555
O2 S1 1.456798 1_555
O2 Rb0 3.127667 1_655
O3 S3 1.443617 1_555
O3 Rb1 3.111887 1_555
O3 Rb0 3.331836 1_555
O4 S3 1.639461 1_555
O4 S2 1.649448 1_554
O5 S1 1.442272 1_555
O5 Rb0 2.949771 1_555
O6 S2 1.456798 1_555
O6 Rb1 3.127667 1_455
O7 S0 1.443617 1_555
O7 Rb0 3.111887 1_555
O7 Rb1 3.331836 1_555
O8 S3 1.448241 1_555
O8 Rb0 2.901192 1_555
O8 Rb1 3.088153 1_455
O9 S3 1.438881 1_555
O9 Rb0 2.819375 1_545
O9 Rb1 3.071254 1_555
O9 Rb1 3.191563 1_455
O10 S2 1.432555 1_565
O10 Rb0 2.941105 1_555
O11 S0 1.438881 1_555
O11 Rb1 2.819375 1_565
O11 Rb0 3.071254 1_555
O11 Rb0 3.191563 1_655
O12 S0 1.448241 1_555
O12 Rb1 2.901192 1_555
O12 Rb0 3.088153 1_655
O13 S1 1.432555 1_545
O13 Rb1 2.941105 1_555
