# generated using pymatgen
data_Ca14Sn2GeAs12
_symmetry_space_group_name_H-M   'P 1'
_cell_length_a   9.04936127
_cell_length_b   9.04944382
_cell_length_c   9.04921322
_cell_angle_alpha   87.04512662
_cell_angle_beta   87.04617522
_cell_angle_gamma   87.04765047
_symmetry_Int_Tables_number   1
_chemical_formula_structural   Ca14Sn2GeAs12
_chemical_formula_sum   'Ca14 Sn2 Ge1 As12'
_cell_volume   738.19974175
_cell_formula_units_Z   1
loop_
 _symmetry_equiv_pos_site_id
 _symmetry_equiv_pos_as_xyz
  1  'x, y, z'
loop_
 _atom_site_type_symbol
 _atom_site_label
 _atom_site_symmetry_multiplicity
 _atom_site_fract_x
 _atom_site_fract_y
 _atom_site_fract_z
 _atom_site_occupancy
  Ca  Ca0  1  0.41454618  0.26927995  0.77434527  1
  Ca  Ca1  1  0.77434630  0.41455188  0.26929367  1
  Ca  Ca2  1  0.26929054  0.77435332  0.41453432  1
  Ca  Ca3  1  0.98879130  0.53885398  0.65230985  1
  Ca  Ca4  1  0.65232585  0.98880212  0.53884732  1
  Ca  Ca5  1  0.53884768  0.65231603  0.98879762  1
  Ca  Ca6  1  0.17804970  0.53243873  0.02273148  1
  Ca  Ca7  1  0.02273721  0.17806065  0.53244864  1
  Ca  Ca8  1  0.53244308  0.02273890  0.17805674  1
  Ca  Ca9  1  0.76494812  0.25954512  0.91167405  1
  Ca  Ca10  1  0.91167821  0.76495272  0.25953423  1
  Ca  Ca11  1  0.25953941  0.91166997  0.76494539  1
  Ca  Ca12  1  0.18623977  0.18623532  0.18623037  1
  Ca  Ca13  1  0.40038064  0.40039365  0.40038043  1
  Sn  Sn0  1  0.84233754  0.84233913  0.84233821  1
  Sn  Sn1  1  0.61246404  0.61247798  0.61248719  1
  Ge  Ge0  1  0.00430429  0.00431239  0.00431778  1
  As  As0  1  0.70572240  0.32180302  0.58741623  1
  As  As1  1  0.58742815  0.70568650  0.32179854  1
  As  As2  1  0.32174484  0.58737004  0.70571184  1
  As  As3  1  0.57797715  0.96887143  0.86330376  1
  As  As4  1  0.86331145  0.57797741  0.96886980  1
  As  As5  1  0.96889419  0.86329499  0.57798731  1
  As  As6  1  0.47297160  0.34398279  0.08516948  1
  As  As7  1  0.08512642  0.47297066  0.34396160  1
  As  As8  1  0.34399423  0.08513612  0.47295664  1
  As  As9  1  0.09864486  0.21966872  0.85597590  1
  As  As10  1  0.85595622  0.09865586  0.21967561  1
  As  As11  1  0.21969065  0.85599061  0.09862774  1
loop_
_geom_bond_atom_site_label_1
_geom_bond_atom_site_label_2
_geom_bond_distance
_geom_bond_site_symmetry_2
Ca3 Sn1 3.469775 1_555
Ca4 Sn1 3.469810 1_555
Ca5 Sn1 3.469575 1_555
Ca9 Ge0 3.193967 1_656
Ca10 Ge0 3.193751 1_665
Ca11 Ge0 3.194039 1_566
Ca12 Ge0 2.994786 1_555
Ca13 Sn1 3.491402 1_555
Ge0 Sn0 2.666366 1_444
As0 Sn1 2.737893 1_555
As0 Ca1 2.999617 1_555
As0 Ca9 3.029058 1_555
As0 Ca0 3.101137 1_555
As0 Ca7 3.115223 1_655
As0 Ca4 3.133067 1_545
As0 Ca13 3.340793 1_555
As0 Ca3 3.399543 1_555
As1 Sn1 2.737759 1_555
As1 Ca2 2.999860 1_555
As1 Ca10 3.029115 1_555
As1 Ca1 3.100839 1_555
As1 Ca8 3.115513 1_565
As1 Ca5 3.132976 1_554
As1 Ca13 3.340444 1_555
As1 Ca4 3.399912 1_555
As2 Sn1 2.738177 1_555
As2 Ca0 2.999565 1_555
As2 Ca11 3.029483 1_555
As2 Ca2 3.101264 1_555
As2 Ca6 3.114964 1_556
As2 Ca3 3.132532 1_455
As2 Ca13 3.340494 1_555
As2 Ca5 3.400063 1_555
As3 Sn0 2.600699 1_555
As3 Ca8 2.919167 1_566
As3 Ca4 2.976584 1_555
As3 Ca5 3.057596 1_555
As3 Ca0 3.115868 1_565
As3 Ca11 3.135223 1_555
As3 Ca9 3.259913 1_565
As4 Sn0 2.600676 1_555
As4 Ca6 2.919071 1_656
As4 Ca5 2.976702 1_555
As4 Ca3 3.057562 1_555
As4 Ca1 3.115874 1_556
As4 Ca9 3.135204 1_555
As4 Ca10 3.259860 1_556
As5 Sn0 2.600633 1_555
As5 Ca7 2.919276 1_665
As5 Ca3 2.976467 1_555
As5 Ca4 3.057793 1_555
As5 Ca2 3.115807 1_655
As5 Ca10 3.135317 1_555
As5 Ca11 3.259629 1_655
As6 Ca13 2.958181 1_555
As6 Ca5 2.961127 1_554
As6 Ca0 3.005665 1_554
As6 Ca8 3.013438 1_555
As6 Ca9 3.085153 1_554
As6 Ca12 3.099881 1_555
As6 Ca6 3.152412 1_555
As6 Ca1 3.373321 1_555
As7 Ca13 2.958597 1_555
As7 Ca3 2.961173 1_455
As7 Ca1 3.005202 1_455
As7 Ca6 3.013316 1_555
As7 Ca10 3.084995 1_455
As7 Ca12 3.100030 1_555
As7 Ca7 3.152305 1_555
As7 Ca2 3.373601 1_555
As8 Ca13 2.958549 1_555
As8 Ca4 2.961090 1_545
As8 Ca2 3.005351 1_545
As8 Ca7 3.013661 1_555
As8 Ca11 3.085076 1_545
As8 Ca12 3.099946 1_555
As8 Ca8 3.152088 1_555
As8 Ca0 3.373493 1_555
As9 Ge0 2.472330 1_556
As9 Ca0 2.966446 1_555
As9 Ca9 3.041832 1_455
As9 Ca7 3.087462 1_555
As9 Ca12 3.126898 1_556
As9 Ca11 3.203457 1_545
As9 Ca6 3.400907 1_556
As9 Ca3 3.474520 1_455
As10 Ge0 2.472412 1_655
As10 Ca1 2.966440 1_555
As10 Ca10 3.041926 1_545
As10 Ca8 3.087406 1_555
As10 Ca12 3.127145 1_655
As10 Ca9 3.203292 1_554
As10 Ca7 3.400992 1_655
As10 Ca4 3.474199 1_545
As11 Ge0 2.472407 1_565
As11 Ca2 2.966445 1_555
As11 Ca11 3.041597 1_554
As11 Ca6 3.087770 1_555
As11 Ca12 3.126933 1_565
As11 Ca10 3.203528 1_455
As11 Ca8 3.400757 1_565
As11 Ca5 3.474354 1_554
