# generated using pymatgen
data_La2Mo4O15
_symmetry_space_group_name_H-M   'P 1'
_cell_length_a   12.96234100
_cell_length_b   9.28492800
_cell_length_c   14.18694936
_cell_angle_alpha   49.18552979
_cell_angle_beta   90.00000000
_cell_angle_gamma   90.00000000
_symmetry_Int_Tables_number   1
_chemical_formula_structural   La2Mo4O15
_chemical_formula_sum   'La8 Mo16 O60'
_cell_volume   1292.25834253
_cell_formula_units_Z   4
loop_
 _symmetry_equiv_pos_site_id
 _symmetry_equiv_pos_as_xyz
  1  'x, y, z'
loop_
 _atom_site_type_symbol
 _atom_site_label
 _atom_site_symmetry_multiplicity
 _atom_site_fract_x
 _atom_site_fract_y
 _atom_site_fract_z
 _atom_site_occupancy
  La  La0  1  0.35517800  0.30934200  0.77289500  1
  La  La1  1  0.85517800  0.69065800  0.72710500  1
  La  La2  1  0.64482200  0.69065800  0.22710500  1
  La  La3  1  0.14482200  0.30934200  0.27289500  1
  La  La4  1  0.37333600  0.89600500  0.75647700  1
  La  La5  1  0.87333600  0.10399500  0.74352300  1
  La  La6  1  0.62666400  0.10399500  0.24352300  1
  La  La7  1  0.12666400  0.89600500  0.25647700  1
  Mo  Mo0  1  0.33415600  0.77006500  0.09228900  1
  Mo  Mo1  1  0.83415600  0.22993500  0.40771100  1
  Mo  Mo2  1  0.66584400  0.22993500  0.90771100  1
  Mo  Mo3  1  0.16584400  0.77006500  0.59228900  1
  Mo  Mo4  1  0.34594200  0.31362000  0.05876800  1
  Mo  Mo5  1  0.84594200  0.68638000  0.44123200  1
  Mo  Mo6  1  0.65405800  0.68638000  0.94123200  1
  Mo  Mo7  1  0.15405800  0.31362000  0.55876800  1
  Mo  Mo8  1  0.59027600  0.32409800  0.60146300  1
  Mo  Mo9  1  0.09027600  0.67590200  0.89853700  1
  Mo  Mo10  1  0.40972400  0.67590200  0.39853700  1
  Mo  Mo11  1  0.90972400  0.32409800  0.10146300  1
  Mo  Mo12  1  0.56053200  0.68275600  0.62050500  1
  Mo  Mo13  1  0.06053200  0.31724400  0.87949500  1
  Mo  Mo14  1  0.43946800  0.31724400  0.37949500  1
  Mo  Mo15  1  0.93946800  0.68275600  0.12050500  1
  O  O0  1  0.22836000  0.21984300  0.15541200  1
  O  O1  1  0.72836000  0.78015700  0.34458800  1
  O  O2  1  0.77164000  0.78015700  0.84458800  1
  O  O3  1  0.27164000  0.21984300  0.65541200  1
  O  O4  1  0.48768300  0.17837200  0.70956200  1
  O  O5  1  0.98768300  0.82162800  0.79043800  1
  O  O6  1  0.51231700  0.82162800  0.29043800  1
  O  O7  1  0.01231700  0.17837200  0.20956200  1
  O  O8  1  0.55115900  0.44331500  0.43927600  1
  O  O9  1  0.05115900  0.55668500  0.06072400  1
  O  O10  1  0.44884100  0.55668500  0.56072400  1
  O  O11  1  0.94884100  0.44331500  0.93927600  1
  O  O12  1  0.45135500  0.64435200  0.18370900  1
  O  O13  1  0.95135500  0.35564800  0.31629100  1
  O  O14  1  0.54864500  0.35564800  0.81629100  1
  O  O15  1  0.04864500  0.64435200  0.68370900  1
  O  O16  1  0.64541600  0.50219400  0.60618300  1
  O  O17  1  0.14541600  0.49780600  0.89381700  1
  O  O18  1  0.35458400  0.49780600  0.39381700  1
  O  O19  1  0.85458400  0.50219400  0.10618300  1
  O  O20  1  0.36255800  0.95068900  0.92594400  1
  O  O21  1  0.86255800  0.04931100  0.57405600  1
  O  O22  1  0.63744200  0.04931100  0.07405600  1
  O  O23  1  0.13744200  0.95068900  0.42594400  1
  O  O24  1  0.69071700  0.16805500  0.64194400  1
  O  O25  1  0.19071700  0.83194500  0.85805600  1
  O  O26  1  0.30928300  0.83194500  0.35805600  1
  O  O27  1  0.80928300  0.16805500  0.14194400  1
  O  O28  1  0.66621000  0.72903800  0.67577100  1
  O  O29  1  0.16621000  0.27096200  0.82422900  1
  O  O30  1  0.33379000  0.27096200  0.32422900  1
  O  O31  1  0.83379000  0.72903800  0.17577100  1
  O  O32  1  0.55933500  0.88906100  0.45946400  1
  O  O33  1  0.05933500  0.11093900  0.04053600  1
  O  O34  1  0.44066500  0.11093900  0.54053600  1
  O  O35  1  0.94066500  0.88906100  0.95946400  1
  O  O36  1  0.35648600  0.56644500  0.95758200  1
  O  O37  1  0.85648600  0.43355500  0.54241800  1
  O  O38  1  0.64351400  0.43355500  0.04241800  1
  O  O39  1  0.14351400  0.56644500  0.45758200  1
  O  O40  1  0.44895400  0.69608400  0.68766200  1
  O  O41  1  0.94895400  0.30391600  0.81233800  1
  O  O42  1  0.55104600  0.30391600  0.31233800  1
  O  O43  1  0.05104600  0.69608400  0.18766200  1
  O  O44  1  0.45583100  0.21189300  0.15807100  1
  O  O45  1  0.95583100  0.78810700  0.34192900  1
  O  O46  1  0.54416900  0.78810700  0.84192900  1
  O  O47  1  0.04416900  0.21189300  0.65807100  1
  O  O48  1  0.35059900  0.25362300  0.96203600  1
  O  O49  1  0.85059900  0.74637700  0.53796400  1
  O  O50  1  0.64940100  0.74637700  0.03796400  1
  O  O51  1  0.14940100  0.25362300  0.46203600  1
  O  O52  1  0.24780600  0.59692800  0.12302200  1
  O  O53  1  0.74780600  0.40307200  0.37697800  1
  O  O54  1  0.75219400  0.40307200  0.87697800  1
  O  O55  1  0.25219400  0.59692800  0.62302200  1
  O  O56  1  0.27146400  0.87225500  0.14785300  1
  O  O57  1  0.77146400  0.12774500  0.35214700  1
  O  O58  1  0.72853600  0.12774500  0.85214700  1
  O  O59  1  0.22853600  0.87225500  0.64785300  1
loop_
_geom_bond_atom_site_label_1
_geom_bond_atom_site_label_2
_geom_bond_distance
_geom_bond_site_symmetry_2
La0 O48 2.378391 1_555
La0 O55 2.451766 1_555
La0 O29 2.513564 1_555
La0 O20 2.522115 1_545
La0 O3 2.540006 1_555
La0 O4 2.581558 1_555
La0 O10 2.602329 1_555
La0 O14 2.683076 1_555
La1 O49 2.378391 1_555
La1 O54 2.451766 1_555
La1 O28 2.513564 1_555
La1 O21 2.522115 1_565
La1 O2 2.540006 1_555
La1 O5 2.581558 1_555
La1 O11 2.602329 1_555
La1 O15 2.683076 1_655
La2 O50 2.378391 1_555
La2 O53 2.451766 1_555
La2 O31 2.513564 1_555
La2 O22 2.522115 1_565
La2 O1 2.540006 1_555
La2 O6 2.581558 1_555
La2 O8 2.602329 1_555
La2 O12 2.683076 1_555
La3 O51 2.378391 1_555
La3 O52 2.451766 1_555
La3 O30 2.513564 1_555
La3 O23 2.522115 1_545
La3 O0 2.540006 1_555
La3 O7 2.581558 1_555
La3 O9 2.602329 1_555
La3 O13 2.683076 1_455
La4 O46 2.406083 1_555
La4 O34 2.477407 1_565
La4 O36 2.477618 1_555
La4 O59 2.527964 1_555
La4 O25 2.629361 1_555
La4 O3 2.683047 1_565
La4 O4 2.689321 1_565
La4 O20 2.766465 1_555
La4 O40 2.780021 1_555
La5 O47 2.406083 1_655
La5 O35 2.477407 1_545
La5 O37 2.477618 1_555
La5 O58 2.527964 1_555
La5 O24 2.629361 1_555
La5 O2 2.683047 1_545
La5 O5 2.689321 1_545
La5 O21 2.766465 1_555
La5 O41 2.780021 1_555
La6 O44 2.406083 1_555
La6 O32 2.477407 1_545
La6 O38 2.477618 1_555
La6 O57 2.527964 1_555
La6 O27 2.629361 1_555
La6 O1 2.683047 1_545
La6 O6 2.689321 1_545
La6 O22 2.766465 1_555
La6 O42 2.780021 1_555
La7 O45 2.406083 1_455
La7 O33 2.477407 1_565
La7 O39 2.477618 1_555
La7 O56 2.527964 1_555
La7 O26 2.629361 1_555
La7 O0 2.683047 1_565
La7 O7 2.689321 1_565
La7 O23 2.766465 1_555
La7 O43 2.780021 1_555
Mo0 O52 1.763788 1_555
Mo0 O56 1.777574 1_555
Mo0 O20 1.828574 1_554
Mo0 O12 1.836707 1_555
Mo1 O53 1.763788 1_555
Mo1 O57 1.777574 1_555
Mo1 O21 1.828574 1_555
Mo1 O13 1.836707 1_555
Mo2 O54 1.763788 1_555
Mo2 O58 1.777574 1_555
Mo2 O22 1.828574 1_556
Mo2 O14 1.836707 1_555
Mo3 O55 1.763788 1_555
Mo3 O59 1.777574 1_555
Mo3 O23 1.828574 1_555
Mo3 O15 1.836707 1_555
Mo4 O44 1.779430 1_555
Mo4 O36 1.784616 1_554
Mo4 O48 1.787907 1_554
Mo4 O0 1.844022 1_555
Mo5 O45 1.779430 1_555
Mo5 O37 1.784616 1_555
Mo5 O49 1.787907 1_555
Mo5 O1 1.844022 1_555
Mo6 O46 1.779430 1_555
Mo6 O38 1.784616 1_556
Mo6 O50 1.787907 1_556
Mo6 O2 1.844022 1_555
Mo7 O47 1.779430 1_555
Mo7 O39 1.784616 1_555
Mo7 O51 1.787907 1_555
Mo7 O3 1.844022 1_555
Mo8 O24 1.742512 1_555
Mo8 O4 1.799617 1_555
Mo8 O16 1.842420 1_555
Mo8 O8 1.856677 1_555
Mo8 O10 2.593686 1_555
Mo9 O25 1.742512 1_555
Mo9 O5 1.799617 1_455
Mo9 O17 1.842420 1_555
Mo9 O9 1.856677 1_556
Mo9 O11 2.593686 1_455
Mo10 O26 1.742512 1_555
Mo10 O6 1.799617 1_555
Mo10 O18 1.842420 1_555
Mo10 O10 1.856677 1_555
Mo10 O8 2.593686 1_555
Mo11 O27 1.742512 1_555
Mo11 O7 1.799617 1_655
Mo11 O19 1.842420 1_555
Mo11 O11 1.856677 1_554
Mo11 O9 2.593686 1_655
Mo12 O28 1.765303 1_555
Mo12 O32 1.779989 1_555
Mo12 O40 1.780167 1_555
Mo12 O16 2.123181 1_555
Mo12 O10 2.341650 1_555
Mo12 O14 2.436274 1_555
Mo13 O29 1.765303 1_555
Mo13 O33 1.779989 1_556
Mo13 O41 1.780167 1_455
Mo13 O17 2.123181 1_555
Mo13 O11 2.341650 1_455
Mo13 O15 2.436274 1_555
Mo14 O30 1.765303 1_555
Mo14 O34 1.779989 1_555
Mo14 O42 1.780167 1_555
Mo14 O18 2.123181 1_555
Mo14 O8 2.341650 1_555
Mo14 O12 2.436274 1_555
Mo15 O31 1.765303 1_555
Mo15 O35 1.779989 1_554
Mo15 O43 1.780167 1_655
Mo15 O19 2.123181 1_555
Mo15 O9 2.341650 1_655
Mo15 O13 2.436274 1_555
