# generated using pymatgen
data_K3Sc(AsSe2)6
_symmetry_space_group_name_H-M   'P 1'
_cell_length_a   9.78143381
_cell_length_b   9.78143513
_cell_length_c   7.88581679
_cell_angle_alpha   90.00000000
_cell_angle_beta   90.00000000
_cell_angle_gamma   119.99999891
_symmetry_Int_Tables_number   1
_chemical_formula_structural   K3Sc(AsSe2)6
_chemical_formula_sum   'K3 Sc1 As6 Se12'
_cell_volume   653.40494791
_cell_formula_units_Z   1
loop_
 _symmetry_equiv_pos_site_id
 _symmetry_equiv_pos_as_xyz
  1  'x, y, z'
loop_
 _atom_site_type_symbol
 _atom_site_label
 _atom_site_symmetry_multiplicity
 _atom_site_fract_x
 _atom_site_fract_y
 _atom_site_fract_z
 _atom_site_occupancy
  K  K0  1  0.00000000  0.00000000  0.00000000  1
  K  K1  1  0.33333300  0.66666700  0.85287814  1
  K  K2  1  0.66666700  0.33333300  0.14712186  1
  Sc  Sc0  1  0.00000000  0.00000000  0.50000000  1
  As  As0  1  0.28532315  0.83595393  0.38451231  1
  As  As1  1  0.16404607  0.44936822  0.38451231  1
  As  As2  1  0.55063178  0.71467685  0.38451231  1
  As  As3  1  0.71467685  0.16404607  0.61548769  1
  As  As4  1  0.83595393  0.55063178  0.61548769  1
  As  As5  1  0.44936822  0.28532315  0.61548769  1
  Se  Se0  1  0.24907367  0.04606493  0.29934808  1
  Se  Se1  1  0.95393507  0.20300974  0.29934808  1
  Se  Se2  1  0.79699026  0.75092633  0.29934808  1
  Se  Se3  1  0.75092633  0.95393507  0.70065192  1
  Se  Se4  1  0.04606493  0.79699026  0.70065192  1
  Se  Se5  1  0.20300974  0.24907367  0.70065192  1
  Se  Se6  1  0.52452766  0.90982924  0.21570569  1
  Se  Se7  1  0.09017076  0.61469742  0.21570569  1
  Se  Se8  1  0.38530258  0.47547234  0.21570569  1
  Se  Se9  1  0.47547234  0.09017076  0.78429431  1
  Se  Se10  1  0.90982924  0.38530258  0.78429431  1
  Se  Se11  1  0.61469742  0.52452766  0.78429431  1
loop_
_geom_bond_atom_site_label_1
_geom_bond_atom_site_label_2
_geom_bond_distance
_geom_bond_site_symmetry_2
K0 Se0 3.257802 1_555
K0 Se3 3.257802 1_444
K0 Se5 3.257804 1_554
K0 Se2 3.257804 1_445
K0 Se1 3.257808 1_455
K0 Se4 3.257808 1_544
K1 Se7 3.590669 1_556
K1 Se6 3.590673 1_556
K1 Se8 3.590680 1_556
K1 Se10 3.691370 1_455
K1 Se11 3.691370 1_555
K1 Se9 3.691371 1_565
K1 Se4 3.813584 1_555
K1 Se3 3.813598 1_555
K1 Se5 3.813602 1_555
K2 Se10 3.590669 1_554
K2 Se9 3.590673 1_554
K2 Se11 3.590680 1_554
K2 Se7 3.691370 1_655
K2 Se8 3.691370 1_555
K2 Se6 3.691371 1_545
K2 Se1 3.813584 1_555
K2 Se0 3.813598 1_555
K2 Se2 3.813602 1_555
Sc0 Se0 2.746726 1_555
Sc0 Se3 2.746726 1_445
Sc0 Se5 2.746729 1_555
Sc0 Se2 2.746729 1_445
Sc0 Se4 2.746735 1_545
Sc0 Se1 2.746735 1_455
As0 Se0 2.351438 1_565
As0 Se7 2.443035 1_555
As0 Se6 2.465352 1_555
As1 Se1 2.351426 1_455
As1 Se8 2.443035 1_555
As1 Se7 2.465352 1_555
As2 Se2 2.351419 1_555
As2 Se6 2.443035 1_555
As2 Se8 2.465352 1_555
As3 Se3 2.351438 1_545
As3 Se10 2.443035 1_555
As3 Se9 2.465352 1_555
As4 Se4 2.351426 1_655
As4 Se11 2.443035 1_555
As4 Se10 2.465352 1_555
As5 Se5 2.351419 1_555
As5 Se9 2.443035 1_555
As5 Se11 2.465352 1_555
