# generated using pymatgen
data_KNi(Sb4Ru)3
_symmetry_space_group_name_H-M   'P 1'
_cell_length_a   8.06563963
_cell_length_b   8.06563988
_cell_length_c   8.06563770
_cell_angle_alpha   109.39337374
_cell_angle_beta   109.39337449
_cell_angle_gamma   109.39337643
_symmetry_Int_Tables_number   1
_chemical_formula_structural   KNi(Sb4Ru)3
_chemical_formula_sum   'K1 Ni1 Sb12 Ru3'
_cell_volume   405.07914423
_cell_formula_units_Z   1
loop_
 _symmetry_equiv_pos_site_id
 _symmetry_equiv_pos_as_xyz
  1  'x, y, z'
loop_
 _atom_site_type_symbol
 _atom_site_label
 _atom_site_symmetry_multiplicity
 _atom_site_fract_x
 _atom_site_fract_y
 _atom_site_fract_z
 _atom_site_occupancy
  K  K0  1  0.00000000  0.00000000  0.00000000  1
  Ni  Ni0  1  0.50000000  0.50000000  0.50000000  1
  Sb  Sb0  1  0.65621206  0.84065432  0.49924114  1
  Sb  Sb1  1  0.34378794  0.15934568  0.50075886  1
  Sb  Sb2  1  0.84154560  0.18358440  0.34226252  1
  Sb  Sb3  1  0.81641560  0.65773748  0.15845440  1
  Sb  Sb4  1  0.84065432  0.49924114  0.65621206  1
  Sb  Sb5  1  0.18358440  0.34226252  0.84154560  1
  Sb  Sb6  1  0.15845440  0.81641560  0.65773748  1
  Sb  Sb7  1  0.49924114  0.65621206  0.84065432  1
  Sb  Sb8  1  0.50075886  0.34378794  0.15934568  1
  Sb  Sb9  1  0.15934568  0.50075886  0.34378794  1
  Sb  Sb10  1  0.34226252  0.84154560  0.18358440  1
  Sb  Sb11  1  0.65773748  0.15845440  0.81641560  1
  Ru  Ru0  1  0.00000000  0.00000000  0.50000000  1
  Ru  Ru1  1  0.50000000  0.00000000  0.00000000  1
  Ru  Ru2  1  0.00000000  0.50000000  0.00000000  1
loop_
_geom_bond_atom_site_label_1
_geom_bond_atom_site_label_2
_geom_bond_distance
_geom_bond_site_symmetry_2
K0 Sb2 3.511669 1_455
K0 Sb6 3.511669 1_544
K0 Sb3 3.511669 1_445
K0 Sb5 3.511669 1_554
K0 Sb11 3.511670 1_454
K0 Sb10 3.511670 1_545
K0 Sb1 3.521648 1_555
K0 Sb0 3.521648 1_444
K0 Sb9 3.521648 1_555
K0 Sb4 3.521648 1_444
K0 Sb8 3.521648 1_555
K0 Sb7 3.521648 1_444
Ni0 Sb7 2.618026 1_555
Ni0 Sb8 2.618026 1_555
Ni0 Sb4 2.618026 1_555
Ni0 Sb9 2.618026 1_555
Ni0 Sb0 2.618026 1_555
Ni0 Sb1 2.618026 1_555
Sb0 Sb10 2.938861 1_555
Sb0 Sb11 2.952676 1_565
Sb1 Sb11 2.938861 1_555
Sb1 Sb10 2.952676 1_545
Sb2 Sb4 2.938861 1_555
Sb2 Sb9 2.952676 1_655
Sb3 Sb8 2.938861 1_555
Sb3 Sb7 2.952676 1_554
Sb4 Sb6 2.952676 1_655
Sb5 Sb7 2.938861 1_555
Sb5 Sb8 2.952676 1_556
Sb6 Sb9 2.938861 1_555
Ru0 Sb6 2.621559 1_545
Ru0 Sb2 2.621559 1_455
Ru0 Sb5 2.632147 1_555
Ru0 Sb3 2.632147 1_445
Ru0 Sb1 2.637696 1_555
Ru0 Sb0 2.637696 1_445
Ru1 Sb11 2.621559 1_554
Ru1 Sb10 2.621559 1_545
Ru1 Sb2 2.632147 1_555
Ru1 Sb6 2.632147 1_544
Ru1 Sb8 2.637697 1_555
Ru1 Sb7 2.637697 1_544
Ru2 Sb3 2.621559 1_455
Ru2 Sb5 2.621559 1_554
Ru2 Sb10 2.632148 1_555
Ru2 Sb11 2.632148 1_454
Ru2 Sb9 2.637696 1_555
Ru2 Sb4 2.637696 1_454
