# generated using pymatgen
data_Zr6BBr12
_symmetry_space_group_name_H-M   'P 1'
_cell_length_a   8.56650083
_cell_length_b   8.56650102
_cell_length_c   8.56650137
_cell_angle_alpha   107.17326487
_cell_angle_beta   107.17326403
_cell_angle_gamma   107.17325789
_symmetry_Int_Tables_number   1
_chemical_formula_structural   Zr6BBr12
_chemical_formula_sum   'Zr6 B1 Br12'
_cell_volume   521.05324779
_cell_formula_units_Z   1
loop_
 _symmetry_equiv_pos_site_id
 _symmetry_equiv_pos_as_xyz
  1  'x, y, z'
loop_
 _atom_site_type_symbol
 _atom_site_label
 _atom_site_symmetry_multiplicity
 _atom_site_fract_x
 _atom_site_fract_y
 _atom_site_fract_z
 _atom_site_occupancy
  Zr  Zr0  1  0.96899426  0.70790844  0.90203750  1
  Zr  Zr1  1  0.29209156  0.09796250  0.03100574  1
  Zr  Zr2  1  0.09796250  0.03100574  0.29209156  1
  Zr  Zr3  1  0.90203750  0.96899426  0.70790844  1
  Zr  Zr4  1  0.70790844  0.90203750  0.96899426  1
  Zr  Zr5  1  0.03100574  0.29209156  0.09796250  1
  B  B0  1  0.00000000  0.00000000  0.00000000  1
  Br  Br0  1  0.92032622  0.31266537  0.77317453  1
  Br  Br1  1  0.68733463  0.22682547  0.07967379  1
  Br  Br2  1  0.44947154  0.14536667  0.37250322  1
  Br  Br3  1  0.85463333  0.62749678  0.55052846  1
  Br  Br4  1  0.22682547  0.07967379  0.68733463  1
  Br  Br5  1  0.62749678  0.55052846  0.85463333  1
  Br  Br6  1  0.37250322  0.44947154  0.14536667  1
  Br  Br7  1  0.77317453  0.92032621  0.31266537  1
  Br  Br8  1  0.14536667  0.37250322  0.44947154  1
  Br  Br9  1  0.55052846  0.85463333  0.62749678  1
  Br  Br10  1  0.31266537  0.77317453  0.92032621  1
  Br  Br11  1  0.07967378  0.68733463  0.22682547  1
loop_
_geom_bond_atom_site_label_1
_geom_bond_atom_site_label_2
_geom_bond_distance
_geom_bond_site_symmetry_2
B0 Zr5 2.296021 1_555
B0 Zr0 2.296021 1_444
B0 Zr1 2.296021 1_555
B0 Zr4 2.296021 1_444
B0 Zr3 2.296021 1_444
B0 Zr2 2.296021 1_555
Br0 Zr5 2.738914 1_656
Br0 Zr3 2.776418 1_545
Br0 Zr0 3.089313 1_555
Br1 Zr4 2.738914 1_544
Br1 Zr5 2.776418 1_655
Br1 Zr1 3.089313 1_555
Br2 Zr2 2.671358 1_555
Br2 Zr1 2.680826 1_555
Br3 Zr0 2.671358 1_555
Br3 Zr3 2.680825 1_555
Br4 Zr3 2.738914 1_445
Br4 Zr1 2.776418 1_556
Br4 Zr2 3.089313 1_555
Br5 Zr4 2.671358 1_555
Br5 Zr0 2.680826 1_555
Br6 Zr1 2.671358 1_555
Br6 Zr5 2.680826 1_555
Br7 Zr2 2.738914 1_665
Br7 Zr4 2.776418 1_554
Br7 Zr3 3.089313 1_555
Br8 Zr5 2.671358 1_555
Br8 Zr2 2.680825 1_555
Br9 Zr3 2.671358 1_555
Br9 Zr4 2.680826 1_555
Br10 Zr1 2.738914 1_566
Br10 Zr0 2.776418 1_455
Br10 Zr4 3.089313 1_555
Br11 Zr0 2.738914 1_454
Br11 Zr2 2.776418 1_565
Br11 Zr5 3.089313 1_555
