# generated using pymatgen
data_KCoP2Os
_symmetry_space_group_name_H-M   'P 1'
_cell_length_a   7.14268576
_cell_length_b   7.14268567
_cell_length_c   7.14268621
_cell_angle_alpha   149.05960289
_cell_angle_beta   149.05960402
_cell_angle_gamma   44.32357987
_symmetry_Int_Tables_number   1
_chemical_formula_structural   KCoP2Os
_chemical_formula_sum   'K1 Co1 P2 Os1'
_cell_volume   96.04614222
_cell_formula_units_Z   1
loop_
 _symmetry_equiv_pos_site_id
 _symmetry_equiv_pos_as_xyz
  1  'x, y, z'
loop_
 _atom_site_type_symbol
 _atom_site_label
 _atom_site_symmetry_multiplicity
 _atom_site_fract_x
 _atom_site_fract_y
 _atom_site_fract_z
 _atom_site_occupancy
  K  K0  1  0.00000000  0.00000000  0.00000000  1
  Co  Co0  1  0.25000000  0.75000000  0.50000000  1
  P  P0  1  0.34288728  0.34288728  1.00000000  1
  P  P1  1  0.65711272  0.65711272  0.00000000  1
  Os  Os0  1  0.75000000  0.25000000  0.50000000  1
loop_
_geom_bond_atom_site_label_1
_geom_bond_atom_site_label_2
_geom_bond_distance
_geom_bond_site_symmetry_2
K0 P1 3.402985 1_556
K0 P0 3.402985 1_443
K0 P1 3.402985 1_455
K0 P0 3.402985 1_544
K0 P1 3.402985 1_545
K0 P0 3.402985 1_454
K0 P1 3.402985 1_444
K0 P0 3.402985 1_555
Co0 P1 2.267169 1_455
Co0 P0 2.267169 1_565
Co0 P1 2.267169 1_556
Co0 P0 2.267169 1_554
Co0 Os0 2.694387 1_555
Co0 Os0 2.694387 1_465
Co0 Os0 2.694387 1_454
Co0 Os0 2.694387 1_566
Os0 P0 2.267169 1_655
Os0 P1 2.267169 1_545
Os0 P0 2.267169 1_554
Os0 P1 2.267169 1_556
