# generated using pymatgen
data_Mg(BC)2
_symmetry_space_group_name_H-M   'P 1'
_cell_length_a   7.19993164
_cell_length_b   7.19993164
_cell_length_c   7.40738216
_cell_angle_alpha   90.00000000
_cell_angle_beta   90.00000000
_cell_angle_gamma   98.17670443
_symmetry_Int_Tables_number   1
_chemical_formula_structural   Mg(BC)2
_chemical_formula_sum   'Mg8 B16 C16'
_cell_volume   380.08779689
_cell_formula_units_Z   8
loop_
 _symmetry_equiv_pos_site_id
 _symmetry_equiv_pos_as_xyz
  1  'x, y, z'
loop_
 _atom_site_type_symbol
 _atom_site_label
 _atom_site_symmetry_multiplicity
 _atom_site_fract_x
 _atom_site_fract_y
 _atom_site_fract_z
 _atom_site_occupancy
  Mg  Mg0  1  0.72152975  0.72152975  0.00918406  1
  Mg  Mg1  1  0.77847025  0.77847025  0.50918406  1
  Mg  Mg2  1  0.22152975  0.22152975  0.49081594  1
  Mg  Mg3  1  0.27847025  0.27847025  0.99081594  1
  Mg  Mg4  1  0.34774027  0.65225973  0.50000000  1
  Mg  Mg5  1  0.15225973  0.84774027  0.00000000  1
  Mg  Mg6  1  0.65225973  0.34774027  0.50000000  1
  Mg  Mg7  1  0.84774027  0.15225973  0.00000000  1
  B  B0  1  0.78721081  0.53160325  0.75487227  1
  B  B1  1  0.46839675  0.21278919  0.24512773  1
  B  B2  1  0.03160325  0.28721081  0.74512773  1
  B  B3  1  0.71278919  0.96839675  0.25487227  1
  B  B4  1  0.53160325  0.78721081  0.75487227  1
  B  B5  1  0.96839675  0.71278919  0.25487227  1
  B  B6  1  0.28721081  0.03160325  0.74512773  1
  B  B7  1  0.21278919  0.46839675  0.24512773  1
  B  B8  1  0.84401391  0.34401391  0.25000000  1
  B  B9  1  0.65598609  0.15598609  0.75000000  1
  B  B10  1  0.15598609  0.65598609  0.75000000  1
  B  B11  1  0.34401391  0.84401391  0.25000000  1
  B  B12  1  0.58805119  0.58805119  0.27523059  1
  B  B13  1  0.91194881  0.91194881  0.77523059  1
  B  B14  1  0.08805119  0.08805119  0.22476941  1
  B  B15  1  0.41194881  0.41194881  0.72476941  1
  C  C0  1  0.04991344  0.29887252  0.22411243  1
  C  C1  1  0.45008656  0.20112748  0.72411243  1
  C  C2  1  0.79887252  0.54991344  0.27588757  1
  C  C3  1  0.70112748  0.95008656  0.77588757  1
  C  C4  1  0.29887252  0.04991344  0.22411243  1
  C  C5  1  0.95008656  0.70112748  0.77588757  1
  C  C6  1  0.54991344  0.79887252  0.27588757  1
  C  C7  1  0.20112748  0.45008656  0.72411243  1
  C  C8  1  0.67654654  0.17654654  0.25000000  1
  C  C9  1  0.82345346  0.32345346  0.75000000  1
  C  C10  1  0.32345346  0.82345346  0.75000000  1
  C  C11  1  0.17654654  0.67654654  0.25000000  1
  C  C12  1  0.92027454  0.92027454  0.23007343  1
  C  C13  1  0.57972546  0.57972546  0.73007343  1
  C  C14  1  0.42027454  0.42027454  0.26992657  1
  C  C15  1  0.07972546  0.07972546  0.76992657  1
loop_
_geom_bond_atom_site_label_1
_geom_bond_atom_site_label_2
_geom_bond_distance
_geom_bond_site_symmetry_2
B0 C9 1.557764 1_555
B0 C5 1.575458 1_555
B0 C13 1.591446 1_555
B0 Mg0 2.413745 1_556
B0 Mg6 2.427953 1_555
B0 Mg1 2.550898 1_555
B1 C8 1.557764 1_555
B1 C4 1.575458 1_555
B1 C14 1.591446 1_555
B1 Mg3 2.413745 1_554
B1 Mg6 2.427953 1_555
B1 Mg2 2.550898 1_555
B2 C9 1.557764 1_455
B2 C7 1.575458 1_555
B2 C15 1.591446 1_555
B2 Mg2 2.413745 1_555
B2 Mg7 2.427953 1_456
B2 Mg3 2.550898 1_555
B3 C8 1.557764 1_565
B3 C6 1.575458 1_555
B3 C12 1.591446 1_555
B3 Mg1 2.413745 1_555
B3 Mg7 2.427953 1_565
B3 Mg0 2.550898 1_555
B4 C10 1.557764 1_555
B4 C3 1.575458 1_555
B4 C13 1.591446 1_555
B4 Mg0 2.413745 1_556
B4 Mg4 2.427953 1_555
B4 Mg1 2.550898 1_555
B5 C11 1.557764 1_655
B5 C2 1.575458 1_555
B5 C12 1.591446 1_555
B5 Mg1 2.413745 1_555
B5 Mg5 2.427953 1_655
B5 Mg0 2.550898 1_555
B6 C10 1.557764 1_545
B6 C1 1.575458 1_555
B6 C15 1.591446 1_555
B6 Mg2 2.413745 1_555
B6 Mg5 2.427953 1_546
B6 Mg3 2.550898 1_555
B7 C11 1.557764 1_555
B7 C0 1.575458 1_555
B7 C14 1.591446 1_555
B7 Mg3 2.413745 1_554
B7 Mg4 2.427953 1_555
B7 Mg2 2.550898 1_555
B8 C2 1.573899 1_555
B8 C0 1.573899 1_655
B8 C8 1.579283 1_555
B8 Mg6 2.312291 1_555
B8 Mg7 2.312291 1_555
B9 C1 1.573899 1_555
B9 C3 1.573899 1_545
B9 C9 1.579283 1_555
B9 Mg7 2.312291 1_556
B9 Mg6 2.312291 1_555
B10 C7 1.573899 1_555
B10 C5 1.573899 1_455
B10 C10 1.579283 1_555
B10 Mg5 2.312291 1_556
B10 Mg4 2.312291 1_555
B11 C4 1.573899 1_565
B11 C6 1.573899 1_555
B11 C11 1.579283 1_555
B11 Mg5 2.312291 1_555
B11 Mg4 2.312291 1_555
B12 C2 1.580506 1_555
B12 C6 1.580506 1_555
B12 C14 1.582687 1_555
B12 Mg0 2.338409 1_555
B12 Mg6 2.491382 1_555
B12 Mg4 2.491382 1_555
B12 Mg1 2.495568 1_555
B13 C5 1.580506 1_555
B13 C3 1.580506 1_555
B13 C15 1.582687 1_665
B13 Mg1 2.338409 1_555
B13 Mg5 2.491382 1_656
B13 Mg7 2.491382 1_566
B13 Mg0 2.495568 1_556
B14 C0 1.580506 1_555
B14 C4 1.580506 1_555
B14 C12 1.582687 1_445
B14 Mg2 2.338409 1_555
B14 Mg5 2.491382 1_545
B14 Mg7 2.491382 1_455
B14 Mg3 2.495568 1_554
B15 C1 1.580506 1_555
B15 C7 1.580506 1_555
B15 C13 1.582687 1_555
B15 Mg3 2.338409 1_555
B15 Mg4 2.491382 1_555
B15 Mg6 2.491382 1_555
B15 Mg2 2.495568 1_555
C0 Mg7 2.356262 1_455
C0 Mg3 2.405141 1_554
C0 Mg2 2.436286 1_555
C1 Mg6 2.356262 1_555
C1 Mg2 2.405141 1_555
C1 Mg3 2.436286 1_555
C2 Mg6 2.356262 1_555
C2 Mg1 2.405141 1_555
C2 Mg0 2.436286 1_555
C3 Mg7 2.356262 1_566
C3 Mg0 2.405141 1_556
C3 Mg1 2.436286 1_555
C4 Mg5 2.356262 1_545
C4 Mg3 2.405141 1_554
C4 Mg2 2.436286 1_555
C5 Mg5 2.356262 1_656
C5 Mg0 2.405141 1_556
C5 Mg1 2.436286 1_555
C6 Mg4 2.356262 1_555
C6 Mg1 2.405141 1_555
C6 Mg0 2.436286 1_555
C7 Mg4 2.356262 1_555
C7 Mg2 2.405141 1_555
C7 Mg3 2.436286 1_555
C8 Mg7 2.245101 1_555
C8 Mg6 2.245101 1_555
C9 Mg6 2.245101 1_555
C9 Mg7 2.245101 1_556
C10 Mg4 2.245101 1_555
C10 Mg5 2.245101 1_556
C11 Mg5 2.245101 1_555
C11 Mg4 2.245101 1_555
C12 Mg1 2.462267 1_555
C12 Mg0 2.487965 1_555
C12 Mg7 2.493016 1_565
C12 Mg5 2.493016 1_655
C13 Mg0 2.462267 1_556
C13 Mg1 2.487965 1_555
C13 Mg4 2.493016 1_555
C13 Mg6 2.493016 1_555
C14 Mg3 2.462267 1_554
C14 Mg2 2.487965 1_555
C14 Mg4 2.493016 1_555
C14 Mg6 2.493016 1_555
C15 Mg2 2.462267 1_555
C15 Mg3 2.487965 1_555
C15 Mg5 2.493016 1_546
C15 Mg7 2.493016 1_456
