# generated using pymatgen
data_K6InSe4Cl
_symmetry_space_group_name_H-M   'P 1'
_cell_length_a   10.68945354
_cell_length_b   10.68945262
_cell_length_c   7.78398056
_cell_angle_alpha   90.00000000
_cell_angle_beta   90.00000000
_cell_angle_gamma   119.99999987
_symmetry_Int_Tables_number   1
_chemical_formula_structural   K6InSe4Cl
_chemical_formula_sum   'K12 In2 Se8 Cl2'
_cell_volume   770.27064224
_cell_formula_units_Z   2
loop_
 _symmetry_equiv_pos_site_id
 _symmetry_equiv_pos_as_xyz
  1  'x, y, z'
loop_
 _atom_site_type_symbol
 _atom_site_label
 _atom_site_symmetry_multiplicity
 _atom_site_fract_x
 _atom_site_fract_y
 _atom_site_fract_z
 _atom_site_occupancy
  K  K0  1  0.12915746  0.87084254  0.50984898  1
  K  K1  1  0.74168409  0.87084254  0.50984898  1
  K  K2  1  0.94613267  0.47306584  0.32282384  1
  K  K3  1  0.52693416  0.47306584  0.32282384  1
  K  K4  1  0.87084254  0.74168409  0.00984898  1
  K  K5  1  0.25831591  0.12915746  0.00984898  1
  K  K6  1  0.52693416  0.05386733  0.32282384  1
  K  K7  1  0.12915746  0.25831591  0.50984898  1
  K  K8  1  0.87084254  0.12915746  0.00984898  1
  K  K9  1  0.05386733  0.52693416  0.82282384  1
  K  K10  1  0.47306584  0.94613267  0.82282384  1
  K  K11  1  0.47306584  0.52693416  0.82282384  1
  In  In0  1  0.66666700  0.33333300  0.71115644  1
  In  In1  1  0.33333300  0.66666700  0.21115644  1
  Se  Se0  1  0.40097213  0.20048656  0.60559537  1
  Se  Se1  1  0.59902787  0.79951344  0.10559537  1
  Se  Se2  1  0.66666700  0.33333300  0.04743372  1
  Se  Se3  1  0.79951344  0.59902787  0.60559537  1
  Se  Se4  1  0.20048656  0.40097213  0.10559537  1
  Se  Se5  1  0.33333300  0.66666700  0.54743372  1
  Se  Se6  1  0.20048656  0.79951344  0.10559537  1
  Se  Se7  1  0.79951344  0.20048656  0.60559537  1
  Cl  Cl0  1  0.00000000  0.00000000  0.26720627  1
  Cl  Cl1  1  0.00000000  0.00000000  0.76720627  1
loop_
_geom_bond_atom_site_label_1
_geom_bond_atom_site_label_2
_geom_bond_distance
_geom_bond_site_symmetry_2
K0 Se0 3.343039 1_565
K0 Se3 3.343039 1_455
K0 Se6 3.412596 1_555
K0 Se5 3.791548 1_555
K1 Se7 3.343039 1_565
K1 Se3 3.343039 1_555
K1 Se1 3.412589 1_555
K1 Se5 3.791548 1_555
K2 Se7 3.350271 1_555
K2 Se3 3.350285 1_555
K2 Se2 3.359804 1_555
K2 Se6 3.597330 1_655
K2 Se4 3.597330 1_655
K3 Se0 3.350271 1_555
K3 Se3 3.350271 1_555
K3 Se2 3.359804 1_555
K3 Se1 3.597330 1_555
K3 Se4 3.597330 1_555
K4 Se1 3.343039 1_555
K4 Se6 3.343039 1_655
K4 Se3 3.412589 1_554
K4 Se2 3.791548 1_555
K5 Se6 3.343039 1_545
K5 Se4 3.343039 1_555
K5 Se0 3.412589 1_554
K5 Se2 3.791548 1_555
K6 Se7 3.350272 1_555
K6 Se0 3.350285 1_555
K6 Se2 3.359804 1_555
K6 Se1 3.597330 1_545
K6 Se6 3.597330 1_545
K7 Se0 3.343039 1_555
K7 Se7 3.343039 1_455
K7 Se4 3.412589 1_555
K7 Se5 3.791548 1_555
K8 Se1 3.343039 1_545
K8 Se4 3.343039 1_655
K8 Se7 3.412596 1_554
K8 Se2 3.791548 1_555
K9 Se6 3.350271 1_556
K9 Se4 3.350285 1_556
K9 Se5 3.359804 1_555
K9 Se7 3.597330 1_455
K9 Se3 3.597330 1_455
K10 Se6 3.350272 1_556
K10 Se1 3.350285 1_556
K10 Se5 3.359804 1_555
K10 Se0 3.597330 1_565
K10 Se7 3.597330 1_565
K11 Se1 3.350271 1_556
K11 Se4 3.350271 1_556
K11 Se5 3.359804 1_555
K11 Se0 3.597330 1_555
K11 Se3 3.597330 1_555
In0 Se7 2.593230 1_555
In0 Se3 2.593247 1_555
In0 Se0 2.593248 1_555
In0 Se2 2.617576 1_556
In1 Se6 2.593230 1_555
In1 Se4 2.593247 1_555
In1 Se1 2.593248 1_555
In1 Se5 2.617576 1_555
Cl0 K0 3.047235 1_545
Cl0 K7 3.047242 1_555
Cl0 K1 3.047243 1_445
Cl0 K8 3.119523 1_455
Cl0 K4 3.119530 1_445
Cl0 K5 3.119530 1_555
Cl1 K8 3.047235 1_456
Cl1 K4 3.047242 1_446
Cl1 K5 3.047243 1_556
Cl1 K0 3.119523 1_545
Cl1 K7 3.119530 1_555
Cl1 K1 3.119530 1_445
