# generated using pymatgen
data_Rb6ScSe4
_symmetry_space_group_name_H-M   'P 1'
_cell_length_a   11.00620663
_cell_length_b   11.00620573
_cell_length_c   8.28702105
_cell_angle_alpha   90.00000000
_cell_angle_beta   90.00000000
_cell_angle_gamma   119.99999687
_symmetry_Int_Tables_number   1
_chemical_formula_structural   Rb6ScSe4
_chemical_formula_sum   'Rb12 Sc2 Se8'
_cell_volume   869.36945143
_cell_formula_units_Z   2
loop_
 _symmetry_equiv_pos_site_id
 _symmetry_equiv_pos_as_xyz
  1  'x, y, z'
loop_
 _atom_site_type_symbol
 _atom_site_label
 _atom_site_symmetry_multiplicity
 _atom_site_fract_x
 _atom_site_fract_y
 _atom_site_fract_z
 _atom_site_occupancy
  Rb  Rb0  1  0.13361341  0.86638659  0.54514183  1
  Rb  Rb1  1  0.26722582  0.13361341  0.04514183  1
  Rb  Rb2  1  0.86638659  0.73277418  0.04514183  1
  Rb  Rb3  1  0.13361341  0.26722582  0.54514183  1
  Rb  Rb4  1  0.73277418  0.86638659  0.54514183  1
  Rb  Rb5  1  0.86638659  0.13361341  0.04514183  1
  Rb  Rb6  1  0.53096753  0.46903247  0.35985152  1
  Rb  Rb7  1  0.06193606  0.53096753  0.85985152  1
  Rb  Rb8  1  0.46903247  0.93806394  0.85985152  1
  Rb  Rb9  1  0.53096753  0.06193606  0.35985152  1
  Rb  Rb10  1  0.93806394  0.46903247  0.35985152  1
  Rb  Rb11  1  0.46903247  0.53096753  0.85985152  1
  Sc  Sc0  1  0.33333300  0.66666700  0.25812822  1
  Sc  Sc1  1  0.66666700  0.33333300  0.75812822  1
  Se  Se0  1  0.33333300  0.66666700  0.57068143  1
  Se  Se1  1  0.66666700  0.33333300  0.07068143  1
  Se  Se2  1  0.20541990  0.79458010  0.15530376  1
  Se  Se3  1  0.41083980  0.20541990  0.65530376  1
  Se  Se4  1  0.79458010  0.58916020  0.65530376  1
  Se  Se5  1  0.20541990  0.41083980  0.15530376  1
  Se  Se6  1  0.58916020  0.79458010  0.15530376  1
  Se  Se7  1  0.79458010  0.20541990  0.65530376  1
loop_
_geom_bond_atom_site_label_1
_geom_bond_atom_site_label_2
_geom_bond_distance
_geom_bond_site_symmetry_2
Rb0 Se2 3.508640 1_555
Rb0 Se3 3.561133 1_565
Rb0 Se4 3.561133 1_455
Rb0 Se0 3.813194 1_555
Rb1 Se3 3.508644 1_554
Rb1 Se5 3.561126 1_555
Rb1 Se2 3.561137 1_545
Rb1 Se1 3.813214 1_555
Rb2 Se4 3.508644 1_554
Rb2 Se6 3.561126 1_555
Rb2 Se2 3.561137 1_655
Rb2 Se1 3.813213 1_555
Rb3 Se5 3.508644 1_555
Rb3 Se3 3.561126 1_555
Rb3 Se7 3.561137 1_455
Rb3 Se0 3.813213 1_555
Rb4 Se6 3.508644 1_555
Rb4 Se4 3.561126 1_555
Rb4 Se7 3.561137 1_565
Rb4 Se0 3.813214 1_555
Rb5 Se7 3.508640 1_554
Rb5 Se6 3.561133 1_545
Rb5 Se5 3.561133 1_655
Rb5 Se1 3.813194 1_555
Rb6 Se3 3.510663 1_555
Rb6 Se4 3.510663 1_555
Rb6 Se1 3.526257 1_555
Rb6 Se6 3.718452 1_555
Rb6 Se5 3.718452 1_555
Rb7 Se5 3.510656 1_556
Rb7 Se2 3.510663 1_556
Rb7 Se0 3.526243 1_555
Rb7 Se7 3.718456 1_455
Rb7 Se4 3.718462 1_455
Rb8 Se6 3.510656 1_556
Rb8 Se2 3.510663 1_556
Rb8 Se0 3.526243 1_555
Rb8 Se7 3.718456 1_565
Rb8 Se3 3.718462 1_565
Rb9 Se3 3.510656 1_555
Rb9 Se7 3.510663 1_555
Rb9 Se1 3.526243 1_555
Rb9 Se2 3.718456 1_545
Rb9 Se6 3.718462 1_545
Rb10 Se4 3.510656 1_555
Rb10 Se7 3.510663 1_555
Rb10 Se1 3.526243 1_555
Rb10 Se2 3.718456 1_655
Rb10 Se5 3.718462 1_655
Rb11 Se6 3.510663 1_556
Rb11 Se5 3.510663 1_556
Rb11 Se0 3.526257 1_555
Rb11 Se3 3.718452 1_555
Rb11 Se4 3.718452 1_555
Sc0 Se2 2.583043 1_555
Sc0 Se5 2.583052 1_555
Sc0 Se6 2.583052 1_555
Sc0 Se0 2.590135 1_555
Sc1 Se7 2.583043 1_555
Sc1 Se4 2.583052 1_555
Sc1 Se3 2.583052 1_555
Sc1 Se1 2.590135 1_556
