# generated using pymatgen
data_Hf3Zr3CoCl15
_symmetry_space_group_name_H-M   'P 1'
_cell_length_a   8.83630680
_cell_length_b   8.83631161
_cell_length_c   8.83630633
_cell_angle_alpha   109.21574392
_cell_angle_beta   109.41635336
_cell_angle_gamma   109.78205934
_symmetry_Int_Tables_number   1
_chemical_formula_structural   Hf3Zr3CoCl15
_chemical_formula_sum   'Hf3 Zr3 Co1 Cl15'
_cell_volume   531.10433230
_cell_formula_units_Z   1
loop_
 _symmetry_equiv_pos_site_id
 _symmetry_equiv_pos_as_xyz
  1  'x, y, z'
loop_
 _atom_site_type_symbol
 _atom_site_label
 _atom_site_symmetry_multiplicity
 _atom_site_fract_x
 _atom_site_fract_y
 _atom_site_fract_z
 _atom_site_occupancy
  Hf  Hf0  1  0.23935498  0.23925885  0.00009513  1
  Hf  Hf1  1  0.76083728  0.76074115  0.00009613  1
  Hf  Hf2  1  0.76308293  0.00000000  0.76308293  1
  Zr  Zr0  1  0.00011545  0.76270176  0.76281721  1
  Zr  Zr1  1  0.00011545  0.23729824  0.23741369  1
  Zr  Zr2  1  0.23908618  1.00000000  0.23908618  1
  Co  Co0  1  0.00250957  0.00000000  0.00250957  1
  Cl  Cl0  1  0.74755546  0.50419837  0.75440393  1
  Cl  Cl1  1  0.49869422  0.50000000  0.99869422  1
  Cl  Cl2  1  0.99894761  0.50000000  0.49894761  1
  Cl  Cl3  1  0.50742311  0.00000000  0.50742311  1
  Cl  Cl4  1  0.25020556  0.00684846  0.75440493  1
  Cl  Cl5  1  0.00107090  0.24774332  0.75332658  1
  Cl  Cl6  1  0.74755546  0.99315154  0.24335709  1
  Cl  Cl7  1  0.50558327  0.75225668  0.75332658  1
  Cl  Cl8  1  0.99342331  0.74825619  0.24516712  1
  Cl  Cl9  1  0.24852339  0.24807265  0.49659703  1
  Cl  Cl10  1  0.75013900  0.24422204  0.99436005  1
  Cl  Cl11  1  0.49691093  0.25174381  0.24516712  1
  Cl  Cl12  1  0.25020556  0.49580163  0.24335709  1
  Cl  Cl13  1  0.75013800  0.75577796  0.50591696  1
  Cl  Cl14  1  0.24852339  0.75192735  0.00045074  1
loop_
_geom_bond_atom_site_label_1
_geom_bond_atom_site_label_2
_geom_bond_distance
_geom_bond_site_symmetry_2
Co0 Zr2 2.415494 1_545
Co0 Zr0 2.428974 1_544
Co0 Zr1 2.428974 1_555
Co0 Hf1 2.431979 1_445
Co0 Hf0 2.431984 1_555
Co0 Hf2 2.444593 1_454
Cl0 Hf1 2.505359 1_556
Cl0 Zr0 2.555584 1_655
Cl1 Hf0 2.650236 1_556
Cl1 Hf1 2.650241 1_556
Cl2 Zr0 2.688893 1_655
Cl2 Zr1 2.688893 1_655
Cl3 Hf2 2.610337 1_555
Cl3 Zr2 2.739773 1_545
Cl4 Hf0 2.505348 1_556
Cl4 Zr0 2.555578 1_545
Cl5 Hf2 2.520065 1_455
Cl5 Hf0 2.521031 1_556
Cl6 Hf1 2.505359 1_555
Cl6 Zr1 2.555583 1_665
Cl7 Hf2 2.520060 1_565
Cl7 Hf1 2.521041 1_556
Cl8 Hf1 2.505439 1_555
Cl8 Zr2 2.559505 1_655
Cl9 Zr1 2.538695 1_555
Cl9 Zr2 2.540964 1_545
Cl10 Hf2 2.503205 1_555
Cl10 Zr1 2.553297 1_656
Cl11 Hf0 2.505443 1_555
Cl11 Zr2 2.559505 1_545
Cl12 Hf0 2.505364 1_555
Cl12 Zr1 2.555584 1_555
Cl13 Hf2 2.503205 1_565
Cl13 Zr0 2.553297 1_655
Cl14 Zr0 2.538690 1_554
Cl14 Zr2 2.540959 1_555
