# generated using pymatgen
data_Lu2B(IrRh2)2
_symmetry_space_group_name_H-M   'P 1'
_cell_length_a   5.73024550
_cell_length_b   5.73024482
_cell_length_c   5.71806478
_cell_angle_alpha   60.07027720
_cell_angle_beta   60.07028109
_cell_angle_gamma   59.86365973
_symmetry_Int_Tables_number   1
_chemical_formula_structural   Lu2B(IrRh2)2
_chemical_formula_sum   'Lu2 B1 Ir2 Rh4'
_cell_volume   132.76712882
_cell_formula_units_Z   1
loop_
 _symmetry_equiv_pos_site_id
 _symmetry_equiv_pos_as_xyz
  1  'x, y, z'
loop_
 _atom_site_type_symbol
 _atom_site_label
 _atom_site_symmetry_multiplicity
 _atom_site_fract_x
 _atom_site_fract_y
 _atom_site_fract_z
 _atom_site_occupancy
  Lu  Lu0  1  0.75021358  0.75021358  0.75013960  1
  Lu  Lu1  1  0.24978642  0.24978642  0.25056575  1
  B  B0  1  0.00000000  0.00000000  0.99847047  1
  Ir  Ir0  1  0.74016390  0.25983610  0.74141665  1
  Ir  Ir1  1  0.25983610  0.74016390  0.74141665  1
  Rh  Rh0  1  0.74193800  0.74193800  0.25883552  1
  Rh  Rh1  1  0.25732350  0.74267650  0.25822143  1
  Rh  Rh2  1  0.74267650  0.25732350  0.25822143  1
  Rh  Rh3  1  0.25806200  0.25806200  0.74271051  1
loop_
_geom_bond_atom_site_label_1
_geom_bond_atom_site_label_2
_geom_bond_distance
_geom_bond_site_symmetry_2
Lu0 Rh0 2.857419 1_555
Lu0 Rh3 2.859927 1_565
Lu0 Rh3 2.859927 1_655
Lu0 Rh0 2.862225 1_556
Lu0 Rh2 2.863001 1_565
Lu0 Rh1 2.863001 1_655
Lu0 Rh2 2.868560 1_556
Lu0 Rh1 2.868560 1_556
Lu1 Rh3 2.857419 1_554
Lu1 Rh0 2.859927 1_545
Lu1 Rh0 2.859927 1_455
Lu1 Rh3 2.862225 1_555
Lu1 Rh1 2.862998 1_545
Lu1 Rh2 2.862999 1_455
Lu1 Rh1 2.868564 1_555
Lu1 Rh2 2.868564 1_555
B0 Ir0 2.090030 1_455
B0 Ir1 2.090030 1_545
B0 Rh1 2.090768 1_546
B0 Rh2 2.090768 1_456
B0 Rh3 2.095690 1_555
B0 Rh0 2.095690 1_446
Ir0 Lu1 2.864787 1_556
Ir0 Lu0 2.864790 1_555
Ir0 Lu0 2.867471 1_545
Ir0 Lu1 2.867473 1_655
Ir1 Lu1 2.864786 1_556
Ir1 Lu0 2.864790 1_555
Ir1 Lu0 2.867471 1_455
Ir1 Lu1 2.867473 1_565
