# generated using pymatgen
data_Zn3Cd(AsO2)8
_symmetry_space_group_name_H-M   'P 1'
_cell_length_a   5.14802623
_cell_length_b   4.58948466
_cell_length_c   17.87002616
_cell_angle_alpha   89.36633860
_cell_angle_beta   89.35634479
_cell_angle_gamma   90.18919589
_symmetry_Int_Tables_number   1
_chemical_formula_structural   Zn3Cd(AsO2)8
_chemical_formula_sum   'Zn3 Cd1 As8 O16'
_cell_volume   422.15637031
_cell_formula_units_Z   1
loop_
 _symmetry_equiv_pos_site_id
 _symmetry_equiv_pos_as_xyz
  1  'x, y, z'
loop_
 _atom_site_type_symbol
 _atom_site_label
 _atom_site_symmetry_multiplicity
 _atom_site_fract_x
 _atom_site_fract_y
 _atom_site_fract_z
 _atom_site_occupancy
  Zn  Zn0  1  0.48916267  0.24791597  0.24693988  1
  Zn  Zn1  1  0.01333115  0.25466161  0.74740682  1
  Zn  Zn2  1  0.51390964  0.74424076  0.75101568  1
  Cd  Cd0  1  0.99171127  0.72787173  0.25016623  1
  As  As0  1  0.28353727  0.50723492  0.41275157  1
  As  As1  1  0.77569619  0.49072082  0.08689476  1
  As  As2  1  0.72542415  0.48309715  0.59484967  1
  As  As3  1  0.21635963  0.51367291  0.90404016  1
  As  As4  1  0.70956125  0.01285395  0.40770132  1
  As  As5  1  0.21208558  0.99859164  0.09039167  1
  As  As6  1  0.29380801  0.98505910  0.59785165  1
  As  As7  1  0.78419813  0.00935179  0.90157843  1
  O  O0  1  0.26339539  0.47293752  0.31453589  1
  O  O1  1  0.70211866  0.50305024  0.18338388  1
  O  O2  1  0.76517579  0.50357167  0.69321371  1
  O  O3  1  0.26215761  0.49364604  0.80596180  1
  O  O4  1  0.72533883  0.02077352  0.30901889  1
  O  O5  1  0.24022559  0.03700582  0.18772894  1
  O  O6  1  0.26726054  0.00214513  0.69625886  1
  O  O7  1  0.76539851  0.99377726  0.80324703  1
  O  O8  1  0.37534989  0.88685033  0.41830027  1
  O  O9  1  0.87671943  0.11501690  0.08108218  1
  O  O10  1  0.62984118  0.10478730  0.58865498  1
  O  O11  1  0.11925028  0.89025946  0.91154239  1
  O  O12  1  0.88101018  0.38814618  0.90538975  1
  O  O13  1  0.38968112  0.60615470  0.59435887  1
  O  O14  1  0.11077078  0.61896092  0.09509316  1
  O  O15  1  0.61752430  0.38764668  0.42064557  1
loop_
_geom_bond_atom_site_label_1
_geom_bond_atom_site_label_2
_geom_bond_distance
_geom_bond_site_symmetry_2
Cd0 O0 2.159970 1_655
Cd0 O1 2.183684 1_555
Cd0 O4 2.191943 1_565
Cd0 O5 2.194423 1_665
As0 O0 1.768065 1_555
As0 O8 1.807779 1_555
As0 O15 1.813105 1_555
As1 O1 1.762777 1_555
As1 O9 1.806405 1_555
As1 O14 1.828735 1_655
As2 O2 1.775405 1_555
As2 O10 1.807974 1_555
As2 O13 1.820202 1_555
As3 O3 1.769261 1_555
As3 O11 1.806758 1_555
As3 O12 1.817988 1_455
As4 O4 1.764382 1_555
As4 O15 1.802355 1_555
As4 O8 1.820494 1_545
As5 O5 1.757818 1_565
As5 O9 1.817822 1_465
As5 O14 1.817832 1_555
As6 O6 1.764939 1_565
As6 O13 1.810776 1_555
As6 O10 1.818479 1_565
As7 O7 1.763158 1_545
As7 O12 1.809136 1_555
As7 O11 1.821140 1_645
O0 Zn0 1.969893 1_555
O1 Zn0 1.948595 1_555
O2 Zn1 1.971767 1_655
O2 Zn2 1.991184 1_555
O3 Zn2 1.975628 1_555
O3 Zn1 1.996248 1_555
O4 Zn0 1.951606 1_555
O5 Zn0 1.934890 1_555
O6 Zn1 1.973316 1_555
O6 Zn2 1.995745 1_545
O7 Zn2 1.974829 1_555
O7 Zn1 1.998323 1_665
