# generated using pymatgen
data_CsWCl6
_symmetry_space_group_name_H-M   'P 1'
_cell_length_a   6.86639318
_cell_length_b   6.86703153
_cell_length_c   12.45224139
_cell_angle_alpha   79.06505960
_cell_angle_beta   79.06569213
_cell_angle_gamma   55.98473329
_symmetry_Int_Tables_number   1
_chemical_formula_structural   CsWCl6
_chemical_formula_sum   'Cs2 W2 Cl12'
_cell_volume   475.31541073
_cell_formula_units_Z   2
loop_
 _symmetry_equiv_pos_site_id
 _symmetry_equiv_pos_as_xyz
  1  'x, y, z'
loop_
 _atom_site_type_symbol
 _atom_site_label
 _atom_site_symmetry_multiplicity
 _atom_site_fract_x
 _atom_site_fract_y
 _atom_site_fract_z
 _atom_site_occupancy
  Cs  Cs0  1  0.11541984  0.88465747  0.24990087  1
  Cs  Cs1  1  0.88458016  0.11534253  0.75009913  1
  W  W0  1  -0.00000000  0.50000000  0.00000000  1
  W  W1  1  0.50000000  -0.00000000  0.50000000  1
  Cl  Cl0  1  0.19923184  0.37228067  0.15774317  1
  Cl  Cl1  1  0.62774962  0.80079051  0.34225753  1
  Cl  Cl2  1  0.80076816  0.62771933  0.84225683  1
  Cl  Cl3  1  0.37225038  0.19920949  0.65774247  1
  Cl  Cl4  1  0.79606778  0.89098050  0.04028619  1
  Cl  Cl5  1  0.10901886  0.20387463  0.45971355  1
  Cl  Cl6  1  0.20393222  0.10901950  0.95971381  1
  Cl  Cl7  1  0.89098114  0.79612537  0.54028645  1
  Cl  Cl8  1  0.69898277  0.46356123  0.10236850  1
  Cl  Cl9  1  0.53642375  0.30097234  0.39761344  1
  Cl  Cl10  1  0.30101723  0.53643877  0.89763150  1
  Cl  Cl11  1  0.46357625  0.69902766  0.60238656  1
loop_
_geom_bond_atom_site_label_1
_geom_bond_atom_site_label_2
_geom_bond_distance
_geom_bond_site_symmetry_2
Cl0 W0 2.349975 1_555
Cl0 Cs0 3.611630 1_555
Cl0 Cs0 3.648058 1_545
Cl1 W1 2.349960 1_565
Cl1 Cs0 3.611980 1_555
Cl1 Cs0 3.648616 1_655
Cl2 W0 2.349975 1_656
Cl2 Cs1 3.611630 1_555
Cl2 Cs1 3.648058 1_565
Cl3 W1 2.349960 1_555
Cl3 Cs1 3.611980 1_555
Cl3 Cs1 3.648616 1_455
Cl4 W0 2.336489 1_655
Cl4 Cs0 3.693921 1_655
Cl4 Cs1 3.728633 1_564
Cl5 W1 2.336293 1_555
Cl5 Cs0 3.695191 1_545
Cl5 Cs1 3.730932 1_455
Cl6 W0 2.336489 1_556
Cl6 Cs1 3.693921 1_455
Cl6 Cs0 3.728633 1_546
Cl7 W1 2.336293 1_565
Cl7 Cs1 3.695191 1_565
Cl7 Cs0 3.730932 1_655
Cl8 W0 2.327599 1_655
Cl8 Cs0 3.722746 1_645
Cl8 Cs0 3.748562 1_555
Cl9 W1 2.327508 1_555
Cl9 Cs0 3.723755 1_645
Cl9 Cs0 3.749918 1_555
Cl10 W0 2.327599 1_556
Cl10 Cs1 3.722746 1_465
Cl10 Cs1 3.748562 1_555
Cl11 W1 2.327508 1_565
Cl11 Cs1 3.723755 1_465
Cl11 Cs1 3.749918 1_555
