# generated using pymatgen
data_Rb3Ag(SbAu)2
_symmetry_space_group_name_H-M   'P 1'
_cell_length_a   8.42384824
_cell_length_b   8.13737430
_cell_length_c   8.42384878
_cell_angle_alpha   45.44413964
_cell_angle_beta   46.48106118
_cell_angle_gamma   45.44413881
_symmetry_Int_Tables_number   1
_chemical_formula_structural   Rb3Ag(SbAu)2
_chemical_formula_sum   'Rb3 Ag1 Sb2 Au2'
_cell_volume   270.38645506
_cell_formula_units_Z   1
loop_
 _symmetry_equiv_pos_site_id
 _symmetry_equiv_pos_as_xyz
  1  'x, y, z'
loop_
 _atom_site_type_symbol
 _atom_site_label
 _atom_site_symmetry_multiplicity
 _atom_site_fract_x
 _atom_site_fract_y
 _atom_site_fract_z
 _atom_site_occupancy
  Rb  Rb0  1  0.50000000  0.50000000  0.50000000  1
  Rb  Rb1  1  0.91432668  0.92315407  0.91432668  1
  Rb  Rb2  1  0.08567332  0.07684593  0.08567332  1
  Ag  Ag0  1  0.50000000  0.00000000  0.50000000  1
  Sb  Sb0  1  0.24720512  0.24677903  0.24720512  1
  Sb  Sb1  1  0.75279488  0.75322097  0.75279488  1
  Au  Au0  1  0.00000000  0.50000000  0.50000000  1
  Au  Au1  1  0.50000000  0.50000000  0.00000000  1
loop_
_geom_bond_atom_site_label_1
_geom_bond_atom_site_label_2
_geom_bond_distance
_geom_bond_site_symmetry_2
Rb0 Sb0 3.990716 1_565
Rb0 Sb1 3.990716 1_545
Rb0 Rb1 4.146754 1_545
Rb0 Rb2 4.146754 1_565
Rb0 Rb1 4.206004 1_554
Rb0 Rb2 4.206004 1_556
Rb0 Rb1 4.206004 1_455
Rb0 Rb2 4.206004 1_655
Rb0 Sb0 4.230562 1_655
Rb0 Sb1 4.230562 1_455
Rb0 Sb0 4.230563 1_556
Rb0 Sb1 4.230563 1_554
Rb1 Sb1 3.666854 1_555
Rb1 Sb0 3.678992 1_656
Rb1 Sb0 3.777932 1_566
Rb1 Sb0 3.777932 1_665
Rb2 Sb0 3.666854 1_555
Rb2 Sb1 3.678992 1_454
Rb2 Sb1 3.777932 1_544
Rb2 Sb1 3.777932 1_445
Ag0 Sb1 2.710403 1_545
Ag0 Sb0 2.710403 1_555
Ag0 Au0 3.201208 1_645
Ag0 Au0 3.201208 1_555
Ag0 Au1 3.201208 1_546
Ag0 Au1 3.201208 1_555
Ag0 Rb2 3.803344 1_655
Ag0 Rb1 3.803344 1_445
Ag0 Rb2 3.803344 1_556
Ag0 Rb1 3.803344 1_544
Ag0 Rb0 4.068687 1_545
Ag0 Rb0 4.068687 1_555
Au0 Sb1 2.673222 1_455
Au0 Sb0 2.673222 1_555
Au0 Rb2 3.609970 1_565
Au0 Rb1 3.609970 1_445
Au0 Rb2 3.781098 1_556
Au0 Rb1 3.781098 1_454
Au0 Rb0 4.211924 1_555
Au0 Rb0 4.211924 1_455
Au1 Sb1 2.673222 1_554
Au1 Sb0 2.673222 1_555
Au1 Rb2 3.609970 1_565
Au1 Rb1 3.609970 1_544
Au1 Rb2 3.781098 1_655
Au1 Rb1 3.781098 1_454
Au1 Rb0 4.211924 1_554
Au1 Rb0 4.211924 1_555
