# generated using pymatgen
data_Ca3Ge3As3Pd20
_symmetry_space_group_name_H-M   'P 1'
_cell_length_a   8.78943990
_cell_length_b   8.80628679
_cell_length_c   8.83083232
_cell_angle_alpha   59.78146114
_cell_angle_beta   59.97055812
_cell_angle_gamma   60.24799526
_symmetry_Int_Tables_number   1
_chemical_formula_structural   Ca3Ge3As3Pd20
_chemical_formula_sum   'Ca3 Ge3 As3 Pd20'
_cell_volume   483.31039008
_cell_formula_units_Z   1
loop_
 _symmetry_equiv_pos_site_id
 _symmetry_equiv_pos_as_xyz
  1  'x, y, z'
loop_
 _atom_site_type_symbol
 _atom_site_label
 _atom_site_symmetry_multiplicity
 _atom_site_fract_x
 _atom_site_fract_y
 _atom_site_fract_z
 _atom_site_occupancy
  Ca  Ca0  1  0.25044087  0.24955913  0.25044087  1
  Ca  Ca1  1  0.75044087  0.74955913  0.75044087  1
  Ca  Ca2  1  0.99953725  0.00046275  0.99953725  1
  Ge  Ge0  1  0.73384852  0.26615148  0.73384852  1
  Ge  Ge1  1  0.26700527  0.26564795  0.73435205  1
  Ge  Ge2  1  0.73435205  0.73299473  0.26700527  1
  As  As0  1  0.73619391  0.26380609  0.26486022  1
  As  As1  1  0.26486022  0.73513978  0.73619391  1
  As  As2  1  0.26443666  0.73556334  0.26443666  1
  Pd  Pd0  1  0.38437895  0.38381791  0.38471099  1
  Pd  Pd1  1  0.61615914  0.61601601  0.61654452  1
  Pd  Pd2  1  0.38398399  0.38384086  0.84872067  1
  Pd  Pd3  1  0.38471099  0.84709315  0.38437895  1
  Pd  Pd4  1  0.61618209  0.61562105  0.15290685  1
  Pd  Pd5  1  0.61654452  0.15127933  0.61615914  1
  Pd  Pd6  1  0.84872067  0.38345548  0.38398399  1
  Pd  Pd7  1  0.15290685  0.61528901  0.61618209  1
  Pd  Pd8  1  0.34992416  0.00081227  0.99918773  1
  Pd  Pd9  1  0.65192541  0.99913706  0.00086294  1
  Pd  Pd10  1  0.00086294  0.34807459  0.65192541  1
  Pd  Pd11  1  0.99918773  0.65007584  0.34992416  1
  Pd  Pd12  1  0.99984829  0.35025774  0.99670546  1
  Pd  Pd13  1  0.64974226  0.00015171  0.34681149  1
  Pd  Pd14  1  0.99670546  0.65318851  0.99984829  1
  Pd  Pd15  1  0.34681149  0.00329454  0.64974226  1
  Pd  Pd16  1  0.00048166  0.99951834  0.34855683  1
  Pd  Pd17  1  0.99901935  0.00098065  0.65223360  1
  Pd  Pd18  1  0.65223360  0.34776640  0.99901935  1
  Pd  Pd19  1  0.34855683  0.65144317  0.00048166  1
loop_
_geom_bond_atom_site_label_1
_geom_bond_atom_site_label_2
_geom_bond_distance
_geom_bond_site_symmetry_2
Ca0 Pd2 2.889328 1_554
Ca0 Pd6 2.889329 1_455
Ca0 Pd3 2.894712 1_545
Ca0 Pd0 2.894719 1_555
Ca0 Pd15 3.364996 1_555
Ca0 Pd13 3.364996 1_555
Ca0 Pd17 3.376356 1_455
Ca0 Pd18 3.376356 1_554
Ca0 Pd16 3.376634 1_545
Ca0 Pd19 3.376634 1_555
Ca0 Pd8 3.396396 1_554
Ca0 Pd11 3.396396 1_455
Ca0 Pd10 3.399687 1_555
Ca0 Pd9 3.399687 1_545
Ca0 Pd12 3.414590 1_454
Ca0 Pd14 3.414590 1_454
Ca1 Pd5 2.889328 1_565
Ca1 Pd1 2.889335 1_555
Ca1 Pd4 2.894712 1_556
Ca1 Pd7 2.894712 1_655
Ca1 Pd14 3.364996 1_555
Ca1 Pd12 3.364996 1_555
Ca1 Pd17 3.376355 1_565
Ca1 Pd18 3.376355 1_555
Ca1 Pd16 3.376634 1_655
Ca1 Pd19 3.376634 1_556
Ca1 Pd11 3.396396 1_555
Ca1 Pd8 3.396397 1_565
Ca1 Pd9 3.399687 1_556
Ca1 Pd10 3.399687 1_655
Ca1 Pd13 3.414590 1_565
Ca1 Pd15 3.414590 1_565
Ca2 Pd10 3.055270 1_655
Ca2 Pd9 3.055270 1_546
Ca2 Pd17 3.066966 1_555
Ca2 Pd18 3.066967 1_555
Ca2 Pd14 3.069237 1_545
Ca2 Pd12 3.069237 1_555
Ca2 Pd15 3.069237 1_655
Ca2 Pd13 3.069237 1_556
Ca2 Pd11 3.079689 1_546
Ca2 Pd8 3.079689 1_655
Ca2 Pd16 3.082113 1_646
Ca2 Pd19 3.082113 1_646
Ge0 Pd9 2.451024 1_546
Ge0 Pd10 2.451024 1_655
Ge0 Pd18 2.452701 1_555
Ge0 Pd17 2.452701 1_555
Ge0 Pd1 2.516430 1_555
Ge0 Pd6 2.516430 1_555
Ge0 Pd2 2.516430 1_555
Ge0 Pd5 2.516437 1_555
Ge1 Pd8 2.443078 1_555
Ge1 Pd15 2.447996 1_555
Ge1 Pd12 2.447996 1_455
Ge1 Pd10 2.452738 1_555
Ge1 Pd5 2.513990 1_555
Ge1 Pd2 2.513997 1_555
Ge1 Pd7 2.514691 1_555
Ge1 Pd0 2.514691 1_555
Ge2 Pd11 2.443078 1_555
Ge2 Pd13 2.447996 1_565
Ge2 Pd14 2.447996 1_554
Ge2 Pd9 2.452738 1_555
Ge2 Pd6 2.513990 1_555
Ge2 Pd1 2.513990 1_555
Ge2 Pd3 2.514692 1_555
Ge2 Pd4 2.514698 1_555
As0 Pd16 2.445439 1_645
As0 Pd13 2.449733 1_555
As0 Pd12 2.449733 1_554
As0 Pd18 2.459209 1_554
As0 Pd5 2.527136 1_555
As0 Pd6 2.527143 1_555
As0 Pd4 2.530981 1_555
As0 Pd0 2.530981 1_555
As0 Ca2 3.307465 1_554
As1 Pd19 2.445439 1_556
As1 Pd15 2.449733 1_565
As1 Pd14 2.449733 1_455
As1 Pd17 2.459209 1_465
As1 Pd2 2.527136 1_555
As1 Pd1 2.527137 1_555
As1 Pd3 2.530981 1_555
As1 Pd7 2.530988 1_555
As1 Ca2 3.307465 1_465
As2 Pd8 2.445471 1_564
As2 Pd11 2.445471 1_455
As2 Pd19 2.449140 1_555
As2 Pd16 2.449140 1_555
As2 Pd7 2.530300 1_555
As2 Pd0 2.530300 1_555
As2 Pd4 2.530300 1_555
As2 Pd3 2.530307 1_555
As2 Ca2 3.301951 1_464
Pd0 Pd15 3.040725 1_555
Pd0 Pd10 3.061739 1_555
Pd0 Pd13 3.082728 1_555
Pd1 Pd13 3.062790 1_565
Pd1 Pd10 3.081446 1_655
Pd1 Pd15 3.101669 1_565
Pd2 Pd9 3.081443 1_546
Pd3 Pd9 3.061737 1_555
Pd4 Pd9 3.061740 1_555
Pd5 Pd9 3.081447 1_546
Pd8 Pd9 2.654545 1_546
Pd10 Pd11 2.654545 1_455
Pd10 Pd12 3.049949 1_455
Pd10 Pd15 3.049949 1_555
Pd10 Pd7 3.061732 1_555
Pd10 Pd17 3.063310 1_455
Pd10 Pd18 3.063310 1_455
Pd10 Pd6 3.081439 1_455
Pd11 Pd14 3.088685 1_554
Pd11 Pd13 3.088685 1_565
Pd12 Pd14 2.668099 1_555
Pd12 Pd7 3.040723 1_655
Pd12 Pd18 3.056073 1_555
Pd12 Pd2 3.062792 1_655
Pd12 Pd4 3.082726 1_556
Pd12 Pd16 3.087774 1_646
Pd12 Pd8 3.088685 1_655
Pd12 Pd6 3.101671 1_556
Pd13 Pd15 2.668100 1_555
Pd13 Pd3 3.040718 1_545
Pd13 Pd9 3.049949 1_545
Pd13 Pd18 3.056073 1_554
Pd13 Pd16 3.087774 1_645
Pd13 Pd5 3.101662 1_555
Pd14 Pd4 3.040727 1_556
Pd14 Pd9 3.049949 1_556
Pd14 Pd17 3.056073 1_565
Pd14 Pd6 3.062788 1_556
Pd14 Pd7 3.082729 1_655
Pd14 Pd19 3.087774 1_656
Pd14 Pd2 3.101667 1_655
Pd15 Pd17 3.056073 1_455
Pd15 Pd5 3.062784 1_555
Pd15 Pd3 3.082721 1_545
Pd15 Pd19 3.087774 1_546
Pd15 Pd8 3.088685 1_555
Pd16 Pd17 2.681799 1_465
Pd17 Pd9 3.063310 1_546
Pd18 Pd19 2.681799 1_556
Pd18 Pd9 3.063310 1_546
