# generated using pymatgen
data_Ba2Na2CaAs4
_symmetry_space_group_name_H-M   'P 1'
_cell_length_a   7.63082026
_cell_length_b   8.33486272
_cell_length_c   17.98701662
_cell_angle_alpha   62.22540849
_cell_angle_beta   90.00000000
_cell_angle_gamma   90.00000000
_symmetry_Int_Tables_number   1
_chemical_formula_structural   Ba2Na2CaAs4
_chemical_formula_sum   'Ba8 Na8 Ca4 As16'
_cell_volume   1012.20363828
_cell_formula_units_Z   4
loop_
 _symmetry_equiv_pos_site_id
 _symmetry_equiv_pos_as_xyz
  1  'x, y, z'
loop_
 _atom_site_type_symbol
 _atom_site_label
 _atom_site_symmetry_multiplicity
 _atom_site_fract_x
 _atom_site_fract_y
 _atom_site_fract_z
 _atom_site_occupancy
  Ba  Ba0  1  0.51910427  0.58445636  0.10099424  1
  Ba  Ba1  1  0.01910427  0.41554364  0.39900576  1
  Ba  Ba2  1  0.48327159  0.71670952  0.60252885  1
  Ba  Ba3  1  0.98327159  0.28329048  0.89747115  1
  Ba  Ba4  1  0.48089573  0.41554364  0.89900576  1
  Ba  Ba5  1  0.98089573  0.58445636  0.60099424  1
  Ba  Ba6  1  0.51672841  0.28329048  0.39747115  1
  Ba  Ba7  1  0.01672841  0.71670952  0.10252885  1
  Na  Na0  1  0.85227842  0.22930646  0.25189884  1
  Na  Na1  1  0.35227842  0.77069354  0.24810116  1
  Na  Na2  1  0.14772158  0.77069354  0.74810116  1
  Na  Na3  1  0.64772158  0.22930646  0.75189884  1
  Na  Na4  1  0.67471169  0.05237273  0.12189322  1
  Na  Na5  1  0.17471169  0.94762727  0.37810678  1
  Na  Na6  1  0.32528831  0.94762727  0.87810678  1
  Na  Na7  1  0.82528831  0.05237273  0.62189322  1
  Ca  Ca0  1  0.32630558  0.19838361  0.62428839  1
  Ca  Ca1  1  0.82630558  0.80161639  0.87571161  1
  Ca  Ca2  1  0.67369442  0.80161639  0.37571161  1
  Ca  Ca3  1  0.17369442  0.19838361  0.12428839  1
  As  As0  1  0.85655125  0.42957621  0.03475152  1
  As  As1  1  0.35655125  0.57042379  0.46524848  1
  As  As2  1  0.14634382  0.00011248  0.53561421  1
  As  As3  1  0.64634382  0.99988752  0.96438579  1
  As  As4  1  0.14344875  0.57042379  0.96524848  1
  As  As5  1  0.64344875  0.42957621  0.53475152  1
  As  As6  1  0.85365618  0.99988752  0.46438579  1
  As  As7  1  0.35365618  0.00011248  0.03561421  1
  As  As8  1  0.72802401  0.64858345  0.25260871  1
  As  As9  1  0.22802401  0.35141655  0.24739129  1
  As  As10  1  0.27197599  0.35141655  0.74739129  1
  As  As11  1  0.77197599  0.64858345  0.75260871  1
  As  As12  1  0.96718712  0.85881996  0.25199537  1
  As  As13  1  0.46718712  0.14118004  0.24800463  1
  As  As14  1  0.03281288  0.14118004  0.74800463  1
  As  As15  1  0.53281288  0.85881996  0.75199537  1
loop_
_geom_bond_atom_site_label_1
_geom_bond_atom_site_label_2
_geom_bond_distance
_geom_bond_site_symmetry_2
As0 As4 2.523114 1_654
As0 Ca3 3.044878 1_655
As0 Ca1 3.095949 1_554
As0 Na4 3.110278 1_555
As0 Ba0 3.339200 1_555
As0 Ba3 3.365246 1_554
As0 Ba7 3.380365 1_655
As0 Na0 3.459278 1_555
As0 Ba4 3.802461 1_554
As1 As5 2.523114 1_555
As1 Ca2 3.044878 1_555
As1 Ca0 3.095949 1_555
As1 Na5 3.110278 1_555
As1 Ba1 3.339200 1_555
As1 Ba2 3.365246 1_555
As1 Ba6 3.380365 1_555
As1 Na1 3.459278 1_555
As1 Ba5 3.802461 1_455
As2 As6 2.575260 1_445
As2 Na7 3.038129 1_455
As2 Na5 3.069151 1_545
As2 Ca0 3.101179 1_555
As2 Ba2 3.314938 1_545
As2 Ba1 3.322696 1_555
As2 Ba5 3.343970 1_445
As2 Na2 3.384222 1_545
As2 Ba6 3.777204 1_555
As3 As7 2.575260 1_566
As3 Na6 3.038129 1_555
As3 Na4 3.069151 1_566
As3 Ca1 3.101179 1_555
As3 Ba3 3.314938 1_565
As3 Ba0 3.322696 1_556
As3 Ba4 3.343970 1_565
As3 Na3 3.384222 1_565
As3 Ba7 3.777204 1_656
As4 Ca1 3.044878 1_455
As4 Ca3 3.095949 1_556
As4 Na6 3.110278 1_555
As4 Ba4 3.339200 1_555
As4 Ba7 3.365246 1_556
As4 Ba3 3.380365 1_455
As4 Na2 3.459278 1_555
As4 Ba0 3.802461 1_556
As5 Ca0 3.044878 1_555
As5 Ca2 3.095949 1_555
As5 Na7 3.110278 1_555
As5 Ba5 3.339200 1_555
As5 Ba6 3.365246 1_555
As5 Ba2 3.380365 1_555
As5 Na3 3.459278 1_555
As5 Ba1 3.802461 1_655
As6 Na5 3.038129 1_655
As6 Na7 3.069151 1_565
As6 Ca2 3.101179 1_555
As6 Ba6 3.314938 1_565
As6 Ba5 3.322696 1_555
As6 Ba1 3.343970 1_665
As6 Na0 3.384222 1_565
As6 Ba2 3.777204 1_555
As7 Na4 3.038129 1_555
As7 Na6 3.069151 1_544
As7 Ca3 3.101179 1_555
As7 Ba7 3.314938 1_545
As7 Ba4 3.322696 1_554
As7 Ba0 3.343970 1_545
As7 Na1 3.384222 1_545
As7 Ba3 3.777204 1_454
As8 Na1 3.030946 1_555
As8 Ca2 3.055149 1_555
As8 Na4 3.105727 1_565
As8 Ba1 3.297504 1_655
As8 Ba7 3.321825 1_655
As8 Ba6 3.356384 1_555
As8 Ba0 3.409215 1_555
As9 Na0 3.030946 1_455
As9 Ca3 3.055149 1_555
As9 Na5 3.105727 1_545
As9 Ba0 3.297504 1_555
As9 Ba6 3.321825 1_555
As9 Ba7 3.356384 1_555
As9 Ba1 3.409215 1_555
As10 As14 2.526519 1_555
As10 Na3 3.030946 1_555
As10 Ca0 3.055149 1_555
As10 Na6 3.105727 1_545
As10 Ba5 3.297504 1_455
As10 Ba3 3.321825 1_455
As10 Ba2 3.356384 1_555
As10 Ba4 3.409215 1_555
As11 As15 2.526519 1_555
As11 Na2 3.030946 1_655
As11 Ca1 3.055149 1_555
As11 Na7 3.105727 1_565
As11 Ba4 3.297504 1_555
As11 Ba2 3.321825 1_555
As11 Ba3 3.356384 1_555
As11 Ba5 3.409215 1_555
As12 As8 2.526519 1_555
As12 Ca2 3.034166 1_555
As12 Na1 3.037685 1_655
As12 Na4 3.088920 1_565
As12 Ca3 3.116217 1_665
As12 Na5 3.125054 1_655
As12 Na0 3.209257 1_565
As12 Ba1 3.419700 1_655
As12 Ba7 3.426589 1_655
As13 As9 2.526519 1_555
As13 Ca3 3.034166 1_555
As13 Na0 3.037685 1_555
As13 Na5 3.088920 1_545
As13 Ca2 3.116217 1_545
As13 Na4 3.125054 1_555
As13 Na1 3.209257 1_545
As13 Ba0 3.419700 1_555
As13 Ba6 3.426589 1_555
As14 Ca0 3.034166 1_555
As14 Na3 3.037685 1_455
As14 Na6 3.088920 1_545
As14 Ca1 3.116217 1_445
As14 Na7 3.125054 1_455
As14 Na2 3.209257 1_545
As14 Ba5 3.419700 1_455
As14 Ba3 3.426589 1_455
As15 Ca1 3.034166 1_555
As15 Na2 3.037685 1_555
As15 Na7 3.088920 1_565
As15 Ca0 3.116217 1_565
As15 Na6 3.125054 1_555
As15 Na3 3.209257 1_565
As15 Ba4 3.419700 1_555
As15 Ba2 3.426589 1_555
