# generated using pymatgen
data_CaAl9Ni
_symmetry_space_group_name_H-M   'P 1'
_cell_length_a   7.50950749
_cell_length_b   7.50950499
_cell_length_c   7.90390260
_cell_angle_alpha   90.00000095
_cell_angle_beta   89.99999771
_cell_angle_gamma   119.99947913
_symmetry_Int_Tables_number   1
_chemical_formula_structural   CaAl9Ni
_chemical_formula_sum   'Ca2 Al18 Ni2'
_cell_volume   386.00884456
_cell_formula_units_Z   2
loop_
 _symmetry_equiv_pos_site_id
 _symmetry_equiv_pos_as_xyz
  1  'x, y, z'
loop_
 _atom_site_type_symbol
 _atom_site_label
 _atom_site_symmetry_multiplicity
 _atom_site_fract_x
 _atom_site_fract_y
 _atom_site_fract_z
 _atom_site_occupancy
  Ca  Ca0  1  0.00000008  0.00000006  0.25000013  1
  Ca  Ca1  1  -0.00000022  -0.00000023  0.74999984  1
  Al  Al0  1  0.47664712  0.95329483  0.25000004  1
  Al  Al1  1  0.52335111  0.47664884  0.75000013  1
  Al  Al2  1  0.95329642  0.47664882  0.75000007  1
  Al  Al3  1  0.04670510  0.52335274  0.24999998  1
  Al  Al4  1  0.47664805  0.52335189  0.24999989  1
  Al  Al5  1  0.52335101  0.04670357  0.74999992  1
  Al  Al6  1  0.20863090  0.41726214  0.51697711  1
  Al  Al7  1  0.79136883  0.20863091  0.01697408  1
  Al  Al8  1  0.41726268  0.20863111  0.01697403  1
  Al  Al9  1  0.58273784  0.79136888  0.51697703  1
  Al  Al10  1  0.20863109  0.79136915  0.51697737  1
  Al  Al11  1  0.79136880  0.58273730  0.48302607  1
  Al  Al12  1  0.79136878  0.20863088  0.48302590  1
  Al  Al13  1  0.79136873  0.58273722  0.01697397  1
  Al  Al14  1  0.41726267  0.20863162  0.48302598  1
  Al  Al15  1  0.58273776  0.79136880  0.98302292  1
  Al  Al16  1  0.20863109  0.41726212  0.98302285  1
  Al  Al17  1  0.20863104  0.79136891  0.98302255  1
  Ni  Ni0  1  0.33333449  0.66666664  0.75000007  1
  Ni  Ni1  1  0.66666763  0.33333379  0.25000008  1
loop_
_geom_bond_atom_site_label_1
_geom_bond_atom_site_label_2
_geom_bond_distance
_geom_bond_site_symmetry_2
Al0 Ni1 2.471567 1_565
Al0 Al9 2.744968 1_555
Al0 Al15 2.744969 1_554
Al0 Al10 2.744978 1_555
Al0 Al17 2.744979 1_554
Al0 Al8 2.850058 1_565
Al0 Al14 2.850061 1_565
Al0 Al12 2.850076 1_565
Al0 Al7 2.850076 1_565
Al1 Ni0 2.471518 1_555
Al1 Al14 2.744962 1_555
Al1 Al13 2.744962 1_556
Al1 Al8 2.744963 1_556
Al1 Al11 2.744964 1_555
Al1 Al15 2.850038 1_555
Al1 Al16 2.850039 1_555
Al1 Al9 2.850040 1_555
Al1 Al6 2.850041 1_555
Al2 Ni0 2.471562 1_655
Al2 Al7 2.744966 1_556
Al2 Al6 2.850041 1_655
Al3 Ni1 2.471558 1_455
Al3 Al6 2.744968 1_555
Al3 Al7 2.850077 1_455
Al4 Ni1 2.471539 1_555
Al4 Al9 2.744978 1_555
Al4 Al6 2.744980 1_555
Al4 Al8 2.850061 1_555
Al5 Ni0 2.471554 1_545
Al5 Al8 2.744949 1_556
Al5 Al7 2.744966 1_556
Al5 Al9 2.850042 1_545
Al6 Ni0 2.454190 1_555
Al6 Al9 2.809380 1_555
Al6 Ca1 3.279645 1_555
Al6 Ca0 3.437535 1_555
Al7 Ni1 2.454198 1_555
Al7 Al8 2.809354 1_555
Al7 Ca0 3.279641 1_655
Al7 Ca1 3.437505 1_654
Al8 Ni1 2.454211 1_555
Al8 Ca0 3.279662 1_555
Al8 Ca1 3.437527 1_554
Al9 Ni0 2.454186 1_555
Al9 Ca1 3.279644 1_665
Al9 Ca0 3.437536 1_665
Al10 Ni0 2.454186 1_555
Al10 Al11 2.726884 1_455
Al10 Al14 2.726884 1_565
Al10 Al3 2.744980 1_555
Al10 Al6 2.809358 1_555
Al10 Al9 2.809358 1_555
Al10 Al5 2.850049 1_565
Al10 Al2 2.850052 1_455
Al10 Ca1 3.279624 1_565
Al10 Ca0 3.437519 1_565
Al11 Ni1 2.454204 1_555
Al11 Al9 2.726864 1_555
Al11 Al2 2.744949 1_555
Al11 Al12 2.809354 1_555
Al11 Al14 2.809373 1_555
Al11 Al3 2.850059 1_655
Al11 Al4 2.850063 1_555
Al11 Ca0 3.279661 1_665
Al11 Ca1 3.437522 1_665
Al12 Ni1 2.454197 1_555
Al12 Al9 2.726881 1_545
Al12 Al6 2.726883 1_655
Al12 Al5 2.744965 1_555
Al12 Al2 2.744967 1_555
Al12 Al14 2.809355 1_555
Al12 Al3 2.850077 1_655
Al12 Ca0 3.279640 1_655
Al12 Ca1 3.437504 1_655
Al13 Ni1 2.454204 1_555
Al13 Al15 2.726864 1_554
Al13 Al17 2.726884 1_654
Al13 Al2 2.744948 1_554
Al13 Al7 2.809354 1_555
Al13 Al8 2.809374 1_555
Al13 Al3 2.850059 1_655
Al13 Al4 2.850061 1_555
Al13 Ca0 3.279663 1_665
Al13 Ca1 3.437524 1_664
Al14 Ni1 2.454210 1_555
Al14 Al6 2.726862 1_555
Al14 Al5 2.744950 1_555
Al14 Al4 2.850059 1_555
Al14 Ca0 3.279661 1_555
Al14 Ca1 3.437525 1_555
Al15 Ni0 2.454185 1_555
Al15 Al7 2.726882 1_566
Al15 Al4 2.744977 1_556
Al15 Al17 2.809358 1_555
Al15 Al16 2.809379 1_555
Al15 Al5 2.850043 1_565
Al15 Ca1 3.279645 1_665
Al15 Ca0 3.437538 1_666
Al16 Ni0 2.454189 1_555
Al16 Al8 2.726864 1_556
Al16 Al7 2.726884 1_456
Al16 Al3 2.744969 1_556
Al16 Al4 2.744978 1_556
Al16 Al17 2.809357 1_555
Al16 Al2 2.850041 1_455
Al16 Ca1 3.279646 1_555
Al16 Ca0 3.437537 1_556
Al17 Ni0 2.454184 1_555
Al17 Al8 2.726883 1_566
Al17 Al3 2.744979 1_556
Al17 Al2 2.850050 1_455
Al17 Al5 2.850050 1_565
Al17 Ca1 3.279626 1_565
Al17 Ca0 3.437522 1_566
