# generated using pymatgen
data_AgSbF6
_symmetry_space_group_name_H-M   'P 1'
_cell_length_a   8.38514488
_cell_length_b   8.38516387
_cell_length_c   8.38471779
_cell_angle_alpha   109.47063003
_cell_angle_beta   109.47109762
_cell_angle_gamma   109.47342860
_symmetry_Int_Tables_number   1
_chemical_formula_structural   AgSbF6
_chemical_formula_sum   'Ag4 Sb4 F24'
_cell_volume   453.81690952
_cell_formula_units_Z   4
loop_
 _symmetry_equiv_pos_site_id
 _symmetry_equiv_pos_as_xyz
  1  'x, y, z'
loop_
 _atom_site_type_symbol
 _atom_site_label
 _atom_site_symmetry_multiplicity
 _atom_site_fract_x
 _atom_site_fract_y
 _atom_site_fract_z
 _atom_site_occupancy
  Ag  Ag0  1  0.49999699  0.49999887  0.49999977  1
  Ag  Ag1  1  0.00000055  0.49999871  -0.00000028  1
  Ag  Ag2  1  0.00000051  -0.00000063  0.49999995  1
  Ag  Ag3  1  0.49999992  -0.00000130  -0.00000103  1
  Sb  Sb0  1  0.00000009  -0.00000343  -0.00000048  1
  Sb  Sb1  1  0.50000094  0.49999933  -0.00000123  1
  Sb  Sb2  1  -0.00000242  0.50000483  0.50000303  1
  Sb  Sb3  1  0.50000016  -0.00000094  0.49999826  1
  F  F0  1  0.41547781  0.67698934  0.96868029  1
  F  F1  1  0.29173833  0.82305724  0.23854428  1
  F  F2  1  0.08450950  0.05319063  0.26146690  1
  F  F3  1  0.44681105  0.53131602  0.20828556  1
  F  F4  1  0.53132861  0.20827888  0.44682320  1
  F  F5  1  0.96868624  0.41550233  0.67695522  1
  F  F6  1  0.82300307  0.23848818  0.29168861  1
  F  F7  1  0.26152749  0.08453208  0.05321086  1
  F  F8  1  0.79172641  0.55318444  0.46868014  1
  F  F9  1  0.94682651  0.73855447  0.91549403  1
  F  F10  1  0.76143475  0.70826122  0.17693753  1
  F  F11  1  0.32304890  0.03130736  0.58449473  1
  F  F12  1  0.73847286  0.91546581  0.94678902  1
  F  F13  1  0.17699715  0.76151902  0.70831531  1
  F  F14  1  0.03130813  0.58449622  0.32304338  1
  F  F15  1  0.46867301  0.79171970  0.55317558  1
  F  F16  1  0.55319074  0.46868280  0.79171332  1
  F  F17  1  0.91549089  0.94680871  0.73853294  1
  F  F18  1  0.70826255  0.17694164  0.76145412  1
  F  F19  1  0.58452524  0.32301097  0.03132159  1
  F  F20  1  0.20827274  0.44682963  0.53132621  1
  F  F21  1  0.05317222  0.26144052  0.08450575  1
  F  F22  1  0.23856569  0.29173680  0.82306119  1
  F  F23  1  0.67695239  0.96869156  0.41550326  1
loop_
_geom_bond_atom_site_label_1
_geom_bond_atom_site_label_2
_geom_bond_distance
_geom_bond_site_symmetry_2
Ag0 F16 2.455495 1_555
Ag0 F3 2.455512 1_555
Ag0 F8 2.455744 1_555
Ag0 F20 2.455746 1_555
Ag0 F15 2.455747 1_555
Ag0 F4 2.455771 1_555
Ag1 F5 2.455626 1_454
Ag1 F14 2.455638 1_555
Ag1 F18 2.455747 1_454
Ag1 F1 2.455752 1_555
Ag1 F9 2.455826 1_454
Ag1 F21 2.455841 1_555
Ag2 F2 2.455605 1_555
Ag2 F17 2.455605 1_445
Ag2 F22 2.455755 1_555
Ag2 F10 2.455762 1_445
Ag2 F23 2.455799 1_445
Ag2 F11 2.455803 1_555
Ag3 F13 2.455276 1_544
Ag3 F6 2.455305 1_555
Ag3 F12 2.455393 1_544
Ag3 F7 2.455397 1_555
Ag3 F0 2.455416 1_544
Ag3 F19 2.455425 1_555
F0 Sb1 1.900215 1_556
F1 Sb3 1.899669 1_565
F2 Sb0 1.899761 1_555
F3 Sb1 1.899872 1_555
F4 Sb3 1.899793 1_555
F5 Sb2 1.899698 1_655
F6 Sb2 1.900171 1_655
F7 Sb0 1.900266 1_555
F8 Sb2 1.899790 1_655
F9 Sb0 1.899713 1_666
F10 Sb1 1.899599 1_555
F11 Sb3 1.899720 1_555
F12 Sb0 1.900270 1_666
F13 Sb2 1.900157 1_555
F14 Sb2 1.899701 1_555
F15 Sb3 1.899802 1_565
F16 Sb1 1.899861 1_556
F17 Sb0 1.899769 1_666
F18 Sb3 1.899680 1_555
F19 Sb1 1.900218 1_555
F20 Sb2 1.899800 1_555
F21 Sb0 1.899731 1_555
F22 Sb1 1.899607 1_556
F23 Sb3 1.899719 1_565
