# generated using pymatgen
data_Lu4ScCu2Bi
_symmetry_space_group_name_H-M   'P 1'
_cell_length_a   8.30696741
_cell_length_b   8.30696710
_cell_length_c   8.30696791
_cell_angle_alpha   124.69347603
_cell_angle_beta   124.69348317
_cell_angle_gamma   82.04635445
_symmetry_Int_Tables_number   1
_chemical_formula_structural   Lu4ScCu2Bi
_chemical_formula_sum   'Lu8 Sc2 Cu4 Bi2'
_cell_volume   372.62712015
_cell_formula_units_Z   2
loop_
 _symmetry_equiv_pos_site_id
 _symmetry_equiv_pos_as_xyz
  1  'x, y, z'
loop_
 _atom_site_type_symbol
 _atom_site_label
 _atom_site_symmetry_multiplicity
 _atom_site_fract_x
 _atom_site_fract_y
 _atom_site_fract_z
 _atom_site_occupancy
  Lu  Lu0  1  0.79059761  0.29059761  0.81286464  1
  Lu  Lu1  1  0.20940239  0.70940239  0.18713536  1
  Lu  Lu2  1  0.47773197  0.97773197  0.18713536  1
  Lu  Lu3  1  0.29059761  0.47773197  0.50000000  1
  Lu  Lu4  1  0.02226803  0.20940239  0.50000000  1
  Lu  Lu5  1  0.52226803  0.02226803  0.81286464  1
  Lu  Lu6  1  0.70940239  0.52226803  0.50000000  1
  Lu  Lu7  1  0.97773197  0.79059761  0.50000000  1
  Sc  Sc0  1  0.00000000  0.00000000  0.00000000  1
  Sc  Sc1  1  0.50000000  0.50000000  0.00000000  1
  Cu  Cu0  1  0.13242149  0.63242149  0.76484397  1
  Cu  Cu1  1  0.86757851  0.36757851  0.23515603  1
  Cu  Cu2  1  0.63242149  0.86757851  0.50000000  1
  Cu  Cu3  1  0.36757851  0.13242149  0.50000000  1
  Bi  Bi0  1  0.25000000  0.25000000  0.00000000  1
  Bi  Bi1  1  0.75000000  0.75000000  0.00000000  1
loop_
_geom_bond_atom_site_label_1
_geom_bond_atom_site_label_2
_geom_bond_distance
_geom_bond_site_symmetry_2
Cu0 Lu6 2.796994 1_455
Cu0 Lu4 2.796994 1_555
Cu0 Lu7 2.797002 1_455
Cu0 Lu3 2.797002 1_555
Cu0 Lu2 2.851225 1_556
Cu0 Lu1 2.851226 1_556
Cu0 Sc1 3.012657 1_556
Cu0 Sc0 3.012657 1_566
Cu1 Lu3 2.796994 1_655
Cu1 Lu7 2.796994 1_555
Cu1 Lu4 2.797002 1_655
Cu1 Lu6 2.797002 1_555
Cu1 Lu5 2.851225 1_554
Cu1 Lu0 2.851226 1_554
Cu1 Sc1 3.012657 1_555
Cu1 Sc0 3.012657 1_655
Cu2 Lu2 2.796988 1_555
Cu2 Lu5 2.796989 1_565
Cu2 Lu1 2.796996 1_555
Cu2 Lu0 2.796996 1_565
Cu2 Lu6 2.851225 1_555
Cu2 Lu7 2.851225 1_555
Cu2 Sc0 3.012659 1_666
Cu2 Sc1 3.012659 1_555
Cu3 Lu5 2.796988 1_555
Cu3 Lu2 2.796989 1_545
Cu3 Lu0 2.796996 1_555
Cu3 Lu1 2.796996 1_545
Cu3 Lu3 2.851225 1_555
Cu3 Lu4 2.851225 1_555
Cu3 Sc0 3.012659 1_555
Cu3 Sc1 3.012659 1_556
Bi0 Sc0 3.133571 1_555
Bi0 Sc1 3.133571 1_555
Bi0 Lu0 3.252887 1_454
Bi0 Lu1 3.252887 1_555
Bi0 Lu6 3.252888 1_555
Bi0 Lu7 3.252888 1_444
Bi0 Lu4 3.252888 1_554
Bi0 Lu3 3.252888 1_555
Bi0 Lu2 3.252892 1_545
Bi0 Lu5 3.252892 1_554
Bi1 Sc1 3.133571 1_555
Bi1 Sc0 3.133571 1_665
Bi1 Lu1 3.252887 1_655
Bi1 Lu0 3.252887 1_554
Bi1 Lu3 3.252888 1_554
Bi1 Lu4 3.252888 1_665
Bi1 Lu7 3.252888 1_555
Bi1 Lu6 3.252888 1_554
Bi1 Lu5 3.252892 1_564
Bi1 Lu2 3.252892 1_555
