# generated using pymatgen
data_YHf(SiTc2)4
_symmetry_space_group_name_H-M   'P 1'
_cell_length_a   7.24875320
_cell_length_b   7.24875320
_cell_length_c   4.10924699
_cell_angle_alpha   90.00000000
_cell_angle_beta   90.00000000
_cell_angle_gamma   91.67333782
_symmetry_Int_Tables_number   1
_chemical_formula_structural   YHf(SiTc2)4
_chemical_formula_sum   'Y1 Hf1 Si4 Tc8'
_cell_volume   215.82593546
_cell_formula_units_Z   1
loop_
 _symmetry_equiv_pos_site_id
 _symmetry_equiv_pos_as_xyz
  1  'x, y, z'
loop_
 _atom_site_type_symbol
 _atom_site_label
 _atom_site_symmetry_multiplicity
 _atom_site_fract_x
 _atom_site_fract_y
 _atom_site_fract_z
 _atom_site_occupancy
  Y  Y0  1  0.00000000  0.00000000  0.50000000  1
  Hf  Hf0  1  0.50000000  0.50000000  0.00000000  1
  Si  Si0  1  0.70175430  0.70175430  0.50000000  1
  Si  Si1  1  0.29824570  0.29824570  0.50000000  1
  Si  Si2  1  0.21392234  0.78607766  0.00000000  1
  Si  Si3  1  0.78607766  0.21392234  0.00000000  1
  Tc  Tc0  1  0.58794053  0.15979631  0.50000000  1
  Tc  Tc1  1  0.41205947  0.84020369  0.50000000  1
  Tc  Tc2  1  0.10267403  0.35199994  0.00000000  1
  Tc  Tc3  1  0.89732597  0.64800006  0.00000000  1
  Tc  Tc4  1  0.15979631  0.58794053  0.50000000  1
  Tc  Tc5  1  0.84020369  0.41205947  0.50000000  1
  Tc  Tc6  1  0.35199994  0.10267403  0.00000000  1
  Tc  Tc7  1  0.64800006  0.89732597  0.00000000  1
loop_
_geom_bond_atom_site_label_1
_geom_bond_atom_site_label_2
_geom_bond_distance
_geom_bond_site_symmetry_2
Hf0 Si0 2.893819 1_555
Hf0 Si0 2.893819 1_554
Hf0 Si1 2.893819 1_555
Hf0 Si1 2.893819 1_554
Hf0 Si2 2.975174 1_555
Hf0 Si3 2.975174 1_555
Hf0 Tc3 3.043938 1_555
Hf0 Tc7 3.043938 1_555
Hf0 Tc6 3.043938 1_555
Hf0 Tc2 3.043938 1_555
Hf0 Tc5 3.286496 1_555
Hf0 Tc5 3.286496 1_554
Hf0 Tc1 3.286496 1_555
Hf0 Tc1 3.286496 1_554
Hf0 Tc4 3.286496 1_555
Hf0 Tc0 3.286496 1_555
Hf0 Tc4 3.286496 1_554
Hf0 Tc0 3.286496 1_554
Si0 Tc5 2.353711 1_555
Si0 Tc1 2.353711 1_555
Si0 Tc3 2.532844 1_555
Si0 Tc7 2.532844 1_555
Si0 Tc7 2.532844 1_556
Si0 Tc3 2.532844 1_556
Si0 Y0 3.012431 1_665
Si1 Tc4 2.353711 1_555
Si1 Tc0 2.353711 1_555
Si1 Tc2 2.532844 1_556
Si1 Tc6 2.532844 1_556
Si1 Tc6 2.532844 1_555
Si1 Tc2 2.532844 1_555
Si1 Y0 3.012431 1_555
Si2 Tc3 2.476758 1_455
Si2 Tc6 2.476758 1_565
Si2 Tc4 2.530871 1_554
Si2 Tc1 2.530871 1_555
Si2 Tc1 2.530871 1_554
Si2 Tc4 2.530871 1_555
Si2 Y0 3.028377 1_564
Si2 Y0 3.028377 1_565
Si3 Tc7 2.476758 1_545
Si3 Tc2 2.476758 1_655
Si3 Tc5 2.530871 1_555
Si3 Tc5 2.530871 1_554
Si3 Tc0 2.530871 1_554
Si3 Tc0 2.530871 1_555
Si3 Y0 3.028377 1_655
Si3 Y0 3.028377 1_654
Tc0 Tc5 2.547984 1_555
Tc0 Tc1 2.611471 1_545
Tc0 Tc6 2.697519 1_555
Tc0 Tc6 2.697519 1_556
Tc0 Tc7 2.842395 1_546
Tc0 Tc7 2.842395 1_545
Tc0 Y0 3.235035 1_655
Tc1 Tc4 2.547984 1_555
Tc1 Tc7 2.697519 1_556
Tc1 Tc7 2.697519 1_555
Tc1 Tc6 2.842395 1_565
Tc1 Tc6 2.842395 1_566
Tc1 Y0 3.235035 1_565
Tc2 Tc6 2.592960 1_555
Tc2 Tc3 2.646875 1_455
Tc2 Tc4 2.697519 1_555
Tc2 Tc4 2.697519 1_554
Tc2 Tc5 2.842395 1_454
Tc2 Tc5 2.842395 1_455
Tc2 Y0 3.342896 1_554
Tc2 Y0 3.342896 1_555
Tc3 Tc7 2.592960 1_555
Tc3 Tc5 2.697519 1_555
Tc3 Tc5 2.697519 1_554
Tc3 Tc4 2.842395 1_654
Tc3 Tc4 2.842395 1_655
Tc3 Y0 3.342896 1_664
Tc3 Y0 3.342896 1_665
Tc4 Tc5 2.611471 1_455
Tc4 Y0 3.235035 1_565
Tc5 Y0 3.235035 1_655
Tc6 Tc7 2.646875 1_545
Tc6 Y0 3.342896 1_554
Tc6 Y0 3.342896 1_555
Tc7 Y0 3.342896 1_664
Tc7 Y0 3.342896 1_665
