# generated using pymatgen
data_Lu16In4RuRh3
_symmetry_space_group_name_H-M   'P 1'
_cell_length_a   9.39834135
_cell_length_b   9.39834201
_cell_length_c   9.39834277
_cell_angle_alpha   59.90199330
_cell_angle_beta   59.90199064
_cell_angle_gamma   59.90198996
_symmetry_Int_Tables_number   1
_chemical_formula_structural   Lu16In4RuRh3
_chemical_formula_sum   'Lu16 In4 Ru1 Rh3'
_cell_volume   585.69568858
_cell_formula_units_Z   1
loop_
 _symmetry_equiv_pos_site_id
 _symmetry_equiv_pos_as_xyz
  1  'x, y, z'
loop_
 _atom_site_type_symbol
 _atom_site_label
 _atom_site_symmetry_multiplicity
 _atom_site_fract_x
 _atom_site_fract_y
 _atom_site_fract_z
 _atom_site_occupancy
  Lu  Lu0  1  0.59960182  0.59960182  0.59960182  1
  Lu  Lu1  1  0.59807443  0.59807443  0.20411211  1
  Lu  Lu2  1  0.59807443  0.20411211  0.59807443  1
  Lu  Lu3  1  0.20411211  0.59807443  0.59807443  1
  Lu  Lu4  1  0.06075670  0.44080892  0.44080892  1
  Lu  Lu5  1  0.44080336  0.05876726  0.05876726  1
  Lu  Lu6  1  0.44080892  0.06075670  0.44080892  1
  Lu  Lu7  1  0.05876726  0.44080336  0.05876726  1
  Lu  Lu8  1  0.44080892  0.44080892  0.06075670  1
  Lu  Lu9  1  0.05876726  0.05876726  0.44080336  1
  Lu  Lu10  1  0.18880617  0.81072946  0.81072946  1
  Lu  Lu11  1  0.80709258  0.19041715  0.19041715  1
  Lu  Lu12  1  0.81072946  0.18880617  0.81072946  1
  Lu  Lu13  1  0.19041715  0.80709258  0.19041715  1
  Lu  Lu14  1  0.81072946  0.81072946  0.18880617  1
  Lu  Lu15  1  0.19041715  0.19041715  0.80709258  1
  In  In0  1  0.83337254  0.83337254  0.83337254  1
  In  In1  1  0.83371338  0.83371338  0.49920506  1
  In  In2  1  0.83371338  0.49920506  0.83371338  1
  In  In3  1  0.49920506  0.83371338  0.83371338  1
  Ru  Ru0  1  0.39113032  0.39113032  0.39113032  1
  Rh  Rh0  1  0.39170182  0.39170182  0.82669151  1
  Rh  Rh1  1  0.39170182  0.82669151  0.39170182  1
  Rh  Rh2  1  0.82669151  0.39170182  0.39170182  1
loop_
_geom_bond_atom_site_label_1
_geom_bond_atom_site_label_2
_geom_bond_distance
_geom_bond_site_symmetry_2
Lu0 Rh0 2.766714 1_555
Lu0 Rh2 2.766714 1_555
Lu0 Rh1 2.766714 1_555
Lu0 Lu10 3.370788 1_555
Lu0 Lu12 3.370788 1_555
Lu0 Lu14 3.370789 1_555
Lu1 Ru0 2.755275 1_555
Lu1 Rh2 2.770686 1_555
Lu1 Rh1 2.770686 1_555
Lu1 Lu13 3.353627 1_555
Lu1 Lu11 3.353627 1_555
Lu1 Lu14 3.382171 1_555
Lu2 Ru0 2.755275 1_555
Lu2 Rh2 2.770686 1_555
Lu2 Rh0 2.770686 1_555
Lu3 Ru0 2.755275 1_555
Lu3 Rh1 2.770686 1_555
Lu3 Rh0 2.770686 1_555
Lu4 Ru0 2.717985 1_555
Lu4 Rh2 2.741430 1_455
Lu5 Rh0 2.734477 1_554
Lu5 Rh1 2.734477 1_545
Lu6 Ru0 2.717986 1_555
Lu6 Rh1 2.741430 1_545
Lu7 Rh0 2.734477 1_554
Lu7 Rh2 2.734477 1_455
Lu8 Ru0 2.717986 1_555
Lu8 Rh0 2.741430 1_554
Lu9 Rh1 2.734476 1_545
Lu9 Rh2 2.734477 1_455
Lu10 Rh0 3.366061 1_555
Lu10 Rh1 3.366061 1_555
Lu10 Lu3 3.382171 1_555
Lu10 Lu7 3.505821 1_556
Lu10 Lu9 3.505821 1_565
Lu10 Lu8 3.513939 1_556
Lu10 Lu6 3.513939 1_565
Lu10 Lu12 3.548029 1_465
Lu10 Lu14 3.548029 1_456
Lu10 Lu15 3.558997 1_565
Lu10 Lu13 3.558997 1_556
Lu11 Ru0 3.343070 1_555
Lu11 Lu2 3.353627 1_555
Lu11 Rh2 3.388151 1_555
Lu11 Lu6 3.475566 1_555
Lu11 Lu8 3.475566 1_555
Lu11 Lu7 3.519997 1_655
Lu11 Lu9 3.519997 1_655
Lu11 Lu14 3.558997 1_545
Lu11 Lu12 3.558997 1_554
Lu11 Lu13 3.597277 1_645
Lu11 Lu15 3.597277 1_654
Lu12 Rh0 3.366060 1_555
Lu12 Rh2 3.366061 1_555
Lu12 Lu2 3.382171 1_555
Lu12 Lu5 3.505820 1_556
Lu12 Lu9 3.505821 1_655
Lu12 Lu8 3.513939 1_556
Lu12 Lu4 3.513939 1_655
Lu12 Lu14 3.548029 1_546
Lu12 Lu15 3.558997 1_655
Lu13 Ru0 3.343070 1_555
Lu13 Lu3 3.353627 1_555
Lu13 Rh1 3.388151 1_555
Lu13 Lu8 3.475566 1_555
Lu13 Lu4 3.475566 1_555
Lu13 Lu5 3.519997 1_565
Lu13 Lu9 3.519997 1_565
Lu13 Lu14 3.558997 1_455
Lu13 Lu15 3.597277 1_564
Lu14 Rh1 3.366060 1_555
Lu14 Rh2 3.366061 1_555
Lu14 Lu5 3.505820 1_565
Lu14 Lu7 3.505821 1_655
Lu14 Lu6 3.513939 1_565
Lu14 Lu4 3.513939 1_655
Lu15 Ru0 3.343070 1_555
Lu15 Lu2 3.353627 1_555
Lu15 Lu3 3.353627 1_555
Lu15 Rh0 3.388150 1_555
Lu15 Lu6 3.475566 1_555
Lu15 Lu4 3.475566 1_555
Lu15 Lu5 3.519997 1_556
Lu15 Lu7 3.519997 1_556
In0 In3 3.137410 1_555
In0 In2 3.137411 1_555
In0 In1 3.137411 1_555
In0 Lu10 3.141477 1_655
In0 Lu12 3.141477 1_565
In0 Lu14 3.141477 1_556
In0 Lu3 3.371924 1_655
In0 Lu2 3.371924 1_565
In0 Lu1 3.371924 1_556
In0 Lu5 3.377906 1_566
In0 Lu7 3.377907 1_656
In0 Lu9 3.377907 1_665
In1 Lu13 3.138890 1_655
In1 Lu11 3.138890 1_565
In1 In3 3.139165 1_555
In1 In2 3.139165 1_555
In1 Lu14 3.148717 1_555
In1 Lu0 3.356132 1_555
In1 Lu3 3.366658 1_655
In1 Lu2 3.366658 1_565
In1 Lu9 3.377440 1_665
In1 Lu6 3.383096 1_565
In1 Lu4 3.383097 1_655
In2 Lu15 3.138890 1_655
In2 Lu11 3.138890 1_556
In2 In3 3.139165 1_555
In2 Lu12 3.148717 1_555
In2 Lu0 3.356132 1_555
In2 Lu3 3.366657 1_655
In2 Lu1 3.366658 1_556
In2 Lu7 3.377440 1_656
In2 Lu8 3.383096 1_556
In2 Lu4 3.383097 1_655
In3 Lu15 3.138890 1_565
In3 Lu13 3.138890 1_556
In3 Lu10 3.148717 1_555
In3 Lu0 3.356132 1_555
In3 Lu2 3.366658 1_565
In3 Lu1 3.366658 1_556
In3 Lu5 3.377440 1_566
In3 Lu8 3.383097 1_556
In3 Lu6 3.383097 1_565
