# generated using pymatgen
data_Zr4In2Rh9Au
_symmetry_space_group_name_H-M   'P 1'
_cell_length_a   5.59278814
_cell_length_b   5.59278754
_cell_length_c   8.36799815
_cell_angle_alpha   90.00000000
_cell_angle_beta   90.00000000
_cell_angle_gamma   97.54774142
_symmetry_Int_Tables_number   1
_chemical_formula_structural   Zr4In2Rh9Au
_chemical_formula_sum   'Zr4 In2 Rh9 Au1'
_cell_volume   259.47710039
_cell_formula_units_Z   1
loop_
 _symmetry_equiv_pos_site_id
 _symmetry_equiv_pos_as_xyz
  1  'x, y, z'
loop_
 _atom_site_type_symbol
 _atom_site_label
 _atom_site_symmetry_multiplicity
 _atom_site_fract_x
 _atom_site_fract_y
 _atom_site_fract_z
 _atom_site_occupancy
  Zr  Zr0  1  0.77489104  0.22507195  0.50648069  1
  Zr  Zr1  1  0.22507195  0.77489104  0.99351931  1
  Zr  Zr2  1  0.22507195  0.77489104  0.50648069  1
  Zr  Zr3  1  0.77489104  0.22507195  0.99351931  1
  In  In0  1  0.50022889  0.50022889  0.75000000  1
  In  In1  1  0.49979706  0.49979706  0.25000000  1
  Rh  Rh0  1  0.73455842  0.73455842  0.99821182  1
  Rh  Rh1  1  0.73455842  0.73455842  0.50178818  1
  Rh  Rh2  1  0.26545977  0.26545977  0.99793024  1
  Rh  Rh3  1  0.26545977  0.26545977  0.50206976  1
  Rh  Rh4  1  0.49996390  0.00014313  0.75000000  1
  Rh  Rh5  1  0.50006510  0.99984663  0.25000000  1
  Rh  Rh6  1  0.99993138  0.99993138  0.75000000  1
  Rh  Rh7  1  0.00014313  0.49996390  0.75000000  1
  Rh  Rh8  1  0.99984663  0.50006510  0.25000000  1
  Au  Au0  1  0.00006056  0.00006056  0.25000000  1
loop_
_geom_bond_atom_site_label_1
_geom_bond_atom_site_label_2
_geom_bond_distance
_geom_bond_site_symmetry_2
In0 Rh0 2.701477 1_555
In0 Rh1 2.701477 1_555
In0 Rh2 2.701741 1_555
In0 Rh3 2.701741 1_555
In0 Rh4 2.796109 1_565
In0 Rh7 2.796109 1_655
In0 Rh4 2.796679 1_555
In0 Rh7 2.796679 1_555
In0 Zr3 3.082435 1_555
In0 Zr0 3.082435 1_555
In0 Zr1 3.082435 1_555
In0 Zr2 3.082435 1_555
In1 Rh3 2.726413 1_555
In1 Rh2 2.726413 1_554
In1 Rh1 2.726573 1_555
In1 Rh0 2.726573 1_554
In1 Rh5 2.796314 1_545
In1 Rh8 2.796314 1_455
In1 Rh5 2.796474 1_555
In1 Rh8 2.796475 1_555
In1 Zr2 3.155186 1_555
In1 Zr1 3.155186 1_554
In1 Zr0 3.155186 1_555
In1 Zr3 3.155186 1_554
Rh0 Zr3 2.723189 1_565
Rh0 Zr1 2.723190 1_655
Rh0 Rh6 2.853235 1_555
Rh0 Zr3 2.888017 1_555
Rh0 Zr1 2.888017 1_555
Rh0 Rh4 2.958679 1_565
Rh0 Rh7 2.958679 1_655
Rh0 Rh5 2.978556 1_556
Rh0 Rh8 2.978556 1_556
Rh1 Zr0 2.723189 1_565
Rh1 Zr2 2.723190 1_655
Rh1 Rh6 2.853235 1_555
Rh1 Zr0 2.888017 1_555
Rh1 Zr2 2.888017 1_555
Rh1 Rh4 2.958679 1_565
Rh1 Rh7 2.958679 1_655
Rh1 Rh5 2.978556 1_555
Rh1 Rh8 2.978556 1_555
Rh2 Zr1 2.723449 1_545
Rh2 Zr3 2.723449 1_455
Rh2 Rh6 2.852306 1_445
Rh2 Zr1 2.887742 1_555
Rh2 Zr3 2.887743 1_555
Rh2 Rh4 2.955928 1_555
Rh2 Rh7 2.955928 1_555
Rh2 Rh5 2.981550 1_546
Rh2 Rh8 2.981550 1_456
Rh3 Zr2 2.723449 1_545
Rh3 Zr0 2.723449 1_455
Rh3 Rh6 2.852306 1_445
Rh3 Zr2 2.887742 1_555
Rh3 Zr0 2.887743 1_555
Rh3 Rh4 2.955928 1_555
Rh3 Rh7 2.955928 1_555
Rh3 Rh5 2.981550 1_545
Rh3 Rh8 2.981550 1_455
Rh4 Zr3 2.755197 1_555
Rh4 Zr0 2.755197 1_555
Rh4 Zr1 2.755793 1_545
Rh4 Zr2 2.755793 1_545
Rh4 Rh6 2.796368 1_545
Rh4 Rh6 2.796421 1_445
Rh5 Zr2 2.836590 1_555
Rh5 Zr1 2.836590 1_554
Rh5 Zr0 2.836700 1_565
Rh5 Zr3 2.836700 1_564
Rh6 Zr3 2.781799 1_565
Rh6 Zr0 2.781799 1_565
Rh6 Zr1 2.781799 1_655
Rh6 Zr2 2.781799 1_655
Rh6 Rh7 2.796368 1_655
Rh6 Rh7 2.796420 1_665
Rh7 Zr1 2.755197 1_555
Rh7 Zr2 2.755197 1_555
Rh7 Zr3 2.755793 1_455
Rh7 Zr0 2.755793 1_455
Rh8 Zr0 2.836590 1_555
Rh8 Zr3 2.836590 1_554
Rh8 Zr2 2.836700 1_655
Rh8 Zr1 2.836700 1_654
Au0 Rh8 2.796211 1_445
Au0 Rh5 2.796212 1_445
Au0 Rh8 2.796577 1_455
Au0 Rh5 2.796577 1_545
Au0 Zr2 2.862203 1_545
Au0 Zr1 2.862203 1_544
Au0 Zr0 2.862203 1_455
Au0 Zr3 2.862203 1_454
Au0 Rh1 2.875742 1_445
Au0 Rh0 2.875742 1_444
Au0 Rh3 2.876952 1_555
Au0 Rh2 2.876952 1_554
