# generated using pymatgen
data_Cs2LiTiBr6
_symmetry_space_group_name_H-M   'P 1'
_cell_length_a   7.65526533
_cell_length_b   7.65526493
_cell_length_c   6.37701591
_cell_angle_alpha   90.00000000
_cell_angle_beta   90.00000000
_cell_angle_gamma   119.99999763
_symmetry_Int_Tables_number   1
_chemical_formula_structural   Cs2LiTiBr6
_chemical_formula_sum   'Cs2 Li1 Ti1 Br6'
_cell_volume   323.64478699
_cell_formula_units_Z   1
loop_
 _symmetry_equiv_pos_site_id
 _symmetry_equiv_pos_as_xyz
  1  'x, y, z'
loop_
 _atom_site_type_symbol
 _atom_site_label
 _atom_site_symmetry_multiplicity
 _atom_site_fract_x
 _atom_site_fract_y
 _atom_site_fract_z
 _atom_site_occupancy
  Cs  Cs0  1  0.33333300  0.66666700  0.74416224  1
  Cs  Cs1  1  0.66666700  0.33333300  0.25583776  1
  Li  Li0  1  0.00000000  0.00000000  0.00000000  1
  Ti  Ti0  1  0.00000000  0.00000000  0.50000000  1
  Br  Br0  1  0.84058798  0.68117597  0.73648662  1
  Br  Br1  1  0.84058798  0.15941202  0.73648662  1
  Br  Br2  1  0.15941202  0.31882403  0.26351338  1
  Br  Br3  1  0.31882403  0.15941202  0.73648662  1
  Br  Br4  1  0.68117597  0.84058798  0.26351338  1
  Br  Br5  1  0.15941202  0.84058798  0.26351338  1
loop_
_geom_bond_atom_site_label_1
_geom_bond_atom_site_label_2
_geom_bond_distance
_geom_bond_site_symmetry_2
Br0 Ti0 2.596536 1_665
Br0 Li0 2.700285 1_666
Br0 Cs0 3.829150 1_655
Br0 Cs0 3.829158 1_555
Br0 Cs1 3.835736 1_555
Br0 Cs1 4.035684 1_556
Br1 Ti0 2.596536 1_655
Br1 Li0 2.700285 1_656
Br1 Cs0 3.829154 1_655
Br1 Cs0 3.829154 1_545
Br1 Cs1 3.835732 1_555
Br1 Cs1 4.035681 1_556
Br2 Ti0 2.596536 1_555
Br2 Li0 2.700285 1_555
Br2 Cs1 3.829150 1_455
Br2 Cs1 3.829158 1_555
Br2 Cs0 3.835736 1_555
Br2 Cs0 4.035684 1_554
Br3 Ti0 2.596536 1_555
Br3 Li0 2.700285 1_556
Br3 Cs0 3.829150 1_545
Br3 Cs0 3.829158 1_555
Br3 Cs1 3.835736 1_555
Br3 Cs1 4.035685 1_556
Br4 Ti0 2.596536 1_665
Br4 Li0 2.700285 1_665
Br4 Cs1 3.829150 1_565
Br4 Cs1 3.829158 1_555
Br4 Cs0 3.835736 1_555
Br4 Cs0 4.035685 1_554
Br5 Ti0 2.596536 1_565
Br5 Li0 2.700285 1_565
Br5 Cs1 3.829154 1_455
Br5 Cs1 3.829154 1_565
Br5 Cs0 3.835732 1_555
Br5 Cs0 4.035681 1_554
