# generated using pymatgen
data_Y3B6Ir7Ru
_symmetry_space_group_name_H-M   'P 1'
_cell_length_a   9.94572980
_cell_length_b   9.12713375
_cell_length_c   5.55092358
_cell_angle_alpha   81.37274782
_cell_angle_beta   65.13624400
_cell_angle_gamma   33.49101639
_symmetry_Int_Tables_number   1
_chemical_formula_structural   Y3B6Ir7Ru
_chemical_formula_sum   'Y3 B6 Ir7 Ru1'
_cell_volume   231.13164170
_cell_formula_units_Z   1
loop_
 _symmetry_equiv_pos_site_id
 _symmetry_equiv_pos_as_xyz
  1  'x, y, z'
loop_
 _atom_site_type_symbol
 _atom_site_label
 _atom_site_symmetry_multiplicity
 _atom_site_fract_x
 _atom_site_fract_y
 _atom_site_fract_z
 _atom_site_occupancy
  Y  Y0  1  0.00000000  0.00000000  0.00000000  1
  Y  Y1  1  0.17862597  0.17862597  0.82137403  1
  Y  Y2  1  0.82137403  0.82137403  0.17862597  1
  B  B0  1  0.82484448  0.52416053  0.48494656  1
  B  B1  1  0.16604844  0.48494656  0.52416053  1
  B  B2  1  0.48494656  0.16604844  0.82484448  1
  B  B3  1  0.66907644  0.33092356  0.66907644  1
  B  B4  1  0.52416053  0.82484448  0.16604844  1
  B  B5  1  0.33092356  0.66907644  0.33092356  1
  Ir  Ir0  1  0.41338708  0.41338708  0.58661292  1
  Ir  Ir1  1  0.58591102  0.58591102  0.91408898  1
  Ir  Ir2  1  0.08588279  0.08588279  0.41411721  1
  Ir  Ir3  1  0.91408898  0.91408898  0.58591102  1
  Ir  Ir4  1  0.58661292  0.58661292  0.41338708  1
  Ir  Ir5  1  0.25000000  0.25000000  0.25000000  1
  Ir  Ir6  1  0.41411721  0.41411721  0.08588279  1
  Ru  Ru0  1  0.75000000  0.75000000  0.75000000  1
loop_
_geom_bond_atom_site_label_1
_geom_bond_atom_site_label_2
_geom_bond_distance
_geom_bond_site_symmetry_2
Y0 Y1 3.108393 1_554
Y0 Y2 3.108393 1_445
B0 Ru0 2.096961 1_555
B0 Ir5 2.129712 1_655
B0 Ir4 2.137177 1_555
B0 Ir1 2.246748 1_555
B0 Ir2 2.277678 1_655
B0 Y2 2.959824 1_555
B0 Y1 3.113679 1_565
B0 Y1 3.157823 1_654
B1 Ru0 2.096961 1_455
B1 Ir5 2.129712 1_555
B1 Ir0 2.137177 1_555
B1 Ir3 2.246748 1_455
B1 Ir6 2.277678 1_555
B1 Y1 2.959824 1_555
B1 Y2 3.113679 1_456
B1 Y2 3.157823 1_545
B2 Ru0 2.096961 1_545
B2 Ir5 2.129712 1_556
B2 Ir0 2.137177 1_555
B2 Ir3 2.246748 1_545
B2 Ir6 2.277678 1_556
B2 Y1 2.959824 1_555
B2 Y2 3.113679 1_545
B2 Y2 3.157823 1_456
B3 Ir2 2.177514 1_655
B3 Ir6 2.177514 1_556
B3 Ir1 2.177851 1_555
B3 Ir3 2.177851 1_545
B3 Ir0 2.219463 1_555
B3 Ir4 2.219463 1_555
B3 Y0 3.188761 1_656
B3 Y0 3.202221 1_655
B3 Y0 3.202221 1_566
B4 Ru0 2.096961 1_554
B4 Ir5 2.129712 1_565
B4 Ir4 2.137177 1_555
B4 Ir1 2.246748 1_554
B4 Ir2 2.277678 1_565
B4 Y2 2.959824 1_555
B4 Y1 3.113679 1_654
B4 Y1 3.157823 1_565
B5 Ir6 2.177514 1_555
B5 Ir2 2.177514 1_565
B5 Ir3 2.177852 1_455
B5 Ir1 2.177852 1_554
B5 Ir4 2.219463 1_555
B5 Ir0 2.219463 1_555
B5 Y0 3.188761 1_565
B5 Y0 3.202221 1_566
B5 Y0 3.202221 1_655
Ir0 Y0 3.141906 1_566
Ir0 Y0 3.141907 1_655
Ir0 Y2 3.188052 1_545
Ir0 Y2 3.188052 1_456
Ir1 Y0 3.152492 1_656
Ir1 Y0 3.152492 1_566
Ir1 Y1 3.210333 1_565
Ir1 Y1 3.210333 1_655
Ir2 Y0 3.152259 1_555
Ir2 Y0 3.152259 1_556
Ir2 Y1 3.210580 1_555
Ir2 Y1 3.210580 1_554
Ir3 Y0 3.152492 1_666
Ir3 Y0 3.152492 1_665
Ir3 Y2 3.210333 1_555
Ir3 Y2 3.210333 1_556
Ir4 Y0 3.141906 1_655
Ir4 Y0 3.141907 1_566
Ir4 Y1 3.188052 1_565
Ir4 Y1 3.188052 1_654
Ir5 Y1 3.040694 1_554
Ir5 Y2 3.040695 1_455
Ir5 Y2 3.040695 1_545
Ir5 Y1 3.040695 1_555
Ir6 Y0 3.152259 1_565
Ir6 Y0 3.152259 1_655
Ir6 Y2 3.210580 1_545
Ir6 Y2 3.210580 1_455
Ru0 Y2 3.040694 1_556
Ru0 Y1 3.040695 1_655
Ru0 Y1 3.040695 1_565
Ru0 Y2 3.040695 1_555
