# generated using pymatgen
data_Ba4AgH12Pt
_symmetry_space_group_name_H-M   'P 1'
_cell_length_a   7.98827382
_cell_length_b   7.98827422
_cell_length_c   6.01406432
_cell_angle_alpha   90.01739607
_cell_angle_beta   90.01739138
_cell_angle_gamma   135.81254128
_symmetry_Int_Tables_number   1
_chemical_formula_structural   Ba4AgH12Pt
_chemical_formula_sum   'Ba4 Ag1 H12 Pt1'
_cell_volume   267.49255548
_cell_formula_units_Z   1
loop_
 _symmetry_equiv_pos_site_id
 _symmetry_equiv_pos_as_xyz
  1  'x, y, z'
loop_
 _atom_site_type_symbol
 _atom_site_label
 _atom_site_symmetry_multiplicity
 _atom_site_fract_x
 _atom_site_fract_y
 _atom_site_fract_z
 _atom_site_occupancy
  Ba  Ba0  1  0.35367327  0.64632673  1.00000000  1
  Ba  Ba1  1  0.85555625  0.14444375  0.50000000  1
  Ba  Ba2  1  0.64632673  0.35367327  0.00000000  1
  Ba  Ba3  1  0.14444375  0.85555625  0.50000000  1
  Ag  Ag0  1  0.00000000  0.00000000  0.00000000  1
  H  H0  1  0.00013227  0.49981671  0.25302402  1
  H  H1  1  0.50018329  0.99986773  0.74697598  1
  H  H2  1  0.99986773  0.50018329  0.74697598  1
  H  H3  1  0.49981671  0.00013227  0.25302402  1
  H  H4  1  0.11566111  0.88433889  0.00000000  1
  H  H5  1  0.61254492  0.38745508  0.50000000  1
  H  H6  1  0.88433889  0.11566111  1.00000000  1
  H  H7  1  0.38745508  0.61254492  0.50000000  1
  H  H8  1  0.70105223  0.70105223  0.30076879  1
  H  H9  1  0.29894777  0.29894777  0.69923121  1
  H  H10  1  0.69973895  0.69973895  0.70047309  1
  H  H11  1  0.30026105  0.30026105  0.29952691  1
  Pt  Pt0  1  0.50000000  0.50000000  0.50000000  1
loop_
_geom_bond_atom_site_label_1
_geom_bond_atom_site_label_2
_geom_bond_distance
_geom_bond_site_symmetry_2
Ba0 H0 2.631498 1_556
Ba0 H1 2.631498 1_555
Ba0 H2 2.632645 1_455
Ba0 H3 2.632645 1_566
Ba0 H6 3.038673 1_565
Ba0 H6 3.038673 1_455
Ba0 H7 3.048332 1_555
Ba0 H7 3.048332 1_556
Ba0 H10 3.062872 1_555
Ba0 H11 3.062873 1_556
Ba0 H8 3.069225 1_556
Ba0 H9 3.069225 1_555
Ba1 H1 2.626900 1_545
Ba1 H0 2.626900 1_655
Ba1 H3 2.628482 1_555
Ba1 H2 2.628482 1_555
Ba1 H6 3.037069 1_554
Ba1 H6 3.037069 1_555
Ba1 H9 3.038330 1_655
Ba1 H8 3.038330 1_545
Ba1 H7 3.041453 1_655
Ba1 H7 3.041453 1_545
Ba1 H11 3.047098 1_655
Ba1 H10 3.047098 1_545
Ba2 H2 2.631498 1_554
Ba2 H3 2.631498 1_555
Ba2 H0 2.632645 1_655
Ba2 H1 2.632645 1_544
Ba2 H4 3.038673 1_545
Ba2 H4 3.038673 1_655
Ba2 H5 3.048332 1_555
Ba2 H5 3.048332 1_554
Ba2 H11 3.062872 1_555
Ba2 H10 3.062873 1_554
Ba2 H9 3.069225 1_554
Ba2 H8 3.069225 1_555
Ba3 H3 2.626900 1_565
Ba3 H2 2.626900 1_455
Ba3 H1 2.628482 1_555
Ba3 H0 2.628482 1_555
Ba3 H4 3.037069 1_556
Ba3 H4 3.037069 1_555
Ba3 H8 3.038330 1_455
Ba3 H9 3.038330 1_565
Ba3 H5 3.041453 1_455
Ba3 H5 3.041453 1_565
Ba3 H10 3.047098 1_455
Ba3 H11 3.047098 1_565
Ag0 H6 1.712176 1_454
Ag0 H4 1.712176 1_545
H5 Pt0 1.666046 1_555
H7 Pt0 1.666046 1_555
H8 Pt0 1.702241 1_555
H9 Pt0 1.702241 1_555
H10 Pt0 1.700559 1_555
H11 Pt0 1.700559 1_555
