# generated using pymatgen
data_Nb3CrOs2N
_symmetry_space_group_name_H-M   'P 1'
_cell_length_a   8.27823118
_cell_length_b   8.27823093
_cell_length_c   8.27823162
_cell_angle_alpha   59.99999724
_cell_angle_beta   59.99999822
_cell_angle_gamma   59.99999784
_symmetry_Int_Tables_number   1
_chemical_formula_structural   Nb3CrOs2N
_chemical_formula_sum   'Nb12 Cr4 Os8 N4'
_cell_volume   401.14154411
_cell_formula_units_Z   4
loop_
 _symmetry_equiv_pos_site_id
 _symmetry_equiv_pos_as_xyz
  1  'x, y, z'
loop_
 _atom_site_type_symbol
 _atom_site_label
 _atom_site_symmetry_multiplicity
 _atom_site_fract_x
 _atom_site_fract_y
 _atom_site_fract_z
 _atom_site_occupancy
  Nb  Nb0  1  0.81845102  0.43154898  0.43154898  1
  Nb  Nb1  1  0.43154998  0.81845002  0.81845002  1
  Nb  Nb2  1  0.43154898  0.81845102  0.43154898  1
  Nb  Nb3  1  0.43154898  0.43154898  0.81845102  1
  Nb  Nb4  1  0.81845002  0.43154998  0.81845002  1
  Nb  Nb5  1  0.81845002  0.81845002  0.43154998  1
  Nb  Nb6  1  0.56845002  0.18154998  0.56845002  1
  Nb  Nb7  1  0.18154898  0.56845102  0.18154898  1
  Nb  Nb8  1  0.18154998  0.56845002  0.56845002  1
  Nb  Nb9  1  0.56845002  0.56845002  0.18154998  1
  Nb  Nb10  1  0.56845102  0.18154898  0.18154898  1
  Nb  Nb11  1  0.18154898  0.18154898  0.56845102  1
  Cr  Cr0  1  0.00000000  0.00000000  0.00000000  1
  Cr  Cr1  1  0.00000000  0.00000000  0.50000000  1
  Cr  Cr2  1  0.50000000  0.00000000  0.00000000  1
  Cr  Cr3  1  0.00000000  0.50000000  0.00000000  1
  Os  Os0  1  0.20713579  0.20713579  0.20713579  1
  Os  Os1  1  0.20713579  0.20713579  0.87859264  1
  Os  Os2  1  0.87859264  0.20713579  0.20713579  1
  Os  Os3  1  0.20713579  0.87859264  0.20713579  1
  Os  Os4  1  0.79286321  0.79286321  0.79286321  1
  Os  Os5  1  0.79286321  0.79286321  0.12140636  1
  Os  Os6  1  0.79286321  0.12140636  0.79286321  1
  Os  Os7  1  0.12140636  0.79286321  0.79286321  1
  N  N0  1  0.50000000  0.50000000  0.50000000  1
  N  N1  1  0.50000000  0.50000000  0.99999800  1
  N  N2  1  0.99999800  0.50000000  0.50000000  1
  N  N3  1  0.50000000  0.99999800  0.50000000  1
loop_
_geom_bond_atom_site_label_1
_geom_bond_atom_site_label_2
_geom_bond_distance
_geom_bond_site_symmetry_2
Nb0 Os5 2.795332 1_555
Nb0 Os6 2.795333 1_555
Nb0 Os0 2.958326 1_655
Nb0 Os2 2.958327 1_555
Nb1 Os4 2.795317 1_555
Nb1 Os7 2.795350 1_555
Nb1 Os1 2.958337 1_565
Nb1 Os3 2.958337 1_556
Nb2 Os5 2.795333 1_555
Nb2 Os7 2.795333 1_555
Nb2 Os0 2.958326 1_565
Nb2 Os3 2.958327 1_555
Nb3 Os7 2.795332 1_555
Nb3 Os6 2.795332 1_555
Nb3 Os1 2.958326 1_555
Nb3 Os0 2.958326 1_556
Nb4 Os4 2.795317 1_555
Nb4 Os6 2.795350 1_555
Nb4 Os1 2.958337 1_655
Nb4 Os2 2.958337 1_556
Nb5 Os4 2.795318 1_555
Nb5 Os5 2.795350 1_555
Nb5 Os2 2.958337 1_565
Nb5 Os3 2.958337 1_655
Nb6 Os1 2.795333 1_555
Nb6 Os2 2.795333 1_555
Nb6 Os6 2.958319 1_555
Nb6 Os4 2.958334 1_545
Nb7 Os0 2.795334 1_555
Nb7 Os3 2.795334 1_555
Nb7 Os5 2.958337 1_455
Nb7 Os7 2.958337 1_554
Nb8 Os1 2.795332 1_555
Nb8 Os3 2.795333 1_555
Nb8 Os7 2.958319 1_555
Nb8 Os4 2.958334 1_455
Nb9 Os2 2.795332 1_555
Nb9 Os3 2.795332 1_555
Nb9 Os5 2.958319 1_555
Nb9 Os4 2.958334 1_554
Nb10 Os0 2.795334 1_555
Nb10 Os2 2.795334 1_555
Nb10 Os5 2.958337 1_545
Nb10 Os6 2.958337 1_554
Nb11 Os0 2.795334 1_555
Nb11 Os1 2.795334 1_555
Nb11 Os7 2.958337 1_545
Nb11 Os6 2.958337 1_455
Cr0 Os1 2.526690 1_554
Cr0 Os2 2.526690 1_455
Cr0 Os3 2.526690 1_545
Cr0 Os5 2.526705 1_445
Cr0 Os7 2.526706 1_544
Cr0 Os6 2.526706 1_454
Cr1 Os7 2.526678 1_545
Cr1 Os6 2.526678 1_455
Cr1 Os0 2.526690 1_555
Cr1 Os2 2.526690 1_455
Cr1 Os3 2.526690 1_545
Cr1 Os4 2.526696 1_445
Cr2 Os6 2.526678 1_554
Cr2 Os5 2.526678 1_545
Cr2 Os3 2.526690 1_545
Cr2 Os1 2.526690 1_554
Cr2 Os0 2.526690 1_555
Cr2 Os4 2.526696 1_544
Cr3 Os7 2.526678 1_554
Cr3 Os5 2.526678 1_455
Cr3 Os2 2.526690 1_455
Cr3 Os1 2.526690 1_554
Cr3 Os0 2.526690 1_555
Cr3 Os4 2.526696 1_454
Os0 Os3 2.719756 1_545
Os0 Os2 2.719756 1_455
Os0 Os1 2.719756 1_554
Os1 Os3 2.719756 1_546
Os1 Os2 2.719756 1_456
Os2 Os3 2.719756 1_645
Os4 Os6 2.719756 1_565
Os4 Os7 2.719756 1_655
Os4 Os5 2.719756 1_556
Os5 Os6 2.719756 1_564
Os5 Os7 2.719756 1_654
Os6 Os7 2.719756 1_645
N0 Nb6 2.219289 1_555
N0 Nb8 2.219289 1_555
N0 Nb9 2.219289 1_555
N0 Nb2 2.219293 1_555
N0 Nb0 2.219293 1_555
N0 Nb3 2.219293 1_555
N1 Nb3 2.219278 1_555
N1 Nb1 2.219285 1_555
N1 Nb4 2.219285 1_555
N1 Nb10 2.219296 1_556
N1 Nb7 2.219297 1_556
N1 Nb9 2.219304 1_556
N2 Nb0 2.219278 1_555
N2 Nb5 2.219285 1_555
N2 Nb4 2.219285 1_555
N2 Nb11 2.219296 1_655
N2 Nb7 2.219297 1_655
N2 Nb8 2.219304 1_655
N3 Nb2 2.219278 1_555
N3 Nb5 2.219285 1_555
N3 Nb1 2.219285 1_555
N3 Nb11 2.219296 1_565
N3 Nb10 2.219297 1_565
N3 Nb6 2.219304 1_565
