# generated using pymatgen
data_Sr3CuAs2H
_symmetry_space_group_name_H-M   'P 1'
_cell_length_a   4.39236188
_cell_length_b   11.97409219
_cell_length_c   12.58144628
_cell_angle_alpha   90.00000000
_cell_angle_beta   90.00000000
_cell_angle_gamma   90.00000000
_symmetry_Int_Tables_number   1
_chemical_formula_structural   Sr3CuAs2H
_chemical_formula_sum   'Sr12 Cu4 As8 H4'
_cell_volume   661.71545639
_cell_formula_units_Z   4
loop_
 _symmetry_equiv_pos_site_id
 _symmetry_equiv_pos_as_xyz
  1  'x, y, z'
loop_
 _atom_site_type_symbol
 _atom_site_label
 _atom_site_symmetry_multiplicity
 _atom_site_fract_x
 _atom_site_fract_y
 _atom_site_fract_z
 _atom_site_occupancy
  Sr  Sr0  1  0.25000000  0.06638976  0.62196090  1
  Sr  Sr1  1  0.25000000  0.56638976  0.87803910  1
  Sr  Sr2  1  0.75000000  0.93361024  0.37803910  1
  Sr  Sr3  1  0.75000000  0.43361024  0.12196090  1
  Sr  Sr4  1  0.25000000  0.20472217  0.29887608  1
  Sr  Sr5  1  0.25000000  0.70472217  0.20112392  1
  Sr  Sr6  1  0.75000000  0.79527783  0.70112392  1
  Sr  Sr7  1  0.75000000  0.29527783  0.79887608  1
  Sr  Sr8  1  0.25000000  0.37436999  0.55586506  1
  Sr  Sr9  1  0.25000000  0.87436999  0.94413494  1
  Sr  Sr10  1  0.75000000  0.62563001  0.44413494  1
  Sr  Sr11  1  0.75000000  0.12563001  0.05586506  1
  Cu  Cu0  1  0.25000000  0.13471342  0.85853480  1
  Cu  Cu1  1  0.25000000  0.63471342  0.64146520  1
  Cu  Cu2  1  0.75000000  0.86528658  0.14146520  1
  Cu  Cu3  1  0.75000000  0.36528658  0.35853480  1
  As  As0  1  0.25000000  0.30758737  0.98395563  1
  As  As1  1  0.25000000  0.80758737  0.51604437  1
  As  As2  1  0.75000000  0.69241263  0.01604437  1
  As  As3  1  0.75000000  0.19241263  0.48395563  1
  As  As4  1  0.25000000  0.46959397  0.32121289  1
  As  As5  1  0.25000000  0.96959397  0.17878711  1
  As  As6  1  0.75000000  0.53040603  0.67878711  1
  As  As7  1  0.75000000  0.03040603  0.82121289  1
  H  H0  1  0.25000000  0.23705332  0.72875214  1
  H  H1  1  0.25000000  0.73705332  0.77124786  1
  H  H2  1  0.75000000  0.76294668  0.27124786  1
  H  H3  1  0.75000000  0.26294668  0.22875214  1
loop_
_geom_bond_atom_site_label_1
_geom_bond_atom_site_label_2
_geom_bond_distance
_geom_bond_site_symmetry_2
Cu0 H0 2.041539 1_555
Cu0 Sr7 3.013808 1_455
Cu0 Sr7 3.013808 1_555
Cu0 Sr0 3.086829 1_555
Cu0 Sr9 3.298167 1_545
Cu0 Sr11 3.316450 1_456
Cu0 Sr11 3.316450 1_556
Cu1 H1 2.041539 1_555
Cu1 Sr6 3.013808 1_455
Cu1 Sr6 3.013808 1_555
Cu1 Sr1 3.086829 1_555
Cu1 Sr8 3.298167 1_555
Cu1 Sr10 3.316450 1_555
Cu1 Sr10 3.316450 1_455
Cu2 H2 2.041539 1_555
Cu2 Sr5 3.013808 1_555
Cu2 Sr5 3.013808 1_655
Cu2 Sr2 3.086829 1_555
Cu2 Sr11 3.298167 1_565
Cu2 Sr9 3.316450 1_554
Cu2 Sr9 3.316450 1_654
Cu3 H3 2.041539 1_555
Cu3 Sr4 3.013808 1_655
Cu3 Sr4 3.013808 1_555
Cu3 Sr3 3.086829 1_555
Cu3 Sr10 3.298167 1_555
Cu3 Sr8 3.316450 1_555
Cu3 Sr8 3.316450 1_655
As0 Cu0 2.602872 1_555
As0 Sr3 3.180421 1_556
As0 Sr3 3.180421 1_456
As0 Sr7 3.204242 1_455
As0 Sr7 3.204242 1_555
As0 Sr11 3.223165 1_556
As0 Sr11 3.223165 1_456
As0 Sr1 3.373293 1_555
As1 Cu1 2.602872 1_555
As1 Sr2 3.180421 1_455
As1 Sr2 3.180421 1_555
As1 Sr6 3.204242 1_455
As1 Sr6 3.204242 1_555
As1 Sr10 3.223165 1_455
As1 Sr10 3.223165 1_555
As1 Sr0 3.373293 1_565
As2 Cu2 2.602872 1_555
As2 Sr1 3.180421 1_554
As2 Sr1 3.180421 1_654
As2 Sr5 3.204242 1_555
As2 Sr5 3.204242 1_655
As2 Sr9 3.223165 1_654
As2 Sr9 3.223165 1_554
As2 Sr3 3.373293 1_555
As3 Cu3 2.602872 1_555
As3 Sr0 3.180421 1_655
As3 Sr0 3.180421 1_555
As3 Sr4 3.204242 1_655
As3 Sr4 3.204242 1_555
As3 Sr8 3.223165 1_555
As3 Sr8 3.223165 1_655
As3 Sr2 3.373293 1_545
As4 Cu3 2.569760 1_555
As4 Cu3 2.569760 1_455
As4 Sr8 3.164801 1_555
As4 Sr4 3.184026 1_555
As4 Sr5 3.195237 1_555
As4 Sr10 3.271982 1_455
As4 Sr10 3.271982 1_555
As4 Sr3 3.360551 1_555
As4 Sr3 3.360551 1_455
As5 Cu2 2.569760 1_455
As5 Cu2 2.569760 1_555
As5 Sr9 3.164801 1_554
As5 Sr5 3.184026 1_555
As5 Sr4 3.195237 1_565
As5 Sr11 3.271982 1_565
As5 Sr11 3.271982 1_465
As5 Sr2 3.360551 1_455
As5 Sr2 3.360551 1_555
As6 Cu1 2.569760 1_555
As6 Cu1 2.569760 1_655
As6 Sr10 3.164801 1_555
As6 Sr6 3.184026 1_555
As6 Sr7 3.195237 1_555
As6 Sr8 3.271982 1_555
As6 Sr8 3.271982 1_655
As6 Sr1 3.360551 1_655
As6 Sr1 3.360551 1_555
As7 Cu0 2.569760 1_555
As7 Cu0 2.569760 1_655
As7 Sr11 3.164801 1_556
As7 Sr7 3.184026 1_555
As7 Sr6 3.195237 1_545
As7 Sr9 3.271982 1_645
As7 Sr9 3.271982 1_545
As7 Sr0 3.360551 1_555
As7 Sr0 3.360551 1_655
H0 Sr0 2.445668 1_555
H0 Sr7 2.467319 1_455
H0 Sr7 2.467319 1_555
H0 Sr8 2.726700 1_555
H1 Sr1 2.445668 1_555
H1 Sr6 2.467319 1_555
H1 Sr6 2.467319 1_455
H1 Sr9 2.726700 1_555
H2 Sr2 2.445668 1_555
H2 Sr5 2.467319 1_655
H2 Sr5 2.467319 1_555
H2 Sr10 2.726700 1_555
H3 Sr3 2.445668 1_555
H3 Sr4 2.467319 1_555
H3 Sr4 2.467319 1_655
H3 Sr11 2.726700 1_555
