# generated using pymatgen
data_Na4LuSbO6
_symmetry_space_group_name_H-M   'P 1'
_cell_length_a   5.59871285
_cell_length_b   5.59871284
_cell_length_c   5.73886888
_cell_angle_alpha   99.57760062
_cell_angle_beta   99.57760280
_cell_angle_gamma   119.89618298
_symmetry_Int_Tables_number   1
_chemical_formula_structural   Na4LuSbO6
_chemical_formula_sum   'Na4 Lu1 Sb1 O6'
_cell_volume   147.09139468
_cell_formula_units_Z   1
loop_
 _symmetry_equiv_pos_site_id
 _symmetry_equiv_pos_as_xyz
  1  'x, y, z'
loop_
 _atom_site_type_symbol
 _atom_site_label
 _atom_site_symmetry_multiplicity
 _atom_site_fract_x
 _atom_site_fract_y
 _atom_site_fract_z
 _atom_site_occupancy
  Na  Na0  1  0.49940697  0.50059503  1.00000000  1
  Na  Na1  1  0.00682221  0.99317679  0.49999900  1
  Na  Na2  1  0.65667679  0.34332321  0.49999900  1
  Na  Na3  1  0.33984887  0.66015113  0.49999900  1
  Lu  Lu0  1  0.83253276  0.16746924  1.00000000  1
  Sb  Sb0  1  0.16711929  0.83288171  0.00000000  1
  O  O0  1  0.21597602  0.19212406  0.21252791  1
  O  O1  1  0.54657784  0.92713758  0.21367572  1
  O  O2  1  0.95092312  0.59662324  0.20858810  1
  O  O3  1  0.40337676  0.04907688  0.79141290  1
  O  O4  1  0.07286242  0.45342316  0.78632428  1
  O  O5  1  0.80787694  0.78402398  0.78747209  1
loop_
_geom_bond_atom_site_label_1
_geom_bond_atom_site_label_2
_geom_bond_distance
_geom_bond_site_symmetry_2
Na0 O2 2.352949 1_556
Na0 O3 2.352953 1_555
Na0 O1 2.359126 1_556
Na0 O4 2.359133 1_555
Na0 O5 2.366720 1_555
Na0 O0 2.366727 1_556
Na1 O0 2.299503 1_565
Na1 O5 2.299507 1_455
Na1 O2 2.391993 1_455
Na1 O3 2.392003 1_565
Na1 O1 2.629759 1_455
Na1 O4 2.629770 1_565
Na2 O1 2.338041 1_545
Na2 O4 2.338044 1_655
Na2 O0 2.371661 1_555
Na2 O5 2.371664 1_555
Na2 O2 2.626592 1_555
Na2 O3 2.626606 1_555
Na3 O2 2.341579 1_455
Na3 O3 2.341588 1_565
Na3 O1 2.449397 1_555
Na3 O4 2.449405 1_555
Na3 O0 2.537335 1_555
Na3 O5 2.537344 1_555
Lu0 O2 2.199224 1_556
Lu0 O3 2.199228 1_555
Lu0 O0 2.211926 1_656
Lu0 O5 2.211933 1_545
Lu0 O4 2.220863 1_655
Lu0 O1 2.220870 1_546
O0 Sb0 2.032722 1_545
O1 Sb0 2.023799 1_555
O2 Sb0 2.015127 1_655
O3 Sb0 2.015117 1_546
O4 Sb0 2.023797 1_556
O5 Sb0 2.032719 1_656
