# generated using pymatgen
data_Cs3VPBr9
_symmetry_space_group_name_H-M   'P 1'
_cell_length_a   7.66801708
_cell_length_b   7.66801723
_cell_length_c   19.01718914
_cell_angle_alpha   90.00000000
_cell_angle_beta   90.00000000
_cell_angle_gamma   119.99999528
_symmetry_Int_Tables_number   1
_chemical_formula_structural   Cs3VPBr9
_chemical_formula_sum   'Cs6 V2 P2 Br18'
_cell_volume   968.37402015
_cell_formula_units_Z   2
loop_
 _symmetry_equiv_pos_site_id
 _symmetry_equiv_pos_as_xyz
  1  'x, y, z'
loop_
 _atom_site_type_symbol
 _atom_site_label
 _atom_site_symmetry_multiplicity
 _atom_site_fract_x
 _atom_site_fract_y
 _atom_site_fract_z
 _atom_site_occupancy
  Cs  Cs0  1  0.66666700  0.33333300  0.91052760  1
  Cs  Cs1  1  0.33333300  0.66666700  0.41052760  1
  Cs  Cs2  1  0.66666700  0.33333300  0.57798200  1
  Cs  Cs3  1  0.33333300  0.66666700  0.07798200  1
  Cs  Cs4  1  0.00000000  0.00000000  0.75908025  1
  Cs  Cs5  1  0.00000000  0.00000000  0.25908025  1
  V  V0  1  0.66666700  0.33333300  0.34103019  1
  V  V1  1  0.33333300  0.66666700  0.84103019  1
  P  P0  1  0.33333300  0.66666700  0.64915486  1
  P  P1  1  0.66666700  0.33333300  0.14915486  1
  Br  Br0  1  0.82457763  0.64915326  0.41306395  1
  Br  Br1  1  0.17542237  0.35084674  0.91306395  1
  Br  Br2  1  0.17542237  0.82457763  0.91306395  1
  Br  Br3  1  0.18041255  0.36082610  0.58522045  1
  Br  Br4  1  0.64915326  0.82457763  0.91306395  1
  Br  Br5  1  0.35084674  0.17542237  0.41306395  1
  Br  Br6  1  0.01946733  0.50973367  0.75578997  1
  Br  Br7  1  0.82457763  0.17542237  0.41306395  1
  Br  Br8  1  0.50973367  0.01946733  0.25578997  1
  Br  Br9  1  0.49026633  0.50973367  0.75578997  1
  Br  Br10  1  0.50973367  0.49026633  0.25578997  1
  Br  Br11  1  0.98053267  0.49026633  0.25578997  1
  Br  Br12  1  0.36082610  0.18041255  0.08522045  1
  Br  Br13  1  0.49026633  0.98053267  0.75578997  1
  Br  Br14  1  0.81958745  0.63917390  0.08522045  1
  Br  Br15  1  0.18041255  0.81958745  0.58522045  1
  Br  Br16  1  0.63917390  0.81958745  0.58522045  1
  Br  Br17  1  0.81958745  0.18041255  0.08522045  1
loop_
_geom_bond_atom_site_label_1
_geom_bond_atom_site_label_2
_geom_bond_distance
_geom_bond_site_symmetry_2
Br0 V0 2.505015 1_555
Br0 Cs5 3.742117 1_665
Br0 Cs2 3.772899 1_555
Br0 Cs1 3.836064 1_655
Br0 Cs1 3.836087 1_555
Br1 V1 2.505015 1_555
Br1 Cs4 3.742117 1_555
Br1 Cs3 3.772899 1_556
Br1 Cs0 3.836064 1_455
Br1 Cs0 3.836087 1_555
Br2 V1 2.505020 1_555
Br2 Cs4 3.742109 1_565
Br2 Cs3 3.772903 1_556
Br2 Cs0 3.836075 1_455
Br2 Cs0 3.836075 1_565
Br3 P0 2.367118 1_555
Br3 Cs2 3.840813 1_455
Br3 Cs2 3.840828 1_555
Br3 Cs1 3.893808 1_555
Br3 Cs4 4.083290 1_555
Br4 V1 2.505015 1_555
Br4 Cs4 3.742117 1_665
Br4 Cs3 3.772899 1_556
Br4 Cs0 3.836064 1_565
Br4 Cs0 3.836087 1_555
Br5 V0 2.505015 1_555
Br5 Cs5 3.742117 1_555
Br5 Cs2 3.772899 1_555
Br5 Cs1 3.836064 1_545
Br5 Cs1 3.836087 1_555
Br6 V1 2.640452 1_555
Br6 P0 2.908029 1_555
Br6 Cs0 3.761414 1_455
Br6 Cs4 3.836698 1_565
Br6 Cs4 3.836698 1_555
Br6 Cs2 4.113735 1_455
Br7 V0 2.505020 1_555
Br7 Cs5 3.742109 1_655
Br7 Cs2 3.772903 1_555
Br7 Cs1 3.836075 1_655
Br7 Cs1 3.836075 1_545
Br8 V0 2.640452 1_555
Br8 P1 2.908029 1_555
Br8 Cs1 3.761414 1_545
Br8 Cs5 3.836698 1_655
Br8 Cs5 3.836698 1_555
Br8 Cs3 4.113735 1_545
Br9 V1 2.640458 1_555
Br9 P0 2.908033 1_555
Br9 Cs0 3.761418 1_555
Br9 Cs4 3.836698 1_665
Br9 Cs4 3.836698 1_555
Br9 Cs2 4.113739 1_555
Br10 V0 2.640458 1_555
Br10 P1 2.908033 1_555
Br10 Cs1 3.761418 1_555
Br10 Cs5 3.836698 1_555
Br10 Cs5 3.836698 1_665
Br10 Cs3 4.113739 1_555
Br11 V0 2.640452 1_555
Br11 P1 2.908029 1_555
Br11 Cs1 3.761414 1_655
Br11 Cs5 3.836698 1_655
Br11 Cs5 3.836698 1_665
Br11 Cs3 4.113735 1_655
Br12 P1 2.367118 1_555
Br12 Cs3 3.840813 1_545
Br12 Cs3 3.840828 1_555
Br12 Cs0 3.893808 1_554
Br12 Cs5 4.083290 1_555
Br13 V1 2.640452 1_555
Br13 P0 2.908029 1_555
Br13 Cs0 3.761414 1_565
Br13 Cs4 3.836698 1_565
Br13 Cs4 3.836698 1_665
Br13 Cs2 4.113735 1_565
Br14 P1 2.367118 1_555
Br14 Cs3 3.840813 1_655
Br14 Cs3 3.840828 1_555
Br14 Cs0 3.893808 1_554
Br14 Cs5 4.083290 1_665
Br15 P0 2.367118 1_555
Br15 Cs2 3.840820 1_455
Br15 Cs2 3.840820 1_565
Br15 Cs1 3.893808 1_555
Br15 Cs4 4.083286 1_565
Br16 P0 2.367118 1_555
Br16 Cs2 3.840813 1_565
Br16 Cs2 3.840828 1_555
Br16 Cs1 3.893808 1_555
Br16 Cs4 4.083290 1_665
Br17 P1 2.367118 1_555
Br17 Cs3 3.840820 1_655
Br17 Cs3 3.840820 1_545
Br17 Cs0 3.893808 1_554
Br17 Cs5 4.083286 1_655
