# generated using pymatgen
data_LiCaH6Ir
_symmetry_space_group_name_H-M   'P 1'
_cell_length_a   4.95853248
_cell_length_b   4.95853286
_cell_length_c   4.95853258
_cell_angle_alpha   60.00000847
_cell_angle_beta   60.00000593
_cell_angle_gamma   59.99999887
_symmetry_Int_Tables_number   1
_chemical_formula_structural   LiCaH6Ir
_chemical_formula_sum   'Li1 Ca1 H6 Ir1'
_cell_volume   86.20740555
_cell_formula_units_Z   1
loop_
 _symmetry_equiv_pos_site_id
 _symmetry_equiv_pos_as_xyz
  1  'x, y, z'
loop_
 _atom_site_type_symbol
 _atom_site_label
 _atom_site_symmetry_multiplicity
 _atom_site_fract_x
 _atom_site_fract_y
 _atom_site_fract_z
 _atom_site_occupancy
  Li  Li0  1  0.25000000  0.25000000  0.25000000  1
  Ca  Ca0  1  0.75000000  0.75000000  0.75000000  1
  H  H0  1  0.76230492  0.23769508  0.23769508  1
  H  H1  1  0.23769508  0.76230492  0.23769508  1
  H  H2  1  0.76230492  0.76230492  0.23769508  1
  H  H3  1  0.23769508  0.76230492  0.76230492  1
  H  H4  1  0.76230492  0.23769508  0.76230492  1
  H  H5  1  0.23769508  0.23769508  0.76230492  1
  Ir  Ir0  1  0.00000000  0.00000000  0.00000000  1
loop_
_geom_bond_atom_site_label_1
_geom_bond_atom_site_label_2
_geom_bond_distance
_geom_bond_site_symmetry_2
Ca0 H3 2.480767 1_655
Ca0 H3 2.480767 1_555
Ca0 H2 2.480767 1_556
Ca0 H5 2.480767 1_565
Ca0 H5 2.480767 1_655
Ca0 H2 2.480767 1_555
Ca0 H4 2.480768 1_565
Ca0 H4 2.480768 1_555
Ca0 H1 2.480768 1_556
Ca0 H1 2.480768 1_655
Ca0 H0 2.480768 1_556
Ca0 H0 2.480768 1_565
H0 Ir0 1.666819 1_655
H1 Ir0 1.666819 1_565
H2 Ir0 1.666819 1_665
H3 Ir0 1.666819 1_566
H4 Ir0 1.666819 1_656
H5 Ir0 1.666819 1_556
