# generated using pymatgen
data_Cs2TiFeSe4
_symmetry_space_group_name_H-M   'P 1'
_cell_length_a   7.57784181
_cell_length_b   7.57784167
_cell_length_c   5.81113729
_cell_angle_alpha   79.08083582
_cell_angle_beta   79.08082756
_cell_angle_gamma   116.98132841
_symmetry_Int_Tables_number   1
_chemical_formula_structural   Cs2TiFeSe4
_chemical_formula_sum   'Cs2 Ti1 Fe1 Se4'
_cell_volume   277.15624007
_cell_formula_units_Z   1
loop_
 _symmetry_equiv_pos_site_id
 _symmetry_equiv_pos_as_xyz
  1  'x, y, z'
loop_
 _atom_site_type_symbol
 _atom_site_label
 _atom_site_symmetry_multiplicity
 _atom_site_fract_x
 _atom_site_fract_y
 _atom_site_fract_z
 _atom_site_occupancy
  Cs  Cs0  1  0.14651285  0.85348715  0.00000000  1
  Cs  Cs1  1  0.85303106  0.14696894  0.50000000  1
  Ti  Ti0  1  0.50176658  0.49823342  1.00000000  1
  Fe  Fe0  1  0.49816790  0.50183210  0.50000000  1
  Se  Se0  1  0.20757636  0.41520865  0.85019461  1
  Se  Se1  1  0.58479135  0.79242364  0.14980539  1
  Se  Se2  1  0.79245684  0.58430293  0.65621453  1
  Se  Se3  1  0.41569707  0.20754316  0.34378547  1
loop_
_geom_bond_atom_site_label_1
_geom_bond_atom_site_label_2
_geom_bond_distance
_geom_bond_site_symmetry_2
Cs0 Se3 3.736160 1_565
Cs0 Se2 3.736160 1_454
Cs0 Se2 3.756588 1_455
Cs0 Se3 3.756588 1_564
Cs0 Se0 3.786767 1_554
Cs0 Se1 3.786767 1_555
Cs0 Se1 3.968271 1_455
Cs0 Se0 3.968271 1_564
Cs1 Se0 3.728567 1_654
Cs1 Se1 3.728567 1_546
Cs1 Se1 3.764893 1_545
Cs1 Se0 3.764893 1_655
Cs1 Se2 3.792086 1_555
Cs1 Se3 3.792086 1_555
Cs1 Se3 3.976750 1_655
Cs1 Se2 3.976750 1_545
Fe0 Se3 2.430044 1_555
Fe0 Se2 2.430045 1_555
Fe0 Se0 2.430200 1_555
Fe0 Se1 2.430200 1_555
Se0 Ti0 2.406989 1_555
Se1 Ti0 2.406989 1_554
Se2 Ti0 2.409225 1_555
Se3 Ti0 2.409225 1_554
