# generated using pymatgen
data_Zr2ReMoW2
_symmetry_space_group_name_H-M   'P 1'
_cell_length_a   5.37268484
_cell_length_b   5.35691968
_cell_length_c   5.37268479
_cell_angle_alpha   120.20416426
_cell_angle_beta   119.80273917
_cell_angle_gamma   90.07919216
_symmetry_Int_Tables_number   1
_chemical_formula_structural   Zr2ReMoW2
_chemical_formula_sum   'Zr2 Re1 Mo1 W2'
_cell_volume   109.25238379
_cell_formula_units_Z   1
loop_
 _symmetry_equiv_pos_site_id
 _symmetry_equiv_pos_as_xyz
  1  'x, y, z'
loop_
 _atom_site_type_symbol
 _atom_site_label
 _atom_site_symmetry_multiplicity
 _atom_site_fract_x
 _atom_site_fract_y
 _atom_site_fract_z
 _atom_site_occupancy
  Zr  Zr0  1  0.12570467  0.87690240  0.25119773  1
  Zr  Zr1  1  0.87429533  0.12309760  0.74880227  1
  Re  Re0  1  0.50000000  0.00000000  0.00000000  1
  Mo  Mo0  1  0.50000000  0.50000000  0.50000000  1
  W  W0  1  0.50000000  0.50000000  0.00000000  1
  W  W1  1  0.00000000  0.50000000  0.50000000  1
loop_
_geom_bond_atom_site_label_1
_geom_bond_atom_site_label_2
_geom_bond_distance
_geom_bond_site_symmetry_2
Re0 W1 2.678460 1_544
Re0 W1 2.678460 1_655
Re0 W0 2.678460 1_545
Re0 W0 2.678460 1_555
Re0 Zr1 3.144818 1_554
Re0 Zr0 3.144818 1_545
Re0 Zr1 3.154214 1_555
Re0 Zr0 3.154214 1_544
Re0 Zr0 3.154214 1_645
Re0 Zr1 3.154214 1_454
Mo0 Re0 2.674128 1_566
Mo0 Re0 2.674128 1_555
Mo0 W0 2.686342 1_555
Mo0 W0 2.686342 1_556
Mo0 W1 2.686342 1_655
Mo0 W1 2.686342 1_555
Mo0 Zr1 3.129267 1_565
Mo0 Zr0 3.129267 1_545
Mo0 Zr0 3.156273 1_656
Mo0 Zr1 3.156273 1_454
Mo0 Zr1 3.156274 1_555
Mo0 Zr0 3.156274 1_555
W0 W1 2.694348 1_655
W0 W1 2.694348 1_554
W0 Zr1 3.130290 1_565
W0 Zr0 3.130290 1_544
W0 Zr1 3.147902 1_554
W0 Zr0 3.147902 1_555
W0 Zr0 3.150982 1_655
W0 Zr1 3.150982 1_454
W1 Zr1 3.130290 1_465
W1 Zr0 3.130290 1_545
W1 Zr0 3.147901 1_556
W1 Zr1 3.147901 1_454
W1 Zr0 3.150982 1_555
W1 Zr1 3.150982 1_455
