# generated using pymatgen
data_Sc12GaTcNi4
_symmetry_space_group_name_H-M   'P 1'
_cell_length_a   7.69607044
_cell_length_b   7.69607025
_cell_length_c   7.69607020
_cell_angle_alpha   111.14418010
_cell_angle_beta   109.97350717
_cell_angle_gamma   107.31940193
_symmetry_Int_Tables_number   1
_chemical_formula_structural   Sc12GaTcNi4
_chemical_formula_sum   'Sc12 Ga1 Tc1 Ni4'
_cell_volume   350.49394705
_cell_formula_units_Z   1
loop_
 _symmetry_equiv_pos_site_id
 _symmetry_equiv_pos_as_xyz
  1  'x, y, z'
loop_
 _atom_site_type_symbol
 _atom_site_label
 _atom_site_symmetry_multiplicity
 _atom_site_fract_x
 _atom_site_fract_y
 _atom_site_fract_z
 _atom_site_occupancy
  Sc  Sc0  1  0.42661653  0.23321713  0.19339840  1
  Sc  Sc1  1  0.57338347  0.76678287  0.80660160  1
  Sc  Sc2  1  0.03981873  0.23321713  0.80660160  1
  Sc  Sc3  1  0.96018127  0.76678287  0.19339840  1
  Sc  Sc4  1  0.18123005  0.27417141  0.45540146  1
  Sc  Sc5  1  0.81876995  0.72582859  0.54459854  1
  Sc  Sc6  1  0.18123005  0.72582859  0.90705864  1
  Sc  Sc7  1  0.81876995  0.27417141  0.09294136  1
  Sc  Sc8  1  0.32363297  0.62061147  0.29697850  1
  Sc  Sc9  1  0.67636703  0.37938853  0.70302150  1
  Sc  Sc10  1  0.32363297  0.02665447  0.70302150  1
  Sc  Sc11  1  0.67636703  0.97334553  0.29697850  1
  Ga  Ga0  1  0.50000000  0.50000000  0.00000000  1
  Tc  Tc0  1  0.00000000  0.00000000  0.00000000  1
  Ni  Ni0  1  0.35386651  1.00000000  0.35386651  1
  Ni  Ni1  1  0.64613349  0.00000000  0.64613349  1
  Ni  Ni2  1  0.12370746  0.62370746  0.50000000  1
  Ni  Ni3  1  0.87629254  0.37629254  0.50000000  1
loop_
_geom_bond_atom_site_label_1
_geom_bond_atom_site_label_2
_geom_bond_distance
_geom_bond_site_symmetry_2
Sc0 Tc0 2.728043 1_555
Sc1 Tc0 2.728043 1_666
Sc2 Tc0 2.728037 1_556
Sc3 Tc0 2.728037 1_665
Sc4 Tc0 2.873019 1_555
Sc5 Tc0 2.873019 1_666
Sc6 Tc0 2.873019 1_566
Sc7 Tc0 2.873019 1_655
Ga0 Sc1 2.972947 1_554
Ga0 Sc0 2.972947 1_555
Ga0 Sc3 2.972948 1_555
Ga0 Sc2 2.972948 1_554
Ga0 Sc8 3.044139 1_555
Ga0 Sc9 3.044139 1_554
Ga0 Sc11 3.044139 1_555
Ga0 Sc10 3.044139 1_554
Ga0 Sc7 3.433290 1_555
Ga0 Sc6 3.433290 1_554
Ga0 Sc5 3.433290 1_555
Ga0 Sc4 3.433290 1_554
Ni0 Sc3 2.556035 1_455
Ni0 Sc0 2.556036 1_565
Ni0 Sc10 2.715646 1_565
Ni0 Sc8 2.715646 1_555
Ni0 Sc11 2.715646 1_555
Ni0 Sc9 2.715647 1_565
Ni0 Sc4 2.831440 1_565
Ni0 Sc6 2.831441 1_554
Ni1 Sc2 2.556035 1_655
Ni1 Sc1 2.556036 1_545
Ni1 Sc11 2.715646 1_545
Ni1 Sc9 2.715646 1_555
Ni1 Sc10 2.715646 1_555
Ni1 Sc8 2.715647 1_545
Ni1 Sc5 2.831440 1_545
Ni1 Sc7 2.831441 1_556
Ni2 Ni3 2.256689 1_455
Ni2 Sc8 2.539026 1_555
Ni2 Sc10 2.539027 1_565
Ni2 Sc4 2.774333 1_555
Ni2 Sc5 2.774333 1_455
Ni2 Sc6 2.774333 1_555
Ni2 Sc7 2.774333 1_455
Ni2 Sc1 3.005809 1_555
Ni2 Sc3 3.005815 1_455
Ni3 Sc9 2.539026 1_555
Ni3 Sc11 2.539027 1_545
Ni3 Sc5 2.774333 1_555
Ni3 Sc4 2.774333 1_655
Ni3 Sc7 2.774333 1_555
Ni3 Sc6 2.774333 1_655
Ni3 Sc0 3.005809 1_555
Ni3 Sc2 3.005815 1_655
