# generated using pymatgen
data_Ti12Be9Cu3N4
_symmetry_space_group_name_H-M   'P 1'
_cell_length_a   7.69026241
_cell_length_b   7.69026133
_cell_length_c   7.68475340
_cell_angle_alpha   59.97628581
_cell_angle_beta   59.97628896
_cell_angle_gamma   59.99999251
_symmetry_Int_Tables_number   1
_chemical_formula_structural   Ti12Be9Cu3N4
_chemical_formula_sum   'Ti12 Be9 Cu3 N4'
_cell_volume   321.24873010
_cell_formula_units_Z   1
loop_
 _symmetry_equiv_pos_site_id
 _symmetry_equiv_pos_as_xyz
  1  'x, y, z'
loop_
 _atom_site_type_symbol
 _atom_site_label
 _atom_site_symmetry_multiplicity
 _atom_site_fract_x
 _atom_site_fract_y
 _atom_site_fract_z
 _atom_site_occupancy
  Ti  Ti0  1  0.94240905  0.55813405  0.55704885  1
  Ti  Ti1  1  0.69186595  0.30759095  0.69295115  1
  Ti  Ti2  1  0.94249961  0.55759270  0.94231498  1
  Ti  Ti3  1  0.55759270  0.94249961  0.94231498  1
  Ti  Ti4  1  0.30750039  0.69240730  0.30768502  1
  Ti  Ti5  1  0.55813405  0.94240905  0.55704885  1
  Ti  Ti6  1  0.69240730  0.69240730  0.30768502  1
  Ti  Ti7  1  0.94240905  0.94240905  0.55704885  1
  Ti  Ti8  1  0.30759095  0.30759095  0.69295115  1
  Ti  Ti9  1  0.69240730  0.30750039  0.30768502  1
  Ti  Ti10  1  0.55759270  0.55759270  0.94231498  1
  Ti  Ti11  1  0.30759095  0.69186595  0.69295115  1
  Be  Be0  1  0.22557504  0.92625941  0.92190713  1
  Be  Be1  1  0.32374059  0.32374059  0.32809287  1
  Be  Be2  1  0.32511867  0.32511867  0.02464399  1
  Be  Be3  1  0.92625941  0.22557504  0.92190713  1
  Be  Be4  1  0.92625941  0.92625941  0.92190713  1
  Be  Be5  1  0.02442496  0.32374059  0.32809287  1
  Be  Be6  1  0.92488133  0.92488133  0.22535601  1
  Be  Be7  1  0.32374059  0.02442496  0.32809287  1
  Be  Be8  1  0.12500000  0.12500000  0.62500000  1
  Cu  Cu0  1  0.12500000  0.62500000  0.12500000  1
  Cu  Cu1  1  0.62500000  0.12500000  0.12500000  1
  Cu  Cu2  1  0.12500000  0.12500000  0.12500000  1
  N  N0  1  0.62500000  0.12500000  0.62500000  1
  N  N1  1  0.62500000  0.62500000  0.12500000  1
  N  N2  1  0.12500000  0.62500000  0.62500000  1
  N  N3  1  0.62500000  0.62500000  0.62500000  1
loop_
_geom_bond_atom_site_label_1
_geom_bond_atom_site_label_2
_geom_bond_distance
_geom_bond_site_symmetry_2
Be0 Be8 2.287854 1_565
Be0 Be3 2.301815 1_465
Be0 Be4 2.301816 1_455
Be0 Cu2 2.316661 1_566
Be0 Cu0 2.316667 1_556
Be0 Be6 2.321377 1_456
Be0 Ti5 2.685308 1_555
Be0 Ti3 2.701621 1_555
Be0 Ti10 2.701625 1_555
Be0 Ti8 2.769297 1_565
Be0 Ti11 2.769310 1_555
Be0 Ti4 2.796567 1_556
Be1 Be8 2.287851 1_555
Be1 Be7 2.301815 1_555
Be1 Be5 2.301816 1_555
Be1 Cu0 2.316663 1_555
Be1 Cu1 2.316663 1_555
Be1 Be2 2.321373 1_555
Be1 Ti8 2.685308 1_555
Be1 Ti4 2.701628 1_555
Be1 Ti9 2.701629 1_555
Be1 Ti5 2.769304 1_545
Be1 Ti0 2.769304 1_455
Be1 Ti10 2.796570 1_554
Be2 Cu0 2.307503 1_555
Be2 Cu1 2.307503 1_555
Be2 Cu2 2.307503 1_555
Be2 Be7 2.321376 1_555
Be2 Be5 2.321377 1_555
Be3 Be8 2.287854 1_655
Be3 Be4 2.301815 1_545
Be3 Cu2 2.316661 1_656
Be3 Cu1 2.316668 1_556
Be3 Be6 2.321376 1_546
Be3 Ti0 2.685308 1_555
Be3 Ti2 2.701620 1_555
Be3 Ti10 2.701625 1_555
Be3 Ti8 2.769298 1_655
Be3 Ti1 2.769311 1_555
Be3 Ti9 2.796567 1_556
Be4 Be8 2.287851 1_665
Be4 Cu0 2.316663 1_656
Be4 Cu1 2.316663 1_566
Be4 Be6 2.321373 1_556
Be4 Ti7 2.685308 1_555
Be4 Ti2 2.701628 1_555
Be4 Ti3 2.701629 1_555
Be4 Ti1 2.769304 1_565
Be4 Ti11 2.769304 1_655
Be4 Ti6 2.796570 1_556
Be5 Be8 2.287854 1_555
Be5 Be7 2.301815 1_555
Be5 Cu2 2.316661 1_555
Be5 Cu0 2.316667 1_555
Be5 Ti1 2.685308 1_455
Be5 Ti9 2.701621 1_455
Be5 Ti6 2.701625 1_455
Be5 Ti7 2.769297 1_445
Be5 Ti0 2.769310 1_455
Be5 Ti2 2.796567 1_454
Be6 Cu0 2.307503 1_655
Be6 Cu1 2.307503 1_565
Be6 Cu2 2.307503 1_665
Be7 Be8 2.287854 1_555
Be7 Cu2 2.316661 1_555
Be7 Cu1 2.316668 1_555
Be7 Ti11 2.685308 1_545
Be7 Ti4 2.701620 1_545
Be7 Ti6 2.701625 1_545
Be7 Ti7 2.769298 1_445
Be7 Ti5 2.769311 1_545
Be7 Ti3 2.796567 1_544
Be8 Ti8 2.766824 1_555
Be8 Ti7 2.766824 1_445
Be8 Ti0 2.766830 1_455
Be8 Ti11 2.766830 1_545
Be8 Ti5 2.766830 1_545
Be8 Ti1 2.766830 1_455
Cu0 Ti0 2.758232 1_455
Cu0 Ti11 2.758232 1_554
Cu0 Ti4 2.763495 1_555
Cu0 Ti2 2.763495 1_454
Cu0 Ti10 2.763496 1_554
Cu0 Ti6 2.763496 1_455
Cu1 Ti5 2.758232 1_545
Cu1 Ti1 2.758232 1_554
Cu1 Ti10 2.763495 1_554
Cu1 Ti6 2.763495 1_545
Cu1 Ti9 2.763495 1_555
Cu1 Ti3 2.763495 1_544
Cu2 Ti7 2.758231 1_445
Cu2 Ti8 2.758231 1_554
Cu2 Ti2 2.763495 1_454
Cu2 Ti4 2.763495 1_545
Cu2 Ti3 2.763495 1_544
Cu2 Ti9 2.763495 1_455
N0 Ti3 2.054857 1_545
N0 Ti9 2.054857 1_555
N0 Ti1 2.057504 1_555
N0 Ti5 2.057504 1_545
N0 Ti7 2.057510 1_545
N0 Ti8 2.057510 1_555
N1 Ti3 2.057570 1_554
N1 Ti9 2.057570 1_555
N1 Ti6 2.057571 1_555
N1 Ti10 2.057571 1_554
N1 Ti2 2.057571 1_554
N1 Ti4 2.057571 1_555
N2 Ti2 2.054857 1_455
N2 Ti4 2.054857 1_555
N2 Ti11 2.057505 1_555
N2 Ti0 2.057505 1_455
N2 Ti7 2.057510 1_455
N2 Ti8 2.057510 1_555
N3 Ti10 2.054857 1_555
N3 Ti6 2.054857 1_555
N3 Ti5 2.057511 1_555
N3 Ti1 2.057511 1_555
N3 Ti0 2.057512 1_555
N3 Ti11 2.057512 1_555
