# generated using pymatgen
data_HfZrSb2Ru3
_symmetry_space_group_name_H-M   'P 1'
_cell_length_a   4.49024366
_cell_length_b   4.49024473
_cell_length_c   7.75082268
_cell_angle_alpha   73.16226074
_cell_angle_beta   73.16225744
_cell_angle_gamma   60.00001143
_symmetry_Int_Tables_number   1
_chemical_formula_structural   HfZrSb2Ru3
_chemical_formula_sum   'Hf1 Zr1 Sb2 Ru3'
_cell_volume   127.54284382
_cell_formula_units_Z   1
loop_
 _symmetry_equiv_pos_site_id
 _symmetry_equiv_pos_as_xyz
  1  'x, y, z'
loop_
 _atom_site_type_symbol
 _atom_site_label
 _atom_site_symmetry_multiplicity
 _atom_site_fract_x
 _atom_site_fract_y
 _atom_site_fract_z
 _atom_site_occupancy
  Hf  Hf0  1  0.75412577  0.75412577  0.73762069  1
  Zr  Zr0  1  0.24669340  0.24669340  0.25991781  1
  Sb  Sb0  1  0.99565965  0.99565965  0.01302105  1
  Sb  Sb1  1  0.50316156  0.50316156  0.49051731  1
  Ru  Ru0  1  0.62874102  0.62874102  0.11377595  1
  Ru  Ru1  1  0.12200291  0.12200291  0.63399027  1
  Ru  Ru2  1  0.37461369  0.37461369  0.87615992  1
loop_
_geom_bond_atom_site_label_1
_geom_bond_atom_site_label_2
_geom_bond_distance
_geom_bond_site_symmetry_2
Hf0 Ru1 2.700694 1_565
Hf0 Ru1 2.700694 1_655
Hf0 Ru1 2.700697 1_665
Hf0 Ru0 2.747594 1_556
Hf0 Ru2 2.782941 1_555
Hf0 Ru2 2.782952 1_655
Hf0 Ru2 2.782953 1_565
Hf0 Sb1 3.158882 1_555
Hf0 Sb1 3.158895 1_655
Hf0 Sb1 3.158896 1_565
Hf0 Sb0 3.281378 1_456
Hf0 Sb0 3.281379 1_546
Hf0 Sb0 3.281384 1_556
Sb0 Zr0 3.158025 1_665
Sb0 Zr0 3.158031 1_565
Sb0 Zr0 3.158032 1_655
Sb1 Zr0 3.091589 1_655
Sb1 Zr0 3.091590 1_565
Sb1 Zr0 3.091602 1_555
Ru0 Sb0 2.694882 1_455
Ru0 Sb0 2.694882 1_545
Ru0 Sb0 2.694886 1_555
Ru0 Sb1 2.751876 1_555
Ru0 Zr0 2.803618 1_655
Ru0 Zr0 2.803618 1_565
Ru0 Zr0 2.803621 1_555
Ru1 Zr0 2.732381 1_555
Ru1 Sb0 2.768598 1_446
Ru1 Sb1 2.796251 1_455
Ru1 Sb1 2.796251 1_545
Ru1 Sb1 2.796262 1_555
Ru2 Sb0 2.778514 1_546
Ru2 Sb0 2.778514 1_456
Ru2 Sb0 2.778517 1_446
Ru2 Zr0 2.803127 1_556
Ru2 Sb1 2.816894 1_555
