# generated using pymatgen
data_Mg4Ge5PIr7
_symmetry_space_group_name_H-M   'P 1'
_cell_length_a   6.97714586
_cell_length_b   6.97714608
_cell_length_c   6.97714540
_cell_angle_alpha   109.16930834
_cell_angle_beta   110.07675909
_cell_angle_gamma   109.16929580
_symmetry_Int_Tables_number   1
_chemical_formula_structural   Mg4Ge5PIr7
_chemical_formula_sum   'Mg4 Ge5 P1 Ir7'
_cell_volume   261.44183213
_cell_formula_units_Z   1
loop_
 _symmetry_equiv_pos_site_id
 _symmetry_equiv_pos_as_xyz
  1  'x, y, z'
loop_
 _atom_site_type_symbol
 _atom_site_label
 _atom_site_symmetry_multiplicity
 _atom_site_fract_x
 _atom_site_fract_y
 _atom_site_fract_z
 _atom_site_occupancy
  Mg  Mg0  1  0.00088161  0.00000000  0.48281374  1
  Mg  Mg1  1  0.48281374  1.00000000  0.00088161  1
  Mg  Mg2  1  0.00088161  0.51806687  0.00088161  1
  Mg  Mg3  1  0.48281374  0.48193313  0.48281374  1
  Ge  Ge0  1  0.68644320  0.69075412  0.99568909  1
  Ge  Ge1  1  0.30493597  0.30924588  0.99568909  1
  Ge  Ge2  1  0.99568909  0.69075412  0.68644320  1
  Ge  Ge3  1  0.99568909  0.30924588  0.30493597  1
  Ge  Ge4  1  0.70536100  1.00000000  0.70536100  1
  P  P0  1  0.32573394  1.00000000  0.32573394  1
  Ir  Ir0  1  0.02173563  1.00000000  0.02173563  1
  Ir  Ir1  1  0.24776919  0.50000000  0.74776919  1
  Ir  Ir2  1  0.74665819  0.24628594  0.50037025  1
  Ir  Ir3  1  0.50037025  0.24628594  0.74665819  1
  Ir  Ir4  1  0.50037025  0.75371406  0.25408431  1
  Ir  Ir5  1  0.74776919  0.50000000  0.24776919  1
  Ir  Ir6  1  0.25408431  0.75371406  0.50037025  1
loop_
_geom_bond_atom_site_label_1
_geom_bond_atom_site_label_2
_geom_bond_distance
_geom_bond_site_symmetry_2
Mg0 P0 2.836161 1_545
Mg1 P0 2.836161 1_555
Mg2 P0 2.836166 1_555
Mg3 P0 2.836168 1_545
Ge0 Ir0 2.509377 1_656
Ge0 Ir1 2.511849 1_555
Ge0 Ir5 2.538185 1_556
Ge0 Ir3 2.567122 1_555
Ge0 Ir4 2.567123 1_556
Ge0 Mg0 2.824205 1_666
Ge0 Mg2 2.824210 1_656
Ge0 Mg1 2.944910 1_556
Ge0 Mg3 2.944910 1_555
Ge1 Ir0 2.509380 1_546
Ge1 Ir1 2.511849 1_555
Ge1 Ir5 2.538180 1_556
Ge1 Ir3 2.567106 1_555
Ge1 Ir4 2.567124 1_556
Ge1 Mg1 2.824200 1_546
Ge1 Mg3 2.824205 1_556
Ge1 Mg0 2.944910 1_555
Ge1 Mg2 2.944911 1_556
Ge2 Ir0 2.509376 1_656
Ge2 Ir5 2.511848 1_555
Ge2 Ir1 2.538185 1_655
Ge2 Ir2 2.567122 1_555
Ge2 Ir6 2.567123 1_655
Ge2 Mg1 2.824205 1_656
Ge2 Mg2 2.824210 1_656
Ge2 Mg0 2.944910 1_665
Ge2 Mg3 2.944911 1_555
Ge3 Ir0 2.509380 1_645
Ge3 Ir5 2.511849 1_555
Ge3 Ir1 2.538179 1_655
Ge3 Ir2 2.567106 1_555
Ge3 Ir6 2.567124 1_655
Ge3 Mg0 2.824200 1_655
Ge3 Mg3 2.824205 1_655
Ge3 Mg1 2.944911 1_545
Ge3 Mg2 2.944911 1_655
Ge4 Ir0 2.529793 1_656
Ge4 Ir4 2.579387 1_555
Ge4 Ir6 2.579388 1_555
Ge4 Ir3 2.579389 1_565
Ge4 Ir2 2.579389 1_565
Ge4 Mg3 2.976650 1_555
Ge4 Mg2 2.976651 1_666
Ge4 Mg1 2.976656 1_556
Ge4 Mg0 2.976656 1_665
Ir0 P0 2.430829 1_555
Ir1 Mg2 2.861269 1_556
Ir1 Mg3 2.861269 1_555
Ir1 Mg0 2.861269 1_555
Ir1 Mg1 2.861269 1_556
Ir2 P0 2.432386 1_545
Ir2 Mg1 2.841143 1_545
Ir2 Mg3 2.841160 1_555
Ir2 Mg0 2.850722 1_655
Ir2 Mg2 2.850734 1_656
Ir3 P0 2.432386 1_545
Ir3 Mg0 2.841143 1_555
Ir3 Mg3 2.841160 1_555
Ir3 Mg1 2.850722 1_546
Ir3 Mg2 2.850734 1_656
Ir4 P0 2.432374 1_555
Ir4 Mg2 2.841143 1_555
Ir4 Mg1 2.841143 1_555
Ir4 Mg3 2.850728 1_555
Ir4 Mg0 2.850734 1_665
Ir5 Mg2 2.861269 1_655
Ir5 Mg3 2.861269 1_555
Ir5 Mg1 2.861269 1_545
Ir5 Mg0 2.861269 1_665
Ir6 P0 2.432375 1_555
Ir6 Mg2 2.841142 1_555
Ir6 Mg0 2.841143 1_565
Ir6 Mg3 2.850728 1_555
Ir6 Mg1 2.850734 1_556
