# generated using pymatgen
data_Ir3Rh(Pb2O7)2
_symmetry_space_group_name_H-M   'P 1'
_cell_length_a   7.25884026
_cell_length_b   7.25883967
_cell_length_c   7.26496738
_cell_angle_alpha   60.02789789
_cell_angle_beta   60.02790260
_cell_angle_gamma   59.99999411
_symmetry_Int_Tables_number   1
_chemical_formula_structural   Ir3Rh(Pb2O7)2
_chemical_formula_sum   'Ir3 Rh1 Pb4 O14'
_cell_volume   270.79217671
_cell_formula_units_Z   1
loop_
 _symmetry_equiv_pos_site_id
 _symmetry_equiv_pos_as_xyz
  1  'x, y, z'
loop_
 _atom_site_type_symbol
 _atom_site_label
 _atom_site_symmetry_multiplicity
 _atom_site_fract_x
 _atom_site_fract_y
 _atom_site_fract_z
 _atom_site_occupancy
  Ir  Ir0  1  0.12500000  0.62500000  0.62500000  1
  Ir  Ir1  1  0.62500000  0.12500000  0.62500000  1
  Ir  Ir2  1  0.62500000  0.62500000  0.62500000  1
  Rh  Rh0  1  0.62500000  0.62500000  0.12500000  1
  Pb  Pb0  1  0.62500000  0.12500000  0.12500000  1
  Pb  Pb1  1  0.12500000  0.62500000  0.12500000  1
  Pb  Pb2  1  0.12500000  0.12500000  0.62500000  1
  Pb  Pb3  1  0.12500000  0.12500000  0.12500000  1
  O  O0  1  0.70609957  0.70609957  0.29530110  1
  O  O1  1  0.29416235  0.29416235  0.70505384  1
  O  O2  1  0.70662045  0.29416235  0.70505384  1
  O  O3  1  0.29249975  0.70609957  0.29530110  1
  O  O4  1  0.29416235  0.70662045  0.70505384  1
  O  O5  1  0.70609957  0.29249975  0.29530110  1
  O  O6  1  0.54390043  0.54390043  0.95469890  1
  O  O7  1  0.95583765  0.95583765  0.54494616  1
  O  O8  1  0.54337955  0.95583765  0.54494616  1
  O  O9  1  0.95750025  0.54390043  0.95469890  1
  O  O10  1  0.95583765  0.54337955  0.54494616  1
  O  O11  1  0.54390043  0.95750025  0.95469890  1
  O  O12  1  0.25004212  0.25004212  0.24987363  1
  O  O13  1  0.99995788  0.99995788  0.00012637  1
loop_
_geom_bond_atom_site_label_1
_geom_bond_atom_site_label_2
_geom_bond_distance
_geom_bond_site_symmetry_2
Ir0 O3 1.989763 1_555
Ir0 O9 1.989763 1_455
Ir0 O4 1.995593 1_555
Ir0 O10 1.995593 1_455
Ir0 O7 1.995599 1_455
Ir0 O1 1.995599 1_555
Ir1 O5 1.989763 1_555
Ir1 O11 1.989763 1_545
Ir1 O2 1.995593 1_555
Ir1 O8 1.995593 1_545
Ir1 O7 1.995599 1_545
Ir1 O1 1.995599 1_555
Ir2 O0 1.989763 1_555
Ir2 O6 1.989763 1_555
Ir2 O8 1.995600 1_555
Ir2 O2 1.995600 1_555
Ir2 O10 1.995600 1_555
Ir2 O4 1.995600 1_555
O0 Rh0 2.006456 1_555
O0 Pb0 2.510401 1_565
O0 Pb1 2.510401 1_655
O1 Pb2 2.507731 1_555
O1 Pb3 2.518956 1_556
O2 Pb2 2.507737 1_655
O2 Pb0 2.518956 1_556
O3 Rh0 2.006456 1_555
O3 Pb3 2.510401 1_565
O3 Pb1 2.510401 1_555
O4 Pb2 2.507736 1_565
O4 Pb1 2.518956 1_556
O5 Rh0 2.006456 1_555
O5 Pb0 2.510401 1_555
O5 Pb3 2.510401 1_655
O6 Rh0 2.006456 1_556
O6 Pb0 2.510401 1_556
O6 Pb1 2.510401 1_556
O7 Pb2 2.507731 1_665
O7 Pb3 2.518956 1_665
O8 Pb2 2.507737 1_565
O8 Pb0 2.518956 1_565
O9 Rh0 2.006456 1_556
O9 Pb3 2.510401 1_656
O9 Pb1 2.510401 1_656
O10 Pb2 2.507736 1_655
O10 Pb1 2.518956 1_655
O11 Rh0 2.006456 1_556
O11 Pb0 2.510401 1_566
O11 Pb3 2.510401 1_566
O12 Pb1 2.222619 1_555
O12 Pb3 2.222619 1_555
O12 Pb0 2.222620 1_555
O12 Pb2 2.226120 1_555
O13 Pb1 2.222619 1_655
O13 Pb3 2.222619 1_665
O13 Pb0 2.222620 1_565
O13 Pb2 2.226120 1_664
