# generated using pymatgen
data_LuCd3P6N13
_symmetry_space_group_name_H-M   'P 1'
_cell_length_a   7.19711962
_cell_length_b   7.23630806
_cell_length_c   7.23630792
_cell_angle_alpha   109.58066349
_cell_angle_beta   109.36156201
_cell_angle_gamma   109.36155754
_symmetry_Int_Tables_number   1
_chemical_formula_structural   LuCd3P6N13
_chemical_formula_sum   'Lu1 Cd3 P6 N13'
_cell_volume   290.50717174
_cell_formula_units_Z   1
loop_
 _symmetry_equiv_pos_site_id
 _symmetry_equiv_pos_as_xyz
  1  'x, y, z'
loop_
 _atom_site_type_symbol
 _atom_site_label
 _atom_site_symmetry_multiplicity
 _atom_site_fract_x
 _atom_site_fract_y
 _atom_site_fract_z
 _atom_site_occupancy
  Lu  Lu0  1  0.68203655  0.00000000  0.00000000  1
  Cd  Cd0  1  0.99951420  1.00000000  0.70867373  1
  Cd  Cd1  1  0.99951420  0.70867373  1.00000000  1
  Cd  Cd2  1  0.29084047  0.29132627  0.29132627  1
  P  P0  1  0.25050651  0.74912045  0.49804692  1
  P  P1  1  0.75245958  0.25107353  0.50195308  1
  P  P2  1  0.75245958  0.50195308  0.25107353  1
  P  P3  1  0.25050651  0.49804692  0.74912045  1
  P  P4  1  0.50138606  0.74892647  0.25087955  1
  P  P5  1  0.50138606  0.25087955  0.74892647  1
  N  N0  1  0.97774268  1.00000000  1.00000000  1
  N  N1  1  0.71875564  0.28192546  0.28192546  1
  N  N2  1  0.28095342  0.71570710  0.27937127  1
  N  N3  1  0.30199027  0.57615150  0.57615150  1
  N  N4  1  0.56524632  0.56366417  0.28429290  1
  N  N5  1  0.43683018  0.71807454  1.00000000  1
  N  N6  1  0.00158215  0.72062873  0.43633583  1
  N  N7  1  0.56524632  0.28429290  0.56366417  1
  N  N8  1  0.72583878  1.00000000  0.42384850  1
  N  N9  1  0.43683018  1.00000000  0.71807454  1
  N  N10  1  0.72583878  0.42384850  1.00000000  1
  N  N11  1  0.28095342  0.27937127  0.71570710  1
  N  N12  1  0.00158215  0.43633583  0.72062873  1
loop_
_geom_bond_atom_site_label_1
_geom_bond_atom_site_label_2
_geom_bond_distance
_geom_bond_site_symmetry_2
Lu0 N0 2.128232 1_544
Lu0 N9 2.211161 1_544
Lu0 N5 2.211161 1_544
Lu0 N1 2.211161 1_555
Cd0 N0 2.165127 1_555
Cd0 N11 2.310827 1_665
Cd0 N6 2.310827 1_655
Cd0 N8 2.331501 1_555
Cd1 N0 2.165127 1_555
Cd1 N2 2.310827 1_656
Cd1 N12 2.310827 1_655
Cd1 N10 2.331501 1_555
Cd2 N0 2.165127 1_444
Cd2 N7 2.310827 1_555
Cd2 N4 2.310827 1_555
Cd2 N3 2.331501 1_555
N1 P1 1.631509 1_555
N1 P2 1.631509 1_555
N2 P4 1.616924 1_555
N2 P0 1.618358 1_555
N3 P0 1.632849 1_555
N3 P3 1.632849 1_555
N4 P2 1.616924 1_555
N4 P4 1.618358 1_555
N5 P3 1.631509 1_555
N5 P4 1.631509 1_556
N6 P0 1.616924 1_555
N6 P2 1.618357 1_455
N7 P1 1.616924 1_555
N7 P5 1.618358 1_555
N8 P4 1.632849 1_555
N8 P1 1.632849 1_565
N9 P0 1.631509 1_555
N9 P5 1.631509 1_565
N10 P5 1.632849 1_555
N10 P2 1.632849 1_556
N11 P5 1.616924 1_555
N11 P3 1.618358 1_555
N12 P3 1.616924 1_555
N12 P1 1.618357 1_455
