# generated using pymatgen
data_Lu2Pd2Pb
_symmetry_space_group_name_H-M   'P 1'
_cell_length_a   7.12929908
_cell_length_b   15.42488074
_cell_length_c   15.42488074
_cell_angle_alpha   90.00000000
_cell_angle_beta   90.00000000
_cell_angle_gamma   90.00000000
_symmetry_Int_Tables_number   1
_chemical_formula_structural   Lu2Pd2Pb
_chemical_formula_sum   'Lu32 Pd32 Pb16'
_cell_volume   1696.25235611
_cell_formula_units_Z   16
loop_
 _symmetry_equiv_pos_site_id
 _symmetry_equiv_pos_as_xyz
  1  'x, y, z'
loop_
 _atom_site_type_symbol
 _atom_site_label
 _atom_site_symmetry_multiplicity
 _atom_site_fract_x
 _atom_site_fract_y
 _atom_site_fract_z
 _atom_site_occupancy
  Lu  Lu0_0  1  0.25000000  0.08464141  0.33464142  1
  Lu  Lu0_1  1  0.25000000  0.08464141  0.83464141  1
  Lu  Lu0_2  1  0.25000000  0.58464141  0.33464142  1
  Lu  Lu0_3  1  0.25000000  0.58464141  0.83464141  1
  Lu  Lu0_4  1  0.75000000  0.08464141  0.33464142  1
  Lu  Lu0_5  1  0.75000000  0.08464141  0.83464141  1
  Lu  Lu0_6  1  0.75000000  0.58464141  0.33464142  1
  Lu  Lu0_7  1  0.75000000  0.58464141  0.83464141  1
  Lu  Lu1_0  1  0.25000000  0.16535859  0.08464141  1
  Lu  Lu1_1  1  0.25000000  0.16535859  0.58464141  1
  Lu  Lu1_2  1  0.25000000  0.66535859  0.08464141  1
  Lu  Lu1_3  1  0.25000000  0.66535859  0.58464141  1
  Lu  Lu1_4  1  0.75000000  0.16535859  0.08464141  1
  Lu  Lu1_5  1  0.75000000  0.16535859  0.58464141  1
  Lu  Lu1_6  1  0.75000000  0.66535859  0.08464141  1
  Lu  Lu1_7  1  0.75000000  0.66535859  0.58464141  1
  Lu  Lu2_0  1  0.25000000  0.33464142  0.41535859  1
  Lu  Lu2_1  1  0.25000000  0.33464142  0.91535859  1
  Lu  Lu2_2  1  0.25000000  0.83464141  0.41535859  1
  Lu  Lu2_3  1  0.25000000  0.83464141  0.91535859  1
  Lu  Lu2_4  1  0.75000000  0.33464142  0.41535859  1
  Lu  Lu2_5  1  0.75000000  0.33464142  0.91535859  1
  Lu  Lu2_6  1  0.75000000  0.83464141  0.41535859  1
  Lu  Lu2_7  1  0.75000000  0.83464141  0.91535859  1
  Lu  Lu3_0  1  0.25000000  0.41535859  0.16535859  1
  Lu  Lu3_1  1  0.25000000  0.41535859  0.66535859  1
  Lu  Lu3_2  1  0.25000000  0.91535859  0.16535859  1
  Lu  Lu3_3  1  0.25000000  0.91535859  0.66535859  1
  Lu  Lu3_4  1  0.75000000  0.41535859  0.16535859  1
  Lu  Lu3_5  1  0.75000000  0.41535859  0.66535859  1
  Lu  Lu3_6  1  0.75000000  0.91535859  0.16535859  1
  Lu  Lu3_7  1  0.75000000  0.91535859  0.66535859  1
  Pd  Pd0_0  1  0.00000000  0.18680535  0.43680535  1
  Pd  Pd0_1  1  0.00000000  0.18680535  0.93680535  1
  Pd  Pd0_2  1  0.00000000  0.68680535  0.43680535  1
  Pd  Pd0_3  1  0.00000000  0.68680535  0.93680535  1
  Pd  Pd0_4  1  0.50000000  0.18680535  0.43680535  1
  Pd  Pd0_5  1  0.50000000  0.18680535  0.93680535  1
  Pd  Pd0_6  1  0.50000000  0.68680535  0.43680535  1
  Pd  Pd0_7  1  0.50000000  0.68680535  0.93680535  1
  Pd  Pd1_0  1  0.00000000  0.06319466  0.18680535  1
  Pd  Pd1_1  1  0.00000000  0.06319466  0.68680535  1
  Pd  Pd1_2  1  0.00000000  0.56319465  0.18680535  1
  Pd  Pd1_3  1  0.00000000  0.56319465  0.68680535  1
  Pd  Pd1_4  1  0.50000000  0.06319466  0.18680535  1
  Pd  Pd1_5  1  0.50000000  0.06319466  0.68680535  1
  Pd  Pd1_6  1  0.50000000  0.56319465  0.18680535  1
  Pd  Pd1_7  1  0.50000000  0.56319465  0.68680535  1
  Pd  Pd2_0  1  0.00000000  0.43680535  0.31319465  1
  Pd  Pd2_1  1  0.00000000  0.43680535  0.81319465  1
  Pd  Pd2_2  1  0.00000000  0.93680535  0.31319465  1
  Pd  Pd2_3  1  0.00000000  0.93680535  0.81319465  1
  Pd  Pd2_4  1  0.50000000  0.43680535  0.31319465  1
  Pd  Pd2_5  1  0.50000000  0.43680535  0.81319465  1
  Pd  Pd2_6  1  0.50000000  0.93680535  0.31319465  1
  Pd  Pd2_7  1  0.50000000  0.93680535  0.81319465  1
  Pd  Pd3_0  1  0.00000000  0.31319465  0.06319466  1
  Pd  Pd3_1  1  0.00000000  0.31319465  0.56319465  1
  Pd  Pd3_2  1  0.00000000  0.81319465  0.06319466  1
  Pd  Pd3_3  1  0.00000000  0.81319465  0.56319465  1
  Pd  Pd3_4  1  0.50000000  0.31319465  0.06319466  1
  Pd  Pd3_5  1  0.50000000  0.31319465  0.56319465  1
  Pd  Pd3_6  1  0.50000000  0.81319465  0.06319466  1
  Pd  Pd3_7  1  0.50000000  0.81319465  0.56319465  1
  Pb  Pb0_0  1  0.00000000  0.00000000  0.00000000  1
  Pb  Pb0_1  1  0.00000000  0.00000000  0.50000000  1
  Pb  Pb0_2  1  0.00000000  0.50000000  0.00000000  1
  Pb  Pb0_3  1  0.00000000  0.50000000  0.50000000  1
  Pb  Pb0_4  1  0.50000000  0.00000000  0.00000000  1
  Pb  Pb0_5  1  0.50000000  0.00000000  0.50000000  1
  Pb  Pb0_6  1  0.50000000  0.50000000  0.00000000  1
  Pb  Pb0_7  1  0.50000000  0.50000000  0.50000000  1
  Pb  Pb1_0  1  0.00000000  0.25000000  0.25000000  1
  Pb  Pb1_1  1  0.00000000  0.25000000  0.75000000  1
  Pb  Pb1_2  1  0.00000000  0.75000000  0.25000000  1
  Pb  Pb1_3  1  0.00000000  0.75000000  0.75000000  1
  Pb  Pb1_4  1  0.50000000  0.25000000  0.25000000  1
  Pb  Pb1_5  1  0.50000000  0.25000000  0.75000000  1
  Pb  Pb1_6  1  0.50000000  0.75000000  0.25000000  1
  Pb  Pb1_7  1  0.50000000  0.75000000  0.75000000  1
loop_
_geom_bond_atom_site_label_1
_geom_bond_atom_site_label_2
_geom_bond_distance
_geom_bond_site_symmetry_2
Lu0_0 Pd0_0 2.853663 1_555
Lu0_0 Pd0_4 2.853663 1_555
Lu0_0 Pd2_2 2.913097 1_545
Lu0_0 Pd2_6 2.913097 1_545
Lu0_0 Pd1_0 2.913097 1_555
Lu0_0 Pd1_4 2.913097 1_555
Lu0_0 Pb0_5 3.374459 1_555
Lu0_0 Pb0_1 3.374459 1_555
Lu0_0 Pb1_0 3.374459 1_555
Lu0_0 Pb1_4 3.374459 1_555
Lu0_1 Pd0_1 2.853663 1_555
Lu0_1 Pd0_5 2.853663 1_555
Lu0_1 Pd1_1 2.913097 1_555
Lu0_1 Pd1_5 2.913097 1_555
Lu0_1 Pd2_3 2.913097 1_545
Lu0_1 Pd2_7 2.913097 1_545
Lu0_1 Pb1_1 3.374459 1_555
Lu0_1 Pb1_5 3.374459 1_555
Lu0_1 Pb0_0 3.374459 1_556
Lu0_1 Pb0_4 3.374459 1_556
Lu0_2 Pd0_2 2.853663 1_555
Lu0_2 Pd0_6 2.853663 1_555
Lu0_2 Pd2_0 2.913097 1_555
Lu0_2 Pd2_4 2.913097 1_555
Lu0_2 Pd1_6 2.913097 1_555
Lu0_2 Pd1_2 2.913097 1_555
Lu0_2 Pb0_3 3.374459 1_555
Lu0_2 Pb0_7 3.374459 1_555
Lu0_2 Pb1_6 3.374459 1_555
Lu0_2 Pb1_2 3.374459 1_555
Lu0_3 Pd0_3 2.853663 1_555
Lu0_3 Pd0_7 2.853663 1_555
Lu0_3 Pd1_3 2.913097 1_555
Lu0_3 Pd1_7 2.913097 1_555
Lu0_3 Pd2_1 2.913097 1_555
Lu0_3 Pd2_5 2.913097 1_555
Lu0_3 Pb0_6 3.374459 1_556
Lu0_3 Pb0_2 3.374459 1_556
Lu0_3 Pb1_7 3.374459 1_555
Lu0_3 Pb1_3 3.374459 1_555
Lu0_4 Pd0_0 2.853663 1_655
Lu0_4 Pd0_4 2.853663 1_555
Lu0_4 Pd2_2 2.913097 1_645
Lu0_4 Pd1_0 2.913097 1_655
Lu0_4 Pd2_6 2.913097 1_545
Lu0_4 Pd1_4 2.913097 1_555
Lu0_4 Pb0_1 3.374459 1_655
Lu0_4 Pb1_0 3.374459 1_655
Lu0_4 Pb0_5 3.374459 1_555
Lu0_4 Pb1_4 3.374459 1_555
Lu0_5 Pd0_1 2.853663 1_655
Lu0_5 Pd0_5 2.853663 1_555
Lu0_5 Pd1_1 2.913097 1_655
Lu0_5 Pd1_5 2.913097 1_555
Lu0_5 Pd2_3 2.913097 1_645
Lu0_5 Pd2_7 2.913097 1_545
Lu0_5 Pb1_1 3.374459 1_655
Lu0_5 Pb1_5 3.374459 1_555
Lu0_5 Pb0_0 3.374459 1_656
Lu0_5 Pb0_4 3.374459 1_556
Lu0_6 Pd0_2 2.853663 1_655
Lu0_6 Pd0_6 2.853663 1_555
Lu0_6 Pd2_0 2.913097 1_655
Lu0_6 Pd1_2 2.913097 1_655
Lu0_6 Pd2_4 2.913097 1_555
Lu0_6 Pd1_6 2.913097 1_555
Lu0_6 Pb0_3 3.374459 1_655
Lu0_6 Pb0_7 3.374459 1_555
Lu0_6 Pb1_2 3.374459 1_655
Lu0_6 Pb1_6 3.374459 1_555
Lu0_7 Pd0_3 2.853663 1_655
Lu0_7 Pd0_7 2.853663 1_555
Lu0_7 Pd1_3 2.913097 1_655
Lu0_7 Pd1_7 2.913097 1_555
Lu0_7 Pd2_1 2.913097 1_655
Lu0_7 Pd2_5 2.913097 1_555
Lu0_7 Pb0_2 3.374459 1_656
Lu0_7 Pb1_3 3.374459 1_655
Lu0_7 Pb0_6 3.374459 1_556
Lu0_7 Pb1_7 3.374459 1_555
Lu1_0 Pd1_4 2.853663 1_555
Lu1_0 Pd1_0 2.853663 1_555
Lu1_0 Pd0_5 2.913097 1_554
Lu1_0 Pd3_4 2.913097 1_555
Lu1_0 Pd0_1 2.913097 1_554
Lu1_0 Pd3_0 2.913097 1_555
Lu1_0 Pb1_0 3.374459 1_555
Lu1_0 Pb1_4 3.374459 1_555
Lu1_0 Pb0_0 3.374459 1_555
Lu1_0 Pb0_4 3.374459 1_555
Lu1_1 Pd1_1 2.853663 1_555
Lu1_1 Pd1_5 2.853663 1_555
Lu1_1 Pd3_1 2.913097 1_555
Lu1_1 Pd0_0 2.913097 1_555
Lu1_1 Pd3_5 2.913097 1_555
Lu1_1 Pd0_4 2.913097 1_555
Lu1_1 Pb0_1 3.374459 1_555
Lu1_1 Pb0_5 3.374459 1_555
Lu1_1 Pb1_1 3.374459 1_555
Lu1_1 Pb1_5 3.374459 1_555
Lu1_2 Pd1_6 2.853663 1_555
Lu1_2 Pd1_2 2.853663 1_555
Lu1_2 Pd3_2 2.913097 1_555
Lu1_2 Pd3_6 2.913097 1_555
Lu1_2 Pd0_3 2.913097 1_554
Lu1_2 Pd0_7 2.913097 1_554
Lu1_2 Pb0_2 3.374459 1_555
Lu1_2 Pb0_6 3.374459 1_555
Lu1_2 Pb1_6 3.374459 1_555
Lu1_2 Pb1_2 3.374459 1_555
Lu1_3 Pd1_7 2.853663 1_555
Lu1_3 Pd1_3 2.853663 1_555
Lu1_3 Pd3_3 2.913097 1_555
Lu1_3 Pd3_7 2.913097 1_555
Lu1_3 Pd0_2 2.913097 1_555
Lu1_3 Pd0_6 2.913097 1_555
Lu1_3 Pb0_7 3.374459 1_555
Lu1_3 Pb0_3 3.374459 1_555
Lu1_3 Pb1_7 3.374459 1_555
Lu1_3 Pb1_3 3.374459 1_555
Lu1_4 Pd1_0 2.853663 1_655
Lu1_4 Pd1_4 2.853663 1_555
Lu1_4 Pd3_0 2.913097 1_655
Lu1_4 Pd0_1 2.913097 1_654
Lu1_4 Pd0_5 2.913097 1_554
Lu1_4 Pd3_4 2.913097 1_555
Lu1_4 Pb0_0 3.374459 1_655
Lu1_4 Pb1_0 3.374459 1_655
Lu1_4 Pb0_4 3.374459 1_555
Lu1_4 Pb1_4 3.374459 1_555
Lu1_5 Pd1_1 2.853663 1_655
Lu1_5 Pd1_5 2.853663 1_555
Lu1_5 Pd0_0 2.913097 1_655
Lu1_5 Pd3_1 2.913097 1_655
Lu1_5 Pd3_5 2.913097 1_555
Lu1_5 Pd0_4 2.913097 1_555
Lu1_5 Pb0_1 3.374459 1_655
Lu1_5 Pb1_1 3.374459 1_655
Lu1_5 Pb0_5 3.374459 1_555
Lu1_5 Pb1_5 3.374459 1_555
Lu1_6 Pd1_2 2.853663 1_655
Lu1_6 Pd1_6 2.853663 1_555
Lu1_6 Pd0_3 2.913097 1_654
Lu1_6 Pd3_2 2.913097 1_655
Lu1_6 Pd3_6 2.913097 1_555
Lu1_6 Pd0_7 2.913097 1_554
Lu1_6 Pb0_2 3.374459 1_655
Lu1_6 Pb1_2 3.374459 1_655
Lu1_6 Pb0_6 3.374459 1_555
Lu1_6 Pb1_6 3.374459 1_555
Lu1_7 Pd1_3 2.853663 1_655
Lu1_7 Pd1_7 2.853663 1_555
Lu1_7 Pd0_2 2.913097 1_655
Lu1_7 Pd3_3 2.913097 1_655
Lu1_7 Pd0_6 2.913097 1_555
Lu1_7 Pd3_7 2.913097 1_555
Lu1_7 Pb0_3 3.374459 1_655
Lu1_7 Pb0_7 3.374459 1_555
Lu1_7 Pb1_3 3.374459 1_655
Lu1_7 Pb1_7 3.374459 1_555
Lu2_0 Pd2_0 2.853663 1_555
Lu2_0 Pd2_4 2.853663 1_555
Lu2_0 Pd3_5 2.913097 1_555
Lu2_0 Pd3_1 2.913097 1_555
Lu2_0 Pd0_4 2.913097 1_555
Lu2_0 Pd0_0 2.913097 1_555
Lu2_0 Pb0_3 3.374459 1_555
Lu2_0 Pb0_7 3.374459 1_555
Lu2_0 Pb1_0 3.374459 1_555
Lu2_0 Pb1_4 3.374459 1_555
Lu2_1 Pd2_1 2.853663 1_555
Lu2_1 Pd2_5 2.853663 1_555
Lu2_1 Pd3_0 2.913097 1_556
Lu2_1 Pd3_4 2.913097 1_556
Lu2_1 Pd0_1 2.913097 1_555
Lu2_1 Pd0_5 2.913097 1_555
Lu2_1 Pb1_1 3.374459 1_555
Lu2_1 Pb1_5 3.374459 1_555
Lu2_1 Pb0_6 3.374459 1_556
Lu2_1 Pb0_2 3.374459 1_556
Lu2_2 Pd2_2 2.853663 1_555
Lu2_2 Pd2_6 2.853663 1_555
Lu2_2 Pd0_2 2.913097 1_555
Lu2_2 Pd0_6 2.913097 1_555
Lu2_2 Pd3_7 2.913097 1_555
Lu2_2 Pd3_3 2.913097 1_555
Lu2_2 Pb0_1 3.374459 1_565
Lu2_2 Pb0_5 3.374459 1_565
Lu2_2 Pb1_2 3.374459 1_555
Lu2_2 Pb1_6 3.374459 1_555
Lu2_3 Pd2_3 2.853663 1_555
Lu2_3 Pd2_7 2.853663 1_555
Lu2_3 Pd0_7 2.913097 1_555
Lu2_3 Pd0_3 2.913097 1_555
Lu2_3 Pd3_2 2.913097 1_556
Lu2_3 Pd3_6 2.913097 1_556
Lu2_3 Pb1_7 3.374459 1_555
Lu2_3 Pb1_3 3.374459 1_555
Lu2_3 Pb0_0 3.374459 1_566
Lu2_3 Pb0_4 3.374459 1_566
Lu2_4 Pd2_0 2.853663 1_655
Lu2_4 Pd2_4 2.853663 1_555
Lu2_4 Pd3_1 2.913097 1_655
Lu2_4 Pd0_0 2.913097 1_655
Lu2_4 Pd3_5 2.913097 1_555
Lu2_4 Pd0_4 2.913097 1_555
Lu2_4 Pb0_3 3.374459 1_655
Lu2_4 Pb0_7 3.374459 1_555
Lu2_4 Pb1_0 3.374459 1_655
Lu2_4 Pb1_4 3.374459 1_555
Lu2_5 Pd2_1 2.853663 1_655
Lu2_5 Pd2_5 2.853663 1_555
Lu2_5 Pd0_1 2.913097 1_655
Lu2_5 Pd3_0 2.913097 1_656
Lu2_5 Pd3_4 2.913097 1_556
Lu2_5 Pd0_5 2.913097 1_555
Lu2_5 Pb1_1 3.374459 1_655
Lu2_5 Pb0_2 3.374459 1_656
Lu2_5 Pb1_5 3.374459 1_555
Lu2_5 Pb0_6 3.374459 1_556
Lu2_6 Pd2_2 2.853663 1_655
Lu2_6 Pd2_6 2.853663 1_555
Lu2_6 Pd0_2 2.913097 1_655
Lu2_6 Pd3_3 2.913097 1_655
Lu2_6 Pd0_6 2.913097 1_555
Lu2_6 Pd3_7 2.913097 1_555
Lu2_6 Pb0_1 3.374459 1_665
Lu2_6 Pb1_2 3.374459 1_655
Lu2_6 Pb0_5 3.374459 1_565
Lu2_6 Pb1_6 3.374459 1_555
Lu2_7 Pd2_3 2.853663 1_655
Lu2_7 Pd2_7 2.853663 1_555
Lu2_7 Pd0_3 2.913097 1_655
Lu2_7 Pd0_7 2.913097 1_555
Lu2_7 Pd3_2 2.913097 1_656
Lu2_7 Pd3_6 2.913097 1_556
Lu2_7 Pb1_3 3.374459 1_655
Lu2_7 Pb1_7 3.374459 1_555
Lu2_7 Pb0_0 3.374459 1_666
Lu2_7 Pb0_4 3.374459 1_566
Lu3_0 Pd3_0 2.853663 1_555
Lu3_0 Pd3_4 2.853663 1_555
Lu3_0 Pd1_6 2.913097 1_555
Lu3_0 Pd1_2 2.913097 1_555
Lu3_0 Pd2_0 2.913097 1_555
Lu3_0 Pd2_4 2.913097 1_555
Lu3_0 Pb0_6 3.374459 1_555
Lu3_0 Pb0_2 3.374459 1_555
Lu3_0 Pb1_0 3.374459 1_555
Lu3_0 Pb1_4 3.374459 1_555
Lu3_1 Pd3_5 2.853663 1_555
Lu3_1 Pd3_1 2.853663 1_555
Lu3_1 Pd1_3 2.913097 1_555
Lu3_1 Pd1_7 2.913097 1_555
Lu3_1 Pd2_1 2.913097 1_555
Lu3_1 Pd2_5 2.913097 1_555
Lu3_1 Pb0_7 3.374459 1_555
Lu3_1 Pb0_3 3.374459 1_555
Lu3_1 Pb1_1 3.374459 1_555
Lu3_1 Pb1_5 3.374459 1_555
Lu3_2 Pd3_2 2.853663 1_555
Lu3_2 Pd3_6 2.853663 1_555
Lu3_2 Pd1_0 2.913097 1_565
Lu3_2 Pd2_2 2.913097 1_555
Lu3_2 Pd2_6 2.913097 1_555
Lu3_2 Pd1_4 2.913097 1_565
Lu3_2 Pb1_2 3.374459 1_555
Lu3_2 Pb1_6 3.374459 1_555
Lu3_2 Pb0_0 3.374459 1_565
Lu3_2 Pb0_4 3.374459 1_565
Lu3_3 Pd3_3 2.853663 1_555
Lu3_3 Pd3_7 2.853663 1_555
Lu3_3 Pd2_3 2.913097 1_555
Lu3_3 Pd2_7 2.913097 1_555
Lu3_3 Pd1_1 2.913097 1_565
Lu3_3 Pd1_5 2.913097 1_565
Lu3_3 Pb1_7 3.374459 1_555
Lu3_3 Pb1_3 3.374459 1_555
Lu3_3 Pb0_1 3.374459 1_565
Lu3_3 Pb0_5 3.374459 1_565
Lu3_4 Pd3_0 2.853663 1_655
Lu3_4 Pd3_4 2.853663 1_555
Lu3_4 Pd1_2 2.913097 1_655
Lu3_4 Pd2_0 2.913097 1_655
Lu3_4 Pd1_6 2.913097 1_555
Lu3_4 Pd2_4 2.913097 1_555
Lu3_4 Pb0_2 3.374459 1_655
Lu3_4 Pb1_0 3.374459 1_655
Lu3_4 Pb0_6 3.374459 1_555
Lu3_4 Pb1_4 3.374459 1_555
Lu3_5 Pd3_1 2.853663 1_655
Lu3_5 Pd3_5 2.853663 1_555
Lu3_5 Pd1_3 2.913097 1_655
Lu3_5 Pd2_1 2.913097 1_655
Lu3_5 Pd1_7 2.913097 1_555
Lu3_5 Pd2_5 2.913097 1_555
Lu3_5 Pb0_3 3.374459 1_655
Lu3_5 Pb0_7 3.374459 1_555
Lu3_5 Pb1_1 3.374459 1_655
Lu3_5 Pb1_5 3.374459 1_555
Lu3_6 Pd3_2 2.853663 1_655
Lu3_6 Pd3_6 2.853663 1_555
Lu3_6 Pd1_0 2.913097 1_665
Lu3_6 Pd2_2 2.913097 1_655
Lu3_6 Pd2_6 2.913097 1_555
Lu3_6 Pd1_4 2.913097 1_565
Lu3_6 Pb1_2 3.374459 1_655
Lu3_6 Pb0_0 3.374459 1_665
Lu3_6 Pb1_6 3.374459 1_555
Lu3_6 Pb0_4 3.374459 1_565
Lu3_7 Pd3_3 2.853663 1_655
Lu3_7 Pd3_7 2.853663 1_555
Lu3_7 Pd1_1 2.913097 1_665
Lu3_7 Pd2_3 2.913097 1_655
Lu3_7 Pd2_7 2.913097 1_555
Lu3_7 Pd1_5 2.913097 1_565
Lu3_7 Pb1_3 3.374459 1_655
Lu3_7 Pb0_1 3.374459 1_665
Lu3_7 Pb1_7 3.374459 1_555
Lu3_7 Pb0_5 3.374459 1_565
Pd0_0 Pd3_1 2.757066 1_555
Pd0_1 Pd3_0 2.757066 1_556
Pd0_2 Pd3_3 2.757066 1_555
Pd0_3 Pd3_2 2.757066 1_556
Pd0_4 Pd3_5 2.757066 1_555
Pd0_5 Pd3_4 2.757066 1_556
Pd0_6 Pd3_7 2.757066 1_555
Pd0_7 Pd3_6 2.757066 1_556
Pd1_0 Pd2_2 2.757066 1_545
Pd1_1 Pd2_3 2.757066 1_545
Pd1_2 Pd2_0 2.757066 1_555
Pd1_3 Pd2_1 2.757066 1_555
Pd1_4 Pd2_6 2.757066 1_545
Pd1_5 Pd2_7 2.757066 1_545
Pd1_6 Pd2_4 2.757066 1_555
Pd1_7 Pd2_5 2.757066 1_555
Pb0_0 Pd3_2 3.041863 1_545
Pb0_0 Pd2_3 3.041863 1_544
Pb0_0 Pd0_1 3.041863 1_554
Pb0_0 Pd1_0 3.041863 1_555
Pb0_0 Pb0_4 3.564650 1_455
Pb0_0 Pb0_4 3.564650 1_555
Pb0_1 Pd2_2 3.041863 1_545
Pb0_1 Pd3_3 3.041863 1_545
Pb0_1 Pd0_0 3.041863 1_555
Pb0_1 Pd1_1 3.041863 1_555
Pb0_1 Pb0_5 3.564650 1_455
Pb0_1 Pb0_5 3.564650 1_555
Pb0_2 Pd3_0 3.041863 1_555
Pb0_2 Pd2_1 3.041863 1_554
Pb0_2 Pd1_2 3.041863 1_555
Pb0_2 Pd0_3 3.041863 1_554
Pb0_2 Pb0_6 3.564650 1_555
Pb0_2 Pb0_6 3.564650 1_455
Pb0_3 Pd3_1 3.041863 1_555
Pb0_3 Pd2_0 3.041863 1_555
Pb0_3 Pd1_3 3.041863 1_555
Pb0_3 Pd0_2 3.041863 1_555
Pb0_3 Pb0_7 3.564650 1_455
Pb0_3 Pb0_7 3.564650 1_555
Pb0_4 Pd2_7 3.041863 1_544
Pb0_4 Pd3_6 3.041863 1_545
Pb0_4 Pd0_5 3.041863 1_554
Pb0_4 Pd1_4 3.041863 1_555
Pb0_5 Pd2_6 3.041863 1_545
Pb0_5 Pd3_7 3.041863 1_545
Pb0_5 Pd0_4 3.041863 1_555
Pb0_5 Pd1_5 3.041863 1_555
Pb0_6 Pd3_4 3.041863 1_555
Pb0_6 Pd2_5 3.041863 1_554
Pb0_6 Pd1_6 3.041863 1_555
Pb0_6 Pd0_7 3.041863 1_554
Pb0_7 Pd3_5 3.041863 1_555
Pb0_7 Pd2_4 3.041863 1_555
Pb0_7 Pd1_7 3.041863 1_555
Pb0_7 Pd0_6 3.041863 1_555
Pb1_0 Pd1_0 3.041863 1_555
Pb1_0 Pd3_0 3.041863 1_555
Pb1_0 Pd0_0 3.041863 1_555
Pb1_0 Pd2_0 3.041863 1_555
Pb1_0 Pb1_4 3.564650 1_455
Pb1_0 Pb1_4 3.564650 1_555
Pb1_1 Pd0_1 3.041863 1_555
Pb1_1 Pd2_1 3.041863 1_555
Pb1_1 Pd1_1 3.041863 1_555
Pb1_1 Pd3_1 3.041863 1_555
Pb1_1 Pb1_5 3.564650 1_555
Pb1_1 Pb1_5 3.564650 1_455
Pb1_2 Pd2_2 3.041863 1_555
Pb1_2 Pd3_2 3.041863 1_555
Pb1_2 Pd0_2 3.041863 1_555
Pb1_2 Pd1_2 3.041863 1_555
Pb1_2 Pb1_6 3.564650 1_555
Pb1_2 Pb1_6 3.564650 1_455
Pb1_3 Pd2_3 3.041863 1_555
Pb1_3 Pd0_3 3.041863 1_555
Pb1_3 Pd3_3 3.041863 1_555
Pb1_3 Pd1_3 3.041863 1_555
Pb1_3 Pb1_7 3.564650 1_455
Pb1_3 Pb1_7 3.564650 1_555
Pb1_4 Pd1_4 3.041863 1_555
Pb1_4 Pd3_4 3.041863 1_555
Pb1_4 Pd0_4 3.041863 1_555
Pb1_4 Pd2_4 3.041863 1_555
Pb1_5 Pd0_5 3.041863 1_555
Pb1_5 Pd2_5 3.041863 1_555
Pb1_5 Pd1_5 3.041863 1_555
Pb1_5 Pd3_5 3.041863 1_555
Pb1_6 Pd2_6 3.041863 1_555
Pb1_6 Pd3_6 3.041863 1_555
Pb1_6 Pd0_6 3.041863 1_555
Pb1_6 Pd1_6 3.041863 1_555
Pb1_7 Pd2_7 3.041863 1_555
Pb1_7 Pd0_7 3.041863 1_555
Pb1_7 Pd3_7 3.041863 1_555
Pb1_7 Pd1_7 3.041863 1_555
