# generated using pymatgen
data_NaBO2
_symmetry_space_group_name_H-M   'P 1'
_cell_length_a   7.15149796
_cell_length_b   7.15149489
_cell_length_c   7.15149293
_cell_angle_alpha   111.72876805
_cell_angle_beta   111.72875027
_cell_angle_gamma   111.72874386
_symmetry_Int_Tables_number   1
_chemical_formula_structural   NaBO2
_chemical_formula_sum   'Na6 B6 O12'
_cell_volume   255.33435095
_cell_formula_units_Z   6
loop_
 _symmetry_equiv_pos_site_id
 _symmetry_equiv_pos_as_xyz
  1  'x, y, z'
loop_
 _atom_site_type_symbol
 _atom_site_label
 _atom_site_symmetry_multiplicity
 _atom_site_fract_x
 _atom_site_fract_y
 _atom_site_fract_z
 _atom_site_occupancy
  Na  Na0  1  0.81321781  0.24999987  0.68678213  1
  Na  Na1  1  0.68678186  0.81321756  0.24999970  1
  Na  Na2  1  0.25000030  0.68678423  0.81321663  1
  Na  Na3  1  0.18678272  0.75000033  0.31321811  1
  Na  Na4  1  0.31321634  0.18678345  0.74999990  1
  Na  Na5  1  0.75000015  0.31321763  0.18678254  1
  B  B0  1  0.87178571  0.74999984  0.62821434  1
  B  B1  1  0.12821423  0.24999971  0.37178543  1
  B  B2  1  0.37178591  0.12821407  0.25000023  1
  B  B3  1  0.25000012  0.37178597  0.12821430  1
  B  B4  1  0.62821458  0.87178509  0.75000003  1
  B  B5  1  0.75000025  0.62821486  0.87178554  1
  O  O0  1  0.74999971  0.86683270  0.63316701  1
  O  O1  1  0.86683319  0.63316686  0.75000017  1
  O  O2  1  0.36683289  0.24999989  0.13316712  1
  O  O3  1  0.63316706  0.74999996  0.86683299  1
  O  O4  1  0.24999985  0.13316670  0.36683298  1
  O  O5  1  0.13316717  0.36683317  0.25000017  1
  O  O6  1  0.75000079  0.51774661  0.98225480  1
  O  O7  1  0.51774579  0.98225416  0.75000017  1
  O  O8  1  0.98225314  0.74999938  0.51774586  1
  O  O9  1  0.25000048  0.48225439  0.01774604  1
  O  O10  1  0.48225434  0.01774581  0.24999996  1
  O  O11  1  0.01774562  0.24999973  0.48225387  1
loop_
_geom_bond_atom_site_label_1
_geom_bond_atom_site_label_2
_geom_bond_distance
_geom_bond_site_symmetry_2
Na0 O11 2.421357 1_655
Na0 O10 2.427249 1_555
Na0 O9 2.427253 1_656
Na0 O1 2.456952 1_555
Na0 O0 2.456954 1_545
Na0 O6 2.586184 1_555
Na0 O7 2.586185 1_545
Na1 O10 2.421355 1_565
Na1 O9 2.427246 1_555
Na1 O11 2.427250 1_665
Na1 O3 2.456952 1_554
Na1 O0 2.456955 1_555
Na1 O6 2.586181 1_554
Na1 O8 2.586184 1_555
Na2 O9 2.421375 1_556
Na2 O10 2.427250 1_566
Na2 O11 2.427258 1_555
Na2 O1 2.456953 1_455
Na2 O3 2.456954 1_555
Na2 O7 2.586166 1_555
Na2 O8 2.586169 1_455
Na3 O8 2.421364 1_455
Na3 O7 2.427248 1_555
Na3 O6 2.427249 1_454
Na3 O4 2.456951 1_565
Na3 O5 2.456953 1_555
Na3 O10 2.586183 1_565
Na3 O9 2.586183 1_555
Na4 O7 2.421373 1_545
Na4 O8 2.427258 1_445
Na4 O6 2.427260 1_555
Na4 O4 2.456951 1_555
Na4 O2 2.456953 1_556
Na4 O9 2.586169 1_556
Na4 O11 2.586171 1_555
Na5 O6 2.421360 1_554
Na5 O8 2.427247 1_555
Na5 O7 2.427249 1_544
Na5 O5 2.456954 1_655
Na5 O2 2.456956 1_555
Na5 O11 2.586180 1_655
Na5 O10 2.586181 1_555
B0 O8 1.307803 1_555
B0 O1 1.413387 1_555
B0 O0 1.413387 1_555
B1 O11 1.307809 1_555
B1 O4 1.413386 1_555
B1 O5 1.413386 1_555
B2 O10 1.307807 1_555
B2 O4 1.413387 1_555
B2 O2 1.413387 1_555
B3 O9 1.307807 1_555
B3 O5 1.413387 1_555
B3 O2 1.413387 1_555
B4 O7 1.307814 1_555
B4 O3 1.413382 1_555
B4 O0 1.413383 1_555
B5 O6 1.307812 1_555
B5 O1 1.413384 1_555
B5 O3 1.413384 1_555
