# generated using pymatgen
data_LiZrScIr
_symmetry_space_group_name_H-M   'P 1'
_cell_length_a   4.63394491
_cell_length_b   4.63394513
_cell_length_c   4.63394481
_cell_angle_alpha   60.00000230
_cell_angle_beta   60.00000070
_cell_angle_gamma   60.00000615
_symmetry_Int_Tables_number   1
_chemical_formula_structural   LiZrScIr
_chemical_formula_sum   'Li1 Zr1 Sc1 Ir1'
_cell_volume   70.36191361
_cell_formula_units_Z   1
loop_
 _symmetry_equiv_pos_site_id
 _symmetry_equiv_pos_as_xyz
  1  'x, y, z'
loop_
 _atom_site_type_symbol
 _atom_site_label
 _atom_site_symmetry_multiplicity
 _atom_site_fract_x
 _atom_site_fract_y
 _atom_site_fract_z
 _atom_site_occupancy
  Li  Li0  1  0.00000000  0.00000000  0.00000000  1
  Zr  Zr0  1  0.75000000  0.75000000  0.75000000  1
  Sc  Sc0  1  0.25000000  0.25000000  0.25000000  1
  Ir  Ir0  1  0.50000000  0.50000000  0.50000000  1
loop_
_geom_bond_atom_site_label_1
_geom_bond_atom_site_label_2
_geom_bond_distance
_geom_bond_site_symmetry_2
Li0 Sc0 2.837700 1_555
Li0 Zr0 2.837700 1_444
Li0 Zr0 2.837700 1_445
Li0 Sc0 2.837700 1_554
Li0 Zr0 2.837700 1_544
Li0 Sc0 2.837700 1_455
Li0 Sc0 2.837700 1_545
Li0 Zr0 2.837700 1_454
Ir0 Sc0 2.837700 1_555
Ir0 Zr0 2.837700 1_555
Ir0 Sc0 2.837700 1_556
Ir0 Zr0 2.837700 1_554
Ir0 Zr0 2.837700 1_455
Ir0 Sc0 2.837700 1_655
Ir0 Sc0 2.837700 1_565
Ir0 Zr0 2.837700 1_545
Ir0 Li0 3.276694 1_556
Ir0 Li0 3.276694 1_665
Ir0 Li0 3.276694 1_566
Ir0 Li0 3.276694 1_565
Ir0 Li0 3.276694 1_656
Ir0 Li0 3.276694 1_655
