# generated using pymatgen
data_KTc2Mo4Se7
_symmetry_space_group_name_H-M   'P 1'
_cell_length_a   9.85728203
_cell_length_b   9.85112565
_cell_length_c   9.85768407
_cell_angle_alpha   60.00542741
_cell_angle_beta   60.00828383
_cell_angle_gamma   60.12277631
_symmetry_Int_Tables_number   1
_chemical_formula_structural   KTc2Mo4Se7
_chemical_formula_sum   'K2 Tc4 Mo8 Se14'
_cell_volume   677.56251428
_cell_formula_units_Z   2
loop_
 _symmetry_equiv_pos_site_id
 _symmetry_equiv_pos_as_xyz
  1  'x, y, z'
loop_
 _atom_site_type_symbol
 _atom_site_label
 _atom_site_symmetry_multiplicity
 _atom_site_fract_x
 _atom_site_fract_y
 _atom_site_fract_z
 _atom_site_occupancy
  K  K0  1  0.12594507  0.12912794  0.13207384  1
  K  K1  1  0.87449654  0.87623476  0.87308152  1
  Tc  Tc0  1  0.61272350  0.30444613  0.44178990  1
  Tc  Tc1  1  0.30544206  0.44164696  0.61190311  1
  Tc  Tc2  1  0.44178851  0.61191909  0.30569065  1
  Tc  Tc3  1  0.38651638  0.69682697  0.55824549  1
  Mo  Mo0  1  0.69715578  0.55883420  0.38617550  1
  Mo  Mo1  1  0.55828489  0.38609533  0.69685149  1
  Mo  Mo2  1  0.37665731  0.20340272  0.50544240  1
  Mo  Mo3  1  0.20459216  0.50550985  0.37614287  1
  Mo  Mo4  1  0.50650344  0.37572747  0.20396497  1
  Mo  Mo5  1  0.62402837  0.79612182  0.49443924  1
  Mo  Mo6  1  0.79709894  0.49435215  0.62320094  1
  Mo  Mo7  1  0.49487873  0.62286098  0.79621254  1
  Se  Se0  1  0.66957665  0.30898153  0.91974416  1
  Se  Se1  1  0.08401831  0.32890125  0.69159049  1
  Se  Se2  1  0.27740162  0.27846106  0.27700449  1
  Se  Se3  1  0.72237361  0.72336094  0.72274533  1
  Se  Se4  1  0.85837391  0.24915646  0.52110279  1
  Se  Se5  1  0.24941393  0.52728371  0.85356403  1
  Se  Se6  1  0.51613892  0.85848965  0.25480248  1
  Se  Se7  1  0.14672183  0.74181849  0.47765672  1
  Se  Se8  1  0.74121679  0.47627422  0.14396477  1
  Se  Se9  1  0.47430315  0.14371937  0.74159213  1
  Se  Se10  1  0.33232111  0.69025315  0.08265692  1
  Se  Se11  1  0.69199747  0.08209737  0.33043392  1
  Se  Se12  1  0.92019607  0.67118626  0.30865816  1
  Se  Se13  1  0.30983593  0.91690715  0.66926714  1
loop_
_geom_bond_atom_site_label_1
_geom_bond_atom_site_label_2
_geom_bond_distance
_geom_bond_site_symmetry_2
K0 Se2 3.585538 1_555
K0 Se8 3.623009 1_455
K0 Se7 3.623262 1_545
K0 Se9 3.654155 1_554
K0 Se4 3.791540 1_455
K0 Se6 3.817869 1_545
K0 Se11 3.878412 1_455
K0 Se5 3.879663 1_554
K0 Se1 3.916362 1_554
K0 Se10 3.926845 1_545
K1 Se4 3.575638 1_565
K1 Se5 3.578450 1_655
K1 Se6 3.651939 1_556
K1 Se3 3.662750 1_555
K1 Se13 3.860136 1_655
K1 Se0 3.862365 1_565
K1 Se12 3.882659 1_556
K1 Se7 3.913008 1_655
K1 Se8 3.938402 1_556
K1 Se9 3.940299 1_565
Tc0 Tc1 2.631126 1_555
Tc0 Tc2 2.631702 1_555
Tc1 Tc2 2.619017 1_555
Tc1 Tc3 2.736267 1_555
Tc2 Tc3 2.732501 1_555
Mo0 Se12 2.557683 1_555
Mo0 Se6 2.610593 1_555
Mo0 Se4 2.612922 1_555
Mo0 Mo6 2.650895 1_555
Mo0 Tc3 2.658390 1_555
Mo0 Mo1 2.658506 1_555
Mo0 Se8 2.665298 1_555
Mo0 Mo5 2.677532 1_555
Mo0 Tc2 2.740386 1_555
Mo0 Tc0 2.742526 1_555
Mo1 Se0 2.553225 1_555
Mo1 Se4 2.609414 1_555
Mo1 Se5 2.611103 1_555
Mo1 Mo7 2.647618 1_555
Mo1 Tc3 2.659180 1_555
Mo1 Se9 2.670612 1_555
Mo1 Mo6 2.687818 1_555
Mo1 Tc1 2.735322 1_555
Mo1 Tc0 2.738581 1_555
Mo2 Se2 2.528245 1_555
Mo2 Se1 2.576813 1_555
Mo2 Mo4 2.582586 1_555
Mo2 Mo3 2.588064 1_555
Mo2 Se9 2.645566 1_555
Mo2 Tc0 2.650048 1_555
Mo2 Se11 2.658139 1_555
Mo2 Tc1 2.680881 1_555
Mo2 Se13 2.690504 1_545
Mo3 Se2 2.521486 1_555
Mo3 Se10 2.577639 1_555
Mo3 Mo4 2.588640 1_555
Mo3 Tc1 2.647652 1_555
Mo3 Se1 2.658018 1_555
Mo3 Tc2 2.671789 1_555
Mo3 Se7 2.679807 1_555
Mo3 Se12 2.680615 1_455
Mo4 Se2 2.525276 1_555
Mo4 Se11 2.582368 1_555
Mo4 Se8 2.648232 1_555
Mo4 Se10 2.650697 1_555
Mo4 Tc2 2.653458 1_555
Mo4 Se0 2.674403 1_554
Mo4 Tc0 2.676042 1_555
Mo5 Se3 2.528760 1_555
Mo5 Mo7 2.585605 1_555
Mo5 Mo6 2.588122 1_555
Mo5 Se12 2.592356 1_555
Mo5 Se13 2.649621 1_555
Mo5 Tc3 2.651035 1_555
Mo5 Se11 2.691263 1_565
Mo5 Se6 2.738307 1_555
Mo6 Se3 2.535781 1_555
Mo6 Mo7 2.589992 1_555
Mo6 Se0 2.595396 1_555
Mo6 Se12 2.658019 1_555
Mo6 Se1 2.706472 1_655
Mo6 Se4 2.753460 1_555
Mo7 Se3 2.530763 1_555
Mo7 Se13 2.584089 1_555
Mo7 Se0 2.652557 1_555
Mo7 Tc3 2.682414 1_555
Mo7 Se10 2.696758 1_556
Mo7 Se5 2.725907 1_555
Se1 Tc1 2.538369 1_555
Se4 Tc0 2.631406 1_555
Se5 Tc3 2.558302 1_555
Se5 Tc1 2.630874 1_555
Se6 Tc3 2.561188 1_555
Se6 Tc2 2.622318 1_555
Se7 Tc1 2.547793 1_555
Se7 Tc2 2.549968 1_555
Se7 Tc3 2.626071 1_555
Se8 Tc2 2.556386 1_555
Se8 Tc0 2.557041 1_555
Se9 Tc1 2.554924 1_555
Se9 Tc0 2.558357 1_555
Se10 Tc2 2.537626 1_555
Se11 Tc0 2.540585 1_555
Se13 Tc3 2.526289 1_555
