# generated using pymatgen
data_Ca2Ga9Ru4Rh
_symmetry_space_group_name_H-M   'P 1'
_cell_length_a   7.98427828
_cell_length_b   7.98427735
_cell_length_c   7.98427774
_cell_angle_alpha   134.76493286
_cell_angle_beta   134.76492753
_cell_angle_gamma   65.89566825
_symmetry_Int_Tables_number   1
_chemical_formula_structural   Ca2Ga9Ru4Rh
_chemical_formula_sum   'Ca2 Ga9 Ru4 Rh1'
_cell_volume   252.68726831
_cell_formula_units_Z   1
loop_
 _symmetry_equiv_pos_site_id
 _symmetry_equiv_pos_as_xyz
  1  'x, y, z'
loop_
 _atom_site_type_symbol
 _atom_site_label
 _atom_site_symmetry_multiplicity
 _atom_site_fract_x
 _atom_site_fract_y
 _atom_site_fract_z
 _atom_site_occupancy
  Ca  Ca0  1  0.00000000  0.50000000  0.50000000  1
  Ca  Ca1  1  0.50000000  0.00000000  0.50000000  1
  Ga  Ga0  1  0.43939324  0.85858230  1.00000000  1
  Ga  Ga1  1  0.14141770  0.14141770  0.58081195  1
  Ga  Ga2  1  0.85858230  0.43939324  0.00000000  1
  Ga  Ga3  1  0.85858230  0.85858230  0.41918805  1
  Ga  Ga4  1  0.56060676  0.14141770  0.00000000  1
  Ga  Ga5  1  0.14141770  0.56060676  1.00000000  1
  Ga  Ga6  1  0.56060676  0.56060676  0.41918805  1
  Ga  Ga7  1  0.00000000  0.00000000  0.00000000  1
  Ga  Ga8  1  0.43939324  0.43939324  0.58081195  1
  Ru  Ru0  1  0.18041831  0.18041831  1.00000000  1
  Ru  Ru1  1  0.81958169  0.81958169  0.00000000  1
  Ru  Ru2  1  0.25000000  0.75000000  0.50000000  1
  Ru  Ru3  1  0.75000000  0.25000000  0.50000000  1
  Rh  Rh0  1  0.50000000  0.50000000  0.00000000  1
loop_
_geom_bond_atom_site_label_1
_geom_bond_atom_site_label_2
_geom_bond_distance
_geom_bond_site_symmetry_2
Ca0 Ga8 2.970397 1_555
Ca0 Ga6 2.970397 1_455
Ca0 Ga0 2.970401 1_555
Ca0 Ga4 2.970401 1_455
Ca0 Ga2 2.970401 1_455
Ca0 Ga5 2.970401 1_555
Ca0 Ga3 2.970406 1_455
Ca0 Ga1 2.970406 1_555
Ca0 Ga7 3.070576 1_566
Ca0 Ga7 3.070576 1_555
Ca0 Rh0 3.070577 1_556
Ca0 Rh0 3.070577 1_455
Ca1 Ga8 2.970397 1_555
Ca1 Ga6 2.970397 1_545
Ca1 Ga2 2.970401 1_556
Ca1 Ga5 2.970401 1_544
Ca1 Ga0 2.970401 1_544
Ca1 Ga4 2.970401 1_556
Ca1 Ga3 2.970406 1_545
Ca1 Ga1 2.970406 1_555
Ca1 Rh0 3.070576 1_556
Ca1 Rh0 3.070576 1_545
Ca1 Ga7 3.070577 1_656
Ca1 Ga7 3.070577 1_555
Ga0 Ru0 2.557068 1_565
Ga0 Ga8 2.574301 1_555
Ga0 Ga3 2.574301 1_556
Ga0 Ru3 2.582551 1_566
Ga0 Ru2 2.582551 1_555
Ga0 Rh0 2.701747 1_556
Ga0 Ga4 2.796678 1_566
Ga0 Ru1 2.922215 1_556
Ga1 Ru1 2.557071 1_445
Ga1 Ga5 2.574301 1_555
Ga1 Ga4 2.574301 1_556
Ga1 Ru2 2.582548 1_545
Ga1 Ru3 2.582549 1_455
Ga1 Rh0 2.701749 1_556
Ga1 Ga3 2.796667 1_445
Ga1 Ru0 2.922207 1_555
Ga2 Ru0 2.557068 1_654
Ga2 Ga3 2.574301 1_555
Ga2 Ga8 2.574301 1_554
Ga2 Ru3 2.582551 1_554
Ga2 Ru2 2.582551 1_655
Ga2 Rh0 2.701748 1_555
Ga2 Ga5 2.796678 1_654
Ga2 Ru1 2.922214 1_555
Ga3 Ru0 2.557071 1_665
Ga3 Ru3 2.582548 1_565
Ga3 Ru2 2.582549 1_655
Ga3 Rh0 2.701749 1_555
Ga3 Ru1 2.922207 1_555
Ga4 Ru1 2.557068 1_545
Ga4 Ga6 2.574301 1_555
Ga4 Ru2 2.582551 1_544
Ga4 Ru3 2.582551 1_555
Ga4 Rh0 2.701747 1_555
Ga4 Ru0 2.922215 1_554
Ga5 Ru1 2.557068 1_456
Ga5 Ga6 2.574301 1_556
Ga5 Ru2 2.582551 1_556
Ga5 Ru3 2.582551 1_455
Ga5 Rh0 2.701748 1_556
Ga5 Ru0 2.922214 1_555
Ga6 Ru1 2.557073 1_556
Ga6 Ru3 2.582556 1_555
Ga6 Ru2 2.582556 1_555
Ga6 Rh0 2.701739 1_555
Ga6 Ga8 2.796693 1_555
Ga6 Ru0 2.922217 1_554
Ga7 Ru0 2.417654 1_554
Ga7 Ru1 2.417654 1_445
Ga8 Ru0 2.557073 1_554
Ga8 Ru2 2.582556 1_555
Ga8 Ru3 2.582556 1_555
Ga8 Rh0 2.701739 1_556
Ga8 Ru1 2.922217 1_556
