# generated using pymatgen
data_UPd3
_symmetry_space_group_name_H-M   'P 1'
_cell_length_a   5.84316533
_cell_length_b   5.84316644
_cell_length_c   9.57913297
_cell_angle_alpha   90.00000000
_cell_angle_beta   90.00000000
_cell_angle_gamma   119.99999365
_symmetry_Int_Tables_number   1
_chemical_formula_structural   UPd3
_chemical_formula_sum   'U4 Pd12'
_cell_volume   283.23915705
_cell_formula_units_Z   4
loop_
 _symmetry_equiv_pos_site_id
 _symmetry_equiv_pos_as_xyz
  1  'x, y, z'
loop_
 _atom_site_type_symbol
 _atom_site_label
 _atom_site_symmetry_multiplicity
 _atom_site_fract_x
 _atom_site_fract_y
 _atom_site_fract_z
 _atom_site_occupancy
  U  U0  1  0.00000000  0.00000000  -0.00000000  1
  U  U1  1  0.00000000  0.00000000  0.50000000  1
  U  U2  1  0.33333300  0.66666700  0.25000000  1
  U  U3  1  0.66666700  0.33333300  0.75000000  1
  Pd  Pd0  1  0.50000000  -0.00000000  -0.00000000  1
  Pd  Pd1  1  0.50000000  0.50000000  0.50000000  1
  Pd  Pd2  1  0.00000000  0.50000000  0.50000000  1
  Pd  Pd3  1  0.00000000  0.50000000  -0.00000000  1
  Pd  Pd4  1  0.50000000  0.50000000  -0.00000000  1
  Pd  Pd5  1  0.50000000  0.00000000  0.50000000  1
  Pd  Pd6  1  0.82622897  0.65245793  0.25000000  1
  Pd  Pd7  1  0.17377103  0.82622897  0.75000000  1
  Pd  Pd8  1  0.65245793  0.82622897  0.75000000  1
  Pd  Pd9  1  0.34754207  0.17377103  0.25000000  1
  Pd  Pd10  1  0.82622897  0.17377103  0.25000000  1
  Pd  Pd11  1  0.17377103  0.34754207  0.75000000  1
loop_
_geom_bond_atom_site_label_1
_geom_bond_atom_site_label_2
_geom_bond_distance
_geom_bond_site_symmetry_2
Pd0 Pd8 2.909311 1_544
Pd0 Pd9 2.909311 1_555
Pd0 Pd7 2.909311 1_544
Pd0 Pd10 2.909311 1_555
Pd0 U0 2.921583 1_655
Pd0 U0 2.921583 1_555
Pd0 Pd4 2.921583 1_545
Pd0 Pd4 2.921583 1_555
Pd0 Pd3 2.921583 1_655
Pd0 Pd3 2.921583 1_545
Pd0 U2 2.929197 1_545
Pd0 U3 2.929197 1_554
Pd1 Pd6 2.909311 1_555
Pd1 Pd11 2.909311 1_555
Pd1 Pd8 2.909311 1_555
Pd1 Pd9 2.909311 1_555
Pd1 Pd2 2.921583 1_555
Pd1 Pd2 2.921583 1_655
Pd1 Pd5 2.921583 1_565
Pd1 Pd5 2.921583 1_555
Pd1 U1 2.921583 1_665
Pd1 U1 2.921583 1_555
Pd1 U2 2.929200 1_555
Pd1 U3 2.929200 1_555
Pd2 Pd6 2.909311 1_455
Pd2 Pd7 2.909311 1_555
Pd2 U1 2.921583 1_565
Pd2 U1 2.921583 1_555
Pd2 Pd5 2.921583 1_455
Pd2 Pd5 2.921583 1_565
Pd2 U2 2.929197 1_555
Pd2 U3 2.929197 1_455
Pd3 Pd6 2.909311 1_455
Pd3 Pd7 2.909311 1_554
Pd3 Pd4 2.921583 1_555
Pd3 Pd4 2.921583 1_455
Pd3 U0 2.921583 1_565
Pd3 U0 2.921583 1_555
Pd3 U2 2.929197 1_555
Pd3 U3 2.929197 1_454
Pd4 Pd6 2.909311 1_555
Pd4 Pd9 2.909311 1_555
Pd4 Pd8 2.909311 1_554
Pd4 U0 2.921583 1_555
Pd4 U0 2.921583 1_665
Pd4 U3 2.929200 1_554
Pd4 U2 2.929200 1_555
Pd5 Pd8 2.909311 1_545
Pd5 Pd9 2.909311 1_555
Pd5 Pd7 2.909311 1_545
Pd5 U1 2.921583 1_655
Pd5 U1 2.921583 1_555
Pd5 U2 2.929197 1_545
Pd5 U3 2.929197 1_555
Pd6 Pd9 2.797047 1_555
Pd6 U2 2.922464 1_655
Pd6 U2 2.922470 1_555
Pd6 U0 2.971184 1_665
Pd6 U1 2.971184 1_665
Pd6 Pd9 3.046119 1_665
Pd7 Pd8 2.797047 1_555
Pd7 U3 2.922468 1_455
Pd7 U3 2.922468 1_565
Pd7 U1 2.971184 1_565
Pd7 U0 2.971184 1_566
Pd7 Pd8 3.046119 1_455
Pd8 U3 2.922465 1_565
Pd8 U3 2.922471 1_555
Pd8 U1 2.971184 1_665
Pd8 U0 2.971184 1_666
Pd9 U2 2.922465 1_545
Pd9 U2 2.922471 1_555
Pd9 U0 2.971184 1_555
Pd9 U1 2.971184 1_555
Pd10 Pd9 2.797047 1_555
Pd10 Pd6 2.797047 1_555
Pd10 Pd5 2.909311 1_555
Pd10 Pd3 2.909311 1_655
Pd10 Pd2 2.909311 1_655
Pd10 U2 2.922468 1_655
Pd10 U2 2.922468 1_545
Pd10 U1 2.971184 1_655
Pd10 U0 2.971184 1_655
Pd10 Pd9 3.046119 1_655
Pd10 Pd6 3.046119 1_545
Pd11 Pd7 2.797047 1_555
Pd11 Pd8 2.797047 1_555
Pd11 Pd3 2.909311 1_556
Pd11 Pd2 2.909311 1_555
Pd11 Pd4 2.909311 1_556
Pd11 U3 2.922464 1_455
Pd11 U3 2.922470 1_555
Pd11 U0 2.971184 1_556
Pd11 U1 2.971184 1_555
Pd11 Pd7 3.046119 1_545
Pd11 Pd8 3.046119 1_445
