# generated using pymatgen
data_CoSb(SeO3)4
_symmetry_space_group_name_H-M   'P 1'
_cell_length_a   7.87161608
_cell_length_b   7.87463529
_cell_length_c   7.90778712
_cell_angle_alpha   89.47993313
_cell_angle_beta   90.00000000
_cell_angle_gamma   90.00000000
_symmetry_Int_Tables_number   1
_chemical_formula_structural   CoSb(SeO3)4
_chemical_formula_sum   'Co2 Sb2 Se8 O24'
_cell_volume   490.15273644
_cell_formula_units_Z   2
loop_
 _symmetry_equiv_pos_site_id
 _symmetry_equiv_pos_as_xyz
  1  'x, y, z'
loop_
 _atom_site_type_symbol
 _atom_site_label
 _atom_site_symmetry_multiplicity
 _atom_site_fract_x
 _atom_site_fract_y
 _atom_site_fract_z
 _atom_site_occupancy
  Co  Co0  1  0.00000000  0.50000000  0.00000000  1
  Co  Co1  1  0.50000000  0.50000000  0.50000000  1
  Sb  Sb0  1  0.00000000  0.00000000  0.50000000  1
  Sb  Sb1  1  0.50000000  0.00000000  0.00000000  1
  Se  Se0  1  0.32223207  0.64883876  0.17992129  1
  Se  Se1  1  0.82223207  0.35116124  0.32007871  1
  Se  Se2  1  0.66050717  0.81216465  0.65635354  1
  Se  Se3  1  0.16050717  0.18783535  0.84364646  1
  Se  Se4  1  0.67776793  0.35116124  0.82007871  1
  Se  Se5  1  0.17776793  0.64883876  0.67992129  1
  Se  Se6  1  0.33949283  0.18783535  0.34364646  1
  Se  Se7  1  0.83949283  0.81216465  0.15635354  1
  O  O0  1  0.23873049  0.52202794  0.02866313  1
  O  O1  1  0.73873049  0.47797206  0.47133687  1
  O  O2  1  0.75189126  0.97110998  0.52852595  1
  O  O3  1  0.25189126  0.02889002  0.97147405  1
  O  O4  1  0.51885122  0.95022733  0.75456802  1
  O  O5  1  0.46545202  0.50828146  0.26278615  1
  O  O6  1  0.96545202  0.49171854  0.23721385  1
  O  O7  1  0.01885122  0.04977267  0.74543198  1
  O  O8  1  0.97131924  0.24435562  0.45214995  1
  O  O9  1  0.52537045  0.73880026  0.50917010  1
  O  O10  1  0.47131924  0.75564438  0.04785005  1
  O  O11  1  0.02537045  0.26119974  0.99082990  1
  O  O12  1  0.76126951  0.47797206  0.97133687  1
  O  O13  1  0.26126951  0.52202794  0.52866313  1
  O  O14  1  0.24810874  0.02889002  0.47147405  1
  O  O15  1  0.74810874  0.97110998  0.02852595  1
  O  O16  1  0.48114878  0.04977267  0.24543198  1
  O  O17  1  0.53454798  0.49171854  0.73721385  1
  O  O18  1  0.03454798  0.50828146  0.76278615  1
  O  O19  1  0.98114878  0.95022733  0.25456802  1
  O  O20  1  0.02868076  0.75564438  0.54785005  1
  O  O21  1  0.47462955  0.26119974  0.49082990  1
  O  O22  1  0.52868076  0.24435562  0.95214995  1
  O  O23  1  0.97462955  0.73880026  0.00917010  1
loop_
_geom_bond_atom_site_label_1
_geom_bond_atom_site_label_2
_geom_bond_distance
_geom_bond_site_symmetry_2
Co0 O23 1.893083 1_455
Co0 O11 1.893083 1_554
Co0 O6 1.895983 1_455
Co0 O18 1.895983 1_554
Co0 O0 1.900934 1_555
Co0 O12 1.900934 1_454
Co1 O9 1.893083 1_555
Co1 O21 1.893083 1_555
Co1 O17 1.895983 1_555
Co1 O5 1.895983 1_555
Co1 O1 1.900934 1_555
Co1 O13 1.900934 1_555
O0 Se0 1.697526 1_555
O1 Se1 1.697526 1_555
O2 Se2 1.755808 1_555
O2 Sb0 1.978884 1_665
O3 Se3 1.755808 1_555
O3 Sb1 1.978884 1_556
O4 Se2 1.744672 1_555
O4 Sb1 1.989031 1_566
O5 Se0 1.706540 1_555
O6 Se1 1.706540 1_555
O7 Se3 1.744672 1_555
O7 Sb0 1.989031 1_555
O8 Se1 1.777475 1_555
O8 Sb0 1.970665 1_655
O9 Se2 1.682905 1_555
O10 Se0 1.777475 1_555
O10 Sb1 1.970665 1_565
O11 Se3 1.682905 1_555
O12 Se4 1.697526 1_555
O13 Se5 1.697526 1_555
O14 Se6 1.755808 1_555
O14 Sb0 1.978884 1_555
O15 Se7 1.755808 1_555
O15 Sb1 1.978884 1_565
O16 Se6 1.744672 1_555
O16 Sb1 1.989031 1_555
O17 Se4 1.706540 1_555
O18 Se5 1.706540 1_555
O19 Se7 1.744672 1_555
O19 Sb0 1.989031 1_665
O20 Se5 1.777475 1_555
O20 Sb0 1.970665 1_565
O21 Se6 1.682905 1_555
O22 Se4 1.777475 1_555
O22 Sb1 1.970665 1_556
O23 Se7 1.682905 1_555
