# generated using pymatgen
data_Tc(SF6)2
_symmetry_space_group_name_H-M   'P 1'
_cell_length_a   6.21818345
_cell_length_b   7.60422413
_cell_length_c   9.73672332
_cell_angle_alpha   90.00000000
_cell_angle_beta   90.00000000
_cell_angle_gamma   90.00000000
_symmetry_Int_Tables_number   1
_chemical_formula_structural   Tc(SF6)2
_chemical_formula_sum   'Tc2 S4 F24'
_cell_volume   460.39571032
_cell_formula_units_Z   2
loop_
 _symmetry_equiv_pos_site_id
 _symmetry_equiv_pos_as_xyz
  1  'x, y, z'
loop_
 _atom_site_type_symbol
 _atom_site_label
 _atom_site_symmetry_multiplicity
 _atom_site_fract_x
 _atom_site_fract_y
 _atom_site_fract_z
 _atom_site_occupancy
  Tc  Tc0  1  0.00000000  0.50000000  0.00000000  1
  Tc  Tc1  1  0.50000000  0.00000000  0.50000000  1
  S  S0  1  0.50000000  0.57222378  0.24080595  1
  S  S1  1  0.50000000  0.42777622  0.75919405  1
  S  S2  1  0.00000000  0.07222378  0.25919405  1
  S  S3  1  0.00000000  0.92777622  0.74080595  1
  F  F0  1  0.22086756  0.36051203  0.91056682  1
  F  F1  1  0.22086756  0.63948797  0.08943318  1
  F  F2  1  0.27913244  0.86051203  0.58943318  1
  F  F3  1  0.27913244  0.13948797  0.41056682  1
  F  F4  1  0.77913244  0.63948797  0.08943318  1
  F  F5  1  0.77913244  0.36051203  0.91056682  1
  F  F6  1  0.81653865  0.97054197  0.84344314  1
  F  F7  1  0.81653865  0.02945803  0.15655686  1
  F  F8  1  0.68346135  0.47054197  0.65655686  1
  F  F9  1  0.68346135  0.52945803  0.34344314  1
  F  F10  1  0.18346135  0.02945803  0.15655686  1
  F  F11  1  0.18346135  0.97054197  0.84344314  1
  F  F12  1  0.31653865  0.52945803  0.34344314  1
  F  F13  1  0.31653865  0.47054197  0.65655686  1
  F  F14  1  0.00000000  0.65669131  0.84288448  1
  F  F15  1  0.00000000  0.34330869  0.15711552  1
  F  F16  1  0.50000000  0.15669131  0.65711552  1
  F  F17  1  0.50000000  0.84330869  0.34288448  1
  F  F18  1  0.50000000  0.61195736  0.82810467  1
  F  F19  1  0.50000000  0.38804264  0.17189533  1
  F  F20  1  0.00000000  0.11195736  0.67189533  1
  F  F21  1  0.00000000  0.88804264  0.32810467  1
  F  F22  1  0.72086756  0.86051203  0.58943318  1
  F  F23  1  0.72086756  0.13948797  0.41056682  1
loop_
_geom_bond_atom_site_label_1
_geom_bond_atom_site_label_2
_geom_bond_distance
_geom_bond_site_symmetry_2
F0 Tc0 1.941536 1_556
F1 Tc0 1.941536 1_555
F2 Tc1 1.941536 1_565
F3 Tc1 1.941536 1_555
F4 Tc0 1.941536 1_655
F5 Tc0 1.941536 1_656
F6 S3 1.551087 1_655
F7 S2 1.551087 1_655
F8 S1 1.551087 1_555
F9 S0 1.551087 1_555
F10 S2 1.551087 1_555
F11 S3 1.551087 1_555
F12 S0 1.551087 1_555
F13 S1 1.551087 1_555
F14 Tc0 1.939064 1_556
F15 Tc0 1.939064 1_555
F16 Tc1 1.939064 1_555
F17 Tc1 1.939064 1_565
F18 S1 1.552980 1_555
F19 S0 1.552980 1_555
F20 S3 1.552980 1_545
F21 S2 1.552980 1_565
F22 Tc1 1.941536 1_565
F23 Tc1 1.941536 1_555
