# generated using pymatgen
data_Ir2RuS8
_symmetry_space_group_name_H-M   'P 1'
_cell_length_a   5.66351499
_cell_length_b   5.65032443
_cell_length_c   5.64686719
_cell_angle_alpha   89.67081578
_cell_angle_beta   89.74833646
_cell_angle_gamma   89.60685010
_symmetry_Int_Tables_number   1
_chemical_formula_structural   Ir2RuS8
_chemical_formula_sum   'Ir2 Ru1 S8'
_cell_volume   180.69473807
_cell_formula_units_Z   1
loop_
 _symmetry_equiv_pos_site_id
 _symmetry_equiv_pos_as_xyz
  1  'x, y, z'
loop_
 _atom_site_type_symbol
 _atom_site_label
 _atom_site_symmetry_multiplicity
 _atom_site_fract_x
 _atom_site_fract_y
 _atom_site_fract_z
 _atom_site_occupancy
  Ir  Ir0  1  0.50000000  0.00000000  0.50000000  1
  Ir  Ir1  1  0.50000000  0.50000000  0.00000000  1
  Ru  Ru0  1  0.00000000  0.50000000  0.50000000  1
  S  S0  1  0.39258387  0.89247351  0.10755560  1
  S  S1  1  0.10583789  0.39350798  0.89089618  1
  S  S2  1  0.89308230  0.11005347  0.39497144  1
  S  S3  1  0.60741613  0.10752649  0.89244440  1
  S  S4  1  0.89416211  0.60649202  0.10910382  1
  S  S5  1  0.10691770  0.88994653  0.60502856  1
  S  S6  1  0.61756741  0.61111242  0.61132659  1
  S  S7  1  0.38243259  0.38888758  0.38867341  1
loop_
_geom_bond_atom_site_label_1
_geom_bond_atom_site_label_2
_geom_bond_distance
_geom_bond_site_symmetry_2
Ir0 S7 2.373727 1_555
Ir0 S6 2.373727 1_545
Ir0 S3 2.383826 1_555
Ir0 S0 2.383826 1_545
Ir0 S2 2.386981 1_555
Ir0 S5 2.386981 1_545
Ir1 S7 2.373113 1_555
Ir1 S6 2.373113 1_554
Ir1 S0 2.377067 1_555
Ir1 S3 2.377067 1_554
Ir1 S4 2.399951 1_555
Ir1 S1 2.399951 1_554
Ru0 S7 2.335476 1_555
Ru0 S6 2.335476 1_455
Ru0 S1 2.363285 1_555
Ru0 S4 2.363285 1_455
Ru0 S5 2.368445 1_555
Ru0 S2 2.368445 1_455
S0 S3 2.103031 1_564
S1 S4 2.094752 1_456
S2 S5 2.096516 1_645
S6 S7 2.233073 1_555
