# generated using pymatgen
data_Rb2Ti(AgTe2)2
_symmetry_space_group_name_H-M   'P 1'
_cell_length_a   6.46957052
_cell_length_b   6.46957052
_cell_length_c   14.86377386
_cell_angle_alpha   90.00000000
_cell_angle_beta   90.00000000
_cell_angle_gamma   90.00000000
_symmetry_Int_Tables_number   1
_chemical_formula_structural   Rb2Ti(AgTe2)2
_chemical_formula_sum   'Rb4 Ti2 Ag4 Te8'
_cell_volume   622.12834937
_cell_formula_units_Z   2
loop_
 _symmetry_equiv_pos_site_id
 _symmetry_equiv_pos_as_xyz
  1  'x, y, z'
loop_
 _atom_site_type_symbol
 _atom_site_label
 _atom_site_symmetry_multiplicity
 _atom_site_fract_x
 _atom_site_fract_y
 _atom_site_fract_z
 _atom_site_occupancy
  Rb  Rb0  1  0.25817184  0.25817184  0.00000000  1
  Rb  Rb1  1  0.74182816  0.74182816  0.00000000  1
  Rb  Rb2  1  0.74182816  0.25817184  0.50000000  1
  Rb  Rb3  1  0.25817184  0.74182816  0.50000000  1
  Ti  Ti0  1  0.00000000  0.00000000  0.25000000  1
  Ti  Ti1  1  0.00000000  0.00000000  0.75000000  1
  Ag  Ag0  1  0.00000000  0.50000000  0.25000000  1
  Ag  Ag1  1  0.00000000  0.50000000  0.75000000  1
  Ag  Ag2  1  0.50000000  0.00000000  0.75000000  1
  Ag  Ag3  1  0.50000000  0.00000000  0.25000000  1
  Te  Te0  1  0.23078717  0.23078717  0.35728773  1
  Te  Te1  1  0.76921283  0.76921283  0.64271227  1
  Te  Te2  1  0.76921283  0.76921283  0.35728773  1
  Te  Te3  1  0.76921283  0.23078717  0.85728773  1
  Te  Te4  1  0.76921283  0.23078717  0.14271227  1
  Te  Te5  1  0.23078717  0.23078717  0.64271227  1
  Te  Te6  1  0.23078717  0.76921283  0.14271227  1
  Te  Te7  1  0.23078717  0.76921283  0.85728773  1
loop_
_geom_bond_atom_site_label_1
_geom_bond_atom_site_label_2
_geom_bond_distance
_geom_bond_site_symmetry_2
Rb0 Te4 3.812856 1_455
Rb0 Te6 3.812856 1_545
Rb0 Te3 3.812856 1_454
Rb0 Te7 3.812856 1_544
Rb0 Te6 3.932191 1_555
Rb0 Te4 3.932191 1_555
Rb0 Te7 3.932191 1_554
Rb0 Te3 3.932191 1_554
Rb1 Te6 3.812856 1_655
Rb1 Te4 3.812856 1_565
Rb1 Te3 3.812856 1_564
Rb1 Te7 3.812856 1_654
Rb1 Te6 3.932191 1_555
Rb1 Te4 3.932191 1_555
Rb1 Te7 3.932191 1_554
Rb1 Te3 3.932191 1_554
Rb2 Te1 3.812856 1_545
Rb2 Te5 3.812856 1_655
Rb2 Te2 3.812856 1_545
Rb2 Te0 3.812856 1_655
Rb2 Te1 3.932191 1_555
Rb2 Te5 3.932191 1_555
Rb2 Te2 3.932191 1_555
Rb2 Te0 3.932191 1_555
Rb3 Te1 3.812856 1_455
Rb3 Te5 3.812856 1_565
Rb3 Te0 3.812856 1_565
Rb3 Te2 3.812856 1_455
Rb3 Te1 3.932191 1_555
Rb3 Te5 3.932191 1_555
Rb3 Te2 3.932191 1_555
Rb3 Te0 3.932191 1_555
Ag0 Te2 2.793902 1_455
Ag0 Te0 2.793902 1_555
Ag0 Te6 2.793902 1_555
Ag0 Te4 2.793902 1_455
Ag0 Ti0 3.234785 1_555
Ag0 Ti0 3.234785 1_565
Ag1 Te7 2.793902 1_555
Ag1 Te3 2.793902 1_455
Ag1 Te1 2.793902 1_455
Ag1 Te5 2.793902 1_555
Ag1 Ti1 3.234785 1_565
Ag1 Ti1 3.234785 1_555
Ag2 Te3 2.793902 1_555
Ag2 Te7 2.793902 1_545
Ag2 Te1 2.793902 1_545
Ag2 Te5 2.793902 1_555
Ag2 Ti1 3.234785 1_555
Ag2 Ti1 3.234785 1_655
Ag3 Te2 2.793902 1_545
Ag3 Te0 2.793902 1_555
Ag3 Te4 2.793902 1_555
Ag3 Te6 2.793902 1_545
Ag3 Ti0 3.234785 1_555
Ag3 Ti0 3.234785 1_655
Te0 Ti0 2.646078 1_555
Te1 Ti1 2.646078 1_665
Te2 Ti0 2.646078 1_665
Te3 Ti1 2.646078 1_655
Te4 Ti0 2.646078 1_655
Te5 Ti1 2.646078 1_555
Te6 Ti0 2.646078 1_565
Te7 Ti1 2.646078 1_565
