# generated using pymatgen
data_RbMnSb
_symmetry_space_group_name_H-M   'P 1'
_cell_length_a   4.76288700
_cell_length_b   4.76288700
_cell_length_c   8.68731800
_cell_angle_alpha   90.00000000
_cell_angle_beta   90.00000000
_cell_angle_gamma   90.00000000
_symmetry_Int_Tables_number   1
_chemical_formula_structural   RbMnSb
_chemical_formula_sum   'Rb2 Mn2 Sb2'
_cell_volume   197.07261306
_cell_formula_units_Z   2
loop_
 _symmetry_equiv_pos_site_id
 _symmetry_equiv_pos_as_xyz
  1  'x, y, z'
loop_
 _atom_site_type_symbol
 _atom_site_label
 _atom_site_symmetry_multiplicity
 _atom_site_fract_x
 _atom_site_fract_y
 _atom_site_fract_z
 _atom_site_occupancy
  Rb  Rb0  1  0.50000000  0.00000000  0.65649800  1
  Rb  Rb1  1  0.00000000  0.50000000  0.34350200  1
  Mn  Mn0  1  0.50000000  0.50000000  0.00000000  1
  Mn  Mn1  1  0.00000000  0.00000000  0.00000000  1
  Sb  Sb0  1  0.50000000  0.00000000  0.17366600  1
  Sb  Sb1  1  0.00000000  0.50000000  0.82633400  1
loop_
_geom_bond_atom_site_label_1
_geom_bond_atom_site_label_2
_geom_bond_distance
_geom_bond_site_symmetry_2
Rb0 Sb1 3.676875 1_645
Rb0 Sb1 3.676875 1_655
Rb0 Sb1 3.676875 1_555
Rb0 Sb1 3.676875 1_545
Rb0 Sb0 4.194515 1_555
Rb1 Sb0 3.676875 1_555
Rb1 Sb0 3.676875 1_565
Rb1 Sb0 3.676875 1_455
Rb1 Sb0 3.676875 1_465
Rb1 Sb1 4.194515 1_555
Mn0 Sb1 2.819118 1_654
Mn0 Sb0 2.819118 1_565
Mn0 Sb0 2.819118 1_555
Mn0 Sb1 2.819118 1_554
Mn0 Rb0 3.817878 1_554
Mn0 Rb1 3.817878 1_555
Mn0 Rb1 3.817878 1_655
Mn0 Rb0 3.817878 1_564
Mn1 Sb1 2.819118 1_544
Mn1 Sb0 2.819118 1_455
Mn1 Sb0 2.819118 1_555
Mn1 Sb1 2.819118 1_554
Mn1 Rb0 3.817878 1_554
Mn1 Rb1 3.817878 1_555
Mn1 Rb0 3.817878 1_454
Mn1 Rb1 3.817878 1_545
