# generated using pymatgen
data_Li4Ca6Ag12N
_symmetry_space_group_name_H-M   'P 1'
_cell_length_a   8.42171642
_cell_length_b   8.42150802
_cell_length_c   8.43103439
_cell_angle_alpha   108.91327246
_cell_angle_beta   110.08984192
_cell_angle_gamma   109.18701799
_symmetry_Int_Tables_number   1
_chemical_formula_structural   Li4Ca6Ag12N
_chemical_formula_sum   'Li4 Ca6 Ag12 N1'
_cell_volume   461.53434807
_cell_formula_units_Z   1
loop_
 _symmetry_equiv_pos_site_id
 _symmetry_equiv_pos_as_xyz
  1  'x, y, z'
loop_
 _atom_site_type_symbol
 _atom_site_label
 _atom_site_symmetry_multiplicity
 _atom_site_fract_x
 _atom_site_fract_y
 _atom_site_fract_z
 _atom_site_occupancy
  Li  Li0  1  0.68072896  0.34144079  0.34081637  1
  Li  Li1  1  0.34853082  0.00655783  0.66555291  1
  Li  Li2  1  0.34647921  0.67956522  0.33954008  1
  Li  Li3  1  0.34604930  0.35222452  0.68653699  1
  Ca  Ca0  1  0.99531035  0.25256269  0.25250197  1
  Ca  Ca1  1  0.24966814  0.99483123  0.24738220  1
  Ca  Ca2  1  0.74823270  0.00013155  0.74523186  1
  Ca  Ca3  1  0.74426382  0.74498586  0.00283066  1
  Ca  Ca4  1  0.25152624  0.25493423  0.99925864  1
  Ca  Ca5  1  0.99835012  0.74110352  0.74403940  1
  Ag  Ag0  1  0.49303773  0.49338317  0.49317855  1
  Ag  Ag1  1  0.49601480  0.00324318  0.99885853  1
  Ag  Ag2  1  0.00168823  0.49936390  0.00305530  1
  Ag  Ag3  1  0.01211744  0.00527280  0.50567574  1
  Ag  Ag4  1  0.34837479  0.65915468  0.00552856  1
  Ag  Ag5  1  0.00797018  0.34683269  0.65850681  1
  Ag  Ag6  1  0.01413835  0.66343431  0.35205742  1
  Ag  Ag7  1  0.65553500  0.65214175  0.30833870  1
  Ag  Ag8  1  0.65648322  0.00707241  0.35148207  1
  Ag  Ag9  1  0.65400594  0.34716071  0.00294047  1
  Ag  Ag10  1  0.64708447  0.30104474  0.64867202  1
  Ag  Ag11  1  0.30791031  0.65645961  0.64989687  1
  N  N0  1  0.99649988  0.99709762  0.99811788  1
loop_
_geom_bond_atom_site_label_1
_geom_bond_atom_site_label_2
_geom_bond_distance
_geom_bond_site_symmetry_2
Ca0 N0 2.503228 1_544
Ca1 N0 2.436665 1_454
Ca2 N0 2.434338 1_545
Ca3 N0 2.483949 1_554
Ca4 N0 2.496937 1_445
Ca5 N0 2.507574 1_555
Ag0 Li2 2.673963 1_555
Ag0 Li3 2.697879 1_555
Ag0 Li0 2.728523 1_555
Ag0 Ag10 2.759505 1_555
Ag0 Ag7 2.775264 1_555
Ag0 Ag11 2.776497 1_555
Ag1 Li1 2.667594 1_555
Ag1 Li0 2.743593 1_556
Ag1 Ag9 2.744269 1_556
Ag1 Ag4 2.780555 1_546
Ag1 Ag8 2.795543 1_556
Ag1 Ag11 2.807407 1_545
Ag2 Li2 2.726934 1_555
Ag2 Ag6 2.763210 1_555
Ag2 Ag4 2.773691 1_555
Ag2 Ag9 2.783326 1_455
Ag2 Ag5 2.796879 1_554
Ag3 Li1 2.681561 1_555
Ag3 Li3 2.745157 1_555
Ag3 Ag6 2.755985 1_545
Ag3 Ag5 2.762189 1_555
Ag3 Ag8 2.833434 1_455
Ag3 Ag7 2.849598 1_445
Ag4 Li2 2.771083 1_555
Ag4 Ag5 2.826568 1_554
Ag4 Ag8 2.844009 1_565
Ag4 Ag7 2.978949 1_555
Ag4 Li3 3.055918 1_554
Ag4 Ca3 3.180828 1_555
Ag4 Ca4 3.207016 1_554
Ag4 Ca1 3.436934 1_555
Ag4 Ca5 3.447489 1_454
Ag5 Li3 2.758680 1_555
Ag5 Ag8 2.831464 1_455
Ag5 Li0 3.088555 1_455
Ag5 Ca5 3.196260 1_455
Ag5 Ca0 3.207925 1_455
Ag5 Ca4 3.390615 1_555
Ag5 Ca2 3.482689 1_455
Ag6 Li2 2.797431 1_555
Ag6 Li1 2.802316 1_565
Ag6 Ag7 2.879132 1_455
Ag6 Ag9 2.903719 1_455
Ag6 Li0 3.145180 1_455
Ag6 Ca5 3.213255 1_455
Ag6 Ca0 3.219862 1_455
Ag6 Ca1 3.415087 1_555
Ag6 Ca3 3.470753 1_455
Ag7 Li2 2.779046 1_555
Ag7 Li0 2.784944 1_555
Ag7 Ag8 2.888647 1_565
Ag7 Ag9 2.982431 1_555
Ag7 Ca3 3.169861 1_555
Ag7 Ca4 3.214613 1_554
Ag7 Ca5 3.449471 1_555
Ag7 Ca2 3.505497 1_565
Ag8 Li0 2.788875 1_555
Ag8 Li2 3.056087 1_545
Ag8 Ca2 3.164535 1_555
Ag8 Ca1 3.187853 1_545
Ag8 Ca0 3.462614 1_555
Ag8 Ca3 3.523934 1_545
Ag9 Li1 2.787516 1_554
Ag9 Li0 2.797033 1_555
Ag9 Li3 3.039382 1_554
Ag9 Ca3 3.182891 1_555
Ag9 Ca4 3.205469 1_554
Ag9 Ca0 3.429395 1_555
Ag9 Ca2 3.533278 1_554
Ag10 Li3 2.810720 1_555
Ag10 Li0 2.819068 1_555
Ag10 Ag2 2.826958 1_656
Ag10 Ag9 2.861646 1_556
Ag10 Ag5 2.903202 1_655
Ag10 Ag8 2.942305 1_555
Ag10 Li1 2.978021 1_555
Ag10 Ca2 3.176506 1_555
Ag10 Ca1 3.192221 1_545
Ag10 Ca5 3.515680 1_555
Ag10 Ca3 3.554739 1_556
Ag11 Li3 2.783684 1_555
Ag11 Li2 2.804020 1_555
Ag11 Li1 2.807306 1_565
Ag11 Ag6 2.890190 1_555
Ag11 Ag4 2.890599 1_556
Ag11 Ag5 3.017355 1_555
Ag11 Ca5 3.195463 1_455
Ag11 Ca0 3.223738 1_455
Ag11 Ca3 3.487613 1_556
Ag11 Ca2 3.487635 1_565
