# generated using pymatgen
data_ScTa4Nb5N12
_symmetry_space_group_name_H-M   'P 1'
_cell_length_a   5.24210973
_cell_length_b   5.25574251
_cell_length_c   10.41494507
_cell_angle_alpha   89.97025083
_cell_angle_beta   90.02661427
_cell_angle_gamma   120.04732332
_symmetry_Int_Tables_number   1
_chemical_formula_structural   ScTa4Nb5N12
_chemical_formula_sum   'Sc1 Ta4 Nb5 N12'
_cell_volume   248.38218158
_cell_formula_units_Z   1
loop_
 _symmetry_equiv_pos_site_id
 _symmetry_equiv_pos_as_xyz
  1  'x, y, z'
loop_
 _atom_site_type_symbol
 _atom_site_label
 _atom_site_symmetry_multiplicity
 _atom_site_fract_x
 _atom_site_fract_y
 _atom_site_fract_z
 _atom_site_occupancy
  Sc  Sc0  1  0.66525166  0.33136697  0.00036128  1
  Ta  Ta0  1  0.99823934  0.67725998  0.25048567  1
  Ta  Ta1  1  0.33461026  0.66638959  0.99972948  1
  Ta  Ta2  1  0.33446084  0.66683004  0.49940031  1
  Ta  Ta3  1  0.66522261  0.33215663  0.49954009  1
  Nb  Nb0  1  0.67798226  0.67604474  0.74876871  1
  Nb  Nb1  1  0.32357623  0.00120226  0.74868972  1
  Nb  Nb2  1  0.99844022  0.32236020  0.74881139  1
  Nb  Nb3  1  0.32398094  0.32280937  0.25178435  1
  Nb  Nb4  1  0.67754647  0.00172813  0.25180905  1
  N  N0  1  0.66168377  0.65775709  0.38263047  1
  N  N1  1  0.33805030  0.99573229  0.38253161  1
  N  N2  1  0.99994740  0.34941203  0.38141065  1
  N  N3  1  0.34361905  0.34373546  0.61686834  1
  N  N4  1  0.65614911  0.99979024  0.61680862  1
  N  N5  1  0.00001425  0.65448970  0.61715125  1
  N  N6  1  0.34195154  0.35090388  0.87678661  1
  N  N7  1  0.64915895  0.99076027  0.87666564  1
  N  N8  1  0.00949033  0.65689601  0.87651002  1
  N  N9  1  0.65395095  0.65830065  0.12416675  1
  N  N10  1  0.33749089  0.98654674  0.12421488  1
  N  N11  1  0.00918461  0.35752772  0.12487610  1
loop_
_geom_bond_atom_site_label_1
_geom_bond_atom_site_label_2
_geom_bond_distance
_geom_bond_site_symmetry_2
N0 Ta3 2.107361 1_555
N0 Ta2 2.123110 1_555
N0 Ta0 2.199610 1_555
N0 Nb3 2.229211 1_555
N0 Nb4 2.231265 1_565
N1 Ta2 2.106014 1_555
N1 Ta3 2.125177 1_565
N1 Ta0 2.209146 1_455
N1 Nb3 2.222443 1_565
N1 Nb4 2.228874 1_565
N2 Ta2 2.106823 1_655
N2 Ta3 2.107906 1_555
N2 Ta0 2.200327 1_555
N2 Nb4 2.219262 1_555
N2 Nb3 2.228824 1_655
N3 Ta3 2.108041 1_555
N3 Ta2 2.112356 1_555
N3 Nb0 2.223585 1_555
N3 Nb1 2.223743 1_555
N3 Nb2 2.230187 1_455
N4 Ta2 2.108641 1_555
N4 Ta3 2.111872 1_565
N4 Nb2 2.222084 1_565
N4 Nb1 2.222888 1_565
N4 Nb0 2.233738 1_555
N5 Ta2 2.114229 1_555
N5 Ta3 2.114994 1_455
N5 Nb2 2.215970 1_455
N5 Nb0 2.221598 1_455
N5 Nb1 2.231477 1_565
N6 Ta1 2.111043 1_555
N6 Sc0 2.170562 1_556
N6 Nb2 2.183819 1_455
N6 Nb0 2.187724 1_555
N6 Nb1 2.234351 1_555
N7 Ta1 2.110123 1_555
N7 Sc0 2.173122 1_566
N7 Nb1 2.187260 1_565
N7 Nb0 2.187656 1_555
N7 Nb2 2.228729 1_565
N8 Ta1 2.113521 1_555
N8 Sc0 2.180700 1_456
N8 Nb2 2.182645 1_455
N8 Nb1 2.184838 1_565
N8 Nb0 2.230012 1_455
N9 Ta1 2.133771 1_554
N9 Sc0 2.173229 1_555
N9 Nb3 2.193860 1_555
N9 Ta0 2.194510 1_555
N9 Nb4 2.195276 1_565
N10 Ta1 2.118802 1_554
N10 Ta0 2.153954 1_455
N10 Sc0 2.186721 1_565
N10 Nb4 2.192139 1_565
N10 Nb3 2.240875 1_565
N11 Ta1 2.114423 1_554
N11 Ta0 2.153480 1_455
N11 Sc0 2.168172 1_455
N11 Nb3 2.191510 1_555
N11 Nb4 2.238492 1_455
