# generated using pymatgen
data_K4Ba(VSe4)2
_symmetry_space_group_name_H-M   'P 1'
_cell_length_a   11.89458566
_cell_length_b   11.89469835
_cell_length_c   11.89456980
_cell_angle_alpha   133.66217314
_cell_angle_beta   128.25985763
_cell_angle_gamma   71.96182811
_symmetry_Int_Tables_number   1
_chemical_formula_structural   K4Ba(VSe4)2
_chemical_formula_sum   'K8 Ba2 V4 Se16'
_cell_volume   935.13239986
_cell_formula_units_Z   2
loop_
 _symmetry_equiv_pos_site_id
 _symmetry_equiv_pos_as_xyz
  1  'x, y, z'
loop_
 _atom_site_type_symbol
 _atom_site_label
 _atom_site_symmetry_multiplicity
 _atom_site_fract_x
 _atom_site_fract_y
 _atom_site_fract_z
 _atom_site_occupancy
  K  K0  1  0.49776792  0.24776635  0.24999527  1
  K  K1  1  0.00223603  0.75223617  0.24999877  1
  K  K2  1  0.57658679  0.69949142  0.12290649  1
  K  K3  1  0.42341321  0.30050858  0.87709351  1
  K  K4  1  0.50223208  0.75223365  0.75000473  1
  K  K5  1  0.07658369  0.45367343  0.37708900  1
  K  K6  1  0.92341631  0.54632657  0.62291100  1
  K  K7  1  0.99776397  0.24776383  0.75000123  1
  Ba  Ba0  1  0.24998391  0.00000316  0.24998720  1
  Ba  Ba1  1  0.75001609  0.99999684  0.75001280  1
  V  V0  1  0.13359466  0.92542654  0.79184182  1
  V  V1  1  0.86640534  0.07457346  0.20815818  1
  V  V2  1  0.36644075  0.65826607  0.29184628  1
  V  V3  1  0.63355925  0.34173393  0.70815372  1
  Se  Se0  1  0.59171787  0.60205755  0.36807801  1
  Se  Se1  1  0.74946511  0.98242193  0.23295165  1
  Se  Se2  1  0.89213606  0.86213765  0.97000766  1
  Se  Se3  1  0.76599872  0.39789735  0.98960931  1
  Se  Se4  1  0.73405851  0.22367267  0.13198270  1
  Se  Se5  1  0.75049832  0.48341114  0.73290964  1
  Se  Se6  1  0.25053489  0.01757807  0.76704835  1
  Se  Se7  1  0.23400128  0.60210265  0.01039069  1
  Se  Se8  1  0.24950168  0.51658886  0.26709036  1
  Se  Se9  1  0.26594149  0.77632733  0.86801730  1
  Se  Se10  1  0.10786394  0.13786235  0.02999234  1
  Se  Se11  1  0.90831408  0.77635192  0.51038470  1
  Se  Se12  1  0.09168592  0.22364808  0.48961530  1
  Se  Se13  1  0.60784170  0.07789152  0.47002209  1
  Se  Se14  1  0.40828213  0.39794245  0.63192199  1
  Se  Se15  1  0.39215830  0.92210848  0.52997791  1
loop_
_geom_bond_atom_site_label_1
_geom_bond_atom_site_label_2
_geom_bond_distance
_geom_bond_site_symmetry_2
K0 Se5 3.389604 1_555
K0 Se6 3.389799 1_554
K0 Se1 3.603053 1_545
K0 Se8 3.603364 1_555
K0 Se0 3.712214 1_555
K0 Se4 3.712624 1_555
K0 Se10 3.750511 1_555
K0 Se13 3.750516 1_555
K1 Se8 3.389542 1_555
K1 Se1 3.389814 1_455
K1 Se6 3.603173 1_565
K1 Se5 3.603435 1_454
K1 Se11 3.712516 1_455
K1 Se3 3.712652 1_454
K1 Se2 3.750354 1_454
K1 Se15 3.750671 1_555
K2 Se13 3.304354 1_565
K2 Se11 3.397128 1_555
K2 Se9 3.397198 1_554
K2 Se14 3.467383 1_554
K2 Se3 3.467528 1_554
K2 Se1 3.483853 1_555
K2 Se7 3.710335 1_555
K2 Se0 3.710446 1_555
K3 Se15 3.304354 1_545
K3 Se12 3.397128 1_555
K3 Se4 3.397198 1_556
K3 Se0 3.467383 1_556
K3 Se7 3.467528 1_556
K3 Se6 3.483853 1_555
K3 Se3 3.710335 1_555
K3 Se14 3.710446 1_555
K4 Se8 3.389604 1_555
K4 Se1 3.389799 1_556
K4 Se6 3.603053 1_565
K4 Se5 3.603364 1_555
K4 Se14 3.712214 1_555
K4 Se9 3.712624 1_555
K4 Se2 3.750511 1_555
K4 Se15 3.750516 1_555
K5 Se10 3.304034 1_555
K5 Se14 3.396686 1_555
K5 Se3 3.396891 1_454
K5 Se9 3.467050 1_555
K5 Se11 3.467143 1_455
K5 Se8 3.484297 1_555
K5 Se4 3.709766 1_455
K5 Se12 3.710041 1_555
K6 Se2 3.304034 1_555
K6 Se0 3.396686 1_555
K6 Se7 3.396891 1_656
K6 Se4 3.467050 1_555
K6 Se12 3.467143 1_655
K6 Se5 3.484297 1_555
K6 Se9 3.709766 1_655
K6 Se11 3.710041 1_555
K7 Se5 3.389542 1_555
K7 Se6 3.389814 1_655
K7 Se1 3.603173 1_545
K7 Se8 3.603435 1_656
K7 Se12 3.712516 1_655
K7 Se7 3.712652 1_656
K7 Se10 3.750354 1_656
K7 Se13 3.750671 1_555
Ba0 Se13 3.335234 1_555
Ba0 Se2 3.335239 1_444
Ba0 Se10 3.335243 1_555
Ba0 Se15 3.335425 1_545
Ba0 Se7 3.438012 1_545
Ba0 Se12 3.438136 1_555
Ba0 Se9 3.438164 1_544
Ba0 Se14 3.438330 1_555
Ba1 Se15 3.335234 1_555
Ba1 Se10 3.335239 1_666
Ba1 Se2 3.335243 1_555
Ba1 Se13 3.335425 1_565
Ba1 Se3 3.438012 1_565
Ba1 Se11 3.438136 1_555
Ba1 Se4 3.438164 1_566
Ba1 Se0 3.438330 1_555
Se0 V2 2.273293 1_555
Se1 V1 2.263135 1_565
Se2 V1 2.283423 1_566
Se3 V3 2.273278 1_555
Se4 V1 2.273269 1_555
Se5 V3 2.262867 1_555
Se6 V0 2.263135 1_545
Se7 V2 2.273278 1_555
Se8 V2 2.262867 1_555
Se9 V0 2.273269 1_555
Se10 V0 2.283423 1_544
Se11 V0 2.273336 1_655
Se12 V1 2.273336 1_455
Se13 V3 2.283136 1_555
Se14 V3 2.273293 1_555
Se15 V2 2.283136 1_555
