# generated using pymatgen
data_K3LuGe2O7
_symmetry_space_group_name_H-M   'P 1'
_cell_length_a   5.85558212
_cell_length_b   5.85558251
_cell_length_c   14.52290965
_cell_angle_alpha   90.00000000
_cell_angle_beta   90.00000000
_cell_angle_gamma   119.99999776
_symmetry_Int_Tables_number   1
_chemical_formula_structural   K3LuGe2O7
_chemical_formula_sum   'K6 Lu2 Ge4 O14'
_cell_volume   431.24538263
_cell_formula_units_Z   2
loop_
 _symmetry_equiv_pos_site_id
 _symmetry_equiv_pos_as_xyz
  1  'x, y, z'
loop_
 _atom_site_type_symbol
 _atom_site_label
 _atom_site_symmetry_multiplicity
 _atom_site_fract_x
 _atom_site_fract_y
 _atom_site_fract_z
 _atom_site_occupancy
  K  K0  1  0.33333300  0.66666700  0.41228579  1
  K  K1  1  0.00000000  0.00000000  0.25000000  1
  K  K2  1  0.66666700  0.33333300  0.58771421  1
  K  K3  1  0.33333300  0.66666700  0.08771421  1
  K  K4  1  0.66666700  0.33333300  0.91228579  1
  K  K5  1  0.00000000  0.00000000  0.75000000  1
  Lu  Lu0  1  0.00000000  0.00000000  0.50000000  1
  Lu  Lu1  1  0.00000000  0.00000000  0.00000000  1
  Ge  Ge0  1  0.33333300  0.66666700  0.62814978  1
  Ge  Ge1  1  0.66666700  0.33333300  0.37185022  1
  Ge  Ge2  1  0.66666700  0.33333300  0.12814978  1
  Ge  Ge3  1  0.33333300  0.66666700  0.87185022  1
  O  O0  1  0.34016603  0.17008251  0.40840194  1
  O  O1  1  0.82991749  0.17008251  0.09159806  1
  O  O2  1  0.17008251  0.34016603  0.59159806  1
  O  O3  1  0.17008251  0.82991749  0.90840194  1
  O  O4  1  0.65983397  0.82991749  0.90840194  1
  O  O5  1  0.65983397  0.82991749  0.59159806  1
  O  O6  1  0.34016603  0.17008251  0.09159806  1
  O  O7  1  0.17008251  0.82991749  0.59159806  1
  O  O8  1  0.82991749  0.17008251  0.40840194  1
  O  O9  1  0.17008251  0.34016603  0.90840194  1
  O  O10  1  0.82991749  0.65983397  0.09159806  1
  O  O11  1  0.82991749  0.65983397  0.40840194  1
  O  O12  1  0.66666700  0.33333300  0.25000000  1
  O  O13  1  0.33333300  0.66666700  0.75000000  1
loop_
_geom_bond_atom_site_label_1
_geom_bond_atom_site_label_2
_geom_bond_distance
_geom_bond_site_symmetry_2
K0 O11 2.928533 1_455
K0 O0 2.928534 1_565
K0 O8 2.928539 1_455
K0 O8 2.928539 1_565
K0 O11 2.928545 1_555
K0 O0 2.928545 1_555
K0 O5 3.085921 1_555
K0 O7 3.085921 1_555
K0 O2 3.085921 1_555
K1 O8 2.875369 1_455
K1 O1 2.875369 1_455
K1 O0 2.875372 1_555
K1 O6 2.875372 1_555
K1 O11 2.875372 1_445
K1 O10 2.875372 1_445
K2 O2 2.928533 1_655
K2 O5 2.928534 1_545
K2 O7 2.928539 1_655
K2 O7 2.928539 1_545
K2 O2 2.928545 1_555
K2 O5 2.928545 1_555
K2 O0 3.085921 1_555
K2 O8 3.085921 1_555
K2 O11 3.085921 1_555
K3 O10 2.928533 1_455
K3 O6 2.928534 1_565
K3 O1 2.928539 1_455
K3 O1 2.928539 1_565
K3 O10 2.928545 1_555
K3 O6 2.928545 1_555
K3 O4 3.085921 1_554
K3 O3 3.085921 1_554
K3 O9 3.085921 1_554
K4 O9 2.928533 1_655
K4 O4 2.928534 1_545
K4 O3 2.928539 1_655
K4 O3 2.928539 1_545
K4 O9 2.928545 1_555
K4 O4 2.928545 1_555
K4 O6 3.085921 1_556
K4 O1 3.085921 1_556
K4 O10 3.085921 1_556
K5 O3 2.875369 1_545
K5 O7 2.875369 1_545
K5 O4 2.875372 1_445
K5 O5 2.875372 1_445
K5 O9 2.875372 1_555
K5 O2 2.875372 1_555
Lu0 O7 2.178362 1_545
Lu0 O8 2.178362 1_455
Lu0 O5 2.178366 1_445
Lu0 O0 2.178366 1_555
Lu0 O2 2.178366 1_555
Lu0 O11 2.178366 1_445
Lu1 O1 2.178362 1_455
Lu1 O3 2.178362 1_544
Lu1 O6 2.178366 1_555
Lu1 O4 2.178366 1_444
Lu1 O10 2.178366 1_445
Lu1 O9 2.178366 1_554
Ge0 O5 1.738728 1_555
Ge0 O7 1.738728 1_555
Ge0 O2 1.738728 1_555
Ge0 O13 1.769620 1_555
Ge1 O0 1.738728 1_555
Ge1 O8 1.738728 1_555
Ge1 O11 1.738728 1_555
Ge1 O12 1.769620 1_555
Ge2 O6 1.738728 1_555
Ge2 O1 1.738728 1_555
Ge2 O10 1.738728 1_555
Ge2 O12 1.769620 1_555
Ge3 O4 1.738728 1_555
Ge3 O3 1.738728 1_555
Ge3 O9 1.738728 1_555
Ge3 O13 1.769620 1_555
