# generated using pymatgen
data_Sc2Cd(SbAu)4
_symmetry_space_group_name_H-M   'P 1'
_cell_length_a   7.85234986
_cell_length_b   7.85234962
_cell_length_c   7.85235010
_cell_angle_alpha   130.87350472
_cell_angle_beta   130.87349572
_cell_angle_gamma   72.01414058
_symmetry_Int_Tables_number   1
_chemical_formula_structural   Sc2Cd(SbAu)4
_chemical_formula_sum   'Sc2 Cd1 Sb4 Au4'
_cell_volume   270.72756094
_cell_formula_units_Z   1
loop_
 _symmetry_equiv_pos_site_id
 _symmetry_equiv_pos_as_xyz
  1  'x, y, z'
loop_
 _atom_site_type_symbol
 _atom_site_label
 _atom_site_symmetry_multiplicity
 _atom_site_fract_x
 _atom_site_fract_y
 _atom_site_fract_z
 _atom_site_occupancy
  Sc  Sc0  1  0.75000100  0.25000000  0.50000100  1
  Sc  Sc1  1  0.25000000  0.75000100  0.50000100  1
  Cd  Cd0  1  0.00000000  0.00000000  0.00000000  1
  Sb  Sb0  1  0.25676898  0.25676898  0.00000000  1
  Sb  Sb1  1  0.74323102  0.74323102  1.00000000  1
  Sb  Sb2  1  0.50000100  0.00000000  0.50000100  1
  Sb  Sb3  1  0.00000000  0.50000100  0.50000100  1
  Au  Au0  1  0.62331831  0.12466044  1.00000000  1
  Au  Au1  1  0.12466044  0.62331831  0.00000000  1
  Au  Au2  1  0.87533956  0.87533956  0.49865887  1
  Au  Au3  1  0.37668169  0.37668169  0.50134213  1
loop_
_geom_bond_atom_site_label_1
_geom_bond_atom_site_label_2
_geom_bond_distance
_geom_bond_site_symmetry_2
Cd0 Sb0 3.262052 1_555
Cd0 Sb1 3.262052 1_444
Cd0 Sb3 3.264195 1_544
Cd0 Sb2 3.264196 1_454
Cd0 Sb3 3.264209 1_555
Cd0 Sb2 3.264209 1_555
Sb0 Sc1 3.265328 1_544
Sb0 Sc0 3.265329 1_454
Sb0 Sc1 3.265341 1_555
Sb0 Sc0 3.265342 1_555
Sb1 Sc0 3.265335 1_566
Sb1 Sc0 3.265335 1_555
Sb1 Sc1 3.265335 1_656
Sb1 Sc1 3.265335 1_555
Sb2 Sc0 3.176057 1_555
Sb2 Sc1 3.176057 1_545
Sb3 Sc1 3.176057 1_555
Sb3 Sc0 3.176057 1_455
Au0 Sb0 2.741651 1_556
Au0 Sc1 2.794413 1_545
Au0 Sc0 2.794421 1_556
Au0 Sb2 2.808969 1_555
Au0 Sb3 2.808976 1_656
Au0 Cd0 2.814059 1_656
Au0 Sb1 2.848803 1_545
Au1 Sb0 2.741650 1_555
Au1 Sc0 2.794413 1_454
Au1 Sc1 2.794421 1_555
Au1 Sb3 2.808969 1_554
Au1 Sb2 2.808976 1_565
Au1 Cd0 2.814059 1_565
Au1 Sb1 2.848803 1_454
Au2 Sb1 2.741658 1_554
Au2 Sc0 2.794417 1_565
Au2 Sc1 2.794417 1_655
Au2 Sb3 2.808965 1_655
Au2 Sb2 2.808965 1_565
Au2 Cd0 2.814051 1_666
Au2 Sb0 2.848803 1_666
Au3 Sb1 2.741650 1_555
Au3 Sc1 2.794421 1_555
Au3 Sc0 2.794421 1_555
Au3 Sb2 2.808976 1_555
Au3 Sb3 2.808976 1_555
Au3 Cd0 2.814058 1_555
Au3 Sb0 2.848803 1_555
