# generated using pymatgen
data_Ni2As12OsRu
_symmetry_space_group_name_H-M   'P 1'
_cell_length_a   7.25739642
_cell_length_b   7.25387948
_cell_length_c   8.40074777
_cell_angle_alpha   55.14380819
_cell_angle_beta   55.12290474
_cell_angle_gamma   71.08604513
_symmetry_Int_Tables_number   1
_chemical_formula_structural   Ni2As12OsRu
_chemical_formula_sum   'Ni2 As12 Os1 Ru1'
_cell_volume   297.71919354
_cell_formula_units_Z   1
loop_
 _symmetry_equiv_pos_site_id
 _symmetry_equiv_pos_as_xyz
  1  'x, y, z'
loop_
 _atom_site_type_symbol
 _atom_site_label
 _atom_site_symmetry_multiplicity
 _atom_site_fract_x
 _atom_site_fract_y
 _atom_site_fract_z
 _atom_site_occupancy
  Ni  Ni0  1  0.00000000  0.50000000  0.50000000  1
  Ni  Ni1  1  0.50000000  0.00000000  0.50000000  1
  As  As0  1  0.14647172  0.14506377  0.19840554  1
  As  As1  1  0.85352828  0.85493623  0.80159446  1
  As  As2  1  0.85039103  0.85035640  0.49662629  1
  As  As3  1  0.14960897  0.14964360  0.50337371  1
  As  As4  1  0.80171637  0.50636488  0.34825086  1
  As  As5  1  0.19828363  0.49363512  0.65174914  1
  As  As6  1  0.50616145  0.80242245  0.34738356  1
  As  As7  1  0.49383855  0.19757755  0.65261644  1
  As  As8  1  0.65656707  0.34920654  0.84872543  1
  As  As9  1  0.34343293  0.65079346  0.15127457  1
  As  As10  1  0.65028033  0.34257099  0.15107280  1
  As  As11  1  0.34971967  0.65742901  0.84892720  1
  Os  Os0  1  0.00000000  0.50000000  0.00000000  1
  Ru  Ru0  1  0.50000000  0.00000000  0.00000000  1
loop_
_geom_bond_atom_site_label_1
_geom_bond_atom_site_label_2
_geom_bond_distance
_geom_bond_site_symmetry_2
As0 Ru0 2.414952 1_555
As0 Os0 2.425642 1_555
As0 As2 2.482627 1_445
As0 As3 2.594176 1_555
As1 Ru0 2.414952 1_566
As1 Os0 2.425642 1_656
As1 As3 2.482627 1_665
As1 As2 2.594176 1_555
As2 Ni0 2.408853 1_655
As2 Ni1 2.410147 1_565
As3 Ni0 2.408853 1_555
As3 Ni1 2.410147 1_555
As4 Ni0 2.384465 1_655
As4 Os0 2.434856 1_655
As4 As6 2.495314 1_555
As4 As7 2.590731 1_555
As5 Ni0 2.384465 1_555
As5 Os0 2.434856 1_556
As5 As7 2.495314 1_555
As5 As6 2.590731 1_555
As6 Ni1 2.386011 1_565
As6 Ru0 2.428865 1_565
As7 Ni1 2.386011 1_555
As7 Ru0 2.428865 1_556
As8 Ni0 2.396898 1_655
As8 Ru0 2.420270 1_556
As9 Ni0 2.396898 1_555
As9 Ru0 2.420270 1_565
As10 Ni1 2.394100 1_555
As10 Os0 2.427987 1_655
As10 As8 2.486939 1_554
As10 As9 2.594257 1_555
As11 Ni1 2.394100 1_565
As11 Os0 2.427987 1_556
As11 As9 2.486939 1_556
As11 As8 2.594257 1_555
