# generated using pymatgen
data_CeAlO3
_symmetry_space_group_name_H-M   'P 1'
_cell_length_a   5.31034173
_cell_length_b   5.31034336
_cell_length_c   5.31034009
_cell_angle_alpha   60.41902350
_cell_angle_beta   60.41902344
_cell_angle_gamma   60.41895289
_symmetry_Int_Tables_number   1
_chemical_formula_structural   CeAlO3
_chemical_formula_sum   'Ce2 Al2 O6'
_cell_volume   106.89261412
_cell_formula_units_Z   2
loop_
 _symmetry_equiv_pos_site_id
 _symmetry_equiv_pos_as_xyz
  1  'x, y, z'
loop_
 _atom_site_type_symbol
 _atom_site_label
 _atom_site_symmetry_multiplicity
 _atom_site_fract_x
 _atom_site_fract_y
 _atom_site_fract_z
 _atom_site_occupancy
  Ce  Ce0  1  0.75000000  0.75000000  0.75000000  1
  Ce  Ce1  1  0.25000000  0.25000000  0.25000000  1
  Al  Al0  1  0.50000000  0.50000000  0.50000000  1
  Al  Al1  1  -0.00000000  0.00000000  -0.00000000  1
  O  O0  1  0.28473130  0.75000000  0.21526870  1
  O  O1  1  0.75000000  0.21526870  0.28473130  1
  O  O2  1  0.21526870  0.28473130  0.75000000  1
  O  O3  1  0.71526870  0.25000000  0.78473130  1
  O  O4  1  0.78473130  0.71526870  0.25000000  1
  O  O5  1  0.25000000  0.78473130  0.71526870  1
loop_
_geom_bond_atom_site_label_1
_geom_bond_atom_site_label_2
_geom_bond_distance
_geom_bond_site_symmetry_2
Ce0 O2 2.486365 1_655
Ce0 O0 2.486367 1_556
Ce0 O1 2.486368 1_565
Ce0 O4 2.661649 1_556
Ce0 O4 2.661649 1_555
Ce0 O5 2.661650 1_555
Ce0 O5 2.661650 1_655
Ce0 O3 2.661651 1_565
Ce0 O3 2.661651 1_555
Ce0 O2 2.857569 1_565
Ce0 O0 2.857571 1_655
Ce0 O1 2.857572 1_556
Ce1 O4 2.486365 1_455
Ce1 O3 2.486367 1_554
Ce1 O5 2.486368 1_545
Ce1 O2 2.661649 1_554
Ce1 O2 2.661649 1_555
Ce1 O1 2.661650 1_555
Ce1 O1 2.661650 1_455
Ce1 O0 2.661651 1_545
Ce1 O0 2.661651 1_555
Ce1 O4 2.857569 1_545
Ce1 O3 2.857571 1_455
Ce1 O5 2.857572 1_554
Al0 O3 1.892560 1_555
Al0 O0 1.892560 1_555
Al0 O5 1.892560 1_555
Al0 O1 1.892560 1_555
Al0 O4 1.892562 1_555
Al0 O2 1.892562 1_555
Al1 O0 1.892560 1_545
Al1 O3 1.892560 1_454
Al1 O1 1.892560 1_455
Al1 O5 1.892560 1_544
Al1 O2 1.892562 1_554
Al1 O4 1.892562 1_445
