# generated using pymatgen
data_TiBe9V2
_symmetry_space_group_name_H-M   'P 1'
_cell_length_a   7.33747846
_cell_length_b   7.33747812
_cell_length_c   7.33747730
_cell_angle_alpha   34.61747671
_cell_angle_beta   34.61748023
_cell_angle_gamma   34.61746744
_symmetry_Int_Tables_number   1
_chemical_formula_structural   TiBe9V2
_chemical_formula_sum   'Ti1 Be9 V2'
_cell_volume   113.76089297
_cell_formula_units_Z   1
loop_
 _symmetry_equiv_pos_site_id
 _symmetry_equiv_pos_as_xyz
  1  'x, y, z'
loop_
 _atom_site_type_symbol
 _atom_site_label
 _atom_site_symmetry_multiplicity
 _atom_site_fract_x
 _atom_site_fract_y
 _atom_site_fract_z
 _atom_site_occupancy
  Ti  Ti0  1  0.00000000  0.00000000  0.00000000  1
  Be  Be0  1  0.41303663  0.92145284  0.41303663  1
  Be  Be1  1  0.41303663  0.41303663  0.92145284  1
  Be  Be2  1  0.92145284  0.41303663  0.41303663  1
  Be  Be3  1  0.58696337  0.07854716  0.58696337  1
  Be  Be4  1  0.58696337  0.58696337  0.07854716  1
  Be  Be5  1  0.07854716  0.58696337  0.58696337  1
  Be  Be6  1  0.66535667  0.66535667  0.66535667  1
  Be  Be7  1  0.33464333  0.33464333  0.33464333  1
  Be  Be8  1  0.50000000  0.50000000  0.50000000  1
  V  V0  1  0.85573569  0.85573569  0.85573569  1
  V  V1  1  0.14426431  0.14426431  0.14426431  1
loop_
_geom_bond_atom_site_label_1
_geom_bond_atom_site_label_2
_geom_bond_distance
_geom_bond_site_symmetry_2
Ti0 V1 2.982327 1_555
Ti0 V0 2.982327 1_444
Be0 Be8 2.133500 1_555
Be0 Be6 2.139111 1_555
Be0 Be2 2.146304 1_465
Be0 Be1 2.146304 1_564
Be0 Be7 2.158078 1_565
Be0 Be2 2.219796 1_555
Be0 Be1 2.219796 1_555
Be0 V1 2.497837 1_565
Be0 V0 2.511992 1_554
Be0 V0 2.511993 1_455
Be0 Ti0 2.791586 1_566
Be0 Ti0 2.791587 1_665
Be1 Be8 2.133500 1_555
Be1 Be6 2.139112 1_555
Be1 Be2 2.146304 1_456
Be1 Be7 2.158077 1_556
Be1 Be2 2.219796 1_555
Be1 V1 2.497838 1_556
Be1 V0 2.511992 1_545
Be1 V0 2.511992 1_455
Be1 Ti0 2.791586 1_566
Be1 Ti0 2.791586 1_656
Be2 Be8 2.133500 1_555
Be2 Be6 2.139111 1_555
Be2 Be7 2.158078 1_655
Be2 V1 2.497837 1_655
Be2 V0 2.511992 1_554
Be2 V0 2.511993 1_545
Be2 Ti0 2.791586 1_656
Be2 Ti0 2.791586 1_665
Be3 Be8 2.133500 1_555
Be3 Be7 2.139111 1_555
Be3 Be5 2.146304 1_645
Be3 Be4 2.146304 1_546
Be3 Be6 2.158078 1_545
Be3 Be5 2.219796 1_555
Be3 Be4 2.219796 1_555
Be3 V0 2.497837 1_545
Be3 V1 2.511992 1_556
Be3 V1 2.511993 1_655
Be3 Ti0 2.791586 1_655
Be3 Ti0 2.791587 1_556
Be4 Be8 2.133500 1_555
Be4 Be7 2.139112 1_555
Be4 Be5 2.146304 1_654
Be4 Be6 2.158077 1_554
Be4 Be5 2.219796 1_555
Be4 V0 2.497838 1_554
Be4 V1 2.511992 1_565
Be4 V1 2.511992 1_655
Be4 Ti0 2.791586 1_655
Be4 Ti0 2.791586 1_565
Be5 Be8 2.133500 1_555
Be5 Be7 2.139111 1_555
Be5 Be6 2.158078 1_455
Be5 V0 2.497837 1_455
Be5 V1 2.511992 1_556
Be5 V1 2.511993 1_565
Be5 Ti0 2.791586 1_565
Be5 Ti0 2.791586 1_556
Be6 Ti0 2.520914 1_656
Be6 Ti0 2.520914 1_566
Be6 Ti0 2.520915 1_665
Be6 Be7 2.521350 1_565
Be6 Be7 2.521351 1_655
Be6 Be7 2.521351 1_556
Be7 Ti0 2.520914 1_565
Be7 Ti0 2.520914 1_655
Be7 Ti0 2.520915 1_556
Be8 V0 2.562957 1_545
Be8 V1 2.562957 1_565
Be8 V0 2.562958 1_455
Be8 V1 2.562958 1_655
Be8 V0 2.562958 1_554
Be8 V1 2.562958 1_556
V0 V1 2.685550 1_656
V0 V1 2.685551 1_665
V0 V1 2.685551 1_566
