# generated using pymatgen
data_Hf2Cu
_symmetry_space_group_name_H-M   'P 1'
_cell_length_a   6.30567044
_cell_length_b   6.30566902
_cell_length_c   11.97970274
_cell_angle_alpha   105.25893970
_cell_angle_beta   105.25893362
_cell_angle_gamma   89.99999434
_symmetry_Int_Tables_number   1
_chemical_formula_structural   Hf2Cu
_chemical_formula_sum   'Hf16 Cu8'
_cell_volume   442.10839792
_cell_formula_units_Z   8
loop_
 _symmetry_equiv_pos_site_id
 _symmetry_equiv_pos_as_xyz
  1  'x, y, z'
loop_
 _atom_site_type_symbol
 _atom_site_label
 _atom_site_symmetry_multiplicity
 _atom_site_fract_x
 _atom_site_fract_y
 _atom_site_fract_z
 _atom_site_occupancy
  Hf  Hf0_0  1  0.17194455  0.17194455  0.34388960  1
  Hf  Hf0_1  1  0.17194455  0.17194455  0.84388960  1
  Hf  Hf0_2  1  0.17194455  0.67194455  0.34388960  1
  Hf  Hf0_3  1  0.17194455  0.67194455  0.84388960  1
  Hf  Hf0_4  1  0.67194455  0.17194455  0.34388960  1
  Hf  Hf0_5  1  0.67194455  0.17194455  0.84388960  1
  Hf  Hf0_6  1  0.67194455  0.67194455  0.34388960  1
  Hf  Hf0_7  1  0.67194455  0.67194455  0.84388960  1
  Hf  Hf1_0  1  0.32805545  0.32805545  0.15611040  1
  Hf  Hf1_1  1  0.32805545  0.32805545  0.65611040  1
  Hf  Hf1_2  1  0.32805545  0.82805545  0.15611040  1
  Hf  Hf1_3  1  0.32805545  0.82805545  0.65611040  1
  Hf  Hf1_4  1  0.82805545  0.32805545  0.15611040  1
  Hf  Hf1_5  1  0.82805545  0.32805545  0.65611040  1
  Hf  Hf1_6  1  0.82805545  0.82805545  0.15611040  1
  Hf  Hf1_7  1  0.82805545  0.82805545  0.65611040  1
  Cu  Cu0_0  1  0.00000000  0.00000000  0.00000000  1
  Cu  Cu0_1  1  0.00000000  0.00000000  0.50000000  1
  Cu  Cu0_2  1  0.00000000  0.50000000  0.00000000  1
  Cu  Cu0_3  1  0.00000000  0.50000000  0.50000000  1
  Cu  Cu0_4  1  0.50000000  0.00000000  0.00000000  1
  Cu  Cu0_5  1  0.50000000  0.00000000  0.50000000  1
  Cu  Cu0_6  1  0.50000000  0.50000000  0.00000000  1
  Cu  Cu0_7  1  0.50000000  0.50000000  0.50000000  1
loop_
_geom_bond_atom_site_label_1
_geom_bond_atom_site_label_2
_geom_bond_distance
_geom_bond_site_symmetry_2
Hf0_0 Hf1_6 3.054434 1_445
Hf0_0 Hf1_2 3.054438 1_545
Hf0_0 Hf1_4 3.054438 1_455
Hf0_0 Hf1_0 3.054442 1_555
Hf0_0 Hf0_2 3.152835 1_545
Hf0_0 Hf0_2 3.152835 1_555
Hf0_0 Hf0_4 3.152835 1_455
Hf0_0 Hf0_4 3.152835 1_555
Hf0_1 Hf1_7 3.054434 1_445
Hf0_1 Hf1_3 3.054438 1_545
Hf0_1 Hf1_5 3.054438 1_455
Hf0_1 Hf1_1 3.054442 1_555
Hf0_1 Hf0_3 3.152835 1_545
Hf0_1 Hf0_3 3.152835 1_555
Hf0_1 Hf0_5 3.152835 1_455
Hf0_1 Hf0_5 3.152835 1_555
Hf0_2 Hf1_4 3.054434 1_455
Hf0_2 Hf1_0 3.054438 1_555
Hf0_2 Hf1_6 3.054438 1_455
Hf0_2 Hf1_2 3.054442 1_555
Hf0_2 Hf0_6 3.152835 1_455
Hf0_2 Hf0_6 3.152835 1_555
Hf0_3 Hf1_5 3.054434 1_455
Hf0_3 Hf1_1 3.054438 1_555
Hf0_3 Hf1_7 3.054438 1_455
Hf0_3 Hf1_3 3.054442 1_555
Hf0_3 Hf0_7 3.152835 1_555
Hf0_3 Hf0_7 3.152835 1_455
Hf0_4 Hf1_2 3.054434 1_545
Hf0_4 Hf1_6 3.054438 1_545
Hf0_4 Hf1_0 3.054438 1_555
Hf0_4 Hf1_4 3.054442 1_555
Hf0_4 Hf0_6 3.152835 1_545
Hf0_4 Hf0_6 3.152835 1_555
Hf0_5 Hf1_3 3.054434 1_545
Hf0_5 Hf1_7 3.054438 1_545
Hf0_5 Hf1_1 3.054438 1_555
Hf0_5 Hf1_5 3.054442 1_555
Hf0_5 Hf0_7 3.152835 1_545
Hf0_5 Hf0_7 3.152835 1_555
Hf0_6 Hf1_0 3.054434 1_555
Hf0_6 Hf1_4 3.054438 1_555
Hf0_6 Hf1_2 3.054438 1_555
Hf0_6 Hf1_6 3.054442 1_555
Hf0_7 Hf1_1 3.054434 1_555
Hf0_7 Hf1_5 3.054438 1_555
Hf0_7 Hf1_3 3.054438 1_555
Hf0_7 Hf1_7 3.054442 1_555
Hf1_0 Hf1_2 3.152835 1_555
Hf1_0 Hf1_2 3.152835 1_545
Hf1_0 Hf1_4 3.152835 1_455
Hf1_0 Hf1_4 3.152835 1_555
Hf1_1 Hf1_3 3.152835 1_545
Hf1_1 Hf1_3 3.152835 1_555
Hf1_1 Hf1_5 3.152835 1_555
Hf1_1 Hf1_5 3.152835 1_455
Hf1_2 Hf1_6 3.152835 1_555
Hf1_2 Hf1_6 3.152835 1_455
Hf1_3 Hf1_7 3.152835 1_455
Hf1_3 Hf1_7 3.152835 1_555
Hf1_4 Hf1_6 3.152835 1_545
Hf1_4 Hf1_6 3.152835 1_555
Hf1_5 Hf1_7 3.152835 1_545
Hf1_5 Hf1_7 3.152835 1_555
Cu0_0 Hf1_6 2.825448 1_445
Cu0_0 Hf0_1 2.825448 1_554
Cu0_0 Hf1_4 2.825449 1_455
Cu0_0 Hf0_3 2.825449 1_544
Cu0_0 Hf1_2 2.825449 1_545
Cu0_0 Hf0_5 2.825449 1_454
Cu0_0 Hf1_0 2.825451 1_555
Cu0_0 Hf0_7 2.825451 1_444
Cu0_0 Cu0_2 3.152835 1_555
Cu0_0 Cu0_2 3.152835 1_545
Cu0_0 Cu0_4 3.152835 1_455
Cu0_0 Cu0_4 3.152835 1_555
Cu0_1 Hf1_7 2.825448 1_445
Cu0_1 Hf0_0 2.825448 1_555
Cu0_1 Hf1_5 2.825449 1_455
Cu0_1 Hf0_2 2.825449 1_545
Cu0_1 Hf1_3 2.825449 1_545
Cu0_1 Hf0_4 2.825449 1_455
Cu0_1 Hf1_1 2.825451 1_555
Cu0_1 Hf0_6 2.825451 1_445
Cu0_1 Cu0_3 3.152835 1_555
Cu0_1 Cu0_3 3.152835 1_545
Cu0_1 Cu0_5 3.152835 1_555
Cu0_1 Cu0_5 3.152835 1_455
Cu0_2 Hf1_4 2.825448 1_455
Cu0_2 Hf0_3 2.825448 1_554
Cu0_2 Hf1_6 2.825449 1_455
Cu0_2 Hf0_1 2.825449 1_554
Cu0_2 Hf1_0 2.825449 1_555
Cu0_2 Hf0_7 2.825449 1_454
Cu0_2 Hf1_2 2.825451 1_555
Cu0_2 Hf0_5 2.825451 1_454
Cu0_2 Cu0_6 3.152835 1_455
Cu0_2 Cu0_6 3.152835 1_555
Cu0_3 Hf1_5 2.825448 1_455
Cu0_3 Hf0_2 2.825448 1_555
Cu0_3 Hf1_7 2.825449 1_455
Cu0_3 Hf0_0 2.825449 1_555
Cu0_3 Hf1_1 2.825449 1_555
Cu0_3 Hf0_6 2.825449 1_455
Cu0_3 Hf1_3 2.825451 1_555
Cu0_3 Hf0_4 2.825451 1_455
Cu0_3 Cu0_7 3.152835 1_555
Cu0_3 Cu0_7 3.152835 1_455
Cu0_4 Hf1_2 2.825448 1_545
Cu0_4 Hf0_5 2.825448 1_554
Cu0_4 Hf1_0 2.825449 1_555
Cu0_4 Hf0_7 2.825449 1_544
Cu0_4 Hf1_6 2.825449 1_545
Cu0_4 Hf0_1 2.825449 1_554
Cu0_4 Hf1_4 2.825451 1_555
Cu0_4 Hf0_3 2.825451 1_544
Cu0_4 Cu0_6 3.152835 1_555
Cu0_4 Cu0_6 3.152835 1_545
Cu0_5 Hf1_3 2.825448 1_545
Cu0_5 Hf0_4 2.825448 1_555
Cu0_5 Hf1_1 2.825449 1_555
Cu0_5 Hf0_6 2.825449 1_545
Cu0_5 Hf1_7 2.825449 1_545
Cu0_5 Hf0_0 2.825449 1_555
Cu0_5 Hf1_5 2.825451 1_555
Cu0_5 Hf0_2 2.825451 1_545
Cu0_5 Cu0_7 3.152835 1_545
Cu0_5 Cu0_7 3.152835 1_555
Cu0_6 Hf1_0 2.825448 1_555
Cu0_6 Hf0_7 2.825448 1_554
Cu0_6 Hf1_2 2.825449 1_555
Cu0_6 Hf0_5 2.825449 1_554
Cu0_6 Hf1_4 2.825449 1_555
Cu0_6 Hf0_3 2.825449 1_554
Cu0_6 Hf1_6 2.825451 1_555
Cu0_6 Hf0_1 2.825451 1_554
Cu0_7 Hf1_1 2.825448 1_555
Cu0_7 Hf0_6 2.825448 1_555
Cu0_7 Hf1_3 2.825449 1_555
Cu0_7 Hf0_4 2.825449 1_555
Cu0_7 Hf1_5 2.825449 1_555
Cu0_7 Hf0_2 2.825449 1_555
Cu0_7 Hf1_7 2.825451 1_555
Cu0_7 Hf0_0 2.825451 1_555
