# generated using pymatgen
data_P2Pb8O13
_symmetry_space_group_name_H-M   'P 1'
_cell_length_a   7.56432194
_cell_length_b   7.56432194
_cell_length_c   14.69033948
_cell_angle_alpha   84.10290676
_cell_angle_beta   84.10290676
_cell_angle_gamma   87.67348802
_symmetry_Int_Tables_number   1
_chemical_formula_structural   P2Pb8O13
_chemical_formula_sum   'P4 Pb16 O26'
_cell_volume   831.30972972
_cell_formula_units_Z   2
loop_
 _symmetry_equiv_pos_site_id
 _symmetry_equiv_pos_as_xyz
  1  'x, y, z'
loop_
 _atom_site_type_symbol
 _atom_site_label
 _atom_site_symmetry_multiplicity
 _atom_site_fract_x
 _atom_site_fract_y
 _atom_site_fract_z
 _atom_site_occupancy
  P  P0  1  0.25251800  0.74748200  0.50000000  1
  P  P1  1  0.74748200  0.25251800  0.50000000  1
  P  P2  1  0.15888700  0.15888700  0.90016300  1
  P  P3  1  0.84111300  0.84111300  0.09983700  1
  Pb  Pb0  1  0.07447800  0.54522100  0.29650200  1
  Pb  Pb1  1  0.45477900  0.92552200  0.70349800  1
  Pb  Pb2  1  0.92552200  0.45477900  0.70349800  1
  Pb  Pb3  1  0.54522100  0.07447800  0.29650200  1
  Pb  Pb4  1  0.15428700  0.67567000  0.90566500  1
  Pb  Pb5  1  0.32433000  0.84571300  0.09433500  1
  Pb  Pb6  1  0.84571300  0.32433000  0.09433500  1
  Pb  Pb7  1  0.67567000  0.15428700  0.90566500  1
  Pb  Pb8  1  0.43248100  0.43248100  0.71555700  1
  Pb  Pb9  1  0.56751900  0.56751900  0.28444300  1
  Pb  Pb10  1  0.73430400  0.73430400  0.51299300  1
  Pb  Pb11  1  0.26569600  0.26569600  0.48700700  1
  Pb  Pb12  1  0.33269600  0.33269600  0.11578600  1
  Pb  Pb13  1  0.66730400  0.66730400  0.88421400  1
  Pb  Pb14  1  0.92802300  0.92802300  0.69454700  1
  Pb  Pb15  1  0.07197700  0.07197700  0.30545300  1
  O  O0  1  0.92607100  0.26305500  0.43671000  1
  O  O1  1  0.73694500  0.07392900  0.56329000  1
  O  O2  1  0.07392900  0.73694500  0.56329000  1
  O  O3  1  0.26305500  0.92607100  0.43671000  1
  O  O4  1  0.29937800  0.29937800  0.86031100  1
  O  O5  1  0.70062200  0.70062200  0.13968900  1
  O  O6  1  0.02334500  0.77904500  0.13658800  1
  O  O7  1  0.22095500  0.97665500  0.86341200  1
  O  O8  1  0.97665500  0.22095500  0.86341200  1
  O  O9  1  0.77904500  0.02334500  0.13658800  1
  O  O10  1  0.14624700  0.14624700  0.00683600  1
  O  O11  1  0.85375300  0.85375300  0.99316400  1
  O  O12  1  0.32660000  0.60943600  0.20704500  1
  O  O13  1  0.39056400  0.67340000  0.79295500  1
  O  O14  1  0.67340000  0.39056400  0.79295500  1
  O  O15  1  0.60943600  0.32660000  0.20704500  1
  O  O16  1  0.72721900  0.72721900  0.66321900  1
  O  O17  1  0.27278100  0.27278100  0.33678100  1
  O  O18  1  0.26792100  0.58829500  0.43839600  1
  O  O19  1  0.41170500  0.73207900  0.56160400  1
  O  O20  1  0.32968700  0.04651300  0.19508700  1
  O  O21  1  0.95348700  0.67031300  0.80491300  1
  O  O22  1  0.67031300  0.95348700  0.80491300  1
  O  O23  1  0.04651300  0.32968700  0.19508700  1
  O  O24  1  0.58829500  0.26792100  0.43839600  1
  O  O25  1  0.73207900  0.41170500  0.56160400  1
loop_
_geom_bond_atom_site_label_1
_geom_bond_atom_site_label_2
_geom_bond_distance
_geom_bond_site_symmetry_2
O0 P1 1.559218 1_555
O0 Pb15 2.651619 1_655
O0 Pb11 2.746548 1_655
O1 P1 1.559218 1_555
O1 Pb14 2.651619 1_545
O1 Pb10 2.746548 1_545
O2 P0 1.559218 1_555
O2 Pb14 2.651619 1_455
O2 Pb10 2.746548 1_455
O3 P0 1.559218 1_555
O3 Pb15 2.651619 1_565
O3 Pb11 2.746548 1_565
O4 P2 1.561246 1_555
O4 Pb8 2.398287 1_555
O5 P3 1.561246 1_555
O5 Pb9 2.398287 1_555
O6 P3 1.568553 1_455
O6 Pb5 2.358322 1_555
O7 P2 1.568553 1_565
O7 Pb4 2.358322 1_555
O8 P2 1.568553 1_655
O8 Pb7 2.358322 1_555
O9 P3 1.568553 1_545
O9 Pb6 2.358322 1_555
O10 P2 1.553427 1_554
O10 Pb12 2.762072 1_555
O11 P3 1.553427 1_556
O11 Pb13 2.762072 1_555
O12 Pb9 2.240356 1_555
O12 Pb0 2.242575 1_555
O12 Pb5 2.308986 1_555
O12 Pb12 2.595698 1_555
O13 Pb8 2.240356 1_555
O13 Pb1 2.242575 1_555
O13 Pb4 2.308986 1_555
O13 Pb13 2.595698 1_555
O14 Pb8 2.240356 1_555
O14 Pb2 2.242575 1_555
O14 Pb7 2.308986 1_555
O14 Pb13 2.595698 1_555
O15 Pb9 2.240356 1_555
O15 Pb3 2.242575 1_555
O15 Pb6 2.308986 1_555
O15 Pb12 2.595698 1_555
O16 Pb10 2.197191 1_555
O16 Pb14 2.302347 1_555
O16 Pb1 2.555003 1_555
O16 Pb2 2.555003 1_555
O17 Pb11 2.197191 1_555
O17 Pb15 2.302347 1_555
O17 Pb3 2.555003 1_555
O17 Pb0 2.555003 1_555
O18 P0 1.572702 1_555
O18 Pb11 2.471398 1_555
O18 Pb0 2.719807 1_555
O19 P0 1.572702 1_555
O19 Pb10 2.471398 1_555
O19 Pb1 2.719807 1_555
O20 Pb5 2.231291 1_545
O20 Pb3 2.348252 1_555
O20 Pb12 2.350376 1_555
O20 Pb15 2.418711 1_555
O21 Pb4 2.231291 1_655
O21 Pb2 2.348252 1_555
O21 Pb13 2.350376 1_555
O21 Pb14 2.418711 1_555
O22 Pb7 2.231291 1_565
O22 Pb1 2.348252 1_555
O22 Pb13 2.350376 1_555
O22 Pb14 2.418711 1_555
O23 Pb6 2.231291 1_455
O23 Pb0 2.348252 1_555
O23 Pb12 2.350376 1_555
O23 Pb15 2.418711 1_555
O24 P1 1.572702 1_555
O24 Pb11 2.471398 1_555
O24 Pb3 2.719807 1_555
O25 P1 1.572702 1_555
O25 Pb10 2.471398 1_555
O25 Pb2 2.719807 1_555
