# generated using pymatgen
data_RbCd12Au
_symmetry_space_group_name_H-M   'P 1'
_cell_length_a   9.78602138
_cell_length_b   9.78602161
_cell_length_c   9.78602185
_cell_angle_alpha   60.00000246
_cell_angle_beta   60.00000168
_cell_angle_gamma   60.00000003
_symmetry_Int_Tables_number   1
_chemical_formula_structural   RbCd12Au
_chemical_formula_sum   'Rb2 Cd24 Au2'
_cell_volume   662.67948750
_cell_formula_units_Z   2
loop_
 _symmetry_equiv_pos_site_id
 _symmetry_equiv_pos_as_xyz
  1  'x, y, z'
loop_
 _atom_site_type_symbol
 _atom_site_label
 _atom_site_symmetry_multiplicity
 _atom_site_fract_x
 _atom_site_fract_y
 _atom_site_fract_z
 _atom_site_occupancy
  Rb  Rb0  1  0.25000000  0.25000000  0.25000000  1
  Rb  Rb1  1  0.75000000  0.75000000  0.75000000  1
  Cd  Cd0  1  0.44109680  0.20145277  0.79854723  1
  Cd  Cd1  1  0.94109680  0.70145277  0.05890320  1
  Cd  Cd2  1  0.70145277  0.94109680  0.29854723  1
  Cd  Cd3  1  0.29854723  0.70145277  0.94109680  1
  Cd  Cd4  1  0.94109680  0.05890320  0.29854723  1
  Cd  Cd5  1  0.70145277  0.05890320  0.94109680  1
  Cd  Cd6  1  0.29854723  0.94109680  0.05890320  1
  Cd  Cd7  1  0.79854723  0.44109680  0.20145277  1
  Cd  Cd8  1  0.20145277  0.79854723  0.44109680  1
  Cd  Cd9  1  0.44109680  0.55890320  0.20145277  1
  Cd  Cd10  1  0.44109680  0.79854723  0.55890320  1
  Cd  Cd11  1  0.20145277  0.55890320  0.79854723  1
  Cd  Cd12  1  0.55890320  0.44109680  0.79854723  1
  Cd  Cd13  1  0.55890320  0.20145277  0.44109680  1
  Cd  Cd14  1  0.79854723  0.20145277  0.55890320  1
  Cd  Cd15  1  0.05890320  0.94109680  0.70145277  1
  Cd  Cd16  1  0.05890320  0.29854723  0.94109680  1
  Cd  Cd17  1  0.94109680  0.29854723  0.70145277  1
  Cd  Cd18  1  0.05890320  0.70145277  0.29854723  1
  Cd  Cd19  1  0.29854723  0.05890320  0.70145277  1
  Cd  Cd20  1  0.70145277  0.29854723  0.05890320  1
  Cd  Cd21  1  0.20145277  0.44109680  0.55890320  1
  Cd  Cd22  1  0.79854723  0.55890320  0.44109680  1
  Cd  Cd23  1  0.55890320  0.79854723  0.20145277  1
  Au  Au0  1  0.00000000  0.00000000  0.00000000  1
  Au  Au1  1  0.50000000  0.50000000  0.50000000  1
loop_
_geom_bond_atom_site_label_1
_geom_bond_atom_site_label_2
_geom_bond_distance
_geom_bond_site_symmetry_2
Cd0 Cd5 2.904745 1_555
Cd0 Cd6 2.904745 1_546
Cd0 Cd16 3.064604 1_555
Cd0 Cd19 3.064604 1_555
Cd0 Cd12 3.087474 1_555
Cd0 Cd11 3.087474 1_555
Cd0 Cd14 3.087474 1_555
Cd0 Cd13 3.087474 1_555
Cd0 Cd21 3.316559 1_555
Cd0 Rb1 4.023624 1_545
Cd0 Rb0 4.023624 1_556
Cd1 Cd7 2.904745 1_555
Cd1 Cd11 2.904745 1_654
Cd1 Cd23 3.064604 1_555
Cd1 Cd22 3.064604 1_555
Cd1 Cd3 3.087474 1_654
Cd1 Cd18 3.087474 1_655
Cd1 Cd5 3.087474 1_564
Cd1 Cd15 3.087474 1_654
Cd1 Cd2 3.316559 1_555
Cd1 Rb1 4.023624 1_554
Cd1 Rb0 4.023624 1_655
Cd2 Cd23 3.064604 1_555
Cd2 Cd22 3.064604 1_555
Cd2 Cd4 3.087474 1_565
Cd2 Cd20 3.087474 1_565
Cd2 Cd5 3.087474 1_564
Cd2 Rb0 4.023624 1_565
Cd2 Rb1 4.023624 1_555
Cd3 Cd9 2.904745 1_556
Cd3 Cd6 3.087474 1_556
Cd3 Rb1 4.023624 1_555
Cd3 Rb0 4.023624 1_556
Cd4 Cd8 2.904745 1_645
Cd4 Cd7 3.064604 1_555
Cd4 Cd6 3.087474 1_645
Cd4 Rb0 4.023624 1_655
Cd4 Rb1 4.023624 1_545
Cd5 Rb1 4.023624 1_545
Cd5 Rb0 4.023624 1_556
Cd6 Cd9 3.064604 1_555
Cd6 Cd8 3.064604 1_555
Cd6 Rb0 4.023624 1_565
Cd6 Rb1 4.023624 1_554
Cd7 Cd9 3.087474 1_555
Cd7 Rb0 4.023624 1_655
Cd7 Rb1 4.023624 1_554
Cd8 Cd9 3.316559 1_555
Cd8 Rb1 4.023624 1_455
Cd8 Rb0 4.023624 1_565
Cd9 Rb0 4.023624 1_555
Cd9 Rb1 4.023624 1_554
Cd10 Cd19 2.904745 1_565
Cd10 Cd2 2.904745 1_555
Cd10 Cd15 3.064604 1_555
Cd10 Cd3 3.064604 1_555
Cd10 Cd8 3.087474 1_555
Cd10 Cd22 3.087474 1_555
Cd10 Cd12 3.087474 1_555
Cd10 Cd23 3.087474 1_555
Cd10 Cd11 3.316559 1_555
Cd10 Rb1 4.023624 1_555
Cd10 Rb0 4.023624 1_565
Cd11 Cd16 2.904745 1_555
Cd11 Cd3 3.064604 1_555
Cd11 Cd15 3.064604 1_555
Cd11 Cd12 3.087474 1_555
Cd11 Cd21 3.087474 1_555
Cd11 Cd8 3.087474 1_555
Cd11 Rb1 4.023624 1_455
Cd11 Rb0 4.023624 1_556
Cd12 Cd3 2.904745 1_555
Cd12 Cd20 2.904745 1_556
Cd12 Cd17 3.064604 1_555
Cd12 Cd5 3.064604 1_555
Cd12 Cd22 3.087474 1_555
Cd12 Cd14 3.316559 1_555
Cd12 Rb1 4.023624 1_555
Cd12 Rb0 4.023624 1_556
Cd13 Cd2 2.904745 1_545
Cd13 Cd19 2.904745 1_555
Cd13 Cd4 3.064604 1_555
Cd13 Cd20 3.064604 1_555
Cd13 Cd14 3.087474 1_555
Cd13 Cd21 3.087474 1_555
Cd13 Cd9 3.087474 1_555
Cd13 Cd7 3.316559 1_555
Cd13 Rb0 4.023624 1_555
Cd13 Rb1 4.023624 1_545
Cd14 Cd15 2.904745 1_645
Cd14 Cd4 2.904745 1_555
Cd14 Cd17 3.064604 1_555
Cd14 Cd5 3.064604 1_555
Cd14 Cd22 3.087474 1_555
Cd14 Cd7 3.087474 1_555
Cd14 Rb0 4.023624 1_655
Cd14 Rb1 4.023624 1_545
Cd15 Cd8 2.904745 1_555
Cd15 Cd19 3.087474 1_565
Cd15 Cd17 3.087474 1_465
Cd15 Cd5 3.087474 1_465
Cd15 Cd3 3.316559 1_555
Cd15 Rb1 4.023624 1_455
Cd15 Rb0 4.023624 1_565
Cd16 Cd7 2.904745 1_456
Cd16 Cd21 3.064604 1_555
Cd16 Cd20 3.087474 1_456
Cd16 Cd17 3.087474 1_455
Cd16 Cd6 3.087474 1_546
Cd16 Cd4 3.087474 1_456
Cd16 Cd19 3.316559 1_555
Cd16 Rb0 4.023624 1_556
Cd16 Rb1 4.023624 1_455
Cd17 Cd21 2.904745 1_655
Cd17 Cd22 2.904745 1_555
Cd17 Cd19 3.087474 1_655
Cd17 Cd20 3.087474 1_556
Cd17 Cd5 3.316559 1_555
Cd17 Rb1 4.023624 1_555
Cd17 Rb0 4.023624 1_655
Cd18 Cd22 2.904745 1_455
Cd18 Cd21 2.904745 1_555
Cd18 Cd9 3.064604 1_555
Cd18 Cd8 3.064604 1_555
Cd18 Cd2 3.087474 1_455
Cd18 Cd4 3.087474 1_465
Cd18 Cd3 3.087474 1_554
Cd18 Cd6 3.316559 1_555
Cd18 Rb0 4.023624 1_555
Cd18 Rb1 4.023624 1_455
Cd19 Cd21 3.064604 1_555
Cd19 Cd3 3.087474 1_545
Cd19 Cd6 3.087474 1_546
Cd19 Rb1 4.023624 1_545
Cd19 Rb0 4.023624 1_555
Cd20 Cd9 2.904745 1_555
Cd20 Cd7 3.064604 1_555
Cd20 Cd5 3.087474 1_554
Cd20 Cd4 3.316559 1_555
Cd20 Rb0 4.023624 1_555
Cd20 Rb1 4.023624 1_554
Cd21 Cd8 3.087474 1_555
Cd21 Cd9 3.087474 1_555
Cd21 Rb1 4.023624 1_455
Cd21 Rb0 4.023624 1_555
Cd22 Cd7 3.087474 1_555
Cd22 Cd23 3.316559 1_555
Cd22 Rb0 4.023624 1_655
Cd22 Rb1 4.023624 1_555
Cd23 Cd6 2.904745 1_555
Cd23 Cd5 2.904745 1_564
Cd23 Cd9 3.087474 1_555
Cd23 Cd7 3.087474 1_555
Cd23 Cd8 3.087474 1_555
Cd23 Rb0 4.023624 1_565
Cd23 Rb1 4.023624 1_554
Au0 Cd6 2.977911 1_545
Au0 Cd5 2.977911 1_454
Au0 Cd20 2.977911 1_455
Au0 Cd3 2.977911 1_544
Au0 Cd16 2.977911 1_554
Au0 Cd1 2.977911 1_445
Au0 Cd4 2.977911 1_455
Au0 Cd15 2.977911 1_544
Au0 Cd19 2.977911 1_554
Au0 Cd2 2.977911 1_445
Au0 Cd18 2.977911 1_545
Au0 Cd17 2.977911 1_454
Au1 Cd22 2.977911 1_555
Au1 Cd21 2.977911 1_555
Au1 Cd14 2.977911 1_555
Au1 Cd8 2.977911 1_555
Au1 Cd10 2.977911 1_555
Au1 Cd13 2.977911 1_555
Au1 Cd11 2.977911 1_555
Au1 Cd7 2.977911 1_555
Au1 Cd12 2.977911 1_555
Au1 Cd9 2.977911 1_555
Au1 Cd23 2.977911 1_555
Au1 Cd0 2.977911 1_555
