# generated using pymatgen
data_LuGePRu2
_symmetry_space_group_name_H-M   'P 1'
_cell_length_a   5.59132878
_cell_length_b   5.59132887
_cell_length_c   5.59132792
_cell_angle_alpha   136.89606871
_cell_angle_beta   136.89605769
_cell_angle_gamma   62.59800925
_symmetry_Int_Tables_number   1
_chemical_formula_structural   LuGePRu2
_chemical_formula_sum   'Lu1 Ge1 P1 Ru2'
_cell_volume   80.62114793
_cell_formula_units_Z   1
loop_
 _symmetry_equiv_pos_site_id
 _symmetry_equiv_pos_as_xyz
  1  'x, y, z'
loop_
 _atom_site_type_symbol
 _atom_site_label
 _atom_site_symmetry_multiplicity
 _atom_site_fract_x
 _atom_site_fract_y
 _atom_site_fract_z
 _atom_site_occupancy
  Lu  Lu0  1  0.99783385  0.99783385  0.00000000  1
  Ge  Ge0  1  0.62025155  0.62025155  1.00000000  1
  P  P0  1  0.36683621  0.36683621  0.00000000  1
  Ru  Ru0  1  0.25753869  0.75753869  0.50000000  1
  Ru  Ru1  1  0.75753869  0.25753869  0.50000000  1
loop_
_geom_bond_atom_site_label_1
_geom_bond_atom_site_label_2
_geom_bond_distance
_geom_bond_site_symmetry_2
Lu0 Ru1 3.080689 1_565
Lu0 Ru0 3.080690 1_655
Lu0 Ru1 3.080690 1_554
Lu0 Ru0 3.080690 1_554
Lu0 P0 3.162937 1_666
Lu0 P0 3.162937 1_554
Lu0 P0 3.162938 1_565
Lu0 P0 3.162938 1_655
Lu0 Ru0 3.221292 1_654
Lu0 Ru1 3.221292 1_564
Lu0 Ru0 3.221292 1_665
Lu0 Ru1 3.221293 1_665
Ge0 P0 2.421440 1_556
Ge0 Ru1 2.437117 1_555
Ge0 Ru1 2.437117 1_566
Ge0 Ru0 2.437117 1_555
Ge0 Ru0 2.437117 1_656
Ge0 Lu0 3.131398 1_557
Ge0 Lu0 3.131398 1_445
Ge0 Lu0 3.131399 1_456
Ge0 Lu0 3.131399 1_546
P0 Ru0 2.304211 1_555
P0 Ru0 2.304211 1_544
P0 Ru1 2.304211 1_555
P0 Ru1 2.304211 1_454
