# generated using pymatgen
data_VNi7RhS8
_symmetry_space_group_name_H-M   'P 1'
_cell_length_a   7.07302122
_cell_length_b   7.13497910
_cell_length_c   7.13497812
_cell_angle_alpha   60.00000454
_cell_angle_beta   59.70980895
_cell_angle_gamma   59.70980228
_symmetry_Int_Tables_number   1
_chemical_formula_structural   VNi7RhS8
_chemical_formula_sum   'V1 Ni7 Rh1 S8'
_cell_volume   253.48741224
_cell_formula_units_Z   1
loop_
 _symmetry_equiv_pos_site_id
 _symmetry_equiv_pos_as_xyz
  1  'x, y, z'
loop_
 _atom_site_type_symbol
 _atom_site_label
 _atom_site_symmetry_multiplicity
 _atom_site_fract_x
 _atom_site_fract_y
 _atom_site_fract_z
 _atom_site_occupancy
  V  V0  1  0.60635660  0.13121480  0.13121480  1
  Ni  Ni0  1  0.12801419  0.62922100  0.12138290  1
  Ni  Ni1  1  0.12801419  0.12138290  0.62922100  1
  Ni  Ni2  1  0.12801419  0.12138290  0.12138290  1
  Ni  Ni3  1  0.39109836  0.86963321  0.86963321  1
  Ni  Ni4  1  0.87942990  0.37741512  0.87157649  1
  Ni  Ni5  1  0.87942990  0.87157649  0.37741512  1
  Ni  Ni6  1  0.87942990  0.87157649  0.87157649  1
  Rh  Rh0  1  0.48845282  0.50384906  0.50384906  1
  S  S0  1  0.23204050  0.25598650  0.25598650  1
  S  S1  1  0.76600904  0.74466332  0.74466332  1
  S  S2  1  0.73690390  0.25686913  0.25686913  1
  S  S3  1  0.73690390  0.25686913  0.74935884  1
  S  S4  1  0.73690390  0.74935884  0.25686913  1
  S  S5  1  0.26099990  0.74282464  0.74282464  1
  S  S6  1  0.26099990  0.74282464  0.25334982  1
  S  S7  1  0.26099990  0.25334982  0.74282464  1
loop_
_geom_bond_atom_site_label_1
_geom_bond_atom_site_label_2
_geom_bond_distance
_geom_bond_site_symmetry_2
Ni0 S0 2.175805 1_555
Ni0 S6 2.203192 1_555
Ni0 S5 2.203204 1_554
Ni0 S4 2.249631 1_455
Ni1 S0 2.175804 1_555
Ni1 S7 2.203192 1_555
Ni1 S5 2.203204 1_545
Ni1 S3 2.249631 1_455
Ni2 S0 2.175798 1_555
Ni2 S7 2.203204 1_554
Ni2 S6 2.203204 1_545
Ni2 S2 2.249631 1_455
Ni3 S1 2.155600 1_555
Ni3 S5 2.232113 1_555
Ni3 S6 2.232118 1_556
Ni3 S7 2.232118 1_565
Ni4 S1 2.137547 1_555
Ni4 S7 2.193974 1_655
Ni4 S3 2.242290 1_555
Ni4 S2 2.242307 1_556
Ni5 S1 2.137547 1_555
Ni5 S6 2.193974 1_655
Ni5 S4 2.242290 1_555
Ni5 S2 2.242307 1_565
Ni6 S1 2.137541 1_555
Ni6 S5 2.193974 1_655
Ni6 S4 2.242307 1_556
Ni6 S3 2.242307 1_565
Rh0 S5 2.403300 1_555
Rh0 S6 2.403305 1_555
Rh0 S7 2.403306 1_555
Rh0 S2 2.481218 1_555
Rh0 S3 2.481223 1_555
Rh0 S4 2.481224 1_555
S0 V0 2.152182 1_555
S2 V0 2.221290 1_555
S3 V0 2.221290 1_556
S4 V0 2.221290 1_565
