# generated using pymatgen
data_SrZn9Ir2
_symmetry_space_group_name_H-M   'P 1'
_cell_length_a   8.24024226
_cell_length_b   8.24024268
_cell_length_c   8.24024239
_cell_angle_alpha   100.21475191
_cell_angle_beta   100.21475901
_cell_angle_gamma   130.18994081
_symmetry_Int_Tables_number   1
_chemical_formula_structural   SrZn9Ir2
_chemical_formula_sum   'Sr2 Zn18 Ir4'
_cell_volume   387.67916190
_cell_formula_units_Z   2
loop_
 _symmetry_equiv_pos_site_id
 _symmetry_equiv_pos_as_xyz
  1  'x, y, z'
loop_
 _atom_site_type_symbol
 _atom_site_label
 _atom_site_symmetry_multiplicity
 _atom_site_fract_x
 _atom_site_fract_y
 _atom_site_fract_z
 _atom_site_occupancy
  Sr  Sr0  1  0.00000000  0.00000000  0.00000000  1
  Sr  Sr1  1  0.25000000  0.75000000  0.50000000  1
  Zn  Zn0  1  0.06189125  0.64684082  0.83096755  1
  Zn  Zn1  1  0.81587327  0.23092369  0.16903245  1
  Zn  Zn2  1  0.75000000  0.25000000  0.50000000  1
  Zn  Zn3  1  0.50000000  0.50000000  0.00000000  1
  Zn  Zn4  1  0.81587327  0.64684082  0.58494957  1
  Zn  Zn5  1  0.89684082  0.81189125  0.33096755  1
  Zn  Zn6  1  0.48092369  0.56587327  0.66903245  1
  Zn  Zn7  1  0.06189125  0.23092369  0.41505043  1
  Zn  Zn8  1  0.76907631  0.93810875  0.58494957  1
  Zn  Zn9  1  0.35315918  0.18412673  0.41505043  1
  Zn  Zn10  1  0.43412673  0.51907631  0.33096755  1
  Zn  Zn11  1  0.18810875  0.10315918  0.66903245  1
  Zn  Zn12  1  0.43412673  0.10315918  0.91505043  1
  Zn  Zn13  1  0.35315918  0.93810875  0.16903245  1
  Zn  Zn14  1  0.76907631  0.18412673  0.83096755  1
  Zn  Zn15  1  0.18810875  0.51907631  0.08494957  1
  Zn  Zn16  1  0.48092369  0.81189125  0.91505043  1
  Zn  Zn17  1  0.89684082  0.56587327  0.08494957  1
  Ir  Ir0  1  0.62500000  0.37500000  0.75000000  1
  Ir  Ir1  1  0.62500000  0.37500000  0.25000000  1
  Ir  Ir2  1  0.12500000  0.37500000  0.75000000  1
  Ir  Ir3  1  0.62500000  0.87500000  0.25000000  1
loop_
_geom_bond_atom_site_label_1
_geom_bond_atom_site_label_2
_geom_bond_distance
_geom_bond_site_symmetry_2
Sr0 Zn16 3.344279 1_444
Sr0 Zn12 3.344279 1_554
Sr0 Zn5 3.344279 1_445
Sr0 Zn11 3.344279 1_554
Sr0 Zn6 3.344279 1_444
Sr0 Zn17 3.344279 1_445
Sr0 Zn10 3.344279 1_555
Sr0 Zn15 3.344279 1_555
Sr0 Zn13 3.376209 1_545
Sr0 Zn8 3.376209 1_444
Sr0 Zn14 3.376209 1_454
Sr0 Zn9 3.376209 1_555
Sr0 Zn1 3.376209 1_455
Sr0 Zn7 3.376209 1_555
Sr0 Zn0 3.376209 1_544
Sr0 Zn4 3.376209 1_444
Sr0 Zn3 3.470093 1_555
Sr0 Zn3 3.470093 1_445
Sr1 Zn8 3.344279 1_555
Sr1 Zn4 3.344279 1_455
Sr1 Zn13 3.344279 1_555
Sr1 Zn0 3.344279 1_555
Sr1 Zn14 3.344279 1_565
Sr1 Zn9 3.344279 1_565
Sr1 Zn1 3.344279 1_455
Sr1 Zn7 3.344279 1_555
Sr1 Zn5 3.376209 1_455
Sr1 Zn16 3.376209 1_555
Sr1 Zn6 3.376209 1_555
Sr1 Zn17 3.376209 1_455
Sr1 Zn10 3.376209 1_555
Sr1 Zn15 3.376209 1_555
Sr1 Zn11 3.376209 1_565
Sr1 Zn12 3.376209 1_565
Sr1 Zn2 3.470093 1_455
Sr1 Zn2 3.470093 1_565
Zn0 Zn2 2.870609 1_455
Zn1 Zn2 2.870609 1_555
Zn2 Zn9 2.870609 1_555
Zn2 Zn7 2.870609 1_655
Zn2 Zn8 2.870609 1_545
Zn2 Zn4 2.870609 1_555
Zn3 Zn6 2.870609 1_554
Zn3 Zn5 2.870609 1_555
Zn10 Zn3 2.870609 1_555
Zn11 Zn3 2.870609 1_556
Zn12 Zn3 2.870609 1_556
Zn13 Zn2 2.870609 1_565
Zn14 Zn2 2.870609 1_555
Zn15 Zn3 2.870609 1_555
Zn16 Zn3 2.870609 1_556
Zn17 Zn3 2.870609 1_555
Ir0 Zn0 2.575530 1_655
Ir0 Zn11 2.575530 1_555
Ir0 Zn12 2.575530 1_555
Ir0 Zn4 2.575530 1_555
Ir0 Zn14 2.613384 1_555
Ir0 Zn6 2.613384 1_555
Ir0 Zn17 2.613384 1_556
Ir0 Zn9 2.613384 1_555
Ir0 Zn3 2.781205 1_556
Ir0 Zn2 2.781205 1_555
Ir0 Sr1 3.708892 1_545
Ir0 Sr0 3.708892 1_666
Ir1 Zn9 2.575530 1_555
Ir1 Zn17 2.575530 1_555
Ir1 Zn13 2.575530 1_545
Ir1 Zn5 2.575530 1_555
Ir1 Zn10 2.613384 1_555
Ir1 Zn1 2.613384 1_555
Ir1 Zn4 2.613384 1_555
Ir1 Zn12 2.613384 1_554
Ir1 Zn2 2.781205 1_555
Ir1 Zn3 2.781205 1_555
Ir1 Sr0 3.708891 1_555
Ir1 Sr1 3.708891 1_655
Ir2 Zn6 2.575530 1_555
Ir2 Zn14 2.575530 1_455
Ir2 Zn16 2.575530 1_555
Ir2 Zn8 2.575530 1_445
Ir2 Zn7 2.613384 1_555
Ir2 Zn15 2.613384 1_556
Ir2 Zn0 2.613384 1_555
Ir2 Zn11 2.613384 1_555
Ir2 Zn3 2.781205 1_556
Ir2 Zn2 2.781205 1_455
Ir2 Sr1 3.708891 1_555
Ir2 Sr0 3.708891 1_556
Ir3 Zn7 2.575530 1_665
Ir3 Zn15 2.575530 1_555
Ir3 Zn1 2.575530 1_565
Ir3 Zn10 2.575530 1_555
Ir3 Zn5 2.613384 1_555
Ir3 Zn13 2.613384 1_555
Ir3 Zn8 2.613384 1_555
Ir3 Zn16 2.613384 1_554
Ir3 Zn3 2.781205 1_555
Ir3 Zn2 2.781205 1_565
Ir3 Sr0 3.708892 1_665
Ir3 Sr1 3.708892 1_555
