# generated using pymatgen
data_PdRh(SeO3)4
_symmetry_space_group_name_H-M   'P 1'
_cell_length_a   6.81607313
_cell_length_b   5.18413894
_cell_length_c   8.95110921
_cell_angle_alpha   55.50971115
_cell_angle_beta   89.68409160
_cell_angle_gamma   89.67322192
_symmetry_Int_Tables_number   1
_chemical_formula_structural   PdRh(SeO3)4
_chemical_formula_sum   'Pd1 Rh1 Se4 O12'
_cell_volume   260.68935364
_cell_formula_units_Z   1
loop_
 _symmetry_equiv_pos_site_id
 _symmetry_equiv_pos_as_xyz
  1  'x, y, z'
loop_
 _atom_site_type_symbol
 _atom_site_label
 _atom_site_symmetry_multiplicity
 _atom_site_fract_x
 _atom_site_fract_y
 _atom_site_fract_z
 _atom_site_occupancy
  Pd  Pd0  1  0.00000000  0.00000000  0.00000000  1
  Rh  Rh0  1  0.50000000  0.00000000  0.50000000  1
  Se  Se0  1  0.82402935  0.32378391  0.19141727  1
  Se  Se1  1  0.67993182  0.31774580  0.69283917  1
  Se  Se2  1  0.17597065  0.67621609  0.80858273  1
  Se  Se3  1  0.32006818  0.68225420  0.30716083  1
  O  O0  1  0.83543080  0.32162939  0.99757961  1
  O  O1  1  0.66745211  0.31927803  0.49984398  1
  O  O2  1  0.16456920  0.67837061  0.00242039  1
  O  O3  1  0.33254789  0.68072197  0.50015602  1
  O  O4  1  0.58519593  0.18914543  0.24745560  1
  O  O5  1  0.92199946  0.19924671  0.74226141  1
  O  O6  1  0.41480407  0.81085457  0.75254440  1
  O  O7  1  0.07800054  0.80075329  0.25773859  1
  O  O8  1  0.76758669  0.71572335  0.08198273  1
  O  O9  1  0.72557082  0.71595066  0.58514283  1
  O  O10  1  0.23241331  0.28427665  0.91801727  1
  O  O11  1  0.27442918  0.28404934  0.41485717  1
loop_
_geom_bond_atom_site_label_1
_geom_bond_atom_site_label_2
_geom_bond_distance
_geom_bond_site_symmetry_2
O0 Se0 1.742715 1_556
O0 Pd0 1.994208 1_656
O1 Se1 1.725601 1_555
O1 Rh0 2.015256 1_555
O2 Se2 1.742715 1_554
O2 Pd0 1.994208 1_565
O3 Se3 1.725601 1_555
O3 Rh0 2.015256 1_565
O4 Se0 1.730985 1_555
O4 Rh0 1.972423 1_555
O5 Se1 1.727464 1_555
O5 Pd0 1.995115 1_656
O6 Se2 1.730985 1_555
O6 Rh0 1.972423 1_565
O7 Se3 1.727464 1_555
O7 Pd0 1.995115 1_565
O8 Se0 1.725442 1_555
O8 Pd0 2.002228 1_665
O9 Se1 1.742941 1_555
O9 Rh0 1.956850 1_565
O10 Se2 1.725442 1_555
O10 Pd0 2.002228 1_556
O11 Se3 1.742941 1_555
O11 Rh0 1.956850 1_555
