# generated using pymatgen
data_K4AgAs2Au
_symmetry_space_group_name_H-M   'P 1'
_cell_length_a   6.31047587
_cell_length_b   6.31047689
_cell_length_c   6.09866479
_cell_angle_alpha   90.34586497
_cell_angle_beta   90.34587193
_cell_angle_gamma   103.95640690
_symmetry_Int_Tables_number   1
_chemical_formula_structural   K4AgAs2Au
_chemical_formula_sum   'K4 Ag1 As2 Au1'
_cell_volume   235.68099768
_cell_formula_units_Z   1
loop_
 _symmetry_equiv_pos_site_id
 _symmetry_equiv_pos_as_xyz
  1  'x, y, z'
loop_
 _atom_site_type_symbol
 _atom_site_label
 _atom_site_symmetry_multiplicity
 _atom_site_fract_x
 _atom_site_fract_y
 _atom_site_fract_z
 _atom_site_occupancy
  K  K0  1  0.02636975  0.68217726  0.25354513  1
  K  K1  1  0.97363025  0.31782274  0.74645487  1
  K  K2  1  0.68217726  0.02636975  0.25354513  1
  K  K3  1  0.31782274  0.97363025  0.74645487  1
  Ag  Ag0  1  0.50000000  0.50000000  0.00000000  1
  As  As0  1  0.75901551  0.75901551  0.74864120  1
  As  As1  1  0.24098449  0.24098449  0.25135880  1
  Au  Au0  1  0.50000000  0.50000000  0.50000000  1
loop_
_geom_bond_atom_site_label_1
_geom_bond_atom_site_label_2
_geom_bond_distance
_geom_bond_site_symmetry_2
Ag0 As0 2.542635 1_554
Ag0 As1 2.542635 1_555
Ag0 Au0 3.049332 1_555
Ag0 Au0 3.049332 1_554
Ag0 K0 3.580572 1_655
Ag0 K1 3.580572 1_454
Ag0 K2 3.580573 1_565
Ag0 K3 3.580573 1_544
Ag0 K1 3.786493 1_554
Ag0 K0 3.786493 1_555
Ag0 K2 3.786493 1_555
Ag0 K3 3.786493 1_554
As0 Au0 2.508806 1_555
As0 K3 3.377036 1_555
As0 K1 3.377036 1_555
As0 K3 3.459268 1_655
As0 K1 3.459268 1_565
As0 K2 3.554841 1_565
As0 K0 3.554841 1_655
As0 K0 3.593489 1_656
As0 K2 3.593489 1_566
As1 Au0 2.508806 1_555
As1 K2 3.377036 1_555
As1 K0 3.377036 1_555
As1 K2 3.459268 1_455
As1 K0 3.459268 1_545
As1 K3 3.554841 1_545
As1 K1 3.554841 1_455
As1 K1 3.593489 1_454
As1 K3 3.593489 1_544
Au0 K0 3.585143 1_655
Au0 K1 3.585143 1_455
Au0 K2 3.585143 1_565
Au0 K3 3.585143 1_545
Au0 K1 3.760048 1_555
Au0 K0 3.760048 1_555
Au0 K3 3.760048 1_555
Au0 K2 3.760048 1_555
