# generated using pymatgen
data_MoRh3
_symmetry_space_group_name_H-M   'P 1'
_cell_length_a   5.46647769
_cell_length_b   5.46647665
_cell_length_c   4.34577824
_cell_angle_alpha   90.00000000
_cell_angle_beta   90.00000000
_cell_angle_gamma   120.00000018
_symmetry_Int_Tables_number   1
_chemical_formula_structural   MoRh3
_chemical_formula_sum   'Mo2 Rh6'
_cell_volume   112.46393353
_cell_formula_units_Z   2
loop_
 _symmetry_equiv_pos_site_id
 _symmetry_equiv_pos_as_xyz
  1  'x, y, z'
loop_
 _atom_site_type_symbol
 _atom_site_label
 _atom_site_symmetry_multiplicity
 _atom_site_fract_x
 _atom_site_fract_y
 _atom_site_fract_z
 _atom_site_occupancy
  Mo  Mo0  1  0.33333300  0.66666700  0.25000000  1
  Mo  Mo1  1  0.66666700  0.33333300  0.75000000  1
  Rh  Rh0  1  0.83344599  0.66689099  0.25000000  1
  Rh  Rh1  1  0.16655401  0.83344599  0.75000000  1
  Rh  Rh2  1  0.66689099  0.83344599  0.75000000  1
  Rh  Rh3  1  0.33310901  0.16655401  0.25000000  1
  Rh  Rh4  1  0.83344599  0.16655401  0.25000000  1
  Rh  Rh5  1  0.16655401  0.33310901  0.75000000  1
loop_
_geom_bond_atom_site_label_1
_geom_bond_atom_site_label_2
_geom_bond_distance
_geom_bond_site_symmetry_2
Mo0 Rh5 2.686076 1_555
Mo0 Rh5 2.686076 1_554
Mo0 Rh1 2.686076 1_555
Mo0 Rh1 2.686076 1_554
Mo0 Rh2 2.686076 1_554
Mo0 Rh2 2.686076 1_555
Mo0 Rh3 2.733233 1_565
Mo0 Rh0 2.733234 1_455
Mo0 Rh4 2.733239 1_455
Mo0 Rh4 2.733239 1_565
Mo0 Rh3 2.733244 1_555
Mo0 Rh0 2.733244 1_555
Mo1 Rh0 2.686076 1_555
Mo1 Rh0 2.686076 1_556
Mo1 Rh4 2.686076 1_556
Mo1 Rh4 2.686076 1_555
Mo1 Rh3 2.686076 1_555
Mo1 Rh3 2.686076 1_556
Mo1 Rh2 2.733233 1_545
Mo1 Rh5 2.733234 1_655
Mo1 Rh1 2.733239 1_655
Mo1 Rh1 2.733239 1_545
Mo1 Rh2 2.733244 1_555
Mo1 Rh5 2.733244 1_555
Rh0 Rh1 2.684824 1_655
Rh0 Rh1 2.684824 1_654
Rh0 Rh2 2.684829 1_554
Rh0 Rh2 2.684829 1_555
Rh0 Rh4 2.731396 1_565
Rh0 Rh3 2.731396 1_665
Rh0 Rh4 2.735080 1_555
Rh0 Rh3 2.735081 1_555
Rh1 Rh3 2.684824 1_565
Rh1 Rh3 2.684824 1_566
Rh1 Rh5 2.731396 1_565
Rh1 Rh2 2.731397 1_455
Rh1 Rh5 2.735080 1_555
Rh1 Rh2 2.735081 1_555
Rh2 Rh4 2.684824 1_565
Rh2 Rh4 2.684824 1_566
Rh2 Rh5 2.731396 1_665
Rh2 Rh5 2.735081 1_555
Rh3 Rh5 2.684829 1_555
Rh3 Rh5 2.684829 1_554
Rh3 Rh4 2.731397 1_455
Rh3 Rh4 2.735081 1_555
Rh4 Rh5 2.684824 1_655
Rh4 Rh5 2.684824 1_654
