# generated using pymatgen
data_Zn21GaPd3Rh
_symmetry_space_group_name_H-M   'P 1'
_cell_length_a   7.80862250
_cell_length_b   7.82454127
_cell_length_c   7.80862202
_cell_angle_alpha   109.47708304
_cell_angle_beta   109.48707897
_cell_angle_gamma   109.47707387
_symmetry_Int_Tables_number   1
_chemical_formula_structural   Zn21GaPd3Rh
_chemical_formula_sum   'Zn21 Ga1 Pd3 Rh1'
_cell_volume   367.14527377
_cell_formula_units_Z   1
loop_
 _symmetry_equiv_pos_site_id
 _symmetry_equiv_pos_as_xyz
  1  'x, y, z'
loop_
 _atom_site_type_symbol
 _atom_site_label
 _atom_site_symmetry_multiplicity
 _atom_site_fract_x
 _atom_site_fract_y
 _atom_site_fract_z
 _atom_site_occupancy
  Zn  Zn0  1  0.77748220  0.00061096  0.99748882  1
  Zn  Zn1  1  0.99748882  0.00061096  0.77748220  1
  Zn  Zn2  1  0.22306400  0.22573161  0.22306400  1
  Zn  Zn3  1  0.35438089  0.62427763  0.35438089  1
  Zn  Zn4  1  0.27702533  0.00140200  0.65121807  1
  Zn  Zn5  1  0.65121807  0.00140200  0.27702533  1
  Zn  Zn6  1  0.27788508  0.64983978  0.00262355  1
  Zn  Zn7  1  0.72577442  0.72418904  0.37663728  1
  Zn  Zn8  1  0.37663728  0.72418904  0.72577442  1
  Zn  Zn9  1  0.00262355  0.64983978  0.27788508  1
  Zn  Zn10  1  0.00264894  0.27729321  0.64968652  1
  Zn  Zn11  1  0.64968652  0.27729321  0.00264894  1
  Zn  Zn12  1  0.35294660  0.35117079  0.62296841  1
  Zn  Zn13  1  0.62296841  0.35117079  0.35294660  1
  Zn  Zn14  1  0.72233918  0.37075769  0.72233918  1
  Zn  Zn15  1  0.35171376  0.35092772  0.99348993  1
  Zn  Zn16  1  0.00088784  0.64436436  0.63610742  1
  Zn  Zn17  1  0.99348993  0.35092772  0.35171376  1
  Zn  Zn18  1  0.35747647  0.99798915  0.35747647  1
  Zn  Zn19  1  0.64407717  0.99870113  0.64407717  1
  Zn  Zn20  1  0.63610742  0.64436436  0.00088784  1
  Ga  Ga0  1  0.99501522  0.78051823  0.99501522  1
  Pd  Pd0  1  0.00099869  0.34909812  0.00099869  1
  Pd  Pd1  1  0.34413760  0.99837682  0.00104716  1
  Pd  Pd2  1  0.00104716  0.99837682  0.34413760  1
  Rh  Rh0  1  0.66087643  0.65657607  0.66087643  1
loop_
_geom_bond_atom_site_label_1
_geom_bond_atom_site_label_2
_geom_bond_distance
_geom_bond_site_symmetry_2
Zn0 Zn19 2.597153 1_545
Zn0 Zn17 2.599490 1_556
Zn0 Zn8 2.640314 1_545
Zn0 Zn20 2.646920 1_546
Zn0 Zn11 2.663384 1_556
Zn0 Zn5 2.677249 1_556
Zn0 Zn1 2.805673 1_555
Zn0 Zn2 2.840137 1_656
Zn1 Zn19 2.597153 1_545
Zn1 Zn15 2.599491 1_655
Zn1 Zn7 2.640314 1_545
Zn1 Zn16 2.646920 1_645
Zn1 Zn10 2.663384 1_655
Zn1 Zn4 2.677249 1_655
Zn1 Zn2 2.840137 1_656
Zn2 Zn3 2.619404 1_555
Zn3 Zn8 2.667025 1_555
Zn3 Zn7 2.667025 1_555
Zn3 Zn6 2.700511 1_555
Zn3 Zn9 2.700511 1_555
Zn4 Zn9 2.685294 1_545
Zn4 Zn8 2.704418 1_545
Zn5 Zn6 2.685294 1_545
Zn5 Zn7 2.704418 1_545
Zn6 Zn8 2.694105 1_554
Zn7 Zn9 2.694105 1_655
Zn10 Zn17 2.561503 1_455
Zn10 Zn5 2.681645 1_455
Zn10 Zn6 2.687873 1_556
Zn10 Zn12 2.695648 1_555
Zn10 Zn14 2.695727 1_455
Zn10 Zn15 2.829807 1_555
Zn10 Zn19 2.894434 1_445
Zn10 Zn16 2.913625 1_555
Zn11 Zn15 2.561503 1_554
Zn11 Zn4 2.681645 1_554
Zn11 Zn9 2.687873 1_655
Zn11 Zn13 2.695648 1_555
Zn11 Zn14 2.695727 1_554
Zn11 Zn17 2.829807 1_555
Zn11 Zn19 2.894434 1_544
Zn11 Zn20 2.913625 1_555
Zn12 Zn20 2.570948 1_556
Zn12 Zn2 2.631064 1_555
Zn12 Zn14 2.660494 1_555
Zn12 Zn8 2.678774 1_555
Zn12 Zn4 2.701475 1_555
Zn12 Zn18 2.868726 1_545
Zn12 Zn17 2.896905 1_455
Zn12 Zn15 2.897120 1_555
Zn13 Zn16 2.570948 1_655
Zn13 Zn2 2.631064 1_555
Zn13 Zn14 2.660494 1_555
Zn13 Zn7 2.678774 1_555
Zn13 Zn5 2.701475 1_555
Zn13 Zn18 2.868726 1_545
Zn13 Zn15 2.896905 1_554
Zn13 Zn17 2.897120 1_555
Zn14 Zn19 2.569027 1_545
Zn14 Zn18 2.871044 1_545
Zn14 Zn20 2.932717 1_556
Zn14 Zn16 2.932717 1_655
Zn15 Zn6 2.573521 1_556
Zn15 Zn20 2.575340 1_556
Zn15 Zn2 2.626547 1_556
Zn15 Zn4 2.825753 1_555
Zn15 Zn3 2.903145 1_556
Zn15 Zn7 2.943873 1_556
Zn16 Zn8 2.569988 1_555
Zn16 Zn17 2.575340 1_455
Zn16 Zn9 2.816256 1_555
Zn16 Zn7 2.818671 1_455
Zn16 Zn4 2.839234 1_565
Zn16 Zn6 2.932151 1_556
Zn17 Zn9 2.573521 1_655
Zn17 Zn2 2.626547 1_655
Zn17 Zn5 2.825754 1_555
Zn17 Zn3 2.903146 1_655
Zn17 Zn8 2.943873 1_655
Zn18 Zn4 2.566753 1_565
Zn18 Zn5 2.566754 1_565
Zn18 Zn19 2.580450 1_555
Zn18 Zn2 2.671737 1_565
Zn18 Zn6 2.858909 1_555
Zn18 Zn9 2.858909 1_555
Zn18 Zn3 2.908091 1_555
Zn19 Zn3 2.562105 1_555
Zn19 Zn7 2.862357 1_555
Zn19 Zn8 2.862357 1_555
Zn19 Zn5 2.892182 1_565
Zn19 Zn4 2.892182 1_565
Zn20 Zn7 2.569988 1_555
Zn20 Zn6 2.816256 1_555
Zn20 Zn8 2.818670 1_554
Zn20 Zn5 2.839234 1_565
Zn20 Zn9 2.932151 1_655
Ga0 Rh0 2.576656 1_555
Ga0 Pd2 2.664920 1_656
Ga0 Pd1 2.664921 1_656
Ga0 Zn16 2.668101 1_655
Ga0 Zn20 2.668102 1_556
Ga0 Zn18 2.673749 1_656
Ga0 Zn14 2.686481 1_555
Ga0 Zn9 2.717905 1_656
Ga0 Zn6 2.717905 1_656
Ga0 Zn0 2.793185 1_565
Ga0 Zn1 2.793186 1_565
Ga0 Zn2 2.843984 1_666
Pd0 Zn9 2.604070 1_555
Pd0 Zn6 2.604071 1_555
Pd0 Zn14 2.613634 1_454
Pd0 Zn10 2.615708 1_554
Pd0 Zn11 2.615708 1_455
Pd0 Zn3 2.619243 1_555
Pd0 Zn2 2.678012 1_555
Pd0 Zn1 2.688263 1_454
Pd0 Zn0 2.688263 1_454
Pd0 Zn17 2.754111 1_455
Pd0 Zn15 2.754111 1_554
Pd0 Zn19 2.771009 1_444
Pd1 Zn6 2.605933 1_555
Pd1 Zn4 2.614109 1_564
Pd1 Zn13 2.617880 1_565
Pd1 Zn5 2.622004 1_565
Pd1 Zn8 2.634246 1_554
Pd1 Zn11 2.635363 1_565
Pd1 Zn2 2.687461 1_565
Pd1 Zn1 2.697049 1_464
Pd1 Zn18 2.751292 1_555
Pd1 Zn15 2.760187 1_564
Pd1 Zn16 2.768862 1_554
Pd2 Zn9 2.605933 1_555
Pd2 Zn5 2.614109 1_465
Pd2 Zn12 2.617880 1_565
Pd2 Zn4 2.622004 1_565
Pd2 Zn7 2.634246 1_455
Pd2 Zn10 2.635362 1_565
Pd2 Zn2 2.687462 1_565
Pd2 Zn0 2.697049 1_464
Pd2 Zn18 2.751292 1_555
Pd2 Zn17 2.760187 1_465
Pd2 Zn20 2.768862 1_455
Rh0 Zn14 2.596152 1_555
Rh0 Zn13 2.607951 1_555
Rh0 Zn12 2.607952 1_555
Rh0 Zn7 2.611059 1_555
Rh0 Zn8 2.611059 1_555
Rh0 Zn3 2.625152 1_555
Rh0 Zn0 2.652283 1_565
Rh0 Zn1 2.652284 1_565
Rh0 Zn20 2.755927 1_556
Rh0 Zn16 2.755927 1_655
Rh0 Zn19 2.767212 1_555
