# generated using pymatgen
data_NaLiYPt3
_symmetry_space_group_name_H-M   'P 1'
_cell_length_a   5.45328304
_cell_length_b   5.45328434
_cell_length_c   5.12080100
_cell_angle_alpha   57.82793329
_cell_angle_beta   57.82792501
_cell_angle_gamma   60.00001396
_symmetry_Int_Tables_number   1
_chemical_formula_structural   NaLiYPt3
_chemical_formula_sum   'Na1 Li1 Y1 Pt3'
_cell_volume   104.00919705
_cell_formula_units_Z   1
loop_
 _symmetry_equiv_pos_site_id
 _symmetry_equiv_pos_as_xyz
  1  'x, y, z'
loop_
 _atom_site_type_symbol
 _atom_site_label
 _atom_site_symmetry_multiplicity
 _atom_site_fract_x
 _atom_site_fract_y
 _atom_site_fract_z
 _atom_site_occupancy
  Na  Na0  1  0.25175885  0.25175885  0.24472446  1
  Li  Li0  1  0.62262214  0.62262214  0.13213459  1
  Y  Y0  1  0.00445267  0.00445267  0.98664300  1
  Pt  Pt0  1  0.62315853  0.12485028  0.62883265  1
  Pt  Pt1  1  0.12485028  0.62315853  0.62883265  1
  Pt  Pt2  1  0.62315853  0.62315853  0.62883265  1
loop_
_geom_bond_atom_site_label_1
_geom_bond_atom_site_label_2
_geom_bond_distance
_geom_bond_site_symmetry_2
Na0 Pt2 2.940771 1_554
Na0 Pt0 2.940773 1_554
Na0 Pt1 2.940774 1_554
Na0 Y0 2.996271 1_555
Na0 Pt0 3.137025 1_555
Na0 Pt1 3.137025 1_555
Na0 Pt2 3.137028 1_455
Na0 Pt2 3.137029 1_545
Na0 Pt0 3.137030 1_455
Na0 Pt1 3.137031 1_545
Na0 Y0 3.316489 1_554
Na0 Y0 3.316489 1_654
Na0 Y0 3.316490 1_564
Li0 Pt2 2.546610 1_555
Li0 Pt1 2.546613 1_555
Li0 Pt0 2.546614 1_555
Li0 Pt1 2.574194 1_654
Li0 Pt0 2.574195 1_564
Li0 Pt2 2.574197 1_554
Li0 Na0 3.181119 1_555
Li0 Na0 3.181119 1_655
Li0 Na0 3.181120 1_565
Li0 Y0 3.202813 1_664
Li0 Y0 3.202813 1_564
Li0 Y0 3.202814 1_654
Pt0 Pt2 2.717417 1_555
Pt0 Pt1 2.717417 1_555
Pt0 Pt2 2.735868 1_545
Pt0 Pt1 2.735868 1_645
Pt0 Y0 3.036657 1_654
Pt0 Y0 3.085889 1_555
Pt0 Y0 3.085893 1_655
Pt1 Pt2 2.717416 1_555
Pt1 Pt2 2.735867 1_455
Pt1 Y0 3.036657 1_564
Pt1 Y0 3.085889 1_555
Pt1 Y0 3.085894 1_565
Pt2 Y0 3.036660 1_664
Pt2 Y0 3.085891 1_565
Pt2 Y0 3.085892 1_655
