# generated using pymatgen
data_Na2NiPt3O8
_symmetry_space_group_name_H-M   'P 1'
_cell_length_a   6.21848155
_cell_length_b   6.21848215
_cell_length_c   6.21848132
_cell_angle_alpha   60.58795070
_cell_angle_beta   60.58794829
_cell_angle_gamma   60.58794639
_symmetry_Int_Tables_number   1
_chemical_formula_structural   Na2NiPt3O8
_chemical_formula_sum   'Na2 Ni1 Pt3 O8'
_cell_volume   172.29295239
_cell_formula_units_Z   1
loop_
 _symmetry_equiv_pos_site_id
 _symmetry_equiv_pos_as_xyz
  1  'x, y, z'
loop_
 _atom_site_type_symbol
 _atom_site_label
 _atom_site_symmetry_multiplicity
 _atom_site_fract_x
 _atom_site_fract_y
 _atom_site_fract_z
 _atom_site_occupancy
  Na  Na0  1  0.12065729  0.12065729  0.12065729  1
  Na  Na1  1  0.87934271  0.87934271  0.87934271  1
  Ni  Ni0  1  0.50000000  0.50000000  0.50000000  1
  Pt  Pt0  1  0.00000000  0.50000000  0.50000000  1
  Pt  Pt1  1  0.50000000  0.50000000  0.00000000  1
  Pt  Pt2  1  0.50000000  0.00000000  0.50000000  1
  O  O0  1  0.27058565  0.27058565  0.27058565  1
  O  O1  1  0.26697749  0.69113928  0.26697749  1
  O  O2  1  0.26697749  0.26697749  0.69113928  1
  O  O3  1  0.69113928  0.26697749  0.26697749  1
  O  O4  1  0.30886072  0.73302251  0.73302251  1
  O  O5  1  0.73302251  0.73302251  0.30886072  1
  O  O6  1  0.73302251  0.30886072  0.73302251  1
  O  O7  1  0.72941435  0.72941435  0.72941435  1
loop_
_geom_bond_atom_site_label_1
_geom_bond_atom_site_label_2
_geom_bond_distance
_geom_bond_site_symmetry_2
Na0 O3 2.197502 1_455
Na0 O2 2.197502 1_554
Na0 O1 2.197503 1_545
Na0 O0 2.273525 1_555
Na1 O4 2.197502 1_655
Na1 O5 2.197502 1_556
Na1 O6 2.197503 1_565
Na1 O7 2.273525 1_555
Ni0 O6 2.071540 1_555
Ni0 O1 2.071540 1_555
Ni0 O4 2.071540 1_555
Ni0 O3 2.071540 1_555
Ni0 O5 2.071540 1_555
Ni0 O2 2.071540 1_555
O0 Pt0 2.045794 1_555
O0 Pt2 2.045794 1_555
O0 Pt1 2.045795 1_555
O1 Pt1 2.037750 1_555
O1 Pt0 2.037750 1_555
O2 Pt0 2.037750 1_555
O2 Pt2 2.037750 1_555
O3 Pt1 2.037750 1_555
O3 Pt2 2.037750 1_555
O4 Pt1 2.037750 1_556
O4 Pt2 2.037750 1_565
O5 Pt0 2.037750 1_655
O5 Pt2 2.037750 1_565
O6 Pt1 2.037750 1_556
O6 Pt0 2.037750 1_655
O7 Pt0 2.045794 1_655
O7 Pt2 2.045794 1_565
O7 Pt1 2.045795 1_556
