# generated using pymatgen
data_BaSn6(IrRu)2
_symmetry_space_group_name_H-M   'P 1'
_cell_length_a   6.99627035
_cell_length_b   6.99627020
_cell_length_c   6.97593567
_cell_angle_alpha   119.30785140
_cell_angle_beta   119.30784966
_cell_angle_gamma   91.36615514
_symmetry_Int_Tables_number   1
_chemical_formula_structural   BaSn6(IrRu)2
_chemical_formula_sum   'Ba1 Sn6 Ir2 Ru2'
_cell_volume   243.55744160
_cell_formula_units_Z   1
loop_
 _symmetry_equiv_pos_site_id
 _symmetry_equiv_pos_as_xyz
  1  'x, y, z'
loop_
 _atom_site_type_symbol
 _atom_site_label
 _atom_site_symmetry_multiplicity
 _atom_site_fract_x
 _atom_site_fract_y
 _atom_site_fract_z
 _atom_site_occupancy
  Ba  Ba0  1  0.00070286  0.00070286  0.00000000  1
  Sn  Sn0  1  0.48407121  0.11453789  0.00000000  1
  Sn  Sn1  1  0.11453789  0.48407121  0.00000000  1
  Sn  Sn2  1  0.87834705  0.87834705  0.35565168  1
  Sn  Sn3  1  0.50522041  0.00522041  0.50000000  1
  Sn  Sn4  1  0.00522041  0.50522041  0.50000000  1
  Sn  Sn5  1  0.52269437  0.52269437  0.64434732  1
  Ir  Ir0  1  0.57913851  0.57913851  0.33167504  1
  Ir  Ir1  1  0.24746347  0.24746347  0.66832396  1
  Ru  Ru0  1  0.74463137  0.41796945  0.00000000  1
  Ru  Ru1  1  0.41796945  0.74463137  0.00000000  1
loop_
_geom_bond_atom_site_label_1
_geom_bond_atom_site_label_2
_geom_bond_distance
_geom_bond_site_symmetry_2
Ba0 Sn2 3.427023 1_445
Ba0 Sn5 3.427030 1_444
Ba0 Ir1 3.434407 1_555
Ba0 Ir0 3.434413 1_444
Ba0 Sn1 3.455758 1_555
Ba0 Sn0 3.455758 1_555
Ba0 Ru0 3.461415 1_455
Ba0 Ru1 3.461415 1_545
Ba0 Sn4 3.529818 1_555
Ba0 Sn4 3.529818 1_544
Ba0 Sn3 3.529819 1_555
Ba0 Sn3 3.529819 1_454
Ba0 Sn1 3.719694 1_545
Ba0 Sn0 3.719694 1_455
Ba0 Sn5 3.755124 1_555
Ba0 Sn2 3.755131 1_444
Sn0 Sn4 3.266768 1_655
Sn0 Sn3 3.266768 1_554
Sn1 Sn3 3.266768 1_565
Sn1 Sn4 3.266768 1_554
Sn2 Sn4 3.228852 1_655
Sn2 Sn3 3.228852 1_565
Sn3 Sn5 3.228848 1_555
Sn4 Sn5 3.228848 1_555
Ir0 Sn5 2.597793 1_555
Ir0 Sn0 2.718238 1_555
Ir0 Sn1 2.718238 1_555
Ir0 Sn3 2.788131 1_565
Ir0 Sn4 2.788131 1_655
Ir0 Sn2 2.810274 1_555
Ir0 Ru0 2.845383 1_555
Ir0 Ru1 2.845383 1_555
Ir1 Sn2 2.597793 1_445
Ir1 Sn1 2.718243 1_556
Ir1 Sn0 2.718243 1_556
Ir1 Sn3 2.788128 1_555
Ir1 Sn4 2.788128 1_555
Ir1 Sn5 2.810264 1_555
Ir1 Ru1 2.845383 1_556
Ir1 Ru0 2.845383 1_556
Ru0 Sn1 2.618086 1_655
Ru0 Sn2 2.676868 1_555
Ru0 Sn5 2.676870 1_554
Ru0 Sn3 2.738489 1_554
Ru0 Sn4 2.738489 1_655
Ru0 Sn0 2.765009 1_555
Ru1 Sn0 2.618086 1_565
Ru1 Sn2 2.676868 1_555
Ru1 Sn5 2.676870 1_554
Ru1 Sn4 2.738489 1_554
Ru1 Sn3 2.738489 1_565
Ru1 Sn1 2.765009 1_555
