# generated using pymatgen
data_Ta3GaNi2N
_symmetry_space_group_name_H-M   'P 1'
_cell_length_a   8.01160386
_cell_length_b   8.01160435
_cell_length_c   8.01160312
_cell_angle_alpha   60.00000103
_cell_angle_beta   59.99999903
_cell_angle_gamma   60.00000136
_symmetry_Int_Tables_number   1
_chemical_formula_structural   Ta3GaNi2N
_chemical_formula_sum   'Ta12 Ga4 Ni8 N4'
_cell_volume   363.61634284
_cell_formula_units_Z   4
loop_
 _symmetry_equiv_pos_site_id
 _symmetry_equiv_pos_as_xyz
  1  'x, y, z'
loop_
 _atom_site_type_symbol
 _atom_site_label
 _atom_site_symmetry_multiplicity
 _atom_site_fract_x
 _atom_site_fract_y
 _atom_site_fract_z
 _atom_site_occupancy
  Ta  Ta0  1  0.80359902  0.80359902  0.19640098  1
  Ta  Ta1  1  0.19640098  0.19640098  0.80359902  1
  Ta  Ta2  1  0.80359902  0.19640098  0.80359902  1
  Ta  Ta3  1  0.19640098  0.80359902  0.19640098  1
  Ta  Ta4  1  0.19640098  0.80359902  0.80359902  1
  Ta  Ta5  1  0.80359902  0.19640098  0.19640098  1
  Ta  Ta6  1  0.44640098  0.44640098  0.05359902  1
  Ta  Ta7  1  0.05359902  0.05359902  0.44640098  1
  Ta  Ta8  1  0.44640098  0.05359902  0.44640098  1
  Ta  Ta9  1  0.05359902  0.44640098  0.05359902  1
  Ta  Ta10  1  0.05359902  0.44640098  0.44640098  1
  Ta  Ta11  1  0.44640098  0.05359902  0.05359902  1
  Ga  Ga0  1  0.12500000  0.62500000  0.62500000  1
  Ga  Ga1  1  0.62500000  0.12500000  0.62500000  1
  Ga  Ga2  1  0.62500000  0.62500000  0.12500000  1
  Ga  Ga3  1  0.62500000  0.62500000  0.62500000  1
  Ni  Ni0  1  0.75370487  0.41543138  0.41543138  1
  Ni  Ni1  1  0.41543138  0.75370487  0.41543138  1
  Ni  Ni2  1  0.41543138  0.41543138  0.75370487  1
  Ni  Ni3  1  0.41543138  0.41543138  0.41543138  1
  Ni  Ni4  1  0.49629513  0.83456862  0.83456862  1
  Ni  Ni5  1  0.83456862  0.49629513  0.83456862  1
  Ni  Ni6  1  0.83456862  0.83456862  0.49629513  1
  Ni  Ni7  1  0.83456862  0.83456862  0.83456862  1
  N  N0  1  0.62500000  0.12500000  0.12500000  1
  N  N1  1  0.12500000  0.62500000  0.12500000  1
  N  N2  1  0.12500000  0.12500000  0.62500000  1
  N  N3  1  0.12500000  0.12500000  0.12500000  1
loop_
_geom_bond_atom_site_label_1
_geom_bond_atom_site_label_2
_geom_bond_distance
_geom_bond_site_symmetry_2
Ga0 Ni1 2.461225 1_555
Ga0 Ni5 2.461225 1_455
Ga0 Ni2 2.461225 1_555
Ga0 Ni6 2.461225 1_455
Ga0 Ni7 2.461229 1_455
Ga0 Ni3 2.461229 1_555
Ga0 Ta9 2.847167 1_556
Ga0 Ta3 2.847167 1_555
Ga0 Ta4 2.847167 1_555
Ga0 Ta10 2.847167 1_555
Ga0 Ta7 2.847167 1_565
Ga0 Ta1 2.847167 1_555
Ga1 Ni2 2.461225 1_555
Ga1 Ni6 2.461225 1_545
Ga1 Ni0 2.461225 1_555
Ga1 Ni4 2.461225 1_545
Ga1 Ni7 2.461229 1_545
Ga1 Ni3 2.461229 1_555
Ga1 Ta11 2.847167 1_556
Ga1 Ta5 2.847167 1_555
Ga1 Ta2 2.847167 1_555
Ga1 Ta8 2.847167 1_555
Ga1 Ta7 2.847167 1_655
Ga1 Ta1 2.847167 1_555
Ga2 Ni1 2.461225 1_555
Ga2 Ni5 2.461225 1_554
Ga2 Ni0 2.461225 1_555
Ga2 Ni4 2.461225 1_554
Ga2 Ni7 2.461229 1_554
Ga2 Ni3 2.461229 1_555
Ga2 Ta0 2.847167 1_555
Ga2 Ta6 2.847167 1_555
Ga2 Ta9 2.847167 1_655
Ga2 Ta3 2.847167 1_555
Ga2 Ta11 2.847167 1_565
Ga2 Ta5 2.847167 1_555
Ga3 Ni5 2.461231 1_555
Ga3 Ni1 2.461231 1_555
Ga3 Ni4 2.461231 1_555
Ga3 Ni0 2.461231 1_555
Ga3 Ni6 2.461232 1_555
Ga3 Ni2 2.461232 1_555
Ga3 Ta6 2.847167 1_556
Ga3 Ta0 2.847167 1_555
Ga3 Ta10 2.847167 1_655
Ga3 Ta4 2.847167 1_555
Ga3 Ta8 2.847167 1_565
Ga3 Ta2 2.847167 1_555
Ni0 Ta9 2.673868 1_655
Ni0 Ta7 2.673868 1_655
Ni0 Ta10 2.673873 1_655
Ni0 Ni2 2.710113 1_555
Ni0 Ni3 2.710113 1_555
Ni0 Ni1 2.710113 1_555
Ni0 Ta5 2.827491 1_555
Ni0 Ta2 2.827498 1_555
Ni0 Ta0 2.827498 1_555
Ni1 Ta11 2.673868 1_565
Ni1 Ta7 2.673868 1_565
Ni1 Ta8 2.673873 1_565
Ni1 Ni2 2.710113 1_555
Ni1 Ni3 2.710113 1_555
Ni1 Ta3 2.827491 1_555
Ni1 Ta4 2.827498 1_555
Ni1 Ta0 2.827498 1_555
Ni2 Ta9 2.673868 1_556
Ni2 Ta11 2.673868 1_556
Ni2 Ta6 2.673872 1_556
Ni2 Ni3 2.710113 1_555
Ni2 Ta1 2.827491 1_555
Ni2 Ta2 2.827498 1_555
Ni2 Ta4 2.827498 1_555
Ni3 Ta6 2.673864 1_555
Ni3 Ta10 2.673865 1_555
Ni3 Ta8 2.673865 1_555
Ni3 Ta1 2.827495 1_555
Ni3 Ta5 2.827495 1_555
Ni3 Ta3 2.827495 1_555
Ni4 Ta3 2.673868 1_556
Ni4 Ta1 2.673868 1_565
Ni4 Ta4 2.673873 1_555
Ni4 Ni6 2.710113 1_555
Ni4 Ni7 2.710113 1_555
Ni4 Ni5 2.710113 1_555
Ni4 Ta11 2.827491 1_566
Ni4 Ta8 2.827498 1_565
Ni4 Ta6 2.827498 1_556
Ni5 Ta5 2.673868 1_556
Ni5 Ta1 2.673868 1_655
Ni5 Ta2 2.673873 1_555
Ni5 Ni6 2.710113 1_555
Ni5 Ni7 2.710113 1_555
Ni5 Ta9 2.827491 1_656
Ni5 Ta10 2.827498 1_655
Ni5 Ta6 2.827498 1_556
Ni6 Ta3 2.673868 1_655
Ni6 Ta5 2.673868 1_565
Ni6 Ta0 2.673872 1_555
Ni6 Ni7 2.710113 1_555
Ni6 Ta7 2.827491 1_665
Ni6 Ta8 2.827498 1_565
Ni6 Ta10 2.827498 1_655
Ni7 Ta0 2.673864 1_556
Ni7 Ta4 2.673865 1_655
Ni7 Ta2 2.673865 1_565
Ni7 Ta7 2.827495 1_665
Ni7 Ta11 2.827495 1_566
Ni7 Ta9 2.827495 1_656
N0 Ta8 2.160107 1_555
N0 Ta2 2.160107 1_554
N0 Ta5 2.160107 1_555
N0 Ta11 2.160107 1_555
N0 Ta6 2.160107 1_555
N0 Ta0 2.160107 1_545
N1 Ta10 2.160107 1_555
N1 Ta4 2.160107 1_554
N1 Ta3 2.160107 1_555
N1 Ta9 2.160107 1_555
N1 Ta6 2.160107 1_555
N1 Ta0 2.160107 1_455
N2 Ta1 2.160107 1_555
N2 Ta7 2.160107 1_555
N2 Ta8 2.160107 1_555
N2 Ta2 2.160107 1_455
N2 Ta10 2.160107 1_555
N2 Ta4 2.160107 1_545
N3 Ta7 2.160107 1_555
N3 Ta1 2.160107 1_554
N3 Ta11 2.160107 1_555
N3 Ta5 2.160107 1_455
N3 Ta9 2.160107 1_555
N3 Ta3 2.160107 1_545
