# generated using pymatgen
data_TaAl(SeO3)4
_symmetry_space_group_name_H-M   'P 1'
_cell_length_a   8.01774100
_cell_length_b   8.12745241
_cell_length_c   8.11339602
_cell_angle_alpha   90.58484518
_cell_angle_beta   90.00000000
_cell_angle_gamma   90.00000000
_symmetry_Int_Tables_number   1
_chemical_formula_structural   TaAl(SeO3)4
_chemical_formula_sum   'Ta2 Al2 Se8 O24'
_cell_volume   528.67224069
_cell_formula_units_Z   2
loop_
 _symmetry_equiv_pos_site_id
 _symmetry_equiv_pos_as_xyz
  1  'x, y, z'
loop_
 _atom_site_type_symbol
 _atom_site_label
 _atom_site_symmetry_multiplicity
 _atom_site_fract_x
 _atom_site_fract_y
 _atom_site_fract_z
 _atom_site_occupancy
  Ta  Ta0  1  0.00000000  0.50000000  0.00000000  1
  Ta  Ta1  1  0.50000000  0.50000000  0.50000000  1
  Al  Al0  1  0.00000000  0.00000000  0.50000000  1
  Al  Al1  1  0.50000000  0.00000000  0.00000000  1
  Se  Se0  1  0.33106805  0.70104760  0.16331705  1
  Se  Se1  1  0.83106805  0.29895240  0.33668295  1
  Se  Se2  1  0.68934847  0.84653260  0.69243270  1
  Se  Se3  1  0.18934847  0.15346740  0.80756730  1
  Se  Se4  1  0.66893195  0.29895240  0.83668295  1
  Se  Se5  1  0.16893195  0.70104760  0.66331705  1
  Se  Se6  1  0.31065153  0.15346740  0.30756730  1
  Se  Se7  1  0.81065153  0.84653260  0.19243270  1
  O  O0  1  0.23779615  0.54367081  0.05043799  1
  O  O1  1  0.73779615  0.45632919  0.44956201  1
  O  O2  1  0.76932607  0.96559429  0.54353675  1
  O  O3  1  0.26932607  0.03440571  0.95646325  1
  O  O4  1  0.54435076  0.97594555  0.77209864  1
  O  O5  1  0.46789310  0.57893570  0.27095815  1
  O  O6  1  0.96789310  0.42106430  0.22904185  1
  O  O7  1  0.04435076  0.02405445  0.72790136  1
  O  O8  1  0.96010133  0.22916538  0.48183905  1
  O  O9  1  0.55561998  0.72413707  0.57093042  1
  O  O10  1  0.46010133  0.77083462  0.01816095  1
  O  O11  1  0.05561998  0.27586293  0.92906958  1
  O  O12  1  0.76220385  0.45632919  0.94956201  1
  O  O13  1  0.26220385  0.54367081  0.55043799  1
  O  O14  1  0.23067393  0.03440571  0.45646325  1
  O  O15  1  0.73067393  0.96559429  0.04353675  1
  O  O16  1  0.45564924  0.02405445  0.22790136  1
  O  O17  1  0.53210690  0.42106430  0.72904185  1
  O  O18  1  0.03210690  0.57893570  0.77095815  1
  O  O19  1  0.95564924  0.97594555  0.27209864  1
  O  O20  1  0.03989867  0.77083462  0.51816095  1
  O  O21  1  0.44438002  0.27586293  0.42906958  1
  O  O22  1  0.53989867  0.22916538  0.98183905  1
  O  O23  1  0.94438002  0.72413707  0.07093042  1
loop_
_geom_bond_atom_site_label_1
_geom_bond_atom_site_label_2
_geom_bond_distance
_geom_bond_site_symmetry_2
Al0 O7 1.891108 1_555
Al0 O19 1.891108 1_445
Al0 O20 1.897016 1_545
Al0 O8 1.897016 1_455
Al0 O14 1.904094 1_555
Al0 O2 1.904094 1_445
Al1 O16 1.891108 1_555
Al1 O4 1.891108 1_544
Al1 O10 1.897016 1_545
Al1 O22 1.897016 1_554
Al1 O15 1.904094 1_545
Al1 O3 1.904094 1_554
O0 Se0 1.734967 1_555
O0 Ta0 1.981301 1_555
O1 Se1 1.734967 1_555
O1 Ta1 1.981301 1_555
O2 Se2 1.682505 1_555
O3 Se3 1.682505 1_555
O4 Se2 1.691660 1_555
O5 Se0 1.723036 1_555
O5 Ta1 1.988842 1_555
O6 Se1 1.723036 1_555
O6 Ta0 1.988842 1_655
O7 Se3 1.691660 1_555
O8 Se1 1.671121 1_555
O9 Se2 1.758108 1_555
O9 Ta1 1.956300 1_555
O10 Se0 1.671121 1_555
O11 Se3 1.758108 1_555
O11 Ta0 1.956300 1_556
O12 Se4 1.734967 1_555
O12 Ta0 1.981301 1_656
O13 Se5 1.734967 1_555
O13 Ta1 1.981301 1_555
O14 Se6 1.682505 1_555
O15 Se7 1.682505 1_555
O16 Se6 1.691660 1_555
O17 Se4 1.723036 1_555
O17 Ta1 1.988842 1_555
O18 Se5 1.723036 1_555
O18 Ta0 1.988842 1_556
O19 Se7 1.691660 1_555
O20 Se5 1.671121 1_555
O21 Se6 1.758108 1_555
O21 Ta1 1.956300 1_555
O22 Se4 1.671121 1_555
O23 Se7 1.758108 1_555
O23 Ta0 1.956300 1_655
