# generated using pymatgen
data_K14TaNbP8
_symmetry_space_group_name_H-M   'P 1'
_cell_length_a   8.15636224
_cell_length_b   8.95369544
_cell_length_c   10.03909519
_cell_angle_alpha   90.00000000
_cell_angle_beta   90.00000000
_cell_angle_gamma   89.98445561
_symmetry_Int_Tables_number   1
_chemical_formula_structural   K14TaNbP8
_chemical_formula_sum   'K14 Ta1 Nb1 P8'
_cell_volume   733.15091254
_cell_formula_units_Z   1
loop_
 _symmetry_equiv_pos_site_id
 _symmetry_equiv_pos_as_xyz
  1  'x, y, z'
loop_
 _atom_site_type_symbol
 _atom_site_label
 _atom_site_symmetry_multiplicity
 _atom_site_fract_x
 _atom_site_fract_y
 _atom_site_fract_z
 _atom_site_occupancy
  K  K0  1  0.70746772  0.83396593  0.71592357  1
  K  K1  1  0.20823461  0.16615246  0.78333018  1
  K  K2  1  0.20823461  0.16615246  0.21666982  1
  K  K3  1  0.70746772  0.83396593  0.28407643  1
  K  K4  1  0.87293534  0.46646219  0.70990009  1
  K  K5  1  0.37288716  0.53364909  0.79008576  1
  K  K6  1  0.37288716  0.53364909  0.20991424  1
  K  K7  1  0.87293534  0.46646219  0.29009991  1
  K  K8  1  0.16306033  0.65868277  0.50000000  1
  K  K9  1  0.66266247  0.34064815  0.00000000  1
  K  K10  1  0.87528725  0.03951639  0.00000000  1
  K  K11  1  0.37448014  0.95978927  0.50000000  1
  K  K12  1  0.39273204  0.90035521  0.00000000  1
  K  K13  1  0.89428092  0.09991209  0.50000000  1
  Ta  Ta0  1  0.49902858  0.32498595  0.50000000  1
  Nb  Nb0  1  0.99850989  0.67492268  0.00000000  1
  P  P0  1  0.70367741  0.68517640  0.00000000  1
  P  P1  1  0.20554087  0.31492813  0.50000000  1
  P  P2  1  0.09314309  0.80641509  0.79924317  1
  P  P3  1  0.59331917  0.19462992  0.69931444  1
  P  P4  1  0.59331917  0.19462992  0.30068556  1
  P  P5  1  0.09314309  0.80641509  0.20075683  1
  P  P6  1  0.57589537  0.58563538  0.50000000  1
  P  P7  1  0.07557255  0.41290022  0.00000000  1
loop_
_geom_bond_atom_site_label_1
_geom_bond_atom_site_label_2
_geom_bond_distance
_geom_bond_site_symmetry_2
K0 P0 3.147847 1_556
K0 P2 3.264286 1_655
K0 P6 3.285669 1_555
K0 P3 3.364702 1_565
K1 P1 3.140928 1_555
K1 P3 3.262212 1_555
K1 P7 3.283580 1_556
K1 P2 3.359029 1_545
K2 P1 3.140928 1_555
K2 P4 3.262212 1_555
K2 P7 3.283580 1_555
K2 P5 3.359029 1_545
K3 P0 3.147847 1_555
K3 P5 3.264286 1_655
K3 P6 3.285669 1_555
K3 P4 3.364702 1_565
K4 P3 3.337598 1_555
K4 P7 3.382748 1_656
K4 P6 3.383384 1_555
K4 P2 3.646686 1_655
K5 P2 3.343084 1_555
K5 P6 3.382260 1_555
K5 P7 3.389967 1_556
K5 P3 3.643360 1_555
K6 P5 3.343084 1_555
K6 P6 3.382260 1_555
K6 P7 3.389967 1_555
K6 P4 3.643360 1_555
K7 P4 3.337598 1_555
K7 P7 3.382748 1_655
K7 P6 3.383384 1_555
K7 P5 3.646686 1_655
K8 P1 3.097222 1_555
K8 P2 3.331556 1_555
K8 P5 3.331556 1_555
K8 P6 3.429990 1_555
K9 P0 3.102978 1_555
K9 P4 3.337905 1_555
K9 P3 3.337905 1_554
K9 P7 3.429587 1_655
K10 K9 3.205431 1_555
K10 P5 3.401965 1_645
K10 P2 3.401965 1_644
K10 Nb0 3.415413 1_545
K10 P0 3.468044 1_545
K10 P7 3.721339 1_655
K11 K8 3.200724 1_555
K11 P3 3.407796 1_565
K11 P4 3.407796 1_565
K11 Ta0 3.424290 1_565
K11 P1 3.465180 1_565
K11 P6 3.730785 1_555
K12 P0 3.184578 1_555
K12 P5 3.277416 1_555
K12 P2 3.277416 1_554
K13 P1 3.186573 1_655
K13 P3 3.278363 1_555
K13 P4 3.278363 1_555
Nb0 P0 2.406488 1_555
Nb0 P7 2.428645 1_655
Nb0 P5 2.458517 1_655
Nb0 P2 2.458517 1_654
P1 Ta0 2.395510 1_555
P3 Ta0 2.440698 1_555
P4 Ta0 2.440698 1_555
P6 Ta0 2.416686 1_555
