# generated using pymatgen
data_Ca4Y4Cd3Hg5
_symmetry_space_group_name_H-M   'P 1'
_cell_length_a   7.49481062
_cell_length_b   7.49458982
_cell_length_c   7.44724184
_cell_angle_alpha   89.99589278
_cell_angle_beta   90.00468194
_cell_angle_gamma   90.07975370
_symmetry_Int_Tables_number   1
_chemical_formula_structural   Ca4Y4Cd3Hg5
_chemical_formula_sum   'Ca4 Y4 Cd3 Hg5'
_cell_volume   418.31512381
_cell_formula_units_Z   1
loop_
 _symmetry_equiv_pos_site_id
 _symmetry_equiv_pos_as_xyz
  1  'x, y, z'
loop_
 _atom_site_type_symbol
 _atom_site_label
 _atom_site_symmetry_multiplicity
 _atom_site_fract_x
 _atom_site_fract_y
 _atom_site_fract_z
 _atom_site_occupancy
  Ca  Ca0  1  0.74827359  0.25107302  0.99628043  1
  Ca  Ca1  1  0.25052297  0.74880669  0.50369960  1
  Ca  Ca2  1  0.74950050  0.25119252  0.50379589  1
  Ca  Ca3  1  0.25173967  0.74893817  0.99619998  1
  Y  Y0  1  0.25193818  0.25144663  0.99599166  1
  Y  Y1  1  0.74808121  0.74855750  0.99597105  1
  Y  Y2  1  0.74899374  0.74852424  0.50399304  1
  Y  Y3  1  0.25101979  0.25147656  0.50397336  1
  Cd  Cd0  1  0.00010986  0.49999109  0.24899797  1
  Cd  Cd1  1  0.00010400  0.00001976  0.24906696  1
  Cd  Cd2  1  0.49998071  0.00010896  0.25105973  1
  Hg  Hg0  1  0.50003102  0.49987305  0.25091591  1
  Hg  Hg1  1  0.49987675  0.49999682  0.74908365  1
  Hg  Hg2  1  0.49988428  0.00000048  0.74879581  1
  Hg  Hg3  1  0.99997975  0.00008240  0.75104328  1
  Hg  Hg4  1  0.99996294  0.49991612  0.75113468  1
loop_
_geom_bond_atom_site_label_1
_geom_bond_atom_site_label_2
_geom_bond_distance
_geom_bond_site_symmetry_2
Ca0 Hg1 3.216198 1_555
Ca0 Hg4 3.218668 1_555
Ca0 Hg2 3.223900 1_555
Ca0 Hg3 3.231676 1_555
Ca0 Hg0 3.247357 1_556
Ca0 Cd0 3.251921 1_656
Ca0 Cd2 3.254400 1_556
Ca0 Cd1 3.264260 1_656
Ca1 Hg1 3.212167 1_555
Ca1 Hg2 3.218514 1_565
Ca1 Hg4 3.223643 1_455
Ca1 Hg3 3.236740 1_465
Ca1 Hg0 3.245363 1_555
Ca1 Cd2 3.251610 1_565
Ca1 Cd0 3.253901 1_555
Ca1 Cd1 3.266800 1_565
Ca2 Hg1 3.213240 1_555
Ca2 Hg2 3.219229 1_555
Ca2 Hg4 3.222062 1_555
Ca2 Hg3 3.235002 1_555
Ca2 Hg0 3.244188 1_555
Ca2 Cd2 3.251323 1_555
Ca2 Cd0 3.255116 1_655
Ca2 Cd1 3.268173 1_655
Ca3 Hg1 3.215131 1_555
Ca3 Hg4 3.219464 1_455
Ca3 Hg2 3.222475 1_565
Ca3 Hg3 3.231917 1_465
Ca3 Hg0 3.248726 1_556
Ca3 Cd0 3.251519 1_556
Ca3 Cd2 3.255402 1_566
Ca3 Cd1 3.264217 1_566
Cd0 Y0 3.254716 1_554
Cd0 Y1 3.255438 1_454
Cd0 Y3 3.258783 1_555
Cd0 Y2 3.260176 1_455
Cd1 Y0 3.264280 1_554
Cd1 Y1 3.265315 1_444
Cd1 Y3 3.268319 1_555
Cd1 Y2 3.269431 1_445
Cd2 Y3 3.254102 1_555
Cd2 Y2 3.255022 1_545
Cd2 Y0 3.259016 1_554
Cd2 Y1 3.260616 1_544
Hg0 Y3 3.238943 1_555
Hg0 Y2 3.239893 1_555
Hg0 Y0 3.243213 1_554
Hg0 Y1 3.244250 1_554
Hg1 Y3 3.204712 1_555
Hg1 Y2 3.205815 1_555
Hg1 Y0 3.208522 1_555
Hg1 Y1 3.209612 1_555
Hg2 Y3 3.219326 1_555
Hg2 Y2 3.220635 1_545
Hg2 Y0 3.225588 1_555
Hg2 Y1 3.226244 1_545
Hg3 Y0 3.229961 1_655
Hg3 Y1 3.230336 1_545
Hg3 Y3 3.235060 1_655
Hg3 Y2 3.235435 1_545
Hg4 Y0 3.219951 1_655
Hg4 Y1 3.220525 1_555
Hg4 Y2 3.225808 1_555
Hg4 Y3 3.225872 1_655
