# generated using pymatgen
data_Sn12IrRh7Se12
_symmetry_space_group_name_H-M   'P 1'
_cell_length_a   9.00889294
_cell_length_b   9.00889293
_cell_length_c   9.00889294
_cell_angle_alpha   89.97852840
_cell_angle_beta   89.97852619
_cell_angle_gamma   89.97853245
_symmetry_Int_Tables_number   1
_chemical_formula_structural   Sn12IrRh7Se12
_chemical_formula_sum   'Sn12 Ir1 Rh7 Se12'
_cell_volume   731.16296567
_cell_formula_units_Z   1
loop_
 _symmetry_equiv_pos_site_id
 _symmetry_equiv_pos_as_xyz
  1  'x, y, z'
loop_
 _atom_site_type_symbol
 _atom_site_label
 _atom_site_symmetry_multiplicity
 _atom_site_fract_x
 _atom_site_fract_y
 _atom_site_fract_z
 _atom_site_occupancy
  Sn  Sn0  1  0.50109062  0.34906051  0.16677737  1
  Sn  Sn1  1  0.16677737  0.50109062  0.34906051  1
  Sn  Sn2  1  0.34906051  0.16677737  0.50109062  1
  Sn  Sn3  1  0.49763159  0.65060943  0.83407160  1
  Sn  Sn4  1  0.83407160  0.49763159  0.65060943  1
  Sn  Sn5  1  0.65060943  0.83407160  0.49763159  1
  Sn  Sn6  1  0.99859706  0.84819491  0.33406888  1
  Sn  Sn7  1  0.33406888  0.99859706  0.84819491  1
  Sn  Sn8  1  0.84819491  0.33406888  0.99859706  1
  Sn  Sn9  1  0.00154242  0.15210197  0.66568728  1
  Sn  Sn10  1  0.66568728  0.00154242  0.15210197  1
  Sn  Sn11  1  0.15210197  0.66568728  0.00154242  1
  Ir  Ir0  1  0.75328216  0.75328216  0.75328216  1
  Rh  Rh0  1  0.24609365  0.24609365  0.24609365  1
  Rh  Rh1  1  0.24411367  0.74573264  0.74478681  1
  Rh  Rh2  1  0.74478681  0.24411367  0.74573264  1
  Rh  Rh3  1  0.74573264  0.74478681  0.24411367  1
  Rh  Rh4  1  0.75549999  0.25428781  0.25546704  1
  Rh  Rh5  1  0.25546704  0.75549999  0.25428781  1
  Rh  Rh6  1  0.25428781  0.25546704  0.75549999  1
  Se  Se0  1  0.65381718  0.99719567  0.85186397  1
  Se  Se1  1  0.85186397  0.65381718  0.99719567  1
  Se  Se2  1  0.99719567  0.85186397  0.65381718  1
  Se  Se3  1  0.34740404  0.00254416  0.14841768  1
  Se  Se4  1  0.14841768  0.34740404  0.00254416  1
  Se  Se5  1  0.00254416  0.14841768  0.34740404  1
  Se  Se6  1  0.15274787  0.49921816  0.64889805  1
  Se  Se7  1  0.64889805  0.15274787  0.49921816  1
  Se  Se8  1  0.49921816  0.64889805  0.15274787  1
  Se  Se9  1  0.84759060  0.50077928  0.35082594  1
  Se  Se10  1  0.35082594  0.84759060  0.50077928  1
  Se  Se11  1  0.50077928  0.35082594  0.84759060  1
loop_
_geom_bond_atom_site_label_1
_geom_bond_atom_site_label_2
_geom_bond_distance
_geom_bond_site_symmetry_2
Ir0 Se2 2.533693 1_555
Ir0 Se0 2.533693 1_555
Ir0 Se1 2.533693 1_555
Ir0 Sn3 2.586412 1_555
Ir0 Sn4 2.586412 1_555
Ir0 Sn5 2.586413 1_555
Rh0 Se5 2.533929 1_555
Rh0 Se3 2.533929 1_555
Rh0 Se4 2.533929 1_555
Rh0 Sn0 2.578418 1_555
Rh0 Sn1 2.578419 1_555
Rh0 Sn2 2.578419 1_555
Rh1 Se6 2.521732 1_555
Rh1 Se2 2.556015 1_455
Rh1 Sn11 2.560321 1_556
Rh1 Se10 2.568281 1_555
Rh1 Sn3 2.568468 1_555
Rh1 Sn7 2.591826 1_555
Rh2 Se7 2.521732 1_555
Rh2 Se0 2.556015 1_545
Rh2 Sn9 2.560321 1_655
Rh2 Se11 2.568281 1_555
Rh2 Sn4 2.568468 1_555
Rh2 Sn8 2.591826 1_555
Rh3 Se8 2.521732 1_555
Rh3 Se1 2.556015 1_554
Rh3 Sn10 2.560321 1_565
Rh3 Se9 2.568281 1_555
Rh3 Sn5 2.568468 1_555
Rh3 Sn6 2.591826 1_555
Rh4 Se9 2.522060 1_555
Rh4 Se5 2.558936 1_655
Rh4 Sn8 2.562581 1_554
Rh4 Se7 2.564910 1_555
Rh4 Sn0 2.572893 1_555
Rh4 Sn10 2.590342 1_555
Rh5 Se10 2.522060 1_555
Rh5 Se3 2.558935 1_565
Rh5 Sn6 2.562581 1_455
Rh5 Se8 2.564910 1_555
Rh5 Sn1 2.572893 1_555
Rh5 Sn11 2.590342 1_555
Rh6 Se11 2.522060 1_555
Rh6 Se4 2.558935 1_556
Rh6 Sn7 2.562581 1_545
Rh6 Se6 2.564910 1_555
Rh6 Sn2 2.572893 1_555
Rh6 Sn9 2.590342 1_555
Se0 Sn10 2.707264 1_566
Se0 Sn7 2.880803 1_555
Se1 Sn11 2.707264 1_656
Se1 Sn8 2.880803 1_555
Se2 Sn9 2.707264 1_665
Se2 Sn6 2.880803 1_555
Se3 Sn7 2.707634 1_544
Se3 Sn10 2.867595 1_555
Se4 Sn8 2.707634 1_454
Se4 Sn11 2.867595 1_555
Se5 Sn6 2.707634 1_445
Se5 Sn9 2.867595 1_555
Se6 Sn1 2.704159 1_555
Se6 Sn4 2.870997 1_455
Se7 Sn2 2.704159 1_555
Se7 Sn5 2.870997 1_545
Se8 Sn0 2.704159 1_555
Se8 Sn3 2.870997 1_554
Se9 Sn4 2.703555 1_555
Se9 Sn1 2.875560 1_655
Se10 Sn5 2.703555 1_555
Se10 Sn2 2.875560 1_565
Se11 Sn3 2.703555 1_555
Se11 Sn0 2.875560 1_556
