# generated using pymatgen
data_SrCdGeO4
_symmetry_space_group_name_H-M   'P 1'
_cell_length_a   5.24248932
_cell_length_b   6.96636252
_cell_length_c   11.95499732
_cell_angle_alpha   90.00000000
_cell_angle_beta   90.00000000
_cell_angle_gamma   90.00000000
_symmetry_Int_Tables_number   1
_chemical_formula_structural   SrCdGeO4
_chemical_formula_sum   'Sr4 Cd4 Ge4 O16'
_cell_volume   436.60942696
_cell_formula_units_Z   4
loop_
 _symmetry_equiv_pos_site_id
 _symmetry_equiv_pos_as_xyz
  1  'x, y, z'
loop_
 _atom_site_type_symbol
 _atom_site_label
 _atom_site_symmetry_multiplicity
 _atom_site_fract_x
 _atom_site_fract_y
 _atom_site_fract_z
 _atom_site_occupancy
  Sr  Sr0  1  0.02127404  0.75000000  0.72251363  1
  Sr  Sr1  1  0.97872596  0.25000000  0.27748637  1
  Sr  Sr2  1  0.52127404  0.25000000  0.77748637  1
  Sr  Sr3  1  0.47872596  0.75000000  0.22251363  1
  Cd  Cd0  1  0.50000000  0.50000000  0.50000000  1
  Cd  Cd1  1  0.00000000  0.00000000  0.00000000  1
  Cd  Cd2  1  0.00000000  0.50000000  0.00000000  1
  Cd  Cd3  1  0.50000000  0.00000000  0.50000000  1
  Ge  Ge0  1  0.42114088  0.25000000  0.08516778  1
  Ge  Ge1  1  0.92114088  0.75000000  0.41483222  1
  Ge  Ge2  1  0.57885912  0.75000000  0.91483222  1
  Ge  Ge3  1  0.07885912  0.25000000  0.58516778  1
  O  O0  1  0.76762407  0.75000000  0.54867897  1
  O  O1  1  0.78210232  0.54840271  0.34804814  1
  O  O2  1  0.71789768  0.54840271  0.84804814  1
  O  O3  1  0.74491785  0.25000000  0.58307342  1
  O  O4  1  0.73237593  0.75000000  0.04867897  1
  O  O5  1  0.28210232  0.45159729  0.15195186  1
  O  O6  1  0.21789768  0.45159729  0.65195186  1
  O  O7  1  0.25508215  0.75000000  0.41692658  1
  O  O8  1  0.78210232  0.95159729  0.34804814  1
  O  O9  1  0.24491785  0.75000000  0.91692658  1
  O  O10  1  0.23237593  0.25000000  0.45132103  1
  O  O11  1  0.71789768  0.95159729  0.84804814  1
  O  O12  1  0.21789768  0.04840271  0.65195186  1
  O  O13  1  0.26762407  0.25000000  0.95132103  1
  O  O14  1  0.28210232  0.04840271  0.15195186  1
  O  O15  1  0.75508215  0.25000000  0.08307342  1
loop_
_geom_bond_atom_site_label_1
_geom_bond_atom_site_label_2
_geom_bond_distance
_geom_bond_site_symmetry_2
Cd0 O0 2.310902 1_555
Cd0 O10 2.310902 1_555
Cd0 O6 2.366617 1_555
Cd0 O1 2.366617 1_555
Cd0 O3 2.380771 1_555
Cd0 O7 2.380771 1_555
Cd1 O4 2.310902 1_445
Cd1 O13 2.310902 1_554
Cd1 O14 2.366617 1_555
Cd1 O11 2.366617 1_444
Cd1 O15 2.380771 1_455
Cd1 O9 2.380771 1_544
Cd2 O4 2.310902 1_455
Cd2 O13 2.310902 1_554
Cd2 O5 2.366617 1_555
Cd2 O2 2.366617 1_454
Cd2 O15 2.380771 1_455
Cd2 O9 2.380771 1_554
Cd3 O0 2.310902 1_545
Cd3 O10 2.310902 1_555
Cd3 O12 2.366617 1_555
Cd3 O8 2.366617 1_545
Cd3 O3 2.380771 1_555
Cd3 O7 2.380771 1_545
Ge0 O15 1.750863 1_555
Ge0 O5 1.772313 1_555
Ge0 O14 1.772313 1_555
Ge0 O13 1.791134 1_554
Ge1 O7 1.750863 1_655
Ge1 O8 1.772313 1_555
Ge1 O1 1.772313 1_555
Ge1 O0 1.791134 1_555
Ge2 O9 1.750863 1_555
Ge2 O11 1.772313 1_555
Ge2 O2 1.772313 1_555
Ge2 O4 1.791134 1_556
Ge3 O3 1.750863 1_455
Ge3 O6 1.772313 1_555
Ge3 O12 1.772313 1_555
Ge3 O10 1.791134 1_555
O0 Sr0 2.467213 1_655
O1 Sr1 2.468902 1_555
O1 Sr3 2.598876 1_555
O2 Sr2 2.468902 1_555
O2 Sr0 2.598876 1_655
O3 Sr2 2.603185 1_555
O4 Sr3 2.467213 1_555
O5 Sr3 2.468902 1_555
O5 Sr1 2.598876 1_455
O6 Sr0 2.468902 1_555
O6 Sr2 2.598876 1_555
O7 Sr3 2.603185 1_555
O8 Sr1 2.468902 1_565
O8 Sr3 2.598876 1_555
O9 Sr0 2.603185 1_555
O10 Sr1 2.467213 1_455
O11 Sr2 2.468902 1_565
O11 Sr0 2.598876 1_655
O12 Sr0 2.468902 1_545
O12 Sr2 2.598876 1_555
O13 Sr2 2.467213 1_555
O14 Sr3 2.468902 1_545
O14 Sr1 2.598876 1_455
O15 Sr1 2.603185 1_555
