# generated using pymatgen
data_TaTiBe9Mo
_symmetry_space_group_name_H-M   'P 1'
_cell_length_a   7.44365347
_cell_length_b   7.44365348
_cell_length_c   7.44365383
_cell_angle_alpha   35.10419816
_cell_angle_beta   35.10419914
_cell_angle_gamma   35.10418992
_symmetry_Int_Tables_number   1
_chemical_formula_structural   TaTiBe9Mo
_chemical_formula_sum   'Ta1 Ti1 Be9 Mo1'
_cell_volume   121.80452658
_cell_formula_units_Z   1
loop_
 _symmetry_equiv_pos_site_id
 _symmetry_equiv_pos_as_xyz
  1  'x, y, z'
loop_
 _atom_site_type_symbol
 _atom_site_label
 _atom_site_symmetry_multiplicity
 _atom_site_fract_x
 _atom_site_fract_y
 _atom_site_fract_z
 _atom_site_occupancy
  Ta  Ta0  1  0.14286664  0.14286664  0.14286664  1
  Ti  Ti0  1  0.99833558  0.99833558  0.99833558  1
  Be  Be0  1  0.41514782  0.92126030  0.41514782  1
  Be  Be1  1  0.41514782  0.41514782  0.92126030  1
  Be  Be2  1  0.92126030  0.41514782  0.41514782  1
  Be  Be3  1  0.58589012  0.07679327  0.58589012  1
  Be  Be4  1  0.58589012  0.58589012  0.07679327  1
  Be  Be5  1  0.07679327  0.58589012  0.58589012  1
  Be  Be6  1  0.66582683  0.66582683  0.66582683  1
  Be  Be7  1  0.33542309  0.33542309  0.33542309  1
  Be  Be8  1  0.50000590  0.50000590  0.50000590  1
  Mo  Mo0  1  0.85741250  0.85741250  0.85741250  1
loop_
_geom_bond_atom_site_label_1
_geom_bond_atom_site_label_2
_geom_bond_distance
_geom_bond_site_symmetry_2
Ta0 Ti0 3.025509 1_444
Be0 Be6 2.160023 1_555
Be0 Be7 2.190386 1_565
Be0 Be8 2.191271 1_555
Be0 Be2 2.217361 1_465
Be0 Be1 2.217361 1_564
Be0 Be2 2.272246 1_555
Be0 Be1 2.272247 1_555
Be0 Mo0 2.570020 1_455
Be0 Mo0 2.570020 1_554
Be0 Ta0 2.591756 1_565
Be0 Ti0 2.815159 1_554
Be0 Ti0 2.815159 1_455
Be1 Be6 2.160023 1_555
Be1 Be7 2.190387 1_556
Be1 Be8 2.191271 1_555
Be1 Be2 2.217362 1_456
Be1 Be2 2.272247 1_555
Be1 Mo0 2.570019 1_455
Be1 Mo0 2.570019 1_545
Be1 Ta0 2.591756 1_556
Be1 Ti0 2.815158 1_545
Be1 Ti0 2.815158 1_455
Be2 Be6 2.160023 1_555
Be2 Be7 2.190386 1_655
Be2 Be8 2.191271 1_555
Be2 Mo0 2.570019 1_545
Be2 Mo0 2.570020 1_554
Be2 Ta0 2.591756 1_655
Be2 Ti0 2.815159 1_554
Be2 Ti0 2.815159 1_545
Be3 Be7 2.144760 1_555
Be3 Be6 2.165384 1_545
Be3 Be8 2.195386 1_555
Be3 Be5 2.203962 1_645
Be3 Be4 2.203963 1_546
Be3 Be5 2.285645 1_555
Be3 Be4 2.285645 1_555
Be3 Ta0 2.572488 1_655
Be3 Ta0 2.572488 1_556
Be3 Mo0 2.592247 1_545
Be3 Ti0 2.858360 1_445
Be3 Ti0 2.858360 1_544
Be4 Be7 2.144760 1_555
Be4 Be6 2.165384 1_554
Be4 Be8 2.195387 1_555
Be4 Be5 2.203963 1_654
Be4 Be5 2.285646 1_555
Be4 Ta0 2.572487 1_655
Be4 Ta0 2.572487 1_565
Be4 Mo0 2.592247 1_554
Be4 Ti0 2.858360 1_454
Be4 Ti0 2.858360 1_544
Be5 Be7 2.144760 1_555
Be5 Be6 2.165384 1_455
Be5 Be8 2.195386 1_555
Be5 Ta0 2.572488 1_565
Be5 Ta0 2.572488 1_556
Be5 Mo0 2.592247 1_455
Be5 Ti0 2.858360 1_445
Be5 Ti0 2.858360 1_454
Be6 Ti0 2.592134 1_545
Be6 Ti0 2.592134 1_455
Be6 Ti0 2.592134 1_554
Be7 Ti0 2.593267 1_454
Be7 Ti0 2.593267 1_544
Be7 Ti0 2.593268 1_445
Be8 Ta0 2.639545 1_565
Be8 Ta0 2.639545 1_655
Be8 Ta0 2.639546 1_556
Be8 Mo0 2.640607 1_545
Be8 Mo0 2.640607 1_455
Be8 Mo0 2.640608 1_554
Mo0 Ta0 2.779101 1_656
Mo0 Ta0 2.779101 1_566
Mo0 Ta0 2.779101 1_665
Mo0 Ti0 2.949982 1_555
