# generated using pymatgen
data_Ta6Be15Pt8
_symmetry_space_group_name_H-M   'P 1'
_cell_length_a   7.87897391
_cell_length_b   7.87897328
_cell_length_c   7.87897261
_cell_angle_alpha   59.99999452
_cell_angle_beta   59.99999716
_cell_angle_gamma   59.99999547
_symmetry_Int_Tables_number   1
_chemical_formula_structural   Ta6Be15Pt8
_chemical_formula_sum   'Ta6 Be15 Pt8'
_cell_volume   345.85482627
_cell_formula_units_Z   1
loop_
 _symmetry_equiv_pos_site_id
 _symmetry_equiv_pos_as_xyz
  1  'x, y, z'
loop_
 _atom_site_type_symbol
 _atom_site_label
 _atom_site_symmetry_multiplicity
 _atom_site_fract_x
 _atom_site_fract_y
 _atom_site_fract_z
 _atom_site_occupancy
  Ta  Ta0  1  0.19523394  0.19523394  0.80476606  1
  Ta  Ta1  1  0.19523394  0.80476606  0.80476606  1
  Ta  Ta2  1  0.80476606  0.19523394  0.19523394  1
  Ta  Ta3  1  0.19523394  0.80476606  0.19523394  1
  Ta  Ta4  1  0.80476606  0.19523394  0.80476606  1
  Ta  Ta5  1  0.80476606  0.80476606  0.19523394  1
  Be  Be0  1  0.50000000  0.50000000  0.50000000  1
  Be  Be1  1  0.50000000  0.50000000  0.00000000  1
  Be  Be2  1  0.00000000  0.50000000  0.50000000  1
  Be  Be3  1  0.50000000  0.00000000  0.00000000  1
  Be  Be4  1  0.00000000  0.00000000  0.50000000  1
  Be  Be5  1  0.00000000  0.50000000  0.00000000  1
  Be  Be6  1  0.50000000  0.00000000  0.50000000  1
  Be  Be7  1  0.83234943  0.50295172  0.83234943  1
  Be  Be8  1  0.16765057  0.16765057  0.49704828  1
  Be  Be9  1  0.49704828  0.16765057  0.16765057  1
  Be  Be10  1  0.16765057  0.16765057  0.16765057  1
  Be  Be11  1  0.50295172  0.83234943  0.83234943  1
  Be  Be12  1  0.83234943  0.83234943  0.83234943  1
  Be  Be13  1  0.83234943  0.83234943  0.50295172  1
  Be  Be14  1  0.16765057  0.49704828  0.16765057  1
  Pt  Pt0  1  0.62612459  0.12162424  0.62612459  1
  Pt  Pt1  1  0.37387541  0.37387541  0.87837576  1
  Pt  Pt2  1  0.87837576  0.37387541  0.37387541  1
  Pt  Pt3  1  0.37387541  0.37387541  0.37387541  1
  Pt  Pt4  1  0.12162424  0.62612459  0.62612459  1
  Pt  Pt5  1  0.62612459  0.62612459  0.62612459  1
  Pt  Pt6  1  0.62612459  0.62612459  0.12162424  1
  Pt  Pt7  1  0.37387541  0.87837576  0.37387541  1
loop_
_geom_bond_atom_site_label_1
_geom_bond_atom_site_label_2
_geom_bond_distance
_geom_bond_site_symmetry_2
Ta0 Ta3 3.076486 1_546
Ta0 Ta2 3.076486 1_456
Ta0 Ta1 3.076486 1_545
Ta0 Ta4 3.076486 1_455
Ta1 Ta3 3.076486 1_556
Ta1 Ta5 3.076486 1_456
Ta1 Ta4 3.076486 1_465
Ta2 Ta4 3.076486 1_554
Ta2 Ta3 3.076486 1_645
Ta2 Ta5 3.076486 1_545
Ta3 Ta5 3.076486 1_455
Ta4 Ta5 3.076486 1_546
Be0 Pt5 2.434137 1_555
Be0 Pt3 2.434137 1_555
Be0 Pt1 2.434149 1_555
Be0 Pt6 2.434149 1_555
Be0 Pt7 2.434150 1_555
Be0 Pt0 2.434150 1_555
Be0 Pt2 2.434150 1_555
Be0 Pt4 2.434150 1_555
Be1 Be11 2.274543 1_554
Be1 Be9 2.274543 1_555
Be1 Be7 2.274543 1_554
Be1 Be14 2.274543 1_555
Be1 Pt6 2.405273 1_555
Be1 Pt1 2.405273 1_554
Be1 Pt3 2.405285 1_555
Be1 Pt5 2.405285 1_554
Be1 Ta2 2.851695 1_555
Be1 Ta1 2.851695 1_554
Be1 Ta3 2.851695 1_555
Be1 Ta4 2.851695 1_554
Be2 Be7 2.274543 1_455
Be2 Be8 2.274543 1_555
Be2 Pt4 2.405273 1_555
Be2 Pt2 2.405273 1_455
Be2 Pt3 2.405286 1_555
Be2 Pt5 2.405286 1_455
Be2 Ta0 2.851694 1_555
Be2 Ta5 2.851694 1_455
Be2 Ta3 2.851695 1_555
Be2 Ta4 2.851695 1_455
Be3 Be9 2.274543 1_555
Be3 Pt7 2.405285 1_545
Be3 Pt0 2.405285 1_554
Be3 Pt1 2.405285 1_554
Be3 Pt6 2.405285 1_545
Be3 Ta5 2.851695 1_545
Be3 Ta0 2.851695 1_554
Be3 Ta4 2.851695 1_554
Be3 Ta3 2.851695 1_545
Be4 Be8 2.274543 1_555
Be4 Pt2 2.405285 1_455
Be4 Pt4 2.405285 1_545
Be4 Pt7 2.405286 1_545
Be4 Pt0 2.405286 1_455
Be4 Ta4 2.851694 1_455
Be4 Ta1 2.851694 1_545
Be4 Ta3 2.851694 1_545
Be4 Ta2 2.851694 1_455
Be5 Be7 2.274543 1_454
Be5 Pt2 2.405285 1_455
Be5 Pt4 2.405285 1_554
Be5 Pt1 2.405286 1_554
Be5 Pt6 2.405286 1_455
Be5 Ta5 2.851695 1_455
Be5 Ta0 2.851695 1_554
Be5 Ta1 2.851695 1_554
Be5 Ta2 2.851695 1_455
Be6 Be9 2.274543 1_555
Be6 Be8 2.274543 1_555
Be6 Pt0 2.405273 1_555
Be6 Pt7 2.405273 1_545
Be6 Pt3 2.405285 1_555
Be6 Pt5 2.405285 1_545
Be6 Ta0 2.851695 1_555
Be6 Ta5 2.851695 1_545
Be6 Ta2 2.851695 1_555
Be6 Ta1 2.851695 1_545
Be7 Pt6 2.389213 1_556
Be7 Pt4 2.389214 1_655
Be7 Pt5 2.389226 1_555
Be7 Ta2 2.659647 1_556
Be7 Ta0 2.659647 1_655
Be7 Ta4 2.659647 1_555
Be8 Pt7 2.389213 1_545
Be8 Pt2 2.389213 1_455
Be8 Pt3 2.389226 1_555
Be8 Be9 2.595316 1_555
Be8 Ta1 2.659647 1_545
Be8 Ta0 2.659647 1_555
Be8 Ta4 2.659647 1_455
Be9 Pt1 2.389213 1_554
Be9 Pt7 2.389213 1_545
Be9 Pt3 2.389226 1_555
Be9 Ta4 2.659647 1_554
Be9 Ta5 2.659647 1_545
Be9 Ta2 2.659647 1_555
Be10 Be4 2.274543 1_555
Be10 Be5 2.274543 1_555
Be10 Be3 2.274543 1_555
Be10 Pt7 2.389222 1_545
Be10 Pt2 2.389222 1_455
Be10 Pt1 2.389222 1_554
Be10 Be8 2.595315 1_555
Be10 Be14 2.595316 1_555
Be10 Be9 2.595316 1_555
Be10 Ta0 2.659647 1_554
Be10 Ta3 2.659647 1_545
Be10 Ta2 2.659647 1_455
Be11 Be6 2.274543 1_565
Be11 Be3 2.274543 1_566
Be11 Pt6 2.389213 1_556
Be11 Pt0 2.389213 1_565
Be11 Pt5 2.389226 1_555
Be11 Be13 2.595316 1_555
Be11 Be7 2.595316 1_555
Be11 Be12 2.595316 1_555
Be11 Ta3 2.659647 1_556
Be11 Ta0 2.659647 1_565
Be11 Ta1 2.659647 1_555
Be12 Be4 2.274543 1_665
Be12 Be5 2.274543 1_656
Be12 Be3 2.274543 1_566
Be12 Pt0 2.389222 1_565
Be12 Pt4 2.389222 1_655
Be12 Pt6 2.389222 1_556
Be12 Be13 2.595315 1_555
Be12 Be7 2.595316 1_555
Be12 Ta5 2.659647 1_556
Be12 Ta4 2.659647 1_565
Be12 Ta1 2.659647 1_655
Be13 Be2 2.274543 1_655
Be13 Be6 2.274543 1_565
Be13 Be4 2.274543 1_665
Be13 Pt0 2.389213 1_565
Be13 Pt4 2.389213 1_655
Be13 Pt5 2.389226 1_555
Be13 Be7 2.595315 1_555
Be13 Ta2 2.659647 1_565
Be13 Ta5 2.659647 1_555
Be13 Ta3 2.659647 1_655
Be14 Be2 2.274543 1_555
Be14 Be5 2.274543 1_555
Be14 Pt1 2.389213 1_554
Be14 Pt2 2.389214 1_455
Be14 Pt3 2.389226 1_555
Be14 Be8 2.595315 1_555
Be14 Be9 2.595316 1_555
Be14 Ta1 2.659647 1_554
Be14 Ta5 2.659647 1_455
Be14 Ta3 2.659647 1_555
Pt0 Pt3 2.810699 1_555
Pt0 Pt1 2.810721 1_555
Pt0 Pt2 2.810722 1_555
Pt0 Ta2 2.812859 1_555
Pt0 Ta0 2.812860 1_555
Pt0 Ta4 2.812873 1_555
Pt1 Pt5 2.810699 1_555
Pt1 Pt4 2.810721 1_555
Pt1 Ta1 2.812859 1_555
Pt1 Ta4 2.812860 1_555
Pt1 Ta0 2.812873 1_555
Pt2 Pt5 2.810699 1_555
Pt2 Pt6 2.810721 1_555
Pt2 Ta4 2.812859 1_555
Pt2 Ta5 2.812859 1_555
Pt2 Ta2 2.812873 1_555
Pt3 Pt4 2.810699 1_555
Pt3 Pt6 2.810699 1_555
Pt3 Ta0 2.812862 1_555
Pt3 Ta3 2.812862 1_555
Pt3 Ta2 2.812862 1_555
Pt4 Pt7 2.810722 1_555
Pt4 Ta3 2.812859 1_555
Pt4 Ta0 2.812859 1_555
Pt4 Ta1 2.812873 1_555
Pt5 Pt7 2.810699 1_555
Pt5 Ta5 2.812862 1_555
Pt5 Ta4 2.812862 1_555
Pt5 Ta1 2.812862 1_555
Pt6 Pt7 2.810721 1_555
Pt6 Ta2 2.812859 1_555
Pt6 Ta3 2.812860 1_555
Pt6 Ta5 2.812873 1_555
Pt7 Ta1 2.812859 1_555
Pt7 Ta5 2.812860 1_555
Pt7 Ta3 2.812873 1_555
