# generated using pymatgen
data_Ba10CrPN10
_symmetry_space_group_name_H-M   'P 1'
_cell_length_a   7.91055674
_cell_length_b   7.91055702
_cell_length_c   9.39925752
_cell_angle_alpha   76.21176587
_cell_angle_beta   76.21176722
_cell_angle_gamma   95.42068653
_symmetry_Int_Tables_number   1
_chemical_formula_structural   Ba10CrPN10
_chemical_formula_sum   'Ba10 Cr1 P1 N10'
_cell_volume   547.58489630
_cell_formula_units_Z   1
loop_
 _symmetry_equiv_pos_site_id
 _symmetry_equiv_pos_as_xyz
  1  'x, y, z'
loop_
 _atom_site_type_symbol
 _atom_site_label
 _atom_site_symmetry_multiplicity
 _atom_site_fract_x
 _atom_site_fract_y
 _atom_site_fract_z
 _atom_site_occupancy
  Ba  Ba0  1  0.40178922  0.38960027  0.37313597  1
  Ba  Ba1  1  0.61039973  0.59821078  0.62686403  1
  Ba  Ba2  1  0.66625750  0.66956880  0.00407875  1
  Ba  Ba3  1  0.33043120  0.33374250  0.99592125  1
  Ba  Ba4  1  0.92113525  0.92880814  0.20133857  1
  Ba  Ba5  1  0.07119186  0.07886475  0.79866143  1
  Ba  Ba6  1  0.56370184  0.09204277  0.76075927  1
  Ba  Ba7  1  0.90795723  0.43629816  0.23924073  1
  Ba  Ba8  1  0.44144745  0.91267049  0.24061875  1
  Ba  Ba9  1  0.08732951  0.55855255  0.75938125  1
  Cr  Cr0  1  0.24151897  0.75848103  1.00000000  1
  P  P0  1  0.75824872  0.24175128  0.00000000  1
  N  N0  1  0.65167938  0.65209045  0.31468535  1
  N  N1  1  0.34790955  0.34832062  0.68531465  1
  N  N2  1  0.72136943  0.03117950  0.99465951  1
  N  N3  1  0.96882050  0.27863057  0.00534049  1
  N  N4  1  0.28112234  0.97581193  0.00869495  1
  N  N5  1  0.02418807  0.71887766  0.99130505  1
  N  N6  1  0.38599296  0.73130293  0.83784973  1
  N  N7  1  0.26869707  0.61400704  0.16214927  1
  N  N8  1  0.62081298  0.27200073  0.15421054  1
  N  N9  1  0.72799927  0.37918702  0.84578846  1
loop_
_geom_bond_atom_site_label_1
_geom_bond_atom_site_label_2
_geom_bond_distance
_geom_bond_site_symmetry_2
Ba0 N0 2.585364 1_555
Ba0 N8 2.760283 1_555
Ba0 N1 2.796238 1_555
Ba0 N7 2.804064 1_555
Ba1 N1 2.585364 1_555
Ba1 N9 2.760277 1_555
Ba1 N0 2.796238 1_555
Ba1 N6 2.804058 1_555
Ba2 N5 2.791151 1_654
Ba2 N2 2.829464 1_564
Ba2 N0 2.863533 1_555
Ba2 N6 3.014465 1_554
Ba2 N9 3.037001 1_554
Ba2 N8 3.072554 1_555
Ba2 N7 3.080824 1_555
Ba3 N4 2.791151 1_546
Ba3 N3 2.829464 1_456
Ba3 N1 2.863533 1_555
Ba3 N7 3.014459 1_556
Ba3 N8 3.036995 1_556
Ba3 N9 3.072555 1_555
Ba3 N6 3.080826 1_555
Ba4 N0 2.719289 1_555
Ba4 N2 2.807496 1_564
Ba4 N3 2.869756 1_565
Ba4 N5 2.893277 1_654
Ba4 N4 2.923603 1_655
Ba5 N1 2.719289 1_555
Ba5 N3 2.807496 1_456
Ba5 N2 2.869755 1_455
Ba5 N4 2.893277 1_546
Ba5 N5 2.923603 1_545
Ba6 N4 2.716663 1_546
Ba6 N2 2.745307 1_555
Ba6 N1 2.841192 1_555
Ba6 N9 2.879268 1_555
Ba6 N6 2.900944 1_545
Ba7 N5 2.716663 1_654
Ba7 N3 2.745307 1_555
Ba7 N0 2.841192 1_555
Ba7 N8 2.879273 1_555
Ba7 N7 2.900943 1_655
Ba8 N2 2.694679 1_564
Ba8 N4 2.743812 1_555
Ba8 N0 2.831080 1_555
Ba8 N8 2.888065 1_565
Ba8 N7 2.948619 1_555
Ba9 N3 2.694679 1_456
Ba9 N5 2.743812 1_555
Ba9 N1 2.831080 1_555
Ba9 N9 2.888066 1_455
Ba9 N6 2.948614 1_555
Cr0 N5 1.742963 1_555
Cr0 N4 1.742963 1_556
Cr0 N7 1.745721 1_556
Cr0 N6 1.745728 1_555
N2 P0 1.678494 1_556
N3 P0 1.678494 1_555
N8 P0 1.674372 1_555
N9 P0 1.674379 1_556
