# generated using pymatgen
data_Rb2SnSe2S
_symmetry_space_group_name_H-M   'P 1'
_cell_length_a   7.17118386
_cell_length_b   7.93615998
_cell_length_c   8.83571405
_cell_angle_alpha   75.40285707
_cell_angle_beta   71.22165203
_cell_angle_gamma   66.93505814
_symmetry_Int_Tables_number   1
_chemical_formula_structural   Rb2SnSe2S
_chemical_formula_sum   'Rb4 Sn2 Se4 S2'
_cell_volume   433.43111706
_cell_formula_units_Z   2
loop_
 _symmetry_equiv_pos_site_id
 _symmetry_equiv_pos_as_xyz
  1  'x, y, z'
loop_
 _atom_site_type_symbol
 _atom_site_label
 _atom_site_symmetry_multiplicity
 _atom_site_fract_x
 _atom_site_fract_y
 _atom_site_fract_z
 _atom_site_occupancy
  Rb  Rb0  1  0.65736067  0.44552022  0.68796056  1
  Rb  Rb1  1  0.34263933  0.55447978  0.31203944  1
  Rb  Rb2  1  0.90665688  0.80163797  0.86502669  1
  Rb  Rb3  1  0.09334312  0.19836203  0.13497331  1
  Sn  Sn0  1  0.63591442  0.94196760  0.31310439  1
  Sn  Sn1  1  0.36408558  0.05803240  0.68689561  1
  Se  Se0  1  0.37243566  0.81330324  0.92404993  1
  Se  Se1  1  0.62756434  0.18669676  0.07595007  1
  Se  Se2  1  0.16555844  0.38583868  0.72176688  1
  Se  Se3  1  0.83444156  0.61416132  0.27823312  1
  S  S0  1  0.27805974  0.96122404  0.47811844  1
  S  S1  1  0.72194026  0.03877596  0.52188156  1
loop_
_geom_bond_atom_site_label_1
_geom_bond_atom_site_label_2
_geom_bond_distance
_geom_bond_site_symmetry_2
Rb0 Se1 3.512855 1_556
Rb0 Se3 3.526985 1_555
Rb0 Se0 3.563360 1_555
Rb0 Se2 3.587770 1_655
Rb0 Se2 3.648456 1_555
Rb0 S1 3.683261 1_555
Rb1 Se0 3.512855 1_554
Rb1 Se2 3.526985 1_555
Rb1 Se1 3.563360 1_555
Rb1 Se3 3.587770 1_455
Rb1 Se3 3.648456 1_555
Rb1 S0 3.683261 1_555
Rb2 Se2 3.424933 1_655
Rb2 S1 3.499341 1_565
Rb2 Se3 3.529863 1_556
Rb2 Se1 3.534723 1_566
Rb2 Se0 3.581271 1_655
Rb2 Se0 3.662956 1_555
Rb2 S0 3.870829 1_655
Rb3 Se3 3.424933 1_455
Rb3 S0 3.499341 1_545
Rb3 Se2 3.529863 1_554
Rb3 Se0 3.534723 1_544
Rb3 Se1 3.581271 1_455
Rb3 Se1 3.662956 1_555
Rb3 S1 3.870829 1_455
Se0 Sn1 2.470811 1_565
Se1 Sn0 2.470811 1_545
Se2 Sn1 2.471694 1_555
Se3 Sn0 2.471694 1_555
S0 Sn0 2.476059 1_555
S0 Sn1 2.488400 1_565
S1 Sn1 2.476059 1_555
S1 Sn0 2.488400 1_545
