# generated using pymatgen
data_Hf4Zr6Al12Co7
_symmetry_space_group_name_H-M   'P 1'
_cell_length_a   8.65802142
_cell_length_b   8.65802116
_cell_length_c   8.65802094
_cell_angle_alpha   59.99999712
_cell_angle_beta   59.99999813
_cell_angle_gamma   59.99999775
_symmetry_Int_Tables_number   1
_chemical_formula_structural   Hf4Zr6Al12Co7
_chemical_formula_sum   'Hf4 Zr6 Al12 Co7'
_cell_volume   458.92414763
_cell_formula_units_Z   1
loop_
 _symmetry_equiv_pos_site_id
 _symmetry_equiv_pos_as_xyz
  1  'x, y, z'
loop_
 _atom_site_type_symbol
 _atom_site_label
 _atom_site_symmetry_multiplicity
 _atom_site_fract_x
 _atom_site_fract_y
 _atom_site_fract_z
 _atom_site_occupancy
  Hf  Hf0  1  0.64636443  0.11787852  0.11787852  1
  Hf  Hf1  1  0.11787852  0.64636443  0.11787852  1
  Hf  Hf2  1  0.11787852  0.11787852  0.64636443  1
  Hf  Hf3  1  0.11787852  0.11787852  0.11787852  1
  Zr  Zr0  1  0.69060779  0.30939221  0.30939221  1
  Zr  Zr1  1  0.69060779  0.30939221  0.69060779  1
  Zr  Zr2  1  0.69060779  0.69060779  0.30939221  1
  Zr  Zr3  1  0.30939221  0.69060779  0.69060779  1
  Zr  Zr4  1  0.30939221  0.69060779  0.30939221  1
  Zr  Zr5  1  0.30939221  0.30939221  0.69060779  1
  Al  Al0  1  0.36533181  0.87822306  0.87822306  1
  Al  Al1  1  0.87822306  0.36533181  0.87822306  1
  Al  Al2  1  0.87822306  0.87822306  0.36533181  1
  Al  Al3  1  0.87822306  0.87822306  0.87822306  1
  Al  Al4  1  0.99139636  0.33620155  0.33620155  1
  Al  Al5  1  0.33620155  0.99139636  0.33620155  1
  Al  Al6  1  0.33620155  0.33620155  0.99139636  1
  Al  Al7  1  0.33620155  0.33620155  0.33620155  1
  Al  Al8  1  0.99999123  0.66666892  0.66666892  1
  Al  Al9  1  0.66666892  0.99999123  0.66666892  1
  Al  Al10  1  0.66666892  0.66666892  0.99999123  1
  Al  Al11  1  0.66666892  0.66666892  0.66666892  1
  Co  Co0  1  0.00000000  0.00000000  0.00000000  1
  Co  Co1  1  0.49846480  0.00153520  0.00153520  1
  Co  Co2  1  0.49846480  0.00153520  0.49846480  1
  Co  Co3  1  0.49846480  0.49846480  0.00153520  1
  Co  Co4  1  0.00153520  0.49846480  0.49846480  1
  Co  Co5  1  0.00153520  0.49846480  0.00153520  1
  Co  Co6  1  0.00153520  0.00153520  0.49846480  1
loop_
_geom_bond_atom_site_label_1
_geom_bond_atom_site_label_2
_geom_bond_distance
_geom_bond_site_symmetry_2
Hf0 Zr1 3.108897 1_554
Hf0 Zr2 3.108897 1_545
Hf0 Zr0 3.108897 1_555
Hf1 Zr3 3.108897 1_554
Hf1 Zr2 3.108897 1_455
Hf1 Zr4 3.108897 1_555
Hf2 Zr3 3.108897 1_545
Hf2 Zr1 3.108897 1_455
Hf2 Zr5 3.108897 1_555
Hf3 Zr5 3.108897 1_554
Hf3 Zr4 3.108897 1_545
Hf3 Zr0 3.108897 1_455
Zr0 Zr5 3.300572 1_555
Zr0 Zr1 3.300572 1_555
Zr0 Zr4 3.300572 1_555
Zr0 Zr2 3.300572 1_555
Zr1 Zr2 3.300572 1_555
Zr1 Zr3 3.300572 1_555
Zr1 Zr5 3.300573 1_555
Zr2 Zr3 3.300572 1_555
Zr2 Zr4 3.300573 1_555
Zr3 Zr4 3.300572 1_555
Zr3 Zr5 3.300572 1_555
Zr4 Zr5 3.300572 1_555
Al0 Co0 2.582620 1_566
Al0 Co1 2.685046 1_566
Al0 Co2 2.685053 1_565
Al0 Co3 2.685053 1_556
Al0 Al10 2.704441 1_555
Al0 Al9 2.704441 1_555
Al0 Al11 2.704454 1_555
Al0 Hf3 2.935188 1_566
Al0 Hf2 2.935194 1_565
Al0 Hf1 2.935194 1_556
Al0 Zr4 3.118298 1_556
Al0 Zr5 3.118298 1_565
Al0 Zr3 3.118306 1_555
Al1 Co0 2.582620 1_656
Al1 Co5 2.685046 1_656
Al1 Co4 2.685053 1_655
Al1 Co3 2.685053 1_556
Al1 Al10 2.704441 1_555
Al1 Al8 2.704441 1_555
Al1 Al11 2.704454 1_555
Al1 Hf3 2.935188 1_656
Al1 Hf2 2.935194 1_655
Al1 Hf0 2.935194 1_556
Al1 Zr0 3.118298 1_556
Al1 Zr5 3.118298 1_655
Al1 Zr1 3.118306 1_555
Al2 Co0 2.582620 1_665
Al2 Co6 2.685046 1_665
Al2 Co4 2.685053 1_655
Al2 Co2 2.685053 1_565
Al2 Al8 2.704440 1_555
Al2 Al9 2.704440 1_555
Al2 Hf3 2.935188 1_665
Al2 Hf0 2.935194 1_565
Al2 Hf1 2.935194 1_655
Al2 Zr0 3.118298 1_565
Al2 Zr4 3.118298 1_655
Al2 Zr2 3.118306 1_555
Al3 Co0 2.582613 1_666
Al3 Co6 2.685053 1_665
Al3 Co5 2.685053 1_656
Al3 Co1 2.685053 1_566
Al3 Al8 2.704462 1_555
Al3 Al9 2.704462 1_555
Al3 Hf0 2.935188 1_566
Al3 Hf1 2.935188 1_656
Al3 Hf2 2.935188 1_665
Al3 Zr2 3.118300 1_556
Al3 Zr1 3.118300 1_565
Al3 Zr3 3.118300 1_655
Al4 Co4 2.485036 1_655
Al4 Co5 2.485044 1_655
Al4 Co6 2.485044 1_655
Al4 Hf2 2.788959 1_655
Al4 Hf1 2.788959 1_655
Al4 Hf3 2.788967 1_655
Al4 Zr1 2.855277 1_555
Al4 Zr2 2.855277 1_555
Al4 Zr0 2.855282 1_555
Al5 Co2 2.485036 1_565
Al5 Co1 2.485044 1_565
Al5 Co6 2.485044 1_565
Al5 Hf2 2.788959 1_565
Al5 Hf0 2.788959 1_565
Al5 Hf3 2.788967 1_565
Al5 Zr3 2.855277 1_555
Al5 Zr2 2.855277 1_555
Al5 Zr4 2.855282 1_555
Al6 Co3 2.485036 1_556
Al6 Co1 2.485044 1_556
Al6 Co5 2.485044 1_556
Al6 Hf1 2.788959 1_556
Al6 Hf0 2.788959 1_556
Al6 Hf3 2.788967 1_556
Al6 Zr3 2.855277 1_555
Al6 Zr1 2.855277 1_555
Al6 Zr5 2.855282 1_555
Al7 Co3 2.485041 1_555
Al7 Co2 2.485041 1_555
Al7 Co4 2.485041 1_555
Al7 Hf1 2.788964 1_555
Al7 Hf2 2.788964 1_555
Al7 Hf0 2.788964 1_555
Al7 Zr5 2.855273 1_555
Al7 Zr4 2.855273 1_555
Al7 Zr0 2.855273 1_555
Al8 Co4 2.514717 1_655
Al8 Co5 2.514732 1_656
Al8 Co6 2.514732 1_665
Al8 Al9 2.885912 1_555
Al8 Zr4 2.900900 1_655
Al8 Zr5 2.900900 1_655
Al8 Zr3 2.900910 1_655
Al9 Co2 2.514717 1_565
Al9 Co1 2.514732 1_566
Al9 Co6 2.514732 1_665
Al9 Zr0 2.900900 1_565
Al9 Zr5 2.900900 1_565
Al9 Zr1 2.900910 1_565
Al10 Co3 2.514717 1_556
Al10 Co1 2.514732 1_566
Al10 Co5 2.514732 1_656
Al10 Al3 2.704462 1_555
Al10 Al9 2.885911 1_555
Al10 Al8 2.885912 1_555
Al10 Al11 2.885912 1_555
Al10 Zr0 2.900900 1_556
Al10 Zr4 2.900900 1_556
Al10 Zr2 2.900910 1_556
Al11 Co3 2.514727 1_556
Al11 Co2 2.514727 1_565
Al11 Co4 2.514727 1_655
Al11 Al2 2.704454 1_555
Al11 Al9 2.885912 1_555
Al11 Al8 2.885912 1_555
Al11 Zr2 2.900893 1_555
Al11 Zr1 2.900893 1_555
Al11 Zr3 2.900893 1_555
Co0 Hf2 2.499936 1_554
Co0 Hf1 2.499936 1_545
Co0 Hf0 2.499936 1_455
Co0 Hf3 2.499936 1_555
Co1 Hf3 2.695078 1_555
Co1 Hf0 2.695078 1_555
Co1 Zr5 3.146325 1_554
Co1 Zr2 3.146325 1_545
Co1 Zr1 3.146325 1_554
Co1 Zr4 3.146325 1_545
Co2 Hf0 2.695078 1_555
Co2 Hf2 2.695078 1_555
Co2 Zr2 3.146325 1_545
Co2 Zr5 3.146325 1_555
Co2 Zr3 3.146325 1_545
Co2 Zr0 3.146325 1_555
Co3 Hf0 2.695078 1_555
Co3 Hf1 2.695078 1_555
Co3 Zr3 3.146325 1_554
Co3 Zr1 3.146325 1_554
Co3 Zr4 3.146325 1_555
Co3 Zr0 3.146325 1_555
Co4 Hf1 2.695078 1_555
Co4 Hf2 2.695078 1_555
Co4 Zr5 3.146325 1_555
Co4 Zr2 3.146325 1_455
Co4 Zr1 3.146325 1_455
Co4 Zr4 3.146325 1_555
Co5 Hf3 2.695078 1_555
Co5 Hf1 2.695078 1_555
Co5 Zr5 3.146325 1_554
Co5 Zr2 3.146325 1_455
Co5 Zr3 3.146325 1_554
Co5 Zr0 3.146325 1_455
Co6 Hf3 2.695078 1_555
Co6 Hf2 2.695078 1_555
Co6 Zr3 3.146325 1_545
Co6 Zr1 3.146325 1_455
Co6 Zr4 3.146325 1_545
Co6 Zr0 3.146325 1_455
