# generated using pymatgen
data_BeV10B3P2
_symmetry_space_group_name_H-M   'P 1'
_cell_length_a   5.75579948
_cell_length_b   5.75579894
_cell_length_c   6.68246594
_cell_angle_alpha   115.60177484
_cell_angle_beta   115.60177435
_cell_angle_gamma   89.80717965
_symmetry_Int_Tables_number   1
_chemical_formula_structural   BeV10B3P2
_chemical_formula_sum   'Be1 V10 B3 P2'
_cell_volume   175.41188605
_cell_formula_units_Z   1
loop_
 _symmetry_equiv_pos_site_id
 _symmetry_equiv_pos_as_xyz
  1  'x, y, z'
loop_
 _atom_site_type_symbol
 _atom_site_label
 _atom_site_symmetry_multiplicity
 _atom_site_fract_x
 _atom_site_fract_y
 _atom_site_fract_z
 _atom_site_occupancy
  Be  Be0  1  0.61871496  0.11871496  0.00000000  1
  V  V0  1  0.49902985  0.50406432  0.00000000  1
  V  V1  1  0.00406432  0.99902985  1.00000000  1
  V  V2  1  0.02996093  0.52996093  0.72088136  1
  V  V3  1  0.69290577  0.19290577  0.71490443  1
  V  V4  1  0.18498594  0.02840132  0.71794619  1
  V  V5  1  0.52840132  0.68498594  0.71794619  1
  V  V6  1  0.97800234  0.47800234  0.28509557  1
  V  V7  1  0.30908158  0.80908158  0.27911864  1
  V  V8  1  0.81045713  0.96704175  0.28205381  1
  V  V9  1  0.46704175  0.31045713  0.28205381  1
  B  B0  1  0.38157065  0.88157065  1.00000000  1
  B  B1  1  0.88439210  0.61538507  1.00000000  1
  B  B2  1  0.11538507  0.38439210  0.00000000  1
  P  P0  1  0.24800363  0.24800363  0.50000000  1
  P  P1  1  0.74800363  0.74800363  0.50000000  1
loop_
_geom_bond_atom_site_label_1
_geom_bond_atom_site_label_2
_geom_bond_distance
_geom_bond_site_symmetry_2
Be0 V8 2.269471 1_545
Be0 V9 2.269471 1_555
Be0 V5 2.269478 1_544
Be0 V4 2.269478 1_554
Be0 V0 2.320296 1_555
Be0 V1 2.320296 1_644
Be0 V3 2.324151 1_554
Be0 V6 2.324157 1_555
B0 Be0 1.933583 1_566
B0 V4 2.252588 1_565
B0 V5 2.252588 1_555
B0 V9 2.252594 1_566
B0 V8 2.252595 1_556
B0 V0 2.273426 1_556
B0 V1 2.273426 1_555
B0 V7 2.274518 1_556
B0 V2 2.274531 1_555
B1 B2 1.877100 1_656
B1 V6 2.226456 1_556
B1 V3 2.226461 1_555
B1 V2 2.231143 1_655
B1 V7 2.231154 1_656
B1 V8 2.284916 1_556
B1 V5 2.284916 1_555
B1 V0 2.310831 1_556
B1 V1 2.315332 1_655
B2 V6 2.226456 1_455
B2 V3 2.226461 1_454
B2 V2 2.231143 1_554
B2 V7 2.231153 1_555
B2 V9 2.284916 1_555
B2 V4 2.284916 1_554
B2 V1 2.310830 1_544
B2 V0 2.315333 1_555
P0 V5 2.425312 1_555
P0 V9 2.425326 1_555
P0 V8 2.429175 1_445
P0 V4 2.429189 1_555
P0 V7 2.429914 1_545
P0 V2 2.429919 1_555
P0 V3 2.435241 1_555
P0 V6 2.435243 1_455
P0 V0 2.647641 1_556
P0 V1 2.647641 1_544
P1 V4 2.425312 1_665
P1 V8 2.425326 1_555
P1 V9 2.429175 1_555
P1 V5 2.429189 1_555
P1 V7 2.429915 1_555
P1 V2 2.429919 1_655
P1 V3 2.435241 1_565
P1 V6 2.435243 1_555
P1 V1 2.647641 1_655
P1 V0 2.647641 1_555
