# generated using pymatgen
data_LuSb2ClO4
_symmetry_space_group_name_H-M   'P 1'
_cell_length_a   3.72603935
_cell_length_b   3.72603935
_cell_length_c   8.71215179
_cell_angle_alpha   90.00000000
_cell_angle_beta   90.00000000
_cell_angle_gamma   90.00000000
_symmetry_Int_Tables_number   1
_chemical_formula_structural   LuSb2ClO4
_chemical_formula_sum   'Lu1 Sb2 Cl1 O4'
_cell_volume   120.95402052
_cell_formula_units_Z   1
loop_
 _symmetry_equiv_pos_site_id
 _symmetry_equiv_pos_as_xyz
  1  'x, y, z'
loop_
 _atom_site_type_symbol
 _atom_site_label
 _atom_site_symmetry_multiplicity
 _atom_site_fract_x
 _atom_site_fract_y
 _atom_site_fract_z
 _atom_site_occupancy
  Lu  Lu0  1  0.00000000  0.00000000  0.00000000  1
  Sb  Sb0  1  0.49999900  0.49999900  0.27620507  1
  Sb  Sb1  1  0.49999900  0.49999900  0.72379493  1
  Cl  Cl0  1  0.00000000  0.00000000  0.50000000  1
  O  O0  1  0.49999900  0.00000000  0.15435889  1
  O  O1  1  0.00000000  0.49999900  0.15435889  1
  O  O2  1  0.49999900  0.00000000  0.84564111  1
  O  O3  1  0.00000000  0.49999900  0.84564111  1
loop_
_geom_bond_atom_site_label_1
_geom_bond_atom_site_label_2
_geom_bond_distance
_geom_bond_site_symmetry_2
Lu0 O0 2.297675 1_555
Lu0 O1 2.297675 1_555
Lu0 O2 2.297675 1_554
Lu0 O3 2.297675 1_554
Lu0 O1 2.297681 1_545
Lu0 O0 2.297681 1_455
Lu0 O3 2.297681 1_544
Lu0 O2 2.297681 1_454
O0 Sb0 2.144225 1_555
O0 Sb0 2.144231 1_545
O1 Sb0 2.144225 1_555
O1 Sb0 2.144231 1_455
O2 Sb1 2.144225 1_555
O2 Sb1 2.144231 1_545
O3 Sb1 2.144225 1_555
O3 Sb1 2.144231 1_455
