# generated using pymatgen
data_RbTaAs2Pd
_symmetry_space_group_name_H-M   'P 1'
_cell_length_a   7.95025206
_cell_length_b   7.95025062
_cell_length_c   7.95025215
_cell_angle_alpha   150.02557118
_cell_angle_beta   150.02554965
_cell_angle_gamma   42.90387974
_symmetry_Int_Tables_number   1
_chemical_formula_structural   RbTaAs2Pd
_chemical_formula_sum   'Rb1 Ta1 As2 Pd1'
_cell_volume   125.11025474
_cell_formula_units_Z   1
loop_
 _symmetry_equiv_pos_site_id
 _symmetry_equiv_pos_as_xyz
  1  'x, y, z'
loop_
 _atom_site_type_symbol
 _atom_site_label
 _atom_site_symmetry_multiplicity
 _atom_site_fract_x
 _atom_site_fract_y
 _atom_site_fract_z
 _atom_site_occupancy
  Rb  Rb0  1  0.00000000  0.00000000  0.00000000  1
  Ta  Ta0  1  0.25000000  0.75000000  0.50000000  1
  As  As0  1  0.35233438  0.35233438  1.00000000  1
  As  As1  1  0.64766562  0.64766562  0.00000000  1
  Pd  Pd0  1  0.75000000  0.25000000  0.50000000  1
loop_
_geom_bond_atom_site_label_1
_geom_bond_atom_site_label_2
_geom_bond_distance
_geom_bond_site_symmetry_2
As0 Ta0 2.553532 1_545
As0 Ta0 2.553533 1_556
As0 Pd0 2.553534 1_556
As0 Pd0 2.553534 1_455
As0 Rb0 3.637240 1_566
As0 Rb0 3.637240 1_667
As0 Rb0 3.637240 1_656
As0 Rb0 3.637241 1_555
As1 Pd0 2.553532 1_565
As1 Pd0 2.553533 1_554
As1 Ta0 2.553534 1_554
As1 Ta0 2.553534 1_655
As1 Rb0 3.637240 1_655
As1 Rb0 3.637240 1_554
As1 Rb0 3.637240 1_565
As1 Rb0 3.637241 1_666
Pd0 Ta0 2.907571 1_645
Pd0 Ta0 2.907571 1_555
Pd0 Ta0 2.907572 1_544
Pd0 Ta0 2.907572 1_656
