# generated using pymatgen
data_V4ZnSe8
_symmetry_space_group_name_H-M   'P 1'
_cell_length_a   7.25690942
_cell_length_b   7.25690950
_cell_length_c   7.25691042
_cell_angle_alpha   60.00000030
_cell_angle_beta   59.99999993
_cell_angle_gamma   60.00000032
_symmetry_Int_Tables_number   1
_chemical_formula_structural   V4ZnSe8
_chemical_formula_sum   'V4 Zn1 Se8'
_cell_volume   270.23411575
_cell_formula_units_Z   1
loop_
 _symmetry_equiv_pos_site_id
 _symmetry_equiv_pos_as_xyz
  1  'x, y, z'
loop_
 _atom_site_type_symbol
 _atom_site_label
 _atom_site_symmetry_multiplicity
 _atom_site_fract_x
 _atom_site_fract_y
 _atom_site_fract_z
 _atom_site_occupancy
  V  V0  1  0.42040736  0.85986388  0.85986388  1
  V  V1  1  0.85986388  0.42040736  0.85986388  1
  V  V2  1  0.85986388  0.85986388  0.85986388  1
  V  V3  1  0.85986388  0.85986388  0.42040736  1
  Zn  Zn0  1  0.25000000  0.25000000  0.25000000  1
  Se  Se0  1  0.62195977  0.62195977  0.13411869  1
  Se  Se1  1  0.62195977  0.62195977  0.62195977  1
  Se  Se2  1  0.11385065  0.11385065  0.65844706  1
  Se  Se3  1  0.11385065  0.11385065  0.11385065  1
  Se  Se4  1  0.62195977  0.13411869  0.62195977  1
  Se  Se5  1  0.13411869  0.62195977  0.62195977  1
  Se  Se6  1  0.11385065  0.65844706  0.11385065  1
  Se  Se7  1  0.65844706  0.11385065  0.11385065  1
loop_
_geom_bond_atom_site_label_1
_geom_bond_atom_site_label_2
_geom_bond_distance
_geom_bond_site_symmetry_2
Se0 V1 2.455772 1_554
Se0 V0 2.455772 1_554
Se0 V2 2.455776 1_554
Se1 V3 2.455777 1_555
Se1 V1 2.455777 1_555
Se1 V0 2.455777 1_555
Se2 Zn0 2.420148 1_555
Se2 V2 2.634390 1_445
Se2 V0 2.634390 1_545
Se2 V1 2.634390 1_455
Se3 Zn0 2.420154 1_555
Se3 V3 2.634390 1_445
Se3 V0 2.634390 1_544
Se3 V1 2.634390 1_454
Se4 V0 2.455771 1_545
Se4 V3 2.455772 1_545
Se4 V2 2.455776 1_545
Se5 V1 2.455771 1_455
Se5 V3 2.455772 1_455
Se5 V2 2.455776 1_455
Se6 Zn0 2.420148 1_555
Se6 V0 2.634390 1_554
Se6 V2 2.634390 1_454
Se6 V3 2.634390 1_455
Se7 Zn0 2.420148 1_555
Se7 V1 2.634390 1_554
Se7 V2 2.634390 1_544
Se7 V3 2.634390 1_545
