# generated using pymatgen
data_CsOsF8
_symmetry_space_group_name_H-M   'P 1'
_cell_length_a   7.79934534
_cell_length_b   7.79934534
_cell_length_c   5.11319476
_cell_angle_alpha   90.00000000
_cell_angle_beta   90.00000000
_cell_angle_gamma   90.00000000
_symmetry_Int_Tables_number   1
_chemical_formula_structural   CsOsF8
_chemical_formula_sum   'Cs2 Os2 F16'
_cell_volume   311.03455162
_cell_formula_units_Z   2
loop_
 _symmetry_equiv_pos_site_id
 _symmetry_equiv_pos_as_xyz
  1  'x, y, z'
loop_
 _atom_site_type_symbol
 _atom_site_label
 _atom_site_symmetry_multiplicity
 _atom_site_fract_x
 _atom_site_fract_y
 _atom_site_fract_z
 _atom_site_occupancy
  Cs  Cs0  1  0.00000000  0.00000000  0.50000000  1
  Cs  Cs1  1  0.50000000  0.50000000  0.50000000  1
  Os  Os0  1  0.00000000  0.50000000  0.10897926  1
  Os  Os1  1  0.50000000  0.00000000  0.89102074  1
  F  F0  1  0.70834020  0.00000000  0.08790419  1
  F  F1  1  0.29165980  0.00000000  0.08790419  1
  F  F2  1  0.50000000  0.20834020  0.08790419  1
  F  F3  1  0.50000000  0.79165980  0.08790419  1
  F  F4  1  0.85323104  0.35323104  0.31161312  1
  F  F5  1  0.85323104  0.64676896  0.31161312  1
  F  F6  1  0.14676896  0.35323104  0.31161312  1
  F  F7  1  0.14676896  0.64676896  0.31161312  1
  F  F8  1  0.64676896  0.85323104  0.68838688  1
  F  F9  1  0.35323104  0.14676896  0.68838688  1
  F  F10  1  0.35323104  0.85323104  0.68838688  1
  F  F11  1  0.64676896  0.14676896  0.68838688  1
  F  F12  1  0.00000000  0.29165980  0.91209581  1
  F  F13  1  0.79165980  0.50000000  0.91209581  1
  F  F14  1  0.20834020  0.50000000  0.91209581  1
  F  F15  1  0.00000000  0.70834020  0.91209581  1
loop_
_geom_bond_atom_site_label_1
_geom_bond_atom_site_label_2
_geom_bond_distance
_geom_bond_site_symmetry_2
Cs0 F12 3.100725 1_555
Cs0 F1 3.100725 1_555
Cs0 F15 3.100725 1_545
Cs0 F0 3.100725 1_455
Cs0 F9 3.134976 1_555
Cs0 F6 3.134976 1_555
Cs0 F10 3.134976 1_545
Cs0 F4 3.134976 1_455
Cs0 F11 3.134976 1_455
Cs0 F7 3.134976 1_545
Cs0 F8 3.134976 1_445
Cs0 F5 3.134976 1_445
Cs1 F13 3.100725 1_555
Cs1 F3 3.100725 1_555
Cs1 F14 3.100725 1_555
Cs1 F2 3.100725 1_555
Cs1 F8 3.134976 1_555
Cs1 F5 3.134976 1_555
Cs1 F10 3.134976 1_555
Cs1 F4 3.134976 1_555
Cs1 F11 3.134976 1_555
Cs1 F7 3.134976 1_555
Cs1 F9 3.134976 1_555
Cs1 F6 3.134976 1_555
F0 Os1 1.911494 1_554
F1 Os1 1.911494 1_554
F2 Os1 1.911494 1_554
F3 Os1 1.911494 1_564
F4 Os0 1.922030 1_655
F5 Os0 1.922030 1_655
F6 Os0 1.922030 1_555
F7 Os0 1.922030 1_555
F8 Os1 1.922030 1_565
F9 Os1 1.922030 1_555
F10 Os1 1.922030 1_565
F11 Os1 1.922030 1_555
F12 Os0 1.911494 1_556
F13 Os0 1.911494 1_656
F14 Os0 1.911494 1_556
F15 Os0 1.911494 1_556
