# generated using pymatgen
data_KNa(SiAs)6
_symmetry_space_group_name_H-M   'P 1'
_cell_length_a   3.66319812
_cell_length_b   10.08276146
_cell_length_c   18.66559097
_cell_angle_alpha   92.70629011
_cell_angle_beta   90.00000000
_cell_angle_gamma   90.00000000
_symmetry_Int_Tables_number   1
_chemical_formula_structural   KNa(SiAs)6
_chemical_formula_sum   'K2 Na2 Si12 As12'
_cell_volume   688.64754800
_cell_formula_units_Z   2
loop_
 _symmetry_equiv_pos_site_id
 _symmetry_equiv_pos_as_xyz
  1  'x, y, z'
loop_
 _atom_site_type_symbol
 _atom_site_label
 _atom_site_symmetry_multiplicity
 _atom_site_fract_x
 _atom_site_fract_y
 _atom_site_fract_z
 _atom_site_occupancy
  K  K0  1  0.00000000  0.17935093  0.79920856  1
  K  K1  1  0.00000000  0.82064907  0.20079144  1
  Na  Na0  1  0.00000000  0.32662745  0.29925195  1
  Na  Na1  1  0.00000000  0.67337255  0.70074805  1
  Si  Si0  1  0.50000000  0.41022538  0.03683078  1
  Si  Si1  1  0.50000000  0.58977462  0.96316922  1
  Si  Si2  1  0.50000000  0.09813039  0.53505468  1
  Si  Si3  1  0.50000000  0.90186961  0.46494532  1
  Si  Si4  1  0.00000000  0.11282616  0.01621462  1
  Si  Si5  1  0.00000000  0.88717384  0.98378538  1
  Si  Si6  1  0.00000000  0.38898880  0.51325321  1
  Si  Si7  1  0.00000000  0.61101120  0.48674679  1
  Si  Si8  1  0.00000000  0.18791136  0.13723301  1
  Si  Si9  1  0.00000000  0.81208864  0.86276699  1
  Si  Si10  1  0.00000000  0.33864052  0.63395080  1
  Si  Si11  1  0.00000000  0.66135948  0.36604920  1
  As  As0  1  0.50000000  0.12364265  0.20556319  1
  As  As1  1  0.50000000  0.87635735  0.79443681  1
  As  As2  1  0.50000000  0.41277864  0.70296231  1
  As  As3  1  0.50000000  0.58722136  0.29703769  1
  As  As4  1  0.50000000  0.27871601  0.45431551  1
  As  As5  1  0.50000000  0.72128399  0.54568449  1
  As  As6  1  0.50000000  0.21380759  0.95825200  1
  As  As7  1  0.50000000  0.78619241  0.04174800  1
  As  As8  1  0.00000000  0.42381519  0.11763195  1
  As  As9  1  0.00000000  0.57618481  0.88236805  1
  As  As10  1  0.00000000  0.09933541  0.61569616  1
  As  As11  1  0.00000000  0.90066459  0.38430384  1
loop_
_geom_bond_atom_site_label_1
_geom_bond_atom_site_label_2
_geom_bond_distance
_geom_bond_site_symmetry_2
Na0 Si8 3.271457 1_555
Na1 Si9 3.271457 1_555
Si0 Si1 2.324409 1_554
Si2 Si3 2.320308 1_545
Si4 Si5 2.326559 1_544
Si4 Si8 2.348233 1_555
Si5 Si9 2.348233 1_555
Si6 Si7 2.315319 1_555
Si10 Si6 2.332644 1_555
Si11 Si7 2.332644 1_555
As0 Si8 2.340816 1_655
As0 Si8 2.340816 1_555
As0 Na0 3.203699 1_555
As0 Na0 3.203699 1_655
As0 K1 3.559507 1_645
As0 K1 3.559507 1_545
As1 Si9 2.340816 1_655
As1 Si9 2.340816 1_555
As1 Na1 3.203699 1_555
As1 Na1 3.203699 1_655
As1 K0 3.559507 1_565
As1 K0 3.559507 1_665
As2 Si10 2.341349 1_555
As2 Si10 2.341349 1_655
As2 Na1 3.204763 1_555
As2 Na1 3.204763 1_655
As2 K0 3.538479 1_555
As2 K0 3.538479 1_655
As3 Si11 2.341349 1_555
As3 Si11 2.341349 1_655
As3 Na0 3.204763 1_555
As3 Na0 3.204763 1_655
As3 K1 3.538479 1_555
As3 K1 3.538479 1_655
As4 Si6 2.384472 1_555
As4 Si6 2.384472 1_655
As4 Si2 2.417773 1_555
As4 Na0 3.478137 1_555
As4 Na0 3.478137 1_655
As5 Si7 2.384472 1_655
As5 Si7 2.384472 1_555
As5 Si3 2.417773 1_555
As5 Na1 3.478137 1_655
As5 Na1 3.478137 1_555
As6 Si4 2.380331 1_656
As6 Si4 2.380331 1_556
As6 Si0 2.408128 1_556
As6 K0 3.491545 1_555
As6 K0 3.491545 1_655
As7 Si5 2.380331 1_654
As7 Si5 2.380331 1_554
As7 Si1 2.408128 1_554
As7 K1 3.491545 1_655
As7 K1 3.491545 1_555
As8 Si0 2.372486 1_455
As8 Si0 2.372486 1_555
As8 Si8 2.423550 1_555
As9 Si1 2.372486 1_455
As9 Si1 2.372486 1_555
As9 Si9 2.423550 1_555
As10 Si2 2.370415 1_555
As10 Si2 2.370415 1_455
As10 Si10 2.420814 1_555
As10 K0 3.481820 1_555
As11 Si3 2.370415 1_455
As11 Si3 2.370415 1_555
As11 Si11 2.420814 1_555
As11 K1 3.481820 1_555
