# generated using pymatgen
data_BaSr4(BeAs)10
_symmetry_space_group_name_H-M   'P 1'
_cell_length_a   8.86117961
_cell_length_b   8.86114127
_cell_length_c   8.86116006
_cell_angle_alpha   122.46899727
_cell_angle_beta   122.46924766
_cell_angle_gamma   85.77411711
_symmetry_Int_Tables_number   1
_chemical_formula_structural   BaSr4(BeAs)10
_chemical_formula_sum   'Ba1 Sr4 Be10 As10'
_cell_volume   472.22863389
_cell_formula_units_Z   1
loop_
 _symmetry_equiv_pos_site_id
 _symmetry_equiv_pos_as_xyz
  1  'x, y, z'
loop_
 _atom_site_type_symbol
 _atom_site_label
 _atom_site_symmetry_multiplicity
 _atom_site_fract_x
 _atom_site_fract_y
 _atom_site_fract_z
 _atom_site_occupancy
  Ba  Ba0  1  0.00000100  0.00000100  0.00000100  1
  Sr  Sr0  1  0.40261743  0.79933926  0.20195969  1
  Sr  Sr1  1  0.79933926  0.59738257  0.39672184  1
  Sr  Sr2  1  0.20066074  0.40261743  0.60327716  1
  Sr  Sr3  1  0.59737857  0.20065774  0.79804131  1
  Be  Be0  1  0.95138721  0.65203486  0.10139510  1
  Be  Be1  1  0.34796714  0.44936224  0.29935236  1
  Be  Be2  1  0.75000200  0.24999900  0.50000000  1
  Be  Be3  1  0.15000788  0.04860979  0.70064364  1
  Be  Be4  1  0.55063776  0.84999212  0.89860590  1
  Be  Be5  1  0.65203586  0.55064176  0.70064964  1
  Be  Be6  1  0.04861079  0.34796714  0.89860390  1
  Be  Be7  1  0.44936324  0.15000688  0.10139510  1
  Be  Be8  1  0.84998912  0.95138721  0.29935336  1
  Be  Be9  1  0.25000000  0.75000000  0.50000000  1
  As  As0  1  0.95487826  0.55031000  0.79951457  1
  As  As1  1  0.35249807  0.35249907  1.00000000  1
  As  As2  1  0.75079542  0.15536468  0.20048743  1
  As  As3  1  0.15536268  0.95487726  0.40456726  1
  As  As4  1  0.55030800  0.75079642  0.59543274  1
  As  As5  1  0.64750193  0.64749893  0.00000000  1
  As  As6  1  0.04512274  0.44969200  0.20048643  1
  As  As7  1  0.44969300  0.24920558  0.40456926  1
  As  As8  1  0.84463632  0.04512174  0.59543074  1
  As  As9  1  0.24920458  0.84463432  0.79951157  1
loop_
_geom_bond_atom_site_label_1
_geom_bond_atom_site_label_2
_geom_bond_distance
_geom_bond_site_symmetry_2
As0 Be6 2.315915 1_655
As0 Be2 2.318790 1_555
As0 Be5 2.333730 1_555
As0 Be0 2.337729 1_556
As0 Sr2 3.268428 1_655
As0 Sr0 3.313247 1_656
As0 Sr1 3.323370 1_555
As0 Ba0 3.326528 1_666
As1 Be1 2.332247 1_556
As1 Be7 2.332273 1_556
As1 Be6 2.332277 1_555
As1 Be3 2.332279 1_555
As1 Sr0 3.297784 1_556
As1 Sr3 3.297792 1_555
As1 Sr1 3.297798 1_556
As1 Sr2 3.297799 1_555
As2 Be7 2.315915 1_555
As2 Be2 2.318772 1_555
As2 Be8 2.333724 1_545
As2 Be4 2.337733 1_544
As2 Sr1 3.268403 1_555
As2 Sr3 3.313245 1_554
As2 Sr2 3.323369 1_655
As2 Ba0 3.326550 1_655
As3 Be3 2.315919 1_565
As3 Be9 2.318786 1_555
As3 Be0 2.333716 1_455
As3 Be8 2.337752 1_455
As3 Sr3 3.268389 1_565
As3 Sr2 3.313249 1_565
As3 Sr0 3.323367 1_555
As3 Ba0 3.326521 1_565
As4 Be1 2.315927 1_555
As4 Be9 2.318776 1_555
As4 Be4 2.333732 1_555
As4 Be5 2.337722 1_555
As4 Sr0 3.268390 1_555
As4 Sr1 3.313279 1_555
As4 Sr3 3.323343 1_565
As4 Ba0 3.326542 1_666
As5 Be0 2.332259 1_555
As5 Be5 2.332259 1_554
As5 Be8 2.332265 1_555
As5 Be4 2.332275 1_554
As5 Sr1 3.297779 1_555
As5 Sr3 3.297791 1_554
As5 Sr2 3.297796 1_554
As5 Sr0 3.297830 1_555
As6 Be0 2.315928 1_455
As6 Be9 2.318775 1_555
As6 Be1 2.333742 1_555
As6 Be6 2.337729 1_554
As6 Sr1 3.268423 1_455
As6 Sr3 3.313284 1_454
As6 Sr2 3.323367 1_555
As6 Ba0 3.326530 1_555
As7 Be5 2.315942 1_555
As7 Be2 2.318792 1_555
As7 Be7 2.333734 1_555
As7 Be1 2.337737 1_555
As7 Sr3 3.268419 1_555
As7 Sr2 3.313268 1_555
As7 Sr0 3.323378 1_545
As7 Ba0 3.326537 1_555
As8 Be8 2.315913 1_545
As8 Be2 2.318772 1_555
As8 Be6 2.333731 1_655
As8 Be3 2.337739 1_655
As8 Sr0 3.268409 1_545
As8 Sr1 3.313243 1_545
As8 Sr3 3.323408 1_555
As8 Ba0 3.326531 1_656
As9 Be4 2.315919 1_555
As9 Be9 2.318774 1_555
As9 Be3 2.333720 1_565
As9 Be7 2.337737 1_566
As9 Sr2 3.268395 1_555
As9 Sr0 3.313279 1_556
As9 Sr1 3.323367 1_455
As9 Ba0 3.326553 1_566
