# generated using pymatgen
data_AlFe2Si5Ru8
_symmetry_space_group_name_H-M   'P 1'
_cell_length_a   5.84535654
_cell_length_b   5.86493648
_cell_length_c   5.86493648
_cell_angle_alpha   90.00000000
_cell_angle_beta   90.00000000
_cell_angle_gamma   90.00000000
_symmetry_Int_Tables_number   1
_chemical_formula_structural   AlFe2Si5Ru8
_chemical_formula_sum   'Al1 Fe2 Si5 Ru8'
_cell_volume   201.06553374
_cell_formula_units_Z   1
loop_
 _symmetry_equiv_pos_site_id
 _symmetry_equiv_pos_as_xyz
  1  'x, y, z'
loop_
 _atom_site_type_symbol
 _atom_site_label
 _atom_site_symmetry_multiplicity
 _atom_site_fract_x
 _atom_site_fract_y
 _atom_site_fract_z
 _atom_site_occupancy
  Al  Al0  1  0.50000000  0.00000000  0.00000000  1
  Fe  Fe0  1  0.00000000  0.00000000  0.50000000  1
  Fe  Fe1  1  0.00000000  0.50000000  0.00000000  1
  Si  Si0  1  0.50000000  0.50000000  0.50000000  1
  Si  Si1  1  0.00000000  0.50000000  0.50000000  1
  Si  Si2  1  0.50000000  0.00000000  0.50000000  1
  Si  Si3  1  0.50000000  0.50000000  0.00000000  1
  Si  Si4  1  0.00000000  0.00000000  0.00000000  1
  Ru  Ru0  1  0.25316608  0.74653624  0.74653624  1
  Ru  Ru1  1  0.74683392  0.25346376  0.74653624  1
  Ru  Ru2  1  0.74683392  0.74653624  0.74653624  1
  Ru  Ru3  1  0.74683392  0.74653624  0.25346376  1
  Ru  Ru4  1  0.74683392  0.25346376  0.25346376  1
  Ru  Ru5  1  0.25316608  0.25346376  0.74653624  1
  Ru  Ru6  1  0.25316608  0.74653624  0.25346376  1
  Ru  Ru7  1  0.25316608  0.25346376  0.25346376  1
loop_
_geom_bond_atom_site_label_1
_geom_bond_atom_site_label_2
_geom_bond_distance
_geom_bond_site_symmetry_2
Al0 Ru4 2.549788 1_555
Al0 Ru1 2.549788 1_554
Al0 Ru3 2.549788 1_545
Al0 Ru7 2.549788 1_555
Al0 Ru2 2.549788 1_544
Al0 Ru5 2.549788 1_554
Al0 Ru6 2.549788 1_545
Al0 Ru0 2.549788 1_544
Fe0 Ru5 2.547637 1_555
Fe0 Ru7 2.547637 1_555
Fe0 Ru0 2.547637 1_545
Fe0 Ru1 2.547637 1_455
Fe0 Ru6 2.547637 1_545
Fe0 Ru4 2.547637 1_455
Fe0 Ru2 2.547637 1_445
Fe0 Ru3 2.547637 1_445
Fe1 Ru6 2.547637 1_555
Fe1 Ru7 2.547637 1_555
Fe1 Ru3 2.547637 1_455
Fe1 Ru0 2.547637 1_554
Fe1 Ru4 2.547637 1_455
Fe1 Ru5 2.547637 1_554
Fe1 Ru2 2.547637 1_454
Fe1 Ru1 2.547637 1_454
Ru0 Si0 2.502625 1_555
Ru0 Si1 2.524145 1_555
Ru0 Si3 2.526317 1_556
Ru0 Si2 2.526317 1_565
Ru0 Si4 2.570914 1_566
Ru1 Si0 2.502625 1_555
Ru1 Si1 2.524145 1_655
Ru1 Si2 2.526317 1_555
Ru1 Si3 2.526317 1_556
Ru1 Si4 2.570914 1_656
Ru2 Si0 2.502625 1_555
Ru2 Si1 2.524145 1_655
Ru2 Si2 2.526317 1_565
Ru2 Si3 2.526317 1_556
Ru2 Si4 2.570914 1_666
Ru3 Si0 2.502625 1_555
Ru3 Si1 2.524145 1_655
Ru3 Si3 2.526317 1_555
Ru3 Si2 2.526317 1_565
Ru3 Si4 2.570914 1_665
Ru4 Si0 2.502625 1_555
Ru4 Si1 2.524145 1_655
Ru4 Si3 2.526317 1_555
Ru4 Si2 2.526317 1_555
Ru4 Si4 2.570914 1_655
Ru5 Si0 2.502625 1_555
Ru5 Si1 2.524145 1_555
Ru5 Si2 2.526317 1_555
Ru5 Si3 2.526317 1_556
Ru5 Si4 2.570914 1_556
Ru6 Si0 2.502625 1_555
Ru6 Si1 2.524145 1_555
Ru6 Si3 2.526317 1_555
Ru6 Si2 2.526317 1_565
Ru6 Si4 2.570914 1_565
Ru7 Si0 2.502625 1_555
Ru7 Si1 2.524145 1_555
Ru7 Si2 2.526317 1_555
Ru7 Si3 2.526317 1_555
Ru7 Si4 2.570914 1_555
