# generated using pymatgen
data_Hf6Ti(NbSn2)5
_symmetry_space_group_name_H-M   'P 1'
_cell_length_a   9.56132558
_cell_length_b   9.55427557
_cell_length_c   5.76845963
_cell_angle_alpha   90.32777385
_cell_angle_beta   90.00000001
_cell_angle_gamma   120.02440878
_symmetry_Int_Tables_number   1
_chemical_formula_structural   Hf6Ti(NbSn2)5
_chemical_formula_sum   'Hf6 Ti1 Nb5 Sn10'
_cell_volume   456.23648069
_cell_formula_units_Z   1
loop_
 _symmetry_equiv_pos_site_id
 _symmetry_equiv_pos_as_xyz
  1  'x, y, z'
loop_
 _atom_site_type_symbol
 _atom_site_label
 _atom_site_symmetry_multiplicity
 _atom_site_fract_x
 _atom_site_fract_y
 _atom_site_fract_z
 _atom_site_occupancy
  Hf  Hf0  1  0.84545010  0.69090019  0.74897551  1
  Hf  Hf1  1  0.15450924  0.84532683  0.25369091  1
  Hf  Hf2  1  0.69081760  0.84532683  0.25369091  1
  Hf  Hf3  1  0.30918240  0.15467317  0.74630909  1
  Hf  Hf4  1  0.84549076  0.15467317  0.74630909  1
  Hf  Hf5  1  0.15454990  0.30909981  0.25102449  1
  Ti  Ti0  1  0.50000000  0.00000000  0.00000000  1
  Nb  Nb0  1  0.50000000  0.00000000  0.50000000  1
  Nb  Nb1  1  0.50000000  0.50000000  0.00000000  1
  Nb  Nb2  1  0.00000000  0.50000000  0.00000000  1
  Nb  Nb3  1  0.00000000  0.50000000  0.50000000  1
  Nb  Nb4  1  0.50000000  0.50000000  0.50000000  1
  Sn  Sn0  1  0.20826867  0.41653733  0.75098084  1
  Sn  Sn1  1  0.78840395  0.20726116  0.24544398  1
  Sn  Sn2  1  0.41885721  0.20726116  0.24544398  1
  Sn  Sn3  1  0.58114279  0.79273884  0.75455602  1
  Sn  Sn4  1  0.21159605  0.79273884  0.75455602  1
  Sn  Sn5  1  0.79173133  0.58346267  0.24901916  1
  Sn  Sn6  1  0.66595146  0.33190191  0.74659107  1
  Sn  Sn7  1  0.33404854  0.66809809  0.25340893  1
  Sn  Sn8  1  0.00000000  0.00000000  0.50000000  1
  Sn  Sn9  1  0.00000000  0.00000000  0.00000000  1
loop_
_geom_bond_atom_site_label_1
_geom_bond_atom_site_label_2
_geom_bond_distance
_geom_bond_site_symmetry_2
Hf0 Sn9 2.930150 1_666
Hf0 Sn8 2.940943 1_665
Hf0 Sn6 2.969650 1_555
Hf0 Sn5 3.012196 1_555
Hf0 Sn5 3.023901 1_556
Hf0 Sn3 3.129612 1_555
Hf0 Sn4 3.129612 1_655
Hf0 Nb3 3.200026 1_655
Hf0 Nb4 3.200026 1_555
Hf0 Nb2 3.214723 1_656
Hf0 Nb1 3.214723 1_556
Hf1 Sn8 2.923321 1_565
Hf1 Sn9 2.952522 1_565
Hf1 Sn7 2.953464 1_555
Hf1 Sn4 3.016337 1_554
Hf1 Sn4 3.031340 1_555
Hf1 Sn2 3.098990 1_565
Hf1 Sn5 3.099412 1_455
Hf1 Nb0 3.194596 1_565
Hf1 Nb3 3.203554 1_555
Hf1 Nb2 3.205729 1_555
Hf1 Ti0 3.221339 1_565
Hf2 Sn8 2.923321 1_665
Hf2 Sn9 2.952522 1_665
Hf2 Sn7 2.953472 1_555
Hf2 Sn3 3.016337 1_554
Hf2 Sn3 3.031340 1_555
Hf2 Sn1 3.098990 1_565
Hf2 Sn5 3.099411 1_555
Hf2 Nb0 3.194596 1_565
Hf2 Nb4 3.203554 1_555
Hf2 Nb1 3.205729 1_555
Hf2 Ti0 3.221339 1_565
Hf3 Sn8 2.923321 1_555
Hf3 Sn9 2.952522 1_556
Hf3 Sn6 2.953472 1_555
Hf3 Sn2 3.016337 1_556
Hf3 Sn2 3.031340 1_555
Hf3 Sn4 3.098990 1_545
Hf3 Sn0 3.099411 1_555
Hf3 Nb0 3.194596 1_555
Hf3 Nb4 3.203554 1_555
Hf3 Nb1 3.205729 1_556
Hf3 Ti0 3.221339 1_556
Hf4 Sn8 2.923321 1_655
Hf4 Sn9 2.952522 1_656
Hf4 Sn6 2.953464 1_555
Hf4 Sn1 3.016337 1_556
Hf4 Sn1 3.031340 1_555
Hf4 Sn3 3.098990 1_545
Hf4 Sn0 3.099412 1_655
Hf4 Nb0 3.194596 1_555
Hf4 Nb3 3.203554 1_655
Hf4 Nb2 3.205729 1_656
Hf4 Ti0 3.221339 1_556
Hf5 Sn9 2.930150 1_555
Hf5 Sn8 2.940943 1_555
Hf5 Sn7 2.969650 1_555
Hf5 Sn0 3.012196 1_555
Hf5 Sn0 3.023901 1_554
Hf5 Sn2 3.129612 1_555
Hf5 Sn1 3.129612 1_455
Hf5 Nb3 3.200026 1_555
Hf5 Nb4 3.200026 1_555
Hf5 Nb2 3.214723 1_555
Hf5 Nb1 3.214723 1_555
Nb0 Sn3 2.872307 1_545
Nb0 Sn2 2.872307 1_555
Nb0 Sn4 2.872307 1_545
Nb0 Sn1 2.872307 1_555
Nb0 Ti0 2.884230 1_556
Nb0 Ti0 2.884230 1_555
Nb0 Sn6 3.083807 1_555
Nb0 Sn7 3.083807 1_545
Nb1 Sn5 2.870656 1_555
Nb1 Sn0 2.870656 1_554
Nb1 Sn3 2.881487 1_554
Nb1 Sn2 2.881487 1_555
Nb1 Nb4 2.884230 1_554
Nb1 Nb4 2.884230 1_555
Nb1 Sn7 3.123660 1_555
Nb1 Sn6 3.123660 1_554
Nb2 Sn0 2.870656 1_554
Nb2 Sn5 2.870656 1_455
Nb2 Sn1 2.881487 1_455
Nb2 Sn4 2.881487 1_554
Nb2 Nb3 2.884230 1_554
Nb2 Nb3 2.884230 1_555
Nb2 Sn7 3.123653 1_555
Nb2 Sn6 3.123653 1_454
Nb3 Sn0 2.880906 1_555
Nb3 Sn5 2.880906 1_455
Nb3 Sn1 2.891759 1_455
Nb3 Sn4 2.891759 1_555
Nb3 Sn7 3.113964 1_555
Nb3 Sn6 3.113964 1_455
Nb4 Sn5 2.880906 1_555
Nb4 Sn0 2.880906 1_555
Nb4 Sn3 2.891759 1_555
Nb4 Sn2 2.891759 1_555
Nb4 Sn6 3.113972 1_555
Nb4 Sn7 3.113972 1_555
Sn1 Ti0 2.834289 1_555
Sn2 Ti0 2.834289 1_555
Sn3 Ti0 2.834289 1_566
Sn4 Ti0 2.834289 1_566
Sn6 Ti0 3.118965 1_556
Sn7 Ti0 3.118965 1_565
