# generated using pymatgen
data_CsNb4AsO13
_symmetry_space_group_name_H-M   'P 1'
_cell_length_a   7.48291297
_cell_length_b   7.48291293
_cell_length_c   10.17664036
_cell_angle_alpha   90.00000000
_cell_angle_beta   90.00000000
_cell_angle_gamma   91.32217871
_symmetry_Int_Tables_number   1
_chemical_formula_structural   CsNb4AsO13
_chemical_formula_sum   'Cs2 Nb8 As2 O26'
_cell_volume   569.67894445
_cell_formula_units_Z   2
loop_
 _symmetry_equiv_pos_site_id
 _symmetry_equiv_pos_as_xyz
  1  'x, y, z'
loop_
 _atom_site_type_symbol
 _atom_site_label
 _atom_site_symmetry_multiplicity
 _atom_site_fract_x
 _atom_site_fract_y
 _atom_site_fract_z
 _atom_site_occupancy
  Cs  Cs0  1  0.42764661  0.42764661  0.44926614  1
  Cs  Cs1  1  0.57235339  0.57235339  0.94926614  1
  Nb  Nb0  1  0.55427112  0.89800947  0.25524502  1
  Nb  Nb1  1  0.10199053  0.44572888  0.75524502  1
  Nb  Nb2  1  0.44572888  0.10199053  0.75524502  1
  Nb  Nb3  1  0.89800947  0.55427112  0.25524502  1
  Nb  Nb4  1  0.17842373  0.83728558  0.50436144  1
  Nb  Nb5  1  0.16271442  0.82157627  0.00436144  1
  Nb  Nb6  1  0.83728558  0.17842373  0.50436144  1
  Nb  Nb7  1  0.82157627  0.16271442  0.00436144  1
  As  As0  1  0.16163943  0.16163943  0.24409947  1
  As  As1  1  0.83836057  0.83836057  0.74409947  1
  O  O0  1  0.66284689  0.66284689  0.25461828  1
  O  O1  1  0.33715311  0.33715311  0.75461828  1
  O  O2  1  0.38307152  0.12718411  0.24399616  1
  O  O3  1  0.87281589  0.61692848  0.74399616  1
  O  O4  1  0.61692848  0.87281589  0.74399616  1
  O  O5  1  0.12718411  0.38307152  0.24399616  1
  O  O6  1  0.80548226  0.36448149  0.38683050  1
  O  O7  1  0.65064711  0.19929380  0.61877105  1
  O  O8  1  0.80070620  0.34935289  0.11877105  1
  O  O9  1  0.63551851  0.19451774  0.88683050  1
  O  O10  1  0.19929380  0.65064711  0.61877105  1
  O  O11  1  0.36448149  0.80548226  0.38683050  1
  O  O12  1  0.19451774  0.63551851  0.88683050  1
  O  O13  1  0.34935289  0.80070620  0.11877105  1
  O  O14  1  0.07035230  0.07035230  0.38481745  1
  O  O15  1  0.93526082  0.93526082  0.60721662  1
  O  O16  1  0.06473918  0.06473918  0.10721662  1
  O  O17  1  0.92964770  0.92964770  0.88481745  1
  O  O18  1  0.69463058  0.00381228  0.38511935  1
  O  O19  1  0.02053291  0.31177626  0.60586600  1
  O  O20  1  0.68822374  0.97946709  0.10586600  1
  O  O21  1  0.99618772  0.30536942  0.88511935  1
  O  O22  1  0.31177626  0.02053291  0.60586600  1
  O  O23  1  0.00381228  0.69463058  0.38511935  1
  O  O24  1  0.30536942  0.99618772  0.88511935  1
  O  O25  1  0.97946709  0.68822374  0.10586600  1
loop_
_geom_bond_atom_site_label_1
_geom_bond_atom_site_label_2
_geom_bond_distance
_geom_bond_site_symmetry_2
Cs0 O11 2.946605 1_555
Cs0 O6 2.946605 1_555
Cs0 O7 2.968421 1_555
Cs0 O10 2.968421 1_555
Cs0 O2 3.081462 1_555
Cs0 O5 3.081462 1_555
Cs0 O0 3.158472 1_555
Cs0 O1 3.248418 1_555
Cs0 O22 3.528479 1_555
Cs0 O19 3.528479 1_555
Cs1 O9 2.946605 1_555
Cs1 O12 2.946605 1_555
Cs1 O13 2.968421 1_556
Cs1 O8 2.968421 1_556
Cs1 O4 3.081462 1_555
Cs1 O3 3.081462 1_555
Cs1 O1 3.158472 1_555
Cs1 O0 3.248418 1_556
Cs1 O20 3.528479 1_556
Cs1 O25 3.528479 1_556
Nb0 O18 1.854295 1_565
Nb0 O20 1.912851 1_555
Nb0 O0 1.955163 1_555
Nb0 O11 2.060120 1_555
Nb0 O2 2.167140 1_565
Nb0 O13 2.181465 1_555
Nb1 O21 1.854295 1_455
Nb1 O19 1.912851 1_555
Nb1 O1 1.955163 1_555
Nb1 O12 2.060120 1_555
Nb1 O3 2.167140 1_455
Nb1 O10 2.181465 1_555
Nb2 O24 1.854295 1_545
Nb2 O22 1.912851 1_555
Nb2 O1 1.955163 1_555
Nb2 O9 2.060120 1_555
Nb2 O4 2.167140 1_545
Nb2 O7 2.181465 1_555
Nb3 O23 1.854295 1_655
Nb3 O25 1.912851 1_555
Nb3 O0 1.955163 1_555
Nb3 O6 2.060120 1_555
Nb3 O5 2.167140 1_655
Nb3 O8 2.181465 1_555
Nb4 O10 1.827717 1_555
Nb4 O11 1.854961 1_555
Nb4 O22 1.969742 1_565
Nb4 O23 2.062738 1_555
Nb4 O15 2.237298 1_455
Nb4 O14 2.289251 1_565
Nb5 O13 1.827717 1_555
Nb5 O12 1.854961 1_554
Nb5 O25 1.969742 1_455
Nb5 O24 2.062738 1_554
Nb5 O16 2.237298 1_565
Nb5 O17 2.289251 1_454
Nb6 O7 1.827717 1_555
Nb6 O6 1.854961 1_555
Nb6 O19 1.969742 1_655
Nb6 O18 2.062738 1_555
Nb6 O15 2.237298 1_545
Nb6 O14 2.289251 1_655
Nb7 O8 1.827717 1_555
Nb7 O9 1.854961 1_554
Nb7 O20 1.969742 1_545
Nb7 O21 2.062738 1_554
Nb7 O16 2.237298 1_655
Nb7 O17 2.289251 1_544
As0 O5 1.682765 1_555
As0 O2 1.682765 1_555
As0 O14 1.721171 1_555
As0 O16 1.722712 1_555
As1 O3 1.682765 1_555
As1 O4 1.682765 1_555
As1 O17 1.721171 1_555
As1 O15 1.722712 1_555
