# generated using pymatgen
data_Gd2B4O9
_symmetry_space_group_name_H-M   'P 1'
_cell_length_a   6.18453960
_cell_length_b   6.45949821
_cell_length_c   7.50911235
_cell_angle_alpha   102.33199779
_cell_angle_beta   97.13857088
_cell_angle_gamma   102.57359116
_symmetry_Int_Tables_number   1
_chemical_formula_structural   Gd2B4O9
_chemical_formula_sum   'Gd4 B8 O18'
_cell_volume   281.40719874
_cell_formula_units_Z   2
loop_
 _symmetry_equiv_pos_site_id
 _symmetry_equiv_pos_as_xyz
  1  'x, y, z'
loop_
 _atom_site_type_symbol
 _atom_site_label
 _atom_site_symmetry_multiplicity
 _atom_site_fract_x
 _atom_site_fract_y
 _atom_site_fract_z
 _atom_site_occupancy
  Gd  Gd0  1  0.45321109  0.90838667  0.71610065  1
  Gd  Gd1  1  0.54678891  0.09161333  0.28389935  1
  Gd  Gd2  1  0.11291053  0.32186489  0.64038269  1
  Gd  Gd3  1  0.88708947  0.67813511  0.35961731  1
  B  B0  1  0.99507296  0.14766852  0.18768439  1
  B  B1  1  0.00492704  0.85233148  0.81231561  1
  B  B2  1  0.37388351  0.64309058  0.34770935  1
  B  B3  1  0.62611649  0.35690942  0.65229065  1
  B  B4  1  0.26897590  0.66536073  0.01874098  1
  B  B5  1  0.73102410  0.33463927  0.98125902  1
  B  B6  1  0.33799590  0.32042650  0.07350822  1
  B  B7  1  0.66200410  0.67957350  0.92649178  1
  O  O0  1  0.57774877  0.81606773  0.44310589  1
  O  O1  1  0.23826546  0.73584216  0.20969239  1
  O  O2  1  0.77858763  0.40668734  0.52502584  1
  O  O3  1  0.22141237  0.59331266  0.47497416  1
  O  O4  1  0.76173454  0.26415784  0.79030761  1
  O  O5  1  0.86110683  0.28152349  0.13991842  1
  O  O6  1  0.54119319  0.53637253  0.74876821  1
  O  O7  1  0.45880681  0.46362747  0.25123179  1
  O  O8  1  0.77383653  0.56988903  0.03929416  1
  O  O9  1  0.22616347  0.43011097  0.96070584  1
  O  O10  1  0.81343366  0.86553313  0.88126552  1
  O  O11  1  0.18656634  0.13446687  0.11873448  1
  O  O12  1  0.06606182  0.95218376  0.67711748  1
  O  O13  1  0.93393818  0.04781624  0.32288252  1
  O  O14  1  0.49525334  0.21417810  0.98177402  1
  O  O15  1  0.50474666  0.78582190  0.01822598  1
  O  O16  1  0.13889317  0.71847651  0.86008158  1
  O  O17  1  0.42225123  0.18393227  0.55689411  1
loop_
_geom_bond_atom_site_label_1
_geom_bond_atom_site_label_2
_geom_bond_distance
_geom_bond_site_symmetry_2
Gd0 O0 2.285025 1_555
Gd0 O17 2.373664 1_565
Gd0 O14 2.431749 1_565
Gd0 O3 2.446665 1_555
Gd0 O12 2.460627 1_555
Gd0 O10 2.511253 1_555
Gd0 O16 2.550140 1_555
Gd0 O4 2.551888 1_565
Gd0 O15 2.563733 1_556
Gd0 O6 2.630340 1_555
Gd1 O17 2.285025 1_555
Gd1 O0 2.373664 1_545
Gd1 O15 2.431749 1_545
Gd1 O2 2.446665 1_555
Gd1 O13 2.460627 1_555
Gd1 O11 2.511253 1_555
Gd1 O5 2.550140 1_555
Gd1 O1 2.551888 1_545
Gd1 O14 2.563733 1_554
Gd1 O7 2.630340 1_555
Gd2 O9 2.326972 1_555
Gd2 O2 2.361460 1_455
Gd2 O17 2.376673 1_555
Gd2 O3 2.385928 1_555
Gd2 O12 2.421232 1_545
Gd2 O4 2.560828 1_455
Gd2 O13 2.594459 1_455
Gd2 O6 2.642476 1_555
Gd2 O16 2.694510 1_555
Gd3 O8 2.326972 1_555
Gd3 O3 2.361460 1_655
Gd3 O0 2.376673 1_555
Gd3 O2 2.385928 1_555
Gd3 O13 2.421232 1_565
Gd3 O1 2.560828 1_655
Gd3 O12 2.594459 1_655
Gd3 O7 2.642476 1_555
Gd3 O5 2.694510 1_555
B0 O11 1.362135 1_655
B0 O13 1.363293 1_555
B0 O5 1.390395 1_555
B1 O10 1.362135 1_455
B1 O12 1.363293 1_555
B1 O16 1.390395 1_555
B2 O3 1.459123 1_555
B2 O7 1.464736 1_555
B2 O0 1.473612 1_555
B2 O1 1.550645 1_555
B3 O2 1.459123 1_555
B3 O6 1.464736 1_555
B3 O17 1.473612 1_555
B3 O4 1.550645 1_555
B4 O9 1.443074 1_554
B4 O1 1.458024 1_555
B4 O15 1.496774 1_555
B4 O16 1.496970 1_554
B5 O8 1.443074 1_556
B5 O4 1.458024 1_555
B5 O14 1.496774 1_555
B5 O5 1.496970 1_556
B6 O9 1.421942 1_554
B6 O7 1.455632 1_555
B6 O14 1.465124 1_554
B6 O11 1.482840 1_555
B7 O8 1.421942 1_556
B7 O6 1.455632 1_555
B7 O15 1.465124 1_556
B7 O10 1.482840 1_555
