# generated using pymatgen
data_K3Rb3MgTe4
_symmetry_space_group_name_H-M   'P 1'
_cell_length_a   11.11802730
_cell_length_b   11.11802783
_cell_length_c   8.81669166
_cell_angle_alpha   90.00000000
_cell_angle_beta   90.00000000
_cell_angle_gamma   119.99999840
_symmetry_Int_Tables_number   1
_chemical_formula_structural   K3Rb3MgTe4
_chemical_formula_sum   'K6 Rb6 Mg2 Te8'
_cell_volume   943.82566811
_cell_formula_units_Z   2
loop_
 _symmetry_equiv_pos_site_id
 _symmetry_equiv_pos_as_xyz
  1  'x, y, z'
loop_
 _atom_site_type_symbol
 _atom_site_label
 _atom_site_symmetry_multiplicity
 _atom_site_fract_x
 _atom_site_fract_y
 _atom_site_fract_z
 _atom_site_occupancy
  K  K0  1  0.14816431  0.85183569  0.54184957  1
  K  K1  1  0.29632863  0.14816431  0.04184957  1
  K  K2  1  0.85183569  0.70367137  0.04184957  1
  K  K3  1  0.14816431  0.29632863  0.54184957  1
  K  K4  1  0.70367137  0.85183569  0.54184957  1
  K  K5  1  0.85183569  0.14816431  0.04184957  1
  Rb  Rb0  1  0.52652747  0.47347253  0.36594028  1
  Rb  Rb1  1  0.05305294  0.52652747  0.86594028  1
  Rb  Rb2  1  0.47347253  0.94694706  0.86594028  1
  Rb  Rb3  1  0.52652747  0.05305294  0.36594028  1
  Rb  Rb4  1  0.94694706  0.47347253  0.36594028  1
  Rb  Rb5  1  0.47347253  0.52652747  0.86594028  1
  Mg  Mg0  1  0.33333300  0.66666700  0.24749425  1
  Mg  Mg1  1  0.66666700  0.33333300  0.74749425  1
  Te  Te0  1  0.33333300  0.66666700  0.57134233  1
  Te  Te1  1  0.66666700  0.33333300  0.07134233  1
  Te  Te2  1  0.19137379  0.80862621  0.15309596  1
  Te  Te3  1  0.38274558  0.19137379  0.65309596  1
  Te  Te4  1  0.80862621  0.61725442  0.65309596  1
  Te  Te5  1  0.19137379  0.38274558  0.15309596  1
  Te  Te6  1  0.61725442  0.80862621  0.15309596  1
  Te  Te7  1  0.80862621  0.19137379  0.65309596  1
loop_
_geom_bond_atom_site_label_1
_geom_bond_atom_site_label_2
_geom_bond_distance
_geom_bond_site_symmetry_2
K0 Te4 3.488437 1_455
K0 Te3 3.488437 1_565
K0 Te2 3.527076 1_555
K0 Te0 3.575260 1_555
K1 Te5 3.488421 1_555
K1 Te2 3.488442 1_545
K1 Te3 3.527071 1_554
K1 Te1 3.575269 1_555
K2 Te6 3.488421 1_555
K2 Te2 3.488442 1_655
K2 Te4 3.527071 1_554
K2 Te1 3.575270 1_555
K3 Te3 3.488421 1_555
K3 Te7 3.488442 1_455
K3 Te5 3.527071 1_555
K3 Te0 3.575270 1_555
K4 Te4 3.488421 1_555
K4 Te7 3.488442 1_565
K4 Te6 3.527071 1_555
K4 Te0 3.575269 1_555
K5 Te5 3.488437 1_655
K5 Te6 3.488437 1_545
K5 Te7 3.527076 1_554
K5 Te1 3.575260 1_555
Rb0 Te4 3.713275 1_555
Rb0 Te3 3.713276 1_555
Rb0 Te1 3.745554 1_555
Rb0 Te5 3.829528 1_555
Rb0 Te6 3.829528 1_555
Rb1 Te2 3.713275 1_556
Rb1 Te5 3.713303 1_556
Rb1 Te0 3.745561 1_555
Rb1 Te4 3.829528 1_455
Rb1 Te7 3.829528 1_455
Rb2 Te2 3.713275 1_556
Rb2 Te6 3.713303 1_556
Rb2 Te0 3.745561 1_555
Rb2 Te3 3.829528 1_565
Rb2 Te7 3.829528 1_565
Rb3 Te7 3.713275 1_555
Rb3 Te3 3.713303 1_555
Rb3 Te1 3.745561 1_555
Rb3 Te6 3.829528 1_545
Rb3 Te2 3.829528 1_545
Rb4 Te7 3.713275 1_555
Rb4 Te4 3.713303 1_555
Rb4 Te1 3.745561 1_555
Rb4 Te5 3.829528 1_655
Rb4 Te2 3.829528 1_655
Rb5 Te5 3.713275 1_556
Rb5 Te6 3.713276 1_556
Rb5 Te0 3.745554 1_555
Rb5 Te4 3.829528 1_555
Rb5 Te3 3.829528 1_555
Mg0 Te0 2.855269 1_555
Mg0 Te2 2.857594 1_555
Mg0 Te6 2.857622 1_555
Mg0 Te5 2.857622 1_555
Mg1 Te1 2.855269 1_556
Mg1 Te7 2.857594 1_555
Mg1 Te3 2.857622 1_555
Mg1 Te4 2.857622 1_555
