# generated using pymatgen
data_Zr5BeSn3
_symmetry_space_group_name_H-M   'P 1'
_cell_length_a   8.60695421
_cell_length_b   8.60695323
_cell_length_c   5.83955959
_cell_angle_alpha   90.00000000
_cell_angle_beta   90.00000000
_cell_angle_gamma   120.00000378
_symmetry_Int_Tables_number   1
_chemical_formula_structural   Zr5BeSn3
_chemical_formula_sum   'Zr10 Be2 Sn6'
_cell_volume   374.63611841
_cell_formula_units_Z   2
loop_
 _symmetry_equiv_pos_site_id
 _symmetry_equiv_pos_as_xyz
  1  'x, y, z'
loop_
 _atom_site_type_symbol
 _atom_site_label
 _atom_site_symmetry_multiplicity
 _atom_site_fract_x
 _atom_site_fract_y
 _atom_site_fract_z
 _atom_site_occupancy
  Zr  Zr0  1  0.66666700  0.33333300  0.00000000  1
  Zr  Zr1  1  0.33333300  0.66666700  0.00000000  1
  Zr  Zr2  1  0.33333300  0.66666700  0.50000000  1
  Zr  Zr3  1  0.66666700  0.33333300  0.50000000  1
  Zr  Zr4  1  0.74942429  0.74942429  0.75000000  1
  Zr  Zr5  1  0.25057571  0.00000000  0.75000000  1
  Zr  Zr6  1  1.00000000  0.25057571  0.75000000  1
  Zr  Zr7  1  0.25057571  0.25057571  0.25000000  1
  Zr  Zr8  1  0.74942429  0.00000000  0.25000000  1
  Zr  Zr9  1  0.00000000  0.74942429  0.25000000  1
  Be  Be0  1  0.00000000  0.00000000  0.00000000  1
  Be  Be1  1  0.00000000  0.00000000  0.50000000  1
  Sn  Sn0  1  0.38959650  0.38959650  0.75000000  1
  Sn  Sn1  1  0.61040350  0.00000000  0.75000000  1
  Sn  Sn2  1  1.00000000  0.61040350  0.75000000  1
  Sn  Sn3  1  0.61040350  0.61040350  0.25000000  1
  Sn  Sn4  1  0.38959650  0.00000000  0.25000000  1
  Sn  Sn5  1  0.00000000  0.38959650  0.25000000  1
loop_
_geom_bond_atom_site_label_1
_geom_bond_atom_site_label_2
_geom_bond_distance
_geom_bond_site_symmetry_2
Be0 Zr7 2.604344 1_555
Be0 Zr6 2.604344 1_454
Be0 Zr9 2.604344 1_545
Be0 Zr4 2.604344 1_444
Be0 Zr5 2.604344 1_554
Be0 Zr8 2.604344 1_455
Be1 Zr7 2.604344 1_555
Be1 Zr6 2.604344 1_455
Be1 Zr9 2.604344 1_545
Be1 Zr4 2.604344 1_445
Be1 Zr5 2.604344 1_555
Be1 Zr8 2.604344 1_455
Sn0 Zr5 2.943404 1_555
Sn0 Zr6 2.943405 1_455
Sn0 Zr2 3.034396 1_555
Sn0 Zr1 3.034396 1_556
Sn0 Zr3 3.034396 1_555
Sn0 Zr0 3.034396 1_556
Sn0 Zr4 3.097021 1_555
Sn0 Zr7 3.155445 1_555
Sn0 Zr7 3.155445 1_556
Sn1 Zr6 2.943405 1_555
Sn1 Zr4 2.943405 1_545
Sn1 Zr3 3.034388 1_555
Sn1 Zr0 3.034388 1_556
Sn1 Zr2 3.034391 1_545
Sn1 Zr1 3.034391 1_546
Sn1 Zr5 3.097021 1_555
Sn1 Zr8 3.155445 1_556
Sn1 Zr8 3.155445 1_555
Sn2 Zr5 2.943404 1_665
Sn2 Zr4 2.943405 1_555
Sn2 Zr2 3.034389 1_655
Sn2 Zr1 3.034389 1_656
Sn2 Zr3 3.034391 1_555
Sn2 Zr0 3.034391 1_556
Sn2 Zr6 3.097021 1_555
Sn2 Zr9 3.155445 1_656
Sn2 Zr9 3.155445 1_655
Sn3 Zr8 2.943404 1_565
Sn3 Zr9 2.943405 1_655
Sn3 Zr3 3.034396 1_555
Sn3 Zr0 3.034396 1_555
Sn3 Zr2 3.034396 1_555
Sn3 Zr1 3.034396 1_555
Sn3 Zr7 3.097021 1_555
Sn3 Zr4 3.155445 1_555
Sn3 Zr4 3.155445 1_554
Sn4 Zr7 2.943405 1_555
Sn4 Zr9 2.943405 1_545
Sn4 Zr2 3.034388 1_545
Sn4 Zr1 3.034388 1_545
Sn4 Zr3 3.034391 1_555
Sn4 Zr0 3.034391 1_555
Sn4 Zr8 3.097021 1_555
Sn4 Zr5 3.155445 1_554
Sn4 Zr5 3.155445 1_555
Sn5 Zr8 2.943404 1_455
Sn5 Zr7 2.943405 1_555
Sn5 Zr3 3.034389 1_455
Sn5 Zr0 3.034389 1_455
Sn5 Zr1 3.034391 1_555
Sn5 Zr2 3.034391 1_555
Sn5 Zr9 3.097021 1_555
Sn5 Zr6 3.155445 1_455
Sn5 Zr6 3.155445 1_454
