# generated using pymatgen
data_Sr2IrOsO7
_symmetry_space_group_name_H-M   'P 1'
_cell_length_a   7.38409420
_cell_length_b   7.38409273
_cell_length_c   7.38415388
_cell_angle_alpha   120.44035175
_cell_angle_beta   117.39197161
_cell_angle_gamma   91.90691776
_symmetry_Int_Tables_number   1
_chemical_formula_structural   Sr2IrOsO7
_chemical_formula_sum   'Sr4 Ir2 Os2 O14'
_cell_volume   288.94118461
_cell_formula_units_Z   2
loop_
 _symmetry_equiv_pos_site_id
 _symmetry_equiv_pos_as_xyz
  1  'x, y, z'
loop_
 _atom_site_type_symbol
 _atom_site_label
 _atom_site_symmetry_multiplicity
 _atom_site_fract_x
 _atom_site_fract_y
 _atom_site_fract_z
 _atom_site_occupancy
  Sr  Sr0  1  0.50000000  0.50000000  0.50000000  1
  Sr  Sr1  1  0.50000000  0.00000000  0.00000000  1
  Sr  Sr2  1  0.50000000  0.50000000  0.00000000  1
  Sr  Sr3  1  0.00000000  0.00000000  0.00000000  1
  Ir  Ir0  1  0.00000000  0.50000000  0.00000000  1
  Ir  Ir1  1  0.00000000  0.00000000  0.50000000  1
  Os  Os0  1  0.00000000  0.50000000  0.50000000  1
  Os  Os1  1  0.50000000  0.00000000  0.50000000  1
  O  O0  1  0.95237472  0.57819319  0.76484897  1
  O  O1  1  0.04764988  0.81269444  0.62592276  1
  O  O2  1  0.68677168  0.92172611  0.37407724  1
  O  O3  1  0.31334422  0.68752576  0.23515103  1
  O  O4  1  0.04762528  0.42180681  0.23515103  1
  O  O5  1  0.95235012  0.18730556  0.37407724  1
  O  O6  1  0.31322832  0.07827389  0.62592276  1
  O  O7  1  0.68665578  0.31247424  0.76484897  1
  O  O8  1  0.11137610  0.25003673  0.86141283  1
  O  O9  1  0.88862390  0.74996327  0.13858717  1
  O  O10  1  0.69007125  0.40872347  0.28134566  1
  O  O11  1  0.30992875  0.59127653  0.71865434  1
  O  O12  1  0.37262318  0.09127441  0.28134566  1
  O  O13  1  0.62737682  0.90872559  0.71865434  1
loop_
_geom_bond_atom_site_label_1
_geom_bond_atom_site_label_2
_geom_bond_distance
_geom_bond_site_symmetry_2
Ir0 O3 1.984848 1_555
Ir0 O7 1.984848 1_454
Ir0 O4 1.984848 1_555
Ir0 O0 1.984848 1_454
Ir0 O9 2.022845 1_455
Ir0 O8 2.022845 1_554
Ir1 O5 1.983877 1_455
Ir1 O1 1.983877 1_545
Ir1 O6 1.983877 1_555
Ir1 O2 1.983877 1_445
Ir1 O8 2.023358 1_555
Ir1 O9 2.023358 1_445
O0 Os0 1.945230 1_655
O0 Sr3 2.593253 1_666
O0 Sr0 2.834178 1_555
O1 Os0 1.946569 1_555
O1 Sr3 2.592727 1_566
O1 Sr1 2.833990 1_566
O2 Os1 1.946571 1_565
O2 Sr2 2.592722 1_555
O2 Sr1 2.833995 1_565
O3 Os1 1.945230 1_565
O3 Sr2 2.593253 1_555
O3 Sr0 2.834178 1_555
O4 Os0 1.945230 1_555
O4 Sr3 2.593253 1_555
O4 Sr0 2.834178 1_555
O5 Os0 1.946569 1_655
O5 Sr3 2.592727 1_655
O5 Sr1 2.833990 1_555
O6 Os1 1.946571 1_555
O6 Sr2 2.592722 1_556
O6 Sr1 2.833995 1_556
O7 Os1 1.945230 1_555
O7 Sr2 2.593253 1_556
O7 Sr0 2.834178 1_555
O8 Sr2 2.778536 1_556
O8 Sr3 2.778536 1_556
O9 Sr2 2.778536 1_555
O9 Sr3 2.778536 1_665
O10 Os0 1.921783 1_655
O10 Sr2 2.353490 1_555
O10 Sr1 2.465020 1_555
O10 Sr0 2.465027 1_555
O11 Os0 1.921783 1_555
O11 Sr2 2.353490 1_556
O11 Sr1 2.465020 1_566
O11 Sr0 2.465027 1_555
O12 Os1 1.921782 1_555
O12 Sr3 2.353496 1_555
O12 Sr1 2.465015 1_555
O12 Sr0 2.465026 1_555
O13 Os1 1.921782 1_565
O13 Sr3 2.353496 1_666
O13 Sr1 2.465015 1_566
O13 Sr0 2.465026 1_555
