# generated using pymatgen
data_Ta6VSi6Tc5
_symmetry_space_group_name_H-M   'P 1'
_cell_length_a   7.50677849
_cell_length_b   7.49847596
_cell_length_c   7.49847546
_cell_angle_alpha   127.07847380
_cell_angle_beta   125.52937256
_cell_angle_gamma   79.36989330
_symmetry_Int_Tables_number   1
_chemical_formula_structural   Ta6VSi6Tc5
_chemical_formula_sum   'Ta6 V1 Si6 Tc5'
_cell_volume   264.95139111
_cell_formula_units_Z   1
loop_
 _symmetry_equiv_pos_site_id
 _symmetry_equiv_pos_as_xyz
  1  'x, y, z'
loop_
 _atom_site_type_symbol
 _atom_site_label
 _atom_site_symmetry_multiplicity
 _atom_site_fract_x
 _atom_site_fract_y
 _atom_site_fract_z
 _atom_site_occupancy
  Ta  Ta0  1  0.55665636  0.09813418  0.04414564  1
  Ta  Ta1  1  0.44334364  0.48748828  0.54147682  1
  Ta  Ta2  1  0.95939587  0.49410940  0.03705944  1
  Ta  Ta3  1  0.04060413  0.07766357  0.53471353  1
  Ta  Ta4  1  0.75605931  0.91326575  0.66356216  1
  Ta  Ta5  1  0.24394069  0.90750185  0.15720744  1
  V  V0  1  0.00000000  0.24325959  0.24325959  1
  Si  Si0  1  0.33602138  0.82541337  0.49667686  1
  Si  Si1  1  0.66397862  0.16065448  0.48939099  1
  Si  Si2  1  0.82827338  0.82643141  0.99032992  1
  Si  Si3  1  0.17172662  0.16205554  0.99815804  1
  Si  Si4  1  0.77015882  0.52315087  0.25621607  1
  Si  Si5  1  0.22984118  0.48605725  0.75299305  1
  Tc  Tc0  1  0.15583153  0.75186562  0.65230027  1
  Tc  Tc1  1  0.84416847  0.49646774  0.59603409  1
  Tc  Tc2  1  0.60096749  0.74888303  0.09623991  1
  Tc  Tc3  1  0.39903251  0.49527142  0.14791554  1
  Tc  Tc4  1  0.50000000  0.24432364  0.74432364  1
loop_
_geom_bond_atom_site_label_1
_geom_bond_atom_site_label_2
_geom_bond_distance
_geom_bond_site_symmetry_2
Ta0 Tc1 2.792540 1_555
Ta0 Tc0 2.799340 1_544
Ta0 Tc3 2.801710 1_555
Ta0 Tc2 2.807625 1_545
Ta0 V0 2.844536 1_655
Ta0 Tc4 2.850504 1_554
Ta1 Tc0 2.792548 1_555
Ta1 Tc1 2.799336 1_555
Ta1 Tc2 2.801721 1_556
Ta1 Tc3 2.807618 1_555
Ta1 V0 2.844535 1_555
Ta1 Tc4 2.850503 1_555
Ta2 Tc3 2.897618 1_655
Ta2 Tc1 2.902608 1_554
Ta2 V0 2.961319 1_655
Ta2 Tc4 2.974334 1_554
Ta2 Tc2 3.091151 1_555
Ta2 Tc0 3.096185 1_655
Ta3 Tc2 2.897618 1_445
Ta3 Tc0 2.902613 1_545
Ta3 V0 2.961319 1_555
Ta3 Tc4 2.974334 1_555
Ta3 Tc3 3.091149 1_556
Ta3 Tc1 3.096178 1_455
Ta4 V0 2.796747 1_666
Ta4 Tc4 2.829080 1_565
Ta4 Tc1 2.860074 1_555
Ta4 Tc3 2.898109 1_555
Ta4 Tc0 3.051098 1_655
Ta4 Tc2 3.069541 1_555
Ta5 V0 2.796751 1_565
Ta5 Tc4 2.829076 1_565
Ta5 Tc0 2.860077 1_554
Ta5 Tc2 2.898107 1_555
Ta5 Tc1 3.051100 1_454
Ta5 Tc3 3.069539 1_555
Si0 Tc0 2.526128 1_555
Si0 Tc3 2.527942 1_555
Si0 Tc4 2.562586 1_565
Si0 Ta2 2.642967 1_455
Si0 Ta0 2.646136 1_566
Si0 Ta5 2.650216 1_555
Si0 Ta3 2.667215 1_565
Si0 Ta4 2.669930 1_555
Si0 Ta1 2.672338 1_555
Si1 Tc1 2.526123 1_555
Si1 Tc2 2.527933 1_545
Si1 Tc4 2.562590 1_555
Si1 Ta3 2.642964 1_655
Si1 Ta1 2.646136 1_555
Si1 Ta4 2.650227 1_545
Si1 Ta2 2.667220 1_556
Si1 Ta5 2.669933 1_545
Si1 Ta0 2.672331 1_555
Si2 Tc1 2.521460 1_555
Si2 Tc2 2.525527 1_556
Si2 V0 2.554414 1_666
Si2 Ta0 2.627430 1_566
Si2 Ta5 2.629892 1_656
Si2 Ta4 2.640341 1_555
Si2 Ta3 2.650590 1_666
Si2 Ta2 2.654871 1_556
Si2 Ta1 2.688603 1_555
Si3 Tc0 2.521454 1_545
Si3 Tc3 2.525528 1_556
Si3 V0 2.554412 1_556
Si3 Ta1 2.627426 1_556
Si3 Ta4 2.629893 1_445
Si3 Ta5 2.640347 1_546
Si3 Ta2 2.650596 1_456
Si3 Ta3 2.654875 1_555
Si3 Ta0 2.688599 1_556
Si4 Tc1 2.402084 1_555
Si4 Tc2 2.408657 1_555
Si4 Tc0 2.416688 1_655
Si4 Tc3 2.417733 1_555
Si4 V0 2.450327 1_655
Si4 Tc4 2.461229 1_554
Si4 Ta2 2.633162 1_555
Si4 Ta4 2.717639 1_555
Si4 Ta0 2.839996 1_555
Si5 Tc0 2.402084 1_555
Si5 Tc3 2.408655 1_556
Si5 Tc1 2.416686 1_455
Si5 Tc2 2.417733 1_556
Si5 V0 2.450333 1_555
Si5 Tc4 2.461229 1_555
Si5 Ta3 2.633160 1_555
Si5 Ta5 2.717635 1_556
Si5 Ta1 2.840005 1_555
Tc0 V0 2.948160 1_555
Tc0 Tc1 2.975020 1_455
Tc0 Tc2 3.062959 1_556
Tc1 V0 2.948160 1_655
Tc1 Tc3 3.062959 1_555
Tc2 Tc4 2.923517 1_554
Tc2 Tc3 2.949456 1_555
Tc3 Tc4 2.923517 1_554
