# generated using pymatgen
data_Ba4HfP4
_symmetry_space_group_name_H-M   'P 1'
_cell_length_a   8.40029907
_cell_length_b   9.92814160
_cell_length_c   14.67367430
_cell_angle_alpha   90.00000000
_cell_angle_beta   90.00000000
_cell_angle_gamma   90.00000000
_symmetry_Int_Tables_number   1
_chemical_formula_structural   Ba4HfP4
_chemical_formula_sum   'Ba16 Hf4 P16'
_cell_volume   1223.77502509
_cell_formula_units_Z   4
loop_
 _symmetry_equiv_pos_site_id
 _symmetry_equiv_pos_as_xyz
  1  'x, y, z'
loop_
 _atom_site_type_symbol
 _atom_site_label
 _atom_site_symmetry_multiplicity
 _atom_site_fract_x
 _atom_site_fract_y
 _atom_site_fract_z
 _atom_site_occupancy
  Ba  Ba0  1  0.00000000  0.00000000  0.00000000  1
  Ba  Ba1  1  0.50000000  0.00000000  0.50000000  1
  Ba  Ba2  1  0.00000000  0.50000000  0.00000000  1
  Ba  Ba3  1  0.50000000  0.50000000  0.50000000  1
  Ba  Ba4  1  0.98466228  0.75000000  0.43710782  1
  Ba  Ba5  1  0.48466228  0.25000000  0.06289218  1
  Ba  Ba6  1  0.01533772  0.25000000  0.56289218  1
  Ba  Ba7  1  0.51533772  0.75000000  0.93710782  1
  Ba  Ba8  1  0.84737142  0.05258094  0.27733506  1
  Ba  Ba9  1  0.34737142  0.94741906  0.22266494  1
  Ba  Ba10  1  0.15262858  0.55258094  0.72266494  1
  Ba  Ba11  1  0.65262858  0.44741906  0.77733506  1
  Ba  Ba12  1  0.15262858  0.94741906  0.72266494  1
  Ba  Ba13  1  0.65262858  0.05258094  0.77733506  1
  Ba  Ba14  1  0.84737142  0.44741906  0.27733506  1
  Ba  Ba15  1  0.34737142  0.55258094  0.22266494  1
  Hf  Hf0  1  0.75110559  0.75000000  0.66774493  1
  Hf  Hf1  1  0.24889441  0.25000000  0.33225507  1
  Hf  Hf2  1  0.74889441  0.75000000  0.16774493  1
  Hf  Hf3  1  0.25110559  0.25000000  0.83225507  1
  P  P0  1  0.95306139  0.25000000  0.82483518  1
  P  P1  1  0.54693861  0.25000000  0.32483518  1
  P  P2  1  0.45306139  0.75000000  0.67516482  1
  P  P3  1  0.04693861  0.75000000  0.17516482  1
  P  P4  1  0.65977603  0.54201830  0.09080745  1
  P  P5  1  0.15977603  0.45798170  0.40919255  1
  P  P6  1  0.34022397  0.04201830  0.90919255  1
  P  P7  1  0.84022397  0.95798170  0.59080745  1
  P  P8  1  0.34022397  0.45798170  0.90919255  1
  P  P9  1  0.84022397  0.54201830  0.59080745  1
  P  P10  1  0.65977603  0.95798170  0.09080745  1
  P  P11  1  0.15977603  0.04201830  0.40919255  1
  P  P12  1  0.62765064  0.75000000  0.32646262  1
  P  P13  1  0.12765064  0.25000000  0.17353738  1
  P  P14  1  0.37234936  0.25000000  0.67353738  1
  P  P15  1  0.87234936  0.75000000  0.82646262  1
loop_
_geom_bond_atom_site_label_1
_geom_bond_atom_site_label_2
_geom_bond_distance
_geom_bond_site_symmetry_2
Ba0 P6 3.180816 1_554
Ba0 P10 3.180816 1_445
Ba0 P3 3.594784 1_545
Ba0 P0 3.594784 1_454
Ba0 P13 3.714114 1_555
Ba0 P15 3.714114 1_444
Ba1 P7 3.180816 1_545
Ba1 P11 3.180816 1_555
Ba1 P2 3.594784 1_545
Ba1 P1 3.594784 1_555
Ba1 P14 3.714114 1_555
Ba1 P12 3.714114 1_545
Ba2 P8 3.180816 1_554
Ba2 P4 3.180816 1_455
Ba2 P3 3.594784 1_555
Ba2 P0 3.594784 1_454
Ba2 P13 3.714114 1_555
Ba2 P15 3.714114 1_454
Ba3 P9 3.180816 1_555
Ba3 P5 3.180816 1_555
Ba3 P2 3.594784 1_555
Ba3 P1 3.594784 1_555
Ba3 P14 3.714114 1_555
Ba3 P12 3.714114 1_555
Ba4 P11 3.276737 1_665
Ba4 P5 3.276737 1_655
Ba4 P7 3.289742 1_555
Ba4 P9 3.289742 1_555
Ba4 P12 3.410281 1_555
Ba4 P3 3.879104 1_655
Ba5 P4 3.276737 1_555
Ba5 P10 3.276737 1_545
Ba5 P8 3.289742 1_554
Ba5 P6 3.289742 1_554
Ba5 P13 3.410281 1_555
Ba5 P1 3.879104 1_555
Ba6 P9 3.276737 1_455
Ba6 P7 3.276737 1_445
Ba6 P5 3.289742 1_555
Ba6 P11 3.289742 1_555
Ba6 P14 3.410281 1_555
Ba6 P0 3.879104 1_455
Ba7 P6 3.276737 1_565
Ba7 P8 3.276737 1_555
Ba7 P10 3.289742 1_556
Ba7 P4 3.289742 1_556
Ba7 P15 3.410281 1_555
Ba7 P2 3.879104 1_555
Ba8 P11 3.262129 1_655
Ba8 P1 3.270568 1_555
Ba8 P10 3.294971 1_545
Ba8 P13 3.421223 1_655
Ba8 Hf2 3.506378 1_545
Ba8 P12 3.598718 1_545
Ba8 P3 3.752659 1_645
Ba9 P10 3.262129 1_555
Ba9 P3 3.270568 1_555
Ba9 P11 3.294971 1_565
Ba9 P12 3.421223 1_555
Ba9 Hf1 3.506378 1_565
Ba9 P13 3.598718 1_565
Ba9 P1 3.752659 1_565
Ba10 P9 3.262129 1_455
Ba10 P2 3.270568 1_555
Ba10 P8 3.294971 1_555
Ba10 P15 3.421223 1_455
Ba10 Hf3 3.506378 1_555
Ba10 P14 3.598718 1_555
Ba10 P0 3.752659 1_455
Ba11 P8 3.262129 1_555
Ba11 P0 3.270568 1_555
Ba11 P9 3.294971 1_555
Ba11 P14 3.421223 1_555
Ba11 Hf0 3.506378 1_555
Ba11 P15 3.598718 1_555
Ba11 P2 3.752659 1_555
Ba12 P7 3.262129 1_455
Ba12 P2 3.270568 1_555
Ba12 P6 3.294971 1_565
Ba12 P15 3.421223 1_455
Ba12 Hf3 3.506378 1_565
Ba12 P14 3.598718 1_565
Ba12 P0 3.752659 1_465
Ba13 P6 3.262129 1_555
Ba13 P0 3.270568 1_555
Ba13 P7 3.294971 1_545
Ba13 P14 3.421223 1_555
Ba13 Hf0 3.506378 1_545
Ba13 P15 3.598718 1_545
Ba13 P2 3.752659 1_545
Ba14 P5 3.262129 1_655
Ba14 P1 3.270568 1_555
Ba14 P4 3.294971 1_555
Ba14 P13 3.421223 1_655
Ba14 Hf2 3.506378 1_555
Ba14 P12 3.598718 1_555
Ba14 P3 3.752659 1_655
Ba15 P4 3.262129 1_555
Ba15 P3 3.270568 1_555
Ba15 P5 3.294971 1_555
Ba15 P12 3.421223 1_555
Ba15 Hf1 3.506378 1_555
Ba15 P13 3.598718 1_555
Ba15 P1 3.752659 1_555
Hf0 P7 2.469548 1_555
Hf0 P9 2.469548 1_555
Hf0 P2 2.506027 1_555
Hf0 P15 2.541932 1_555
Hf1 P5 2.469548 1_555
Hf1 P11 2.469548 1_555
Hf1 P1 2.506027 1_555
Hf1 P13 2.541932 1_555
Hf2 P10 2.469548 1_555
Hf2 P4 2.469548 1_555
Hf2 P3 2.506027 1_655
Hf2 P12 2.541932 1_555
Hf3 P8 2.469548 1_555
Hf3 P6 2.469548 1_555
Hf3 P0 2.506027 1_455
Hf3 P14 2.541932 1_555
