# generated using pymatgen
data_Rb3ClF6
_symmetry_space_group_name_H-M   'P 1'
_cell_length_a   5.30708869
_cell_length_b   8.39986658
_cell_length_c   8.02740438
_cell_angle_alpha   142.41867045
_cell_angle_beta   61.68127687
_cell_angle_gamma   112.64730824
_symmetry_Int_Tables_number   1
_chemical_formula_structural   Rb3ClF6
_chemical_formula_sum   'Rb3 Cl1 F6'
_cell_volume   192.10218196
_cell_formula_units_Z   1
loop_
 _symmetry_equiv_pos_site_id
 _symmetry_equiv_pos_as_xyz
  1  'x, y, z'
loop_
 _atom_site_type_symbol
 _atom_site_label
 _atom_site_symmetry_multiplicity
 _atom_site_fract_x
 _atom_site_fract_y
 _atom_site_fract_z
 _atom_site_occupancy
  Rb  Rb0  1  0.60083900  0.40234085  0.10275349  1
  Rb  Rb1  1  0.85038474  0.15001583  0.35012793  1
  Rb  Rb2  1  0.09670960  0.89819660  0.59811345  1
  Cl  Cl0  1  0.35095201  0.64973567  0.84949920  1
  F  F0  1  0.67797553  0.93867483  0.52134374  1
  F  F1  1  0.01921456  0.36199680  0.18000289  1
  F  F2  1  0.49979834  0.97151868  0.02536794  1
  F  F3  1  0.52583989  0.65243551  0.99873703  1
  F  F4  1  0.17628152  0.64719239  0.70036883  1
  F  F5  1  0.20200480  0.32789885  0.67368450  1
loop_
_geom_bond_atom_site_label_1
_geom_bond_atom_site_label_2
_geom_bond_distance
_geom_bond_site_symmetry_2
Cl0 F2 1.813437 1_556
Cl0 F4 1.813825 1_555
Cl0 F5 1.813965 1_555
Cl0 F3 1.814610 1_555
F0 Rb1 2.702011 1_565
F0 Rb0 2.765124 1_555
F0 Rb2 2.765345 1_655
F0 Rb0 2.779131 1_566
F0 Rb2 2.780697 1_555
F1 Rb1 2.702417 1_455
F1 Rb2 2.764646 1_555
F1 Rb0 2.765541 1_455
F1 Rb2 2.780987 1_544
F1 Rb0 2.781866 1_555
F2 Rb1 2.960481 1_565
F2 Rb0 3.004663 1_565
F2 Rb2 3.166098 1_654
F2 Rb1 3.191003 1_465
F3 Rb1 2.961679 1_566
F3 Rb0 3.001380 1_556
F3 Rb2 3.174878 1_556
F3 Rb1 3.185699 1_555
F4 Rb1 2.962722 1_455
F4 Rb2 3.009171 1_555
F4 Rb0 3.161659 1_555
F4 Rb1 3.191513 1_466
F5 Rb1 2.959884 1_455
F5 Rb2 3.001024 1_545
F5 Rb0 3.182802 1_456
F5 Rb1 3.185639 1_555
