# generated using pymatgen
data_Li3V6O13
_symmetry_space_group_name_H-M   'P 1'
_cell_length_a   3.94092900
_cell_length_b   6.22950012
_cell_length_c   10.25083895
_cell_angle_alpha   100.15069082
_cell_angle_beta   90.00000000
_cell_angle_gamma   108.44002998
_symmetry_Int_Tables_number   1
_chemical_formula_structural   Li3V6O13
_chemical_formula_sum   'Li3 V6 O13'
_cell_volume   234.58102883
_cell_formula_units_Z   1
loop_
 _symmetry_equiv_pos_site_id
 _symmetry_equiv_pos_as_xyz
  1  'x, y, z'
loop_
 _atom_site_type_symbol
 _atom_site_label
 _atom_site_symmetry_multiplicity
 _atom_site_fract_x
 _atom_site_fract_y
 _atom_site_fract_z
 _atom_site_occupancy
  Li  Li0  1  0.00000000  0.00000000  0.00000000  1
  Li  Li1  1  0.06847400  0.13694800  0.40936800  1
  Li  Li2  1  0.93152600  0.86305200  0.59063200  1
  V  V0  1  0.71955200  0.43910300  0.36035900  1
  V  V1  1  0.28044800  0.56089700  0.63964100  1
  V  V2  1  0.40086800  0.80173600  0.36194700  1
  V  V3  1  0.59913200  0.19826400  0.63805300  1
  V  V4  1  0.34321800  0.68643700  0.00234800  1
  V  V5  1  0.65678200  0.31356300  0.99765200  1
  O  O0  1  0.56754100  0.13508100  0.40904000  1
  O  O1  1  0.43245900  0.86491900  0.59096000  1
  O  O2  1  0.68441900  0.36883800  0.19504000  1
  O  O3  1  0.82626400  0.65252700  0.99994400  1
  O  O4  1  0.17373600  0.34747300  0.00005600  1
  O  O5  1  0.10876700  0.21753400  0.60827100  1
  O  O6  1  0.89123300  0.78246600  0.39172900  1
  O  O7  1  0.76009200  0.52018400  0.59909100  1
  O  O8  1  0.23990800  0.47981600  0.40090900  1
  O  O9  1  0.50000000  0.00000000  0.00000000  1
  O  O10  1  0.62157600  0.24315200  0.80528700  1
  O  O11  1  0.37842400  0.75684800  0.19471300  1
  O  O12  1  0.31558100  0.63116200  0.80496000  1
loop_
_geom_bond_atom_site_label_1
_geom_bond_atom_site_label_2
_geom_bond_distance
_geom_bond_site_symmetry_2
Li0 O9 1.970465 1_555
Li0 O9 1.970465 1_455
Li0 O4 2.053337 1_555
Li0 O3 2.053337 1_444
Li1 O0 1.970493 1_455
Li1 O0 1.970497 1_555
Li1 O5 2.005798 1_555
Li1 O8 2.044115 1_555
Li1 O6 2.068915 1_445
Li2 O1 1.970493 1_655
Li2 O1 1.970497 1_555
Li2 O6 2.005798 1_555
Li2 O7 2.044115 1_555
Li2 O5 2.068915 1_665
O0 V2 1.939178 1_545
O0 V0 1.951959 1_555
O0 V3 2.307562 1_555
O1 V3 1.939178 1_565
O1 V1 1.951959 1_555
O1 V2 2.307562 1_555
O2 V0 1.668183 1_555
O2 V5 1.988779 1_554
O3 V4 1.980315 1_656
O3 V4 1.980322 1_556
O3 V5 1.998926 1_555
O4 V5 1.980315 1_454
O4 V5 1.980322 1_554
O4 V4 1.998926 1_555
O5 V1 1.994601 1_555
O5 V3 2.000455 1_455
O5 V3 2.000455 1_555
O6 V0 1.994601 1_555
O6 V2 2.000455 1_655
O6 V2 2.000455 1_555
O7 V3 2.015213 1_555
O7 V1 2.018969 1_655
O7 V1 2.018973 1_555
O7 V0 2.404728 1_555
O8 V2 2.015213 1_555
O8 V0 2.018969 1_455
O8 V0 2.018973 1_555
O8 V1 2.404728 1_555
O9 V5 1.857669 1_554
O9 V4 1.857669 1_545
O10 V3 1.685287 1_555
O10 V5 1.938215 1_555
O11 V2 1.685287 1_555
O11 V4 1.938215 1_555
O12 V1 1.668183 1_555
O12 V4 1.988779 1_556
