# generated using pymatgen
data_Hf10AlGa2Sb5
_symmetry_space_group_name_H-M   'P 1'
_cell_length_a   8.55630228
_cell_length_b   8.52281362
_cell_length_c   5.73143165
_cell_angle_alpha   90.00000000
_cell_angle_beta   90.00000000
_cell_angle_gamma   119.87061834
_symmetry_Int_Tables_number   1
_chemical_formula_structural   Hf10AlGa2Sb5
_chemical_formula_sum   'Hf10 Al1 Ga2 Sb5'
_cell_volume   362.43287925
_cell_formula_units_Z   1
loop_
 _symmetry_equiv_pos_site_id
 _symmetry_equiv_pos_as_xyz
  1  'x, y, z'
loop_
 _atom_site_type_symbol
 _atom_site_label
 _atom_site_symmetry_multiplicity
 _atom_site_fract_x
 _atom_site_fract_y
 _atom_site_fract_z
 _atom_site_occupancy
  Hf  Hf0  1  0.73757507  0.73585235  0.75000000  1
  Hf  Hf1  1  0.26242493  0.99827729  0.75000000  1
  Hf  Hf2  1  1.00000000  0.26295626  0.75000000  1
  Hf  Hf3  1  0.26645241  0.27625917  0.25000000  1
  Hf  Hf4  1  0.73354759  0.00980676  0.25000000  1
  Hf  Hf5  1  0.00000000  0.72421921  0.25000000  1
  Hf  Hf6  1  0.67059246  0.33387766  0.00343783  1
  Hf  Hf7  1  0.32940754  0.66328721  0.00343783  1
  Hf  Hf8  1  0.32940754  0.66328721  0.49656217  1
  Hf  Hf9  1  0.67059246  0.33387766  0.49656217  1
  Al  Al0  1  0.00000000  0.38942074  0.25000000  1
  Ga  Ga0  1  0.00000000  0.00004283  0.00926768  1
  Ga  Ga1  1  0.00000000  0.00004283  0.49073232  1
  Sb  Sb0  1  0.39313934  0.39152690  0.75000000  1
  Sb  Sb1  1  0.60686066  0.99838755  0.75000000  1
  Sb  Sb2  1  1.00000000  0.60166374  0.75000000  1
  Sb  Sb3  1  0.61387291  0.61554327  0.25000000  1
  Sb  Sb4  1  0.38612709  0.00167135  0.25000000  1
loop_
_geom_bond_atom_site_label_1
_geom_bond_atom_site_label_2
_geom_bond_distance
_geom_bond_site_symmetry_2
Hf0 Sb0 2.946628 1_555
Hf0 Sb1 2.958075 1_555
Hf0 Sb2 2.984569 1_555
Hf0 Sb3 3.050075 1_556
Hf0 Sb3 3.050075 1_555
Hf1 Sb1 2.946628 1_555
Hf1 Sb0 2.958075 1_565
Hf1 Sb2 2.984569 1_455
Hf1 Sb4 3.050073 1_565
Hf1 Sb4 3.050073 1_566
Hf2 Sb2 2.886741 1_555
Hf2 Sb1 2.973958 1_545
Hf2 Sb0 2.973958 1_655
Hf3 Sb3 2.938713 1_555
Hf3 Sb4 2.985352 1_555
Hf3 Sb0 3.048231 1_554
Hf3 Sb0 3.048231 1_555
Hf4 Sb4 2.938717 1_555
Hf4 Sb3 2.985360 1_545
Hf4 Sb1 3.048231 1_544
Hf4 Sb1 3.048231 1_545
Hf5 Sb3 2.953814 1_455
Hf5 Sb4 2.953816 1_565
Hf5 Sb2 3.050138 1_455
Hf5 Sb2 3.050138 1_454
Hf6 Hf9 2.826308 1_555
Hf6 Hf9 2.905123 1_554
Hf6 Sb2 2.975786 1_554
Hf6 Sb1 3.004979 1_544
Hf6 Sb4 3.012184 1_555
Hf6 Sb0 3.024721 1_554
Hf6 Sb3 3.025855 1_555
Hf7 Hf8 2.826308 1_555
Hf7 Hf8 2.905123 1_554
Hf7 Sb2 2.975781 1_454
Hf7 Sb0 3.004993 1_554
Hf7 Sb3 3.012198 1_555
Hf7 Sb1 3.024712 1_554
Hf7 Sb4 3.025847 1_565
Hf8 Sb2 2.975781 1_455
Hf8 Sb0 3.004993 1_555
Hf8 Sb3 3.012198 1_555
Hf8 Sb1 3.024712 1_555
Hf8 Sb4 3.025847 1_565
Hf9 Sb2 2.975786 1_555
Hf9 Sb1 3.004979 1_545
Hf9 Sb4 3.012184 1_555
Hf9 Sb0 3.024721 1_555
Hf9 Sb3 3.025855 1_555
Al0 Hf5 2.853425 1_555
Al0 Hf4 2.884108 1_455
Al0 Hf3 2.884108 1_555
Al0 Hf9 2.972555 1_455
Al0 Hf6 2.972555 1_455
Al0 Hf8 2.972560 1_555
Al0 Hf7 2.972560 1_555
Al0 Hf2 3.061707 1_455
Al0 Hf2 3.061707 1_454
Ga0 Hf2 2.688705 1_454
Ga0 Hf0 2.698845 1_444
Ga0 Hf1 2.698845 1_544
Ga0 Hf3 2.701350 1_555
Ga0 Hf4 2.701350 1_455
Ga0 Hf5 2.725787 1_545
Ga1 Hf2 2.688705 1_455
Ga1 Hf0 2.698845 1_445
Ga1 Hf1 2.698845 1_545
Ga1 Hf3 2.701350 1_555
Ga1 Hf4 2.701350 1_455
Ga1 Hf5 2.725787 1_545
