# generated using pymatgen
data_In11Ga(TcRh)2
_symmetry_space_group_name_H-M   'P 1'
_cell_length_a   6.90339040
_cell_length_b   7.03894321
_cell_length_c   7.39102550
_cell_angle_alpha   90.00000000
_cell_angle_beta   90.00000000
_cell_angle_gamma   90.77404765
_symmetry_Int_Tables_number   1
_chemical_formula_structural   In11Ga(TcRh)2
_chemical_formula_sum   'In11 Ga1 Tc2 Rh2'
_cell_volume   359.11617200
_cell_formula_units_Z   1
loop_
 _symmetry_equiv_pos_site_id
 _symmetry_equiv_pos_as_xyz
  1  'x, y, z'
loop_
 _atom_site_type_symbol
 _atom_site_label
 _atom_site_symmetry_multiplicity
 _atom_site_fract_x
 _atom_site_fract_y
 _atom_site_fract_z
 _atom_site_occupancy
  In  In0  1  0.00000000  0.50000000  0.50000000  1
  In  In1  1  0.50000000  0.00000000  0.00000000  1
  In  In2  1  0.00000000  0.50000000  0.00000000  1
  In  In3  1  0.35059350  0.65773067  0.24004731  1
  In  In4  1  0.64940650  0.34226933  0.24004731  1
  In  In5  1  0.16031314  0.15882641  0.73113840  1
  In  In6  1  0.83968686  0.84117359  0.73113840  1
  In  In7  1  0.64940650  0.34226933  0.75995269  1
  In  In8  1  0.35059350  0.65773067  0.75995269  1
  In  In9  1  0.83968686  0.84117359  0.26886160  1
  In  In10  1  0.16031314  0.15882641  0.26886160  1
  Ga  Ga0  1  0.50000000  0.00000000  0.50000000  1
  Tc  Tc0  1  0.16892391  0.84879944  0.50000000  1
  Tc  Tc1  1  0.83107609  0.15120056  0.50000000  1
  Rh  Rh0  1  0.34459778  0.34563024  0.00000000  1
  Rh  Rh1  1  0.65540222  0.65436976  0.00000000  1
loop_
_geom_bond_atom_site_label_1
_geom_bond_atom_site_label_2
_geom_bond_distance
_geom_bond_site_symmetry_2
In0 Tc0 2.703784 1_555
In0 Tc1 2.703784 1_455
In0 In9 3.159473 1_455
In0 In6 3.159473 1_455
In0 In10 3.159473 1_555
In0 In5 3.159473 1_555
In0 In8 3.272507 1_555
In0 In3 3.272507 1_555
In0 In7 3.272507 1_455
In0 In4 3.272507 1_455
In1 Rh0 2.672132 1_555
In1 Rh1 2.672132 1_545
In1 In4 3.154165 1_555
In1 In7 3.154165 1_554
In1 In3 3.154165 1_545
In1 In8 3.154165 1_544
In1 In6 3.281538 1_544
In1 In9 3.281538 1_545
In1 In5 3.281538 1_554
In1 In10 3.281538 1_555
In2 Rh1 2.628625 1_455
In2 Rh0 2.628625 1_555
In2 In3 3.188356 1_555
In2 In8 3.188356 1_554
In2 In4 3.188356 1_455
In2 In7 3.188356 1_454
In2 In6 3.318528 1_454
In2 In9 3.318528 1_455
In2 In5 3.318528 1_554
In3 Tc0 2.668090 1_555
In3 Rh1 2.752706 1_555
In3 Rh0 2.823687 1_555
In3 In4 3.051177 1_555
In4 Tc1 2.668090 1_555
In4 Rh0 2.752706 1_555
In4 Rh1 2.823687 1_555
In5 Rh0 2.692777 1_556
In5 Tc0 2.772682 1_545
In5 Tc1 2.843220 1_455
In6 Rh1 2.692777 1_556
In6 Tc1 2.772682 1_565
In6 Tc0 2.843220 1_655
In7 Tc1 2.668090 1_555
In7 Rh0 2.752706 1_556
In7 Rh1 2.823687 1_556
In7 In8 3.051177 1_555
In8 Tc0 2.668090 1_555
In8 Rh1 2.752706 1_556
In8 Rh0 2.823687 1_556
In9 Rh1 2.692777 1_555
In9 Tc1 2.772682 1_565
In9 Tc0 2.843220 1_655
In10 Rh0 2.692777 1_555
In10 Tc0 2.772682 1_545
In10 Tc1 2.843220 1_455
In10 In2 3.318528 1_555
Ga0 Tc1 2.508131 1_555
Ga0 Tc0 2.508131 1_545
Ga0 In7 3.239204 1_555
Ga0 In4 3.239204 1_555
Ga0 In8 3.239204 1_545
Ga0 In3 3.239204 1_545
Rh0 Rh1 3.033222 1_555
