# generated using pymatgen
data_Lu4Ga6PdRh6
_symmetry_space_group_name_H-M   'P 1'
_cell_length_a   7.18108585
_cell_length_b   7.18108553
_cell_length_c   7.18108557
_cell_angle_alpha   109.47121525
_cell_angle_beta   109.47121434
_cell_angle_gamma   109.47122783
_symmetry_Int_Tables_number   1
_chemical_formula_structural   Lu4Ga6PdRh6
_chemical_formula_sum   'Lu4 Ga6 Pd1 Rh6'
_cell_volume   285.06798952
_cell_formula_units_Z   1
loop_
 _symmetry_equiv_pos_site_id
 _symmetry_equiv_pos_as_xyz
  1  'x, y, z'
loop_
 _atom_site_type_symbol
 _atom_site_label
 _atom_site_symmetry_multiplicity
 _atom_site_fract_x
 _atom_site_fract_y
 _atom_site_fract_z
 _atom_site_occupancy
  Lu  Lu0  1  0.00000000  0.00000000  0.50000000  1
  Lu  Lu1  1  0.00000000  0.50000000  0.00000000  1
  Lu  Lu2  1  0.50000000  0.00000000  0.00000000  1
  Lu  Lu3  1  0.50000000  0.50000000  0.50000000  1
  Ga  Ga0  1  0.68048071  0.68048071  0.00000000  1
  Ga  Ga1  1  0.31951929  1.00000000  0.31951929  1
  Ga  Ga2  1  1.00000000  0.31951929  0.31951929  1
  Ga  Ga3  1  0.31951929  0.31951929  1.00000000  1
  Ga  Ga4  1  0.68048071  0.00000000  0.68048071  1
  Ga  Ga5  1  0.00000000  0.68048071  0.68048071  1
  Pd  Pd0  1  0.00000000  0.00000000  0.00000000  1
  Rh  Rh0  1  0.75000000  0.25000000  0.50000000  1
  Rh  Rh1  1  0.75000000  0.50000000  0.25000000  1
  Rh  Rh2  1  0.50000000  0.25000000  0.75000000  1
  Rh  Rh3  1  0.25000000  0.50000000  0.75000000  1
  Rh  Rh4  1  0.25000000  0.75000000  0.50000000  1
  Rh  Rh5  1  0.50000000  0.75000000  0.25000000  1
loop_
_geom_bond_atom_site_label_1
_geom_bond_atom_site_label_2
_geom_bond_distance
_geom_bond_site_symmetry_2
Lu0 Rh3 2.931666 1_555
Lu0 Rh1 2.931666 1_445
Lu0 Rh0 2.931666 1_455
Lu0 Rh4 2.931666 1_545
Lu0 Rh5 2.931666 1_445
Lu0 Rh2 2.931666 1_555
Lu1 Rh3 2.931666 1_554
Lu1 Rh1 2.931666 1_455
Lu1 Rh5 2.931666 1_555
Lu1 Rh2 2.931666 1_454
Lu1 Rh4 2.931666 1_555
Lu1 Rh0 2.931666 1_454
Lu2 Rh2 2.931666 1_554
Lu2 Rh5 2.931666 1_545
Lu2 Rh3 2.931666 1_544
Lu2 Rh1 2.931666 1_555
Lu2 Rh0 2.931666 1_555
Lu2 Rh4 2.931666 1_544
Lu3 Rh5 2.931666 1_555
Lu3 Rh2 2.931666 1_555
Lu3 Rh1 2.931666 1_555
Lu3 Rh3 2.931666 1_555
Lu3 Rh0 2.931666 1_555
Lu3 Rh4 2.931666 1_555
Ga0 Rh1 2.556753 1_555
Ga0 Rh5 2.556753 1_555
Ga0 Rh2 2.556753 1_554
Ga0 Rh3 2.556753 1_554
Ga0 Pd0 2.649455 1_665
Ga0 Lu2 2.987803 1_565
Ga0 Lu1 2.987803 1_655
Ga0 Lu3 2.987803 1_554
Ga0 Lu0 2.987803 1_665
Ga1 Rh4 2.556753 1_555
Ga1 Rh0 2.556753 1_565
Ga1 Rh5 2.556753 1_555
Ga1 Rh2 2.556753 1_565
Ga1 Pd0 2.649455 1_565
Ga1 Lu2 2.987803 1_565
Ga1 Lu0 2.987803 1_565
Ga1 Lu3 2.987803 1_565
Ga1 Lu1 2.987803 1_555
Ga2 Rh0 2.556753 1_555
Ga2 Rh4 2.556753 1_655
Ga2 Rh1 2.556753 1_555
Ga2 Rh3 2.556753 1_655
Ga2 Pd0 2.649455 1_655
Ga2 Lu0 2.987803 1_655
Ga2 Lu1 2.987803 1_655
Ga2 Lu3 2.987803 1_655
Ga2 Lu2 2.987803 1_555
Ga3 Rh3 2.556753 1_555
Ga3 Rh2 2.556753 1_555
Ga3 Rh5 2.556753 1_556
Ga3 Rh1 2.556753 1_556
Ga3 Pd0 2.649455 1_556
Ga3 Lu2 2.987803 1_556
Ga3 Lu1 2.987803 1_556
Ga3 Lu3 2.987803 1_556
Ga3 Lu0 2.987803 1_555
Ga4 Rh0 2.556753 1_555
Ga4 Rh4 2.556753 1_545
Ga4 Rh2 2.556753 1_555
Ga4 Rh5 2.556753 1_545
Ga4 Pd0 2.649455 1_656
Ga4 Lu2 2.987803 1_556
Ga4 Lu0 2.987803 1_655
Ga4 Lu3 2.987803 1_545
Ga4 Lu1 2.987803 1_656
Ga5 Rh4 2.556753 1_555
Ga5 Rh0 2.556753 1_455
Ga5 Rh3 2.556753 1_555
Ga5 Rh1 2.556753 1_455
Ga5 Pd0 2.649455 1_566
Ga5 Lu0 2.987803 1_565
Ga5 Lu1 2.987803 1_556
Ga5 Lu3 2.987803 1_455
Ga5 Lu2 2.987803 1_566
Rh0 Rh1 2.931666 1_555
Rh0 Rh2 2.931666 1_555
Rh0 Rh5 2.931666 1_545
Rh0 Rh3 2.931666 1_655
Rh1 Rh5 2.931666 1_555
Rh1 Rh4 2.931666 1_655
Rh1 Rh2 2.931666 1_554
Rh2 Rh4 2.931666 1_545
Rh2 Rh3 2.931666 1_555
Rh3 Rh4 2.931666 1_555
Rh3 Rh5 2.931666 1_556
Rh4 Rh5 2.931666 1_555
