# generated using pymatgen
data_Li2Ca3AgBi3
_symmetry_space_group_name_H-M   'P 1'
_cell_length_a   7.65701978
_cell_length_b   7.70225095
_cell_length_c   4.65032465
_cell_angle_alpha   90.00000000
_cell_angle_beta   90.00000000
_cell_angle_gamma   119.80592994
_symmetry_Int_Tables_number   1
_chemical_formula_structural   Li2Ca3AgBi3
_chemical_formula_sum   'Li2 Ca3 Ag1 Bi3'
_cell_volume   237.97827794
_cell_formula_units_Z   1
loop_
 _symmetry_equiv_pos_site_id
 _symmetry_equiv_pos_as_xyz
  1  'x, y, z'
loop_
 _atom_site_type_symbol
 _atom_site_label
 _atom_site_symmetry_multiplicity
 _atom_site_fract_x
 _atom_site_fract_y
 _atom_site_fract_z
 _atom_site_occupancy
  Li  Li0  1  0.00493797  0.23734342  0.00000000  1
  Li  Li1  1  0.76759455  0.76265658  0.00000000  1
  Ca  Ca0  1  0.00441679  0.58444436  0.50000000  1
  Ca  Ca1  1  0.41997243  0.41555564  0.50000000  1
  Ca  Ca2  1  0.56280836  0.00000000  0.50000000  1
  Ag  Ag0  1  0.24103065  0.00000000  0.00000000  1
  Bi  Bi0  1  0.99236633  0.00000000  0.50000000  1
  Bi  Bi1  1  0.33478720  0.66270447  0.00000000  1
  Bi  Bi2  1  0.67208472  0.33729553  0.00000000  1
loop_
_geom_bond_atom_site_label_1
_geom_bond_atom_site_label_2
_geom_bond_distance
_geom_bond_site_symmetry_2
Ag0 Bi0 3.005279 1_454
Ag0 Bi0 3.005279 1_455
Ag0 Bi1 3.019724 1_545
Ag0 Bi2 3.019734 1_555
Ag0 Li0 3.145667 1_555
Ag0 Li1 3.145667 1_445
Ag0 Ca2 3.387769 1_554
Ag0 Ca2 3.387769 1_555
Ag0 Ca1 3.628850 1_554
Ag0 Ca1 3.628850 1_555
Ag0 Ca0 3.628850 1_544
Ag0 Ca0 3.628850 1_545
Bi0 Li0 2.929604 1_656
Bi0 Li0 2.929604 1_655
Bi0 Li1 2.929604 1_546
Bi0 Li1 2.929604 1_545
Bi0 Ca1 3.247565 1_655
Bi0 Ca0 3.247565 1_645
Bi0 Ca2 3.289134 1_555
Bi1 Li0 2.981044 1_555
Bi1 Li1 3.006499 1_555
Bi1 Ca0 3.263893 1_555
Bi1 Ca0 3.263893 1_554
Bi1 Ca1 3.269540 1_554
Bi1 Ca1 3.269540 1_555
Bi1 Ca2 3.270286 1_565
Bi1 Ca2 3.270286 1_564
Bi2 Li1 2.981049 1_555
Bi2 Li0 3.006484 1_655
Bi2 Ca1 3.263904 1_554
Bi2 Ca1 3.263904 1_555
Bi2 Ca0 3.269533 1_655
Bi2 Ca0 3.269533 1_654
Bi2 Ca2 3.270284 1_554
Bi2 Ca2 3.270284 1_555
