# generated using pymatgen
data_CaSiO3
_symmetry_space_group_name_H-M   'P 1'
_cell_length_a   5.11517935
_cell_length_b   5.11517935
_cell_length_c   5.11517935
_cell_angle_alpha   120.47276062
_cell_angle_beta   120.47276062
_cell_angle_gamma   89.18308661
_symmetry_Int_Tables_number   1
_chemical_formula_structural   CaSiO3
_chemical_formula_sum   'Ca2 Si2 O6'
_cell_volume   93.95182669
_cell_formula_units_Z   2
loop_
 _symmetry_equiv_pos_site_id
 _symmetry_equiv_pos_as_xyz
  1  'x, y, z'
loop_
 _atom_site_type_symbol
 _atom_site_label
 _atom_site_symmetry_multiplicity
 _atom_site_fract_x
 _atom_site_fract_y
 _atom_site_fract_z
 _atom_site_occupancy
  Ca  Ca0  1  0.25000000  0.75000000  0.50000000  1
  Ca  Ca1  1  0.75000000  0.25000000  0.50000000  1
  Si  Si0  1  0.00000000  0.00000000  0.00000000  1
  Si  Si1  1  0.50000000  0.50000000  0.00000000  1
  O  O0  1  0.75000000  0.75000000  0.00000000  1
  O  O1  1  0.77796000  0.27796000  0.05591900  1
  O  O2  1  0.22204000  0.72204000  0.94408100  1
  O  O3  1  0.72204000  0.77796000  0.50000000  1
  O  O4  1  0.27796000  0.22204000  0.50000000  1
  O  O5  1  0.25000000  0.25000000  0.00000000  1
loop_
_geom_bond_atom_site_label_1
_geom_bond_atom_site_label_2
_geom_bond_distance
_geom_bond_site_symmetry_2
Ca0 O1 2.420836 1_455
Ca0 O3 2.420836 1_555
Ca0 O4 2.420836 1_565
Ca0 O2 2.420841 1_555
Ca0 O5 2.539292 1_566
Ca0 O0 2.539292 1_455
Ca0 O0 2.539292 1_556
Ca0 O5 2.539292 1_555
Ca0 O2 2.702352 1_554
Ca0 O1 2.702357 1_566
Ca0 O3 2.702358 1_455
Ca0 O4 2.702358 1_555
Ca1 O2 2.420836 1_655
Ca1 O3 2.420836 1_545
Ca1 O4 2.420836 1_555
Ca1 O1 2.420841 1_555
Ca1 O5 2.539292 1_656
Ca1 O0 2.539292 1_556
Ca1 O0 2.539292 1_545
Ca1 O5 2.539292 1_555
Ca1 O1 2.702352 1_556
Ca1 O2 2.702357 1_544
Ca1 O4 2.702358 1_655
Ca1 O3 2.702358 1_555
O0 Si0 1.821335 1_665
O0 Si1 1.821335 1_555
O1 Si0 1.806745 1_655
O1 Si1 1.806745 1_555
O2 Si0 1.806745 1_566
O2 Si1 1.806745 1_556
O3 Si1 1.806745 1_555
O3 Si0 1.806745 1_666
O4 Si0 1.806745 1_555
O4 Si1 1.806745 1_556
O5 Si1 1.821335 1_555
O5 Si0 1.821335 1_555
