# generated using pymatgen
data_Lu3Be2Rh5
_symmetry_space_group_name_H-M   'P 1'
_cell_length_a   9.63634031
_cell_length_b   9.63634031
_cell_length_c   3.28380335
_cell_angle_alpha   90.00000000
_cell_angle_beta   90.00000000
_cell_angle_gamma   90.00000000
_symmetry_Int_Tables_number   1
_chemical_formula_structural   Lu3Be2Rh5
_chemical_formula_sum   'Lu6 Be4 Rh10'
_cell_volume   304.93087418
_cell_formula_units_Z   2
loop_
 _symmetry_equiv_pos_site_id
 _symmetry_equiv_pos_as_xyz
  1  'x, y, z'
loop_
 _atom_site_type_symbol
 _atom_site_label
 _atom_site_symmetry_multiplicity
 _atom_site_fract_x
 _atom_site_fract_y
 _atom_site_fract_z
 _atom_site_occupancy
  Lu  Lu0  1  0.82562917  0.32562917  0.00000000  1
  Lu  Lu1  1  0.32562917  0.17437083  0.00000000  1
  Lu  Lu2  1  0.67437083  0.82562917  0.00000000  1
  Lu  Lu3  1  0.17437083  0.67437083  0.00000000  1
  Lu  Lu4  1  0.00000000  0.00000000  0.00000000  1
  Lu  Lu5  1  0.50000000  0.50000000  0.00000000  1
  Be  Be0  1  0.62020976  0.12020976  0.00000000  1
  Be  Be1  1  0.12020976  0.37979024  0.00000000  1
  Be  Be2  1  0.87979024  0.62020976  0.00000000  1
  Be  Be3  1  0.37979024  0.87979024  0.00000000  1
  Rh  Rh0  1  0.07167789  0.21912939  0.50000000  1
  Rh  Rh1  1  0.21912939  0.92832211  0.50000000  1
  Rh  Rh2  1  0.78087061  0.07167789  0.50000000  1
  Rh  Rh3  1  0.92832211  0.78087061  0.50000000  1
  Rh  Rh4  1  0.42832211  0.71912939  0.50000000  1
  Rh  Rh5  1  0.57167789  0.28087061  0.50000000  1
  Rh  Rh6  1  0.71912939  0.57167789  0.50000000  1
  Rh  Rh7  1  0.28087061  0.42832211  0.50000000  1
  Rh  Rh8  1  0.50000000  0.00000000  0.50000000  1
  Rh  Rh9  1  0.00000000  0.50000000  0.50000000  1
loop_
_geom_bond_atom_site_label_1
_geom_bond_atom_site_label_2
_geom_bond_distance
_geom_bond_site_symmetry_2
Lu0 Rh9 2.888362 1_655
Lu0 Rh9 2.888362 1_654
Lu0 Rh5 2.978333 1_555
Lu0 Rh5 2.978333 1_554
Lu0 Rh2 2.978333 1_554
Lu0 Rh2 2.978333 1_555
Lu0 Rh0 3.061168 1_654
Lu0 Rh0 3.061168 1_655
Lu0 Rh6 3.061168 1_554
Lu0 Rh6 3.061168 1_555
Lu1 Rh8 2.888362 1_555
Lu1 Rh8 2.888362 1_554
Lu1 Rh7 2.978333 1_554
Lu1 Rh0 2.978333 1_555
Lu1 Rh7 2.978333 1_555
Lu1 Rh0 2.978333 1_554
Lu1 Rh1 3.061168 1_544
Lu1 Rh5 3.061168 1_554
Lu1 Rh5 3.061168 1_555
Lu1 Rh1 3.061168 1_545
Lu2 Rh8 2.888362 1_565
Lu2 Rh8 2.888362 1_564
Lu2 Rh3 2.978333 1_554
Lu2 Rh6 2.978333 1_555
Lu2 Rh3 2.978333 1_555
Lu2 Rh6 2.978333 1_554
Lu2 Rh2 3.061168 1_565
Lu2 Rh2 3.061168 1_564
Lu2 Rh4 3.061168 1_555
Lu2 Rh4 3.061168 1_554
Lu3 Rh9 2.888362 1_555
Lu3 Rh9 2.888362 1_554
Lu3 Rh1 2.978333 1_555
Lu3 Rh1 2.978333 1_554
Lu3 Rh4 2.978333 1_555
Lu3 Rh4 2.978333 1_554
Lu3 Rh3 3.061168 1_454
Lu3 Rh3 3.061168 1_455
Lu3 Rh7 3.061168 1_555
Lu3 Rh7 3.061168 1_554
Lu4 Rh0 2.762572 1_555
Lu4 Rh0 2.762572 1_554
Lu4 Rh1 2.762572 1_545
Lu4 Rh1 2.762572 1_544
Lu4 Rh2 2.762572 1_454
Lu4 Rh2 2.762572 1_455
Lu4 Rh3 2.762572 1_444
Lu4 Rh3 2.762572 1_445
Lu5 Rh6 2.762572 1_555
Lu5 Rh6 2.762572 1_554
Lu5 Rh4 2.762572 1_554
Lu5 Rh4 2.762572 1_555
Lu5 Rh5 2.762572 1_554
Lu5 Rh5 2.762572 1_555
Lu5 Rh7 2.762572 1_555
Lu5 Rh7 2.762572 1_554
Be0 Rh5 2.304653 1_554
Be0 Rh5 2.304653 1_555
Be0 Rh2 2.304653 1_554
Be0 Rh2 2.304653 1_555
Be0 Rh8 2.319383 1_555
Be0 Rh8 2.319383 1_554
Be0 Lu0 2.799423 1_555
Be0 Lu2 2.886259 1_545
Be0 Lu1 2.886259 1_555
Be1 Rh7 2.304653 1_555
Be1 Rh7 2.304653 1_554
Be1 Rh0 2.304653 1_555
Be1 Rh0 2.304653 1_554
Be1 Rh9 2.319383 1_555
Be1 Rh9 2.319383 1_554
Be1 Lu1 2.799423 1_555
Be1 Lu0 2.886259 1_455
Be1 Lu3 2.886259 1_555
Be2 Rh3 2.304653 1_554
Be2 Rh6 2.304653 1_555
Be2 Rh3 2.304653 1_555
Be2 Rh6 2.304653 1_554
Be2 Rh9 2.319383 1_655
Be2 Rh9 2.319383 1_654
Be2 Lu2 2.799423 1_555
Be2 Lu3 2.886259 1_655
Be2 Lu0 2.886259 1_555
Be3 Rh4 2.304653 1_554
Be3 Rh1 2.304653 1_554
Be3 Rh1 2.304653 1_555
Be3 Rh4 2.304653 1_555
Be3 Rh8 2.319383 1_565
Be3 Rh8 2.319383 1_564
Be3 Lu3 2.799423 1_555
Be3 Lu1 2.886259 1_565
Be3 Lu2 2.886259 1_555
