# generated using pymatgen
data_CaY3(B4Ir)4
_symmetry_space_group_name_H-M   'P 1'
_cell_length_a   7.01443497
_cell_length_b   7.01443491
_cell_length_c   7.01443590
_cell_angle_alpha   111.54659470
_cell_angle_beta   111.54658572
_cell_angle_gamma   105.39574468
_symmetry_Int_Tables_number   1
_chemical_formula_structural   CaY3(B4Ir)4
_chemical_formula_sum   'Ca1 Y3 B16 Ir4'
_cell_volume   264.67961513
_cell_formula_units_Z   1
loop_
 _symmetry_equiv_pos_site_id
 _symmetry_equiv_pos_as_xyz
  1  'x, y, z'
loop_
 _atom_site_type_symbol
 _atom_site_label
 _atom_site_symmetry_multiplicity
 _atom_site_fract_x
 _atom_site_fract_y
 _atom_site_fract_z
 _atom_site_occupancy
  Ca  Ca0  1  0.78662232  0.78662232  0.00000000  1
  Y  Y0  1  0.21358544  0.21358544  1.00000000  1
  Y  Y1  1  0.75015763  0.25015763  0.50000000  1
  Y  Y2  1  0.25015763  0.75015763  0.50000000  1
  B  B0  1  0.26517081  0.10890182  0.37143030  1
  B  B1  1  0.73747052  0.89373951  0.62856970  1
  B  B2  1  0.26517081  0.89373951  0.15626899  1
  B  B3  1  0.73747052  0.10890182  0.84373101  1
  B  B4  1  0.10890182  0.73747052  0.84373101  1
  B  B5  1  0.89373951  0.26517081  0.15626899  1
  B  B6  1  0.10890182  0.26517081  0.37143030  1
  B  B7  1  0.89373951  0.73747052  0.62856970  1
  B  B8  1  0.11073397  0.11073397  0.52372322  1
  B  B9  1  0.58701274  0.58701274  0.47627678  1
  B  B10  1  0.11073397  0.58701274  1.00000000  1
  B  B11  1  0.58701274  0.11073397  0.00000000  1
  B  B12  1  0.88638371  0.88638371  0.47087269  1
  B  B13  1  0.41551102  0.41551102  0.52912731  1
  B  B14  1  0.88638371  0.41551102  0.00000000  1
  B  B15  1  0.41551102  0.88638371  1.00000000  1
  Ir  Ir0  1  0.25743247  0.49740719  0.76002528  1
  Ir  Ir1  1  0.73738191  0.49740719  0.23997472  1
  Ir  Ir2  1  0.49740719  0.73738191  0.23997472  1
  Ir  Ir3  1  0.49740719  0.25743247  0.76002528  1
loop_
_geom_bond_atom_site_label_1
_geom_bond_atom_site_label_2
_geom_bond_distance
_geom_bond_site_symmetry_2
Ca0 Ir2 3.103475 1_555
Ca0 Ir3 3.103475 1_554
Ca0 Ir1 3.103475 1_555
Ca0 Ir0 3.103475 1_554
B0 B2 1.697799 1_545
B0 B6 1.743849 1_555
B0 B13 1.775574 1_555
B0 B8 1.778240 1_555
B0 Ir3 2.218202 1_555
B0 Y0 2.883043 1_554
B0 Ca0 2.896043 1_445
B0 Y1 2.944227 1_555
B0 Y2 2.958475 1_545
B1 B3 1.697799 1_565
B1 B7 1.743849 1_555
B1 B12 1.775580 1_555
B1 B9 1.778221 1_555
B1 Ir2 2.218202 1_555
B1 Y0 2.883048 1_665
B1 Ca0 2.896038 1_556
B1 Y1 2.944233 1_565
B1 Y2 2.958469 1_555
B2 B4 1.743850 1_554
B2 Ir2 2.218196 1_555
B2 Y0 2.883049 1_564
B2 Ca0 2.896044 1_455
B2 Y1 2.944229 1_565
B2 Y2 2.958471 1_555
B3 B5 1.743850 1_556
B3 Ir3 2.218196 1_555
B3 Y0 2.883049 1_655
B3 Ca0 2.896044 1_546
B3 Y1 2.944229 1_555
B3 Y2 2.958471 1_545
B4 B7 1.697799 1_455
B4 Ir0 2.218196 1_555
B4 Y0 2.883049 1_565
B4 Ca0 2.896044 1_456
B4 Y2 2.944229 1_555
B4 Y1 2.958471 1_455
B5 B6 1.697799 1_655
B5 Ir1 2.218196 1_555
B5 Y0 2.883049 1_654
B5 Ca0 2.896044 1_545
B5 Y2 2.944229 1_655
B5 Y1 2.958471 1_555
B6 B8 1.778240 1_555
B6 Ir0 2.218202 1_555
B6 Y0 2.883042 1_554
B6 Ca0 2.896043 1_445
B6 Y2 2.944227 1_555
B6 Y1 2.958475 1_455
B7 B9 1.778221 1_555
B7 Ir1 2.218202 1_555
B7 Y0 2.883048 1_665
B7 Ca0 2.896038 1_556
B7 Y2 2.944233 1_655
B7 Y1 2.958469 1_555
B8 Ir0 2.264048 1_555
B8 Ir3 2.264049 1_555
B8 Y0 2.895680 1_555
B8 Y2 2.916325 1_545
B8 Y1 2.916325 1_455
B8 Ca0 2.969725 1_445
B9 Ir1 2.264039 1_555
B9 Ir2 2.264039 1_555
B9 Y0 2.895686 1_554
B9 Y2 2.916330 1_555
B9 Y1 2.916330 1_555
B9 Ca0 2.969728 1_556
B10 B14 1.708358 1_456
B10 B2 1.778222 1_556
B10 B4 1.778222 1_555
B10 Ir0 2.264050 1_555
B10 Ir2 2.264050 1_556
B10 Y0 2.895693 1_555
B10 Y2 2.916327 1_556
B10 Y1 2.916327 1_455
B10 Ca0 2.969715 1_456
B11 B15 1.708358 1_544
B11 B3 1.778222 1_554
B11 B5 1.778223 1_555
B11 Ir1 2.264050 1_555
B11 Ir3 2.264050 1_554
B11 Y0 2.895693 1_554
B11 Y1 2.916327 1_555
B11 Y2 2.916327 1_544
B11 Ca0 2.969715 1_545
B12 B8 1.708352 1_665
B12 B7 1.775580 1_555
B12 Ir1 2.270815 1_555
B12 Ir2 2.270815 1_555
B12 Ca0 2.869357 1_555
B12 Y1 2.919063 1_565
B12 Y2 2.919064 1_655
B12 Y0 2.999984 1_665
B13 B9 1.708368 1_555
B13 B6 1.775574 1_555
B13 Ir0 2.270815 1_555
B13 Ir3 2.270815 1_555
B13 Ca0 2.869357 1_556
B13 Y1 2.919063 1_555
B13 Y2 2.919063 1_555
B13 Y0 2.999984 1_554
B14 B3 1.775574 1_554
B14 B5 1.775574 1_555
B14 Ir1 2.270815 1_555
B14 Ir3 2.270815 1_554
B14 Ca0 2.869356 1_555
B14 Y1 2.919064 1_554
B14 Y2 2.919064 1_655
B14 Y0 2.999983 1_654
B15 B2 1.775574 1_556
B15 B4 1.775574 1_555
B15 Ir0 2.270815 1_555
B15 Ir2 2.270815 1_556
B15 Ca0 2.869356 1_556
B15 Y2 2.919064 1_555
B15 Y1 2.919064 1_566
B15 Y0 2.999983 1_565
Ir0 Ir3 2.677945 1_555
Ir0 Ir2 2.677945 1_556
Ir0 Y1 2.937438 1_455
Ir0 Y2 2.971085 1_555
Ir0 Y0 3.067274 1_555
Ir1 Ir2 2.677945 1_555
Ir1 Ir3 2.677945 1_554
Ir1 Y1 2.937438 1_555
Ir1 Y2 2.971085 1_655
Ir1 Y0 3.067274 1_554
Ir2 Y2 2.937438 1_555
Ir2 Y1 2.971085 1_565
Ir2 Y0 3.067274 1_554
Ir3 Y2 2.937438 1_545
Ir3 Y1 2.971085 1_555
Ir3 Y0 3.067274 1_555
