# generated using pymatgen
data_MnSb12Ru2Pt
_symmetry_space_group_name_H-M   'P 1'
_cell_length_a   8.13627986
_cell_length_b   8.12376128
_cell_length_c   9.39123048
_cell_angle_alpha   54.87420366
_cell_angle_beta   54.42452037
_cell_angle_gamma   70.38195825
_symmetry_Int_Tables_number   1
_chemical_formula_structural   MnSb12Ru2Pt
_chemical_formula_sum   'Mn1 Sb12 Ru2 Pt1'
_cell_volume   412.93119844
_cell_formula_units_Z   1
loop_
 _symmetry_equiv_pos_site_id
 _symmetry_equiv_pos_as_xyz
  1  'x, y, z'
loop_
 _atom_site_type_symbol
 _atom_site_label
 _atom_site_symmetry_multiplicity
 _atom_site_fract_x
 _atom_site_fract_y
 _atom_site_fract_z
 _atom_site_occupancy
  Mn  Mn0  1  0.50000000  0.00000000  0.50000000  1
  Sb  Sb0  1  0.15460246  0.15592565  0.17629366  1
  Sb  Sb1  1  0.84539754  0.84407435  0.82370634  1
  Sb  Sb2  1  0.84987288  0.84686370  0.49994676  1
  Sb  Sb3  1  0.15012712  0.15313630  0.50005324  1
  Sb  Sb4  1  0.81350022  0.50697050  0.33532393  1
  Sb  Sb5  1  0.18649978  0.49302950  0.66467607  1
  Sb  Sb6  1  0.50314772  0.81273727  0.33598285  1
  Sb  Sb7  1  0.49685228  0.18726273  0.66401715  1
  Sb  Sb8  1  0.65544641  0.33483927  0.85185216  1
  Sb  Sb9  1  0.34455359  0.66516073  0.14814784  1
  Sb  Sb10  1  0.66409872  0.34727363  0.14794992  1
  Sb  Sb11  1  0.33590128  0.65272637  0.85205008  1
  Ru  Ru0  1  0.00000000  0.50000000  0.00000000  1
  Ru  Ru1  1  0.50000000  0.00000000  0.00000000  1
  Pt  Pt0  1  0.00000000  0.50000000  0.50000000  1
loop_
_geom_bond_atom_site_label_1
_geom_bond_atom_site_label_2
_geom_bond_distance
_geom_bond_site_symmetry_2
Mn0 Sb2 2.696698 1_545
Mn0 Sb3 2.696698 1_555
Mn0 Sb7 2.704066 1_555
Mn0 Sb6 2.704066 1_545
Mn0 Sb10 2.707807 1_555
Mn0 Sb11 2.707807 1_545
Sb0 Sb2 2.884335 1_445
Sb0 Sb3 3.006482 1_555
Sb1 Sb3 2.884335 1_665
Sb1 Sb2 3.006482 1_555
Sb4 Sb6 2.886875 1_555
Sb4 Sb7 2.987588 1_555
Sb5 Sb7 2.886875 1_555
Sb5 Sb6 2.987588 1_555
Sb10 Sb8 2.881555 1_554
Sb10 Sb9 2.986624 1_555
Sb11 Sb9 2.881555 1_556
Sb11 Sb8 2.986624 1_555
Ru0 Sb5 2.609616 1_554
Ru0 Sb4 2.609616 1_455
Ru0 Sb11 2.610354 1_554
Ru0 Sb10 2.610354 1_455
Ru0 Sb0 2.621678 1_555
Ru0 Sb1 2.621678 1_454
Ru1 Sb6 2.610556 1_545
Ru1 Sb7 2.610556 1_554
Ru1 Sb8 2.615768 1_554
Ru1 Sb9 2.615768 1_545
Ru1 Sb0 2.617713 1_555
Ru1 Sb1 2.617713 1_544
Pt0 Sb2 2.668345 1_455
Pt0 Sb3 2.668345 1_555
Pt0 Sb8 2.687632 1_455
Pt0 Sb9 2.687632 1_555
Pt0 Sb5 2.696196 1_555
Pt0 Sb4 2.696196 1_455
