# generated using pymatgen
data_Hf4Bi2W
_symmetry_space_group_name_H-M   'P 1'
_cell_length_a   8.32888752
_cell_length_b   8.32888714
_cell_length_c   8.32888782
_cell_angle_alpha   96.28029367
_cell_angle_beta   96.28029348
_cell_angle_gamma   141.37196598
_symmetry_Int_Tables_number   1
_chemical_formula_structural   Hf4Bi2W
_chemical_formula_sum   'Hf8 Bi4 W2'
_cell_volume   340.38546904
_cell_formula_units_Z   2
loop_
 _symmetry_equiv_pos_site_id
 _symmetry_equiv_pos_as_xyz
  1  'x, y, z'
loop_
 _atom_site_type_symbol
 _atom_site_label
 _atom_site_symmetry_multiplicity
 _atom_site_fract_x
 _atom_site_fract_y
 _atom_site_fract_z
 _atom_site_occupancy
  Hf  Hf0  1  0.70069714  0.58364192  0.28433905  1
  Hf  Hf1  1  0.58364192  0.29930286  0.88294478  1
  Hf  Hf2  1  0.08364192  0.20069714  0.28433905  1
  Hf  Hf3  1  0.91635808  0.79930286  0.71566095  1
  Hf  Hf4  1  0.20069714  0.91635808  0.11705522  1
  Hf  Hf5  1  0.79930286  0.08364192  0.88294478  1
  Hf  Hf6  1  0.29930286  0.41635808  0.71566095  1
  Hf  Hf7  1  0.41635808  0.70069714  0.11705522  1
  Bi  Bi0  1  0.14021160  0.64021160  0.78042320  1
  Bi  Bi1  1  0.35978840  0.14021160  0.50000000  1
  Bi  Bi2  1  0.64021160  0.85978840  0.50000000  1
  Bi  Bi3  1  0.85978840  0.35978840  0.21957680  1
  W  W0  1  0.25000000  0.25000000  0.00000000  1
  W  W1  1  0.75000000  0.75000000  0.00000000  1
loop_
_geom_bond_atom_site_label_1
_geom_bond_atom_site_label_2
_geom_bond_distance
_geom_bond_site_symmetry_2
Hf0 W1 2.781844 1_555
Hf0 W0 2.781844 1_555
Hf0 Hf2 3.312810 1_665
Hf0 Hf2 3.312810 1_555
Hf0 Hf4 3.323610 1_545
Hf0 Hf4 3.323610 1_655
Hf0 Hf3 3.390250 1_555
Hf0 Hf7 3.418042 1_555
Hf0 Hf1 3.418042 1_554
Hf1 W1 2.781843 1_556
Hf1 W0 2.781844 1_556
Hf1 Hf4 3.312810 1_656
Hf1 Hf4 3.312810 1_546
Hf1 Hf3 3.323610 1_555
Hf1 Hf3 3.323610 1_445
Hf1 Hf5 3.390250 1_555
Hf1 Hf6 3.418042 1_555
Hf2 W1 2.781844 1_445
Hf2 W0 2.781844 1_555
Hf2 Hf7 3.323610 1_555
Hf2 Hf7 3.323610 1_445
Hf2 Hf6 3.390250 1_555
Hf2 Hf4 3.418042 1_545
Hf2 Hf5 3.418042 1_454
Hf3 W0 2.781844 1_666
Hf3 W1 2.781844 1_556
Hf3 Hf6 3.312810 1_665
Hf3 Hf6 3.312810 1_555
Hf3 Hf5 3.418042 1_565
Hf3 Hf4 3.418042 1_656
Hf4 W0 2.781843 1_565
Hf4 W1 2.781844 1_455
Hf4 Hf7 3.390250 1_555
Hf5 W1 2.781843 1_546
Hf5 W0 2.781844 1_656
Hf5 Hf7 3.312810 1_656
Hf5 Hf7 3.312810 1_546
Hf5 Hf6 3.323610 1_545
Hf5 Hf6 3.323610 1_655
Hf6 W0 2.781844 1_556
Hf6 W1 2.781844 1_556
Hf6 Hf7 3.418042 1_556
Hf7 W0 2.781843 1_555
Hf7 W1 2.781844 1_555
Bi0 Hf6 3.052739 1_555
Bi0 Hf3 3.052739 1_455
Bi0 Hf4 3.142392 1_556
Bi0 Hf7 3.142392 1_556
Bi0 Hf1 3.333378 1_565
Bi0 Hf5 3.333378 1_455
Bi0 Hf5 3.333378 1_565
Bi0 Hf1 3.333378 1_455
Bi1 Hf4 3.052739 1_545
Bi1 Hf1 3.052739 1_555
Bi1 Hf6 3.142392 1_555
Bi1 Hf2 3.142392 1_555
Bi1 Hf3 3.333378 1_555
Bi1 Hf0 3.333378 1_555
Bi1 Hf0 3.333378 1_445
Bi1 Hf3 3.333378 1_445
Bi2 Hf5 3.052739 1_565
Bi2 Hf7 3.052739 1_555
Bi2 Hf0 3.142392 1_555
Bi2 Hf3 3.142392 1_555
Bi2 Hf2 3.333378 1_555
Bi2 Hf6 3.333378 1_555
Bi2 Hf6 3.333378 1_665
Bi2 Hf2 3.333378 1_665
Bi3 Hf0 3.052739 1_555
Bi3 Hf2 3.052739 1_655
Bi3 Hf5 3.142392 1_554
Bi3 Hf1 3.142392 1_554
Bi3 Hf7 3.333378 1_545
Bi3 Hf4 3.333378 1_655
Bi3 Hf4 3.333378 1_545
Bi3 Hf7 3.333378 1_655
W0 W1 2.754740 1_445
W0 W1 2.754740 1_555
