# generated using pymatgen
data_TiNb7(Cu2C)2
_symmetry_space_group_name_H-M   'P 1'
_cell_length_a   8.30837737
_cell_length_b   8.30837805
_cell_length_c   8.32069583
_cell_angle_alpha   59.95093680
_cell_angle_beta   59.95093408
_cell_angle_gamma   59.91210440
_symmetry_Int_Tables_number   1
_chemical_formula_structural   TiNb7(Cu2C)2
_chemical_formula_sum   'Ti2 Nb14 Cu8 C4'
_cell_volume   405.56992720
_cell_formula_units_Z   2
loop_
 _symmetry_equiv_pos_site_id
 _symmetry_equiv_pos_as_xyz
  1  'x, y, z'
loop_
 _atom_site_type_symbol
 _atom_site_label
 _atom_site_symmetry_multiplicity
 _atom_site_fract_x
 _atom_site_fract_y
 _atom_site_fract_z
 _atom_site_occupancy
  Ti  Ti0  1  0.12500000  0.62500000  0.62500000  1
  Ti  Ti1  1  0.62500000  0.12500000  0.62500000  1
  Nb  Nb0  1  0.62500000  0.62500000  0.12500000  1
  Nb  Nb1  1  0.62500000  0.62500000  0.62500000  1
  Nb  Nb2  1  0.81571874  0.81571874  0.18428126  1
  Nb  Nb3  1  0.18245938  0.18245938  0.81754062  1
  Nb  Nb4  1  0.81649398  0.18501485  0.81646762  1
  Nb  Nb5  1  0.18501485  0.81649398  0.18202355  1
  Nb  Nb6  1  0.18501485  0.81649398  0.81646762  1
  Nb  Nb7  1  0.81649398  0.18501485  0.18202355  1
  Nb  Nb8  1  0.43428126  0.43428126  0.06571874  1
  Nb  Nb9  1  0.06754062  0.06754062  0.43245938  1
  Nb  Nb10  1  0.43350602  0.06498515  0.43353238  1
  Nb  Nb11  1  0.06498515  0.43350602  0.06797645  1
  Nb  Nb12  1  0.06498515  0.43350602  0.43353238  1
  Nb  Nb13  1  0.43350602  0.06498515  0.06797645  1
  Cu  Cu0  1  0.74110163  0.41318415  0.42285661  1
  Cu  Cu1  1  0.41318415  0.74110163  0.42285661  1
  Cu  Cu2  1  0.41578162  0.41578162  0.74269041  1
  Cu  Cu3  1  0.41578162  0.41578162  0.42574636  1
  Cu  Cu4  1  0.50889837  0.83681585  0.82714339  1
  Cu  Cu5  1  0.83681585  0.50889837  0.82714339  1
  Cu  Cu6  1  0.83421838  0.83421838  0.50730959  1
  Cu  Cu7  1  0.83421838  0.83421838  0.82425364  1
  C  C0  1  0.62500000  0.12500000  0.12500000  1
  C  C1  1  0.12500000  0.62500000  0.12500000  1
  C  C2  1  0.12500000  0.12500000  0.62500000  1
  C  C3  1  0.12500000  0.12500000  0.12500000  1
loop_
_geom_bond_atom_site_label_1
_geom_bond_atom_site_label_2
_geom_bond_distance
_geom_bond_site_symmetry_2
Cu0 Ti1 2.479939 1_555
Cu0 Nb0 2.548332 1_555
Cu0 Nb1 2.548339 1_555
Cu0 Cu3 2.680216 1_555
Cu0 Cu2 2.680220 1_555
Cu0 Cu1 2.720842 1_555
Cu0 Nb9 2.790529 1_655
Cu0 Nb11 2.826221 1_655
Cu0 Nb12 2.826226 1_655
Cu0 Nb7 3.059164 1_555
Cu0 Nb4 3.059171 1_555
Cu0 Nb2 3.115699 1_555
Cu1 Ti0 2.479938 1_555
Cu1 Nb0 2.548332 1_555
Cu1 Nb1 2.548339 1_555
Cu1 Cu3 2.680217 1_555
Cu1 Cu2 2.680220 1_555
Cu1 Nb9 2.790529 1_565
Cu1 Nb13 2.826221 1_565
Cu1 Nb10 2.826226 1_565
Cu1 Nb5 3.059164 1_555
Cu1 Nb6 3.059171 1_555
Cu1 Nb2 3.115699 1_555
Cu2 Ti0 2.504224 1_555
Cu2 Ti1 2.504224 1_555
Cu2 Nb1 2.573362 1_555
Cu2 Cu3 2.637195 1_555
Cu2 Nb11 2.812578 1_556
Cu2 Nb13 2.812578 1_556
Cu2 Nb8 2.850050 1_556
Cu2 Nb3 3.041927 1_555
Cu2 Nb4 3.099165 1_555
Cu2 Nb6 3.099165 1_555
Cu3 Ti0 2.504224 1_555
Cu3 Ti1 2.504224 1_555
Cu3 Nb0 2.573361 1_555
Cu3 Nb12 2.812578 1_555
Cu3 Nb10 2.812579 1_555
Cu3 Nb8 2.850050 1_555
Cu3 Nb3 3.041927 1_555
Cu3 Nb7 3.099165 1_555
Cu3 Nb5 3.099165 1_555
Cu4 Ti1 2.479939 1_565
Cu4 Nb0 2.548332 1_556
Cu4 Nb1 2.548339 1_555
Cu4 Cu7 2.680216 1_555
Cu4 Cu6 2.680220 1_555
Cu4 Cu5 2.720842 1_555
Cu4 Nb3 2.790529 1_565
Cu4 Nb5 2.826221 1_556
Cu4 Nb6 2.826226 1_555
Cu4 Nb13 3.059164 1_566
Cu4 Nb10 3.059171 1_565
Cu4 Nb8 3.115699 1_556
Cu5 Ti0 2.479938 1_655
Cu5 Nb0 2.548332 1_556
Cu5 Nb1 2.548339 1_555
Cu5 Cu7 2.680217 1_555
Cu5 Cu6 2.680220 1_555
Cu5 Nb3 2.790529 1_655
Cu5 Nb7 2.826221 1_556
Cu5 Nb4 2.826226 1_555
Cu5 Nb11 3.059164 1_656
Cu5 Nb12 3.059171 1_655
Cu5 Nb8 3.115699 1_556
Cu6 Ti0 2.504224 1_655
Cu6 Ti1 2.504224 1_565
Cu6 Nb1 2.573362 1_555
Cu6 Cu7 2.637195 1_555
Cu6 Nb5 2.812578 1_655
Cu6 Nb7 2.812578 1_565
Cu6 Nb2 2.850050 1_555
Cu6 Nb9 3.041927 1_665
Cu6 Nb10 3.099165 1_565
Cu6 Nb12 3.099165 1_655
Cu7 Ti0 2.504224 1_655
Cu7 Ti1 2.504224 1_565
Cu7 Nb0 2.573361 1_556
Cu7 Nb6 2.812578 1_655
Cu7 Nb4 2.812579 1_565
Cu7 Nb2 2.850050 1_556
Cu7 Nb9 3.041927 1_665
Cu7 Nb13 3.099165 1_566
Cu7 Nb11 3.099165 1_656
C0 Nb8 2.188141 1_555
C0 Nb2 2.188141 1_545
C0 Nb10 2.189388 1_555
C0 Nb4 2.189388 1_554
C0 Nb7 2.189388 1_555
C0 Nb13 2.189388 1_555
C1 Nb8 2.188141 1_555
C1 Nb2 2.188141 1_455
C1 Nb12 2.189388 1_555
C1 Nb6 2.189388 1_554
C1 Nb5 2.189389 1_555
C1 Nb11 2.189389 1_555
C2 Nb10 2.186588 1_555
C2 Nb4 2.186588 1_455
C2 Nb12 2.186589 1_555
C2 Nb6 2.186589 1_545
C2 Nb3 2.186976 1_555
C2 Nb9 2.186976 1_555
C3 Nb13 2.186588 1_555
C3 Nb7 2.186588 1_455
C3 Nb11 2.186589 1_555
C3 Nb5 2.186589 1_545
C3 Nb9 2.186976 1_555
C3 Nb3 2.186976 1_554
