# generated using pymatgen
data_Hf6Si6Tc5Ir
_symmetry_space_group_name_H-M   'P 1'
_cell_length_a   7.69332898
_cell_length_b   7.69303329
_cell_length_c   7.69303367
_cell_angle_alpha   126.94714373
_cell_angle_beta   127.32632613
_cell_angle_gamma   78.02721488
_symmetry_Int_Tables_number   1
_chemical_formula_structural   Hf6Si6Tc5Ir
_chemical_formula_sum   'Hf6 Si6 Tc5 Ir1'
_cell_volume   280.38552717
_cell_formula_units_Z   1
loop_
 _symmetry_equiv_pos_site_id
 _symmetry_equiv_pos_as_xyz
  1  'x, y, z'
loop_
 _atom_site_type_symbol
 _atom_site_label
 _atom_site_symmetry_multiplicity
 _atom_site_fract_x
 _atom_site_fract_y
 _atom_site_fract_z
 _atom_site_occupancy
  Hf  Hf0  1  0.54410165  0.09264254  0.04458934  1
  Hf  Hf1  1  0.45589835  0.50048769  0.54854089  1
  Hf  Hf2  1  0.95194961  0.50045704  0.04450013  1
  Hf  Hf3  1  0.04805039  0.09255053  0.54850743  1
  Hf  Hf4  1  0.74788383  0.89817296  0.64602285  1
  Hf  Hf5  1  0.25211617  0.89813903  0.15028713  1
  Si  Si0  1  0.33385221  0.83150300  0.49778682  1
  Si  Si1  1  0.66614779  0.16393461  0.49764979  1
  Si  Si2  1  0.83404576  0.83251374  0.99852055  1
  Si  Si3  1  0.16595424  0.16447479  0.99846698  1
  Si  Si4  1  0.74661124  0.49567345  0.24221458  1
  Si  Si5  1  0.25338876  0.49560335  0.74906222  1
  Tc  Tc0  1  0.12505706  0.74647012  0.62137836  1
  Tc  Tc1  1  0.87494294  0.49632131  0.62141307  1
  Tc  Tc2  1  0.62698909  0.75074651  0.12356181  1
  Tc  Tc3  1  0.37301091  0.49657272  0.12375842  1
  Tc  Tc4  1  0.50000000  0.24320276  0.74320276  1
  Ir  Ir0  1  1.00000000  0.24453787  0.24453787  1
loop_
_geom_bond_atom_site_label_1
_geom_bond_atom_site_label_2
_geom_bond_distance
_geom_bond_site_symmetry_2
Hf0 Si3 2.685458 1_554
Hf0 Si1 2.697670 1_555
Hf0 Si0 2.699074 1_544
Hf0 Si2 2.712953 1_544
Hf0 Si4 2.795871 1_555
Hf0 Tc2 2.906730 1_545
Hf0 Tc0 2.914702 1_544
Hf0 Tc3 2.959680 1_555
Hf0 Tc1 2.971512 1_555
Hf0 Tc4 2.990631 1_554
Hf0 Ir0 3.005032 1_555
Hf1 Si2 2.685460 1_555
Hf1 Si0 2.697678 1_555
Hf1 Si1 2.699074 1_555
Hf1 Si3 2.712957 1_554
Hf1 Si5 2.795872 1_555
Hf1 Tc3 2.906722 1_555
Hf1 Tc1 2.914702 1_555
Hf1 Tc2 2.959681 1_556
Hf1 Tc0 2.971513 1_555
Hf1 Tc4 2.990631 1_555
Hf1 Ir0 3.005032 1_455
Hf2 Si2 2.685011 1_554
Hf2 Si0 2.698506 1_655
Hf2 Si1 2.699313 1_554
Hf2 Si3 2.712557 1_654
Hf2 Si4 2.795667 1_555
Hf2 Tc3 2.907335 1_655
Hf2 Tc1 2.913890 1_554
Hf2 Tc2 2.960829 1_555
Hf2 Tc0 2.971858 1_655
Hf2 Tc4 2.990924 1_554
Hf2 Ir0 3.005233 1_555
Hf3 Si3 2.685003 1_555
Hf3 Si1 2.698503 1_455
Hf3 Si0 2.699310 1_545
Hf3 Si2 2.712557 1_444
Hf3 Si5 2.795667 1_555
Hf3 Tc2 2.907338 1_445
Hf3 Tc0 2.913890 1_545
Hf3 Tc3 2.960831 1_556
Hf3 Tc1 2.971858 1_455
Hf3 Tc4 2.990924 1_555
Hf3 Ir0 3.005233 1_455
Hf4 Si0 2.697988 1_555
Hf4 Si1 2.698139 1_565
Hf4 Si3 2.715518 1_665
Hf4 Si2 2.715901 1_555
Hf4 Si4 2.765946 1_555
Hf4 Tc4 2.912813 1_565
Hf4 Ir0 2.937254 1_566
Hf4 Tc3 2.954258 1_555
Hf4 Tc2 2.954718 1_555
Hf4 Tc0 2.968850 1_655
Hf4 Tc1 2.969095 1_555
Hf5 Si1 2.697987 1_565
Hf5 Si0 2.698148 1_555
Hf5 Si2 2.715523 1_454
Hf5 Si3 2.715895 1_564
Hf5 Si5 2.765939 1_554
Hf5 Tc4 2.912822 1_565
Hf5 Ir0 2.937256 1_465
Hf5 Tc2 2.954253 1_555
Hf5 Tc3 2.954727 1_555
Hf5 Tc1 2.968847 1_454
Hf5 Tc0 2.969080 1_554
Si0 Tc4 2.606570 1_565
Si0 Tc3 2.612594 1_555
Si0 Tc0 2.635918 1_555
Si1 Tc4 2.606578 1_555
Si1 Tc2 2.612596 1_545
Si1 Tc1 2.635913 1_555
Si2 Tc2 2.619156 1_556
Si2 Tc1 2.637006 1_555
Si3 Tc3 2.619146 1_556
Si3 Tc0 2.637004 1_545
Si4 Tc4 2.417017 1_554
Si4 Tc3 2.432003 1_555
Si4 Tc2 2.432283 1_555
Si4 Tc0 2.444139 1_655
Si4 Tc1 2.444701 1_555
Si5 Tc4 2.417017 1_555
Si5 Tc2 2.432000 1_556
Si5 Tc3 2.432291 1_556
Si5 Tc1 2.444139 1_455
Si5 Tc0 2.444701 1_555
Ir0 Si5 2.443310 1_655
Ir0 Si4 2.443310 1_555
Ir0 Si2 2.606919 1_544
Ir0 Si3 2.606926 1_654
Ir0 Tc0 2.990308 1_655
Ir0 Tc1 2.990309 1_555
