# generated using pymatgen
data_Zr2Ni4BRu2
_symmetry_space_group_name_H-M   'P 1'
_cell_length_a   5.60346846
_cell_length_b   5.44402811
_cell_length_c   5.44402747
_cell_angle_alpha   60.09303293
_cell_angle_beta   59.02635949
_cell_angle_gamma   59.02635685
_symmetry_Int_Tables_number   1
_chemical_formula_structural   Zr2Ni4BRu2
_chemical_formula_sum   'Zr2 Ni4 B1 Ru2'
_cell_volume   115.75160688
_cell_formula_units_Z   1
loop_
 _symmetry_equiv_pos_site_id
 _symmetry_equiv_pos_as_xyz
  1  'x, y, z'
loop_
 _atom_site_type_symbol
 _atom_site_label
 _atom_site_symmetry_multiplicity
 _atom_site_fract_x
 _atom_site_fract_y
 _atom_site_fract_z
 _atom_site_occupancy
  Zr  Zr0  1  0.75444068  0.74198716  0.74913148  1
  Zr  Zr1  1  0.24555932  0.25086852  0.25801284  1
  Ni  Ni0  1  0.73999619  0.25290878  0.26709884  1
  Ni  Ni1  1  0.27014665  0.25537567  0.74462433  1
  Ni  Ni2  1  0.72985335  0.25537567  0.74462433  1
  Ni  Ni3  1  0.26000381  0.73290116  0.74709122  1
  B  B0  1  1.00000000  0.02249546  0.97750454  1
  Ru  Ru0  1  0.74278159  0.74404229  0.25595771  1
  Ru  Ru1  1  0.25721841  0.74404229  0.25595771  1
loop_
_geom_bond_atom_site_label_1
_geom_bond_atom_site_label_2
_geom_bond_distance
_geom_bond_site_symmetry_2
Ni0 Ru1 2.651999 1_555
Ni0 Ru0 2.651999 1_555
Ni0 Zr0 2.708848 1_545
Ni0 Zr0 2.747228 1_554
Ni0 Zr1 2.802117 1_655
Ni0 Zr1 2.802117 1_555
Ni1 Ru1 2.665040 1_555
Ni1 Zr1 2.714739 1_556
Ni1 Zr0 2.714739 1_545
Ni1 Zr0 2.735219 1_455
Ni1 Zr1 2.735219 1_555
Ni2 Ru0 2.665040 1_555
Ni2 Zr1 2.714739 1_556
Ni2 Zr0 2.714739 1_545
Ni2 Zr1 2.735219 1_655
Ni2 Zr0 2.735219 1_555
Ni3 Ru0 2.651999 1_555
Ni3 Ru1 2.651999 1_555
Ni3 Zr1 2.708848 1_556
Ni3 Zr1 2.747228 1_565
Ni3 Zr0 2.802117 1_455
Ni3 Zr0 2.802117 1_555
B0 Ni2 1.975682 1_555
B0 Ni1 1.975682 1_655
B0 Ni0 1.976970 1_556
B0 Ni3 1.976970 1_645
B0 Ru1 2.093282 1_646
B0 Ru0 2.093282 1_546
Ru0 Zr0 2.713422 1_555
Ru0 Zr1 2.713422 1_655
Ru0 Zr0 2.731654 1_554
Ru0 Zr1 2.731654 1_565
Ru1 Zr0 2.713422 1_455
Ru1 Zr1 2.713422 1_555
Ru1 Zr0 2.731654 1_554
Ru1 Zr1 2.731655 1_565
