# generated using pymatgen
data_Sc6In5GaAu6
_symmetry_space_group_name_H-M   'P 1'
_cell_length_a   7.59974975
_cell_length_b   7.58915435
_cell_length_c   7.21871390
_cell_angle_alpha   90.00000105
_cell_angle_beta   89.99701517
_cell_angle_gamma   119.95390520
_symmetry_Int_Tables_number   1
_chemical_formula_structural   Sc6In5GaAu6
_chemical_formula_sum   'Sc6 In5 Ga1 Au6'
_cell_volume   360.73200258
_cell_formula_units_Z   1
loop_
 _symmetry_equiv_pos_site_id
 _symmetry_equiv_pos_as_xyz
  1  'x, y, z'
loop_
 _atom_site_type_symbol
 _atom_site_label
 _atom_site_symmetry_multiplicity
 _atom_site_fract_x
 _atom_site_fract_y
 _atom_site_fract_z
 _atom_site_occupancy
  Sc  Sc0  1  0.59813731  0.98433270  0.75095626  1
  Sc  Sc1  1  0.01726867  0.60944894  0.74764530  1
  Sc  Sc2  1  0.38423979  0.40229510  0.74735832  1
  Sc  Sc3  1  0.98273133  0.59218126  0.25235470  1
  Sc  Sc4  1  0.61576021  0.01805531  0.25264168  1
  Sc  Sc5  1  0.40186269  0.38619539  0.24904374  1
  In  In0  1  0.73432201  0.73186493  0.99953747  1
  In  In1  1  0.26567799  0.99754292  0.00046253  1
  In  In2  1  1.00000000  0.27323143  1.00000000  1
  In  In3  1  0.71964620  0.71742147  0.50011454  1
  In  In4  1  0.28035380  0.99777628  0.49988546  1
  Ga  Ga0  1  1.00000000  0.28212134  0.50000000  1
  Au  Au0  1  0.00020276  0.01185768  0.73421461  1
  Au  Au1  1  0.99979724  0.01165492  0.26578539  1
  Au  Au2  1  0.66438488  0.33195168  0.96627983  1
  Au  Au3  1  0.67486928  0.32968307  0.53127926  1
  Au  Au4  1  0.32513072  0.65481579  0.46872074  1
  Au  Au5  1  0.33561512  0.66756880  0.03372017  1
loop_
_geom_bond_atom_site_label_1
_geom_bond_atom_site_label_2
_geom_bond_distance
_geom_bond_site_symmetry_2
In0 Sc5 3.144882 1_556
In0 Sc0 3.153210 1_555
In0 Sc2 3.162829 1_555
In0 Sc3 3.165007 1_556
In0 Sc1 3.284491 1_655
In0 Sc4 3.289615 1_566
In1 Sc0 3.144883 1_554
In1 Sc5 3.153210 1_565
In1 Sc4 3.162830 1_565
In1 Sc1 3.165011 1_554
In1 Sc3 3.284486 1_455
In1 Sc2 3.289614 1_564
In2 Sc1 3.084153 1_655
In2 Sc3 3.084159 1_556
In2 Sc4 3.155281 1_556
In2 Sc2 3.155281 1_655
In2 Sc0 3.268057 1_545
In2 Sc5 3.268057 1_656
In3 Sc2 3.051937 1_555
In3 Sc5 3.061749 1_555
In3 Sc3 3.161803 1_555
In3 Sc0 3.178444 1_555
In3 Sc4 3.289243 1_565
In3 Sc1 3.291130 1_655
In4 Sc4 3.051940 1_565
In4 Sc0 3.061753 1_555
In4 Sc1 3.161812 1_555
In4 Sc5 3.178438 1_565
In4 Sc2 3.289236 1_565
In4 Sc3 3.291130 1_455
Ga0 Sc1 3.009724 1_655
Ga0 Sc3 3.009731 1_555
Ga0 Sc4 3.144576 1_555
Ga0 Sc2 3.144577 1_655
Ga0 Sc0 3.289910 1_545
Ga0 Sc5 3.289910 1_655
Au0 Ga0 2.658688 1_455
Au0 In2 2.760232 1_455
Au0 In4 2.762713 1_545
Au0 In3 2.763624 1_445
Au0 In0 2.824613 1_445
Au0 In1 2.827637 1_546
Au0 Sc2 2.944672 1_555
Au0 Sc0 2.959303 1_445
Au0 Sc1 3.122230 1_545
Au1 Ga0 2.658688 1_555
Au1 In2 2.760232 1_554
Au1 In3 2.762716 1_545
Au1 In4 2.763621 1_645
Au1 In1 2.824613 1_645
Au1 In0 2.827636 1_544
Au1 Sc4 2.944673 1_555
Au1 Sc5 2.959303 1_655
Au1 Sc3 3.122222 1_545
Au2 In2 2.810423 1_555
Au2 In0 2.817893 1_555
Au2 In1 2.829088 1_546
Au2 Sc0 2.881490 1_545
Au2 Sc2 2.906986 1_555
Au2 Sc1 2.911666 1_655
Au2 Sc5 3.022600 1_556
Au2 Sc4 3.034053 1_556
Au2 Sc3 3.040944 1_556
Au2 Au3 3.141416 1_555
Au3 Ga0 2.679041 1_555
Au3 In3 2.797389 1_555
Au3 In4 2.800696 1_545
Au3 Sc0 2.863152 1_545
Au3 Sc1 2.863889 1_655
Au3 Sc4 2.963092 1_555
Au3 Sc2 2.971562 1_555
Au3 Sc3 2.973522 1_555
Au3 Sc5 3.086843 1_555
Au4 Ga0 2.679049 1_455
Au4 In4 2.797381 1_555
Au4 In3 2.800705 1_555
Au4 Sc5 2.863165 1_555
Au4 Sc3 2.863887 1_455
Au4 Sc2 2.963103 1_555
Au4 Sc4 2.971553 1_565
Au4 Sc1 2.973516 1_555
Au4 Sc0 3.086835 1_555
Au4 Au5 3.141416 1_555
Au5 In2 2.810431 1_454
Au5 In1 2.817879 1_555
Au5 In0 2.829094 1_554
Au5 Sc5 2.881503 1_555
Au5 Sc4 2.906977 1_565
Au5 Sc3 2.911664 1_455
Au5 Sc0 3.022592 1_554
Au5 Sc2 3.034064 1_554
Au5 Sc1 3.040939 1_554
