# generated using pymatgen
data_Rb3Li2ZrAs3
_symmetry_space_group_name_H-M   'P 1'
_cell_length_a   10.56323238
_cell_length_b   10.56323255
_cell_length_c   15.64377143
_cell_angle_alpha   90.00000000
_cell_angle_beta   90.00000000
_cell_angle_gamma   143.21861754
_symmetry_Int_Tables_number   1
_chemical_formula_structural   Rb3Li2ZrAs3
_chemical_formula_sum   'Rb12 Li8 Zr4 As12'
_cell_volume   1045.17825991
_cell_formula_units_Z   4
loop_
 _symmetry_equiv_pos_site_id
 _symmetry_equiv_pos_as_xyz
  1  'x, y, z'
loop_
 _atom_site_type_symbol
 _atom_site_label
 _atom_site_symmetry_multiplicity
 _atom_site_fract_x
 _atom_site_fract_y
 _atom_site_fract_z
 _atom_site_occupancy
  Rb  Rb0  1  0.60385579  0.94831128  0.82553208  1
  Rb  Rb1  1  0.29218672  0.29218672  0.31784388  1
  Rb  Rb2  1  0.20781328  0.20781328  0.81784388  1
  Rb  Rb3  1  0.70781328  0.70781328  0.68215612  1
  Rb  Rb4  1  0.44831128  0.10385579  0.67446792  1
  Rb  Rb5  1  0.89614421  0.55168872  0.32553208  1
  Rb  Rb6  1  0.05168872  0.39614421  0.17446792  1
  Rb  Rb7  1  0.39614421  0.05168872  0.17446792  1
  Rb  Rb8  1  0.55168872  0.89614421  0.32553208  1
  Rb  Rb9  1  0.10385579  0.44831128  0.67446792  1
  Rb  Rb10  1  0.94831128  0.60385579  0.82553208  1
  Rb  Rb11  1  0.79218672  0.79218672  0.18215612  1
  Li  Li0  1  0.08332281  0.91667719  0.00000000  1
  Li  Li1  1  0.58332281  0.41667719  0.50000000  1
  Li  Li2  1  0.91667719  0.08332281  0.00000000  1
  Li  Li3  1  0.75080673  0.24919327  0.00000000  1
  Li  Li4  1  0.74919327  0.25080673  0.50000000  1
  Li  Li5  1  0.24919327  0.75080673  0.00000000  1
  Li  Li6  1  0.25080673  0.74919327  0.50000000  1
  Li  Li7  1  0.41667719  0.58332281  0.50000000  1
  Zr  Zr0  1  0.08771504  0.91228496  0.50000000  1
  Zr  Zr1  1  0.41228496  0.58771504  0.00000000  1
  Zr  Zr2  1  0.91228496  0.08771504  0.50000000  1
  Zr  Zr3  1  0.58771504  0.41228496  0.00000000  1
  As  As0  1  0.07333402  0.39812547  0.41129698  1
  As  As1  1  0.89812547  0.57333402  0.08870302  1
  As  As2  1  0.42666598  0.10187453  0.91129698  1
  As  As3  1  0.60187453  0.92666598  0.58870302  1
  As  As4  1  0.92666598  0.60187453  0.58870302  1
  As  As5  1  0.10187453  0.42666598  0.91129698  1
  As  As6  1  0.57333402  0.89812547  0.08870302  1
  As  As7  1  0.39812547  0.07333402  0.41129698  1
  As  As8  1  0.22541129  0.22541129  0.58552354  1
  As  As9  1  0.72541129  0.72541129  0.91447646  1
  As  As10  1  0.27458871  0.27458871  0.08552354  1
  As  As11  1  0.77458871  0.77458871  0.41447646  1
loop_
_geom_bond_atom_site_label_1
_geom_bond_atom_site_label_2
_geom_bond_distance
_geom_bond_site_symmetry_2
As0 Zr2 2.575995 1_455
As0 Li4 2.745128 1_455
As0 Li7 2.746113 1_555
As0 Li6 2.838325 1_555
As0 Rb8 3.525178 1_555
As0 Rb5 3.577441 1_455
As0 Rb1 3.588596 1_555
As0 Rb8 3.671038 1_445
As0 Rb6 3.710975 1_555
As1 Zr3 2.575995 1_555
As1 Li3 2.745128 1_555
As1 Li0 2.746113 1_655
As1 Li5 2.838325 1_655
As1 Rb7 3.525178 1_665
As1 Rb6 3.577441 1_655
As1 Rb11 3.588596 1_555
As1 Rb7 3.671038 1_555
As1 Rb5 3.710975 1_555
As2 Zr3 2.575995 1_556
As2 Li3 2.745128 1_556
As2 Li0 2.746113 1_546
As2 Li5 2.838325 1_546
As2 Rb10 3.525178 1_445
As2 Rb0 3.577441 1_545
As2 Rb2 3.588596 1_555
As2 Rb10 3.671038 1_555
As2 Rb4 3.710975 1_555
As3 Zr2 2.575995 1_565
As3 Li4 2.745128 1_565
As3 Li7 2.746113 1_555
As3 Li6 2.838325 1_555
As3 Rb9 3.525178 1_555
As3 Rb4 3.577441 1_565
As3 Rb3 3.588596 1_555
As3 Rb9 3.671038 1_665
As3 Rb0 3.710975 1_555
As4 Zr0 2.575995 1_655
As4 Li6 2.745128 1_655
As4 Li1 2.746113 1_555
As4 Li4 2.838325 1_555
As4 Rb4 3.525178 1_555
As4 Rb9 3.577441 1_655
As4 Rb3 3.588596 1_555
As4 Rb4 3.671038 1_665
As4 Rb10 3.710975 1_555
As5 Zr1 2.575995 1_556
As5 Li5 2.745128 1_556
As5 Li2 2.746113 1_456
As5 Li3 2.838325 1_456
As5 Rb0 3.525178 1_445
As5 Rb10 3.577441 1_455
As5 Rb2 3.588596 1_555
As5 Rb0 3.671038 1_555
As5 Rb9 3.710975 1_555
As6 Zr1 2.575995 1_555
As6 Li5 2.745128 1_555
As6 Li2 2.746113 1_565
As6 Li3 2.838325 1_565
As6 Rb6 3.525178 1_665
As6 Rb7 3.577441 1_565
As6 Rb11 3.588596 1_555
As6 Rb6 3.671038 1_555
As6 Rb8 3.710975 1_555
As7 Zr0 2.575995 1_545
As7 Li6 2.745128 1_545
As7 Li1 2.746113 1_555
As7 Li4 2.838325 1_555
As7 Rb5 3.525178 1_555
As7 Rb8 3.577441 1_545
As7 Rb1 3.588596 1_555
As7 Rb5 3.671038 1_445
As7 Rb7 3.710975 1_555
As8 Zr2 2.671986 1_455
As8 Zr0 2.671986 1_545
As8 Li1 2.816019 1_555
As8 Li7 2.816019 1_555
As8 Rb3 3.552985 1_555
As8 Rb2 3.636259 1_555
As8 Rb4 3.737846 1_555
As8 Rb9 3.737846 1_555
As8 Rb3 3.766607 1_445
As9 Zr1 2.671986 1_556
As9 Zr3 2.671986 1_556
As9 Li0 2.816019 1_656
As9 Li2 2.816019 1_566
As9 Rb2 3.552985 1_665
As9 Rb3 3.636259 1_555
As9 Rb10 3.737846 1_555
As9 Rb0 3.737846 1_555
As9 Rb2 3.766607 1_555
As10 Zr3 2.671986 1_555
As10 Zr1 2.671986 1_555
As10 Li2 2.816019 1_455
As10 Li0 2.816019 1_545
As10 Rb11 3.552985 1_445
As10 Rb1 3.636259 1_555
As10 Rb6 3.737846 1_555
As10 Rb7 3.737846 1_555
As10 Rb11 3.766607 1_555
As11 Zr0 2.671986 1_655
As11 Zr2 2.671986 1_565
As11 Li7 2.816019 1_555
As11 Li1 2.816019 1_555
As11 Rb1 3.552985 1_555
As11 Rb11 3.636259 1_555
As11 Rb8 3.737846 1_555
As11 Rb5 3.737846 1_555
As11 Rb1 3.766607 1_665
