# generated using pymatgen
data_RbMnTe2O7
_symmetry_space_group_name_H-M   'P 1'
_cell_length_a   5.45954448
_cell_length_b   7.18874473
_cell_length_c   8.99158082
_cell_angle_alpha   66.43835594
_cell_angle_beta   90.00035358
_cell_angle_gamma   89.99996476
_symmetry_Int_Tables_number   1
_chemical_formula_structural   RbMnTe2O7
_chemical_formula_sum   'Rb2 Mn2 Te4 O14'
_cell_volume   323.47434517
_cell_formula_units_Z   2
loop_
 _symmetry_equiv_pos_site_id
 _symmetry_equiv_pos_as_xyz
  1  'x, y, z'
loop_
 _atom_site_type_symbol
 _atom_site_label
 _atom_site_symmetry_multiplicity
 _atom_site_fract_x
 _atom_site_fract_y
 _atom_site_fract_z
 _atom_site_occupancy
  Rb  Rb0  1  0.74999844  0.65450865  0.43150998  1
  Rb  Rb1  1  0.24999528  0.08612100  0.56840752  1
  Mn  Mn0  1  0.75000115  0.24101009  0.23748666  1
  Mn  Mn1  1  0.24999782  0.47863337  0.76236159  1
  Te  Te0  1  0.24999841  0.56168416  0.13580174  1
  Te  Te1  1  0.25000383  0.03747771  0.14157297  1
  Te  Te2  1  0.74999644  0.17889775  0.85849606  1
  Te  Te3  1  0.75000465  0.69742025  0.86423868  1
  O  O0  1  0.00000174  0.99338312  0.00003800  1
  O  O1  1  0.50000475  0.99338046  0.00004428  1
  O  O2  1  0.25000104  0.32615116  0.02088976  1
  O  O3  1  0.25000803  0.74279766  0.25483049  1
  O  O4  1  0.51230968  0.42287130  0.26526850  1
  O  O5  1  0.98771468  0.42286624  0.26526794  1
  O  O6  1  0.99843750  0.04301019  0.28559226  1
  O  O7  1  0.50155798  0.04301844  0.28559426  1
  O  O8  1  0.49840683  0.32851912  0.71446323  1
  O  O9  1  0.00158087  0.32851886  0.71446249  1
  O  O10  1  0.01221382  0.68822230  0.73470841  1
  O  O11  1  0.48778107  0.68822338  0.73471243  1
  O  O12  1  0.74999550  0.99758946  0.74513767  1
  O  O13  1  0.75000048  0.34693634  0.97911405  1
loop_
_geom_bond_atom_site_label_1
_geom_bond_atom_site_label_2
_geom_bond_distance
_geom_bond_site_symmetry_2
Mn0 O7 1.886931 1_555
Mn0 O6 1.886940 1_555
Mn0 O4 1.927864 1_555
Mn0 O5 1.927916 1_555
Mn0 O13 2.136048 1_554
Mn1 O8 1.887025 1_555
Mn1 O9 1.887058 1_555
Mn1 O10 1.928135 1_555
Mn1 O11 1.928148 1_555
Mn1 O2 2.137308 1_556
O0 Te2 1.975933 1_464
O0 Te1 1.976229 1_565
O1 Te2 1.975923 1_564
O1 Te1 1.976203 1_565
O2 Te1 1.919288 1_555
O2 Te0 2.309354 1_555
O3 Te1 1.949337 1_565
O3 Te0 1.988623 1_555
O3 Rb0 3.093831 1_555
O3 Rb0 3.093941 1_455
O4 Te0 1.863630 1_555
O4 Rb0 2.946362 1_555
O4 Rb1 3.172624 1_555
O5 Te0 1.863535 1_655
O5 Rb0 2.946467 1_555
O5 Rb1 3.172512 1_655
O6 Te1 1.898956 1_655
O6 Rb0 2.903727 1_545
O6 Rb1 3.013120 1_655
O7 Te1 1.898926 1_555
O7 Rb0 2.903766 1_545
O7 Rb1 3.013104 1_555
O8 Te2 1.899248 1_555
O8 Rb1 2.903438 1_555
O8 Rb0 3.014111 1_555
O9 Te2 1.899243 1_455
O9 Rb1 2.903445 1_555
O9 Rb0 3.014069 1_455
O10 Te3 1.863266 1_455
O10 Rb1 2.946797 1_565
O10 Rb0 3.173118 1_455
O11 Te3 1.863290 1_555
O11 Rb1 2.946796 1_565
O11 Rb0 3.173174 1_555
O12 Te2 1.949309 1_565
O12 Te3 1.988884 1_555
O12 Rb1 3.094075 1_565
O12 Rb1 3.094091 1_665
O13 Te2 1.919081 1_555
O13 Te3 2.309630 1_555
