# generated using pymatgen
data_Ti3Ga2CoN
_symmetry_space_group_name_H-M   'P 1'
_cell_length_a   7.94837456
_cell_length_b   7.94984167
_cell_length_c   7.94837456
_cell_angle_alpha   119.99389546
_cell_angle_beta   90.00000000
_cell_angle_gamma   119.99389546
_symmetry_Int_Tables_number   1
_chemical_formula_structural   Ti3Ga2CoN
_chemical_formula_sum   'Ti12 Ga8 Co4 N4'
_cell_volume   355.20596916
_cell_formula_units_Z   4
loop_
 _symmetry_equiv_pos_site_id
 _symmetry_equiv_pos_as_xyz
  1  'x, y, z'
loop_
 _atom_site_type_symbol
 _atom_site_label
 _atom_site_symmetry_multiplicity
 _atom_site_fract_x
 _atom_site_fract_y
 _atom_site_fract_z
 _atom_site_occupancy
  Ti  Ti0  1  0.93484586  0.36969271  0.18484586  1
  Ti  Ti1  1  0.31509978  0.75000000  0.18490022  1
  Ti  Ti2  1  0.93490022  0.75000000  0.18490022  1
  Ti  Ti3  1  0.68490022  0.25000000  0.43490022  1
  Ti  Ti4  1  0.68484586  0.86969271  0.43484586  1
  Ti  Ti5  1  0.06509978  0.25000000  0.43490022  1
  Ti  Ti6  1  0.31515414  0.13030729  0.56515414  1
  Ti  Ti7  1  0.31509978  0.75000000  0.56509978  1
  Ti  Ti8  1  0.93490022  0.75000000  0.56509978  1
  Ti  Ti9  1  0.06509978  0.25000000  0.81509978  1
  Ti  Ti10  1  0.68490022  0.25000000  0.81509978  1
  Ti  Ti11  1  0.06515414  0.63030729  0.81515414  1
  Ga  Ga0  1  0.70913879  0.91827857  0.12759461  1
  Ga  Ga1  1  0.29086121  0.08172143  0.20931603  1
  Ga  Ga2  1  0.29068397  0.41827857  0.20913879  1
  Ga  Ga3  1  0.62759461  0.41827857  0.20913879  1
  Ga  Ga4  1  0.37240539  0.58172143  0.79086121  1
  Ga  Ga5  1  0.70931603  0.58172143  0.79086121  1
  Ga  Ga6  1  0.70913879  0.91827857  0.79068397  1
  Ga  Ga7  1  0.29086121  0.08172143  0.87240539  1
  Co  Co0  1  0.00000000  0.00000000  0.00000000  1
  Co  Co1  1  0.50000000  0.00000000  0.00000000  1
  Co  Co2  1  0.50000000  0.50000000  0.00000000  1
  Co  Co3  1  0.50000000  0.50000000  0.50000000  1
  N  N0  1  0.00000000  0.50000000  0.00000000  1
  N  N1  1  0.00000000  0.00000000  0.50000000  1
  N  N2  1  0.50000000  0.00000000  0.50000000  1
  N  N3  1  0.00000000  0.50000000  0.50000000  1
loop_
_geom_bond_atom_site_label_1
_geom_bond_atom_site_label_2
_geom_bond_distance
_geom_bond_site_symmetry_2
Ga0 Ti4 2.649358 1_555
Ga0 Ti3 2.650572 1_565
Ga0 Ti5 2.650577 1_665
Ga0 Ga4 2.676977 1_554
Ga0 Ga5 2.676981 1_554
Ga0 Ga6 2.677892 1_554
Ga0 Ti1 2.868183 1_555
Ga0 Ti2 2.868190 1_555
Ga0 Ti0 2.869572 1_565
Ga1 Ti6 2.649366 1_555
Ga1 Ti1 2.650572 1_545
Ga1 Ti2 2.650577 1_445
Ga1 Ga3 2.676981 1_555
Ga1 Ga2 2.676985 1_555
Ga1 Ga7 2.677892 1_554
Ga1 Ti3 2.868183 1_555
Ga1 Ti5 2.868190 1_555
Ga1 Ti11 2.869568 1_544
Ga2 Ti0 2.649366 1_455
Ga2 Ti1 2.650572 1_555
Ga2 Ti7 2.650577 1_555
Ga2 Ga7 2.676981 1_554
Ga2 Ga3 2.677892 1_555
Ga2 Ti9 2.868183 1_554
Ga2 Ti5 2.868190 1_555
Ga2 Ti4 2.869568 1_555
Ga3 Ti0 2.649358 1_555
Ga3 Ti2 2.650572 1_555
Ga3 Ti8 2.650577 1_555
Ga3 Ga7 2.676977 1_554
Ga3 Ti10 2.868183 1_554
Ga3 Ti3 2.868190 1_555
Ga3 Ti4 2.869572 1_555
Ga4 Ti11 2.649358 1_555
Ga4 Ti9 2.650572 1_555
Ga4 Ti5 2.650577 1_555
Ga4 Ga6 2.676981 1_555
Ga4 Ga5 2.677892 1_555
Ga4 Ti1 2.868183 1_556
Ga4 Ti7 2.868190 1_555
Ga4 Ti6 2.869572 1_555
Ga5 Ti11 2.649366 1_655
Ga5 Ti10 2.650572 1_555
Ga5 Ti3 2.650577 1_555
Ga5 Ga6 2.676985 1_555
Ga5 Ti2 2.868183 1_556
Ga5 Ti8 2.868190 1_555
Ga5 Ti6 2.869568 1_555
Ga6 Ti4 2.649366 1_555
Ga6 Ti10 2.650572 1_565
Ga6 Ti9 2.650577 1_665
Ga6 Ti7 2.868183 1_555
Ga6 Ti8 2.868190 1_555
Ga6 Ti0 2.869568 1_566
Ga7 Ti6 2.649358 1_555
Ga7 Ti7 2.650572 1_545
Ga7 Ti8 2.650577 1_445
Ga7 Ti10 2.868183 1_555
Ga7 Ti9 2.868190 1_555
Ga7 Ti11 2.869572 1_545
Co0 Ga2 2.439421 1_555
Co0 Ga5 2.439421 1_444
Co0 Ga7 2.439764 1_554
Co0 Ga1 2.439764 1_555
Co0 Ga0 2.439764 1_445
Co0 Ga6 2.439764 1_444
Co0 Ti11 2.875588 1_544
Co0 Ti0 2.875588 1_455
Co0 Ti2 2.875722 1_445
Co0 Ti5 2.875722 1_555
Co0 Ti8 2.875722 1_444
Co0 Ti9 2.875722 1_554
Co1 Ga3 2.439421 1_555
Co1 Ga4 2.439421 1_544
Co1 Ga0 2.439757 1_545
Co1 Ga6 2.439757 1_544
Co1 Ga7 2.439757 1_554
Co1 Ga1 2.439757 1_555
Co1 Ti0 2.875583 1_555
Co1 Ti11 2.875583 1_544
Co1 Ti3 2.875722 1_555
Co1 Ti1 2.875722 1_545
Co1 Ti10 2.875722 1_554
Co1 Ti7 2.875722 1_544
Co2 Ga0 2.439421 1_555
Co2 Ga7 2.439421 1_554
Co2 Ga3 2.439757 1_555
Co2 Ga4 2.439757 1_554
Co2 Ga5 2.439757 1_554
Co2 Ga2 2.439757 1_555
Co2 Ti4 2.875583 1_555
Co2 Ti6 2.875583 1_554
Co2 Ti2 2.875722 1_555
Co2 Ti10 2.875722 1_554
Co2 Ti1 2.875722 1_555
Co2 Ti9 2.875722 1_554
Co3 Ga6 2.439421 1_555
Co3 Ga1 2.439421 1_555
Co3 Ga4 2.439764 1_555
Co3 Ga5 2.439764 1_555
Co3 Ga3 2.439764 1_555
Co3 Ga2 2.439764 1_555
Co3 Ti6 2.875588 1_555
Co3 Ti4 2.875588 1_555
Co3 Ti3 2.875722 1_555
Co3 Ti8 2.875722 1_555
Co3 Ti5 2.875722 1_555
Co3 Ti7 2.875722 1_555
N0 Ti0 2.117851 1_455
N0 Ti11 2.117851 1_554
N0 Ti1 2.117896 1_555
N0 Ti9 2.117896 1_554
N0 Ti2 2.117896 1_455
N0 Ti10 2.117896 1_454
N1 Ti6 2.117858 1_555
N1 Ti4 2.117858 1_445
N1 Ti8 2.117896 1_445
N1 Ti9 2.117896 1_555
N1 Ti2 2.117896 1_445
N1 Ti5 2.117896 1_555
N2 Ti4 2.117851 1_545
N2 Ti6 2.117851 1_555
N2 Ti10 2.117896 1_555
N2 Ti7 2.117896 1_545
N2 Ti3 2.117896 1_555
N2 Ti1 2.117896 1_545
N3 Ti11 2.117858 1_555
N3 Ti0 2.117858 1_455
N3 Ti5 2.117896 1_555
N3 Ti7 2.117896 1_555
N3 Ti3 2.117896 1_455
N3 Ti8 2.117896 1_455
