# generated using pymatgen
data_NaAl11O17
_symmetry_space_group_name_H-M   'P 1'
_cell_length_a   5.59120503
_cell_length_b   5.59120466
_cell_length_c   22.54609167
_cell_angle_alpha   90.00007000
_cell_angle_beta   89.99997173
_cell_angle_gamma   120.00023186
_symmetry_Int_Tables_number   1
_chemical_formula_structural   NaAl11O17
_chemical_formula_sum   'Na2 Al22 O34'
_cell_volume   610.39601980
_cell_formula_units_Z   2
loop_
 _symmetry_equiv_pos_site_id
 _symmetry_equiv_pos_as_xyz
  1  'x, y, z'
loop_
 _atom_site_type_symbol
 _atom_site_label
 _atom_site_symmetry_multiplicity
 _atom_site_fract_x
 _atom_site_fract_y
 _atom_site_fract_z
 _atom_site_occupancy
  Na  Na0  1  0.66667417  0.33331705  0.24989891  1
  Na  Na1  1  0.33332669  0.66668648  0.74986670  1
  Al  Al0  1  -0.00000233  -0.00000245  0.00006863  1
  Al  Al1  1  -0.00000029  0.00000193  0.49993879  1
  Al  Al2  1  0.33333337  0.66666609  0.02496624  1
  Al  Al3  1  0.66666684  0.33333435  0.52485455  1
  Al  Al4  1  0.66666691  0.33333073  0.97514143  1
  Al  Al5  1  0.33333324  0.66666838  0.47503191  1
  Al  Al6  1  0.83250097  0.16749909  0.10682380  1
  Al  Al7  1  0.66502787  0.83251668  0.60671627  1
  Al  Al8  1  0.16748679  0.33497431  0.60671660  1
  Al  Al9  1  0.83250098  0.66500042  0.10682421  1
  Al  Al10  1  0.33499926  0.16749897  0.10682412  1
  Al  Al11  1  0.66502578  0.83251021  0.89329543  1
  Al  Al12  1  0.16748423  0.33497296  0.89329593  1
  Al  Al13  1  0.16748554  0.83251535  0.60671599  1
  Al  Al14  1  0.16748625  0.83251121  0.89329569  1
  Al  Al15  1  0.83249393  0.16750805  0.39316935  1
  Al  Al16  1  0.33501702  0.16750791  0.39316886  1
  Al  Al17  1  0.83249362  0.66498512  0.39316887  1
  Al  Al18  1  0.33333291  0.66666546  0.17544768  1
  Al  Al19  1  0.66666590  0.33333585  0.67540415  1
  Al  Al20  1  0.66666440  0.33333031  0.82460633  1
  Al  Al21  1  0.33333441  0.66666595  0.32454387  1
  O  O0  1  0.15704784  0.84295154  0.04989897  1
  O  O1  1  0.31404991  0.15702637  0.54979446  1
  O  O2  1  0.84297509  0.68595146  0.54979423  1
  O  O3  1  0.15704778  0.31409487  0.04989902  1
  O  O4  1  0.68590460  0.84295177  0.04989899  1
  O  O5  1  0.31404562  0.15702061  0.95022044  1
  O  O6  1  0.84297713  0.68595247  0.95022061  1
  O  O7  1  0.84297403  0.15702584  0.54979440  1
  O  O8  1  0.84297714  0.15702081  0.95022033  1
  O  O9  1  0.15704300  0.84295804  0.45011078  1
  O  O10  1  0.68591452  0.84295814  0.45011090  1
  O  O11  1  0.15704347  0.31408711  0.45011096  1
  O  O12  1  0.66666592  0.33333245  0.05540595  1
  O  O13  1  0.33333312  0.66666771  0.55528172  1
  O  O14  1  0.33333203  0.66666478  0.94473191  1
  O  O15  1  0.66666717  0.33333465  0.44459285  1
  O  O16  1  0.00000001  -0.00000007  0.14150474  1
  O  O17  1  0.00000025  0.00000144  0.64142430  1
  O  O18  1  -0.00000042  0.99999764  0.85859207  1
  O  O19  1  0.00000089  0.00000093  0.35849747  1
  O  O20  1  0.50318418  0.49681603  0.14593922  1
  O  O21  1  0.00637963  0.50319179  0.64584221  1
  O  O22  1  0.49680940  0.99362194  0.64584210  1
  O  O23  1  0.50318464  0.00636798  0.14593927  1
  O  O24  1  0.99363195  0.49681564  0.14593895  1
  O  O25  1  0.00635067  0.50317320  0.85418479  1
  O  O26  1  0.49682402  0.99364594  0.85418521  1
  O  O27  1  0.49681117  0.50319153  0.64584185  1
  O  O28  1  0.49682404  0.50317301  0.85418541  1
  O  O29  1  0.50317541  0.49682587  0.35406669  1
  O  O30  1  0.99365170  0.49682562  0.35406680  1
  O  O31  1  0.50317561  0.00634935  0.35406676  1
  O  O32  1  0.33333152  0.66666840  0.24999762  1
  O  O33  1  0.66666550  0.33332970  0.75001572  1
loop_
_geom_bond_atom_site_label_1
_geom_bond_atom_site_label_2
_geom_bond_distance
_geom_bond_site_symmetry_2
Na0 O23 2.828439 1_555
Na0 O24 2.828470 1_555
Na0 O20 2.828554 1_555
Na0 O31 2.832383 1_555
Na0 O30 2.832409 1_555
Na0 O29 2.832490 1_555
Na1 O22 2.829619 1_555
Na1 O21 2.829646 1_555
Na1 O27 2.829743 1_555
Na1 O26 2.835175 1_555
Na1 O25 2.835214 1_555
Na1 O28 2.835324 1_555
Al0 O4 1.890838 1_445
Al0 O3 1.890853 1_555
Al0 O0 1.890854 1_545
Al0 O6 1.890886 1_444
Al0 O8 1.890891 1_454
Al0 O5 1.890901 1_554
Al1 O10 1.890774 1_445
Al1 O11 1.890774 1_555
Al1 O9 1.890786 1_545
Al1 O2 1.891009 1_445
Al1 O1 1.891010 1_555
Al1 O7 1.891010 1_455
Al2 O4 1.797358 1_555
Al2 O3 1.797359 1_555
Al2 O0 1.797362 1_555
Al2 O14 1.808971 1_554
Al3 O2 1.797617 1_555
Al3 O1 1.797619 1_555
Al3 O7 1.797619 1_555
Al3 O15 1.809588 1_555
Al4 O5 1.797505 1_555
Al4 O8 1.797506 1_555
Al4 O6 1.797507 1_555
Al4 O12 1.809651 1_556
Al5 O11 1.797320 1_555
Al5 O10 1.797321 1_555
Al5 O9 1.797322 1_555
Al5 O13 1.809320 1_555
Al6 O16 1.800729 1_655
Al6 O24 1.822316 1_555
Al6 O23 1.822319 1_555
Al6 O12 1.980680 1_555
Al6 O3 2.030879 1_655
Al6 O4 2.030880 1_545
Al7 O17 1.800876 1_665
Al7 O27 1.822469 1_555
Al7 O22 1.822469 1_555
Al7 O13 1.980998 1_555
Al7 O7 2.030700 1_565
Al7 O2 2.030718 1_555
Al8 O17 1.800876 1_555
Al8 O27 1.822461 1_555
Al8 O21 1.822471 1_555
Al8 O13 1.980998 1_555
Al8 O1 2.030714 1_555
Al8 O7 2.030718 1_455
Al9 O16 1.800724 1_665
Al9 O24 1.822314 1_555
Al9 O20 1.822316 1_555
Al9 O12 1.980677 1_555
Al9 O0 2.030886 1_655
Al9 O4 2.030894 1_555
Al10 O16 1.800725 1_555
Al10 O20 1.822317 1_555
Al10 O23 1.822321 1_555
Al10 O12 1.980672 1_555
Al10 O0 2.030885 1_545
Al10 O3 2.030891 1_555
Al11 O18 1.800837 1_655
Al11 O28 1.822347 1_555
Al11 O26 1.822357 1_555
Al11 O14 1.981020 1_555
Al11 O8 2.030748 1_565
Al11 O6 2.030753 1_555
Al12 O18 1.800847 1_545
Al12 O25 1.822352 1_555
Al12 O28 1.822365 1_555
Al12 O14 1.981004 1_555
Al12 O8 2.030730 1_455
Al12 O5 2.030761 1_555
Al13 O17 1.800879 1_565
Al13 O22 1.822469 1_555
Al13 O21 1.822470 1_555
Al13 O13 1.981000 1_555
Al13 O1 2.030703 1_565
Al13 O2 2.030703 1_455
Al14 O18 1.800842 1_555
Al14 O26 1.822356 1_555
Al14 O25 1.822361 1_555
Al14 O14 1.981016 1_555
Al14 O5 2.030742 1_565
Al14 O6 2.030744 1_455
Al15 O19 1.800709 1_655
Al15 O30 1.822183 1_555
Al15 O31 1.822185 1_555
Al15 O15 1.980693 1_555
Al15 O11 2.031134 1_655
Al15 O10 2.031135 1_545
Al16 O19 1.800708 1_555
Al16 O31 1.822179 1_555
Al16 O29 1.822180 1_555
Al16 O15 1.980683 1_555
Al16 O9 2.031141 1_545
Al16 O11 2.031156 1_555
Al17 O19 1.800708 1_665
Al17 O29 1.822180 1_555
Al17 O30 1.822181 1_555
Al17 O15 1.980686 1_555
Al17 O9 2.031137 1_655
Al17 O10 2.031152 1_555
Al18 O32 1.680810 1_555
Al18 O24 1.774326 1_455
Al18 O20 1.774327 1_555
Al18 O23 1.774331 1_565
Al19 O33 1.682199 1_555
Al19 O27 1.774828 1_555
Al19 O21 1.774834 1_655
Al19 O22 1.774834 1_545
Al20 O33 1.681727 1_555
Al20 O28 1.774846 1_555
Al20 O26 1.774846 1_545
Al20 O25 1.774850 1_655
Al21 O32 1.680727 1_555
Al21 O29 1.774362 1_555
Al21 O30 1.774364 1_455
Al21 O31 1.774366 1_565
