# generated using pymatgen
data_Zr10Cd3In5Ir4
_symmetry_space_group_name_H-M   'P 1'
_cell_length_a   6.67612059
_cell_length_b   15.38154814
_cell_length_c   35.35752699
_cell_angle_alpha   89.89527917
_cell_angle_beta   90.00000000
_cell_angle_gamma   90.00000000
_symmetry_Int_Tables_number   1
_chemical_formula_structural   Zr10Cd3In5Ir4
_chemical_formula_sum   'Zr80 Cd24 In40 Ir32'
_cell_volume   3630.82550724
_cell_formula_units_Z   8
loop_
 _symmetry_equiv_pos_site_id
 _symmetry_equiv_pos_as_xyz
  1  'x, y, z'
loop_
 _atom_site_type_symbol
 _atom_site_label
 _atom_site_symmetry_multiplicity
 _atom_site_fract_x
 _atom_site_fract_y
 _atom_site_fract_z
 _atom_site_occupancy
  Zr  Zr0_0  1  0.00000000  0.06571576  0.45940981  1
  Zr  Zr0_1  1  0.00000000  0.06571576  0.95940981  1
  Zr  Zr0_2  1  0.00000000  0.56571576  0.45940981  1
  Zr  Zr0_3  1  0.00000000  0.56571576  0.95940981  1
  Zr  Zr0_4  1  0.50000000  0.06571576  0.45940981  1
  Zr  Zr0_5  1  0.50000000  0.06571576  0.95940981  1
  Zr  Zr0_6  1  0.50000000  0.56571576  0.45940981  1
  Zr  Zr0_7  1  0.50000000  0.56571576  0.95940981  1
  Zr  Zr1_0  1  0.00000000  0.37925562  0.38955287  1
  Zr  Zr1_1  1  0.00000000  0.37925562  0.88955287  1
  Zr  Zr1_2  1  0.00000000  0.87925562  0.38955287  1
  Zr  Zr1_3  1  0.00000000  0.87925562  0.88955287  1
  Zr  Zr1_4  1  0.50000000  0.37925562  0.38955287  1
  Zr  Zr1_5  1  0.50000000  0.37925562  0.88955287  1
  Zr  Zr1_6  1  0.50000000  0.87925562  0.38955287  1
  Zr  Zr1_7  1  0.50000000  0.87925562  0.88955287  1
  Zr  Zr2_0  1  0.00000000  0.31973288  0.28993247  1
  Zr  Zr2_1  1  0.00000000  0.31973288  0.78993247  1
  Zr  Zr2_2  1  0.00000000  0.81973288  0.28993247  1
  Zr  Zr2_3  1  0.00000000  0.81973288  0.78993247  1
  Zr  Zr2_4  1  0.50000000  0.31973288  0.28993247  1
  Zr  Zr2_5  1  0.50000000  0.31973288  0.78993247  1
  Zr  Zr2_6  1  0.50000000  0.81973288  0.28993247  1
  Zr  Zr2_7  1  0.50000000  0.81973288  0.78993247  1
  Zr  Zr3_0  1  0.00000000  0.13201824  0.36206183  1
  Zr  Zr3_1  1  0.00000000  0.13201824  0.86206183  1
  Zr  Zr3_2  1  0.00000000  0.63201824  0.36206183  1
  Zr  Zr3_3  1  0.00000000  0.63201824  0.86206183  1
  Zr  Zr3_4  1  0.50000000  0.13201824  0.36206183  1
  Zr  Zr3_5  1  0.50000000  0.13201824  0.86206183  1
  Zr  Zr3_6  1  0.50000000  0.63201824  0.36206183  1
  Zr  Zr3_7  1  0.50000000  0.63201824  0.86206183  1
  Zr  Zr4_0  1  0.00000000  0.18034181  0.21018535  1
  Zr  Zr4_1  1  0.00000000  0.18034181  0.71018535  1
  Zr  Zr4_2  1  0.00000000  0.68034181  0.21018535  1
  Zr  Zr4_3  1  0.00000000  0.68034181  0.71018535  1
  Zr  Zr4_4  1  0.50000000  0.18034181  0.21018535  1
  Zr  Zr4_5  1  0.50000000  0.18034181  0.71018535  1
  Zr  Zr4_6  1  0.50000000  0.68034181  0.21018535  1
  Zr  Zr4_7  1  0.50000000  0.68034181  0.71018535  1
  Zr  Zr5_0  1  0.00000000  0.12237376  0.11080984  1
  Zr  Zr5_1  1  0.00000000  0.12237376  0.61080984  1
  Zr  Zr5_2  1  0.00000000  0.62237376  0.11080984  1
  Zr  Zr5_3  1  0.00000000  0.62237376  0.61080984  1
  Zr  Zr5_4  1  0.50000000  0.12237376  0.11080984  1
  Zr  Zr5_5  1  0.50000000  0.12237376  0.61080984  1
  Zr  Zr5_6  1  0.50000000  0.62237376  0.11080984  1
  Zr  Zr5_7  1  0.50000000  0.62237376  0.61080984  1
  Zr  Zr6_0  1  0.00000000  0.00014031  0.24988928  1
  Zr  Zr6_1  1  0.00000000  0.00014031  0.74988928  1
  Zr  Zr6_2  1  0.00000000  0.50014031  0.24988928  1
  Zr  Zr6_3  1  0.00000000  0.50014031  0.74988928  1
  Zr  Zr6_4  1  0.50000000  0.00014031  0.24988928  1
  Zr  Zr6_5  1  0.50000000  0.00014031  0.74988928  1
  Zr  Zr6_6  1  0.50000000  0.50014031  0.24988928  1
  Zr  Zr6_7  1  0.50000000  0.50014031  0.74988928  1
  Zr  Zr7_0  1  0.00000000  0.36872091  0.13798259  1
  Zr  Zr7_1  1  0.00000000  0.36872091  0.63798259  1
  Zr  Zr7_2  1  0.00000000  0.86872091  0.13798259  1
  Zr  Zr7_3  1  0.00000000  0.86872091  0.63798259  1
  Zr  Zr7_4  1  0.50000000  0.36872091  0.13798259  1
  Zr  Zr7_5  1  0.50000000  0.36872091  0.63798259  1
  Zr  Zr7_6  1  0.50000000  0.86872091  0.13798259  1
  Zr  Zr7_7  1  0.50000000  0.86872091  0.63798259  1
  Zr  Zr8_0  1  0.00000000  0.25003796  0.00005968  1
  Zr  Zr8_1  1  0.00000000  0.25003796  0.50005968  1
  Zr  Zr8_2  1  0.00000000  0.75003796  0.00005968  1
  Zr  Zr8_3  1  0.00000000  0.75003796  0.50005968  1
  Zr  Zr8_4  1  0.50000000  0.25003796  0.00005968  1
  Zr  Zr8_5  1  0.50000000  0.25003796  0.50005968  1
  Zr  Zr8_6  1  0.50000000  0.75003796  0.00005968  1
  Zr  Zr8_7  1  0.50000000  0.75003796  0.50005968  1
  Zr  Zr9_0  1  0.00000000  0.43177570  0.04058572  1
  Zr  Zr9_1  1  0.00000000  0.43177570  0.54058572  1
  Zr  Zr9_2  1  0.00000000  0.93177570  0.04058572  1
  Zr  Zr9_3  1  0.00000000  0.93177570  0.54058572  1
  Zr  Zr9_4  1  0.50000000  0.43177570  0.04058572  1
  Zr  Zr9_5  1  0.50000000  0.43177570  0.54058572  1
  Zr  Zr9_6  1  0.50000000  0.93177570  0.04058572  1
  Zr  Zr9_7  1  0.50000000  0.93177570  0.54058572  1
  Cd  Cd0_0  1  0.25000000  0.39697066  0.46579755  1
  Cd  Cd0_1  1  0.25000000  0.39697066  0.96579755  1
  Cd  Cd0_2  1  0.25000000  0.89697066  0.46579755  1
  Cd  Cd0_3  1  0.25000000  0.89697066  0.96579755  1
  Cd  Cd0_4  1  0.75000000  0.39697066  0.46579755  1
  Cd  Cd0_5  1  0.75000000  0.39697066  0.96579755  1
  Cd  Cd0_6  1  0.75000000  0.89697066  0.46579755  1
  Cd  Cd0_7  1  0.75000000  0.89697066  0.96579755  1
  Cd  Cd1_0  1  0.25000000  0.27902443  0.07404458  1
  Cd  Cd1_1  1  0.25000000  0.27902443  0.57404458  1
  Cd  Cd1_2  1  0.25000000  0.77902443  0.07404458  1
  Cd  Cd1_3  1  0.25000000  0.77902443  0.57404458  1
  Cd  Cd1_4  1  0.75000000  0.27902443  0.07404458  1
  Cd  Cd1_5  1  0.75000000  0.27902443  0.57404458  1
  Cd  Cd1_6  1  0.75000000  0.77902443  0.07404458  1
  Cd  Cd1_7  1  0.75000000  0.77902443  0.57404458  1
  Cd  Cd2_0  1  0.25000000  0.22161994  0.42614603  1
  Cd  Cd2_1  1  0.25000000  0.22161994  0.92614603  1
  Cd  Cd2_2  1  0.25000000  0.72161994  0.42614603  1
  Cd  Cd2_3  1  0.25000000  0.72161994  0.92614603  1
  Cd  Cd2_4  1  0.75000000  0.22161994  0.42614603  1
  Cd  Cd2_5  1  0.75000000  0.22161994  0.92614603  1
  Cd  Cd2_6  1  0.75000000  0.72161994  0.42614603  1
  Cd  Cd2_7  1  0.75000000  0.72161994  0.92614603  1
  In  In0_0  1  0.25000000  0.02955382  0.17530212  1
  In  In0_1  1  0.25000000  0.02955382  0.67530212  1
  In  In0_2  1  0.25000000  0.52955382  0.17530212  1
  In  In0_3  1  0.25000000  0.52955382  0.67530212  1
  In  In0_4  1  0.75000000  0.02955382  0.17530212  1
  In  In0_5  1  0.75000000  0.02955382  0.67530212  1
  In  In0_6  1  0.75000000  0.52955382  0.17530212  1
  In  In0_7  1  0.75000000  0.52955382  0.67530212  1
  In  In1_0  1  0.25000000  0.15027156  0.28395129  1
  In  In1_1  1  0.25000000  0.15027156  0.78395129  1
  In  In1_2  1  0.25000000  0.65027156  0.28395129  1
  In  In1_3  1  0.25000000  0.65027156  0.78395129  1
  In  In1_4  1  0.75000000  0.15027156  0.28395129  1
  In  In1_5  1  0.75000000  0.15027156  0.78395129  1
  In  In1_6  1  0.75000000  0.65027156  0.28395129  1
  In  In1_7  1  0.75000000  0.65027156  0.78395129  1
  In  In2_0  1  0.25000000  0.47114266  0.32450249  1
  In  In2_1  1  0.25000000  0.47114266  0.82450249  1
  In  In2_2  1  0.25000000  0.97114266  0.32450249  1
  In  In2_3  1  0.25000000  0.97114266  0.82450249  1
  In  In2_4  1  0.75000000  0.47114266  0.32450249  1
  In  In2_5  1  0.75000000  0.47114266  0.82450249  1
  In  In2_6  1  0.75000000  0.97114266  0.32450249  1
  In  In2_7  1  0.75000000  0.97114266  0.82450249  1
  In  In3_0  1  0.25000000  0.34992163  0.21614254  1
  In  In3_1  1  0.25000000  0.34992163  0.71614254  1
  In  In3_2  1  0.25000000  0.84992163  0.21614254  1
  In  In3_3  1  0.25000000  0.84992163  0.71614254  1
  In  In3_4  1  0.75000000  0.34992163  0.21614254  1
  In  In3_5  1  0.75000000  0.34992163  0.71614254  1
  In  In3_6  1  0.75000000  0.84992163  0.21614254  1
  In  In3_7  1  0.75000000  0.84992163  0.71614254  1
  In  In4_0  1  0.25000000  0.10081354  0.03362910  1
  In  In4_1  1  0.25000000  0.10081354  0.53362910  1
  In  In4_2  1  0.25000000  0.60081354  0.03362910  1
  In  In4_3  1  0.25000000  0.60081354  0.53362910  1
  In  In4_4  1  0.75000000  0.10081354  0.03362910  1
  In  In4_5  1  0.75000000  0.10081354  0.53362910  1
  In  In4_6  1  0.75000000  0.60081354  0.03362910  1
  In  In4_7  1  0.75000000  0.60081354  0.53362910  1
  Ir  Ir0_0  1  0.25000000  0.27542945  0.34648540  1
  Ir  Ir0_1  1  0.25000000  0.27542945  0.84648540  1
  Ir  Ir0_2  1  0.25000000  0.77542945  0.34648540  1
  Ir  Ir0_3  1  0.25000000  0.77542945  0.84648540  1
  Ir  Ir0_4  1  0.75000000  0.27542945  0.34648540  1
  Ir  Ir0_5  1  0.75000000  0.27542945  0.84648540  1
  Ir  Ir0_6  1  0.75000000  0.77542945  0.34648540  1
  Ir  Ir0_7  1  0.75000000  0.77542945  0.84648540  1
  Ir  Ir1_0  1  0.25000000  0.22491422  0.15374304  1
  Ir  Ir1_1  1  0.25000000  0.22491422  0.65374304  1
  Ir  Ir1_2  1  0.25000000  0.72491422  0.15374304  1
  Ir  Ir1_3  1  0.25000000  0.72491422  0.65374304  1
  Ir  Ir1_4  1  0.75000000  0.22491422  0.15374304  1
  Ir  Ir1_5  1  0.75000000  0.22491422  0.65374304  1
  Ir  Ir1_6  1  0.75000000  0.72491422  0.15374304  1
  Ir  Ir1_7  1  0.75000000  0.72491422  0.65374304  1
  Ir  Ir2_0  1  0.25000000  0.02452600  0.40345603  1
  Ir  Ir2_1  1  0.25000000  0.02452600  0.90345603  1
  Ir  Ir2_2  1  0.25000000  0.52452600  0.40345603  1
  Ir  Ir2_3  1  0.25000000  0.52452600  0.90345603  1
  Ir  Ir2_4  1  0.75000000  0.02452600  0.40345603  1
  Ir  Ir2_5  1  0.75000000  0.02452600  0.90345603  1
  Ir  Ir2_6  1  0.75000000  0.52452600  0.40345603  1
  Ir  Ir2_7  1  0.75000000  0.52452600  0.90345603  1
  Ir  Ir3_0  1  0.25000000  0.47569963  0.09632991  1
  Ir  Ir3_1  1  0.25000000  0.47569963  0.59632991  1
  Ir  Ir3_2  1  0.25000000  0.97569963  0.09632991  1
  Ir  Ir3_3  1  0.25000000  0.97569963  0.59632991  1
  Ir  Ir3_4  1  0.75000000  0.47569963  0.09632991  1
  Ir  Ir3_5  1  0.75000000  0.47569963  0.59632991  1
  Ir  Ir3_6  1  0.75000000  0.97569963  0.09632991  1
  Ir  Ir3_7  1  0.75000000  0.97569963  0.59632991  1
loop_
_geom_bond_atom_site_label_1
_geom_bond_atom_site_label_2
_geom_bond_distance
_geom_bond_site_symmetry_2
Zr0_0 Zr8_1 3.181007 1_555
Zr0_1 Zr8_0 3.181007 1_556
Zr0_2 Zr8_3 3.181007 1_555
Zr0_3 Zr8_2 3.181007 1_556
Zr0_4 Zr8_5 3.181007 1_555
Zr0_5 Zr8_4 3.181007 1_556
Zr0_6 Zr8_7 3.181007 1_555
Zr0_7 Zr8_6 3.181007 1_556
Zr2_0 Zr6_2 3.112962 1_555
Zr2_1 Zr6_3 3.112962 1_555
Zr2_2 Zr6_0 3.112962 1_565
Zr2_3 Zr6_1 3.112962 1_565
Zr2_4 Zr6_6 3.112962 1_555
Zr2_5 Zr6_7 3.112962 1_555
Zr2_6 Zr6_4 3.112962 1_565
Zr2_7 Zr6_5 3.112962 1_565
Zr4_0 Zr6_0 3.104718 1_555
Zr4_1 Zr6_1 3.104718 1_555
Zr4_2 Zr6_2 3.104718 1_555
Zr4_3 Zr6_3 3.104718 1_555
Zr4_4 Zr6_4 3.104718 1_555
Zr4_5 Zr6_5 3.104718 1_555
Zr4_6 Zr6_6 3.104718 1_555
Zr4_7 Zr6_7 3.104718 1_555
Zr6_0 Zr6_4 3.338060 1_455
Zr6_0 Zr6_4 3.338060 1_555
Zr6_1 Zr6_5 3.338060 1_555
Zr6_1 Zr6_5 3.338060 1_455
Zr6_2 Zr6_6 3.338060 1_455
Zr6_2 Zr6_6 3.338060 1_555
Zr6_3 Zr6_7 3.338060 1_455
Zr6_3 Zr6_7 3.338060 1_555
Zr8_0 Zr9_0 3.143589 1_555
Zr8_0 Zr8_4 3.338060 1_455
Zr8_0 Zr8_4 3.338060 1_555
Zr8_1 Zr9_1 3.143589 1_555
Zr8_1 Zr8_5 3.338060 1_555
Zr8_1 Zr8_5 3.338060 1_455
Zr8_2 Zr9_2 3.143589 1_555
Zr8_2 Zr8_6 3.338060 1_455
Zr8_2 Zr8_6 3.338060 1_555
Zr8_3 Zr9_3 3.143589 1_555
Zr8_3 Zr8_7 3.338060 1_455
Zr8_3 Zr8_7 3.338060 1_555
Zr8_4 Zr9_4 3.143589 1_555
Zr8_5 Zr9_5 3.143589 1_555
Zr8_6 Zr9_6 3.143589 1_555
Zr8_7 Zr9_7 3.143589 1_555
Cd0_0 Ir2_2 2.948273 1_555
Cd0_0 Cd2_0 3.042051 1_555
Cd0_0 Zr8_1 3.057947 1_555
Cd0_0 Zr8_5 3.057947 1_555
Cd0_0 Zr0_2 3.093778 1_555
Cd0_0 Zr0_6 3.093778 1_555
Cd0_0 Zr9_1 3.173310 1_555
Cd0_0 Zr9_5 3.173310 1_555
Cd0_0 Zr1_4 3.182775 1_555
Cd0_0 Zr1_0 3.182775 1_555
Cd0_0 Cd0_4 3.338060 1_455
Cd0_0 Cd0_4 3.338060 1_555
Cd0_1 Ir2_3 2.948273 1_555
Cd0_1 Cd2_1 3.042051 1_555
Cd0_1 Zr8_0 3.057947 1_556
Cd0_1 Zr8_4 3.057947 1_556
Cd0_1 Zr0_3 3.093778 1_555
Cd0_1 Zr0_7 3.093778 1_555
Cd0_1 Zr9_0 3.173310 1_556
Cd0_1 Zr9_4 3.173310 1_556
Cd0_1 Zr1_1 3.182775 1_555
Cd0_1 Zr1_5 3.182775 1_555
Cd0_1 Cd0_5 3.338060 1_455
Cd0_1 Cd0_5 3.338060 1_555
Cd0_2 Ir2_0 2.948273 1_565
Cd0_2 Cd2_2 3.042051 1_555
Cd0_2 Zr8_7 3.057947 1_555
Cd0_2 Zr8_3 3.057947 1_555
Cd0_2 Zr0_4 3.093778 1_565
Cd0_2 Zr0_0 3.093778 1_565
Cd0_2 Zr9_3 3.173310 1_555
Cd0_2 Zr9_7 3.173310 1_555
Cd0_2 Zr1_6 3.182775 1_555
Cd0_2 Zr1_2 3.182775 1_555
Cd0_2 Cd0_6 3.338060 1_455
Cd0_2 Cd0_6 3.338060 1_555
Cd0_3 Ir2_1 2.948273 1_565
Cd0_3 Cd2_3 3.042051 1_555
Cd0_3 Zr8_2 3.057947 1_556
Cd0_3 Zr8_6 3.057947 1_556
Cd0_3 Zr0_1 3.093778 1_565
Cd0_3 Zr0_5 3.093778 1_565
Cd0_3 Zr9_6 3.173310 1_556
Cd0_3 Zr9_2 3.173310 1_556
Cd0_3 Zr1_3 3.182775 1_555
Cd0_3 Zr1_7 3.182775 1_555
Cd0_3 Cd0_7 3.338060 1_455
Cd0_3 Cd0_7 3.338060 1_555
Cd0_4 Ir2_6 2.948273 1_555
Cd0_4 Cd2_4 3.042051 1_555
Cd0_4 Zr8_1 3.057947 1_655
Cd0_4 Zr8_5 3.057947 1_555
Cd0_4 Zr0_2 3.093778 1_655
Cd0_4 Zr0_6 3.093778 1_555
Cd0_4 Zr9_1 3.173310 1_655
Cd0_4 Zr9_5 3.173310 1_555
Cd0_4 Zr1_0 3.182775 1_655
Cd0_4 Zr1_4 3.182775 1_555
Cd0_5 Ir2_7 2.948273 1_555
Cd0_5 Cd2_5 3.042051 1_555
Cd0_5 Zr8_0 3.057947 1_656
Cd0_5 Zr8_4 3.057947 1_556
Cd0_5 Zr0_3 3.093778 1_655
Cd0_5 Zr0_7 3.093778 1_555
Cd0_5 Zr9_0 3.173310 1_656
Cd0_5 Zr9_4 3.173310 1_556
Cd0_5 Zr1_1 3.182775 1_655
Cd0_5 Zr1_5 3.182775 1_555
Cd0_6 Ir2_4 2.948273 1_565
Cd0_6 Cd2_6 3.042051 1_555
Cd0_6 Zr8_3 3.057947 1_655
Cd0_6 Zr8_7 3.057947 1_555
Cd0_6 Zr0_0 3.093778 1_665
Cd0_6 Zr0_4 3.093778 1_565
Cd0_6 Zr9_3 3.173310 1_655
Cd0_6 Zr9_7 3.173310 1_555
Cd0_6 Zr1_2 3.182775 1_655
Cd0_6 Zr1_6 3.182775 1_555
Cd0_7 Ir2_5 2.948273 1_565
Cd0_7 Cd2_7 3.042051 1_555
Cd0_7 Zr8_2 3.057947 1_656
Cd0_7 Zr8_6 3.057947 1_556
Cd0_7 Zr0_1 3.093778 1_665
Cd0_7 Zr0_5 3.093778 1_565
Cd0_7 Zr9_2 3.173310 1_656
Cd0_7 Zr9_6 3.173310 1_556
Cd0_7 Zr1_3 3.182775 1_655
Cd0_7 Zr1_7 3.182775 1_555
Cd1_0 Ir1_0 2.936824 1_555
Cd1_0 In4_0 3.093589 1_555
Cd1_0 Zr9_4 3.113749 1_555
Cd1_0 Zr9_0 3.113749 1_555
Cd1_0 Ir3_0 3.127496 1_555
Cd1_0 Zr7_0 3.132295 1_555
Cd1_0 Zr7_4 3.132295 1_555
Cd1_0 Zr8_0 3.135565 1_555
Cd1_0 Zr8_4 3.135565 1_555
Cd1_0 Zr5_0 3.204662 1_555
Cd1_0 Zr5_4 3.204662 1_555
Cd1_0 Cd1_4 3.338060 1_455
Cd1_0 Cd1_4 3.338060 1_555
Cd1_1 Ir1_1 2.936824 1_555
Cd1_1 In4_1 3.093589 1_555
Cd1_1 Zr9_1 3.113749 1_555
Cd1_1 Zr9_5 3.113749 1_555
Cd1_1 Ir3_1 3.127496 1_555
Cd1_1 Zr7_5 3.132295 1_555
Cd1_1 Zr7_1 3.132295 1_555
Cd1_1 Zr8_1 3.135565 1_555
Cd1_1 Zr8_5 3.135565 1_555
Cd1_1 Zr5_1 3.204662 1_555
Cd1_1 Zr5_5 3.204662 1_555
Cd1_1 Cd1_5 3.338060 1_455
Cd1_1 Cd1_5 3.338060 1_555
Cd1_2 Ir1_2 2.936824 1_555
Cd1_2 In4_2 3.093589 1_555
Cd1_2 Zr9_6 3.113749 1_555
Cd1_2 Zr9_2 3.113749 1_555
Cd1_2 Ir3_2 3.127496 1_555
Cd1_2 Zr7_2 3.132295 1_555
Cd1_2 Zr7_6 3.132295 1_555
Cd1_2 Zr8_6 3.135565 1_555
Cd1_2 Zr8_2 3.135565 1_555
Cd1_2 Zr5_2 3.204662 1_555
Cd1_2 Zr5_6 3.204662 1_555
Cd1_2 Cd1_6 3.338060 1_455
Cd1_2 Cd1_6 3.338060 1_555
Cd1_3 Ir1_3 2.936824 1_555
Cd1_3 In4_3 3.093589 1_555
Cd1_3 Zr9_3 3.113749 1_555
Cd1_3 Zr9_7 3.113749 1_555
Cd1_3 Ir3_3 3.127496 1_555
Cd1_3 Zr7_7 3.132295 1_555
Cd1_3 Zr7_3 3.132295 1_555
Cd1_3 Zr8_3 3.135565 1_555
Cd1_3 Zr8_7 3.135565 1_555
Cd1_3 Zr5_3 3.204662 1_555
Cd1_3 Zr5_7 3.204662 1_555
Cd1_3 Cd1_7 3.338060 1_455
Cd1_3 Cd1_7 3.338060 1_555
Cd1_4 Ir1_4 2.936824 1_555
Cd1_4 In4_4 3.093589 1_555
Cd1_4 Zr9_0 3.113749 1_655
Cd1_4 Zr9_4 3.113749 1_555
Cd1_4 Ir3_4 3.127496 1_555
Cd1_4 Zr7_0 3.132295 1_655
Cd1_4 Zr7_4 3.132295 1_555
Cd1_4 Zr8_0 3.135565 1_655
Cd1_4 Zr8_4 3.135565 1_555
Cd1_4 Zr5_0 3.204662 1_655
Cd1_4 Zr5_4 3.204662 1_555
Cd1_5 Ir1_5 2.936824 1_555
Cd1_5 In4_5 3.093589 1_555
Cd1_5 Zr9_1 3.113749 1_655
Cd1_5 Zr9_5 3.113749 1_555
Cd1_5 Ir3_5 3.127496 1_555
Cd1_5 Zr7_1 3.132295 1_655
Cd1_5 Zr7_5 3.132295 1_555
Cd1_5 Zr8_1 3.135565 1_655
Cd1_5 Zr8_5 3.135565 1_555
Cd1_5 Zr5_1 3.204662 1_655
Cd1_5 Zr5_5 3.204662 1_555
Cd1_6 Ir1_6 2.936824 1_555
Cd1_6 In4_6 3.093589 1_555
Cd1_6 Zr9_2 3.113749 1_655
Cd1_6 Zr9_6 3.113749 1_555
Cd1_6 Ir3_6 3.127496 1_555
Cd1_6 Zr7_2 3.132295 1_655
Cd1_6 Zr7_6 3.132295 1_555
Cd1_6 Zr8_2 3.135565 1_655
Cd1_6 Zr8_6 3.135565 1_555
Cd1_6 Zr5_2 3.204662 1_655
Cd1_6 Zr5_6 3.204662 1_555
Cd1_7 Ir1_7 2.936824 1_555
Cd1_7 In4_7 3.093589 1_555
Cd1_7 Zr9_3 3.113749 1_655
Cd1_7 Zr9_7 3.113749 1_555
Cd1_7 Ir3_7 3.127496 1_555
Cd1_7 Zr7_3 3.132295 1_655
Cd1_7 Zr7_7 3.132295 1_555
Cd1_7 Zr8_3 3.135565 1_655
Cd1_7 Zr8_7 3.135565 1_555
Cd1_7 Zr5_3 3.204662 1_655
Cd1_7 Zr5_7 3.204662 1_555
Cd2_0 Ir0_0 2.934241 1_555
Cd2_0 Zr8_1 3.132217 1_555
Cd2_0 Zr8_5 3.132217 1_555
Cd2_0 Zr3_0 3.135389 1_555
Cd2_0 Zr3_4 3.135389 1_555
Cd2_0 Ir2_0 3.137383 1_555
Cd2_0 Zr0_0 3.147897 1_555
Cd2_0 Zr0_4 3.147897 1_555
Cd2_0 Zr1_0 3.213612 1_555
Cd2_0 Zr1_4 3.213612 1_555
Cd2_0 Cd2_4 3.338060 1_455
Cd2_0 Cd2_4 3.338060 1_555
Cd2_1 Ir0_1 2.934241 1_555
Cd2_1 Zr8_0 3.132217 1_556
Cd2_1 Zr8_4 3.132217 1_556
Cd2_1 Zr3_1 3.135389 1_555
Cd2_1 Zr3_5 3.135389 1_555
Cd2_1 Ir2_1 3.137383 1_555
Cd2_1 Zr0_1 3.147897 1_555
Cd2_1 Zr0_5 3.147897 1_555
Cd2_1 Zr1_5 3.213612 1_555
Cd2_1 Zr1_1 3.213612 1_555
Cd2_1 Cd2_5 3.338060 1_455
Cd2_1 Cd2_5 3.338060 1_555
Cd2_2 Ir0_2 2.934241 1_555
Cd2_2 Zr8_7 3.132217 1_555
Cd2_2 Zr8_3 3.132217 1_555
Cd2_2 Zr3_6 3.135389 1_555
Cd2_2 Zr3_2 3.135389 1_555
Cd2_2 Ir2_2 3.137383 1_555
Cd2_2 Zr0_2 3.147897 1_555
Cd2_2 Zr0_6 3.147897 1_555
Cd2_2 Zr1_6 3.213612 1_555
Cd2_2 Zr1_2 3.213612 1_555
Cd2_2 Cd2_6 3.338060 1_455
Cd2_2 Cd2_6 3.338060 1_555
Cd2_3 Ir0_3 2.934241 1_555
Cd2_3 Zr8_2 3.132217 1_556
Cd2_3 Zr8_6 3.132217 1_556
Cd2_3 Zr3_3 3.135389 1_555
Cd2_3 Zr3_7 3.135389 1_555
Cd2_3 Ir2_3 3.137383 1_555
Cd2_3 Zr0_3 3.147897 1_555
Cd2_3 Zr0_7 3.147897 1_555
Cd2_3 Zr1_3 3.213612 1_555
Cd2_3 Zr1_7 3.213612 1_555
Cd2_3 Cd2_7 3.338060 1_455
Cd2_3 Cd2_7 3.338060 1_555
Cd2_4 Ir0_4 2.934241 1_555
Cd2_4 Zr8_1 3.132217 1_655
Cd2_4 Zr8_5 3.132217 1_555
Cd2_4 Zr3_0 3.135389 1_655
Cd2_4 Zr3_4 3.135389 1_555
Cd2_4 Ir2_4 3.137383 1_555
Cd2_4 Zr0_0 3.147897 1_655
Cd2_4 Zr0_4 3.147897 1_555
Cd2_4 Zr1_0 3.213612 1_655
Cd2_4 Zr1_4 3.213612 1_555
Cd2_5 Ir0_5 2.934241 1_555
Cd2_5 Zr8_0 3.132217 1_656
Cd2_5 Zr8_4 3.132217 1_556
Cd2_5 Zr3_1 3.135389 1_655
Cd2_5 Zr3_5 3.135389 1_555
Cd2_5 Ir2_5 3.137383 1_555
Cd2_5 Zr0_1 3.147897 1_655
Cd2_5 Zr0_5 3.147897 1_555
Cd2_5 Zr1_1 3.213612 1_655
Cd2_5 Zr1_5 3.213612 1_555
Cd2_6 Ir0_6 2.934241 1_555
Cd2_6 Zr8_3 3.132217 1_655
Cd2_6 Zr8_7 3.132217 1_555
Cd2_6 Zr3_2 3.135389 1_655
Cd2_6 Zr3_6 3.135389 1_555
Cd2_6 Ir2_6 3.137383 1_555
Cd2_6 Zr0_2 3.147897 1_655
Cd2_6 Zr0_6 3.147897 1_555
Cd2_6 Zr1_2 3.213612 1_655
Cd2_6 Zr1_6 3.213612 1_555
Cd2_7 Ir0_7 2.934241 1_555
Cd2_7 Zr8_2 3.132217 1_656
Cd2_7 Zr8_6 3.132217 1_556
Cd2_7 Zr3_3 3.135389 1_655
Cd2_7 Zr3_7 3.135389 1_555
Cd2_7 Ir2_7 3.137383 1_555
Cd2_7 Zr0_3 3.147897 1_655
Cd2_7 Zr0_7 3.147897 1_555
Cd2_7 Zr1_3 3.213612 1_655
Cd2_7 Zr1_7 3.213612 1_555
In0_0 Ir3_2 2.913995 1_545
In0_0 Ir1_0 3.098772 1_555
In0_0 Zr4_0 3.113961 1_555
In0_0 Zr4_4 3.113961 1_555
In0_0 In3_2 3.115266 1_545
In0_0 Zr6_0 3.152920 1_555
In0_0 Zr6_4 3.152920 1_555
In0_0 Zr5_0 3.164149 1_555
In0_0 Zr5_4 3.164149 1_555
In0_0 Zr7_2 3.264770 1_545
In0_0 Zr7_6 3.264770 1_545
In0_0 In0_4 3.338060 1_455
In0_0 In0_4 3.338060 1_555
In0_1 Ir3_3 2.913995 1_545
In0_1 Ir1_1 3.098772 1_555
In0_1 Zr4_5 3.113961 1_555
In0_1 Zr4_1 3.113961 1_555
In0_1 In3_3 3.115266 1_545
In0_1 Zr6_1 3.152920 1_555
In0_1 Zr6_5 3.152920 1_555
In0_1 Zr5_1 3.164149 1_555
In0_1 Zr5_5 3.164149 1_555
In0_1 Zr7_7 3.264770 1_545
In0_1 Zr7_3 3.264770 1_545
In0_1 In0_5 3.338060 1_455
In0_1 In0_5 3.338060 1_555
In0_2 Ir3_0 2.913995 1_555
In0_2 Ir1_2 3.098772 1_555
In0_2 Zr4_2 3.113961 1_555
In0_2 Zr4_6 3.113961 1_555
In0_2 In3_0 3.115266 1_555
In0_2 Zr6_6 3.152920 1_555
In0_2 Zr6_2 3.152920 1_555
In0_2 Zr5_6 3.164149 1_555
In0_2 Zr5_2 3.164149 1_555
In0_2 Zr7_0 3.264770 1_555
In0_2 Zr7_4 3.264770 1_555
In0_2 In0_6 3.338060 1_455
In0_2 In0_6 3.338060 1_555
In0_3 Ir3_1 2.913995 1_555
In0_3 Ir1_3 3.098772 1_555
In0_3 Zr4_3 3.113961 1_555
In0_3 Zr4_7 3.113961 1_555
In0_3 In3_1 3.115266 1_555
In0_3 Zr6_3 3.152920 1_555
In0_3 Zr6_7 3.152920 1_555
In0_3 Zr5_3 3.164149 1_555
In0_3 Zr5_7 3.164149 1_555
In0_3 Zr7_5 3.264770 1_555
In0_3 Zr7_1 3.264770 1_555
In0_3 In0_7 3.338060 1_455
In0_3 In0_7 3.338060 1_555
In0_4 Ir3_6 2.913995 1_545
In0_4 Ir1_4 3.098772 1_555
In0_4 Zr4_0 3.113961 1_655
In0_4 Zr4_4 3.113961 1_555
In0_4 In3_6 3.115266 1_545
In0_4 Zr6_0 3.152920 1_655
In0_4 Zr6_4 3.152920 1_555
In0_4 Zr5_0 3.164149 1_655
In0_4 Zr5_4 3.164149 1_555
In0_4 Zr7_2 3.264770 1_645
In0_4 Zr7_6 3.264770 1_545
In0_5 Ir3_7 2.913995 1_545
In0_5 Ir1_5 3.098772 1_555
In0_5 Zr4_1 3.113961 1_655
In0_5 Zr4_5 3.113961 1_555
In0_5 In3_7 3.115266 1_545
In0_5 Zr6_1 3.152920 1_655
In0_5 Zr6_5 3.152920 1_555
In0_5 Zr5_1 3.164149 1_655
In0_5 Zr5_5 3.164149 1_555
In0_5 Zr7_3 3.264770 1_645
In0_5 Zr7_7 3.264770 1_545
In0_6 Ir3_4 2.913995 1_555
In0_6 Ir1_6 3.098772 1_555
In0_6 Zr4_2 3.113961 1_655
In0_6 Zr4_6 3.113961 1_555
In0_6 In3_4 3.115266 1_555
In0_6 Zr6_2 3.152920 1_655
In0_6 Zr6_6 3.152920 1_555
In0_6 Zr5_2 3.164149 1_655
In0_6 Zr5_6 3.164149 1_555
In0_6 Zr7_0 3.264770 1_655
In0_6 Zr7_4 3.264770 1_555
In0_7 Ir3_5 2.913995 1_555
In0_7 Ir1_7 3.098772 1_555
In0_7 Zr4_3 3.113961 1_655
In0_7 Zr4_7 3.113961 1_555
In0_7 In3_5 3.115266 1_555
In0_7 Zr6_3 3.152920 1_655
In0_7 Zr6_7 3.152920 1_555
In0_7 Zr5_3 3.164149 1_655
In0_7 Zr5_7 3.164149 1_555
In0_7 Zr7_1 3.264770 1_655
In0_7 Zr7_5 3.264770 1_555
In1_0 Ir0_0 2.934349 1_555
In1_0 Zr6_0 3.094984 1_555
In1_0 Zr6_4 3.094984 1_555
In1_0 Zr2_0 3.102684 1_555
In1_0 Zr2_4 3.102684 1_555
In1_0 In2_2 3.103688 1_545
In1_0 Zr4_0 3.130143 1_555
In1_0 Zr4_4 3.130143 1_555
In1_0 Zr3_4 3.238699 1_555
In1_0 Zr3_0 3.238699 1_555
In1_0 In1_4 3.338060 1_455
In1_0 In1_4 3.338060 1_555
In1_1 Ir0_1 2.934349 1_555
In1_1 Zr6_1 3.094984 1_555
In1_1 Zr6_5 3.094984 1_555
In1_1 Zr2_5 3.102684 1_555
In1_1 Zr2_1 3.102684 1_555
In1_1 In2_3 3.103688 1_545
In1_1 Zr4_1 3.130143 1_555
In1_1 Zr4_5 3.130143 1_555
In1_1 Zr3_1 3.238699 1_555
In1_1 Zr3_5 3.238699 1_555
In1_1 In1_5 3.338060 1_455
In1_1 In1_5 3.338060 1_555
In1_2 Ir0_2 2.934349 1_555
In1_2 Zr6_2 3.094984 1_555
In1_2 Zr6_6 3.094984 1_555
In1_2 Zr2_2 3.102684 1_555
In1_2 Zr2_6 3.102684 1_555
In1_2 In2_0 3.103688 1_555
In1_2 Zr4_2 3.130143 1_555
In1_2 Zr4_6 3.130143 1_555
In1_2 Zr3_2 3.238699 1_555
In1_2 Zr3_6 3.238699 1_555
In1_2 In1_6 3.338060 1_455
In1_2 In1_6 3.338060 1_555
In1_3 Ir0_3 2.934349 1_555
In1_3 Zr6_3 3.094984 1_555
In1_3 Zr6_7 3.094984 1_555
In1_3 Zr2_7 3.102684 1_555
In1_3 Zr2_3 3.102684 1_555
In1_3 In2_1 3.103688 1_555
In1_3 Zr4_3 3.130143 1_555
In1_3 Zr4_7 3.130143 1_555
In1_3 Zr3_3 3.238699 1_555
In1_3 Zr3_7 3.238699 1_555
In1_3 In1_7 3.338060 1_455
In1_3 In1_7 3.338060 1_555
In1_4 Ir0_4 2.934349 1_555
In1_4 Zr6_0 3.094984 1_655
In1_4 Zr6_4 3.094984 1_555
In1_4 Zr2_0 3.102684 1_655
In1_4 Zr2_4 3.102684 1_555
In1_4 In2_6 3.103688 1_545
In1_4 Zr4_0 3.130143 1_655
In1_4 Zr4_4 3.130143 1_555
In1_4 Zr3_0 3.238699 1_655
In1_4 Zr3_4 3.238699 1_555
In1_5 Ir0_5 2.934349 1_555
In1_5 Zr6_1 3.094984 1_655
In1_5 Zr6_5 3.094984 1_555
In1_5 Zr2_1 3.102684 1_655
In1_5 Zr2_5 3.102684 1_555
In1_5 In2_7 3.103688 1_545
In1_5 Zr4_1 3.130143 1_655
In1_5 Zr4_5 3.130143 1_555
In1_5 Zr3_1 3.238699 1_655
In1_5 Zr3_5 3.238699 1_555
In1_6 Ir0_6 2.934349 1_555
In1_6 Zr6_2 3.094984 1_655
In1_6 Zr6_6 3.094984 1_555
In1_6 Zr2_2 3.102684 1_655
In1_6 Zr2_6 3.102684 1_555
In1_6 In2_4 3.103688 1_555
In1_6 Zr4_2 3.130143 1_655
In1_6 Zr4_6 3.130143 1_555
In1_6 Zr3_2 3.238699 1_655
In1_6 Zr3_6 3.238699 1_555
In1_7 Ir0_7 2.934349 1_555
In1_7 Zr6_3 3.094984 1_655
In1_7 Zr6_7 3.094984 1_555
In1_7 Zr2_3 3.102684 1_655
In1_7 Zr2_7 3.102684 1_555
In1_7 In2_5 3.103688 1_555
In1_7 Zr4_3 3.130143 1_655
In1_7 Zr4_7 3.130143 1_555
In1_7 Zr3_3 3.238699 1_655
In1_7 Zr3_7 3.238699 1_555
In2_0 Ir2_2 2.911298 1_555
In2_0 Ir0_0 3.107720 1_555
In2_0 Zr2_0 3.116723 1_555
In2_0 Zr2_4 3.116723 1_555
In2_0 Zr6_2 3.152789 1_555
In2_0 Zr6_6 3.152789 1_555
In2_0 Zr1_0 3.171983 1_555
In2_0 Zr1_4 3.171983 1_555
In2_0 Zr3_2 3.268715 1_555
In2_0 Zr3_6 3.268715 1_555
In2_0 In2_4 3.338060 1_455
In2_0 In2_4 3.338060 1_555
In2_1 Ir2_3 2.911298 1_555
In2_1 Ir0_1 3.107720 1_555
In2_1 Zr2_1 3.116723 1_555
In2_1 Zr2_5 3.116723 1_555
In2_1 Zr6_7 3.152789 1_555
In2_1 Zr6_3 3.152789 1_555
In2_1 Zr1_1 3.171983 1_555
In2_1 Zr1_5 3.171983 1_555
In2_1 Zr3_3 3.268715 1_555
In2_1 Zr3_7 3.268715 1_555
In2_1 In2_5 3.338060 1_455
In2_1 In2_5 3.338060 1_555
In2_2 Ir2_0 2.911298 1_565
In2_2 Ir0_2 3.107720 1_555
In2_2 Zr2_2 3.116723 1_555
In2_2 Zr2_6 3.116723 1_555
In2_2 Zr6_4 3.152789 1_565
In2_2 Zr6_0 3.152789 1_565
In2_2 Zr1_2 3.171983 1_555
In2_2 Zr1_6 3.171983 1_555
In2_2 Zr3_4 3.268715 1_565
In2_2 Zr3_0 3.268715 1_565
In2_2 In2_6 3.338060 1_455
In2_2 In2_6 3.338060 1_555
In2_3 Ir2_1 2.911298 1_565
In2_3 Ir0_3 3.107720 1_555
In2_3 Zr2_3 3.116723 1_555
In2_3 Zr2_7 3.116723 1_555
In2_3 Zr6_1 3.152789 1_565
In2_3 Zr6_5 3.152789 1_565
In2_3 Zr1_7 3.171983 1_555
In2_3 Zr1_3 3.171983 1_555
In2_3 Zr3_1 3.268715 1_565
In2_3 Zr3_5 3.268715 1_565
In2_3 In2_7 3.338060 1_455
In2_3 In2_7 3.338060 1_555
In2_4 Ir2_6 2.911298 1_555
In2_4 Ir0_4 3.107720 1_555
In2_4 Zr2_0 3.116723 1_655
In2_4 Zr2_4 3.116723 1_555
In2_4 Zr6_2 3.152789 1_655
In2_4 Zr6_6 3.152789 1_555
In2_4 Zr1_0 3.171983 1_655
In2_4 Zr1_4 3.171983 1_555
In2_4 Zr3_2 3.268715 1_655
In2_4 Zr3_6 3.268715 1_555
In2_5 Ir2_7 2.911298 1_555
In2_5 Ir0_5 3.107720 1_555
In2_5 Zr2_1 3.116723 1_655
In2_5 Zr2_5 3.116723 1_555
In2_5 Zr6_3 3.152789 1_655
In2_5 Zr6_7 3.152789 1_555
In2_5 Zr1_1 3.171983 1_655
In2_5 Zr1_5 3.171983 1_555
In2_5 Zr3_3 3.268715 1_655
In2_5 Zr3_7 3.268715 1_555
In2_6 Ir2_4 2.911298 1_565
In2_6 Ir0_6 3.107720 1_555
In2_6 Zr2_2 3.116723 1_655
In2_6 Zr2_6 3.116723 1_555
In2_6 Zr6_0 3.152789 1_665
In2_6 Zr6_4 3.152789 1_565
In2_6 Zr1_2 3.171983 1_655
In2_6 Zr1_6 3.171983 1_555
In2_6 Zr3_0 3.268715 1_665
In2_6 Zr3_4 3.268715 1_565
In2_7 Ir2_5 2.911298 1_565
In2_7 Ir0_7 3.107720 1_555
In2_7 Zr2_3 3.116723 1_655
In2_7 Zr2_7 3.116723 1_555
In2_7 Zr6_1 3.152789 1_665
In2_7 Zr6_5 3.152789 1_565
In2_7 Zr1_3 3.171983 1_655
In2_7 Zr1_7 3.171983 1_555
In2_7 Zr3_1 3.268715 1_665
In2_7 Zr3_5 3.268715 1_565
In3_0 Ir1_0 2.929235 1_555
In3_0 Zr6_6 3.091654 1_555
In3_0 Zr6_2 3.091654 1_555
In3_0 Zr4_0 3.104157 1_555
In3_0 Zr4_4 3.104157 1_555
In3_0 Zr2_4 3.131116 1_555
In3_0 Zr2_0 3.131116 1_555
In3_0 Zr7_0 3.240914 1_555
In3_0 Zr7_4 3.240914 1_555
In3_0 In3_4 3.338060 1_455
In3_0 In3_4 3.338060 1_555
In3_1 Ir1_1 2.929235 1_555
In3_1 Zr6_3 3.091654 1_555
In3_1 Zr6_7 3.091654 1_555
In3_1 Zr4_1 3.104157 1_555
In3_1 Zr4_5 3.104157 1_555
In3_1 Zr2_5 3.131116 1_555
In3_1 Zr2_1 3.131116 1_555
In3_1 Zr7_5 3.240914 1_555
In3_1 Zr7_1 3.240914 1_555
In3_1 In3_5 3.338060 1_455
In3_1 In3_5 3.338060 1_555
In3_2 Ir1_2 2.929235 1_555
In3_2 Zr6_0 3.091654 1_565
In3_2 Zr6_4 3.091654 1_565
In3_2 Zr4_2 3.104157 1_555
In3_2 Zr4_6 3.104157 1_555
In3_2 Zr2_2 3.131116 1_555
In3_2 Zr2_6 3.131116 1_555
In3_2 Zr7_6 3.240914 1_555
In3_2 Zr7_2 3.240914 1_555
In3_2 In3_6 3.338060 1_455
In3_2 In3_6 3.338060 1_555
In3_3 Ir1_3 2.929235 1_555
In3_3 Zr6_1 3.091654 1_565
In3_3 Zr6_5 3.091654 1_565
In3_3 Zr4_3 3.104157 1_555
In3_3 Zr4_7 3.104157 1_555
In3_3 Zr2_7 3.131116 1_555
In3_3 Zr2_3 3.131116 1_555
In3_3 Zr7_3 3.240914 1_555
In3_3 Zr7_7 3.240914 1_555
In3_3 In3_7 3.338060 1_455
In3_3 In3_7 3.338060 1_555
In3_4 Ir1_4 2.929235 1_555
In3_4 Zr6_2 3.091654 1_655
In3_4 Zr6_6 3.091654 1_555
In3_4 Zr4_0 3.104157 1_655
In3_4 Zr4_4 3.104157 1_555
In3_4 Zr2_0 3.131116 1_655
In3_4 Zr2_4 3.131116 1_555
In3_4 Zr7_0 3.240914 1_655
In3_4 Zr7_4 3.240914 1_555
In3_5 Ir1_5 2.929235 1_555
In3_5 Zr6_3 3.091654 1_655
In3_5 Zr6_7 3.091654 1_555
In3_5 Zr4_1 3.104157 1_655
In3_5 Zr4_5 3.104157 1_555
In3_5 Zr2_1 3.131116 1_655
In3_5 Zr2_5 3.131116 1_555
In3_5 Zr7_1 3.240914 1_655
In3_5 Zr7_5 3.240914 1_555
In3_6 Ir1_6 2.929235 1_555
In3_6 Zr6_0 3.091654 1_665
In3_6 Zr6_4 3.091654 1_565
In3_6 Zr4_2 3.104157 1_655
In3_6 Zr4_6 3.104157 1_555
In3_6 Zr2_2 3.131116 1_655
In3_6 Zr2_6 3.131116 1_555
In3_6 Zr7_2 3.240914 1_655
In3_6 Zr7_6 3.240914 1_555
In3_7 Ir1_7 2.929235 1_555
In3_7 Zr6_1 3.091654 1_665
In3_7 Zr6_5 3.091654 1_565
In3_7 Zr4_3 3.104157 1_655
In3_7 Zr4_7 3.104157 1_555
In3_7 Zr2_3 3.131116 1_655
In3_7 Zr2_7 3.131116 1_555
In3_7 Zr7_3 3.240914 1_655
In3_7 Zr7_7 3.240914 1_555
In4_0 Ir3_2 2.933043 1_545
In4_0 Zr8_4 3.074561 1_555
In4_0 Zr8_0 3.074561 1_555
In4_0 Zr9_2 3.099057 1_545
In4_0 Zr9_6 3.099057 1_545
In4_0 Zr0_5 3.157336 1_554
In4_0 Zr0_1 3.157336 1_554
In4_0 Zr5_0 3.216512 1_555
In4_0 Zr5_4 3.216512 1_555
In4_0 In4_4 3.338060 1_455
In4_0 In4_4 3.338060 1_555
In4_1 Ir3_3 2.933043 1_545
In4_1 Zr8_1 3.074561 1_555
In4_1 Zr8_5 3.074561 1_555
In4_1 Zr9_3 3.099057 1_545
In4_1 Zr9_7 3.099057 1_545
In4_1 Zr0_4 3.157336 1_555
In4_1 Zr0_0 3.157336 1_555
In4_1 Zr5_1 3.216512 1_555
In4_1 Zr5_5 3.216512 1_555
In4_1 In4_5 3.338060 1_455
In4_1 In4_5 3.338060 1_555
In4_2 Ir3_0 2.933043 1_555
In4_2 Zr8_2 3.074561 1_555
In4_2 Zr8_6 3.074561 1_555
In4_2 Zr9_0 3.099057 1_555
In4_2 Zr9_4 3.099057 1_555
In4_2 Zr0_3 3.157336 1_554
In4_2 Zr0_7 3.157336 1_554
In4_2 Zr5_2 3.216512 1_555
In4_2 Zr5_6 3.216512 1_555
In4_2 In4_6 3.338060 1_455
In4_2 In4_6 3.338060 1_555
In4_3 Ir3_1 2.933043 1_555
In4_3 Zr8_3 3.074561 1_555
In4_3 Zr8_7 3.074561 1_555
In4_3 Zr9_1 3.099057 1_555
In4_3 Zr9_5 3.099057 1_555
In4_3 Zr0_6 3.157336 1_555
In4_3 Zr0_2 3.157336 1_555
In4_3 Zr5_3 3.216512 1_555
In4_3 Zr5_7 3.216512 1_555
In4_3 In4_7 3.338060 1_455
In4_3 In4_7 3.338060 1_555
In4_4 Ir3_6 2.933043 1_545
In4_4 Zr8_0 3.074561 1_655
In4_4 Zr8_4 3.074561 1_555
In4_4 Zr9_2 3.099057 1_645
In4_4 Zr9_6 3.099057 1_545
In4_4 Zr0_1 3.157336 1_654
In4_4 Zr0_5 3.157336 1_554
In4_4 Zr5_0 3.216512 1_655
In4_4 Zr5_4 3.216512 1_555
In4_5 Ir3_7 2.933043 1_545
In4_5 Zr8_1 3.074561 1_655
In4_5 Zr8_5 3.074561 1_555
In4_5 Zr9_3 3.099057 1_645
In4_5 Zr9_7 3.099057 1_545
In4_5 Zr0_0 3.157336 1_655
In4_5 Zr0_4 3.157336 1_555
In4_5 Zr5_1 3.216512 1_655
In4_5 Zr5_5 3.216512 1_555
In4_6 Ir3_4 2.933043 1_555
In4_6 Zr8_2 3.074561 1_655
In4_6 Zr8_6 3.074561 1_555
In4_6 Zr9_0 3.099057 1_655
In4_6 Zr9_4 3.099057 1_555
In4_6 Zr0_3 3.157336 1_654
In4_6 Zr0_7 3.157336 1_554
In4_6 Zr5_2 3.216512 1_655
In4_6 Zr5_6 3.216512 1_555
In4_7 Ir3_5 2.933043 1_555
In4_7 Zr8_3 3.074561 1_655
In4_7 Zr8_7 3.074561 1_555
In4_7 Zr9_1 3.099057 1_655
In4_7 Zr9_5 3.099057 1_555
In4_7 Zr0_2 3.157336 1_655
In4_7 Zr0_6 3.157336 1_555
In4_7 Zr5_3 3.216512 1_655
In4_7 Zr5_7 3.216512 1_555
Ir0_0 Zr2_0 2.691347 1_555
Ir0_0 Zr2_4 2.691347 1_555
Ir0_0 Zr1_0 2.768353 1_555
Ir0_0 Zr1_4 2.768353 1_555
Ir0_0 Zr3_0 2.819659 1_555
Ir0_0 Zr3_4 2.819659 1_555
Ir0_1 Zr2_5 2.691347 1_555
Ir0_1 Zr2_1 2.691347 1_555
Ir0_1 Zr1_1 2.768353 1_555
Ir0_1 Zr1_5 2.768353 1_555
Ir0_1 Zr3_1 2.819659 1_555
Ir0_1 Zr3_5 2.819659 1_555
Ir0_2 Zr2_2 2.691347 1_555
Ir0_2 Zr2_6 2.691347 1_555
Ir0_2 Zr1_2 2.768353 1_555
Ir0_2 Zr1_6 2.768353 1_555
Ir0_2 Zr3_6 2.819659 1_555
Ir0_2 Zr3_2 2.819659 1_555
Ir0_3 Zr2_3 2.691347 1_555
Ir0_3 Zr2_7 2.691347 1_555
Ir0_3 Zr1_7 2.768353 1_555
Ir0_3 Zr1_3 2.768353 1_555
Ir0_3 Zr3_7 2.819659 1_555
Ir0_3 Zr3_3 2.819659 1_555
Ir0_4 Zr2_0 2.691347 1_655
Ir0_4 Zr2_4 2.691347 1_555
Ir0_4 Zr1_0 2.768353 1_655
Ir0_4 Zr1_4 2.768353 1_555
Ir0_4 Zr3_0 2.819659 1_655
Ir0_4 Zr3_4 2.819659 1_555
Ir0_5 Zr2_1 2.691347 1_655
Ir0_5 Zr2_5 2.691347 1_555
Ir0_5 Zr1_1 2.768353 1_655
Ir0_5 Zr1_5 2.768353 1_555
Ir0_5 Zr3_1 2.819659 1_655
Ir0_5 Zr3_5 2.819659 1_555
Ir0_6 Zr2_2 2.691347 1_655
Ir0_6 Zr2_6 2.691347 1_555
Ir0_6 Zr1_2 2.768353 1_655
Ir0_6 Zr1_6 2.768353 1_555
Ir0_6 Zr3_2 2.819659 1_655
Ir0_6 Zr3_6 2.819659 1_555
Ir0_7 Zr2_3 2.691347 1_655
Ir0_7 Zr2_7 2.691347 1_555
Ir0_7 Zr1_3 2.768353 1_655
Ir0_7 Zr1_7 2.768353 1_555
Ir0_7 Zr3_3 2.819659 1_655
Ir0_7 Zr3_7 2.819659 1_555
Ir1_0 Zr4_0 2.689490 1_555
Ir1_0 Zr4_4 2.689490 1_555
Ir1_0 Zr5_4 2.754348 1_555
Ir1_0 Zr5_0 2.754348 1_555
Ir1_0 Zr7_0 2.825685 1_555
Ir1_0 Zr7_4 2.825685 1_555
Ir1_1 Zr4_1 2.689490 1_555
Ir1_1 Zr4_5 2.689490 1_555
Ir1_1 Zr5_1 2.754348 1_555
Ir1_1 Zr5_5 2.754348 1_555
Ir1_1 Zr7_5 2.825685 1_555
Ir1_1 Zr7_1 2.825685 1_555
Ir1_2 Zr4_2 2.689490 1_555
Ir1_2 Zr4_6 2.689490 1_555
Ir1_2 Zr5_6 2.754348 1_555
Ir1_2 Zr5_2 2.754348 1_555
Ir1_2 Zr7_2 2.825685 1_555
Ir1_2 Zr7_6 2.825685 1_555
Ir1_3 Zr4_3 2.689490 1_555
Ir1_3 Zr4_7 2.689490 1_555
Ir1_3 Zr5_3 2.754348 1_555
Ir1_3 Zr5_7 2.754348 1_555
Ir1_3 Zr7_7 2.825685 1_555
Ir1_3 Zr7_3 2.825685 1_555
Ir1_4 Zr4_0 2.689490 1_655
Ir1_4 Zr4_4 2.689490 1_555
Ir1_4 Zr5_0 2.754348 1_655
Ir1_4 Zr5_4 2.754348 1_555
Ir1_4 Zr7_0 2.825685 1_655
Ir1_4 Zr7_4 2.825685 1_555
Ir1_5 Zr4_1 2.689490 1_655
Ir1_5 Zr4_5 2.689490 1_555
Ir1_5 Zr5_1 2.754348 1_655
Ir1_5 Zr5_5 2.754348 1_555
Ir1_5 Zr7_1 2.825685 1_655
Ir1_5 Zr7_5 2.825685 1_555
Ir1_6 Zr4_2 2.689490 1_655
Ir1_6 Zr4_6 2.689490 1_555
Ir1_6 Zr5_2 2.754348 1_655
Ir1_6 Zr5_6 2.754348 1_555
Ir1_6 Zr7_2 2.825685 1_655
Ir1_6 Zr7_6 2.825685 1_555
Ir1_7 Zr4_3 2.689490 1_655
Ir1_7 Zr4_7 2.689490 1_555
Ir1_7 Zr5_3 2.754348 1_655
Ir1_7 Zr5_7 2.754348 1_555
Ir1_7 Zr7_3 2.825685 1_655
Ir1_7 Zr7_7 2.825685 1_555
Ir2_0 Zr0_0 2.665644 1_555
Ir2_0 Zr0_4 2.665644 1_555
Ir2_0 Zr3_4 2.766343 1_555
Ir2_0 Zr3_0 2.766343 1_555
Ir2_0 Zr1_6 2.832710 1_545
Ir2_0 Zr1_2 2.832710 1_545
Ir2_1 Zr0_5 2.665644 1_555
Ir2_1 Zr0_1 2.665644 1_555
Ir2_1 Zr3_1 2.766343 1_555
Ir2_1 Zr3_5 2.766343 1_555
Ir2_1 Zr1_3 2.832710 1_545
Ir2_1 Zr1_7 2.832710 1_545
Ir2_2 Zr0_2 2.665644 1_555
Ir2_2 Zr0_6 2.665644 1_555
Ir2_2 Zr3_2 2.766343 1_555
Ir2_2 Zr3_6 2.766343 1_555
Ir2_2 Zr1_0 2.832710 1_555
Ir2_2 Zr1_4 2.832710 1_555
Ir2_3 Zr0_7 2.665644 1_555
Ir2_3 Zr0_3 2.665644 1_555
Ir2_3 Zr3_7 2.766343 1_555
Ir2_3 Zr3_3 2.766343 1_555
Ir2_3 Zr1_5 2.832710 1_555
Ir2_3 Zr1_1 2.832710 1_555
Ir2_4 Zr0_0 2.665644 1_655
Ir2_4 Zr0_4 2.665644 1_555
Ir2_4 Zr3_0 2.766343 1_655
Ir2_4 Zr3_4 2.766343 1_555
Ir2_4 Zr1_2 2.832710 1_645
Ir2_4 Zr1_6 2.832710 1_545
Ir2_5 Zr0_1 2.665644 1_655
Ir2_5 Zr0_5 2.665644 1_555
Ir2_5 Zr3_1 2.766343 1_655
Ir2_5 Zr3_5 2.766343 1_555
Ir2_5 Zr1_3 2.832710 1_645
Ir2_5 Zr1_7 2.832710 1_545
Ir2_6 Zr0_2 2.665644 1_655
Ir2_6 Zr0_6 2.665644 1_555
Ir2_6 Zr3_2 2.766343 1_655
Ir2_6 Zr3_6 2.766343 1_555
Ir2_6 Zr1_0 2.832710 1_655
Ir2_6 Zr1_4 2.832710 1_555
Ir2_7 Zr0_3 2.665644 1_655
Ir2_7 Zr0_7 2.665644 1_555
Ir2_7 Zr3_3 2.766343 1_655
Ir2_7 Zr3_7 2.766343 1_555
Ir2_7 Zr1_1 2.832710 1_655
Ir2_7 Zr1_5 2.832710 1_555
Ir3_0 Zr9_4 2.670532 1_555
Ir3_0 Zr9_0 2.670532 1_555
Ir3_0 Zr7_4 2.766481 1_555
Ir3_0 Zr7_0 2.766481 1_555
Ir3_0 Zr5_6 2.853397 1_555
Ir3_0 Zr5_2 2.853397 1_555
Ir3_1 Zr9_1 2.670532 1_555
Ir3_1 Zr9_5 2.670532 1_555
Ir3_1 Zr7_5 2.766481 1_555
Ir3_1 Zr7_1 2.766481 1_555
Ir3_1 Zr5_3 2.853397 1_555
Ir3_1 Zr5_7 2.853397 1_555
Ir3_2 Zr9_2 2.670532 1_555
Ir3_2 Zr9_6 2.670532 1_555
Ir3_2 Zr7_2 2.766481 1_555
Ir3_2 Zr7_6 2.766481 1_555
Ir3_2 Zr5_0 2.853397 1_565
Ir3_2 Zr5_4 2.853397 1_565
Ir3_3 Zr9_7 2.670532 1_555
Ir3_3 Zr9_3 2.670532 1_555
Ir3_3 Zr7_7 2.766481 1_555
Ir3_3 Zr7_3 2.766481 1_555
Ir3_3 Zr5_5 2.853397 1_565
Ir3_3 Zr5_1 2.853397 1_565
Ir3_4 Zr9_0 2.670532 1_655
Ir3_4 Zr9_4 2.670532 1_555
Ir3_4 Zr7_0 2.766481 1_655
Ir3_4 Zr7_4 2.766481 1_555
Ir3_4 Zr5_2 2.853397 1_655
Ir3_4 Zr5_6 2.853397 1_555
Ir3_5 Zr9_1 2.670532 1_655
Ir3_5 Zr9_5 2.670532 1_555
Ir3_5 Zr7_1 2.766481 1_655
Ir3_5 Zr7_5 2.766481 1_555
Ir3_5 Zr5_3 2.853397 1_655
Ir3_5 Zr5_7 2.853397 1_555
Ir3_6 Zr9_2 2.670532 1_655
Ir3_6 Zr9_6 2.670532 1_555
Ir3_6 Zr7_2 2.766481 1_655
Ir3_6 Zr7_6 2.766481 1_555
Ir3_6 Zr5_0 2.853397 1_665
Ir3_6 Zr5_4 2.853397 1_565
Ir3_7 Zr9_3 2.670532 1_655
Ir3_7 Zr9_7 2.670532 1_555
Ir3_7 Zr7_3 2.766481 1_655
Ir3_7 Zr7_7 2.766481 1_555
Ir3_7 Zr5_1 2.853397 1_665
Ir3_7 Zr5_5 2.853397 1_565
