# generated using pymatgen
data_CdRu2PbO7
_symmetry_space_group_name_H-M   'P 1'
_cell_length_a   7.17770718
_cell_length_b   7.22706736
_cell_length_c   7.22706792
_cell_angle_alpha   60.70621386
_cell_angle_beta   60.22567986
_cell_angle_gamma   60.22567968
_symmetry_Int_Tables_number   1
_chemical_formula_structural   CdRu2PbO7
_chemical_formula_sum   'Cd2 Ru4 Pb2 O14'
_cell_volume   267.39196389
_cell_formula_units_Z   2
loop_
 _symmetry_equiv_pos_site_id
 _symmetry_equiv_pos_as_xyz
  1  'x, y, z'
loop_
 _atom_site_type_symbol
 _atom_site_label
 _atom_site_symmetry_multiplicity
 _atom_site_fract_x
 _atom_site_fract_y
 _atom_site_fract_z
 _atom_site_occupancy
  Cd  Cd0  1  0.62500000  0.12500000  0.12500000  1
  Cd  Cd1  1  0.12500000  0.12500000  0.12500000  1
  Ru  Ru0  1  0.62500000  0.12500000  0.62500000  1
  Ru  Ru1  1  0.62500000  0.62500000  0.12500000  1
  Ru  Ru2  1  0.12500000  0.62500000  0.62500000  1
  Ru  Ru3  1  0.62500000  0.62500000  0.62500000  1
  Pb  Pb0  1  0.12500000  0.62500000  0.12500000  1
  Pb  Pb1  1  0.12500000  0.12500000  0.62500000  1
  O  O0  1  0.70115001  0.68968717  0.30561714  1
  O  O1  1  0.95096082  0.54903918  0.54903918  1
  O  O2  1  0.55204584  0.94795416  0.94795416  1
  O  O3  1  0.94645433  0.94438286  0.56031283  1
  O  O4  1  0.94645433  0.56031283  0.94438286  1
  O  O5  1  0.54884999  0.94438286  0.56031283  1
  O  O6  1  0.30354567  0.68968717  0.30561714  1
  O  O7  1  0.29903918  0.70096082  0.70096082  1
  O  O8  1  0.69795416  0.30204584  0.30204584  1
  O  O9  1  0.70115001  0.30561714  0.68968717  1
  O  O10  1  0.54884999  0.56031283  0.94438286  1
  O  O11  1  0.30354567  0.30561714  0.68968717  1
  O  O12  1  0.26060224  0.23939776  0.23939776  1
  O  O13  1  0.98939776  0.01060224  0.01060224  1
loop_
_geom_bond_atom_site_label_1
_geom_bond_atom_site_label_2
_geom_bond_distance
_geom_bond_site_symmetry_2
Cd0 O13 2.140489 1_555
Cd0 O12 2.140489 1_555
Cd0 O8 2.545886 1_555
Cd0 O2 2.545886 1_544
Cd0 O10 2.623417 1_554
Cd0 O0 2.623417 1_545
Cd0 O5 2.623417 1_545
Cd0 O9 2.623417 1_554
Cd1 O12 2.140489 1_555
Cd1 O13 2.140489 1_455
Cd1 O2 2.545886 1_544
Cd1 O8 2.545886 1_455
Cd1 O4 2.623417 1_454
Cd1 O6 2.623417 1_545
Cd1 O11 2.623417 1_554
Cd1 O3 2.623417 1_445
O0 Ru1 1.944414 1_555
O0 Ru3 1.946770 1_555
O0 Pb0 2.533463 1_655
O1 Ru2 1.954574 1_655
O1 Ru3 1.954574 1_555
O1 Pb1 2.546777 1_655
O1 Pb0 2.546777 1_655
O2 Ru1 1.971838 1_556
O2 Ru0 1.971838 1_565
O3 Ru0 1.944414 1_565
O3 Ru2 1.946770 1_655
O3 Pb1 2.533462 1_665
O4 Ru1 1.944414 1_556
O4 Ru2 1.946770 1_655
O4 Pb0 2.533463 1_656
O5 Ru0 1.944414 1_565
O5 Ru3 1.946770 1_555
O5 Pb1 2.533463 1_565
O6 Ru1 1.944414 1_555
O6 Ru2 1.946770 1_555
O6 Pb0 2.533463 1_555
O7 Ru2 1.954574 1_555
O7 Ru3 1.954574 1_555
O7 Pb1 2.546777 1_565
O7 Pb0 2.546777 1_556
O8 Ru1 1.971838 1_555
O8 Ru0 1.971838 1_555
O9 Ru0 1.944414 1_555
O9 Ru3 1.946770 1_555
O9 Pb1 2.533463 1_655
O10 Ru1 1.944414 1_556
O10 Ru3 1.946770 1_555
O10 Pb0 2.533463 1_556
O11 Ru0 1.944414 1_555
O11 Ru2 1.946770 1_555
O11 Pb1 2.533462 1_555
O12 Pb0 2.290779 1_555
O12 Pb1 2.290779 1_555
O13 Pb0 2.290779 1_645
O13 Pb1 2.290779 1_654
