# generated using pymatgen
data_Nd5AgS8
_symmetry_space_group_name_H-M   'P 1'
_cell_length_a   7.43465390
_cell_length_b   7.43465390
_cell_length_c   7.43465390
_cell_angle_alpha   109.71737059
_cell_angle_beta   109.71737059
_cell_angle_gamma   108.98003447
_symmetry_Int_Tables_number   1
_chemical_formula_structural   Nd5AgS8
_chemical_formula_sum   'Nd5 Ag1 S8'
_cell_volume   316.32714620
_cell_formula_units_Z   1
loop_
 _symmetry_equiv_pos_site_id
 _symmetry_equiv_pos_as_xyz
  1  'x, y, z'
loop_
 _atom_site_type_symbol
 _atom_site_label
 _atom_site_symmetry_multiplicity
 _atom_site_fract_x
 _atom_site_fract_y
 _atom_site_fract_z
 _atom_site_occupancy
  Nd  Nd0  1  0.37949400  0.76451300  0.88177000  1
  Nd  Nd1  1  0.50227600  0.62050600  0.38502000  1
  Nd  Nd2  1  0.88274300  0.49772400  0.11823000  1
  Nd  Nd3  1  0.75000000  0.25000000  0.50000000  1
  Nd  Nd4  1  0.23548700  0.11725700  0.61498000  1
  Ag  Ag0  1  0.00000000  0.00000000  0.00000000  1
  S  S0  1  0.27370700  0.88238800  0.25097400  1
  S  S1  1  0.13224400  0.39157800  0.89362600  1
  S  S2  1  0.11761200  0.36858600  0.39132000  1
  S  S3  1  0.97726600  0.72629200  0.60868000  1
  S  S4  1  0.60842200  0.50204800  0.74066600  1
  S  S5  1  0.49795200  0.23861800  0.10637400  1
  S  S6  1  0.63141400  0.02273400  0.74902600  1
  S  S7  1  0.76138200  0.86775600  0.25933400  1
loop_
_geom_bond_atom_site_label_1
_geom_bond_atom_site_label_2
_geom_bond_distance
_geom_bond_site_symmetry_2
Nd0 S1 2.834308 1_555
Nd0 S3 2.847234 1_455
Nd0 S7 2.877614 1_556
Nd0 S6 2.890370 1_565
Nd0 S5 3.000854 1_566
Nd0 S0 3.033638 1_556
Nd0 S4 3.128721 1_555
Nd0 S2 3.160759 1_555
Nd1 S7 2.834314 1_555
Nd1 S6 2.847230 1_565
Nd1 S5 2.877616 1_555
Nd1 S2 2.890366 1_555
Nd1 S4 3.000847 1_555
Nd1 S3 3.033632 1_555
Nd1 S1 3.128727 1_554
Nd1 S0 3.160767 1_555
Nd2 S5 2.834308 1_555
Nd2 S2 2.847234 1_655
Nd2 S4 2.877614 1_554
Nd2 S0 2.890366 1_655
Nd2 S1 3.000854 1_654
Nd2 S6 3.033633 1_554
Nd2 S7 3.128721 1_555
Nd2 S3 3.160759 1_555
Nd3 S4 2.848211 1_555
Nd3 S1 2.848211 1_655
Nd3 S7 2.848211 1_545
Nd3 S5 2.848211 1_555
Nd3 S3 3.050114 1_555
Nd3 S2 3.050114 1_655
Nd3 S6 3.050114 1_555
Nd3 S0 3.050119 1_545
Nd4 S4 2.834305 1_555
Nd4 S0 2.847223 1_545
Nd4 S1 2.877618 1_555
Nd4 S3 2.890374 1_445
Nd4 S7 3.000852 1_445
Nd4 S2 3.033628 1_555
Nd4 S5 3.128728 1_556
Nd4 S6 3.160760 1_555
Ag0 S0 2.843125 1_545
Ag0 S2 2.843129 1_555
Ag0 S6 2.843129 1_454
Ag0 S3 2.843129 1_444
