# generated using pymatgen
data_TiO2
_symmetry_space_group_name_H-M   'P 1'
_cell_length_a   3.82734912
_cell_length_b   3.82734912
_cell_length_c   5.47203911
_cell_angle_alpha   70.10663939
_cell_angle_beta   70.10663939
_cell_angle_gamma   90.01314714
_symmetry_Int_Tables_number   1
_chemical_formula_structural   TiO2
_chemical_formula_sum   'Ti2 O4'
_cell_volume   70.26402114
_cell_formula_units_Z   2
loop_
 _symmetry_equiv_pos_site_id
 _symmetry_equiv_pos_as_xyz
  1  'x, y, z'
loop_
 _atom_site_type_symbol
 _atom_site_label
 _atom_site_symmetry_multiplicity
 _atom_site_fract_x
 _atom_site_fract_y
 _atom_site_fract_z
 _atom_site_occupancy
  Ti  Ti0  1  0.86589000  0.13411000  0.25000000  1
  Ti  Ti1  1  0.13411000  0.86589000  0.75000000  1
  O  O0  1  0.66877900  0.91124500  0.66714900  1
  O  O1  1  0.33122100  0.08875500  0.33285100  1
  O  O2  1  0.08875500  0.33122100  0.83285100  1
  O  O3  1  0.91124500  0.66877900  0.16714900  1
loop_
_geom_bond_atom_site_label_1
_geom_bond_atom_site_label_2
_geom_bond_distance
_geom_bond_site_symmetry_2
O0 Ti1 1.933440 1_555
O0 Ti1 1.975766 1_655
O0 Ti0 2.002485 1_565
O1 Ti0 1.933440 1_555
O1 Ti0 1.975766 1_455
O1 Ti1 2.002485 1_545
O2 Ti1 1.933440 1_555
O2 Ti1 1.975766 1_545
O2 Ti0 2.002485 1_456
O3 Ti0 1.933440 1_555
O3 Ti0 1.975766 1_565
O3 Ti1 2.002485 1_654
