# generated using pymatgen
data_Rb3Hf2CuTe10
_symmetry_space_group_name_H-M   'P 1'
_cell_length_a   9.91380499
_cell_length_b   11.04646792
_cell_length_c   11.09412372
_cell_angle_alpha   88.21679890
_cell_angle_beta   90.25452313
_cell_angle_gamma   78.68789254
_symmetry_Int_Tables_number   1
_chemical_formula_structural   Rb3Hf2CuTe10
_chemical_formula_sum   'Rb6 Hf4 Cu2 Te20'
_cell_volume   1190.69720406
_cell_formula_units_Z   2
loop_
 _symmetry_equiv_pos_site_id
 _symmetry_equiv_pos_as_xyz
  1  'x, y, z'
loop_
 _atom_site_type_symbol
 _atom_site_label
 _atom_site_symmetry_multiplicity
 _atom_site_fract_x
 _atom_site_fract_y
 _atom_site_fract_z
 _atom_site_occupancy
  Rb  Rb0  1  0.88360652  0.89062997  0.25943436  1
  Rb  Rb1  1  0.11639348  0.10937003  0.74056564  1
  Rb  Rb2  1  0.44063344  0.77242616  0.38745006  1
  Rb  Rb3  1  0.55936656  0.22757384  0.61254994  1
  Rb  Rb4  1  0.29805911  0.63334117  0.89622018  1
  Rb  Rb5  1  0.70194089  0.36665883  0.10377982  1
  Hf  Hf0  1  0.11087954  0.37622304  0.36640808  1
  Hf  Hf1  1  0.88912046  0.62377696  0.63359192  1
  Hf  Hf2  1  0.31049655  0.15743810  0.14460020  1
  Hf  Hf3  1  0.68950345  0.84256190  0.85539980  1
  Cu  Cu0  1  0.92046777  0.37547850  0.55893053  1
  Cu  Cu1  1  0.07953223  0.62452150  0.44106947  1
  Te  Te0  1  0.84011084  0.55902763  0.39168449  1
  Te  Te1  1  0.15988916  0.44097237  0.60831551  1
  Te  Te2  1  0.92638430  0.20160198  0.41152859  1
  Te  Te3  1  0.07361570  0.79839802  0.58847141  1
  Te  Te4  1  0.20133095  0.59173309  0.23988479  1
  Te  Te5  1  0.79866905  0.40826691  0.76011521  1
  Te  Te6  1  0.21560355  0.11282842  0.39875299  1
  Te  Te7  1  0.78439645  0.88717158  0.60124701  1
  Te  Te8  1  0.07751225  0.36383899  0.10614542  1
  Te  Te9  1  0.92248775  0.63616101  0.89385458  1
  Te  Te10  1  0.40039481  0.35668245  0.29437219  1
  Te  Te11  1  0.59960519  0.64331755  0.70562781  1
  Te  Te12  1  0.03827943  0.12321871  0.06575728  1
  Te  Te13  1  0.96172057  0.87678129  0.93424272  1
  Te  Te14  1  0.53498573  0.08574726  0.30916134  1
  Te  Te15  1  0.46501427  0.91425274  0.69083866  1
  Te  Te16  1  0.33235760  0.90968550  0.06995694  1
  Te  Te17  1  0.66764240  0.09031450  0.93004306  1
  Te  Te18  1  0.40685500  0.25099923  0.92523611  1
  Te  Te19  1  0.59314500  0.74900077  0.07476389  1
loop_
_geom_bond_atom_site_label_1
_geom_bond_atom_site_label_2
_geom_bond_distance
_geom_bond_site_symmetry_2
Rb0 Te13 3.694783 1_554
Rb0 Te14 3.750132 1_565
Rb0 Te12 3.847158 1_665
Rb0 Te7 3.922729 1_555
Rb0 Te2 3.969018 1_565
Rb0 Te0 4.005901 1_555
Rb0 Te4 4.103761 1_655
Rb0 Te19 4.105058 1_555
Rb0 Te3 4.106848 1_655
Rb1 Te12 3.694783 1_556
Rb1 Te15 3.750132 1_545
Rb1 Te13 3.847158 1_445
Rb1 Te6 3.922729 1_555
Rb1 Te3 3.969018 1_545
Rb1 Te1 4.005901 1_555
Rb1 Te5 4.103761 1_455
Rb1 Te18 4.105058 1_555
Rb1 Te2 4.106848 1_455
Rb2 Te15 3.783020 1_555
Rb2 Te4 3.784054 1_555
Rb2 Te19 3.786265 1_555
Rb2 Te14 3.833887 1_565
Rb2 Te16 3.854008 1_555
Rb2 Te11 3.966553 1_555
Rb2 Te6 3.984087 1_565
Rb2 Te0 4.191940 1_555
Rb2 Te3 4.242321 1_555
Rb3 Te14 3.783020 1_555
Rb3 Te5 3.784054 1_555
Rb3 Te18 3.786265 1_555
Rb3 Te15 3.833887 1_545
Rb3 Te17 3.854008 1_555
Rb3 Te10 3.966553 1_555
Rb3 Te7 3.984087 1_545
Rb3 Te1 4.191940 1_555
Rb3 Te2 4.242321 1_555
Rb4 Te11 3.686583 1_555
Rb4 Te9 3.717326 1_455
Rb4 Te16 3.730525 1_556
Rb4 Te13 3.884980 1_455
Rb4 Te19 3.960589 1_556
Rb4 Te4 3.970330 1_556
Rb4 Te18 4.150943 1_555
Rb4 Te3 4.229149 1_555
Rb4 Te1 4.256683 1_555
Rb5 Te10 3.686583 1_555
Rb5 Te8 3.717326 1_655
Rb5 Te17 3.730525 1_554
Rb5 Te12 3.884980 1_655
Rb5 Te18 3.960589 1_554
Rb5 Te5 3.970330 1_554
Rb5 Te19 4.150943 1_555
Rb5 Te2 4.229149 1_555
Rb5 Te0 4.256683 1_555
Hf0 Te1 2.862584 1_555
Hf0 Te6 2.901544 1_555
Hf0 Te8 2.915303 1_555
Hf0 Te2 2.940915 1_455
Hf0 Te10 2.951504 1_555
Hf0 Te4 3.013710 1_555
Hf0 Te0 3.045898 1_455
Hf1 Te0 2.862584 1_555
Hf1 Te7 2.901544 1_555
Hf1 Te9 2.915303 1_555
Hf1 Te3 2.940915 1_655
Hf1 Te11 2.951504 1_555
Hf1 Te5 3.013710 1_555
Hf1 Te1 3.045898 1_655
Hf2 Te14 2.845298 1_555
Hf2 Te16 2.851789 1_545
Hf2 Te18 2.855666 1_554
Hf2 Te8 2.929185 1_555
Hf2 Te12 2.931007 1_555
Hf2 Te6 3.032649 1_555
Hf2 Te10 3.063220 1_555
Hf3 Te15 2.845298 1_555
Hf3 Te17 2.851789 1_565
Hf3 Te19 2.855666 1_556
Hf3 Te9 2.929185 1_555
Hf3 Te13 2.931007 1_555
Hf3 Te7 3.032649 1_555
Hf3 Te11 3.063220 1_555
Cu0 Te5 2.544322 1_555
Cu0 Te2 2.553221 1_555
Cu0 Te1 2.672874 1_655
Cu0 Te0 2.703226 1_555
Cu0 Hf1 2.848686 1_555
Cu0 Hf0 2.857665 1_655
Cu0 Rb1 3.719003 1_655
Cu1 Te4 2.544322 1_555
Cu1 Te3 2.553221 1_555
Cu1 Te0 2.672874 1_455
Cu1 Te1 2.703226 1_555
Cu1 Hf0 2.848686 1_555
Cu1 Hf1 2.857665 1_455
Cu1 Rb0 3.719003 1_455
Te2 Te6 2.848180 1_655
Te3 Te7 2.848180 1_455
Te4 Te8 3.387362 1_555
Te5 Te9 3.387362 1_555
Te10 Te4 2.980476 1_555
Te10 Te14 3.027451 1_555
Te11 Te5 2.980476 1_555
Te11 Te15 3.027451 1_555
Te12 Te8 2.809836 1_555
Te12 Te13 3.341182 1_444
Te12 Te16 3.370446 1_545
Te13 Te9 2.809836 1_555
Te13 Te17 3.370446 1_565
Te16 Te19 2.833777 1_555
Te17 Te18 2.833777 1_555
