# generated using pymatgen
data_Zr(Nb3As2)2
_symmetry_space_group_name_H-M   'P 1'
_cell_length_a   7.95006288
_cell_length_b   7.95006386
_cell_length_c   14.40066820
_cell_angle_alpha   75.70932350
_cell_angle_beta   75.70932190
_cell_angle_gamma   25.99515512
_symmetry_Int_Tables_number   1
_chemical_formula_structural   Zr(Nb3As2)2
_chemical_formula_sum   'Zr2 Nb12 As8'
_cell_volume   385.91116203
_cell_formula_units_Z   2
loop_
 _symmetry_equiv_pos_site_id
 _symmetry_equiv_pos_as_xyz
  1  'x, y, z'
loop_
 _atom_site_type_symbol
 _atom_site_label
 _atom_site_symmetry_multiplicity
 _atom_site_fract_x
 _atom_site_fract_y
 _atom_site_fract_z
 _atom_site_occupancy
  Zr  Zr0  1  0.17625311  0.17625311  0.45315869  1
  Zr  Zr1  1  0.82374689  0.82374689  0.54684131  1
  Nb  Nb0  1  0.00000000  0.00000000  0.00000000  1
  Nb  Nb1  1  0.50000000  0.50000000  0.50000000  1
  Nb  Nb2  1  0.43045672  0.43045672  0.17169423  1
  Nb  Nb3  1  0.56954328  0.56954328  0.82830577  1
  Nb  Nb4  1  0.19357972  0.19357972  0.69577879  1
  Nb  Nb5  1  0.80642028  0.80642028  0.30422121  1
  Nb  Nb6  1  0.21197651  0.21197651  0.19780748  1
  Nb  Nb7  1  0.78802349  0.78802349  0.80219252  1
  Nb  Nb8  1  0.33359030  0.33359030  0.97084025  1
  Nb  Nb9  1  0.66640970  0.66640970  0.02915975  1
  Nb  Nb10  1  0.00046936  0.00046936  0.33475402  1
  Nb  Nb11  1  0.99953064  0.99953064  0.66524598  1
  As  As0  1  0.17310670  0.17310670  0.89219725  1
  As  As1  1  0.82689330  0.82689330  0.10780275  1
  As  As2  1  0.37186800  0.37186800  0.39868647  1
  As  As3  1  0.62813200  0.62813200  0.60131353  1
  As  As4  1  0.37172539  0.37172539  0.66992693  1
  As  As5  1  0.62827461  0.62827461  0.33007307  1
  As  As6  1  0.06379384  0.06379384  0.15036582  1
  As  As7  1  0.93620616  0.93620616  0.84963418  1
loop_
_geom_bond_atom_site_label_1
_geom_bond_atom_site_label_2
_geom_bond_distance
_geom_bond_site_symmetry_2
As0 Nb7 2.622524 1_545
As0 Nb7 2.622524 1_455
As0 Nb9 2.644686 1_456
As0 Nb9 2.644686 1_546
As0 Nb3 2.714036 1_455
As0 Nb3 2.714036 1_545
As0 Nb0 2.737363 1_556
As0 Nb4 2.765281 1_555
As0 Nb8 2.981795 1_555
As1 Nb6 2.622524 1_565
As1 Nb6 2.622524 1_655
As1 Nb8 2.644686 1_654
As1 Nb8 2.644686 1_564
As1 Nb2 2.714036 1_655
As1 Nb2 2.714036 1_565
As1 Nb0 2.737363 1_665
As1 Nb5 2.765281 1_555
As1 Nb9 2.981795 1_555
As2 Nb5 2.602825 1_455
As2 Nb5 2.602826 1_545
As2 Nb10 2.661761 1_655
As2 Nb10 2.661762 1_565
As2 Zr1 2.738425 1_455
As2 Zr1 2.738425 1_545
As2 Nb1 2.745314 1_555
As2 Zr0 2.931802 1_555
As2 Nb2 3.163210 1_555
As3 Nb4 2.602825 1_655
As3 Nb4 2.602826 1_565
As3 Nb11 2.661761 1_455
As3 Nb11 2.661762 1_545
As3 Zr0 2.738425 1_655
As3 Zr0 2.738425 1_565
As3 Nb1 2.745314 1_555
As3 Zr1 2.931802 1_555
As3 Nb3 3.163210 1_555
As4 Nb11 2.656059 1_545
As4 Nb11 2.656060 1_455
As4 Nb4 2.689875 1_555
As4 Nb7 2.693551 1_455
As4 Nb7 2.693551 1_545
As4 Nb1 2.733792 1_555
As4 Zr1 2.749363 1_455
As4 Zr1 2.749364 1_545
As5 Nb10 2.656059 1_565
As5 Nb10 2.656060 1_655
As5 Nb5 2.689875 1_555
As5 Nb6 2.693551 1_655
As5 Nb6 2.693551 1_565
As5 Nb1 2.733792 1_555
As5 Zr0 2.749363 1_655
As5 Zr0 2.749364 1_565
As6 Nb6 2.555764 1_555
As6 Nb10 2.587142 1_555
As6 Nb0 2.598069 1_555
As6 Nb2 2.690231 1_455
As6 Nb2 2.690232 1_545
As6 Nb9 2.713895 1_545
As6 Nb9 2.713896 1_455
As7 Nb7 2.555764 1_555
As7 Nb11 2.587142 1_555
As7 Nb0 2.598069 1_666
As7 Nb3 2.690231 1_655
As7 Nb3 2.690232 1_565
As7 Nb8 2.713895 1_565
As7 Nb8 2.713896 1_655
