# generated using pymatgen
data_Ag2Te5Au2Se3
_symmetry_space_group_name_H-M   'P 1'
_cell_length_a   4.52874041
_cell_length_b   8.75273358
_cell_length_c   9.87140038
_cell_angle_alpha   56.86265383
_cell_angle_beta   90.54243514
_cell_angle_gamma   89.72335748
_symmetry_Int_Tables_number   1
_chemical_formula_structural   Ag2Te5Au2Se3
_chemical_formula_sum   'Ag2 Te5 Au2 Se3'
_cell_volume   327.61440944
_cell_formula_units_Z   1
loop_
 _symmetry_equiv_pos_site_id
 _symmetry_equiv_pos_as_xyz
  1  'x, y, z'
loop_
 _atom_site_type_symbol
 _atom_site_label
 _atom_site_symmetry_multiplicity
 _atom_site_fract_x
 _atom_site_fract_y
 _atom_site_fract_z
 _atom_site_occupancy
  Ag  Ag0  1  0.47598258  0.50321515  0.25168538  1
  Ag  Ag1  1  0.50381381  0.49217104  0.74793672  1
  Te  Te0  1  0.96708269  0.69840659  0.79413144  1
  Te  Te1  1  0.03611498  0.71206319  0.29855245  1
  Te  Te2  1  0.05217821  0.29537181  0.19765100  1
  Te  Te3  1  0.61248195  0.80958648  0.95680652  1
  Te  Te4  1  0.63068807  0.19651160  0.54615301  1
  Au  Au0  1  0.01891816  0.99803480  0.49751626  1
  Au  Au1  1  0.00459327  0.00991233  0.99873330  1
  Se  Se0  1  0.37631339  0.80100089  0.45832855  1
  Se  Se1  1  0.37564026  0.19657761  0.04139366  1
  Se  Se2  1  0.94619264  0.28714652  0.71111170  1
loop_
_geom_bond_atom_site_label_1
_geom_bond_atom_site_label_2
_geom_bond_distance
_geom_bond_site_symmetry_2
Ag0 Te4 2.749339 1_555
Ag0 Te3 2.749960 1_554
Ag0 Te2 2.890141 1_555
Ag0 Te1 2.903573 1_555
Ag0 Te1 3.307201 1_655
Ag0 Te2 3.382981 1_655
Ag1 Se1 2.697167 1_556
Ag1 Se0 2.705201 1_555
Ag1 Se2 2.838735 1_555
Ag1 Te0 2.964208 1_555
Ag1 Te0 3.202087 1_455
Ag1 Se2 3.235628 1_455
Te0 Te3 2.801210 1_555
Au0 Se0 2.541224 1_555
Au0 Te0 2.670177 1_455
Au0 Te2 2.673523 1_565
Au0 Te4 2.690358 1_465
Au0 Te4 3.443475 1_565
Au1 Se1 2.536877 1_556
Au1 Se2 2.542954 1_455
Au1 Te1 2.670027 1_546
Au1 Te3 2.684885 1_445
Au1 Te3 3.404835 1_545
Se0 Te1 2.602911 1_555
Se1 Te2 2.600316 1_555
Se2 Te4 2.588767 1_555
