# generated using pymatgen
data_Sc2NiPRh5
_symmetry_space_group_name_H-M   'P 1'
_cell_length_a   5.79288536
_cell_length_b   5.71237890
_cell_length_c   5.71237740
_cell_angle_alpha   60.93462038
_cell_angle_beta   59.53268956
_cell_angle_gamma   59.53268312
_symmetry_Int_Tables_number   1
_chemical_formula_structural   Sc2NiPRh5
_chemical_formula_sum   'Sc2 Ni1 P1 Rh5'
_cell_volume   133.60994303
_cell_formula_units_Z   1
loop_
 _symmetry_equiv_pos_site_id
 _symmetry_equiv_pos_as_xyz
  1  'x, y, z'
loop_
 _atom_site_type_symbol
 _atom_site_label
 _atom_site_symmetry_multiplicity
 _atom_site_fract_x
 _atom_site_fract_y
 _atom_site_fract_z
 _atom_site_occupancy
  Sc  Sc0  1  0.25197533  0.24802467  0.24802467  1
  Sc  Sc1  1  0.75197533  0.74802467  0.74802467  1
  Ni  Ni0  1  0.72432803  0.27567297  0.27567297  1
  P  P0  1  0.98496666  0.01503334  0.01503334  1
  Rh  Rh0  1  0.27187860  0.72812240  0.26120941  1
  Rh  Rh1  1  0.73878959  0.72812040  0.26121141  1
  Rh  Rh2  1  0.27187860  0.26120941  0.72812240  1
  Rh  Rh3  1  0.73878959  0.26121141  0.72812040  1
  Rh  Rh4  1  0.26542028  0.73458072  0.73458072  1
loop_
_geom_bond_atom_site_label_1
_geom_bond_atom_site_label_2
_geom_bond_distance
_geom_bond_site_symmetry_2
Ni0 P0 2.075484 1_555
Ni0 Rh3 2.588213 1_555
Ni0 Rh1 2.588214 1_555
Ni0 Rh2 2.588225 1_555
Ni0 Rh0 2.588225 1_555
Ni0 Sc0 2.904792 1_655
Ni0 Sc1 2.904798 1_554
Ni0 Sc1 2.904798 1_545
Ni0 Sc0 2.904804 1_555
P0 Rh0 2.189643 1_645
P0 Rh2 2.189644 1_654
P0 Rh3 2.189652 1_554
P0 Rh1 2.189652 1_545
P0 Rh4 2.233256 1_644
Rh0 Sc1 2.840844 1_554
Rh0 Sc0 2.840850 1_555
Rh0 Sc0 2.878086 1_565
Rh0 Sc1 2.878091 1_455
Rh1 Sc0 2.840844 1_655
Rh1 Sc1 2.840850 1_554
Rh1 Sc1 2.878085 1_555
Rh1 Sc0 2.878091 1_565
Rh2 Sc1 2.840844 1_545
Rh2 Sc0 2.840850 1_555
Rh2 Sc0 2.878085 1_556
Rh2 Sc1 2.878091 1_455
Rh3 Sc0 2.840844 1_655
Rh3 Sc1 2.840851 1_545
Rh3 Sc1 2.878086 1_555
Rh3 Sc0 2.878091 1_556
Rh4 Sc1 2.898415 1_555
Rh4 Sc0 2.898420 1_556
Rh4 Sc0 2.898420 1_565
Rh4 Sc1 2.898426 1_455
