# generated using pymatgen
data_Y10Ga4IrRu5
_symmetry_space_group_name_H-M   'P 1'
_cell_length_a   8.30268938
_cell_length_b   8.32200587
_cell_length_c   8.32200593
_cell_angle_alpha   109.44506352
_cell_angle_beta   109.76911964
_cell_angle_gamma   109.29417845
_symmetry_Int_Tables_number   1
_chemical_formula_structural   Y10Ga4IrRu5
_chemical_formula_sum   'Y10 Ga4 Ir1 Ru5'
_cell_volume   442.11829251
_cell_formula_units_Z   1
loop_
 _symmetry_equiv_pos_site_id
 _symmetry_equiv_pos_as_xyz
  1  'x, y, z'
loop_
 _atom_site_type_symbol
 _atom_site_label
 _atom_site_symmetry_multiplicity
 _atom_site_fract_x
 _atom_site_fract_y
 _atom_site_fract_z
 _atom_site_occupancy
  Y  Y0  1  0.25000000  0.68313466  0.43313466  1
  Y  Y1  1  0.75000000  0.81703556  0.06703556  1
  Y  Y2  1  0.43569874  0.25135869  0.68173775  1
  Y  Y3  1  0.68066501  0.43156266  0.24854594  1
  Y  Y4  1  0.06430126  0.74604001  0.81565996  1
  Y  Y5  1  0.81933499  0.06788093  0.75089764  1
  Y  Y6  1  0.21621581  0.21861102  0.21894846  1
  Y  Y7  1  0.50016010  0.99952903  0.28357257  1
  Y  Y8  1  0.28378419  0.50273365  0.00239521  1
  Y  Y9  1  0.99983990  0.28341147  0.49936793  1
  Ga  Ga0  1  0.58509561  0.58577583  0.58511177  1
  Ga  Ga1  1  0.49946385  0.99733791  0.91268757  1
  Ga  Ga2  1  0.91490439  0.50001616  0.00068022  1
  Ga  Ga3  1  0.00053615  0.91322472  0.49787406  1
  Ir  Ir0  1  0.25000000  0.12406842  0.87406842  1
  Ru  Ru0  1  0.75000000  0.37766996  0.62766996  1
  Ru  Ru1  1  0.86957315  0.24981761  0.12036528  1
  Ru  Ru2  1  0.12283621  0.87331811  0.24951768  1
  Ru  Ru3  1  0.63042585  0.75079213  0.38024346  1
  Ru  Ru4  1  0.37716379  0.62668047  0.75048190  1
loop_
_geom_bond_atom_site_label_1
_geom_bond_atom_site_label_2
_geom_bond_distance
_geom_bond_site_symmetry_2
Ga0 Ru3 2.566245 1_555
Ga0 Ru0 2.578112 1_555
Ga0 Ru4 2.583391 1_555
Ga0 Y6 3.050454 1_555
Ga0 Y0 3.128620 1_555
Ga0 Y2 3.132712 1_555
Ga0 Y3 3.147184 1_555
Ga0 Y4 3.303884 1_655
Ga0 Y1 3.326905 1_556
Ga0 Y5 3.335520 1_565
Ga1 Ru1 2.562685 1_566
Ga1 Ru4 2.568792 1_555
Ga1 Ir0 2.593156 1_565
Ga1 Y7 3.078519 1_556
Ga1 Y1 3.125163 1_556
Ga1 Y3 3.157826 1_566
Ga1 Y4 3.160445 1_555
Ga1 Y0 3.306895 1_555
Ga1 Y5 3.335498 1_565
Ga1 Y2 3.346565 1_565
Ga2 Ru1 2.566239 1_555
Ga2 Ru0 2.578112 1_554
Ga2 Ru2 2.583392 1_655
Ga2 Y8 3.050452 1_655
Ga2 Y0 3.128620 1_655
Ga2 Y4 3.132717 1_654
Ga2 Y5 3.147184 1_554
Ga2 Y2 3.303886 1_554
Ga2 Y1 3.326905 1_555
Ga2 Y3 3.335520 1_555
Ga3 Ru3 2.562691 1_455
Ga3 Ru2 2.568785 1_555
Ga3 Ir0 2.593156 1_565
Ga3 Y9 3.078505 1_465
Ga3 Y1 3.125160 1_455
Ga3 Y5 3.157823 1_465
Ga3 Y2 3.160444 1_565
Ga3 Y0 3.306901 1_555
Ga3 Y3 3.335504 1_455
Ga3 Y4 3.346565 1_555
Ir0 Y4 2.789267 1_545
Ir0 Y2 2.789274 1_555
Ir0 Y6 2.849929 1_556
Ir0 Y8 2.849937 1_556
Ir0 Y3 3.186132 1_556
Ir0 Y5 3.186132 1_455
Ru0 Y2 2.722794 1_555
Ru0 Y4 2.722799 1_655
Ru0 Y7 2.841498 1_545
Ru0 Y9 2.841506 1_555
Ru0 Y3 3.220426 1_555
Ru0 Y5 3.220426 1_555
Ru1 Y3 2.740577 1_555
Ru1 Y5 2.745141 1_554
Ru1 Y6 2.839422 1_655
Ru1 Y9 2.846315 1_555
Ru1 Y0 3.227616 1_655
Ru1 Y1 3.229398 1_545
Ru2 Y1 2.737924 1_455
Ru2 Y0 2.752782 1_555
Ru2 Y7 2.832792 1_555
Ru2 Y6 2.840928 1_565
Ru2 Y4 3.212608 1_554
Ru2 Y2 3.213696 1_565
Ru3 Y5 2.740581 1_565
Ru3 Y3 2.745145 1_555
Ru3 Y8 2.839414 1_555
Ru3 Y7 2.846313 1_555
Ru3 Y0 3.227612 1_555
Ru3 Y1 3.229395 1_555
Ru4 Y1 2.737923 1_556
Ru4 Y0 2.752787 1_555
Ru4 Y9 2.832792 1_455
Ru4 Y8 2.840920 1_556
Ru4 Y2 3.212599 1_555
Ru4 Y4 3.213705 1_555
