# generated using pymatgen
data_Na16MnSiAs8
_symmetry_space_group_name_H-M   'P 1'
_cell_length_a   9.64045880
_cell_length_b   9.64045812
_cell_length_c   9.64045823
_cell_angle_alpha   59.99999626
_cell_angle_beta   59.99999861
_cell_angle_gamma   59.99999480
_symmetry_Int_Tables_number   1
_chemical_formula_structural   Na16MnSiAs8
_chemical_formula_sum   'Na16 Mn1 Si1 As8'
_cell_volume   633.54580672
_cell_formula_units_Z   1
loop_
 _symmetry_equiv_pos_site_id
 _symmetry_equiv_pos_as_xyz
  1  'x, y, z'
loop_
 _atom_site_type_symbol
 _atom_site_label
 _atom_site_symmetry_multiplicity
 _atom_site_fract_x
 _atom_site_fract_y
 _atom_site_fract_z
 _atom_site_occupancy
  Na  Na0  1  0.62539300  0.62539300  0.12382200  1
  Na  Na1  1  0.62539300  0.12382200  0.62539300  1
  Na  Na2  1  0.12382200  0.62539300  0.62539300  1
  Na  Na3  1  0.62539300  0.62539300  0.62539300  1
  Na  Na4  1  0.03028879  0.46971121  0.46971121  1
  Na  Na5  1  0.77407902  0.22592098  0.22592098  1
  Na  Na6  1  0.46971121  0.03028879  0.46971121  1
  Na  Na7  1  0.46971121  0.46971121  0.03028879  1
  Na  Na8  1  0.03028879  0.03028879  0.46971121  1
  Na  Na9  1  0.03028879  0.46971121  0.03028879  1
  Na  Na10  1  0.46971121  0.03028879  0.03028879  1
  Na  Na11  1  0.77407902  0.22592098  0.77407902  1
  Na  Na12  1  0.22592098  0.77407902  0.22592098  1
  Na  Na13  1  0.22592098  0.22592098  0.77407902  1
  Na  Na14  1  0.77407902  0.77407902  0.22592098  1
  Na  Na15  1  0.22592098  0.77407902  0.77407902  1
  Mn  Mn0  1  0.50000000  0.50000000  0.50000000  1
  Si  Si0  1  0.75000000  0.75000000  0.75000000  1
  As  As0  1  0.85296502  0.85296502  0.44110595  1
  As  As1  1  0.85296502  0.44110595  0.85296502  1
  As  As2  1  0.39540650  0.39540650  0.81377950  1
  As  As3  1  0.39540650  0.81377950  0.39540650  1
  As  As4  1  0.81377950  0.39540650  0.39540650  1
  As  As5  1  0.85296502  0.85296502  0.85296502  1
  As  As6  1  0.44110595  0.85296502  0.85296502  1
  As  As7  1  0.39540650  0.39540650  0.39540650  1
loop_
_geom_bond_atom_site_label_1
_geom_bond_atom_site_label_2
_geom_bond_distance
_geom_bond_site_symmetry_2
Na0 Si0 2.942503 1_554
Na1 Si0 2.942503 1_545
Na2 Si0 2.942503 1_455
Na3 Si0 2.942495 1_555
Mn0 Na1 2.961048 1_555
Mn0 Na0 2.961048 1_555
Mn0 Na2 2.961048 1_555
Mn0 Na3 2.961056 1_555
As0 Si0 2.431429 1_555
As0 Na5 3.032124 1_565
As0 Na12 3.032124 1_655
As0 Na14 3.032131 1_555
As0 Na8 3.128239 1_665
As0 Na4 3.128247 1_655
As0 Na6 3.128247 1_565
As0 Na1 3.130576 1_565
As0 Na2 3.130577 1_655
As0 Na3 3.130577 1_555
As1 Si0 2.431429 1_555
As1 Na5 3.032124 1_556
As1 Na13 3.032124 1_655
As1 Na11 3.032131 1_555
As1 Na9 3.128239 1_656
As1 Na4 3.128247 1_655
As1 Na7 3.128247 1_556
As1 Na0 3.130577 1_556
As1 Na3 3.130577 1_555
As1 Na2 3.130577 1_655
As2 Mn0 2.469884 1_555
As2 Na10 2.980987 1_556
As2 Na9 2.980987 1_556
As2 Na7 2.980994 1_556
As2 Na13 3.066961 1_555
As2 Na15 3.066969 1_555
As2 Na11 3.066969 1_555
As2 Na1 3.161087 1_555
As2 Na2 3.161087 1_555
As2 Na3 3.161102 1_555
As3 Mn0 2.469884 1_555
As3 Na10 2.980987 1_565
As3 Na8 2.980987 1_565
As3 Na6 2.980994 1_565
As3 Na12 3.066961 1_555
As3 Na15 3.066969 1_555
As3 Na14 3.066969 1_555
As3 Na0 3.161087 1_555
As3 Na2 3.161088 1_555
As3 Na3 3.161102 1_555
As4 Mn0 2.469884 1_555
As4 Na8 2.980987 1_655
As4 Na9 2.980987 1_655
As4 Na4 2.980994 1_655
As4 Na5 3.066961 1_555
As4 Na14 3.066969 1_555
As4 Na11 3.066969 1_555
As4 Na0 3.161087 1_555
As4 Na1 3.161088 1_555
As4 Na3 3.161102 1_555
As5 Si0 2.431437 1_555
As5 Na11 3.032122 1_565
As5 Na14 3.032122 1_556
As5 Na15 3.032122 1_655
As5 Na9 3.128245 1_656
As5 Na8 3.128245 1_665
As5 Na10 3.128245 1_566
As5 Na1 3.130576 1_565
As5 Na2 3.130577 1_655
As5 Na0 3.130577 1_556
As6 Si0 2.431429 1_555
As6 Na13 3.032124 1_565
As6 Na12 3.032124 1_556
As6 Na15 3.032131 1_555
As6 Na10 3.128239 1_566
As6 Na7 3.128247 1_556
As6 Na6 3.128247 1_565
As6 Na0 3.130577 1_556
As6 Na3 3.130577 1_555
As6 Na1 3.130577 1_565
As7 Mn0 2.469892 1_555
As7 Na6 2.980984 1_555
As7 Na7 2.980985 1_555
As7 Na4 2.980985 1_555
As7 Na12 3.066967 1_555
As7 Na13 3.066967 1_555
As7 Na5 3.066967 1_555
As7 Na1 3.161100 1_555
As7 Na2 3.161100 1_555
As7 Na0 3.161100 1_555
