# generated using pymatgen
data_CuOsF6
_symmetry_space_group_name_H-M   'P 1'
_cell_length_a   5.45180040
_cell_length_b   5.45180098
_cell_length_c   5.45180076
_cell_angle_alpha   55.04671197
_cell_angle_beta   55.04670707
_cell_angle_gamma   55.04671132
_symmetry_Int_Tables_number   1
_chemical_formula_structural   CuOsF6
_chemical_formula_sum   'Cu1 Os1 F6'
_cell_volume   101.37648705
_cell_formula_units_Z   1
loop_
 _symmetry_equiv_pos_site_id
 _symmetry_equiv_pos_as_xyz
  1  'x, y, z'
loop_
 _atom_site_type_symbol
 _atom_site_label
 _atom_site_symmetry_multiplicity
 _atom_site_fract_x
 _atom_site_fract_y
 _atom_site_fract_z
 _atom_site_occupancy
  Cu  Cu0  1  0.50000000  0.50000000  0.50000000  1
  Os  Os0  1  0.00000000  0.00000000  0.00000000  1
  F  F0  1  0.38553897  0.09706399  0.76188631  1
  F  F1  1  0.76188631  0.38553897  0.09706399  1
  F  F2  1  0.09706399  0.76188631  0.38553897  1
  F  F3  1  0.61446103  0.90293601  0.23811369  1
  F  F4  1  0.23811369  0.61446103  0.90293601  1
  F  F5  1  0.90293601  0.23811369  0.61446103  1
loop_
_geom_bond_atom_site_label_1
_geom_bond_atom_site_label_2
_geom_bond_distance
_geom_bond_site_symmetry_2
Cu0 F5 2.051729 1_555
Cu0 F2 2.051729 1_555
Cu0 F4 2.051729 1_555
Cu0 F1 2.051729 1_555
Cu0 F3 2.051729 1_555
Cu0 F0 2.051729 1_555
F0 Os0 1.934949 1_556
F1 Os0 1.934949 1_655
F2 Os0 1.934949 1_565
F3 Os0 1.934949 1_665
F4 Os0 1.934949 1_566
F5 Os0 1.934949 1_656
