# generated using pymatgen
data_Ti9Nb8VC15
_symmetry_space_group_name_H-M   'P 1'
_cell_length_a   5.40365505
_cell_length_b   5.40229495
_cell_length_c   15.21080774
_cell_angle_alpha   90.12276454
_cell_angle_beta   90.09792643
_cell_angle_gamma   119.86789680
_symmetry_Int_Tables_number   1
_chemical_formula_structural   Ti9Nb8VC15
_chemical_formula_sum   'Ti9 Nb8 V1 C15'
_cell_volume   385.05447333
_cell_formula_units_Z   1
loop_
 _symmetry_equiv_pos_site_id
 _symmetry_equiv_pos_as_xyz
  1  'x, y, z'
loop_
 _atom_site_type_symbol
 _atom_site_label
 _atom_site_symmetry_multiplicity
 _atom_site_fract_x
 _atom_site_fract_y
 _atom_site_fract_z
 _atom_site_occupancy
  Ti  Ti0  1  0.77858496  0.53132114  0.41634485  1
  Ti  Ti1  1  0.75536701  0.22409669  0.08330591  1
  Ti  Ti2  1  0.46665955  0.24346576  0.74770945  1
  Ti  Ti3  1  0.75500329  0.53369408  0.91803675  1
  Ti  Ti4  1  0.77507792  0.23987158  0.58243301  1
  Ti  Ti5  1  0.46991826  0.22401228  0.25345894  1
  Ti  Ti6  1  0.10824967  0.53108485  0.74783912  1
  Ti  Ti7  1  0.46711973  0.57831920  0.08338234  1
  Ti  Ti8  1  0.42303170  0.89079504  0.41644825  1
  Nb  Nb0  1  0.46320976  0.88860243  0.91696740  1
  Nb  Nb1  1  0.42070444  0.53125391  0.58126478  1
  Nb  Nb2  1  0.11370566  0.57930380  0.25262095  1
  Nb  Nb3  1  0.12598435  0.88536263  0.58592626  1
  Nb  Nb4  1  0.11028531  0.24068207  0.92146839  1
  Nb  Nb5  1  0.76131269  0.87252286  0.25781278  1
  Nb  Nb6  1  0.11004681  0.87153339  0.07931591  1
  Nb  Nb7  1  0.75810692  0.88769705  0.74377003  1
  V  V0  1  0.14560665  0.25463124  0.40807440  1
  C  C0  1  0.45146802  0.23097484  0.00165065  1
  C  C1  1  0.77632685  0.54518737  0.66613828  1
  C  C2  1  0.78118591  0.22335841  0.33730556  1
  C  C3  1  0.10648877  0.55223910  0.00166150  1
  C  C4  1  0.44173671  0.89040049  0.66623415  1
  C  C5  1  0.44572428  0.55217859  0.33702715  1
  C  C6  1  0.77102380  0.88535670  0.00131507  1
  C  C7  1  0.11001135  0.22471043  0.66553274  1
  C  C8  1  0.11790764  0.89758129  0.33704906  1
  C  C9  1  0.44326620  0.21928000  0.49607536  1
  C  C10  1  0.76945299  0.54910078  0.16730248  1
  C  C11  1  0.77800619  0.23098682  0.83178940  1
  C  C12  1  0.10385180  0.54336110  0.49588981  1
  C  C13  1  0.45095332  0.89760559  0.16723102  1
  C  C14  1  0.44462452  0.54942849  0.83161930  1
loop_
_geom_bond_atom_site_label_1
_geom_bond_atom_site_label_2
_geom_bond_distance
_geom_bond_site_symmetry_2
C0 Ti1 2.072380 1_555
C0 Ti3 2.080072 1_554
C0 Ti7 2.214808 1_555
C0 Nb4 2.231173 1_554
C0 Nb6 2.240326 1_545
C0 Nb0 2.278419 1_544
C1 Ti2 2.072572 1_555
C1 Ti4 2.078839 1_555
C1 Ti6 2.212707 1_655
C1 Nb3 2.234929 1_655
C1 Nb7 2.236138 1_555
C1 Nb1 2.283013 1_555
C2 Ti0 2.056282 1_555
C2 Ti5 2.110513 1_555
C2 V0 2.173861 1_655
C2 Nb5 2.202911 1_545
C2 Ti8 2.230832 1_545
C2 Nb2 2.272144 1_655
C3 Nb6 2.080646 1_555
C3 Nb4 2.084927 1_554
C3 Ti1 2.225349 1_455
C3 Ti3 2.244339 1_454
C3 Ti7 2.253893 1_555
C3 Nb0 2.281896 1_554
C4 Nb7 2.081295 1_555
C4 Nb3 2.085804 1_555
C4 Ti2 2.219347 1_565
C4 Ti4 2.250503 1_565
C4 Ti6 2.256119 1_555
C4 Nb1 2.284056 1_555
C5 V0 1.949044 1_555
C5 Nb5 2.105100 1_555
C5 Ti0 2.213261 1_555
C5 Ti5 2.235542 1_555
C5 Ti8 2.243938 1_555
C5 Nb2 2.267922 1_555
C6 Ti7 2.075869 1_555
C6 Nb0 2.105914 1_554
C6 Nb6 2.213268 1_655
C6 Nb4 2.243494 1_664
C6 Ti3 2.246506 1_554
C6 Ti1 2.248582 1_565
C7 Ti6 2.076958 1_555
C7 Nb1 2.109820 1_555
C7 Nb7 2.217141 1_445
C7 Nb3 2.232253 1_545
C7 Ti4 2.240607 1_455
C7 Ti2 2.254673 1_555
C8 Ti8 2.057189 1_555
C8 Nb2 2.134883 1_555
C8 V0 2.147822 1_565
C8 Nb5 2.217094 1_455
C8 Ti5 2.240879 1_565
C8 Ti0 2.266306 1_455
C9 Ti8 2.103600 1_545
C9 Ti0 2.137680 1_555
C9 V0 2.171411 1_555
C9 Nb1 2.174922 1_555
C9 Ti4 2.178380 1_555
C9 Nb3 2.235979 1_545
C10 Ti7 2.138673 1_555
C10 Ti1 2.139595 1_555
C10 Ti5 2.146496 1_555
C10 Nb2 2.204488 1_655
C10 Nb5 2.239769 1_555
C10 Nb6 2.244537 1_655
C11 Ti2 2.139316 1_555
C11 Ti6 2.139765 1_655
C11 Ti3 2.145829 1_555
C11 Nb0 2.208501 1_545
C11 Nb4 2.232720 1_655
C11 Nb7 2.243587 1_545
C12 Ti0 2.106177 1_455
C12 V0 2.147263 1_555
C12 Ti4 2.166408 1_455
C12 Nb1 2.174052 1_555
C12 Ti8 2.179526 1_555
C12 Nb3 2.252115 1_555
C13 Ti1 2.138582 1_565
C13 Ti5 2.156344 1_565
C13 Ti7 2.179572 1_555
C13 Nb2 2.204867 1_555
C13 Nb6 2.221245 1_555
C13 Nb5 2.224540 1_555
C14 Ti2 2.136070 1_555
C14 Ti3 2.164012 1_555
C14 Ti6 2.179409 1_555
C14 Nb0 2.204294 1_555
C14 Nb7 2.220258 1_555
C14 Nb4 2.220515 1_555
