# generated using pymatgen
data_Li12Ca6Cd4N
_symmetry_space_group_name_H-M   'P 1'
_cell_length_a   8.81345836
_cell_length_b   8.81345957
_cell_length_c   8.81345836
_cell_angle_alpha   109.47121785
_cell_angle_beta   109.47122064
_cell_angle_gamma   109.47122432
_symmetry_Int_Tables_number   1
_chemical_formula_structural   Li12Ca6Cd4N
_chemical_formula_sum   'Li12 Ca6 Cd4 N1'
_cell_volume   527.00803313
_cell_formula_units_Z   1
loop_
 _symmetry_equiv_pos_site_id
 _symmetry_equiv_pos_as_xyz
  1  'x, y, z'
loop_
 _atom_site_type_symbol
 _atom_site_label
 _atom_site_symmetry_multiplicity
 _atom_site_fract_x
 _atom_site_fract_y
 _atom_site_fract_z
 _atom_site_occupancy
  Li  Li0  1  0.68014961  0.34007580  0.34007580  1
  Li  Li1  1  0.34007580  0.00000000  0.65992420  1
  Li  Li2  1  0.34007580  0.68014961  0.34007580  1
  Li  Li3  1  0.34007580  0.34007580  0.68014961  1
  Li  Li4  1  0.34007580  0.65992420  0.00000000  1
  Li  Li5  1  0.00000000  0.34007580  0.65992420  1
  Li  Li6  1  0.00000000  0.65992420  0.34007580  1
  Li  Li7  1  0.65992420  0.65992420  0.31985039  1
  Li  Li8  1  0.65992420  1.00000000  0.34007580  1
  Li  Li9  1  0.65992420  0.34007580  0.00000000  1
  Li  Li10  1  0.65992420  0.31985039  0.65992420  1
  Li  Li11  1  0.31985039  0.65992420  0.65992420  1
  Ca  Ca0  1  1.00000000  0.24044485  0.24044485  1
  Ca  Ca1  1  0.24044485  0.00000000  0.24044485  1
  Ca  Ca2  1  0.75955515  1.00000000  0.75955515  1
  Ca  Ca3  1  0.75955515  0.75955515  0.00000000  1
  Ca  Ca4  1  0.24044485  0.24044485  1.00000000  1
  Ca  Ca5  1  0.00000000  0.75955515  0.75955515  1
  Cd  Cd0  1  0.50000000  0.50000000  0.50000000  1
  Cd  Cd1  1  0.50000000  0.00000000  0.00000000  1
  Cd  Cd2  1  0.00000000  0.50000000  0.00000000  1
  Cd  Cd3  1  0.00000000  0.00000000  0.50000000  1
  N  N0  1  0.00000000  0.00000000  0.00000000  1
loop_
_geom_bond_atom_site_label_1
_geom_bond_atom_site_label_2
_geom_bond_distance
_geom_bond_site_symmetry_2
Ca0 N0 2.446985 1_655
Ca1 N0 2.446984 1_555
Ca2 N0 2.446984 1_666
Ca3 N0 2.446984 1_665
Ca4 N0 2.446984 1_556
Ca5 N0 2.446985 1_566
Cd0 Li7 2.855460 1_555
Cd0 Li3 2.855460 1_555
Cd0 Li11 2.855460 1_555
Cd0 Li0 2.855460 1_555
Cd0 Li10 2.855460 1_555
Cd0 Li2 2.855460 1_555
Cd1 Li8 2.855475 1_545
Cd1 Li1 2.855475 1_554
Cd1 Li9 2.855476 1_555
Cd1 Li4 2.855476 1_545
Cd1 Li0 2.855478 1_555
Cd1 Li11 2.855478 1_544
Cd2 Li4 2.855475 1_555
Cd2 Li9 2.855475 1_455
Cd2 Li6 2.855475 1_555
Cd2 Li5 2.855475 1_554
Cd2 Li2 2.855478 1_555
Cd2 Li10 2.855478 1_454
Cd3 Li1 2.855475 1_555
Cd3 Li8 2.855475 1_445
Cd3 Li5 2.855476 1_555
Cd3 Li6 2.855476 1_545
Cd3 Li3 2.855478 1_555
Cd3 Li7 2.855478 1_445
