# generated using pymatgen
data_LiMoO2
_symmetry_space_group_name_H-M   'P 1'
_cell_length_a   3.18054000
_cell_length_b   5.08430600
_cell_length_c   5.26442500
_cell_angle_alpha   90.00000000
_cell_angle_beta   90.00000000
_cell_angle_gamma   90.00000000
_symmetry_Int_Tables_number   1
_chemical_formula_structural   LiMoO2
_chemical_formula_sum   'Li2 Mo2 O4'
_cell_volume   85.13016702
_cell_formula_units_Z   2
loop_
 _symmetry_equiv_pos_site_id
 _symmetry_equiv_pos_as_xyz
  1  'x, y, z'
loop_
 _atom_site_type_symbol
 _atom_site_label
 _atom_site_symmetry_multiplicity
 _atom_site_fract_x
 _atom_site_fract_y
 _atom_site_fract_z
 _atom_site_occupancy
  Li  Li0  1  0.00000000  0.50000000  0.00000000  1
  Li  Li1  1  0.50000000  0.00000000  0.50000000  1
  Mo  Mo0  1  0.00000000  0.50000000  0.50000000  1
  Mo  Mo1  1  0.50000000  0.00000000  0.00000000  1
  O  O0  1  0.00000000  0.82866900  0.23059200  1
  O  O1  1  0.50000000  0.67133100  0.73059200  1
  O  O2  1  0.00000000  0.17133100  0.76940800  1
  O  O3  1  0.50000000  0.32866900  0.26940800  1
loop_
_geom_bond_atom_site_label_1
_geom_bond_atom_site_label_2
_geom_bond_distance
_geom_bond_site_symmetry_2
Li0 O0 2.065444 1_555
Li0 O2 2.065444 1_554
Li0 O1 2.302018 1_454
Li0 O3 2.302018 1_555
Li0 O3 2.302018 1_455
Li0 O1 2.302018 1_554
Li1 O1 2.065444 1_545
Li1 O3 2.065444 1_555
Li1 O2 2.302018 1_655
Li1 O2 2.302018 1_555
Li1 O0 2.302018 1_645
Li1 O0 2.302018 1_545
Mo0 O3 2.182065 1_555
Mo0 O1 2.182065 1_455
Mo0 O1 2.182065 1_555
Mo0 O3 2.182065 1_455
Mo0 O0 2.191788 1_555
Mo0 O2 2.191788 1_555
Mo1 O2 2.182065 1_654
Mo1 O2 2.182065 1_554
Mo1 O0 2.182065 1_545
Mo1 O0 2.182065 1_645
Mo1 O1 2.191788 1_544
Mo1 O3 2.191788 1_555
