# generated using pymatgen
data_LuHf8ZrSn6
_symmetry_space_group_name_H-M   'P 1'
_cell_length_a   8.48428951
_cell_length_b   8.48429059
_cell_length_c   5.75274925
_cell_angle_alpha   90.00000000
_cell_angle_beta   90.00000000
_cell_angle_gamma   120.97104978
_symmetry_Int_Tables_number   1
_chemical_formula_structural   LuHf8ZrSn6
_chemical_formula_sum   'Lu1 Hf8 Zr1 Sn6'
_cell_volume   355.06170220
_cell_formula_units_Z   1
loop_
 _symmetry_equiv_pos_site_id
 _symmetry_equiv_pos_as_xyz
  1  'x, y, z'
loop_
 _atom_site_type_symbol
 _atom_site_label
 _atom_site_symmetry_multiplicity
 _atom_site_fract_x
 _atom_site_fract_y
 _atom_site_fract_z
 _atom_site_occupancy
  Lu  Lu0  1  0.76679373  0.76679373  0.75000000  1
  Hf  Hf0  1  0.25353697  0.00159036  0.75000000  1
  Hf  Hf1  1  0.00159036  0.25353697  0.75000000  1
  Hf  Hf2  1  0.74811528  0.99962387  0.25000000  1
  Hf  Hf3  1  0.99962387  0.74811528  0.25000000  1
  Hf  Hf4  1  0.66457946  0.33282212  0.00032592  1
  Hf  Hf5  1  0.33282212  0.66457946  0.00032592  1
  Hf  Hf6  1  0.33282212  0.66457946  0.49967408  1
  Hf  Hf7  1  0.66457946  0.33282212  0.49967408  1
  Zr  Zr0  1  0.23719326  0.23719326  0.25000000  1
  Sn  Sn0  1  0.39217303  0.39217303  0.75000000  1
  Sn  Sn1  1  0.60777300  0.00186386  0.75000000  1
  Sn  Sn2  1  0.00186386  0.60777300  0.75000000  1
  Sn  Sn3  1  0.60776539  0.60776539  0.25000000  1
  Sn  Sn4  1  0.39079742  0.99797166  0.25000000  1
  Sn  Sn5  1  0.99797166  0.39079742  0.25000000  1
loop_
_geom_bond_atom_site_label_1
_geom_bond_atom_site_label_2
_geom_bond_distance
_geom_bond_site_symmetry_2
Lu0 Sn2 2.927000 1_655
Lu0 Sn1 2.927000 1_565
Lu0 Sn0 3.131627 1_555
Lu0 Sn3 3.168724 1_556
Lu0 Sn3 3.168724 1_555
Hf0 Sn0 2.890196 1_555
Hf0 Sn2 2.894911 1_545
Hf0 Sn1 3.004248 1_555
Hf0 Sn4 3.109255 1_545
Hf0 Sn4 3.109255 1_546
Hf0 Lu0 3.543392 1_445
Hf0 Zr0 3.545946 1_556
Hf0 Zr0 3.545946 1_555
Hf1 Sn0 2.890196 1_555
Hf1 Sn1 2.894911 1_455
Hf1 Sn2 3.004248 1_555
Hf1 Sn5 3.109255 1_455
Hf1 Sn5 3.109255 1_456
Hf1 Lu0 3.543393 1_445
Hf1 Zr0 3.545946 1_556
Hf1 Zr0 3.545946 1_555
Hf2 Sn5 2.875322 1_565
Hf2 Sn3 2.897698 1_555
Hf2 Sn4 3.024398 1_555
Hf2 Sn1 3.116883 1_564
Hf2 Sn1 3.116883 1_565
Hf2 Lu0 3.538790 1_555
Hf2 Lu0 3.538790 1_554
Hf2 Zr0 3.559891 1_665
Hf3 Sn4 2.875321 1_655
Hf3 Sn3 2.897697 1_555
Hf3 Sn5 3.024399 1_555
Hf3 Sn2 3.116883 1_655
Hf3 Sn2 3.116883 1_654
Hf3 Lu0 3.538790 1_554
Hf3 Lu0 3.538790 1_555
Hf3 Zr0 3.559892 1_665
Hf4 Hf7 2.872625 1_555
Hf4 Hf7 2.880124 1_554
Hf4 Sn4 2.955980 1_545
Hf4 Sn1 2.966104 1_554
Hf4 Sn2 2.972197 1_654
Hf4 Sn0 2.977694 1_554
Hf4 Sn5 2.978913 1_555
Hf4 Sn3 2.982297 1_555
Hf4 Zr0 3.583535 1_555
Hf4 Lu0 3.618871 1_554
Hf5 Hf6 2.872625 1_555
Hf5 Hf6 2.880124 1_554
Hf5 Sn5 2.955980 1_455
Hf5 Sn2 2.966104 1_554
Hf5 Sn1 2.972197 1_564
Hf5 Sn0 2.977694 1_554
Hf5 Sn4 2.978914 1_555
Hf5 Sn3 2.982297 1_555
Hf5 Zr0 3.583535 1_555
Hf5 Lu0 3.618871 1_554
Hf6 Sn5 2.955980 1_455
Hf6 Sn2 2.966104 1_555
Hf6 Sn1 2.972197 1_565
Hf6 Sn0 2.977694 1_555
Hf6 Sn4 2.978914 1_555
Hf6 Sn3 2.982297 1_555
Hf6 Zr0 3.583535 1_555
Hf6 Lu0 3.618871 1_555
Hf7 Sn4 2.955980 1_545
Hf7 Sn1 2.966104 1_555
Hf7 Sn2 2.972197 1_655
Hf7 Sn0 2.977694 1_555
Hf7 Sn5 2.978913 1_555
Hf7 Sn3 2.982297 1_555
Hf7 Zr0 3.583535 1_555
Hf7 Lu0 3.618871 1_555
Sn0 Zr0 3.154675 1_556
Sn0 Zr0 3.154675 1_555
Sn0 Sn3 3.394346 1_556
Sn0 Sn3 3.394346 1_555
Sn3 Zr0 3.097783 1_555
Sn4 Zr0 2.922342 1_565
Sn5 Zr0 2.922342 1_655
