# generated using pymatgen
data_Sr4Al18IrPt5
_symmetry_space_group_name_H-M   'P 1'
_cell_length_a   7.65226325
_cell_length_b   7.65226309
_cell_length_c   9.69716688
_cell_angle_alpha   89.96927232
_cell_angle_beta   89.96926882
_cell_angle_gamma   119.50305588
_symmetry_Int_Tables_number   1
_chemical_formula_structural   Sr4Al18IrPt5
_chemical_formula_sum   'Sr4 Al18 Ir1 Pt5'
_cell_volume   494.20608472
_cell_formula_units_Z   1
loop_
 _symmetry_equiv_pos_site_id
 _symmetry_equiv_pos_as_xyz
  1  'x, y, z'
loop_
 _atom_site_type_symbol
 _atom_site_label
 _atom_site_symmetry_multiplicity
 _atom_site_fract_x
 _atom_site_fract_y
 _atom_site_fract_z
 _atom_site_occupancy
  Sr  Sr0  1  0.99690713  0.67101848  0.25025102  1
  Sr  Sr1  1  0.00474148  0.33033843  0.75015912  1
  Sr  Sr2  1  0.66966157  0.99525852  0.24984088  1
  Sr  Sr3  1  0.32898152  0.00309287  0.74974898  1
  Al  Al0  1  0.13558764  0.13610294  0.25046729  1
  Al  Al1  1  0.86389706  0.86441236  0.74953271  1
  Al  Al2  1  0.00433904  0.33489727  0.07247634  1
  Al  Al3  1  0.99464730  0.66519561  0.92712459  1
  Al  Al4  1  0.99302900  0.66126830  0.57094695  1
  Al  Al5  1  0.33873170  0.00697100  0.42905305  1
  Al  Al6  1  0.99904732  0.33437545  0.42923349  1
  Al  Al7  1  0.66562455  0.00095268  0.57076651  1
  Al  Al8  1  0.66510273  0.99566096  0.92752366  1
  Al  Al9  1  0.33480439  0.00535270  0.07287541  1
  Al  Al10  1  0.33749622  0.33457832  0.54514471  1
  Al  Al11  1  0.66542168  0.66250378  0.45485529  1
  Al  Al12  1  0.66362453  0.66350907  0.04978189  1
  Al  Al13  1  0.33649093  0.33637547  0.95021811  1
  Al  Al14  1  0.33874996  0.53991643  0.25042695  1
  Al  Al15  1  0.66084244  0.45696864  0.74670757  1
  Al  Al16  1  0.54303136  0.33915756  0.25329243  1
  Al  Al17  1  0.46008357  0.66125004  0.74957305  1
  Ir  Ir0  1  0.66967129  0.33032871  0.50000000  1
  Pt  Pt0  1  0.67013595  0.32986405  0.00000000  1
  Pt  Pt1  1  0.32948180  0.67051820  1.00000000  1
  Pt  Pt2  1  0.33005390  0.66994610  0.50000000  1
  Pt  Pt3  1  0.99983660  0.00016340  0.00000000  1
  Pt  Pt4  1  0.99997633  0.00002367  0.50000000  1
loop_
_geom_bond_atom_site_label_1
_geom_bond_atom_site_label_2
_geom_bond_distance
_geom_bond_site_symmetry_2
Al0 Pt4 2.635666 1_455
Al0 Pt3 2.646032 1_455
Al0 Al14 2.689594 1_555
Al0 Al16 2.713797 1_555
Al0 Al9 2.791441 1_555
Al0 Al2 2.793891 1_555
Al0 Al5 2.811763 1_555
Al0 Al6 2.821538 1_455
Al0 Sr0 3.173700 1_445
Al0 Sr2 3.176294 1_445
Al1 Pt4 2.635666 1_565
Al1 Pt3 2.646032 1_566
Al1 Al17 2.689594 1_555
Al1 Al15 2.713797 1_555
Al1 Al3 2.791441 1_555
Al1 Al8 2.793891 1_555
Al1 Al4 2.811763 1_555
Al1 Al7 2.821538 1_565
Al1 Sr3 3.173700 1_665
Al1 Sr1 3.176294 1_665
Al2 Pt0 2.634524 1_455
Al2 Pt3 2.640323 1_455
Al2 Pt1 2.642505 1_554
Al2 Al3 2.926007 1_454
Al2 Al8 2.970512 1_444
Al2 Sr2 3.115524 1_445
Al2 Sr0 3.120811 1_455
Al2 Sr1 3.125794 1_554
Al3 Pt1 2.639191 1_655
Al3 Pt0 2.640174 1_556
Al3 Pt3 2.640646 1_566
Al3 Al9 2.980437 1_666
Al3 Sr3 3.108803 1_665
Al3 Sr1 3.117104 1_655
Al3 Sr0 3.133688 1_556
Al4 Ir0 2.615542 1_555
Al4 Pt2 2.637870 1_655
Al4 Pt4 2.656727 1_565
Al4 Al6 2.874898 1_555
Al4 Al5 2.998176 1_665
Al4 Sr1 3.108056 1_655
Al4 Sr0 3.110472 1_555
Al4 Sr3 3.137478 1_665
Al5 Ir0 2.615542 1_555
Al5 Pt2 2.637870 1_545
Al5 Pt4 2.656727 1_455
Al5 Al7 2.874898 1_555
Al5 Sr2 3.108056 1_545
Al5 Sr3 3.110472 1_555
Al5 Sr0 3.137478 1_445
Al6 Ir0 2.597288 1_555
Al6 Pt4 2.652013 1_555
Al6 Pt2 2.660478 1_655
Al6 Al7 2.912737 1_555
Al6 Sr2 3.111375 1_545
Al6 Sr0 3.112176 1_555
Al6 Sr1 3.112748 1_655
Al7 Ir0 2.597288 1_555
Al7 Pt4 2.652013 1_555
Al7 Pt2 2.660478 1_545
Al7 Sr1 3.111375 1_655
Al7 Sr3 3.112176 1_555
Al7 Sr2 3.112748 1_545
Al8 Pt0 2.634524 1_566
Al8 Pt3 2.640323 1_566
Al8 Pt1 2.642505 1_555
Al8 Al9 2.926007 1_566
Al8 Sr1 3.115524 1_665
Al8 Sr3 3.120812 1_565
Al8 Sr2 3.125794 1_556
Al9 Pt1 2.639191 1_544
Al9 Pt0 2.640174 1_555
Al9 Pt3 2.640646 1_455
Al9 Sr0 3.108803 1_445
Al9 Sr2 3.117104 1_545
Al9 Sr3 3.133688 1_554
Al10 Ir0 2.595024 1_555
Al10 Pt4 2.627996 1_455
Al10 Pt2 2.631288 1_555
Al10 Al11 2.674632 1_555
Al10 Al5 2.752911 1_555
Al10 Al6 2.823145 1_455
Al10 Al15 2.923108 1_555
Al10 Al17 2.959111 1_555
Al10 Sr3 3.194825 1_555
Al10 Sr1 3.217195 1_555
Al11 Ir0 2.595024 1_555
Al11 Pt4 2.627996 1_565
Al11 Pt2 2.631288 1_555
Al11 Al4 2.752911 1_555
Al11 Al7 2.823145 1_565
Al11 Al16 2.923108 1_555
Al11 Al14 2.959111 1_555
Al11 Sr0 3.194825 1_555
Al11 Sr2 3.217195 1_555
Al12 Pt0 2.623098 1_555
Al12 Pt1 2.628740 1_554
Al12 Pt3 2.637826 1_565
Al12 Al13 2.701536 1_554
Al12 Al3 2.792117 1_554
Al12 Al8 2.799004 1_554
Al12 Al14 2.921909 1_555
Al12 Al16 2.939979 1_555
Al12 Sr2 3.178095 1_555
Al12 Sr0 3.185566 1_555
Al13 Pt0 2.623098 1_556
Al13 Pt1 2.628740 1_555
Al13 Pt3 2.637826 1_456
Al13 Al9 2.792117 1_556
Al13 Al2 2.799004 1_556
Al13 Al17 2.921909 1_555
Al13 Al15 2.939978 1_555
Al13 Sr1 3.178095 1_555
Al13 Sr3 3.185566 1_555
Al14 Pt2 2.630448 1_555
Al14 Pt1 2.639792 1_554
Al14 Al16 2.677657 1_555
Al14 Al2 2.835656 1_555
Al14 Al6 2.864070 1_455
Al14 Sr2 3.140507 1_555
Al14 Sr0 3.230177 1_455
Al15 Ir0 2.594974 1_555
Al15 Pt0 2.655155 1_556
Al15 Al17 2.677657 1_555
Al15 Al4 2.808732 1_555
Al15 Al3 2.850180 1_555
Al15 Sr3 3.134545 1_555
Al15 Sr1 3.221358 1_655
Al16 Ir0 2.594974 1_555
Al16 Pt0 2.655155 1_555
Al16 Al5 2.808732 1_555
Al16 Al9 2.850180 1_555
Al16 Sr0 3.134545 1_555
Al16 Sr2 3.221358 1_545
Al17 Pt2 2.630448 1_555
Al17 Pt1 2.639792 1_555
Al17 Al8 2.835656 1_555
Al17 Al7 2.864070 1_565
Al17 Sr1 3.140507 1_555
Al17 Sr3 3.230177 1_565
