# generated using pymatgen
data_Ti6Si6Tc5Ru
_symmetry_space_group_name_H-M   'P 1'
_cell_length_a   7.48937505
_cell_length_b   7.48256535
_cell_length_c   7.48931878
_cell_angle_alpha   126.31350470
_cell_angle_beta   129.03102554
_cell_angle_gamma   77.19596852
_symmetry_Int_Tables_number   1
_chemical_formula_structural   Ti6Si6Tc5Ru
_chemical_formula_sum   'Ti6 Si6 Tc5 Ru1'
_cell_volume   254.91511803
_cell_formula_units_Z   1
loop_
 _symmetry_equiv_pos_site_id
 _symmetry_equiv_pos_as_xyz
  1  'x, y, z'
loop_
 _atom_site_type_symbol
 _atom_site_label
 _atom_site_symmetry_multiplicity
 _atom_site_fract_x
 _atom_site_fract_y
 _atom_site_fract_z
 _atom_site_occupancy
  Ti  Ti0  1  0.24904801  0.89974597  0.15355477  1
  Ti  Ti1  1  0.95059801  0.49257002  0.03973448  1
  Ti  Ti2  1  0.04919236  0.09794483  0.54583385  1
  Ti  Ti3  1  0.45249708  0.49241618  0.54201891  1
  Ti  Ti4  1  0.74659487  0.90015144  0.65078597  1
  Ti  Ti5  1  0.55236392  0.09859443  0.04919641  1
  Si  Si0  1  0.75131802  0.49949481  0.24798440  1
  Si  Si1  1  0.16645159  0.15969464  0.99367959  1
  Si  Si2  1  0.66602282  0.16147753  0.49494760  1
  Si  Si3  1  0.33143814  0.82870373  0.49807835  1
  Si  Si4  1  0.25120916  0.49908253  0.74802383  1
  Si  Si5  1  0.83239274  0.82972332  0.99672161  1
  Tc  Tc0  1  0.49940828  0.23609190  0.73671529  1
  Tc  Tc1  1  0.00052692  0.23789387  0.23728355  1
  Tc  Tc2  1  0.87046649  0.49724573  0.62658038  1
  Tc  Tc3  1  0.63058990  0.75824188  0.12729595  1
  Tc  Tc4  1  0.36975362  0.49636151  0.12673722  1
  Ru  Ru0  1  0.13012808  0.75677569  0.62703685  1
loop_
_geom_bond_atom_site_label_1
_geom_bond_atom_site_label_2
_geom_bond_distance
_geom_bond_site_symmetry_2
Si0 Tc3 2.377063 1_555
Si0 Tc2 2.387330 1_555
Si0 Tc1 2.388474 1_655
Si0 Tc0 2.390971 1_554
Si0 Tc4 2.393251 1_555
Si0 Ti5 2.707933 1_555
Si0 Ti1 2.732117 1_555
Si0 Ti4 2.732244 1_555
Si1 Tc4 2.544249 1_556
Si1 Tc1 2.546356 1_556
Si1 Ti3 2.612744 1_556
Si1 Ti1 2.614635 1_456
Si1 Ti5 2.619412 1_556
Si1 Ti2 2.620864 1_555
Si1 Ti4 2.623612 1_445
Si1 Ti0 2.625247 1_546
Si2 Tc3 2.520006 1_545
Si2 Tc0 2.546948 1_555
Si2 Tc2 2.549284 1_555
Si2 Ti3 2.595082 1_555
Si2 Ti1 2.596744 1_556
Si2 Ti5 2.613174 1_555
Si2 Ti2 2.615127 1_655
Si2 Ti4 2.615886 1_545
Si2 Ti0 2.617003 1_545
Si3 Tc0 2.546412 1_565
Si3 Tc4 2.549200 1_555
Si3 Ti0 2.606698 1_555
Si3 Ti4 2.606763 1_555
Si3 Ti3 2.618367 1_555
Si3 Ti5 2.619032 1_566
Si3 Ti2 2.620338 1_565
Si3 Ti1 2.620507 1_455
Si4 Tc3 2.378051 1_556
Si4 Tc2 2.386350 1_455
Si4 Tc1 2.388091 1_555
Si4 Tc0 2.390501 1_555
Si4 Tc4 2.392092 1_556
Si4 Ti2 2.708389 1_555
Si4 Ti3 2.731364 1_555
Si4 Ti0 2.732850 1_556
Si5 Tc3 2.523088 1_556
Si5 Tc2 2.543218 1_555
Si5 Tc1 2.547455 1_666
Si5 Ti0 2.602125 1_656
Si5 Ti4 2.602537 1_555
Si5 Ti5 2.613785 1_566
Si5 Ti2 2.614467 1_666
Si5 Ti3 2.619511 1_555
Si5 Ti1 2.620177 1_556
Tc0 Ti4 2.771635 1_545
Tc0 Ti0 2.771878 1_545
Tc0 Ti5 2.862613 1_556
Tc0 Ti2 2.864445 1_555
Tc0 Ti3 2.880397 1_555
Tc0 Ti1 2.882566 1_556
Tc1 Ti4 2.785454 1_444
Tc1 Ti0 2.786206 1_545
Tc1 Ti5 2.862389 1_455
Tc1 Ti2 2.864524 1_555
Tc1 Ti3 2.876304 1_555
Tc1 Ti1 2.878693 1_455
Tc2 Ti1 2.777737 1_556
Tc2 Ti3 2.779839 1_555
Tc2 Ti5 2.858275 1_555
Tc2 Ti2 2.862026 1_655
Tc2 Ti0 2.880761 1_656
Tc2 Ti4 2.882222 1_555
Tc3 Ti2 2.798811 1_665
Tc3 Ti5 2.800441 1_565
Tc3 Ti3 2.904274 1_554
Tc3 Ti4 2.905406 1_555
Tc3 Ti0 2.906070 1_555
Tc3 Ti1 2.906812 1_555
Tc4 Ti1 2.778735 1_455
Tc4 Ti3 2.780513 1_555
Tc4 Ti5 2.866199 1_555
Tc4 Ti2 2.869566 1_554
Tc4 Ti0 2.875633 1_555
Tc4 Ti4 2.877749 1_555
Ru0 Si0 2.370245 1_455
Ru0 Si4 2.370821 1_555
Ru0 Si3 2.510952 1_555
Ru0 Si1 2.514153 1_565
Ru0 Ti2 2.818300 1_565
Ru0 Ti5 2.820046 1_566
Ru0 Ti3 2.911172 1_555
Ru0 Ti4 2.912902 1_455
Ru0 Ti0 2.913696 1_556
Ru0 Ti1 2.914333 1_455
