# generated using pymatgen
data_Lu4Hf(ReTc)12
_symmetry_space_group_name_H-M   'P 1'
_cell_length_a   8.44382982
_cell_length_b   8.44382906
_cell_length_c   8.44383021
_cell_angle_alpha   109.46480970
_cell_angle_beta   109.46480576
_cell_angle_gamma   109.46481838
_symmetry_Int_Tables_number   1
_chemical_formula_structural   Lu4Hf(ReTc)12
_chemical_formula_sum   'Lu4 Hf1 Re12 Tc12'
_cell_volume   463.55313341
_cell_formula_units_Z   1
loop_
 _symmetry_equiv_pos_site_id
 _symmetry_equiv_pos_as_xyz
  1  'x, y, z'
loop_
 _atom_site_type_symbol
 _atom_site_label
 _atom_site_symmetry_multiplicity
 _atom_site_fract_x
 _atom_site_fract_y
 _atom_site_fract_z
 _atom_site_occupancy
  Lu  Lu0  1  0.99954439  0.99954439  0.99954439  1
  Lu  Lu1  1  0.62620310  0.00043628  0.00043628  1
  Lu  Lu2  1  0.00043628  0.62620310  0.00043628  1
  Lu  Lu3  1  0.00043628  0.00043628  0.62620310  1
  Hf  Hf0  1  0.37440205  0.37440205  0.37440205  1
  Re  Re0  1  0.37865104  0.19504987  0.00179024  1
  Re  Re1  1  0.18573194  0.80780000  0.80780000  1
  Re  Re2  1  0.37865104  0.00179024  0.19504987  1
  Re  Re3  1  0.19504987  0.37865104  0.00179024  1
  Re  Re4  1  0.00179024  0.37865104  0.19504987  1
  Re  Re5  1  0.80780000  0.18573194  0.80780000  1
  Re  Re6  1  0.80780000  0.80780000  0.18573194  1
  Re  Re7  1  0.00179024  0.19504987  0.37865104  1
  Re  Re8  1  0.19504987  0.00179024  0.37865104  1
  Re  Re9  1  0.62159876  0.62159876  0.81508791  1
  Re  Re10  1  0.81508791  0.62159876  0.62159876  1
  Re  Re11  1  0.62159876  0.81508791  0.62159876  1
  Tc  Tc0  1  0.39467747  0.67217247  0.99790383  1
  Tc  Tc1  1  0.72380441  0.32756783  0.32756783  1
  Tc  Tc2  1  0.39467747  0.99790383  0.67217247  1
  Tc  Tc3  1  0.67217247  0.39467747  0.99790383  1
  Tc  Tc4  1  0.99790383  0.39467747  0.67217247  1
  Tc  Tc5  1  0.32756783  0.72380441  0.32756783  1
  Tc  Tc6  1  0.32756783  0.32756783  0.72380441  1
  Tc  Tc7  1  0.99790383  0.67217247  0.39467747  1
  Tc  Tc8  1  0.67217247  0.99790383  0.39467747  1
  Tc  Tc9  1  0.60113151  0.60113151  0.27766760  1
  Tc  Tc10  1  0.27766760  0.60113151  0.60113151  1
  Tc  Tc11  1  0.60113151  0.27766760  0.60113151  1
loop_
_geom_bond_atom_site_label_1
_geom_bond_atom_site_label_2
_geom_bond_distance
_geom_bond_site_symmetry_2
Lu0 Re6 3.059420 1_556
Lu0 Re1 3.059421 1_655
Lu0 Re5 3.059421 1_565
Lu0 Re9 3.063007 1_555
Lu0 Re10 3.063007 1_555
Lu0 Re11 3.063007 1_555
Lu0 Re3 3.064229 1_666
Lu0 Re0 3.064229 1_666
Lu0 Re4 3.064229 1_666
Lu0 Re7 3.064229 1_666
Lu0 Re2 3.064229 1_666
Lu0 Re8 3.064229 1_666
Lu0 Lu2 3.157457 1_656
Lu0 Lu1 3.157457 1_566
Lu0 Lu3 3.157458 1_665
Lu1 Tc1 2.796393 1_555
Lu1 Tc0 2.797588 1_544
Lu1 Tc2 2.797588 1_544
Lu1 Re5 3.033885 1_554
Lu1 Re6 3.033886 1_545
Lu1 Re9 3.037026 1_544
Lu1 Re11 3.037026 1_544
Lu1 Re4 3.039141 1_655
Lu1 Re7 3.039142 1_655
Lu1 Re1 3.049175 1_544
Lu1 Re2 3.059813 1_555
Lu1 Re0 3.059813 1_555
Lu1 Tc3 3.228707 1_554
Lu1 Tc8 3.228708 1_545
Lu1 Tc10 3.254976 1_544
Lu2 Tc5 2.796394 1_555
Lu2 Tc3 2.797588 1_454
Lu2 Tc4 2.797588 1_454
Lu2 Re1 3.033885 1_554
Lu2 Re6 3.033885 1_455
Lu2 Re9 3.037026 1_454
Lu2 Re10 3.037026 1_454
Lu2 Re2 3.039141 1_565
Lu2 Re8 3.039141 1_565
Lu2 Re5 3.049175 1_454
Lu2 Re4 3.059812 1_555
Lu2 Re3 3.059813 1_555
Lu2 Tc0 3.228708 1_554
Lu2 Tc7 3.228708 1_455
Lu2 Tc11 3.254976 1_454
Lu3 Tc6 2.796393 1_555
Lu3 Tc7 2.797588 1_445
Lu3 Tc8 2.797588 1_445
Lu3 Re5 3.033885 1_455
Lu3 Re1 3.033886 1_545
Lu3 Re10 3.037025 1_445
Lu3 Re11 3.037026 1_445
Lu3 Re3 3.039141 1_556
Lu3 Re0 3.039142 1_556
Lu3 Re6 3.049176 1_445
Lu3 Re7 3.059813 1_555
Lu3 Re8 3.059813 1_555
Lu3 Tc4 3.228707 1_455
Lu3 Tc2 3.228708 1_545
Lu3 Tc9 3.254975 1_445
Hf0 Tc9 2.763909 1_555
Hf0 Tc10 2.763910 1_555
Hf0 Tc11 2.763910 1_555
Hf0 Re8 3.021540 1_555
Hf0 Re7 3.021540 1_555
Hf0 Re2 3.021540 1_555
Hf0 Re0 3.021540 1_555
Hf0 Re4 3.021540 1_555
Hf0 Re3 3.021540 1_555
Hf0 Re11 3.050194 1_555
Hf0 Re10 3.050195 1_555
Hf0 Re9 3.050195 1_555
Hf0 Lu0 3.166236 1_444
Hf0 Tc5 3.235417 1_555
Hf0 Tc1 3.235417 1_555
Hf0 Tc6 3.235418 1_555
Re0 Tc3 2.508364 1_554
Re0 Re3 2.531524 1_555
Re0 Re2 2.664697 1_555
Re0 Re1 2.670377 1_544
Re0 Tc1 2.783003 1_555
Re0 Tc2 2.801640 1_544
Re0 Tc9 2.860074 1_555
Re0 Tc6 2.888792 1_554
Re1 Tc10 2.543484 1_555
Re1 Re10 2.555875 1_455
Re1 Re2 2.670378 1_566
Re1 Tc2 2.772226 1_555
Re1 Tc0 2.772226 1_555
Re1 Tc4 2.904362 1_455
Re1 Tc7 2.904363 1_455
Re2 Tc8 2.508364 1_545
Re2 Re8 2.531524 1_555
Re2 Tc1 2.783002 1_555
Re2 Tc0 2.801639 1_544
Re2 Tc11 2.860074 1_555
Re2 Tc5 2.888792 1_545
Re3 Tc0 2.508364 1_554
Re3 Re4 2.664697 1_555
Re3 Re5 2.670377 1_454
Re3 Tc5 2.783002 1_555
Re3 Tc4 2.801640 1_454
Re3 Tc9 2.860074 1_555
Re3 Tc6 2.888792 1_554
Re4 Tc7 2.508364 1_455
Re4 Re7 2.531524 1_555
Re4 Re5 2.670378 1_454
Re4 Tc5 2.783002 1_555
Re4 Tc3 2.801640 1_454
Re4 Tc10 2.860074 1_555
Re4 Tc1 2.888792 1_455
Re5 Tc11 2.543485 1_555
Re5 Tc4 2.772226 1_555
Re5 Tc3 2.772226 1_555
Re5 Tc2 2.904363 1_545
Re5 Tc8 2.904363 1_545
Re6 Tc9 2.543484 1_555
Re6 Re9 2.555875 1_554
Re6 Re7 2.670377 1_665
Re6 Re8 2.670377 1_665
Re6 Tc8 2.772226 1_555
Re6 Tc7 2.772226 1_555
Re6 Tc3 2.904362 1_554
Re6 Tc0 2.904363 1_554
Re7 Tc4 2.508364 1_455
Re7 Re8 2.664697 1_555
Re7 Tc6 2.783003 1_555
Re7 Tc8 2.801639 1_445
Re7 Tc10 2.860074 1_555
Re7 Tc1 2.888792 1_455
Re8 Tc2 2.508364 1_545
Re8 Tc6 2.783002 1_555
Re8 Tc7 2.801639 1_445
Re8 Tc11 2.860074 1_555
Re8 Tc5 2.888792 1_545
Re9 Tc6 2.502674 1_555
Re9 Tc11 2.772780 1_555
Re9 Tc10 2.772780 1_555
Re9 Tc3 2.883379 1_555
Re9 Tc0 2.883379 1_555
Re10 Tc1 2.502675 1_555
Re10 Re9 2.667862 1_555
Re10 Re11 2.667862 1_555
Re10 Tc11 2.772779 1_555
Re10 Tc9 2.772780 1_555
Re10 Tc7 2.883379 1_555
Re10 Tc4 2.883379 1_555
Re11 Tc5 2.502675 1_555
Re11 Re5 2.555875 1_565
Re11 Re9 2.667861 1_555
Re11 Tc10 2.772779 1_555
Re11 Tc9 2.772780 1_555
Re11 Tc8 2.883379 1_555
Re11 Tc2 2.883379 1_555
Tc0 Tc6 2.771891 1_555
Tc0 Tc9 2.806412 1_556
Tc0 Tc4 2.934534 1_455
Tc0 Tc8 2.934534 1_556
Tc0 Tc10 2.935977 1_555
Tc0 Tc5 2.943952 1_556
Tc1 Tc7 2.771891 1_555
Tc1 Tc4 2.771892 1_555
Tc1 Tc9 2.922094 1_555
Tc1 Tc11 2.922094 1_555
Tc1 Tc8 2.943952 1_545
Tc1 Tc3 2.943952 1_554
Tc2 Tc5 2.771891 1_555
Tc2 Tc3 2.934533 1_565
Tc2 Tc7 2.934534 1_455
Tc2 Tc6 2.943952 1_565
Tc3 Tc6 2.771892 1_555
Tc3 Tc9 2.806412 1_556
Tc3 Tc7 2.934534 1_556
Tc4 Tc8 2.934533 1_545
Tc4 Tc6 2.943952 1_655
Tc5 Tc8 2.771891 1_555
Tc5 Tc9 2.922094 1_555
Tc5 Tc7 2.943952 1_455
Tc7 Tc9 2.935977 1_555
Tc8 Tc9 2.935976 1_555
Tc10 Tc4 2.806411 1_455
Tc10 Tc7 2.806412 1_455
Tc10 Tc6 2.922094 1_555
Tc10 Tc5 2.922094 1_555
Tc10 Tc2 2.935976 1_555
Tc11 Tc2 2.806411 1_545
Tc11 Tc8 2.806411 1_545
Tc11 Tc6 2.922094 1_555
Tc11 Tc4 2.935977 1_555
Tc11 Tc3 2.935977 1_555
