# generated using pymatgen
data_UGa3Ni
_symmetry_space_group_name_H-M   'P 1'
_cell_length_a   5.99342706
_cell_length_b   5.99342706
_cell_length_c   5.99342706
_cell_angle_alpha   140.33596279
_cell_angle_beta   140.33596279
_cell_angle_gamma   57.34354069
_symmetry_Int_Tables_number   1
_chemical_formula_structural   UGa3Ni
_chemical_formula_sum   'U1 Ga3 Ni1'
_cell_volume   86.96598077
_cell_formula_units_Z   1
loop_
 _symmetry_equiv_pos_site_id
 _symmetry_equiv_pos_as_xyz
  1  'x, y, z'
loop_
 _atom_site_type_symbol
 _atom_site_label
 _atom_site_symmetry_multiplicity
 _atom_site_fract_x
 _atom_site_fract_y
 _atom_site_fract_z
 _atom_site_occupancy
  U  U0  1  0.00000000  0.00000000  0.00000000  1
  Ga  Ga0  1  0.61597700  0.61597700  0.00000000  1
  Ga  Ga1  1  0.75000000  0.25000000  0.50000000  1
  Ga  Ga2  1  0.38402300  0.38402300  0.00000000  1
  Ni  Ni0  1  0.25000000  0.75000000  0.50000000  1
loop_
_geom_bond_atom_site_label_1
_geom_bond_atom_site_label_2
_geom_bond_distance
_geom_bond_site_symmetry_2
Ga0 Ga2 2.439474 1_555
Ga0 Ni0 2.474124 1_554
Ga0 Ga1 2.474124 1_554
Ga0 Ga1 2.474124 1_565
Ga0 Ni0 2.474124 1_655
Ga0 U0 3.123587 1_554
Ga0 U0 3.123587 1_666
Ga0 U0 3.123587 1_655
Ga0 U0 3.123587 1_565
Ga1 Ga2 2.474124 1_555
Ga1 Ga2 2.474124 1_656
Ga1 U0 3.323786 1_666
Ga1 U0 3.323786 1_655
Ga1 U0 3.323786 1_555
Ga1 U0 3.323786 1_656
Ga2 Ni0 2.474124 1_555
Ga2 Ni0 2.474124 1_544
Ga2 U0 3.123587 1_554
Ga2 U0 3.123587 1_666
Ga2 U0 3.123587 1_655
Ga2 U0 3.123587 1_565
Ni0 U0 3.323786 1_666
Ni0 U0 3.323786 1_565
Ni0 U0 3.323786 1_555
Ni0 U0 3.323786 1_566
