# generated using pymatgen
data_LuAg(PSe3)2
_symmetry_space_group_name_H-M   'P 1'
_cell_length_a   6.57622606
_cell_length_b   6.57622558
_cell_length_c   14.10577894
_cell_angle_alpha   90.00000000
_cell_angle_beta   90.00000000
_cell_angle_gamma   120.00001231
_symmetry_Int_Tables_number   1
_chemical_formula_structural   LuAg(PSe3)2
_chemical_formula_sum   'Lu2 Ag2 P4 Se12'
_cell_volume   528.30057984
_cell_formula_units_Z   2
loop_
 _symmetry_equiv_pos_site_id
 _symmetry_equiv_pos_as_xyz
  1  'x, y, z'
loop_
 _atom_site_type_symbol
 _atom_site_label
 _atom_site_symmetry_multiplicity
 _atom_site_fract_x
 _atom_site_fract_y
 _atom_site_fract_z
 _atom_site_occupancy
  Lu  Lu0  1  0.00000000  0.00000000  0.25000000  1
  Lu  Lu1  1  0.00000000  0.00000000  0.75000000  1
  Ag  Ag0  1  0.66666700  0.33333300  0.25000000  1
  Ag  Ag1  1  0.33333300  0.66666700  0.75000000  1
  P  P0  1  0.66666700  0.33333300  0.67046351  1
  P  P1  1  0.66666700  0.33333300  0.82953649  1
  P  P2  1  0.33333300  0.66666700  0.32953649  1
  P  P3  1  0.33333300  0.66666700  0.17046351  1
  Se  Se0  1  0.97769060  0.31948052  0.87557416  1
  Se  Se1  1  0.34178992  0.31948052  0.62442584  1
  Se  Se2  1  0.97769060  0.65821008  0.62442584  1
  Se  Se3  1  0.68051948  0.02230940  0.62442584  1
  Se  Se4  1  0.31948052  0.34178992  0.12442584  1
  Se  Se5  1  0.65821008  0.97769060  0.12442584  1
  Se  Se6  1  0.02230940  0.68051948  0.12442584  1
  Se  Se7  1  0.65821008  0.68051948  0.37557416  1
  Se  Se8  1  0.02230940  0.34178992  0.37557416  1
  Se  Se9  1  0.31948052  0.97769060  0.37557416  1
  Se  Se10  1  0.68051948  0.65821008  0.87557416  1
  Se  Se11  1  0.34178992  0.02230940  0.87557416  1
loop_
_geom_bond_atom_site_label_1
_geom_bond_atom_site_label_2
_geom_bond_distance
_geom_bond_site_symmetry_2
Lu0 Se4 2.807390 1_555
Lu0 Se7 2.807390 1_445
Lu0 Se8 2.807390 1_555
Lu0 Se6 2.807391 1_545
Lu0 Se5 2.807391 1_445
Lu0 Se9 2.807391 1_545
Lu1 Se10 2.807390 1_445
Lu1 Se1 2.807390 1_555
Lu1 Se2 2.807390 1_445
Lu1 Se0 2.807391 1_455
Lu1 Se11 2.807391 1_555
Lu1 Se3 2.807391 1_455
Ag0 Se5 2.912132 1_545
Ag0 Se8 2.912133 1_655
Ag0 Se9 2.912135 1_545
Ag0 Se6 2.912135 1_655
Ag0 Se7 2.912138 1_555
Ag0 Se4 2.912138 1_555
Ag1 Se11 2.912132 1_565
Ag1 Se2 2.912133 1_455
Ag1 Se3 2.912135 1_565
Ag1 Se0 2.912135 1_455
Ag1 Se1 2.912138 1_555
Ag1 Se10 2.912138 1_555
P0 Se3 2.190855 1_555
P0 Se2 2.190858 1_555
P0 Se1 2.190861 1_555
P0 P1 2.243848 1_555
P1 Se0 2.190855 1_555
P1 Se11 2.190858 1_555
P1 Se10 2.190861 1_555
P2 Se9 2.190855 1_555
P2 Se8 2.190858 1_555
P2 Se7 2.190861 1_555
P2 P3 2.243848 1_555
P3 Se6 2.190855 1_555
P3 Se5 2.190858 1_555
P3 Se4 2.190861 1_555
