# generated using pymatgen
data_Lu12Co4CuPb
_symmetry_space_group_name_H-M   'P 1'
_cell_length_a   8.08901427
_cell_length_b   8.08901391
_cell_length_c   8.08901392
_cell_angle_alpha   111.13837641
_cell_angle_beta   110.26052483
_cell_angle_gamma   107.04298046
_symmetry_Int_Tables_number   1
_chemical_formula_structural   Lu12Co4CuPb
_chemical_formula_sum   'Lu12 Co4 Cu1 Pb1'
_cell_volume   406.87019575
_cell_formula_units_Z   1
loop_
 _symmetry_equiv_pos_site_id
 _symmetry_equiv_pos_as_xyz
  1  'x, y, z'
loop_
 _atom_site_type_symbol
 _atom_site_label
 _atom_site_symmetry_multiplicity
 _atom_site_fract_x
 _atom_site_fract_y
 _atom_site_fract_z
 _atom_site_occupancy
  Lu  Lu0  1  0.41799466  0.21480046  0.20319320  1
  Lu  Lu1  1  0.58200534  0.78519954  0.79680680  1
  Lu  Lu2  1  0.01160725  0.21480046  0.79680680  1
  Lu  Lu3  1  0.98839275  0.78519954  0.20319320  1
  Lu  Lu4  1  0.18465624  0.28919680  0.47385304  1
  Lu  Lu5  1  0.81534376  0.71080320  0.52614696  1
  Lu  Lu6  1  0.18465624  0.71080320  0.89546044  1
  Lu  Lu7  1  0.81534376  0.28919680  0.10453956  1
  Lu  Lu8  1  0.31413251  0.61818035  0.30404784  1
  Lu  Lu9  1  0.68586749  0.38181965  0.69595216  1
  Lu  Lu10  1  0.31413251  0.01008467  0.69595216  1
  Lu  Lu11  1  0.68586749  0.98991533  0.30404784  1
  Co  Co0  1  0.37961765  1.00000000  0.37961765  1
  Co  Co1  1  0.62038235  0.00000000  0.62038235  1
  Co  Co2  1  0.11248931  0.61248931  0.50000000  1
  Co  Co3  1  0.88751069  0.38751069  0.50000000  1
  Cu  Cu0  1  0.00000000  0.00000000  0.00000000  1
  Pb  Pb0  1  0.50000000  0.50000000  0.00000000  1
loop_
_geom_bond_atom_site_label_1
_geom_bond_atom_site_label_2
_geom_bond_distance
_geom_bond_site_symmetry_2
Lu0 Pb0 3.325151 1_555
Lu0 Lu6 3.360889 1_544
Lu0 Lu4 3.360897 1_555
Lu0 Lu7 3.509813 1_555
Lu0 Lu5 3.509813 1_555
Lu1 Pb0 3.325151 1_556
Lu1 Lu7 3.360889 1_566
Lu1 Lu5 3.360897 1_555
Lu1 Lu6 3.509813 1_555
Lu1 Lu4 3.509813 1_555
Lu2 Pb0 3.325152 1_556
Lu2 Lu7 3.360883 1_456
Lu2 Lu5 3.360890 1_445
Lu2 Lu6 3.509813 1_555
Lu2 Lu4 3.509815 1_555
Lu3 Pb0 3.325152 1_555
Lu3 Lu6 3.360883 1_654
Lu3 Lu4 3.360890 1_665
Lu3 Lu7 3.509813 1_555
Lu3 Lu5 3.509815 1_555
Lu4 Lu7 3.415843 1_455
Lu4 Lu8 3.473356 1_555
Lu4 Pb0 3.496453 1_556
Lu4 Lu9 3.525672 1_555
Lu5 Lu6 3.415843 1_655
Lu5 Lu9 3.473356 1_555
Lu5 Pb0 3.496453 1_555
Lu5 Lu8 3.525672 1_555
Lu6 Lu9 3.473354 1_455
Lu6 Pb0 3.496452 1_556
Lu6 Lu8 3.525664 1_556
Lu7 Lu8 3.473354 1_655
Lu7 Pb0 3.496452 1_555
Lu7 Lu9 3.525664 1_554
Lu8 Pb0 3.306198 1_555
Lu9 Pb0 3.306198 1_556
Lu10 Pb0 3.306198 1_556
Lu10 Lu5 3.473356 1_445
Lu10 Lu6 3.473362 1_545
Lu10 Lu7 3.525669 1_556
Lu10 Lu4 3.525672 1_555
Lu11 Pb0 3.306198 1_555
Lu11 Lu4 3.473356 1_665
Lu11 Lu7 3.473362 1_565
Lu11 Lu6 3.525669 1_554
Lu11 Lu5 3.525672 1_555
Co0 Co1 2.226877 1_565
Co0 Lu3 2.632684 1_455
Co0 Lu0 2.632685 1_565
Co0 Lu8 2.765576 1_555
Co0 Lu10 2.765576 1_565
Co0 Lu9 2.765576 1_565
Co0 Lu11 2.765576 1_555
Co0 Lu6 3.201481 1_554
Co0 Lu4 3.201488 1_565
Co1 Lu2 2.632684 1_655
Co1 Lu1 2.632685 1_545
Co1 Lu9 2.765576 1_555
Co1 Lu11 2.765576 1_545
Co1 Lu8 2.765576 1_545
Co1 Lu10 2.765576 1_555
Co1 Lu7 3.201481 1_556
Co1 Lu5 3.201488 1_545
Co2 Co3 2.163885 1_455
Co2 Lu10 2.640871 1_565
Co2 Lu8 2.640871 1_555
Co2 Lu4 2.793885 1_555
Co2 Lu5 2.793885 1_455
Co2 Lu7 2.793889 1_455
Co2 Lu6 2.793893 1_555
Co2 Lu1 3.208682 1_555
Co2 Lu3 3.208688 1_455
Co3 Lu11 2.640871 1_545
Co3 Lu9 2.640871 1_555
Co3 Lu5 2.793885 1_555
Co3 Lu4 2.793885 1_655
Co3 Lu6 2.793889 1_655
Co3 Lu7 2.793893 1_555
Co3 Lu0 3.208682 1_555
Co3 Lu2 3.208688 1_655
Cu0 Lu2 2.792910 1_554
Cu0 Lu3 2.792910 1_445
Cu0 Lu0 2.792917 1_555
Cu0 Lu1 2.792917 1_444
Cu0 Lu6 3.148786 1_544
Cu0 Lu7 3.148786 1_455
Cu0 Lu4 3.148787 1_555
Cu0 Lu5 3.148787 1_444
