# generated using pymatgen
data_Ba2Ca3(SnAs3)2
_symmetry_space_group_name_H-M   'P 1'
_cell_length_a   4.26051299
_cell_length_b   12.40543536
_cell_length_c   14.05678510
_cell_angle_alpha   90.00000000
_cell_angle_beta   90.00000000
_cell_angle_gamma   90.00000000
_symmetry_Int_Tables_number   1
_chemical_formula_structural   Ba2Ca3(SnAs3)2
_chemical_formula_sum   'Ba4 Ca6 Sn4 As12'
_cell_volume   742.95055166
_cell_formula_units_Z   2
loop_
 _symmetry_equiv_pos_site_id
 _symmetry_equiv_pos_as_xyz
  1  'x, y, z'
loop_
 _atom_site_type_symbol
 _atom_site_label
 _atom_site_symmetry_multiplicity
 _atom_site_fract_x
 _atom_site_fract_y
 _atom_site_fract_z
 _atom_site_occupancy
  Ba  Ba0  1  0.00000000  0.87091053  0.43421269  1
  Ba  Ba1  1  0.00000000  0.12908947  0.56578731  1
  Ba  Ba2  1  0.00000000  0.37091053  0.06578731  1
  Ba  Ba3  1  0.00000000  0.62908947  0.93421269  1
  Ca  Ca0  1  0.00000000  0.62365969  0.26366337  1
  Ca  Ca1  1  0.00000000  0.37634031  0.73633663  1
  Ca  Ca2  1  0.00000000  0.12365969  0.23633663  1
  Ca  Ca3  1  0.00000000  0.87634031  0.76366337  1
  Ca  Ca4  1  0.00000000  0.50000000  0.50000000  1
  Ca  Ca5  1  0.00000000  0.00000000  0.00000000  1
  Sn  Sn0  1  0.50000000  0.79122968  0.10361067  1
  Sn  Sn1  1  0.50000000  0.20877032  0.89638933  1
  Sn  Sn2  1  0.50000000  0.29122968  0.39638933  1
  Sn  Sn3  1  0.50000000  0.70877032  0.60361067  1
  As  As0  1  0.50000000  0.58208896  0.12198837  1
  As  As1  1  0.50000000  0.41791104  0.87801163  1
  As  As2  1  0.50000000  0.08208896  0.37801163  1
  As  As3  1  0.50000000  0.91791104  0.62198837  1
  As  As4  1  0.50000000  0.65563121  0.42094370  1
  As  As5  1  0.50000000  0.34436879  0.57905630  1
  As  As6  1  0.50000000  0.15563121  0.07905630  1
  As  As7  1  0.50000000  0.84436879  0.92094370  1
  As  As8  1  0.00000000  0.87376242  0.19277560  1
  As  As9  1  0.00000000  0.12623758  0.80722440  1
  As  As10  1  0.00000000  0.37376242  0.30722440  1
  As  As11  1  0.00000000  0.62623758  0.69277560  1
loop_
_geom_bond_atom_site_label_1
_geom_bond_atom_site_label_2
_geom_bond_distance
_geom_bond_site_symmetry_2
As0 Sn0 2.607311 1_555
As0 Ca0 2.961418 1_555
As0 Ca0 2.961418 1_655
As0 Ba3 3.441661 1_554
As0 Ba3 3.441661 1_654
As0 Ba2 3.467744 1_655
As0 Ba2 3.467744 1_555
As1 Sn1 2.607311 1_555
As1 Ca1 2.961418 1_555
As1 Ca1 2.961418 1_655
As1 Ba2 3.441661 1_656
As1 Ba2 3.441661 1_556
As1 Ba3 3.467744 1_655
As1 Ba3 3.467744 1_555
As2 Sn2 2.607311 1_555
As2 Ca2 2.961418 1_555
As2 Ca2 2.961418 1_655
As2 Ba1 3.441661 1_655
As2 Ba1 3.441661 1_555
As2 Ba0 3.467744 1_645
As2 Ba0 3.467744 1_545
As3 Sn3 2.607311 1_555
As3 Ca3 2.961418 1_555
As3 Ca3 2.961418 1_655
As3 Ba0 3.441661 1_655
As3 Ba0 3.441661 1_555
As3 Ba1 3.467744 1_565
As3 Ba1 3.467744 1_665
As4 Sn3 2.650981 1_555
As4 Ca4 3.082276 1_655
As4 Ca4 3.082276 1_555
As4 Ca0 3.095672 1_555
As4 Ca0 3.095672 1_655
As4 Ba0 3.421267 1_655
As4 Ba0 3.421267 1_555
As5 Sn2 2.650981 1_555
As5 Ca4 3.082276 1_555
As5 Ca4 3.082276 1_655
As5 Ca1 3.095672 1_555
As5 Ca1 3.095672 1_655
As5 Ba1 3.421267 1_555
As5 Ba1 3.421267 1_655
As6 Sn1 2.650981 1_554
As6 Ca5 3.082276 1_655
As6 Ca5 3.082276 1_555
As6 Ca2 3.095672 1_555
As6 Ca2 3.095672 1_655
As6 Ba2 3.421267 1_555
As6 Ba2 3.421267 1_655
As7 Sn0 2.650981 1_556
As7 Ca5 3.082276 1_666
As7 Ca5 3.082276 1_566
As7 Ca3 3.095672 1_655
As7 Ca3 3.095672 1_555
As7 Ba3 3.421267 1_555
As7 Ba3 3.421267 1_655
As8 Sn0 2.675297 1_455
As8 Sn0 2.675297 1_555
As8 Ca5 3.129776 1_565
As8 Ca2 3.159979 1_565
As8 Ca0 3.258720 1_555
As8 Ba0 3.394014 1_555
As9 Sn1 2.675297 1_455
As9 Sn1 2.675297 1_555
As9 Ca5 3.129776 1_556
As9 Ca3 3.159979 1_545
As9 Ca1 3.258720 1_555
As9 Ba1 3.394014 1_555
As10 Sn2 2.675297 1_455
As10 Sn2 2.675297 1_555
As10 Ca4 3.129776 1_555
As10 Ca0 3.159979 1_555
As10 Ca2 3.258720 1_555
As10 Ba2 3.394014 1_555
As11 Sn3 2.675297 1_555
As11 Sn3 2.675297 1_455
As11 Ca4 3.129776 1_555
As11 Ca1 3.159979 1_555
As11 Ca3 3.258720 1_555
As11 Ba3 3.394014 1_555
