# generated using pymatgen
data_Zr3Ta6NbN12
_symmetry_space_group_name_H-M   'P 1'
_cell_length_a   5.28579630
_cell_length_b   5.28786476
_cell_length_c   10.53601742
_cell_angle_alpha   89.98956898
_cell_angle_beta   89.99438195
_cell_angle_gamma   120.13193315
_symmetry_Int_Tables_number   1
_chemical_formula_structural   Zr3Ta6NbN12
_chemical_formula_sum   'Zr3 Ta6 Nb1 N12'
_cell_volume   254.69413728
_cell_formula_units_Z   1
loop_
 _symmetry_equiv_pos_site_id
 _symmetry_equiv_pos_as_xyz
  1  'x, y, z'
loop_
 _atom_site_type_symbol
 _atom_site_label
 _atom_site_symmetry_multiplicity
 _atom_site_fract_x
 _atom_site_fract_y
 _atom_site_fract_z
 _atom_site_occupancy
  Zr  Zr0  1  0.66696958  0.33480732  0.00013067  1
  Zr  Zr1  1  0.33501934  0.66697131  0.00017092  1
  Zr  Zr2  1  0.33464270  0.66674062  0.49940495  1
  Ta  Ta0  1  0.31900081  0.99697982  0.74784823  1
  Ta  Ta1  1  0.00151171  0.32137033  0.74785501  1
  Ta  Ta2  1  0.32033705  0.32237394  0.25235958  1
  Ta  Ta3  1  0.67870742  0.99855758  0.25232193  1
  Ta  Ta4  1  0.00293012  0.68074110  0.25236564  1
  Ta  Ta5  1  0.66639166  0.33425827  0.50002267  1
  Nb  Nb0  1  0.67610642  0.67845477  0.74735776  1
  N  N0  1  0.66257988  0.65282456  0.37777108  1
  N  N1  1  0.34947567  0.01016908  0.37755865  1
  N  N2  1  0.99053668  0.33971624  0.37765654  1
  N  N3  1  0.34285493  0.33332458  0.62094783  1
  N  N4  1  0.65916135  0.01393412  0.62185675  1
  N  N5  1  0.99414951  0.64963522  0.62185570  1
  N  N6  1  0.33750110  0.33705292  0.87162153  1
  N  N7  1  0.65527314  0.00466881  0.87086510  1
  N  N8  1  0.00389933  0.65481226  0.87088698  1
  N  N9  1  0.65816398  0.65758257  0.12969752  1
  N  N10  1  0.34468736  0.00086328  0.12971582  1
  N  N11  1  0.00010225  0.34416030  0.12973112  1
loop_
_geom_bond_atom_site_label_1
_geom_bond_atom_site_label_2
_geom_bond_distance
_geom_bond_site_symmetry_2
N0 Ta5 2.128477 1_555
N0 Ta4 2.176435 1_655
N0 Zr2 2.186349 1_555
N0 Ta2 2.213481 1_555
N0 Ta3 2.222421 1_555
N1 Ta5 2.127647 1_555
N1 Ta2 2.178013 1_555
N1 Zr2 2.192778 1_545
N1 Ta3 2.209112 1_545
N1 Ta4 2.219775 1_545
N2 Ta5 2.132728 1_555
N2 Ta3 2.175078 1_545
N2 Zr2 2.188035 1_655
N2 Ta4 2.208902 1_655
N2 Ta2 2.224903 1_655
N3 Ta5 2.130489 1_555
N3 Ta0 2.177318 1_545
N3 Zr2 2.196854 1_555
N3 Ta1 2.220857 1_555
N3 Nb0 2.231849 1_555
N4 Ta5 2.110089 1_555
N4 Ta1 2.174279 1_655
N4 Zr2 2.194765 1_545
N4 Ta0 2.200155 1_545
N4 Nb0 2.249913 1_545
N5 Ta5 2.128566 1_555
N5 Zr2 2.178970 1_655
N5 Ta1 2.200890 1_655
N5 Nb0 2.203330 1_555
N5 Ta0 2.217889 1_655
N6 Ta1 2.171178 1_555
N6 Ta0 2.183632 1_545
N6 Zr0 2.210756 1_556
N6 Zr1 2.214024 1_556
N6 Nb0 2.220645 1_555
N7 Ta1 2.180668 1_655
N7 Ta0 2.183770 1_545
N7 Zr0 2.190617 1_556
N7 Nb0 2.207371 1_545
N7 Zr1 2.207740 1_546
N8 Ta0 2.168280 1_555
N8 Ta1 2.183534 1_555
N8 Zr1 2.193260 1_556
N8 Zr0 2.205092 1_456
N8 Nb0 2.220241 1_455
N9 Ta3 2.176283 1_555
N9 Ta4 2.186974 1_655
N9 Ta2 2.195833 1_555
N9 Zr0 2.204416 1_555
N9 Zr1 2.206344 1_555
N10 Ta4 2.174230 1_545
N10 Ta2 2.190229 1_555
N10 Ta3 2.192740 1_545
N10 Zr0 2.205175 1_555
N10 Zr1 2.212033 1_545
N11 Ta2 2.178061 1_555
N11 Ta3 2.185356 1_445
N11 Ta4 2.193511 1_555
N11 Zr1 2.208138 1_555
N11 Zr0 2.209228 1_455
