# generated using pymatgen
data_SrCaP2O7
_symmetry_space_group_name_H-M   'P 1'
_cell_length_a   6.83596015
_cell_length_b   6.83431203
_cell_length_c   6.87380735
_cell_angle_alpha   65.30377007
_cell_angle_beta   84.19337892
_cell_angle_gamma   88.34056283
_symmetry_Int_Tables_number   1
_chemical_formula_structural   SrCaP2O7
_chemical_formula_sum   'Sr2 Ca2 P4 O14'
_cell_volume   290.23679663
_cell_formula_units_Z   2
loop_
 _symmetry_equiv_pos_site_id
 _symmetry_equiv_pos_as_xyz
  1  'x, y, z'
loop_
 _atom_site_type_symbol
 _atom_site_label
 _atom_site_symmetry_multiplicity
 _atom_site_fract_x
 _atom_site_fract_y
 _atom_site_fract_z
 _atom_site_occupancy
  Sr  Sr0  1  0.86730123  0.69871093  0.26850389  1
  Sr  Sr1  1  0.13269877  0.30128907  0.73149611  1
  Ca  Ca0  1  0.34772487  0.73199879  0.90219966  1
  Ca  Ca1  1  0.65227513  0.26800121  0.09780034  1
  P  P0  1  0.85733401  0.77345095  0.76563030  1
  P  P1  1  0.14266599  0.22654905  0.23436970  1
  P  P2  1  0.35925431  0.81898160  0.36979788  1
  P  P3  1  0.64074569  0.18101840  0.63020212  1
  O  O0  1  0.01622119  0.84133678  0.86686548  1
  O  O1  1  0.98377881  0.15866322  0.13313452  1
  O  O2  1  0.75939343  0.98381911  0.59942165  1
  O  O3  1  0.24060657  0.01618089  0.40057835  1
  O  O4  1  0.56150941  0.91039993  0.26117811  1
  O  O5  1  0.43849059  0.08960007  0.73882189  1
  O  O6  1  0.93385045  0.65156296  0.63670182  1
  O  O7  1  0.06614955  0.34843704  0.36329818  1
  O  O8  1  0.69367910  0.65073640  0.94361914  1
  O  O9  1  0.30632090  0.34926360  0.05638086  1
  O  O10  1  0.75523321  0.24313486  0.77308108  1
  O  O11  1  0.24476679  0.75686514  0.22691892  1
  O  O12  1  0.36373550  0.65001353  0.59776035  1
  O  O13  1  0.63626450  0.34998647  0.40223965  1
loop_
_geom_bond_atom_site_label_1
_geom_bond_atom_site_label_2
_geom_bond_distance
_geom_bond_site_symmetry_2
Ca0 O5 2.296189 1_565
Ca0 O11 2.344886 1_556
Ca0 O0 2.369478 1_555
Ca0 O12 2.373824 1_555
Ca0 O9 2.389784 1_556
Ca0 O8 2.431138 1_555
Ca1 O4 2.296189 1_545
Ca1 O10 2.344886 1_554
Ca1 O1 2.369478 1_555
Ca1 O13 2.373824 1_555
Ca1 O8 2.389784 1_554
Ca1 O9 2.431138 1_555
O0 P0 1.526795 1_455
O0 Sr0 2.616964 1_456
O0 Sr1 2.988650 1_565
O1 P1 1.526795 1_655
O1 Sr1 2.616964 1_654
O1 Sr0 2.988650 1_545
O2 P0 1.595944 1_555
O2 P3 1.630705 1_565
O3 P1 1.595944 1_555
O3 P2 1.630705 1_545
O4 P2 1.520121 1_555
O4 Sr0 2.500115 1_555
O5 P3 1.520121 1_555
O5 Sr1 2.500115 1_555
O6 P0 1.500260 1_555
O6 Sr0 2.501874 1_555
O6 Sr1 2.586565 1_655
O7 P1 1.500260 1_555
O7 Sr1 2.501874 1_555
O7 Sr0 2.586565 1_455
O8 P0 1.540058 1_555
O8 Sr0 2.770203 1_556
O9 P1 1.540058 1_555
O9 Sr1 2.770203 1_554
O10 P3 1.510121 1_555
O10 Sr1 2.590954 1_655
O11 P2 1.510121 1_555
O11 Sr0 2.590954 1_455
O12 P2 1.511776 1_555
O12 Sr1 2.667021 1_555
O13 P3 1.511776 1_555
O13 Sr0 2.667021 1_555
