# generated using pymatgen
data_K2Rb6ZrSb4
_symmetry_space_group_name_H-M   'P 1'
_cell_length_a   11.90211499
_cell_length_b   11.90211466
_cell_length_c   11.90211448
_cell_angle_alpha   59.99999778
_cell_angle_beta   59.99999871
_cell_angle_gamma   59.99999977
_symmetry_Int_Tables_number   1
_chemical_formula_structural   K2Rb6ZrSb4
_chemical_formula_sum   'K4 Rb12 Zr2 Sb8'
_cell_volume   1192.22269440
_cell_formula_units_Z   2
loop_
 _symmetry_equiv_pos_site_id
 _symmetry_equiv_pos_as_xyz
  1  'x, y, z'
loop_
 _atom_site_type_symbol
 _atom_site_label
 _atom_site_symmetry_multiplicity
 _atom_site_fract_x
 _atom_site_fract_y
 _atom_site_fract_z
 _atom_site_occupancy
  K  K0  1  0.62500000  0.12500000  0.62500000  1
  K  K1  1  0.62500000  0.62500000  0.12500000  1
  K  K2  1  0.12500000  0.62500000  0.62500000  1
  K  K3  1  0.62500000  0.62500000  0.62500000  1
  Rb  Rb0  1  0.02625158  0.02625158  0.47374842  1
  Rb  Rb1  1  0.77625158  0.22374842  0.22374842  1
  Rb  Rb2  1  0.22374842  0.77625158  0.77625158  1
  Rb  Rb3  1  0.77625158  0.77625158  0.22374842  1
  Rb  Rb4  1  0.77625158  0.22374842  0.77625158  1
  Rb  Rb5  1  0.22374842  0.77625158  0.22374842  1
  Rb  Rb6  1  0.47374842  0.02625158  0.47374842  1
  Rb  Rb7  1  0.47374842  0.02625158  0.02625158  1
  Rb  Rb8  1  0.02625158  0.47374842  0.47374842  1
  Rb  Rb9  1  0.02625158  0.47374842  0.02625158  1
  Rb  Rb10  1  0.22374842  0.22374842  0.77625158  1
  Rb  Rb11  1  0.47374842  0.47374842  0.02625158  1
  Zr  Zr0  1  0.75000000  0.75000000  0.75000000  1
  Zr  Zr1  1  0.50000000  0.50000000  0.50000000  1
  Sb  Sb0  1  0.40142501  0.79572298  0.40142501  1
  Sb  Sb1  1  0.84857499  0.84857499  0.45427702  1
  Sb  Sb2  1  0.45427702  0.84857499  0.84857499  1
  Sb  Sb3  1  0.84857499  0.84857499  0.84857499  1
  Sb  Sb4  1  0.79572298  0.40142501  0.40142501  1
  Sb  Sb5  1  0.40142501  0.40142501  0.40142501  1
  Sb  Sb6  1  0.40142501  0.40142501  0.79572298  1
  Sb  Sb7  1  0.84857499  0.45427702  0.84857499  1
loop_
_geom_bond_atom_site_label_1
_geom_bond_atom_site_label_2
_geom_bond_distance
_geom_bond_site_symmetry_2
K0 Zr0 3.644263 1_545
K0 Zr1 3.644263 1_555
K0 Sb4 3.815438 1_555
K0 Sb2 3.815438 1_545
K0 Sb6 3.815438 1_555
K0 Sb1 3.815438 1_545
K0 Sb3 3.815453 1_545
K0 Sb5 3.815453 1_555
K1 Zr0 3.644263 1_554
K1 Zr1 3.644263 1_555
K1 Sb4 3.815438 1_555
K1 Sb2 3.815438 1_554
K1 Sb0 3.815438 1_555
K1 Sb7 3.815438 1_554
K1 Sb3 3.815453 1_554
K1 Sb5 3.815453 1_555
K2 Zr1 3.644264 1_555
K2 Zr0 3.644264 1_455
K2 Sb0 3.815438 1_555
K2 Sb7 3.815438 1_455
K2 Sb6 3.815438 1_555
K2 Sb1 3.815438 1_455
K2 Sb3 3.815453 1_455
K2 Sb5 3.815453 1_555
K3 Zr0 3.644264 1_555
K3 Zr1 3.644264 1_555
K3 Sb2 3.815457 1_555
K3 Sb4 3.815457 1_555
K3 Sb1 3.815457 1_555
K3 Sb6 3.815457 1_555
K3 Sb7 3.815457 1_555
K3 Sb0 3.815457 1_555
Rb0 Sb1 3.801329 1_445
Rb0 Sb3 3.801343 1_445
Rb0 Sb4 3.804579 1_455
Rb0 Sb0 3.804579 1_545
Rb1 Sb4 3.801329 1_555
Rb1 Sb5 3.801344 1_555
Rb1 Sb7 3.804579 1_554
Rb1 Sb1 3.804579 1_545
Rb2 Sb0 3.801349 1_555
Rb2 Sb6 3.801349 1_555
Rb2 Sb3 3.804574 1_455
Rb2 Sb2 3.804596 1_555
Rb3 Sb4 3.801349 1_555
Rb3 Sb0 3.801349 1_555
Rb3 Sb3 3.804573 1_554
Rb3 Sb1 3.804596 1_555
Rb4 Sb4 3.801349 1_555
Rb4 Sb6 3.801349 1_555
Rb4 Sb3 3.804573 1_545
Rb4 Sb7 3.804596 1_555
Rb5 Sb0 3.801329 1_555
Rb5 Sb5 3.801343 1_555
Rb5 Sb2 3.804579 1_554
Rb5 Sb1 3.804579 1_455
Rb6 Sb2 3.801349 1_545
Rb6 Sb1 3.801349 1_545
Rb6 Sb5 3.804573 1_555
Rb6 Sb0 3.804596 1_545
Rb7 Sb2 3.801329 1_544
Rb7 Sb3 3.801344 1_544
Rb7 Sb0 3.804579 1_545
Rb7 Sb6 3.804579 1_554
Rb8 Sb7 3.801349 1_455
Rb8 Sb1 3.801349 1_455
Rb8 Sb5 3.804574 1_555
Rb8 Sb4 3.804596 1_455
Rb9 Sb7 3.801329 1_454
Rb9 Sb3 3.801343 1_454
Rb9 Sb4 3.804579 1_455
Rb9 Sb6 3.804579 1_554
Rb10 Sb6 3.801329 1_555
Rb10 Sb5 3.801343 1_555
Rb10 Sb2 3.804579 1_545
Rb10 Sb7 3.804579 1_455
Rb11 Sb2 3.801349 1_554
Rb11 Sb7 3.801349 1_554
Rb11 Sb5 3.804573 1_555
Rb11 Sb6 3.804596 1_554
Sb0 Zr1 2.873847 1_555
Sb1 Zr0 2.873846 1_555
Sb2 Zr0 2.873847 1_555
Sb3 Zr0 2.873866 1_555
Sb4 Zr1 2.873847 1_555
Sb5 Zr1 2.873866 1_555
Sb6 Zr1 2.873846 1_555
Sb7 Zr0 2.873847 1_555
