# generated using pymatgen
data_Cs3Li2NbAs3
_symmetry_space_group_name_H-M   'P 1'
_cell_length_a   10.22022593
_cell_length_b   10.22022652
_cell_length_c   17.22062277
_cell_angle_alpha   90.00000000
_cell_angle_beta   90.00000000
_cell_angle_gamma   142.35497648
_symmetry_Int_Tables_number   1
_chemical_formula_structural   Cs3Li2NbAs3
_chemical_formula_sum   'Cs12 Li8 Nb4 As12'
_cell_volume   1098.61578711
_cell_formula_units_Z   4
loop_
 _symmetry_equiv_pos_site_id
 _symmetry_equiv_pos_as_xyz
  1  'x, y, z'
loop_
 _atom_site_type_symbol
 _atom_site_label
 _atom_site_symmetry_multiplicity
 _atom_site_fract_x
 _atom_site_fract_y
 _atom_site_fract_z
 _atom_site_occupancy
  Cs  Cs0  1  0.94650288  0.60591904  0.82973699  1
  Cs  Cs1  1  0.55349712  0.89408096  0.32973699  1
  Cs  Cs2  1  0.39408096  0.05349712  0.17026301  1
  Cs  Cs3  1  0.05349712  0.39408096  0.17026301  1
  Cs  Cs4  1  0.89408096  0.55349712  0.32973699  1
  Cs  Cs5  1  0.44650288  0.10591904  0.67026301  1
  Cs  Cs6  1  0.60591904  0.94650288  0.82973699  1
  Cs  Cs7  1  0.28593347  0.28593347  0.31590483  1
  Cs  Cs8  1  0.78593347  0.78593347  0.18409517  1
  Cs  Cs9  1  0.21406653  0.21406653  0.81590483  1
  Cs  Cs10  1  0.71406653  0.71406653  0.68409517  1
  Cs  Cs11  1  0.10591904  0.44650288  0.67026301  1
  Li  Li0  1  0.91921216  0.08078784  0.00000000  1
  Li  Li1  1  0.58078784  0.41921216  0.50000000  1
  Li  Li2  1  0.08078784  0.91921216  0.00000000  1
  Li  Li3  1  0.41921216  0.58078784  0.50000000  1
  Li  Li4  1  0.74956528  0.25043472  0.00000000  1
  Li  Li5  1  0.75043472  0.24956528  0.50000000  1
  Li  Li6  1  0.25043472  0.74956528  0.00000000  1
  Li  Li7  1  0.24956528  0.75043472  0.50000000  1
  Nb  Nb0  1  0.58186222  0.41813778  0.00000000  1
  Nb  Nb1  1  0.91813778  0.08186222  0.50000000  1
  Nb  Nb2  1  0.41813778  0.58186222  0.00000000  1
  Nb  Nb3  1  0.08186222  0.91813778  0.50000000  1
  As  As0  1  0.88689725  0.57012849  0.07834035  1
  As  As1  1  0.42987151  0.11310275  0.92165965  1
  As  As2  1  0.61310275  0.92987151  0.57834035  1
  As  As3  1  0.92987151  0.61310275  0.57834035  1
  As  As4  1  0.11310275  0.42987151  0.92165965  1
  As  As5  1  0.57012849  0.88689725  0.07834035  1
  As  As6  1  0.38689725  0.07012849  0.42165965  1
  As  As7  1  0.22019193  0.22019193  0.58306088  1
  As  As8  1  0.72019193  0.72019193  0.91693912  1
  As  As9  1  0.27980807  0.27980807  0.08306088  1
  As  As10  1  0.07012849  0.38689725  0.42165965  1
  As  As11  1  0.77980807  0.77980807  0.41693912  1
loop_
_geom_bond_atom_site_label_1
_geom_bond_atom_site_label_2
_geom_bond_distance
_geom_bond_site_symmetry_2
As0 Nb0 2.506581 1_555
As0 Li4 2.683868 1_555
As0 Li2 2.698046 1_655
As0 Li6 2.863093 1_655
As0 Cs8 3.584701 1_555
As0 Cs2 3.636951 1_665
As0 Cs3 3.673380 1_655
As0 Cs2 3.693009 1_555
As1 Nb0 2.506582 1_556
As1 Li4 2.683868 1_556
As1 Li2 2.698046 1_546
As1 Li6 2.863093 1_546
As1 Cs9 3.584701 1_555
As1 Cs0 3.636951 1_445
As1 Cs6 3.673380 1_545
As1 Cs0 3.693009 1_555
As2 Nb1 2.506581 1_565
As2 Li5 2.683868 1_565
As2 Li3 2.698046 1_555
As2 Li7 2.863093 1_555
As2 Cs10 3.584701 1_555
As2 Cs11 3.636951 1_555
As2 Cs5 3.673380 1_565
As2 Cs11 3.693009 1_665
As3 Nb3 2.506582 1_655
As3 Li7 2.683868 1_655
As3 Li1 2.698046 1_555
As3 Li5 2.863093 1_555
As3 Cs10 3.584701 1_555
As3 Cs5 3.636951 1_555
As3 Cs11 3.673380 1_655
As3 Cs5 3.693009 1_665
As4 Nb2 2.506581 1_556
As4 Li6 2.683868 1_556
As4 Li0 2.698046 1_456
As4 Li4 2.863093 1_456
As4 Cs9 3.584701 1_555
As4 Cs6 3.636951 1_445
As4 Cs0 3.673380 1_455
As4 Cs6 3.693009 1_555
As5 Nb2 2.506582 1_555
As5 Li6 2.683868 1_555
As5 Li0 2.698046 1_565
As5 Li4 2.863093 1_565
As5 Cs8 3.584701 1_555
As5 Cs3 3.636951 1_665
As5 Cs2 3.673380 1_565
As5 Cs3 3.693009 1_555
As6 Nb3 2.506581 1_545
As6 Li7 2.683868 1_545
As6 Li1 2.698046 1_555
As6 Li5 2.863093 1_555
As6 Cs7 3.584701 1_555
As6 Cs4 3.636951 1_555
As6 Cs1 3.673380 1_545
As6 Cs4 3.693009 1_445
As7 Nb1 2.581298 1_455
As7 Nb3 2.581298 1_545
As7 Li1 2.809645 1_555
As7 Li3 2.809646 1_555
As7 Cs5 3.639580 1_555
As7 Cs11 3.639580 1_555
As7 Cs10 3.692618 1_555
As7 Cs10 3.764072 1_445
As7 Cs9 4.009921 1_555
As8 Nb2 2.581298 1_556
As8 Nb0 2.581298 1_556
As8 Li2 2.809645 1_656
As8 Li0 2.809646 1_566
As8 Cs0 3.639580 1_555
As8 Cs6 3.639580 1_555
As8 Cs9 3.692618 1_665
As8 Cs9 3.764072 1_555
As8 Cs10 4.009921 1_555
As9 Nb0 2.581298 1_555
As9 Nb2 2.581298 1_555
As9 Li0 2.809645 1_455
As9 Li2 2.809646 1_545
As9 Cs3 3.639580 1_555
As9 Cs2 3.639580 1_555
As9 Cs8 3.692618 1_445
As9 Cs8 3.764072 1_555
As9 Cs7 4.009921 1_555
As10 Nb1 2.506582 1_455
As10 Li5 2.683868 1_455
As10 Li3 2.698046 1_555
As10 Li7 2.863093 1_555
As10 Cs7 3.584701 1_555
As10 Cs1 3.636951 1_555
As10 Cs4 3.673380 1_455
As10 Cs1 3.693009 1_445
As11 Nb3 2.581298 1_655
As11 Nb1 2.581298 1_565
As11 Li3 2.809645 1_555
As11 Li1 2.809646 1_555
As11 Cs1 3.639580 1_555
As11 Cs4 3.639580 1_555
As11 Cs7 3.692618 1_555
As11 Cs7 3.764072 1_665
As11 Cs8 4.009921 1_555
