# generated using pymatgen
data_Li3Mn2(PO4)3
_symmetry_space_group_name_H-M   'P 1'
_cell_length_a   8.72346400
_cell_length_b   8.50426500
_cell_length_c   14.49407949
_cell_angle_alpha   57.25532512
_cell_angle_beta   90.00000000
_cell_angle_gamma   90.00000000
_symmetry_Int_Tables_number   1
_chemical_formula_structural   Li3Mn2(PO4)3
_chemical_formula_sum   'Li12 Mn8 P12 O48'
_cell_volume   904.39572043
_cell_formula_units_Z   4
loop_
 _symmetry_equiv_pos_site_id
 _symmetry_equiv_pos_as_xyz
  1  'x, y, z'
loop_
 _atom_site_type_symbol
 _atom_site_label
 _atom_site_symmetry_multiplicity
 _atom_site_fract_x
 _atom_site_fract_y
 _atom_site_fract_z
 _atom_site_occupancy
  Li  Li0  1  0.01298300  0.71775300  0.84320100  1
  Li  Li1  1  0.21533900  0.00167600  0.17574600  1
  Li  Li2  1  0.98701700  0.28224700  0.15679900  1
  Li  Li3  1  0.28466100  0.00167600  0.67574600  1
  Li  Li4  1  0.08440100  0.60451600  0.31198600  1
  Li  Li5  1  0.58440100  0.39548400  0.18801400  1
  Li  Li6  1  0.48701700  0.71775300  0.34320100  1
  Li  Li7  1  0.71533900  0.99832400  0.32425400  1
  Li  Li8  1  0.51298300  0.28224700  0.65679900  1
  Li  Li9  1  0.78466100  0.99832400  0.82425400  1
  Li  Li10  1  0.91559900  0.39548400  0.68801400  1
  Li  Li11  1  0.41559900  0.60451600  0.81198600  1
  Mn  Mn0  1  0.96394100  0.13887700  0.60790400  1
  Mn  Mn1  1  0.96811200  0.34818000  0.89696000  1
  Mn  Mn2  1  0.53188800  0.34818000  0.39696000  1
  Mn  Mn3  1  0.03605900  0.86112300  0.39209600  1
  Mn  Mn4  1  0.46811200  0.65182000  0.60304000  1
  Mn  Mn5  1  0.03188800  0.65182000  0.10304000  1
  Mn  Mn6  1  0.46394100  0.86112300  0.89209600  1
  Mn  Mn7  1  0.53605900  0.13887700  0.10790400  1
  P  P0  1  0.61053500  0.96237500  0.65234500  1
  P  P1  1  0.87901800  0.26310300  0.35200400  1
  P  P2  1  0.24995800  0.44305000  0.00979300  1
  P  P3  1  0.11053500  0.03762500  0.84765500  1
  P  P4  1  0.25004200  0.44305000  0.50979300  1
  P  P5  1  0.88946500  0.96237500  0.15234500  1
  P  P6  1  0.62098200  0.26310300  0.85200400  1
  P  P7  1  0.38946500  0.03762500  0.34765500  1
  P  P8  1  0.75004200  0.55695000  0.99020700  1
  P  P9  1  0.74995800  0.55695000  0.49020700  1
  P  P10  1  0.37901800  0.73689700  0.14799600  1
  P  P11  1  0.12098200  0.73689700  0.64799600  1
  O  O0  1  0.31968700  0.24432200  0.06255500  1
  O  O1  1  0.19942600  0.71006800  0.16774600  1
  O  O2  1  0.27239600  0.01812000  0.81007000  1
  O  O3  1  0.10859200  0.16159900  0.89444200  1
  O  O4  1  0.18031300  0.24432200  0.56255500  1
  O  O5  1  0.13433000  0.47589800  0.91823400  1
  O  O6  1  0.16640200  0.45476700  0.10061400  1
  O  O7  1  0.99869300  0.13368900  0.74438000  1
  O  O8  1  0.59359200  0.15655700  0.97671300  1
  O  O9  1  0.49869300  0.86631100  0.75562000  1
  O  O10  1  0.50130700  0.13368900  0.24438000  1
  O  O11  1  0.63116200  0.40331500  0.05402400  1
  O  O12  1  0.77239600  0.98188000  0.68993000  1
  O  O13  1  0.66640200  0.54523300  0.39938600  1
  O  O14  1  0.69942600  0.28993200  0.33225400  1
  O  O15  1  0.08479200  0.86764800  0.68984800  1
  O  O16  1  0.46871900  0.55505200  0.21342000  1
  O  O17  1  0.04181800  0.84051000  0.92561000  1
  O  O18  1  0.45818200  0.84051000  0.42561000  1
  O  O19  1  0.58479200  0.13235200  0.81015200  1
  O  O20  1  0.96871900  0.44494800  0.28658000  1
  O  O21  1  0.33359800  0.45476700  0.60061400  1
  O  O22  1  0.83359800  0.54523300  0.89938600  1
  O  O23  1  0.13116200  0.59668500  0.44597600  1
  O  O24  1  0.39140800  0.16159900  0.39444200  1
  O  O25  1  0.68031300  0.75567800  0.93744500  1
  O  O26  1  0.72760400  0.98188000  0.18993000  1
  O  O27  1  0.90640800  0.15655700  0.47671300  1
  O  O28  1  0.00130700  0.86631100  0.25562000  1
  O  O29  1  0.86567000  0.52410200  0.08176600  1
  O  O30  1  0.03128100  0.55505200  0.71342000  1
  O  O31  1  0.54181800  0.15949000  0.57439000  1
  O  O32  1  0.41520800  0.86764800  0.18984800  1
  O  O33  1  0.30057400  0.71006800  0.66774600  1
  O  O34  1  0.36883800  0.59668500  0.94597600  1
  O  O35  1  0.63433000  0.52410200  0.58176600  1
  O  O36  1  0.89140800  0.83840100  0.10555800  1
  O  O37  1  0.86883800  0.40331500  0.55402400  1
  O  O38  1  0.22760400  0.01812000  0.31007000  1
  O  O39  1  0.09359200  0.84344300  0.52328700  1
  O  O40  1  0.53128100  0.44494800  0.78658000  1
  O  O41  1  0.81968700  0.75567800  0.43744500  1
  O  O42  1  0.95818200  0.15949000  0.07439000  1
  O  O43  1  0.60859200  0.83840100  0.60555800  1
  O  O44  1  0.91520800  0.13235200  0.31015200  1
  O  O45  1  0.80057400  0.28993200  0.83225400  1
  O  O46  1  0.36567000  0.47589800  0.41823400  1
  O  O47  1  0.40640800  0.84344300  0.02328700  1
loop_
_geom_bond_atom_site_label_1
_geom_bond_atom_site_label_2
_geom_bond_distance
_geom_bond_site_symmetry_2
Li0 O15 1.972989 1_555
Li0 O17 1.982108 1_555
Li0 O22 1.992986 1_455
Li0 O5 2.028280 1_555
Li1 O38 2.028784 1_555
Li1 O0 2.028789 1_555
Li1 O32 2.031965 1_545
Li1 O28 2.170212 1_545
Li2 O44 1.972989 1_555
Li2 O42 1.982108 1_555
Li2 O6 1.992986 1_655
Li2 O29 2.028280 1_555
Li3 O2 2.028784 1_555
Li3 O4 2.028789 1_555
Li3 O15 2.031965 1_545
Li3 O9 2.170212 1_545
Li4 O20 1.880431 1_455
Li4 O23 1.950006 1_555
Li4 O1 2.037939 1_555
Li4 O28 2.044984 1_555
Li5 O16 1.880431 1_555
Li5 O11 1.950006 1_555
Li5 O14 2.037939 1_555
Li5 O10 2.044984 1_555
Li6 O32 1.972989 1_555
Li6 O18 1.982108 1_555
Li6 O13 1.992986 1_555
Li6 O46 2.028280 1_555
Li7 O26 2.028784 1_555
Li7 O41 2.028789 1_555
Li7 O44 2.031965 1_565
Li7 O10 2.170212 1_565
Li8 O19 1.972989 1_555
Li8 O31 1.982108 1_555
Li8 O21 1.992986 1_555
Li8 O35 2.028280 1_555
Li9 O12 2.028784 1_555
Li9 O25 2.028789 1_555
Li9 O19 2.031965 1_565
Li9 O7 2.170212 1_565
Li10 O30 1.880431 1_655
Li10 O37 1.950006 1_555
Li10 O45 2.037939 1_555
Li10 O7 2.044984 1_555
Li11 O40 1.880431 1_555
Li11 O34 1.950006 1_555
Li11 O33 2.037939 1_555
Li11 O9 2.044984 1_555
Mn0 O27 1.892323 1_555
Mn0 O7 1.977952 1_555
Mn0 O4 2.039913 1_655
Mn0 O12 2.066622 1_545
Mn0 O37 2.110833 1_555
Mn0 O15 2.208810 1_645
Mn1 O5 1.933802 1_655
Mn1 O45 1.939983 1_555
Mn1 O3 2.020764 1_655
Mn1 O22 2.061599 1_555
Mn1 O42 2.175268 1_556
Mn1 O30 2.326525 1_655
Mn2 O46 1.933802 1_555
Mn2 O14 1.939983 1_555
Mn2 O24 2.020764 1_555
Mn2 O13 2.061599 1_555
Mn2 O31 2.175268 1_555
Mn2 O16 2.326525 1_555
Mn3 O39 1.892323 1_555
Mn3 O28 1.977952 1_555
Mn3 O41 2.039913 1_455
Mn3 O38 2.066622 1_565
Mn3 O23 2.110833 1_555
Mn3 O44 2.208810 1_465
Mn4 O35 1.933802 1_555
Mn4 O33 1.939983 1_555
Mn4 O43 2.020764 1_555
Mn4 O21 2.061599 1_555
Mn4 O18 2.175268 1_555
Mn4 O40 2.326525 1_555
Mn5 O29 1.933802 1_455
Mn5 O1 1.939983 1_555
Mn5 O36 2.020764 1_455
Mn5 O6 2.061599 1_555
Mn5 O17 2.175268 1_554
Mn5 O20 2.326525 1_455
Mn6 O47 1.892323 1_556
Mn6 O9 1.977952 1_555
Mn6 O25 2.039913 1_555
Mn6 O2 2.066622 1_565
Mn6 O34 2.110833 1_555
Mn6 O19 2.208810 1_565
Mn7 O8 1.892323 1_554
Mn7 O10 1.977952 1_555
Mn7 O0 2.039913 1_555
Mn7 O26 2.066622 1_545
Mn7 O11 2.110833 1_555
Mn7 O32 2.208810 1_545
O0 P2 1.553352 1_555
O1 P10 1.586752 1_555
O2 P3 1.554266 1_555
O3 P3 1.531391 1_555
O4 P4 1.553352 1_555
O5 P2 1.567012 1_556
O6 P2 1.554329 1_555
O7 P3 1.592810 1_655
O8 P6 1.540630 1_555
O9 P0 1.592810 1_555
O10 P7 1.592810 1_555
O11 P8 1.526677 1_554
O12 P0 1.554266 1_555
O13 P9 1.554329 1_555
O14 P1 1.586752 1_555
O15 P11 1.560042 1_555
O16 P10 1.522055 1_555
O17 P3 1.548244 1_565
O18 P7 1.548244 1_565
O19 P6 1.560042 1_555
O20 P1 1.522055 1_555
O21 P4 1.554329 1_555
O22 P8 1.554329 1_555
O23 P4 1.526677 1_555
O24 P7 1.531391 1_555
O25 P8 1.553352 1_555
O26 P5 1.554266 1_555
O27 P1 1.540630 1_555
O28 P5 1.592810 1_455
O29 P8 1.567012 1_554
O30 P11 1.522055 1_555
O31 P0 1.548244 1_545
O32 P10 1.560042 1_555
O33 P11 1.586752 1_555
O34 P2 1.526677 1_556
O35 P9 1.567012 1_555
O36 P5 1.531391 1_555
O37 P9 1.526677 1_555
O38 P7 1.554266 1_555
O39 P11 1.540630 1_555
O40 P6 1.522055 1_555
O41 P9 1.553352 1_555
O42 P5 1.548244 1_545
O43 P0 1.531391 1_555
O44 P1 1.560042 1_555
O45 P6 1.586752 1_555
O46 P4 1.567012 1_555
O47 P10 1.540630 1_555
