# generated using pymatgen
data_Rb2LiNbO4
_symmetry_space_group_name_H-M   'P 1'
_cell_length_a   6.00329674
_cell_length_b   6.00329579
_cell_length_c   8.10328881
_cell_angle_alpha   90.19011914
_cell_angle_beta   90.19011983
_cell_angle_gamma   83.78850448
_symmetry_Int_Tables_number   1
_chemical_formula_structural   Rb2LiNbO4
_chemical_formula_sum   'Rb4 Li2 Nb2 O8'
_cell_volume   290.32164705
_cell_formula_units_Z   2
loop_
 _symmetry_equiv_pos_site_id
 _symmetry_equiv_pos_as_xyz
  1  'x, y, z'
loop_
 _atom_site_type_symbol
 _atom_site_label
 _atom_site_symmetry_multiplicity
 _atom_site_fract_x
 _atom_site_fract_y
 _atom_site_fract_z
 _atom_site_occupancy
  Rb  Rb0  1  0.28544945  0.28544945  0.18893970  1
  Rb  Rb1  1  0.21685991  0.78314009  0.50000000  1
  Rb  Rb2  1  0.71455055  0.71455055  0.81106030  1
  Rb  Rb3  1  0.78314009  0.21685991  0.50000000  1
  Li  Li0  1  0.17331743  0.82668257  1.00000000  1
  Li  Li1  1  0.82668257  0.17331743  0.00000000  1
  Nb  Nb0  1  0.29484063  0.29484063  0.76740708  1
  Nb  Nb1  1  0.70515937  0.70515937  0.23259292  1
  O  O0  1  0.78623916  0.40665834  0.17128117  1
  O  O1  1  0.89082079  0.89082079  0.12675998  1
  O  O2  1  0.40665834  0.78623916  0.17128117  1
  O  O3  1  0.10917921  0.10917921  0.87324002  1
  O  O4  1  0.72989108  0.72989108  0.46314710  1
  O  O5  1  0.59334166  0.21376084  0.82871883  1
  O  O6  1  0.21376084  0.59334166  0.82871883  1
  O  O7  1  0.27010892  0.27010892  0.53685290  1
loop_
_geom_bond_atom_site_label_1
_geom_bond_atom_site_label_2
_geom_bond_distance
_geom_bond_site_symmetry_2
Li0 O6 1.965539 1_555
Li0 O2 1.965539 1_556
Li0 O3 1.986727 1_565
Li0 O1 1.986727 1_456
Li1 O0 1.965539 1_555
Li1 O5 1.965539 1_554
Li1 O1 1.986727 1_545
Li1 O3 1.986727 1_654
Nb0 O3 1.871247 1_555
Nb0 O6 1.871345 1_555
Nb0 O5 1.871345 1_555
Nb0 O7 1.880299 1_555
Nb1 O1 1.871247 1_555
Nb1 O0 1.871345 1_555
Nb1 O2 1.871345 1_555
Nb1 O4 1.880299 1_555
O0 Rb3 2.901550 1_555
O0 Rb0 3.009544 1_655
O0 Rb0 3.172581 1_555
O1 Rb2 2.998398 1_554
O2 Rb1 2.901550 1_555
O2 Rb0 3.009543 1_565
O2 Rb0 3.172580 1_555
O3 Rb0 2.998398 1_556
O4 Rb2 2.823183 1_555
O4 Rb3 2.988903 1_565
O4 Rb1 2.988904 1_655
O4 Rb3 3.077244 1_555
O4 Rb1 3.077245 1_555
O5 Rb3 2.901550 1_555
O5 Rb2 3.009543 1_545
O5 Rb2 3.172580 1_555
O6 Rb1 2.901550 1_555
O6 Rb2 3.009544 1_455
O6 Rb2 3.172581 1_555
O7 Rb0 2.823183 1_555
O7 Rb1 2.988903 1_545
O7 Rb3 2.988904 1_455
O7 Rb1 3.077244 1_555
O7 Rb3 3.077245 1_555
