# generated using pymatgen
data_Ba4YTcO8
_symmetry_space_group_name_H-M   'P 1'
_cell_length_a   7.41886871
_cell_length_b   7.41886733
_cell_length_c   5.90901612
_cell_angle_alpha   90.00000000
_cell_angle_beta   90.00000000
_cell_angle_gamma   133.34138026
_symmetry_Int_Tables_number   1
_chemical_formula_structural   Ba4YTcO8
_chemical_formula_sum   'Ba4 Y1 Tc1 O8'
_cell_volume   236.53230818
_cell_formula_units_Z   1
loop_
 _symmetry_equiv_pos_site_id
 _symmetry_equiv_pos_as_xyz
  1  'x, y, z'
loop_
 _atom_site_type_symbol
 _atom_site_label
 _atom_site_symmetry_multiplicity
 _atom_site_fract_x
 _atom_site_fract_y
 _atom_site_fract_z
 _atom_site_occupancy
  Ba  Ba0  1  0.35359758  0.64640242  0.00000000  1
  Ba  Ba1  1  0.85156990  0.14843010  0.50000000  1
  Ba  Ba2  1  0.14843010  0.85156990  0.50000000  1
  Ba  Ba3  1  0.64640242  0.35359758  0.00000000  1
  Y  Y0  1  0.00000000  0.00000000  0.00000000  1
  Tc  Tc0  1  0.50000000  0.50000000  0.50000000  1
  O  O0  1  0.26484277  0.26484277  0.73042379  1
  O  O1  1  0.73515723  0.73515723  0.26957621  1
  O  O2  1  0.73515723  0.73515723  0.73042379  1
  O  O3  1  0.26484277  0.26484277  0.26957621  1
  O  O4  1  0.16465796  0.83534204  0.00000000  1
  O  O5  1  0.64996165  0.35003835  0.50000000  1
  O  O6  1  0.35003835  0.64996165  0.50000000  1
  O  O7  1  0.83534204  0.16465796  0.00000000  1
loop_
_geom_bond_atom_site_label_1
_geom_bond_atom_site_label_2
_geom_bond_distance
_geom_bond_site_symmetry_2
Ba0 O4 2.574238 1_555
Ba0 O3 2.902670 1_555
Ba0 O0 2.902670 1_554
Ba0 O1 2.902671 1_555
Ba0 O2 2.902671 1_554
Ba0 O7 2.948495 1_565
Ba0 O7 2.948495 1_455
Ba0 O6 2.954906 1_554
Ba0 O6 2.954906 1_555
Ba1 O5 2.746844 1_555
Ba1 O2 2.892302 1_545
Ba1 O1 2.892302 1_545
Ba1 O0 2.892303 1_655
Ba1 O3 2.892303 1_655
Ba1 O6 2.938059 1_655
Ba1 O6 2.938059 1_545
Ba1 O7 2.962769 1_556
Ba1 O7 2.962769 1_555
Ba2 O6 2.746844 1_555
Ba2 O0 2.892302 1_565
Ba2 O3 2.892302 1_565
Ba2 O2 2.892303 1_455
Ba2 O1 2.892303 1_455
Ba2 O5 2.938059 1_455
Ba2 O5 2.938059 1_565
Ba2 O4 2.962769 1_556
Ba2 O4 2.962769 1_555
Ba3 O7 2.574238 1_555
Ba3 O1 2.902670 1_555
Ba3 O2 2.902670 1_554
Ba3 O3 2.902671 1_555
Ba3 O0 2.902671 1_554
Ba3 O4 2.948495 1_545
Ba3 O4 2.948495 1_655
Ba3 O5 2.954906 1_555
Ba3 O5 2.954906 1_554
O0 Tc0 1.939897 1_555
O0 Y0 2.226929 1_556
O1 Tc0 1.939897 1_555
O1 Y0 2.226929 1_665
O2 Tc0 1.939897 1_555
O2 Y0 2.226929 1_666
O3 Tc0 1.939897 1_555
O3 Y0 2.226929 1_555
O4 Y0 2.243409 1_565
O5 Tc0 2.043177 1_555
O6 Tc0 2.043177 1_555
O7 Y0 2.243409 1_655
