# generated using pymatgen
data_Rb4MnCdTe4
_symmetry_space_group_name_H-M   'P 1'
_cell_length_a   9.09478240
_cell_length_b   9.09478187
_cell_length_c   9.09478157
_cell_angle_alpha   133.32127927
_cell_angle_beta   129.71909200
_cell_angle_gamma   71.02758962
_symmetry_Int_Tables_number   1
_chemical_formula_structural   Rb4MnCdTe4
_chemical_formula_sum   'Rb4 Mn1 Cd1 Te4'
_cell_volume   412.25023648
_cell_formula_units_Z   1
loop_
 _symmetry_equiv_pos_site_id
 _symmetry_equiv_pos_as_xyz
  1  'x, y, z'
loop_
 _atom_site_type_symbol
 _atom_site_label
 _atom_site_symmetry_multiplicity
 _atom_site_fract_x
 _atom_site_fract_y
 _atom_site_fract_z
 _atom_site_occupancy
  Rb  Rb0  1  0.46642701  0.14042512  0.32090568  1
  Rb  Rb1  1  0.81951944  0.64552132  0.17909432  1
  Rb  Rb2  1  0.53357299  0.85447868  0.67399811  1
  Rb  Rb3  1  0.18048056  0.35957488  0.82600189  1
  Mn  Mn0  1  0.00000000  0.25000000  0.25000000  1
  Cd  Cd0  1  0.00000000  0.75000000  0.75000000  1
  Te  Te0  1  0.08831290  0.90241990  0.20346071  1
  Te  Te1  1  0.91168710  0.11514581  0.81410500  1
  Te  Te2  1  0.30104082  0.59758010  0.68589500  1
  Te  Te3  1  0.69895918  0.38485419  0.29653929  1
loop_
_geom_bond_atom_site_label_1
_geom_bond_atom_site_label_2
_geom_bond_distance
_geom_bond_site_symmetry_2
Rb0 Te3 3.714210 1_555
Rb0 Te2 3.734294 1_555
Rb0 Te1 3.763837 1_555
Rb0 Te2 3.820013 1_544
Rb0 Te0 3.824300 1_545
Rb0 Te1 4.041269 1_454
Rb1 Te0 3.714195 1_655
Rb1 Te1 3.734300 1_554
Rb1 Te2 3.763832 1_554
Rb1 Te1 3.820005 1_565
Rb1 Te3 3.824283 1_555
Rb1 Te2 4.041279 1_655
Rb2 Te2 3.714210 1_555
Rb2 Te3 3.734294 1_566
Rb2 Te0 3.763837 1_555
Rb2 Te3 3.820012 1_555
Rb2 Te1 3.824300 1_565
Rb2 Te0 4.041270 1_656
Rb3 Te1 3.714195 1_455
Rb3 Te0 3.734287 1_545
Rb3 Te3 3.763832 1_556
Rb3 Te0 3.820019 1_556
Rb3 Te2 3.824283 1_555
Rb3 Te3 4.041279 1_455
Mn0 Te0 2.786539 1_545
Mn0 Te3 2.786540 1_455
Mn0 Te2 2.786540 1_555
Mn0 Te1 2.786548 1_454
Mn0 Rb3 3.747109 1_555
Mn0 Rb1 3.747109 1_455
Mn0 Rb0 3.747109 1_555
Mn0 Rb2 3.747109 1_444
Cd0 Te1 2.867210 1_465
Cd0 Te2 2.867211 1_555
Cd0 Te3 2.867211 1_455
Cd0 Te0 2.867220 1_556
Cd0 Rb1 3.729410 1_455
Cd0 Rb3 3.729410 1_555
Cd0 Rb2 3.729411 1_455
Cd0 Rb0 3.729411 1_566
