# generated using pymatgen
data_V13O16
_symmetry_space_group_name_H-M   'P 1'
_cell_length_a   11.39688319
_cell_length_b   11.39688319
_cell_length_c   11.39688319
_cell_angle_alpha   97.21197049
_cell_angle_beta   97.21197049
_cell_angle_gamma   138.49682356
_symmetry_Int_Tables_number   1
_chemical_formula_structural   V13O16
_chemical_formula_sum   'V26 O32'
_cell_volume   917.31801745
_cell_formula_units_Z   2
loop_
 _symmetry_equiv_pos_site_id
 _symmetry_equiv_pos_as_xyz
  1  'x, y, z'
loop_
 _atom_site_type_symbol
 _atom_site_label
 _atom_site_symmetry_multiplicity
 _atom_site_fract_x
 _atom_site_fract_y
 _atom_site_fract_z
 _atom_site_occupancy
  V  V0  1  0.61582100  0.02072200  0.40490100  1
  V  V1  1  0.61582100  0.21092000  0.59509900  1
  V  V2  1  0.27072200  0.36582100  0.90490100  1
  V  V3  1  0.46092000  0.36582100  0.09509900  1
  V  V4  1  0.63417900  0.53908000  0.90490100  1
  V  V5  1  0.78908000  0.38417900  0.40490100  1
  V  V6  1  0.97927800  0.38417900  0.59509900  1
  V  V7  1  0.63417900  0.72927800  0.09509900  1
  V  V8  1  0.47614300  0.37500000  0.60114300  1
  V  V9  1  0.62500000  0.52385700  0.39885700  1
  V  V10  1  0.12500000  0.22614300  0.60114300  1
  V  V11  1  0.77385700  0.87500000  0.39885700  1
  V  V12  1  0.77385700  0.37500000  0.89885700  1
  V  V13  1  0.62500000  0.22614300  0.10114300  1
  V  V14  1  0.12500000  0.52385700  0.89885700  1
  V  V15  1  0.47614300  0.87500000  0.10114300  1
  V  V16  1  0.98374100  0.37500000  0.10874100  1
  V  V17  1  0.62500000  0.01625900  0.89125900  1
  V  V18  1  0.12500000  0.73374100  0.10874100  1
  V  V19  1  0.26625900  0.87500000  0.89125900  1
  V  V20  1  0.26625900  0.37500000  0.39125900  1
  V  V21  1  0.62500000  0.73374100  0.60874100  1
  V  V22  1  0.12500000  0.01625900  0.39125900  1
  V  V23  1  0.98374100  0.87500000  0.60874100  1
  V  V24  1  0.00000000  0.00000000  0.00000000  1
  V  V25  1  0.25000000  0.75000000  0.50000000  1
  O  O0  1  0.02647100  0.11572900  0.40361100  1
  O  O1  1  0.71211800  0.62286000  0.59638900  1
  O  O2  1  0.36572900  0.46211800  0.58925800  1
  O  O3  1  0.87286000  0.77647100  0.41074200  1
  O  O4  1  0.22352900  0.12714000  0.58925800  1
  O  O5  1  0.37714000  0.28788200  0.40361100  1
  O  O6  1  0.88427100  0.97352900  0.59638900  1
  O  O7  1  0.53788200  0.63427100  0.41074200  1
  O  O8  1  0.22352900  0.63427100  0.09638900  1
  O  O9  1  0.53788200  0.12714000  0.90361100  1
  O  O10  1  0.88427100  0.28788200  0.91074200  1
  O  O11  1  0.37714000  0.97352900  0.08925800  1
  O  O12  1  0.02647100  0.62286000  0.91074200  1
  O  O13  1  0.87286000  0.46211800  0.09638900  1
  O  O14  1  0.36572900  0.77647100  0.90361100  1
  O  O15  1  0.71211800  0.11572900  0.08925800  1
  O  O16  1  0.86228100  0.26899100  0.40671000  1
  O  O17  1  0.86228100  0.45557100  0.59329000  1
  O  O18  1  0.51899000  0.61228100  0.90671000  1
  O  O19  1  0.70557100  0.61228100  0.09329000  1
  O  O20  1  0.38771900  0.29442900  0.90671000  1
  O  O21  1  0.54442900  0.13771900  0.40671000  1
  O  O22  1  0.73100900  0.13771900  0.59329000  1
  O  O23  1  0.38771900  0.48100900  0.09329000  1
  O  O24  1  0.37088500  0.77377300  0.40288800  1
  O  O25  1  0.37088500  0.96799600  0.59711200  1
  O  O26  1  0.87911500  0.97622700  0.09711200  1
  O  O27  1  0.22622700  0.62911500  0.59711200  1
  O  O28  1  0.03200400  0.62911500  0.40288800  1
  O  O29  1  0.02377300  0.12088500  0.90288800  1
  O  O30  1  0.21799600  0.12088500  0.09711200  1
  O  O31  1  0.87911500  0.78200400  0.90288800  1
loop_
_geom_bond_atom_site_label_1
_geom_bond_atom_site_label_2
_geom_bond_distance
_geom_bond_site_symmetry_2
O0 V11 1.977686 1_445
O0 V20 2.079716 1_555
O0 V10 2.109511 1_555
O0 V22 2.114782 1_555
O1 V8 1.977686 1_555
O1 V23 2.079716 1_555
O1 V9 2.109511 1_555
O1 V21 2.114782 1_555
O2 V10 1.977686 1_555
O2 V21 2.079716 1_555
O2 V8 2.109511 1_555
O2 V20 2.114782 1_555
O3 V9 1.977686 1_555
O3 V22 2.079716 1_665
O3 V11 2.109511 1_555
O3 V23 2.114782 1_555
O4 V8 1.977686 1_555
O4 V23 2.079716 1_445
O4 V10 2.109511 1_555
O4 V22 2.114782 1_555
O5 V9 1.977686 1_555
O5 V22 2.079716 1_555
O5 V8 2.109511 1_555
O5 V20 2.114782 1_555
O6 V10 1.977686 1_665
O6 V21 2.079716 1_555
O6 V11 2.109511 1_555
O6 V23 2.114782 1_555
O7 V11 1.977686 1_555
O7 V20 2.079716 1_555
O7 V9 2.109511 1_555
O7 V21 2.114782 1_555
O8 V15 1.977686 1_555
O8 V16 2.079716 1_455
O8 V14 2.109511 1_554
O8 V18 2.114782 1_555
O9 V12 1.977686 1_555
O9 V19 2.079716 1_545
O9 V13 2.109511 1_556
O9 V17 2.114782 1_555
O10 V14 1.977686 1_655
O10 V17 2.079716 1_555
O10 V12 2.109511 1_555
O10 V16 2.114782 1_556
O11 V13 1.977686 1_565
O11 V18 2.079716 1_555
O11 V15 2.109511 1_555
O11 V19 2.114782 1_554
O12 V12 1.977686 1_455
O12 V19 2.079716 1_555
O12 V14 2.109511 1_555
O12 V18 2.114782 1_556
O13 V13 1.977686 1_555
O13 V18 2.079716 1_655
O13 V12 2.109511 1_554
O13 V16 2.114782 1_555
O14 V14 1.977686 1_555
O14 V17 2.079716 1_565
O14 V15 2.109511 1_556
O14 V19 2.114782 1_555
O15 V15 1.977686 1_545
O15 V16 2.079716 1_555
O15 V13 2.109511 1_555
O15 V17 2.114782 1_554
O16 V0 1.990651 1_555
O16 V5 2.015625 1_555
O16 V6 2.015625 1_555
O17 V1 1.990651 1_555
O17 V5 2.015625 1_555
O17 V6 2.015625 1_555
O18 V2 1.990647 1_555
O18 V7 2.015625 1_556
O18 V4 2.015636 1_555
O19 V3 1.990651 1_555
O19 V7 2.015625 1_555
O19 V4 2.015625 1_554
O20 V4 1.990651 1_555
O20 V2 2.015625 1_555
O20 V3 2.015625 1_556
O21 V5 1.990651 1_555
O21 V0 2.015625 1_555
O21 V1 2.015625 1_555
O22 V6 1.990651 1_555
O22 V0 2.015625 1_555
O22 V1 2.015625 1_555
O23 V7 1.990651 1_555
O23 V3 2.015625 1_555
O23 V2 2.015625 1_554
O24 V25 1.759399 1_555
O24 V0 1.978389 1_565
O25 V25 1.759391 1_555
O25 V1 1.978393 1_565
O26 V24 1.759399 1_665
O26 V7 1.978389 1_555
O27 V25 1.759399 1_555
O27 V6 1.978389 1_455
O28 V25 1.759391 1_555
O28 V5 1.978393 1_455
O29 V24 1.759399 1_556
O29 V2 1.978389 1_555
O30 V24 1.759391 1_555
O30 V3 1.978393 1_555
O31 V24 1.759391 1_666
O31 V4 1.978393 1_555
