# generated using pymatgen
data_Li2GaAu
_symmetry_space_group_name_H-M   'P 1'
_cell_length_a   4.35257725
_cell_length_b   4.35257624
_cell_length_c   4.35257639
_cell_angle_alpha   59.99999881
_cell_angle_beta   60.00000649
_cell_angle_gamma   59.99999661
_symmetry_Int_Tables_number   1
_chemical_formula_structural   Li2GaAu
_chemical_formula_sum   'Li2 Ga1 Au1'
_cell_volume   58.30748186
_cell_formula_units_Z   1
loop_
 _symmetry_equiv_pos_site_id
 _symmetry_equiv_pos_as_xyz
  1  'x, y, z'
loop_
 _atom_site_type_symbol
 _atom_site_label
 _atom_site_symmetry_multiplicity
 _atom_site_fract_x
 _atom_site_fract_y
 _atom_site_fract_z
 _atom_site_occupancy
  Li  Li0  1  0.25000000  0.25000000  0.25000000  1
  Li  Li1  1  0.50000000  0.50000000  0.50000000  1
  Ga  Ga0  1  -0.00000000  0.00000000  0.00000000  1
  Au  Au0  1  0.75000000  0.75000000  0.75000000  1
loop_
_geom_bond_atom_site_label_1
_geom_bond_atom_site_label_2
_geom_bond_distance
_geom_bond_site_symmetry_2
Li0 Li1 2.665398 1_545
Li0 Li1 2.665398 1_554
Li0 Li1 2.665398 1_555
Li0 Li1 2.665398 1_455
Ga0 Li0 2.665398 1_545
Ga0 Li0 2.665398 1_554
Ga0 Li0 2.665398 1_555
Ga0 Li0 2.665398 1_455
Au0 Li1 2.665398 1_565
Au0 Ga0 2.665398 1_656
Au0 Li1 2.665398 1_556
Au0 Ga0 2.665398 1_665
Au0 Ga0 2.665398 1_666
Au0 Li1 2.665398 1_555
Au0 Ga0 2.665398 1_566
Au0 Li1 2.665398 1_655
Au0 Li0 3.077736 1_565
Au0 Li0 3.077736 1_656
Au0 Li0 3.077736 1_655
Au0 Li0 3.077736 1_566
Au0 Li0 3.077737 1_665
Au0 Li0 3.077737 1_556
