# generated using pymatgen
data_Rb2AgPSe4
_symmetry_space_group_name_H-M   'P 1'
_cell_length_a   6.98189511
_cell_length_b   7.23481233
_cell_length_c   11.52250695
_cell_angle_alpha   71.81209877
_cell_angle_beta   71.72807556
_cell_angle_gamma   68.26692307
_symmetry_Int_Tables_number   1
_chemical_formula_structural   Rb2AgPSe4
_chemical_formula_sum   'Rb4 Ag2 P2 Se8'
_cell_volume   500.56086592
_cell_formula_units_Z   2
loop_
 _symmetry_equiv_pos_site_id
 _symmetry_equiv_pos_as_xyz
  1  'x, y, z'
loop_
 _atom_site_type_symbol
 _atom_site_label
 _atom_site_symmetry_multiplicity
 _atom_site_fract_x
 _atom_site_fract_y
 _atom_site_fract_z
 _atom_site_occupancy
  Rb  Rb0  1  0.75320280  0.52540173  0.18576560  1
  Rb  Rb1  1  0.24770489  0.22998231  0.39713293  1
  Rb  Rb2  1  0.24679720  0.47459827  0.81423440  1
  Rb  Rb3  1  0.75229511  0.77001769  0.60286707  1
  Ag  Ag0  1  0.63139028  0.08897391  0.08657175  1
  Ag  Ag1  1  0.36860972  0.91102609  0.91342825  1
  P  P0  1  0.13781922  0.85183843  0.23238819  1
  P  P1  1  0.86218078  0.14816157  0.76761181  1
  Se  Se0  1  0.78549374  0.93104108  0.28459109  1
  Se  Se1  1  0.26242237  0.72183632  0.40246914  1
  Se  Se2  1  0.26931142  0.62467690  0.11355027  1
  Se  Se3  1  0.73068858  0.37532310  0.88644973  1
  Se  Se4  1  0.77779173  0.86492166  0.87715913  1
  Se  Se5  1  0.21450626  0.06895892  0.71540891  1
  Se  Se6  1  0.73757763  0.27816368  0.59753086  1
  Se  Se7  1  0.22220827  0.13507834  0.12284087  1
loop_
_geom_bond_atom_site_label_1
_geom_bond_atom_site_label_2
_geom_bond_distance
_geom_bond_site_symmetry_2
Rb0 Se7 3.487726 1_655
Rb0 Se2 3.495006 1_555
Rb0 Se0 3.563324 1_555
Rb0 Se4 3.631047 1_554
Rb0 Se1 3.638655 1_555
Rb0 Se2 3.722402 1_655
Rb0 Se3 3.987785 1_554
Rb0 Se0 4.027965 1_545
Rb1 Se5 3.443850 1_555
Rb1 Se7 3.505724 1_555
Rb1 Se6 3.544689 1_455
Rb1 Se2 3.610958 1_555
Rb1 Se1 3.617789 1_555
Rb1 Se1 3.621175 1_545
Rb1 Se0 3.625097 1_545
Rb2 Se4 3.487726 1_455
Rb2 Se3 3.495006 1_555
Rb2 Se5 3.563324 1_555
Rb2 Se7 3.631047 1_556
Rb2 Se6 3.638655 1_555
Rb2 Se3 3.722402 1_455
Rb2 Se2 3.987785 1_556
Rb2 Se5 4.027965 1_565
Rb3 Se0 3.443850 1_555
Rb3 Se4 3.505724 1_555
Rb3 Se1 3.544689 1_655
Rb3 Se3 3.610958 1_555
Rb3 Se6 3.617789 1_555
Rb3 Se6 3.621175 1_565
Rb3 Se5 3.625097 1_565
Ag0 Se0 2.582767 1_545
Ag0 Se7 2.660875 1_555
Ag0 Se3 2.677450 1_554
Ag0 Se4 3.027019 1_544
Ag1 Se5 2.582767 1_565
Ag1 Se4 2.660875 1_555
Ag1 Se2 2.677450 1_556
Ag1 Se7 3.027019 1_566
P0 Se1 2.189648 1_555
P0 Se2 2.217671 1_555
P0 Se7 2.225460 1_565
P0 Se0 2.232653 1_455
P1 Se6 2.189648 1_555
P1 Se3 2.217671 1_555
P1 Se4 2.225460 1_545
P1 Se5 2.232653 1_655
