# generated using pymatgen
data_K4HgAs2Pd
_symmetry_space_group_name_H-M   'P 1'
_cell_length_a   6.35584941
_cell_length_b   6.35584902
_cell_length_c   6.03298278
_cell_angle_alpha   90.62125885
_cell_angle_beta   89.37874044
_cell_angle_gamma   75.82558253
_symmetry_Int_Tables_number   1
_chemical_formula_structural   K4HgAs2Pd
_chemical_formula_sum   'K4 Hg1 As2 Pd1'
_cell_volume   236.25661834
_cell_formula_units_Z   1
loop_
 _symmetry_equiv_pos_site_id
 _symmetry_equiv_pos_as_xyz
  1  'x, y, z'
loop_
 _atom_site_type_symbol
 _atom_site_label
 _atom_site_symmetry_multiplicity
 _atom_site_fract_x
 _atom_site_fract_y
 _atom_site_fract_z
 _atom_site_occupancy
  K  K0  1  0.18041119  0.47513439  0.25677297  1
  K  K1  1  0.52486661  0.81958881  0.25677297  1
  K  K2  1  0.47513439  0.18041119  0.74322603  1
  K  K3  1  0.81958881  0.52486661  0.74322603  1
  Hg  Hg0  1  0.00000000  0.00000000  0.00000000  1
  As  As0  1  0.73986231  0.26013769  0.25937690  1
  As  As1  1  0.26013769  0.73986231  0.74062210  1
  Pd  Pd0  1  0.00000000  0.00000000  0.50000100  1
loop_
_geom_bond_atom_site_label_1
_geom_bond_atom_site_label_2
_geom_bond_distance
_geom_bond_site_symmetry_2
K0 Pd0 3.546928 1_565
K0 Pd0 3.787252 1_555
K1 Pd0 3.546934 1_565
K1 Pd0 3.787247 1_665
K2 Pd0 3.546921 1_655
K2 Pd0 3.787245 1_555
K3 Pd0 3.546927 1_655
K3 Pd0 3.787239 1_665
Hg0 Pd0 3.016485 1_554
Hg0 Pd0 3.016497 1_555
Hg0 K0 3.622213 1_545
Hg0 K2 3.622216 1_454
Hg0 K1 3.622219 1_545
Hg0 K3 3.622221 1_454
Hg0 K1 3.803577 1_445
Hg0 K3 3.803579 1_444
Hg0 K0 3.803583 1_555
Hg0 K2 3.803585 1_554
As0 Pd0 2.517951 1_655
As0 Hg0 2.542644 1_655
As0 K1 3.403126 1_545
As0 K0 3.403130 1_655
As0 K2 3.457141 1_555
As0 K3 3.457144 1_555
As0 K1 3.483269 1_555
As0 K0 3.483270 1_555
As0 K2 3.644357 1_554
As0 K3 3.644361 1_554
As1 Pd0 2.517941 1_565
As1 Hg0 2.542648 1_566
As1 K3 3.403126 1_455
As1 K2 3.403130 1_565
As1 K0 3.457141 1_555
As1 K1 3.457144 1_555
As1 K3 3.483269 1_555
As1 K2 3.483270 1_555
As1 K0 3.644357 1_556
As1 K1 3.644361 1_556
