# generated using pymatgen
data_Na2ScAlB28
_symmetry_space_group_name_H-M   'P 1'
_cell_length_a   7.34606145
_cell_length_b   7.34606099
_cell_length_c   7.29015257
_cell_angle_alpha   132.39069935
_cell_angle_beta   111.66842675
_cell_angle_gamma   87.96694390
_symmetry_Int_Tables_number   1
_chemical_formula_structural   Na2ScAlB28
_chemical_formula_sum   'Na2 Sc1 Al1 B28'
_cell_volume   256.63722886
_cell_formula_units_Z   1
loop_
 _symmetry_equiv_pos_site_id
 _symmetry_equiv_pos_as_xyz
  1  'x, y, z'
loop_
 _atom_site_type_symbol
 _atom_site_label
 _atom_site_symmetry_multiplicity
 _atom_site_fract_x
 _atom_site_fract_y
 _atom_site_fract_z
 _atom_site_occupancy
  Na  Na0  1  0.09837812  0.75099212  0.34937024  1
  Na  Na1  1  0.90162188  0.24900788  0.65062976  1
  Sc  Sc0  1  0.50000000  0.50000000  0.50000000  1
  Al  Al0  1  0.50000000  0.00000000  0.00000000  1
  B  B0  1  0.89784831  0.21916001  0.99537757  1
  B  B1  1  0.46484310  0.17704453  0.79589854  1
  B  B2  1  0.88114598  0.16894555  0.20410146  1
  B  B3  1  0.72378344  0.40247074  0.00462243  1
  B  B4  1  0.58633928  0.41583564  0.16679943  1
  B  B5  1  0.74039040  0.34999299  0.36997854  1
  B  B6  1  0.30495497  0.33612804  0.97264097  1
  B  B7  1  0.72479786  0.71998740  0.32242713  1
  B  B8  1  0.87666225  0.67287162  0.70550148  1
  B  B9  1  0.46736914  0.67116077  0.29449852  1
  B  B10  1  0.10243973  0.09763027  0.32242713  1
  B  B11  1  0.89756027  0.90236973  0.67757287  1
  B  B12  1  0.53263086  0.32883923  0.70550148  1
  B  B13  1  0.12333775  0.32712838  0.29449852  1
  B  B14  1  0.27520214  0.28001260  0.67757287  1
  B  B15  1  0.74903621  0.91954085  0.83320057  1
  B  B16  1  0.48001445  0.87041086  0.63002146  1
  B  B17  1  0.86348707  0.83231401  0.02735903  1
  B  B18  1  0.69504503  0.66387196  0.02735903  1
  B  B19  1  0.25960960  0.65000701  0.63002146  1
  B  B20  1  0.41366072  0.58416436  0.83320057  1
  B  B21  1  0.27621656  0.59752926  0.99537757  1
  B  B22  1  0.11885402  0.83105445  0.79589854  1
  B  B23  1  0.53515690  0.82295547  0.20410146  1
  B  B24  1  0.10215169  0.78083999  0.00462243  1
  B  B25  1  0.13651293  0.16768599  0.97264097  1
  B  B26  1  0.51998555  0.12958914  0.36997854  1
  B  B27  1  0.25096379  0.08045915  0.16679943  1
loop_
_geom_bond_atom_site_label_1
_geom_bond_atom_site_label_2
_geom_bond_distance
_geom_bond_site_symmetry_2
Al0 B26 2.111409 1_555
Al0 B16 2.111409 1_544
Al0 B5 2.111412 1_555
Al0 B19 2.111412 1_544
Al0 B4 2.402453 1_555
Al0 B20 2.402453 1_544
Al0 B15 2.402454 1_544
Al0 B27 2.402454 1_555
Al0 B1 2.504766 1_554
Al0 B23 2.504766 1_545
Al0 B2 2.504767 1_555
Al0 B22 2.504767 1_544
B0 B15 1.773371 1_545
B0 B13 1.794938 1_656
B0 B3 1.808881 1_556
B0 B25 1.824111 1_655
B0 B2 1.834229 1_556
B0 B11 1.873564 1_545
B0 Na1 2.675867 1_555
B0 Na0 2.846023 1_656
B1 B16 1.719762 1_545
B1 B4 1.765886 1_556
B1 B14 1.781745 1_555
B1 B12 1.788378 1_555
B1 B3 1.834240 1_556
B1 B6 1.842642 1_555
B1 Na0 2.833442 1_545
B2 B5 1.719754 1_555
B2 Na1 2.833446 1_555
B3 B4 1.773383 1_555
B3 B7 1.873564 1_555
B3 Na0 2.675862 1_655
B3 Na1 2.846018 1_554
B4 B7 1.790239 1_555
B4 B9 1.810689 1_555
B4 B5 1.843347 1_555
B4 B6 1.851170 1_554
B4 Sc0 2.402052 1_555
B5 B8 1.774382 1_555
B5 Sc0 2.218312 1_555
B5 Na1 2.516729 1_555
B6 B9 1.827782 1_556
B6 Na1 2.769768 1_455
B7 B9 1.847063 1_555
B7 Na0 2.684742 1_655
B7 Na1 2.835527 1_565
B8 Sc0 2.477126 1_555
B8 Na1 2.867599 1_555
B9 Sc0 2.477125 1_555
B9 Na0 2.867592 1_555
B10 B14 1.768024 1_555
B10 B2 1.781745 1_455
B10 B27 1.790234 1_555
B10 B17 1.818916 1_445
B10 B13 1.847048 1_555
B10 B24 1.873564 1_545
B10 Na0 2.684749 1_545
B10 Na1 2.835529 1_455
B11 B7 1.768024 1_555
B11 B22 1.781745 1_655
B11 B15 1.790234 1_555
B11 B25 1.818916 1_665
B11 B8 1.847048 1_555
B11 Na1 2.684749 1_565
B11 Na0 2.835529 1_655
B12 B26 1.774380 1_555
B12 B3 1.794938 1_556
B12 B20 1.810689 1_555
B12 B18 1.827782 1_556
B12 B14 1.847063 1_555
B12 Sc0 2.477125 1_555
B12 Na1 2.867592 1_555
B13 B19 1.774382 1_555
B13 B2 1.788372 1_455
B13 B27 1.810689 1_555
B13 B25 1.827784 1_554
B13 Sc0 2.477126 1_555
B13 Na0 2.867599 1_555
B14 B20 1.790239 1_555
B14 B6 1.818914 1_555
B14 B21 1.873564 1_555
B14 Na1 2.684742 1_455
B14 Na0 2.835527 1_545
B15 B2 1.765886 1_566
B15 B8 1.810689 1_555
B15 B16 1.843343 1_555
B15 B17 1.851177 1_556
B15 Sc0 2.402057 1_555
B16 B9 1.774380 1_555
B16 Sc0 2.218305 1_555
B16 Na0 2.516730 1_555
B17 B18 1.780697 1_555
B17 B24 1.824111 1_655
B17 B8 1.827784 1_554
B17 B2 1.842648 1_565
B17 Na0 2.769767 1_655
B18 B7 1.818914 1_555
B18 B3 1.824111 1_555
B18 B23 1.842642 1_555
B18 B20 1.851170 1_554
B18 Na0 2.769768 1_655
B19 B22 1.719754 1_555
B19 B20 1.843347 1_555
B19 Sc0 2.218312 1_555
B19 Na0 2.516729 1_555
B20 B23 1.765886 1_556
B20 B21 1.773383 1_555
B20 Sc0 2.402052 1_555
B21 B9 1.794938 1_556
B21 B24 1.808881 1_556
B21 B6 1.824111 1_555
B21 B23 1.834240 1_556
B21 Na1 2.675862 1_455
B21 Na0 2.846018 1_556
B22 B27 1.765886 1_566
B22 B8 1.788372 1_455
B22 B24 1.834229 1_556
B22 B25 1.842648 1_565
B22 Na0 2.833446 1_555
B23 B26 1.719762 1_565
B23 B7 1.781745 1_555
B23 B9 1.788378 1_555
B23 Na1 2.833442 1_565
B24 B27 1.773371 1_565
B24 B8 1.794938 1_454
B24 Na0 2.675867 1_555
B24 Na1 2.846023 1_454
B25 B6 1.780697 1_555
B25 B27 1.851177 1_556
B25 Na1 2.769767 1_455
B26 B27 1.843343 1_555
B26 Sc0 2.218305 1_555
B26 Na1 2.516730 1_555
B27 Sc0 2.402057 1_555
