# generated using pymatgen
data_TlBi2
_symmetry_space_group_name_H-M   'P 1'
_cell_length_a   11.41732854
_cell_length_b   11.41732947
_cell_length_c   6.78751116
_cell_angle_alpha   90.00000000
_cell_angle_beta   90.00000000
_cell_angle_gamma   119.99999724
_symmetry_Int_Tables_number   1
_chemical_formula_structural   TlBi2
_chemical_formula_sum   'Tl8 Bi16'
_cell_volume   766.24954994
_cell_formula_units_Z   8
loop_
 _symmetry_equiv_pos_site_id
 _symmetry_equiv_pos_as_xyz
  1  'x, y, z'
loop_
 _atom_site_type_symbol
 _atom_site_label
 _atom_site_symmetry_multiplicity
 _atom_site_fract_x
 _atom_site_fract_y
 _atom_site_fract_z
 _atom_site_occupancy
  Tl  Tl0_0  1  0.00000000  0.00000000  0.00000000  1
  Tl  Tl0_1  1  0.00000000  0.00000000  0.50000000  1
  Tl  Tl0_2  1  0.00000000  0.50000000  0.00000000  1
  Tl  Tl0_3  1  0.00000000  0.50000000  0.50000000  1
  Tl  Tl0_4  1  0.50000000  0.00000000  0.00000000  1
  Tl  Tl0_5  1  0.50000000  0.00000000  0.50000000  1
  Tl  Tl0_6  1  0.50000000  0.50000000  0.00000000  1
  Tl  Tl0_7  1  0.50000000  0.50000000  0.50000000  1
  Bi  Bi0_0  1  0.33333350  0.16666650  0.25000000  1
  Bi  Bi0_1  1  0.33333350  0.16666650  0.75000000  1
  Bi  Bi0_2  1  0.33333350  0.66666650  0.25000000  1
  Bi  Bi0_3  1  0.33333350  0.66666650  0.75000000  1
  Bi  Bi0_4  1  0.83333350  0.16666650  0.25000000  1
  Bi  Bi0_5  1  0.83333350  0.16666650  0.75000000  1
  Bi  Bi0_6  1  0.83333350  0.66666650  0.25000000  1
  Bi  Bi0_7  1  0.83333350  0.66666650  0.75000000  1
  Bi  Bi1_0  1  0.16666650  0.33333350  0.25000000  1
  Bi  Bi1_1  1  0.16666650  0.33333350  0.75000000  1
  Bi  Bi1_2  1  0.16666650  0.83333350  0.25000000  1
  Bi  Bi1_3  1  0.16666650  0.83333350  0.75000000  1
  Bi  Bi1_4  1  0.66666650  0.33333350  0.25000000  1
  Bi  Bi1_5  1  0.66666650  0.33333350  0.75000000  1
  Bi  Bi1_6  1  0.66666650  0.83333350  0.25000000  1
  Bi  Bi1_7  1  0.66666650  0.83333350  0.75000000  1
loop_
_geom_bond_atom_site_label_1
_geom_bond_atom_site_label_2
_geom_bond_distance
_geom_bond_site_symmetry_2
Tl0_0 Tl0_1 3.393756 1_555
Tl0_0 Tl0_1 3.393756 1_554
Tl0_2 Tl0_3 3.393756 1_554
Tl0_2 Tl0_3 3.393756 1_555
Tl0_4 Tl0_5 3.393756 1_554
Tl0_4 Tl0_5 3.393756 1_555
Tl0_6 Tl0_7 3.393756 1_555
Tl0_6 Tl0_7 3.393756 1_554
Bi0_0 Bi1_4 3.295896 1_555
Bi0_0 Bi1_2 3.295896 1_545
Bi0_0 Bi1_0 3.295906 1_555
Bi0_0 Bi0_1 3.393756 1_555
Bi0_0 Bi0_1 3.393756 1_554
Bi0_0 Tl0_4 3.707064 1_555
Bi0_0 Tl0_5 3.707064 1_555
Bi0_0 Tl0_0 3.707068 1_555
Bi0_0 Tl0_1 3.707068 1_555
Bi0_0 Tl0_6 3.707068 1_555
Bi0_0 Tl0_7 3.707068 1_555
Bi0_1 Bi1_5 3.295896 1_555
Bi0_1 Bi1_3 3.295896 1_545
Bi0_1 Bi1_1 3.295906 1_555
Bi0_1 Tl0_4 3.707064 1_556
Bi0_1 Tl0_5 3.707064 1_555
Bi0_1 Tl0_0 3.707068 1_556
Bi0_1 Tl0_1 3.707068 1_555
Bi0_1 Tl0_6 3.707068 1_556
Bi0_1 Tl0_7 3.707068 1_555
Bi0_2 Bi1_6 3.295896 1_555
Bi0_2 Bi1_0 3.295896 1_555
Bi0_2 Bi1_2 3.295906 1_555
Bi0_2 Bi0_3 3.393756 1_555
Bi0_2 Bi0_3 3.393756 1_554
Bi0_2 Tl0_6 3.707064 1_555
Bi0_2 Tl0_7 3.707064 1_555
Bi0_2 Tl0_2 3.707068 1_555
Bi0_2 Tl0_3 3.707068 1_555
Bi0_2 Tl0_5 3.707068 1_565
Bi0_2 Tl0_4 3.707068 1_565
Bi0_3 Bi1_7 3.295896 1_555
Bi0_3 Bi1_1 3.295896 1_555
Bi0_3 Bi1_3 3.295906 1_555
Bi0_3 Tl0_6 3.707064 1_556
Bi0_3 Tl0_7 3.707064 1_555
Bi0_3 Tl0_2 3.707068 1_556
Bi0_3 Tl0_3 3.707068 1_555
Bi0_3 Tl0_5 3.707068 1_565
Bi0_3 Tl0_4 3.707068 1_566
Bi0_4 Bi1_0 3.295896 1_655
Bi0_4 Bi1_6 3.295896 1_545
Bi0_4 Bi1_4 3.295906 1_555
Bi0_4 Bi0_5 3.393756 1_555
Bi0_4 Bi0_5 3.393756 1_554
Bi0_4 Tl0_0 3.707064 1_655
Bi0_4 Tl0_1 3.707064 1_655
Bi0_4 Tl0_4 3.707068 1_555
Bi0_4 Tl0_5 3.707068 1_555
Bi0_4 Tl0_3 3.707068 1_655
Bi0_4 Tl0_2 3.707068 1_655
Bi0_5 Bi1_1 3.295896 1_655
Bi0_5 Bi1_7 3.295896 1_545
Bi0_5 Bi1_5 3.295906 1_555
Bi0_5 Tl0_1 3.707064 1_655
Bi0_5 Tl0_0 3.707064 1_656
Bi0_5 Tl0_4 3.707068 1_556
Bi0_5 Tl0_5 3.707068 1_555
Bi0_5 Tl0_2 3.707068 1_656
Bi0_5 Tl0_3 3.707068 1_655
Bi0_6 Bi1_2 3.295896 1_655
Bi0_6 Bi1_4 3.295896 1_555
Bi0_6 Bi1_6 3.295906 1_555
Bi0_6 Bi0_7 3.393756 1_555
Bi0_6 Bi0_7 3.393756 1_554
Bi0_6 Tl0_2 3.707064 1_655
Bi0_6 Tl0_3 3.707064 1_655
Bi0_6 Tl0_6 3.707068 1_555
Bi0_6 Tl0_7 3.707068 1_555
Bi0_6 Tl0_1 3.707068 1_665
Bi0_6 Tl0_0 3.707068 1_665
Bi0_7 Bi1_3 3.295896 1_655
Bi0_7 Bi1_5 3.295896 1_555
Bi0_7 Bi1_7 3.295906 1_555
Bi0_7 Tl0_2 3.707064 1_656
Bi0_7 Tl0_3 3.707064 1_655
Bi0_7 Tl0_7 3.707068 1_555
Bi0_7 Tl0_6 3.707068 1_556
Bi0_7 Tl0_1 3.707068 1_665
Bi0_7 Tl0_0 3.707068 1_666
Bi1_0 Bi1_1 3.393756 1_554
Bi1_0 Bi1_1 3.393756 1_555
Bi1_0 Tl0_2 3.707064 1_555
Bi1_0 Tl0_3 3.707064 1_555
Bi1_0 Tl0_6 3.707068 1_555
Bi1_0 Tl0_7 3.707068 1_555
Bi1_0 Tl0_0 3.707068 1_555
Bi1_0 Tl0_1 3.707068 1_555
Bi1_1 Tl0_3 3.707064 1_555
Bi1_1 Tl0_2 3.707064 1_556
Bi1_1 Tl0_6 3.707068 1_556
Bi1_1 Tl0_7 3.707068 1_555
Bi1_1 Tl0_0 3.707068 1_556
Bi1_1 Tl0_1 3.707068 1_555
Bi1_2 Bi1_3 3.393756 1_555
Bi1_2 Bi1_3 3.393756 1_554
Bi1_2 Tl0_0 3.707064 1_565
Bi1_2 Tl0_1 3.707064 1_565
Bi1_2 Tl0_4 3.707068 1_565
Bi1_2 Tl0_5 3.707068 1_565
Bi1_2 Tl0_2 3.707068 1_555
Bi1_2 Tl0_3 3.707068 1_555
Bi1_3 Tl0_1 3.707064 1_565
Bi1_3 Tl0_0 3.707064 1_566
Bi1_3 Tl0_4 3.707068 1_566
Bi1_3 Tl0_5 3.707068 1_565
Bi1_3 Tl0_3 3.707068 1_555
Bi1_3 Tl0_2 3.707068 1_556
Bi1_4 Bi1_5 3.393756 1_554
Bi1_4 Bi1_5 3.393756 1_555
Bi1_4 Tl0_6 3.707064 1_555
Bi1_4 Tl0_7 3.707064 1_555
Bi1_4 Tl0_3 3.707068 1_655
Bi1_4 Tl0_2 3.707068 1_655
Bi1_4 Tl0_5 3.707068 1_555
Bi1_4 Tl0_4 3.707068 1_555
Bi1_5 Tl0_6 3.707064 1_556
Bi1_5 Tl0_7 3.707064 1_555
Bi1_5 Tl0_2 3.707068 1_656
Bi1_5 Tl0_3 3.707068 1_655
Bi1_5 Tl0_5 3.707068 1_555
Bi1_5 Tl0_4 3.707068 1_556
Bi1_6 Bi1_7 3.393756 1_555
Bi1_6 Bi1_7 3.393756 1_554
Bi1_6 Tl0_4 3.707064 1_565
Bi1_6 Tl0_5 3.707064 1_565
Bi1_6 Tl0_0 3.707068 1_665
Bi1_6 Tl0_1 3.707068 1_665
Bi1_6 Tl0_6 3.707068 1_555
Bi1_6 Tl0_7 3.707068 1_555
Bi1_7 Tl0_4 3.707064 1_566
Bi1_7 Tl0_5 3.707064 1_565
Bi1_7 Tl0_0 3.707068 1_666
Bi1_7 Tl0_1 3.707068 1_665
Bi1_7 Tl0_6 3.707068 1_556
Bi1_7 Tl0_7 3.707068 1_555
