# generated using pymatgen
data_CsReTe7Mo5
_symmetry_space_group_name_H-M   'P 1'
_cell_length_a   10.37513630
_cell_length_b   10.42634057
_cell_length_c   10.42408639
_cell_angle_alpha   61.33290714
_cell_angle_beta   61.34154731
_cell_angle_gamma   61.40394848
_symmetry_Int_Tables_number   1
_chemical_formula_structural   CsReTe7Mo5
_chemical_formula_sum   'Cs2 Re2 Te14 Mo10'
_cell_volume   821.70499238
_cell_formula_units_Z   2
loop_
 _symmetry_equiv_pos_site_id
 _symmetry_equiv_pos_as_xyz
  1  'x, y, z'
loop_
 _atom_site_type_symbol
 _atom_site_label
 _atom_site_symmetry_multiplicity
 _atom_site_fract_x
 _atom_site_fract_y
 _atom_site_fract_z
 _atom_site_occupancy
  Cs  Cs0  1  0.61808555  0.61395271  0.61759164  1
  Cs  Cs1  1  0.38255692  0.38790789  0.38590021  1
  Re  Re0  1  0.71868834  0.87681400  0.00136208  1
  Re  Re1  1  0.00415937  0.71806154  0.87558251  1
  Te  Te0  1  0.42697432  0.81393201  0.16001444  1
  Te  Te1  1  0.16114063  0.42952986  0.81163223  1
  Te  Te2  1  0.80935928  0.16094946  0.42462995  1
  Te  Te3  1  0.57705138  0.18042980  0.84231408  1
  Te  Te4  1  0.83922901  0.57893676  0.17974883  1
  Te  Te5  1  0.18931992  0.83495454  0.57865695  1
  Te  Te6  1  0.63697078  0.97098114  0.24536369  1
  Te  Te7  1  0.24633740  0.63755540  0.97449042  1
  Te  Te8  1  0.97387724  0.24466279  0.63863609  1
  Te  Te9  1  0.36121817  0.02807999  0.75167231  1
  Te  Te10  1  0.75000277  0.35970126  0.02555853  1
  Te  Te11  1  0.02506868  0.75343569  0.35958435  1
  Te  Te12  1  0.77646578  0.77172386  0.78192073  1
  Te  Te13  1  0.22397991  0.22648235  0.22816267  1
  Mo  Mo0  1  0.87679525  0.99974017  0.71380691  1
  Mo  Mo1  1  0.28061612  0.12647625  0.00189882  1
  Mo  Mo2  1  0.99931027  0.28246385  0.12353999  1
  Mo  Mo3  1  0.12335074  0.00216235  0.28325851  1
  Mo  Mo4  1  0.94648276  0.81147982  0.10453050  1
  Mo  Mo5  1  0.10686507  0.94592766  0.81353517  1
  Mo  Mo6  1  0.81319365  0.10548052  0.94728371  1
  Mo  Mo7  1  0.05260431  0.18796131  0.89434205  1
  Mo  Mo8  1  0.89498611  0.05252064  0.18402925  1
  Mo  Mo9  1  0.18531228  0.89769938  0.05095236  1
loop_
_geom_bond_atom_site_label_1
_geom_bond_atom_site_label_2
_geom_bond_distance
_geom_bond_site_symmetry_2
Cs0 Te8 3.854900 1_555
Cs0 Te7 3.870914 1_555
Cs0 Te6 3.880964 1_555
Cs0 Te5 4.035537 1_555
Cs0 Te12 4.041205 1_555
Cs0 Te3 4.101980 1_555
Cs0 Te4 4.120820 1_555
Cs0 Te10 4.275436 1_556
Cs0 Te11 4.290780 1_655
Cs0 Te9 4.347588 1_565
Cs1 Te11 3.846821 1_555
Cs1 Te9 3.863026 1_555
Cs1 Te10 3.870498 1_555
Cs1 Te2 4.017266 1_555
Cs1 Te13 4.017959 1_555
Cs1 Te1 4.034243 1_555
Cs1 Te0 4.046089 1_555
Cs1 Te8 4.326909 1_455
Cs1 Te7 4.329724 1_554
Cs1 Te6 4.407615 1_545
Re0 Re1 2.625941 1_654
Re0 Te12 2.693177 1_554
Re0 Te4 2.763902 1_555
Re0 Te6 2.771795 1_555
Re0 Te3 2.788826 1_564
Re0 Te0 2.895384 1_555
Re1 Te12 2.696279 1_455
Re1 Te5 2.770324 1_555
Re1 Te7 2.777851 1_555
Re1 Te4 2.800832 1_456
Re1 Te1 2.887820 1_555
Mo0 Re1 2.624098 1_655
Mo0 Re0 2.632267 1_556
Mo0 Te12 2.698161 1_555
Mo0 Mo5 2.762577 1_655
Mo0 Te3 2.798583 1_565
Mo0 Mo6 2.812782 1_565
Mo0 Te8 2.816909 1_565
Mo0 Te5 2.838709 1_655
Mo0 Te2 2.904714 1_565
Mo1 Mo2 2.579948 1_455
Mo1 Mo3 2.594479 1_555
Mo1 Te13 2.727481 1_555
Mo1 Mo9 2.744346 1_545
Mo1 Mo7 2.768944 1_554
Mo1 Te1 2.837306 1_554
Mo1 Te0 2.855192 1_545
Mo1 Te9 2.865210 1_554
Mo1 Te3 2.897198 1_554
Mo2 Mo3 2.599172 1_655
Mo2 Mo7 2.730333 1_654
Mo2 Te13 2.736561 1_655
Mo2 Mo8 2.774169 1_555
Mo2 Te2 2.825230 1_555
Mo2 Te10 2.851857 1_555
Mo2 Te1 2.861224 1_654
Mo2 Te4 2.923459 1_555
Mo3 Te13 2.713597 1_555
Mo3 Mo8 2.756455 1_455
Mo3 Mo9 2.798336 1_545
Mo3 Te0 2.836302 1_545
Mo3 Te2 2.845770 1_455
Mo3 Te11 2.858603 1_545
Mo3 Te5 2.952689 1_545
Mo4 Mo5 2.692018 1_654
Mo4 Mo6 2.700215 1_564
Mo4 Re1 2.702778 1_654
Mo4 Re0 2.720323 1_555
Mo4 Mo8 2.752525 1_565
Mo4 Mo9 2.753756 1_655
Mo4 Te4 2.766488 1_555
Mo4 Te7 2.778032 1_654
Mo4 Te6 2.818028 1_555
Mo4 Te11 2.857076 1_655
Mo5 Mo6 2.700626 1_465
Mo5 Mo9 2.717810 1_556
Mo5 Re1 2.736115 1_555
Mo5 Mo7 2.760308 1_565
Mo5 Te8 2.789221 1_465
Mo5 Te5 2.797613 1_555
Mo5 Te7 2.818836 1_555
Mo5 Te9 2.848704 1_565
Mo6 Mo8 2.714427 1_556
Mo6 Re0 2.716891 1_546
Mo6 Mo7 2.736530 1_655
Mo6 Te3 2.780066 1_555
Mo6 Te6 2.790838 1_546
Mo6 Te8 2.815701 1_555
Mo6 Te10 2.831897 1_556
Mo7 Mo9 2.673340 1_546
Mo7 Mo8 2.677654 1_456
Mo7 Te10 2.789866 1_456
Mo7 Te9 2.818600 1_555
Mo7 Te1 2.838211 1_555
Mo7 Te8 2.869796 1_455
Mo8 Mo9 2.662562 1_645
Mo8 Te11 2.785617 1_645
Mo8 Te10 2.818643 1_555
Mo8 Te2 2.824780 1_555
Mo8 Te6 2.883225 1_545
Mo9 Te9 2.785001 1_564
Mo9 Te11 2.827987 1_555
Mo9 Te0 2.833180 1_555
Mo9 Te7 2.887770 1_554
