# generated using pymatgen
data_Ta3Nb2B2As
_symmetry_space_group_name_H-M   'P 1'
_cell_length_a   7.31576987
_cell_length_b   7.31576982
_cell_length_c   7.31577088
_cell_angle_alpha   129.38014048
_cell_angle_beta   129.38014359
_cell_angle_gamma   74.39967637
_symmetry_Int_Tables_number   1
_chemical_formula_structural   Ta3Nb2B2As
_chemical_formula_sum   'Ta6 Nb4 B4 As2'
_cell_volume   228.00529598
_cell_formula_units_Z   2
loop_
 _symmetry_equiv_pos_site_id
 _symmetry_equiv_pos_as_xyz
  1  'x, y, z'
loop_
 _atom_site_type_symbol
 _atom_site_label
 _atom_site_symmetry_multiplicity
 _atom_site_fract_x
 _atom_site_fract_y
 _atom_site_fract_z
 _atom_site_occupancy
  Ta  Ta0  1  0.47220251  0.30365273  0.50000000  1
  Ta  Ta1  1  0.80365273  0.97220251  0.50000000  1
  Ta  Ta2  1  0.97220251  0.47220251  0.16854878  1
  Ta  Ta3  1  0.30365273  0.80365273  0.83145122  1
  Ta  Ta4  1  0.49935745  0.49935745  0.00000000  1
  Ta  Ta5  1  0.99935745  0.99935745  0.00000000  1
  Nb  Nb0  1  0.52721743  0.69550774  0.50000000  1
  Nb  Nb1  1  0.19550774  0.02721743  0.50000000  1
  Nb  Nb2  1  0.02721743  0.52721743  0.83171069  1
  Nb  Nb3  1  0.69550774  0.19550774  0.16828931  1
  B  B0  1  0.88358801  0.61974069  0.50000000  1
  B  B1  1  0.11974069  0.38358801  0.50000000  1
  B  B2  1  0.38358801  0.88358801  0.26384633  1
  B  B3  1  0.61974069  0.11974069  0.73615367  1
  As  As0  1  0.24873342  0.24873342  1.00000000  1
  As  As1  1  0.74873342  0.74873342  1.00000000  1
loop_
_geom_bond_atom_site_label_1
_geom_bond_atom_site_label_2
_geom_bond_distance
_geom_bond_site_symmetry_2
B0 B1 2.089050 1_655
B0 Ta3 2.400474 1_655
B0 Ta2 2.400482 1_555
B0 Nb3 2.432560 1_555
B0 Nb2 2.432568 1_655
B0 Ta1 2.485914 1_555
B0 Ta4 2.500719 1_555
B0 Ta5 2.500719 1_556
B0 Nb0 2.515370 1_555
B1 Ta3 2.400474 1_555
B1 Ta2 2.400482 1_455
B1 Nb3 2.432560 1_455
B1 Nb2 2.432568 1_555
B1 Ta0 2.485914 1_555
B1 Ta4 2.500719 1_556
B1 Ta5 2.500719 1_445
B1 Nb1 2.515370 1_555
B2 B3 2.089059 1_565
B2 Ta1 2.400473 1_555
B2 Ta0 2.400473 1_565
B2 Nb0 2.432567 1_555
B2 Nb1 2.432567 1_565
B2 Ta3 2.485901 1_554
B2 Ta5 2.500717 1_455
B2 Ta4 2.500717 1_555
B2 Nb2 2.515371 1_554
B3 Ta0 2.400481 1_555
B3 Ta1 2.400481 1_545
B3 Nb1 2.432559 1_555
B3 Nb0 2.432559 1_545
B3 Ta2 2.485915 1_556
B3 Ta5 2.500717 1_546
B3 Ta4 2.500717 1_556
B3 Nb3 2.515356 1_556
As0 Ta2 2.667278 1_456
As0 Ta1 2.667282 1_445
As0 Ta0 2.667283 1_556
As0 Ta3 2.667284 1_545
As0 Nb2 2.677312 1_555
As0 Nb0 2.677316 1_556
As0 Nb1 2.677317 1_555
As0 Nb3 2.677318 1_556
As0 Ta5 2.906348 1_446
As0 Ta4 2.920894 1_556
As1 Ta2 2.667278 1_556
As1 Ta0 2.667282 1_555
As1 Ta1 2.667283 1_556
As1 Ta3 2.667284 1_555
As1 Nb2 2.677312 1_655
As1 Nb1 2.677316 1_666
As1 Nb0 2.677316 1_555
As1 Nb3 2.677318 1_566
As1 Ta4 2.906348 1_556
As1 Ta5 2.920894 1_556
