# generated using pymatgen
data_LiHS
_symmetry_space_group_name_H-M   'P 1'
_cell_length_a   7.83624404
_cell_length_b   7.83624404
_cell_length_c   6.11737050
_cell_angle_alpha   90.00000000
_cell_angle_beta   90.00000000
_cell_angle_gamma   90.00000000
_symmetry_Int_Tables_number   1
_chemical_formula_structural   LiHS
_chemical_formula_sum   'Li8 H8 S8'
_cell_volume   375.64766143
_cell_formula_units_Z   8
loop_
 _symmetry_equiv_pos_site_id
 _symmetry_equiv_pos_as_xyz
  1  'x, y, z'
loop_
 _atom_site_type_symbol
 _atom_site_label
 _atom_site_symmetry_multiplicity
 _atom_site_fract_x
 _atom_site_fract_y
 _atom_site_fract_z
 _atom_site_occupancy
  Li  Li0  1  0.00000000  0.50000000  0.75000000  1
  Li  Li1  1  0.50000000  0.00000000  0.75000000  1
  Li  Li2  1  0.00000000  0.50000000  0.25000000  1
  Li  Li3  1  0.00000000  0.00000000  0.25000000  1
  Li  Li4  1  0.50000000  0.50000000  0.25000000  1
  Li  Li5  1  0.50000000  0.50000000  0.75000000  1
  Li  Li6  1  0.50000000  0.00000000  0.25000000  1
  Li  Li7  1  0.00000000  0.00000000  0.75000000  1
  H  H0  1  0.25117158  0.81297328  -0.00000000  1
  H  H1  1  0.74882842  0.18702672  0.00000000  1
  H  H2  1  0.18702672  0.25117158  0.50000000  1
  H  H3  1  0.75117158  0.68702672  0.00000000  1
  H  H4  1  0.68702672  0.24882842  0.50000000  1
  H  H5  1  0.31297328  0.75117158  0.50000000  1
  H  H6  1  0.24882842  0.31297328  -0.00000000  1
  H  H7  1  0.81297328  0.74882842  0.50000000  1
  S  S0  1  0.24986130  0.98416478  0.00000000  1
  S  S1  1  0.75013870  0.01583522  0.00000000  1
  S  S2  1  0.01583522  0.24986130  0.50000000  1
  S  S3  1  0.98416478  0.75013870  0.50000000  1
  S  S4  1  0.48416478  0.74986130  0.50000000  1
  S  S5  1  0.74986130  0.51583522  0.00000000  1
  S  S6  1  0.25013870  0.48416478  0.00000000  1
  S  S7  1  0.51583522  0.25013870  0.50000000  1
loop_
_geom_bond_atom_site_label_1
_geom_bond_atom_site_label_2
_geom_bond_distance
_geom_bond_site_symmetry_2
Li0 S6 2.489270 1_556
Li0 S2 2.489270 1_555
Li0 S3 2.489270 1_455
Li0 S5 2.489270 1_456
Li1 S7 2.489270 1_555
Li1 S0 2.489270 1_546
Li1 S1 2.489270 1_556
Li1 S4 2.489270 1_545
Li2 S6 2.489270 1_555
Li2 S2 2.489270 1_555
Li2 S5 2.489270 1_455
Li2 S3 2.489270 1_455
Li3 S3 2.487559 1_445
Li3 S1 2.487559 1_455
Li3 S0 2.487559 1_545
Li3 S2 2.487559 1_555
Li4 S4 2.487559 1_555
Li4 S5 2.487559 1_555
Li4 S7 2.487559 1_555
Li4 S6 2.487559 1_555
Li5 S5 2.487559 1_556
Li5 S4 2.487559 1_555
Li5 S7 2.487559 1_555
Li5 S6 2.487559 1_556
Li6 S7 2.489270 1_555
Li6 S0 2.489270 1_545
Li6 S4 2.489270 1_545
Li6 S1 2.489270 1_555
Li7 S3 2.487559 1_445
Li7 S1 2.487559 1_456
Li7 S0 2.487559 1_546
Li7 S2 2.487559 1_555
H0 S0 1.341538 1_555
H1 S1 1.341538 1_555
H2 S2 1.341538 1_555
H3 S5 1.341538 1_555
H4 S7 1.341538 1_555
H5 S4 1.341538 1_555
H6 S6 1.341538 1_555
H7 S3 1.341538 1_555
