# generated using pymatgen
data_Ba6SnAsI4
_symmetry_space_group_name_H-M   'P 1'
_cell_length_a   16.59393230
_cell_length_b   15.81891540
_cell_length_c   8.71700098
_cell_angle_alpha   79.37164546
_cell_angle_beta   69.54395530
_cell_angle_gamma   31.08440744
_symmetry_Int_Tables_number   1
_chemical_formula_structural   Ba6SnAsI4
_chemical_formula_sum   'Ba12 Sn2 As2 I8'
_cell_volume   1075.23896399
_cell_formula_units_Z   2
loop_
 _symmetry_equiv_pos_site_id
 _symmetry_equiv_pos_as_xyz
  1  'x, y, z'
loop_
 _atom_site_type_symbol
 _atom_site_label
 _atom_site_symmetry_multiplicity
 _atom_site_fract_x
 _atom_site_fract_y
 _atom_site_fract_z
 _atom_site_occupancy
  Ba  Ba0  1  0.37985973  0.93674168  0.59655316  1
  Ba  Ba1  1  0.59655316  0.08684743  0.37985973  1
  Ba  Ba2  1  0.30975582  0.86401322  0.15547626  1
  Ba  Ba3  1  0.93674168  0.37985973  0.08684743  1
  Ba  Ba4  1  0.47244651  0.02755349  0.02755349  1
  Ba  Ba5  1  0.86401322  0.30975582  0.67075269  1
  Ba  Ba6  1  0.08684743  0.59655316  0.93674168  1
  Ba  Ba7  1  0.67075269  0.15547626  0.86401322  1
  Ba  Ba8  1  0.78608573  0.21391427  0.21391427  1
  Ba  Ba9  1  0.21391427  0.78608573  0.78608573  1
  Ba  Ba10  1  0.15547626  0.67075269  0.30975582  1
  Ba  Ba11  1  0.02755349  0.47244651  0.47244651  1
  Sn  Sn0  1  0.16416954  0.16416954  0.33583046  1
  Sn  Sn1  1  0.33583046  0.33583046  0.16416954  1
  As  As0  1  0.08178169  0.08178169  0.91821831  1
  As  As1  1  0.91821831  0.91821831  0.08178169  1
  I  I0  1  0.66943669  0.66943669  0.83056331  1
  I  I1  1  0.74740832  0.74740832  0.25259168  1
  I  I2  1  0.25259168  0.25259168  0.74740832  1
  I  I3  1  0.57776006  0.57776006  0.42223994  1
  I  I4  1  0.99734063  0.99734063  0.50265937  1
  I  I5  1  0.83056331  0.83056331  0.66943669  1
  I  I6  1  0.42223994  0.42223994  0.57776006  1
  I  I7  1  0.50265937  0.50265937  0.99734063  1
loop_
_geom_bond_atom_site_label_1
_geom_bond_atom_site_label_2
_geom_bond_distance
_geom_bond_site_symmetry_2
Ba0 Sn0 3.396058 1_565
Ba0 I3 3.618613 1_555
Ba0 I2 3.682732 1_565
Ba0 I0 3.741466 1_555
Ba0 I1 3.794899 1_555
Ba1 Sn1 3.396059 1_555
Ba1 I6 3.618585 1_555
Ba1 I1 3.682762 1_545
Ba1 I5 3.741468 1_545
Ba1 I2 3.794913 1_555
Ba2 Sn0 3.362189 1_565
Ba2 I0 3.612852 1_554
Ba2 I4 3.625375 1_455
Ba2 I7 3.647410 1_554
Ba2 I3 3.813345 1_555
Ba3 Sn0 3.396044 1_655
Ba3 I3 3.618606 1_555
Ba3 I2 3.682740 1_654
Ba3 I0 3.741480 1_554
Ba3 I1 3.794893 1_555
Ba4 Sn1 3.414432 1_555
Ba4 Sn0 3.414432 1_555
Ba4 I1 3.566735 1_545
Ba4 I2 3.566736 1_554
Ba4 I0 3.697743 1_544
Ba4 I5 3.697743 1_544
Ba5 Sn0 3.362181 1_655
Ba5 I0 3.612859 1_555
Ba5 I4 3.625368 1_545
Ba5 I7 3.647416 1_555
Ba5 I3 3.813331 1_555
Ba6 Sn1 3.396046 1_556
Ba6 I6 3.618593 1_555
Ba6 I1 3.682756 1_456
Ba6 I5 3.741483 1_455
Ba6 I2 3.794921 1_555
Ba7 Sn1 3.362168 1_556
Ba7 I5 3.612831 1_545
Ba7 I7 3.625397 1_555
Ba7 I4 3.647430 1_545
Ba7 I6 3.813333 1_555
Ba8 I7 3.574515 1_554
Ba8 I4 3.574515 1_545
Ba8 I3 3.709911 1_555
Ba8 I6 3.709911 1_555
Ba9 I7 3.574515 1_555
Ba9 I4 3.574515 1_455
Ba9 I6 3.709911 1_555
Ba9 I3 3.709911 1_555
Ba10 Sn1 3.362162 1_555
Ba10 I5 3.612839 1_455
Ba10 I7 3.625391 1_554
Ba10 I4 3.647438 1_455
Ba10 I6 3.813347 1_555
Ba11 Sn0 3.414432 1_555
Ba11 Sn1 3.414432 1_555
Ba11 I1 3.566735 1_455
Ba11 I2 3.566736 1_555
Ba11 I5 3.697743 1_455
Ba11 I0 3.697743 1_455
As0 Ba9 3.266398 1_545
As0 Ba8 3.266398 1_456
As0 Ba0 3.291325 1_545
As0 Ba3 3.291332 1_456
As0 Ba2 3.312836 1_546
As0 Ba5 3.312850 1_455
As1 Ba8 3.266398 1_565
As1 Ba9 3.266398 1_654
As1 Ba6 3.291304 1_654
As1 Ba1 3.291311 1_565
As1 Ba10 3.312837 1_655
As1 Ba7 3.312851 1_564
