# generated using pymatgen
data_Ti13Al9Rh7W
_symmetry_space_group_name_H-M   'P 1'
_cell_length_a   8.71344937
_cell_length_b   8.71344908
_cell_length_c   8.71344966
_cell_angle_alpha   59.62869096
_cell_angle_beta   59.62869257
_cell_angle_gamma   59.62870044
_symmetry_Int_Tables_number   1
_chemical_formula_structural   Ti13Al9Rh7W
_chemical_formula_sum   'Ti13 Al9 Rh7 W1'
_cell_volume   463.84755969
_cell_formula_units_Z   1
loop_
 _symmetry_equiv_pos_site_id
 _symmetry_equiv_pos_as_xyz
  1  'x, y, z'
loop_
 _atom_site_type_symbol
 _atom_site_label
 _atom_site_symmetry_multiplicity
 _atom_site_fract_x
 _atom_site_fract_y
 _atom_site_fract_z
 _atom_site_occupancy
  Ti  Ti0  1  0.21584946  0.21584946  0.78629065  1
  Ti  Ti1  1  0.78629065  0.21584946  0.21584946  1
  Ti  Ti2  1  0.21584946  0.78629065  0.21584946  1
  Ti  Ti3  1  0.79225527  0.79225527  0.19129047  1
  Ti  Ti4  1  0.19129047  0.79225527  0.79225527  1
  Ti  Ti5  1  0.79225527  0.19129047  0.79225527  1
  Ti  Ti6  1  0.37788776  0.37788776  0.37788776  1
  Ti  Ti7  1  0.37866678  0.86904225  0.37866678  1
  Ti  Ti8  1  0.86904225  0.37866678  0.37866678  1
  Ti  Ti9  1  0.37866678  0.37866678  0.86904225  1
  Ti  Ti10  1  0.84861183  0.45723490  0.84861183  1
  Ti  Ti11  1  0.45723490  0.84861183  0.84861183  1
  Ti  Ti12  1  0.84861183  0.84861183  0.45723490  1
  Al  Al0  1  0.14949009  0.14949009  0.14949009  1
  Al  Al1  1  0.15293086  0.54897220  0.15293086  1
  Al  Al2  1  0.54897220  0.15293086  0.15293086  1
  Al  Al3  1  0.15293086  0.15293086  0.54897220  1
  Al  Al4  1  0.61935608  0.61935608  0.61935608  1
  Al  Al5  1  0.62039615  0.14128473  0.62039615  1
  Al  Al6  1  0.14128473  0.62039615  0.62039615  1
  Al  Al7  1  0.62039615  0.62039615  0.14128473  1
  Al  Al8  1  0.83051888  0.83051888  0.83051888  1
  Rh  Rh0  1  0.00429735  0.00429735  0.49848772  1
  Rh  Rh1  1  0.49848772  0.00429735  0.00429735  1
  Rh  Rh2  1  0.00429735  0.49848772  0.00429735  1
  Rh  Rh3  1  0.50028388  0.50028388  0.00112430  1
  Rh  Rh4  1  0.00112430  0.50028388  0.50028388  1
  Rh  Rh5  1  0.50028388  0.00112430  0.50028388  1
  Rh  Rh6  1  0.50026451  0.50026451  0.50026451  1
  W  W0  1  0.00217631  0.00217631  0.00217631  1
loop_
_geom_bond_atom_site_label_1
_geom_bond_atom_site_label_2
_geom_bond_distance
_geom_bond_site_symmetry_2
Ti0 W0 2.625558 1_556
Ti0 Ti11 2.747767 1_545
Ti0 Ti10 2.747768 1_455
Ti0 Ti6 2.916334 1_555
Ti0 Ti9 2.940992 1_555
Ti1 W0 2.625558 1_655
Ti1 Ti10 2.747767 1_554
Ti1 Ti12 2.747767 1_545
Ti1 Ti6 2.916334 1_555
Ti1 Ti8 2.940992 1_555
Ti2 W0 2.625558 1_565
Ti2 Ti6 2.916334 1_555
Ti2 Ti7 2.940992 1_555
Ti3 W0 2.587333 1_665
Ti3 Ti8 2.969380 1_555
Ti3 Ti7 2.969381 1_555
Ti4 W0 2.587334 1_566
Ti4 Ti7 2.969380 1_555
Ti4 Ti9 2.969381 1_555
Ti5 W0 2.587334 1_656
Ti5 Ti8 2.969380 1_555
Ti5 Ti9 2.969381 1_555
Ti10 Ti5 2.897814 1_555
Ti10 W0 3.222341 1_656
Ti10 Ti12 3.391086 1_555
Ti10 Ti11 3.391086 1_555
Ti11 Ti2 2.747767 1_556
Ti11 Ti4 2.897814 1_555
Ti11 W0 3.222341 1_566
Ti11 Ti12 3.391086 1_555
Ti12 Ti2 2.747767 1_655
Ti12 Ti3 2.897814 1_555
Ti12 W0 3.222341 1_665
Al0 Rh0 2.507280 1_555
Al0 Rh2 2.507280 1_555
Al0 Rh1 2.507280 1_555
Al0 Ti2 2.705809 1_545
Al0 Ti0 2.705809 1_554
Al0 Ti1 2.705809 1_455
Al0 Ti9 2.847857 1_554
Al0 Ti7 2.847858 1_545
Al0 Ti8 2.847858 1_455
Al1 Rh4 2.512152 1_555
Al1 Rh3 2.512152 1_555
Al1 Rh2 2.529115 1_555
Al1 Ti4 2.720244 1_554
Al1 Ti3 2.720245 1_455
Al1 Ti2 2.733840 1_555
Al1 Ti6 2.807544 1_555
Al1 Ti8 2.833763 1_455
Al1 Ti9 2.833764 1_554
Al2 Rh3 2.512152 1_555
Al2 Rh5 2.512152 1_555
Al2 Rh1 2.529115 1_555
Al2 Ti5 2.720245 1_554
Al2 Ti3 2.720245 1_545
Al2 Ti1 2.733840 1_555
Al2 Ti6 2.807544 1_555
Al2 Ti7 2.833763 1_545
Al2 Ti9 2.833764 1_554
Al3 Rh4 2.512152 1_555
Al3 Rh5 2.512152 1_555
Al3 Rh0 2.529114 1_555
Al3 Ti4 2.720244 1_545
Al3 Ti5 2.720245 1_455
Al3 Ti0 2.733840 1_555
Al3 Ti6 2.807544 1_555
Al3 Ti7 2.833764 1_545
Al3 Ti8 2.833764 1_455
Al4 Rh6 2.548941 1_555
Al4 Rh3 2.706867 1_556
Al4 Rh5 2.706867 1_565
Al4 Rh4 2.706867 1_655
Al4 Ti12 2.881761 1_555
Al4 Ti11 2.881762 1_555
Al4 Ti10 2.881762 1_555
Al4 Ti9 2.958034 1_555
Al4 Ti7 2.958034 1_555
Al4 Ti8 2.958034 1_555
Al4 Ti3 3.063055 1_555
Al4 Ti5 3.063056 1_555
Al4 Ti4 3.063056 1_555
Al5 Rh6 2.541984 1_555
Al5 Rh5 2.715671 1_555
Al5 Rh1 2.719244 1_556
Al5 Rh0 2.719244 1_655
Al5 Al8 2.720267 1_545
Al5 Ti11 2.856301 1_545
Al5 Ti12 2.856302 1_545
Al5 Ti5 2.874363 1_555
Al5 Ti1 2.901468 1_555
Al5 Ti0 2.901468 1_555
Al5 Ti6 2.980824 1_555
Al5 Ti8 2.986693 1_555
Al5 Ti9 2.986694 1_555
Al6 Rh6 2.541984 1_555
Al6 Rh4 2.715671 1_555
Al6 Rh2 2.719244 1_556
Al6 Rh0 2.719244 1_565
Al6 Al8 2.720267 1_455
Al6 Ti10 2.856301 1_455
Al6 Ti12 2.856302 1_455
Al6 Ti4 2.874363 1_555
Al6 Ti0 2.901468 1_555
Al6 Ti2 2.901468 1_555
Al6 Ti6 2.980824 1_555
Al6 Ti7 2.986693 1_555
Al6 Ti9 2.986694 1_555
Al7 Rh6 2.541984 1_555
Al7 Rh3 2.715671 1_555
Al7 Rh1 2.719244 1_565
Al7 Rh2 2.719244 1_655
Al7 Al8 2.720266 1_554
Al7 Ti11 2.856302 1_554
Al7 Ti10 2.856302 1_554
Al7 Ti3 2.874363 1_555
Al7 Ti1 2.901468 1_555
Al7 Ti2 2.901468 1_555
Al7 Ti6 2.980824 1_555
Al7 Ti8 2.986694 1_555
Al7 Ti7 2.986694 1_555
Al8 Rh0 2.532712 1_665
Al8 Rh2 2.532712 1_656
Al8 Rh1 2.532712 1_566
Al8 Ti5 2.845534 1_565
Al8 Ti4 2.845534 1_655
Al8 Ti3 2.845534 1_556
Al8 Ti10 3.101152 1_555
Al8 Ti11 3.101152 1_555
Al8 Ti12 3.101152 1_555
Rh0 Ti12 2.580066 1_445
Rh0 Ti8 2.651938 1_455
Rh0 Ti7 2.651938 1_545
Rh0 Ti4 3.001932 1_545
Rh0 Ti5 3.001932 1_455
Rh0 Ti1 3.109785 1_455
Rh0 Ti2 3.109785 1_545
Rh1 Ti11 2.580066 1_544
Rh1 Ti7 2.651938 1_545
Rh1 Ti9 2.651938 1_554
Rh1 Ti5 3.001932 1_554
Rh1 Ti3 3.001932 1_545
Rh1 Ti2 3.109784 1_545
Rh1 Ti0 3.109785 1_554
Rh2 Ti10 2.580066 1_454
Rh2 Ti8 2.651938 1_455
Rh2 Ti9 2.651938 1_554
Rh2 Ti4 3.001932 1_554
Rh2 Ti3 3.001932 1_455
Rh2 Ti1 3.109784 1_455
Rh2 Ti0 3.109785 1_554
Rh3 Ti11 2.528432 1_554
Rh3 Ti10 2.528432 1_554
Rh3 Ti6 2.668634 1_555
Rh3 Ti9 2.678168 1_554
Rh4 Ti10 2.528432 1_455
Rh4 Ti12 2.528432 1_455
Rh4 Ti6 2.668634 1_555
Rh4 Ti8 2.678168 1_455
Rh5 Ti11 2.528432 1_545
Rh5 Ti12 2.528432 1_545
Rh5 Ti6 2.668634 1_555
Rh5 Ti7 2.678168 1_545
Rh6 Ti9 2.611577 1_555
Rh6 Ti7 2.611577 1_555
Rh6 Ti8 2.611577 1_555
Rh6 Ti6 2.619254 1_555
