# generated using pymatgen
data_LiMn(IO3)4
_symmetry_space_group_name_H-M   'P 1'
_cell_length_a   4.81172549
_cell_length_b   6.36339782
_cell_length_c   8.48551523
_cell_angle_alpha   83.73981416
_cell_angle_beta   91.43058357
_cell_angle_gamma   90.32662335
_symmetry_Int_Tables_number   1
_chemical_formula_structural   LiMn(IO3)4
_chemical_formula_sum   'Li1 Mn1 I4 O12'
_cell_volume   258.18638241
_cell_formula_units_Z   1
loop_
 _symmetry_equiv_pos_site_id
 _symmetry_equiv_pos_as_xyz
  1  'x, y, z'
loop_
 _atom_site_type_symbol
 _atom_site_label
 _atom_site_symmetry_multiplicity
 _atom_site_fract_x
 _atom_site_fract_y
 _atom_site_fract_z
 _atom_site_occupancy
  Li  Li0  1  0.50000000  0.00000000  0.50000000  1
  Mn  Mn0  1  0.50000000  0.50000000  0.50000000  1
  I  I0  1  0.50929341  0.79371417  0.16561566  1
  I  I1  1  0.01276611  0.27527900  0.24761052  1
  I  I2  1  0.98723389  0.72472100  0.75238948  1
  I  I3  1  0.49070659  0.20628583  0.83438434  1
  O  O0  1  0.74542049  0.61888961  0.08377616  1
  O  O1  1  0.70240568  0.03937805  0.11507866  1
  O  O2  1  0.24586972  0.48105657  0.32315104  1
  O  O3  1  0.21845062  0.04809706  0.31820744  1
  O  O4  1  0.64126951  0.74920956  0.37585430  1
  O  O5  1  0.76096655  0.26805204  0.40116485  1
  O  O6  1  0.23903345  0.73194796  0.59883515  1
  O  O7  1  0.35873049  0.25079044  0.62414570  1
  O  O8  1  0.78154938  0.95190294  0.68179256  1
  O  O9  1  0.75413028  0.51894343  0.67684896  1
  O  O10  1  0.29759432  0.96062195  0.88492134  1
  O  O11  1  0.25457951  0.38111039  0.91622384  1
loop_
_geom_bond_atom_site_label_1
_geom_bond_atom_site_label_2
_geom_bond_distance
_geom_bond_site_symmetry_2
Li0 O8 2.026334 1_545
Li0 O3 2.026334 1_555
Li0 O7 2.129176 1_555
Li0 O4 2.129176 1_545
Li0 O5 2.214907 1_555
Li0 O6 2.214907 1_545
Mn0 O9 1.925589 1_555
Mn0 O2 1.925589 1_555
Mn0 O7 1.935396 1_555
Mn0 O4 1.935396 1_555
Mn0 O6 2.191421 1_555
Mn0 O5 2.191421 1_555
I0 O0 1.798072 1_555
I0 O1 1.829815 1_565
I0 O4 1.871194 1_555
I0 O10 2.679236 1_554
I1 O3 1.796136 1_555
I1 O5 1.798045 1_455
I1 O2 1.874564 1_555
I1 O1 2.450924 1_455
I2 O8 1.796136 1_555
I2 O6 1.798045 1_655
I2 O9 1.874564 1_555
I2 O10 2.450924 1_655
I3 O11 1.798072 1_555
I3 O10 1.829815 1_545
I3 O7 1.871194 1_555
I3 O1 2.679236 1_556
