# generated using pymatgen
data_V6Si6Tc5Os7
_symmetry_space_group_name_H-M   'P 1'
_cell_length_a   4.20661951
_cell_length_b   5.93904571
_cell_length_c   12.59718804
_cell_angle_alpha   89.96062938
_cell_angle_beta   90.00011900
_cell_angle_gamma   90.00005635
_symmetry_Int_Tables_number   1
_chemical_formula_structural   V6Si6Tc5Os7
_chemical_formula_sum   'V6 Si6 Tc5 Os7'
_cell_volume   314.71932388
_cell_formula_units_Z   1
loop_
 _symmetry_equiv_pos_site_id
 _symmetry_equiv_pos_as_xyz
  1  'x, y, z'
loop_
 _atom_site_type_symbol
 _atom_site_label
 _atom_site_symmetry_multiplicity
 _atom_site_fract_x
 _atom_site_fract_y
 _atom_site_fract_z
 _atom_site_occupancy
  V  V0  1  0.00000037  0.49995309  0.00381444  1
  V  V1  1  0.49996095  0.00141407  0.16504009  1
  V  V2  1  0.99996054  0.49421283  0.32804102  1
  V  V3  1  0.49999640  0.00483277  0.49586281  1
  V  V4  1  0.00003414  0.50011606  0.66713240  1
  V  V5  1  0.50004730  0.00045271  0.84026458  1
  Si  Si0  1  0.00000656  0.99903046  0.00172668  1
  Si  Si1  1  0.49996129  0.49999598  0.16603091  1
  Si  Si2  1  0.99996084  0.99876188  0.33168364  1
  Si  Si3  1  0.49999706  0.50151153  0.49981040  1
  Si  Si4  1  0.00004096  0.99937848  0.66665644  1
  Si  Si5  1  0.50004047  0.50098729  0.83408837  1
  Tc  Tc0  1  0.50000347  0.24959028  0.99698641  1
  Tc  Tc1  1  0.50000478  0.75011069  0.99756398  1
  Tc  Tc2  1  0.99996261  0.25033441  0.16726996  1
  Tc  Tc3  1  0.99996854  0.74880105  0.16810454  1
  Tc  Tc4  1  0.49996554  0.24912403  0.33682036  1
  Os  Os0  1  0.49996682  0.74890269  0.33657232  1
  Os  Os1  1  0.99999339  0.24994424  0.50280989  1
  Os  Os2  1  0.99999904  0.75115545  0.50161563  1
  Os  Os3  1  0.50002827  0.25083104  0.66646349  1
  Os  Os4  1  0.50003455  0.74989802  0.66565514  1
  Os  Os5  1  0.00003076  0.24990144  0.83001867  1
  Os  Os6  1  0.00003836  0.75076350  0.82996882  1
loop_
_geom_bond_atom_site_label_1
_geom_bond_atom_site_label_2
_geom_bond_distance
_geom_bond_site_symmetry_2
Si0 Tc2 2.565280 1_465
Si0 Tc3 2.568473 1_455
Si0 Tc1 2.571430 1_554
Si0 Tc1 2.571439 1_454
Si0 Tc0 2.577149 1_564
Si0 Tc0 2.577172 1_464
Si0 V5 2.925790 1_464
Si0 V5 2.926043 1_564
Si0 V1 2.942069 1_565
Si0 V1 2.942349 1_465
Si0 V0 2.964142 1_555
Si0 V0 2.975137 1_565
Si1 Tc3 2.570607 1_455
Si1 Tc3 2.570654 1_555
Si1 Tc2 2.573450 1_455
Si1 Tc2 2.573462 1_555
Si1 Tc1 2.589591 1_554
Si1 Tc0 2.598218 1_554
Si1 Tc4 2.616166 1_555
Si1 V2 2.930891 1_555
Si1 V2 2.930902 1_455
Si1 V0 2.932401 1_555
Si1 V0 2.932643 1_655
Si1 V1 2.961136 1_555
Si1 V1 2.977963 1_565
Si2 Tc3 2.540522 1_555
Si2 Tc2 2.552988 1_565
Si2 Tc4 2.576638 1_565
Si2 Tc4 2.576668 1_665
Si2 V2 2.942832 1_565
Si2 V3 2.949939 1_565
Si2 V3 2.950146 1_665
Si2 V1 2.971684 1_565
Si2 V1 2.971690 1_665
Si2 V2 2.996923 1_555
Si5 Tc1 2.536557 1_555
Si5 Tc0 2.536918 1_555
Si5 V5 2.967422 1_565
Si5 V5 2.973662 1_555
Si5 V4 2.974426 1_655
Si5 V4 2.974457 1_555
Si5 V0 2.999092 1_656
Si5 V0 2.999335 1_556
Tc0 V5 2.468001 1_555
Tc0 V0 2.577275 1_656
Tc0 V0 2.577299 1_556
Tc0 V1 2.578737 1_556
Tc1 V5 2.476482 1_565
Tc1 V0 2.576272 1_656
Tc1 V0 2.576300 1_556
Tc1 V1 2.585120 1_566
Tc2 V2 2.490703 1_555
Tc2 V0 2.536417 1_655
Tc2 V1 2.571041 1_655
Tc2 V1 2.571050 1_555
Tc3 V2 2.518176 1_555
Tc3 V0 2.543947 1_655
Tc3 V1 2.583800 1_665
Tc3 V1 2.583854 1_565
Tc4 V3 2.472843 1_555
Tc4 V2 2.560192 1_555
Tc4 V2 2.560228 1_455
Tc4 V1 2.617510 1_555
Os0 V3 2.518139 1_565
Os0 Si3 2.526486 1_555
Os0 Si2 2.574782 1_555
Os0 Si2 2.574825 1_455
Os0 V2 2.592988 1_555
Os0 V2 2.593028 1_455
Os0 Si1 2.608643 1_555
Os0 V1 2.629398 1_565
Os1 Si4 2.543699 1_645
Os1 V4 2.548859 1_655
Os1 V3 2.559459 1_555
Os1 V3 2.559482 1_655
Os1 Si3 2.580203 1_555
Os1 Si3 2.580226 1_655
Os1 Si2 2.622389 1_545
Os1 V2 2.635760 1_555
Os2 Si4 2.549500 1_655
Os2 V4 2.562427 1_655
Os2 Si3 2.573458 1_655
Os2 Si3 2.573470 1_555
Os2 V3 2.588206 1_665
Os2 V3 2.588226 1_565
Os2 Si2 2.596272 1_555
Os2 V2 2.667256 1_555
Os3 V4 2.572125 1_555
Os3 V4 2.572163 1_655
Os3 Si3 2.572849 1_555
Os3 Si4 2.579514 1_545
Os3 Si4 2.579603 1_645
Os3 Si5 2.582721 1_555
Os3 V3 2.599501 1_555
Os3 V5 2.645792 1_555
Os4 Si3 2.558329 1_555
Os4 Si4 2.572810 1_555
Os4 Si4 2.572852 1_655
Os4 V4 2.573887 1_655
Os4 V4 2.573887 1_555
Os4 Si5 2.585152 1_555
Os4 V3 2.619709 1_565
Os4 V5 2.656501 1_565
Os5 V4 2.532675 1_555
Os5 Si4 2.540262 1_545
Os5 V5 2.575814 1_455
Os5 V5 2.575929 1_555
Os5 Si5 2.578796 1_455
Os5 Si5 2.578860 1_555
Os5 Si0 2.625683 1_546
Os5 V0 2.646337 1_556
Os6 Si4 2.531476 1_555
Os6 V4 2.535330 1_555
Os6 Si5 2.574301 1_455
Os6 Si5 2.574318 1_555
Os6 V5 2.576798 1_465
Os6 V5 2.576856 1_565
Os6 Si0 2.619140 1_556
Os6 V0 2.647697 1_556
