# generated using pymatgen
data_Sr2Zr6BCl17
_symmetry_space_group_name_H-M   'P 1'
_cell_length_a   9.56973292
_cell_length_b   9.56960733
_cell_length_c   9.56953066
_cell_angle_alpha   105.50684190
_cell_angle_beta   105.50639067
_cell_angle_gamma   117.72851325
_symmetry_Int_Tables_number   1
_chemical_formula_structural   Sr2Zr6BCl17
_chemical_formula_sum   'Sr2 Zr6 B1 Cl17'
_cell_volume   663.98533664
_cell_formula_units_Z   1
loop_
 _symmetry_equiv_pos_site_id
 _symmetry_equiv_pos_as_xyz
  1  'x, y, z'
loop_
 _atom_site_type_symbol
 _atom_site_label
 _atom_site_symmetry_multiplicity
 _atom_site_fract_x
 _atom_site_fract_y
 _atom_site_fract_z
 _atom_site_occupancy
  Sr  Sr0  1  0.24999036  0.75000195  0.49999418  1
  Sr  Sr1  1  0.75000964  0.24999805  0.50000582  1
  Zr  Zr0  1  0.23415581  0.23415777  0.99999577  1
  Zr  Zr1  1  0.76584419  0.76584223  0.00000423  1
  Zr  Zr2  1  0.18949899  0.05743974  0.24693886  1
  Zr  Zr3  1  0.94255948  0.18950346  0.13206686  1
  Zr  Zr4  1  0.81050101  0.94256026  0.75306114  1
  Zr  Zr5  1  0.05744052  0.81049654  0.86793314  1
  B  B0  1  0.00000000  0.00000000  0.00000000  1
  Cl  Cl0  1  0.85380632  0.72649247  0.58029328  1
  Cl  Cl1  1  0.27349719  0.85379420  0.12730242  1
  Cl  Cl2  1  0.11829483  0.58709431  0.70539361  1
  Cl  Cl3  1  0.53078105  0.68304362  0.72529811  1
  Cl  Cl4  1  0.88170517  0.41290569  0.29460639  1
  Cl  Cl5  1  0.46921895  0.31695638  0.27470189  1
  Cl  Cl6  1  0.80547407  0.53075968  0.84772691  1
  Cl  Cl7  1  0.41289880  0.11829242  0.53119204  1
  Cl  Cl8  1  0.58710120  0.88170758  0.46880796  1
  Cl  Cl9  1  0.14619368  0.27350753  0.41970672  1
  Cl  Cl10  1  0.31695092  0.04225021  0.84771169  1
  Cl  Cl11  1  0.95774764  0.80547355  0.27471737  1
  Cl  Cl12  1  0.72650281  0.14620580  0.87269758  1
  Cl  Cl13  1  0.50000000  0.50000000  0.00000000  1
  Cl  Cl14  1  0.19452593  0.46924032  0.15227309  1
  Cl  Cl15  1  0.04225236  0.19452645  0.72528263  1
  Cl  Cl16  1  0.68304908  0.95774979  0.15228831  1
loop_
_geom_bond_atom_site_label_1
_geom_bond_atom_site_label_2
_geom_bond_distance
_geom_bond_site_symmetry_2
B0 Zr2 2.293787 1_555
B0 Zr4 2.293787 1_444
B0 Zr5 2.293834 1_544
B0 Zr3 2.293834 1_455
B0 Zr0 2.317314 1_554
B0 Zr1 2.317314 1_445
Cl0 Zr5 2.551744 1_655
Cl0 Zr4 2.552709 1_555
Cl1 Zr2 2.551776 1_565
Cl1 Zr5 2.552669 1_554
Cl2 Zr5 2.682131 1_555
Cl2 Sr1 3.002793 1_455
Cl2 Sr0 3.002812 1_555
Cl3 Zr4 2.546444 1_555
Cl3 Zr1 2.581548 1_556
Cl3 Sr0 3.394527 1_555
Cl4 Zr3 2.682131 1_555
Cl4 Sr0 3.002793 1_655
Cl4 Sr1 3.002812 1_555
Cl5 Zr2 2.546444 1_555
Cl5 Zr0 2.581548 1_554
Cl5 Sr1 3.394527 1_555
Cl6 Zr5 2.546559 1_655
Cl6 Zr1 2.581622 1_556
Cl6 Sr1 3.394268 1_555
Cl7 Zr2 2.682162 1_555
Cl7 Sr0 3.002744 1_545
Cl7 Sr1 3.002878 1_555
Cl8 Zr4 2.682162 1_555
Cl8 Sr1 3.002744 1_565
Cl8 Sr0 3.002878 1_555
Cl9 Zr3 2.551744 1_455
Cl9 Zr2 2.552709 1_555
Cl10 Zr5 2.546497 1_545
Cl10 Zr0 2.581577 1_555
Cl10 Sr0 3.394203 1_545
Cl11 Zr2 2.546554 1_665
Cl11 Zr1 2.581623 1_555
Cl11 Sr0 3.394173 1_655
Cl12 Zr4 2.551776 1_545
Cl12 Zr3 2.552669 1_556
Cl13 Zr1 2.630851 1_555
Cl13 Zr0 2.630851 1_554
Cl14 Zr3 2.546559 1_455
Cl14 Zr0 2.581622 1_554
Cl14 Sr0 3.394268 1_555
Cl15 Zr4 2.546554 1_445
Cl15 Zr0 2.581623 1_555
Cl15 Sr1 3.394173 1_455
Cl16 Zr3 2.546497 1_565
Cl16 Zr1 2.581577 1_555
Cl16 Sr1 3.394203 1_565
