# generated using pymatgen
data_Ba2CuTcN4
_symmetry_space_group_name_H-M   'P 1'
_cell_length_a   5.94646959
_cell_length_b   6.52462491
_cell_length_c   7.71674870
_cell_angle_alpha   68.74761118
_cell_angle_beta   90.00000000
_cell_angle_gamma   90.00000000
_symmetry_Int_Tables_number   1
_chemical_formula_structural   Ba2CuTcN4
_chemical_formula_sum   'Ba4 Cu2 Tc2 N8'
_cell_volume   279.03690551
_cell_formula_units_Z   2
loop_
 _symmetry_equiv_pos_site_id
 _symmetry_equiv_pos_as_xyz
  1  'x, y, z'
loop_
 _atom_site_type_symbol
 _atom_site_label
 _atom_site_symmetry_multiplicity
 _atom_site_fract_x
 _atom_site_fract_y
 _atom_site_fract_z
 _atom_site_occupancy
  Ba  Ba0  1  0.25000000  0.26734286  0.05177967  1
  Ba  Ba1  1  0.75000000  0.73265714  0.94822033  1
  Ba  Ba2  1  0.75000000  0.82959451  0.41348992  1
  Ba  Ba3  1  0.25000000  0.17040549  0.58651008  1
  Cu  Cu0  1  0.75000000  0.35232603  0.39312805  1
  Cu  Cu1  1  0.25000000  0.64767397  0.60687195  1
  Tc  Tc0  1  0.25000000  0.69961553  0.21767835  1
  Tc  Tc1  1  0.75000000  0.30038447  0.78232165  1
  N  N0  1  0.50528376  0.47540301  0.73243682  1
  N  N1  1  0.00528376  0.52459699  0.26756318  1
  N  N2  1  0.49471624  0.52459699  0.26756318  1
  N  N3  1  0.99471624  0.47540301  0.73243682  1
  N  N4  1  0.75000000  0.12187155  0.63792179  1
  N  N5  1  0.25000000  0.87812845  0.36207821  1
  N  N6  1  0.75000000  0.13089572  0.02204659  1
  N  N7  1  0.25000000  0.86910428  0.97795341  1
loop_
_geom_bond_atom_site_label_1
_geom_bond_atom_site_label_2
_geom_bond_distance
_geom_bond_site_symmetry_2
Ba0 N5 2.788240 1_545
Ba0 N0 2.791918 1_554
Ba0 N3 2.791918 1_454
Ba0 N7 2.854672 1_544
Ba0 N2 3.119908 1_555
Ba0 N1 3.119908 1_555
Ba0 N6 3.135829 1_455
Ba0 N6 3.135829 1_555
Ba1 N4 2.788240 1_565
Ba1 N1 2.791918 1_656
Ba1 N2 2.791918 1_556
Ba1 N6 2.854672 1_566
Ba1 N3 3.119908 1_555
Ba1 N0 3.119908 1_555
Ba1 N7 3.135829 1_555
Ba1 N7 3.135829 1_655
Ba2 N6 2.946888 1_565
Ba2 N5 3.001120 1_655
Ba2 N5 3.001120 1_555
Ba2 N4 3.005057 1_565
Ba2 N1 3.026072 1_655
Ba2 N2 3.026072 1_555
Ba2 N3 3.064706 1_555
Ba2 N0 3.064706 1_555
Ba3 N7 2.946888 1_545
Ba3 N4 3.001120 1_455
Ba3 N4 3.001120 1_555
Ba3 N5 3.005057 1_545
Ba3 N0 3.026072 1_555
Ba3 N3 3.026072 1_455
Ba3 N2 3.064706 1_555
Ba3 N1 3.064706 1_555
Cu0 N1 1.927988 1_655
Cu0 N2 1.927988 1_555
Cu0 N4 1.941681 1_555
Cu1 N0 1.927988 1_555
Cu1 N3 1.927988 1_455
Cu1 N5 1.941681 1_555
N0 Tc1 1.803084 1_555
N1 Tc0 1.803084 1_555
N2 Tc0 1.803084 1_555
N3 Tc1 1.803084 1_555
N4 Tc1 1.881260 1_555
N5 Tc0 1.881260 1_555
N6 Tc1 1.778196 1_554
N7 Tc0 1.778196 1_556
