# generated using pymatgen
data_Zr6Ti4Al12Ir7
_symmetry_space_group_name_H-M   'P 1'
_cell_length_a   8.74397940
_cell_length_b   8.74398004
_cell_length_c   8.74398001
_cell_angle_alpha   60.00000011
_cell_angle_beta   59.99999769
_cell_angle_gamma   60.00000302
_symmetry_Int_Tables_number   1
_chemical_formula_structural   Zr6Ti4Al12Ir7
_chemical_formula_sum   'Zr6 Ti4 Al12 Ir7'
_cell_volume   472.72921621
_cell_formula_units_Z   1
loop_
 _symmetry_equiv_pos_site_id
 _symmetry_equiv_pos_as_xyz
  1  'x, y, z'
loop_
 _atom_site_type_symbol
 _atom_site_label
 _atom_site_symmetry_multiplicity
 _atom_site_fract_x
 _atom_site_fract_y
 _atom_site_fract_z
 _atom_site_occupancy
  Zr  Zr0  1  0.69112591  0.69112591  0.30887409  1
  Zr  Zr1  1  0.30887409  0.69112591  0.30887409  1
  Zr  Zr2  1  0.69112591  0.30887409  0.30887409  1
  Zr  Zr3  1  0.30887409  0.30887409  0.69112591  1
  Zr  Zr4  1  0.69112591  0.30887409  0.69112591  1
  Zr  Zr5  1  0.30887409  0.69112591  0.69112591  1
  Ti  Ti0  1  0.88010983  0.88010983  0.35967152  1
  Ti  Ti1  1  0.88010983  0.35967152  0.88010983  1
  Ti  Ti2  1  0.35967152  0.88010983  0.88010983  1
  Ti  Ti3  1  0.88010983  0.88010983  0.88010983  1
  Al  Al0  1  0.12042948  0.12042948  0.63871157  1
  Al  Al1  1  0.12042948  0.63871157  0.12042948  1
  Al  Al2  1  0.63871157  0.12042948  0.12042948  1
  Al  Al3  1  0.12042948  0.12042948  0.12042948  1
  Al  Al4  1  0.66286979  0.66286979  0.01138964  1
  Al  Al5  1  0.66286979  0.01138964  0.66286979  1
  Al  Al6  1  0.01138964  0.66286979  0.66286979  1
  Al  Al7  1  0.66286979  0.66286979  0.66286979  1
  Al  Al8  1  0.33550589  0.33550589  0.99348432  1
  Al  Al9  1  0.33550589  0.99348432  0.33550589  1
  Al  Al10  1  0.99348432  0.33550589  0.33550589  1
  Al  Al11  1  0.33550589  0.33550589  0.33550589  1
  Ir  Ir0  1  0.00000000  0.00000000  0.00000000  1
  Ir  Ir1  1  0.99796659  0.99796659  0.50203341  1
  Ir  Ir2  1  0.50203341  0.99796659  0.50203341  1
  Ir  Ir3  1  0.99796659  0.50203341  0.50203341  1
  Ir  Ir4  1  0.50203341  0.50203341  0.99796659  1
  Ir  Ir5  1  0.99796659  0.50203341  0.99796659  1
  Ir  Ir6  1  0.50203341  0.99796659  0.99796659  1
loop_
_geom_bond_atom_site_label_1
_geom_bond_atom_site_label_2
_geom_bond_distance
_geom_bond_site_symmetry_2
Zr0 Zr5 3.342402 1_555
Zr0 Zr1 3.342402 1_555
Zr0 Zr2 3.342402 1_555
Zr0 Zr4 3.342402 1_555
Zr1 Zr5 3.342402 1_555
Zr1 Zr3 3.342402 1_555
Zr1 Zr2 3.342402 1_555
Zr2 Zr3 3.342402 1_555
Zr2 Zr4 3.342402 1_555
Zr3 Zr4 3.342402 1_555
Zr3 Zr5 3.342402 1_555
Zr4 Zr5 3.342402 1_555
Ti0 Zr1 3.139616 1_655
Ti0 Zr2 3.139616 1_565
Ti0 Zr0 3.139624 1_555
Ti1 Zr3 3.139616 1_655
Ti1 Zr2 3.139616 1_556
Ti1 Zr4 3.139624 1_555
Ti2 Zr1 3.139616 1_556
Ti2 Zr3 3.139616 1_565
Ti2 Zr5 3.139624 1_555
Ti3 Zr5 3.139618 1_655
Ti3 Zr0 3.139618 1_556
Ti3 Zr4 3.139618 1_565
Al0 Ir0 2.579393 1_556
Al0 Ir2 2.725379 1_545
Al0 Ir1 2.725379 1_445
Al0 Ir3 2.725380 1_455
Al0 Al9 2.768983 1_545
Al0 Al10 2.768983 1_455
Al0 Al11 2.768992 1_555
Al0 Ti3 2.971773 1_445
Al0 Ti1 2.971779 1_455
Al0 Ti2 2.971779 1_545
Al0 Zr4 3.140973 1_455
Al0 Zr3 3.140973 1_555
Al0 Zr5 3.140973 1_545
Al1 Ir0 2.579393 1_565
Al1 Ir4 2.725379 1_554
Al1 Ir3 2.725379 1_455
Al1 Ir5 2.725379 1_454
Al1 Al10 2.768983 1_455
Al1 Al8 2.768983 1_554
Al1 Al11 2.768992 1_555
Al1 Ti3 2.971773 1_454
Al1 Ti2 2.971779 1_554
Al1 Ti0 2.971779 1_455
Al1 Zr0 3.140973 1_455
Al1 Zr1 3.140973 1_555
Al1 Zr5 3.140973 1_554
Al2 Ir0 2.579393 1_655
Al2 Ir2 2.725379 1_545
Al2 Ir6 2.725379 1_544
Al2 Ir4 2.725380 1_554
Al2 Al9 2.768982 1_545
Al2 Al8 2.768983 1_554
Al2 Ti3 2.971773 1_544
Al2 Ti1 2.971779 1_554
Al2 Ti0 2.971779 1_545
Al2 Zr4 3.140973 1_554
Al2 Zr2 3.140973 1_555
Al2 Zr0 3.140973 1_545
Al3 Ir0 2.579393 1_555
Al3 Ir6 2.725379 1_544
Al3 Ir1 2.725379 1_445
Al3 Ir5 2.725380 1_454
Al3 Al8 2.768997 1_554
Al3 Al9 2.768997 1_545
Al3 Ti0 2.971773 1_445
Al3 Ti1 2.971773 1_454
Al3 Ti2 2.971773 1_544
Al3 Zr2 3.140973 1_455
Al3 Zr3 3.140973 1_554
Al3 Zr1 3.140973 1_545
Al4 Ir4 2.505467 1_554
Al4 Ir5 2.505475 1_554
Al4 Ir6 2.505475 1_554
Al4 Ti2 2.789516 1_554
Al4 Ti1 2.789516 1_554
Al4 Ti3 2.789530 1_554
Al4 Zr1 2.869616 1_555
Al4 Zr2 2.869616 1_555
Al4 Zr0 2.869621 1_555
Al4 Al6 3.047450 1_654
Al4 Al7 3.047451 1_554
Al4 Al5 3.047451 1_564
Al5 Ir2 2.505467 1_545
Al5 Ir1 2.505475 1_545
Al5 Ir6 2.505475 1_545
Al5 Ti2 2.789516 1_545
Al5 Ti0 2.789516 1_545
Al5 Ti3 2.789530 1_545
Al5 Zr2 2.869616 1_555
Al5 Zr3 2.869616 1_555
Al5 Zr4 2.869621 1_555
Al5 Al7 3.047451 1_545
Al5 Al6 3.047451 1_645
Al6 Ir3 2.505467 1_455
Al6 Ir5 2.505475 1_455
Al6 Ir1 2.505475 1_455
Al6 Ti1 2.789516 1_455
Al6 Ti0 2.789516 1_455
Al6 Ti3 2.789530 1_455
Al6 Zr1 2.869616 1_555
Al6 Zr3 2.869616 1_555
Al6 Zr5 2.869621 1_555
Al6 Al7 3.047450 1_455
Al7 Ir4 2.505473 1_555
Al7 Ir3 2.505473 1_555
Al7 Ir2 2.505473 1_555
Al7 Ti0 2.789525 1_555
Al7 Ti2 2.789525 1_555
Al7 Ti1 2.789525 1_555
Al7 Zr5 2.869612 1_555
Al7 Zr0 2.869612 1_555
Al7 Zr4 2.869612 1_555
Al8 Ir4 2.544891 1_555
Al8 Ir5 2.544906 1_455
Al8 Ir6 2.544907 1_545
Al8 Zr4 2.895463 1_555
Al8 Zr5 2.895463 1_555
Al8 Zr3 2.895473 1_555
Al8 Al9 2.990630 1_546
Al9 Ir2 2.544891 1_555
Al9 Ir1 2.544906 1_455
Al9 Ir6 2.544906 1_554
Al9 Zr5 2.895463 1_555
Al9 Zr0 2.895463 1_555
Al9 Zr1 2.895473 1_555
Al10 Ir3 2.544891 1_555
Al10 Ir5 2.544907 1_554
Al10 Ir1 2.544907 1_545
Al10 Al3 2.768997 1_655
Al10 Zr4 2.895463 1_555
Al10 Zr0 2.895463 1_555
Al10 Zr2 2.895473 1_555
Al10 Al11 2.990630 1_655
Al10 Al8 2.990630 1_654
Al10 Al9 2.990630 1_645
Al11 Ir4 2.544902 1_554
Al11 Ir3 2.544902 1_455
Al11 Ir2 2.544902 1_545
Al11 Al2 2.768992 1_555
Al11 Zr2 2.895456 1_555
Al11 Zr3 2.895456 1_555
Al11 Zr1 2.895456 1_555
Al11 Al8 2.990630 1_554
Al11 Al9 2.990630 1_545
Ir0 Ti3 2.567842 1_444
Ir0 Ti2 2.567849 1_544
Ir0 Ti0 2.567849 1_445
Ir0 Ti1 2.567850 1_454
Ir1 Ti0 2.702076 1_555
Ir1 Ti3 2.702084 1_555
Ir1 Zr5 3.176131 1_655
Ir1 Zr1 3.176131 1_655
Ir1 Zr2 3.176131 1_565
Ir1 Zr4 3.176131 1_565
Ir2 Ti0 2.702083 1_555
Ir2 Ti2 2.702083 1_555
Ir2 Zr5 3.176131 1_555
Ir2 Zr2 3.176131 1_565
Ir2 Zr0 3.176131 1_555
Ir2 Zr3 3.176131 1_565
Ir3 Ti1 2.702083 1_555
Ir3 Ti0 2.702083 1_555
Ir3 Zr1 3.176130 1_655
Ir3 Zr4 3.176130 1_555
Ir3 Zr3 3.176131 1_655
Ir3 Zr0 3.176131 1_555
Ir4 Ti1 2.702083 1_555
Ir4 Ti2 2.702083 1_555
Ir4 Zr1 3.176131 1_556
Ir4 Zr5 3.176131 1_555
Ir4 Zr4 3.176131 1_555
Ir4 Zr2 3.176131 1_556
Ir5 Ti1 2.702076 1_555
Ir5 Ti3 2.702084 1_555
Ir5 Zr5 3.176130 1_655
Ir5 Zr2 3.176130 1_556
Ir5 Zr3 3.176131 1_655
Ir5 Zr0 3.176131 1_556
Ir6 Ti2 2.702076 1_555
Ir6 Ti3 2.702084 1_555
Ir6 Zr1 3.176131 1_556
Ir6 Zr4 3.176131 1_565
Ir6 Zr0 3.176131 1_556
Ir6 Zr3 3.176131 1_565
