# generated using pymatgen
data_Cs4NbInBr12
_symmetry_space_group_name_H-M   'P 1'
_cell_length_a   7.76234542
_cell_length_b   7.76234542
_cell_length_c   10.95136892
_cell_angle_alpha   90.00000000
_cell_angle_beta   90.00000000
_cell_angle_gamma   90.00000000
_symmetry_Int_Tables_number   1
_chemical_formula_structural   Cs4NbInBr12
_chemical_formula_sum   'Cs4 Nb1 In1 Br12'
_cell_volume   659.86385278
_cell_formula_units_Z   1
loop_
 _symmetry_equiv_pos_site_id
 _symmetry_equiv_pos_as_xyz
  1  'x, y, z'
loop_
 _atom_site_type_symbol
 _atom_site_label
 _atom_site_symmetry_multiplicity
 _atom_site_fract_x
 _atom_site_fract_y
 _atom_site_fract_z
 _atom_site_occupancy
  Cs  Cs0  1  0.50000000  0.00000000  0.77179643  1
  Cs  Cs1  1  0.00000000  0.50000000  0.22820357  1
  Cs  Cs2  1  0.50000000  0.00000000  0.22820357  1
  Cs  Cs3  1  0.00000000  0.50000000  0.77179643  1
  Nb  Nb0  1  0.50000000  0.50000000  0.50000000  1
  In  In0  1  0.00000000  0.00000000  0.00000000  1
  Br  Br0  1  0.00000000  0.00000000  0.75155773  1
  Br  Br1  1  0.50000000  0.50000000  0.26758153  1
  Br  Br2  1  0.73184958  0.73184958  0.50000000  1
  Br  Br3  1  0.24577687  0.24577687  0.00000000  1
  Br  Br4  1  0.73184958  0.26815042  0.50000000  1
  Br  Br5  1  0.24577687  0.75422313  0.00000000  1
  Br  Br6  1  0.00000000  0.00000000  0.24844227  1
  Br  Br7  1  0.50000000  0.50000000  0.73241847  1
  Br  Br8  1  0.26815042  0.26815042  0.50000000  1
  Br  Br9  1  0.75422313  0.75422313  0.00000000  1
  Br  Br10  1  0.26815042  0.73184958  0.50000000  1
  Br  Br11  1  0.75422313  0.24577687  0.00000000  1
loop_
_geom_bond_atom_site_label_1
_geom_bond_atom_site_label_2
_geom_bond_distance
_geom_bond_site_symmetry_2
Br0 In0 2.720783 1_556
Br0 Cs0 3.887496 1_455
Br0 Cs3 3.887496 1_545
Br0 Cs3 3.887496 1_555
Br0 Cs0 3.887496 1_555
Br1 Nb0 2.545300 1_555
Br1 Cs1 3.905057 1_555
Br1 Cs2 3.905057 1_565
Br1 Cs1 3.905057 1_655
Br1 Cs2 3.905057 1_555
Br2 Nb0 2.545155 1_555
Br2 Cs1 4.053549 1_655
Br2 Cs2 4.053549 1_565
Br2 Cs0 4.053549 1_565
Br2 Cs3 4.053549 1_655
Br3 In0 2.698044 1_555
Br3 Cs3 3.712089 1_554
Br3 Cs0 3.712089 1_554
Br3 Cs2 3.712089 1_555
Br3 Cs1 3.712089 1_555
Br4 Nb0 2.545155 1_555
Br4 Cs2 4.053549 1_555
Br4 Cs1 4.053549 1_655
Br4 Cs0 4.053549 1_555
Br4 Cs3 4.053549 1_655
Br5 In0 2.698044 1_565
Br5 Cs3 3.712089 1_554
Br5 Cs0 3.712089 1_564
Br5 Cs1 3.712089 1_555
Br5 Cs2 3.712089 1_565
Br6 In0 2.720783 1_555
Br6 Cs1 3.887496 1_545
Br6 Cs2 3.887496 1_455
Br6 Cs2 3.887496 1_555
Br6 Cs1 3.887496 1_555
Br7 Nb0 2.545300 1_555
Br7 Cs3 3.905057 1_655
Br7 Cs0 3.905057 1_555
Br7 Cs0 3.905057 1_565
Br7 Cs3 3.905057 1_555
Br8 Nb0 2.545155 1_555
Br8 Cs2 4.053549 1_555
Br8 Cs1 4.053549 1_555
Br8 Cs3 4.053549 1_555
Br8 Cs0 4.053549 1_555
Br9 In0 2.698044 1_665
Br9 Cs0 3.712089 1_564
Br9 Cs3 3.712089 1_654
Br9 Cs1 3.712089 1_655
Br9 Cs2 3.712089 1_565
Br10 Nb0 2.545155 1_555
Br10 Cs1 4.053549 1_555
Br10 Cs2 4.053549 1_565
Br10 Cs3 4.053549 1_555
Br10 Cs0 4.053549 1_565
Br11 In0 2.698044 1_655
Br11 Cs0 3.712089 1_554
Br11 Cs3 3.712089 1_654
Br11 Cs2 3.712089 1_555
Br11 Cs1 3.712089 1_655
