# generated using pymatgen
data_RbY3CI6
_symmetry_space_group_name_H-M   'P 1'
_cell_length_a   9.29904495
_cell_length_b   9.37385882
_cell_length_c   9.85575465
_cell_angle_alpha   71.82236289
_cell_angle_beta   84.30898283
_cell_angle_gamma   89.45061444
_symmetry_Int_Tables_number   1
_chemical_formula_structural   RbY3CI6
_chemical_formula_sum   'Rb2 Y6 C2 I12'
_cell_volume   812.00097100
_cell_formula_units_Z   2
loop_
 _symmetry_equiv_pos_site_id
 _symmetry_equiv_pos_as_xyz
  1  'x, y, z'
loop_
 _atom_site_type_symbol
 _atom_site_label
 _atom_site_symmetry_multiplicity
 _atom_site_fract_x
 _atom_site_fract_y
 _atom_site_fract_z
 _atom_site_occupancy
  Rb  Rb0  1  0.46336420  0.35708719  0.33018240  1
  Rb  Rb1  1  0.53663680  0.64291281  0.66981760  1
  Y  Y0  1  0.91869866  0.75677470  0.00392180  1
  Y  Y1  1  0.08130134  0.24322530  0.99607720  1
  Y  Y2  1  0.75442672  0.08244737  0.00114286  1
  Y  Y3  1  0.24557228  0.91755263  0.99885814  1
  Y  Y4  1  0.97122234  0.89624932  0.31244503  1
  Y  Y5  1  0.02877666  0.10375068  0.68755597  1
  C  C0  1  0.00703060  0.02446461  0.92381629  1
  C  C1  1  0.99296840  0.97553539  0.07618371  1
  I  I0  1  0.07907562  0.20154145  0.33184916  1
  I  I1  1  0.92092438  0.79845855  0.66815084  1
  I  I2  1  0.20375591  0.59146714  0.99907424  1
  I  I3  1  0.79624509  0.40853286  0.00092576  1
  I  I4  1  0.40626801  0.20128604  0.00243455  1
  I  I5  1  0.59373099  0.79871496  0.99756445  1
  I  I6  1  0.66038052  0.00676484  0.33032875  1
  I  I7  1  0.33961948  0.99323516  0.66967125  1
  I  I8  1  0.27870842  0.77607966  0.32588950  1
  I  I9  1  0.72129158  0.22392034  0.67411050  1
  I  I10  1  0.84548791  0.59042514  0.33110141  1
  I  I11  1  0.15451109  0.40957486  0.66889859  1
loop_
_geom_bond_atom_site_label_1
_geom_bond_atom_site_label_2
_geom_bond_distance
_geom_bond_site_symmetry_2
C0 C1 1.419515 1_446
C0 Y5 2.201139 1_555
C0 Y1 2.495037 1_555
C0 Y0 2.503876 1_446
C0 Y2 2.504563 1_456
C0 Y3 2.508405 1_545
C1 Y4 2.201148 1_555
C1 Y0 2.495039 1_555
C1 Y1 2.503878 1_664
C1 Y3 2.504560 1_654
C1 Y2 2.508403 1_565
I0 Y4 3.109131 1_445
I0 Y1 3.206910 1_554
I0 Y5 3.320744 1_555
I0 Rb0 3.869053 1_555
I1 Y5 3.109132 1_665
I1 Y0 3.206900 1_556
I1 Y4 3.320735 1_555
I1 Rb1 3.869045 1_555
I2 Y0 3.061418 1_456
I2 Y3 3.084326 1_555
I2 Y1 3.477321 1_555
I2 Rb1 4.171935 1_555
I2 Rb0 4.276862 1_556
I3 Y1 3.061411 1_654
I3 Y2 3.084325 1_555
I3 Y0 3.477314 1_555
I3 Rb0 4.171935 1_555
I3 Rb1 4.276862 1_554
I4 Y1 3.047890 1_554
I4 Y3 3.074616 1_544
I4 Y2 3.413840 1_555
I4 Rb0 4.018393 1_555
I5 Y0 3.047901 1_556
I5 Y2 3.074614 1_566
I5 Y3 3.413838 1_555
I5 Rb1 4.018385 1_555
I6 Y4 3.068372 1_545
I6 Y2 3.131643 1_555
I6 Rb0 3.744659 1_555
I6 Rb1 4.042721 1_545
I7 Y5 3.068381 1_565
I7 Y3 3.131654 1_555
I7 Rb1 3.744664 1_555
I7 Rb0 4.042723 1_565
I8 Y4 3.063079 1_455
I8 Y3 3.124819 1_554
I8 Rb1 4.209016 1_555
I8 Rb0 4.261168 1_555
I9 Y5 3.063070 1_655
I9 Y2 3.124826 1_556
I9 Rb0 4.209010 1_555
I9 Rb1 4.261164 1_555
I10 Y4 3.051539 1_555
I10 Y0 3.121022 1_555
I10 Rb0 4.192684 1_555
I10 Rb1 4.327938 1_555
I11 Y5 3.051536 1_555
I11 Y1 3.121012 1_555
I11 Rb1 4.192700 1_555
I11 Rb0 4.327948 1_555
