# generated using pymatgen
data_CaGaSn5Ir4
_symmetry_space_group_name_H-M   'P 1'
_cell_length_a   6.84713793
_cell_length_b   6.93433550
_cell_length_c   6.82302073
_cell_angle_alpha   119.54413171
_cell_angle_beta   119.11128367
_cell_angle_gamma   91.72016724
_symmetry_Int_Tables_number   1
_chemical_formula_structural   CaGaSn5Ir4
_chemical_formula_sum   'Ca1 Ga1 Sn5 Ir4'
_cell_volume   230.18579374
_cell_formula_units_Z   1
loop_
 _symmetry_equiv_pos_site_id
 _symmetry_equiv_pos_as_xyz
  1  'x, y, z'
loop_
 _atom_site_type_symbol
 _atom_site_label
 _atom_site_symmetry_multiplicity
 _atom_site_fract_x
 _atom_site_fract_y
 _atom_site_fract_z
 _atom_site_occupancy
  Ca  Ca0  1  0.99656979  0.98433430  0.00000300  1
  Ga  Ga0  1  0.87597158  0.53354086  0.99999900  1
  Sn  Sn0  1  0.53209107  0.87819273  0.99999700  1
  Sn  Sn1  1  0.45651503  0.46352361  0.33178823  1
  Sn  Sn2  1  0.50604191  0.00295263  0.50290637  1
  Sn  Sn3  1  0.00313554  0.50004626  0.49708863  1
  Sn  Sn4  1  0.12472479  0.13173338  0.66821677  1
  Ir  Ir0  1  0.60647631  0.24221557  0.00000000  1
  Ir  Ir1  1  0.22913016  0.60464941  0.99999900  1
  Ir  Ir2  1  0.75300126  0.74773497  0.33666169  1
  Ir  Ir3  1  0.41633857  0.41107128  0.66333631  1
loop_
_geom_bond_atom_site_label_1
_geom_bond_atom_site_label_2
_geom_bond_distance
_geom_bond_site_symmetry_2
Ca0 Ir1 3.117577 1_654
Ca0 Ga0 3.209108 1_554
Ca0 Sn0 3.242786 1_554
Ca0 Ir0 3.258665 1_565
Ca0 Sn4 3.331716 1_664
Ca0 Sn1 3.331772 1_665
Ca0 Ir3 3.335525 1_665
Ca0 Ir2 3.335552 1_554
Ca0 Sn2 3.442226 1_665
Ca0 Sn3 3.442248 1_654
Ca0 Sn3 3.489188 1_665
Ca0 Sn2 3.489238 1_564
Ca0 Sn4 3.749542 1_665
Ca0 Sn1 3.749549 1_554
Ca0 Sn0 3.761543 1_654
Ga0 Ir1 2.453342 1_655
Ga0 Ir2 2.604581 1_556
Ga0 Ir3 2.604600 1_555
Ga0 Ir0 2.694856 1_556
Ga0 Sn3 3.198586 1_656
Ga0 Sn2 3.198628 1_555
Sn0 Sn2 3.198704 1_566
Sn0 Sn3 3.198713 1_555
Ir0 Sn0 2.560085 1_544
Ir0 Sn2 2.615651 1_554
Ir0 Sn3 2.615652 1_655
Ir0 Sn1 2.732114 1_555
Ir0 Sn4 2.732139 1_554
Ir0 Ir3 2.859478 1_554
Ir0 Ir2 2.859482 1_555
Ir1 Sn2 2.646963 1_566
Ir1 Sn3 2.646977 1_555
Ir1 Sn4 2.711701 1_555
Ir1 Sn1 2.711701 1_556
Ir1 Sn0 2.768578 1_555
Ir1 Ir3 2.940906 1_555
Ir1 Ir2 2.940928 1_556
Ir2 Sn4 2.595435 1_665
Ir2 Sn0 2.670869 1_554
Ir2 Sn3 2.699636 1_655
Ir2 Sn2 2.710036 1_565
Ir2 Sn1 2.763322 1_555
Ir2 Ir3 3.265768 1_554
Ir3 Sn1 2.595433 1_555
Ir3 Sn0 2.670864 1_555
Ir3 Sn2 2.699639 1_555
Ir3 Sn3 2.710047 1_555
Ir3 Sn4 2.763360 1_555
