# generated using pymatgen
data_Rb2HfMg3As4
_symmetry_space_group_name_H-M   'P 1'
_cell_length_a   7.90780984
_cell_length_b   7.90780916
_cell_length_c   6.29780869
_cell_angle_alpha   90.00000000
_cell_angle_beta   90.00000000
_cell_angle_gamma   132.98620814
_symmetry_Int_Tables_number   1
_chemical_formula_structural   Rb2HfMg3As4
_chemical_formula_sum   'Rb2 Hf1 Mg3 As4'
_cell_volume   288.08907333
_cell_formula_units_Z   1
loop_
 _symmetry_equiv_pos_site_id
 _symmetry_equiv_pos_as_xyz
  1  'x, y, z'
loop_
 _atom_site_type_symbol
 _atom_site_label
 _atom_site_symmetry_multiplicity
 _atom_site_fract_x
 _atom_site_fract_y
 _atom_site_fract_z
 _atom_site_occupancy
  Rb  Rb0  1  0.50000000  0.00000000  0.25348244  1
  Rb  Rb1  1  0.00000000  0.50000000  0.74651756  1
  Hf  Hf0  1  0.00000000  0.00000000  0.00000000  1
  Mg  Mg0  1  0.50000000  0.50000000  0.50000000  1
  Mg  Mg1  1  0.50000000  0.50000000  0.00000000  1
  Mg  Mg2  1  0.00000000  0.00000000  0.50000000  1
  As  As0  1  0.65825525  0.85794676  0.75805757  1
  As  As1  1  0.14205324  0.34174475  0.24194243  1
  As  As2  1  0.85794676  0.65825525  0.24194243  1
  As  As3  1  0.34174475  0.14205324  0.75805757  1
loop_
_geom_bond_atom_site_label_1
_geom_bond_atom_site_label_2
_geom_bond_distance
_geom_bond_site_symmetry_2
As0 Hf0 2.597523 1_666
As0 Mg2 2.658328 1_665
As0 Mg1 2.658851 1_556
As0 Mg0 2.718285 1_555
As0 Rb1 3.791608 1_665
As0 Rb0 3.805256 1_566
As0 Rb0 3.852648 1_565
As0 Rb1 3.875698 1_555
As1 Hf0 2.597523 1_555
As1 Mg2 2.658328 1_555
As1 Mg1 2.658852 1_555
As1 Mg0 2.718285 1_555
As1 Rb0 3.791609 1_455
As1 Rb1 3.805256 1_554
As1 Rb1 3.852648 1_555
As1 Rb0 3.875697 1_565
As2 Hf0 2.597523 1_665
As2 Mg2 2.658328 1_665
As2 Mg1 2.658852 1_555
As2 Mg0 2.718285 1_555
As2 Rb0 3.791609 1_665
As2 Rb1 3.805256 1_654
As2 Rb1 3.852648 1_655
As2 Rb0 3.875697 1_555
As3 Hf0 2.597523 1_556
As3 Mg2 2.658328 1_555
As3 Mg1 2.658851 1_556
As3 Mg0 2.718285 1_555
As3 Rb1 3.791608 1_545
As3 Rb0 3.805256 1_556
As3 Rb0 3.852648 1_555
As3 Rb1 3.875698 1_655
