# generated using pymatgen
data_NaCaPt4
_symmetry_space_group_name_H-M   'P 1'
_cell_length_a   5.36118016
_cell_length_b   5.36118017
_cell_length_c   5.36117962
_cell_angle_alpha   59.99999735
_cell_angle_beta   59.99999729
_cell_angle_gamma   60.00000171
_symmetry_Int_Tables_number   1
_chemical_formula_structural   NaCaPt4
_chemical_formula_sum   'Na1 Ca1 Pt4'
_cell_volume   108.95976352
_cell_formula_units_Z   1
loop_
 _symmetry_equiv_pos_site_id
 _symmetry_equiv_pos_as_xyz
  1  'x, y, z'
loop_
 _atom_site_type_symbol
 _atom_site_label
 _atom_site_symmetry_multiplicity
 _atom_site_fract_x
 _atom_site_fract_y
 _atom_site_fract_z
 _atom_site_occupancy
  Na  Na0  1  0.75000000  0.75000000  0.75000000  1
  Ca  Ca0  1  0.50000000  0.50000000  0.50000000  1
  Pt  Pt0  1  0.12484880  0.12484880  0.12484880  1
  Pt  Pt1  1  0.62545261  0.12484880  0.12484880  1
  Pt  Pt2  1  0.12484880  0.62545261  0.12484880  1
  Pt  Pt3  1  0.12484880  0.12484880  0.62545261  1
loop_
_geom_bond_atom_site_label_1
_geom_bond_atom_site_label_2
_geom_bond_distance
_geom_bond_site_symmetry_2
Na0 Pt2 3.142923 1_656
Na0 Pt1 3.142923 1_566
Na0 Pt3 3.142923 1_665
Na0 Pt0 3.142925 1_665
Na0 Pt0 3.142925 1_566
Na0 Pt0 3.142925 1_656
Na0 Pt2 3.142927 1_655
Na0 Pt1 3.142927 1_565
Na0 Pt2 3.142928 1_556
Na0 Pt1 3.142928 1_556
Na0 Pt3 3.142928 1_565
Na0 Pt3 3.142928 1_655
Ca0 Pt2 3.143614 1_556
Ca0 Pt1 3.143614 1_556
Ca0 Pt2 3.143614 1_655
Ca0 Pt1 3.143614 1_565
Ca0 Pt3 3.143614 1_655
Ca0 Pt3 3.143615 1_565
Ca0 Pt0 3.143616 1_556
Ca0 Pt0 3.143617 1_655
Ca0 Pt0 3.143617 1_565
Ca0 Pt2 3.143619 1_555
Ca0 Pt1 3.143619 1_555
Ca0 Pt3 3.143619 1_555
Ca0 Na0 3.283038 1_554
Ca0 Na0 3.283039 1_555
Ca0 Na0 3.283039 1_455
Ca0 Na0 3.283039 1_545
Pt0 Pt3 2.677353 1_554
Pt0 Pt1 2.677353 1_455
Pt0 Pt2 2.677353 1_545
Pt0 Pt3 2.683827 1_555
Pt0 Pt1 2.683827 1_555
Pt0 Pt2 2.683827 1_555
Pt1 Pt3 2.677353 1_654
Pt1 Pt2 2.677353 1_645
Pt1 Pt3 2.683827 1_555
Pt1 Pt2 2.683827 1_555
Pt2 Pt3 2.677353 1_564
Pt2 Pt3 2.683827 1_555
