# generated using pymatgen
data_Rb4Ca(AsS4)2
_symmetry_space_group_name_H-M   'P 1'
_cell_length_a   9.28051788
_cell_length_b   9.40790797
_cell_length_c   11.37138923
_cell_angle_alpha   106.20584369
_cell_angle_beta   103.10028285
_cell_angle_gamma   93.94935529
_symmetry_Int_Tables_number   1
_chemical_formula_structural   Rb4Ca(AsS4)2
_chemical_formula_sum   'Rb8 Ca2 As4 S16'
_cell_volume   919.26320176
_cell_formula_units_Z   2
loop_
 _symmetry_equiv_pos_site_id
 _symmetry_equiv_pos_as_xyz
  1  'x, y, z'
loop_
 _atom_site_type_symbol
 _atom_site_label
 _atom_site_symmetry_multiplicity
 _atom_site_fract_x
 _atom_site_fract_y
 _atom_site_fract_z
 _atom_site_occupancy
  Rb  Rb0  1  0.93288823  0.51633427  0.26173180  1
  Rb  Rb1  1  0.06711177  0.48366573  0.73826820  1
  Rb  Rb2  1  0.76605728  0.00062368  0.47011820  1
  Rb  Rb3  1  0.23394272  0.99937632  0.52988180  1
  Rb  Rb4  1  0.60385146  0.73934268  0.02699968  1
  Rb  Rb5  1  0.39614854  0.26065732  0.97300032  1
  Rb  Rb6  1  0.61430979  0.68519238  0.61266513  1
  Rb  Rb7  1  0.38569021  0.31480762  0.38733487  1
  Ca  Ca0  1  0.85204640  0.14525864  0.92773062  1
  Ca  Ca1  1  0.14795360  0.85474136  0.07226938  1
  As  As0  1  0.95395353  0.11165458  0.23778405  1
  As  As1  1  0.04604647  0.88834542  0.76221595  1
  As  As2  1  0.36765181  0.66831467  0.25467139  1
  As  As3  1  0.63234819  0.33168533  0.74532861  1
  S  S0  1  0.95521666  0.87972032  0.23502060  1
  S  S1  1  0.04478334  0.12027968  0.76497940  1
  S  S2  1  0.58171628  0.09630385  0.73701209  1
  S  S3  1  0.41828372  0.90369615  0.26298791  1
  S  S4  1  0.28489452  0.65332574  0.41308045  1
  S  S5  1  0.71510548  0.34667426  0.58691955  1
  S  S6  1  0.80512798  0.43584660  0.92197543  1
  S  S7  1  0.19487202  0.56415340  0.07802457  1
  S  S8  1  0.02791203  0.25608829  0.42753996  1
  S  S9  1  0.97208797  0.74391171  0.57246004  1
  S  S10  1  0.10863030  0.16561735  0.13034183  1
  S  S11  1  0.89136970  0.83438265  0.86965817  1
  S  S12  1  0.73457074  0.14167303  0.13868971  1
  S  S13  1  0.26542926  0.85832697  0.86131029  1
  S  S14  1  0.56508965  0.55952761  0.25397804  1
  S  S15  1  0.43491035  0.44047239  0.74602196  1
loop_
_geom_bond_atom_site_label_1
_geom_bond_atom_site_label_2
_geom_bond_distance
_geom_bond_site_symmetry_2
Rb0 S4 3.305796 1_655
Rb0 S14 3.449431 1_555
Rb0 S9 3.505518 1_555
Rb0 S0 3.511879 1_555
Rb0 S8 3.528118 1_655
Rb0 S12 3.599356 1_555
Rb0 S6 3.615614 1_554
Rb0 S7 3.626858 1_655
Rb0 S10 3.856606 1_655
Rb1 S5 3.305796 1_455
Rb1 S15 3.449431 1_555
Rb1 S8 3.505518 1_555
Rb1 S1 3.511879 1_555
Rb1 S9 3.528118 1_455
Rb1 S13 3.599356 1_555
Rb1 S7 3.615614 1_556
Rb1 S6 3.626858 1_455
Rb1 S11 3.856606 1_455
Rb2 S5 3.266474 1_555
Rb2 S3 3.427213 1_545
Rb2 S9 3.469788 1_545
Rb2 S0 3.496817 1_545
Rb2 S8 3.506377 1_655
Rb2 S1 3.572284 1_655
Rb2 S2 3.740171 1_555
Rb3 S4 3.266474 1_555
Rb3 S2 3.427213 1_565
Rb3 S8 3.469788 1_565
Rb3 S1 3.496817 1_565
Rb3 S9 3.506377 1_455
Rb3 S0 3.572284 1_455
Rb3 S3 3.740171 1_555
Rb4 S0 3.484140 1_555
Rb4 S14 3.525241 1_555
Rb4 S15 3.560914 1_554
Rb4 S3 3.564213 1_555
Rb4 S6 3.593138 1_554
Rb4 S12 3.660240 1_565
Rb4 S13 3.694075 1_554
Rb4 S11 3.721434 1_554
Rb5 S1 3.484140 1_555
Rb5 S15 3.525241 1_555
Rb5 S14 3.560914 1_556
Rb5 S2 3.564213 1_555
Rb5 S7 3.593138 1_556
Rb5 S13 3.660240 1_545
Rb5 S12 3.694075 1_556
Rb5 S10 3.721434 1_556
Rb6 S11 3.305861 1_555
Rb6 S4 3.306903 1_555
Rb6 S5 3.334284 1_555
Rb6 S9 3.480730 1_555
Rb6 S15 3.596869 1_555
Rb6 S2 3.788455 1_565
Rb6 S14 3.825201 1_555
Rb7 S10 3.305861 1_555
Rb7 S5 3.306903 1_555
Rb7 S4 3.334284 1_555
Rb7 S8 3.480730 1_555
Rb7 S14 3.596869 1_555
Rb7 S3 3.788455 1_545
Rb7 S15 3.825201 1_555
Ca0 S6 2.814001 1_555
Ca0 S1 2.827641 1_655
Ca0 S2 2.833106 1_555
Ca0 S12 2.858346 1_556
Ca0 S10 2.866895 1_656
Ca0 S11 2.881201 1_545
Ca1 S7 2.814001 1_555
Ca1 S0 2.827641 1_455
Ca1 S3 2.833106 1_555
Ca1 S13 2.858346 1_554
Ca1 S11 2.866895 1_454
Ca1 S10 2.881201 1_565
As0 S8 2.130046 1_655
As0 S12 2.170621 1_555
As0 S0 2.174336 1_545
As0 S10 2.202706 1_655
As1 S9 2.130046 1_455
As1 S13 2.170621 1_555
As1 S1 2.174336 1_565
As1 S11 2.202706 1_455
As2 S4 2.146756 1_555
As2 S14 2.159934 1_555
As2 S7 2.188864 1_555
As2 S3 2.202985 1_555
As3 S5 2.146756 1_555
As3 S15 2.159934 1_555
As3 S6 2.188864 1_555
As3 S2 2.202985 1_555
