# generated using pymatgen
data_Ta3Ni16(B3Rh2)2
_symmetry_space_group_name_H-M   'P 1'
_cell_length_a   7.56636062
_cell_length_b   7.56636032
_cell_length_c   7.56636038
_cell_angle_alpha   59.99999972
_cell_angle_beta   60.00000104
_cell_angle_gamma   60.00000184
_symmetry_Int_Tables_number   1
_chemical_formula_structural   Ta3Ni16(B3Rh2)2
_chemical_formula_sum   'Ta3 Ni16 B6 Rh4'
_cell_volume   306.29935927
_cell_formula_units_Z   1
loop_
 _symmetry_equiv_pos_site_id
 _symmetry_equiv_pos_as_xyz
  1  'x, y, z'
loop_
 _atom_site_type_symbol
 _atom_site_label
 _atom_site_symmetry_multiplicity
 _atom_site_fract_x
 _atom_site_fract_y
 _atom_site_fract_z
 _atom_site_occupancy
  Ta  Ta0  1  0.00000000  0.00000000  0.00000000  1
  Ta  Ta1  1  0.75000000  0.75000000  0.75000000  1
  Ta  Ta2  1  0.25000000  0.25000000  0.25000000  1
  Ni  Ni0  1  0.37867997  0.37867997  0.86396009  1
  Ni  Ni1  1  0.37867997  0.86396009  0.37867997  1
  Ni  Ni2  1  0.86396009  0.37867997  0.37867997  1
  Ni  Ni3  1  0.37867997  0.37867997  0.37867997  1
  Ni  Ni4  1  0.00333447  0.00333447  0.33632811  1
  Ni  Ni5  1  0.65700294  0.00333447  0.33632811  1
  Ni  Ni6  1  0.00333447  0.65700294  0.33632811  1
  Ni  Ni7  1  0.65700294  0.33632811  0.00333447  1
  Ni  Ni8  1  0.00333447  0.33632811  0.00333447  1
  Ni  Ni9  1  0.00333447  0.33632811  0.65700294  1
  Ni  Ni10  1  0.33632811  0.65700294  0.00333447  1
  Ni  Ni11  1  0.33632811  0.00333447  0.65700294  1
  Ni  Ni12  1  0.33632811  0.00333447  0.00333447  1
  Ni  Ni13  1  0.00333447  0.00333447  0.65700294  1
  Ni  Ni14  1  0.00333447  0.65700294  0.00333447  1
  Ni  Ni15  1  0.65700294  0.00333447  0.00333447  1
  B  B0  1  0.73523287  0.73523287  0.26476713  1
  B  B1  1  0.26476713  0.73523287  0.26476713  1
  B  B2  1  0.73523287  0.26476713  0.26476713  1
  B  B3  1  0.26476713  0.26476713  0.73523287  1
  B  B4  1  0.73523287  0.26476713  0.73523287  1
  B  B5  1  0.26476713  0.73523287  0.73523287  1
  Rh  Rh0  1  0.61559207  0.61559207  0.15322278  1
  Rh  Rh1  1  0.61559207  0.15322278  0.61559207  1
  Rh  Rh2  1  0.15322278  0.61559207  0.61559207  1
  Rh  Rh3  1  0.61559207  0.61559207  0.61559207  1
loop_
_geom_bond_atom_site_label_1
_geom_bond_atom_site_label_2
_geom_bond_distance
_geom_bond_site_symmetry_2
Ni0 Ta2 2.384919 1_556
Ni0 Rh3 2.536547 1_555
Ni0 Rh2 2.536553 1_555
Ni0 Rh1 2.536553 1_555
Ni1 Ta2 2.384919 1_565
Ni1 Rh3 2.536547 1_555
Ni1 Rh2 2.536553 1_555
Ni1 Rh0 2.536553 1_555
Ni2 Ta2 2.384919 1_655
Ni2 Rh3 2.536547 1_555
Ni2 Rh1 2.536553 1_555
Ni2 Rh0 2.536553 1_555
Ni3 Ta2 2.384919 1_555
Ni3 Rh0 2.536547 1_555
Ni3 Rh2 2.536547 1_555
Ni3 Rh1 2.536547 1_555
Ni4 Ta0 2.570257 1_555
Ni4 Rh2 2.688528 1_545
Ni4 Rh1 2.688528 1_455
Ni5 Ta0 2.570257 1_655
Ni5 Rh1 2.688524 1_555
Ni5 Rh3 2.688530 1_545
Ni6 Ta0 2.570257 1_565
Ni6 Rh2 2.688525 1_555
Ni6 Rh3 2.688530 1_455
Ni7 Ta0 2.570257 1_655
Ni7 Rh0 2.688524 1_555
Ni7 Rh3 2.688530 1_554
Ni8 Ta0 2.570257 1_555
Ni8 Rh2 2.688528 1_554
Ni8 Rh0 2.688528 1_455
Ni9 Ta0 2.570257 1_556
Ni9 Rh2 2.688524 1_555
Ni9 Rh3 2.688530 1_455
Ni10 Ta0 2.570257 1_565
Ni10 Rh0 2.688525 1_555
Ni10 Rh3 2.688530 1_554
Ni11 Ta0 2.570257 1_556
Ni11 Rh1 2.688525 1_555
Ni11 Rh3 2.688530 1_545
Ni12 Ta0 2.570257 1_555
Ni12 Rh1 2.688528 1_554
Ni12 Rh0 2.688528 1_545
Ni13 Ta0 2.570257 1_556
Ni13 Rh2 2.688532 1_545
Ni13 Rh1 2.688532 1_455
Ni14 Ta0 2.570257 1_565
Ni14 Rh2 2.688532 1_554
Ni14 Rh0 2.688532 1_455
Ni15 Ta0 2.570257 1_655
Ni15 Rh0 2.688532 1_545
Ni15 Rh1 2.688532 1_554
B0 Ni5 2.082237 1_565
B0 Ni15 2.082237 1_565
B0 Ni6 2.082237 1_655
B0 Ni14 2.082237 1_655
B0 Rh3 2.167653 1_555
B0 Rh0 2.167659 1_555
B0 Ni2 2.203701 1_555
B0 Ni1 2.203701 1_555
B1 Ni12 2.082237 1_565
B1 Ni10 2.082237 1_555
B1 Ni6 2.082237 1_555
B1 Ni4 2.082237 1_565
B1 Rh2 2.167653 1_555
B1 Rh0 2.167653 1_555
B1 Ni3 2.203701 1_555
B1 Ni1 2.203701 1_555
B2 Ni5 2.082237 1_555
B2 Ni7 2.082237 1_555
B2 Ni8 2.082237 1_655
B2 Ni4 2.082237 1_655
B2 Rh0 2.167653 1_555
B2 Rh1 2.167653 1_555
B2 Ni2 2.203701 1_555
B2 Ni3 2.203701 1_555
B3 Ni11 2.082237 1_555
B3 Ni12 2.082237 1_556
B3 Ni9 2.082237 1_555
B3 Ni8 2.082237 1_556
B3 Rh2 2.167653 1_555
B3 Rh1 2.167653 1_555
B3 Ni3 2.203701 1_555
B3 Ni0 2.203701 1_555
B4 Ni15 2.082237 1_556
B4 Ni7 2.082237 1_556
B4 Ni9 2.082237 1_655
B4 Ni13 2.082237 1_655
B4 Rh3 2.167653 1_555
B4 Rh1 2.167659 1_555
B4 Ni2 2.203701 1_555
B4 Ni0 2.203701 1_555
B5 Ni11 2.082237 1_565
B5 Ni10 2.082237 1_556
B5 Ni14 2.082237 1_556
B5 Ni13 2.082237 1_565
B5 Rh3 2.167653 1_555
B5 Rh2 2.167659 1_555
B5 Ni0 2.203701 1_555
B5 Ni1 2.203701 1_555
Rh0 Ta1 2.491073 1_554
Rh1 Ta1 2.491073 1_545
Rh2 Ta1 2.491073 1_455
Rh3 Ta1 2.491079 1_555
