# generated using pymatgen
data_LiMg2(P3Pd10)2
_symmetry_space_group_name_H-M   'P 1'
_cell_length_a   8.49212178
_cell_length_b   8.49212285
_cell_length_c   8.49212209
_cell_angle_alpha   59.99999918
_cell_angle_beta   59.99999500
_cell_angle_gamma   59.99999646
_symmetry_Int_Tables_number   1
_chemical_formula_structural   LiMg2(P3Pd10)2
_chemical_formula_sum   'Li1 Mg2 P6 Pd20'
_cell_volume   433.04565248
_cell_formula_units_Z   1
loop_
 _symmetry_equiv_pos_site_id
 _symmetry_equiv_pos_as_xyz
  1  'x, y, z'
loop_
 _atom_site_type_symbol
 _atom_site_label
 _atom_site_symmetry_multiplicity
 _atom_site_fract_x
 _atom_site_fract_y
 _atom_site_fract_z
 _atom_site_occupancy
  Li  Li0  1  0.00000000  0.00000000  0.00000000  1
  Mg  Mg0  1  0.25000000  0.25000000  0.25000000  1
  Mg  Mg1  1  0.75000000  0.75000000  0.75000000  1
  P  P0  1  0.73709909  0.26290091  0.26290091  1
  P  P1  1  0.26290091  0.73709909  0.73709909  1
  P  P2  1  0.26290091  0.73709909  0.26290091  1
  P  P3  1  0.73709909  0.26290091  0.73709909  1
  P  P4  1  0.26290091  0.26290091  0.73709909  1
  P  P5  1  0.73709909  0.73709909  0.26290091  1
  Pd  Pd0  1  0.38285641  0.38285641  0.38285641  1
  Pd  Pd1  1  0.61714359  0.61714359  0.61714359  1
  Pd  Pd2  1  0.38285641  0.38285641  0.85142878  1
  Pd  Pd3  1  0.38285641  0.85142878  0.38285641  1
  Pd  Pd4  1  0.61714359  0.61714359  0.14857122  1
  Pd  Pd5  1  0.61714359  0.14857122  0.61714359  1
  Pd  Pd6  1  0.85142878  0.38285641  0.38285641  1
  Pd  Pd7  1  0.14857122  0.61714359  0.61714359  1
  Pd  Pd8  1  0.34355733  1.00000000  1.00000000  1
  Pd  Pd9  1  0.65644267  0.00000000  0.00000000  1
  Pd  Pd10  1  0.00000000  0.34355733  0.65644267  1
  Pd  Pd11  1  1.00000000  0.65644267  0.34355733  1
  Pd  Pd12  1  0.00000000  0.34355733  0.00000000  1
  Pd  Pd13  1  0.65644267  0.00000000  0.34355733  1
  Pd  Pd14  1  0.00000000  0.65644267  1.00000000  1
  Pd  Pd15  1  0.34355733  1.00000000  0.65644267  1
  Pd  Pd16  1  1.00000000  1.00000000  0.34355733  1
  Pd  Pd17  1  0.00000000  0.00000000  0.65644267  1
  Pd  Pd18  1  0.65644267  0.34355733  0.00000000  1
  Pd  Pd19  1  0.34355733  0.65644267  1.00000000  1
loop_
_geom_bond_atom_site_label_1
_geom_bond_atom_site_label_2
_geom_bond_distance
_geom_bond_site_symmetry_2
Li0 Pd13 2.917531 1_455
Li0 Pd15 2.917531 1_544
Li0 Pd8 2.917531 1_544
Li0 Pd9 2.917531 1_455
Li0 Pd19 2.917531 1_544
Li0 Pd18 2.917531 1_455
Li0 Pd16 2.917531 1_445
Li0 Pd17 2.917531 1_554
Li0 Pd11 2.917531 1_445
Li0 Pd10 2.917531 1_554
Li0 Pd12 2.917531 1_555
Li0 Pd14 2.917531 1_544
Mg0 Pd0 2.763595 1_555
Mg0 Pd6 2.763608 1_455
Mg0 Pd2 2.763609 1_554
Mg0 Pd3 2.763609 1_545
Mg0 Pd9 3.283216 1_555
Mg0 Pd18 3.283216 1_555
Mg0 Pd13 3.283216 1_555
Mg0 Pd10 3.283216 1_555
Mg0 Pd17 3.283216 1_555
Mg0 Pd12 3.283216 1_555
Mg0 Pd15 3.283216 1_545
Mg0 Pd14 3.283216 1_554
Mg0 Pd11 3.283216 1_455
Mg0 Pd8 3.283217 1_544
Mg0 Pd16 3.283217 1_445
Mg0 Pd19 3.283217 1_554
Mg1 Pd1 2.763595 1_555
Mg1 Pd7 2.763608 1_655
Mg1 Pd4 2.763609 1_556
Mg1 Pd5 2.763609 1_565
Mg1 Pd8 3.283216 1_555
Mg1 Pd19 3.283216 1_555
Mg1 Pd15 3.283216 1_555
Mg1 Pd11 3.283216 1_555
Mg1 Pd16 3.283216 1_555
Mg1 Pd14 3.283216 1_655
Mg1 Pd13 3.283216 1_565
Mg1 Pd12 3.283216 1_656
Mg1 Pd10 3.283216 1_655
Mg1 Pd9 3.283217 1_566
Mg1 Pd17 3.283217 1_665
Mg1 Pd18 3.283217 1_556
P0 Pd12 2.335292 1_655
P0 Pd16 2.335293 1_545
P0 Pd18 2.335293 1_555
P0 Pd13 2.335293 1_555
P0 Pd6 2.456385 1_555
P0 Pd0 2.456398 1_555
P0 Pd5 2.456399 1_555
P0 Pd4 2.456399 1_555
P1 Pd14 2.335292 1_555
P1 Pd17 2.335293 1_565
P1 Pd19 2.335293 1_555
P1 Pd15 2.335293 1_555
P1 Pd7 2.456385 1_555
P1 Pd1 2.456398 1_555
P1 Pd3 2.456399 1_555
P1 Pd2 2.456399 1_555
P2 Pd16 2.335293 1_455
P2 Pd11 2.335293 1_455
P2 Pd19 2.335293 1_554
P2 Pd8 2.335293 1_554
P2 Pd3 2.456385 1_555
P2 Pd4 2.456399 1_555
P2 Pd7 2.456399 1_555
P2 Pd0 2.456399 1_555
P3 Pd17 2.335293 1_655
P3 Pd10 2.335293 1_655
P3 Pd18 2.335293 1_556
P3 Pd9 2.335293 1_556
P3 Pd5 2.456385 1_555
P3 Pd2 2.456399 1_555
P3 Pd6 2.456399 1_555
P3 Pd1 2.456399 1_555
P4 Pd12 2.335292 1_556
P4 Pd10 2.335293 1_555
P4 Pd8 2.335293 1_545
P4 Pd15 2.335293 1_545
P4 Pd2 2.456385 1_555
P4 Pd0 2.456399 1_555
P4 Pd5 2.456399 1_555
P4 Pd7 2.456399 1_555
P5 Pd14 2.335292 1_654
P5 Pd11 2.335293 1_555
P5 Pd9 2.335293 1_565
P5 Pd13 2.335293 1_565
P5 Pd4 2.456385 1_555
P5 Pd1 2.456399 1_555
P5 Pd3 2.456399 1_555
P5 Pd6 2.456399 1_555
Pd0 Pd10 2.972520 1_555
Pd0 Pd18 2.972520 1_555
Pd0 Pd11 2.972520 1_455
Pd0 Pd19 2.972520 1_554
Pd0 Pd13 2.972520 1_555
Pd0 Pd15 2.972520 1_545
Pd1 Pd11 2.972520 1_555
Pd1 Pd19 2.972520 1_555
Pd1 Pd10 2.972520 1_655
Pd1 Pd18 2.972520 1_556
Pd1 Pd15 2.972520 1_555
Pd1 Pd13 2.972520 1_565
Pd2 Pd8 2.972517 1_545
Pd2 Pd9 2.972525 1_556
Pd3 Pd8 2.972517 1_554
Pd3 Pd9 2.972524 1_565
Pd4 Pd9 2.972517 1_565
Pd4 Pd8 2.972525 1_554
Pd5 Pd9 2.972517 1_556
Pd5 Pd8 2.972524 1_545
Pd8 Pd9 2.657060 1_566
Pd10 Pd11 2.657061 1_455
Pd10 Pd18 2.917531 1_456
Pd10 Pd15 2.917531 1_545
Pd10 Pd12 2.917531 1_556
Pd10 Pd17 2.917531 1_555
Pd10 Pd6 2.972533 1_455
Pd10 Pd7 2.972533 1_555
Pd11 Pd19 2.917531 1_654
Pd11 Pd13 2.917531 1_565
Pd11 Pd14 2.917531 1_654
Pd11 Pd16 2.917531 1_555
Pd11 Pd7 2.972533 1_655
Pd11 Pd6 2.972533 1_555
Pd12 Pd14 2.657061 1_554
Pd12 Pd18 2.917531 1_455
Pd12 Pd8 2.917531 1_544
Pd12 Pd16 2.917531 1_445
Pd12 Pd2 2.972517 1_554
Pd12 Pd6 2.972517 1_455
Pd12 Pd4 2.972524 1_455
Pd12 Pd7 2.972524 1_554
Pd13 Pd15 2.657060 1_545
Pd13 Pd16 2.917531 1_545
Pd13 Pd9 2.917531 1_555
Pd13 Pd18 2.917531 1_555
Pd13 Pd3 2.972533 1_545
Pd13 Pd5 2.972533 1_555
Pd14 Pd19 2.917531 1_555
Pd14 Pd9 2.917531 1_466
Pd14 Pd17 2.917531 1_565
Pd14 Pd4 2.972517 1_456
Pd14 Pd7 2.972517 1_555
Pd14 Pd2 2.972524 1_555
Pd14 Pd6 2.972524 1_456
Pd15 Pd17 2.917531 1_565
Pd15 Pd8 2.917531 1_555
Pd15 Pd19 2.917531 1_555
Pd15 Pd5 2.972533 1_565
Pd15 Pd3 2.972533 1_555
Pd16 Pd17 2.657060 1_665
Pd16 Pd8 2.917531 1_654
Pd16 Pd3 2.972517 1_655
Pd16 Pd6 2.972517 1_565
Pd16 Pd5 2.972524 1_565
Pd16 Pd7 2.972525 1_655
Pd17 Pd9 2.917531 1_456
Pd17 Pd5 2.972517 1_455
Pd17 Pd7 2.972517 1_545
Pd17 Pd3 2.972524 1_545
Pd17 Pd6 2.972525 1_455
Pd18 Pd19 2.657060 1_554
Pd18 Pd9 2.917531 1_555
Pd18 Pd2 2.972533 1_554
Pd18 Pd4 2.972533 1_555
Pd19 Pd8 2.917531 1_555
Pd19 Pd4 2.972533 1_556
Pd19 Pd2 2.972533 1_555
