# generated using pymatgen
data_Cs4ZrSnAs4
_symmetry_space_group_name_H-M   'P 1'
_cell_length_a   9.06261792
_cell_length_b   9.06261707
_cell_length_c   9.06261707
_cell_angle_alpha   136.67184469
_cell_angle_beta   127.25359759
_cell_angle_gamma   70.56242145
_symmetry_Int_Tables_number   1
_chemical_formula_structural   Cs4ZrSnAs4
_chemical_formula_sum   'Cs4 Zr1 Sn1 As4'
_cell_volume   398.56485856
_cell_formula_units_Z   1
loop_
 _symmetry_equiv_pos_site_id
 _symmetry_equiv_pos_as_xyz
  1  'x, y, z'
loop_
 _atom_site_type_symbol
 _atom_site_label
 _atom_site_symmetry_multiplicity
 _atom_site_fract_x
 _atom_site_fract_y
 _atom_site_fract_z
 _atom_site_occupancy
  Cs  Cs0  1  0.99993539  0.14623379  0.84575859  1
  Cs  Cs1  1  0.00006461  0.84582320  0.14629839  1
  Cs  Cs2  1  0.69952480  0.35376621  0.35370161  1
  Cs  Cs3  1  0.30047520  0.65417680  0.65424141  1
  Zr  Zr0  1  0.50000000  0.25000000  0.75000000  1
  Sn  Sn0  1  0.50000000  0.75000000  0.25000000  1
  As  As0  1  0.22288308  0.39981473  0.81850540  1
  As  As1  1  0.77711692  0.59562131  0.17693164  1
  As  As2  1  0.41869067  0.10018527  0.32306836  1
  As  As3  1  0.58130933  0.90437869  0.68149460  1
loop_
_geom_bond_atom_site_label_1
_geom_bond_atom_site_label_2
_geom_bond_distance
_geom_bond_site_symmetry_2
As0 Zr0 2.632093 1_555
As0 Sn0 2.651426 1_556
As0 Cs1 3.687984 1_556
As0 Cs1 3.708445 1_545
As0 Cs0 3.734304 1_455
As0 Cs2 3.871094 1_455
As0 Cs3 3.919602 1_555
As1 Zr0 2.632089 1_554
As1 Sn0 2.651426 1_555
As1 Cs0 3.687987 1_565
As1 Cs0 3.708441 1_554
As1 Cs1 3.734311 1_655
As1 Cs3 3.871091 1_655
As1 Cs2 3.919594 1_555
As2 Zr0 2.632092 1_555
As2 Sn0 2.651425 1_545
As2 Cs3 3.687984 1_544
As2 Cs3 3.708444 1_555
As2 Cs2 3.734304 1_555
As2 Cs0 3.871094 1_454
As2 Cs1 3.919603 1_545
As3 Zr0 2.632084 1_565
As3 Sn0 2.651421 1_555
As3 Cs2 3.687990 1_555
As3 Cs2 3.708444 1_566
As3 Cs3 3.734311 1_555
As3 Cs1 3.871099 1_656
As3 Cs0 3.919597 1_565
