# generated using pymatgen
data_Cs12Al(AsSe4)3
_symmetry_space_group_name_H-M   'P 1'
_cell_length_a   10.88655204
_cell_length_b   10.89855040
_cell_length_c   9.81105758
_cell_angle_alpha   82.85315932
_cell_angle_beta   83.02779745
_cell_angle_gamma   78.40389213
_symmetry_Int_Tables_number   1
_chemical_formula_structural   Cs12Al(AsSe4)3
_chemical_formula_sum   'Cs12 Al1 As3 Se12'
_cell_volume   1125.86351438
_cell_formula_units_Z   1
loop_
 _symmetry_equiv_pos_site_id
 _symmetry_equiv_pos_as_xyz
  1  'x, y, z'
loop_
 _atom_site_type_symbol
 _atom_site_label
 _atom_site_symmetry_multiplicity
 _atom_site_fract_x
 _atom_site_fract_y
 _atom_site_fract_z
 _atom_site_occupancy
  Cs  Cs0  1  0.25096347  0.24533784  0.25253333  1
  Cs  Cs1  1  0.74585451  0.76761522  0.23222375  1
  Cs  Cs2  1  0.74664430  0.75860983  0.74419039  1
  Cs  Cs3  1  0.25863596  0.22923154  0.76527163  1
  Cs  Cs4  1  0.16187019  0.64448974  0.61435334  1
  Cs  Cs5  1  0.34083149  0.82428619  0.85370278  1
  Cs  Cs6  1  0.83578555  0.35368474  0.39089739  1
  Cs  Cs7  1  0.65151012  0.16920628  0.14171893  1
  Cs  Cs8  1  0.58543916  0.42681056  0.75535941  1
  Cs  Cs9  1  0.41146671  0.57242143  0.24395127  1
  Cs  Cs10  1  0.06965282  0.91283590  0.24411598  1
  Cs  Cs11  1  0.93000672  0.08365235  0.75355641  1
  Al  Al0  1  0.08741610  0.58453570  0.04573268  1
  As  As0  1  0.57649905  0.07938184  0.57273768  1
  As  As1  1  0.93416636  0.43575808  0.97112779  1
  As  As2  1  0.42379544  0.92120845  0.42058695  1
  Se  Se0  1  0.59560123  0.09109281  0.81384358  1
  Se  Se1  1  0.93619501  0.43232219  0.72830687  1
  Se  Se2  1  0.40396994  0.90831174  0.17939105  1
  Se  Se3  1  0.06019419  0.56466246  0.28805544  1
  Se  Se4  1  0.50406370  0.29161168  0.47031579  1
  Se  Se5  1  0.71817404  0.50125901  0.05414828  1
  Se  Se6  1  0.49630039  0.70973151  0.52513645  1
  Se  Se7  1  0.28484698  0.48945130  0.94537956  1
  Se  Se8  1  0.78704636  0.01919480  0.46158420  1
  Se  Se9  1  0.98704737  0.22082264  0.06232036  1
  Se  Se10  1  0.21383487  0.98098441  0.53290572  1
  Se  Se11  1  0.00219097  0.78149274  0.93655300  1
loop_
_geom_bond_atom_site_label_1
_geom_bond_atom_site_label_2
_geom_bond_distance
_geom_bond_site_symmetry_2
Cs0 Se9 3.680131 1_455
Cs0 Se3 3.710342 1_555
Cs0 Se10 3.775822 1_545
Cs0 Se7 3.798050 1_554
Cs0 Se4 3.829879 1_555
Cs0 Se2 3.832381 1_545
Cs1 Se5 3.648488 1_555
Cs1 Se3 3.743488 1_655
Cs1 Se11 3.784248 1_654
Cs1 Se6 3.792094 1_555
Cs1 Se2 3.801186 1_555
Cs1 Se8 3.880346 1_565
Cs2 Se11 3.610318 1_655
Cs2 Se1 3.746711 1_555
Cs2 Se8 3.767425 1_565
Cs2 Se0 3.774803 1_565
Cs2 Se6 3.823724 1_555
Cs2 Se5 3.899848 1_556
Cs3 Se7 3.597443 1_555
Cs3 Se0 3.738494 1_555
Cs3 Se1 3.786608 1_455
Cs3 Se4 3.786674 1_555
Cs3 Se10 3.884619 1_545
Cs3 Se9 3.897986 1_456
Cs4 Se1 3.688701 1_455
Cs4 Se7 3.738421 1_555
Cs4 Se11 3.747116 1_555
Cs4 Se3 3.764450 1_555
Cs4 Se10 3.795105 1_555
Cs4 Se6 3.826134 1_555
Cs5 Se2 3.610497 1_556
Cs5 Se10 3.674725 1_555
Cs5 Se6 3.693528 1_555
Cs5 Se11 3.786667 1_555
Cs5 Se7 3.800208 1_555
Cs6 Se3 3.654600 1_655
Cs6 Se5 3.744141 1_555
Cs6 Se8 3.756469 1_555
Cs6 Se9 3.756951 1_555
Cs6 Se4 3.778121 1_555
Cs6 Se1 3.853420 1_555
Cs7 Se0 3.578842 1_554
Cs7 Se8 3.684590 1_555
Cs7 Se4 3.701705 1_555
Cs7 Se9 3.780581 1_555
Cs7 Se5 3.806847 1_555
Cs7 Se2 4.249803 1_545
Cs8 Se7 3.547929 1_555
Cs8 Se4 3.595605 1_555
Cs8 Se0 3.613704 1_555
Cs8 Se6 3.625924 1_555
Cs8 Se5 3.664878 1_556
Cs8 Se1 3.807540 1_555
Cs9 Se6 3.592265 1_555
Cs9 Se4 3.595367 1_555
Cs9 Se5 3.609260 1_555
Cs9 Se2 3.622734 1_555
Cs9 Se7 3.665943 1_554
Cs9 Se3 3.812827 1_555
Cs10 Se9 3.597637 1_465
Cs10 Se8 3.598531 1_465
Cs10 Se2 3.609242 1_555
Cs10 Se10 3.621491 1_555
Cs10 Se11 3.705307 1_554
Cs10 Se3 3.786106 1_555
Cs11 Se11 3.537865 1_645
Cs11 Se0 3.602820 1_555
Cs11 Se10 3.615910 1_645
Cs11 Se8 3.625466 1_555
Cs11 Se9 3.708628 1_556
Cs11 Se1 3.790845 1_555
Al0 Se11 2.341875 1_554
Al0 Se7 2.346830 1_554
Al0 Se3 2.348105 1_555
Al0 As1 2.761819 1_454
As0 Se8 2.416630 1_555
As0 Se0 2.420819 1_555
As0 Se4 2.421225 1_555
As1 Se9 2.383389 1_556
As1 Se1 2.384634 1_555
As1 Se5 2.388943 1_556
As2 Se10 2.414923 1_555
As2 Se6 2.421608 1_555
As2 Se2 2.425918 1_555
