# generated using pymatgen
data_Y2GaSi13Ir6
_symmetry_space_group_name_H-M   'P 1'
_cell_length_a   7.99369098
_cell_length_b   7.99368931
_cell_length_c   7.99369068
_cell_angle_alpha   57.08750582
_cell_angle_beta   57.08750646
_cell_angle_gamma   57.08750469
_symmetry_Int_Tables_number   1
_chemical_formula_structural   Y2GaSi13Ir6
_chemical_formula_sum   'Y2 Ga1 Si13 Ir6'
_cell_volume   336.93787615
_cell_formula_units_Z   1
loop_
 _symmetry_equiv_pos_site_id
 _symmetry_equiv_pos_as_xyz
  1  'x, y, z'
loop_
 _atom_site_type_symbol
 _atom_site_label
 _atom_site_symmetry_multiplicity
 _atom_site_fract_x
 _atom_site_fract_y
 _atom_site_fract_z
 _atom_site_occupancy
  Y  Y0  1  0.99910676  0.99910676  0.99910676  1
  Y  Y1  1  0.50089324  0.50089324  0.50089324  1
  Ga  Ga0  1  0.75000000  0.75000000  0.75000000  1
  Si  Si0  1  0.25000000  0.25000000  0.25000000  1
  Si  Si1  1  0.84969629  0.06396329  0.67185016  1
  Si  Si2  1  0.67185016  0.84969629  0.06396329  1
  Si  Si3  1  0.06396329  0.67185016  0.84969629  1
  Si  Si4  1  0.65030371  0.82814984  0.43603671  1
  Si  Si5  1  0.43603671  0.65030371  0.82814984  1
  Si  Si6  1  0.82814984  0.43603671  0.65030371  1
  Si  Si7  1  0.17211603  0.55934780  0.35509912  1
  Si  Si8  1  0.55934780  0.35509912  0.17211603  1
  Si  Si9  1  0.35509912  0.17211603  0.55934780  1
  Si  Si10  1  0.94065220  0.32788397  0.14490088  1
  Si  Si11  1  0.32788397  0.14490088  0.94065220  1
  Si  Si12  1  0.14490088  0.94065220  0.32788397  1
  Ir  Ir0  1  0.08245891  0.41754109  0.75000000  1
  Ir  Ir1  1  0.25000000  0.92864521  0.57135479  1
  Ir  Ir2  1  0.57135479  0.25000000  0.92864521  1
  Ir  Ir3  1  0.92864521  0.57135479  0.25000000  1
  Ir  Ir4  1  0.41754109  0.75000000  0.08245891  1
  Ir  Ir5  1  0.75000000  0.08245891  0.41754109  1
loop_
_geom_bond_atom_site_label_1
_geom_bond_atom_site_label_2
_geom_bond_distance
_geom_bond_site_symmetry_2
Ga0 Ir5 2.539735 1_565
Ga0 Ir0 2.539735 1_655
Ga0 Ir4 2.539735 1_556
Ga0 Si6 2.693105 1_555
Ga0 Si1 2.693105 1_565
Ga0 Si2 2.693105 1_556
Ga0 Si5 2.693105 1_555
Ga0 Si4 2.693106 1_555
Ga0 Si3 2.693106 1_655
Si1 Si3 2.597862 1_645
Si1 Si2 2.597862 1_546
Si1 Si12 2.732543 1_645
Si1 Si6 2.797192 1_555
Si1 Y0 3.128450 1_545
Si1 Y1 3.195549 1_555
Si2 Si3 2.597862 1_654
Si2 Si4 2.797193 1_555
Si2 Y0 3.128450 1_554
Si2 Y1 3.195549 1_555
Si3 Si5 2.797193 1_555
Si3 Y0 3.128450 1_455
Si3 Y1 3.195549 1_555
Si4 Si6 2.597862 1_555
Si4 Si5 2.597862 1_555
Si4 Si9 2.732543 1_565
Si4 Y1 3.128450 1_555
Si4 Y0 3.195549 1_554
Si5 Si6 2.597862 1_555
Si5 Si8 2.732543 1_556
Si5 Y1 3.128450 1_555
Si5 Y0 3.195549 1_455
Si6 Si7 2.732543 1_655
Si6 Y1 3.128450 1_555
Si6 Y0 3.195549 1_545
Si7 Y1 3.144187 1_555
Si7 Y0 3.238929 1_454
Si8 Y1 3.144187 1_555
Si8 Y0 3.238929 1_544
Si9 Y1 3.144186 1_555
Si9 Y0 3.238929 1_445
Si10 Si3 2.732543 1_654
Si10 Y0 3.144186 1_544
Si10 Y1 3.238929 1_555
Si11 Si2 2.732543 1_546
Si11 Y0 3.144187 1_445
Si11 Y1 3.238929 1_555
Si12 Y0 3.144187 1_454
Si12 Y1 3.238929 1_555
Ir0 Si9 2.431984 1_555
Ir0 Si11 2.431984 1_555
Ir0 Si3 2.468891 1_555
Ir0 Si6 2.468892 1_455
Ir0 Si7 2.509806 1_555
Ir0 Si10 2.509806 1_456
Ir0 Y0 3.055987 1_445
Ir0 Y1 3.055987 1_555
Ir1 Si9 2.447261 1_565
Ir1 Si12 2.447262 1_555
Ir1 Si0 2.454908 1_565
Ir1 Si3 2.476709 1_555
Ir1 Si5 2.476709 1_555
Ir1 Si1 2.538532 1_465
Ir1 Si4 2.538532 1_555
Ir1 Y1 3.073155 1_555
Ir1 Y0 3.073156 1_455
Ir2 Si8 2.447262 1_556
Ir2 Si11 2.447262 1_555
Ir2 Si0 2.454908 1_556
Ir2 Si1 2.476709 1_555
Ir2 Si6 2.476709 1_555
Ir2 Si5 2.538532 1_555
Ir2 Si2 2.538532 1_546
Ir2 Y1 3.073156 1_555
Ir2 Y0 3.073156 1_545
Ir3 Si10 2.447261 1_555
Ir3 Si7 2.447262 1_655
Ir3 Si0 2.454908 1_655
Ir3 Si4 2.476709 1_555
Ir3 Si2 2.476709 1_555
Ir3 Si6 2.538532 1_555
Ir3 Si3 2.538532 1_654
Ir3 Y0 3.073155 1_554
Ir3 Y1 3.073156 1_555
Ir4 Si12 2.431984 1_555
Ir4 Si7 2.431984 1_555
Ir4 Si5 2.468892 1_554
Ir4 Si2 2.468892 1_555
Ir4 Si8 2.509805 1_555
Ir4 Si11 2.509805 1_564
Ir4 Y1 3.055987 1_555
Ir4 Y0 3.055987 1_454
Ir5 Si10 2.431984 1_555
Ir5 Si8 2.431984 1_555
Ir5 Si4 2.468891 1_545
Ir5 Si1 2.468892 1_555
Ir5 Si12 2.509806 1_645
Ir5 Si9 2.509806 1_555
Ir5 Y1 3.055986 1_555
Ir5 Y0 3.055987 1_544
