# generated using pymatgen
data_BaCdNiH4
_symmetry_space_group_name_H-M   'P 1'
_cell_length_a   7.22010439
_cell_length_b   7.22010439
_cell_length_c   7.22010439
_cell_angle_alpha   90.00000000
_cell_angle_beta   90.00000000
_cell_angle_gamma   90.00000000
_symmetry_Int_Tables_number   1
_chemical_formula_structural   BaCdNiH4
_chemical_formula_sum   'Ba4 Cd4 Ni4 H16'
_cell_volume   376.38337361
_cell_formula_units_Z   4
loop_
 _symmetry_equiv_pos_site_id
 _symmetry_equiv_pos_as_xyz
  1  'x, y, z'
loop_
 _atom_site_type_symbol
 _atom_site_label
 _atom_site_symmetry_multiplicity
 _atom_site_fract_x
 _atom_site_fract_y
 _atom_site_fract_z
 _atom_site_occupancy
  Ba  Ba0  1  0.16392397  0.66392397  0.83607603  1
  Ba  Ba1  1  0.66392397  0.83607603  0.16392397  1
  Ba  Ba2  1  0.83607603  0.16392397  0.66392397  1
  Ba  Ba3  1  0.33607603  0.33607603  0.33607603  1
  Cd  Cd0  1  0.84927600  0.34927600  0.15072400  1
  Cd  Cd1  1  0.34927600  0.15072400  0.84927600  1
  Cd  Cd2  1  0.15072400  0.84927600  0.34927600  1
  Cd  Cd3  1  0.65072400  0.65072400  0.65072400  1
  Ni  Ni0  1  0.42990376  0.92990376  0.57009624  1
  Ni  Ni1  1  0.92990376  0.57009624  0.42990376  1
  Ni  Ni2  1  0.57009624  0.42990376  0.92990376  1
  Ni  Ni3  1  0.07009624  0.07009624  0.07009624  1
  H  H0  1  0.56006973  0.06006973  0.43993027  1
  H  H1  1  0.06006973  0.43993027  0.56006973  1
  H  H2  1  0.43993027  0.56006973  0.06006973  1
  H  H3  1  0.93993027  0.93993027  0.93993027  1
  H  H4  1  0.26253755  0.96866487  0.09023801  1
  H  H5  1  0.90976199  0.76253755  0.53133513  1
  H  H6  1  0.46866487  0.40976199  0.73746245  1
  H  H7  1  0.76253755  0.53133513  0.90976199  1
  H  H8  1  0.40976199  0.73746245  0.46866487  1
  H  H9  1  0.96866487  0.09023801  0.26253755  1
  H  H10  1  0.73746245  0.46866487  0.40976199  1
  H  H11  1  0.09023801  0.26253755  0.96866487  1
  H  H12  1  0.53133513  0.90976199  0.76253755  1
  H  H13  1  0.23746245  0.03133513  0.59023801  1
  H  H14  1  0.59023801  0.23746245  0.03133513  1
  H  H15  1  0.03133513  0.59023801  0.23746245  1
loop_
_geom_bond_atom_site_label_1
_geom_bond_atom_site_label_2
_geom_bond_distance
_geom_bond_site_symmetry_2
Ba0 H1 2.673763 1_555
Ba0 H3 2.673763 1_455
Ba0 H2 2.673763 1_556
Ba0 H4 2.952219 1_556
Ba0 H6 2.952219 1_555
Ba0 H5 2.952219 1_455
Ba0 H7 3.098094 1_455
Ba0 H15 3.098094 1_556
Ba0 H11 3.098094 1_555
Ba1 H3 2.673763 1_554
Ba1 H0 2.673763 1_565
Ba1 H2 2.673763 1_555
Ba1 H9 2.952219 1_565
Ba1 H8 2.952219 1_555
Ba1 H7 2.952219 1_554
Ba1 H14 3.098094 1_565
Ba1 H4 3.098094 1_555
Ba1 H12 3.098094 1_554
Ba2 H3 2.673763 1_545
Ba2 H0 2.673763 1_555
Ba2 H1 2.673763 1_655
Ba2 H11 2.952219 1_655
Ba2 H12 2.952219 1_545
Ba2 H10 2.952219 1_555
Ba2 H13 3.098094 1_655
Ba2 H9 3.098094 1_555
Ba2 H5 3.098094 1_545
Ba3 H0 2.673763 1_555
Ba3 H1 2.673763 1_555
Ba3 H2 2.673763 1_555
Ba3 H14 2.952219 1_555
Ba3 H15 2.952219 1_555
Ba3 H13 2.952219 1_555
Ba3 H10 3.098094 1_555
Ba3 H8 3.098094 1_555
Ba3 H6 3.098094 1_555
Cd0 H9 2.211954 1_555
Cd0 H10 2.211954 1_555
Cd0 H14 2.211954 1_555
Cd0 H11 2.268673 1_654
Cd0 H7 2.268673 1_554
Cd0 H15 2.268673 1_655
Cd1 H6 2.211954 1_555
Cd1 H11 2.211954 1_555
Cd1 H13 2.211954 1_555
Cd1 H4 2.268673 1_546
Cd1 H12 2.268673 1_545
Cd1 H14 2.268673 1_556
Cd2 H4 2.211954 1_555
Cd2 H8 2.211954 1_555
Cd2 H15 2.211954 1_555
Cd2 H9 2.268673 1_465
Cd2 H5 2.268673 1_455
Cd2 H13 2.268673 1_565
Cd3 H5 2.211954 1_555
Cd3 H12 2.211954 1_555
Cd3 H7 2.211954 1_555
Cd3 H8 2.268673 1_555
Cd3 H6 2.268673 1_555
Cd3 H10 2.268673 1_555
H0 Ni0 1.627802 1_545
H1 Ni1 1.627802 1_455
H2 Ni2 1.627802 1_554
H3 Ni3 1.627802 1_666
H4 Ni3 1.577352 1_565
H5 Ni1 1.577352 1_555
H6 Ni2 1.577352 1_555
H7 Ni2 1.577352 1_555
H8 Ni0 1.577352 1_555
H9 Ni3 1.577352 1_655
H10 Ni1 1.577352 1_555
H11 Ni3 1.577352 1_556
H12 Ni0 1.577352 1_555
H13 Ni0 1.577352 1_545
H14 Ni2 1.577352 1_554
H15 Ni1 1.577352 1_455
