# generated using pymatgen
data_CdAg6NO11
_symmetry_space_group_name_H-M   'P 1'
_cell_length_a   6.87974138
_cell_length_b   6.87974199
_cell_length_c   6.87974128
_cell_angle_alpha   62.56333503
_cell_angle_beta   62.56333026
_cell_angle_gamma   62.56332782
_symmetry_Int_Tables_number   1
_chemical_formula_structural   CdAg6NO11
_chemical_formula_sum   'Cd1 Ag6 N1 O11'
_cell_volume   243.39763604
_cell_formula_units_Z   1
loop_
 _symmetry_equiv_pos_site_id
 _symmetry_equiv_pos_as_xyz
  1  'x, y, z'
loop_
 _atom_site_type_symbol
 _atom_site_label
 _atom_site_symmetry_multiplicity
 _atom_site_fract_x
 _atom_site_fract_y
 _atom_site_fract_z
 _atom_site_occupancy
  Cd  Cd0  1  0.99786479  0.99786479  0.99786479  1
  Ag  Ag0  1  0.49691462  0.00008931  0.00008931  1
  Ag  Ag1  1  0.49934202  0.49934202  0.99969068  1
  Ag  Ag2  1  0.49934202  0.99969068  0.49934202  1
  Ag  Ag3  1  0.00008931  0.00008931  0.49691462  1
  Ag  Ag4  1  0.99969068  0.49934202  0.49934202  1
  Ag  Ag5  1  0.00008931  0.49691462  0.00008931  1
  N  N0  1  0.50360349  0.50360349  0.50360349  1
  O  O0  1  0.57504473  0.14724863  0.14724863  1
  O  O1  1  0.14724863  0.57504473  0.14724863  1
  O  O2  1  0.14013809  0.14013809  0.14013809  1
  O  O3  1  0.14724863  0.14724863  0.57504473  1
  O  O4  1  0.60529021  0.60529021  0.30087838  1
  O  O5  1  0.60529021  0.30087838  0.60529021  1
  O  O6  1  0.30087838  0.60529021  0.60529021  1
  O  O7  1  0.85213203  0.85213203  0.42095346  1
  O  O8  1  0.85213203  0.42095346  0.85213203  1
  O  O9  1  0.85670637  0.85670637  0.85670637  1
  O  O10  1  0.42095346  0.85213203  0.85213203  1
loop_
_geom_bond_atom_site_label_1
_geom_bond_atom_site_label_2
_geom_bond_distance
_geom_bond_site_symmetry_2
Cd0 O9 2.331652 1_555
Cd0 O2 2.350068 1_666
Cd0 O10 2.455709 1_655
Cd0 O7 2.455709 1_556
Cd0 O8 2.455710 1_565
Cd0 O0 2.457132 1_566
Cd0 O3 2.457132 1_665
Cd0 O1 2.457132 1_656
Ag0 O10 2.068970 1_544
Ag0 O0 2.070374 1_555
Ag0 O2 2.092396 1_555
Ag0 O9 2.114137 1_544
Ag0 O5 2.567381 1_554
Ag0 O4 2.567381 1_545
Ag1 O1 2.056196 1_556
Ag1 O0 2.056196 1_556
Ag1 O8 2.059113 1_555
Ag1 O10 2.059113 1_555
Ag2 O3 2.056196 1_565
Ag2 O0 2.056196 1_565
Ag2 O7 2.059113 1_555
Ag2 O10 2.059113 1_555
Ag3 O7 2.068970 1_445
Ag3 O3 2.070374 1_555
Ag3 O2 2.092396 1_555
Ag3 O9 2.114137 1_445
Ag3 O5 2.567380 1_455
Ag3 O6 2.567381 1_545
Ag4 O1 2.056196 1_655
Ag4 O3 2.056196 1_655
Ag4 O8 2.059113 1_555
Ag4 O7 2.059113 1_555
Ag5 O8 2.068970 1_454
Ag5 O1 2.070374 1_555
Ag5 O2 2.092396 1_555
Ag5 O9 2.114137 1_454
Ag5 O4 2.567380 1_455
Ag5 O6 2.567381 1_554
N0 O6 1.255676 1_555
N0 O4 1.255676 1_555
N0 O5 1.255676 1_555
