# generated using pymatgen
data_Y4Hf2ZrO12
_symmetry_space_group_name_H-M   'P 1'
_cell_length_a   6.29450519
_cell_length_b   6.34146898
_cell_length_c   6.53251341
_cell_angle_alpha   99.84105719
_cell_angle_beta   98.34226187
_cell_angle_gamma   99.66746719
_symmetry_Int_Tables_number   1
_chemical_formula_structural   Y4Hf2ZrO12
_chemical_formula_sum   'Y4 Hf2 Zr1 O12'
_cell_volume   249.18212568
_cell_formula_units_Z   1
loop_
 _symmetry_equiv_pos_site_id
 _symmetry_equiv_pos_as_xyz
  1  'x, y, z'
loop_
 _atom_site_type_symbol
 _atom_site_label
 _atom_site_symmetry_multiplicity
 _atom_site_fract_x
 _atom_site_fract_y
 _atom_site_fract_z
 _atom_site_occupancy
  Y  Y0  1  0.69884997  0.86655660  0.39030348  1
  Y  Y1  1  0.38673302  0.69940509  0.86608926  1
  Y  Y2  1  0.30304238  0.13493766  0.60983710  1
  Y  Y3  1  0.61338777  0.29948133  0.13261714  1
  Hf  Hf0  1  0.99908667  0.99890037  0.99872284  1
  Hf  Hf1  1  0.84823176  0.39842152  0.66777596  1
  Zr  Zr0  1  0.15157415  0.60211200  0.32948876  1
  O  O0  1  0.58834184  0.41592546  0.81909802  1
  O  O1  1  0.82861829  0.57070446  0.42702705  1
  O  O2  1  0.41082413  0.81095917  0.56495042  1
  O  O3  1  0.41479296  0.58356458  0.17901378  1
  O  O4  1  0.16838033  0.42956965  0.57671273  1
  O  O5  1  0.59186722  0.19037582  0.43551101  1
  O  O6  1  0.01769198  0.67845666  0.88046244  1
  O  O7  1  0.91983139  0.09020784  0.70018769  1
  O  O8  1  0.68706387  0.93342064  0.05717344  1
  O  O9  1  0.98091144  0.31746824  0.12182819  1
  O  O10  1  0.07882497  0.91412267  0.30153386  1
  O  O11  1  0.31194587  0.06540824  0.94166781  1
loop_
_geom_bond_atom_site_label_1
_geom_bond_atom_site_label_2
_geom_bond_distance
_geom_bond_site_symmetry_2
Hf0 O8 2.042921 1_556
Hf0 O11 2.045159 1_665
Hf0 O9 2.071218 1_566
Hf0 O6 2.075921 1_655
Hf0 O7 2.141978 1_565
Hf0 O10 2.149407 1_656
Hf1 O0 2.039189 1_555
Hf1 O1 2.063620 1_555
Hf1 O6 2.076561 1_655
Hf1 O7 2.116068 1_555
Hf1 O5 2.130011 1_555
Hf1 O4 2.169828 1_655
O0 Y3 2.286282 1_556
O0 Y1 2.372110 1_555
O0 Y2 2.376769 1_555
O1 Y0 2.203710 1_555
O1 Zr0 2.204852 1_655
O1 Y3 2.413108 1_555
O2 Zr0 2.152284 1_555
O2 Y1 2.217998 1_555
O2 Y2 2.255471 1_565
O2 Y0 2.288193 1_555
O3 Zr0 2.055161 1_555
O3 Y1 2.280711 1_554
O3 Y3 2.362111 1_555
O3 Y0 2.383710 1_555
O4 Zr0 2.099989 1_555
O4 Y2 2.207510 1_555
O4 Y1 2.396041 1_555
O5 Y3 2.219553 1_555
O5 Y0 2.252187 1_545
O5 Y2 2.290968 1_555
O6 Y1 2.320858 1_555
O7 Y0 2.362867 1_545
O7 Y2 2.547096 1_655
O8 Y1 2.252551 1_554
O8 Y0 2.280389 1_555
O8 Y3 2.425592 1_565
O9 Zr0 2.083582 1_655
O9 Y3 2.308926 1_555
O10 Zr0 2.135760 1_555
O10 Y2 2.357179 1_565
O10 Y0 2.523428 1_455
O11 Y3 2.256964 1_556
O11 Y2 2.279514 1_555
O11 Y1 2.427979 1_545
