# generated using pymatgen
data_Ti2V2GaN3
_symmetry_space_group_name_H-M   'P 1'
_cell_length_a   2.96258963
_cell_length_b   2.96258829
_cell_length_c   22.55598020
_cell_angle_alpha   90.00000000
_cell_angle_beta   90.00000000
_cell_angle_gamma   119.99998143
_symmetry_Int_Tables_number   1
_chemical_formula_structural   Ti2V2GaN3
_chemical_formula_sum   'Ti4 V4 Ga2 N6'
_cell_volume   171.44910330
_cell_formula_units_Z   2
loop_
 _symmetry_equiv_pos_site_id
 _symmetry_equiv_pos_as_xyz
  1  'x, y, z'
loop_
 _atom_site_type_symbol
 _atom_site_label
 _atom_site_symmetry_multiplicity
 _atom_site_fract_x
 _atom_site_fract_y
 _atom_site_fract_z
 _atom_site_occupancy
  Ti  Ti0  1  0.33333300  0.66666700  0.44337230  1
  Ti  Ti1  1  0.66666700  0.33333300  0.55662770  1
  Ti  Ti2  1  0.66666700  0.33333300  0.94337230  1
  Ti  Ti3  1  0.33333300  0.66666700  0.05662770  1
  V  V0  1  0.00000000  0.00000000  0.34378843  1
  V  V1  1  0.00000000  0.00000000  0.65621157  1
  V  V2  1  0.00000000  0.00000000  0.84378843  1
  V  V3  1  0.00000000  0.00000000  0.15621157  1
  Ga  Ga0  1  0.33333300  0.66666700  0.25000000  1
  Ga  Ga1  1  0.66666700  0.33333300  0.75000000  1
  N  N0  1  0.00000000  0.00000000  0.50000000  1
  N  N1  1  0.00000000  0.00000000  0.00000000  1
  N  N2  1  0.66666700  0.33333300  0.39002526  1
  N  N3  1  0.33333300  0.66666700  0.60997474  1
  N  N4  1  0.33333300  0.66666700  0.89002526  1
  N  N5  1  0.66666700  0.33333300  0.10997474  1
loop_
_geom_bond_atom_site_label_1
_geom_bond_atom_site_label_2
_geom_bond_distance
_geom_bond_site_symmetry_2
Ga0 V0 2.720466 1_565
Ga0 V3 2.720466 1_565
Ga0 V0 2.720468 1_555
Ga0 V3 2.720468 1_555
Ga0 V0 2.720468 1_665
Ga0 V3 2.720468 1_665
Ga1 V2 2.720466 1_655
Ga1 V1 2.720466 1_655
Ga1 V2 2.720468 1_665
Ga1 V1 2.720468 1_665
Ga1 V2 2.720468 1_555
Ga1 V1 2.720468 1_555
N0 Ti1 2.134740 1_455
N0 Ti0 2.134740 1_545
N0 Ti1 2.134742 1_445
N0 Ti0 2.134742 1_555
N0 Ti1 2.134743 1_555
N0 Ti0 2.134743 1_445
N1 Ti3 2.134740 1_545
N1 Ti2 2.134740 1_454
N1 Ti3 2.134742 1_555
N1 Ti2 2.134742 1_444
N1 Ti3 2.134743 1_445
N1 Ti2 2.134743 1_554
N2 V0 2.003326 1_655
N2 V0 2.003328 1_665
N2 V0 2.003329 1_555
N2 Ti0 2.091305 1_545
N2 Ti0 2.091306 1_655
N2 Ti0 2.091309 1_555
N3 V1 2.003326 1_565
N3 V1 2.003328 1_555
N3 V1 2.003329 1_665
N3 Ti1 2.091305 1_565
N3 Ti1 2.091306 1_455
N3 Ti1 2.091309 1_555
N4 V2 2.003326 1_565
N4 V2 2.003328 1_555
N4 V2 2.003329 1_665
N4 Ti2 2.091305 1_565
N4 Ti2 2.091306 1_455
N4 Ti2 2.091309 1_555
N5 V3 2.003326 1_655
N5 V3 2.003328 1_665
N5 V3 2.003329 1_555
N5 Ti3 2.091305 1_545
N5 Ti3 2.091306 1_655
N5 Ti3 2.091309 1_555
