# generated using pymatgen
data_Li12SiOsN8
_symmetry_space_group_name_H-M   'P 1'
_cell_length_a   6.52878089
_cell_length_b   6.52878089
_cell_length_c   4.84844923
_cell_angle_alpha   90.00000000
_cell_angle_beta   90.00000000
_cell_angle_gamma   90.00000000
_symmetry_Int_Tables_number   1
_chemical_formula_structural   Li12SiOsN8
_chemical_formula_sum   'Li12 Si1 Os1 N8'
_cell_volume   206.66505121
_cell_formula_units_Z   1
loop_
 _symmetry_equiv_pos_site_id
 _symmetry_equiv_pos_as_xyz
  1  'x, y, z'
loop_
 _atom_site_type_symbol
 _atom_site_label
 _atom_site_symmetry_multiplicity
 _atom_site_fract_x
 _atom_site_fract_y
 _atom_site_fract_z
 _atom_site_occupancy
  Li  Li0  1  0.50000000  0.00000000  0.58504668  1
  Li  Li1  1  0.00000000  0.50000000  0.87399021  1
  Li  Li2  1  0.00000000  0.50000000  0.41495332  1
  Li  Li3  1  0.50000000  0.00000000  0.12600979  1
  Li  Li4  1  0.23028988  0.23028988  0.50000000  1
  Li  Li5  1  0.76971012  0.76971012  0.50000000  1
  Li  Li6  1  0.69774566  0.69774566  0.00000000  1
  Li  Li7  1  0.30225434  0.30225434  0.00000000  1
  Li  Li8  1  0.23028988  0.76971012  0.50000000  1
  Li  Li9  1  0.76971012  0.23028988  0.50000000  1
  Li  Li10  1  0.69774566  0.30225434  0.00000000  1
  Li  Li11  1  0.30225434  0.69774566  0.00000000  1
  Si  Si0  1  0.50000000  0.50000000  0.50000000  1
  Os  Os0  1  0.00000000  0.00000000  0.00000000  1
  N  N0  1  0.50000000  0.26328095  0.31297804  1
  N  N1  1  0.50000000  0.73671905  0.31297804  1
  N  N2  1  0.00000000  0.76652470  0.19819298  1
  N  N3  1  0.00000000  0.23347530  0.19819298  1
  N  N4  1  0.26328095  0.50000000  0.68702196  1
  N  N5  1  0.73671905  0.50000000  0.68702196  1
  N  N6  1  0.76652470  0.00000000  0.80180702  1
  N  N7  1  0.23347530  0.00000000  0.80180702  1
loop_
_geom_bond_atom_site_label_1
_geom_bond_atom_site_label_2
_geom_bond_distance
_geom_bond_site_symmetry_2
Li0 N6 2.032826 1_555
Li0 N7 2.032826 1_555
Li0 N0 2.166722 1_555
Li0 N1 2.166722 1_545
Li1 N4 1.943292 1_555
Li1 N5 1.943292 1_455
Li1 N2 2.344929 1_556
Li1 N3 2.344929 1_556
Li2 N2 2.032826 1_555
Li2 N3 2.032826 1_555
Li2 N4 2.166722 1_555
Li2 N5 2.166722 1_455
Li3 N0 1.943292 1_555
Li3 N1 1.943292 1_545
Li3 N6 2.344929 1_554
Li3 N7 2.344929 1_554
Li4 N4 1.992313 1_555
Li4 N0 1.992313 1_555
Li4 N3 2.098146 1_555
Li4 N7 2.098146 1_555
Li5 N5 1.992313 1_555
Li5 N1 1.992313 1_555
Li5 N6 2.098146 1_565
Li5 N2 2.098146 1_655
Li6 N1 2.008532 1_555
Li6 N5 2.008532 1_554
Li6 N6 2.240344 1_564
Li6 N2 2.240344 1_655
Li7 N0 2.008532 1_555
Li7 N4 2.008532 1_554
Li7 N7 2.240344 1_554
Li7 N3 2.240344 1_555
Li8 N4 1.992313 1_555
Li8 N1 1.992313 1_555
Li8 N2 2.098146 1_555
Li8 N7 2.098146 1_565
Li9 N0 1.992313 1_555
Li9 N5 1.992313 1_555
Li9 N6 2.098146 1_555
Li9 N3 2.098146 1_655
Li10 N0 2.008532 1_555
Li10 N5 2.008532 1_554
Li10 N6 2.240344 1_554
Li10 N3 2.240344 1_655
Li11 N4 2.008532 1_554
Li11 N1 2.008532 1_555
Li11 N2 2.240344 1_555
Li11 N7 2.240344 1_564
N0 Si0 1.791858 1_555
N1 Si0 1.791858 1_555
N2 Os0 1.801916 1_565
N3 Os0 1.801916 1_555
N4 Si0 1.791858 1_555
N5 Si0 1.791858 1_555
N6 Os0 1.801916 1_656
N7 Os0 1.801916 1_556
