# generated using pymatgen
data_Ca5Sn2SbF
_symmetry_space_group_name_H-M   'P 1'
_cell_length_a   9.42972660
_cell_length_b   9.42972694
_cell_length_c   9.42968983
_cell_angle_alpha   128.93574146
_cell_angle_beta   128.93574526
_cell_angle_gamma   75.11383273
_symmetry_Int_Tables_number   1
_chemical_formula_structural   Ca5Sn2SbF
_chemical_formula_sum   'Ca10 Sn4 Sb2 F2'
_cell_volume   493.94659119
_cell_formula_units_Z   2
loop_
 _symmetry_equiv_pos_site_id
 _symmetry_equiv_pos_as_xyz
  1  'x, y, z'
loop_
 _atom_site_type_symbol
 _atom_site_label
 _atom_site_symmetry_multiplicity
 _atom_site_fract_x
 _atom_site_fract_y
 _atom_site_fract_z
 _atom_site_occupancy
  Ca  Ca0  1  0.50000000  0.50000000  0.00000000  1
  Ca  Ca1  1  0.00000000  0.00000000  0.00000000  1
  Ca  Ca2  1  0.51126790  0.01126790  0.81804983  1
  Ca  Ca3  1  0.19321707  0.69321707  0.18195017  1
  Ca  Ca4  1  0.01126790  0.19321707  0.50000000  1
  Ca  Ca5  1  0.69321707  0.51126790  0.50000000  1
  Ca  Ca6  1  0.48873210  0.98873210  0.18195017  1
  Ca  Ca7  1  0.80678293  0.30678293  0.81804983  1
  Ca  Ca8  1  0.98873210  0.80678293  0.50000000  1
  Ca  Ca9  1  0.30678293  0.48873210  0.50000000  1
  Sn  Sn0  1  0.87054350  0.37054350  0.24108500  1
  Sn  Sn1  1  0.12945650  0.62945650  0.75891500  1
  Sn  Sn2  1  0.37054350  0.12945650  0.50000000  1
  Sn  Sn3  1  0.62945650  0.87054350  0.50000000  1
  Sb  Sb0  1  0.25000000  0.25000000  0.00000000  1
  Sb  Sb1  1  0.75000000  0.75000000  0.00000000  1
  F  F0  1  0.25000000  0.75000000  0.49999900  1
  F  F1  1  0.75000000  0.25000000  0.50000100  1
loop_
_geom_bond_atom_site_label_1
_geom_bond_atom_site_label_2
_geom_bond_distance
_geom_bond_site_symmetry_2
Ca0 Sn0 3.190577 1_555
Ca0 Sn1 3.190577 1_554
Ca0 Sn3 3.190581 1_555
Ca0 Sn2 3.190581 1_554
Ca0 Sb0 3.737700 1_555
Ca0 Sb1 3.737700 1_555
Ca1 Sn0 3.190577 1_455
Ca1 Sn1 3.190577 1_544
Ca1 Sn2 3.190581 1_555
Ca1 Sn3 3.190581 1_444
Ca1 Sb0 3.737700 1_555
Ca1 Sb1 3.737700 1_445
Ca2 F0 2.383002 1_545
Ca2 Sn2 3.230593 1_555
Ca2 Sn3 3.230593 1_545
Ca2 Sn0 3.285220 1_556
Ca2 Sb1 3.419054 1_546
Ca2 Sb0 3.419054 1_556
Ca3 F0 2.382965 1_555
Ca3 Sn3 3.230623 1_555
Ca3 Sn2 3.230623 1_565
Ca3 Sn1 3.285184 1_554
Ca3 Sb1 3.419055 1_455
Ca3 Sb0 3.419055 1_555
Ca4 F1 2.382998 1_455
Ca4 Sn1 3.230615 1_555
Ca4 Sn0 3.230619 1_455
Ca4 Sn2 3.285207 1_555
Ca4 Sb0 3.419042 1_556
Ca4 Sb1 3.419062 1_445
Ca5 F1 2.382998 1_555
Ca5 Sn1 3.230615 1_655
Ca5 Sn0 3.230619 1_555
Ca5 Sn3 3.285207 1_555
Ca5 Sb1 3.419042 1_556
Ca5 Sb0 3.419062 1_555
Ca6 F1 2.383002 1_565
Ca6 Sn3 3.230593 1_555
Ca6 Sn2 3.230593 1_565
Ca6 Sn1 3.285220 1_554
Ca6 Sb0 3.419054 1_565
Ca6 Sb1 3.419054 1_555
Ca7 F1 2.382965 1_555
Ca7 Sn2 3.230623 1_555
Ca7 Sn3 3.230623 1_545
Ca7 Sn0 3.285184 1_556
Ca7 Sb0 3.419055 1_656
Ca7 Sb1 3.419055 1_556
Ca8 F0 2.382998 1_655
Ca8 Sn0 3.230615 1_555
Ca8 Sn1 3.230619 1_655
Ca8 Sn3 3.285207 1_555
Ca8 Sb1 3.419042 1_555
Ca8 Sb0 3.419062 1_666
Ca9 F0 2.382998 1_555
Ca9 Sn0 3.230615 1_455
Ca9 Sn1 3.230619 1_555
Ca9 Sn2 3.285207 1_555
Ca9 Sb0 3.419042 1_555
Ca9 Sb1 3.419062 1_556
Sn0 Sn1 2.976425 1_655
Sn2 Sn3 2.976403 1_545
