# generated using pymatgen
data_Ta5AlGaP
_symmetry_space_group_name_H-M   'P 1'
_cell_length_a   6.61462681
_cell_length_b   7.56221958
_cell_length_c   6.60857671
_cell_angle_alpha   115.90924259
_cell_angle_beta   90.00000000
_cell_angle_gamma   115.93472601
_symmetry_Int_Tables_number   1
_chemical_formula_structural   Ta5AlGaP
_chemical_formula_sum   'Ta10 Al2 Ga2 P2'
_cell_volume   259.82940904
_cell_formula_units_Z   2
loop_
 _symmetry_equiv_pos_site_id
 _symmetry_equiv_pos_as_xyz
  1  'x, y, z'
loop_
 _atom_site_type_symbol
 _atom_site_label
 _atom_site_symmetry_multiplicity
 _atom_site_fract_x
 _atom_site_fract_y
 _atom_site_fract_z
 _atom_site_occupancy
  Ta  Ta0  1  0.99199086  0.00000000  0.99771512  1
  Ta  Ta1  1  0.50800914  0.00000000  0.49771512  1
  Ta  Ta2  1  0.52309169  0.70582040  0.69008256  1
  Ta  Ta3  1  0.19201332  0.69568423  0.01152198  1
  Ta  Ta4  1  0.68272771  0.70582040  0.19008256  1
  Ta  Ta5  1  0.00366991  0.69568423  0.51152198  1
  Ta  Ta6  1  0.49633009  0.30431577  0.31583875  1
  Ta  Ta7  1  0.81727229  0.29417960  0.98426416  1
  Ta  Ta8  1  0.30798668  0.30431577  0.81583875  1
  Ta  Ta9  1  0.97690831  0.29417960  0.48426416  1
  Al  Al0  1  0.75000000  0.50000000  0.75714551  1
  Al  Al1  1  0.25000000  0.50000000  0.25714551  1
  Ga  Ga0  1  0.13733641  0.00000000  0.36370308  1
  Ga  Ga1  1  0.36266359  0.00000000  0.86370308  1
  P  P0  1  0.87254744  0.00000000  0.62972983  1
  P  P1  1  0.62745256  0.00000000  0.12972983  1
loop_
_geom_bond_atom_site_label_1
_geom_bond_atom_site_label_2
_geom_bond_distance
_geom_bond_site_symmetry_2
Al0 Ta9 2.741878 1_555
Al0 Ta2 2.741884 1_555
Al0 Ta4 2.742381 1_556
Al0 Ta7 2.742392 1_555
Al0 Ta6 2.750885 1_555
Al0 Ta5 2.750890 1_655
Al0 Ta3 2.757854 1_656
Al0 Ta8 2.757856 1_555
Al0 Ta1 2.973100 1_555
Al0 Ta0 2.973100 1_565
Al1 Ta7 2.741873 1_454
Al1 Ta4 2.741878 1_555
Al1 Ta2 2.742378 1_555
Al1 Ta9 2.742389 1_455
Al1 Ta8 2.750887 1_554
Al1 Ta3 2.750893 1_555
Al1 Ta5 2.757859 1_555
Al1 Ta6 2.757862 1_555
Al1 Ta1 2.973100 1_565
Al1 Ta0 2.973100 1_454
Ga0 P0 2.481623 1_455
Ga0 Ta0 2.602733 1_454
Ga0 Ta1 2.606907 1_555
Ga0 Ta3 2.625076 1_545
Ga0 Ta6 2.625076 1_555
Ga0 Ta5 2.686418 1_545
Ga0 Ta8 2.686423 1_555
Ga0 Ta9 2.688108 1_455
Ga0 Ta4 2.688114 1_445
Ga1 P1 2.481623 1_556
Ga1 Ta1 2.602733 1_555
Ga1 Ta0 2.606907 1_455
Ga1 Ta8 2.625072 1_555
Ga1 Ta5 2.625079 1_545
Ga1 Ta3 2.686418 1_546
Ga1 Ta6 2.686423 1_556
Ga1 Ta2 2.688109 1_545
Ga1 Ta7 2.688113 1_555
P0 Ta0 2.556981 1_555
P0 Ta1 2.564260 1_555
P0 Ta2 2.593976 1_545
P0 Ta7 2.593980 1_555
P0 Ta5 2.614065 1_645
P0 Ta8 2.614070 1_655
P0 Ta9 2.622095 1_555
P0 Ta4 2.622106 1_545
P1 Ta1 2.556981 1_555
P1 Ta0 2.564260 1_554
P1 Ta4 2.593973 1_545
P1 Ta9 2.593983 1_555
P1 Ta6 2.614065 1_555
P1 Ta3 2.614069 1_545
P1 Ta7 2.622096 1_554
P1 Ta2 2.622105 1_544
