# generated using pymatgen
data_SmPO4
_symmetry_space_group_name_H-M   'P 1'
_cell_length_a   6.89068807
_cell_length_b   6.35256873
_cell_length_c   8.04869237
_cell_angle_alpha   53.82260601
_cell_angle_beta   90.00000000
_cell_angle_gamma   90.00000000
_symmetry_Int_Tables_number   1
_chemical_formula_structural   SmPO4
_chemical_formula_sum   'Sm4 P4 O16'
_cell_volume   284.39033010
_cell_formula_units_Z   4
loop_
 _symmetry_equiv_pos_site_id
 _symmetry_equiv_pos_as_xyz
  1  'x, y, z'
loop_
 _atom_site_type_symbol
 _atom_site_label
 _atom_site_symmetry_multiplicity
 _atom_site_fract_x
 _atom_site_fract_y
 _atom_site_fract_z
 _atom_site_occupancy
  Sm  Sm0  1  0.65553151  0.18412794  0.21810179  1
  Sm  Sm1  1  0.15553151  0.81587206  0.28189821  1
  Sm  Sm2  1  0.34446849  0.81587206  0.78189821  1
  Sm  Sm3  1  0.84446849  0.18412794  0.71810179  1
  P  P0  1  0.66134327  0.68948304  0.19751307  1
  P  P1  1  0.16134327  0.31051696  0.30248693  1
  P  P2  1  0.33865673  0.31051696  0.80248693  1
  P  P3  1  0.83865673  0.68948304  0.69751307  1
  O  O0  1  0.71086166  0.41013425  0.37773501  1
  O  O1  1  0.21086166  0.58986575  0.12226499  1
  O  O2  1  0.28913834  0.58986575  0.62226499  1
  O  O3  1  0.78913834  0.41013425  0.87773501  1
  O  O4  1  0.60256184  0.66109563  0.02756884  1
  O  O5  1  0.10256184  0.33890437  0.47243116  1
  O  O6  1  0.39743816  0.33890437  0.97243116  1
  O  O7  1  0.89743816  0.66109563  0.52756884  1
  O  O8  1  0.99670672  0.81169075  0.74987064  1
  O  O9  1  0.49670672  0.18830925  0.75012936  1
  O  O10  1  0.00329328  0.18830925  0.25012936  1
  O  O11  1  0.50329328  0.81169075  0.24987064  1
  O  O12  1  0.66582175  0.88134281  0.61745850  1
  O  O13  1  0.16582175  0.11865719  0.88254150  1
  O  O14  1  0.33417825  0.11865719  0.38254150  1
  O  O15  1  0.83417825  0.88134281  0.11745850  1
loop_
_geom_bond_atom_site_label_1
_geom_bond_atom_site_label_2
_geom_bond_distance
_geom_bond_site_symmetry_2
O0 P0 1.526672 1_555
O0 Sm3 2.402162 1_555
O0 Sm0 2.456672 1_555
O1 P1 1.526672 1_555
O1 Sm2 2.402162 1_554
O1 Sm1 2.456672 1_555
O2 P2 1.526672 1_555
O2 Sm1 2.402162 1_555
O2 Sm2 2.456672 1_555
O3 P3 1.526672 1_555
O3 Sm0 2.402162 1_556
O3 Sm3 2.456672 1_555
O4 P0 1.535820 1_555
O4 Sm2 2.396702 1_554
O4 Sm0 2.485971 1_555
O5 P1 1.535820 1_555
O5 Sm3 2.396702 1_455
O5 Sm1 2.485971 1_555
O6 P2 1.535820 1_555
O6 Sm0 2.396702 1_556
O6 Sm2 2.485971 1_555
O7 P3 1.535820 1_555
O7 Sm1 2.396702 1_655
O7 Sm3 2.485971 1_555
O8 P3 1.533815 1_555
O8 Sm2 2.411966 1_655
O8 Sm3 2.459527 1_565
O9 P2 1.533815 1_555
O9 Sm3 2.411966 1_555
O9 Sm2 2.459527 1_545
O10 P1 1.533815 1_555
O10 Sm0 2.411966 1_455
O10 Sm1 2.459527 1_545
O11 P0 1.533815 1_555
O11 Sm1 2.411966 1_555
O11 Sm0 2.459527 1_565
O12 P3 1.546573 1_555
O12 Sm2 2.485590 1_555
O12 Sm0 2.595661 1_565
O12 Sm3 2.776814 1_565
O13 P2 1.546573 1_555
O13 Sm3 2.485590 1_455
O13 Sm1 2.595661 1_546
O13 Sm2 2.776814 1_545
O14 P1 1.546573 1_555
O14 Sm0 2.485590 1_555
O14 Sm2 2.595661 1_545
O14 Sm1 2.776814 1_545
O15 P0 1.546573 1_555
O15 Sm1 2.485590 1_655
O15 Sm3 2.595661 1_564
O15 Sm0 2.776814 1_565
