# generated using pymatgen
data_Ca6Al4Ga5Si
_symmetry_space_group_name_H-M   'P 1'
_cell_length_a   5.85669169
_cell_length_b   5.85669151
_cell_length_c   14.73407706
_cell_angle_alpha   90.00000000
_cell_angle_beta   90.00000000
_cell_angle_gamma   134.72885398
_symmetry_Int_Tables_number   1
_chemical_formula_structural   Ca6Al4Ga5Si
_chemical_formula_sum   'Ca6 Al4 Ga5 Si1'
_cell_volume   359.05270795
_cell_formula_units_Z   1
loop_
 _symmetry_equiv_pos_site_id
 _symmetry_equiv_pos_as_xyz
  1  'x, y, z'
loop_
 _atom_site_type_symbol
 _atom_site_label
 _atom_site_symmetry_multiplicity
 _atom_site_fract_x
 _atom_site_fract_y
 _atom_site_fract_z
 _atom_site_occupancy
  Ca  Ca0  1  0.86952342  0.13047658  0.75000000  1
  Ca  Ca1  1  0.13001596  0.86998404  0.25000000  1
  Ca  Ca2  1  0.41403893  0.58596107  0.11150968  1
  Ca  Ca3  1  0.58818147  0.41181853  0.88666571  1
  Ca  Ca4  1  0.58818147  0.41181853  0.61333429  1
  Ca  Ca5  1  0.41403893  0.58596107  0.38849032  1
  Al  Al0  1  0.71082322  0.28917678  0.40651668  1
  Al  Al1  1  0.28777734  0.71222266  0.59653599  1
  Al  Al2  1  0.28777734  0.71222266  0.90346401  1
  Al  Al3  1  0.71082322  0.28917678  0.09348332  1
  Ga  Ga0  1  0.82987261  0.17012739  0.25000000  1
  Ga  Ga1  1  0.88734578  0.11265422  0.53859597  1
  Ga  Ga2  1  0.11057968  0.88942032  0.46650038  1
  Ga  Ga3  1  0.11057968  0.88942032  0.03349962  1
  Ga  Ga4  1  0.88734578  0.11265422  0.96140403  1
  Si  Si0  1  0.17309519  0.82690481  0.75000000  1
loop_
_geom_bond_atom_site_label_1
_geom_bond_atom_site_label_2
_geom_bond_distance
_geom_bond_site_symmetry_2
Ca0 Si0 3.096850 1_655
Ca0 Si0 3.096850 1_545
Ca0 Ga4 3.120797 1_555
Ca0 Ga1 3.120797 1_555
Ca0 Si0 3.281950 1_645
Ca1 Ga0 3.122383 1_455
Ca1 Ga0 3.122384 1_565
Ca1 Ga3 3.196847 1_555
Ca1 Ga2 3.196847 1_555
Ca1 Ga0 3.244885 1_465
Ca2 Ga4 3.171045 1_564
Ca2 Ga4 3.171045 1_454
Ca2 Ga0 3.173719 1_565
Ca2 Ga0 3.173719 1_455
Ca2 Ga3 3.304056 1_545
Ca2 Ga3 3.304056 1_655
Ca2 Ga3 3.476255 1_555
Ca3 Ga3 3.133683 1_546
Ca3 Ga3 3.133683 1_656
Ca3 Si0 3.158840 1_545
Ca3 Si0 3.158840 1_655
Ca3 Ga4 3.317796 1_565
Ca3 Ga4 3.317796 1_455
Ca3 Ga4 3.416627 1_555
Ca4 Ga2 3.133683 1_545
Ca4 Ga2 3.133683 1_655
Ca4 Si0 3.158840 1_545
Ca4 Si0 3.158840 1_655
Ca4 Ga1 3.317796 1_565
Ca4 Ga1 3.317796 1_455
Ca4 Ga1 3.416627 1_555
Ca5 Ga1 3.171045 1_565
Ca5 Ga1 3.171045 1_455
Ca5 Ga0 3.173719 1_565
Ca5 Ga0 3.173719 1_455
Ca5 Ga2 3.304056 1_545
Ca5 Ga2 3.304056 1_655
Ca5 Ga2 3.476255 1_555
Al0 Ga0 2.640974 1_555
Al0 Ga2 2.652618 1_655
Al0 Ga2 2.652618 1_545
Al0 Ga1 2.725654 1_555
Al0 Ca5 3.158809 1_545
Al0 Ca5 3.158809 1_655
Al0 Ca5 3.219544 1_555
Al0 Ca4 3.323226 1_555
Al0 Ca1 3.340988 1_655
Al0 Ca1 3.340988 1_545
Al1 Si0 2.578761 1_555
Al1 Ga1 2.639753 1_455
Al1 Ga1 2.639753 1_565
Al1 Ga2 2.709392 1_555
Al1 Ca4 3.130234 1_565
Al1 Ca4 3.130234 1_455
Al1 Ca4 3.257122 1_555
Al1 Ca0 3.312795 1_455
Al1 Ca0 3.312795 1_565
Al1 Ca5 3.355554 1_555
Al2 Si0 2.578761 1_555
Al2 Ga4 2.639753 1_455
Al2 Ga4 2.639753 1_565
Al2 Ga3 2.709392 1_556
Al2 Ca3 3.130234 1_565
Al2 Ca3 3.130234 1_455
Al2 Ca3 3.257122 1_555
Al2 Ca0 3.312795 1_455
Al2 Ca0 3.312795 1_565
Al2 Ca2 3.355554 1_556
Al3 Ga0 2.640974 1_555
Al3 Ga3 2.652618 1_655
Al3 Ga3 2.652618 1_545
Al3 Ga4 2.725654 1_554
Al3 Ca2 3.158809 1_545
Al3 Ca2 3.158809 1_655
Al3 Ca2 3.219544 1_555
Al3 Ca3 3.323226 1_554
Al3 Ca1 3.340988 1_655
Al3 Ca1 3.340988 1_545
Ga1 Ga2 2.636843 1_645
Ga3 Ga4 2.636843 1_464
