# generated using pymatgen
data_Sr(LaSe2)2
_symmetry_space_group_name_H-M   'P 1'
_cell_length_a   7.93847537
_cell_length_b   7.93847522
_cell_length_c   7.93847549
_cell_angle_alpha   109.29875271
_cell_angle_beta   109.81671560
_cell_angle_gamma   109.29875146
_symmetry_Int_Tables_number   1
_chemical_formula_structural   Sr(LaSe2)2
_chemical_formula_sum   'Sr2 La4 Se8'
_cell_volume   385.10356294
_cell_formula_units_Z   2
loop_
 _symmetry_equiv_pos_site_id
 _symmetry_equiv_pos_as_xyz
  1  'x, y, z'
loop_
 _atom_site_type_symbol
 _atom_site_label
 _atom_site_symmetry_multiplicity
 _atom_site_fract_x
 _atom_site_fract_y
 _atom_site_fract_z
 _atom_site_occupancy
  Sr  Sr0  1  0.12500000  0.75000000  0.87500000  1
  Sr  Sr1  1  0.37500000  0.25000000  0.62500000  1
  La  La0  1  0.25000000  0.62861789  0.37861789  1
  La  La1  1  0.75000000  0.87138211  0.12138211  1
  La  La2  1  0.62138211  0.37138211  0.25000000  1
  La  La3  1  0.87861789  0.12861789  0.75000000  1
  Se  Se0  1  0.50661702  0.99919321  0.35644120  1
  Se  Se1  1  0.14275301  0.15017783  0.14355880  1
  Se  Se2  1  0.35724699  0.50080679  0.00742482  1
  Se  Se3  1  0.50742482  0.00080679  0.85724699  1
  Se  Se4  1  0.64355880  0.65017783  0.64275301  1
  Se  Se5  1  0.99257518  0.84982217  0.49338298  1
  Se  Se6  1  0.85644120  0.49919321  0.00661702  1
  Se  Se7  1  0.99338298  0.34982217  0.49257518  1
loop_
_geom_bond_atom_site_label_1
_geom_bond_atom_site_label_2
_geom_bond_distance
_geom_bond_site_symmetry_2
La0 Se4 3.025648 1_555
La0 Se6 3.025653 1_455
La0 Se0 3.075620 1_555
La0 Se7 3.075623 1_455
La0 Se3 3.265981 1_565
La0 Se5 3.265984 1_455
La0 Se2 3.276149 1_555
La0 Se1 3.276149 1_555
La1 Se3 3.025654 1_564
La1 Se5 3.025660 1_555
La1 Se2 3.075627 1_555
La1 Se1 3.075632 1_665
La1 Se4 3.265979 1_554
La1 Se6 3.265987 1_555
La1 Se7 3.276148 1_565
La1 Se0 3.276161 1_555
La2 Se2 3.025654 1_555
La2 Se7 3.025660 1_555
La2 Se3 3.075627 1_554
La2 Se4 3.075632 1_555
La2 Se1 3.265979 1_555
La2 Se0 3.265987 1_545
La2 Se5 3.276148 1_555
La2 Se6 3.276161 1_555
La3 Se1 3.025648 1_656
La3 Se0 3.025653 1_545
La3 Se6 3.075620 1_556
La3 Se5 3.075623 1_545
La3 Se2 3.265981 1_656
La3 Se7 3.265984 1_555
La3 Se3 3.276149 1_555
La3 Se4 3.276149 1_545
Se0 Sr1 3.111384 1_565
Se0 Sr0 3.299829 1_554
Se1 Sr0 3.111392 1_544
Se1 Sr1 3.299834 1_555
Se2 Sr1 3.111395 1_554
Se2 Sr0 3.299827 1_554
Se3 Sr0 3.111395 1_545
Se3 Sr1 3.299827 1_555
Se4 Sr1 3.111392 1_555
Se4 Sr0 3.299834 1_655
Se5 Sr1 3.111397 1_665
Se5 Sr0 3.299820 1_655
Se6 Sr0 3.111384 1_654
Se6 Sr1 3.299829 1_554
Se7 Sr0 3.111397 1_655
Se7 Sr1 3.299820 1_655
