# generated using pymatgen
data_Lu6Zn23Se
_symmetry_space_group_name_H-M   'P 1'
_cell_length_a   8.83765244
_cell_length_b   8.83765237
_cell_length_c   8.83765224
_cell_angle_alpha   59.99999696
_cell_angle_beta   59.99999721
_cell_angle_gamma   59.99999789
_symmetry_Int_Tables_number   1
_chemical_formula_structural   Lu6Zn23Se
_chemical_formula_sum   'Lu6 Zn23 Se1'
_cell_volume   488.08528711
_cell_formula_units_Z   1
loop_
 _symmetry_equiv_pos_site_id
 _symmetry_equiv_pos_as_xyz
  1  'x, y, z'
loop_
 _atom_site_type_symbol
 _atom_site_label
 _atom_site_symmetry_multiplicity
 _atom_site_fract_x
 _atom_site_fract_y
 _atom_site_fract_z
 _atom_site_occupancy
  Lu  Lu0  1  0.71699457  0.28300543  0.28300543  1
  Lu  Lu1  1  0.71699457  0.28300543  0.71699457  1
  Lu  Lu2  1  0.71699457  0.71699457  0.28300543  1
  Lu  Lu3  1  0.28300543  0.71699457  0.71699457  1
  Lu  Lu4  1  0.28300543  0.71699457  0.28300543  1
  Lu  Lu5  1  0.28300543  0.28300543  0.71699457  1
  Zn  Zn0  1  0.62605074  0.12464975  0.12464975  1
  Zn  Zn1  1  0.12464975  0.62605074  0.12464975  1
  Zn  Zn2  1  0.12464975  0.12464975  0.62605074  1
  Zn  Zn3  1  0.12464975  0.12464975  0.12464975  1
  Zn  Zn4  1  0.37394926  0.87535025  0.87535025  1
  Zn  Zn5  1  0.87535025  0.37394926  0.87535025  1
  Zn  Zn6  1  0.87535025  0.87535025  0.37394926  1
  Zn  Zn7  1  0.87535025  0.87535025  0.87535025  1
  Zn  Zn8  1  0.50000000  0.00000000  0.00000000  1
  Zn  Zn9  1  0.50000000  0.00000000  0.50000000  1
  Zn  Zn10  1  0.50000000  0.50000000  0.00000000  1
  Zn  Zn11  1  0.00000000  0.50000000  0.50000000  1
  Zn  Zn12  1  0.00000000  0.50000000  0.00000000  1
  Zn  Zn13  1  0.00000000  0.00000000  0.50000000  1
  Zn  Zn14  1  0.00000000  0.00000000  0.00000000  1
  Zn  Zn15  1  0.01248186  0.32917305  0.32917305  1
  Zn  Zn16  1  0.32917305  0.01248186  0.32917305  1
  Zn  Zn17  1  0.32917305  0.32917305  0.01248186  1
  Zn  Zn18  1  0.32917305  0.32917305  0.32917305  1
  Zn  Zn19  1  0.98751814  0.67082695  0.67082695  1
  Zn  Zn20  1  0.67082695  0.98751814  0.67082695  1
  Zn  Zn21  1  0.67082695  0.67082695  0.98751814  1
  Zn  Zn22  1  0.67082695  0.67082695  0.67082695  1
  Se  Se0  1  0.50000000  0.50000000  0.50000000  1
loop_
_geom_bond_atom_site_label_1
_geom_bond_atom_site_label_2
_geom_bond_distance
_geom_bond_site_symmetry_2
Lu0 Se0 2.712069 1_555
Lu0 Zn5 2.961646 1_554
Lu0 Zn6 2.961646 1_545
Lu0 Zn3 2.961646 1_655
Lu0 Zn0 2.961646 1_555
Lu0 Zn18 3.074059 1_555
Lu0 Zn20 3.074062 1_545
Lu0 Zn21 3.074062 1_554
Lu0 Zn15 3.074068 1_655
Lu0 Zn12 3.151695 1_655
Lu0 Zn13 3.151695 1_655
Lu0 Zn10 3.151695 1_555
Lu0 Zn9 3.151695 1_555
Lu1 Se0 2.712069 1_555
Lu1 Zn0 2.961646 1_556
Lu1 Zn7 2.961646 1_545
Lu1 Zn2 2.961646 1_655
Lu1 Zn5 2.961646 1_555
Lu1 Zn22 3.074059 1_555
Lu1 Zn15 3.074062 1_655
Lu1 Zn17 3.074062 1_556
Lu1 Zn20 3.074068 1_545
Lu1 Zn8 3.151695 1_556
Lu1 Zn13 3.151695 1_655
Lu1 Zn10 3.151695 1_556
Lu1 Zn11 3.151695 1_655
Lu2 Se0 2.712069 1_555
Lu2 Zn7 2.961646 1_554
Lu2 Zn0 2.961646 1_565
Lu2 Zn1 2.961646 1_655
Lu2 Zn6 2.961646 1_555
Lu2 Zn22 3.074059 1_555
Lu2 Zn15 3.074062 1_655
Lu2 Zn16 3.074062 1_565
Lu2 Zn21 3.074067 1_554
Lu2 Zn8 3.151695 1_565
Lu2 Zn12 3.151695 1_655
Lu2 Zn9 3.151695 1_565
Lu2 Zn11 3.151695 1_655
Lu3 Se0 2.712069 1_555
Lu3 Zn1 2.961646 1_556
Lu3 Zn2 2.961646 1_565
Lu3 Zn7 2.961646 1_455
Lu3 Zn4 2.961646 1_555
Lu3 Zn22 3.074059 1_555
Lu3 Zn16 3.074062 1_565
Lu3 Zn17 3.074062 1_556
Lu3 Zn19 3.074068 1_455
Lu3 Zn12 3.151695 1_556
Lu3 Zn13 3.151695 1_565
Lu3 Zn10 3.151695 1_556
Lu3 Zn9 3.151695 1_565
Lu4 Se0 2.712069 1_555
Lu4 Zn4 2.961646 1_554
Lu4 Zn3 2.961646 1_565
Lu4 Zn6 2.961646 1_455
Lu4 Zn1 2.961646 1_555
Lu4 Zn18 3.074059 1_555
Lu4 Zn19 3.074062 1_455
Lu4 Zn21 3.074062 1_554
Lu4 Zn16 3.074068 1_565
Lu4 Zn8 3.151695 1_565
Lu4 Zn13 3.151695 1_565
Lu4 Zn10 3.151695 1_555
Lu4 Zn11 3.151695 1_555
Lu5 Se0 2.712069 1_555
Lu5 Zn3 2.961646 1_556
Lu5 Zn4 2.961646 1_545
Lu5 Zn5 2.961646 1_455
Lu5 Zn2 2.961646 1_555
Lu5 Zn18 3.074059 1_555
Lu5 Zn19 3.074062 1_455
Lu5 Zn20 3.074062 1_545
Lu5 Zn17 3.074067 1_556
Lu5 Zn8 3.151695 1_556
Lu5 Zn12 3.151695 1_556
Lu5 Zn9 3.151695 1_555
Lu5 Zn11 3.151695 1_555
Zn0 Zn16 2.683338 1_555
Zn0 Zn17 2.683338 1_555
Zn0 Zn18 2.683343 1_555
Zn0 Zn14 2.698385 1_655
Zn0 Zn9 2.708504 1_555
Zn0 Zn10 2.708504 1_555
Zn0 Zn8 2.708504 1_555
Zn1 Zn15 2.683338 1_555
Zn1 Zn17 2.683338 1_555
Zn1 Zn18 2.683343 1_555
Zn1 Zn14 2.698385 1_565
Zn1 Zn11 2.708504 1_555
Zn1 Zn10 2.708504 1_555
Zn1 Zn12 2.708504 1_555
Zn2 Zn9 2.708504 1_555
Zn3 Zn8 2.708504 1_555
Zn4 Zn9 2.708504 1_565
Zn4 Zn8 2.708504 1_566
Zn6 Zn9 2.708504 1_565
Zn7 Zn8 2.708504 1_566
Zn10 Zn21 2.552795 1_554
Zn10 Zn17 2.552795 1_555
Zn10 Zn22 2.552799 1_554
Zn10 Zn18 2.552799 1_555
Zn10 Zn4 2.708504 1_554
Zn10 Zn5 2.708504 1_554
Zn11 Zn19 2.552795 1_455
Zn11 Zn15 2.552795 1_555
Zn11 Zn22 2.552800 1_455
Zn11 Zn18 2.552800 1_555
Zn11 Zn5 2.708504 1_455
Zn11 Zn2 2.708504 1_555
Zn11 Zn6 2.708504 1_455
Zn12 Zn15 2.552802 1_555
Zn12 Zn19 2.552802 1_454
Zn12 Zn17 2.552802 1_555
Zn12 Zn21 2.552802 1_454
Zn12 Zn7 2.708504 1_454
Zn12 Zn3 2.708504 1_555
Zn12 Zn5 2.708504 1_454
Zn13 Zn15 2.552802 1_555
Zn13 Zn19 2.552802 1_445
Zn13 Zn16 2.552802 1_555
Zn13 Zn20 2.552802 1_445
Zn13 Zn3 2.708504 1_555
Zn13 Zn7 2.708504 1_445
Zn13 Zn6 2.708504 1_445
Zn13 Zn2 2.708504 1_555
Zn14 Zn2 2.698385 1_554
Zn14 Zn6 2.698385 1_445
Zn14 Zn5 2.698385 1_454
Zn14 Zn4 2.698385 1_544
Zn14 Zn3 2.698385 1_555
Zn14 Zn7 2.698385 1_444
Zn15 Zn2 2.683338 1_555
Zn15 Zn3 2.683346 1_555
Zn15 Zn17 2.798807 1_555
Zn15 Zn16 2.798807 1_555
Zn15 Zn18 2.798807 1_555
Zn16 Zn9 2.552795 1_555
Zn16 Zn8 2.552802 1_555
Zn16 Zn2 2.683338 1_555
Zn16 Zn3 2.683346 1_555
Zn16 Zn17 2.798806 1_555
Zn16 Zn18 2.798807 1_555
Zn17 Zn8 2.552802 1_555
Zn17 Zn3 2.683346 1_555
Zn17 Zn18 2.798807 1_555
Zn18 Zn9 2.552800 1_555
Zn18 Zn2 2.683343 1_555
Zn19 Zn6 2.683338 1_555
Zn19 Zn5 2.683338 1_555
Zn19 Zn7 2.683346 1_555
Zn19 Zn21 2.798807 1_555
Zn19 Zn20 2.798807 1_555
Zn19 Zn22 2.798807 1_555
Zn20 Zn9 2.552795 1_565
Zn20 Zn8 2.552802 1_566
Zn20 Zn6 2.683338 1_555
Zn20 Zn4 2.683338 1_555
Zn20 Zn7 2.683346 1_555
Zn20 Zn21 2.798806 1_555
Zn20 Zn22 2.798807 1_555
Zn21 Zn8 2.552802 1_566
Zn21 Zn5 2.683338 1_555
Zn21 Zn4 2.683338 1_555
Zn21 Zn7 2.683346 1_555
Zn21 Zn22 2.798807 1_555
Zn22 Zn9 2.552800 1_565
Zn22 Zn6 2.683343 1_555
Zn22 Zn5 2.683343 1_555
Zn22 Zn4 2.683343 1_555
