# generated using pymatgen
data_Be9V2W
_symmetry_space_group_name_H-M   'P 1'
_cell_length_a   7.20737578
_cell_length_b   7.20737549
_cell_length_c   7.20737524
_cell_angle_alpha   35.04367347
_cell_angle_beta   35.04367388
_cell_angle_gamma   35.04366552
_symmetry_Int_Tables_number   1
_chemical_formula_structural   Be9V2W
_chemical_formula_sum   'Be9 V2 W1'
_cell_volume   110.22614673
_cell_formula_units_Z   1
loop_
 _symmetry_equiv_pos_site_id
 _symmetry_equiv_pos_as_xyz
  1  'x, y, z'
loop_
 _atom_site_type_symbol
 _atom_site_label
 _atom_site_symmetry_multiplicity
 _atom_site_fract_x
 _atom_site_fract_y
 _atom_site_fract_z
 _atom_site_occupancy
  Be  Be0  1  0.41502343  0.92246785  0.41502343  1
  Be  Be1  1  0.41502343  0.41502343  0.92246785  1
  Be  Be2  1  0.92246785  0.41502343  0.41502343  1
  Be  Be3  1  0.58497657  0.07753215  0.58497657  1
  Be  Be4  1  0.58497657  0.58497657  0.07753215  1
  Be  Be5  1  0.07753215  0.58497657  0.58497657  1
  Be  Be6  1  0.66578647  0.66578647  0.66578647  1
  Be  Be7  1  0.33421353  0.33421353  0.33421353  1
  Be  Be8  1  0.50000000  0.50000000  0.50000000  1
  V  V0  1  0.85773986  0.85773986  0.85773986  1
  V  V1  1  0.14226014  0.14226014  0.14226014  1
  W  W0  1  0.00000000  0.00000000  0.00000000  1
loop_
_geom_bond_atom_site_label_1
_geom_bond_atom_site_label_2
_geom_bond_distance
_geom_bond_site_symmetry_2
Be0 Be6 2.086710 1_555
Be0 Be7 2.092908 1_565
Be0 Be8 2.128044 1_555
Be0 Be2 2.137611 1_465
Be0 Be1 2.137612 1_564
Be0 Be2 2.202226 1_555
Be0 Be1 2.202227 1_555
Be0 V0 2.485353 1_554
Be0 V0 2.485354 1_455
Be0 V1 2.523619 1_565
Be0 W0 2.739713 1_566
Be0 W0 2.739713 1_665
Be1 Be6 2.086711 1_555
Be1 Be7 2.092908 1_556
Be1 Be8 2.128044 1_555
Be1 Be2 2.137612 1_456
Be1 Be2 2.202227 1_555
Be1 V0 2.485353 1_545
Be1 V0 2.485353 1_455
Be1 V1 2.523619 1_556
Be1 W0 2.739713 1_566
Be1 W0 2.739713 1_656
Be2 Be6 2.086710 1_555
Be2 Be7 2.092908 1_655
Be2 Be8 2.128044 1_555
Be2 V0 2.485353 1_554
Be2 V0 2.485353 1_545
Be2 V1 2.523619 1_655
Be2 W0 2.739713 1_656
Be2 W0 2.739713 1_665
Be3 Be7 2.086710 1_555
Be3 Be6 2.092908 1_545
Be3 Be8 2.128044 1_555
Be3 Be5 2.137611 1_645
Be3 Be4 2.137612 1_546
Be3 Be5 2.202226 1_555
Be3 Be4 2.202227 1_555
Be3 V1 2.485353 1_556
Be3 V1 2.485354 1_655
Be3 V0 2.523619 1_545
Be3 W0 2.739713 1_655
Be3 W0 2.739713 1_556
Be4 Be7 2.086711 1_555
Be4 Be6 2.092908 1_554
Be4 Be8 2.128044 1_555
Be4 Be5 2.137612 1_654
Be4 Be5 2.202227 1_555
Be4 V1 2.485353 1_565
Be4 V1 2.485353 1_655
Be4 V0 2.523619 1_554
Be4 W0 2.739713 1_655
Be4 W0 2.739713 1_565
Be5 Be7 2.086710 1_555
Be5 Be6 2.092908 1_455
Be5 Be8 2.128044 1_555
Be5 V1 2.485353 1_556
Be5 V1 2.485353 1_565
Be5 V0 2.523619 1_455
Be5 W0 2.739713 1_565
Be5 W0 2.739713 1_556
Be6 W0 2.505670 1_656
Be6 W0 2.505670 1_566
Be6 W0 2.505671 1_665
Be6 Be7 2.505861 1_565
Be6 Be7 2.505861 1_655
Be6 Be7 2.505861 1_556
Be7 W0 2.505670 1_565
Be7 W0 2.505670 1_655
Be7 W0 2.505671 1_556
Be8 V0 2.553996 1_545
Be8 V1 2.553996 1_565
Be8 V0 2.553996 1_455
Be8 V1 2.553996 1_655
Be8 V0 2.553997 1_554
Be8 V1 2.553997 1_556
V0 V1 2.693955 1_656
V0 V1 2.693955 1_566
V0 V1 2.693955 1_665
V0 W0 2.884107 1_666
V1 W0 2.884107 1_555
