# generated using pymatgen
data_NaHf2CdF11
_symmetry_space_group_name_H-M   'P 1'
_cell_length_a   5.77850505
_cell_length_b   5.77850612
_cell_length_c   7.79267307
_cell_angle_alpha   69.95407244
_cell_angle_beta   69.95406965
_cell_angle_gamma   73.58344726
_symmetry_Int_Tables_number   1
_chemical_formula_structural   NaHf2CdF11
_chemical_formula_sum   'Na1 Hf2 Cd1 F11'
_cell_volume   225.57806581
_cell_formula_units_Z   1
loop_
 _symmetry_equiv_pos_site_id
 _symmetry_equiv_pos_as_xyz
  1  'x, y, z'
loop_
 _atom_site_type_symbol
 _atom_site_label
 _atom_site_symmetry_multiplicity
 _atom_site_fract_x
 _atom_site_fract_y
 _atom_site_fract_z
 _atom_site_occupancy
  Na  Na0  1  0.00000000  0.00000000  0.00000000  1
  Hf  Hf0  1  0.50303384  0.50303384  0.22864471  1
  Hf  Hf1  1  0.49696616  0.49696616  0.77135529  1
  Cd  Cd0  1  0.00000000  0.00000000  0.50000000  1
  F  F0  1  0.20927217  0.77674766  0.29590443  1
  F  F1  1  0.22325234  0.79072783  0.70409557  1
  F  F2  1  0.79072783  0.22325234  0.70409557  1
  F  F3  1  0.77674766  0.20927217  0.29590443  1
  F  F4  1  0.50000000  0.50000000  0.50000000  1
  F  F5  1  0.66447075  0.33552925  0.00000000  1
  F  F6  1  0.33552925  0.66447075  1.00000000  1
  F  F7  1  0.73478570  0.73478570  0.65460813  1
  F  F8  1  0.26521430  0.26521430  0.34539187  1
  F  F9  1  0.73579163  0.73579163  0.11107753  1
  F  F10  1  0.26420837  0.26420837  0.88892247  1
loop_
_geom_bond_atom_site_label_1
_geom_bond_atom_site_label_2
_geom_bond_distance
_geom_bond_site_symmetry_2
Cd0 F3 2.205094 1_455
Cd0 F1 2.205094 1_545
Cd0 F2 2.205094 1_455
Cd0 F0 2.205094 1_545
Cd0 F8 2.223710 1_555
Cd0 F7 2.223710 1_445
F0 Hf0 2.024514 1_555
F0 Na0 2.726580 1_565
F1 Hf1 2.024514 1_555
F1 Na0 2.726580 1_566
F2 Hf1 2.024514 1_555
F2 Na0 2.726580 1_656
F3 Hf0 2.024514 1_555
F3 Na0 2.726580 1_655
F4 Hf1 2.102718 1_555
F4 Hf0 2.102718 1_555
F5 Hf1 2.124668 1_554
F5 Hf0 2.124668 1_555
F5 Na0 2.322394 1_655
F6 Hf0 2.124668 1_556
F6 Hf1 2.124668 1_555
F6 Na0 2.322394 1_566
F7 Hf1 1.989481 1_555
F8 Hf0 1.989481 1_555
F9 Hf0 1.946888 1_555
F9 Na0 2.217349 1_665
F10 Hf1 1.946888 1_555
F10 Na0 2.217349 1_556
