# generated using pymatgen
data_SnRh
_symmetry_space_group_name_H-M   'P 1'
_cell_length_a   5.16072755
_cell_length_b   5.16072755
_cell_length_c   5.16072755
_cell_angle_alpha   90.00000000
_cell_angle_beta   90.00000000
_cell_angle_gamma   90.00000000
_symmetry_Int_Tables_number   1
_chemical_formula_structural   SnRh
_chemical_formula_sum   'Sn4 Rh4'
_cell_volume   137.44621856
_cell_formula_units_Z   4
loop_
 _symmetry_equiv_pos_site_id
 _symmetry_equiv_pos_as_xyz
  1  'x, y, z'
loop_
 _atom_site_type_symbol
 _atom_site_label
 _atom_site_symmetry_multiplicity
 _atom_site_fract_x
 _atom_site_fract_y
 _atom_site_fract_z
 _atom_site_occupancy
  Sn  Sn0  1  0.84010151  0.84010151  0.84010151  1
  Sn  Sn1  1  0.65989849  0.15989849  0.34010151  1
  Sn  Sn2  1  0.34010151  0.65989849  0.15989849  1
  Sn  Sn3  1  0.15989849  0.34010151  0.65989849  1
  Rh  Rh0  1  0.14514129  0.14514129  0.14514129  1
  Rh  Rh1  1  0.35485771  0.85485871  0.64514129  1
  Rh  Rh2  1  0.64514129  0.35485771  0.85485871  1
  Rh  Rh3  1  0.85485871  0.64514129  0.35485771  1
loop_
_geom_bond_atom_site_label_1
_geom_bond_atom_site_label_2
_geom_bond_distance
_geom_bond_site_symmetry_2
Rh0 Sn1 2.699844 1_455
Rh0 Sn2 2.699844 1_545
Rh0 Sn3 2.699844 1_554
Rh0 Sn0 2.726641 1_444
Rh0 Sn1 2.841693 1_555
Rh0 Sn2 2.841693 1_555
Rh0 Sn3 2.841693 1_555
Rh1 Sn3 2.699842 1_565
Rh1 Sn2 2.699844 1_555
Rh1 Sn0 2.699849 1_555
Rh1 Sn1 2.726644 1_565
Rh1 Sn0 2.841688 1_455
Rh1 Sn3 2.841691 1_555
Rh1 Sn2 2.841693 1_556
Rh2 Sn1 2.699842 1_556
Rh2 Sn3 2.699844 1_555
Rh2 Sn0 2.699849 1_555
Rh2 Sn2 2.726644 1_556
Rh2 Sn0 2.841688 1_545
Rh2 Sn1 2.841691 1_555
Rh2 Sn3 2.841693 1_655
Rh3 Sn2 2.699842 1_655
Rh3 Sn1 2.699844 1_555
Rh3 Sn0 2.699849 1_555
Rh3 Sn3 2.726644 1_655
Rh3 Sn0 2.841688 1_554
Rh3 Sn2 2.841691 1_555
Rh3 Sn1 2.841693 1_565
