# generated using pymatgen
data_Rb8SnPbI12
_symmetry_space_group_name_H-M   'P 1'
_cell_length_a   10.14612580
_cell_length_b   10.14612577
_cell_length_c   10.14612667
_cell_angle_alpha   89.72253436
_cell_angle_beta   89.72253547
_cell_angle_gamma   89.72253771
_symmetry_Int_Tables_number   1
_chemical_formula_structural   Rb8SnPbI12
_chemical_formula_sum   'Rb8 Sn1 Pb1 I12'
_cell_volume   1044.44490502
_cell_formula_units_Z   1
loop_
 _symmetry_equiv_pos_site_id
 _symmetry_equiv_pos_as_xyz
  1  'x, y, z'
loop_
 _atom_site_type_symbol
 _atom_site_label
 _atom_site_symmetry_multiplicity
 _atom_site_fract_x
 _atom_site_fract_y
 _atom_site_fract_z
 _atom_site_occupancy
  Rb  Rb0  1  0.24969354  0.24969354  0.24969354  1
  Rb  Rb1  1  0.75030646  0.75030646  0.75030646  1
  Rb  Rb2  1  0.86746271  0.63274093  0.24948018  1
  Rb  Rb3  1  0.63274093  0.24948018  0.86746271  1
  Rb  Rb4  1  0.24948018  0.86746271  0.63274093  1
  Rb  Rb5  1  0.13253729  0.36725907  0.75051982  1
  Rb  Rb6  1  0.36725907  0.75051982  0.13253729  1
  Rb  Rb7  1  0.75051982  0.13253729  0.36725907  1
  Sn  Sn0  1  0.00000000  0.00000000  0.00000000  1
  Pb  Pb0  1  0.50000000  0.50000000  0.50000000  1
  I  I0  1  0.19436468  0.55718282  0.42816677  1
  I  I1  1  0.05832430  0.69890222  0.92875815  1
  I  I2  1  0.92875815  0.05832430  0.69890222  1
  I  I3  1  0.80563532  0.44281718  0.57183323  1
  I  I4  1  0.69890222  0.92875815  0.05832430  1
  I  I5  1  0.44281718  0.57183323  0.80563532  1
  I  I6  1  0.57183323  0.80563532  0.44281718  1
  I  I7  1  0.55718282  0.42816677  0.19436468  1
  I  I8  1  0.07124185  0.94167570  0.30109778  1
  I  I9  1  0.94167570  0.30109778  0.07124185  1
  I  I10  1  0.30109778  0.07124185  0.94167570  1
  I  I11  1  0.42816677  0.19436468  0.55718282  1
loop_
_geom_bond_atom_site_label_1
_geom_bond_atom_site_label_2
_geom_bond_distance
_geom_bond_site_symmetry_2
I0 Pb0 3.237972 1_555
I0 Rb0 3.654504 1_555
I0 Rb4 3.824047 1_555
I0 Rb5 3.838575 1_555
I0 Rb2 3.859512 1_455
I0 Rb6 3.980898 1_555
I1 Sn0 3.194571 1_566
I1 Rb1 3.653346 1_455
I1 Rb6 3.803066 1_556
I1 Rb2 3.836685 1_456
I1 Rb5 3.896293 1_555
I1 Rb4 3.953868 1_555
I2 Sn0 3.194571 1_656
I2 Rb1 3.653346 1_545
I2 Rb5 3.803066 1_655
I2 Rb4 3.836685 1_645
I2 Rb7 3.896293 1_555
I2 Rb3 3.953868 1_555
I3 Pb0 3.237972 1_555
I3 Rb1 3.654504 1_555
I3 Rb7 3.824047 1_555
I3 Rb2 3.838575 1_555
I3 Rb5 3.859512 1_655
I3 Rb3 3.980898 1_555
I4 Sn0 3.194571 1_665
I4 Rb1 3.653346 1_554
I4 Rb7 3.803066 1_565
I4 Rb3 3.836685 1_564
I4 Rb6 3.896293 1_555
I4 Rb2 3.953868 1_555
I5 Pb0 3.237973 1_555
I5 Rb1 3.654503 1_555
I5 Rb5 3.824047 1_555
I5 Rb3 3.838574 1_555
I5 Rb6 3.859512 1_556
I5 Rb4 3.980898 1_555
I6 Pb0 3.237972 1_555
I6 Rb1 3.654504 1_555
I6 Rb6 3.824047 1_555
I6 Rb4 3.838574 1_555
I6 Rb7 3.859512 1_565
I6 Rb2 3.980898 1_555
I7 Pb0 3.237973 1_555
I7 Rb0 3.654503 1_555
I7 Rb2 3.824047 1_555
I7 Rb6 3.838574 1_555
I7 Rb3 3.859512 1_554
I7 Rb7 3.980898 1_555
I8 Sn0 3.194571 1_565
I8 Rb0 3.653346 1_565
I8 Rb2 3.803066 1_455
I8 Rb7 3.836685 1_465
I8 Rb4 3.896293 1_555
I8 Rb6 3.953868 1_555
I9 Sn0 3.194571 1_655
I9 Rb0 3.653346 1_655
I9 Rb3 3.803066 1_554
I9 Rb5 3.836685 1_654
I9 Rb2 3.896293 1_555
I9 Rb7 3.953868 1_555
I10 Sn0 3.194571 1_556
I10 Rb0 3.653346 1_556
I10 Rb4 3.803066 1_545
I10 Rb6 3.836685 1_546
I10 Rb3 3.896293 1_555
I10 Rb5 3.953868 1_555
I11 Pb0 3.237972 1_555
I11 Rb0 3.654504 1_555
I11 Rb3 3.824047 1_555
I11 Rb7 3.838574 1_555
I11 Rb4 3.859512 1_545
I11 Rb5 3.980898 1_555
