# generated using pymatgen
data_Zr10BSb6H
_symmetry_space_group_name_H-M   'P 1'
_cell_length_a   8.45532206
_cell_length_b   8.45532128
_cell_length_c   5.80414209
_cell_angle_alpha   90.00000000
_cell_angle_beta   90.00000000
_cell_angle_gamma   120.00000690
_symmetry_Int_Tables_number   1
_chemical_formula_structural   Zr10BSb6H
_chemical_formula_sum   'Zr10 B1 Sb6 H1'
_cell_volume   359.35931424
_cell_formula_units_Z   1
loop_
 _symmetry_equiv_pos_site_id
 _symmetry_equiv_pos_as_xyz
  1  'x, y, z'
loop_
 _atom_site_type_symbol
 _atom_site_label
 _atom_site_symmetry_multiplicity
 _atom_site_fract_x
 _atom_site_fract_y
 _atom_site_fract_z
 _atom_site_occupancy
  Zr  Zr0  1  0.66666700  0.33333300  0.50000000  1
  Zr  Zr1  1  0.33333300  0.66666700  0.50000000  1
  Zr  Zr2  1  0.33333300  0.66666700  0.00000000  1
  Zr  Zr3  1  0.66666700  0.33333300  0.00000000  1
  Zr  Zr4  1  0.76487985  0.76487985  0.24474568  1
  Zr  Zr5  1  0.23512015  0.00000000  0.24474568  1
  Zr  Zr6  1  0.00000000  0.23512015  0.24474568  1
  Zr  Zr7  1  0.23512015  0.23512015  0.75525432  1
  Zr  Zr8  1  0.76487985  1.00000000  0.75525432  1
  Zr  Zr9  1  1.00000000  0.76487985  0.75525432  1
  B  B0  1  0.00000000  0.00000000  0.00000000  1
  Sb  Sb0  1  0.39602745  0.39602745  0.25307896  1
  Sb  Sb1  1  0.60397255  0.00000000  0.25307896  1
  Sb  Sb2  1  0.00000000  0.60397255  0.25307896  1
  Sb  Sb3  1  0.60397255  0.60397255  0.74692104  1
  Sb  Sb4  1  0.39602745  1.00000000  0.74692104  1
  Sb  Sb5  1  1.00000000  0.39602745  0.74692104  1
  H  H0  1  0.00000000  0.00000000  0.50000000  1
loop_
_geom_bond_atom_site_label_1
_geom_bond_atom_site_label_2
_geom_bond_distance
_geom_bond_site_symmetry_2
B0 Zr7 2.443387 1_554
B0 Zr4 2.443387 1_445
B0 Zr6 2.443387 1_555
B0 Zr9 2.443387 1_444
B0 Zr5 2.443387 1_555
B0 Zr8 2.443387 1_444
Sb0 Zr5 2.917244 1_555
Sb0 Zr6 2.917244 1_555
Sb0 Zr1 2.963873 1_555
Sb0 Zr0 2.963873 1_555
Sb0 Zr2 2.981320 1_555
Sb0 Zr3 2.981320 1_555
Sb0 Zr4 3.119140 1_555
Sb0 Zr7 3.193730 1_554
Sb0 Zr7 3.216595 1_555
Sb1 Zr6 2.917244 1_655
Sb1 Zr4 2.917244 1_545
Sb1 Zr0 2.963866 1_555
Sb1 Zr1 2.963868 1_545
Sb1 Zr3 2.981313 1_555
Sb1 Zr2 2.981315 1_545
Sb1 Zr5 3.119141 1_555
Sb1 Zr8 3.193731 1_544
Sb1 Zr8 3.216595 1_545
Sb2 Zr5 2.917244 1_565
Sb2 Zr4 2.917244 1_455
Sb2 Zr1 2.963866 1_555
Sb2 Zr0 2.963868 1_455
Sb2 Zr2 2.981313 1_555
Sb2 Zr3 2.981315 1_455
Sb2 Zr6 3.119141 1_555
Sb2 Zr9 3.193730 1_454
Sb2 Zr9 3.216595 1_455
Sb3 Zr8 2.917244 1_555
Sb3 Zr9 2.917244 1_555
Sb3 Zr0 2.963873 1_555
Sb3 Zr1 2.963873 1_555
Sb3 Zr3 2.981320 1_556
Sb3 Zr2 2.981320 1_556
Sb3 Zr7 3.119140 1_555
Sb3 Zr4 3.193730 1_556
Sb3 Zr4 3.216595 1_555
Sb4 Zr9 2.917244 1_455
Sb4 Zr7 2.917244 1_565
Sb4 Zr1 2.963866 1_555
Sb4 Zr0 2.963868 1_565
Sb4 Zr2 2.981313 1_556
Sb4 Zr3 2.981315 1_566
Sb4 Zr8 3.119141 1_555
Sb4 Zr5 3.193731 1_566
Sb4 Zr5 3.216595 1_565
Sb5 Zr8 2.917244 1_545
Sb5 Zr7 2.917244 1_655
Sb5 Zr0 2.963866 1_555
Sb5 Zr1 2.963868 1_655
Sb5 Zr3 2.981313 1_556
Sb5 Zr2 2.981315 1_656
Sb5 Zr9 3.119141 1_555
Sb5 Zr6 3.193730 1_656
Sb5 Zr6 3.216595 1_655
H0 Zr7 2.479344 1_555
H0 Zr4 2.479344 1_445
H0 Zr6 2.479344 1_555
H0 Zr9 2.479344 1_445
H0 Zr5 2.479344 1_555
H0 Zr8 2.479344 1_445
