# generated using pymatgen
data_Sc10Bi7Sb3
_symmetry_space_group_name_H-M   'P 1'
_cell_length_a   8.21758546
_cell_length_b   8.21758485
_cell_length_c   11.01332744
_cell_angle_alpha   69.46867982
_cell_angle_beta   69.46867955
_cell_angle_gamma   52.93692144
_symmetry_Int_Tables_number   1
_chemical_formula_structural   Sc10Bi7Sb3
_chemical_formula_sum   'Sc10 Bi7 Sb3'
_cell_volume   546.02085331
_cell_formula_units_Z   1
loop_
 _symmetry_equiv_pos_site_id
 _symmetry_equiv_pos_as_xyz
  1  'x, y, z'
loop_
 _atom_site_type_symbol
 _atom_site_label
 _atom_site_symmetry_multiplicity
 _atom_site_fract_x
 _atom_site_fract_y
 _atom_site_fract_z
 _atom_site_occupancy
  Sc  Sc0  1  0.00537583  0.79535835  0.95050665  1
  Sc  Sc1  1  0.39625805  0.20688714  0.15064640  1
  Sc  Sc2  1  0.80274889  0.59725920  0.35368540  1
  Sc  Sc3  1  0.20464165  0.99462417  0.04949335  1
  Sc  Sc4  1  0.20543415  0.00042505  0.54807955  1
  Sc  Sc5  1  0.59341744  0.40324900  0.24958214  1
  Sc  Sc6  1  0.59675100  0.40658256  0.75041786  1
  Sc  Sc7  1  0.99957495  0.79456585  0.45192045  1
  Sc  Sc8  1  0.40274080  0.19725111  0.64631460  1
  Sc  Sc9  1  0.79311286  0.60374195  0.84935360  1
  Bi  Bi0  1  0.96434705  0.43276271  0.10045232  1
  Bi  Bi1  1  0.83313196  0.96656677  0.20022032  1
  Bi  Bi2  1  0.36697742  0.83416932  0.30011484  1
  Bi  Bi3  1  0.76818951  0.23181049  0.50000000  1
  Bi  Bi4  1  0.16583068  0.63302258  0.69988516  1
  Bi  Bi5  1  0.03343323  0.16686804  0.79977968  1
  Bi  Bi6  1  0.56723729  0.03565295  0.89954768  1
  Sb  Sb0  1  0.43349869  0.56650131  0.00000000  1
  Sb  Sb1  1  0.23360617  0.36630664  0.40015118  1
  Sb  Sb2  1  0.63369336  0.76639383  0.59984882  1
loop_
_geom_bond_atom_site_label_1
_geom_bond_atom_site_label_2
_geom_bond_distance
_geom_bond_site_symmetry_2
Bi0 Sc1 3.010586 1_655
Bi0 Sc0 3.014642 1_654
Bi0 Sc5 3.024502 1_555
Bi0 Sc9 3.036888 1_554
Bi0 Sc3 3.040984 1_645
Bi0 Sc2 3.041665 1_555
Bi1 Sc0 3.021510 1_654
Bi1 Sc7 3.022209 1_555
Bi1 Sc2 3.024653 1_555
Bi1 Sc5 3.024832 1_565
Bi1 Sc3 3.025601 1_655
Bi1 Sc1 3.026412 1_565
Bi2 Sc4 2.995786 1_565
Bi2 Sc5 3.004187 1_555
Bi2 Sc3 3.007728 1_555
Bi2 Sc1 3.036875 1_565
Bi2 Sc2 3.038840 1_555
Bi2 Sc7 3.046067 1_455
Bi3 Sc2 3.001424 1_555
Bi3 Sc8 3.001424 1_555
Bi3 Sc7 3.033026 1_545
Bi3 Sc4 3.033026 1_655
Bi3 Sc6 3.044292 1_555
Bi3 Sc5 3.044292 1_555
Bi4 Sc7 2.995786 1_455
Bi4 Sc6 3.004187 1_555
Bi4 Sc0 3.007728 1_555
Bi4 Sc9 3.036875 1_455
Bi4 Sc8 3.038840 1_555
Bi4 Sc4 3.046067 1_565
Bi5 Sc3 3.021511 1_546
Bi5 Sc4 3.022209 1_555
Bi5 Sc8 3.024653 1_555
Bi5 Sc6 3.024833 1_455
Bi5 Sc0 3.025601 1_545
Bi5 Sc9 3.026411 1_455
Bi6 Sc9 3.010586 1_545
Bi6 Sc3 3.014643 1_546
Bi6 Sc6 3.024502 1_555
Bi6 Sc1 3.036888 1_556
Bi6 Sc0 3.040984 1_645
Bi6 Sc8 3.041665 1_555
Sb0 Sc3 2.976914 1_555
Sb0 Sc0 2.976915 1_554
Sb0 Sc1 2.978948 1_555
Sb0 Sc9 2.978948 1_554
Sb0 Sc6 2.984013 1_554
Sb0 Sc5 2.984013 1_555
Sb1 Sc5 2.978954 1_555
Sb1 Sc8 2.980850 1_555
Sb1 Sc4 2.981005 1_555
Sb1 Sc7 2.981429 1_455
Sb1 Sc2 2.981546 1_455
Sb1 Sc1 2.981898 1_555
Sb2 Sc6 2.978954 1_555
Sb2 Sc2 2.980850 1_555
Sb2 Sc7 2.981005 1_555
Sb2 Sc4 2.981429 1_565
Sb2 Sc8 2.981546 1_565
Sb2 Sc9 2.981898 1_555
