# generated using pymatgen
data_V22NiC6
_symmetry_space_group_name_H-M   'P 1'
_cell_length_a   7.73501189
_cell_length_b   7.73501162
_cell_length_c   7.73501288
_cell_angle_alpha   59.99999887
_cell_angle_beta   60.00000003
_cell_angle_gamma   59.99999395
_symmetry_Int_Tables_number   1
_chemical_formula_structural   V22NiC6
_chemical_formula_sum   'V22 Ni1 C6'
_cell_volume   327.24119978
_cell_formula_units_Z   1
loop_
 _symmetry_equiv_pos_site_id
 _symmetry_equiv_pos_as_xyz
  1  'x, y, z'
loop_
 _atom_site_type_symbol
 _atom_site_label
 _atom_site_symmetry_multiplicity
 _atom_site_fract_x
 _atom_site_fract_y
 _atom_site_fract_z
 _atom_site_occupancy
  V  V0  1  0.75000000  0.75000000  0.75000000  1
  V  V1  1  0.25000000  0.25000000  0.25000000  1
  V  V2  1  0.61534695  0.61534695  0.15395914  1
  V  V3  1  0.61534695  0.15395914  0.61534695  1
  V  V4  1  0.15395914  0.61534695  0.61534695  1
  V  V5  1  0.61534695  0.61534695  0.61534695  1
  V  V6  1  0.38465305  0.38465305  0.84604086  1
  V  V7  1  0.38465305  0.84604086  0.38465305  1
  V  V8  1  0.84604086  0.38465305  0.38465305  1
  V  V9  1  0.38465305  0.38465305  0.38465305  1
  V  V10  1  0.00000000  0.00000000  0.33890036  1
  V  V11  1  0.66109964  0.00000000  0.33890036  1
  V  V12  1  0.00000000  0.66109964  0.33890036  1
  V  V13  1  0.66109964  0.33890036  1.00000000  1
  V  V14  1  1.00000000  0.33890036  1.00000000  1
  V  V15  1  1.00000000  0.33890036  0.66109964  1
  V  V16  1  0.33890036  0.66109964  0.00000000  1
  V  V17  1  0.33890036  1.00000000  0.66109964  1
  V  V18  1  0.33890036  1.00000000  1.00000000  1
  V  V19  1  1.00000000  1.00000000  0.66109964  1
  V  V20  1  0.00000000  0.66109964  0.00000000  1
  V  V21  1  0.66109964  0.00000000  0.00000000  1
  Ni  Ni0  1  0.00000000  0.00000000  0.00000000  1
  C  C0  1  0.72476687  0.72476687  0.27523313  1
  C  C1  1  0.27523313  0.72476687  0.27523313  1
  C  C2  1  0.72476687  0.27523313  0.27523313  1
  C  C3  1  0.27523313  0.27523313  0.72476687  1
  C  C4  1  0.72476687  0.27523313  0.72476687  1
  C  C5  1  0.27523313  0.72476687  0.72476687  1
loop_
_geom_bond_atom_site_label_1
_geom_bond_atom_site_label_2
_geom_bond_distance
_geom_bond_site_symmetry_2
V0 V3 2.551248 1_565
V0 V4 2.551249 1_655
V0 V5 2.551249 1_555
V0 V2 2.551249 1_556
V1 V7 2.551248 1_545
V1 V8 2.551249 1_455
V1 V9 2.551249 1_555
V1 V6 2.551249 1_554
Ni0 V13 2.621398 1_454
Ni0 V16 2.621398 1_545
Ni0 V14 2.621398 1_454
Ni0 V20 2.621398 1_545
Ni0 V18 2.621398 1_544
Ni0 V21 2.621398 1_455
Ni0 V15 2.621398 1_454
Ni0 V12 2.621398 1_545
Ni0 V11 2.621398 1_455
Ni0 V17 2.621398 1_544
Ni0 V10 2.621399 1_555
Ni0 V19 2.621399 1_444
C0 V8 2.148679 1_555
C0 V7 2.148679 1_555
C0 V2 2.148679 1_555
C0 V5 2.148679 1_555
C0 V11 2.185148 1_565
C0 V12 2.185148 1_655
C0 V21 2.185148 1_565
C0 V20 2.185148 1_655
C1 V9 2.148679 1_555
C1 V2 2.148679 1_555
C1 V7 2.148679 1_555
C1 V4 2.148679 1_555
C1 V10 2.185148 1_565
C1 V12 2.185148 1_555
C1 V18 2.185148 1_554
C1 V16 2.185149 1_555
C2 V2 2.148679 1_555
C2 V9 2.148679 1_555
C2 V8 2.148679 1_555
C2 V3 2.148679 1_555
C2 V10 2.185148 1_655
C2 V11 2.185148 1_555
C2 V14 2.185148 1_554
C2 V13 2.185149 1_554
C3 V4 2.148679 1_555
C3 V3 2.148679 1_555
C3 V6 2.148679 1_555
C3 V9 2.148679 1_555
C3 V17 2.185148 1_545
C3 V15 2.185148 1_455
C3 V18 2.185148 1_545
C3 V14 2.185148 1_455
C4 V5 2.148679 1_555
C4 V6 2.148679 1_555
C4 V3 2.148679 1_555
C4 V8 2.148679 1_555
C4 V19 2.185148 1_545
C4 V15 2.185148 1_555
C4 V21 2.185148 1_556
C4 V13 2.185149 1_555
C5 V6 2.148679 1_555
C5 V5 2.148679 1_555
C5 V4 2.148679 1_555
C5 V7 2.148679 1_555
C5 V19 2.185148 1_455
C5 V17 2.185148 1_555
C5 V20 2.185148 1_556
C5 V16 2.185149 1_556
