# generated using pymatgen
data_RbYCr2O8
_symmetry_space_group_name_H-M   'P 1'
_cell_length_a   5.71284460
_cell_length_b   5.71284466
_cell_length_c   7.82215617
_cell_angle_alpha   90.00000000
_cell_angle_beta   90.00000000
_cell_angle_gamma   120.00001061
_symmetry_Int_Tables_number   1
_chemical_formula_structural   RbYCr2O8
_chemical_formula_sum   'Rb1 Y1 Cr2 O8'
_cell_volume   221.08633165
_cell_formula_units_Z   1
loop_
 _symmetry_equiv_pos_site_id
 _symmetry_equiv_pos_as_xyz
  1  'x, y, z'
loop_
 _atom_site_type_symbol
 _atom_site_label
 _atom_site_symmetry_multiplicity
 _atom_site_fract_x
 _atom_site_fract_y
 _atom_site_fract_z
 _atom_site_occupancy
  Rb  Rb0  1  0.00000000  0.00000000  0.00000000  1
  Y  Y0  1  0.00000000  0.00000000  0.50000000  1
  Cr  Cr0  1  0.33333300  0.66666700  0.25016708  1
  Cr  Cr1  1  0.66666700  0.33333300  0.74983292  1
  O  O0  1  0.17516359  0.82483641  0.32006713  1
  O  O1  1  0.82483641  0.17516359  0.67993287  1
  O  O2  1  0.17516359  0.35032818  0.32006713  1
  O  O3  1  0.82483641  0.64967182  0.67993287  1
  O  O4  1  0.64967182  0.82483641  0.32006713  1
  O  O5  1  0.35032818  0.17516359  0.67993287  1
  O  O6  1  0.33333300  0.66666700  0.04494985  1
  O  O7  1  0.66666700  0.33333300  0.95505015  1
loop_
_geom_bond_atom_site_label_1
_geom_bond_atom_site_label_2
_geom_bond_distance
_geom_bond_site_symmetry_2
Cr0 O6 1.605241 1_555
Cr0 O4 1.657836 1_555
Cr0 O2 1.657836 1_555
Cr0 O0 1.657836 1_555
Cr1 O7 1.605241 1_555
Cr1 O5 1.657836 1_555
Cr1 O3 1.657836 1_555
Cr1 O1 1.657836 1_555
O0 Y0 2.232722 1_565
O0 Rb0 3.045026 1_565
O1 Y0 2.232722 1_655
O1 Rb0 3.045026 1_656
O2 Y0 2.232726 1_555
O2 Rb0 3.045029 1_555
O3 Y0 2.232726 1_665
O3 Rb0 3.045029 1_666
O4 Y0 2.232726 1_665
O4 Rb0 3.045029 1_665
O5 Y0 2.232726 1_555
O5 Rb0 3.045029 1_556
O6 Rb0 3.316997 1_565
O6 Rb0 3.317001 1_665
O6 Rb0 3.317002 1_555
O7 Rb0 3.316997 1_656
O7 Rb0 3.317001 1_556
O7 Rb0 3.317002 1_666
