# generated using pymatgen
data_Cs3InPBr9
_symmetry_space_group_name_H-M   'P 1'
_cell_length_a   7.87295087
_cell_length_b   7.87295114
_cell_length_c   9.41812172
_cell_angle_alpha   90.00000000
_cell_angle_beta   90.00000000
_cell_angle_gamma   120.00001051
_symmetry_Int_Tables_number   1
_chemical_formula_structural   Cs3InPBr9
_chemical_formula_sum   'Cs3 In1 P1 Br9'
_cell_volume   505.55682993
_cell_formula_units_Z   1
loop_
 _symmetry_equiv_pos_site_id
 _symmetry_equiv_pos_as_xyz
  1  'x, y, z'
loop_
 _atom_site_type_symbol
 _atom_site_label
 _atom_site_symmetry_multiplicity
 _atom_site_fract_x
 _atom_site_fract_y
 _atom_site_fract_z
 _atom_site_occupancy
  Cs  Cs0  1  0.66666700  0.33333300  0.69382139  1
  Cs  Cs1  1  0.33333300  0.66666700  0.33448394  1
  Cs  Cs2  1  0.00000000  0.00000000  0.96767092  1
  In  In0  1  0.33333300  0.66666700  0.82042321  1
  P  P0  1  0.66666700  0.33333300  0.21045991  1
  Br  Br0  1  0.65701128  0.82850564  0.66169078  1
  Br  Br1  1  0.81272522  0.18727478  0.33263696  1
  Br  Br2  1  0.17149436  0.34298872  0.66169078  1
  Br  Br3  1  0.49262134  0.98524367  0.99671947  1
  Br  Br4  1  0.81272522  0.62545244  0.33263696  1
  Br  Br5  1  0.37454756  0.18727478  0.33263696  1
  Br  Br6  1  0.17149436  0.82850564  0.66169078  1
  Br  Br7  1  0.49262134  0.50737866  0.99671947  1
  Br  Br8  1  0.01475633  0.50737866  0.99671947  1
loop_
_geom_bond_atom_site_label_1
_geom_bond_atom_site_label_2
_geom_bond_distance
_geom_bond_site_symmetry_2
Br0 In0 2.665576 1_555
Br0 Cs2 3.711250 1_665
Br0 Cs1 3.790396 1_555
Br0 Cs0 3.948635 1_565
Br0 Cs0 3.948643 1_555
Br1 P0 2.300203 1_555
Br1 Cs0 3.941864 1_555
Br1 Cs1 3.946531 1_655
Br1 Cs1 3.946531 1_545
Br1 Cs2 4.282126 1_654
Br2 In0 2.665576 1_555
Br2 Cs2 3.711250 1_555
Br2 Cs1 3.790396 1_555
Br2 Cs0 3.948635 1_455
Br2 Cs0 3.948642 1_555
Br3 In0 2.734032 1_555
Br3 Cs0 3.710901 1_565
Br3 Cs1 3.851949 1_556
Br3 Cs2 3.947249 1_565
Br3 Cs2 3.947257 1_665
Br4 P0 2.300221 1_555
Br4 Cs0 3.941874 1_555
Br4 Cs1 3.946527 1_555
Br4 Cs1 3.946535 1_655
Br4 Cs2 4.282118 1_664
Br5 P0 2.300221 1_555
Br5 Cs0 3.941874 1_555
Br5 Cs1 3.946527 1_555
Br5 Cs1 3.946535 1_545
Br5 Cs2 4.282118 1_554
Br6 In0 2.665571 1_555
Br6 Cs2 3.711251 1_565
Br6 Cs1 3.790392 1_555
Br6 Cs0 3.948638 1_455
Br6 Cs0 3.948638 1_565
Br7 In0 2.734032 1_555
Br7 Cs0 3.710910 1_555
Br7 Cs1 3.851949 1_556
Br7 Cs2 3.947253 1_665
Br7 Cs2 3.947253 1_555
Br8 In0 2.734032 1_555
Br8 Cs0 3.710901 1_455
Br8 Cs1 3.851949 1_556
Br8 Cs2 3.947250 1_565
Br8 Cs2 3.947257 1_555
