# generated using pymatgen
data_Hf6Al(Si3Ni8)2
_symmetry_space_group_name_H-M   'P 1'
_cell_length_a   8.02036337
_cell_length_b   8.02036354
_cell_length_c   8.02036403
_cell_angle_alpha   60.00000200
_cell_angle_beta   60.00000130
_cell_angle_gamma   59.99999925
_symmetry_Int_Tables_number   1
_chemical_formula_structural   Hf6Al(Si3Ni8)2
_chemical_formula_sum   'Hf6 Al1 Si6 Ni16'
_cell_volume   364.81038238
_cell_formula_units_Z   1
loop_
 _symmetry_equiv_pos_site_id
 _symmetry_equiv_pos_as_xyz
  1  'x, y, z'
loop_
 _atom_site_type_symbol
 _atom_site_label
 _atom_site_symmetry_multiplicity
 _atom_site_fract_x
 _atom_site_fract_y
 _atom_site_fract_z
 _atom_site_occupancy
  Hf  Hf0  1  0.79286779  0.20713221  0.79286779  1
  Hf  Hf1  1  0.79286779  0.79286779  0.20713221  1
  Hf  Hf2  1  0.20713221  0.79286779  0.79286779  1
  Hf  Hf3  1  0.20713221  0.20713221  0.79286779  1
  Hf  Hf4  1  0.79286779  0.20713221  0.20713221  1
  Hf  Hf5  1  0.20713221  0.79286779  0.20713221  1
  Al  Al0  1  0.50000000  0.50000000  0.50000000  1
  Si  Si0  1  0.00000000  0.50000000  0.00000000  1
  Si  Si1  1  0.50000000  0.50000000  0.00000000  1
  Si  Si2  1  0.50000000  0.00000000  0.50000000  1
  Si  Si3  1  0.00000000  0.50000000  0.50000000  1
  Si  Si4  1  0.00000000  0.00000000  0.50000000  1
  Si  Si5  1  0.50000000  0.00000000  0.00000000  1
  Ni  Ni0  1  0.16814863  0.16814863  0.16814863  1
  Ni  Ni1  1  0.62062450  0.62062450  0.13812751  1
  Ni  Ni2  1  0.37937550  0.37937550  0.37937550  1
  Ni  Ni3  1  0.16814863  0.49555410  0.16814863  1
  Ni  Ni4  1  0.16814863  0.16814863  0.49555410  1
  Ni  Ni5  1  0.13812751  0.62062450  0.62062450  1
  Ni  Ni6  1  0.62062450  0.13812751  0.62062450  1
  Ni  Ni7  1  0.83185137  0.83185137  0.83185137  1
  Ni  Ni8  1  0.86187249  0.37937550  0.37937550  1
  Ni  Ni9  1  0.37937550  0.37937550  0.86187249  1
  Ni  Ni10  1  0.37937550  0.86187249  0.37937550  1
  Ni  Ni11  1  0.50444590  0.83185137  0.83185137  1
  Ni  Ni12  1  0.62062450  0.62062450  0.62062450  1
  Ni  Ni13  1  0.83185137  0.83185137  0.50444590  1
  Ni  Ni14  1  0.49555410  0.16814863  0.16814863  1
  Ni  Ni15  1  0.83185137  0.50444590  0.83185137  1
loop_
_geom_bond_atom_site_label_1
_geom_bond_atom_site_label_2
_geom_bond_distance
_geom_bond_site_symmetry_2
Hf0 Ni7 2.733230 1_545
Hf0 Ni15 2.733230 1_555
Hf0 Ni4 2.733230 1_655
Hf0 Ni14 2.733230 1_556
Hf0 Ni6 2.749664 1_555
Hf0 Ni12 2.749670 1_555
Hf0 Ni9 2.749671 1_555
Hf0 Ni8 2.749671 1_555
Hf0 Si1 2.877012 1_556
Hf0 Si5 2.877012 1_556
Hf0 Si4 2.877012 1_655
Hf0 Si3 2.877012 1_655
Hf1 Ni3 2.733230 1_655
Hf1 Ni14 2.733230 1_565
Hf1 Ni13 2.733230 1_555
Hf1 Ni7 2.733230 1_554
Hf1 Ni1 2.749664 1_555
Hf1 Ni12 2.749670 1_555
Hf1 Ni10 2.749671 1_555
Hf1 Ni8 2.749671 1_555
Hf1 Si5 2.877012 1_565
Hf1 Si0 2.877012 1_655
Hf1 Si2 2.877012 1_565
Hf1 Si3 2.877012 1_655
Hf2 Ni7 2.733230 1_455
Hf2 Ni11 2.733230 1_555
Hf2 Ni4 2.733230 1_565
Hf2 Ni3 2.733230 1_556
Hf2 Ni5 2.749664 1_555
Hf2 Ni12 2.749670 1_555
Hf2 Ni9 2.749671 1_555
Hf2 Ni10 2.749671 1_555
Hf2 Si1 2.877012 1_556
Hf2 Si0 2.877012 1_556
Hf2 Si2 2.877012 1_565
Hf2 Si4 2.877012 1_565
Hf3 Ni15 2.733230 1_455
Hf3 Ni11 2.733230 1_545
Hf3 Ni4 2.733230 1_555
Hf3 Ni0 2.733230 1_556
Hf3 Ni9 2.749664 1_555
Hf3 Ni2 2.749670 1_555
Hf3 Ni6 2.749671 1_555
Hf3 Ni5 2.749671 1_555
Hf3 Si5 2.877012 1_556
Hf3 Si0 2.877012 1_556
Hf3 Si2 2.877012 1_555
Hf3 Si3 2.877012 1_555
Hf4 Ni0 2.733230 1_655
Hf4 Ni14 2.733230 1_555
Hf4 Ni13 2.733230 1_545
Hf4 Ni15 2.733230 1_554
Hf4 Ni8 2.749664 1_555
Hf4 Ni2 2.749670 1_555
Hf4 Ni1 2.749671 1_555
Hf4 Ni6 2.749671 1_555
Hf4 Si1 2.877012 1_555
Hf4 Si0 2.877012 1_655
Hf4 Si2 2.877012 1_555
Hf4 Si4 2.877012 1_655
Hf5 Ni0 2.733230 1_565
Hf5 Ni3 2.733230 1_555
Hf5 Ni13 2.733230 1_455
Hf5 Ni11 2.733230 1_554
Hf5 Ni10 2.749664 1_555
Hf5 Ni2 2.749670 1_555
Hf5 Ni1 2.749671 1_555
Hf5 Ni5 2.749671 1_555
Hf5 Si1 2.877012 1_555
Hf5 Si5 2.877012 1_565
Hf5 Si4 2.877012 1_565
Hf5 Si3 2.877012 1_555
Al0 Ni8 2.369758 1_555
Al0 Ni5 2.369758 1_555
Al0 Ni10 2.369758 1_555
Al0 Ni6 2.369758 1_555
Al0 Ni9 2.369758 1_555
Al0 Ni1 2.369758 1_555
Al0 Ni12 2.369765 1_555
Al0 Ni2 2.369765 1_555
Ni0 Si5 2.315463 1_555
Ni0 Si0 2.315463 1_555
Ni0 Si4 2.315463 1_555
Ni0 Ni8 2.514201 1_455
Ni0 Ni10 2.514201 1_545
Ni0 Ni9 2.514201 1_554
Ni0 Ni14 2.625911 1_555
Ni0 Ni3 2.625911 1_555
Ni0 Ni4 2.625911 1_555
Ni1 Si0 2.485700 1_655
Ni1 Si5 2.485700 1_565
Ni1 Si1 2.485706 1_555
Ni1 Ni7 2.514201 1_554
Ni1 Ni15 2.514205 1_554
Ni1 Ni11 2.514205 1_554
Ni1 Ni10 2.736357 1_555
Ni1 Ni8 2.736357 1_555
Ni1 Ni2 2.736368 1_555
Ni2 Si3 2.485700 1_555
Ni2 Si2 2.485700 1_555
Ni2 Si1 2.485700 1_555
Ni2 Ni4 2.514199 1_555
Ni2 Ni3 2.514199 1_555
Ni2 Ni6 2.736368 1_555
Ni2 Ni5 2.736368 1_555
Ni3 Si1 2.315463 1_555
Ni3 Si0 2.315463 1_555
Ni3 Si3 2.315463 1_555
Ni3 Ni8 2.514205 1_455
Ni3 Ni9 2.514205 1_554
Ni3 Ni4 2.625911 1_555
Ni4 Si2 2.315463 1_555
Ni4 Si3 2.315463 1_555
Ni4 Si4 2.315463 1_555
Ni4 Ni8 2.514205 1_455
Ni5 Si4 2.485700 1_565
Ni5 Si0 2.485700 1_556
Ni5 Si3 2.485706 1_555
Ni5 Ni7 2.514201 1_455
Ni5 Ni9 2.736357 1_555
Ni6 Si4 2.485700 1_655
Ni6 Si5 2.485700 1_556
Ni6 Si2 2.485706 1_555
Ni6 Ni7 2.514201 1_545
Ni6 Ni9 2.736357 1_555
Ni6 Ni8 2.736357 1_555
Ni7 Si5 2.315463 1_566
Ni7 Si0 2.315463 1_656
Ni7 Si4 2.315463 1_665
Ni8 Si4 2.485700 1_655
Ni8 Si0 2.485700 1_655
Ni8 Si3 2.485706 1_655
Ni9 Si0 2.485700 1_556
Ni9 Si5 2.485700 1_556
Ni9 Si1 2.485706 1_556
Ni10 Si4 2.485700 1_565
Ni10 Si5 2.485700 1_565
Ni10 Si2 2.485706 1_565
Ni10 Ni4 2.514205 1_565
Ni10 Ni14 2.514205 1_565
Ni10 Ni5 2.736357 1_555
Ni10 Ni12 2.736368 1_555
Ni11 Si1 2.315463 1_556
Ni11 Si5 2.315463 1_566
Ni11 Si2 2.315463 1_565
Ni11 Ni12 2.514199 1_555
Ni11 Ni6 2.514205 1_565
Ni11 Ni15 2.625911 1_555
Ni11 Ni7 2.625911 1_555
Ni11 Ni13 2.625911 1_555
Ni12 Si3 2.485700 1_655
Ni12 Si2 2.485700 1_565
Ni12 Si1 2.485700 1_556
Ni12 Ni13 2.514199 1_555
Ni12 Ni15 2.514199 1_555
Ni12 Ni8 2.736368 1_555
Ni12 Ni9 2.736368 1_555
Ni13 Si2 2.315463 1_565
Ni13 Si3 2.315463 1_655
Ni13 Si4 2.315463 1_665
Ni13 Ni5 2.514205 1_655
Ni13 Ni6 2.514205 1_565
Ni13 Ni15 2.625911 1_555
Ni13 Ni7 2.625911 1_555
Ni14 Si1 2.315463 1_555
Ni14 Si5 2.315463 1_555
Ni14 Si2 2.315463 1_555
Ni14 Ni2 2.514199 1_555
Ni14 Ni9 2.514205 1_554
Ni14 Ni3 2.625911 1_555
Ni14 Ni4 2.625911 1_555
Ni15 Si1 2.315463 1_556
Ni15 Si0 2.315463 1_656
Ni15 Si3 2.315463 1_655
Ni15 Ni5 2.514205 1_655
Ni15 Ni7 2.625911 1_555
