# generated using pymatgen
data_Rb16HfSnBi8
_symmetry_space_group_name_H-M   'P 1'
_cell_length_a   12.21325303
_cell_length_b   12.21325363
_cell_length_c   12.21325395
_cell_angle_alpha   59.99999911
_cell_angle_beta   59.99999749
_cell_angle_gamma   60.00000147
_symmetry_Int_Tables_number   1
_chemical_formula_structural   Rb16HfSnBi8
_chemical_formula_sum   'Rb16 Hf1 Sn1 Bi8'
_cell_volume   1288.18759919
_cell_formula_units_Z   1
loop_
 _symmetry_equiv_pos_site_id
 _symmetry_equiv_pos_as_xyz
  1  'x, y, z'
loop_
 _atom_site_type_symbol
 _atom_site_label
 _atom_site_symmetry_multiplicity
 _atom_site_fract_x
 _atom_site_fract_y
 _atom_site_fract_z
 _atom_site_occupancy
  Rb  Rb0  1  0.62219590  0.13341029  0.62219590  1
  Rb  Rb1  1  0.62219590  0.62219590  0.13341029  1
  Rb  Rb2  1  0.13341029  0.62219590  0.62219590  1
  Rb  Rb3  1  0.62219590  0.62219590  0.62219590  1
  Rb  Rb4  1  0.02181168  0.02181168  0.47818832  1
  Rb  Rb5  1  0.77912365  0.22087635  0.22087635  1
  Rb  Rb6  1  0.22087635  0.77912365  0.77912365  1
  Rb  Rb7  1  0.77912365  0.77912365  0.22087635  1
  Rb  Rb8  1  0.77912365  0.22087635  0.77912365  1
  Rb  Rb9  1  0.22087635  0.77912365  0.22087635  1
  Rb  Rb10  1  0.47818832  0.02181168  0.47818832  1
  Rb  Rb11  1  0.47818832  0.02181168  0.02181168  1
  Rb  Rb12  1  0.02181168  0.47818832  0.47818832  1
  Rb  Rb13  1  0.02181168  0.47818832  0.02181168  1
  Rb  Rb14  1  0.22087635  0.22087635  0.77912365  1
  Rb  Rb15  1  0.47818832  0.47818832  0.02181168  1
  Hf  Hf0  1  0.75000000  0.75000000  0.75000000  1
  Sn  Sn0  1  0.50000000  0.50000000  0.50000000  1
  Bi  Bi0  1  0.39844752  0.80465844  0.39844752  1
  Bi  Bi1  1  0.84812525  0.84812525  0.45562324  1
  Bi  Bi2  1  0.45562324  0.84812525  0.84812525  1
  Bi  Bi3  1  0.84812525  0.84812525  0.84812525  1
  Bi  Bi4  1  0.80465844  0.39844752  0.39844752  1
  Bi  Bi5  1  0.39844752  0.39844752  0.39844752  1
  Bi  Bi6  1  0.39844752  0.39844752  0.80465844  1
  Bi  Bi7  1  0.84812525  0.45562324  0.84812525  1
loop_
_geom_bond_atom_site_label_1
_geom_bond_atom_site_label_2
_geom_bond_distance
_geom_bond_site_symmetry_2
Rb0 Sn0 3.655662 1_555
Rb0 Rb10 3.991528 1_555
Rb0 Rb4 3.991548 1_655
Rb0 Rb11 3.991548 1_556
Rb0 Rb14 4.031851 1_555
Rb0 Rb5 4.031851 1_555
Rb0 Rb8 4.031872 1_555
Rb1 Sn0 3.655662 1_555
Rb1 Rb15 3.991528 1_555
Rb1 Rb13 3.991548 1_655
Rb1 Rb11 3.991548 1_565
Rb1 Rb9 4.031851 1_555
Rb1 Rb5 4.031851 1_555
Rb1 Rb7 4.031872 1_555
Rb2 Sn0 3.655662 1_555
Rb2 Rb4 3.991548 1_565
Rb2 Rb9 4.031851 1_555
Rb2 Rb6 4.031872 1_555
Rb3 Sn0 3.655642 1_555
Rb3 Rb6 4.031853 1_555
Rb3 Rb7 4.031854 1_555
Rb3 Rb8 4.031854 1_555
Rb4 Rb8 4.363532 1_455
Rb4 Rb5 4.363532 1_455
Rb4 Rb9 4.363532 1_545
Rb4 Rb6 4.363532 1_545
Rb10 Rb3 3.991547 1_545
Rb10 Rb5 4.363532 1_555
Rb10 Rb6 4.363532 1_545
Rb10 Rb7 4.363532 1_545
Rb10 Rb14 4.363532 1_555
Rb11 Rb8 4.363532 1_554
Rb11 Rb9 4.363532 1_545
Rb11 Rb7 4.363532 1_545
Rb11 Rb14 4.363532 1_554
Rb12 Rb2 3.991528 1_555
Rb12 Rb3 3.991547 1_455
Rb12 Rb8 4.363532 1_455
Rb12 Rb9 4.363532 1_555
Rb12 Rb7 4.363532 1_455
Rb12 Rb14 4.363532 1_555
Rb13 Rb2 3.991548 1_554
Rb13 Rb5 4.363532 1_455
Rb13 Rb6 4.363532 1_554
Rb13 Rb7 4.363532 1_455
Rb13 Rb14 4.363532 1_554
Rb14 Rb2 4.031851 1_555
Rb15 Rb3 3.991547 1_554
Rb15 Rb5 4.363532 1_555
Rb15 Rb8 4.363532 1_554
Rb15 Rb6 4.363532 1_554
Rb15 Rb9 4.363532 1_555
Hf0 Rb2 3.823398 1_655
Hf0 Rb1 3.823398 1_556
Hf0 Rb0 3.823398 1_565
Hf0 Rb3 3.823418 1_555
Bi0 Sn0 3.038078 1_555
Bi0 Rb10 3.878804 1_565
Bi0 Rb4 3.878813 1_565
Bi0 Rb11 3.878813 1_565
Bi0 Rb3 3.897372 1_555
Bi0 Rb2 3.897399 1_555
Bi0 Rb1 3.897400 1_555
Bi0 Rb7 3.944607 1_555
Bi0 Rb6 3.944607 1_555
Bi0 Rb9 3.944618 1_555
Bi1 Hf0 2.935549 1_555
Bi1 Rb10 3.839860 1_565
Bi1 Rb12 3.839861 1_655
Bi1 Rb4 3.839871 1_665
Bi1 Rb7 3.896499 1_555
Bi1 Rb9 3.896507 1_655
Bi1 Rb5 3.896507 1_565
Bi1 Rb2 3.969041 1_655
Bi1 Rb0 3.969042 1_565
Bi1 Rb3 3.969051 1_555
Bi2 Hf0 2.935548 1_555
Bi2 Rb15 3.839861 1_556
Bi2 Rb10 3.839861 1_565
Bi2 Rb11 3.839871 1_566
Bi2 Rb6 3.896499 1_555
Bi2 Rb9 3.896507 1_556
Bi2 Rb14 3.896507 1_565
Bi2 Rb0 3.969041 1_565
Bi2 Rb1 3.969042 1_556
Bi2 Rb3 3.969051 1_555
Bi3 Hf0 2.935539 1_555
Bi3 Rb11 3.839863 1_566
Bi3 Rb4 3.839863 1_665
Bi3 Rb13 3.839864 1_656
Bi3 Rb6 3.896510 1_655
Bi3 Rb8 3.896510 1_565
Bi3 Rb7 3.896510 1_556
Bi3 Rb1 3.969049 1_556
Bi3 Rb2 3.969049 1_655
Bi3 Rb0 3.969049 1_565
Bi4 Sn0 3.038078 1_555
Bi4 Rb12 3.878804 1_655
Bi4 Rb13 3.878813 1_655
Bi4 Rb4 3.878813 1_655
Bi4 Rb3 3.897372 1_555
Bi4 Rb0 3.897399 1_555
Bi4 Rb1 3.897400 1_555
Bi4 Rb7 3.944607 1_555
Bi4 Rb8 3.944607 1_555
Bi4 Rb5 3.944618 1_555
Bi5 Sn0 3.038068 1_555
Bi5 Rb12 3.878816 1_555
Bi5 Rb10 3.878816 1_555
Bi5 Rb15 3.878816 1_555
Bi5 Rb1 3.897376 1_555
Bi5 Rb2 3.897376 1_555
Bi5 Rb0 3.897376 1_555
Bi5 Rb5 3.944610 1_555
Bi5 Rb14 3.944610 1_555
Bi5 Rb9 3.944610 1_555
Bi6 Sn0 3.038078 1_555
Bi6 Rb15 3.878804 1_556
Bi6 Rb13 3.878813 1_556
Bi6 Rb11 3.878813 1_556
Bi6 Rb3 3.897371 1_555
Bi6 Rb2 3.897400 1_555
Bi6 Rb0 3.897400 1_555
Bi6 Rb8 3.944607 1_555
Bi6 Rb6 3.944607 1_555
Bi6 Rb14 3.944617 1_555
Bi7 Hf0 2.935549 1_555
Bi7 Rb15 3.839860 1_556
Bi7 Rb12 3.839861 1_655
Bi7 Rb13 3.839871 1_656
Bi7 Rb8 3.896499 1_555
Bi7 Rb14 3.896507 1_655
Bi7 Rb5 3.896507 1_556
Bi7 Rb2 3.969041 1_655
Bi7 Rb1 3.969042 1_556
Bi7 Rb3 3.969051 1_555
