# generated using pymatgen
data_Hf3Zr3SiSb2
_symmetry_space_group_name_H-M   'P 1'
_cell_length_a   7.48817249
_cell_length_b   7.48817233
_cell_length_c   3.92598937
_cell_angle_alpha   90.00000000
_cell_angle_beta   90.00000000
_cell_angle_gamma   119.99999631
_symmetry_Int_Tables_number   1
_chemical_formula_structural   Hf3Zr3SiSb2
_chemical_formula_sum   'Hf3 Zr3 Si1 Sb2'
_cell_volume   190.64764201
_cell_formula_units_Z   1
loop_
 _symmetry_equiv_pos_site_id
 _symmetry_equiv_pos_as_xyz
  1  'x, y, z'
loop_
 _atom_site_type_symbol
 _atom_site_label
 _atom_site_symmetry_multiplicity
 _atom_site_fract_x
 _atom_site_fract_y
 _atom_site_fract_z
 _atom_site_occupancy
  Hf  Hf0  1  0.76104982  1.00000000  0.50000000  1
  Hf  Hf1  1  0.23895018  0.23895018  0.50000000  1
  Hf  Hf2  1  1.00000000  0.76104982  0.50000000  1
  Zr  Zr0  1  0.00000000  0.39555312  0.00000000  1
  Zr  Zr1  1  0.60444688  0.60444688  0.00000000  1
  Zr  Zr2  1  0.39555312  0.00000000  0.00000000  1
  Si  Si0  1  0.00000000  0.00000000  0.00000000  1
  Sb  Sb0  1  0.33333300  0.66666700  0.50000000  1
  Sb  Sb1  1  0.66666700  0.33333300  0.50000000  1
loop_
_geom_bond_atom_site_label_1
_geom_bond_atom_site_label_2
_geom_bond_distance
_geom_bond_site_symmetry_2
Hf0 Si0 2.656114 1_666
Hf0 Si0 2.656114 1_665
Hf0 Sb1 2.914428 1_565
Hf0 Sb0 2.914433 1_555
Hf1 Si0 2.656114 1_555
Hf1 Si0 2.656114 1_556
Hf1 Sb0 2.914436 1_555
Hf1 Sb1 2.914436 1_555
Hf2 Si0 2.656114 1_665
Hf2 Si0 2.656114 1_666
Hf2 Sb0 2.914428 1_655
Hf2 Sb1 2.914433 1_555
Si0 Zr0 2.961970 1_555
Si0 Zr2 2.961970 1_555
Si0 Zr1 2.961970 1_445
Sb0 Zr2 3.022874 1_566
Sb0 Zr2 3.022874 1_565
Sb0 Zr0 3.022876 1_555
Sb0 Zr0 3.022876 1_556
Sb0 Zr1 3.022879 1_555
Sb0 Zr1 3.022879 1_556
Sb1 Zr0 3.022874 1_656
Sb1 Zr0 3.022874 1_655
Sb1 Zr2 3.022876 1_556
Sb1 Zr2 3.022876 1_555
Sb1 Zr1 3.022879 1_555
Sb1 Zr1 3.022879 1_556
