# generated using pymatgen
data_HfZrTi3Ir
_symmetry_space_group_name_H-M   'P 1'
_cell_length_a   5.18835771
_cell_length_b   5.18835790
_cell_length_c   5.18835839
_cell_angle_alpha   64.68473784
_cell_angle_beta   64.68473649
_cell_angle_gamma   64.68474800
_symmetry_Int_Tables_number   1
_chemical_formula_structural   HfZrTi3Ir
_chemical_formula_sum   'Hf1 Zr1 Ti3 Ir1'
_cell_volume   108.88937836
_cell_formula_units_Z   1
loop_
 _symmetry_equiv_pos_site_id
 _symmetry_equiv_pos_as_xyz
  1  'x, y, z'
loop_
 _atom_site_type_symbol
 _atom_site_label
 _atom_site_symmetry_multiplicity
 _atom_site_fract_x
 _atom_site_fract_y
 _atom_site_fract_z
 _atom_site_occupancy
  Hf  Hf0  1  0.50116823  0.50116823  0.50116823  1
  Zr  Zr0  1  0.75023572  0.75023572  0.75023572  1
  Ti  Ti0  1  0.62393794  0.12490606  0.12490606  1
  Ti  Ti1  1  0.12490606  0.12490606  0.62393794  1
  Ti  Ti2  1  0.12490606  0.62393794  0.12490606  1
  Ir  Ir0  1  0.12484700  0.12484700  0.12484700  1
loop_
_geom_bond_atom_site_label_1
_geom_bond_atom_site_label_2
_geom_bond_distance
_geom_bond_site_symmetry_2
Hf0 Ti1 3.026563 1_555
Hf0 Ti2 3.026564 1_555
Hf0 Ti0 3.026564 1_555
Hf0 Zr0 3.048615 1_555
Hf0 Ti2 3.160098 1_655
Hf0 Ti0 3.160098 1_565
Hf0 Ti1 3.160099 1_655
Hf0 Ti2 3.160099 1_556
Hf0 Ti0 3.160099 1_556
Hf0 Ti1 3.160099 1_565
Hf0 Ir0 3.247953 1_556
Hf0 Ir0 3.247953 1_655
Hf0 Ir0 3.247953 1_565
Hf0 Zr0 3.366923 1_455
Hf0 Zr0 3.366923 1_554
Hf0 Zr0 3.366923 1_545
Ti0 Ti1 2.770279 1_555
Ti0 Ti2 2.770279 1_555
Ti0 Ti1 2.781028 1_654
Ti0 Ti2 2.781028 1_645
Ti0 Zr0 3.006660 1_544
Ti0 Zr0 3.173280 1_554
Ti0 Zr0 3.173280 1_545
Ti1 Ti2 2.770279 1_555
Ti1 Ti2 2.781028 1_546
Ti1 Zr0 3.006660 1_445
Ti1 Zr0 3.173280 1_545
Ti1 Zr0 3.173280 1_455
Ti2 Zr0 3.006660 1_454
Ti2 Zr0 3.173280 1_554
Ti2 Zr0 3.173280 1_455
Ir0 Ti0 2.589724 1_555
Ir0 Ti2 2.589724 1_555
Ir0 Ti1 2.589725 1_555
Ir0 Ti0 2.598633 1_455
Ir0 Ti2 2.598634 1_545
Ir0 Ti1 2.598634 1_554
Ir0 Zr0 3.244628 1_445
Ir0 Zr0 3.244628 1_544
Ir0 Zr0 3.244628 1_454
