# generated using pymatgen
data_Mn2B(PdPt)3
_symmetry_space_group_name_H-M   'P 1'
_cell_length_a   5.68022314
_cell_length_b   5.68022235
_cell_length_c   5.69767271
_cell_angle_alpha   60.10125188
_cell_angle_beta   60.10125206
_cell_angle_gamma   59.99999363
_symmetry_Int_Tables_number   1
_chemical_formula_structural   Mn2B(PdPt)3
_chemical_formula_sum   'Mn2 B1 Pd3 Pt3'
_cell_volume   130.18956464
_cell_formula_units_Z   1
loop_
 _symmetry_equiv_pos_site_id
 _symmetry_equiv_pos_as_xyz
  1  'x, y, z'
loop_
 _atom_site_type_symbol
 _atom_site_label
 _atom_site_symmetry_multiplicity
 _atom_site_fract_x
 _atom_site_fract_y
 _atom_site_fract_z
 _atom_site_occupancy
  Mn  Mn0  1  0.25013864  0.25013864  0.24958509  1
  Mn  Mn1  1  0.75069674  0.75069674  0.74791477  1
  B  B0  1  0.99898232  0.99898232  0.00305305  1
  Pd  Pd0  1  0.25611927  0.25611927  0.74321584  1
  Pd  Pd1  1  0.74454462  0.25612127  0.74321484  1
  Pd  Pd2  1  0.25612127  0.74454462  0.74321484  1
  Pt  Pt0  1  0.25868642  0.74235636  0.25660085  1
  Pt  Pt1  1  0.74235636  0.25868642  0.25660085  1
  Pt  Pt2  1  0.74235536  0.74235536  0.25660285  1
loop_
_geom_bond_atom_site_label_1
_geom_bond_atom_site_label_2
_geom_bond_distance
_geom_bond_site_symmetry_2
Mn0 Pt0 2.840801 1_555
Mn0 Pt1 2.840802 1_555
Mn0 Pt2 2.840804 1_545
Mn0 Pt2 2.840804 1_455
Mn0 Pt0 2.840807 1_545
Mn0 Pt1 2.840807 1_455
Mn0 Pd0 2.846820 1_555
Mn0 Pd2 2.846823 1_545
Mn0 Pd1 2.846823 1_455
Mn0 Pd2 2.851662 1_554
Mn0 Pd1 2.851662 1_554
Mn0 Pd0 2.851665 1_554
Mn1 Pd1 2.840441 1_565
Mn1 Pd2 2.840441 1_655
Mn1 Pd0 2.840449 1_565
Mn1 Pd0 2.840449 1_655
Mn1 Pd1 2.840458 1_555
Mn1 Pd2 2.840458 1_555
Mn1 Pt1 2.847352 1_565
Mn1 Pt0 2.847352 1_655
Mn1 Pt2 2.847361 1_555
Mn1 Pt2 2.851892 1_556
Mn1 Pt1 2.851899 1_556
Mn1 Pt0 2.851900 1_556
B0 Pt1 2.064656 1_565
B0 Pt0 2.064656 1_655
B0 Pt2 2.064664 1_555
B0 Pd0 2.068892 1_664
B0 Pd2 2.068900 1_654
B0 Pd1 2.068901 1_564
