# generated using pymatgen
data_K5HfAs2P
_symmetry_space_group_name_H-M   'P 1'
_cell_length_a   8.28447722
_cell_length_b   9.03355404
_cell_length_c   17.60371127
_cell_angle_alpha   59.94980206
_cell_angle_beta   90.00000000
_cell_angle_gamma   90.00000000
_symmetry_Int_Tables_number   1
_chemical_formula_structural   K5HfAs2P
_chemical_formula_sum   'K20 Hf4 As8 P4'
_cell_volume   1140.35146050
_cell_formula_units_Z   4
loop_
 _symmetry_equiv_pos_site_id
 _symmetry_equiv_pos_as_xyz
  1  'x, y, z'
loop_
 _atom_site_type_symbol
 _atom_site_label
 _atom_site_symmetry_multiplicity
 _atom_site_fract_x
 _atom_site_fract_y
 _atom_site_fract_z
 _atom_site_occupancy
  K  K0  1  0.17321372  0.83924402  0.74340060  1
  K  K1  1  0.67321372  0.16075598  0.75659940  1
  K  K2  1  0.82678628  0.16075598  0.25659940  1
  K  K3  1  0.32678628  0.83924402  0.24340060  1
  K  K4  1  0.17054391  0.16818186  0.42029541  1
  K  K5  1  0.67054391  0.83181814  0.07970459  1
  K  K6  1  0.82945609  0.83181814  0.57970459  1
  K  K7  1  0.32945609  0.16818186  0.92029541  1
  K  K8  1  0.00617817  0.07672531  0.09459360  1
  K  K9  1  0.50617817  0.92327469  0.40540640  1
  K  K10  1  0.99382183  0.92327469  0.90540640  1
  K  K11  1  0.49382183  0.07672531  0.59459360  1
  K  K12  1  0.51897335  0.25712835  0.07913215  1
  K  K13  1  0.01897335  0.74287165  0.42086785  1
  K  K14  1  0.48102665  0.74287165  0.92086785  1
  K  K15  1  0.98102665  0.25712835  0.57913215  1
  K  K16  1  0.98452469  0.53978383  0.25873556  1
  K  K17  1  0.48452469  0.46021617  0.24126444  1
  K  K18  1  0.01547531  0.46021617  0.74126444  1
  K  K19  1  0.51547531  0.53978383  0.75873556  1
  Hf  Hf0  1  0.37143074  0.49492191  0.57918739  1
  Hf  Hf1  1  0.87143074  0.50507809  0.92081261  1
  Hf  Hf2  1  0.62856926  0.50507809  0.42081261  1
  Hf  Hf3  1  0.12856926  0.49492191  0.07918739  1
  As  As0  1  0.21562901  0.21477873  0.21962885  1
  As  As1  1  0.71562901  0.78522127  0.28037115  1
  As  As2  1  0.78437099  0.78522127  0.78037115  1
  As  As3  1  0.28437099  0.21477873  0.71962885  1
  As  As4  1  0.24970041  0.76230250  0.07729665  1
  As  As5  1  0.74970041  0.23769750  0.42270335  1
  As  As6  1  0.75029959  0.23769750  0.92270335  1
  As  As7  1  0.25029959  0.76230250  0.57729665  1
  P  P0  1  0.32227421  0.48837689  0.43809484  1
  P  P1  1  0.82227421  0.51162311  0.06190516  1
  P  P2  1  0.67772579  0.51162311  0.56190516  1
  P  P3  1  0.17772579  0.48837689  0.93809484  1
loop_
_geom_bond_atom_site_label_1
_geom_bond_atom_site_label_2
_geom_bond_distance
_geom_bond_site_symmetry_2
K0 P3 3.303722 1_555
K1 P2 3.303722 1_555
K2 P1 3.303722 1_555
K3 P0 3.303722 1_555
K4 P0 3.309455 1_555
K5 P1 3.309455 1_555
K6 P2 3.309455 1_555
K7 P3 3.309455 1_555
K8 P3 3.630120 1_554
K9 P2 3.630120 1_555
K10 P1 3.630120 1_556
K11 P0 3.630120 1_555
K12 P1 3.315523 1_555
K12 P3 3.650475 1_554
K13 P0 3.315523 1_555
K13 P2 3.650475 1_455
K14 P3 3.315523 1_555
K14 P1 3.650475 1_556
K15 P2 3.315523 1_555
K15 P0 3.650475 1_655
Hf0 P0 2.546652 1_555
Hf0 P2 2.551123 1_555
Hf1 P1 2.546652 1_556
Hf1 P3 2.551123 1_655
Hf2 P2 2.546652 1_555
Hf2 P0 2.551123 1_555
Hf3 P3 2.546652 1_554
Hf3 P1 2.551123 1_455
As0 Hf3 2.602059 1_555
As0 K2 3.274261 1_455
As0 K17 3.296833 1_555
As0 K3 3.333140 1_545
As0 K4 3.362422 1_555
As0 K12 3.410452 1_555
As0 K8 3.487136 1_555
As0 K9 3.846893 1_545
As1 Hf2 2.602059 1_555
As1 K3 3.274261 1_555
As1 K16 3.296833 1_555
As1 K2 3.333140 1_565
As1 K5 3.362422 1_555
As1 K13 3.410452 1_655
As1 K9 3.487136 1_555
As1 K8 3.846893 1_665
As2 Hf1 2.602059 1_555
As2 K0 3.274261 1_655
As2 K19 3.296833 1_555
As2 K1 3.333140 1_565
As2 K6 3.362422 1_555
As2 K14 3.410452 1_555
As2 K10 3.487136 1_555
As2 K11 3.846893 1_565
As3 Hf0 2.602059 1_555
As3 K1 3.274261 1_555
As3 K18 3.296833 1_555
As3 K0 3.333140 1_545
As3 K7 3.362422 1_555
As3 K15 3.410452 1_455
As3 K11 3.487136 1_555
As3 K10 3.846893 1_445
As4 Hf3 2.600339 1_555
As4 K10 3.370089 1_454
As4 K7 3.371898 1_564
As4 K3 3.387689 1_555
As4 K17 3.416765 1_555
As4 K14 3.430827 1_554
As4 K5 3.546585 1_555
As4 K16 3.555035 1_455
As4 K8 3.618927 1_565
As5 Hf2 2.600339 1_555
As5 K11 3.370089 1_555
As5 K6 3.371898 1_545
As5 K2 3.387689 1_555
As5 K16 3.416765 1_555
As5 K15 3.430827 1_555
As5 K4 3.546585 1_655
As5 K17 3.555035 1_555
As5 K9 3.618927 1_545
As6 Hf1 2.600339 1_555
As6 K8 3.370089 1_656
As6 K5 3.371898 1_546
As6 K1 3.387689 1_555
As6 K19 3.416765 1_555
As6 K12 3.430827 1_556
As6 K7 3.546585 1_555
As6 K18 3.555035 1_655
As6 K10 3.618927 1_545
As7 Hf0 2.600339 1_555
As7 K9 3.370089 1_555
As7 K4 3.371898 1_565
As7 K0 3.387689 1_555
As7 K18 3.416765 1_555
As7 K13 3.430827 1_555
As7 K6 3.546585 1_455
As7 K19 3.555035 1_555
As7 K11 3.618927 1_565
