# generated using pymatgen
data_RbMg2Zn2Sb3
_symmetry_space_group_name_H-M   'P 1'
_cell_length_a   4.61603124
_cell_length_b   4.47160260
_cell_length_c   11.25871908
_cell_angle_alpha   90.00000000
_cell_angle_beta   90.00000000
_cell_angle_gamma   90.00000000
_symmetry_Int_Tables_number   1
_chemical_formula_structural   RbMg2Zn2Sb3
_chemical_formula_sum   'Rb1 Mg2 Zn2 Sb3'
_cell_volume   232.39186538
_cell_formula_units_Z   1
loop_
 _symmetry_equiv_pos_site_id
 _symmetry_equiv_pos_as_xyz
  1  'x, y, z'
loop_
 _atom_site_type_symbol
 _atom_site_label
 _atom_site_symmetry_multiplicity
 _atom_site_fract_x
 _atom_site_fract_y
 _atom_site_fract_z
 _atom_site_occupancy
  Rb  Rb0  1  0.00000000  0.00000000  0.50000000  1
  Mg  Mg0  1  0.00000000  0.50000000  0.15754551  1
  Mg  Mg1  1  0.00000000  0.50000000  0.84245449  1
  Zn  Zn0  1  0.50000000  0.00000000  0.83548482  1
  Zn  Zn1  1  0.50000000  0.00000000  0.16451518  1
  Sb  Sb0  1  0.00000000  0.00000000  0.00000000  1
  Sb  Sb1  1  0.50000000  0.50000000  0.29856249  1
  Sb  Sb2  1  0.50000000  0.50000000  0.70143751  1
loop_
_geom_bond_atom_site_label_1
_geom_bond_atom_site_label_2
_geom_bond_distance
_geom_bond_site_symmetry_2
Rb0 Sb2 3.933096 1_545
Rb0 Sb2 3.933096 1_555
Rb0 Sb2 3.933096 1_455
Rb0 Sb2 3.933096 1_445
Rb0 Sb1 3.933096 1_445
Rb0 Sb1 3.933096 1_455
Rb0 Sb1 3.933096 1_545
Rb0 Sb1 3.933096 1_555
Mg0 Sb1 2.801363 1_455
Mg0 Sb1 2.801363 1_555
Mg0 Sb0 2.853951 1_565
Mg0 Sb0 2.853951 1_555
Mg0 Zn1 3.214327 1_455
Mg0 Zn1 3.214327 1_555
Mg0 Zn1 3.214327 1_465
Mg0 Zn1 3.214327 1_565
Mg1 Sb2 2.801363 1_555
Mg1 Sb2 2.801363 1_455
Mg1 Sb0 2.853951 1_566
Mg1 Sb0 2.853951 1_556
Mg1 Zn0 3.214327 1_565
Mg1 Zn0 3.214327 1_555
Mg1 Zn0 3.214327 1_455
Mg1 Zn0 3.214327 1_465
Sb0 Zn1 2.959340 1_455
Sb0 Zn1 2.959340 1_555
Sb0 Zn0 2.959340 1_554
Sb0 Zn0 2.959340 1_454
Sb1 Zn1 2.697498 1_555
Sb1 Zn1 2.697498 1_565
Sb2 Zn0 2.697498 1_555
Sb2 Zn0 2.697498 1_565
