# generated using pymatgen
data_MgNiBr18
_symmetry_space_group_name_H-M   'P 1'
_cell_length_a   8.82426937
_cell_length_b   8.82427037
_cell_length_c   8.82426894
_cell_angle_alpha   95.39194517
_cell_angle_beta   95.39194787
_cell_angle_gamma   95.39194674
_symmetry_Int_Tables_number   1
_chemical_formula_structural   MgNiBr18
_chemical_formula_sum   'Mg1 Ni1 Br18'
_cell_volume   677.38565321
_cell_formula_units_Z   1
loop_
 _symmetry_equiv_pos_site_id
 _symmetry_equiv_pos_as_xyz
  1  'x, y, z'
loop_
 _atom_site_type_symbol
 _atom_site_label
 _atom_site_symmetry_multiplicity
 _atom_site_fract_x
 _atom_site_fract_y
 _atom_site_fract_z
 _atom_site_occupancy
  Mg  Mg0  1  0.50000000  0.50000000  0.50000000  1
  Ni  Ni0  1  0.00000000  0.00000000  0.00000000  1
  Br  Br0  1  0.00174903  0.03919938  0.27296740  1
  Br  Br1  1  0.03919938  0.27296740  0.00174903  1
  Br  Br2  1  0.27296740  0.00174903  0.03919938  1
  Br  Br3  1  0.99824997  0.96080062  0.72703260  1
  Br  Br4  1  0.96080062  0.72703260  0.99824997  1
  Br  Br5  1  0.72703260  0.99824997  0.96080062  1
  Br  Br6  1  0.09763911  0.63254132  0.24278860  1
  Br  Br7  1  0.63254132  0.24278860  0.09763911  1
  Br  Br8  1  0.24278860  0.09763911  0.63254132  1
  Br  Br9  1  0.90236089  0.36745868  0.75721140  1
  Br  Br10  1  0.36745868  0.75721140  0.90236089  1
  Br  Br11  1  0.75721140  0.90236089  0.36745868  1
  Br  Br12  1  0.47391831  0.19999576  0.51915180  1
  Br  Br13  1  0.19999576  0.51915180  0.47391831  1
  Br  Br14  1  0.51915180  0.47391831  0.19999576  1
  Br  Br15  1  0.52608169  0.80000424  0.48084820  1
  Br  Br16  1  0.80000424  0.48084820  0.52608169  1
  Br  Br17  1  0.48084820  0.52608169  0.80000424  1
loop_
_geom_bond_atom_site_label_1
_geom_bond_atom_site_label_2
_geom_bond_distance
_geom_bond_site_symmetry_2
Br0 Ni0 2.399443 1_555
Br0 Br11 2.616748 1_445
Br1 Ni0 2.399444 1_555
Br1 Br9 2.616747 1_454
Br2 Ni0 2.399443 1_555
Br3 Ni0 2.399442 1_666
Br3 Br8 2.616755 1_665
Br4 Ni0 2.399443 1_666
Br4 Br6 2.616755 1_656
Br5 Ni0 2.399443 1_666
Br5 Br7 2.616755 1_566
Br10 Br17 2.486746 1_555
Br10 Br2 2.616748 1_566
Br11 Br15 2.486746 1_555
Br12 Br8 2.486746 1_555
Br12 Mg0 2.658329 1_555
Br13 Br6 2.486745 1_555
Br13 Mg0 2.658328 1_555
Br14 Br7 2.486746 1_555
Br14 Mg0 2.658328 1_555
Br15 Mg0 2.658329 1_555
Br16 Br9 2.486745 1_555
Br16 Mg0 2.658328 1_555
Br17 Mg0 2.658328 1_555
