# generated using pymatgen
data_Dy3Co11B4
_symmetry_space_group_name_H-M   'P 1'
_cell_length_a   5.02483856
_cell_length_b   5.02483856
_cell_length_c   9.75566400
_cell_angle_alpha   90.00000000
_cell_angle_beta   90.00000000
_cell_angle_gamma   120.00000732
_symmetry_Int_Tables_number   1
_chemical_formula_structural   Dy3Co11B4
_chemical_formula_sum   'Dy3 Co11 B4'
_cell_volume   213.32004144
_cell_formula_units_Z   1
loop_
 _symmetry_equiv_pos_site_id
 _symmetry_equiv_pos_as_xyz
  1  'x, y, z'
loop_
 _atom_site_type_symbol
 _atom_site_label
 _atom_site_symmetry_multiplicity
 _atom_site_fract_x
 _atom_site_fract_y
 _atom_site_fract_z
 _atom_site_occupancy
  Dy  Dy0  1  0.00000000  0.00000000  0.65836400  1
  Dy  Dy1  1  0.00000000  0.00000000  0.34163600  1
  Dy  Dy2  1  0.00000000  0.00000000  0.00000000  1
  Co  Co0  1  0.50000000  0.50000000  0.50000000  1
  Co  Co1  1  0.00000000  0.50000000  0.50000000  1
  Co  Co2  1  0.50000000  0.00000000  0.20251100  1
  Co  Co3  1  0.50000000  0.50000000  0.20251100  1
  Co  Co4  1  0.00000000  0.50000000  0.20251100  1
  Co  Co5  1  0.50000000  0.00000000  0.79748900  1
  Co  Co6  1  0.50000000  0.50000000  0.79748900  1
  Co  Co7  1  0.00000000  0.50000000  0.79748900  1
  Co  Co8  1  0.33333300  0.66666700  0.00000000  1
  Co  Co9  1  0.66666700  0.33333300  0.00000000  1
  Co  Co10  1  0.50000000  0.00000000  0.50000000  1
  B  B0  1  0.33333300  0.66666700  0.65027600  1
  B  B1  1  0.66666700  0.33333300  0.65027600  1
  B  B2  1  0.66666700  0.33333300  0.34972400  1
  B  B3  1  0.33333300  0.66666700  0.34972400  1
loop_
_geom_bond_atom_site_label_1
_geom_bond_atom_site_label_2
_geom_bond_distance
_geom_bond_site_symmetry_2
Co0 Dy0 2.949425 1_665
Co0 Dy0 2.949425 1_555
Co0 Dy1 2.949425 1_555
Co0 Dy1 2.949425 1_665
Co1 Dy0 2.949425 1_565
Co1 Dy0 2.949425 1_555
Co1 Dy1 2.949425 1_555
Co1 Dy1 2.949425 1_565
Co2 Co8 2.450957 1_545
Co2 Co9 2.450957 1_555
Co2 Dy1 2.855590 1_655
Co2 Dy1 2.855590 1_555
Co3 Co8 2.450960 1_555
Co3 Co9 2.450960 1_555
Co3 Dy1 2.855590 1_665
Co3 Dy1 2.855590 1_555
Co4 Co8 2.450957 1_555
Co4 Co9 2.450957 1_455
Co4 Dy1 2.855590 1_555
Co4 Dy1 2.855590 1_565
Co5 Co8 2.450957 1_546
Co5 Co9 2.450957 1_556
Co5 Dy0 2.855590 1_655
Co5 Dy0 2.855590 1_555
Co6 Co8 2.450960 1_556
Co6 Co9 2.450960 1_556
Co6 Dy0 2.855590 1_555
Co6 Dy0 2.855590 1_665
Co7 Co9 2.450957 1_456
Co7 Co8 2.450957 1_556
Co7 Dy0 2.855590 1_565
Co7 Dy0 2.855590 1_555
Co8 Dy2 2.901089 1_565
Co8 Dy2 2.901093 1_665
Co8 Dy2 2.901093 1_555
Co9 Dy2 2.901089 1_655
Co9 Dy2 2.901093 1_665
Co9 Dy2 2.901093 1_555
Co10 Dy0 2.949425 1_655
Co10 Dy0 2.949425 1_555
Co10 Dy1 2.949425 1_555
Co10 Dy1 2.949425 1_655
B0 Co5 2.041234 1_565
B0 Co7 2.041234 1_555
B0 Co6 2.041237 1_555
B0 Co1 2.062367 1_555
B0 Co10 2.062367 1_565
B0 Co0 2.062370 1_555
B0 Dy0 2.902162 1_565
B0 Dy0 2.902166 1_665
B0 Dy0 2.902166 1_555
B1 Co5 2.041234 1_555
B1 Co7 2.041234 1_655
B1 Co6 2.041237 1_555
B1 Co10 2.062367 1_555
B1 Co1 2.062367 1_655
B1 Co0 2.062370 1_555
B1 Dy0 2.902162 1_655
B1 Dy0 2.902166 1_665
B1 Dy0 2.902166 1_555
B2 Co2 2.041234 1_555
B2 Co4 2.041234 1_655
B2 Co3 2.041237 1_555
B2 Co1 2.062367 1_655
B2 Co10 2.062367 1_555
B2 Co0 2.062370 1_555
B2 Dy1 2.902162 1_655
B2 Dy1 2.902166 1_665
B2 Dy1 2.902166 1_555
B3 Co2 2.041234 1_565
B3 Co4 2.041234 1_555
B3 Co3 2.041237 1_555
B3 Co1 2.062367 1_555
B3 Co10 2.062367 1_565
B3 Co0 2.062370 1_555
B3 Dy1 2.902162 1_565
B3 Dy1 2.902166 1_665
B3 Dy1 2.902166 1_555
