# generated using pymatgen
data_LuAgIr2O7
_symmetry_space_group_name_H-M   'P 1'
_cell_length_a   7.11716763
_cell_length_b   7.07033807
_cell_length_c   7.11716693
_cell_angle_alpha   60.21741557
_cell_angle_beta   61.01332006
_cell_angle_gamma   60.21741798
_symmetry_Int_Tables_number   1
_chemical_formula_structural   LuAgIr2O7
_chemical_formula_sum   'Lu2 Ag2 Ir4 O14'
_cell_volume   255.97462760
_cell_formula_units_Z   2
loop_
 _symmetry_equiv_pos_site_id
 _symmetry_equiv_pos_as_xyz
  1  'x, y, z'
loop_
 _atom_site_type_symbol
 _atom_site_label
 _atom_site_symmetry_multiplicity
 _atom_site_fract_x
 _atom_site_fract_y
 _atom_site_fract_z
 _atom_site_occupancy
  Lu  Lu0  1  0.62500000  0.12500000  0.12500000  1
  Lu  Lu1  1  0.12500000  0.12500000  0.62500000  1
  Ag  Ag0  1  0.12500000  0.62500000  0.12500000  1
  Ag  Ag1  1  0.12500000  0.12500000  0.12500000  1
  Ir  Ir0  1  0.12500000  0.62500000  0.62500000  1
  Ir  Ir1  1  0.62500000  0.12500000  0.62500000  1
  Ir  Ir2  1  0.62500000  0.62500000  0.12500000  1
  Ir  Ir3  1  0.62500000  0.62500000  0.62500000  1
  O  O0  1  0.69108576  0.72203114  0.29595970  1
  O  O1  1  0.29595970  0.29092240  0.69108576  1
  O  O2  1  0.71536092  0.28463908  0.71536092  1
  O  O3  1  0.30203489  0.69796511  0.30203489  1
  O  O4  1  0.29595970  0.72203114  0.69108576  1
  O  O5  1  0.69108576  0.29092240  0.29595970  1
  O  O6  1  0.55891424  0.52796886  0.95404030  1
  O  O7  1  0.95404030  0.95907760  0.55891424  1
  O  O8  1  0.53463908  0.96536092  0.53463908  1
  O  O9  1  0.94796511  0.55203489  0.94796511  1
  O  O10  1  0.95404030  0.52796886  0.55891424  1
  O  O11  1  0.55891424  0.95907760  0.95404030  1
  O  O12  1  0.24765943  0.25234057  0.24765943  1
  O  O13  1  0.00234057  0.99765943  0.00234057  1
loop_
_geom_bond_atom_site_label_1
_geom_bond_atom_site_label_2
_geom_bond_distance
_geom_bond_site_symmetry_2
Lu0 O13 2.211698 1_645
Lu0 O12 2.211698 1_555
Lu0 O11 2.366168 1_544
Lu0 O5 2.366168 1_555
Lu0 O6 2.366174 1_554
Lu0 O0 2.366174 1_545
Lu0 O8 2.412952 1_545
Lu0 O2 2.412952 1_554
Lu1 O13 2.211698 1_546
Lu1 O12 2.211698 1_555
Lu1 O1 2.366168 1_555
Lu1 O7 2.366168 1_445
Lu1 O10 2.366174 1_455
Lu1 O4 2.366174 1_545
Lu1 O8 2.412952 1_545
Lu1 O2 2.412952 1_455
Ag0 O13 2.152929 1_555
Ag0 O12 2.152929 1_555
Ag0 O3 2.504283 1_555
Ag0 O9 2.504283 1_454
Ag0 O10 2.563388 1_455
Ag0 O4 2.563388 1_554
Ag0 O6 2.563388 1_554
Ag0 O0 2.563388 1_455
Ag1 O12 2.152929 1_555
Ag1 O13 2.152929 1_545
Ag1 O9 2.504283 1_454
Ag1 O3 2.504283 1_545
Ag1 O7 2.563387 1_445
Ag1 O1 2.563387 1_554
Ag1 O11 2.563388 1_544
Ag1 O5 2.563388 1_455
Ir0 O9 1.948830 1_455
Ir0 O3 1.948830 1_555
Ir0 O4 1.968966 1_555
Ir0 O10 1.968966 1_455
Ir0 O1 1.968972 1_555
Ir0 O7 1.968972 1_455
Ir1 O5 1.957813 1_555
Ir1 O11 1.957813 1_545
Ir1 O7 1.957814 1_545
Ir1 O1 1.957814 1_555
Ir1 O2 1.986010 1_555
Ir1 O8 1.986010 1_545
Ir2 O9 1.948830 1_554
Ir2 O3 1.948830 1_555
Ir2 O0 1.968966 1_555
Ir2 O6 1.968966 1_554
Ir2 O11 1.968972 1_554
Ir2 O5 1.968972 1_555
Ir3 O6 1.957814 1_555
Ir3 O0 1.957814 1_555
Ir3 O10 1.957815 1_555
Ir3 O4 1.957815 1_555
Ir3 O8 1.986010 1_555
Ir3 O2 1.986010 1_555
