# generated using pymatgen
data_Ba(CaSb)2
_symmetry_space_group_name_H-M   'P 1'
_cell_length_a   5.19547862
_cell_length_b   5.19547803
_cell_length_c   8.41572195
_cell_angle_alpha   90.00000000
_cell_angle_beta   90.00000000
_cell_angle_gamma   119.99999742
_symmetry_Int_Tables_number   1
_chemical_formula_structural   Ba(CaSb)2
_chemical_formula_sum   'Ba1 Ca2 Sb2'
_cell_volume   196.73113452
_cell_formula_units_Z   1
loop_
 _symmetry_equiv_pos_site_id
 _symmetry_equiv_pos_as_xyz
  1  'x, y, z'
loop_
 _atom_site_type_symbol
 _atom_site_label
 _atom_site_symmetry_multiplicity
 _atom_site_fract_x
 _atom_site_fract_y
 _atom_site_fract_z
 _atom_site_occupancy
  Ba  Ba0  1  0.00000000  0.00000000  0.00000000  1
  Ca  Ca0  1  0.66666700  0.33333300  0.36361512  1
  Ca  Ca1  1  0.33333300  0.66666700  0.63638488  1
  Sb  Sb0  1  0.33333300  0.66666700  0.25165972  1
  Sb  Sb1  1  0.66666700  0.33333300  0.74834028  1
loop_
_geom_bond_atom_site_label_1
_geom_bond_atom_site_label_2
_geom_bond_distance
_geom_bond_site_symmetry_2
Ba0 Sb0 3.671940 1_545
Ba0 Sb1 3.671940 1_454
Ba0 Sb0 3.671943 1_555
Ba0 Sb1 3.671943 1_444
Ba0 Sb0 3.671943 1_445
Ba0 Sb1 3.671943 1_554
Ca0 Sb0 3.144099 1_545
Ca0 Sb0 3.144100 1_655
Ca0 Sb0 3.144108 1_555
Ca0 Sb1 3.237740 1_555
Ca1 Sb1 3.144099 1_565
Ca1 Sb1 3.144100 1_455
Ca1 Sb1 3.144108 1_555
Ca1 Sb0 3.237740 1_555
