# generated using pymatgen
data_Ta10SiB4P
_symmetry_space_group_name_H-M   'P 1'
_cell_length_a   7.23728619
_cell_length_b   7.23728523
_cell_length_c   7.23728520
_cell_angle_alpha   129.30916366
_cell_angle_beta   129.30916367
_cell_angle_gamma   74.51363473
_symmetry_Int_Tables_number   1
_chemical_formula_structural   Ta10SiB4P
_chemical_formula_sum   'Ta10 Si1 B4 P1'
_cell_volume   221.15688921
_cell_formula_units_Z   1
loop_
 _symmetry_equiv_pos_site_id
 _symmetry_equiv_pos_as_xyz
  1  'x, y, z'
loop_
 _atom_site_type_symbol
 _atom_site_label
 _atom_site_symmetry_multiplicity
 _atom_site_fract_x
 _atom_site_fract_y
 _atom_site_fract_z
 _atom_site_occupancy
  Ta  Ta0  1  0.00098771  0.00098771  0.00000000  1
  Ta  Ta1  1  0.49901229  0.49901229  1.00000000  1
  Ta  Ta2  1  0.80599282  0.30827243  0.83415157  1
  Ta  Ta3  1  0.19172757  0.69400718  0.16584843  1
  Ta  Ta4  1  0.47412185  0.97184125  0.16584843  1
  Ta  Ta5  1  0.30827243  0.47412185  0.50227961  1
  Ta  Ta6  1  0.02587815  0.19172757  0.49772039  1
  Ta  Ta7  1  0.52815875  0.02587815  0.83415157  1
  Ta  Ta8  1  0.69400718  0.52815875  0.50227961  1
  Ta  Ta9  1  0.97184125  0.80599282  0.49772039  1
  Si  Si0  1  0.25000000  0.25000000  0.00000000  1
  B  B0  1  0.11712968  0.61712968  0.73425836  1
  B  B1  1  0.88287032  0.38287032  0.26574164  1
  B  B2  1  0.61712968  0.88287032  0.50000000  1
  B  B3  1  0.38287032  0.11712968  0.50000000  1
  P  P0  1  0.75000000  0.75000000  0.00000000  1
loop_
_geom_bond_atom_site_label_1
_geom_bond_atom_site_label_2
_geom_bond_distance
_geom_bond_site_symmetry_2
Si0 Ta6 2.641081 1_554
Si0 Ta5 2.641081 1_555
Si0 Ta9 2.641082 1_444
Si0 Ta8 2.641082 1_555
Si0 Ta3 2.641082 1_555
Si0 Ta2 2.641083 1_454
Si0 Ta4 2.641084 1_545
Si0 Ta7 2.641084 1_554
Si0 Ta1 2.868807 1_554
Si0 Ta0 2.868807 1_555
B0 B1 2.052745 1_455
B0 Ta5 2.404167 1_555
B0 Ta8 2.404173 1_455
B0 Ta9 2.412678 1_455
B0 Ta6 2.412687 1_555
B0 Ta0 2.480898 1_566
B0 Ta1 2.480898 1_555
B0 Ta4 2.485837 1_556
B0 Ta3 2.485841 1_556
B1 Ta6 2.404167 1_655
B1 Ta9 2.404173 1_555
B1 Ta8 2.412678 1_555
B1 Ta5 2.412687 1_655
B1 Ta0 2.480898 1_655
B1 Ta1 2.480898 1_554
B1 Ta7 2.485837 1_554
B1 Ta2 2.485841 1_554
B2 B3 2.052754 1_565
B2 Ta4 2.404173 1_555
B2 Ta7 2.404173 1_565
B2 Ta2 2.412684 1_565
B2 Ta3 2.412684 1_555
B2 Ta1 2.480896 1_554
B2 Ta0 2.480896 1_666
B2 Ta8 2.485834 1_555
B2 Ta9 2.485834 1_555
B3 Ta3 2.404171 1_545
B3 Ta2 2.404171 1_555
B3 Ta7 2.412690 1_555
B3 Ta4 2.412690 1_545
B3 Ta1 2.480896 1_555
B3 Ta0 2.480896 1_555
B3 Ta5 2.485841 1_555
B3 Ta6 2.485841 1_555
P0 Ta7 2.624455 1_564
P0 Ta4 2.624455 1_555
P0 Ta6 2.624459 1_665
P0 Ta5 2.624459 1_554
P0 Ta9 2.624461 1_555
P0 Ta8 2.624461 1_554
P0 Ta2 2.624461 1_554
P0 Ta3 2.624461 1_655
P0 Ta0 2.891565 1_665
P0 Ta1 2.891565 1_554
