# generated using pymatgen
data_Rb4P21I
_symmetry_space_group_name_H-M   'P 1'
_cell_length_a   12.96024821
_cell_length_b   12.96024821
_cell_length_c   9.86671281
_cell_angle_alpha   90.00000000
_cell_angle_beta   90.00000000
_cell_angle_gamma   116.32616321
_symmetry_Int_Tables_number   1
_chemical_formula_structural   Rb4P21I
_chemical_formula_sum   'Rb8 P42 I2'
_cell_volume   1485.40464197
_cell_formula_units_Z   2
loop_
 _symmetry_equiv_pos_site_id
 _symmetry_equiv_pos_as_xyz
  1  'x, y, z'
loop_
 _atom_site_type_symbol
 _atom_site_label
 _atom_site_symmetry_multiplicity
 _atom_site_fract_x
 _atom_site_fract_y
 _atom_site_fract_z
 _atom_site_occupancy
  Rb  Rb0  1  0.24055975  0.06767093  0.25000000  1
  Rb  Rb1  1  0.75944025  0.93232907  0.75000000  1
  Rb  Rb2  1  0.06767093  0.24055975  0.25000000  1
  Rb  Rb3  1  0.93232907  0.75944025  0.75000000  1
  Rb  Rb4  1  0.38036165  0.61963835  0.50000000  1
  Rb  Rb5  1  0.61963835  0.38036165  0.00000000  1
  Rb  Rb6  1  0.61963835  0.38036165  0.50000000  1
  Rb  Rb7  1  0.38036165  0.61963835  0.00000000  1
  P  P0  1  0.95034422  0.95034422  0.25000000  1
  P  P1  1  0.04965578  0.04965578  0.75000000  1
  P  P2  1  0.66158857  0.20144869  0.25000000  1
  P  P3  1  0.33841143  0.79855131  0.75000000  1
  P  P4  1  0.20144869  0.66158857  0.25000000  1
  P  P5  1  0.79855131  0.33841143  0.75000000  1
  P  P6  1  0.31530527  0.01400929  0.92301106  1
  P  P7  1  0.68469473  0.98599071  0.42301106  1
  P  P8  1  0.01400929  0.31530527  0.57698894  1
  P  P9  1  0.98599071  0.68469473  0.07698894  1
  P  P10  1  0.05819501  0.50139938  0.91564361  1
  P  P11  1  0.94180499  0.49860062  0.41564361  1
  P  P12  1  0.50139938  0.05819501  0.58435639  1
  P  P13  1  0.49860062  0.94180499  0.08435639  1
  P  P14  1  0.94180499  0.49860062  0.08435639  1
  P  P15  1  0.05819501  0.50139938  0.58435639  1
  P  P16  1  0.49860062  0.94180499  0.41564361  1
  P  P17  1  0.50139938  0.05819501  0.91564361  1
  P  P18  1  0.15260488  0.15260488  0.91240065  1
  P  P19  1  0.84739512  0.84739512  0.41240065  1
  P  P20  1  0.15260488  0.15260488  0.58759935  1
  P  P21  1  0.84739512  0.84739512  0.08759935  1
  P  P22  1  0.94453170  0.50452153  0.75000000  1
  P  P23  1  0.05546830  0.49547847  0.25000000  1
  P  P24  1  0.50452153  0.94453170  0.75000000  1
  P  P25  1  0.49547847  0.05546830  0.25000000  1
  P  P26  1  0.89126492  0.23780716  0.75000000  1
  P  P27  1  0.10873508  0.76219284  0.25000000  1
  P  P28  1  0.23780716  0.89126492  0.75000000  1
  P  P29  1  0.76219284  0.10873508  0.25000000  1
  P  P30  1  0.18305308  0.33160668  0.86433932  1
  P  P31  1  0.81694692  0.66839332  0.36433932  1
  P  P32  1  0.33160668  0.18305308  0.63566068  1
  P  P33  1  0.66839332  0.81694692  0.13566068  1
  P  P34  1  0.81694692  0.66839332  0.13566068  1
  P  P35  1  0.18305308  0.33160668  0.63566068  1
  P  P36  1  0.66839332  0.81694692  0.36433932  1
  P  P37  1  0.33160668  0.18305308  0.86433932  1
  P  P38  1  0.01400929  0.31530527  0.92301106  1
  P  P39  1  0.98599071  0.68469473  0.42301106  1
  P  P40  1  0.31530527  0.01400929  0.57698894  1
  P  P41  1  0.68469473  0.98599071  0.07698894  1
  I  I0  1  0.39539976  0.39539976  0.25000000  1
  I  I1  1  0.60460024  0.60460024  0.75000000  1
loop_
_geom_bond_atom_site_label_1
_geom_bond_atom_site_label_2
_geom_bond_distance
_geom_bond_site_symmetry_2
P0 P19 2.132840 1_555
P0 P21 2.132840 1_555
P0 Rb2 3.374386 1_665
P0 Rb0 3.374386 1_665
P1 P18 2.132840 1_555
P1 P20 2.132840 1_555
P1 Rb1 3.374386 1_445
P1 Rb3 3.374386 1_445
P2 P29 2.129194 1_555
P2 P25 2.145110 1_555
P2 Rb6 3.588160 1_555
P2 Rb5 3.588160 1_555
P3 Rb4 3.588160 1_555
P3 Rb7 3.588160 1_556
P4 Rb4 3.588160 1_555
P4 Rb7 3.588160 1_555
P5 Rb5 3.588160 1_556
P5 Rb6 3.588160 1_555
P6 Rb0 3.525437 1_556
P7 Rb1 3.525437 1_555
P8 Rb2 3.525437 1_555
P9 Rb3 3.525437 1_554
P10 P22 2.212616 1_455
P10 P38 2.219256 1_555
P10 P14 2.235893 1_456
P10 Rb7 3.847021 1_556
P11 P23 2.212616 1_655
P11 P39 2.219256 1_555
P11 P15 2.235893 1_655
P11 Rb6 3.847021 1_555
P12 P24 2.212616 1_545
P12 P40 2.219256 1_555
P12 P16 2.235893 1_545
P12 Rb6 3.847021 1_555
P13 P25 2.212616 1_565
P13 P41 2.219256 1_555
P13 P17 2.235893 1_564
P13 Rb7 3.847021 1_555
P14 P23 2.212616 1_655
P14 P9 2.219256 1_555
P14 Rb5 3.847021 1_555
P15 P22 2.212616 1_455
P15 P8 2.219256 1_555
P15 Rb4 3.847021 1_555
P16 P25 2.212616 1_565
P16 P7 2.219256 1_555
P16 Rb4 3.847021 1_555
P17 P24 2.212616 1_545
P17 P6 2.219256 1_555
P17 Rb5 3.847021 1_556
P18 P37 2.224989 1_555
P18 P30 2.224989 1_555
P18 Rb2 3.836609 1_556
P18 Rb0 3.836609 1_556
P19 P31 2.224989 1_555
P19 P36 2.224989 1_555
P19 Rb1 3.836609 1_555
P19 Rb3 3.836609 1_555
P20 P35 2.224989 1_555
P20 P32 2.224989 1_555
P20 Rb0 3.836609 1_555
P20 Rb2 3.836609 1_555
P21 P34 2.224989 1_555
P21 P33 2.224989 1_555
P21 Rb3 3.836609 1_554
P21 Rb1 3.836609 1_554
P22 P5 2.145110 1_555
P22 Rb3 3.376922 1_555
P23 P4 2.145110 1_555
P23 Rb2 3.376922 1_555
P24 P3 2.145110 1_555
P24 Rb1 3.376922 1_555
P25 Rb0 3.376922 1_555
P26 P5 2.129194 1_555
P26 P8 2.244168 1_655
P26 P38 2.244168 1_655
P26 Rb1 3.548768 1_545
P27 P4 2.129194 1_555
P27 P39 2.244168 1_455
P27 P9 2.244168 1_455
P27 Rb0 3.548768 1_565
P28 P3 2.129194 1_555
P28 P6 2.244168 1_565
P28 P40 2.244168 1_565
P28 Rb3 3.548768 1_455
P29 P41 2.244168 1_545
P29 P7 2.244168 1_545
P29 Rb2 3.548768 1_655
P30 P38 2.183813 1_555
P30 P35 2.256306 1_555
P30 Rb7 3.714701 1_556
P31 P39 2.183813 1_555
P31 P34 2.256306 1_555
P31 Rb6 3.714701 1_555
P32 P40 2.183813 1_555
P32 P37 2.256306 1_555
P32 Rb6 3.714701 1_555
P33 P41 2.183813 1_555
P33 P36 2.256306 1_555
P33 Rb7 3.714701 1_555
P34 P9 2.183813 1_555
P34 Rb5 3.714701 1_555
P35 P8 2.183813 1_555
P35 Rb4 3.714701 1_555
P36 P7 2.183813 1_555
P36 Rb4 3.714701 1_555
P37 P6 2.183813 1_555
P37 Rb5 3.714701 1_556
P38 Rb2 3.525437 1_556
P39 Rb3 3.525437 1_555
P40 Rb0 3.525437 1_555
P41 Rb1 3.525437 1_554
I0 Rb2 3.808909 1_555
I0 Rb0 3.808909 1_555
I0 Rb4 3.882112 1_555
I0 Rb6 3.882112 1_555
I0 Rb7 3.882112 1_555
I0 Rb5 3.882112 1_555
I1 Rb1 3.808909 1_555
I1 Rb3 3.808909 1_555
I1 Rb4 3.882112 1_555
I1 Rb6 3.882112 1_555
I1 Rb7 3.882112 1_556
I1 Rb5 3.882112 1_556
