# generated using pymatgen
data_Er(Fe2Ge)2
_symmetry_space_group_name_H-M   'P 1'
_cell_length_a   7.20436200
_cell_length_b   7.20436200
_cell_length_c   3.87609200
_cell_angle_alpha   90.00000000
_cell_angle_beta   90.00000000
_cell_angle_gamma   90.00000000
_symmetry_Int_Tables_number   1
_chemical_formula_structural   Er(Fe2Ge)2
_chemical_formula_sum   'Er2 Fe8 Ge4'
_cell_volume   201.18015122
_cell_formula_units_Z   2
loop_
 _symmetry_equiv_pos_site_id
 _symmetry_equiv_pos_as_xyz
  1  'x, y, z'
loop_
 _atom_site_type_symbol
 _atom_site_label
 _atom_site_symmetry_multiplicity
 _atom_site_fract_x
 _atom_site_fract_y
 _atom_site_fract_z
 _atom_site_occupancy
  Er  Er0  1  0.50000000  0.50000000  0.00000000  1
  Er  Er1  1  0.00000000  0.00000000  0.50000000  1
  Fe  Fe0  1  0.40777400  0.85573200  0.50000000  1
  Fe  Fe1  1  0.85573200  0.40777400  0.50000000  1
  Fe  Fe2  1  0.64426800  0.90777400  0.00000000  1
  Fe  Fe3  1  0.35573200  0.09222600  0.00000000  1
  Fe  Fe4  1  0.90777400  0.64426800  0.00000000  1
  Fe  Fe5  1  0.14426800  0.59222600  0.50000000  1
  Fe  Fe6  1  0.59222600  0.14426800  0.50000000  1
  Fe  Fe7  1  0.09222600  0.35573200  0.00000000  1
  Ge  Ge0  1  0.21496700  0.78503300  0.00000000  1
  Ge  Ge1  1  0.71496700  0.71496700  0.50000000  1
  Ge  Ge2  1  0.78503300  0.21496700  0.00000000  1
  Ge  Ge3  1  0.28503300  0.28503300  0.50000000  1
loop_
_geom_bond_atom_site_label_1
_geom_bond_atom_site_label_2
_geom_bond_distance
_geom_bond_site_symmetry_2
Er0 Ge2 2.904061 1_555
Er0 Ge0 2.904061 1_555
Er0 Ge1 2.924545 1_554
Er0 Ge1 2.924545 1_555
Er0 Ge3 2.924545 1_555
Er0 Ge3 2.924545 1_554
Er0 Fe2 3.116192 1_555
Er0 Fe4 3.116192 1_555
Er0 Fe3 3.116192 1_555
Er0 Fe7 3.116192 1_555
Er0 Fe1 3.281089 1_554
Er0 Fe0 3.281089 1_555
Er0 Fe0 3.281089 1_554
Er0 Fe1 3.281089 1_555
Er0 Fe5 3.281089 1_554
Er0 Fe6 3.281089 1_555
Er0 Fe5 3.281089 1_555
Er0 Fe6 3.281089 1_554
Er1 Ge3 2.904061 1_555
Er1 Ge1 2.904061 1_445
Er1 Ge2 2.924545 1_456
Er1 Ge0 2.924545 1_545
Er1 Ge0 2.924545 1_546
Er1 Ge2 2.924545 1_455
Er1 Fe0 3.116192 1_545
Er1 Fe1 3.116192 1_455
Er1 Fe6 3.116192 1_455
Er1 Fe5 3.116192 1_545
Er1 Fe3 3.281089 1_555
Er1 Fe3 3.281089 1_556
Er1 Fe7 3.281089 1_555
Er1 Fe7 3.281089 1_556
Er1 Fe4 3.281089 1_446
Er1 Fe2 3.281089 1_445
Er1 Fe2 3.281089 1_446
Er1 Fe4 3.281089 1_445
Fe0 Ge1 2.434417 1_555
Fe0 Ge0 2.438220 1_555
Fe0 Ge0 2.438220 1_556
Fe1 Ge1 2.434417 1_555
Fe1 Ge2 2.438220 1_556
Fe1 Ge2 2.438220 1_555
Fe2 Ge2 2.434417 1_565
Fe2 Ge1 2.438220 1_555
Fe2 Ge1 2.438220 1_554
Fe3 Ge0 2.434417 1_545
Fe3 Ge3 2.438220 1_554
Fe3 Ge3 2.438220 1_555
Fe4 Ge0 2.434417 1_655
Fe4 Ge1 2.438220 1_555
Fe4 Ge1 2.438220 1_554
Fe5 Ge3 2.434417 1_555
Fe5 Ge0 2.438220 1_555
Fe5 Ge0 2.438220 1_556
Fe6 Ge3 2.434417 1_555
Fe6 Ge2 2.438220 1_556
Fe6 Ge2 2.438220 1_555
Fe7 Ge2 2.434417 1_455
Fe7 Ge3 2.438220 1_554
Fe7 Ge3 2.438220 1_555
