# generated using pymatgen
data_HfTi(As2O7)2
_symmetry_space_group_name_H-M   'P 1'
_cell_length_a   5.31579243
_cell_length_b   5.40598274
_cell_length_c   9.63810821
_cell_angle_alpha   80.76486179
_cell_angle_beta   81.55967552
_cell_angle_gamma   98.32645314
_symmetry_Int_Tables_number   1
_chemical_formula_structural   HfTi(As2O7)2
_chemical_formula_sum   'Hf1 Ti1 As4 O14'
_cell_volume   266.36883880
_cell_formula_units_Z   1
loop_
 _symmetry_equiv_pos_site_id
 _symmetry_equiv_pos_as_xyz
  1  'x, y, z'
loop_
 _atom_site_type_symbol
 _atom_site_label
 _atom_site_symmetry_multiplicity
 _atom_site_fract_x
 _atom_site_fract_y
 _atom_site_fract_z
 _atom_site_occupancy
  Hf  Hf0  1  0.00000000  0.00000000  0.00000000  1
  Ti  Ti0  1  0.00000000  0.00000000  0.50000000  1
  As  As0  1  0.17368359  0.43764391  0.20672189  1
  As  As1  1  0.44733450  0.17119969  0.69388843  1
  As  As2  1  0.55266550  0.82880031  0.30611157  1
  As  As3  1  0.82631641  0.56235609  0.79327811  1
  O  O0  1  0.07795772  0.70301796  0.13549774  1
  O  O1  1  0.76744768  0.74565781  0.91376768  1
  O  O2  1  0.30540924  0.97766377  0.84757772  1
  O  O3  1  0.02985562  0.71246126  0.64330079  1
  O  O4  1  0.46918490  0.52985720  0.25992440  1
  O  O5  1  0.72028760  0.07933072  0.62756872  1
  O  O6  1  0.74727205  0.77618932  0.42507140  1
  O  O7  1  0.25272795  0.22381068  0.57492860  1
  O  O8  1  0.23255232  0.25434219  0.08623232  1
  O  O9  1  0.69459076  0.02233623  0.15242228  1
  O  O10  1  0.92204228  0.29698204  0.86450226  1
  O  O11  1  0.97014438  0.28753874  0.35669921  1
  O  O12  1  0.27971240  0.92066928  0.37243128  1
  O  O13  1  0.53081510  0.47014280  0.74007560  1
loop_
_geom_bond_atom_site_label_1
_geom_bond_atom_site_label_2
_geom_bond_distance
_geom_bond_site_symmetry_2
Hf0 O0 2.033071 1_545
Hf0 O10 2.033071 1_454
Hf0 O2 2.054757 1_544
Hf0 O9 2.054757 1_455
Hf0 O8 2.070170 1_555
Hf0 O1 2.070170 1_444
As0 O8 1.667618 1_555
As0 O0 1.669176 1_555
As0 O11 1.681875 1_455
As0 O4 1.752322 1_555
As1 O7 1.671635 1_555
As1 O5 1.672978 1_555
As1 O2 1.674481 1_545
As1 O13 1.757272 1_555
As2 O6 1.671635 1_555
As2 O12 1.672978 1_555
As2 O9 1.674481 1_565
As2 O4 1.757272 1_555
As3 O1 1.667618 1_555
As3 O10 1.669176 1_555
As3 O3 1.681875 1_655
As3 O13 1.752322 1_555
O3 Ti0 1.948258 1_565
O5 Ti0 1.929703 1_655
O6 Ti0 1.970983 1_665
O7 Ti0 1.970983 1_555
O11 Ti0 1.948258 1_655
O12 Ti0 1.929703 1_565
