# generated using pymatgen
data_Zn3FeP7N12
_symmetry_space_group_name_H-M   'P 1'
_cell_length_a   7.08918758
_cell_length_b   7.07209248
_cell_length_c   7.08918806
_cell_angle_alpha   109.42238051
_cell_angle_beta   109.52002116
_cell_angle_gamma   109.42238543
_symmetry_Int_Tables_number   1
_chemical_formula_structural   Zn3FeP7N12
_chemical_formula_sum   'Zn3 Fe1 P7 N12'
_cell_volume   273.76654307
_cell_formula_units_Z   1
loop_
 _symmetry_equiv_pos_site_id
 _symmetry_equiv_pos_as_xyz
  1  'x, y, z'
loop_
 _atom_site_type_symbol
 _atom_site_label
 _atom_site_symmetry_multiplicity
 _atom_site_fract_x
 _atom_site_fract_y
 _atom_site_fract_z
 _atom_site_occupancy
  Zn  Zn0  1  0.67743809  0.67777785  0.67743809  1
  Zn  Zn1  1  0.32256191  0.00034077  0.00000000  1
  Zn  Zn2  1  0.00000000  0.00034077  0.32256191  1
  Fe  Fe0  1  0.00000000  0.33904252  0.00000000  1
  P  P0  1  0.75005161  0.24834849  0.49797536  1
  P  P1  1  0.25207624  0.75037313  0.50202464  1
  P  P2  1  0.50202464  0.75037313  0.25207624  1
  P  P3  1  0.49797536  0.24834849  0.75005161  1
  P  P4  1  0.74792376  0.49829689  0.24994839  1
  P  P5  1  0.24994839  0.49829689  0.74792376  1
  P  P6  1  1.00000000  0.01014257  1.00000000  1
  N  N0  1  0.55613536  0.26826545  0.00000000  1
  N  N1  1  0.44832506  0.44718893  0.71982867  1
  N  N2  1  0.00000000  0.26826545  0.55613536  1
  N  N3  1  0.27150462  0.99886388  0.55167494  1
  N  N4  1  0.71982867  0.44718893  0.44832506  1
  N  N5  1  0.00000000  0.55123141  0.27086084  1
  N  N6  1  0.55167494  0.99886388  0.27150462  1
  N  N7  1  0.44386464  0.71213009  0.44386464  1
  N  N8  1  0.27086084  0.55123141  0.00000000  1
  N  N9  1  0.72913916  0.28037056  0.72913916  1
  N  N10  1  0.72849538  0.72736026  0.28017133  1
  N  N11  1  0.28017133  0.72736026  0.72849538  1
loop_
_geom_bond_atom_site_label_1
_geom_bond_atom_site_label_2
_geom_bond_distance
_geom_bond_site_symmetry_2
Fe0 N8 2.005647 1_555
Fe0 N9 2.005647 1_454
Fe0 N5 2.005647 1_555
Fe0 P6 2.326011 1_454
P6 Zn1 2.310678 1_656
P6 Zn2 2.310678 1_656
P6 Zn0 2.310680 1_545
N0 P4 1.623804 1_555
N0 P3 1.623804 1_554
N0 Zn1 2.060446 1_555
N1 P5 1.620318 1_555
N1 P3 1.620618 1_555
N1 Zn0 2.068409 1_555
N2 P5 1.623803 1_555
N2 P0 1.623804 1_455
N2 Zn2 2.060447 1_555
N3 P3 1.620315 1_565
N3 P1 1.620615 1_555
N3 Zn2 2.068418 1_565
N4 P4 1.620318 1_555
N4 P0 1.620618 1_555
N4 Zn0 2.068409 1_555
N5 P1 1.642157 1_555
N5 P4 1.642157 1_455
N6 P0 1.620315 1_565
N6 P2 1.620615 1_555
N6 Zn1 2.068418 1_565
N7 P1 1.623804 1_555
N7 P2 1.623804 1_555
N7 Zn0 2.060451 1_555
N8 P2 1.642157 1_555
N8 P5 1.642157 1_554
N9 P3 1.642157 1_555
N9 P0 1.642157 1_555
N10 P2 1.620311 1_555
N10 P4 1.620621 1_555
N10 Zn2 2.068417 1_665
N11 P1 1.620311 1_555
N11 P5 1.620621 1_555
N11 Zn1 2.068417 1_566
