# generated using pymatgen
data_Sr3Ca(Sn2Pd)4
_symmetry_space_group_name_H-M   'P 1'
_cell_length_a   9.02280050
_cell_length_b   9.02279945
_cell_length_c   9.71817947
_cell_angle_alpha   90.00000000
_cell_angle_beta   90.00000000
_cell_angle_gamma   149.31103258
_symmetry_Int_Tables_number   1
_chemical_formula_structural   Sr3Ca(Sn2Pd)4
_chemical_formula_sum   'Sr3 Ca1 Sn8 Pd4'
_cell_volume   403.79316008
_cell_formula_units_Z   1
loop_
 _symmetry_equiv_pos_site_id
 _symmetry_equiv_pos_as_xyz
  1  'x, y, z'
loop_
 _atom_site_type_symbol
 _atom_site_label
 _atom_site_symmetry_multiplicity
 _atom_site_fract_x
 _atom_site_fract_y
 _atom_site_fract_z
 _atom_site_occupancy
  Sr  Sr0  1  0.50018253  0.49981747  0.49898483  1
  Sr  Sr1  1  0.50018253  0.49981747  0.00101517  1
  Sr  Sr2  1  0.69982070  0.30017930  0.75000000  1
  Ca  Ca0  1  0.30072224  0.69927776  0.25000000  1
  Sn  Sn0  1  0.90761989  0.09238011  0.75000000  1
  Sn  Sn1  1  0.92564911  0.07435089  0.25000000  1
  Sn  Sn2  1  0.09101375  0.90898625  0.25000000  1
  Sn  Sn3  1  0.07099396  0.92900604  0.75000000  1
  Sn  Sn4  1  0.69757237  0.30242763  0.40288866  1
  Sn  Sn5  1  0.30390918  0.69609082  0.59217693  1
  Sn  Sn6  1  0.30390918  0.69609082  0.90782307  1
  Sn  Sn7  1  0.69757237  0.30242763  0.09711134  1
  Pd  Pd0  1  0.15076807  0.84923193  0.50348690  1
  Pd  Pd1  1  0.84965753  0.15034247  0.00650795  1
  Pd  Pd2  1  0.15076807  0.84923193  0.99651310  1
  Pd  Pd3  1  0.84965753  0.15034247  0.49349205  1
loop_
_geom_bond_atom_site_label_1
_geom_bond_atom_site_label_2
_geom_bond_distance
_geom_bond_site_symmetry_2
Ca0 Sn1 3.229106 1_455
Ca0 Sn1 3.229106 1_565
Ca0 Sn5 3.325799 1_555
Ca0 Sn6 3.325799 1_554
Ca0 Sn4 3.336250 1_565
Ca0 Sn7 3.336250 1_565
Ca0 Sn4 3.336251 1_455
Ca0 Sn7 3.336251 1_455
Ca0 Pd3 3.467759 1_455
Ca0 Pd1 3.467759 1_455
Ca0 Pd3 3.467759 1_565
Ca0 Pd1 3.467759 1_565
Ca0 Pd0 3.588627 1_555
Ca0 Pd2 3.588627 1_554
Ca0 Sn2 3.649413 1_555
Sn0 Sn3 2.843087 1_645
Sn0 Sr2 3.616187 1_555
Sn0 Sr1 3.774412 1_546
Sn0 Sr0 3.774412 1_545
Sn0 Sr1 3.774413 1_656
Sn0 Sr0 3.774413 1_655
Sn1 Sn2 2.877728 1_645
Sn1 Sr0 3.638402 1_545
Sn1 Sr1 3.638402 1_545
Sn1 Sr0 3.638403 1_655
Sn1 Sr1 3.638403 1_655
Sn2 Sr0 3.748887 1_565
Sn2 Sr1 3.748887 1_565
Sn2 Sr0 3.748887 1_455
Sn2 Sr1 3.748887 1_455
Sn3 Sr2 3.275182 1_455
Sn3 Sr2 3.275182 1_565
Sn3 Sr1 3.629052 1_566
Sn3 Sr0 3.629052 1_565
Sn3 Sr1 3.629053 1_456
Sn3 Sr0 3.629053 1_455
Sn4 Sn7 2.971599 1_555
Sn4 Sr2 3.373517 1_555
Sn4 Sr0 3.559724 1_555
Sn5 Sn6 3.067506 1_555
Sn5 Sr2 3.366641 1_565
Sn5 Sr2 3.366642 1_455
Sn5 Sr0 3.533640 1_555
Sn6 Sr2 3.366641 1_565
Sn6 Sr2 3.366642 1_455
Sn6 Sr1 3.533640 1_556
Sn7 Sr2 3.373517 1_554
Sn7 Sr1 3.559724 1_555
Pd0 Sn2 2.673913 1_555
Pd0 Sn4 2.705542 1_455
Pd0 Sn4 2.705542 1_565
Pd0 Sn3 2.768832 1_555
Pd0 Sn5 2.800921 1_555
Pd0 Sr2 3.488358 1_455
Pd0 Sr2 3.488358 1_565
Pd0 Sr0 3.545406 1_565
Pd0 Sr0 3.545407 1_455
Pd1 Sn0 2.689133 1_554
Pd1 Sn6 2.693390 1_654
Pd1 Sn6 2.693390 1_544
Pd1 Sn1 2.710755 1_555
Pd1 Sn7 2.789256 1_555
Pd1 Sr1 3.544759 1_545
Pd1 Sr1 3.544760 1_655
Pd1 Sr2 3.607368 1_554
Pd2 Sn2 2.673913 1_556
Pd2 Sn7 2.705542 1_456
Pd2 Sn7 2.705542 1_566
Pd2 Sn3 2.768832 1_555
Pd2 Sn6 2.800921 1_555
Pd2 Sr2 3.488358 1_455
Pd2 Sr2 3.488358 1_565
Pd2 Sr1 3.545406 1_566
Pd2 Sr1 3.545407 1_456
Pd3 Sn0 2.689133 1_555
Pd3 Sn5 2.693390 1_655
Pd3 Sn5 2.693390 1_545
Pd3 Sn1 2.710755 1_555
Pd3 Sn4 2.789256 1_555
Pd3 Sr0 3.544759 1_545
Pd3 Sr0 3.544760 1_655
Pd3 Sr2 3.607368 1_555
