# generated using pymatgen
data_Rb4Mg3Mn3Te8
_symmetry_space_group_name_H-M   'P 1'
_cell_length_a   10.51718349
_cell_length_b   10.51630772
_cell_length_c   10.51718445
_cell_angle_alpha   143.83845627
_cell_angle_beta   104.69869487
_cell_angle_gamma   86.50105132
_symmetry_Int_Tables_number   1
_chemical_formula_structural   Rb4Mg3Mn3Te8
_chemical_formula_sum   'Rb4 Mg3 Mn3 Te8'
_cell_volume   642.48724254
_cell_formula_units_Z   1
loop_
 _symmetry_equiv_pos_site_id
 _symmetry_equiv_pos_as_xyz
  1  'x, y, z'
loop_
 _atom_site_type_symbol
 _atom_site_label
 _atom_site_symmetry_multiplicity
 _atom_site_fract_x
 _atom_site_fract_y
 _atom_site_fract_z
 _atom_site_occupancy
  Rb  Rb0  1  0.12379796  0.26329129  0.38757116  1
  Rb  Rb1  1  0.87757833  0.73717358  0.61070652  1
  Rb  Rb2  1  0.62427986  0.23670871  0.86050566  1
  Rb  Rb3  1  0.37353294  0.76282642  0.14040575  1
  Mg  Mg0  1  0.24978575  0.25000000  0.99978575  1
  Mg  Mg1  1  0.75049081  0.75000000  0.00049081  1
  Mg  Mg2  1  0.51624827  0.25000000  0.26624827  1
  Mn  Mn0  1  0.48660034  0.75000000  0.73660034  1
  Mn  Mn1  1  0.98658858  0.25000000  0.73658858  1
  Mn  Mn2  1  0.01311426  0.75000000  0.26311426  1
  Te  Te0  1  0.48810849  0.59120372  0.36553396  1
  Te  Te1  1  0.50948324  0.41613642  0.64346373  1
  Te  Te2  1  0.22468128  0.12526251  0.63603676  1
  Te  Te3  1  0.27433124  0.90879628  0.89690477  1
  Te  Te4  1  0.77484189  0.87516683  0.36360205  1
  Te  Te5  1  0.72732730  0.08386358  0.09334681  1
  Te  Te6  1  0.01077425  0.37473749  0.09941877  1
  Te  Te7  1  0.98843521  0.62483317  0.89967506  1
loop_
_geom_bond_atom_site_label_1
_geom_bond_atom_site_label_2
_geom_bond_distance
_geom_bond_site_symmetry_2
Rb0 Te1 3.814608 1_555
Rb0 Te2 3.819840 1_555
Rb0 Te7 3.907193 1_444
Rb0 Te3 3.923789 1_544
Rb0 Te5 3.937898 1_455
Rb0 Te3 3.946429 1_555
Rb0 Te7 3.956679 1_455
Rb0 Te6 3.963309 1_555
Rb1 Te4 3.807979 1_555
Rb1 Te0 3.847037 1_555
Rb1 Te5 3.878144 1_566
Rb1 Te6 3.896370 1_666
Rb1 Te6 3.934689 1_655
Rb1 Te3 3.937332 1_655
Rb1 Te7 3.977773 1_555
Rb1 Te5 3.988087 1_555
Rb2 Te5 3.814618 1_556
Rb2 Te6 3.819841 1_656
Rb2 Te4 3.907191 1_556
Rb2 Te0 3.923789 1_556
Rb2 Te1 3.937889 1_555
Rb2 Te0 3.946429 1_545
Rb2 Te4 3.956672 1_545
Rb2 Te2 3.963308 1_555
Rb3 Te7 3.807979 1_454
Rb3 Te3 3.847046 1_554
Rb3 Te1 3.878152 1_554
Rb3 Te2 3.896369 1_554
Rb3 Te2 3.934682 1_565
Rb3 Te0 3.937314 1_555
Rb3 Te4 3.977772 1_555
Rb3 Te1 3.988089 1_565
Mg0 Te6 2.802193 1_556
Mg0 Te2 2.802194 1_555
Mg0 Te0 2.805737 1_556
Mg0 Te3 2.805738 1_545
Mg1 Te7 2.794682 1_554
Mg1 Te4 2.794683 1_555
Mg1 Te1 2.796440 1_554
Mg1 Te5 2.796440 1_565
Mg2 Te5 2.780745 1_555
Mg2 Te1 2.780745 1_555
Mg2 Te3 2.833775 1_544
Mg2 Te0 2.833782 1_555
Mn0 Te3 2.742980 1_555
Mn0 Te0 2.742990 1_555
Mn0 Te5 2.794253 1_566
Mn0 Te1 2.794253 1_555
Mn1 Te4 2.748774 1_545
Mn1 Te7 2.748774 1_555
Mn1 Te2 2.795061 1_655
Mn1 Te6 2.795061 1_656
Mn2 Te2 2.749220 1_565
Mn2 Te6 2.749220 1_555
Mn2 Te4 2.797225 1_455
Mn2 Te7 2.797226 1_454
