# generated using pymatgen
data_CsZnBiTe3
_symmetry_space_group_name_H-M   'P 1'
_cell_length_a   8.82373681
_cell_length_b   8.82373608
_cell_length_c   11.85939259
_cell_angle_alpha   90.00000000
_cell_angle_beta   90.00000000
_cell_angle_gamma   150.38905007
_symmetry_Int_Tables_number   1
_chemical_formula_structural   CsZnBiTe3
_chemical_formula_sum   'Cs2 Zn2 Bi2 Te6'
_cell_volume   456.23585462
_cell_formula_units_Z   2
loop_
 _symmetry_equiv_pos_site_id
 _symmetry_equiv_pos_as_xyz
  1  'x, y, z'
loop_
 _atom_site_type_symbol
 _atom_site_label
 _atom_site_symmetry_multiplicity
 _atom_site_fract_x
 _atom_site_fract_y
 _atom_site_fract_z
 _atom_site_occupancy
  Cs  Cs0  1  0.25610148  0.74389852  0.25000000  1
  Cs  Cs1  1  0.74389852  0.25610148  0.75000000  1
  Zn  Zn0  1  0.53932796  0.46067204  0.25000000  1
  Zn  Zn1  1  0.46067204  0.53932796  0.75000000  1
  Bi  Bi0  1  0.00000000  0.00000000  0.50000000  1
  Bi  Bi1  1  0.00000000  0.00000000  0.00000000  1
  Te  Te0  1  0.62151452  0.37848548  0.44037416  1
  Te  Te1  1  0.37848548  0.62151452  0.55962584  1
  Te  Te2  1  0.62151452  0.37848548  0.05962584  1
  Te  Te3  1  0.37848548  0.62151452  0.94037416  1
  Te  Te4  1  0.94265958  0.05734042  0.25000000  1
  Te  Te5  1  0.05734042  0.94265958  0.75000000  1
loop_
_geom_bond_atom_site_label_1
_geom_bond_atom_site_label_2
_geom_bond_distance
_geom_bond_site_symmetry_2
Cs0 Te4 3.900697 1_455
Cs0 Te4 3.900698 1_565
Cs0 Te0 3.931191 1_565
Cs0 Te2 3.931191 1_565
Cs0 Te0 3.931191 1_455
Cs0 Te2 3.931191 1_455
Cs0 Te1 4.224145 1_555
Cs0 Te3 4.224145 1_554
Cs1 Te5 3.900697 1_655
Cs1 Te5 3.900698 1_545
Cs1 Te3 3.931191 1_545
Cs1 Te1 3.931191 1_545
Cs1 Te3 3.931191 1_655
Cs1 Te1 3.931191 1_655
Cs1 Te2 4.224145 1_556
Cs1 Te0 4.224145 1_555
Bi0 Te5 3.122087 1_545
Bi0 Te4 3.122087 1_455
Bi0 Te1 3.143633 1_555
Bi0 Te0 3.143633 1_445
Bi0 Te0 3.143633 1_555
Bi0 Te1 3.143633 1_445
Bi1 Te5 3.122087 1_544
Bi1 Te4 3.122087 1_455
Bi1 Te3 3.143633 1_554
Bi1 Te2 3.143633 1_445
Bi1 Te2 3.143633 1_555
Bi1 Te3 3.143633 1_444
Te0 Zn0 2.657736 1_555
Te1 Zn1 2.657736 1_555
Te2 Zn0 2.657736 1_555
Te3 Zn1 2.657736 1_555
Te4 Zn0 2.793629 1_545
Te4 Zn0 2.793629 1_655
Te5 Zn1 2.793629 1_565
Te5 Zn1 2.793629 1_455
