# generated using pymatgen
data_Lu2Ga4CoNi
_symmetry_space_group_name_H-M   'P 1'
_cell_length_a   5.28992428
_cell_length_b   5.28992376
_cell_length_c   6.59882445
_cell_angle_alpha   90.00000000
_cell_angle_beta   90.00000000
_cell_angle_gamma   135.38987341
_symmetry_Int_Tables_number   1
_chemical_formula_structural   Lu2Ga4CoNi
_chemical_formula_sum   'Lu2 Ga4 Co1 Ni1'
_cell_volume   129.68061328
_cell_formula_units_Z   1
loop_
 _symmetry_equiv_pos_site_id
 _symmetry_equiv_pos_as_xyz
  1  'x, y, z'
loop_
 _atom_site_type_symbol
 _atom_site_label
 _atom_site_symmetry_multiplicity
 _atom_site_fract_x
 _atom_site_fract_y
 _atom_site_fract_z
 _atom_site_occupancy
  Lu  Lu0  1  0.56950227  0.43049773  0.25000000  1
  Lu  Lu1  1  0.42879488  0.57120512  0.75000000  1
  Ga  Ga0  1  0.85552374  0.14447626  0.05406470  1
  Ga  Ga1  1  0.14495090  0.85504910  0.94710656  1
  Ga  Ga2  1  0.14495090  0.85504910  0.55289344  1
  Ga  Ga3  1  0.85552374  0.14447626  0.44593530  1
  Co  Co0  1  0.28954929  0.71045071  0.25000000  1
  Ni  Ni0  1  0.71120426  0.28879574  0.75000000  1
loop_
_geom_bond_atom_site_label_1
_geom_bond_atom_site_label_2
_geom_bond_distance
_geom_bond_site_symmetry_2
Lu1 Ni0 2.764286 1_555
Lu1 Ni0 2.926965 1_565
Lu1 Ni0 2.926965 1_455
Ga0 Ni0 2.453864 1_554
Ga0 Lu1 2.927670 1_544
Ga0 Lu1 2.927671 1_654
Ga0 Lu0 3.083780 1_555
Ga0 Lu0 3.176393 1_545
Ga0 Lu0 3.176393 1_655
Ga1 Ni0 2.478562 1_455
Ga1 Ni0 2.478562 1_565
Ga1 Lu0 2.927682 1_566
Ga1 Lu0 2.927683 1_456
Ga1 Lu1 3.067712 1_555
Ga1 Lu1 3.193627 1_565
Ga1 Lu1 3.193627 1_455
Ga2 Ni0 2.478562 1_455
Ga2 Ni0 2.478562 1_565
Ga2 Lu0 2.927682 1_565
Ga2 Lu0 2.927683 1_455
Ga2 Lu1 3.067712 1_555
Ga2 Lu1 3.193627 1_565
Ga2 Lu1 3.193627 1_455
Ga3 Ni0 2.453864 1_555
Ga3 Lu1 2.927670 1_545
Ga3 Lu1 2.927671 1_655
Ga3 Lu0 3.083780 1_555
Ga3 Lu0 3.176393 1_545
Ga3 Lu0 3.176393 1_655
Co0 Ga2 2.449125 1_555
Co0 Ga1 2.449125 1_554
Co0 Ga3 2.473801 1_455
Co0 Ga0 2.473801 1_455
Co0 Ga3 2.473801 1_565
Co0 Ga0 2.473801 1_565
Co0 Lu0 2.740242 1_555
Co0 Lu0 2.944507 1_565
Co0 Lu0 2.944507 1_455
