# generated using pymatgen
data_Ta3Nb7(Si2Ge)2
_symmetry_space_group_name_H-M   'P 1'
_cell_length_a   7.58275380
_cell_length_b   7.58275393
_cell_length_c   7.58143184
_cell_angle_alpha   128.28410966
_cell_angle_beta   128.28411696
_cell_angle_gamma   76.14173194
_symmetry_Int_Tables_number   1
_chemical_formula_structural   Ta3Nb7(Si2Ge)2
_chemical_formula_sum   'Ta3 Nb7 Si4 Ge2'
_cell_volume   261.11483996
_cell_formula_units_Z   1
loop_
 _symmetry_equiv_pos_site_id
 _symmetry_equiv_pos_as_xyz
  1  'x, y, z'
loop_
 _atom_site_type_symbol
 _atom_site_label
 _atom_site_symmetry_multiplicity
 _atom_site_fract_x
 _atom_site_fract_y
 _atom_site_fract_z
 _atom_site_occupancy
  Ta  Ta0  1  0.81257418  0.31257418  0.82927177  1
  Ta  Ta1  1  0.00011479  0.00047531  0.00008133  1
  Ta  Ta2  1  0.50047531  0.50011479  0.00008133  1
  Nb  Nb0  1  0.01778445  0.18772632  0.50061066  1
  Nb  Nb1  1  0.68772632  0.51778445  0.50061066  1
  Nb  Nb2  1  0.51830758  0.01830758  0.83156170  1
  Nb  Nb3  1  0.18713470  0.68713470  0.16879721  1
  Nb  Nb4  1  0.98173792  0.81224947  0.49951473  1
  Nb  Nb5  1  0.31224947  0.48173792  0.49951473  1
  Nb  Nb6  1  0.48213795  0.98213795  0.16979203  1
  Si  Si0  1  0.37108911  0.12939061  0.50051570  1
  Si  Si1  1  0.62939061  0.87108911  0.50051570  1
  Si  Si2  1  0.87056287  0.37056287  0.24060228  1
  Si  Si3  1  0.12917109  0.62917109  0.75839772  1
  Ge  Ge0  1  0.75006348  0.74947816  0.00006523  1
  Ge  Ge1  1  0.24947816  0.25006348  0.00006523  1
loop_
_geom_bond_atom_site_label_1
_geom_bond_atom_site_label_2
_geom_bond_distance
_geom_bond_site_symmetry_2
Nb0 Si0 2.609049 1_555
Nb0 Si3 2.634463 1_555
Nb0 Si2 2.640520 1_455
Nb1 Si1 2.609049 1_555
Nb1 Si3 2.634463 1_655
Nb1 Si2 2.640520 1_555
Nb2 Si2 2.603048 1_556
Nb2 Si0 2.636701 1_555
Nb2 Si1 2.636701 1_545
Nb3 Si3 2.602059 1_554
Nb3 Si1 2.638190 1_555
Nb3 Si0 2.638190 1_565
Nb4 Si1 2.605249 1_555
Nb4 Si2 2.633758 1_555
Nb4 Si3 2.634978 1_655
Nb5 Si0 2.605250 1_555
Nb5 Si2 2.633758 1_455
Nb5 Si3 2.634978 1_555
Nb6 Si3 2.607403 1_554
Nb6 Si1 2.634260 1_555
Nb6 Si0 2.634260 1_565
Si0 Si1 2.415530 1_545
Si0 Ta2 2.594899 1_556
Si0 Ta1 2.600020 1_555
Si0 Ta0 2.635738 1_555
Si1 Ta1 2.594898 1_666
Si1 Ta2 2.600021 1_555
Si1 Ta0 2.635738 1_565
Si2 Si3 2.421951 1_655
Si2 Ta2 2.592982 1_555
Si2 Ta1 2.592983 1_655
Si2 Ta0 2.608820 1_554
Si3 Ta2 2.598385 1_556
Si3 Ta1 2.598385 1_566
Ge0 Ta0 2.751288 1_554
Ge0 Nb4 2.752320 1_555
Ge0 Nb1 2.754063 1_554
Ge0 Nb3 2.754858 1_655
Ge0 Nb2 2.757636 1_564
Ge0 Nb6 2.757726 1_555
Ge0 Nb5 2.759578 1_554
Ge0 Nb0 2.761283 1_665
Ge0 Ta2 2.978594 1_555
Ge0 Ta1 2.990923 1_665
Ge1 Ta0 2.751287 1_454
Ge1 Nb5 2.752320 1_555
Ge1 Nb0 2.754063 1_554
Ge1 Nb3 2.754858 1_555
Ge1 Nb2 2.757636 1_554
Ge1 Nb6 2.757726 1_545
Ge1 Nb4 2.759578 1_444
Ge1 Nb1 2.761283 1_555
Ge1 Ta1 2.978594 1_555
Ge1 Ta2 2.990923 1_555
