# generated using pymatgen
data_Y(SiIr)2
_symmetry_space_group_name_H-M   'P 1'
_cell_length_a   4.09544190
_cell_length_b   4.09544190
_cell_length_c   9.71468968
_cell_angle_alpha   90.00000000
_cell_angle_beta   90.00000000
_cell_angle_gamma   90.00000000
_symmetry_Int_Tables_number   1
_chemical_formula_structural   Y(SiIr)2
_chemical_formula_sum   'Y2 Si4 Ir4'
_cell_volume   162.94103503
_cell_formula_units_Z   2
loop_
 _symmetry_equiv_pos_site_id
 _symmetry_equiv_pos_as_xyz
  1  'x, y, z'
loop_
 _atom_site_type_symbol
 _atom_site_label
 _atom_site_symmetry_multiplicity
 _atom_site_fract_x
 _atom_site_fract_y
 _atom_site_fract_z
 _atom_site_occupancy
  Y  Y0  1  0.25000000  0.25000000  0.25357302  1
  Y  Y1  1  0.75000000  0.75000000  0.74642698  1
  Si  Si0  1  0.25000000  0.75000000  0.50000000  1
  Si  Si1  1  0.75000000  0.25000000  0.50000000  1
  Si  Si2  1  0.75000000  0.75000000  0.13056267  1
  Si  Si3  1  0.25000000  0.25000000  0.86943733  1
  Ir  Ir0  1  0.75000000  0.75000000  0.37198279  1
  Ir  Ir1  1  0.25000000  0.25000000  0.62801721  1
  Ir  Ir2  1  0.25000000  0.75000000  0.00000000  1
  Ir  Ir3  1  0.75000000  0.25000000  0.00000000  1
loop_
_geom_bond_atom_site_label_1
_geom_bond_atom_site_label_2
_geom_bond_distance
_geom_bond_site_symmetry_2
Si0 Y0 3.150272 1_555
Si0 Y1 3.150272 1_455
Si0 Y0 3.150272 1_565
Si0 Y1 3.150272 1_555
Si1 Y0 3.150272 1_555
Si1 Y1 3.150272 1_545
Si1 Y0 3.150272 1_655
Si1 Y1 3.150272 1_555
Si2 Y0 3.132789 1_555
Si2 Y0 3.132789 1_565
Si2 Y0 3.132789 1_665
Si2 Y0 3.132789 1_655
Si3 Y1 3.132789 1_445
Si3 Y1 3.132789 1_455
Si3 Y1 3.132789 1_545
Si3 Y1 3.132789 1_555
Ir0 Si2 2.345322 1_555
Ir0 Si1 2.395792 1_565
Ir0 Si0 2.395792 1_555
Ir0 Si0 2.395792 1_655
Ir0 Si1 2.395792 1_555
Ir0 Y0 3.116014 1_655
Ir0 Y0 3.116014 1_555
Ir0 Y0 3.116014 1_565
Ir0 Y0 3.116014 1_665
Ir1 Si3 2.345322 1_555
Ir1 Si1 2.395792 1_555
Ir1 Si0 2.395792 1_555
Ir1 Si0 2.395792 1_545
Ir1 Si1 2.395792 1_455
Ir1 Y1 3.116014 1_555
Ir1 Y1 3.116014 1_455
Ir1 Y1 3.116014 1_445
Ir1 Y1 3.116014 1_545
Ir2 Si2 2.408721 1_555
Ir2 Si3 2.408721 1_564
Ir2 Si2 2.408721 1_455
Ir2 Si3 2.408721 1_554
Ir2 Y1 3.203345 1_454
Ir2 Y1 3.203345 1_554
Ir2 Y0 3.203345 1_555
Ir2 Y0 3.203345 1_565
Ir3 Si2 2.408721 1_545
Ir3 Si2 2.408721 1_555
Ir3 Si3 2.408721 1_654
Ir3 Si3 2.408721 1_554
Ir3 Y1 3.203345 1_544
Ir3 Y0 3.203345 1_655
Ir3 Y1 3.203345 1_554
Ir3 Y0 3.203345 1_555
