# generated using pymatgen
data_Ni4Mo6P2C
_symmetry_space_group_name_H-M   'P 1'
_cell_length_a   7.63876858
_cell_length_b   7.63876829
_cell_length_c   7.63876805
_cell_angle_alpha   59.99999677
_cell_angle_beta   59.99999803
_cell_angle_gamma   59.99999743
_symmetry_Int_Tables_number   1
_chemical_formula_structural   Ni4Mo6P2C
_chemical_formula_sum   'Ni8 Mo12 P4 C2'
_cell_volume   315.17734230
_cell_formula_units_Z   2
loop_
 _symmetry_equiv_pos_site_id
 _symmetry_equiv_pos_as_xyz
  1  'x, y, z'
loop_
 _atom_site_type_symbol
 _atom_site_label
 _atom_site_symmetry_multiplicity
 _atom_site_fract_x
 _atom_site_fract_y
 _atom_site_fract_z
 _atom_site_occupancy
  Ni  Ni0  1  0.33054782  0.33054782  0.00835553  1
  Ni  Ni1  1  0.33054782  0.33054782  0.33054782  1
  Ni  Ni2  1  0.24164447  0.91945218  0.91945218  1
  Ni  Ni3  1  0.91945218  0.91945218  0.91945218  1
  Ni  Ni4  1  0.00835553  0.33054782  0.33054782  1
  Ni  Ni5  1  0.33054782  0.00835553  0.33054782  1
  Ni  Ni6  1  0.91945218  0.91945218  0.24164447  1
  Ni  Ni7  1  0.91945218  0.24164447  0.91945218  1
  Mo  Mo0  1  0.30552512  0.69447488  0.69447488  1
  Mo  Mo1  1  0.69447488  0.69447488  0.30552512  1
  Mo  Mo2  1  0.69447488  0.30552512  0.69447488  1
  Mo  Mo3  1  0.30552512  0.69447488  0.30552512  1
  Mo  Mo4  1  0.55552512  0.94447488  0.55552512  1
  Mo  Mo5  1  0.55552512  0.94447488  0.94447488  1
  Mo  Mo6  1  0.94447488  0.55552512  0.55552512  1
  Mo  Mo7  1  0.94447488  0.55552512  0.94447488  1
  Mo  Mo8  1  0.30552512  0.30552512  0.69447488  1
  Mo  Mo9  1  0.55552512  0.55552512  0.94447488  1
  Mo  Mo10  1  0.94447488  0.94447488  0.55552512  1
  Mo  Mo11  1  0.69447488  0.30552512  0.30552512  1
  P  P0  1  0.12500000  0.62500000  0.12500000  1
  P  P1  1  0.12500000  0.12500000  0.62500000  1
  P  P2  1  0.62500000  0.12500000  0.12500000  1
  P  P3  1  0.12500000  0.12500000  0.12500000  1
  C  C0  1  0.50000000  0.50000000  0.50000000  1
  C  C1  1  0.75000000  0.75000000  0.75000000  1
loop_
_geom_bond_atom_site_label_1
_geom_bond_atom_site_label_2
_geom_bond_distance
_geom_bond_site_symmetry_2
Ni0 P3 2.322030 1_555
Ni0 P0 2.322036 1_555
Ni0 P2 2.322036 1_555
Ni0 Ni5 2.461152 1_555
Ni0 Ni1 2.461152 1_555
Ni0 Ni4 2.461152 1_555
Ni1 P0 2.322032 1_555
Ni1 P1 2.322032 1_555
Ni1 P2 2.322032 1_555
Ni1 Ni5 2.461152 1_555
Ni1 Ni4 2.461152 1_555
Ni2 P3 2.322030 1_566
Ni2 P1 2.322036 1_565
Ni2 P0 2.322036 1_556
Ni2 Ni6 2.461152 1_456
Ni2 Ni7 2.461152 1_465
Ni2 Ni3 2.461152 1_455
Ni3 P0 2.322032 1_656
Ni3 P1 2.322032 1_665
Ni3 P2 2.322032 1_566
Ni3 Ni6 2.461152 1_556
Ni3 Ni7 2.461152 1_565
Ni4 P3 2.322030 1_555
Ni4 P1 2.322036 1_555
Ni4 P0 2.322036 1_555
Ni4 Ni5 2.461152 1_555
Ni5 P3 2.322030 1_555
Ni5 P1 2.322036 1_555
Ni5 P2 2.322036 1_555
Ni6 P3 2.322030 1_665
Ni6 P0 2.322036 1_655
Ni6 P2 2.322036 1_565
Ni6 Ni7 2.461152 1_564
Ni7 P3 2.322030 1_656
Ni7 P1 2.322036 1_655
Ni7 P2 2.322036 1_556
Mo0 Ni5 2.602883 1_565
Mo0 Ni0 2.602883 1_556
Mo0 Ni3 2.724176 1_455
Mo0 Ni2 2.724179 1_555
Mo1 Ni4 2.602883 1_655
Mo1 Ni5 2.602883 1_565
Mo1 Ni3 2.724175 1_554
Mo1 Ni6 2.724179 1_555
Mo2 Ni4 2.602883 1_655
Mo2 Ni0 2.602883 1_556
Mo2 Ni3 2.724175 1_545
Mo2 Ni7 2.724179 1_555
Mo3 Ni5 2.602879 1_565
Mo3 Ni1 2.602886 1_555
Mo3 Ni2 2.724172 1_554
Mo3 Ni6 2.724173 1_455
Mo4 Ni2 2.602883 1_555
Mo4 Ni6 2.602883 1_555
Mo4 Ni1 2.724175 1_565
Mo4 Ni5 2.724179 1_565
Mo5 Ni2 2.602879 1_555
Mo5 Ni3 2.602887 1_555
Mo5 Ni5 2.724172 1_566
Mo5 Ni0 2.724172 1_566
Mo6 Ni7 2.602883 1_555
Mo6 Ni6 2.602883 1_555
Mo6 Ni1 2.724176 1_655
Mo6 Ni4 2.724179 1_655
Mo7 Ni7 2.602879 1_555
Mo7 Ni3 2.602886 1_555
Mo7 Ni4 2.724172 1_656
Mo7 Ni0 2.724173 1_656
Mo8 Ni0 2.602879 1_556
Mo8 Ni1 2.602886 1_555
Mo8 Ni2 2.724172 1_545
Mo8 Ni7 2.724173 1_455
Mo9 Ni2 2.602883 1_555
Mo9 Ni7 2.602883 1_555
Mo9 Ni1 2.724175 1_556
Mo9 Ni0 2.724179 1_556
Mo10 Ni6 2.602879 1_555
Mo10 Ni3 2.602886 1_555
Mo10 Ni4 2.724172 1_665
Mo10 Ni5 2.724173 1_665
Mo11 Ni4 2.602879 1_655
Mo11 Ni1 2.602887 1_555
Mo11 Ni7 2.724172 1_554
Mo11 Ni6 2.724172 1_545
C0 Mo0 2.100883 1_555
C0 Mo11 2.100883 1_555
C0 Mo2 2.100883 1_555
C0 Mo3 2.100883 1_555
C0 Mo1 2.100883 1_555
C0 Mo8 2.100883 1_555
C1 Mo5 2.100883 1_555
C1 Mo6 2.100883 1_555
C1 Mo7 2.100883 1_555
C1 Mo4 2.100883 1_555
C1 Mo10 2.100883 1_555
C1 Mo9 2.100883 1_555
