# generated using pymatgen
data_Sr(CaBi)2
_symmetry_space_group_name_H-M   'P 1'
_cell_length_a   5.22404035
_cell_length_b   5.22404047
_cell_length_c   8.13041375
_cell_angle_alpha   90.00000000
_cell_angle_beta   90.00000000
_cell_angle_gamma   119.99999923
_symmetry_Int_Tables_number   1
_chemical_formula_structural   Sr(CaBi)2
_chemical_formula_sum   'Sr1 Ca2 Bi2'
_cell_volume   192.15705638
_cell_formula_units_Z   1
loop_
 _symmetry_equiv_pos_site_id
 _symmetry_equiv_pos_as_xyz
  1  'x, y, z'
loop_
 _atom_site_type_symbol
 _atom_site_label
 _atom_site_symmetry_multiplicity
 _atom_site_fract_x
 _atom_site_fract_y
 _atom_site_fract_z
 _atom_site_occupancy
  Sr  Sr0  1  0.00000000  0.00000000  0.00000000  1
  Ca  Ca0  1  0.66666700  0.33333300  0.35559306  1
  Ca  Ca1  1  0.33333300  0.66666700  0.64440694  1
  Bi  Bi0  1  0.33333300  0.66666700  0.23544512  1
  Bi  Bi1  1  0.66666700  0.33333300  0.76455488  1
loop_
_geom_bond_atom_site_label_1
_geom_bond_atom_site_label_2
_geom_bond_distance
_geom_bond_site_symmetry_2
Bi0 Ca0 3.170345 1_455
Bi0 Ca0 3.170345 1_565
Bi0 Ca0 3.170354 1_555
Bi0 Ca1 3.325029 1_555
Bi0 Sr0 3.572291 1_565
Bi0 Sr0 3.572295 1_665
Bi0 Sr0 3.572295 1_555
Bi1 Ca1 3.170345 1_655
Bi1 Ca1 3.170345 1_545
Bi1 Ca1 3.170354 1_555
Bi1 Ca0 3.325029 1_555
Bi1 Sr0 3.572291 1_656
Bi1 Sr0 3.572295 1_556
Bi1 Sr0 3.572295 1_666
