# generated using pymatgen
data_La(C2N3)3
_symmetry_space_group_name_H-M   'P 1'
_cell_length_a   7.07652060
_cell_length_b   7.07652060
_cell_length_c   10.35239505
_cell_angle_alpha   90.00000000
_cell_angle_beta   90.00000000
_cell_angle_gamma   111.41865997
_symmetry_Int_Tables_number   1
_chemical_formula_structural   La(C2N3)3
_chemical_formula_sum   'La2 C12 N18'
_cell_volume   482.61481308
_cell_formula_units_Z   2
loop_
 _symmetry_equiv_pos_site_id
 _symmetry_equiv_pos_as_xyz
  1  'x, y, z'
loop_
 _atom_site_type_symbol
 _atom_site_label
 _atom_site_symmetry_multiplicity
 _atom_site_fract_x
 _atom_site_fract_y
 _atom_site_fract_z
 _atom_site_occupancy
  La  La0  1  0.71541268  0.28458732  0.25000000  1
  La  La1  1  0.28458732  0.71541268  0.75000000  1
  C  C0  1  0.72553452  0.55678215  0.75000000  1
  C  C1  1  0.99685360  0.28701333  0.94911901  1
  C  C2  1  0.00314640  0.71298667  0.44911901  1
  C  C3  1  0.27446548  0.44321785  0.25000000  1
  C  C4  1  0.55678215  0.72553452  0.25000000  1
  C  C5  1  0.44321785  0.27446548  0.75000000  1
  C  C6  1  0.28701333  0.99685360  0.44911901  1
  C  C7  1  0.71298667  0.00314640  0.94911901  1
  C  C8  1  0.99685360  0.28701333  0.55088099  1
  C  C9  1  0.00314640  0.71298667  0.05088099  1
  C  C10  1  0.71298667  0.00314640  0.55088099  1
  C  C11  1  0.28701333  0.99685360  0.05088099  1
  N  N0  1  0.13973432  0.41169701  0.90394879  1
  N  N1  1  0.86026568  0.58830299  0.40394879  1
  N  N2  1  0.52907522  0.47092478  0.75000000  1
  N  N3  1  0.47092478  0.52907522  0.25000000  1
  N  N4  1  0.90118525  0.64491118  0.75000000  1
  N  N5  1  0.09881475  0.35508882  0.25000000  1
  N  N6  1  0.64491118  0.90118525  0.25000000  1
  N  N7  1  0.35508882  0.09881475  0.75000000  1
  N  N8  1  0.15913307  0.84086693  0.50852966  1
  N  N9  1  0.84086693  0.15913307  0.00852966  1
  N  N10  1  0.84086693  0.15913307  0.49147034  1
  N  N11  1  0.15913307  0.84086693  0.99147034  1
  N  N12  1  0.41169701  0.13973432  0.40394879  1
  N  N13  1  0.58830299  0.86026568  0.90394879  1
  N  N14  1  0.13973432  0.41169701  0.59605121  1
  N  N15  1  0.86026568  0.58830299  0.09605121  1
  N  N16  1  0.58830299  0.86026568  0.59605121  1
  N  N17  1  0.41169701  0.13973432  0.09605121  1
loop_
_geom_bond_atom_site_label_1
_geom_bond_atom_site_label_2
_geom_bond_distance
_geom_bond_site_symmetry_2
La0 N15 2.569234 1_555
La0 N1 2.569234 1_555
La0 N12 2.569234 1_555
La0 N17 2.569234 1_555
La0 N6 2.573224 1_545
La0 N5 2.573224 1_655
La0 N3 2.858822 1_555
La0 N9 2.898434 1_555
La0 N10 2.898434 1_555
La1 N13 2.569234 1_555
La1 N16 2.569234 1_555
La1 N14 2.569234 1_555
La1 N0 2.569234 1_555
La1 N4 2.573224 1_455
La1 N7 2.573224 1_565
La1 N2 2.858822 1_555
La1 N11 2.898434 1_555
La1 N8 2.898434 1_555
C0 N4 1.169533 1_555
C0 N2 1.298082 1_555
C1 N0 1.169581 1_655
C1 N9 1.298501 1_556
C2 N1 1.169581 1_455
C2 N8 1.298501 1_555
C3 N5 1.169533 1_555
C3 N3 1.298082 1_555
C4 N6 1.169533 1_555
C4 N3 1.298082 1_555
C5 N7 1.169533 1_555
C5 N2 1.298082 1_555
C6 N12 1.169581 1_565
C6 N8 1.298501 1_555
C7 N13 1.169581 1_545
C7 N9 1.298501 1_556
C8 N14 1.169581 1_655
C8 N10 1.298501 1_555
C9 N15 1.169581 1_455
C9 N11 1.298501 1_554
C10 N16 1.169581 1_545
C10 N10 1.298501 1_555
C11 N17 1.169581 1_565
C11 N11 1.298501 1_554
