# generated using pymatgen
data_Rb2Li2H6Ru
_symmetry_space_group_name_H-M   'P 1'
_cell_length_a   7.01257177
_cell_length_b   7.65531616
_cell_length_c   7.65531579
_cell_angle_alpha   77.79323799
_cell_angle_beta   117.63057227
_cell_angle_gamma   117.63058703
_symmetry_Int_Tables_number   1
_chemical_formula_structural   Rb2Li2H6Ru
_chemical_formula_sum   'Rb4 Li4 H12 Ru2'
_cell_volume   322.56955542
_cell_formula_units_Z   2
loop_
 _symmetry_equiv_pos_site_id
 _symmetry_equiv_pos_as_xyz
  1  'x, y, z'
loop_
 _atom_site_type_symbol
 _atom_site_label
 _atom_site_symmetry_multiplicity
 _atom_site_fract_x
 _atom_site_fract_y
 _atom_site_fract_z
 _atom_site_occupancy
  Rb  Rb0  1  0.67158355  0.62284335  0.16619393  1
  Rb  Rb1  1  0.25000000  0.83423347  0.66576653  1
  Rb  Rb2  1  0.82841645  0.33380607  0.87715665  1
  Rb  Rb3  1  0.75000000  0.12714895  0.37285105  1
  Li  Li0  1  0.25000000  0.23042021  0.26957979  1
  Li  Li1  1  0.75000000  0.76109149  0.73890851  1
  Li  Li2  1  0.23286484  0.73193043  0.23211442  1
  Li  Li3  1  0.26713516  0.26788558  0.76806957  1
  H  H0  1  0.10954524  0.50850768  0.44943783  1
  H  H1  1  0.26550174  0.25116575  0.51864486  1
  H  H2  1  0.27541307  0.49462975  0.24727847  1
  H  H3  1  0.01150594  0.01319922  0.74200399  1
  H  H4  1  0.84928024  0.96257683  0.96893519  1
  H  H5  1  0.01966586  0.74941114  0.97160669  1
  H  H6  1  0.65071976  0.53106481  0.53742317  1
  H  H7  1  0.48849406  0.75799601  0.48680078  1
  H  H8  1  0.48033414  0.52839331  0.75058886  1
  H  H9  1  0.23449826  0.98135514  0.24883425  1
  H  H10  1  0.39045476  0.05056217  0.99149232  1
  H  H11  1  0.22458693  0.25272153  0.00537025  1
  Ru  Ru0  1  0.37575977  0.50657738  0.49751927  1
  Ru  Ru1  1  0.12424023  0.00248073  0.99342262  1
loop_
_geom_bond_atom_site_label_1
_geom_bond_atom_site_label_2
_geom_bond_distance
_geom_bond_site_symmetry_2
H0 Ru0 1.734000 1_555
H0 Li2 2.280415 1_555
H0 Rb3 2.783726 1_455
H0 Rb1 2.808143 1_555
H0 Rb0 3.227099 1_455
H1 Ru0 1.739836 1_555
H1 Li0 1.895316 1_555
H1 Li3 1.934973 1_555
H1 Rb3 2.955945 1_455
H1 Rb1 3.120758 1_545
H2 Ru0 1.713880 1_555
H2 Li0 1.923463 1_555
H2 Li2 1.945257 1_555
H2 Rb0 2.807059 1_555
H2 Rb2 3.004535 1_454
H3 Ru1 1.708275 1_555
H3 Li3 1.909337 1_555
H3 Li1 1.945384 1_445
H3 Rb3 2.782896 1_455
H3 Rb1 2.895430 1_545
H4 Ru1 1.728856 1_665
H4 Li1 2.231610 1_555
H4 Rb0 2.770501 1_556
H4 Rb2 2.835007 1_565
H5 Ru1 1.739072 1_565
H5 Li2 1.880812 1_556
H5 Li1 1.929322 1_455
H5 Rb2 2.925671 1_455
H5 Rb0 3.112010 1_456
H6 Ru0 1.728856 1_555
H6 Li1 2.231610 1_555
H6 Rb2 2.770502 1_555
H6 Rb0 2.835007 1_555
H7 Ru0 1.708275 1_555
H7 Li2 1.909337 1_555
H7 Li1 1.945385 1_555
H7 Rb3 2.782895 1_565
H7 Rb1 2.895430 1_555
H8 Ru0 1.739072 1_555
H8 Li3 1.880811 1_555
H8 Li1 1.929322 1_555
H8 Rb0 2.925671 1_556
H8 Rb2 3.112011 1_555
H9 Ru1 1.739836 1_564
H9 Li0 1.895316 1_565
H9 Li2 1.934974 1_555
H9 Rb3 2.955945 1_565
H9 Rb1 3.120758 1_555
H10 Ru1 1.734000 1_555
H10 Li3 2.280416 1_555
H10 Rb3 2.783726 1_556
H10 Rb1 2.808143 1_545
H10 Rb2 3.227098 1_555
H11 Ru1 1.713880 1_554
H11 Li0 1.923463 1_555
H11 Li3 1.945257 1_554
H11 Rb2 2.807060 1_454
H11 Rb0 3.004534 1_555
