# generated using pymatgen
data_BaY2O4
_symmetry_space_group_name_H-M   'P 1'
_cell_length_a   3.46103049
_cell_length_b   10.43624599
_cell_length_c   12.14046317
_cell_angle_alpha   90.00000000
_cell_angle_beta   90.00000000
_cell_angle_gamma   90.00000000
_symmetry_Int_Tables_number   1
_chemical_formula_structural   BaY2O4
_chemical_formula_sum   'Ba4 Y8 O16'
_cell_volume   438.51553983
_cell_formula_units_Z   4
loop_
 _symmetry_equiv_pos_site_id
 _symmetry_equiv_pos_as_xyz
  1  'x, y, z'
loop_
 _atom_site_type_symbol
 _atom_site_label
 _atom_site_symmetry_multiplicity
 _atom_site_fract_x
 _atom_site_fract_y
 _atom_site_fract_z
 _atom_site_occupancy
  Ba  Ba0  1  0.25000000  0.75327753  0.35060365  1
  Ba  Ba1  1  0.75000000  0.24672247  0.64939635  1
  Ba  Ba2  1  0.25000000  0.25327753  0.14939635  1
  Ba  Ba3  1  0.75000000  0.74672247  0.85060365  1
  Y  Y0  1  0.25000000  0.42670308  0.38900139  1
  Y  Y1  1  0.75000000  0.57329692  0.61099861  1
  Y  Y2  1  0.25000000  0.92670308  0.11099861  1
  Y  Y3  1  0.75000000  0.07329692  0.88900139  1
  Y  Y4  1  0.75000000  0.07796146  0.39119812  1
  Y  Y5  1  0.25000000  0.92203854  0.60880188  1
  Y  Y6  1  0.75000000  0.57796146  0.10880188  1
  Y  Y7  1  0.25000000  0.42203854  0.89119812  1
  O  O0  1  0.75000000  0.29069647  0.34116120  1
  O  O1  1  0.25000000  0.70930353  0.65883880  1
  O  O2  1  0.75000000  0.79069647  0.15883880  1
  O  O3  1  0.25000000  0.20930353  0.84116120  1
  O  O4  1  0.75000000  0.38476684  0.01777092  1
  O  O5  1  0.25000000  0.61523316  0.98222908  1
  O  O6  1  0.75000000  0.88476684  0.48222908  1
  O  O7  1  0.25000000  0.11523316  0.51777092  1
  O  O8  1  0.75000000  0.98111040  0.71710761  1
  O  O9  1  0.25000000  0.01888960  0.28289239  1
  O  O10  1  0.75000000  0.48111040  0.78289239  1
  O  O11  1  0.25000000  0.51888960  0.21710761  1
  O  O12  1  0.75000000  0.07019002  0.07398702  1
  O  O13  1  0.25000000  0.92980998  0.92601298  1
  O  O14  1  0.75000000  0.57019002  0.42601298  1
  O  O15  1  0.25000000  0.42980998  0.57398702  1
loop_
_geom_bond_atom_site_label_1
_geom_bond_atom_site_label_2
_geom_bond_distance
_geom_bond_site_symmetry_2
Ba0 O6 2.726050 1_555
Ba0 O6 2.726050 1_455
Ba0 O14 2.735650 1_455
Ba0 O14 2.735650 1_555
Ba0 O9 2.891315 1_565
Ba0 O2 2.926995 1_455
Ba0 O2 2.926995 1_555
Ba0 O11 2.934320 1_555
Ba1 O7 2.726050 1_555
Ba1 O7 2.726050 1_655
Ba1 O15 2.735650 1_555
Ba1 O15 2.735650 1_655
Ba1 O8 2.891315 1_545
Ba1 O3 2.926995 1_555
Ba1 O3 2.926995 1_655
Ba1 O10 2.934320 1_555
Ba2 O4 2.726050 1_455
Ba2 O4 2.726050 1_555
Ba2 O12 2.735650 1_555
Ba2 O12 2.735650 1_455
Ba2 O11 2.891315 1_555
Ba2 O0 2.926995 1_555
Ba2 O0 2.926995 1_455
Ba2 O9 2.934320 1_555
Ba3 O5 2.726050 1_655
Ba3 O5 2.726050 1_555
Ba3 O13 2.735650 1_555
Ba3 O13 2.735650 1_655
Ba3 O10 2.891315 1_555
Ba3 O1 2.926995 1_555
Ba3 O1 2.926995 1_655
Ba3 O8 2.934320 1_555
O0 Y4 2.301762 1_555
O0 Y0 2.312295 1_555
O0 Y0 2.312295 1_655
O1 Y5 2.301762 1_555
O1 Y1 2.312295 1_555
O1 Y1 2.312295 1_455
O2 Y6 2.301762 1_555
O2 Y2 2.312295 1_555
O2 Y2 2.312295 1_655
O3 Y7 2.301762 1_555
O3 Y3 2.312295 1_455
O3 Y3 2.312295 1_555
O4 Y6 2.299249 1_555
O4 Y7 2.346761 1_654
O4 Y7 2.346761 1_554
O5 Y7 2.299249 1_555
O5 Y6 2.346761 1_456
O5 Y6 2.346761 1_556
O6 Y4 2.299249 1_565
O6 Y5 2.346761 1_655
O6 Y5 2.346761 1_555
O7 Y5 2.299249 1_545
O7 Y4 2.346761 1_555
O7 Y4 2.346761 1_455
O8 Y5 2.259127 1_655
O8 Y5 2.259127 1_555
O8 Y3 2.297962 1_565
O9 Y4 2.259127 1_455
O9 Y4 2.259127 1_555
O9 Y2 2.297962 1_545
O10 Y7 2.259127 1_555
O10 Y7 2.259127 1_655
O10 Y1 2.297962 1_555
O11 Y6 2.259127 1_555
O11 Y6 2.259127 1_455
O11 Y0 2.297962 1_555
O12 Y3 2.246045 1_554
O12 Y2 2.332164 1_545
O12 Y2 2.332164 1_645
O13 Y2 2.246045 1_556
O13 Y3 2.332164 1_565
O13 Y3 2.332164 1_465
O14 Y1 2.246045 1_555
O14 Y0 2.332164 1_555
O14 Y0 2.332164 1_655
O15 Y0 2.246045 1_555
O15 Y1 2.332164 1_555
O15 Y1 2.332164 1_455
