# generated using pymatgen
data_Ti4B2MoP
_symmetry_space_group_name_H-M   'P 1'
_cell_length_a   6.02035156
_cell_length_b   6.02035140
_cell_length_c   7.07495608
_cell_angle_alpha   115.18035874
_cell_angle_beta   115.18036225
_cell_angle_gamma   89.99999303
_symmetry_Int_Tables_number   1
_chemical_formula_structural   Ti4B2MoP
_chemical_formula_sum   'Ti8 B4 Mo2 P2'
_cell_volume   204.81486818
_cell_formula_units_Z   2
loop_
 _symmetry_equiv_pos_site_id
 _symmetry_equiv_pos_as_xyz
  1  'x, y, z'
loop_
 _atom_site_type_symbol
 _atom_site_label
 _atom_site_symmetry_multiplicity
 _atom_site_fract_x
 _atom_site_fract_y
 _atom_site_fract_z
 _atom_site_occupancy
  Ti  Ti0  1  0.04052481  0.54052481  0.73110592  1
  Ti  Ti1  1  0.69058012  0.19058012  0.73110592  1
  Ti  Ti2  1  0.19058012  0.04052481  0.73110592  1
  Ti  Ti3  1  0.54052481  0.69058012  0.73110592  1
  Ti  Ti4  1  0.95947519  0.45947519  0.26889408  1
  Ti  Ti5  1  0.30941988  0.80941988  0.26889408  1
  Ti  Ti6  1  0.80941988  0.95947519  0.26889408  1
  Ti  Ti7  1  0.45947519  0.30941988  0.26889408  1
  B  B0  1  0.39084222  0.89084222  1.00000000  1
  B  B1  1  0.60915778  0.10915778  0.00000000  1
  B  B2  1  0.10915778  0.39084222  1.00000000  1
  B  B3  1  0.89084222  0.60915778  0.00000000  1
  Mo  Mo0  1  0.50000000  0.50000000  0.00000000  1
  Mo  Mo1  1  0.00000000  0.00000000  0.00000000  1
  P  P0  1  0.25000000  0.25000000  0.50000000  1
  P  P1  1  0.75000000  0.75000000  0.50000000  1
loop_
_geom_bond_atom_site_label_1
_geom_bond_atom_site_label_2
_geom_bond_distance
_geom_bond_site_symmetry_2
B0 B1 1.858753 1_566
B0 Ti2 2.322041 1_565
B0 Ti3 2.322041 1_555
B0 Ti6 2.322045 1_556
B0 Ti7 2.322045 1_566
B0 Ti5 2.384708 1_556
B0 Ti0 2.384715 1_555
B0 Mo0 2.443054 1_556
B0 Mo1 2.443054 1_566
B1 Ti6 2.322041 1_545
B1 Ti7 2.322041 1_555
B1 Ti2 2.322045 1_554
B1 Ti3 2.322045 1_544
B1 Ti1 2.384708 1_554
B1 Ti4 2.384715 1_555
B1 Mo0 2.443054 1_555
B1 Mo1 2.443054 1_655
B2 B3 1.858752 1_456
B2 Ti0 2.322040 1_555
B2 Ti4 2.322040 1_456
B2 Ti1 2.322046 1_455
B2 Ti5 2.322046 1_556
B2 Ti7 2.384711 1_556
B2 Ti2 2.384711 1_555
B2 Mo1 2.443054 1_556
B2 Mo0 2.443054 1_556
B3 Ti4 2.322040 1_555
B3 Ti0 2.322040 1_654
B3 Ti5 2.322046 1_655
B3 Ti1 2.322046 1_554
B3 Ti3 2.384711 1_554
B3 Ti6 2.384711 1_555
B3 Mo1 2.443054 1_665
B3 Mo0 2.443054 1_555
Mo0 Ti7 2.692114 1_555
Mo0 Ti3 2.692114 1_554
Mo0 Ti5 2.692116 1_555
Mo0 Ti1 2.692116 1_554
Mo0 Ti4 2.692118 1_555
Mo0 Ti0 2.692118 1_554
Mo0 Ti6 2.692121 1_555
Mo0 Ti2 2.692121 1_554
Mo0 P1 2.825451 1_555
Mo0 P0 2.825451 1_554
Mo1 Ti2 2.692114 1_554
Mo1 Ti6 2.692114 1_445
Mo1 Ti5 2.692116 1_545
Mo1 Ti1 2.692116 1_454
Mo1 Ti4 2.692118 1_455
Mo1 Ti0 2.692118 1_544
Mo1 Ti7 2.692121 1_555
Mo1 Ti3 2.692121 1_444
Mo1 P0 2.825451 1_555
Mo1 P1 2.825451 1_444
P0 Ti3 2.577623 1_555
P0 Ti6 2.577623 1_445
P0 Ti1 2.577625 1_555
P0 Ti5 2.577625 1_545
P0 Ti4 2.577627 1_455
P0 Ti0 2.577627 1_555
P0 Ti2 2.577629 1_555
P0 Ti7 2.577629 1_555
P1 Ti7 2.577623 1_555
P1 Ti2 2.577623 1_665
P1 Ti5 2.577625 1_555
P1 Ti1 2.577625 1_565
P1 Ti0 2.577627 1_655
P1 Ti4 2.577627 1_555
P1 Ti6 2.577629 1_555
P1 Ti3 2.577629 1_555
