# generated using pymatgen
data_HoTlPd
_symmetry_space_group_name_H-M   'P 1'
_cell_length_a   7.77473097
_cell_length_b   7.77473106
_cell_length_c   3.75460533
_cell_angle_alpha   90.00000000
_cell_angle_beta   90.00000000
_cell_angle_gamma   119.99999965
_symmetry_Int_Tables_number   1
_chemical_formula_structural   HoTlPd
_chemical_formula_sum   'Ho3 Tl3 Pd3'
_cell_volume   196.54666117
_cell_formula_units_Z   3
loop_
 _symmetry_equiv_pos_site_id
 _symmetry_equiv_pos_as_xyz
  1  'x, y, z'
loop_
 _atom_site_type_symbol
 _atom_site_label
 _atom_site_symmetry_multiplicity
 _atom_site_fract_x
 _atom_site_fract_y
 _atom_site_fract_z
 _atom_site_occupancy
  Ho  Ho0  1  0.59794028  -0.00000000  0.50000000  1
  Ho  Ho1  1  0.40205972  0.40205972  0.50000000  1
  Ho  Ho2  1  -0.00000000  0.59794028  0.50000000  1
  Tl  Tl0  1  0.26846594  -0.00000000  -0.00000000  1
  Tl  Tl1  1  0.73153406  0.73153406  0.00000000  1
  Tl  Tl2  1  -0.00000000  0.26846594  0.00000000  1
  Pd  Pd0  1  0.33333300  0.66666700  0.00000000  1
  Pd  Pd1  1  0.66666700  0.33333300  0.00000000  1
  Pd  Pd2  1  0.00000000  -0.00000000  0.50000000  1
loop_
_geom_bond_atom_site_label_1
_geom_bond_atom_site_label_2
_geom_bond_distance
_geom_bond_site_symmetry_2
Ho0 Pd1 3.023454 1_555
Ho0 Pd1 3.023454 1_556
Ho0 Pd0 3.023456 1_545
Ho0 Pd0 3.023456 1_546
Ho0 Pd2 3.125906 1_655
Ho0 Tl0 3.175835 1_555
Ho0 Tl0 3.175835 1_556
Ho0 Tl2 3.335809 1_656
Ho0 Tl2 3.335809 1_655
Ho0 Tl1 3.335809 1_546
Ho0 Tl1 3.335809 1_545
Ho1 Pd1 3.023460 1_556
Ho1 Pd1 3.023460 1_555
Ho1 Pd0 3.023460 1_555
Ho1 Pd0 3.023460 1_556
Ho1 Pd2 3.125906 1_555
Ho1 Tl1 3.175835 1_555
Ho1 Tl1 3.175835 1_556
Ho1 Tl2 3.335809 1_555
Ho1 Tl2 3.335809 1_556
Ho1 Tl0 3.335809 1_555
Ho1 Tl0 3.335809 1_556
Ho2 Pd0 3.023454 1_555
Ho2 Pd0 3.023454 1_556
Ho2 Pd1 3.023456 1_456
Ho2 Pd1 3.023456 1_455
Ho2 Pd2 3.125906 1_565
Ho2 Tl2 3.175835 1_555
Ho2 Tl2 3.175835 1_556
Ho2 Tl1 3.335809 1_455
Ho2 Tl1 3.335809 1_456
Ho2 Tl0 3.335809 1_566
Ho2 Tl0 3.335809 1_565
Pd0 Tl0 2.877081 1_565
Pd0 Tl2 2.877086 1_555
Pd0 Tl1 2.877088 1_555
Pd1 Tl2 2.877081 1_655
Pd1 Tl0 2.877086 1_555
Pd1 Tl1 2.877088 1_555
Pd2 Tl0 2.807290 1_555
Pd2 Tl0 2.807290 1_556
Pd2 Tl1 2.807290 1_446
Pd2 Tl1 2.807290 1_445
Pd2 Tl2 2.807290 1_555
Pd2 Tl2 2.807290 1_556
