# generated using pymatgen
data_Nb6Re6Si5B
_symmetry_space_group_name_H-M   'P 1'
_cell_length_a   7.49018225
_cell_length_b   7.49119644
_cell_length_c   7.49018141
_cell_angle_alpha   126.93506656
_cell_angle_beta   125.85433407
_cell_angle_gamma   79.24019198
_symmetry_Int_Tables_number   1
_chemical_formula_structural   Nb6Re6Si5B
_chemical_formula_sum   'Nb6 Re6 Si5 B1'
_cell_volume   263.26866513
_cell_formula_units_Z   1
loop_
 _symmetry_equiv_pos_site_id
 _symmetry_equiv_pos_as_xyz
  1  'x, y, z'
loop_
 _atom_site_type_symbol
 _atom_site_label
 _atom_site_symmetry_multiplicity
 _atom_site_fract_x
 _atom_site_fract_y
 _atom_site_fract_z
 _atom_site_occupancy
  Nb  Nb0  1  0.54547086  0.08499443  0.03952257  1
  Nb  Nb1  1  0.44843557  0.49797592  0.54954036  1
  Nb  Nb2  1  0.95461690  0.49427332  0.03965641  1
  Nb  Nb3  1  0.05129391  0.10065872  0.54936582  1
  Nb  Nb4  1  0.75012599  0.90102949  0.65090350  1
  Nb  Nb5  1  0.25001777  0.90401161  0.15399384  1
  Re  Re0  1  0.51945316  0.25083220  0.77021892  1
  Re  Re1  1  0.98061428  0.25083220  0.23137904  1
  Re  Re2  1  0.09575780  0.74225605  0.59142035  1
  Re  Re3  1  0.84849417  0.49566526  0.59072197  1
  Re  Re4  1  0.65083570  0.74225605  0.14649826  1
  Re  Re5  1  0.40494329  0.49566526  0.14717209  1
  Si  Si0  1  0.24945788  0.50737924  0.75792136  1
  Si  Si1  1  0.33186537  0.82843795  0.49393582  1
  Si  Si2  1  0.66553655  0.16242019  0.49399857  1
  Si  Si3  1  0.83450213  0.82843795  0.99657258  1
  Si  Si4  1  0.16842162  0.16242019  0.99688365  1
  B  B0  1  0.75015808  0.49265296  0.24249489  1
loop_
_geom_bond_atom_site_label_1
_geom_bond_atom_site_label_2
_geom_bond_distance
_geom_bond_site_symmetry_2
Nb0 Si4 2.639835 1_554
Nb0 Si2 2.639839 1_555
Nb0 Si1 2.646364 1_544
Nb0 Si3 2.646368 1_544
Nb0 Re5 2.833082 1_555
Nb0 Re3 2.833087 1_555
Nb0 Re0 2.847975 1_554
Nb0 Re1 2.847986 1_555
Nb0 Re2 2.971886 1_544
Nb0 Re4 2.971890 1_545
Nb1 Si1 2.658996 1_555
Nb1 Si3 2.658996 1_555
Nb1 Si4 2.673115 1_554
Nb1 Si2 2.673115 1_555
Nb1 Si0 2.686266 1_555
Nb1 Re5 2.824671 1_555
Nb1 Re3 2.824678 1_555
Nb1 Re1 2.953453 1_455
Nb1 Re0 2.953459 1_555
Nb1 Re4 2.983481 1_556
Nb1 Re2 2.983481 1_555
Nb2 Si3 2.640051 1_554
Nb2 Si1 2.640051 1_655
Nb2 Si2 2.646633 1_554
Nb2 Si4 2.646634 1_654
Nb2 Re2 2.834946 1_655
Nb2 Re4 2.834946 1_555
Nb2 Re1 2.848349 1_555
Nb2 Re0 2.848352 1_554
Nb2 Re5 2.974378 1_655
Nb2 Re3 2.974380 1_554
Nb3 Si4 2.657508 1_555
Nb3 Si2 2.657513 1_455
Nb3 Si1 2.674285 1_545
Nb3 Si3 2.674289 1_444
Nb3 Si0 2.679328 1_555
Nb3 Re2 2.824585 1_545
Nb3 Re4 2.824589 1_445
Nb3 Re0 2.956249 1_555
Nb3 Re1 2.956255 1_455
Nb3 Re5 2.988432 1_556
Nb3 Re3 2.988434 1_455
Nb4 Si3 2.654360 1_555
Nb4 Si1 2.654360 1_555
Nb4 Si2 2.654638 1_565
Nb4 Si4 2.654638 1_665
Nb4 Re5 2.806411 1_555
Nb4 Re3 2.806412 1_555
Nb4 Re4 2.807116 1_555
Nb4 Re2 2.807117 1_655
Nb4 Re1 2.820363 1_566
Nb4 Re0 2.820364 1_565
Nb5 Si1 2.637017 1_555
Nb5 Si3 2.637017 1_454
Nb5 Si4 2.638011 1_564
Nb5 Si2 2.638012 1_565
Nb5 Si0 2.650627 1_554
Nb5 Re1 2.959850 1_465
Nb5 Re0 2.959855 1_565
Nb5 Re2 3.040071 1_554
Nb5 Re4 3.040071 1_555
Nb5 Re3 3.043495 1_454
Nb5 Re5 3.043498 1_555
Re0 Si0 2.516957 1_555
Re0 Si2 2.578945 1_555
Re0 Si1 2.579400 1_545
Re1 Si0 2.516957 1_655
Re1 Si4 2.578938 1_654
Re1 Si3 2.579402 1_544
Re2 Si0 2.485052 1_555
Re2 Si1 2.565752 1_555
Re2 Si4 2.577129 1_565
Re3 Si0 2.481154 1_655
Re3 Si2 2.564292 1_555
Re3 Si3 2.575760 1_555
Re4 Si0 2.485052 1_554
Re4 Si3 2.565751 1_554
Re4 Si2 2.577129 1_565
Re5 Si0 2.481161 1_554
Re5 Si4 2.564288 1_554
Re5 Si1 2.575756 1_555
B0 Re3 2.243013 1_555
B0 Re5 2.243016 1_555
B0 Re4 2.244211 1_555
B0 Re2 2.244211 1_655
B0 Re0 2.255591 1_554
B0 Re1 2.255596 1_555
B0 Nb2 2.721843 1_555
B0 Nb0 2.725031 1_555
B0 Nb4 2.733174 1_555
