# generated using pymatgen
data_YBPd6Au
_symmetry_space_group_name_H-M   'P 1'
_cell_length_a   5.81543215
_cell_length_b   5.81543175
_cell_length_c   5.81543242
_cell_angle_alpha   60.00000177
_cell_angle_beta   60.00000404
_cell_angle_gamma   59.99999721
_symmetry_Int_Tables_number   1
_chemical_formula_structural   YBPd6Au
_chemical_formula_sum   'Y1 B1 Pd6 Au1'
_cell_volume   139.06920793
_cell_formula_units_Z   1
loop_
 _symmetry_equiv_pos_site_id
 _symmetry_equiv_pos_as_xyz
  1  'x, y, z'
loop_
 _atom_site_type_symbol
 _atom_site_label
 _atom_site_symmetry_multiplicity
 _atom_site_fract_x
 _atom_site_fract_y
 _atom_site_fract_z
 _atom_site_occupancy
  Y  Y0  1  0.75000000  0.75000000  0.75000000  1
  B  B0  1  0.00000000  0.00000000  0.00000000  1
  Pd  Pd0  1  0.74480546  0.25519554  0.25519554  1
  Pd  Pd1  1  0.25519554  0.74480546  0.25519554  1
  Pd  Pd2  1  0.74480446  0.74480446  0.25519654  1
  Pd  Pd3  1  0.25519554  0.25519554  0.74480546  1
  Pd  Pd4  1  0.74480446  0.25519654  0.74480446  1
  Pd  Pd5  1  0.25519654  0.74480446  0.74480446  1
  Au  Au0  1  0.25000000  0.25000000  0.25000000  1
loop_
_geom_bond_atom_site_label_1
_geom_bond_atom_site_label_2
_geom_bond_distance
_geom_bond_site_symmetry_2
B0 Pd4 2.098795 1_454
B0 Pd0 2.098795 1_455
B0 Pd5 2.098795 1_544
B0 Pd1 2.098795 1_545
B0 Pd3 2.098795 1_554
B0 Pd2 2.098795 1_445
Pd0 Y0 2.908030 1_545
Pd0 Y0 2.908030 1_554
Pd1 Y0 2.908030 1_455
Pd1 Y0 2.908030 1_554
Pd2 Y0 2.908024 1_555
Pd2 Y0 2.908036 1_554
Pd3 Y0 2.908030 1_545
Pd3 Y0 2.908030 1_455
Pd4 Y0 2.908024 1_555
Pd4 Y0 2.908036 1_545
Pd5 Y0 2.908024 1_555
Pd5 Y0 2.908036 1_455
Au0 Pd1 2.908024 1_545
Au0 Pd0 2.908024 1_455
Au0 Pd3 2.908024 1_554
Au0 Pd2 2.908030 1_545
Au0 Pd2 2.908030 1_455
Au0 Pd5 2.908030 1_545
Au0 Pd5 2.908030 1_554
Au0 Pd4 2.908030 1_455
Au0 Pd4 2.908030 1_554
Au0 Pd1 2.908036 1_555
Au0 Pd0 2.908036 1_555
Au0 Pd3 2.908036 1_555
