# generated using pymatgen
data_Rb6AgPb8Au
_symmetry_space_group_name_H-M   'P 1'
_cell_length_a   6.91362990
_cell_length_b   7.25071322
_cell_length_c   13.34084163
_cell_angle_alpha   90.00000000
_cell_angle_beta   90.00000000
_cell_angle_gamma   90.00000000
_symmetry_Int_Tables_number   1
_chemical_formula_structural   Rb6AgPb8Au
_chemical_formula_sum   'Rb6 Ag1 Pb8 Au1'
_cell_volume   668.75968413
_cell_formula_units_Z   1
loop_
 _symmetry_equiv_pos_site_id
 _symmetry_equiv_pos_as_xyz
  1  'x, y, z'
loop_
 _atom_site_type_symbol
 _atom_site_label
 _atom_site_symmetry_multiplicity
 _atom_site_fract_x
 _atom_site_fract_y
 _atom_site_fract_z
 _atom_site_occupancy
  Rb  Rb0  1  0.17154124  0.00000000  0.75157794  1
  Rb  Rb1  1  0.17154124  0.00000000  0.24842206  1
  Rb  Rb2  1  0.44084962  0.50000000  0.50000000  1
  Rb  Rb3  1  0.55446795  0.00000000  0.00000000  1
  Rb  Rb4  1  0.83027610  0.50000000  0.25260817  1
  Rb  Rb5  1  0.83027610  0.50000000  0.74739183  1
  Ag  Ag0  1  0.68939925  0.50000000  0.00000000  1
  Pb  Pb0  1  0.04254836  0.27402989  0.00000000  1
  Pb  Pb1  1  0.04254836  0.72597011  0.00000000  1
  Pb  Pb2  1  0.33641088  0.50000000  0.87828887  1
  Pb  Pb3  1  0.33641088  0.50000000  0.12171113  1
  Pb  Pb4  1  0.66213298  0.00000000  0.37826271  1
  Pb  Pb5  1  0.66213298  0.00000000  0.62173729  1
  Pb  Pb6  1  0.95914790  0.77448594  0.50000000  1
  Pb  Pb7  1  0.95914790  0.22551406  0.50000000  1
  Au  Au0  1  0.31116326  0.00000000  0.50000000  1
loop_
_geom_bond_atom_site_label_1
_geom_bond_atom_site_label_2
_geom_bond_distance
_geom_bond_site_symmetry_2
Ag0 Pb2 2.931245 1_554
Ag0 Pb3 2.931245 1_555
Ag0 Pb1 2.940345 1_655
Ag0 Pb0 2.940345 1_655
Ag0 Rb4 3.507928 1_555
Ag0 Rb5 3.507928 1_554
Ag0 Rb3 3.743454 1_565
Ag0 Rb3 3.743454 1_555
Pb0 Pb2 3.073862 1_554
Pb0 Pb3 3.073862 1_555
Pb0 Pb1 3.276889 1_555
Pb0 Rb3 3.915922 1_455
Pb0 Rb1 3.965702 1_555
Pb0 Rb0 3.965702 1_554
Pb0 Rb4 4.024327 1_455
Pb0 Rb5 4.024327 1_454
Pb0 Rb3 4.058807 1_555
Pb1 Pb2 3.073862 1_554
Pb1 Pb3 3.073862 1_555
Pb1 Rb3 3.915922 1_465
Pb1 Rb1 3.965702 1_565
Pb1 Rb0 3.965702 1_564
Pb1 Rb4 4.024327 1_455
Pb1 Rb5 4.024327 1_454
Pb1 Rb3 4.058807 1_565
Pb2 Pb3 3.247458 1_556
Pb2 Rb5 3.835051 1_555
Pb2 Rb5 3.910765 1_455
Pb2 Rb0 4.159329 1_555
Pb2 Rb0 4.159329 1_565
Pb2 Rb3 4.248819 1_566
Pb2 Rb3 4.248819 1_556
Pb3 Rb4 3.835051 1_555
Pb3 Rb4 3.910765 1_455
Pb3 Rb1 4.159329 1_555
Pb3 Rb1 4.159329 1_565
Pb3 Rb3 4.248819 1_565
Pb3 Rb3 4.248819 1_555
Pb4 Pb7 3.086740 1_555
Pb4 Pb6 3.086740 1_545
Pb4 Pb5 3.248156 1_555
Pb4 Rb1 3.808485 1_555
Pb4 Rb1 3.924788 1_655
Pb4 Rb4 4.159889 1_545
Pb4 Rb4 4.159889 1_555
Pb4 Rb2 4.256917 1_545
Pb4 Rb2 4.256917 1_555
Pb5 Pb7 3.086740 1_555
Pb5 Pb6 3.086740 1_545
Pb5 Rb0 3.808485 1_555
Pb5 Rb0 3.924788 1_655
Pb5 Rb5 4.159889 1_555
Pb5 Rb5 4.159889 1_545
Pb5 Rb2 4.256917 1_545
Pb5 Rb2 4.256917 1_555
Pb6 Pb7 3.270276 1_565
Pb6 Rb2 3.879680 1_655
Pb6 Rb5 3.955697 1_555
Pb6 Rb4 3.955697 1_555
Pb6 Rb0 4.011782 1_665
Pb6 Rb1 4.011782 1_665
Pb6 Rb2 4.098923 1_555
Pb7 Rb2 3.879680 1_655
Pb7 Rb5 3.955697 1_555
Pb7 Rb4 3.955697 1_555
Pb7 Rb0 4.011782 1_655
Pb7 Rb1 4.011782 1_655
Pb7 Rb2 4.098923 1_555
Au0 Pb5 2.919830 1_555
Au0 Pb4 2.919830 1_555
Au0 Pb7 2.931994 1_455
Au0 Pb6 2.931994 1_445
Au0 Rb0 3.492318 1_555
Au0 Rb1 3.492318 1_555
Au0 Rb2 3.734583 1_545
Au0 Rb2 3.734583 1_555
