# generated using pymatgen
data_NaY7(Sn11Os3)2
_symmetry_space_group_name_H-M   'P 1'
_cell_length_a   9.83083240
_cell_length_b   9.83083367
_cell_length_c   10.08198812
_cell_angle_alpha   90.00000000
_cell_angle_beta   90.00000000
_cell_angle_gamma   120.00000572
_symmetry_Int_Tables_number   1
_chemical_formula_structural   NaY7(Sn11Os3)2
_chemical_formula_sum   'Na1 Y7 Sn22 Os6'
_cell_volume   843.83479378
_cell_formula_units_Z   1
loop_
 _symmetry_equiv_pos_site_id
 _symmetry_equiv_pos_as_xyz
  1  'x, y, z'
loop_
 _atom_site_type_symbol
 _atom_site_label
 _atom_site_symmetry_multiplicity
 _atom_site_fract_x
 _atom_site_fract_y
 _atom_site_fract_z
 _atom_site_occupancy
  Na  Na0  1  0.00000000  0.00000000  0.50000000  1
  Y  Y0  1  0.00000000  0.00000000  0.00000000  1
  Y  Y1  1  0.03496407  0.51748204  0.30870092  1
  Y  Y2  1  0.48251796  0.96503593  0.30870092  1
  Y  Y3  1  0.48251796  0.51748204  0.30870092  1
  Y  Y4  1  0.96503593  0.48251796  0.69129908  1
  Y  Y5  1  0.51748204  0.03496407  0.69129908  1
  Y  Y6  1  0.51748204  0.48251796  0.69129908  1
  Sn  Sn0  1  0.12591042  0.87408958  0.26183026  1
  Sn  Sn1  1  0.74817716  0.87408958  0.26183026  1
  Sn  Sn2  1  0.12591042  0.25182284  0.26183026  1
  Sn  Sn3  1  0.87408958  0.12591042  0.73816974  1
  Sn  Sn4  1  0.25182284  0.12591042  0.73816974  1
  Sn  Sn5  1  0.87408958  0.74817716  0.73816974  1
  Sn  Sn6  1  0.35069214  0.00000000  0.00000000  1
  Sn  Sn7  1  0.64930786  0.64930786  0.00000000  1
  Sn  Sn8  1  0.00000000  0.35069214  0.00000000  1
  Sn  Sn9  1  0.35069214  0.35069214  0.00000000  1
  Sn  Sn10  1  1.00000000  0.64930786  0.00000000  1
  Sn  Sn11  1  0.64930786  1.00000000  0.00000000  1
  Sn  Sn12  1  0.77793463  0.55587126  0.45971749  1
  Sn  Sn13  1  0.77793463  0.22206537  0.45971749  1
  Sn  Sn14  1  0.44412874  0.22206537  0.45971749  1
  Sn  Sn15  1  0.22206537  0.44412874  0.54028251  1
  Sn  Sn16  1  0.22206537  0.77793463  0.54028251  1
  Sn  Sn17  1  0.55587126  0.77793463  0.54028251  1
  Sn  Sn18  1  0.66666700  0.33333300  0.17236981  1
  Sn  Sn19  1  0.33333300  0.66666700  0.82763019  1
  Sn  Sn20  1  0.66666700  0.33333300  0.87587186  1
  Sn  Sn21  1  0.33333300  0.66666700  0.12412814  1
  Os  Os0  1  0.16698256  0.83301744  0.79516384  1
  Os  Os1  1  0.66603488  0.83301744  0.79516384  1
  Os  Os2  1  0.16698256  0.33396512  0.79516384  1
  Os  Os3  1  0.83301744  0.16698256  0.20483616  1
  Os  Os4  1  0.33396512  0.16698256  0.20483616  1
  Os  Os5  1  0.83301744  0.66603488  0.20483616  1
loop_
_geom_bond_atom_site_label_1
_geom_bond_atom_site_label_2
_geom_bond_distance
_geom_bond_site_symmetry_2
Na0 Sn3 3.219062 1_455
Na0 Sn0 3.219062 1_545
Na0 Sn4 3.219073 1_555
Na0 Sn1 3.219073 1_445
Na0 Sn5 3.219073 1_445
Na0 Sn2 3.219073 1_555
Sn0 Y2 3.190382 1_555
Sn0 Y1 3.190383 1_555
Sn0 Sn16 3.249909 1_555
Sn0 Sn6 3.263193 1_565
Sn0 Sn10 3.263194 1_455
Sn0 Y0 3.400715 1_565
Sn1 Y2 3.190364 1_555
Sn1 Y3 3.190377 1_555
Sn1 Sn17 3.249892 1_555
Sn1 Sn11 3.263184 1_555
Sn1 Sn7 3.263194 1_555
Sn1 Y0 3.400725 1_665
Sn2 Y1 3.190364 1_555
Sn2 Y3 3.190377 1_555
Sn2 Sn8 3.263184 1_555
Sn2 Sn9 3.263194 1_555
Sn2 Y0 3.400726 1_555
Sn3 Y5 3.190382 1_555
Sn3 Y4 3.190383 1_555
Sn3 Sn8 3.263194 1_656
Sn3 Y0 3.400715 1_656
Sn4 Y5 3.190364 1_555
Sn4 Y6 3.190377 1_555
Sn4 Sn6 3.263184 1_556
Sn4 Sn9 3.263194 1_556
Sn4 Y0 3.400725 1_556
Sn5 Y4 3.190364 1_555
Sn5 Y6 3.190377 1_555
Sn5 Sn7 3.263194 1_556
Sn5 Y0 3.400726 1_666
Sn6 Y0 3.447596 1_555
Sn6 Y5 3.453931 1_554
Sn6 Y2 3.453931 1_545
Sn7 Sn9 2.935641 1_555
Sn7 Y0 3.447596 1_665
Sn7 Y3 3.453931 1_555
Sn7 Y6 3.453931 1_554
Sn8 Y0 3.447596 1_555
Sn8 Y1 3.453931 1_555
Sn8 Y4 3.453931 1_454
Sn9 Y0 3.447596 1_555
Sn9 Y6 3.453931 1_554
Sn9 Y3 3.453931 1_555
Sn10 Sn8 2.935642 1_655
Sn10 Sn5 3.263184 1_554
Sn10 Sn21 3.431383 1_655
Sn10 Sn20 3.431387 1_554
Sn10 Y0 3.447596 1_665
Sn10 Y4 3.453931 1_554
Sn10 Y1 3.453931 1_655
Sn11 Sn6 2.935641 1_565
Sn11 Sn3 3.263193 1_564
Sn11 Sn20 3.431383 1_564
Sn11 Sn21 3.431387 1_555
Sn11 Y0 3.447596 1_665
Sn11 Y2 3.453931 1_555
Sn11 Y5 3.453931 1_564
Sn12 Y3 3.130315 1_555
Sn12 Y1 3.130332 1_655
Sn12 Sn5 3.249892 1_555
Sn12 Y6 3.268164 1_555
Sn12 Y4 3.268177 1_555
Sn12 Sn14 3.281590 1_555
Sn12 Sn13 3.281590 1_555
Sn13 Y2 3.130322 1_545
Sn13 Y1 3.130322 1_655
Sn13 Sn3 3.249909 1_555
Sn13 Y5 3.268167 1_555
Sn13 Y4 3.268167 1_555
Sn13 Sn14 3.281590 1_555
Sn14 Y3 3.130315 1_555
Sn14 Y2 3.130332 1_545
Sn14 Sn4 3.249892 1_555
Sn14 Y6 3.268164 1_555
Sn14 Y5 3.268177 1_555
Sn15 Y6 3.130315 1_555
Sn15 Y4 3.130332 1_455
Sn15 Sn2 3.249892 1_555
Sn15 Y3 3.268164 1_555
Sn15 Y1 3.268177 1_555
Sn15 Sn17 3.281590 1_555
Sn15 Sn16 3.281590 1_555
Sn16 Y5 3.130322 1_565
Sn16 Y4 3.130322 1_455
Sn16 Y2 3.268167 1_555
Sn16 Y1 3.268167 1_555
Sn16 Sn17 3.281590 1_555
Sn17 Y6 3.130315 1_555
Sn17 Y5 3.130332 1_565
Sn17 Y3 3.268164 1_555
Sn17 Y2 3.268177 1_555
Sn18 Sn20 2.989289 1_554
Sn18 Y1 3.423615 1_655
Sn18 Y2 3.423615 1_545
Sn18 Y3 3.423623 1_555
Sn19 Sn21 2.989289 1_556
Sn19 Y4 3.423615 1_455
Sn19 Y5 3.423615 1_565
Sn19 Y6 3.423623 1_555
Sn20 Y4 3.148907 1_555
Sn20 Y5 3.148907 1_555
Sn20 Y6 3.148914 1_555
Sn20 Sn8 3.431383 1_656
Sn20 Sn6 3.431387 1_556
Sn20 Sn9 3.431392 1_556
Sn20 Sn7 3.431392 1_556
Sn21 Y1 3.148907 1_555
Sn21 Y2 3.148907 1_555
Sn21 Y3 3.148914 1_555
Sn21 Sn6 3.431383 1_565
Sn21 Sn8 3.431387 1_555
Sn21 Sn7 3.431392 1_555
Sn21 Sn9 3.431392 1_555
Os0 Sn5 2.629660 1_455
Os0 Sn4 2.629660 1_565
Os0 Sn6 2.693813 1_566
Os0 Sn10 2.693813 1_456
Os0 Sn16 2.735528 1_555
Os0 Sn19 2.851383 1_555
Os0 Y5 3.173338 1_565
Os0 Y4 3.173339 1_455
Os0 Y0 3.514143 1_566
Os1 Sn3 2.629664 1_565
Os1 Sn5 2.629678 1_555
Os1 Sn7 2.693813 1_556
Os1 Sn11 2.693813 1_556
Os1 Sn17 2.735522 1_555
Os1 Sn19 2.851391 1_555
Os1 Y6 3.173339 1_555
Os1 Y5 3.173339 1_565
Os1 Y0 3.514143 1_666
Os2 Sn3 2.629664 1_455
Os2 Sn4 2.629679 1_555
Os2 Sn9 2.693813 1_556
Os2 Sn8 2.693813 1_556
Os2 Sn15 2.735522 1_555
Os2 Sn19 2.851391 1_555
Os2 Y6 3.173338 1_555
Os2 Y4 3.173339 1_455
Os2 Y0 3.514143 1_556
Os3 Sn2 2.629660 1_655
Os3 Sn1 2.629660 1_545
Os3 Sn11 2.693813 1_545
Os3 Sn8 2.693813 1_655
Os3 Sn13 2.735528 1_555
Os3 Sn18 2.851383 1_555
Os3 Y2 3.173338 1_545
Os3 Y1 3.173339 1_655
Os3 Y0 3.514143 1_655
Os4 Sn0 2.629664 1_545
Os4 Sn2 2.629678 1_555
Os4 Sn9 2.693813 1_555
Os4 Sn6 2.693813 1_555
Os4 Sn14 2.735522 1_555
Os4 Sn18 2.851391 1_555
Os4 Y3 3.173339 1_555
Os4 Y2 3.173339 1_545
Os4 Y0 3.514143 1_555
Os5 Sn0 2.629664 1_655
Os5 Sn1 2.629679 1_555
Os5 Sn7 2.693813 1_555
Os5 Sn10 2.693813 1_555
Os5 Sn12 2.735522 1_555
Os5 Sn18 2.851391 1_555
Os5 Y3 3.173338 1_555
Os5 Y1 3.173339 1_655
Os5 Y0 3.514143 1_665
