# generated using pymatgen
data_Lu10Zn4BiSb
_symmetry_space_group_name_H-M   'P 1'
_cell_length_a   8.39802714
_cell_length_b   8.39802694
_cell_length_c   8.39802752
_cell_angle_alpha   124.31554891
_cell_angle_beta   124.31554825
_cell_angle_gamma   82.67482157
_symmetry_Int_Tables_number   1
_chemical_formula_structural   Lu10Zn4BiSb
_chemical_formula_sum   'Lu10 Zn4 Bi1 Sb1'
_cell_volume   388.00777454
_cell_formula_units_Z   1
loop_
 _symmetry_equiv_pos_site_id
 _symmetry_equiv_pos_as_xyz
  1  'x, y, z'
loop_
 _atom_site_type_symbol
 _atom_site_label
 _atom_site_symmetry_multiplicity
 _atom_site_fract_x
 _atom_site_fract_y
 _atom_site_fract_z
 _atom_site_occupancy
  Lu  Lu0  1  0.00266428  0.00266428  0.00000000  1
  Lu  Lu1  1  0.49733572  0.49733572  0.00000000  1
  Lu  Lu2  1  0.79779094  0.29463034  0.80708506  1
  Lu  Lu3  1  0.20536966  0.70220906  0.19291494  1
  Lu  Lu4  1  0.48754528  0.99070688  0.19291494  1
  Lu  Lu5  1  0.29463034  0.48754528  0.49683941  1
  Lu  Lu6  1  0.01245472  0.20536966  0.50316059  1
  Lu  Lu7  1  0.50929312  0.01245472  0.80708506  1
  Lu  Lu8  1  0.70220906  0.50929312  0.49683941  1
  Lu  Lu9  1  0.99070688  0.79779094  0.50316059  1
  Zn  Zn0  1  0.13732413  0.63732413  0.77464926  1
  Zn  Zn1  1  0.86267587  0.36267587  0.22535074  1
  Zn  Zn2  1  0.63732413  0.86267587  0.50000000  1
  Zn  Zn3  1  0.36267587  0.13732413  0.50000000  1
  Bi  Bi0  1  0.75000000  0.75000000  0.00000000  1
  Sb  Sb0  1  0.25000000  0.25000000  0.00000000  1
loop_
_geom_bond_atom_site_label_1
_geom_bond_atom_site_label_2
_geom_bond_distance
_geom_bond_site_symmetry_2
Lu0 Zn1 3.042271 1_455
Lu0 Zn0 3.042272 1_544
Lu0 Zn3 3.042274 1_555
Lu0 Zn2 3.042274 1_444
Lu0 Sb0 3.119159 1_555
Lu1 Zn0 3.042272 1_554
Lu1 Zn1 3.042272 1_555
Lu1 Zn2 3.042274 1_555
Lu1 Zn3 3.042274 1_554
Lu1 Sb0 3.119159 1_555
Lu2 Zn2 2.899347 1_545
Lu2 Zn3 2.917712 1_555
Lu2 Zn1 2.935984 1_556
Lu2 Sb0 3.251473 1_656
Lu3 Zn2 2.899347 1_555
Lu3 Zn3 2.917712 1_565
Lu3 Zn0 2.935984 1_554
Lu3 Sb0 3.251473 1_555
Lu4 Zn3 2.899348 1_565
Lu4 Zn2 2.917719 1_555
Lu4 Zn0 2.935996 1_554
Lu4 Sb0 3.251466 1_565
Lu5 Zn1 2.899346 1_455
Lu5 Zn0 2.917719 1_555
Lu5 Zn3 2.935992 1_555
Lu5 Sb0 3.251474 1_555
Lu6 Zn0 2.899346 1_555
Lu6 Zn1 2.917719 1_455
Lu6 Zn3 2.935992 1_555
Lu6 Sb0 3.251474 1_556
Lu7 Zn3 2.899348 1_555
Lu7 Zn2 2.917719 1_545
Lu7 Zn1 2.935996 1_556
Lu7 Sb0 3.251466 1_556
Lu8 Zn1 2.899354 1_555
Lu8 Zn0 2.917712 1_655
Lu8 Zn2 2.936001 1_555
Lu8 Sb0 3.251473 1_555
Lu9 Zn0 2.899354 1_655
Lu9 Zn1 2.917712 1_555
Lu9 Zn2 2.936001 1_555
Lu9 Sb0 3.251473 1_666
Bi0 Lu0 3.186357 1_665
Bi0 Lu1 3.186357 1_555
Bi0 Lu8 3.281244 1_554
Bi0 Lu9 3.281244 1_555
Bi0 Lu2 3.281244 1_554
Bi0 Lu3 3.281244 1_655
Bi0 Lu6 3.281245 1_665
Bi0 Lu5 3.281245 1_554
Bi0 Lu7 3.281246 1_564
Bi0 Lu4 3.281247 1_555
