# generated using pymatgen
data_BaSb12Ru3Au
_symmetry_space_group_name_H-M   'P 1'
_cell_length_a   8.20520047
_cell_length_b   8.20520001
_cell_length_c   8.17573668
_cell_angle_alpha   109.39849744
_cell_angle_beta   109.39849631
_cell_angle_gamma   109.54384467
_symmetry_Int_Tables_number   1
_chemical_formula_structural   BaSb12Ru3Au
_chemical_formula_sum   'Ba1 Sb12 Ru3 Au1'
_cell_volume   424.10400902
_cell_formula_units_Z   1
loop_
 _symmetry_equiv_pos_site_id
 _symmetry_equiv_pos_as_xyz
  1  'x, y, z'
loop_
 _atom_site_type_symbol
 _atom_site_label
 _atom_site_symmetry_multiplicity
 _atom_site_fract_x
 _atom_site_fract_y
 _atom_site_fract_z
 _atom_site_occupancy
  Ba  Ba0  1  0.00000000  0.00000000  0.00000000  1
  Sb  Sb0  1  0.16398246  0.80510599  0.66200376  1
  Sb  Sb1  1  0.15901451  0.49979975  0.34022392  1
  Sb  Sb2  1  0.50020025  0.65921476  0.84042417  1
  Sb  Sb3  1  0.34078524  0.84098549  0.18120941  1
  Sb  Sb4  1  0.80510599  0.64112353  0.14310223  1
  Sb  Sb5  1  0.64112353  0.83601754  0.49802130  1
  Sb  Sb6  1  0.19489401  0.35887647  0.85689777  1
  Sb  Sb7  1  0.65921476  0.15901451  0.81879059  1
  Sb  Sb8  1  0.35887647  0.16398246  0.50197870  1
  Sb  Sb9  1  0.49979975  0.34078524  0.15957583  1
  Sb  Sb10  1  0.84098549  0.50020025  0.65977608  1
  Sb  Sb11  1  0.83601754  0.19489401  0.33799624  1
  Ru  Ru0  1  0.50000000  0.50000000  0.50000000  1
  Ru  Ru1  1  0.50000000  0.00000000  0.00000000  1
  Ru  Ru2  1  0.00000000  0.50000000  0.00000000  1
  Au  Au0  1  0.00000000  0.00000000  0.50000000  1
loop_
_geom_bond_atom_site_label_1
_geom_bond_atom_site_label_2
_geom_bond_distance
_geom_bond_site_symmetry_2
Ba0 Sb1 3.562191 1_555
Ba0 Sb10 3.562191 1_444
Ba0 Sb3 3.562191 1_545
Ba0 Sb7 3.562191 1_454
Ba0 Sb9 3.562192 1_555
Ba0 Sb2 3.562192 1_444
Ba0 Sb11 3.602480 1_455
Ba0 Sb0 3.602480 1_544
Ba0 Sb6 3.602480 1_554
Ba0 Sb4 3.602480 1_445
Ba0 Sb8 3.602480 1_555
Ba0 Sb5 3.602480 1_444
Sb0 Sb1 2.946329 1_555
Sb0 Sb10 2.963913 1_455
Sb1 Sb11 2.963913 1_455
Sb2 Sb6 2.946329 1_555
Sb2 Sb4 2.963913 1_556
Sb3 Sb5 2.946329 1_555
Sb3 Sb8 2.963913 1_565
Sb4 Sb9 2.946329 1_555
Sb5 Sb7 2.963913 1_565
Sb6 Sb9 2.963913 1_556
Sb7 Sb8 2.946329 1_555
Sb10 Sb11 2.946329 1_555
Ru0 Sb5 2.617006 1_555
Ru0 Sb8 2.617006 1_555
Ru0 Sb2 2.652020 1_555
Ru0 Sb9 2.652020 1_555
Ru0 Sb10 2.664975 1_555
Ru0 Sb1 2.664975 1_555
Ru1 Sb11 2.617006 1_555
Ru1 Sb0 2.617006 1_544
Ru1 Sb7 2.652020 1_554
Ru1 Sb3 2.652020 1_545
Ru1 Sb9 2.664975 1_555
Ru1 Sb2 2.664975 1_544
Ru2 Sb6 2.617006 1_554
Ru2 Sb4 2.617006 1_455
Ru2 Sb10 2.652020 1_454
Ru2 Sb1 2.652020 1_555
Ru2 Sb3 2.664975 1_555
Ru2 Sb7 2.664975 1_454
Au0 Sb0 2.790107 1_545
Au0 Sb11 2.790107 1_455
Au0 Sb6 2.790107 1_555
Au0 Sb4 2.790107 1_445
Au0 Sb8 2.790107 1_555
Au0 Sb5 2.790107 1_445
