# generated using pymatgen
data_RbGa5(HgSe3)4
_symmetry_space_group_name_H-M   'P 1'
_cell_length_a   8.97434773
_cell_length_b   9.02662433
_cell_length_c   9.03746480
_cell_angle_alpha   107.08678897
_cell_angle_beta   107.95638294
_cell_angle_gamma   107.43090358
_symmetry_Int_Tables_number   1
_chemical_formula_structural   RbGa5(HgSe3)4
_chemical_formula_sum   'Rb1 Ga5 Hg4 Se12'
_cell_volume   601.31966175
_cell_formula_units_Z   1
loop_
 _symmetry_equiv_pos_site_id
 _symmetry_equiv_pos_as_xyz
  1  'x, y, z'
loop_
 _atom_site_type_symbol
 _atom_site_label
 _atom_site_symmetry_multiplicity
 _atom_site_fract_x
 _atom_site_fract_y
 _atom_site_fract_z
 _atom_site_occupancy
  Rb  Rb0  1  0.99549241  0.99747043  0.99520069  1
  Ga  Ga0  1  0.48390905  0.33371706  0.94187983  1
  Ga  Ga1  1  0.94029607  0.49173074  0.34472114  1
  Ga  Ga2  1  0.32981551  0.93217358  0.48076970  1
  Ga  Ga3  1  0.01825210  0.18368286  0.55192923  1
  Ga  Ga4  1  0.55989292  0.02895181  0.18646561  1
  Hg  Hg0  1  0.62979460  0.70443830  0.39273311  1
  Hg  Hg1  1  0.40170611  0.63792208  0.71758738  1
  Hg  Hg2  1  0.70726863  0.38825813  0.63186209  1
  Hg  Hg3  1  0.19282691  0.56527611  0.01626596  1
  Se  Se0  1  0.78452211  0.93866135  0.28798801  1
  Se  Se1  1  0.30310999  0.81615732  0.93333191  1
  Se  Se2  1  0.92686955  0.26909402  0.76922046  1
  Se  Se3  1  0.06661978  0.69817026  0.24440095  1
  Se  Se4  1  0.23331931  0.08145815  0.68630121  1
  Se  Se5  1  0.69913902  0.23762688  0.08472305  1
  Se  Se6  1  0.37245776  0.41247909  0.14585573  1
  Se  Se7  1  0.14125094  0.36933057  0.43320065  1
  Se  Se8  1  0.42315970  0.13338864  0.36123648  1
  Se  Se9  1  0.88288478  0.63896424  0.56973721  1
  Se  Se10  1  0.56062797  0.88022332  0.63536251  1
  Se  Se11  1  0.64142478  0.55546606  0.88386609  1
loop_
_geom_bond_atom_site_label_1
_geom_bond_atom_site_label_2
_geom_bond_distance
_geom_bond_site_symmetry_2
Rb0 Se2 3.692345 1_565
Rb0 Se1 3.705867 1_655
Rb0 Se6 3.728550 1_666
Rb0 Se8 3.760901 1_666
Rb0 Se0 3.765680 1_556
Rb0 Se10 3.821497 1_555
Rb0 Se9 3.822457 1_555
Rb0 Se7 3.875046 1_666
Rb0 Se11 3.886114 1_555
Rb0 Se5 4.022129 1_566
Rb0 Se3 4.062131 1_656
Rb0 Se4 4.107518 1_665
Ga0 Se11 2.378701 1_555
Ga0 Se6 2.386799 1_556
Ga0 Se4 2.493206 1_555
Ga0 Se5 2.504795 1_556
Ga1 Se9 2.373871 1_555
Ga1 Se7 2.436447 1_655
Ga1 Se3 2.437328 1_655
Ga1 Se5 2.487857 1_555
Ga2 Se10 2.375937 1_555
Ga2 Se3 2.419152 1_555
Ga2 Se8 2.442764 1_565
Ga2 Se4 2.497221 1_565
Ga3 Se2 2.367580 1_455
Ga3 Se7 2.420067 1_555
Ga3 Se0 2.452902 1_445
Ga3 Se4 2.516290 1_555
Ga4 Se1 2.397678 1_544
Ga4 Se0 2.419349 1_545
Ga4 Se8 2.429472 1_555
Ga4 Se5 2.504234 1_555
Hg0 Se6 2.641611 1_555
Hg0 Se10 2.663823 1_555
Hg0 Se9 2.680791 1_555
Hg0 Se0 2.742628 1_555
Hg1 Se11 2.657746 1_555
Hg1 Se10 2.666401 1_555
Hg1 Se7 2.680705 1_555
Hg1 Se1 2.691892 1_555
Hg2 Se9 2.660051 1_555
Hg2 Se8 2.666406 1_555
Hg2 Se2 2.669873 1_555
Hg2 Se11 2.675492 1_555
Hg3 Se1 2.604187 1_554
Hg3 Se6 2.643841 1_555
Hg3 Se2 2.685682 1_454
Hg3 Se3 2.788043 1_555
