# generated using pymatgen
data_CaCdRu2O7
_symmetry_space_group_name_H-M   'P 1'
_cell_length_a   7.13760570
_cell_length_b   7.19562658
_cell_length_c   7.19562660
_cell_angle_alpha   60.76740540
_cell_angle_beta   60.26637943
_cell_angle_gamma   60.26637719
_symmetry_Int_Tables_number   1
_chemical_formula_structural   CaCdRu2O7
_chemical_formula_sum   'Ca2 Cd2 Ru4 O14'
_cell_volume   263.86859045
_cell_formula_units_Z   2
loop_
 _symmetry_equiv_pos_site_id
 _symmetry_equiv_pos_as_xyz
  1  'x, y, z'
loop_
 _atom_site_type_symbol
 _atom_site_label
 _atom_site_symmetry_multiplicity
 _atom_site_fract_x
 _atom_site_fract_y
 _atom_site_fract_z
 _atom_site_occupancy
  Ca  Ca0  1  0.12500000  0.62500000  0.12500000  1
  Ca  Ca1  1  0.12500000  0.12500000  0.62500000  1
  Cd  Cd0  1  0.62500000  0.12500000  0.12500000  1
  Cd  Cd1  1  0.12500000  0.12500000  0.12500000  1
  Ru  Ru0  1  0.62500000  0.12500000  0.62500000  1
  Ru  Ru1  1  0.62500000  0.62500000  0.12500000  1
  Ru  Ru2  1  0.12500000  0.62500000  0.62500000  1
  Ru  Ru3  1  0.62500000  0.62500000  0.62500000  1
  O  O0  1  0.69383003  0.69074675  0.30855574  1
  O  O1  1  0.95283071  0.54716929  0.54716929  1
  O  O2  1  0.55371878  0.94628122  0.94628122  1
  O  O3  1  0.94313251  0.94144426  0.55925325  1
  O  O4  1  0.94313251  0.55925325  0.94144426  1
  O  O5  1  0.55616997  0.94144426  0.55925325  1
  O  O6  1  0.30686749  0.69074675  0.30855574  1
  O  O7  1  0.29716929  0.70283071  0.70283071  1
  O  O8  1  0.69628122  0.30371878  0.30371878  1
  O  O9  1  0.69383003  0.30855574  0.69074675  1
  O  O10  1  0.55616997  0.55925325  0.94144426  1
  O  O11  1  0.30686749  0.30855574  0.69074675  1
  O  O12  1  0.25984762  0.24015238  0.24015238  1
  O  O13  1  0.99015238  0.00984762  0.00984762  1
loop_
_geom_bond_atom_site_label_1
_geom_bond_atom_site_label_2
_geom_bond_distance
_geom_bond_site_symmetry_2
Ca0 O13 2.277639 1_465
Ca0 O12 2.277639 1_555
Ca0 O1 2.523869 1_455
Ca0 O7 2.523869 1_554
Ca0 O6 2.563894 1_555
Ca0 O4 2.563894 1_454
Ca0 O0 2.563894 1_455
Ca0 O10 2.563894 1_554
Ca1 O13 2.277639 1_456
Ca1 O12 2.277639 1_555
Ca1 O1 2.523869 1_455
Ca1 O7 2.523869 1_545
Ca1 O11 2.563894 1_555
Ca1 O3 2.563894 1_445
Ca1 O5 2.563894 1_545
Ca1 O9 2.563894 1_455
Cd0 O13 2.133603 1_555
Cd0 O12 2.133603 1_555
Cd0 O8 2.545525 1_555
Cd0 O2 2.545525 1_544
Cd0 O0 2.615274 1_545
Cd0 O10 2.615274 1_554
Cd0 O5 2.615274 1_545
Cd0 O9 2.615274 1_554
Cd1 O12 2.133603 1_555
Cd1 O13 2.133603 1_455
Cd1 O2 2.545525 1_544
Cd1 O8 2.545525 1_455
Cd1 O6 2.615274 1_545
Cd1 O4 2.615274 1_454
Cd1 O3 2.615274 1_445
Cd1 O11 2.615274 1_554
O0 Ru1 1.922025 1_555
O0 Ru3 1.928402 1_555
O1 Ru2 1.951695 1_655
O1 Ru3 1.951695 1_555
O2 Ru1 1.958490 1_556
O2 Ru0 1.958490 1_565
O3 Ru0 1.922025 1_565
O3 Ru2 1.928402 1_655
O4 Ru1 1.922025 1_556
O4 Ru2 1.928402 1_655
O5 Ru0 1.922025 1_565
O5 Ru3 1.928402 1_555
O6 Ru1 1.922025 1_555
O6 Ru2 1.928402 1_555
O7 Ru2 1.951695 1_555
O7 Ru3 1.951695 1_555
O8 Ru1 1.958490 1_555
O8 Ru0 1.958490 1_555
O9 Ru0 1.922025 1_555
O9 Ru3 1.928402 1_555
O10 Ru1 1.922025 1_556
O10 Ru3 1.928402 1_555
O11 Ru0 1.922025 1_555
O11 Ru2 1.928402 1_555
