# generated using pymatgen
data_Ta4Cu4Si4W
_symmetry_space_group_name_H-M   'P 1'
_cell_length_a   7.32208576
_cell_length_b   7.32208522
_cell_length_c   7.32208606
_cell_angle_alpha   93.48257819
_cell_angle_beta   93.48258011
_cell_angle_gamma   151.46313290
_symmetry_Int_Tables_number   1
_chemical_formula_structural   Ta4Cu4Si4W
_chemical_formula_sum   'Ta4 Cu4 Si4 W1'
_cell_volume   181.74955249
_cell_formula_units_Z   1
loop_
 _symmetry_equiv_pos_site_id
 _symmetry_equiv_pos_as_xyz
  1  'x, y, z'
loop_
 _atom_site_type_symbol
 _atom_site_label
 _atom_site_symmetry_multiplicity
 _atom_site_fract_x
 _atom_site_fract_y
 _atom_site_fract_z
 _atom_site_occupancy
  Ta  Ta0  1  0.12645818  0.80601485  0.93247303  1
  Ta  Ta1  1  0.19398515  0.12645818  0.32044233  1
  Ta  Ta2  1  0.80601485  0.87354182  0.67955767  1
  Ta  Ta3  1  0.87354182  0.19398515  0.06752697  1
  Cu  Cu0  1  0.39527920  0.91724225  0.31252145  1
  Cu  Cu1  1  0.60472080  0.08275775  0.68747855  1
  Cu  Cu2  1  0.91724225  0.60472080  0.52196305  1
  Cu  Cu3  1  0.08275775  0.39527920  0.47803695  1
  Si  Si0  1  0.24813120  0.55973653  0.80786773  1
  Si  Si1  1  0.44026347  0.24813120  0.68839567  1
  Si  Si2  1  0.55973653  0.75186880  0.31160433  1
  Si  Si3  1  0.75186880  0.44026347  0.19213227  1
  W  W0  1  0.50000000  0.50000000  0.00000000  1
loop_
_geom_bond_atom_site_label_1
_geom_bond_atom_site_label_2
_geom_bond_distance
_geom_bond_site_symmetry_2
Ta0 W0 2.942297 1_566
Ta0 W0 2.942298 1_456
Ta1 W0 2.942291 1_555
Ta1 W0 2.942293 1_445
Ta2 W0 2.942291 1_556
Ta2 W0 2.942293 1_666
Ta3 W0 2.942297 1_545
Ta3 W0 2.942298 1_655
Cu0 Si3 2.319785 1_565
Cu0 Si3 2.319785 1_455
Cu0 Si2 2.340558 1_555
Cu0 Cu2 2.616326 1_565
Cu0 Cu3 2.616326 1_555
Cu0 Cu3 2.616326 1_665
Cu0 Cu2 2.616326 1_455
Cu0 Cu1 2.678971 1_565
Cu0 Ta3 2.885167 1_455
Cu0 Ta3 2.885168 1_565
Cu0 Ta1 2.913608 1_565
Cu0 Ta0 2.919576 1_554
Cu1 Si0 2.319785 1_545
Cu1 Si0 2.319785 1_655
Cu1 Si1 2.340558 1_555
Cu1 Cu3 2.616326 1_545
Cu1 Cu2 2.616326 1_555
Cu1 Cu2 2.616326 1_445
Cu1 Cu3 2.616326 1_655
Cu1 Ta0 2.885167 1_655
Cu1 Ta0 2.885168 1_545
Cu1 Ta2 2.913608 1_545
Cu1 Ta3 2.919576 1_556
Cu2 Si1 2.319787 1_665
Cu2 Si1 2.319790 1_555
Cu2 Si3 2.340558 1_555
Cu2 Cu3 2.678971 1_655
Cu2 Ta1 2.885170 1_555
Cu2 Ta1 2.885172 1_665
Cu2 Ta0 2.913608 1_655
Cu2 Ta2 2.919579 1_555
Cu3 Si2 2.319787 1_445
Cu3 Si2 2.319790 1_555
Cu3 Si0 2.340558 1_555
Cu3 Ta2 2.885170 1_555
Cu3 Ta2 2.885172 1_445
Cu3 Ta3 2.913608 1_455
Cu3 Ta1 2.919579 1_555
Si0 Ta3 2.579887 1_566
Si0 Ta3 2.579887 1_456
Si0 W0 2.597763 1_556
Si0 Ta2 2.661895 1_555
Si0 Ta2 2.661897 1_445
Si0 Ta0 2.756718 1_555
Si1 Ta2 2.579887 1_555
Si1 Ta2 2.579887 1_445
Si1 W0 2.597757 1_556
Si1 Ta0 2.661893 1_545
Si1 Ta0 2.661895 1_655
Si1 Ta1 2.756731 1_555
Si2 Ta1 2.579887 1_555
Si2 Ta1 2.579887 1_665
Si2 W0 2.597757 1_555
Si2 Ta3 2.661893 1_565
Si2 Ta3 2.661895 1_455
Si2 Ta2 2.756731 1_555
Si3 Ta0 2.579887 1_544
Si3 Ta0 2.579887 1_654
Si3 W0 2.597763 1_555
Si3 Ta1 2.661895 1_555
Si3 Ta1 2.661897 1_665
Si3 Ta3 2.756718 1_555
