# generated using pymatgen
data_K16SnGeSb8
_symmetry_space_group_name_H-M   'P 1'
_cell_length_a   11.51676599
_cell_length_b   11.51676582
_cell_length_c   11.51676618
_cell_angle_alpha   59.99999898
_cell_angle_beta   59.99999947
_cell_angle_gamma   60.00000239
_symmetry_Int_Tables_number   1
_chemical_formula_structural   K16SnGeSb8
_chemical_formula_sum   'K16 Sn1 Ge1 Sb8'
_cell_volume   1080.13150326
_cell_formula_units_Z   1
loop_
 _symmetry_equiv_pos_site_id
 _symmetry_equiv_pos_as_xyz
  1  'x, y, z'
loop_
 _atom_site_type_symbol
 _atom_site_label
 _atom_site_symmetry_multiplicity
 _atom_site_fract_x
 _atom_site_fract_y
 _atom_site_fract_z
 _atom_site_occupancy
  K  K0  1  0.62664829  0.12005413  0.62664829  1
  K  K1  1  0.62664829  0.62664829  0.12005413  1
  K  K2  1  0.12005413  0.62664829  0.62664829  1
  K  K3  1  0.62664829  0.62664829  0.62664829  1
  K  K4  1  0.02297125  0.02297125  0.47702875  1
  K  K5  1  0.77236003  0.22763997  0.22763997  1
  K  K6  1  0.22763997  0.77236003  0.77236003  1
  K  K7  1  0.77236003  0.77236003  0.22763997  1
  K  K8  1  0.77236003  0.22763997  0.77236003  1
  K  K9  1  0.22763997  0.77236003  0.22763997  1
  K  K10  1  0.47702875  0.02297125  0.47702875  1
  K  K11  1  0.47702875  0.02297125  0.02297125  1
  K  K12  1  0.02297125  0.47702875  0.47702875  1
  K  K13  1  0.02297125  0.47702875  0.02297125  1
  K  K14  1  0.22763997  0.22763997  0.77236003  1
  K  K15  1  0.47702875  0.47702875  0.02297125  1
  Sn  Sn0  1  0.50000000  0.50000000  0.50000000  1
  Ge  Ge0  1  0.75000000  0.75000000  0.75000000  1
  Sb  Sb0  1  0.39675006  0.80974882  0.39675006  1
  Sb  Sb1  1  0.84889892  0.84889892  0.45330224  1
  Sb  Sb2  1  0.45330224  0.84889892  0.84889892  1
  Sb  Sb3  1  0.84889892  0.84889892  0.84889892  1
  Sb  Sb4  1  0.80974882  0.39675006  0.39675006  1
  Sb  Sb5  1  0.39675006  0.39675006  0.39675006  1
  Sb  Sb6  1  0.39675006  0.39675006  0.80974882  1
  Sb  Sb7  1  0.84889892  0.45330224  0.84889892  1
loop_
_geom_bond_atom_site_label_1
_geom_bond_atom_site_label_2
_geom_bond_distance
_geom_bond_site_symmetry_2
K0 Sn0 3.572783 1_555
K0 Sb2 3.663388 1_545
K0 Sb3 3.663388 1_545
K0 Sb1 3.663388 1_545
K0 Sb4 3.782980 1_555
K0 Sb6 3.782980 1_555
K0 Sb5 3.782980 1_555
K1 Sn0 3.572783 1_555
K1 Sb3 3.663388 1_554
K1 Sb2 3.663388 1_554
K1 Sb7 3.663388 1_554
K1 Sb5 3.782980 1_555
K1 Sb4 3.782980 1_555
K1 Sb0 3.782980 1_555
K2 Sn0 3.572783 1_555
K2 Sb7 3.663388 1_455
K2 Sb3 3.663388 1_455
K2 Sb1 3.663388 1_455
K2 Sb0 3.782980 1_555
K2 Sb5 3.782980 1_555
K2 Sb6 3.782980 1_555
K3 Sn0 3.572774 1_555
K3 Sb1 3.663388 1_555
K3 Sb2 3.663388 1_555
K3 Sb7 3.663388 1_555
K3 Sb6 3.782980 1_555
K3 Sb4 3.782980 1_555
K3 Sb0 3.782980 1_555
K4 Sb4 3.624248 1_455
K4 Sb0 3.624248 1_545
K4 Sb3 3.636934 1_445
K4 Sb1 3.636942 1_445
K5 Sb4 3.638974 1_555
K5 Sb5 3.638982 1_555
K5 Sb1 3.696907 1_545
K5 Sb7 3.696907 1_554
K6 Sb6 3.638984 1_555
K6 Sb0 3.638984 1_555
K6 Sb2 3.696899 1_555
K6 Sb3 3.696910 1_455
K7 Sb4 3.638984 1_555
K7 Sb0 3.638984 1_555
K7 Sb1 3.696899 1_555
K7 Sb3 3.696910 1_554
K8 Sb4 3.638984 1_555
K8 Sb6 3.638984 1_555
K8 Sb7 3.696899 1_555
K8 Sb3 3.696910 1_545
K9 Sb0 3.638974 1_555
K9 Sb5 3.638982 1_555
K9 Sb2 3.696907 1_554
K9 Sb1 3.696907 1_455
K10 Sb5 3.624245 1_555
K10 Sb0 3.624256 1_545
K10 Sb2 3.636932 1_545
K10 Sb1 3.636932 1_545
K11 Sb6 3.624248 1_554
K11 Sb0 3.624248 1_545
K11 Sb3 3.636935 1_544
K11 Sb2 3.636942 1_544
K12 Sb5 3.624245 1_555
K12 Sb4 3.624256 1_455
K12 Sb1 3.636932 1_455
K12 Sb7 3.636932 1_455
K13 Sb4 3.624248 1_455
K13 Sb6 3.624248 1_554
K13 Sb3 3.636935 1_454
K13 Sb7 3.636942 1_454
K14 Sb6 3.638974 1_555
K14 Sb5 3.638982 1_555
K14 Sb2 3.696907 1_545
K14 Sb7 3.696907 1_455
K15 Sb5 3.624245 1_555
K15 Sb6 3.624256 1_554
K15 Sb2 3.636932 1_554
K15 Sb7 3.636932 1_554
Ge0 Sb3 2.789958 1_555
Ge0 Sb7 2.789968 1_555
Ge0 Sb1 2.789968 1_555
Ge0 Sb2 2.789968 1_555
Ge0 K0 3.479767 1_565
Ge0 K1 3.479767 1_556
Ge0 K2 3.479767 1_655
Ge0 K3 3.479776 1_555
Sb0 Sn0 2.912692 1_555
Sb4 Sn0 2.912692 1_555
Sb5 Sn0 2.912701 1_555
Sb6 Sn0 2.912692 1_555
