# generated using pymatgen
data_Be4Nb6Co2C
_symmetry_space_group_name_H-M   'P 1'
_cell_length_a   7.77932840
_cell_length_b   7.77932731
_cell_length_c   7.77932749
_cell_angle_alpha   59.99999923
_cell_angle_beta   60.00000383
_cell_angle_gamma   60.00000526
_symmetry_Int_Tables_number   1
_chemical_formula_structural   Be4Nb6Co2C
_chemical_formula_sum   'Be8 Nb12 Co4 C2'
_cell_volume   332.89803695
_cell_formula_units_Z   2
loop_
 _symmetry_equiv_pos_site_id
 _symmetry_equiv_pos_as_xyz
  1  'x, y, z'
loop_
 _atom_site_type_symbol
 _atom_site_label
 _atom_site_symmetry_multiplicity
 _atom_site_fract_x
 _atom_site_fract_y
 _atom_site_fract_z
 _atom_site_occupancy
  Be  Be0  1  0.42585334  0.42585334  0.72244198  1
  Be  Be1  1  0.42585334  0.72244198  0.42585334  1
  Be  Be2  1  0.72244198  0.42585334  0.42585334  1
  Be  Be3  1  0.42585334  0.42585334  0.42585334  1
  Be  Be4  1  0.82414666  0.82414666  0.52755802  1
  Be  Be5  1  0.82414666  0.52755802  0.82414666  1
  Be  Be6  1  0.52755802  0.82414666  0.82414666  1
  Be  Be7  1  0.82414666  0.82414666  0.82414666  1
  Nb  Nb0  1  0.04757766  0.04757766  0.45242234  1
  Nb  Nb1  1  0.45242234  0.04757766  0.45242234  1
  Nb  Nb2  1  0.04757766  0.45242234  0.45242234  1
  Nb  Nb3  1  0.45242234  0.45242234  0.04757766  1
  Nb  Nb4  1  0.04757766  0.45242234  0.04757766  1
  Nb  Nb5  1  0.45242234  0.04757766  0.04757766  1
  Nb  Nb6  1  0.20242234  0.20242234  0.79757766  1
  Nb  Nb7  1  0.79757766  0.20242234  0.79757766  1
  Nb  Nb8  1  0.20242234  0.79757766  0.79757766  1
  Nb  Nb9  1  0.79757766  0.79757766  0.20242234  1
  Nb  Nb10  1  0.20242234  0.79757766  0.20242234  1
  Nb  Nb11  1  0.79757766  0.20242234  0.20242234  1
  Co  Co0  1  0.62500000  0.62500000  0.12500000  1
  Co  Co1  1  0.62500000  0.12500000  0.62500000  1
  Co  Co2  1  0.12500000  0.62500000  0.62500000  1
  Co  Co3  1  0.62500000  0.62500000  0.62500000  1
  C  C0  1  0.25000000  0.25000000  0.25000000  1
  C  C1  1  0.00000000  0.00000000  0.00000000  1
loop_
_geom_bond_atom_site_label_1
_geom_bond_atom_site_label_2
_geom_bond_distance
_geom_bond_site_symmetry_2
Be0 Be1 2.307260 1_555
Be0 Be3 2.307260 1_555
Be0 Be2 2.307260 1_555
Be0 Co3 2.329420 1_555
Be0 Co1 2.329433 1_555
Be0 Co2 2.329433 1_555
Be0 Nb8 2.715344 1_555
Be0 Nb7 2.715344 1_555
Be0 Nb6 2.715357 1_555
Be0 Nb3 2.751596 1_556
Be0 Nb5 2.751604 1_556
Be0 Nb4 2.751605 1_556
Be1 Be3 2.307260 1_555
Be1 Be2 2.307260 1_555
Be1 Co3 2.329420 1_555
Be1 Co0 2.329433 1_555
Be1 Co2 2.329433 1_555
Be1 Nb8 2.715344 1_555
Be1 Nb9 2.715344 1_555
Be1 Nb10 2.715357 1_555
Be1 Nb1 2.751596 1_565
Be1 Nb5 2.751604 1_565
Be1 Nb0 2.751605 1_565
Be2 Be3 2.307260 1_555
Be2 Co3 2.329420 1_555
Be2 Co1 2.329433 1_555
Be2 Co0 2.329433 1_555
Be2 Nb9 2.715343 1_555
Be2 Nb7 2.715343 1_555
Be2 Nb11 2.715357 1_555
Be2 Nb2 2.751596 1_655
Be2 Nb4 2.751605 1_655
Be2 Nb0 2.751605 1_655
Be3 Co0 2.329425 1_555
Be3 Co1 2.329425 1_555
Be3 Co2 2.329425 1_555
Be3 Nb6 2.715350 1_555
Be3 Nb10 2.715350 1_555
Be3 Nb11 2.715351 1_555
Be3 Nb1 2.751611 1_555
Be3 Nb3 2.751611 1_555
Be3 Nb2 2.751611 1_555
Be4 Be5 2.307260 1_555
Be4 Be7 2.307260 1_555
Be4 Be6 2.307260 1_555
Be4 Co3 2.329420 1_555
Be4 Co1 2.329433 1_565
Be4 Co2 2.329433 1_655
Be4 Nb2 2.715344 1_655
Be4 Nb1 2.715344 1_565
Be4 Nb0 2.715357 1_665
Be4 Nb9 2.751596 1_555
Be4 Nb11 2.751604 1_565
Be4 Nb10 2.751605 1_655
Be5 Be7 2.307260 1_555
Be5 Be6 2.307260 1_555
Be5 Co3 2.329420 1_555
Be5 Co0 2.329433 1_556
Be5 Co2 2.329433 1_655
Be5 Nb2 2.715344 1_655
Be5 Nb3 2.715344 1_556
Be5 Nb4 2.715357 1_656
Be5 Nb7 2.751596 1_555
Be5 Nb11 2.751604 1_556
Be5 Nb6 2.751605 1_655
Be6 Be7 2.307260 1_555
Be6 Co3 2.329420 1_555
Be6 Co1 2.329433 1_565
Be6 Co0 2.329433 1_556
Be6 Nb3 2.715343 1_556
Be6 Nb1 2.715343 1_565
Be6 Nb5 2.715357 1_566
Be6 Nb8 2.751596 1_555
Be6 Nb10 2.751605 1_556
Be6 Nb6 2.751605 1_565
Be7 Co0 2.329425 1_556
Be7 Co1 2.329425 1_565
Be7 Co2 2.329425 1_655
Be7 Nb0 2.715350 1_665
Be7 Nb4 2.715350 1_656
Be7 Nb5 2.715351 1_566
Be7 Nb7 2.751611 1_565
Be7 Nb9 2.751611 1_556
Be7 Nb8 2.751611 1_655
Co0 Nb5 2.717938 1_565
Co0 Nb11 2.717938 1_555
Co0 Nb9 2.717938 1_555
Co0 Nb3 2.717938 1_555
Co0 Nb4 2.717939 1_655
Co0 Nb10 2.717939 1_555
Co1 Nb7 2.717938 1_555
Co1 Nb5 2.717938 1_556
Co1 Nb1 2.717938 1_555
Co1 Nb11 2.717938 1_555
Co1 Nb0 2.717939 1_655
Co1 Nb6 2.717939 1_555
Co2 Nb0 2.717938 1_565
Co2 Nb6 2.717938 1_555
Co2 Nb8 2.717938 1_555
Co2 Nb4 2.717938 1_556
Co2 Nb10 2.717938 1_555
Co2 Nb2 2.717938 1_555
Co3 Nb1 2.717938 1_565
Co3 Nb7 2.717938 1_555
Co3 Nb3 2.717938 1_556
Co3 Nb9 2.717938 1_555
Co3 Nb2 2.717939 1_655
Co3 Nb8 2.717939 1_555
C0 Nb3 2.226976 1_555
C0 Nb0 2.226976 1_555
C0 Nb2 2.226976 1_555
C0 Nb1 2.226976 1_555
C0 Nb5 2.226976 1_555
C0 Nb4 2.226976 1_555
C1 Nb6 2.226976 1_554
C1 Nb9 2.226976 1_445
C1 Nb11 2.226976 1_455
C1 Nb10 2.226976 1_545
C1 Nb7 2.226976 1_454
C1 Nb8 2.226976 1_544
