# generated using pymatgen
data_Ti4Co6Si6Ir
_symmetry_space_group_name_H-M   'P 1'
_cell_length_a   6.49612515
_cell_length_b   6.49612656
_cell_length_c   6.49612561
_cell_angle_alpha   109.47121769
_cell_angle_beta   109.47122208
_cell_angle_gamma   109.47123207
_symmetry_Int_Tables_number   1
_chemical_formula_structural   Ti4Co6Si6Ir
_chemical_formula_sum   'Ti4 Co6 Si6 Ir1'
_cell_volume   211.02860607
_cell_formula_units_Z   1
loop_
 _symmetry_equiv_pos_site_id
 _symmetry_equiv_pos_as_xyz
  1  'x, y, z'
loop_
 _atom_site_type_symbol
 _atom_site_label
 _atom_site_symmetry_multiplicity
 _atom_site_fract_x
 _atom_site_fract_y
 _atom_site_fract_z
 _atom_site_occupancy
  Ti  Ti0  1  0.00000000  0.00000000  0.50000000  1
  Ti  Ti1  1  0.00000000  0.50000000  0.00000000  1
  Ti  Ti2  1  0.50000000  0.00000000  0.00000000  1
  Ti  Ti3  1  0.50000000  0.50000000  0.50000000  1
  Co  Co0  1  0.75000000  0.25000000  0.50000000  1
  Co  Co1  1  0.75000000  0.50000000  0.25000000  1
  Co  Co2  1  0.50000000  0.25000000  0.75000000  1
  Co  Co3  1  0.25000000  0.50000000  0.75000000  1
  Co  Co4  1  0.25000000  0.75000000  0.50000000  1
  Co  Co5  1  0.50000000  0.75000000  0.25000000  1
  Si  Si0  1  0.67388720  0.67388720  1.00000000  1
  Si  Si1  1  0.32611280  0.00000000  0.32611280  1
  Si  Si2  1  0.00000000  0.32611280  0.32611280  1
  Si  Si3  1  0.32611280  0.32611280  0.00000000  1
  Si  Si4  1  0.67388720  1.00000000  0.67388720  1
  Si  Si5  1  1.00000000  0.67388720  0.67388720  1
  Ir  Ir0  1  0.00000000  0.00000000  0.00000000  1
loop_
_geom_bond_atom_site_label_1
_geom_bond_atom_site_label_2
_geom_bond_distance
_geom_bond_site_symmetry_2
Co0 Si1 2.284282 1_555
Co0 Si2 2.284282 1_655
Co0 Si5 2.284282 1_555
Co0 Si4 2.284282 1_545
Co0 Ti2 2.652032 1_555
Co0 Ti1 2.652032 1_656
Co0 Ti3 2.652032 1_555
Co0 Ti0 2.652032 1_655
Co1 Si3 2.284282 1_555
Co1 Si5 2.284282 1_555
Co1 Si0 2.284282 1_554
Co1 Si2 2.284282 1_655
Co1 Ti1 2.652032 1_655
Co1 Ti3 2.652032 1_555
Co1 Ti2 2.652032 1_555
Co1 Ti0 2.652032 1_665
Co2 Si1 2.284282 1_555
Co2 Si3 2.284282 1_556
Co2 Si0 2.284282 1_555
Co2 Si4 2.284282 1_545
Co2 Ti0 2.652032 1_555
Co2 Ti1 2.652032 1_656
Co2 Ti3 2.652032 1_555
Co2 Ti2 2.652032 1_556
Co3 Si0 2.284282 1_555
Co3 Si2 2.284282 1_555
Co3 Si3 2.284282 1_556
Co3 Si5 2.284282 1_455
Co3 Ti1 2.652032 1_556
Co3 Ti3 2.652032 1_555
Co3 Ti2 2.652032 1_566
Co3 Ti0 2.652032 1_555
Co4 Si4 2.284282 1_555
Co4 Si5 2.284282 1_455
Co4 Si2 2.284282 1_555
Co4 Si1 2.284282 1_565
Co4 Ti1 2.652032 1_555
Co4 Ti2 2.652032 1_566
Co4 Ti3 2.652032 1_555
Co4 Ti0 2.652032 1_565
Co5 Si4 2.284282 1_555
Co5 Si0 2.284282 1_554
Co5 Si3 2.284282 1_555
Co5 Si1 2.284282 1_565
Co5 Ti0 2.652032 1_665
Co5 Ti1 2.652032 1_555
Co5 Ti2 2.652032 1_565
Co5 Ti3 2.652032 1_555
Si0 Ti0 2.712791 1_666
Si0 Ti3 2.712791 1_555
Si0 Ti1 2.712791 1_656
Si0 Ti2 2.712791 1_566
Si1 Ti0 2.712791 1_555
Si1 Ti1 2.712791 1_545
Si1 Ti2 2.712791 1_555
Si1 Ti3 2.712791 1_555
Si2 Ti2 2.712790 1_455
Si2 Ti3 2.712790 1_555
Si2 Ti1 2.712791 1_555
Si2 Ti0 2.712791 1_555
Si3 Ti0 2.712791 1_554
Si3 Ti3 2.712791 1_555
Si3 Ti1 2.712791 1_555
Si3 Ti2 2.712791 1_555
Si4 Ti0 2.712791 1_665
Si4 Ti1 2.712791 1_666
Si4 Ti2 2.712791 1_566
Si4 Ti3 2.712791 1_555
Si5 Ti2 2.712790 1_666
Si5 Ti3 2.712790 1_555
Si5 Ti1 2.712791 1_656
Si5 Ti0 2.712791 1_665
Ir0 Si3 2.446198 1_555
Ir0 Si0 2.446198 1_444
Ir0 Si1 2.446198 1_555
Ir0 Si4 2.446198 1_444
Ir0 Si2 2.446198 1_555
Ir0 Si5 2.446198 1_444
