# generated using pymatgen
data_Sc2FeSi2
_symmetry_space_group_name_H-M   'P 1'
_cell_length_a   3.97881225
_cell_length_b   5.30975807
_cell_length_c   8.48427525
_cell_angle_alpha   82.41323319
_cell_angle_beta   76.43892817
_cell_angle_gamma   67.99609084
_symmetry_Int_Tables_number   1
_chemical_formula_structural   Sc2FeSi2
_chemical_formula_sum   'Sc4 Fe2 Si4'
_cell_volume   161.35955976
_cell_formula_units_Z   2
loop_
 _symmetry_equiv_pos_site_id
 _symmetry_equiv_pos_as_xyz
  1  'x, y, z'
loop_
 _atom_site_type_symbol
 _atom_site_label
 _atom_site_symmetry_multiplicity
 _atom_site_fract_x
 _atom_site_fract_y
 _atom_site_fract_z
 _atom_site_occupancy
  Sc  Sc0  1  0.81484330  0.26278930  0.10752311  1
  Sc  Sc1  1  -0.00050160  0.67183956  0.32916463  1
  Sc  Sc2  1  0.18515670  0.73721070  0.89247689  1
  Sc  Sc3  1  0.00050160  0.32816044  0.67083537  1
  Fe  Fe0  1  0.73011309  0.91443912  0.62533471  1
  Fe  Fe1  1  0.26988691  0.08556088  0.37466529  1
  Si  Si0  1  0.49424766  0.13806156  0.87344312  1
  Si  Si1  1  0.35220761  0.73028721  0.56529657  1
  Si  Si2  1  0.50575234  0.86193844  0.12655688  1
  Si  Si3  1  0.64779239  0.26971279  0.43470343  1
loop_
_geom_bond_atom_site_label_1
_geom_bond_atom_site_label_2
_geom_bond_distance
_geom_bond_site_symmetry_2
Sc0 Si3 2.700383 1_555
Sc0 Si2 2.801116 1_545
Sc0 Si2 2.801118 1_645
Sc0 Si0 2.859773 1_554
Sc0 Si0 2.859776 1_654
Sc0 Si2 2.961451 1_555
Sc1 Si2 2.733621 1_555
Sc1 Si2 2.733624 1_455
Sc1 Si1 2.808632 1_555
Sc1 Si1 2.808637 1_455
Sc1 Si3 2.909569 1_455
Sc1 Si3 2.909569 1_555
Sc1 Si3 3.109980 1_465
Sc2 Si1 2.700383 1_555
Sc2 Si0 2.801116 1_565
Sc2 Si0 2.801118 1_465
Sc2 Si2 2.859773 1_556
Sc2 Si2 2.859776 1_456
Sc2 Si0 2.961451 1_555
Sc3 Si0 2.733621 1_455
Sc3 Si0 2.733624 1_555
Sc3 Si3 2.808632 1_455
Sc3 Si3 2.808637 1_555
Sc3 Si1 2.909569 1_555
Sc3 Si1 2.909569 1_455
Sc3 Si1 3.109980 1_545
Fe0 Si1 2.251403 1_655
Fe0 Si1 2.251407 1_555
Fe0 Si3 2.293802 1_565
Fe0 Si0 2.370709 1_565
Fe0 Sc1 2.771155 1_655
Fe0 Sc3 2.884755 1_665
Fe0 Sc3 2.884758 1_565
Fe0 Sc3 2.892240 1_655
Fe0 Sc2 3.063519 1_555
Fe0 Sc2 3.063522 1_655
Fe1 Si3 2.251403 1_455
Fe1 Si3 2.251407 1_555
Fe1 Si1 2.293802 1_545
Fe1 Si2 2.370709 1_545
Fe1 Sc3 2.771155 1_555
Fe1 Sc1 2.884755 1_545
Fe1 Sc1 2.884758 1_645
Fe1 Sc1 2.892240 1_555
Fe1 Sc0 3.063519 1_555
Fe1 Sc0 3.063522 1_455
Si0 Si2 2.434709 1_546
Si1 Si3 2.557468 1_555
