# generated using pymatgen
data_Hf10Ga2(SnSb)3
_symmetry_space_group_name_H-M   'P 1'
_cell_length_a   8.58775988
_cell_length_b   8.58776142
_cell_length_c   5.76176355
_cell_angle_alpha   90.00000000
_cell_angle_beta   90.00000000
_cell_angle_gamma   120.00000162
_symmetry_Int_Tables_number   1
_chemical_formula_structural   Hf10Ga2(SnSb)3
_chemical_formula_sum   'Hf10 Ga2 Sn3 Sb3'
_cell_volume   367.99839072
_cell_formula_units_Z   1
loop_
 _symmetry_equiv_pos_site_id
 _symmetry_equiv_pos_as_xyz
  1  'x, y, z'
loop_
 _atom_site_type_symbol
 _atom_site_label
 _atom_site_symmetry_multiplicity
 _atom_site_fract_x
 _atom_site_fract_y
 _atom_site_fract_z
 _atom_site_occupancy
  Hf  Hf0  1  0.73794039  0.73794039  0.75000000  1
  Hf  Hf1  1  0.26205961  1.00000000  0.75000000  1
  Hf  Hf2  1  0.00000000  0.26205961  0.75000000  1
  Hf  Hf3  1  0.27100186  0.27100186  0.25000000  1
  Hf  Hf4  1  0.72899814  0.00000000  0.25000000  1
  Hf  Hf5  1  1.00000000  0.72899814  0.25000000  1
  Hf  Hf6  1  0.66666700  0.33333300  0.00206384  1
  Hf  Hf7  1  0.33333300  0.66666700  0.00206384  1
  Hf  Hf8  1  0.33333300  0.66666700  0.49793616  1
  Hf  Hf9  1  0.66666700  0.33333300  0.49793616  1
  Ga  Ga0  1  0.00000000  0.00000000  0.00902219  1
  Ga  Ga1  1  0.00000000  0.00000000  0.49097781  1
  Sn  Sn0  1  0.61397815  0.61397815  0.25000000  1
  Sn  Sn1  1  0.38602185  0.00000000  0.25000000  1
  Sn  Sn2  1  1.00000000  0.38602185  0.25000000  1
  Sb  Sb0  1  0.39379987  0.39379987  0.75000000  1
  Sb  Sb1  1  0.60620013  1.00000000  0.75000000  1
  Sb  Sb2  1  0.00000000  0.60620013  0.75000000  1
loop_
_geom_bond_atom_site_label_1
_geom_bond_atom_site_label_2
_geom_bond_distance
_geom_bond_site_symmetry_2
Hf0 Sb0 2.955396 1_555
Hf0 Sb2 2.981753 1_655
Hf0 Sb1 2.981753 1_555
Hf0 Sn0 3.071280 1_556
Hf0 Sn0 3.071280 1_555
Hf1 Sb1 2.955396 1_555
Hf1 Sb2 2.981753 1_555
Hf1 Sb0 2.981754 1_565
Hf1 Sn1 3.071280 1_565
Hf1 Sn1 3.071280 1_566
Hf2 Sb2 2.955397 1_555
Hf2 Sb0 2.981753 1_555
Hf2 Sb1 2.981753 1_445
Hf2 Sn2 3.071280 1_455
Hf2 Sn2 3.071280 1_456
Hf3 Sn0 2.945398 1_555
Hf3 Sn2 2.948020 1_455
Hf3 Sn1 2.948020 1_555
Hf3 Sb0 3.067829 1_554
Hf3 Sb0 3.067829 1_555
Hf4 Sn1 2.945398 1_555
Hf4 Sn2 2.948020 1_555
Hf4 Sn0 2.948020 1_545
Hf4 Sb1 3.067829 1_545
Hf4 Sb1 3.067829 1_544
Hf5 Sn2 2.945399 1_555
Hf5 Sn0 2.948020 1_555
Hf5 Sn1 2.948020 1_665
Hf5 Sb2 3.067829 1_654
Hf5 Sb2 3.067829 1_655
Hf6 Sb1 3.014438 1_544
Hf6 Sb2 3.014440 1_654
Hf6 Sb0 3.014445 1_554
Hf6 Sn2 3.024007 1_555
Hf6 Sn1 3.024010 1_555
Hf6 Sn0 3.024015 1_555
Hf7 Sb2 3.014437 1_554
Hf7 Sb1 3.014440 1_554
Hf7 Sb0 3.014445 1_554
Hf7 Sn1 3.024007 1_565
Hf7 Sn2 3.024010 1_455
Hf7 Sn0 3.024014 1_555
Hf8 Sb2 3.014437 1_555
Hf8 Sb1 3.014440 1_555
Hf8 Sb0 3.014445 1_555
Hf8 Sn1 3.024007 1_565
Hf8 Sn2 3.024010 1_455
Hf8 Sn0 3.024014 1_555
Hf9 Sb1 3.014438 1_545
Hf9 Sb2 3.014440 1_655
Hf9 Sb0 3.014445 1_555
Hf9 Sn2 3.024007 1_555
Hf9 Sn1 3.024010 1_555
Hf9 Sn0 3.024015 1_555
Ga0 Hf1 2.700390 1_544
Ga0 Hf0 2.700390 1_444
Ga0 Hf2 2.700390 1_554
Ga0 Hf4 2.710006 1_455
Ga0 Hf3 2.710006 1_555
Ga0 Hf5 2.710007 1_445
Ga1 Hf1 2.700390 1_545
Ga1 Hf0 2.700390 1_445
Ga1 Hf2 2.700390 1_555
Ga1 Hf4 2.710006 1_455
Ga1 Hf3 2.710006 1_555
Ga1 Hf5 2.710007 1_445
