# generated using pymatgen
data_RbMgGaF6
_symmetry_space_group_name_H-M   'P 1'
_cell_length_a   7.19473424
_cell_length_b   7.19473428
_cell_length_c   7.19473444
_cell_angle_alpha   120.37359197
_cell_angle_beta   119.55539098
_cell_angle_gamma   90.06298014
_symmetry_Int_Tables_number   1
_chemical_formula_structural   RbMgGaF6
_chemical_formula_sum   'Rb2 Mg2 Ga2 F12'
_cell_volume   263.47193515
_cell_formula_units_Z   2
loop_
 _symmetry_equiv_pos_site_id
 _symmetry_equiv_pos_as_xyz
  1  'x, y, z'
loop_
 _atom_site_type_symbol
 _atom_site_label
 _atom_site_symmetry_multiplicity
 _atom_site_fract_x
 _atom_site_fract_y
 _atom_site_fract_z
 _atom_site_occupancy
  Rb  Rb0  1  0.36030125  0.61030125  0.75000000  1
  Rb  Rb1  1  0.63969875  0.38969875  0.25000000  1
  Mg  Mg0  1  0.00000000  0.00000000  0.50000000  1
  Mg  Mg1  1  0.00000000  0.50000000  0.00000000  1
  Ga  Ga0  1  0.00000000  0.00000000  0.00000000  1
  Ga  Ga1  1  0.50000000  0.00000000  0.50000000  1
  F  F0  1  0.31525249  0.06525249  0.25000000  1
  F  F1  1  0.92664793  0.67664793  0.25000000  1
  F  F2  1  0.32629758  0.68872154  0.26008107  1
  F  F3  1  0.92864047  0.06621651  0.23991893  1
  F  F4  1  0.32629758  0.06621651  0.63757504  1
  F  F5  1  0.92864047  0.68872154  0.86242496  1
  F  F6  1  0.68474751  0.93474751  0.75000000  1
  F  F7  1  0.07335207  0.32335207  0.75000000  1
  F  F8  1  0.67370242  0.31127846  0.73991893  1
  F  F9  1  0.07135953  0.93378349  0.76008107  1
  F  F10  1  0.67370242  0.93378349  0.36242496  1
  F  F11  1  0.07135953  0.31127846  0.13757504  1
loop_
_geom_bond_atom_site_label_1
_geom_bond_atom_site_label_2
_geom_bond_distance
_geom_bond_site_symmetry_2
F0 Ga0 1.928515 1_555
F0 Ga1 1.928515 1_555
F0 Rb1 3.299390 1_555
F1 Mg0 1.937839 1_665
F1 Mg1 1.937839 1_655
F1 Rb1 2.918071 1_555
F2 Ga1 1.874397 1_565
F2 Mg1 1.986527 1_555
F2 Rb1 3.119654 1_555
F3 Ga0 1.874397 1_655
F3 Mg0 1.986527 1_655
F3 Rb1 3.119654 1_555
F4 Ga1 1.874392 1_555
F4 Mg0 1.986528 1_555
F4 Rb1 3.119658 1_556
F5 Ga0 1.874399 1_666
F5 Mg1 1.986522 1_656
F5 Rb1 3.119659 1_555
F6 Ga0 1.928515 1_666
F6 Ga1 1.928515 1_565
F6 Rb0 3.299390 1_555
F7 Mg0 1.937839 1_555
F7 Mg1 1.937839 1_556
F7 Rb0 2.918071 1_555
F8 Ga1 1.874397 1_555
F8 Mg1 1.986527 1_656
F8 Rb0 3.119654 1_555
F9 Ga0 1.874397 1_566
F9 Mg0 1.986527 1_565
F9 Rb0 3.119654 1_555
F10 Ga1 1.874392 1_565
F10 Mg0 1.986528 1_665
F10 Rb0 3.119658 1_554
F11 Ga0 1.874399 1_555
F11 Mg1 1.986522 1_555
F11 Rb0 3.119659 1_555
