# generated using pymatgen
data_LiCuPdO4
_symmetry_space_group_name_H-M   'P 1'
_cell_length_a   5.91336998
_cell_length_b   5.91336986
_cell_length_c   5.91337034
_cell_angle_alpha   121.04121181
_cell_angle_beta   119.20115352
_cell_angle_gamma   89.79765541
_symmetry_Int_Tables_number   1
_chemical_formula_structural   LiCuPdO4
_chemical_formula_sum   'Li2 Cu2 Pd2 O8'
_cell_volume   145.89834809
_cell_formula_units_Z   2
loop_
 _symmetry_equiv_pos_site_id
 _symmetry_equiv_pos_as_xyz
  1  'x, y, z'
loop_
 _atom_site_type_symbol
 _atom_site_label
 _atom_site_symmetry_multiplicity
 _atom_site_fract_x
 _atom_site_fract_y
 _atom_site_fract_z
 _atom_site_occupancy
  Li  Li0  1  0.88407814  0.13407814  0.75000000  1
  Li  Li1  1  0.11592286  0.86592286  0.25000000  1
  Cu  Cu0  1  0.50000000  0.00000000  0.00000000  1
  Cu  Cu1  1  0.50000000  0.50000000  0.50000000  1
  Pd  Pd0  1  0.00000000  0.50000000  0.50000000  1
  Pd  Pd1  1  0.50000000  0.50000000  0.00000000  1
  O  O0  1  0.73654601  0.26178499  0.47476102  1
  O  O1  1  0.73750097  0.25897326  0.02147228  1
  O  O2  1  0.73750097  0.71602869  0.47852772  1
  O  O3  1  0.28702397  0.26178499  0.02523898  1
  O  O4  1  0.71297603  0.73821501  0.97476102  1
  O  O5  1  0.26249903  0.74102674  0.97852772  1
  O  O6  1  0.26249903  0.28397131  0.52147228  1
  O  O7  1  0.26345399  0.73821501  0.52523898  1
loop_
_geom_bond_atom_site_label_1
_geom_bond_atom_site_label_2
_geom_bond_distance
_geom_bond_site_symmetry_2
Li0 O3 1.964152 1_656
Li0 O0 1.964152 1_555
Li0 O2 2.001056 1_545
Li0 O1 2.001056 1_556
Li1 O4 1.964156 1_454
Li1 O7 1.964156 1_555
Li1 O6 2.001051 1_565
Li1 O5 2.001051 1_554
Cu0 O7 1.983971 1_544
Cu0 O0 1.983971 1_555
Cu0 O4 1.983971 1_544
Cu0 O3 1.983971 1_555
Cu0 O5 1.993590 1_544
Cu0 O1 1.993590 1_555
Cu1 O4 1.983971 1_555
Cu1 O3 1.983971 1_555
Cu1 O0 1.983971 1_555
Cu1 O7 1.983971 1_555
Cu1 O6 1.993590 1_555
Cu1 O2 1.993590 1_555
O0 Pd0 2.001359 1_655
O1 Pd0 2.004612 1_655
O1 Pd1 2.004613 1_555
O2 Pd1 2.004612 1_555
O2 Pd0 2.004613 1_655
O3 Pd1 2.001359 1_555
O4 Pd1 2.001359 1_556
O5 Pd0 2.004612 1_555
O5 Pd1 2.004613 1_556
O6 Pd1 2.004612 1_556
O6 Pd0 2.004613 1_555
O7 Pd0 2.001359 1_555
