# generated using pymatgen
data_RuPb3Cl2O5
_symmetry_space_group_name_H-M   'P 1'
_cell_length_a   7.27540709
_cell_length_b   7.27540730
_cell_length_c   10.89691598
_cell_angle_alpha   90.00000000
_cell_angle_beta   90.00000000
_cell_angle_gamma   134.93782171
_symmetry_Int_Tables_number   1
_chemical_formula_structural   RuPb3Cl2O5
_chemical_formula_sum   'Ru2 Pb6 Cl4 O10'
_cell_volume   408.29494849
_cell_formula_units_Z   2
loop_
 _symmetry_equiv_pos_site_id
 _symmetry_equiv_pos_as_xyz
  1  'x, y, z'
loop_
 _atom_site_type_symbol
 _atom_site_label
 _atom_site_symmetry_multiplicity
 _atom_site_fract_x
 _atom_site_fract_y
 _atom_site_fract_z
 _atom_site_occupancy
  Ru  Ru0  1  0.77726871  0.22273129  0.25000000  1
  Ru  Ru1  1  0.22273129  0.77726871  0.75000000  1
  Pb  Pb0  1  0.64916666  0.35083334  0.52528349  1
  Pb  Pb1  1  0.35083334  0.64916666  0.02528349  1
  Pb  Pb2  1  0.64916666  0.35083334  0.97471651  1
  Pb  Pb3  1  0.88424232  0.11575768  0.75000000  1
  Pb  Pb4  1  0.35083334  0.64916666  0.47471651  1
  Pb  Pb5  1  0.11575768  0.88424232  0.25000000  1
  Cl  Cl0  1  0.52447035  0.47552965  0.25000000  1
  Cl  Cl1  1  0.00000000  0.00000000  0.50000000  1
  Cl  Cl2  1  0.47552965  0.52447035  0.75000000  1
  Cl  Cl3  1  0.00000000  0.00000000  0.00000000  1
  O  O0  1  0.50386504  0.03971830  0.36894867  1
  O  O1  1  0.03971830  0.50386504  0.63105133  1
  O  O2  1  0.49613496  0.96028170  0.86894867  1
  O  O3  1  0.49613496  0.96028170  0.63105133  1
  O  O4  1  0.09992450  0.90007550  0.75000000  1
  O  O5  1  0.03971830  0.50386504  0.86894867  1
  O  O6  1  0.50386504  0.03971830  0.13105133  1
  O  O7  1  0.96028170  0.49613496  0.36894867  1
  O  O8  1  0.90007550  0.09992450  0.25000000  1
  O  O9  1  0.96028170  0.49613496  0.13105133  1
loop_
_geom_bond_atom_site_label_1
_geom_bond_atom_site_label_2
_geom_bond_distance
_geom_bond_site_symmetry_2
Cl0 Pb5 3.045865 1_655
Cl0 Pb5 3.045865 1_545
Cl1 Pb3 3.137188 1_455
Cl1 Pb5 3.137188 1_545
Cl2 Pb3 3.045865 1_455
Cl2 Pb3 3.045865 1_565
Cl3 Pb3 3.137188 1_454
Cl3 Pb5 3.137188 1_545
O0 Ru0 1.915220 1_555
O0 Pb0 2.400581 1_555
O0 Pb4 2.484462 1_545
O0 Pb5 2.533864 1_545
O1 Ru1 1.915220 1_555
O1 Pb4 2.400581 1_555
O1 Pb0 2.484461 1_455
O1 Pb3 2.533864 1_455
O2 Ru1 1.915220 1_555
O2 Pb1 2.400581 1_556
O2 Pb2 2.484462 1_565
O2 Pb3 2.533864 1_565
O3 Ru1 1.915220 1_555
O3 Pb4 2.400581 1_555
O3 Pb0 2.484462 1_565
O3 Pb3 2.533864 1_565
O4 Ru1 1.650545 1_555
O5 Ru1 1.915220 1_555
O5 Pb1 2.400581 1_556
O5 Pb2 2.484461 1_455
O5 Pb3 2.533864 1_455
O6 Ru0 1.915220 1_555
O6 Pb2 2.400581 1_554
O6 Pb1 2.484462 1_545
O6 Pb5 2.533864 1_545
O7 Ru0 1.915220 1_555
O7 Pb0 2.400581 1_555
O7 Pb4 2.484461 1_655
O7 Pb5 2.533864 1_655
O8 Ru0 1.650545 1_555
O9 Ru0 1.915220 1_555
O9 Pb2 2.400581 1_554
O9 Pb1 2.484461 1_655
O9 Pb5 2.533864 1_655
