# generated using pymatgen
data_MgMn4Pd9Au2
_symmetry_space_group_name_H-M   'P 1'
_cell_length_a   6.84117980
_cell_length_b   6.84117970
_cell_length_c   6.84117951
_cell_angle_alpha   107.15767965
_cell_angle_beta   107.15768585
_cell_angle_gamma   114.20453613
_symmetry_Int_Tables_number   1
_chemical_formula_structural   MgMn4Pd9Au2
_chemical_formula_sum   'Mg1 Mn4 Pd9 Au2'
_cell_volume   245.20163778
_cell_formula_units_Z   1
loop_
 _symmetry_equiv_pos_site_id
 _symmetry_equiv_pos_as_xyz
  1  'x, y, z'
loop_
 _atom_site_type_symbol
 _atom_site_label
 _atom_site_symmetry_multiplicity
 _atom_site_fract_x
 _atom_site_fract_y
 _atom_site_fract_z
 _atom_site_occupancy
  Mg  Mg0  1  0.50000000  0.50000000  0.00000000  1
  Mn  Mn0  1  0.23871578  0.23871578  0.47743057  1
  Mn  Mn1  1  0.76128422  0.76128422  0.52256943  1
  Mn  Mn2  1  0.23871578  0.76128422  1.00000000  1
  Mn  Mn3  1  0.76128422  0.23871578  0.00000000  1
  Pd  Pd0  1  0.50568935  0.25910765  0.24658070  1
  Pd  Pd1  1  0.49431065  0.74089235  0.75341930  1
  Pd  Pd2  1  0.01252694  0.25910765  0.75341930  1
  Pd  Pd3  1  0.25910765  0.01252694  0.75341930  1
  Pd  Pd4  1  0.98747306  0.74089235  0.24658070  1
  Pd  Pd5  1  0.74089235  0.98747306  0.24658070  1
  Pd  Pd6  1  0.25910765  0.50568935  0.24658070  1
  Pd  Pd7  1  0.74089235  0.49431065  0.75341930  1
  Pd  Pd8  1  0.00000000  0.00000000  0.00000000  1
  Au  Au0  1  0.50000000  0.00000000  0.50000000  1
  Au  Au1  1  0.00000000  0.50000000  0.50000000  1
loop_
_geom_bond_atom_site_label_1
_geom_bond_atom_site_label_2
_geom_bond_distance
_geom_bond_site_symmetry_2
Mg0 Pd4 2.686463 1_555
Mg0 Pd2 2.686463 1_554
Mg0 Pd5 2.686463 1_555
Mg0 Pd3 2.686463 1_554
Mg0 Pd0 2.686464 1_555
Mg0 Pd1 2.686464 1_554
Mg0 Pd7 2.686464 1_554
Mg0 Pd6 2.686464 1_555
Mg0 Mn2 3.001705 1_554
Mg0 Mn3 3.001705 1_555
Mg0 Mn1 3.001710 1_555
Mg0 Mn0 3.001710 1_554
Mn0 Pd5 2.733547 1_445
Mn0 Pd4 2.733547 1_445
Mn0 Pd6 2.733547 1_555
Mn0 Pd0 2.733547 1_555
Mn0 Pd8 2.742427 1_555
Mn0 Pd7 2.779233 1_555
Mn0 Pd1 2.779233 1_555
Mn0 Pd3 2.779237 1_555
Mn0 Pd2 2.779237 1_555
Mn1 Pd3 2.733547 1_665
Mn1 Pd2 2.733547 1_665
Mn1 Pd7 2.733547 1_555
Mn1 Pd1 2.733547 1_555
Mn1 Pd8 2.742427 1_666
Mn1 Pd6 2.779233 1_555
Mn1 Pd0 2.779233 1_555
Mn1 Pd5 2.779237 1_555
Mn1 Pd4 2.779237 1_555
Mn2 Pd7 2.733547 1_455
Mn2 Pd0 2.733547 1_566
Mn2 Pd3 2.733547 1_565
Mn2 Pd4 2.733547 1_456
Mn2 Pd8 2.742433 1_566
Mn2 Pd6 2.779226 1_556
Mn2 Pd1 2.779226 1_555
Mn2 Pd5 2.779231 1_556
Mn2 Pd2 2.779232 1_555
Mn3 Pd6 2.733547 1_655
Mn3 Pd1 2.733547 1_544
Mn3 Pd5 2.733547 1_545
Mn3 Pd2 2.733547 1_654
Mn3 Pd8 2.742433 1_655
Mn3 Pd7 2.779226 1_554
Mn3 Pd0 2.779226 1_555
Mn3 Pd3 2.779231 1_554
Mn3 Pd4 2.779232 1_555
Pd0 Pd8 2.778507 1_555
Pd0 Pd3 2.832787 1_554
Pd0 Pd6 2.832798 1_555
Pd0 Pd5 2.914490 1_545
Pd0 Pd7 2.914496 1_555
Pd1 Pd8 2.778507 1_666
Pd1 Pd5 2.832787 1_556
Pd1 Pd7 2.832798 1_555
Pd1 Pd3 2.914490 1_565
Pd1 Pd6 2.914496 1_555
Pd2 Pd8 2.778501 1_556
Pd2 Pd6 2.832787 1_556
Pd2 Pd3 2.832787 1_555
Pd2 Pd7 2.914490 1_455
Pd2 Pd5 2.914496 1_445
Pd3 Pd8 2.778501 1_556
Pd3 Pd4 2.914496 1_445
Pd4 Pd8 2.778501 1_665
Pd4 Pd7 2.832787 1_554
Pd4 Pd5 2.832787 1_555
Pd4 Pd6 2.914490 1_655
Pd5 Pd8 2.778501 1_665
Pd6 Pd8 2.778507 1_555
Pd7 Pd8 2.778507 1_666
Au0 Pd6 2.728130 1_545
Au0 Pd7 2.728130 1_555
Au0 Pd3 2.728136 1_555
Au0 Pd5 2.728136 1_545
Au0 Pd0 2.818813 1_555
Au0 Pd1 2.818813 1_545
Au0 Pd2 2.818813 1_655
Au0 Pd4 2.818813 1_445
Au0 Mn3 2.874993 1_556
Au0 Mn2 2.874993 1_544
Au0 Mn1 2.874993 1_545
Au0 Mn0 2.874993 1_555
Au1 Pd1 2.728130 1_555
Au1 Pd0 2.728130 1_455
Au1 Pd2 2.728136 1_555
Au1 Pd4 2.728136 1_455
Au1 Pd6 2.818813 1_555
Au1 Pd7 2.818813 1_455
Au1 Pd3 2.818813 1_565
Au1 Pd5 2.818813 1_445
Au1 Mn2 2.874993 1_555
Au1 Mn3 2.874993 1_455
Au1 Mn0 2.874993 1_555
Au1 Mn1 2.874993 1_455
