# generated using pymatgen
data_Na3SiB4Pt9
_symmetry_space_group_name_H-M   'P 1'
_cell_length_a   6.48987770
_cell_length_b   6.48987824
_cell_length_c   15.21158364
_cell_angle_alpha   90.00000000
_cell_angle_beta   90.00000000
_cell_angle_gamma   129.20711145
_symmetry_Int_Tables_number   1
_chemical_formula_structural   Na3SiB4Pt9
_chemical_formula_sum   'Na6 Si2 B8 Pt18'
_cell_volume   496.44840197
_cell_formula_units_Z   2
loop_
 _symmetry_equiv_pos_site_id
 _symmetry_equiv_pos_as_xyz
  1  'x, y, z'
loop_
 _atom_site_type_symbol
 _atom_site_label
 _atom_site_symmetry_multiplicity
 _atom_site_fract_x
 _atom_site_fract_y
 _atom_site_fract_z
 _atom_site_occupancy
  Na  Na0  1  0.30157530  0.69842470  0.75000000  1
  Na  Na1  1  0.69842470  0.30157530  0.25000000  1
  Na  Na2  1  0.56714235  0.43285765  0.08227105  1
  Na  Na3  1  0.43285765  0.56714235  0.91772895  1
  Na  Na4  1  0.43285765  0.56714235  0.58227105  1
  Na  Na5  1  0.56714235  0.43285765  0.41772895  1
  Si  Si0  1  0.71211773  0.28788227  0.75000000  1
  Si  Si1  1  0.28788227  0.71211773  0.25000000  1
  B  B0  1  0.94954370  0.05045630  0.14197935  1
  B  B1  1  0.05045630  0.94954370  0.85802065  1
  B  B2  1  0.05045630  0.94954370  0.64197935  1
  B  B3  1  0.94954370  0.05045630  0.35802065  1
  B  B4  1  0.19327282  0.80672718  0.02369921  1
  B  B5  1  0.80672718  0.19327282  0.97630079  1
  B  B6  1  0.80672718  0.19327282  0.52369921  1
  B  B7  1  0.19327282  0.80672718  0.47630079  1
  Pt  Pt0  1  0.00000000  0.00000000  0.00000000  1
  Pt  Pt1  1  0.00000000  0.00000000  0.50000000  1
  Pt  Pt2  1  0.69917040  0.81176048  0.25000000  1
  Pt  Pt3  1  0.81176048  0.69917040  0.75000000  1
  Pt  Pt4  1  0.30082960  0.18823952  0.75000000  1
  Pt  Pt5  1  0.18823952  0.30082960  0.25000000  1
  Pt  Pt6  1  0.13021772  0.86978228  0.15161369  1
  Pt  Pt7  1  0.86978228  0.13021772  0.84838631  1
  Pt  Pt8  1  0.86978228  0.13021772  0.65161369  1
  Pt  Pt9  1  0.13021772  0.86978228  0.34838631  1
  Pt  Pt10  1  0.57122022  0.92989821  0.08239568  1
  Pt  Pt11  1  0.92989821  0.57122022  0.91760432  1
  Pt  Pt12  1  0.42877978  0.07010179  0.58239568  1
  Pt  Pt13  1  0.07010179  0.42877978  0.41760432  1
  Pt  Pt14  1  0.42877978  0.07010179  0.91760432  1
  Pt  Pt15  1  0.07010179  0.42877978  0.08239568  1
  Pt  Pt16  1  0.57122022  0.92989821  0.41760432  1
  Pt  Pt17  1  0.92989821  0.57122022  0.58239568  1
loop_
_geom_bond_atom_site_label_1
_geom_bond_atom_site_label_2
_geom_bond_distance
_geom_bond_site_symmetry_2
Na0 Si0 2.974460 1_455
Na0 Si0 2.974460 1_565
Na0 Na3 2.979820 1_555
Na0 Na4 2.979820 1_555
Na0 Pt3 3.181900 1_455
Na0 Pt4 3.181900 1_565
Na0 Pt17 3.237668 1_455
Na0 Pt11 3.237668 1_455
Na0 Pt12 3.237668 1_565
Na0 Pt14 3.237668 1_565
Na0 Pt7 3.259849 1_565
Na0 Pt8 3.259849 1_565
Na0 Pt7 3.259850 1_455
Na0 Pt8 3.259850 1_455
Na0 Pt3 3.307982 1_555
Na0 Pt4 3.307983 1_555
Na1 Si1 2.974460 1_655
Na1 Si1 2.974460 1_545
Na1 Na5 2.979820 1_555
Na1 Na2 2.979820 1_555
Na1 Pt5 3.181900 1_655
Na1 Pt2 3.181900 1_545
Na1 Pt15 3.237668 1_655
Na1 Pt13 3.237668 1_655
Na1 Pt10 3.237668 1_545
Na1 Pt16 3.237668 1_545
Na1 Pt9 3.259849 1_545
Na1 Pt6 3.259849 1_545
Na1 Pt9 3.259850 1_655
Na1 Pt6 3.259850 1_655
Na1 Pt5 3.307982 1_555
Na1 Pt2 3.307983 1_555
Na2 Na3 2.957013 1_554
Na2 Pt6 3.067047 1_655
Na2 Pt6 3.067047 1_545
Na2 Pt0 3.151689 1_555
Na2 Pt0 3.151690 1_665
Na2 Pt11 3.154422 1_554
Na2 Pt14 3.154422 1_554
Na2 Pt15 3.209069 1_555
Na2 Pt10 3.209070 1_555
Na2 Pt5 3.259907 1_555
Na2 Pt2 3.259907 1_555
Na2 Pt15 3.280939 1_655
Na2 Pt10 3.280939 1_545
Na3 Pt7 3.067047 1_455
Na3 Pt7 3.067047 1_565
Na3 Pt0 3.151689 1_666
Na3 Pt0 3.151690 1_556
Na3 Pt15 3.154422 1_556
Na3 Pt10 3.154422 1_556
Na3 Pt11 3.209069 1_555
Na3 Pt14 3.209070 1_555
Na3 Pt3 3.259907 1_555
Na3 Pt4 3.259907 1_555
Na3 Pt11 3.280939 1_455
Na3 Pt14 3.280939 1_565
Na4 Na5 2.957013 1_555
Na4 Pt8 3.067047 1_455
Na4 Pt8 3.067047 1_565
Na4 Pt1 3.151689 1_665
Na4 Pt1 3.151690 1_555
Na4 Pt13 3.154422 1_555
Na4 Pt16 3.154422 1_555
Na4 Pt17 3.209069 1_555
Na4 Pt12 3.209070 1_555
Na4 Pt3 3.259907 1_555
Na4 Pt4 3.259907 1_555
Na4 Pt17 3.280939 1_455
Na4 Pt12 3.280939 1_565
Na5 Pt9 3.067047 1_655
Na5 Pt9 3.067047 1_545
Na5 Pt1 3.151689 1_555
Na5 Pt1 3.151690 1_665
Na5 Pt17 3.154422 1_555
Na5 Pt12 3.154422 1_555
Na5 Pt13 3.209069 1_555
Na5 Pt16 3.209070 1_555
Na5 Pt5 3.259907 1_555
Na5 Pt2 3.259907 1_555
Na5 Pt13 3.280939 1_655
Na5 Pt16 3.280939 1_545
B0 Pt6 2.123541 1_645
B0 Pt2 2.134880 1_545
B0 Pt5 2.134880 1_655
B0 Pt0 2.239297 1_655
B0 Pt10 2.243516 1_545
B0 Pt15 2.243516 1_655
B1 Pt7 2.123541 1_465
B1 Pt4 2.134880 1_565
B1 Pt3 2.134880 1_455
B1 Pt0 2.239297 1_566
B1 Pt14 2.243516 1_565
B1 Pt11 2.243516 1_455
B2 Pt8 2.123541 1_465
B2 Pt4 2.134880 1_565
B2 Pt3 2.134880 1_455
B2 Pt1 2.239297 1_565
B2 Pt12 2.243516 1_565
B2 Pt17 2.243516 1_455
B3 Pt9 2.123541 1_645
B3 Pt2 2.134880 1_545
B3 Pt5 2.134880 1_655
B3 Pt1 2.239297 1_655
B3 Pt16 2.243516 1_545
B3 Pt13 2.243516 1_655
B4 Pt6 2.081514 1_555
B4 Pt11 2.135277 1_454
B4 Pt14 2.135277 1_564
B4 Pt10 2.230191 1_555
B4 Pt15 2.230192 1_555
B4 Pt0 2.294699 1_565
B5 Pt7 2.081514 1_555
B5 Pt15 2.135277 1_656
B5 Pt10 2.135277 1_546
B5 Pt14 2.230191 1_555
B5 Pt11 2.230192 1_555
B5 Pt0 2.294699 1_656
B6 Pt8 2.081514 1_555
B6 Pt13 2.135277 1_655
B6 Pt16 2.135277 1_545
B6 Pt12 2.230191 1_555
B6 Pt17 2.230192 1_555
B6 Pt1 2.294699 1_655
B7 Pt9 2.081514 1_555
B7 Pt17 2.135277 1_455
B7 Pt12 2.135277 1_565
B7 Pt16 2.230191 1_555
B7 Pt13 2.230192 1_555
B7 Pt1 2.294699 1_565
Pt2 Si1 2.315306 1_555
Pt3 Si0 2.315306 1_555
Pt4 Si0 2.315306 1_555
Pt5 Si1 2.315306 1_555
Pt6 Si1 2.378544 1_555
Pt7 Si0 2.378544 1_555
Pt8 Si0 2.378544 1_555
Pt9 Si1 2.378544 1_555
Pt10 Si1 2.931429 1_555
Pt11 Si0 2.931429 1_555
Pt12 Si0 2.931429 1_555
Pt13 Si1 2.931429 1_555
Pt14 Si0 2.931429 1_555
Pt15 Si1 2.931429 1_555
Pt16 Si1 2.931429 1_555
Pt17 Si0 2.931429 1_555
