# generated using pymatgen
data_SrY6PtBr12
_symmetry_space_group_name_H-M   'P 1'
_cell_length_a   9.17794808
_cell_length_b   9.17794737
_cell_length_c   9.17794864
_cell_angle_alpha   105.94752653
_cell_angle_beta   105.94752701
_cell_angle_gamma   105.94751917
_symmetry_Int_Tables_number   1
_chemical_formula_structural   SrY6PtBr12
_chemical_formula_sum   'Sr1 Y6 Pt1 Br12'
_cell_volume   661.46205291
_cell_formula_units_Z   1
loop_
 _symmetry_equiv_pos_site_id
 _symmetry_equiv_pos_as_xyz
  1  'x, y, z'
loop_
 _atom_site_type_symbol
 _atom_site_label
 _atom_site_symmetry_multiplicity
 _atom_site_fract_x
 _atom_site_fract_y
 _atom_site_fract_z
 _atom_site_occupancy
  Sr  Sr0  1  0.50000000  0.50000000  0.50000000  1
  Y  Y0  1  0.10293630  0.01928325  0.31246717  1
  Y  Y1  1  0.31246717  0.10293630  0.01928325  1
  Y  Y2  1  0.01928325  0.31246717  0.10293630  1
  Y  Y3  1  0.89706370  0.98071675  0.68753283  1
  Y  Y4  1  0.68753283  0.89706370  0.98071675  1
  Y  Y5  1  0.98071675  0.68753283  0.89706370  1
  Pt  Pt0  1  0.00000000  0.00000000  0.00000000  1
  Br  Br0  1  0.07437917  0.67323885  0.22074993  1
  Br  Br1  1  0.22074993  0.07437917  0.67323885  1
  Br  Br2  1  0.67323885  0.22074993  0.07437917  1
  Br  Br3  1  0.92562083  0.32676115  0.77925007  1
  Br  Br4  1  0.77925007  0.92562083  0.32676115  1
  Br  Br5  1  0.32676115  0.77925007  0.92562083  1
  Br  Br6  1  0.44951066  0.13937462  0.36564717  1
  Br  Br7  1  0.36564717  0.44951066  0.13937462  1
  Br  Br8  1  0.13937462  0.36564717  0.44951066  1
  Br  Br9  1  0.55048934  0.86062538  0.63435283  1
  Br  Br10  1  0.63435283  0.55048934  0.86062538  1
  Br  Br11  1  0.86062538  0.63435283  0.55048934  1
loop_
_geom_bond_atom_site_label_1
_geom_bond_atom_site_label_2
_geom_bond_distance
_geom_bond_site_symmetry_2
Pt0 Y2 2.699736 1_555
Pt0 Y5 2.699736 1_444
Pt0 Y1 2.699737 1_555
Pt0 Y4 2.699737 1_444
Pt0 Y3 2.699737 1_444
Pt0 Y0 2.699737 1_555
Br0 Y5 2.907660 1_454
Br0 Y0 2.969234 1_565
Br0 Y2 3.033249 1_555
Br1 Y3 2.907660 1_445
Br1 Y1 2.969234 1_556
Br1 Y0 3.033250 1_555
Br2 Y4 2.907660 1_544
Br2 Y2 2.969234 1_655
Br2 Y1 3.033249 1_555
Br3 Y2 2.907660 1_656
Br3 Y3 2.969234 1_545
Br3 Y5 3.033249 1_555
Br4 Y0 2.907660 1_665
Br4 Y4 2.969234 1_554
Br4 Y3 3.033250 1_555
Br5 Y1 2.907660 1_566
Br5 Y5 2.969234 1_455
Br5 Y4 3.033249 1_555
Br6 Y0 2.914708 1_555
Br6 Y1 2.964257 1_555
Br6 Sr0 3.048033 1_555
Br7 Y1 2.914707 1_555
Br7 Y2 2.964257 1_555
Br7 Sr0 3.048033 1_555
Br8 Y2 2.914708 1_555
Br8 Y0 2.964256 1_555
Br8 Sr0 3.048033 1_555
Br9 Y3 2.914708 1_555
Br9 Y4 2.964257 1_555
Br9 Sr0 3.048033 1_555
Br10 Y4 2.914707 1_555
Br10 Y5 2.964257 1_555
Br10 Sr0 3.048033 1_555
Br11 Y5 2.914708 1_555
Br11 Y3 2.964256 1_555
Br11 Sr0 3.048033 1_555
