# generated using pymatgen
data_Ba2Sr(AlP2)2
_symmetry_space_group_name_H-M   'P 1'
_cell_length_a   8.51970282
_cell_length_b   8.51970281
_cell_length_c   6.88309342
_cell_angle_alpha   86.88301088
_cell_angle_beta   86.88300640
_cell_angle_gamma   76.42417027
_symmetry_Int_Tables_number   1
_chemical_formula_structural   Ba2Sr(AlP2)2
_chemical_formula_sum   'Ba4 Sr2 Al4 P8'
_cell_volume   484.48823666
_cell_formula_units_Z   2
loop_
 _symmetry_equiv_pos_site_id
 _symmetry_equiv_pos_as_xyz
  1  'x, y, z'
loop_
 _atom_site_type_symbol
 _atom_site_label
 _atom_site_symmetry_multiplicity
 _atom_site_fract_x
 _atom_site_fract_y
 _atom_site_fract_z
 _atom_site_occupancy
  Ba  Ba0  1  0.99688442  0.25841086  0.43667244  1
  Ba  Ba1  1  0.74158914  0.00311558  0.06332756  1
  Ba  Ba2  1  0.00311558  0.74158914  0.56332756  1
  Ba  Ba3  1  0.25841086  0.99688442  0.93667244  1
  Sr  Sr0  1  0.59992251  0.40007749  0.75000000  1
  Sr  Sr1  1  0.40007749  0.59992251  0.25000000  1
  Al  Al0  1  0.57939097  0.82566696  0.57065727  1
  Al  Al1  1  0.17433304  0.42060903  0.92934273  1
  Al  Al2  1  0.42060903  0.17433304  0.42934273  1
  Al  Al3  1  0.82566696  0.57939097  0.07065727  1
  P  P0  1  0.69123988  0.06316367  0.53639910  1
  P  P1  1  0.93683633  0.30876012  0.96360090  1
  P  P2  1  0.40918725  0.27181772  0.09498968  1
  P  P3  1  0.72818228  0.59081275  0.40501032  1
  P  P4  1  0.59081275  0.72818228  0.90501032  1
  P  P5  1  0.27181772  0.40918725  0.59498968  1
  P  P6  1  0.06316367  0.69123988  0.03639910  1
  P  P7  1  0.30876012  0.93683633  0.46360090  1
loop_
_geom_bond_atom_site_label_1
_geom_bond_atom_site_label_2
_geom_bond_distance
_geom_bond_site_symmetry_2
Ba0 P5 3.188508 1_655
Ba0 P3 3.201842 1_555
Ba0 P1 3.312820 1_554
Ba0 P7 3.343849 1_645
Ba0 P0 3.425499 1_555
Ba0 P1 3.669401 1_555
Ba1 P4 3.188508 1_544
Ba1 P2 3.201842 1_555
Ba1 P0 3.312820 1_555
Ba1 P6 3.343849 1_645
Ba1 P1 3.425499 1_554
Ba1 P0 3.669401 1_554
Ba2 P3 3.188508 1_455
Ba2 P5 3.201842 1_555
Ba2 P6 3.312820 1_556
Ba2 P0 3.343849 1_465
Ba2 P7 3.425499 1_555
Ba2 P6 3.669401 1_555
Ba3 P2 3.188508 1_566
Ba3 P4 3.201842 1_555
Ba3 P7 3.312820 1_555
Ba3 P1 3.343849 1_465
Ba3 P6 3.425499 1_556
Ba3 P7 3.669401 1_556
Al0 P4 2.402952 1_555
Al0 P3 2.410524 1_555
Al0 P7 2.416595 1_555
Al0 P0 2.426248 1_565
Al1 P5 2.402952 1_555
Al1 P2 2.410525 1_556
Al1 P6 2.416595 1_556
Al1 P1 2.426248 1_455
Al2 P2 2.402952 1_555
Al2 P5 2.410524 1_555
Al2 P0 2.416595 1_555
Al2 P7 2.426248 1_545
Al3 P3 2.402952 1_555
Al3 P4 2.410525 1_554
Al3 P1 2.416595 1_554
Al3 P6 2.426248 1_655
P0 Sr0 3.208155 1_555
P1 Sr0 3.208155 1_555
P2 Sr1 3.028516 1_555
P2 Sr0 3.099231 1_554
P3 Sr1 3.028516 1_555
P3 Sr0 3.099231 1_555
P4 Sr0 3.028516 1_555
P4 Sr1 3.099231 1_556
P5 Sr0 3.028516 1_555
P5 Sr1 3.099231 1_555
P6 Sr1 3.208155 1_555
P7 Sr1 3.208155 1_555
