# generated using pymatgen
data_HfTi2(NbP)4
_symmetry_space_group_name_H-M   'P 1'
_cell_length_a   7.69812281
_cell_length_b   7.69812245
_cell_length_c   13.88050099
_cell_angle_alpha   75.84914999
_cell_angle_beta   75.84915077
_cell_angle_gamma   26.02599784
_symmetry_Int_Tables_number   1
_chemical_formula_structural   HfTi2(NbP)4
_chemical_formula_sum   'Hf2 Ti4 Nb8 P8'
_cell_volume   349.38115570
_cell_formula_units_Z   2
loop_
 _symmetry_equiv_pos_site_id
 _symmetry_equiv_pos_as_xyz
  1  'x, y, z'
loop_
 _atom_site_type_symbol
 _atom_site_label
 _atom_site_symmetry_multiplicity
 _atom_site_fract_x
 _atom_site_fract_y
 _atom_site_fract_z
 _atom_site_occupancy
  Hf  Hf0  1  0.82426478  0.82426478  0.54251430  1
  Hf  Hf1  1  0.17573522  0.17573522  0.45748570  1
  Ti  Ti0  1  0.66218852  0.66218852  0.03171445  1
  Ti  Ti1  1  0.33781148  0.33781148  0.96828555  1
  Ti  Ti2  1  0.99557526  0.99557526  0.66693769  1
  Ti  Ti3  1  0.00442474  0.00442474  0.33306231  1
  Nb  Nb0  1  0.20843618  0.20843618  0.19970338  1
  Nb  Nb1  1  0.79156382  0.79156382  0.80029662  1
  Nb  Nb2  1  0.19621203  0.19621203  0.69280549  1
  Nb  Nb3  1  0.80378797  0.80378797  0.30719451  1
  Nb  Nb4  1  0.42821386  0.42821386  0.16968249  1
  Nb  Nb5  1  0.57178614  0.57178614  0.83031751  1
  Nb  Nb6  1  0.50000000  0.50000000  0.50000000  1
  Nb  Nb7  1  0.00000000  0.00000000  0.00000000  1
  P  P0  1  0.06142119  0.06142119  0.15134281  1
  P  P1  1  0.93857881  0.93857881  0.84865719  1
  P  P2  1  0.37289101  0.37289101  0.66561056  1
  P  P3  1  0.62710899  0.62710899  0.33438944  1
  P  P4  1  0.37881066  0.37881066  0.39277931  1
  P  P5  1  0.62118934  0.62118934  0.60722069  1
  P  P6  1  0.17789511  0.17789511  0.89623378  1
  P  P7  1  0.82210489  0.82210489  0.10376622  1
loop_
_geom_bond_atom_site_label_1
_geom_bond_atom_site_label_2
_geom_bond_distance
_geom_bond_site_symmetry_2
Hf0 P2 2.661140 1_565
Hf0 P2 2.661140 1_655
Hf0 P4 2.672169 1_565
Hf0 P4 2.672169 1_655
Hf0 P5 2.951881 1_555
Hf1 P3 2.661140 1_545
Hf1 P3 2.661140 1_455
Hf1 P5 2.672169 1_545
Hf1 P5 2.672169 1_455
Hf1 P4 2.951881 1_555
Nb0 P0 2.461115 1_555
Nb0 P7 2.558506 1_455
Nb0 P7 2.558507 1_545
Nb0 P3 2.616012 1_545
Nb0 P3 2.616013 1_455
Nb1 P1 2.461115 1_555
Nb1 P6 2.558506 1_655
Nb1 P6 2.558507 1_565
Nb1 P2 2.616012 1_565
Nb1 P2 2.616013 1_655
Nb2 P5 2.520594 1_545
Nb2 P5 2.520594 1_455
Nb2 P2 2.581609 1_555
Nb2 P6 2.767552 1_555
Nb3 P4 2.520594 1_565
Nb3 P4 2.520594 1_655
Nb3 P3 2.581609 1_555
Nb3 P7 2.767552 1_555
Nb4 P0 2.609044 1_565
Nb4 P0 2.609044 1_655
Nb4 P7 2.665757 1_545
Nb4 P7 2.665757 1_455
Nb4 P4 2.997841 1_555
Nb5 P1 2.609044 1_545
Nb5 P1 2.609044 1_455
Nb5 P6 2.665757 1_565
Nb5 P6 2.665757 1_655
Nb5 P5 2.997841 1_555
Nb6 P2 2.592359 1_555
Nb6 P3 2.592359 1_555
Nb6 P5 2.622530 1_555
Nb6 P4 2.622530 1_555
Nb7 P0 2.496648 1_555
Nb7 P1 2.496648 1_444
Nb7 P6 2.695732 1_554
Nb7 P7 2.695732 1_445
P0 Ti3 2.451742 1_555
P0 Ti0 2.605235 1_455
P0 Ti0 2.605236 1_545
P1 Ti2 2.451742 1_555
P1 Ti1 2.605235 1_655
P1 Ti1 2.605236 1_565
P2 Ti2 2.531599 1_455
P2 Ti2 2.531599 1_545
P3 Ti3 2.531599 1_655
P3 Ti3 2.531599 1_565
P4 Ti3 2.541375 1_565
P4 Ti3 2.541376 1_655
P5 Ti2 2.541375 1_545
P5 Ti2 2.541376 1_455
P6 Ti0 2.524732 1_546
P6 Ti0 2.524732 1_456
P6 Ti1 2.821145 1_555
P7 Ti1 2.524732 1_564
P7 Ti1 2.524732 1_654
P7 Ti0 2.821145 1_555
