# generated using pymatgen
data_Ca3Al12IrOs3
_symmetry_space_group_name_H-M   'P 1'
_cell_length_a   8.81893032
_cell_length_b   8.81893053
_cell_length_c   9.58055510
_cell_angle_alpha   90.00000000
_cell_angle_beta   90.00000000
_cell_angle_gamma   119.99256706
_symmetry_Int_Tables_number   1
_chemical_formula_structural   Ca3Al12IrOs3
_chemical_formula_sum   'Ca6 Al24 Ir2 Os6'
_cell_volume   645.33565522
_cell_formula_units_Z   2
loop_
 _symmetry_equiv_pos_site_id
 _symmetry_equiv_pos_as_xyz
  1  'x, y, z'
loop_
 _atom_site_type_symbol
 _atom_site_label
 _atom_site_symmetry_multiplicity
 _atom_site_fract_x
 _atom_site_fract_y
 _atom_site_fract_z
 _atom_site_occupancy
  Ca  Ca0  1  0.19121277  0.38687608  0.25000000  1
  Ca  Ca1  1  0.80878723  0.61312392  0.75000000  1
  Ca  Ca2  1  0.61312392  0.80878723  0.25000000  1
  Ca  Ca3  1  0.38687608  0.19121277  0.75000000  1
  Ca  Ca4  1  0.19493228  0.80506772  0.25000000  1
  Ca  Ca5  1  0.80506772  0.19493228  0.75000000  1
  Al  Al0  1  0.33295842  0.66704158  0.99603651  1
  Al  Al1  1  0.66704158  0.33295842  0.00396349  1
  Al  Al2  1  0.66704158  0.33295842  0.49603651  1
  Al  Al3  1  0.33295842  0.66704158  0.50396349  1
  Al  Al4  1  0.16130504  0.32451338  0.57322852  1
  Al  Al5  1  0.83869496  0.67548662  0.42677148  1
  Al  Al6  1  0.67548662  0.83869496  0.57322852  1
  Al  Al7  1  0.83869496  0.67548662  0.07322852  1
  Al  Al8  1  0.32451338  0.16130504  0.42677148  1
  Al  Al9  1  0.16130504  0.32451338  0.92677148  1
  Al  Al10  1  0.16260927  0.83739073  0.57032386  1
  Al  Al11  1  0.32451338  0.16130504  0.07322852  1
  Al  Al12  1  0.83739073  0.16260927  0.42967614  1
  Al  Al13  1  0.67548662  0.83869496  0.92677148  1
  Al  Al14  1  0.83739073  0.16260927  0.07032386  1
  Al  Al15  1  0.16260927  0.83739073  0.92967614  1
  Al  Al16  1  0.55978165  0.12368033  0.25000000  1
  Al  Al17  1  0.44021835  0.87631967  0.75000000  1
  Al  Al18  1  0.87631967  0.44021835  0.25000000  1
  Al  Al19  1  0.12368033  0.55978165  0.75000000  1
  Al  Al20  1  0.56122027  0.43877973  0.25000000  1
  Al  Al21  1  0.43877973  0.56122027  0.75000000  1
  Al  Al22  1  0.00083108  0.99916892  0.25000000  1
  Al  Al23  1  0.99916892  0.00083108  0.75000000  1
  Ir  Ir0  1  0.50000000  0.50000000  0.00000000  1
  Ir  Ir1  1  0.50000000  0.50000000  0.50000000  1
  Os  Os0  1  0.50000000  0.00000000  0.00000000  1
  Os  Os1  1  0.00000000  0.50000000  0.00000000  1
  Os  Os2  1  0.50000000  0.00000000  0.50000000  1
  Os  Os3  1  0.00000000  0.50000000  0.50000000  1
  Os  Os4  1  0.00000000  0.00000000  0.00000000  1
  Os  Os5  1  0.00000000  0.00000000  0.50000000  1
loop_
_geom_bond_atom_site_label_1
_geom_bond_atom_site_label_2
_geom_bond_distance
_geom_bond_site_symmetry_2
Ca0 Os3 3.355214 1_555
Ca0 Os1 3.355214 1_555
Ca0 Ir0 3.381053 1_555
Ca0 Ir1 3.381053 1_555
Ca1 Os3 3.355214 1_655
Ca1 Os1 3.355214 1_656
Ca1 Ir1 3.381053 1_555
Ca1 Ir0 3.381053 1_556
Ca2 Os2 3.355214 1_565
Ca2 Os0 3.355214 1_565
Ca2 Ir0 3.381053 1_555
Ca2 Ir1 3.381053 1_555
Ca3 Os0 3.355214 1_556
Ca3 Os2 3.355214 1_555
Ca3 Ir0 3.381053 1_556
Ca3 Ir1 3.381053 1_555
Ca4 Os0 3.362456 1_565
Ca4 Os2 3.362456 1_565
Ca4 Os3 3.362456 1_555
Ca4 Os1 3.362456 1_555
Ca5 Os0 3.362456 1_556
Ca5 Os2 3.362456 1_555
Ca5 Os1 3.362456 1_656
Ca5 Os3 3.362456 1_655
Al0 Os1 2.543422 1_556
Al0 Os0 2.543422 1_566
Al0 Ir0 2.551720 1_556
Al0 Ca4 3.219431 1_556
Al0 Ca2 3.240283 1_556
Al0 Ca0 3.240283 1_556
Al1 Os1 2.543422 1_655
Al1 Os0 2.543422 1_555
Al1 Ir0 2.551720 1_555
Al1 Ca5 3.219431 1_554
Al1 Ca3 3.240283 1_554
Al1 Ca1 3.240283 1_554
Al2 Os3 2.543422 1_655
Al2 Os2 2.543422 1_555
Al2 Ir1 2.551720 1_555
Al2 Ca5 3.219431 1_555
Al2 Ca3 3.240283 1_555
Al2 Ca1 3.240283 1_555
Al3 Os3 2.543422 1_555
Al3 Os2 2.543422 1_565
Al3 Ir1 2.551720 1_555
Al3 Ca4 3.219431 1_555
Al3 Ca2 3.240283 1_555
Al3 Ca0 3.240283 1_555
Al4 Os5 2.576019 1_555
Al4 Os3 2.666819 1_555
Al4 Ir1 2.680946 1_555
Al4 Ca0 3.133148 1_555
Al4 Ca5 3.233357 1_455
Al4 Ca3 3.247378 1_555
Al5 Os5 2.576019 1_665
Al5 Os3 2.666819 1_655
Al5 Ir1 2.680946 1_555
Al5 Ca1 3.133148 1_555
Al5 Ca4 3.233357 1_655
Al5 Ca2 3.247378 1_555
Al6 Os5 2.576019 1_665
Al6 Os2 2.666819 1_565
Al6 Ir1 2.680946 1_555
Al6 Ca2 3.133148 1_555
Al6 Ca5 3.233357 1_565
Al6 Ca1 3.247378 1_555
Al7 Os4 2.576019 1_665
Al7 Os1 2.666819 1_655
Al7 Ir0 2.680946 1_555
Al7 Ca1 3.133148 1_554
Al7 Ca4 3.233357 1_655
Al7 Ca2 3.247378 1_555
Al8 Os5 2.576019 1_555
Al8 Os2 2.666819 1_555
Al8 Ir1 2.680946 1_555
Al8 Ca3 3.133148 1_555
Al8 Ca4 3.233357 1_545
Al8 Ca0 3.247378 1_555
Al9 Os4 2.576019 1_556
Al9 Os1 2.666819 1_556
Al9 Ir0 2.680946 1_556
Al9 Ca0 3.133148 1_556
Al9 Ca5 3.233357 1_455
Al9 Ca3 3.247378 1_555
Al10 Os5 2.573495 1_565
Al10 Os2 2.664139 1_565
Al10 Os3 2.664139 1_555
Al10 Ca4 3.108340 1_555
Al10 Ca1 3.231310 1_455
Al10 Ca3 3.231310 1_565
Al11 Os4 2.576019 1_555
Al11 Os0 2.666819 1_555
Al11 Ir0 2.680946 1_555
Al11 Ca3 3.133148 1_554
Al11 Ca4 3.233357 1_545
Al11 Ca0 3.247378 1_555
Al12 Os5 2.573495 1_655
Al12 Os2 2.664139 1_555
Al12 Os3 2.664139 1_655
Al12 Ca5 3.108340 1_555
Al12 Ca0 3.231310 1_655
Al12 Ca2 3.231310 1_545
Al13 Os4 2.576019 1_666
Al13 Os0 2.666819 1_566
Al13 Ir0 2.680946 1_556
Al13 Ca2 3.133148 1_556
Al13 Ca5 3.233357 1_565
Al13 Ca1 3.247378 1_555
Al14 Os4 2.573495 1_655
Al14 Os0 2.664139 1_555
Al14 Os1 2.664139 1_655
Al14 Ca5 3.108340 1_554
Al14 Ca0 3.231310 1_655
Al14 Ca2 3.231310 1_545
Al15 Os4 2.573495 1_566
Al15 Os0 2.664139 1_566
Al15 Os1 2.664139 1_556
Al15 Ca4 3.108340 1_556
Al15 Ca1 3.231310 1_455
Al15 Ca3 3.231310 1_565
Al16 Os0 2.574765 1_555
Al16 Os2 2.574765 1_555
Al16 Ca4 3.034655 1_545
Al16 Ca2 3.039608 1_545
Al17 Os0 2.574765 1_566
Al17 Os2 2.574765 1_565
Al17 Ca5 3.034655 1_565
Al17 Ca3 3.039608 1_565
Al18 Os1 2.574765 1_655
Al18 Os3 2.574765 1_655
Al18 Ca4 3.034655 1_655
Al18 Ca0 3.039608 1_655
Al19 Os1 2.574765 1_556
Al19 Os3 2.574765 1_555
Al19 Ca5 3.034655 1_455
Al19 Ca1 3.039608 1_455
Al20 Ir0 2.571204 1_555
Al20 Ir1 2.571204 1_555
Al20 Ca0 3.060043 1_555
Al20 Ca2 3.060043 1_555
Al21 Ir0 2.571204 1_556
Al21 Ir1 2.571204 1_555
Al21 Ca1 3.060043 1_555
Al21 Ca3 3.060043 1_555
Al22 Os4 2.395172 1_565
Al22 Os5 2.395172 1_565
Al22 Ca2 2.961458 1_455
Al22 Ca0 2.961458 1_565
Al22 Ca4 2.964753 1_555
Al23 Os4 2.395172 1_656
Al23 Os5 2.395172 1_655
Al23 Ca3 2.961458 1_655
Al23 Ca1 2.961458 1_545
Al23 Ca5 2.964753 1_555
