# generated using pymatgen
data_CsKZrO3
_symmetry_space_group_name_H-M   'P 1'
_cell_length_a   7.03551344
_cell_length_b   7.03551321
_cell_length_c   5.98476423
_cell_angle_alpha   90.00000000
_cell_angle_beta   90.00000000
_cell_angle_gamma   124.92282297
_symmetry_Int_Tables_number   1
_chemical_formula_structural   CsKZrO3
_chemical_formula_sum   'Cs2 K2 Zr2 O6'
_cell_volume   242.89141996
_cell_formula_units_Z   2
loop_
 _symmetry_equiv_pos_site_id
 _symmetry_equiv_pos_as_xyz
  1  'x, y, z'
loop_
 _atom_site_type_symbol
 _atom_site_label
 _atom_site_symmetry_multiplicity
 _atom_site_fract_x
 _atom_site_fract_y
 _atom_site_fract_z
 _atom_site_occupancy
  Cs  Cs0  1  0.74001285  0.25998715  0.75000000  1
  Cs  Cs1  1  0.25998715  0.74001285  0.25000000  1
  K  K0  1  0.58221424  0.41778576  0.25000000  1
  K  K1  1  0.41778576  0.58221424  0.75000000  1
  Zr  Zr0  1  0.94911911  0.05088089  0.25000000  1
  Zr  Zr1  1  0.05088089  0.94911911  0.75000000  1
  O  O0  1  0.79490572  0.20509428  0.25000000  1
  O  O1  1  0.20364608  0.20364608  0.00000000  1
  O  O2  1  0.79635392  0.79635392  0.50000000  1
  O  O3  1  0.20364608  0.20364608  0.50000000  1
  O  O4  1  0.79635392  0.79635392  0.00000000  1
  O  O5  1  0.20509428  0.79490572  0.75000000  1
loop_
_geom_bond_atom_site_label_1
_geom_bond_atom_site_label_2
_geom_bond_distance
_geom_bond_site_symmetry_2
Cs0 O0 3.069759 1_555
Cs0 O0 3.069759 1_556
Cs0 O5 3.281887 1_655
Cs0 O5 3.281887 1_545
Cs1 O5 3.069759 1_554
Cs1 O5 3.069759 1_555
Cs1 O0 3.281887 1_455
Cs1 O0 3.281887 1_565
K0 O4 2.647246 1_555
K0 O2 2.647246 1_555
K0 O3 2.647246 1_555
K0 O1 2.647246 1_555
K0 O0 2.653704 1_555
K1 O3 2.647246 1_555
K1 O1 2.647246 1_556
K1 O4 2.647246 1_556
K1 O2 2.647246 1_555
K1 O5 2.653704 1_555
O0 Zr0 1.924086 1_555
O1 Zr1 2.096865 1_544
O1 Zr0 2.096865 1_455
O2 Zr0 2.096865 1_565
O2 Zr1 2.096865 1_655
O3 Zr1 2.096865 1_545
O3 Zr0 2.096865 1_455
O4 Zr0 2.096865 1_565
O4 Zr1 2.096865 1_654
O5 Zr1 1.924086 1_555
