# generated using pymatgen
data_Ga2Hg2I3Cl5
_symmetry_space_group_name_H-M   'P 1'
_cell_length_a   7.15049934
_cell_length_b   6.76307310
_cell_length_c   10.03008873
_cell_angle_alpha   85.48270177
_cell_angle_beta   77.85522562
_cell_angle_gamma   63.22302547
_symmetry_Int_Tables_number   1
_chemical_formula_structural   Ga2Hg2I3Cl5
_chemical_formula_sum   'Ga2 Hg2 I3 Cl5'
_cell_volume   423.27228835
_cell_formula_units_Z   1
loop_
 _symmetry_equiv_pos_site_id
 _symmetry_equiv_pos_as_xyz
  1  'x, y, z'
loop_
 _atom_site_type_symbol
 _atom_site_label
 _atom_site_symmetry_multiplicity
 _atom_site_fract_x
 _atom_site_fract_y
 _atom_site_fract_z
 _atom_site_occupancy
  Ga  Ga0  1  0.36189450  0.86439009  0.76686894  1
  Ga  Ga1  1  0.63928647  0.13857410  0.22703578  1
  Hg  Hg0  1  0.92542811  0.51598579  0.88439810  1
  Hg  Hg1  1  0.07853049  0.47944644  0.10340913  1
  I  I0  1  0.73974839  0.54032855  0.66458425  1
  I  I1  1  0.25071256  0.43173620  0.33325365  1
  I  I2  1  0.32000412  0.84698563  0.02360339  1
  Cl  Cl0  1  0.68341546  0.16827159  0.00679787  1
  Cl  Cl1  1  0.12971756  0.80662752  0.68811561  1
  Cl  Cl2  1  0.85025589  0.21502451  0.31599467  1
  Cl  Cl3  1  0.35984439  0.17730520  0.69380105  1
  Cl  Cl4  1  0.66116306  0.81532437  0.29213755  1
loop_
_geom_bond_atom_site_label_1
_geom_bond_atom_site_label_2
_geom_bond_distance
_geom_bond_site_symmetry_2
Ga0 I2 2.528643 1_556
Ga0 I0 2.647299 1_555
Ga1 I1 2.628610 1_555
Hg0 Hg1 2.601473 1_656
Hg0 I0 2.761954 1_555
Hg1 I1 2.766545 1_555
Cl0 Ga1 2.171069 1_555
Cl1 Ga0 2.171985 1_555
Cl2 Ga1 2.163553 1_555
Cl3 Ga0 2.179030 1_545
Cl4 Ga1 2.177184 1_565
