# generated using pymatgen
data_Sr2Cd3AgAu8
_symmetry_space_group_name_H-M   'P 1'
_cell_length_a   5.84676405
_cell_length_b   5.84676383
_cell_length_c   10.25696434
_cell_angle_alpha   90.00000000
_cell_angle_beta   90.00000000
_cell_angle_gamma   123.18648410
_symmetry_Int_Tables_number   1
_chemical_formula_structural   Sr2Cd3AgAu8
_chemical_formula_sum   'Sr2 Cd3 Ag1 Au8'
_cell_volume   293.44055710
_cell_formula_units_Z   1
loop_
 _symmetry_equiv_pos_site_id
 _symmetry_equiv_pos_as_xyz
  1  'x, y, z'
loop_
 _atom_site_type_symbol
 _atom_site_label
 _atom_site_symmetry_multiplicity
 _atom_site_fract_x
 _atom_site_fract_y
 _atom_site_fract_z
 _atom_site_occupancy
  Sr  Sr0  1  0.00000000  0.50000000  0.75367754  1
  Sr  Sr1  1  0.50000000  0.00000000  0.24632246  1
  Cd  Cd0  1  0.00000000  0.00000000  0.50000000  1
  Cd  Cd1  1  0.00000000  0.00000000  0.00000000  1
  Cd  Cd2  1  0.50000000  0.50000000  0.50000000  1
  Ag  Ag0  1  0.50000000  0.50000000  0.00000000  1
  Au  Au0  1  0.00000000  0.50000000  0.05764965  1
  Au  Au1  1  0.50000000  0.00000000  0.55295681  1
  Au  Au2  1  0.50000000  0.00000000  0.94235035  1
  Au  Au3  1  0.00000000  0.50000000  0.44704319  1
  Au  Au4  1  0.19517229  0.30568234  0.24973966  1
  Au  Au5  1  0.69431766  0.80482771  0.75026034  1
  Au  Au6  1  0.30568234  0.19517229  0.75026034  1
  Au  Au7  1  0.80482771  0.69431766  0.24973966  1
loop_
_geom_bond_atom_site_label_1
_geom_bond_atom_site_label_2
_geom_bond_distance
_geom_bond_site_symmetry_2
Cd0 Cd2 2.781469 1_445
Cd0 Cd2 2.781469 1_555
Ag0 Cd1 2.781469 1_665
Ag0 Cd1 2.781469 1_555
Ag0 Au5 2.968531 1_554
Ag0 Au6 2.968531 1_554
Ag0 Au7 2.968531 1_555
Ag0 Au4 2.968531 1_555
Ag0 Au2 2.982584 1_554
Ag0 Au2 2.982584 1_564
Ag0 Au0 2.982585 1_555
Ag0 Au0 2.982585 1_655
Au0 Au4 2.809656 1_555
Au0 Au7 2.809656 1_455
Au0 Cd1 2.982584 1_555
Au0 Cd1 2.982584 1_565
Au0 Au2 3.022443 1_454
Au0 Au2 3.022443 1_564
Au0 Sr0 3.117831 1_554
Au0 Sr1 3.388452 1_565
Au0 Sr1 3.388452 1_455
Au1 Au6 2.847411 1_555
Au1 Au5 2.847411 1_545
Au1 Cd2 2.973416 1_555
Au1 Cd2 2.973416 1_545
Au1 Cd0 2.973416 1_655
Au1 Cd0 2.973416 1_555
Au1 Au3 2.986090 1_655
Au1 Au3 2.986090 1_545
Au1 Sr1 3.145138 1_555
Au1 Sr0 3.460515 1_655
Au1 Sr0 3.460515 1_545
Au2 Au6 2.809656 1_555
Au2 Au5 2.809656 1_545
Au2 Cd1 2.982585 1_556
Au2 Cd1 2.982585 1_656
Au2 Sr1 3.117831 1_556
Au2 Sr0 3.388452 1_655
Au2 Sr0 3.388452 1_545
Au3 Au7 2.847411 1_455
Au3 Au4 2.847411 1_555
Au3 Cd0 2.973416 1_555
Au3 Cd0 2.973416 1_565
Au3 Cd2 2.973416 1_555
Au3 Cd2 2.973416 1_455
Au3 Sr0 3.145138 1_555
Au3 Sr1 3.460515 1_455
Au3 Sr1 3.460515 1_565
Au4 Cd1 2.970758 1_555
Au4 Cd2 2.973141 1_555
Au4 Cd0 2.975364 1_555
Au4 Au7 3.000355 1_555
Au4 Au7 3.009157 1_445
Au4 Sr1 3.139909 1_555
Au4 Sr1 3.425904 1_565
Au4 Sr1 3.429762 1_455
Au5 Cd1 2.970758 1_666
Au5 Cd2 2.973141 1_555
Au5 Cd0 2.975364 1_665
Au5 Au6 3.000355 1_555
Au5 Au6 3.009157 1_665
Au5 Sr0 3.139909 1_655
Au5 Sr0 3.425904 1_555
Au5 Sr0 3.429762 1_665
Au6 Cd1 2.970758 1_556
Au6 Cd2 2.973141 1_555
Au6 Cd0 2.975364 1_555
Au6 Sr0 3.139909 1_555
Au6 Sr0 3.425904 1_655
Au6 Sr0 3.429762 1_545
Au7 Cd1 2.970758 1_665
Au7 Cd2 2.973141 1_555
Au7 Cd0 2.975364 1_665
Au7 Sr1 3.139909 1_565
Au7 Sr1 3.425904 1_555
Au7 Sr1 3.429762 1_665
