# generated using pymatgen
data_Na14Al4O13
_symmetry_space_group_name_H-M   'P 1'
_cell_length_a   27.36852800
_cell_length_b   6.01054800
_cell_length_c   6.01747130
_cell_angle_alpha   60.38959638
_cell_angle_beta   90.00000000
_cell_angle_gamma   90.00000000
_symmetry_Int_Tables_number   1
_chemical_formula_structural   Na14Al4O13
_chemical_formula_sum   'Na28 Al8 O26'
_cell_volume   860.60087621
_cell_formula_units_Z   2
loop_
 _symmetry_equiv_pos_site_id
 _symmetry_equiv_pos_as_xyz
  1  'x, y, z'
loop_
 _atom_site_type_symbol
 _atom_site_label
 _atom_site_symmetry_multiplicity
 _atom_site_fract_x
 _atom_site_fract_y
 _atom_site_fract_z
 _atom_site_occupancy
  Na  Na0  1  0.44610600  0.35004200  0.50217800  1
  Na  Na1  1  0.38884100  0.74939900  0.96673100  1
  Na  Na2  1  0.99972000  0.76581300  0.46695000  1
  Na  Na3  1  0.49972000  0.23418700  0.03305000  1
  Na  Na4  1  0.00028000  0.23418700  0.53305000  1
  Na  Na5  1  0.50028000  0.76581300  0.96695000  1
  Na  Na6  1  0.11245600  0.21971500  0.53497100  1
  Na  Na7  1  0.61245600  0.78028500  0.96502900  1
  Na  Na8  1  0.88754400  0.78028500  0.46502900  1
  Na  Na9  1  0.38754400  0.21971500  0.03497100  1
  Na  Na10  1  0.61115900  0.25060100  0.03326900  1
  Na  Na11  1  0.11115900  0.74939900  0.46673100  1
  Na  Na12  1  0.27558100  0.21185400  0.06070200  1
  Na  Na13  1  0.77558100  0.78814600  0.43929800  1
  Na  Na14  1  0.72441900  0.78814600  0.93929800  1
  Na  Na15  1  0.22441900  0.21185400  0.56070200  1
  Na  Na16  1  0.33984600  0.63064500  0.50721300  1
  Na  Na17  1  0.83984600  0.36935500  0.99278700  1
  Na  Na18  1  0.21847800  0.78714800  0.45116200  1
  Na  Na19  1  0.16015400  0.63064500  0.00721300  1
  Na  Na20  1  0.66015400  0.36935500  0.49278700  1
  Na  Na21  1  0.94610600  0.64995800  0.99782200  1
  Na  Na22  1  0.55389400  0.64995800  0.49782200  1
  Na  Na23  1  0.05389400  0.35004200  0.00217800  1
  Na  Na24  1  0.28152200  0.78714800  0.95116200  1
  Na  Na25  1  0.78152200  0.21285200  0.54883800  1
  Na  Na26  1  0.71847800  0.21285200  0.04883800  1
  Na  Na27  1  0.88884100  0.25060100  0.53326900  1
  Al  Al0  1  0.33482800  0.15482400  0.50004500  1
  Al  Al1  1  0.83482800  0.84517600  0.99995500  1
  Al  Al2  1  0.66517200  0.84517600  0.49995500  1
  Al  Al3  1  0.16517200  0.15482400  0.00004500  1
  Al  Al4  1  0.44501800  0.83585600  0.50006900  1
  Al  Al5  1  0.94501800  0.16414400  0.99993100  1
  Al  Al6  1  0.55498200  0.16414400  0.49993100  1
  Al  Al7  1  0.05498200  0.83585600  0.00006900  1
  O  O0  1  0.50000000  0.00000000  0.50000000  1
  O  O1  1  0.00000000  0.00000000  0.00000000  1
  O  O2  1  0.29000900  0.93566300  0.50804800  1
  O  O3  1  0.79000900  0.06433700  0.99195200  1
  O  O4  1  0.70999100  0.06433700  0.49195200  1
  O  O5  1  0.20999100  0.93566300  0.00804800  1
  O  O6  1  0.44286300  0.53685100  0.78400000  1
  O  O7  1  0.94286300  0.46314900  0.71600000  1
  O  O8  1  0.55713700  0.46314900  0.21600000  1
  O  O9  1  0.05713700  0.53685100  0.28400000  1
  O  O10  1  0.32917100  0.45338200  0.21367300  1
  O  O11  1  0.82917100  0.54661800  0.28632700  1
  O  O12  1  0.67082900  0.54661800  0.78632700  1
  O  O13  1  0.17082900  0.45338200  0.71367300  1
  O  O14  1  0.32974200  0.17958300  0.78148500  1
  O  O15  1  0.82974200  0.82041700  0.71851500  1
  O  O16  1  0.67025800  0.82041700  0.21851500  1
  O  O17  1  0.17025800  0.17958300  0.28148500  1
  O  O18  1  0.44307500  0.81726200  0.21691500  1
  O  O19  1  0.94307500  0.18273800  0.28308500  1
  O  O20  1  0.55692500  0.18273800  0.78308500  1
  O  O21  1  0.05692500  0.81726200  0.71691500  1
  O  O22  1  0.39526900  0.02947000  0.50033300  1
  O  O23  1  0.89526900  0.97053000  0.99966700  1
  O  O24  1  0.60473100  0.97053000  0.49966700  1
  O  O25  1  0.10473100  0.02947000  0.00033300  1
loop_
_geom_bond_atom_site_label_1
_geom_bond_atom_site_label_2
_geom_bond_distance
_geom_bond_site_symmetry_2
Na0 O22 2.381110 1_555
Na0 O6 2.454836 1_555
Na0 O18 2.464970 1_555
Na0 O0 2.574806 1_555
Na1 O18 2.289721 1_556
Na1 O10 2.329811 1_556
Na1 O22 2.464275 1_565
Na1 O6 2.532843 1_555
Na1 O14 2.774175 1_565
Na2 O21 2.295414 1_655
Na2 O7 2.298400 1_555
Na2 O1 2.442993 1_665
Na2 O9 2.659395 1_655
Na2 O19 2.677206 1_565
Na3 O20 2.295414 1_554
Na3 O6 2.298400 1_554
Na3 O0 2.442993 1_555
Na3 O8 2.659395 1_555
Na3 O18 2.677206 1_545
Na4 O19 2.295414 1_455
Na4 O9 2.298400 1_555
Na4 O1 2.442993 1_556
Na4 O7 2.659395 1_455
Na4 O21 2.677206 1_545
Na5 O18 2.295414 1_556
Na5 O8 2.298400 1_556
Na5 O0 2.442993 1_565
Na5 O6 2.659395 1_555
Na5 O20 2.677206 1_565
Na6 O17 2.291515 1_555
Na6 O9 2.315523 1_555
Na6 O25 2.455532 1_556
Na6 O21 2.596676 1_545
Na6 O13 2.678356 1_555
Na7 O16 2.291515 1_556
Na7 O8 2.315523 1_556
Na7 O24 2.455532 1_555
Na7 O20 2.596676 1_565
Na7 O12 2.678356 1_555
Na8 O15 2.291515 1_555
Na8 O7 2.315523 1_555
Na8 O23 2.455532 1_554
Na8 O19 2.596676 1_565
Na8 O11 2.678356 1_555
Na9 O14 2.291515 1_554
Na9 O6 2.315523 1_554
Na9 O22 2.455532 1_555
Na9 O18 2.596676 1_545
Na9 O10 2.678356 1_555
Na10 O20 2.289721 1_554
Na10 O12 2.329811 1_554
Na10 O24 2.464275 1_545
Na10 O8 2.532843 1_555
Na10 O16 2.774175 1_545
Na11 O21 2.289721 1_555
Na11 O13 2.329811 1_555
Na11 O25 2.464275 1_565
Na11 O9 2.532843 1_555
Na11 O17 2.774175 1_565
Na12 O14 2.319464 1_554
Na12 O2 2.396255 1_545
Na12 O10 2.535050 1_555
Na12 O5 2.568725 1_545
Na13 O15 2.319464 1_555
Na13 O3 2.396255 1_564
Na13 O11 2.535050 1_555
Na13 O4 2.568725 1_565
Na14 O16 2.319464 1_556
Na14 O4 2.396255 1_565
Na14 O12 2.535050 1_555
Na14 O3 2.568725 1_565
Na15 O17 2.319464 1_555
Na15 O5 2.396255 1_546
Na15 O13 2.535050 1_555
Na15 O2 2.568725 1_545
Na16 O2 2.287053 1_555
Na16 O14 2.393508 1_555
Na16 O10 2.490052 1_555
Na16 O22 2.819721 1_565
Na17 O3 2.287053 1_555
Na17 O15 2.393508 1_555
Na17 O11 2.490052 1_556
Na17 O23 2.819721 1_545
Na18 O2 2.246899 1_555
Na18 O13 2.255852 1_555
Na18 O5 2.368227 1_555
Na18 O17 2.442929 1_565
Na19 O5 2.287053 1_555
Na19 O17 2.393508 1_555
Na19 O13 2.490052 1_554
Na19 O25 2.819721 1_565
Na20 O4 2.287053 1_555
Na20 O16 2.393508 1_555
Na20 O12 2.490052 1_555
Na20 O24 2.819721 1_545
Na21 O23 2.381110 1_555
Na21 O7 2.454836 1_555
Na21 O19 2.464970 1_556
Na21 O1 2.574806 1_666
Na22 O24 2.381110 1_555
Na22 O8 2.454836 1_555
Na22 O20 2.464970 1_555
Na22 O0 2.574806 1_565
Na23 O25 2.381110 1_555
Na23 O9 2.454836 1_555
Na23 O21 2.464970 1_554
Na23 O1 2.574806 1_555
Na24 O5 2.246899 1_556
Na24 O10 2.255852 1_556
Na24 O2 2.368227 1_555
Na24 O14 2.442929 1_565
Na25 O4 2.246899 1_555
Na25 O11 2.255852 1_555
Na25 O3 2.368227 1_555
Na25 O15 2.442929 1_545
Na26 O3 2.246899 1_554
Na26 O12 2.255852 1_554
Na26 O4 2.368227 1_555
Na26 O16 2.442929 1_545
Na27 O19 2.289721 1_555
Na27 O11 2.329811 1_555
Na27 O23 2.464275 1_545
Na27 O7 2.532843 1_555
Na27 O15 2.774175 1_545
Al0 O10 1.777043 1_555
Al0 O14 1.777276 1_555
Al0 O2 1.783108 1_545
Al0 O22 1.817336 1_555
Al1 O11 1.777043 1_556
Al1 O15 1.777276 1_555
Al1 O3 1.783108 1_565
Al1 O23 1.817336 1_555
Al2 O12 1.777043 1_555
Al2 O16 1.777276 1_555
Al2 O4 1.783108 1_565
Al2 O24 1.817336 1_555
Al3 O13 1.777043 1_554
Al3 O17 1.777276 1_555
Al3 O5 1.783108 1_545
Al3 O25 1.817336 1_555
Al4 O18 1.762576 1_555
Al4 O6 1.765826 1_555
Al4 O22 1.791626 1_565
Al4 O0 1.799255 1_565
Al5 O19 1.762576 1_556
Al5 O7 1.765826 1_555
Al5 O23 1.791626 1_545
Al5 O1 1.799255 1_656
Al6 O20 1.762576 1_555
Al6 O8 1.765826 1_555
Al6 O24 1.791626 1_545
Al6 O0 1.799255 1_555
Al7 O21 1.762576 1_554
Al7 O9 1.765826 1_555
Al7 O25 1.791626 1_565
Al7 O1 1.799255 1_565
