# generated using pymatgen
data_Li7Mn11O24
_symmetry_space_group_name_H-M   'P 1'
_cell_length_a   5.81437300
_cell_length_b   8.53690310
_cell_length_c   10.03262149
_cell_angle_alpha   113.39103946
_cell_angle_beta   106.25226298
_cell_angle_gamma   90.10777400
_symmetry_Int_Tables_number   1
_chemical_formula_structural   Li7Mn11O24
_chemical_formula_sum   'Li7 Mn11 O24'
_cell_volume   435.17320653
_cell_formula_units_Z   1
loop_
 _symmetry_equiv_pos_site_id
 _symmetry_equiv_pos_as_xyz
  1  'x, y, z'
loop_
 _atom_site_type_symbol
 _atom_site_label
 _atom_site_symmetry_multiplicity
 _atom_site_fract_x
 _atom_site_fract_y
 _atom_site_fract_z
 _atom_site_occupancy
  Li  Li0  1  0.10091100  0.73563600  0.70211100  1
  Li  Li1  1  0.75220600  0.38268400  0.00554200  1
  Li  Li2  1  0.42400200  0.04318000  0.34097700  1
  Li  Li3  1  0.57599800  0.95682000  0.65902300  1
  Li  Li4  1  0.24779400  0.61731600  0.99445800  1
  Li  Li5  1  0.89908900  0.26436400  0.29788900  1
  Li  Li6  1  0.00000000  0.50000000  0.50000000  1
  Mn  Mn0  1  0.65983700  0.66044500  0.82696800  1
  Mn  Mn1  1  0.82638000  0.34211400  0.66351300  1
  Mn  Mn2  1  0.00000000  0.00000000  0.00000000  1
  Mn  Mn3  1  0.16542300  0.18064300  0.83700200  1
  Mn  Mn4  1  0.34016300  0.33955500  0.17303200  1
  Mn  Mn5  1  0.33530800  0.34165200  0.66375800  1
  Mn  Mn6  1  0.50000000  0.00000000  0.00000000  1
  Mn  Mn7  1  0.66469200  0.65834800  0.33624200  1
  Mn  Mn8  1  0.83457700  0.81935700  0.16299800  1
  Mn  Mn9  1  0.00000000  0.00000000  0.50000000  1
  Mn  Mn10  1  0.17362000  0.65788600  0.33648700  1
  O  O0  1  0.34498000  0.57151700  0.68640700  1
  O  O1  1  0.65568900  0.42313400  0.81526100  1
  O  O2  1  0.83516100  0.57133600  0.68312800  1
  O  O3  1  0.02931800  0.24825000  0.00365300  1
  O  O4  1  0.15329800  0.39316900  0.81555700  1
  O  O5  1  0.17164100  0.95806900  0.85376500  1
  O  O6  1  0.34582000  0.10575100  0.16036000  1
  O  O7  1  0.46591300  0.25519600  0.99713400  1
  O  O8  1  0.53408700  0.74480400  0.00286600  1
  O  O9  1  0.69565000  0.89255300  0.33228500  1
  O  O10  1  0.82835900  0.04193100  0.14623500  1
  O  O11  1  0.65418000  0.89424900  0.83964000  1
  O  O12  1  0.84670200  0.60683100  0.18444300  1
  O  O13  1  0.98975400  0.72412200  0.48212100  1
  O  O14  1  0.97068200  0.75175000  0.99634700  1
  O  O15  1  0.14026800  0.89236400  0.33120800  1
  O  O16  1  0.16483900  0.42866400  0.31687200  1
  O  O17  1  0.48569800  0.73844300  0.47283400  1
  O  O18  1  0.51430200  0.26155700  0.52716600  1
  O  O19  1  0.34431100  0.57686600  0.18473900  1
  O  O20  1  0.65502000  0.42848300  0.31359300  1
  O  O21  1  0.85973200  0.10763600  0.66879200  1
  O  O22  1  0.01024600  0.27587800  0.51787900  1
  O  O23  1  0.30435000  0.10744700  0.66771500  1
loop_
_geom_bond_atom_site_label_1
_geom_bond_atom_site_label_2
_geom_bond_distance
_geom_bond_site_symmetry_2
Li0 O5 1.855441 1_555
Li0 O0 1.989733 1_555
Li0 O2 2.001543 1_455
Li0 O13 2.080297 1_455
Li1 O7 1.950451 1_554
Li1 O12 1.975341 1_555
Li1 O3 1.979977 1_655
Li1 O1 2.000756 1_554
Li2 O18 1.980594 1_555
Li2 O6 2.020875 1_555
Li2 O9 2.037527 1_545
Li2 O15 2.046999 1_545
Li3 O17 1.980594 1_555
Li3 O11 2.020875 1_555
Li3 O23 2.037527 1_565
Li3 O21 2.046999 1_565
Li4 O8 1.950451 1_556
Li4 O4 1.975341 1_555
Li4 O14 1.979977 1_455
Li4 O19 2.000756 1_556
Li5 O10 1.855441 1_555
Li5 O20 1.989733 1_555
Li5 O16 2.001543 1_655
Li5 O22 2.080297 1_655
Li6 O22 1.990834 1_555
Li6 O13 1.990834 1_455
Li6 O2 2.182751 1_455
Li6 O16 2.182751 1_555
Li6 O20 2.209690 1_455
Li6 O0 2.209690 1_555
Mn0 O0 1.901613 1_555
Mn0 O2 1.911822 1_555
Mn0 O11 1.949927 1_555
Mn0 O8 1.970421 1_556
Mn0 O1 1.981906 1_555
Mn0 O14 1.996423 1_555
Mn1 O18 1.869682 1_555
Mn1 O2 1.886483 1_555
Mn1 O1 1.947662 1_555
Mn1 O22 1.953973 1_655
Mn1 O4 1.993984 1_655
Mn1 O21 2.031543 1_555
Mn2 O5 1.918449 1_544
Mn2 O10 1.918449 1_455
Mn2 O14 2.110746 1_444
Mn2 O3 2.110746 1_555
Mn2 O11 2.115565 1_444
Mn2 O6 2.115565 1_555
Mn3 O4 1.909169 1_555
Mn3 O7 1.910881 1_555
Mn3 O3 1.931551 1_556
Mn3 O23 1.963324 1_555
Mn3 O21 1.969090 1_455
Mn3 O5 1.972441 1_545
Mn4 O20 1.901613 1_555
Mn4 O16 1.911822 1_555
Mn4 O6 1.949927 1_555
Mn4 O7 1.970421 1_554
Mn4 O19 1.981906 1_555
Mn4 O3 1.996423 1_555
Mn5 O18 1.866969 1_555
Mn5 O0 1.882535 1_555
Mn5 O22 1.955677 1_555
Mn5 O1 1.958324 1_555
Mn5 O4 2.001192 1_555
Mn5 O23 2.024151 1_555
Mn6 O11 1.965727 1_544
Mn6 O6 1.965727 1_555
Mn6 O10 1.984499 1_555
Mn6 O5 1.984499 1_544
Mn6 O7 2.198751 1_554
Mn6 O8 2.198751 1_545
Mn7 O17 1.866969 1_555
Mn7 O20 1.882535 1_555
Mn7 O13 1.955677 1_555
Mn7 O19 1.958324 1_555
Mn7 O12 2.001192 1_555
Mn7 O9 2.024151 1_555
Mn8 O12 1.909169 1_555
Mn8 O8 1.910881 1_555
Mn8 O14 1.931551 1_554
Mn8 O9 1.963324 1_555
Mn8 O15 1.969090 1_655
Mn8 O10 1.972441 1_565
Mn9 O9 1.976323 1_445
Mn9 O23 1.976323 1_555
Mn9 O15 1.979277 1_545
Mn9 O21 1.979277 1_455
Mn9 O13 2.289211 1_445
Mn9 O22 2.289211 1_555
Mn10 O17 1.869682 1_555
Mn10 O16 1.886483 1_555
Mn10 O19 1.947662 1_555
Mn10 O13 1.953973 1_455
Mn10 O12 1.993984 1_455
Mn10 O15 2.031543 1_555
