# generated using pymatgen
data_Nb4V4Si3As
_symmetry_space_group_name_H-M   'P 1'
_cell_length_a   6.54776474
_cell_length_b   3.43621900
_cell_length_c   7.93146354
_cell_angle_alpha   90.00000000
_cell_angle_beta   90.03096880
_cell_angle_gamma   90.00000000
_symmetry_Int_Tables_number   1
_chemical_formula_structural   Nb4V4Si3As
_chemical_formula_sum   'Nb4 V4 Si3 As1'
_cell_volume   178.45436304
_cell_formula_units_Z   1
loop_
 _symmetry_equiv_pos_site_id
 _symmetry_equiv_pos_as_xyz
  1  'x, y, z'
loop_
 _atom_site_type_symbol
 _atom_site_label
 _atom_site_symmetry_multiplicity
 _atom_site_fract_x
 _atom_site_fract_y
 _atom_site_fract_z
 _atom_site_occupancy
  Nb  Nb0  1  0.55311450  0.24999900  0.16817314  1
  Nb  Nb1  1  0.04124273  0.24999900  0.33610701  1
  Nb  Nb2  1  0.95470295  0.74999900  0.66873843  1
  Nb  Nb3  1  0.45619393  0.74999900  0.82783458  1
  V  V0  1  0.86704063  0.74999900  0.05911270  1
  V  V1  1  0.37067789  0.74999900  0.44241393  1
  V  V2  1  0.62860522  0.24999900  0.55929927  1
  V  V3  1  0.12881301  0.24999900  0.93831825  1
  Si  Si0  1  0.74608755  0.74999900  0.36324313  1
  Si  Si1  1  0.25267285  0.24999900  0.63830636  1
  Si  Si2  1  0.75382965  0.24999900  0.86036551  1
  As  As0  1  0.24701809  0.74999900  0.13808870  1
loop_
_geom_bond_atom_site_label_1
_geom_bond_atom_site_label_2
_geom_bond_distance
_geom_bond_site_symmetry_2
Nb0 Si0 2.634412 1_545
Nb0 Si0 2.634412 1_555
Nb0 Si2 2.773256 1_554
Nb1 Si0 2.594926 1_445
Nb1 Si0 2.594926 1_455
Nb1 Si1 2.767311 1_555
Nb2 Si1 2.610979 1_665
Nb2 Si1 2.610979 1_655
Nb2 Si2 2.644626 1_565
Nb2 Si2 2.644626 1_555
Nb2 Si0 2.780887 1_555
Nb3 Si2 2.610736 1_555
Nb3 Si2 2.610736 1_565
Nb3 Si1 2.642971 1_555
Nb3 Si1 2.642971 1_565
Si0 V2 2.441925 1_555
Si0 V2 2.441925 1_565
Si0 V1 2.537362 1_555
Si0 V0 2.539290 1_555
Si1 V1 2.442180 1_545
Si1 V1 2.442180 1_555
Si1 V3 2.514358 1_555
Si1 V2 2.540357 1_555
Si2 V0 2.446432 1_556
Si2 V0 2.446432 1_546
Si2 V2 2.524328 1_555
Si2 V3 2.531628 1_655
As0 V3 2.461741 1_564
As0 V3 2.461741 1_554
As0 V1 2.545517 1_555
As0 V0 2.565316 1_455
As0 Nb0 2.650533 1_555
As0 Nb0 2.650533 1_565
As0 Nb1 2.690036 1_555
As0 Nb1 2.690036 1_565
As0 Nb3 2.816900 1_554
