# generated using pymatgen
data_K3PSe4
_symmetry_space_group_name_H-M   'P 1'
_cell_length_a   9.41161546
_cell_length_b   9.68282721
_cell_length_c   10.93015115
_cell_angle_alpha   90.00000000
_cell_angle_beta   90.00000000
_cell_angle_gamma   90.00000000
_symmetry_Int_Tables_number   1
_chemical_formula_structural   K3PSe4
_chemical_formula_sum   'K12 P4 Se16'
_cell_volume   996.07611015
_cell_formula_units_Z   4
loop_
 _symmetry_equiv_pos_site_id
 _symmetry_equiv_pos_as_xyz
  1  'x, y, z'
loop_
 _atom_site_type_symbol
 _atom_site_label
 _atom_site_symmetry_multiplicity
 _atom_site_fract_x
 _atom_site_fract_y
 _atom_site_fract_z
 _atom_site_occupancy
  K  K0  1  0.44075670  0.30382278  0.04454445  1
  K  K1  1  0.05924330  0.80382278  0.54454445  1
  K  K2  1  0.94075670  0.19617722  0.04454445  1
  K  K3  1  0.55924330  0.69617722  0.95545555  1
  K  K4  1  0.44075670  0.30382278  0.45545555  1
  K  K5  1  0.55924330  0.69617722  0.54454445  1
  K  K6  1  0.05924330  0.80382278  0.95545555  1
  K  K7  1  0.94075670  0.19617722  0.45545555  1
  K  K8  1  0.85747368  0.41850315  0.75000000  1
  K  K9  1  0.35747368  0.08149685  0.75000000  1
  K  K10  1  0.64252632  0.91850315  0.25000000  1
  K  K11  1  0.14252632  0.58149685  0.25000000  1
  P  P0  1  0.27651204  0.52290858  0.75000000  1
  P  P1  1  0.72348796  0.47709142  0.25000000  1
  P  P2  1  0.22348796  0.02290858  0.25000000  1
  P  P3  1  0.77651204  0.97709142  0.75000000  1
  Se  Se0  1  0.31310552  0.74798386  0.75000000  1
  Se  Se1  1  0.81310552  0.75201614  0.75000000  1
  Se  Se2  1  0.18689448  0.24798386  0.25000000  1
  Se  Se3  1  0.68689448  0.25201614  0.25000000  1
  Se  Se4  1  0.48420960  0.41347979  0.75000000  1
  Se  Se5  1  0.98420960  0.08652021  0.75000000  1
  Se  Se6  1  0.01579040  0.91347979  0.25000000  1
  Se  Se7  1  0.51579040  0.58652021  0.25000000  1
  Se  Se8  1  0.84283902  0.53291480  0.08318846  1
  Se  Se9  1  0.34283902  0.96708520  0.41681154  1
  Se  Se10  1  0.65716098  0.03291480  0.91681154  1
  Se  Se11  1  0.15716098  0.46708520  0.58318846  1
  Se  Se12  1  0.15716098  0.46708520  0.91681154  1
  Se  Se13  1  0.65716098  0.03291480  0.58318846  1
  Se  Se14  1  0.34283902  0.96708520  0.08318846  1
  Se  Se15  1  0.84283902  0.53291480  0.41681154  1
loop_
_geom_bond_atom_site_label_1
_geom_bond_atom_site_label_2
_geom_bond_distance
_geom_bond_site_symmetry_2
K0 Se3 3.265126 1_555
K0 Se2 3.323230 1_555
K0 Se12 3.401813 1_554
K0 Se14 3.414530 1_545
K0 Se4 3.414569 1_554
K0 Se10 3.602548 1_554
K0 Se7 3.610341 1_555
K1 Se1 3.265126 1_455
K1 Se0 3.323230 1_555
K1 Se9 3.401813 1_555
K1 Se11 3.414530 1_555
K1 Se6 3.414569 1_555
K1 Se15 3.602548 1_455
K1 Se5 3.610341 1_465
K2 Se2 3.265126 1_655
K2 Se3 3.323230 1_555
K2 Se10 3.401813 1_554
K2 Se8 3.414530 1_555
K2 Se5 3.414569 1_554
K2 Se12 3.602548 1_654
K2 Se6 3.610341 1_645
K3 Se0 3.265126 1_555
K3 Se1 3.323230 1_555
K3 Se8 3.401813 1_556
K3 Se10 3.414530 1_565
K3 Se7 3.414569 1_556
K3 Se14 3.602548 1_556
K3 Se4 3.610341 1_555
K4 Se3 3.265126 1_555
K4 Se2 3.323230 1_555
K4 Se11 3.401813 1_555
K4 Se9 3.414530 1_545
K4 Se4 3.414569 1_555
K4 Se13 3.602548 1_555
K4 Se7 3.610341 1_555
K5 Se0 3.265126 1_555
K5 Se1 3.323230 1_555
K5 Se15 3.401813 1_555
K5 Se13 3.414530 1_565
K5 Se7 3.414569 1_555
K5 Se9 3.602548 1_555
K5 Se4 3.610341 1_555
K6 Se1 3.265126 1_455
K6 Se0 3.323230 1_555
K6 Se14 3.401813 1_556
K6 Se12 3.414530 1_555
K6 Se6 3.414569 1_556
K6 Se8 3.602548 1_456
K6 Se5 3.610341 1_465
K7 Se2 3.265126 1_655
K7 Se3 3.323230 1_555
K7 Se13 3.401813 1_555
K7 Se15 3.414530 1_555
K7 Se5 3.414569 1_555
K7 Se11 3.602548 1_655
K7 Se6 3.610341 1_645
K8 Se1 3.256234 1_555
K8 Se12 3.391324 1_655
K8 Se11 3.391324 1_655
K8 Se5 3.428698 1_555
K8 Se4 3.513355 1_555
K8 Se8 3.809063 1_556
K8 Se15 3.809063 1_555
K9 Se0 3.256234 1_545
K9 Se13 3.391324 1_555
K9 Se10 3.391324 1_555
K9 Se4 3.428698 1_555
K9 Se5 3.513355 1_455
K9 Se14 3.809063 1_546
K9 Se9 3.809063 1_545
K10 Se3 3.256234 1_565
K10 Se9 3.391324 1_555
K10 Se14 3.391324 1_555
K10 Se7 3.428698 1_555
K10 Se6 3.513355 1_655
K10 Se10 3.809063 1_564
K10 Se13 3.809063 1_565
K11 Se2 3.256234 1_555
K11 Se15 3.391324 1_455
K11 Se8 3.391324 1_455
K11 Se6 3.428698 1_555
K11 Se7 3.513355 1_555
K11 Se12 3.809063 1_554
K11 Se11 3.809063 1_555
P0 Se0 2.206410 1_555
P0 Se12 2.208682 1_555
P0 Se11 2.208682 1_555
P0 Se4 2.223473 1_555
P1 Se3 2.206410 1_555
P1 Se8 2.208682 1_555
P1 Se15 2.208682 1_555
P1 Se7 2.223473 1_555
P2 Se2 2.206410 1_555
P2 Se14 2.208682 1_545
P2 Se9 2.208682 1_545
P2 Se6 2.223473 1_545
P3 Se1 2.206410 1_555
P3 Se10 2.208682 1_565
P3 Se13 2.208682 1_565
P3 Se5 2.223473 1_565
