# generated using pymatgen
data_TiCr3InSe8
_symmetry_space_group_name_H-M   'P 1'
_cell_length_a   7.46579272
_cell_length_b   7.46579258
_cell_length_c   7.46579457
_cell_angle_alpha   60.69456245
_cell_angle_beta   60.69456270
_cell_angle_gamma   60.69455641
_symmetry_Int_Tables_number   1
_chemical_formula_structural   TiCr3InSe8
_chemical_formula_sum   'Ti1 Cr3 In1 Se8'
_cell_volume   298.86046543
_cell_formula_units_Z   1
loop_
 _symmetry_equiv_pos_site_id
 _symmetry_equiv_pos_as_xyz
  1  'x, y, z'
loop_
 _atom_site_type_symbol
 _atom_site_label
 _atom_site_symmetry_multiplicity
 _atom_site_fract_x
 _atom_site_fract_y
 _atom_site_fract_z
 _atom_site_occupancy
  Ti  Ti0  1  0.39645642  0.39645642  0.39645642  1
  Cr  Cr0  1  0.85596782  0.37981149  0.37981149  1
  Cr  Cr1  1  0.37981149  0.85596782  0.37981149  1
  Cr  Cr2  1  0.37981149  0.37981149  0.85596782  1
  In  In0  1  0.99471185  0.99471185  0.99471185  1
  Se  Se0  1  0.13604085  0.13604085  0.13604085  1
  Se  Se1  1  0.57739335  0.14077425  0.14077425  1
  Se  Se2  1  0.14077425  0.57739335  0.14077425  1
  Se  Se3  1  0.14077425  0.14077425  0.57739335  1
  Se  Se4  1  0.61553434  0.61553434  0.61553434  1
  Se  Se5  1  0.13496720  0.62387785  0.62387785  1
  Se  Se6  1  0.62387785  0.13496720  0.62387785  1
  Se  Se7  1  0.62387785  0.62387785  0.13496720  1
loop_
_geom_bond_atom_site_label_1
_geom_bond_atom_site_label_2
_geom_bond_distance
_geom_bond_site_symmetry_2
Cr0 Se4 2.502659 1_555
Cr0 Se6 2.532439 1_555
Cr0 Se7 2.532439 1_555
Cr0 Se3 2.580831 1_655
Cr0 Se2 2.580831 1_655
Cr0 Se0 2.605456 1_655
Cr1 Se4 2.502659 1_555
Cr1 Se5 2.532439 1_555
Cr1 Se7 2.532439 1_555
Cr1 Se3 2.580831 1_565
Cr1 Se1 2.580831 1_565
Cr1 Se0 2.605456 1_565
Cr2 Se4 2.502659 1_555
Cr2 Se6 2.532439 1_555
Cr2 Se5 2.532439 1_555
Cr2 Se2 2.580831 1_556
Cr2 Se1 2.580831 1_556
Cr2 Se0 2.605456 1_556
In0 Se2 2.568573 1_656
In0 Se1 2.568573 1_566
In0 Se3 2.568574 1_665
In0 Se0 2.570888 1_666
Se1 Ti0 2.762401 1_555
Se2 Ti0 2.762401 1_555
Se3 Ti0 2.762401 1_555
Se5 Ti0 2.430891 1_555
Se6 Ti0 2.430891 1_555
Se7 Ti0 2.430891 1_555
