# generated using pymatgen
data_Hf10GaSn6Sb
_symmetry_space_group_name_H-M   'P 1'
_cell_length_a   8.66419199
_cell_length_b   8.66419269
_cell_length_c   5.82967051
_cell_angle_alpha   90.00000000
_cell_angle_beta   90.00000000
_cell_angle_gamma   120.00000109
_symmetry_Int_Tables_number   1
_chemical_formula_structural   Hf10GaSn6Sb
_chemical_formula_sum   'Hf10 Ga1 Sn6 Sb1'
_cell_volume   378.99266595
_cell_formula_units_Z   1
loop_
 _symmetry_equiv_pos_site_id
 _symmetry_equiv_pos_as_xyz
  1  'x, y, z'
loop_
 _atom_site_type_symbol
 _atom_site_label
 _atom_site_symmetry_multiplicity
 _atom_site_fract_x
 _atom_site_fract_y
 _atom_site_fract_z
 _atom_site_occupancy
  Hf  Hf0  1  0.72570037  0.72570037  0.73625542  1
  Hf  Hf1  1  0.27429963  1.00000000  0.73625542  1
  Hf  Hf2  1  0.00000000  0.27429963  0.73625542  1
  Hf  Hf3  1  0.27429963  0.27429963  0.26374458  1
  Hf  Hf4  1  0.72570037  0.00000000  0.26374458  1
  Hf  Hf5  1  1.00000000  0.72570037  0.26374458  1
  Hf  Hf6  1  0.66666700  0.33333300  0.00000000  1
  Hf  Hf7  1  0.33333300  0.66666700  0.00000000  1
  Hf  Hf8  1  0.33333300  0.66666700  0.50000000  1
  Hf  Hf9  1  0.66666700  0.33333300  0.50000000  1
  Ga  Ga0  1  0.00000000  0.00000000  0.50000000  1
  Sn  Sn0  1  0.38994383  0.38994383  0.75398407  1
  Sn  Sn1  1  0.61005617  1.00000000  0.75398407  1
  Sn  Sn2  1  0.00000000  0.61005617  0.75398407  1
  Sn  Sn3  1  0.61005617  0.61005617  0.24601593  1
  Sn  Sn4  1  0.38994383  0.00000000  0.24601593  1
  Sn  Sn5  1  1.00000000  0.38994383  0.24601593  1
  Sb  Sb0  1  0.00000000  0.00000000  0.00000000  1
loop_
_geom_bond_atom_site_label_1
_geom_bond_atom_site_label_2
_geom_bond_distance
_geom_bond_site_symmetry_2
Hf0 Sb0 2.830582 1_666
Hf0 Sn0 2.910895 1_555
Hf0 Sn2 3.007328 1_655
Hf0 Sn1 3.007328 1_555
Hf0 Sn3 3.028485 1_555
Hf0 Sn3 3.136103 1_556
Hf1 Sb0 2.830582 1_566
Hf1 Sn1 2.910895 1_555
Hf1 Sn2 3.007328 1_555
Hf1 Sn0 3.007328 1_565
Hf1 Sn4 3.028485 1_565
Hf1 Sn4 3.136103 1_566
Hf2 Sb0 2.830582 1_556
Hf2 Sn2 2.910895 1_555
Hf2 Sn0 3.007327 1_555
Hf2 Sn1 3.007327 1_445
Hf2 Sn5 3.028485 1_455
Hf2 Sn5 3.136103 1_456
Hf3 Sb0 2.830582 1_555
Hf3 Sn3 2.910895 1_555
Hf3 Sn5 3.007328 1_455
Hf3 Sn4 3.007328 1_555
Hf3 Sn0 3.028485 1_555
Hf3 Sn0 3.136103 1_554
Hf4 Sb0 2.830582 1_655
Hf4 Sn4 2.910895 1_555
Hf4 Sn5 3.007328 1_555
Hf4 Sn3 3.007328 1_545
Hf4 Sn1 3.028485 1_545
Hf4 Sn1 3.136103 1_544
Hf5 Sb0 2.830582 1_665
Hf5 Sn5 2.910895 1_555
Hf5 Sn3 3.007327 1_555
Hf5 Sn4 3.007327 1_665
Hf5 Sn2 3.028485 1_655
Hf5 Sn2 3.136103 1_654
Hf6 Sn5 3.036746 1_555
Hf6 Sn1 3.036746 1_544
Hf6 Sn2 3.036748 1_654
Hf6 Sn4 3.036748 1_555
Hf6 Sn0 3.036753 1_554
Hf6 Sn3 3.036753 1_555
Hf7 Sn2 3.036746 1_554
Hf7 Sn4 3.036746 1_565
Hf7 Sn5 3.036748 1_455
Hf7 Sn1 3.036748 1_554
Hf7 Sn3 3.036753 1_555
Hf7 Sn0 3.036753 1_554
Hf8 Sn2 3.058958 1_555
Hf8 Sn4 3.058958 1_565
Hf8 Sn5 3.058961 1_455
Hf8 Sn1 3.058961 1_555
Hf8 Sn3 3.058965 1_555
Hf8 Sn0 3.058965 1_555
Hf9 Sn5 3.058958 1_555
Hf9 Sn1 3.058958 1_545
Hf9 Sn2 3.058961 1_655
Hf9 Sn4 3.058961 1_555
Hf9 Sn0 3.058965 1_555
Hf9 Sn3 3.058965 1_555
Ga0 Hf1 2.746832 1_545
Ga0 Hf4 2.746832 1_455
Ga0 Hf3 2.746832 1_555
Ga0 Hf0 2.746832 1_445
Ga0 Hf2 2.746832 1_555
Ga0 Hf5 2.746832 1_445
Ga0 Sb0 2.914835 1_555
Ga0 Sb0 2.914835 1_556
