# generated using pymatgen
data_Sr3Se2(BrO3)2
_symmetry_space_group_name_H-M   'P 1'
_cell_length_a   7.19025192
_cell_length_b   7.19025195
_cell_length_c   6.88042294
_cell_angle_alpha   85.40596568
_cell_angle_beta   85.40596422
_cell_angle_gamma   46.24243679
_symmetry_Int_Tables_number   1
_chemical_formula_structural   Sr3Se2(BrO3)2
_chemical_formula_sum   'Sr3 Se2 Br2 O6'
_cell_volume   255.94770786
_cell_formula_units_Z   1
loop_
 _symmetry_equiv_pos_site_id
 _symmetry_equiv_pos_as_xyz
  1  'x, y, z'
loop_
 _atom_site_type_symbol
 _atom_site_label
 _atom_site_symmetry_multiplicity
 _atom_site_fract_x
 _atom_site_fract_y
 _atom_site_fract_z
 _atom_site_occupancy
  Sr  Sr0  1  0.28353236  0.29168987  0.20342205  1
  Sr  Sr1  1  0.70831013  0.71646764  0.79657795  1
  Sr  Sr2  1  0.95213435  0.04786565  0.00000000  1
  Se  Se0  1  0.39986605  0.40940436  0.74239006  1
  Se  Se1  1  0.59059564  0.60013395  0.25760994  1
  Br  Br0  1  0.15950101  0.14644682  0.61308960  1
  Br  Br1  1  0.85355318  0.84049899  0.38691040  1
  O  O0  1  0.87000262  0.43338838  0.11209282  1
  O  O1  1  0.38730875  0.87691406  0.11291376  1
  O  O2  1  0.12308594  0.61269125  0.88708624  1
  O  O3  1  0.56661162  0.12999738  0.88790718  1
  O  O4  1  0.51477042  0.43227207  0.21644689  1
  O  O5  1  0.56772793  0.48522958  0.78355311  1
loop_
_geom_bond_atom_site_label_1
_geom_bond_atom_site_label_2
_geom_bond_distance
_geom_bond_site_symmetry_2
Br0 Sr1 3.165656 1_545
Br0 Sr0 3.200782 1_555
Br0 Sr2 3.214989 1_456
Br0 Sr1 3.270744 1_455
Br1 Sr0 3.165656 1_655
Br1 Sr1 3.200782 1_555
Br1 Sr2 3.214989 1_565
Br1 Sr0 3.270744 1_565
O0 Se1 1.736190 1_555
O0 Sr0 2.506056 1_655
O0 Sr1 2.574978 1_554
O0 Sr2 2.575415 1_555
O1 Se1 1.726356 1_555
O1 Sr2 2.611816 1_465
O1 Sr0 2.642700 1_565
O1 Sr1 2.703661 1_554
O2 Se0 1.726356 1_555
O2 Sr2 2.611816 1_466
O2 Sr1 2.642700 1_455
O2 Sr0 2.703662 1_556
O3 Se0 1.736190 1_555
O3 Sr1 2.506056 1_545
O3 Sr0 2.574978 1_556
O3 Sr2 2.575415 1_556
O4 Se1 1.680459 1_555
O4 Sr0 2.481394 1_555
O4 Sr2 2.762809 1_555
O5 Se0 1.680459 1_555
O5 Sr1 2.481394 1_555
O5 Sr2 2.762809 1_556
