# generated using pymatgen
data_CeMgSi2
_symmetry_space_group_name_H-M   'P 1'
_cell_length_a   4.23811093
_cell_length_b   4.23802456
_cell_length_c   18.75858425
_cell_angle_alpha   96.51998466
_cell_angle_beta   96.48624398
_cell_angle_gamma   89.99999511
_symmetry_Int_Tables_number   1
_chemical_formula_structural   CeMgSi2
_chemical_formula_sum   'Ce4 Mg4 Si8'
_cell_volume   332.57708697
_cell_formula_units_Z   4
loop_
 _symmetry_equiv_pos_site_id
 _symmetry_equiv_pos_as_xyz
  1  'x, y, z'
loop_
 _atom_site_type_symbol
 _atom_site_label
 _atom_site_symmetry_multiplicity
 _atom_site_fract_x
 _atom_site_fract_y
 _atom_site_fract_z
 _atom_site_occupancy
  Ce  Ce0  1  0.70267567  0.95271390  0.90535133  1
  Ce  Ce1  1  0.45266241  0.20276010  0.40532381  1
  Ce  Ce2  1  0.29732433  0.04728610  0.09464867  1
  Ce  Ce3  1  0.54733759  0.79723990  0.59467619  1
  Mg  Mg0  1  0.62501793  0.37506830  0.75003785  1
  Mg  Mg1  1  0.37498207  0.62493170  0.24996215  1
  Mg  Mg2  1  0.12506843  0.87536093  0.75013686  1
  Mg  Mg3  1  0.87493157  0.12463907  0.24986314  1
  Si  Si0  1  0.07691516  0.32692150  0.65382833  1
  Si  Si1  1  0.17311389  0.42327894  0.84622877  1
  Si  Si2  1  0.82688611  0.57672106  0.15377123  1
  Si  Si3  1  0.92308484  0.67307850  0.34617167  1
  Si  Si4  1  0.01442283  0.26451139  0.52884467  1
  Si  Si5  1  0.76440877  0.51455452  0.02881454  1
  Si  Si6  1  0.98557717  0.73548861  0.47115533  1
  Si  Si7  1  0.23559123  0.48544548  0.97118546  1
loop_
_geom_bond_atom_site_label_1
_geom_bond_atom_site_label_2
_geom_bond_distance
_geom_bond_site_symmetry_2
Ce0 Si5 3.116510 1_566
Ce0 Si5 3.117731 1_556
Ce0 Si1 3.189674 1_655
Ce0 Si1 3.189677 1_555
Ce0 Si1 3.191251 1_665
Ce0 Si1 3.191253 1_565
Ce0 Si7 3.234218 1_665
Ce0 Si7 3.234226 1_565
Ce0 Si7 3.236198 1_655
Ce0 Si7 3.236207 1_555
Ce1 Si4 3.117933 1_655
Ce1 Si4 3.117933 1_555
Ce1 Si3 3.190511 1_545
Ce1 Si3 3.190520 1_445
Ce1 Si3 3.190783 1_555
Ce1 Si3 3.190792 1_455
Ce1 Si6 3.234196 1_555
Ce1 Si6 3.234202 1_455
Ce1 Si6 3.236186 1_545
Ce1 Si6 3.236192 1_445
Ce2 Si7 3.116510 1_544
Ce2 Si7 3.117731 1_554
Ce2 Si2 3.189674 1_455
Ce2 Si2 3.189677 1_555
Ce2 Si2 3.191251 1_445
Ce2 Si2 3.191253 1_545
Ce2 Si5 3.234218 1_445
Ce2 Si5 3.234226 1_545
Ce2 Si5 3.236198 1_455
Ce2 Si5 3.236207 1_555
Ce3 Si6 3.117933 1_455
Ce3 Si6 3.117933 1_555
Ce3 Si0 3.190511 1_565
Ce3 Si0 3.190520 1_665
Ce3 Si0 3.190783 1_555
Ce3 Si0 3.190792 1_655
Ce3 Si4 3.234196 1_555
Ce3 Si4 3.234202 1_655
Ce3 Si4 3.236186 1_565
Ce3 Si4 3.236192 1_665
Mg0 Si1 2.768165 1_555
Mg0 Si1 2.768168 1_655
Mg0 Si0 2.768382 1_555
Mg0 Si0 2.768395 1_655
Mg1 Si2 2.768165 1_555
Mg1 Si2 2.768168 1_455
Mg1 Si3 2.768382 1_555
Mg1 Si3 2.768395 1_455
Mg2 Si1 2.765728 1_565
Mg2 Si1 2.768181 1_555
Mg2 Si0 2.769423 1_565
Mg2 Si0 2.769648 1_555
Mg3 Si2 2.765728 1_545
Mg3 Si2 2.768181 1_555
Mg3 Si3 2.769423 1_545
Mg3 Si3 2.769648 1_555
Si0 Si4 2.314248 1_555
Si1 Si7 2.313750 1_555
Si2 Si5 2.313750 1_555
Si3 Si6 2.314248 1_555
Si4 Si6 2.372922 1_455
Si4 Si6 2.373134 1_445
Si5 Si7 2.372553 1_654
Si5 Si7 2.372576 1_554
