# generated using pymatgen
data_Y3Al12ReRh3
_symmetry_space_group_name_H-M   'P 1'
_cell_length_a   8.78968466
_cell_length_b   8.78968500
_cell_length_c   9.52422159
_cell_angle_alpha   90.00000000
_cell_angle_beta   90.00000000
_cell_angle_gamma   120.00000238
_symmetry_Int_Tables_number   1
_chemical_formula_structural   Y3Al12ReRh3
_chemical_formula_sum   'Y6 Al24 Re2 Rh6'
_cell_volume   637.24541316
_cell_formula_units_Z   2
loop_
 _symmetry_equiv_pos_site_id
 _symmetry_equiv_pos_as_xyz
  1  'x, y, z'
loop_
 _atom_site_type_symbol
 _atom_site_label
 _atom_site_symmetry_multiplicity
 _atom_site_fract_x
 _atom_site_fract_y
 _atom_site_fract_z
 _atom_site_occupancy
  Y  Y0  1  0.38374375  0.19187138  0.25000000  1
  Y  Y1  1  0.80812862  0.19187138  0.25000000  1
  Y  Y2  1  0.80812862  0.61625625  0.25000000  1
  Y  Y3  1  0.61625625  0.80812862  0.75000000  1
  Y  Y4  1  0.19187138  0.80812862  0.75000000  1
  Y  Y5  1  0.19187138  0.38374375  0.75000000  1
  Al  Al0  1  0.43727245  0.87454591  0.25000000  1
  Al  Al1  1  0.12545409  0.56272755  0.25000000  1
  Al  Al2  1  0.43727245  0.56272755  0.25000000  1
  Al  Al3  1  0.56272755  0.12545409  0.75000000  1
  Al  Al4  1  0.87454591  0.43727245  0.75000000  1
  Al  Al5  1  0.56272755  0.43727245  0.75000000  1
  Al  Al6  1  0.16393068  0.83606932  0.42335091  1
  Al  Al7  1  0.16393068  0.32786435  0.42335091  1
  Al  Al8  1  0.67213565  0.83606932  0.42335091  1
  Al  Al9  1  0.83606932  0.16393068  0.57664909  1
  Al  Al10  1  0.83606932  0.67213565  0.57664909  1
  Al  Al11  1  0.32786435  0.16393068  0.57664909  1
  Al  Al12  1  0.83606932  0.16393068  0.92335091  1
  Al  Al13  1  0.83606932  0.67213565  0.92335091  1
  Al  Al14  1  0.32786435  0.16393068  0.92335091  1
  Al  Al15  1  0.16393068  0.83606932  0.07664909  1
  Al  Al16  1  0.16393068  0.32786435  0.07664909  1
  Al  Al17  1  0.67213565  0.83606932  0.07664909  1
  Al  Al18  1  0.33333300  0.66666700  0.52121873  1
  Al  Al19  1  0.66666700  0.33333300  0.47878127  1
  Al  Al20  1  0.66666700  0.33333300  0.02121873  1
  Al  Al21  1  0.33333300  0.66666700  0.97878127  1
  Al  Al22  1  0.00000000  0.00000000  0.25000000  1
  Al  Al23  1  0.00000000  0.00000000  0.75000000  1
  Re  Re0  1  0.00000000  0.00000000  0.50000000  1
  Re  Re1  1  0.00000000  0.00000000  0.00000000  1
  Rh  Rh0  1  0.50000000  0.00000000  0.50000000  1
  Rh  Rh1  1  0.00000000  0.50000000  0.50000000  1
  Rh  Rh2  1  0.50000000  0.50000000  0.50000000  1
  Rh  Rh3  1  0.50000000  0.00000000  0.00000000  1
  Rh  Rh4  1  0.00000000  0.50000000  0.00000000  1
  Rh  Rh5  1  0.50000000  0.50000000  0.00000000  1
loop_
_geom_bond_atom_site_label_1
_geom_bond_atom_site_label_2
_geom_bond_distance
_geom_bond_site_symmetry_2
Al0 Rh3 2.565422 1_565
Al0 Rh0 2.565422 1_565
Al0 Al1 2.740785 1_555
Al0 Al2 2.740785 1_555
Al0 Al8 2.792864 1_555
Al0 Al17 2.792864 1_555
Al0 Al6 2.792878 1_555
Al0 Al15 2.792878 1_555
Al0 Al18 3.029293 1_555
Al0 Al21 3.029293 1_554
Al0 Y0 3.051765 1_565
Al0 Y1 3.051776 1_565
Al1 Rh1 2.565422 1_555
Al1 Rh4 2.565422 1_555
Al1 Al2 2.740785 1_555
Al1 Al7 2.792864 1_555
Al1 Al16 2.792864 1_555
Al1 Al6 2.792878 1_555
Al1 Al15 2.792878 1_555
Al1 Al18 3.029293 1_555
Al1 Al21 3.029293 1_554
Al1 Y2 3.051765 1_455
Al1 Y1 3.051776 1_455
Al2 Rh5 2.565425 1_555
Al2 Rh2 2.565425 1_555
Al2 Al7 2.792872 1_555
Al2 Al8 2.792872 1_555
Al2 Al21 3.029293 1_554
Al2 Y2 3.051783 1_555
Al2 Y0 3.051783 1_555
Al3 Rh0 2.565422 1_555
Al3 Rh3 2.565422 1_556
Al3 Al4 2.740785 1_555
Al3 Al5 2.740785 1_555
Al3 Al9 2.792878 1_555
Al3 Y3 3.051765 1_545
Al3 Y4 3.051776 1_545
Al4 Rh1 2.565422 1_655
Al4 Rh4 2.565422 1_656
Al4 Al5 2.740785 1_555
Al4 Al9 2.792878 1_555
Al4 Y5 3.051765 1_655
Al4 Y4 3.051776 1_655
Al5 Rh5 2.565425 1_556
Al5 Rh2 2.565425 1_555
Al5 Y5 3.051783 1_555
Al5 Y3 3.051783 1_555
Al6 Re0 2.600289 1_565
Al6 Rh0 2.660558 1_565
Al6 Rh1 2.660558 1_555
Al6 Y4 3.140024 1_555
Al6 Y2 3.193280 1_455
Al6 Y0 3.193280 1_565
Al7 Re0 2.600311 1_555
Al7 Rh1 2.660536 1_555
Al7 Rh2 2.660558 1_555
Al7 Al9 2.891419 1_455
Al7 Y5 3.140022 1_555
Al7 Y1 3.193276 1_455
Al7 Y0 3.193304 1_555
Al8 Re0 2.600311 1_665
Al8 Rh0 2.660536 1_565
Al8 Rh2 2.660558 1_555
Al8 Al9 2.891419 1_565
Al8 Y3 3.140022 1_555
Al8 Y1 3.193276 1_565
Al8 Y2 3.193304 1_555
Al9 Re0 2.600289 1_655
Al9 Rh0 2.660558 1_555
Al9 Rh1 2.660558 1_655
Al9 Y1 3.140024 1_555
Al9 Y5 3.193280 1_655
Al9 Y3 3.193280 1_545
Al10 Re0 2.600311 1_665
Al10 Rh1 2.660536 1_655
Al10 Rh2 2.660558 1_555
Al10 Al19 2.742273 1_555
Al10 Al4 2.792864 1_555
Al10 Al5 2.792872 1_555
Al10 Al6 2.891419 1_655
Al10 Al8 2.891458 1_555
Al10 Al23 2.992422 1_665
Al10 Y2 3.140022 1_555
Al10 Y4 3.193276 1_655
Al10 Y3 3.193304 1_555
Al11 Re0 2.600311 1_555
Al11 Rh0 2.660536 1_555
Al11 Rh2 2.660558 1_555
Al11 Al19 2.742273 1_555
Al11 Al3 2.792864 1_555
Al11 Al5 2.792872 1_555
Al11 Al6 2.891419 1_545
Al11 Al7 2.891458 1_555
Al11 Al23 2.992422 1_555
Al11 Y0 3.140022 1_555
Al11 Y4 3.193276 1_545
Al11 Y5 3.193304 1_555
Al12 Re1 2.600289 1_656
Al12 Rh3 2.660558 1_556
Al12 Rh4 2.660558 1_656
Al12 Al20 2.742287 1_556
Al12 Al3 2.792878 1_555
Al12 Al4 2.792878 1_555
Al12 Al16 2.891419 1_656
Al12 Al17 2.891419 1_546
Al12 Al23 2.992403 1_655
Al12 Y1 3.140024 1_556
Al12 Y5 3.193280 1_655
Al12 Y3 3.193280 1_545
Al13 Re1 2.600311 1_666
Al13 Rh4 2.660536 1_656
Al13 Rh5 2.660558 1_556
Al13 Al20 2.742273 1_556
Al13 Al4 2.792864 1_555
Al13 Al5 2.792872 1_555
Al13 Al15 2.891419 1_656
Al13 Al17 2.891458 1_556
Al13 Al23 2.992422 1_665
Al13 Y2 3.140022 1_556
Al13 Y4 3.193276 1_655
Al13 Y3 3.193304 1_555
Al14 Re1 2.600311 1_556
Al14 Rh3 2.660536 1_556
Al14 Rh5 2.660558 1_556
Al14 Al20 2.742273 1_556
Al14 Al3 2.792864 1_555
Al14 Al5 2.792872 1_555
Al14 Al15 2.891419 1_546
Al14 Al16 2.891458 1_556
Al14 Al23 2.992422 1_555
Al14 Y0 3.140022 1_556
Al14 Y4 3.193276 1_545
Al14 Y5 3.193304 1_555
Al15 Re1 2.600289 1_565
Al15 Rh3 2.660558 1_565
Al15 Rh4 2.660558 1_555
Al15 Al21 2.742287 1_554
Al15 Al22 2.992403 1_565
Al15 Y4 3.140024 1_554
Al15 Y2 3.193280 1_455
Al15 Y0 3.193280 1_565
Al16 Re1 2.600311 1_555
Al16 Rh4 2.660536 1_555
Al16 Rh5 2.660558 1_555
Al16 Al21 2.742273 1_554
Al16 Al2 2.792872 1_555
Al16 Al22 2.992422 1_555
Al16 Y5 3.140022 1_554
Al16 Y1 3.193276 1_455
Al16 Y0 3.193304 1_555
Al17 Re1 2.600311 1_665
Al17 Rh3 2.660536 1_565
Al17 Rh5 2.660558 1_555
Al17 Al21 2.742273 1_554
Al17 Al2 2.792872 1_555
Al17 Al22 2.992422 1_665
Al17 Y3 3.140022 1_554
Al17 Y1 3.193276 1_565
Al17 Y2 3.193304 1_555
Al18 Rh1 2.545396 1_555
Al18 Rh0 2.545396 1_565
Al18 Rh2 2.545404 1_555
Al18 Al8 2.742273 1_555
Al18 Al7 2.742273 1_555
Al18 Al6 2.742287 1_555
Al18 Al2 3.029293 1_555
Al18 Y3 3.063664 1_555
Al18 Y5 3.063664 1_555
Al18 Y4 3.063664 1_555
Al19 Rh1 2.545396 1_655
Al19 Rh0 2.545396 1_555
Al19 Rh2 2.545404 1_555
Al19 Al9 2.742287 1_555
Al19 Al4 3.029293 1_555
Al19 Al3 3.029293 1_555
Al19 Al5 3.029293 1_555
Al19 Y0 3.063664 1_555
Al19 Y2 3.063664 1_555
Al19 Y1 3.063664 1_555
Al20 Rh4 2.545396 1_655
Al20 Rh3 2.545396 1_555
Al20 Rh5 2.545404 1_555
Al20 Al4 3.029293 1_554
Al20 Al3 3.029293 1_554
Al20 Al5 3.029293 1_554
Al20 Y0 3.063664 1_555
Al20 Y2 3.063664 1_555
Al20 Y1 3.063664 1_555
Al21 Rh4 2.545396 1_556
Al21 Rh3 2.545396 1_566
Al21 Rh5 2.545404 1_556
Al21 Y3 3.063664 1_555
Al21 Y5 3.063664 1_555
Al21 Y4 3.063664 1_555
Al22 Re0 2.381055 1_555
Al22 Re1 2.381055 1_555
Al22 Y1 2.921085 1_455
Al22 Y0 2.921092 1_555
Al22 Y2 2.921092 1_445
Al22 Al6 2.992403 1_545
Al22 Al8 2.992422 1_445
Al22 Al7 2.992422 1_555
Al23 Re0 2.381055 1_555
Al23 Re1 2.381055 1_556
Al23 Y4 2.921085 1_545
Al23 Y3 2.921092 1_445
Al23 Y5 2.921092 1_555
Al23 Al9 2.992403 1_455
