# generated using pymatgen
data_Y6CrB14Os
_symmetry_space_group_name_H-M   'P 1'
_cell_length_a   8.07930454
_cell_length_b   8.07930183
_cell_length_c   9.34585148
_cell_angle_alpha   90.00000000
_cell_angle_beta   90.00000000
_cell_angle_gamma   155.02951250
_symmetry_Int_Tables_number   1
_chemical_formula_structural   Y6CrB14Os
_chemical_formula_sum   'Y6 Cr1 B14 Os1'
_cell_volume   257.53419065
_cell_formula_units_Z   1
loop_
 _symmetry_equiv_pos_site_id
 _symmetry_equiv_pos_as_xyz
  1  'x, y, z'
loop_
 _atom_site_type_symbol
 _atom_site_label
 _atom_site_symmetry_multiplicity
 _atom_site_fract_x
 _atom_site_fract_y
 _atom_site_fract_z
 _atom_site_occupancy
  Y  Y0  1  0.89456263  0.10543737  0.94033382  1
  Y  Y1  1  0.10549769  0.89450231  0.06082882  1
  Y  Y2  1  0.75808850  0.24191150  0.25000000  1
  Y  Y3  1  0.24361158  0.75638842  0.75000000  1
  Y  Y4  1  0.89456263  0.10543737  0.55966618  1
  Y  Y5  1  0.10549769  0.89450231  0.43917118  1
  Cr  Cr0  1  0.94648520  0.05351480  0.25000000  1
  B  B0  1  0.54142092  0.45857908  0.25000000  1
  B  B1  1  0.45775225  0.54224775  0.75000000  1
  B  B2  1  0.52072607  0.47927393  0.90373199  1
  B  B3  1  0.47906765  0.52093235  0.09665445  1
  B  B4  1  0.47906765  0.52093235  0.40334555  1
  B  B5  1  0.52072607  0.47927393  0.59626801  1
  B  B6  1  0.63115816  0.36884184  0.84960254  1
  B  B7  1  0.36910763  0.63089237  0.15145547  1
  B  B8  1  0.72662782  0.27337218  0.96531601  1
  B  B9  1  0.27234021  0.72765979  0.03436247  1
  B  B10  1  0.27234021  0.72765979  0.46563753  1
  B  B11  1  0.72662782  0.27337218  0.53468399  1
  B  B12  1  0.63115816  0.36884184  0.65039746  1
  B  B13  1  0.36910763  0.63089237  0.34854453  1
  Os  Os0  1  0.05446684  0.94553316  0.75000000  1
loop_
_geom_bond_atom_site_label_1
_geom_bond_atom_site_label_2
_geom_bond_distance
_geom_bond_site_symmetry_2
B0 B4 1.738275 1_555
B0 B3 1.738275 1_555
B0 Cr0 2.300878 1_565
B0 Cr0 2.300880 1_455
B0 Y5 2.682986 1_545
B0 Y1 2.682986 1_545
B0 Y5 2.682988 1_655
B0 Y1 2.682988 1_655
B1 B2 1.746803 1_555
B1 B5 1.746803 1_555
B1 Os0 2.319245 1_545
B1 Os0 2.319246 1_655
B1 Y0 2.684931 1_565
B1 Y4 2.684931 1_565
B1 Y0 2.684932 1_455
B1 Y4 2.684932 1_455
B2 B6 1.814190 1_555
B2 B3 1.919073 1_556
B2 Os0 2.323447 1_545
B2 Os0 2.323448 1_655
B2 Y1 2.644813 1_546
B2 Y1 2.644815 1_656
B2 Y0 2.670122 1_565
B2 Y0 2.670124 1_455
B3 B7 1.808806 1_555
B3 Cr0 2.317093 1_565
B3 Cr0 2.317094 1_455
B3 Y0 2.638665 1_564
B3 Y0 2.638667 1_454
B3 Y1 2.672340 1_545
B3 Y1 2.672342 1_655
B4 B5 1.919073 1_555
B4 Cr0 2.317093 1_565
B4 Cr0 2.317094 1_455
B4 Y4 2.638665 1_565
B4 Y4 2.638667 1_455
B4 Y5 2.672340 1_545
B4 Y5 2.672342 1_655
B5 Os0 2.323447 1_545
B5 Os0 2.323448 1_655
B5 Y5 2.644813 1_545
B5 Y5 2.644815 1_655
B5 Y4 2.670122 1_565
B5 Y4 2.670124 1_455
B6 B8 1.854206 1_555
B6 Os0 2.319743 1_655
B6 Os0 2.319744 1_545
B6 Y3 2.657969 1_545
B6 Y3 2.657971 1_655
B6 Y1 2.666778 1_656
B6 Y1 2.666778 1_546
B7 B9 1.878357 1_555
B7 Cr0 2.321467 1_455
B7 Cr0 2.321469 1_565
B7 Y2 2.639453 1_565
B7 Y2 2.639455 1_455
B7 Y0 2.665563 1_454
B7 Y0 2.665564 1_564
B8 B9 1.996821 1_546
B8 B9 1.996822 1_656
B8 Y0 2.659688 1_555
B8 Y3 2.678055 1_545
B8 Y3 2.678055 1_655
B8 Y2 2.706514 1_556
B8 Y1 2.738531 1_656
B8 Y1 2.738533 1_546
B9 Y1 2.643785 1_555
B9 Y2 2.676348 1_565
B9 Y2 2.676348 1_455
B9 Y3 2.695981 1_554
B9 Y0 2.746114 1_454
B9 Y0 2.746115 1_564
B10 B13 1.878357 1_555
B10 B11 1.996821 1_565
B10 B11 1.996822 1_455
B10 Y5 2.643785 1_555
B10 Y2 2.676348 1_565
B10 Y2 2.676348 1_455
B10 Y3 2.695981 1_555
B10 Y4 2.746114 1_455
B10 Y4 2.746115 1_565
B11 B12 1.854206 1_555
B11 Y4 2.659688 1_555
B11 Y3 2.678055 1_545
B11 Y3 2.678055 1_655
B11 Y2 2.706514 1_555
B11 Y5 2.738531 1_655
B11 Y5 2.738533 1_545
B12 B5 1.814190 1_555
B12 B6 1.861741 1_555
B12 Os0 2.319743 1_655
B12 Os0 2.319744 1_545
B12 Y3 2.657969 1_545
B12 Y3 2.657971 1_655
B12 Y5 2.666778 1_655
B12 Y5 2.666778 1_545
B13 B4 1.808806 1_555
B13 B7 1.841965 1_555
B13 Cr0 2.321467 1_455
B13 Cr0 2.321469 1_565
B13 Y2 2.639453 1_565
B13 Y2 2.639455 1_455
B13 Y4 2.665563 1_455
B13 Y4 2.665564 1_565
