# generated using pymatgen
data_Al2V(Ni10B3)2
_symmetry_space_group_name_H-M   'P 1'
_cell_length_a   7.34120225
_cell_length_b   7.34120222
_cell_length_c   7.34120177
_cell_angle_alpha   59.99999761
_cell_angle_beta   59.99999777
_cell_angle_gamma   59.99999580
_symmetry_Int_Tables_number   1
_chemical_formula_structural   Al2V(Ni10B3)2
_chemical_formula_sum   'Al2 V1 Ni20 B6'
_cell_volume   279.76057407
_cell_formula_units_Z   1
loop_
 _symmetry_equiv_pos_site_id
 _symmetry_equiv_pos_as_xyz
  1  'x, y, z'
loop_
 _atom_site_type_symbol
 _atom_site_label
 _atom_site_symmetry_multiplicity
 _atom_site_fract_x
 _atom_site_fract_y
 _atom_site_fract_z
 _atom_site_occupancy
  Al  Al0  1  0.75000000  0.75000000  0.75000000  1
  Al  Al1  1  0.25000000  0.25000000  0.25000000  1
  V  V0  1  0.00000000  0.00000000  0.00000000  1
  Ni  Ni0  1  0.61753336  0.61753336  0.14739893  1
  Ni  Ni1  1  0.61753336  0.14739893  0.61753336  1
  Ni  Ni2  1  0.14739893  0.61753336  0.61753336  1
  Ni  Ni3  1  0.61753336  0.61753336  0.61753336  1
  Ni  Ni4  1  0.38246664  0.38246664  0.85260107  1
  Ni  Ni5  1  0.38246664  0.85260107  0.38246664  1
  Ni  Ni6  1  0.85260107  0.38246664  0.38246664  1
  Ni  Ni7  1  0.38246664  0.38246664  0.38246664  1
  Ni  Ni8  1  0.00000000  0.00000000  0.33815369  1
  Ni  Ni9  1  0.66184631  1.00000000  0.33815369  1
  Ni  Ni10  1  1.00000000  0.66184631  0.33815369  1
  Ni  Ni11  1  0.66184631  0.33815369  0.00000000  1
  Ni  Ni12  1  0.00000000  0.33815369  1.00000000  1
  Ni  Ni13  1  0.00000000  0.33815369  0.66184631  1
  Ni  Ni14  1  0.33815369  0.66184631  1.00000000  1
  Ni  Ni15  1  0.33815369  0.00000000  0.66184631  1
  Ni  Ni16  1  0.33815369  0.00000000  1.00000000  1
  Ni  Ni17  1  1.00000000  1.00000000  0.66184631  1
  Ni  Ni18  1  1.00000000  0.66184631  0.00000000  1
  Ni  Ni19  1  0.66184631  1.00000000  0.00000000  1
  B  B0  1  0.72739736  0.72739736  0.27260264  1
  B  B1  1  0.27260264  0.72739736  0.27260264  1
  B  B2  1  0.72739736  0.27260264  0.27260264  1
  B  B3  1  0.27260264  0.27260264  0.72739736  1
  B  B4  1  0.72739736  0.27260264  0.72739736  1
  B  B5  1  0.27260264  0.72739736  0.72739736  1
loop_
_geom_bond_atom_site_label_1
_geom_bond_atom_site_label_2
_geom_bond_distance
_geom_bond_site_symmetry_2
Al0 Ni0 2.382035 1_556
Al0 Ni1 2.382036 1_565
Al0 Ni2 2.382036 1_655
Al0 Ni3 2.382042 1_555
Al1 Ni4 2.382035 1_554
Al1 Ni5 2.382036 1_545
Al1 Ni6 2.382036 1_455
Al1 Ni7 2.382042 1_555
Ni8 V0 2.482454 1_555
Ni9 V0 2.482454 1_665
Ni10 V0 2.482454 1_665
Ni11 V0 2.482454 1_655
Ni12 V0 2.482455 1_556
Ni13 V0 2.482454 1_556
Ni14 V0 2.482454 1_566
Ni15 V0 2.482454 1_556
Ni16 V0 2.482455 1_556
Ni17 V0 2.482454 1_666
Ni18 V0 2.482455 1_665
Ni19 V0 2.482455 1_665
B0 Ni19 2.058276 1_555
B0 Ni18 2.058276 1_555
B0 Ni9 2.058276 1_555
B0 Ni10 2.058276 1_555
B0 Ni3 2.068559 1_555
B0 Ni6 2.068560 1_555
B0 Ni5 2.068560 1_555
B0 Ni0 2.068566 1_555
B1 Ni8 2.058276 1_565
B1 Ni14 2.058276 1_554
B1 Ni16 2.058276 1_564
B1 Ni10 2.058276 1_455
B1 Ni7 2.068559 1_555
B1 Ni2 2.068560 1_555
B1 Ni0 2.068560 1_555
B1 Ni5 2.068566 1_555
B2 Ni8 2.058276 1_655
B2 Ni11 2.058276 1_555
B2 Ni12 2.058276 1_654
B2 Ni9 2.058276 1_545
B2 Ni7 2.068559 1_555
B2 Ni1 2.068560 1_555
B2 Ni0 2.068560 1_555
B2 Ni6 2.068566 1_555
B3 Ni16 2.058276 1_555
B3 Ni12 2.058276 1_555
B3 Ni15 2.058276 1_555
B3 Ni13 2.058276 1_555
B3 Ni7 2.068559 1_555
B3 Ni2 2.068560 1_555
B3 Ni1 2.068560 1_555
B3 Ni4 2.068566 1_555
B4 Ni17 2.058276 1_545
B4 Ni11 2.058276 1_556
B4 Ni19 2.058276 1_546
B4 Ni13 2.058276 1_655
B4 Ni3 2.068559 1_555
B4 Ni6 2.068560 1_555
B4 Ni4 2.068560 1_555
B4 Ni1 2.068566 1_555
B5 Ni17 2.058276 1_455
B5 Ni14 2.058276 1_555
B5 Ni18 2.058276 1_456
B5 Ni15 2.058276 1_565
B5 Ni3 2.068559 1_555
B5 Ni5 2.068560 1_555
B5 Ni4 2.068560 1_555
B5 Ni2 2.068566 1_555
