# generated using pymatgen
data_Hf5ZrBI12
_symmetry_space_group_name_H-M   'P 1'
_cell_length_a   9.19398712
_cell_length_b   9.15280887
_cell_length_c   9.24737804
_cell_angle_alpha   107.12410662
_cell_angle_beta   106.92269532
_cell_angle_gamma   106.84441463
_symmetry_Int_Tables_number   1
_chemical_formula_structural   Hf5ZrBI12
_chemical_formula_sum   'Hf5 Zr1 B1 I12'
_cell_volume   648.70781869
_cell_formula_units_Z   1
loop_
 _symmetry_equiv_pos_site_id
 _symmetry_equiv_pos_as_xyz
  1  'x, y, z'
loop_
 _atom_site_type_symbol
 _atom_site_label
 _atom_site_symmetry_multiplicity
 _atom_site_fract_x
 _atom_site_fract_y
 _atom_site_fract_z
 _atom_site_occupancy
  Hf  Hf0  1  0.97238913  0.72931447  0.91116636  1
  Hf  Hf1  1  0.26960847  0.08871495  0.02835723  1
  Hf  Hf2  1  0.08661773  0.02761185  0.26657340  1
  Hf  Hf3  1  0.91363866  0.97474446  0.73438573  1
  Hf  Hf4  1  0.73258452  0.91338257  0.97287353  1
  Zr  Zr0  1  0.02763892  0.27333184  0.08908523  1
  B  B0  1  0.00085158  0.99850432  0.99955978  1
  I  I0  1  0.92117266  0.30604204  0.77129914  1
  I  I1  1  0.68828086  0.22269975  0.07727649  1
  I  I2  1  0.43847011  0.13999596  0.36599943  1
  I  I3  1  0.85875507  0.63349249  0.56050650  1
  I  I4  1  0.22465116  0.07726407  0.69706299  1
  I  I5  1  0.63274491  0.55855407  0.85693410  1
  I  I6  1  0.37291490  0.44257623  0.14313277  1
  I  I7  1  0.77496927  0.92077029  0.30234638  1
  I  I8  1  0.14275941  0.36700454  0.44372468  1
  I  I9  1  0.56105807  0.85909982  0.63490146  1
  I  I10  1  0.30496090  0.77426264  0.92242947  1
  I  I11  1  0.07593465  0.69263364  0.22238633  1
loop_
_geom_bond_atom_site_label_1
_geom_bond_atom_site_label_2
_geom_bond_distance
_geom_bond_site_symmetry_2
Hf0 I3 2.863155 1_555
Hf0 I5 2.871176 1_555
Hf0 I11 2.908768 1_656
Hf0 I10 2.930823 1_655
Hf0 I0 3.541316 1_555
Hf1 I6 2.850363 1_555
Hf1 I2 2.876122 1_555
Hf1 I10 2.901040 1_544
Hf1 I4 2.935322 1_554
Hf1 I1 3.528348 1_555
Hf2 I2 2.855040 1_555
Hf2 I8 2.860334 1_555
Hf2 I7 2.897249 1_445
Hf2 I11 2.939603 1_545
Hf2 I4 3.650192 1_555
Hf3 I9 2.859500 1_555
Hf3 I3 2.872717 1_555
Hf3 I4 2.895907 1_665
Hf3 I0 2.927652 1_565
Hf3 I7 3.652224 1_555
Hf4 I5 2.861533 1_555
Hf4 I9 2.874689 1_555
Hf4 I1 2.898435 1_566
Hf4 I7 2.934518 1_556
Hf4 I10 3.602416 1_555
B0 Hf0 2.263399 1_455
B0 Hf3 2.267947 1_455
B0 Hf2 2.268694 1_566
B0 Hf1 2.272287 1_566
B0 Hf4 2.273767 1_455
B0 Zr0 2.317201 1_566
I0 Zr0 2.949069 1_656
I1 Zr0 2.982499 1_655
I6 Zr0 2.914985 1_555
I8 Zr0 2.899643 1_555
I11 Zr0 3.514707 1_555
