# generated using pymatgen
data_Ti8MnSiBi4
_symmetry_space_group_name_H-M   'P 1'
_cell_length_a   7.85978027
_cell_length_b   7.85978112
_cell_length_c   7.85978031
_cell_angle_alpha   95.72462512
_cell_angle_beta   95.72462658
_cell_angle_gamma   143.17836366
_symmetry_Int_Tables_number   1
_chemical_formula_structural   Ti8MnSiBi4
_chemical_formula_sum   'Ti8 Mn1 Si1 Bi4'
_cell_volume   276.10643510
_cell_formula_units_Z   1
loop_
 _symmetry_equiv_pos_site_id
 _symmetry_equiv_pos_as_xyz
  1  'x, y, z'
loop_
 _atom_site_type_symbol
 _atom_site_label
 _atom_site_symmetry_multiplicity
 _atom_site_fract_x
 _atom_site_fract_y
 _atom_site_fract_z
 _atom_site_occupancy
  Ti  Ti0  1  0.69705085  0.58150309  0.27717453  1
  Ti  Ti1  1  0.30432857  0.41987632  0.72282547  1
  Ti  Ti2  1  0.58150309  0.30432857  0.88445224  1
  Ti  Ti3  1  0.08012368  0.19567143  0.27717453  1
  Ti  Ti4  1  0.80294915  0.08012368  0.88445224  1
  Ti  Ti5  1  0.41987632  0.69705085  0.11554776  1
  Ti  Ti6  1  0.91849691  0.80294915  0.72282547  1
  Ti  Ti7  1  0.19567143  0.91849691  0.11554776  1
  Mn  Mn0  1  0.75000000  0.75000000  0.00000000  1
  Si  Si0  1  0.25000000  0.25000000  0.00000000  1
  Bi  Bi0  1  0.14097178  0.64097178  0.78194455  1
  Bi  Bi1  1  0.35902822  0.14097178  0.50000000  1
  Bi  Bi2  1  0.85902822  0.35902822  0.21805545  1
  Bi  Bi3  1  0.64097178  0.85902822  0.50000000  1
loop_
_geom_bond_atom_site_label_1
_geom_bond_atom_site_label_2
_geom_bond_distance
_geom_bond_site_symmetry_2
Mn0 Si0 2.482340 1_555
Mn0 Si0 2.482340 1_665
Mn0 Ti7 2.558736 1_655
Mn0 Ti5 2.558736 1_555
Mn0 Ti6 2.558736 1_554
Mn0 Ti0 2.558736 1_555
Mn0 Ti1 2.558736 1_554
Mn0 Ti4 2.558736 1_564
Mn0 Ti3 2.558737 1_665
Mn0 Ti2 2.558737 1_554
Si0 Ti4 2.562056 1_454
Si0 Ti2 2.562056 1_554
Si0 Ti3 2.562056 1_555
Si0 Ti1 2.562056 1_554
Si0 Ti0 2.562056 1_555
Si0 Ti7 2.562056 1_545
Si0 Ti6 2.562056 1_444
Si0 Ti5 2.562056 1_555
Bi0 Ti6 2.900750 1_455
Bi0 Ti1 2.900750 1_555
Bi0 Ti5 2.991768 1_556
Bi0 Ti7 2.991769 1_556
Bi0 Ti2 3.080698 1_455
Bi0 Ti4 3.080703 1_565
Bi0 Ti4 3.086212 1_455
Bi0 Ti2 3.086216 1_565
Bi1 Ti2 2.900749 1_555
Bi1 Ti7 2.900749 1_545
Bi1 Ti3 2.991775 1_555
Bi1 Ti1 2.991775 1_555
Bi1 Ti0 3.080703 1_445
Bi1 Ti6 3.080703 1_555
Bi1 Ti6 3.086216 1_445
Bi1 Ti0 3.086216 1_555
Bi2 Ti3 2.900750 1_655
Bi2 Ti0 2.900750 1_555
Bi2 Ti2 2.991768 1_554
Bi2 Ti4 2.991769 1_554
Bi2 Ti7 3.080699 1_655
Bi2 Ti5 3.080703 1_545
Bi2 Ti5 3.086212 1_655
Bi2 Ti7 3.086216 1_545
Bi3 Ti5 2.900749 1_555
Bi3 Ti4 2.900749 1_565
Bi3 Ti6 2.991775 1_555
Bi3 Ti0 2.991775 1_555
Bi3 Ti3 3.080702 1_665
Bi3 Ti1 3.080703 1_555
Bi3 Ti1 3.086216 1_665
Bi3 Ti3 3.086216 1_555
