# generated using pymatgen
data_HoCo3
_symmetry_space_group_name_H-M   'P 1'
_cell_length_a   8.49687652
_cell_length_b   8.49687652
_cell_length_c   8.49687635
_cell_angle_alpha   34.17321435
_cell_angle_beta   34.17321435
_cell_angle_gamma   34.17321586
_symmetry_Int_Tables_number   1
_chemical_formula_structural   HoCo3
_chemical_formula_sum   'Ho3 Co9'
_cell_volume   172.57110922
_cell_formula_units_Z   3
loop_
 _symmetry_equiv_pos_site_id
 _symmetry_equiv_pos_as_xyz
  1  'x, y, z'
loop_
 _atom_site_type_symbol
 _atom_site_label
 _atom_site_symmetry_multiplicity
 _atom_site_fract_x
 _atom_site_fract_y
 _atom_site_fract_z
 _atom_site_occupancy
  Ho  Ho0  1  -0.00000000  -0.00000000  -0.00000000  1
  Ho  Ho1  1  0.85806153  0.85806153  0.85806153  1
  Ho  Ho2  1  0.14193847  0.14193847  0.14193847  1
  Co  Co0  1  0.50000000  0.50000000  0.50000000  1
  Co  Co1  1  0.67160622  0.67160622  0.67160622  1
  Co  Co2  1  0.32839378  0.32839378  0.32839378  1
  Co  Co3  1  0.42517791  0.90756062  0.42517791  1
  Co  Co4  1  0.42517791  0.42517791  0.90756062  1
  Co  Co5  1  0.90756062  0.42517791  0.42517791  1
  Co  Co6  1  0.57482209  0.09243938  0.57482209  1
  Co  Co7  1  0.57482209  0.57482209  0.09243938  1
  Co  Co8  1  0.09243938  0.57482209  0.57482209  1
loop_
_geom_bond_atom_site_label_1
_geom_bond_atom_site_label_2
_geom_bond_distance
_geom_bond_site_symmetry_2
Co0 Co7 2.486669 1_555
Co0 Co4 2.486669 1_555
Co0 Co8 2.486669 1_555
Co0 Co6 2.486669 1_555
Co0 Co3 2.486669 1_555
Co0 Co5 2.486669 1_555
Co0 Ho2 2.943090 1_556
Co0 Ho1 2.943090 1_554
Co0 Ho2 2.943090 1_565
Co0 Ho2 2.943090 1_655
Co0 Ho1 2.943090 1_545
Co0 Ho1 2.943090 1_455
Co1 Co7 2.350795 1_556
Co1 Co8 2.350795 1_655
Co1 Co6 2.350795 1_565
Co1 Co5 2.479953 1_555
Co1 Co3 2.479953 1_555
Co1 Co4 2.479953 1_555
Co1 Ho0 2.885172 1_665
Co1 Ho0 2.885172 1_656
Co1 Ho0 2.885172 1_566
Co2 Co4 2.350795 1_554
Co2 Co3 2.350795 1_545
Co2 Co5 2.350795 1_455
Co2 Co8 2.479953 1_555
Co2 Co6 2.479953 1_555
Co2 Co7 2.479953 1_555
Co2 Ho0 2.885172 1_556
Co2 Ho0 2.885172 1_655
Co2 Ho0 2.885172 1_565
Co3 Co4 2.408562 1_555
Co3 Co5 2.408562 1_555
Co3 Co4 2.584490 1_564
Co3 Co5 2.584490 1_465
Co3 Ho1 2.896872 1_554
Co3 Ho1 2.896872 1_455
Co3 Ho2 3.045105 1_565
Co3 Ho0 3.158998 1_566
Co3 Ho0 3.158998 1_665
Co4 Co5 2.408562 1_555
Co4 Co5 2.584490 1_456
Co4 Ho1 2.896873 1_455
Co4 Ho1 2.896873 1_545
Co4 Ho2 3.045105 1_556
Co4 Ho0 3.158998 1_656
Co4 Ho0 3.158998 1_566
Co5 Ho1 2.896872 1_554
Co5 Ho1 2.896872 1_545
Co5 Ho2 3.045105 1_655
Co5 Ho0 3.158998 1_656
Co5 Ho0 3.158998 1_665
Co6 Co7 2.408562 1_555
Co6 Co8 2.408562 1_555
Co6 Co7 2.584490 1_546
Co6 Co8 2.584490 1_645
Co6 Ho2 2.896872 1_556
Co6 Ho2 2.896872 1_655
Co6 Ho1 3.045105 1_545
Co6 Ho0 3.158998 1_655
Co6 Ho0 3.158998 1_556
Co7 Co8 2.408562 1_555
Co7 Co8 2.584490 1_654
Co7 Ho2 2.896873 1_565
Co7 Ho2 2.896873 1_655
Co7 Ho1 3.045105 1_554
Co7 Ho0 3.158998 1_565
Co7 Ho0 3.158998 1_655
Co8 Ho2 2.896872 1_556
Co8 Ho2 2.896872 1_565
Co8 Ho1 3.045105 1_455
Co8 Ho0 3.158998 1_565
Co8 Ho0 3.158998 1_556
