# generated using pymatgen
data_TaAlI8
_symmetry_space_group_name_H-M   'P 1'
_cell_length_a   10.95564826
_cell_length_b   10.95564810
_cell_length_c   9.61860780
_cell_angle_alpha   90.00000000
_cell_angle_beta   90.00000000
_cell_angle_gamma   129.37642317
_symmetry_Int_Tables_number   1
_chemical_formula_structural   TaAlI8
_chemical_formula_sum   'Ta2 Al2 I16'
_cell_volume   892.41093887
_cell_formula_units_Z   2
loop_
 _symmetry_equiv_pos_site_id
 _symmetry_equiv_pos_as_xyz
  1  'x, y, z'
loop_
 _atom_site_type_symbol
 _atom_site_label
 _atom_site_symmetry_multiplicity
 _atom_site_fract_x
 _atom_site_fract_y
 _atom_site_fract_z
 _atom_site_occupancy
  Ta  Ta0  1  0.61064238  0.38935762  0.25000000  1
  Ta  Ta1  1  0.38935762  0.61064238  0.75000000  1
  Al  Al0  1  0.81378398  0.18621602  0.25000000  1
  Al  Al1  1  0.18621602  0.81378398  0.75000000  1
  I  I0  1  0.51690824  0.06006823  0.25000000  1
  I  I1  1  0.06006823  0.51690824  0.75000000  1
  I  I2  1  0.48309176  0.93993177  0.75000000  1
  I  I3  1  0.93993177  0.48309176  0.25000000  1
  I  I4  1  0.63084538  0.36915462  0.97269561  1
  I  I5  1  0.36915462  0.63084538  0.02730439  1
  I  I6  1  0.63084538  0.36915462  0.52730439  1
  I  I7  1  0.36915462  0.63084538  0.47269561  1
  I  I8  1  0.31115823  0.25857132  0.25000000  1
  I  I9  1  0.25857132  0.31115823  0.75000000  1
  I  I10  1  0.68884177  0.74142868  0.75000000  1
  I  I11  1  0.74142868  0.68884177  0.25000000  1
  I  I12  1  0.88361963  0.11638037  0.46697415  1
  I  I13  1  0.11638037  0.88361963  0.53302585  1
  I  I14  1  0.88361963  0.11638037  0.03302585  1
  I  I15  1  0.11638037  0.88361963  0.96697415  1
loop_
_geom_bond_atom_site_label_1
_geom_bond_atom_site_label_2
_geom_bond_distance
_geom_bond_site_symmetry_2
Al0 I12 2.503796 1_555
Al0 I14 2.503796 1_555
Al0 I3 2.604835 1_555
Al0 I0 2.604835 1_555
Al1 I15 2.503796 1_555
Al1 I13 2.503796 1_555
Al1 I1 2.604835 1_555
Al1 I2 2.604835 1_555
I0 Ta0 3.060814 1_555
I1 Ta1 3.060814 1_555
I2 Ta1 3.060814 1_555
I3 Ta0 3.060814 1_555
I4 Ta0 2.697134 1_556
I5 Ta1 2.697134 1_554
I6 Ta0 2.697134 1_555
I7 Ta1 2.697134 1_555
I8 Ta0 2.617871 1_555
I9 Ta1 2.617871 1_555
I10 Ta1 2.617871 1_555
I11 Ta0 2.617871 1_555
