# generated using pymatgen
data_Lu(NbSe2)3
_symmetry_space_group_name_H-M   'P 1'
_cell_length_a   6.09276251
_cell_length_b   6.09276183
_cell_length_c   13.94116429
_cell_angle_alpha   90.00000000
_cell_angle_beta   90.00000000
_cell_angle_gamma   120.00001452
_symmetry_Int_Tables_number   1
_chemical_formula_structural   Lu(NbSe2)3
_chemical_formula_sum   'Lu2 Nb6 Se12'
_cell_volume   448.18577103
_cell_formula_units_Z   2
loop_
 _symmetry_equiv_pos_site_id
 _symmetry_equiv_pos_as_xyz
  1  'x, y, z'
loop_
 _atom_site_type_symbol
 _atom_site_label
 _atom_site_symmetry_multiplicity
 _atom_site_fract_x
 _atom_site_fract_y
 _atom_site_fract_z
 _atom_site_occupancy
  Lu  Lu0  1  0.00000000  0.00000000  0.00000000  1
  Lu  Lu1  1  0.00000000  0.00000000  0.50000000  1
  Nb  Nb0  1  0.33333300  0.66666700  0.25000000  1
  Nb  Nb1  1  0.00000000  0.00000000  0.25000000  1
  Nb  Nb2  1  0.00000000  0.00000000  0.75000000  1
  Nb  Nb3  1  0.33333300  0.66666700  0.75000000  1
  Nb  Nb4  1  0.66666700  0.33333300  0.75000000  1
  Nb  Nb5  1  0.66666700  0.33333300  0.25000000  1
  Se  Se0  1  0.00000000  0.66105627  0.63026339  1
  Se  Se1  1  0.00000000  0.66105627  0.86973661  1
  Se  Se2  1  1.00000000  0.33894373  0.13026339  1
  Se  Se3  1  1.00000000  0.33894373  0.36973661  1
  Se  Se4  1  0.33894373  0.33894373  0.63026339  1
  Se  Se5  1  0.33894373  0.33894373  0.86973661  1
  Se  Se6  1  0.66105627  0.66105627  0.13026339  1
  Se  Se7  1  0.66105627  0.66105627  0.36973661  1
  Se  Se8  1  0.33894373  1.00000000  0.13026339  1
  Se  Se9  1  0.33894373  1.00000000  0.36973661  1
  Se  Se10  1  0.66105627  0.00000000  0.63026339  1
  Se  Se11  1  0.66105627  0.00000000  0.86973661  1
loop_
_geom_bond_atom_site_label_1
_geom_bond_atom_site_label_2
_geom_bond_distance
_geom_bond_site_symmetry_2
Lu0 Se6 2.750017 1_445
Lu0 Se5 2.750017 1_554
Lu0 Se2 2.750017 1_455
Lu0 Se1 2.750017 1_544
Lu0 Se8 2.750017 1_545
Lu0 Se11 2.750017 1_454
Lu1 Se4 2.750017 1_555
Lu1 Se7 2.750017 1_445
Lu1 Se0 2.750017 1_545
Lu1 Se3 2.750017 1_455
Lu1 Se10 2.750017 1_455
Lu1 Se9 2.750017 1_545
Nb0 Se9 2.615880 1_555
Nb0 Se8 2.615880 1_555
Nb0 Se3 2.615882 1_455
Nb0 Se2 2.615882 1_455
Nb0 Se7 2.615885 1_555
Nb0 Se6 2.615885 1_555
Nb1 Se7 2.655392 1_445
Nb1 Se6 2.655392 1_445
Nb1 Se3 2.655392 1_455
Nb1 Se2 2.655392 1_455
Nb1 Se9 2.655392 1_545
Nb1 Se8 2.655392 1_545
Nb2 Se5 2.655392 1_555
Nb2 Se4 2.655392 1_555
Nb2 Se1 2.655392 1_545
Nb2 Se0 2.655392 1_545
Nb2 Se11 2.655392 1_455
Nb2 Se10 2.655392 1_455
Nb3 Se1 2.615880 1_555
Nb3 Se0 2.615880 1_555
Nb3 Se11 2.615882 1_565
Nb3 Se10 2.615882 1_565
Nb3 Se5 2.615884 1_555
Nb3 Se4 2.615884 1_555
Nb4 Se11 2.615880 1_555
Nb4 Se10 2.615880 1_555
Nb4 Se1 2.615882 1_655
Nb4 Se0 2.615882 1_655
Nb4 Se5 2.615885 1_555
Nb4 Se4 2.615885 1_555
Nb5 Se3 2.615880 1_555
Nb5 Se2 2.615880 1_555
Nb5 Se9 2.615882 1_545
Nb5 Se8 2.615882 1_545
Nb5 Se7 2.615884 1_555
Nb5 Se6 2.615884 1_555
