# generated using pymatgen
data_Rb2Ba2IrO6
_symmetry_space_group_name_H-M   'P 1'
_cell_length_a   7.31048587
_cell_length_b   7.31048684
_cell_length_c   7.43857475
_cell_angle_alpha   92.85972914
_cell_angle_beta   92.85976042
_cell_angle_gamma   88.08607896
_symmetry_Int_Tables_number   1
_chemical_formula_structural   Rb2Ba2IrO6
_chemical_formula_sum   'Rb4 Ba4 Ir2 O12'
_cell_volume   396.36136671
_cell_formula_units_Z   2
loop_
 _symmetry_equiv_pos_site_id
 _symmetry_equiv_pos_as_xyz
  1  'x, y, z'
loop_
 _atom_site_type_symbol
 _atom_site_label
 _atom_site_symmetry_multiplicity
 _atom_site_fract_x
 _atom_site_fract_y
 _atom_site_fract_z
 _atom_site_occupancy
  Rb  Rb0  1  0.74004939  0.25995061  0.00000000  1
  Rb  Rb1  1  0.25257093  0.74742807  0.50000100  1
  Rb  Rb2  1  0.74989839  0.60439564  0.35731738  1
  Rb  Rb3  1  0.39560336  0.25010261  0.64267862  1
  Ba  Ba0  1  0.10828717  0.89171283  0.00000000  1
  Ba  Ba1  1  0.61225267  0.74607080  0.86337044  1
  Ba  Ba2  1  0.88681650  0.11318350  0.49999900  1
  Ba  Ba3  1  0.25393120  0.38774833  0.13663156  1
  Ir  Ir0  1  0.49823385  0.99584253  0.24905426  1
  Ir  Ir1  1  0.00415747  0.50176715  0.75094874  1
  O  O0  1  0.56742321  0.24672442  0.31028425  1
  O  O1  1  0.42974489  0.06217513  0.99841924  1
  O  O2  1  0.75113213  0.93775434  0.17403514  1
  O  O3  1  0.25703844  0.57706689  0.82265041  1
  O  O4  1  0.93868708  0.75979345  0.69074610  1
  O  O5  1  0.06977944  0.43208990  0.50566659  1
  O  O6  1  0.42293311  0.74296056  0.17734959  1
  O  O7  1  0.56790910  0.93022056  0.49433141  1
  O  O8  1  0.24020655  0.06131292  0.30925390  1
  O  O9  1  0.75327458  0.43257679  0.68971575  1
  O  O10  1  0.06224566  0.24886787  0.82596486  1
  O  O11  1  0.93782487  0.57025511  0.00158076  1
loop_
_geom_bond_atom_site_label_1
_geom_bond_atom_site_label_2
_geom_bond_distance
_geom_bond_site_symmetry_2
Ba0 O1 2.697304 1_564
Ba0 O11 2.697304 1_455
Ba0 O4 2.707968 1_454
Ba0 O8 2.707968 1_565
Ba0 O3 2.808410 1_554
Ba0 O6 2.808411 1_555
Ba0 O10 2.973467 1_564
Ba0 O2 2.973467 1_455
Ba1 O9 2.768289 1_555
Ba1 O4 2.772799 1_555
Ba1 O6 2.775031 1_556
Ba1 O1 2.797430 1_565
Ba1 O2 2.805797 1_556
Ba1 O11 2.838510 1_556
Ba1 O3 2.908608 1_555
Ba1 O7 3.115111 1_555
Ba2 O5 2.723768 1_655
Ba2 O7 2.723774 1_545
Ba2 O2 2.835937 1_545
Ba2 O10 2.835949 1_655
Ba2 O0 2.837753 1_555
Ba2 O9 2.837763 1_555
Ba2 O8 3.012949 1_655
Ba2 O4 3.012956 1_545
Ba3 O0 2.768275 1_555
Ba3 O8 2.772798 1_555
Ba3 O3 2.775038 1_554
Ba3 O11 2.797442 1_455
Ba3 O10 2.805818 1_554
Ba3 O1 2.838516 1_554
Ba3 O6 2.908588 1_555
Ba3 O5 3.115092 1_555
Ir0 O0 1.944922 1_565
Ir0 O7 1.948516 1_555
Ir0 O2 1.984109 1_555
Ir0 O1 1.985586 1_564
Ir0 O6 1.986321 1_555
Ir0 O8 1.997584 1_565
Ir1 O9 1.944935 1_455
Ir1 O5 1.948554 1_555
Ir1 O10 1.984109 1_555
Ir1 O11 1.985564 1_456
Ir1 O3 1.986307 1_555
Ir1 O4 1.997583 1_455
O0 Rb0 2.692621 1_555
O0 Rb3 2.827287 1_555
O0 Rb2 2.972199 1_555
O1 Rb0 2.729704 1_556
O1 Rb3 3.037445 1_555
O2 Rb0 2.740711 1_565
O2 Rb2 2.851682 1_555
O3 Rb1 2.756830 1_555
O3 Rb3 2.861119 1_555
O4 Rb1 2.754084 1_655
O4 Rb2 2.971351 1_555
O5 Rb1 2.706074 1_555
O5 Rb2 2.820883 1_455
O5 Rb3 2.857220 1_555
O6 Rb1 2.756847 1_555
O6 Rb2 2.861110 1_555
O7 Rb1 2.706080 1_555
O7 Rb3 2.820884 1_565
O7 Rb2 2.857239 1_555
O8 Rb1 2.754098 1_545
O8 Rb3 2.971329 1_555
O9 Rb0 2.692619 1_556
O9 Rb2 2.827310 1_555
O9 Rb3 2.972197 1_555
O10 Rb0 2.740711 1_456
O10 Rb3 2.851692 1_555
O11 Rb0 2.729705 1_555
O11 Rb2 3.037416 1_555
