# generated using pymatgen
data_La5S8
_symmetry_space_group_name_H-M   'P 1'
_cell_length_a   7.57566242
_cell_length_b   7.57566242
_cell_length_c   7.57566242
_cell_angle_alpha   109.43112094
_cell_angle_beta   109.43112094
_cell_angle_gamma   109.55144983
_symmetry_Int_Tables_number   1
_chemical_formula_structural   La5S8
_chemical_formula_sum   'La5 S8'
_cell_volume   334.68736102
_cell_formula_units_Z   1
loop_
 _symmetry_equiv_pos_site_id
 _symmetry_equiv_pos_as_xyz
  1  'x, y, z'
loop_
 _atom_site_type_symbol
 _atom_site_label
 _atom_site_symmetry_multiplicity
 _atom_site_fract_x
 _atom_site_fract_y
 _atom_site_fract_z
 _atom_site_occupancy
  La  La0  1  0.63087400  0.01523100  0.88011700  1
  La  La1  1  0.50000000  0.50000000  0.00000000  1
  La  La2  1  0.13511400  0.75075700  0.11988300  1
  La  La3  1  0.24924300  0.36912600  0.38435700  1
  La  La4  1  0.98476900  0.86488600  0.61564300  1
  S  S0  1  0.88184200  0.48297500  0.23764000  1
  S  S1  1  0.87220300  0.95769500  0.23106400  1
  S  S2  1  0.35886100  0.12779700  0.08549200  1
  S  S3  1  0.72663100  0.64113900  0.76893600  1
  S  S4  1  0.51702500  0.75466600  0.39886800  1
  S  S5  1  0.24533400  0.64420200  0.76236000  1
  S  S6  1  0.35579800  0.11815800  0.60113200  1
  S  S7  1  0.04230500  0.27336900  0.91450800  1
loop_
_geom_bond_atom_site_label_1
_geom_bond_atom_site_label_2
_geom_bond_distance
_geom_bond_site_symmetry_2
La0 S5 2.886236 1_545
La0 S7 2.940763 1_655
La0 S6 2.944670 1_555
La0 S1 2.944695 1_546
La0 S0 3.030815 1_556
La0 S3 3.075959 1_545
La0 S2 3.133822 1_556
La0 S4 3.148368 1_545
La1 S0 2.926547 1_555
La1 S5 2.926551 1_554
La1 S6 2.926551 1_554
La1 S4 2.926555 1_555
La1 S3 3.028406 1_554
La1 S1 3.028406 1_555
La1 S2 3.028406 1_555
La1 S7 3.028406 1_554
La2 S0 2.886231 1_455
La2 S2 2.940763 1_565
La2 S4 2.944664 1_555
La2 S3 2.944695 1_454
La2 S5 3.030810 1_554
La2 S1 3.075959 1_455
La2 S7 3.133822 1_554
La2 S6 3.148370 1_565
La3 S4 2.886233 1_555
La3 S1 2.940763 1_445
La3 S5 2.944670 1_555
La3 S2 2.944695 1_555
La3 S6 3.030810 1_555
La3 S7 3.075959 1_554
La3 S3 3.133822 1_555
La3 S0 3.148376 1_455
La4 S6 2.886236 1_665
La4 S3 2.940763 1_555
La4 S0 2.944666 1_555
La4 S7 2.944695 1_665
La4 S4 3.030817 1_555
La4 S2 3.075959 1_666
La4 S1 3.133822 1_555
La4 S5 3.148370 1_655
