# generated using pymatgen
data_Y4Ni3B16Ru13
_symmetry_space_group_name_H-M   'P 1'
_cell_length_a   7.39294611
_cell_length_b   7.44137332
_cell_length_c   9.06832480
_cell_angle_alpha   114.67876226
_cell_angle_beta   113.86332118
_cell_angle_gamma   89.67173759
_symmetry_Int_Tables_number   1
_chemical_formula_structural   Y4Ni3B16Ru13
_chemical_formula_sum   'Y4 Ni3 B16 Ru13'
_cell_volume   406.49087191
_cell_formula_units_Z   1
loop_
 _symmetry_equiv_pos_site_id
 _symmetry_equiv_pos_as_xyz
  1  'x, y, z'
loop_
 _atom_site_type_symbol
 _atom_site_label
 _atom_site_symmetry_multiplicity
 _atom_site_fract_x
 _atom_site_fract_y
 _atom_site_fract_z
 _atom_site_occupancy
  Y  Y0  1  0.50284771  0.00161237  0.00117247  1
  Y  Y1  1  0.00190167  0.49463137  0.00187009  1
  Y  Y2  1  0.24746747  0.24972693  0.49499007  1
  Y  Y3  1  0.74659069  0.74588726  0.49193762  1
  Ni  Ni0  1  0.95037281  0.21235659  0.12369646  1
  Ni  Ni1  1  0.44903151  0.40418881  0.12561197  1
  Ni  Ni2  1  0.67715896  0.72020734  0.12622303  1
  B  B0  1  0.24924467  0.21744800  0.15998257  1
  B  B1  1  0.74946108  0.43458432  0.15995677  1
  B  B2  1  0.41451329  0.72519381  0.16524887  1
  B  B3  1  0.91006298  0.93452284  0.16072400  1
  B  B4  1  0.83305201  0.02028966  0.33492546  1
  B  B5  1  0.50181129  0.31001254  0.33522767  1
  B  B6  1  0.00298415  0.52067064  0.33374218  1
  B  B7  1  0.33483313  0.81504558  0.33850290  1
  B  B8  1  0.68915027  0.17090302  0.66687172  1
  B  B9  1  0.97877842  0.49633105  0.66280520  1
  B  B10  1  0.47372264  0.66593101  0.66255238  1
  B  B11  1  0.18538524  0.99795705  0.66322255  1
  B  B12  1  0.77549802  0.08419806  0.83455177  1
  B  B13  1  0.27653034  0.25333769  0.84137526  1
  B  B14  1  0.56189024  0.59192555  0.84111187  1
  B  B15  1  0.05537301  0.75131139  0.83441243  1
  Ru  Ru0  1  0.17102037  0.91177658  0.12185124  1
  Ru  Ru1  1  0.57370179  0.04095367  0.37631646  1
  Ru  Ru2  1  0.80342039  0.33080260  0.36906785  1
  Ru  Ru3  1  0.30692859  0.53938580  0.37097051  1
  Ru  Ru4  1  0.06653441  0.83006189  0.37128796  1
  Ru  Ru5  1  0.96135239  0.19893623  0.62475656  1
  Ru  Ru6  1  0.66553415  0.43029388  0.62439976  1
  Ru  Ru7  1  0.16517591  0.69502074  0.62358743  1
  Ru  Ru8  1  0.45792934  0.93050839  0.62659940  1
  Ru  Ru9  1  0.08429106  0.05311492  0.87808667  1
  Ru  Ru10  1  0.58548583  0.33368488  0.88590155  1
  Ru  Ru11  1  0.30142657  0.55789067  0.88934766  1
  Ru  Ru12  1  0.78953661  0.82930086  0.87711662  1
loop_
_geom_bond_atom_site_label_1
_geom_bond_atom_site_label_2
_geom_bond_distance
_geom_bond_site_symmetry_2
Ni0 Y1 2.839943 1_655
Ni0 Y2 3.078922 1_655
Ni0 Y0 3.204727 1_555
Ni1 Y0 2.816506 1_555
Ni1 Y3 3.072097 1_555
Ni1 Y1 3.200479 1_555
Ni2 Y0 2.846275 1_565
Ni2 Y3 3.064826 1_555
Ni2 Y1 3.227515 1_655
B0 B5 1.784984 1_555
B0 Ni0 2.096204 1_455
B0 Ru9 2.098015 1_554
B0 Ru0 2.196441 1_545
B0 Ni1 2.228768 1_555
B0 Ru3 2.259580 1_555
B0 Y0 2.896102 1_555
B0 Y2 2.951263 1_555
B0 Y1 3.155793 1_555
B1 B6 1.785412 1_655
B1 Ru10 2.055293 1_554
B1 Ni1 2.113881 1_555
B1 Ru2 2.226831 1_555
B1 Ni0 2.227541 1_555
B1 Ni2 2.300948 1_555
B1 Y1 2.906379 1_655
B1 Y3 2.942343 1_555
B1 Y0 3.138027 1_555
B2 B7 1.769065 1_555
B2 Ru11 2.055990 1_554
B2 Ni2 2.107399 1_555
B2 Ru1 2.241226 1_565
B2 Ru0 2.275420 1_555
B2 Ni1 2.291406 1_555
B2 Y3 2.926783 1_555
B2 Y1 2.953694 1_555
B2 Y0 3.198216 1_565
B3 B4 1.763123 1_565
B3 Ru0 2.090835 1_655
B3 Ru12 2.119820 1_554
B3 Ni2 2.187456 1_555
B3 Ru4 2.242858 1_655
B3 Ni0 2.267972 1_565
B3 Y0 2.909899 1_565
B3 Y2 2.987323 1_665
B3 Y1 3.174818 1_655
B4 Ru1 2.090821 1_555
B4 Ni2 2.152223 1_545
B4 Ru5 2.157421 1_555
B4 Ru2 2.221394 1_555
B4 Ru4 2.234566 1_645
B4 Y2 2.966602 1_655
B4 Y0 2.968741 1_555
B4 Y3 3.128028 1_545
B5 Ru2 2.121482 1_555
B5 Ru6 2.151037 1_555
B5 Ni1 2.183071 1_555
B5 Ru1 2.209193 1_555
B5 Ru3 2.232009 1_555
B5 Y2 2.931299 1_555
B5 Y0 2.942227 1_555
B5 Y3 3.154688 1_555
B6 Ru3 2.129110 1_555
B6 Ru7 2.156319 1_555
B6 Ni0 2.191950 1_455
B6 Ru4 2.205811 1_555
B6 Ru2 2.249399 1_455
B6 Y1 2.930599 1_555
B6 Y3 2.935254 1_455
B6 Y2 3.122787 1_555
B7 Ru4 2.117093 1_555
B7 Ru8 2.145375 1_555
B7 Ru3 2.212545 1_555
B7 Ru0 2.256216 1_555
B7 Ru1 2.263805 1_565
B7 Y3 2.936043 1_555
B7 Y1 2.995307 1_555
B7 Y2 3.127034 1_565
B8 Ru6 2.113557 1_555
B8 Ru1 2.160606 1_555
B8 Ru5 2.220859 1_555
B8 Ru10 2.282904 1_555
B8 Ru8 2.289074 1_545
B8 Y1 2.940646 1_656
B8 Y3 3.006587 1_545
B8 Y2 3.171656 1_555
B9 Ru5 2.088732 1_555
B9 Ru2 2.185771 1_555
B9 Ru6 2.223341 1_555
B9 Ru7 2.251764 1_655
B9 Ru11 2.319862 1_655
B9 Y3 3.001719 1_555
B9 Y1 3.015068 1_656
B9 Y2 3.114687 1_655
B10 B14 1.799059 1_555
B10 Ru8 2.121030 1_555
B10 Ru3 2.166749 1_555
B10 Ru7 2.186562 1_555
B10 Ru6 2.251018 1_555
B10 Ru12 2.257569 1_555
B10 Y2 2.961755 1_555
B10 Y0 2.963314 1_566
B10 Y3 3.182000 1_555
B11 B13 1.801554 1_565
B11 Ru7 2.125328 1_555
B11 Ru4 2.170245 1_555
B11 Ru8 2.193787 1_555
B11 Ru9 2.242868 1_565
B11 Ru5 2.245303 1_465
B11 Y2 3.001881 1_565
B11 Y0 3.002089 1_566
B11 Y3 3.164539 1_455
B12 B8 1.779074 1_555
B12 Ru12 2.081891 1_545
B12 Ni0 2.153901 1_556
B12 Ru9 2.182185 1_655
B12 Ru8 2.241360 1_545
B12 Ru10 2.326867 1_555
B12 Y1 2.926737 1_656
B12 Y3 2.995638 1_545
B12 Y0 3.158731 1_556
B13 Ni1 2.114429 1_556
B13 Ru11 2.115635 1_555
B13 Ru10 2.192127 1_555
B13 Ru5 2.257271 1_455
B13 Ru9 2.274174 1_555
B13 Y0 2.945704 1_556
B13 Y2 3.049118 1_555
B13 Y1 3.103436 1_556
B14 Ru10 2.116320 1_555
B14 Ni2 2.118438 1_556
B14 Ru11 2.177842 1_555
B14 Ru6 2.264910 1_555
B14 Ru12 2.273110 1_555
B14 Y0 2.897188 1_566
B14 Y2 3.038021 1_555
B14 Y1 3.201353 1_656
B15 B9 1.782171 1_455
B15 Ru9 2.107264 1_565
B15 Ru0 2.135543 1_556
B15 Ru12 2.182724 1_455
B15 Ru7 2.252242 1_555
B15 Ru11 2.337589 1_555
B15 Y3 3.003015 1_455
B15 Y1 3.004509 1_556
B15 Y0 3.220362 1_566
Ru0 Y1 2.916529 1_555
Ru0 Y2 3.075133 1_565
Ru0 Y0 3.234887 1_565
Ru1 Y3 2.891382 1_545
Ru1 Y0 3.108290 1_555
Ru1 Y2 3.170118 1_555
Ru2 Y3 2.906654 1_555
Ru2 Y0 3.050948 1_555
Ru2 Y2 3.156632 1_655
Ru3 Y2 2.922201 1_555
Ru3 Y1 3.061049 1_555
Ru3 Y3 3.145533 1_555
Ru4 Y2 2.951009 1_565
Ru4 Y1 3.068720 1_555
Ru4 Y3 3.141224 1_455
Ru5 Y2 2.897652 1_655
Ru5 Y1 3.085590 1_656
Ru5 Y3 3.234269 1_545
Ru6 Y2 2.920862 1_555
Ru6 Y1 3.144524 1_656
Ru6 Y3 3.204909 1_555
Ru7 Y3 2.918846 1_455
Ru7 Y0 3.128416 1_566
Ru7 Y2 3.167663 1_555
Ru8 Y3 2.933746 1_555
Ru8 Y0 3.084910 1_566
Ru8 Y2 3.210999 1_565
Ru9 Y0 2.918374 1_556
Ru9 Y1 3.142618 1_556
Ru9 Y3 3.166766 1_445
Ru10 Y1 2.896328 1_656
Ru10 Y2 3.194115 1_555
Ru10 Y0 3.203617 1_556
Ru11 Y1 2.899567 1_556
Ru11 Y0 3.191669 1_566
Ru11 Y2 3.196056 1_555
Ru12 Y0 2.845241 1_566
Ru12 Y3 3.159287 1_555
Ru12 Y1 3.289020 1_656
