# generated using pymatgen
data_Rb3YSb2
_symmetry_space_group_name_H-M   'P 1'
_cell_length_a   10.20419789
_cell_length_b   10.20419859
_cell_length_c   10.20419786
_cell_angle_alpha   128.66876438
_cell_angle_beta   70.01028302
_cell_angle_gamma   135.81017272
_symmetry_Int_Tables_number   1
_chemical_formula_structural   Rb3YSb2
_chemical_formula_sum   'Rb6 Y2 Sb4'
_cell_volume   567.14254355
_cell_formula_units_Z   2
loop_
 _symmetry_equiv_pos_site_id
 _symmetry_equiv_pos_as_xyz
  1  'x, y, z'
loop_
 _atom_site_type_symbol
 _atom_site_label
 _atom_site_symmetry_multiplicity
 _atom_site_fract_x
 _atom_site_fract_y
 _atom_site_fract_z
 _atom_site_occupancy
  Rb  Rb0  1  0.81215508  0.20046114  0.01261722  1
  Rb  Rb1  1  0.68784492  0.70046114  0.38830507  1
  Rb  Rb2  1  0.75000000  0.25000100  0.50000000  1
  Rb  Rb3  1  0.25000100  0.75000100  0.50000000  1
  Rb  Rb4  1  0.31215508  0.29953886  0.61169393  1
  Rb  Rb5  1  0.18784492  0.79953886  0.98738278  1
  Y  Y0  1  0.25000100  0.25000100  0.00000000  1
  Y  Y1  1  0.75000100  0.75000100  0.00000000  1
  Sb  Sb0  1  0.40128156  0.69169214  0.09297370  1
  Sb  Sb1  1  0.09871844  0.19169214  0.29040957  1
  Sb  Sb2  1  0.90128156  0.80830786  0.70959043  1
  Sb  Sb3  1  0.59871744  0.30830786  0.90702630  1
loop_
_geom_bond_atom_site_label_1
_geom_bond_atom_site_label_2
_geom_bond_distance
_geom_bond_site_symmetry_2
Rb0 Sb3 3.693091 1_554
Rb0 Sb2 3.772967 1_544
Rb0 Sb0 4.117973 1_545
Rb0 Sb0 4.117980 1_655
Rb1 Sb2 3.693093 1_555
Rb1 Sb3 3.772958 1_554
Rb1 Sb1 4.117980 1_555
Rb1 Sb1 4.117980 1_665
Rb2 Sb2 3.719267 1_555
Rb2 Sb0 3.719279 1_545
Rb2 Sb3 3.719281 1_555
Rb2 Sb1 3.719284 1_655
Rb3 Sb3 3.719271 1_565
Rb3 Sb0 3.719274 1_555
Rb3 Sb1 3.719279 1_555
Rb3 Sb2 3.719283 1_455
Rb4 Sb1 3.693084 1_555
Rb4 Sb0 3.772966 1_556
Rb4 Sb2 4.117979 1_555
Rb4 Sb2 4.117987 1_445
Rb5 Sb0 3.693082 1_556
Rb5 Sb1 3.772967 1_566
Rb5 Sb3 4.117973 1_565
Rb5 Sb3 4.117987 1_455
Sb0 Y0 3.045861 1_555
Sb0 Y1 3.045870 1_555
Sb1 Y1 3.045856 1_445
Sb1 Y0 3.045861 1_555
Sb2 Y1 3.045851 1_556
Sb2 Y0 3.045866 1_666
Sb3 Y0 3.045851 1_556
Sb3 Y1 3.045866 1_556
