# generated using pymatgen
data_Ca6Mn2HN6
_symmetry_space_group_name_H-M   'P 1'
_cell_length_a   5.97434574
_cell_length_b   5.97434579
_cell_length_c   5.97434541
_cell_angle_alpha   96.65245580
_cell_angle_beta   96.65245435
_cell_angle_gamma   96.65245739
_symmetry_Int_Tables_number   1
_chemical_formula_structural   Ca6Mn2HN6
_chemical_formula_sum   'Ca6 Mn2 H1 N6'
_cell_volume   208.56569429
_cell_formula_units_Z   1
loop_
 _symmetry_equiv_pos_site_id
 _symmetry_equiv_pos_as_xyz
  1  'x, y, z'
loop_
 _atom_site_type_symbol
 _atom_site_label
 _atom_site_symmetry_multiplicity
 _atom_site_fract_x
 _atom_site_fract_y
 _atom_site_fract_z
 _atom_site_occupancy
  Ca  Ca0  1  0.62741860  0.10709783  0.78739228  1
  Ca  Ca1  1  0.10709783  0.78739228  0.62741860  1
  Ca  Ca2  1  0.78739228  0.62741860  0.10709783  1
  Ca  Ca3  1  0.37258140  0.89290217  0.21260772  1
  Ca  Ca4  1  0.89290217  0.21260772  0.37258140  1
  Ca  Ca5  1  0.21260772  0.37258140  0.89290217  1
  Mn  Mn0  1  0.61556245  0.61556245  0.61556245  1
  Mn  Mn1  1  0.38443755  0.38443755  0.38443755  1
  H  H0  1  0.00000000  0.00000000  0.00000000  1
  N  N0  1  0.72228283  0.84442268  0.47014778  1
  N  N1  1  0.84442268  0.47014778  0.72228283  1
  N  N2  1  0.47014778  0.72228283  0.84442268  1
  N  N3  1  0.27771717  0.15557732  0.52985222  1
  N  N4  1  0.15557732  0.52985222  0.27771717  1
  N  N5  1  0.52985222  0.27771717  0.15557732  1
loop_
_geom_bond_atom_site_label_1
_geom_bond_atom_site_label_2
_geom_bond_distance
_geom_bond_site_symmetry_2
Ca0 N2 2.457555 1_545
Ca0 N5 2.476404 1_556
Ca0 N0 2.478312 1_545
Ca0 N1 2.489461 1_555
Ca0 N3 2.512937 1_555
Ca0 H0 2.615484 1_656
Ca1 N0 2.457555 1_455
Ca1 N3 2.476404 1_565
Ca1 N1 2.478312 1_455
Ca1 N2 2.489461 1_555
Ca1 N4 2.512937 1_555
Ca1 H0 2.615484 1_566
Ca2 N1 2.457555 1_554
Ca2 N4 2.476404 1_655
Ca2 N2 2.478312 1_554
Ca2 N0 2.489461 1_555
Ca2 N5 2.512937 1_555
Ca2 H0 2.615484 1_665
Ca3 N5 2.457555 1_565
Ca3 N2 2.476404 1_554
Ca3 N3 2.478312 1_565
Ca3 N4 2.489461 1_555
Ca3 N0 2.512937 1_555
Ca3 H0 2.615484 1_565
Ca4 N3 2.457555 1_655
Ca4 N0 2.476404 1_545
Ca4 N4 2.478312 1_655
Ca4 N5 2.489461 1_555
Ca4 N1 2.512937 1_555
Ca4 H0 2.615484 1_655
Ca5 N4 2.457555 1_556
Ca5 N1 2.476404 1_455
Ca5 N5 2.478312 1_556
Ca5 N3 2.489461 1_555
Ca5 N2 2.512937 1_555
Ca5 H0 2.615484 1_556
Mn0 N2 1.797861 1_555
Mn0 N0 1.797861 1_555
Mn0 N1 1.797862 1_555
Mn1 N5 1.797861 1_555
Mn1 N3 1.797861 1_555
Mn1 N4 1.797862 1_555
