# generated using pymatgen
data_Rb4TaTiBr12
_symmetry_space_group_name_H-M   'P 1'
_cell_length_a   7.42602031
_cell_length_b   7.42602031
_cell_length_c   10.93733167
_cell_angle_alpha   90.00000000
_cell_angle_beta   90.00000000
_cell_angle_gamma   90.00000000
_symmetry_Int_Tables_number   1
_chemical_formula_structural   Rb4TaTiBr12
_chemical_formula_sum   'Rb4 Ta1 Ti1 Br12'
_cell_volume   603.14766022
_cell_formula_units_Z   1
loop_
 _symmetry_equiv_pos_site_id
 _symmetry_equiv_pos_as_xyz
  1  'x, y, z'
loop_
 _atom_site_type_symbol
 _atom_site_label
 _atom_site_symmetry_multiplicity
 _atom_site_fract_x
 _atom_site_fract_y
 _atom_site_fract_z
 _atom_site_occupancy
  Rb  Rb0  1  0.50000000  0.00000000  0.77446545  1
  Rb  Rb1  1  0.50000000  0.00000000  0.22553455  1
  Rb  Rb2  1  0.00000000  0.50000000  0.22553455  1
  Rb  Rb3  1  0.00000000  0.50000000  0.77446545  1
  Ta  Ta0  1  0.50000000  0.50000000  0.50000000  1
  Ti  Ti0  1  0.00000000  0.00000000  0.00000000  1
  Br  Br0  1  0.76253631  0.24709605  0.00000000  1
  Br  Br1  1  0.23746369  0.75290395  0.00000000  1
  Br  Br2  1  0.50000000  0.50000000  0.26585899  1
  Br  Br3  1  0.31215393  0.21399450  0.50000000  1
  Br  Br4  1  0.24709605  0.23746369  0.00000000  1
  Br  Br5  1  0.78600550  0.31215393  0.50000000  1
  Br  Br6  1  0.00000000  0.00000000  0.23473791  1
  Br  Br7  1  0.68784607  0.78600550  0.50000000  1
  Br  Br8  1  0.21399450  0.68784607  0.50000000  1
  Br  Br9  1  0.50000000  0.50000000  0.73414101  1
  Br  Br10  1  0.75290395  0.76253631  0.00000000  1
  Br  Br11  1  0.00000000  0.00000000  0.76526209  1
loop_
_geom_bond_atom_site_label_1
_geom_bond_atom_site_label_2
_geom_bond_distance
_geom_bond_site_symmetry_2
Br0 Ti0 2.544921 1_655
Br0 Rb2 3.566735 1_655
Br0 Rb3 3.566735 1_654
Br0 Rb1 3.640437 1_555
Br0 Rb0 3.640437 1_554
Br1 Ti0 2.544921 1_565
Br1 Rb2 3.566735 1_555
Br1 Rb3 3.566735 1_554
Br1 Rb1 3.640437 1_565
Br1 Rb0 3.640437 1_564
Br2 Ta0 2.560878 1_555
Br2 Rb1 3.739112 1_555
Br2 Rb2 3.739112 1_655
Br2 Rb2 3.739112 1_555
Br2 Rb1 3.739112 1_565
Br3 Ta0 2.541015 1_555
Br3 Rb0 3.671884 1_555
Br3 Rb1 3.671884 1_555
Br4 Ti0 2.544921 1_555
Br4 Rb1 3.566735 1_555
Br4 Rb0 3.566735 1_554
Br4 Rb2 3.640437 1_555
Br4 Rb3 3.640437 1_554
Br5 Ta0 2.541015 1_555
Br5 Rb3 3.671884 1_655
Br5 Rb2 3.671884 1_655
Br6 Ti0 2.567406 1_555
Br6 Rb2 3.714374 1_545
Br6 Rb2 3.714374 1_555
Br6 Rb1 3.714374 1_455
Br6 Rb1 3.714374 1_555
Br7 Ta0 2.541015 1_555
Br7 Rb0 3.671884 1_565
Br7 Rb1 3.671884 1_565
Br8 Ta0 2.541015 1_555
Br8 Rb3 3.671884 1_555
Br8 Rb2 3.671884 1_555
Br9 Ta0 2.560878 1_555
Br9 Rb0 3.739112 1_565
Br9 Rb3 3.739112 1_555
Br9 Rb3 3.739112 1_655
Br9 Rb0 3.739112 1_555
Br10 Ti0 2.544921 1_665
Br10 Rb1 3.566735 1_565
Br10 Rb0 3.566735 1_564
Br10 Rb2 3.640437 1_655
Br10 Rb3 3.640437 1_654
Br11 Ti0 2.567406 1_556
Br11 Rb3 3.714374 1_545
Br11 Rb3 3.714374 1_555
Br11 Rb0 3.714374 1_455
Br11 Rb0 3.714374 1_555
