# generated using pymatgen
data_ScNb5Al16Ir7
_symmetry_space_group_name_H-M   'P 1'
_cell_length_a   8.56578330
_cell_length_b   8.56578372
_cell_length_c   8.57674660
_cell_angle_alpha   59.95765399
_cell_angle_beta   59.95765238
_cell_angle_gamma   60.08469645
_symmetry_Int_Tables_number   1
_chemical_formula_structural   ScNb5Al16Ir7
_chemical_formula_sum   'Sc1 Nb5 Al16 Ir7'
_cell_volume   444.97985887
_cell_formula_units_Z   1
loop_
 _symmetry_equiv_pos_site_id
 _symmetry_equiv_pos_as_xyz
  1  'x, y, z'
loop_
 _atom_site_type_symbol
 _atom_site_label
 _atom_site_symmetry_multiplicity
 _atom_site_fract_x
 _atom_site_fract_y
 _atom_site_fract_z
 _atom_site_occupancy
  Sc  Sc0  1  0.18892140  0.18892140  0.81107860  1
  Nb  Nb0  1  0.18100129  0.81609908  0.81899871  1
  Nb  Nb1  1  0.81609908  0.18100129  0.18390092  1
  Nb  Nb2  1  0.81609908  0.18100129  0.81899871  1
  Nb  Nb3  1  0.82399421  0.82399421  0.17600579  1
  Nb  Nb4  1  0.18100129  0.81609908  0.18390092  1
  Al  Al0  1  0.83725767  0.83725767  0.83738106  1
  Al  Al1  1  0.83725767  0.83725767  0.48810360  1
  Al  Al2  1  0.48309831  0.83762798  0.83963686  1
  Al  Al3  1  0.83762798  0.48309831  0.83963686  1
  Al  Al4  1  0.16036314  0.16036314  0.16237202  1
  Al  Al5  1  0.16036314  0.16036314  0.51690169  1
  Al  Al6  1  0.16261894  0.51189640  0.16274233  1
  Al  Al7  1  0.51189640  0.16261894  0.16274233  1
  Al  Al8  1  0.61969086  0.61969086  0.61995634  1
  Al  Al9  1  0.61969086  0.61969086  0.14066095  1
  Al  Al10  1  0.13949674  0.62282383  0.61883922  1
  Al  Al11  1  0.62282383  0.13949674  0.61883922  1
  Al  Al12  1  0.38116078  0.38116078  0.37717617  1
  Al  Al13  1  0.38116078  0.38116078  0.86050326  1
  Al  Al14  1  0.38004366  0.85933905  0.38030914  1
  Al  Al15  1  0.85933905  0.38004366  0.38030914  1
  Ir  Ir0  1  0.49969457  0.49969457  0.50030543  1
  Ir  Ir1  1  0.99893371  0.50159358  0.49840642  1
  Ir  Ir2  1  0.50159358  0.99893371  0.00106629  1
  Ir  Ir3  1  0.50159358  0.99893371  0.49840642  1
  Ir  Ir4  1  0.49912185  0.49912185  0.00087815  1
  Ir  Ir5  1  0.99893371  0.50159358  0.00106629  1
  Ir  Ir6  1  0.99912185  0.99912185  0.50087815  1
loop_
_geom_bond_atom_site_label_1
_geom_bond_atom_site_label_2
_geom_bond_distance
_geom_bond_site_symmetry_2
Nb0 Nb3 3.058966 1_456
Nb0 Nb4 3.129674 1_556
Nb0 Nb2 3.129674 1_465
Nb0 Sc0 3.194062 1_565
Nb1 Nb3 3.058966 1_545
Nb1 Nb2 3.129674 1_554
Nb1 Nb4 3.129674 1_645
Nb1 Sc0 3.194062 1_654
Nb2 Nb3 3.058966 1_546
Nb2 Sc0 3.194062 1_655
Nb3 Nb4 3.058966 1_655
Nb4 Sc0 3.194062 1_564
Al0 Ir6 2.465437 1_555
Al0 Ir2 2.467614 1_556
Al0 Ir5 2.467614 1_556
Al0 Al10 2.726701 1_655
Al0 Al11 2.726701 1_565
Al0 Al9 2.732924 1_556
Al0 Nb0 2.785481 1_655
Al0 Nb2 2.785481 1_565
Al0 Nb3 2.795151 1_556
Al0 Al1 2.995664 1_555
Al0 Al2 3.022437 1_555
Al0 Al3 3.022437 1_555
Al1 Ir6 2.465437 1_555
Al1 Ir3 2.467614 1_555
Al1 Ir1 2.467614 1_555
Al1 Al10 2.726696 1_655
Al1 Al11 2.726696 1_565
Al1 Al8 2.732926 1_555
Al1 Nb4 2.785481 1_655
Al1 Nb1 2.785481 1_565
Al1 Nb3 2.795151 1_555
Al1 Al2 3.022437 1_555
Al1 Al3 3.022437 1_555
Al2 Ir4 2.473238 1_556
Al2 Ir2 2.490907 1_556
Al2 Ir3 2.490907 1_555
Al2 Al9 2.745865 1_556
Al2 Al8 2.745872 1_555
Al2 Nb4 2.780074 1_556
Al2 Nb0 2.780074 1_555
Al2 Sc0 2.789498 1_565
Al2 Al3 3.040711 1_555
Al3 Ir4 2.473237 1_556
Al3 Ir1 2.490907 1_555
Al3 Ir5 2.490907 1_556
Al3 Al9 2.745865 1_556
Al3 Al8 2.745872 1_555
Al3 Nb2 2.780074 1_555
Al3 Nb1 2.780074 1_556
Al3 Sc0 2.789498 1_655
Al4 Ir6 2.473237 1_445
Al4 Ir2 2.490907 1_545
Al4 Ir5 2.490907 1_455
Al4 Nb1 2.780074 1_455
Al4 Nb4 2.780074 1_545
Al4 Sc0 2.789498 1_554
Al4 Al7 3.022437 1_555
Al4 Al6 3.022437 1_555
Al4 Al5 3.040711 1_555
Al5 Ir6 2.473237 1_445
Al5 Ir3 2.490907 1_545
Al5 Ir1 2.490907 1_455
Al5 Nb2 2.780074 1_455
Al5 Nb0 2.780074 1_545
Al5 Sc0 2.789498 1_555
Al5 Al7 3.022437 1_555
Al5 Al6 3.022437 1_555
Al6 Ir4 2.465437 1_555
Al6 Ir1 2.467614 1_455
Al6 Ir5 2.467614 1_455
Al6 Nb4 2.785481 1_555
Al6 Nb0 2.785481 1_554
Al6 Nb3 2.795151 1_455
Al6 Al7 2.995664 1_555
Al7 Ir4 2.465438 1_555
Al7 Ir2 2.467614 1_545
Al7 Ir3 2.467614 1_545
Al7 Nb1 2.785481 1_555
Al7 Nb2 2.785481 1_554
Al7 Nb3 2.795151 1_545
Al8 Ir0 2.516392 1_555
Al8 Ir1 2.655227 1_555
Al8 Ir3 2.655227 1_555
Al8 Ir4 2.667200 1_556
Al8 Nb0 3.164182 1_555
Al8 Nb2 3.164182 1_555
Al8 Nb3 3.214666 1_555
Al9 Ir0 2.516399 1_555
Al9 Ir5 2.655226 1_555
Al9 Ir2 2.655227 1_555
Al9 Ir4 2.667193 1_555
Al9 Nb4 3.164180 1_555
Al9 Nb1 3.164180 1_555
Al9 Nb3 3.214672 1_555
Al10 Ir0 2.520432 1_555
Al10 Ir6 2.635524 1_455
Al10 Ir1 2.676064 1_455
Al10 Ir5 2.676071 1_456
Al10 Al3 2.760289 1_455
Al10 Al14 2.885878 1_555
Al10 Al12 2.931216 1_555
Al10 Al13 2.931228 1_555
Al10 Sc0 3.115322 1_555
Al10 Nb4 3.139787 1_555
Al10 Nb0 3.139794 1_555
Al11 Ir0 2.520432 1_555
Al11 Ir6 2.635524 1_545
Al11 Ir3 2.676064 1_545
Al11 Ir2 2.676071 1_546
Al11 Al2 2.760289 1_545
Al11 Al15 2.885878 1_555
Al11 Al12 2.931216 1_555
Al11 Al13 2.931228 1_555
Al11 Sc0 3.115322 1_555
Al11 Nb1 3.139787 1_555
Al11 Nb2 3.139794 1_555
Al12 Ir0 2.520425 1_555
Al12 Ir4 2.635524 1_555
Al12 Ir1 2.676071 1_455
Al12 Ir3 2.676072 1_545
Al12 Al6 2.726703 1_555
Al12 Al7 2.726703 1_555
Al12 Al5 2.760296 1_555
Al12 Al9 2.885866 1_555
Al12 Sc0 3.115323 1_555
Al12 Nb1 3.139788 1_555
Al12 Nb4 3.139789 1_555
Al13 Ir0 2.520432 1_555
Al13 Ir4 2.635517 1_556
Al13 Ir5 2.676071 1_456
Al13 Ir2 2.676071 1_546
Al13 Al6 2.726696 1_556
Al13 Al7 2.726696 1_556
Al13 Al4 2.760294 1_556
Al13 Al8 2.885866 1_555
Al13 Sc0 3.115329 1_555
Al13 Nb2 3.139787 1_555
Al13 Nb0 3.139787 1_555
Al14 Ir0 2.516400 1_555
Al14 Ir3 2.655220 1_555
Al14 Ir2 2.655226 1_555
Al14 Ir6 2.667200 1_455
Al14 Al7 2.732919 1_565
Al14 Al5 2.745865 1_565
Al14 Al4 2.745869 1_565
Al14 Al8 2.906765 1_555
Al14 Al9 2.906777 1_555
Al14 Nb0 3.164180 1_555
Al14 Nb4 3.164187 1_555
Al14 Nb3 3.214664 1_555
Al15 Ir0 2.516399 1_555
Al15 Ir1 2.655220 1_555
Al15 Ir5 2.655226 1_555
Al15 Ir6 2.667200 1_545
Al15 Al6 2.732919 1_655
Al15 Al5 2.745865 1_655
Al15 Al4 2.745869 1_655
Al15 Al8 2.906765 1_555
Al15 Al9 2.906777 1_555
Al15 Nb2 3.164180 1_555
Al15 Nb1 3.164187 1_555
Al15 Nb3 3.214665 1_555
Ir1 Nb4 3.109379 1_655
Ir1 Sc0 3.137504 1_655
Ir1 Nb3 3.145345 1_555
Ir1 Nb2 3.157832 1_555
Ir2 Nb2 3.109379 1_564
Ir2 Sc0 3.137504 1_564
Ir2 Nb3 3.145345 1_555
Ir2 Nb4 3.157832 1_555
Ir3 Nb1 3.109379 1_565
Ir3 Sc0 3.137504 1_565
Ir3 Nb3 3.145345 1_555
Ir3 Nb0 3.157832 1_555
Ir4 Nb4 3.141085 1_555
Ir4 Nb0 3.141085 1_554
Ir4 Nb1 3.141085 1_555
Ir4 Nb2 3.141085 1_554
Ir5 Nb0 3.109379 1_654
Ir5 Sc0 3.137504 1_654
Ir5 Nb3 3.145345 1_555
Ir5 Nb1 3.157832 1_555
Ir6 Nb2 3.141085 1_565
Ir6 Nb1 3.141085 1_565
Ir6 Nb0 3.141085 1_655
Ir6 Nb4 3.141085 1_655
