# generated using pymatgen
data_Lu4Ge3P3Ir7
_symmetry_space_group_name_H-M   'P 1'
_cell_length_a   7.06796908
_cell_length_b   7.06796864
_cell_length_c   7.09970607
_cell_angle_alpha   109.56220433
_cell_angle_beta   109.56220306
_cell_angle_gamma   109.38007849
_symmetry_Int_Tables_number   1
_chemical_formula_structural   Lu4Ge3P3Ir7
_chemical_formula_sum   'Lu4 Ge3 P3 Ir7'
_cell_volume   272.72119073
_cell_formula_units_Z   1
loop_
 _symmetry_equiv_pos_site_id
 _symmetry_equiv_pos_as_xyz
  1  'x, y, z'
loop_
 _atom_site_type_symbol
 _atom_site_label
 _atom_site_symmetry_multiplicity
 _atom_site_fract_x
 _atom_site_fract_y
 _atom_site_fract_z
 _atom_site_occupancy
  Lu  Lu0  1  1.00000000  1.00000000  0.46398271  1
  Lu  Lu1  1  0.00000000  0.51601208  0.00177937  1
  Lu  Lu2  1  0.51601208  0.00000000  0.00177937  1
  Lu  Lu3  1  0.48398792  0.48398792  0.48576729  1
  Ge  Ge0  1  0.30198286  0.30198286  0.99047520  1
  Ge  Ge1  1  0.69801714  0.00000000  0.68849234  1
  Ge  Ge2  1  0.00000000  0.69801714  0.68849234  1
  P  P0  1  0.66118568  0.66118568  0.99586972  1
  P  P1  1  0.33881432  1.00000000  0.33468304  1
  P  P2  1  1.00000000  0.33881432  0.33468304  1
  Ir  Ir0  1  0.75051810  0.25115697  0.49783854  1
  Ir  Ir1  1  0.74884303  0.49936213  0.24668157  1
  Ir  Ir2  1  0.50063787  0.24948190  0.74731944  1
  Ir  Ir3  1  0.24948190  0.50063787  0.74731944  1
  Ir  Ir4  1  0.25115697  0.75051810  0.49783854  1
  Ir  Ir5  1  0.49936213  0.74884303  0.24668157  1
  Ir  Ir6  1  0.00000000  0.00000000  0.03031746  1
loop_
_geom_bond_atom_site_label_1
_geom_bond_atom_site_label_2
_geom_bond_distance
_geom_bond_site_symmetry_2
Lu0 P0 2.837173 1_554
Lu0 P2 2.837176 1_565
Lu0 P1 2.837177 1_655
Lu1 P1 2.895104 1_555
Lu1 P0 2.895105 1_454
Lu1 P2 3.022760 1_455
Lu2 P2 2.895104 1_555
Lu2 P0 2.895105 1_544
Lu2 P1 3.022760 1_545
Lu3 P1 2.895104 1_545
Lu3 P2 2.895104 1_455
Lu3 P0 3.022767 1_555
Ge0 Ir3 2.574761 1_555
Ge0 Ir2 2.574761 1_555
Ge0 Ir5 2.599916 1_556
Ge0 Ir1 2.599916 1_556
Ge0 Ir6 2.641317 1_556
Ge0 Lu3 2.918595 1_556
Ge0 Lu2 3.004467 1_556
Ge0 Lu1 3.004467 1_556
Ge0 Lu0 3.061805 1_445
Ge1 Ir0 2.574761 1_555
Ge1 Ir5 2.574762 1_545
Ge1 Ir4 2.599917 1_545
Ge1 Ir2 2.599922 1_555
Ge1 Ir6 2.641317 1_656
Ge1 Lu2 2.918595 1_556
Ge1 Lu3 3.004467 1_545
Ge1 Lu1 3.004467 1_656
Ge1 Lu0 3.061805 1_545
Ge2 Ir4 2.574761 1_555
Ge2 Ir1 2.574762 1_455
Ge2 Ir0 2.599917 1_455
Ge2 Ir3 2.599922 1_555
Ge2 Ir6 2.641317 1_566
Ge2 Lu1 2.918595 1_556
Ge2 Lu3 3.004467 1_455
Ge2 Lu2 3.004467 1_566
Ge2 Lu0 3.061805 1_455
Ir0 P1 2.428606 1_545
Ir0 P2 2.440973 1_555
Ir0 Lu2 2.872907 1_555
Ir0 Lu3 2.882369 1_555
Ir0 Lu0 2.897214 1_545
Ir0 Lu1 2.917852 1_656
Ir1 P2 2.428611 1_555
Ir1 P0 2.440961 1_554
Ir1 Lu1 2.872906 1_655
Ir1 Lu2 2.882375 1_555
Ir1 Lu0 2.897208 1_555
Ir1 Lu3 2.917852 1_555
Ir2 P0 2.428607 1_555
Ir2 P1 2.440969 1_545
Ir2 Lu3 2.872900 1_555
Ir2 Lu1 2.882375 1_656
Ir2 Lu0 2.897208 1_445
Ir2 Lu2 2.917858 1_556
Ir3 P0 2.428607 1_555
Ir3 P2 2.440969 1_455
Ir3 Lu3 2.872900 1_555
Ir3 Lu2 2.882375 1_566
Ir3 Lu0 2.897208 1_445
Ir3 Lu1 2.917858 1_556
Ir4 P2 2.428606 1_455
Ir4 P1 2.440973 1_555
Ir4 Lu1 2.872907 1_555
Ir4 Lu3 2.882369 1_555
Ir4 Lu0 2.897214 1_455
Ir4 Lu2 2.917852 1_566
Ir5 P1 2.428611 1_555
Ir5 P0 2.440961 1_554
Ir5 Lu2 2.872906 1_565
Ir5 Lu1 2.882375 1_555
Ir5 Lu0 2.897208 1_555
Ir5 Lu3 2.917852 1_555
Ir6 P2 2.634178 1_455
Ir6 P1 2.634178 1_545
Ir6 P0 2.634182 1_444
Ir6 Lu0 3.078896 1_445
