# generated using pymatgen
data_Ce(NiGe)2
_symmetry_space_group_name_H-M   'P 1'
_cell_length_a   5.65984952
_cell_length_b   5.65984952
_cell_length_c   5.65984952
_cell_angle_alpha   137.02958203
_cell_angle_beta   137.02958203
_cell_angle_gamma   62.39253814
_symmetry_Int_Tables_number   1
_chemical_formula_structural   Ce(NiGe)2
_chemical_formula_sum   'Ce1 Ni2 Ge2'
_cell_volume   83.21934355
_cell_formula_units_Z   1
loop_
 _symmetry_equiv_pos_site_id
 _symmetry_equiv_pos_as_xyz
  1  'x, y, z'
loop_
 _atom_site_type_symbol
 _atom_site_label
 _atom_site_symmetry_multiplicity
 _atom_site_fract_x
 _atom_site_fract_y
 _atom_site_fract_z
 _atom_site_occupancy
  Ce  Ce0  1  0.00000000  0.00000000  -0.00000000  1
  Ni  Ni0  1  0.25000000  0.75000000  0.50000000  1
  Ni  Ni1  1  0.75000000  0.25000000  0.50000000  1
  Ge  Ge0  1  0.63302577  0.63302577  -0.00000000  1
  Ge  Ge1  1  0.36697423  0.36697423  0.00000000  1
loop_
_geom_bond_atom_site_label_1
_geom_bond_atom_site_label_2
_geom_bond_distance
_geom_bond_site_symmetry_2
Ce0 Ni1 3.187021 1_555
Ce0 Ni0 3.187021 1_444
Ce0 Ni1 3.187021 1_455
Ce0 Ni1 3.187021 1_454
Ce0 Ni0 3.187021 1_555
Ce0 Ni0 3.187021 1_544
Ce0 Ni1 3.187021 1_444
Ce0 Ni0 3.187021 1_545
Ce0 Ge1 3.202129 1_444
Ce0 Ge1 3.202129 1_545
Ce0 Ge1 3.202129 1_455
Ce0 Ge1 3.202129 1_556
Ce0 Ge0 3.202129 1_556
Ce0 Ge0 3.202129 1_545
Ce0 Ge0 3.202129 1_444
Ce0 Ge0 3.202129 1_455
Ge0 Ni1 2.362231 1_554
Ge0 Ni1 2.362231 1_565
Ge0 Ni0 2.362231 1_655
Ge0 Ni0 2.362231 1_554
Ge0 Ge1 2.576137 1_555
Ge1 Ni0 2.362231 1_555
Ge1 Ni1 2.362231 1_555
Ge1 Ni1 2.362231 1_454
Ge1 Ni0 2.362231 1_544
