# generated using pymatgen
data_ZrSbRu
_symmetry_space_group_name_H-M   'P 1'
_cell_length_a   4.46656747
_cell_length_b   4.46656814
_cell_length_c   4.46656665
_cell_angle_alpha   59.99999585
_cell_angle_beta   59.99999093
_cell_angle_gamma   59.99999451
_symmetry_Int_Tables_number   1
_chemical_formula_structural   ZrSbRu
_chemical_formula_sum   'Zr1 Sb1 Ru1'
_cell_volume   63.00958546
_cell_formula_units_Z   1
loop_
 _symmetry_equiv_pos_site_id
 _symmetry_equiv_pos_as_xyz
  1  'x, y, z'
loop_
 _atom_site_type_symbol
 _atom_site_label
 _atom_site_symmetry_multiplicity
 _atom_site_fract_x
 _atom_site_fract_y
 _atom_site_fract_z
 _atom_site_occupancy
  Zr  Zr0  1  -0.00000000  -0.00000000  -0.00000000  1
  Sb  Sb0  1  0.50000000  0.50000000  0.50000000  1
  Ru  Ru0  1  0.25000000  0.25000000  0.25000000  1
loop_
_geom_bond_atom_site_label_1
_geom_bond_atom_site_label_2
_geom_bond_distance
_geom_bond_site_symmetry_2
Sb0 Zr0 3.158340 1_565
Sb0 Zr0 3.158340 1_656
Sb0 Zr0 3.158340 1_566
Sb0 Zr0 3.158340 1_655
Sb0 Zr0 3.158340 1_556
Sb0 Zr0 3.158340 1_665
Ru0 Zr0 2.735202 1_556
Ru0 Sb0 2.735202 1_554
Ru0 Zr0 2.735203 1_655
Ru0 Sb0 2.735203 1_455
Ru0 Sb0 2.735203 1_555
Ru0 Zr0 2.735203 1_555
Ru0 Sb0 2.735203 1_545
Ru0 Zr0 2.735203 1_565
