# generated using pymatgen
data_V9Re(SiB2)2
_symmetry_space_group_name_H-M   'P 1'
_cell_length_a   6.71476464
_cell_length_b   6.72030612
_cell_length_c   6.72509842
_cell_angle_alpha   129.16678713
_cell_angle_beta   129.14439305
_cell_angle_gamma   74.67590756
_symmetry_Int_Tables_number   1
_chemical_formula_structural   V9Re(SiB2)2
_chemical_formula_sum   'V9 Re1 Si2 B4'
_cell_volume   177.85881461
_cell_formula_units_Z   1
loop_
 _symmetry_equiv_pos_site_id
 _symmetry_equiv_pos_as_xyz
  1  'x, y, z'
loop_
 _atom_site_type_symbol
 _atom_site_label
 _atom_site_symmetry_multiplicity
 _atom_site_fract_x
 _atom_site_fract_y
 _atom_site_fract_z
 _atom_site_occupancy
  V  V0  1  0.03025706  0.52975862  0.83721229  1
  V  V1  1  0.69304478  0.19254633  0.16278771  1
  V  V2  1  0.97056306  0.46963733  0.16395376  1
  V  V3  1  0.19327536  0.03007755  0.50000000  1
  V  V4  1  0.46989425  0.30746522  0.50000000  1
  V  V5  1  0.80629776  0.97148609  0.50000000  1
  V  V6  1  0.30660830  0.80568358  0.83604624  1
  V  V7  1  0.00140715  0.00162544  0.00244697  1
  V  V8  1  0.49896018  0.49917747  0.99755303  1
  Re  Re0  1  0.52965844  0.69219146  0.50000000  1
  Si  Si0  1  0.24731548  0.24519252  0.99500950  1
  Si  Si1  1  0.75230599  0.75018303  0.00499050  1
  B  B0  1  0.61728395  0.11998192  0.73442493  1
  B  B1  1  0.11476912  0.38399510  0.50000000  1
  B  B2  1  0.88550011  0.61544236  0.50000000  1
  B  B3  1  0.38285902  0.88555699  0.26557507  1
loop_
_geom_bond_atom_site_label_1
_geom_bond_atom_site_label_2
_geom_bond_distance
_geom_bond_site_symmetry_2
Re0 Si0 2.479182 1_554
Re0 Si1 2.479182 1_556
Re0 V4 2.719219 1_555
Si0 V5 2.435734 1_445
Si0 V6 2.439802 1_545
Si0 V3 2.444761 1_555
Si0 V1 2.457033 1_556
Si0 V2 2.457399 1_456
Si0 V0 2.458670 1_555
Si0 V4 2.463617 1_556
Si0 V7 2.654157 1_556
Si0 V8 2.686990 1_555
Si1 V5 2.435734 1_555
Si1 V2 2.439803 1_555
Si1 V3 2.444761 1_665
Si1 V0 2.457033 1_654
Si1 V6 2.457405 1_554
Si1 V1 2.458670 1_565
Si1 V4 2.463617 1_554
Si1 V8 2.654162 1_554
Si1 V7 2.686995 1_665
B0 B3 1.916069 1_545
B0 V4 2.220911 1_555
B0 V5 2.227476 1_545
B0 V3 2.235072 1_555
B0 Re0 2.257088 1_545
B0 V2 2.283379 1_556
B0 V8 2.294631 1_555
B0 V1 2.302571 1_556
B0 V7 2.321890 1_656
B1 B2 1.877137 1_455
B1 V1 2.224718 1_455
B1 V0 2.224718 1_555
B1 V6 2.227498 1_555
B1 V2 2.227500 1_455
B1 V3 2.296113 1_555
B1 V4 2.302719 1_555
B1 V7 2.309962 1_555
B1 V8 2.309964 1_555
B2 V6 2.220460 1_655
B2 V2 2.220466 1_555
B2 V1 2.233789 1_555
B2 V0 2.233789 1_655
B2 Re0 2.307344 1_555
B2 V5 2.309841 1_555
B2 V8 2.330007 1_554
B2 V7 2.330009 1_666
B3 V4 2.220911 1_565
B3 V5 2.227476 1_555
B3 V3 2.235072 1_565
B3 Re0 2.257088 1_555
B3 V6 2.283375 1_554
B3 V7 2.294635 1_565
B3 V0 2.302571 1_554
B3 V8 2.321893 1_554
