# generated using pymatgen
data_LuTcB4
_symmetry_space_group_name_H-M   'P 1'
_cell_length_a   5.89749658
_cell_length_b   11.39655893
_cell_length_c   3.55020690
_cell_angle_alpha   90.00000000
_cell_angle_beta   90.00000000
_cell_angle_gamma   90.00000000
_symmetry_Int_Tables_number   1
_chemical_formula_structural   LuTcB4
_chemical_formula_sum   'Lu4 Tc4 B16'
_cell_volume   238.61354997
_cell_formula_units_Z   4
loop_
 _symmetry_equiv_pos_site_id
 _symmetry_equiv_pos_as_xyz
  1  'x, y, z'
loop_
 _atom_site_type_symbol
 _atom_site_label
 _atom_site_symmetry_multiplicity
 _atom_site_fract_x
 _atom_site_fract_y
 _atom_site_fract_z
 _atom_site_occupancy
  Lu  Lu0  1  0.62825470  0.14978133  0.00000000  1
  Lu  Lu1  1  0.12825470  0.35021867  0.00000000  1
  Lu  Lu2  1  0.87174530  0.64978233  0.00000000  1
  Lu  Lu3  1  0.37174530  0.85021767  0.00000000  1
  Tc  Tc0  1  0.13456812  0.08760242  0.00000000  1
  Tc  Tc1  1  0.63456912  0.41239758  0.00000000  1
  Tc  Tc2  1  0.36543188  0.58760242  0.00000000  1
  Tc  Tc3  1  0.86543188  0.91239758  0.00000000  1
  B  B0  1  0.36531180  0.03093124  0.50000100  1
  B  B1  1  0.88587047  0.04815864  0.50000100  1
  B  B2  1  0.29037925  0.18524280  0.50000100  1
  B  B3  1  0.97911209  0.19358298  0.50000100  1
  B  B4  1  0.47911109  0.30641802  0.50000100  1
  B  B5  1  0.79037925  0.31475620  0.50000100  1
  B  B6  1  0.38587047  0.45184136  0.50000100  1
  B  B7  1  0.86531180  0.46906876  0.50000100  1
  B  B8  1  0.13468920  0.53093124  0.50000100  1
  B  B9  1  0.61413053  0.54815964  0.50000100  1
  B  B10  1  0.20962175  0.68524280  0.50000100  1
  B  B11  1  0.52088891  0.69358298  0.50000100  1
  B  B12  1  0.02088891  0.80641702  0.50000100  1
  B  B13  1  0.70962175  0.81475620  0.50000100  1
  B  B14  1  0.11413053  0.95184036  0.50000100  1
  B  B15  1  0.63468920  0.96906776  0.50000100  1
loop_
_geom_bond_atom_site_label_1
_geom_bond_atom_site_label_2
_geom_bond_distance
_geom_bond_site_symmetry_2
Lu0 Tc1 2.993153 1_555
Lu0 Tc0 2.996510 1_555
Lu0 Tc3 3.045565 1_545
Lu0 Tc0 3.068915 1_655
Lu1 Tc0 2.993153 1_555
Lu1 Tc1 2.996504 1_455
Lu1 Tc2 3.045565 1_555
Lu1 Tc1 3.068920 1_555
Lu2 Tc3 2.993142 1_555
Lu2 Tc2 2.996512 1_655
Lu2 Tc1 3.045573 1_555
Lu2 Tc2 3.068917 1_555
Lu3 Tc2 2.993142 1_555
Lu3 Tc3 2.996512 1_555
Lu3 Tc0 3.045575 1_565
Lu3 Tc3 3.068917 1_455
B0 B14 1.734020 1_545
B0 B15 1.738069 1_545
B0 B2 1.813294 1_555
B0 Tc0 2.328071 1_556
B0 Tc0 2.328076 1_555
B0 Lu0 2.718508 1_556
B0 Lu0 2.718513 1_555
B0 Lu3 2.719193 1_546
B0 Lu3 2.719198 1_545
B1 B15 1.734020 1_545
B1 B14 1.736978 1_645
B1 B3 1.746181 1_555
B1 Tc0 2.346112 1_656
B1 Tc0 2.346117 1_655
B1 Tc3 2.357830 1_546
B1 Tc3 2.357836 1_545
B1 Lu0 2.607782 1_556
B1 Lu0 2.607786 1_555
B2 B4 1.773690 1_555
B2 B3 1.838156 1_455
B2 Tc0 2.287705 1_556
B2 Tc0 2.287710 1_555
B2 Lu0 2.699044 1_556
B2 Lu0 2.699049 1_555
B2 Lu1 2.756838 1_556
B2 Lu1 2.756842 1_555
B3 B5 1.773676 1_555
B3 Tc0 2.334592 1_656
B3 Tc0 2.334597 1_655
B3 Lu1 2.666689 1_656
B3 Lu1 2.666694 1_655
B3 Lu0 2.771584 1_556
B3 Lu0 2.771588 1_555
B4 B6 1.746168 1_555
B4 B5 1.838161 1_555
B4 Tc1 2.334590 1_556
B4 Tc1 2.334596 1_555
B4 Lu0 2.666699 1_556
B4 Lu0 2.666703 1_555
B4 Lu1 2.771577 1_556
B4 Lu1 2.771582 1_555
B5 B7 1.813305 1_555
B5 Tc1 2.287708 1_556
B5 Tc1 2.287713 1_555
B5 Lu1 2.699046 1_656
B5 Lu1 2.699051 1_655
B5 Lu0 2.756830 1_556
B5 Lu0 2.756834 1_555
B6 B8 1.734015 1_555
B6 B9 1.736978 1_555
B6 Tc1 2.346116 1_556
B6 Tc1 2.346121 1_555
B6 Tc2 2.357830 1_556
B6 Tc2 2.357836 1_555
B6 Lu1 2.607782 1_556
B6 Lu1 2.607786 1_555
B7 B9 1.734020 1_555
B7 B8 1.738065 1_655
B7 Tc1 2.328067 1_556
B7 Tc1 2.328073 1_555
B7 Lu1 2.718508 1_656
B7 Lu1 2.718513 1_655
B7 Lu2 2.719193 1_556
B7 Lu2 2.719198 1_555
B8 Tc2 2.328067 1_556
B8 Tc2 2.328073 1_555
B8 Lu2 2.718517 1_456
B8 Lu2 2.718522 1_455
B8 Lu1 2.719185 1_556
B8 Lu1 2.719189 1_555
B9 Tc2 2.346113 1_556
B9 Tc2 2.346119 1_555
B9 Tc1 2.357838 1_556
B9 Tc1 2.357843 1_555
B9 Lu2 2.607778 1_556
B9 Lu2 2.607783 1_555
B10 B12 1.773685 1_555
B10 B8 1.813294 1_555
B10 B11 1.838156 1_555
B10 Tc2 2.287702 1_556
B10 Tc2 2.287708 1_555
B10 Lu2 2.699047 1_456
B10 Lu2 2.699052 1_455
B10 Lu3 2.756828 1_556
B10 Lu3 2.756832 1_555
B11 B9 1.746170 1_555
B11 B13 1.773676 1_555
B11 Tc2 2.334594 1_556
B11 Tc2 2.334599 1_555
B11 Lu3 2.666683 1_556
B11 Lu3 2.666688 1_555
B11 Lu2 2.771577 1_556
B11 Lu2 2.771582 1_555
B12 B14 1.746170 1_555
B12 B13 1.838156 1_455
B12 Tc3 2.334594 1_456
B12 Tc3 2.334599 1_455
B12 Lu2 2.666683 1_456
B12 Lu2 2.666688 1_455
B12 Lu3 2.771577 1_556
B12 Lu3 2.771582 1_555
B13 B15 1.813294 1_555
B13 Tc3 2.287708 1_556
B13 Tc3 2.287713 1_555
B13 Lu3 2.699049 1_556
B13 Lu3 2.699053 1_555
B13 Lu2 2.756820 1_556
B13 Lu2 2.756825 1_555
B14 Tc3 2.346113 1_456
B14 Tc3 2.346119 1_455
B14 Tc0 2.357838 1_566
B14 Tc0 2.357843 1_565
B14 Lu3 2.607778 1_556
B14 Lu3 2.607783 1_555
B15 Tc3 2.328064 1_556
B15 Tc3 2.328070 1_555
B15 Lu3 2.718512 1_556
B15 Lu3 2.718516 1_555
B15 Lu0 2.719193 1_566
B15 Lu0 2.719198 1_565
