# generated using pymatgen
data_Hf2Mg2Ge6Ir7
_symmetry_space_group_name_H-M   'P 1'
_cell_length_a   7.08245317
_cell_length_b   6.98703694
_cell_length_c   6.98703709
_cell_angle_alpha   108.95548746
_cell_angle_beta   109.45311407
_cell_angle_gamma   109.45310855
_symmetry_Int_Tables_number   1
_chemical_formula_structural   Hf2Mg2Ge6Ir7
_chemical_formula_sum   'Hf2 Mg2 Ge6 Ir7'
_cell_volume   267.95580160
_cell_formula_units_Z   1
loop_
 _symmetry_equiv_pos_site_id
 _symmetry_equiv_pos_as_xyz
  1  'x, y, z'
loop_
 _atom_site_type_symbol
 _atom_site_label
 _atom_site_symmetry_multiplicity
 _atom_site_fract_x
 _atom_site_fract_y
 _atom_site_fract_z
 _atom_site_occupancy
  Hf  Hf0  1  0.00000000  0.00000000  0.50000000  1
  Hf  Hf1  1  0.00000000  0.50000000  0.00000000  1
  Mg  Mg0  1  0.50000000  0.00000000  0.00000000  1
  Mg  Mg1  1  0.50000000  0.50000000  0.50000000  1
  Ge  Ge0  1  0.68094012  0.68851658  0.99242355  1
  Ge  Ge1  1  0.31905988  0.00757645  0.31148342  1
  Ge  Ge2  1  0.00000000  0.31120013  0.31120013  1
  Ge  Ge3  1  0.31905988  0.31148342  0.00757645  1
  Ge  Ge4  1  0.68094012  0.99242355  0.68851658  1
  Ge  Ge5  1  1.00000000  0.68879987  0.68879987  1
  Ir  Ir0  1  0.75355202  0.25041301  0.50313901  1
  Ir  Ir1  1  0.75355202  0.50313901  0.25041301  1
  Ir  Ir2  1  0.50000000  0.25000000  0.75000000  1
  Ir  Ir3  1  0.24644798  0.49686099  0.74958699  1
  Ir  Ir4  1  0.24644798  0.74958699  0.49686099  1
  Ir  Ir5  1  0.50000000  0.75000000  0.25000000  1
  Ir  Ir6  1  0.00000000  0.00000000  0.00000000  1
loop_
_geom_bond_atom_site_label_1
_geom_bond_atom_site_label_2
_geom_bond_distance
_geom_bond_site_symmetry_2
Hf0 Ir3 2.853604 1_555
Hf0 Ir1 2.853604 1_445
Hf0 Ir4 2.853604 1_545
Hf0 Ir0 2.853604 1_455
Hf0 Ir2 2.901757 1_555
Hf0 Ir5 2.901757 1_445
Hf1 Ir4 2.853604 1_555
Hf1 Ir0 2.853604 1_454
Hf1 Ir1 2.853604 1_455
Hf1 Ir3 2.853604 1_554
Hf1 Ir2 2.901757 1_454
Hf1 Ir5 2.901757 1_555
Ge0 Ir6 2.532869 1_666
Ge0 Ir3 2.538322 1_555
Ge0 Ir2 2.542885 1_555
Ge0 Ir5 2.542886 1_556
Ge0 Ir1 2.556260 1_556
Ge0 Mg1 2.865227 1_555
Ge0 Mg0 2.865227 1_566
Ge0 Hf0 2.965174 1_666
Ge0 Hf1 2.965174 1_656
Ge1 Ir6 2.532869 1_555
Ge1 Ir0 2.538322 1_555
Ge1 Ir2 2.542885 1_555
Ge1 Ir5 2.542886 1_545
Ge1 Ir4 2.556260 1_545
Ge1 Mg1 2.865227 1_555
Ge1 Mg0 2.865227 1_555
Ge1 Hf1 2.965174 1_545
Ge1 Hf0 2.965174 1_555
Ge2 Ir6 2.526698 1_555
Ge2 Ir3 2.541833 1_555
Ge2 Ir4 2.541833 1_555
Ge2 Ir1 2.541833 1_455
Ge2 Ir0 2.541833 1_455
Ge2 Hf0 2.886431 1_555
Ge2 Hf1 2.886431 1_555
Ge2 Mg0 2.943993 1_455
Ge2 Mg1 2.943994 1_555
Ge3 Ir6 2.532869 1_555
Ge3 Ir1 2.538322 1_555
Ge3 Ir5 2.542885 1_555
Ge3 Ir2 2.542886 1_554
Ge3 Ir3 2.556260 1_554
Ge3 Mg1 2.865227 1_555
Ge3 Mg0 2.865227 1_555
Ge3 Hf0 2.965174 1_554
Ge3 Hf1 2.965174 1_555
Ge4 Ir6 2.532869 1_666
Ge4 Ir4 2.538322 1_555
Ge4 Ir5 2.542885 1_555
Ge4 Ir2 2.542886 1_565
Ge4 Ir0 2.556260 1_565
Ge4 Mg1 2.865227 1_555
Ge4 Mg0 2.865227 1_566
Ge4 Hf1 2.965174 1_666
Ge4 Hf0 2.965174 1_665
Ge5 Ir6 2.526698 1_666
Ge5 Ir1 2.541833 1_555
Ge5 Ir0 2.541833 1_555
Ge5 Ir3 2.541833 1_655
Ge5 Ir4 2.541833 1_655
Ge5 Hf0 2.886431 1_665
Ge5 Hf1 2.886431 1_656
Ge5 Mg0 2.943993 1_666
Ge5 Mg1 2.943994 1_555
Ir0 Mg0 2.889783 1_555
Ir0 Mg1 2.889783 1_555
Ir1 Mg0 2.889783 1_555
Ir1 Mg1 2.889783 1_555
Ir2 Mg0 2.843339 1_556
Ir2 Mg1 2.843339 1_555
Ir3 Mg0 2.889783 1_566
Ir3 Mg1 2.889783 1_555
Ir4 Mg0 2.889783 1_566
Ir4 Mg1 2.889783 1_555
Ir5 Mg0 2.843339 1_565
Ir5 Mg1 2.843339 1_555
