# generated using pymatgen
data_Cs16Bi7Sb
_symmetry_space_group_name_H-M   'P 1'
_cell_length_a   6.53464893
_cell_length_b   11.41077794
_cell_length_c   16.75452675
_cell_angle_alpha   90.30790476
_cell_angle_beta   90.00000000
_cell_angle_gamma   90.00000000
_symmetry_Int_Tables_number   1
_chemical_formula_structural   Cs16Bi7Sb
_chemical_formula_sum   'Cs16 Bi7 Sb1'
_cell_volume   1249.29041495
_cell_formula_units_Z   1
loop_
 _symmetry_equiv_pos_site_id
 _symmetry_equiv_pos_as_xyz
  1  'x, y, z'
loop_
 _atom_site_type_symbol
 _atom_site_label
 _atom_site_symmetry_multiplicity
 _atom_site_fract_x
 _atom_site_fract_y
 _atom_site_fract_z
 _atom_site_occupancy
  Cs  Cs0  1  0.25000000  0.26074061  0.74589772  1
  Cs  Cs1  1  0.25000000  0.23955428  0.24446433  1
  Cs  Cs2  1  0.75000000  0.73951526  0.25601341  1
  Cs  Cs3  1  0.75000000  0.76267913  0.75782869  1
  Cs  Cs4  1  0.75000000  0.09450296  0.71090073  1
  Cs  Cs5  1  0.75000000  0.40562411  0.21048877  1
  Cs  Cs6  1  0.25000000  0.90613012  0.28678912  1
  Cs  Cs7  1  0.25000000  0.59666876  0.79089246  1
  Cs  Cs8  1  0.75000000  0.08274531  0.93985528  1
  Cs  Cs9  1  0.75000000  0.41325579  0.44207371  1
  Cs  Cs10  1  0.25000000  0.91324983  0.05448527  1
  Cs  Cs11  1  0.25000000  0.58634096  0.55919099  1
  Cs  Cs12  1  0.25000000  0.32987991  0.99226847  1
  Cs  Cs13  1  0.25000000  0.16700370  0.49271543  1
  Cs  Cs14  1  0.75000000  0.66652458  0.00995945  1
  Cs  Cs15  1  0.75000000  0.83231175  0.50802271  1
  Bi  Bi0  1  0.25000000  0.91056055  0.65439597  1
  Bi  Bi1  1  0.25000000  0.58934658  0.15285149  1
  Bi  Bi2  1  0.75000000  0.08939536  0.34635507  1
  Bi  Bi3  1  0.75000000  0.41082433  0.84820440  1
  Bi  Bi4  1  0.75000000  0.43660602  0.66329269  1
  Bi  Bi5  1  0.75000000  0.06342355  0.16105079  1
  Bi  Bi6  1  0.25000000  0.56481495  0.33792573  1
  Sb  Sb0  1  0.25000000  0.93830058  0.83407632  1
loop_
_geom_bond_atom_site_label_1
_geom_bond_atom_site_label_2
_geom_bond_distance
_geom_bond_site_symmetry_2
Cs0 Sb0 3.972190 1_545
Cs1 Cs5 3.821258 1_555
Cs1 Cs5 3.821258 1_455
Cs1 Cs6 3.873896 1_545
Cs1 Cs13 4.245278 1_555
Cs1 Cs12 4.354689 1_554
Cs2 Cs6 3.813834 1_655
Cs2 Cs6 3.813834 1_555
Cs2 Cs5 3.881536 1_555
Cs3 Sb0 4.036807 1_655
Cs3 Sb0 4.036807 1_555
Cs4 Sb0 4.260390 1_545
Cs4 Sb0 4.260390 1_645
Cs7 Sb0 3.961035 1_555
Cs8 Sb0 4.062220 1_645
Cs8 Sb0 4.062220 1_545
Cs10 Sb0 3.705426 1_554
Cs14 Cs2 4.201421 1_555
Cs15 Cs2 4.347524 1_555
Bi0 Sb0 3.025362 1_555
Bi0 Cs4 3.994472 1_465
Bi0 Cs4 3.994472 1_565
Bi0 Cs13 3.998246 1_565
Bi0 Cs11 4.020944 1_555
Bi0 Cs3 4.069087 1_455
Bi0 Cs3 4.069087 1_555
Bi0 Cs15 4.178929 1_555
Bi0 Cs15 4.178929 1_455
Bi0 Cs7 4.259934 1_555
Bi0 Cs0 4.272130 1_565
Bi1 Bi6 3.114938 1_555
Bi1 Cs12 3.989859 1_554
Bi1 Cs5 4.003084 1_555
Bi1 Cs5 4.003084 1_455
Bi1 Cs10 4.054869 1_555
Bi1 Cs2 4.070291 1_555
Bi1 Cs2 4.070291 1_455
Bi1 Cs14 4.147926 1_555
Bi1 Cs14 4.147926 1_455
Bi1 Cs6 4.244411 1_555
Bi1 Cs1 4.284057 1_555
Bi2 Bi5 3.117212 1_555
Bi2 Cs6 4.002761 1_645
Bi2 Cs6 4.002761 1_545
Bi2 Cs15 4.003477 1_545
Bi2 Cs9 4.020564 1_555
Bi2 Cs1 4.069028 1_655
Bi2 Cs1 4.069028 1_555
Bi2 Cs13 4.177270 1_555
Bi2 Cs13 4.177270 1_655
Bi2 Cs2 4.262091 1_545
Bi2 Cs5 4.276779 1_555
Bi3 Bi4 3.113618 1_555
Bi3 Cs14 3.971525 1_556
Bi3 Cs7 4.014525 1_655
Bi3 Cs7 4.014525 1_555
Bi3 Cs8 4.053957 1_555
Bi3 Cs0 4.063853 1_555
Bi3 Cs0 4.063853 1_655
Bi3 Cs12 4.168759 1_655
Bi3 Cs12 4.168759 1_555
Bi3 Cs4 4.269796 1_555
Bi3 Cs3 4.298589 1_555
Bi4 Cs9 3.714556 1_555
Bi4 Cs4 3.988520 1_555
Bi4 Cs3 4.036011 1_555
Bi4 Cs0 4.080175 1_555
Bi4 Cs0 4.080175 1_655
Bi4 Cs11 4.082753 1_655
Bi4 Cs11 4.082753 1_555
Bi4 Cs7 4.305790 1_555
Bi4 Cs7 4.305790 1_655
Bi5 Cs8 3.713761 1_554
Bi5 Cs5 3.987305 1_555
Bi5 Cs2 4.031800 1_545
Bi5 Cs1 4.078925 1_655
Bi5 Cs1 4.078925 1_555
Bi5 Cs10 4.094728 1_645
Bi5 Cs10 4.094728 1_545
Bi5 Cs6 4.286680 1_545
Bi5 Cs6 4.286680 1_645
Bi6 Cs11 3.714006 1_555
Bi6 Cs6 3.992291 1_555
Bi6 Cs1 4.020528 1_555
Bi6 Cs2 4.069669 1_555
Bi6 Cs2 4.069669 1_455
Bi6 Cs9 4.091888 1_455
Bi6 Cs9 4.091888 1_555
Bi6 Cs5 4.300257 1_455
Bi6 Cs5 4.300257 1_555
