# generated using pymatgen
data_Zr6Zn16Cu7S
_symmetry_space_group_name_H-M   'P 1'
_cell_length_a   8.54040071
_cell_length_b   8.54040102
_cell_length_c   8.54040040
_cell_angle_alpha   59.99999865
_cell_angle_beta   59.99999744
_cell_angle_gamma   59.99999733
_symmetry_Int_Tables_number   1
_chemical_formula_structural   Zr6Zn16Cu7S
_chemical_formula_sum   'Zr6 Zn16 Cu7 S1'
_cell_volume   440.47343838
_cell_formula_units_Z   1
loop_
 _symmetry_equiv_pos_site_id
 _symmetry_equiv_pos_as_xyz
  1  'x, y, z'
loop_
 _atom_site_type_symbol
 _atom_site_label
 _atom_site_symmetry_multiplicity
 _atom_site_fract_x
 _atom_site_fract_y
 _atom_site_fract_z
 _atom_site_occupancy
  Zr  Zr0  1  0.70659740  0.29340260  0.29340260  1
  Zr  Zr1  1  0.29340260  0.70659740  0.70659740  1
  Zr  Zr2  1  0.29340260  0.70659740  0.29340260  1
  Zr  Zr3  1  0.70659740  0.29340260  0.70659740  1
  Zr  Zr4  1  0.29340260  0.29340260  0.70659740  1
  Zr  Zr5  1  0.70659740  0.70659740  0.29340260  1
  Zn  Zn0  1  0.12111925  0.12111925  0.12111925  1
  Zn  Zn1  1  0.87888075  0.87888075  0.87888075  1
  Zn  Zn2  1  0.12111925  0.12111925  0.63664124  1
  Zn  Zn3  1  0.12111925  0.63664124  0.12111925  1
  Zn  Zn4  1  0.87888075  0.87888075  0.36335876  1
  Zn  Zn5  1  0.87888075  0.36335876  0.87888075  1
  Zn  Zn6  1  0.63664124  0.12111925  0.12111925  1
  Zn  Zn7  1  0.36335876  0.87888075  0.87888075  1
  Zn  Zn8  1  0.33158139  0.33158139  0.33158139  1
  Zn  Zn9  1  0.66841861  0.66841861  0.66841861  1
  Zn  Zn10  1  0.33158139  0.33158139  0.00525682  1
  Zn  Zn11  1  0.33158139  0.00525682  0.33158139  1
  Zn  Zn12  1  0.66841861  0.66841861  0.99474318  1
  Zn  Zn13  1  0.66841861  0.99474318  0.66841861  1
  Zn  Zn14  1  0.00525682  0.33158139  0.33158139  1
  Zn  Zn15  1  0.99474318  0.66841861  0.66841861  1
  Cu  Cu0  1  0.50000000  0.00000000  0.00000000  1
  Cu  Cu1  1  0.00000000  0.50000000  0.50000000  1
  Cu  Cu2  1  0.00000000  0.50000000  0.00000000  1
  Cu  Cu3  1  0.50000000  0.00000000  0.50000000  1
  Cu  Cu4  1  0.00000000  0.00000000  0.50000000  1
  Cu  Cu5  1  0.50000000  0.50000000  0.00000000  1
  Cu  Cu6  1  0.00000000  0.00000000  0.00000000  1
  S  S0  1  0.50000000  0.50000000  0.50000000  1
loop_
_geom_bond_atom_site_label_1
_geom_bond_atom_site_label_2
_geom_bond_distance
_geom_bond_site_symmetry_2
Zn0 Zn11 2.667255 1_555
Zn0 Zn14 2.667255 1_555
Zn0 Zn10 2.667255 1_555
Zn0 Zn7 2.925745 1_544
Zn0 Zn5 2.925745 1_454
Zn0 Zn4 2.925745 1_445
Zn0 Zr4 2.934253 1_554
Zn0 Zr0 2.934253 1_455
Zn0 Zr2 2.934253 1_545
Zn1 Zn13 2.667255 1_555
Zn1 Zn15 2.667255 1_555
Zn1 Zn12 2.667255 1_555
Zn1 Zn6 2.925745 1_566
Zn1 Zn3 2.925745 1_656
Zn1 Zn2 2.925745 1_665
Zn1 Zr5 2.934253 1_556
Zn1 Zr1 2.934253 1_655
Zn1 Zr3 2.934253 1_565
Zn2 Zn8 2.667250 1_555
Zn2 Zn7 2.925757 1_545
Zn2 Zn5 2.925757 1_455
Zn2 Zr3 2.934252 1_455
Zn2 Zr1 2.934252 1_545
Zn2 Zr4 2.934260 1_555
Zn3 Zn8 2.667250 1_555
Zn3 Zn4 2.925757 1_455
Zn3 Zn7 2.925757 1_554
Zn3 Zr1 2.934252 1_554
Zn3 Zr5 2.934252 1_455
Zn3 Zr2 2.934259 1_555
Zn4 Zn9 2.667250 1_555
Zn4 Zn6 2.925757 1_565
Zn4 Zr2 2.934252 1_655
Zn4 Zr0 2.934252 1_565
Zn4 Zr5 2.934260 1_555
Zn5 Zn9 2.667250 1_555
Zn5 Zn6 2.925757 1_556
Zn5 Zr0 2.934252 1_556
Zn5 Zr4 2.934252 1_655
Zn5 Zr3 2.934259 1_555
Zn6 Zn8 2.667250 1_555
Zn6 Zr3 2.934252 1_554
Zn6 Zr5 2.934252 1_545
Zn6 Zr0 2.934259 1_555
Zn7 Zn9 2.667250 1_555
Zn7 Zr2 2.934252 1_556
Zn7 Zr4 2.934252 1_565
Zn7 Zr1 2.934259 1_555
Zn8 Zr4 2.913448 1_555
Zn8 Zr0 2.913448 1_555
Zn8 Zr2 2.913448 1_555
Zn9 Zr5 2.913448 1_555
Zn9 Zr1 2.913448 1_555
Zn9 Zr3 2.913448 1_555
Zn10 Zn6 2.667241 1_555
Zn10 Zn3 2.667241 1_555
Zn10 Zn14 2.786942 1_555
Zn10 Zn8 2.786942 1_555
Zn10 Zn11 2.786943 1_555
Zn10 Zr3 2.913451 1_554
Zn10 Zr1 2.913451 1_554
Zn10 Zr4 2.913456 1_554
Zn11 Zn2 2.667241 1_555
Zn11 Zn6 2.667241 1_555
Zn11 Zn14 2.786943 1_555
Zn11 Zn8 2.786943 1_555
Zn11 Zr1 2.913451 1_545
Zn11 Zr5 2.913451 1_545
Zn11 Zr2 2.913456 1_545
Zn12 Zn7 2.667241 1_555
Zn12 Zn5 2.667241 1_555
Zn12 Zn15 2.786942 1_555
Zn12 Zn9 2.786942 1_555
Zn12 Zn13 2.786943 1_555
Zn12 Zr2 2.913451 1_556
Zn12 Zr0 2.913451 1_556
Zn12 Zr5 2.913456 1_556
Zn13 Zn4 2.667241 1_555
Zn13 Zn7 2.667241 1_555
Zn13 Zn15 2.786943 1_555
Zn13 Zn9 2.786943 1_555
Zn13 Zr0 2.913451 1_565
Zn13 Zr4 2.913451 1_565
Zn13 Zr3 2.913456 1_565
Zn14 Zn2 2.667241 1_555
Zn14 Zn3 2.667241 1_555
Zn14 Zn8 2.786943 1_555
Zn14 Zr3 2.913451 1_455
Zn14 Zr5 2.913451 1_455
Zn14 Zr0 2.913456 1_455
Zn15 Zn4 2.667241 1_555
Zn15 Zn5 2.667241 1_555
Zn15 Zn9 2.786943 1_555
Zn15 Zr2 2.913451 1_655
Zn15 Zr4 2.913451 1_655
Zn15 Zr1 2.913456 1_655
Cu0 Zn11 2.465676 1_555
Cu0 Zn13 2.465676 1_544
Cu0 Zn10 2.465676 1_555
Cu0 Zn12 2.465676 1_544
Cu0 Zn6 2.643116 1_555
Cu0 Zn7 2.643116 1_544
Cu0 Zn1 2.643123 1_544
Cu0 Zn0 2.643123 1_555
Cu0 Zr5 3.064654 1_545
Cu0 Zr4 3.064654 1_554
Cu0 Zr3 3.064654 1_554
Cu0 Zr2 3.064654 1_545
Cu1 Zn15 2.465669 1_455
Cu1 Zn14 2.465669 1_555
Cu1 Zn8 2.465674 1_555
Cu1 Zn9 2.465674 1_455
Cu1 Zn5 2.643122 1_455
Cu1 Zn3 2.643122 1_555
Cu1 Zn4 2.643123 1_455
Cu1 Zn2 2.643123 1_555
Cu1 Zr4 3.064654 1_555
Cu1 Zr5 3.064654 1_455
Cu1 Zr2 3.064654 1_555
Cu1 Zr3 3.064654 1_455
Cu2 Zn14 2.465676 1_555
Cu2 Zn15 2.465676 1_454
Cu2 Zn10 2.465676 1_555
Cu2 Zn12 2.465676 1_454
Cu2 Zn3 2.643116 1_555
Cu2 Zn5 2.643116 1_454
Cu2 Zn1 2.643123 1_454
Cu2 Zn0 2.643123 1_555
Cu2 Zr5 3.064654 1_455
Cu2 Zr4 3.064654 1_554
Cu2 Zr1 3.064654 1_554
Cu2 Zr0 3.064654 1_455
Cu3 Zn13 2.465669 1_545
Cu3 Zn11 2.465669 1_555
Cu3 Zn8 2.465674 1_555
Cu3 Zn9 2.465674 1_545
Cu3 Zn7 2.643122 1_545
Cu3 Zn6 2.643122 1_555
Cu3 Zn4 2.643122 1_545
Cu3 Zn2 2.643122 1_555
Cu3 Zr4 3.064654 1_555
Cu3 Zr5 3.064654 1_545
Cu3 Zr0 3.064654 1_555
Cu3 Zr1 3.064654 1_545
Cu4 Zn11 2.465676 1_555
Cu4 Zn13 2.465676 1_445
Cu4 Zn14 2.465676 1_555
Cu4 Zn15 2.465676 1_445
Cu4 Zn2 2.643116 1_555
Cu4 Zn4 2.643116 1_445
Cu4 Zn1 2.643123 1_445
Cu4 Zn0 2.643123 1_555
Cu4 Zr1 3.064654 1_545
Cu4 Zr0 3.064654 1_455
Cu4 Zr3 3.064654 1_455
Cu4 Zr2 3.064654 1_545
Cu5 Zn12 2.465669 1_554
Cu5 Zn10 2.465669 1_555
Cu5 Zn9 2.465674 1_554
Cu5 Zn8 2.465674 1_555
Cu5 Zn5 2.643122 1_554
Cu5 Zn3 2.643122 1_555
Cu5 Zn7 2.643123 1_554
Cu5 Zn6 2.643123 1_555
Cu5 Zr2 3.064654 1_555
Cu5 Zr3 3.064654 1_554
Cu5 Zr0 3.064654 1_555
Cu5 Zr1 3.064654 1_554
Cu6 Zn0 2.533769 1_555
Cu6 Zn1 2.533769 1_444
Cu6 Zn4 2.533776 1_445
Cu6 Zn2 2.533776 1_554
Cu6 Zn6 2.533776 1_455
Cu6 Zn7 2.533776 1_544
Cu6 Zn5 2.533776 1_454
Cu6 Zn3 2.533776 1_545
S0 Zr1 2.495273 1_555
S0 Zr0 2.495273 1_555
S0 Zr3 2.495273 1_555
S0 Zr2 2.495273 1_555
S0 Zr5 2.495273 1_555
S0 Zr4 2.495273 1_555
