# generated using pymatgen
data_Mn4Sb(PN2)6
_symmetry_space_group_name_H-M   'P 1'
_cell_length_a   7.28700298
_cell_length_b   7.28700306
_cell_length_c   7.28700332
_cell_angle_alpha   109.47121588
_cell_angle_beta   109.47121611
_cell_angle_gamma   109.47122108
_symmetry_Int_Tables_number   1
_chemical_formula_structural   Mn4Sb(PN2)6
_chemical_formula_sum   'Mn4 Sb1 P6 N12'
_cell_volume   297.86880505
_cell_formula_units_Z   1
loop_
 _symmetry_equiv_pos_site_id
 _symmetry_equiv_pos_as_xyz
  1  'x, y, z'
loop_
 _atom_site_type_symbol
 _atom_site_label
 _atom_site_symmetry_multiplicity
 _atom_site_fract_x
 _atom_site_fract_y
 _atom_site_fract_z
 _atom_site_occupancy
  Mn  Mn0  1  0.36543306  0.36543306  0.36543306  1
  Mn  Mn1  1  1.00000000  0.63456694  1.00000000  1
  Mn  Mn2  1  0.63456694  1.00000000  1.00000000  1
  Mn  Mn3  1  1.00000000  1.00000000  0.63456694  1
  Sb  Sb0  1  0.00000000  0.00000000  0.00000000  1
  P  P0  1  0.50000000  0.25000000  0.75000000  1
  P  P1  1  0.50000000  0.75000000  0.25000000  1
  P  P2  1  0.75000000  0.25000000  0.50000000  1
  P  P3  1  0.25000000  0.50000000  0.75000000  1
  P  P4  1  0.75000000  0.50000000  0.25000000  1
  P  P5  1  0.25000000  0.75000000  0.50000000  1
  N  N0  1  0.00000000  0.71800312  0.42954572  1
  N  N1  1  0.28199688  0.71154260  0.28199688  1
  N  N2  1  0.28845740  0.57045428  0.57045428  1
  N  N3  1  0.57045428  0.57045428  0.28845740  1
  N  N4  1  0.57045428  0.28845740  0.57045428  1
  N  N5  1  0.71800312  0.00000000  0.42954572  1
  N  N6  1  0.42954572  0.00000000  0.71800312  1
  N  N7  1  0.71800312  0.42954572  0.00000000  1
  N  N8  1  0.28199688  0.28199688  0.71154260  1
  N  N9  1  0.71154260  0.28199688  0.28199688  1
  N  N10  1  0.00000000  0.42954572  0.71800312  1
  N  N11  1  0.42954572  0.71800312  0.00000000  1
loop_
_geom_bond_atom_site_label_1
_geom_bond_atom_site_label_2
_geom_bond_distance
_geom_bond_site_symmetry_2
Mn0 N3 2.099522 1_555
Mn0 N4 2.099522 1_555
Mn0 N2 2.099522 1_555
Mn0 Sb0 2.662912 1_555
Mn1 N7 2.099522 1_556
Mn1 N10 2.099522 1_655
Mn1 N1 2.099522 1_656
Mn1 Sb0 2.662912 1_666
Mn2 N11 2.099522 1_556
Mn2 N6 2.099522 1_565
Mn2 N9 2.099522 1_566
Mn2 Sb0 2.662912 1_666
Mn3 N8 2.099522 1_665
Mn3 N5 2.099522 1_565
Mn3 N0 2.099522 1_655
Mn3 Sb0 2.662912 1_666
N0 P5 1.627949 1_555
N0 P4 1.627949 1_455
N1 P1 1.627949 1_555
N1 P5 1.627949 1_555
N2 P5 1.627949 1_555
N2 P3 1.627949 1_555
N3 P4 1.627949 1_555
N3 P1 1.627949 1_555
N4 P2 1.627949 1_555
N4 P0 1.627949 1_555
N5 P2 1.627949 1_555
N5 P1 1.627949 1_545
N6 P0 1.627949 1_555
N6 P5 1.627949 1_545
N7 P4 1.627949 1_555
N7 P0 1.627949 1_554
N8 P0 1.627949 1_555
N8 P3 1.627949 1_555
N9 P4 1.627949 1_555
N9 P2 1.627949 1_555
N10 P3 1.627949 1_555
N10 P2 1.627949 1_455
N11 P1 1.627949 1_555
N11 P3 1.627949 1_554
