# generated using pymatgen
data_VIn3(SO4)6
_symmetry_space_group_name_H-M   'P 1'
_cell_length_a   8.38036008
_cell_length_b   8.38035977
_cell_length_c   9.06145500
_cell_angle_alpha   117.54325268
_cell_angle_beta   62.45674897
_cell_angle_gamma   120.00000012
_symmetry_Int_Tables_number   1
_chemical_formula_structural   VIn3(SO4)6
_chemical_formula_sum   'V1 In3 S6 O24'
_cell_volume   465.98758182
_cell_formula_units_Z   1
loop_
 _symmetry_equiv_pos_site_id
 _symmetry_equiv_pos_as_xyz
  1  'x, y, z'
loop_
 _atom_site_type_symbol
 _atom_site_label
 _atom_site_symmetry_multiplicity
 _atom_site_fract_x
 _atom_site_fract_y
 _atom_site_fract_z
 _atom_site_occupancy
  V  V0  1  0.65320502  0.34679598  0.04038593  1
  In  In0  1  0.85660782  0.14339318  0.43017754  1
  In  In1  1  0.14451609  0.85548491  0.56645172  1
  In  In2  1  0.34912525  0.65087575  0.95262624  1
  S  S0  1  0.26010239  0.04894914  0.24636441  1
  S  S1  1  0.95104986  0.45751866  0.24636441  1
  S  S2  1  0.54248134  0.73989661  0.24636441  1
  S  S3  1  0.45678177  0.24614448  0.75486551  1
  S  S4  1  0.03449620  0.54321823  0.75486551  1
  S  S5  1  0.75385552  0.96550380  0.75486551  1
  O  O0  1  0.14399355  0.47305122  0.11920620  1
  O  O1  1  0.52694778  0.79014852  0.11920620  1
  O  O2  1  0.20985148  0.85600545  0.11920620  1
  O  O3  1  0.46476139  0.16672678  0.18429254  1
  O  O4  1  0.83327322  0.48232715  0.18429254  1
  O  O5  1  0.51767285  0.53523861  0.18429254  1
  O  O6  1  0.13849125  0.14296695  0.26987375  1
  O  O7  1  0.85703205  0.26539804  0.26987375  1
  O  O8  1  0.73460196  0.86150875  0.26987375  1
  O  O9  1  0.22809552  0.03375541  0.41397006  1
  O  O10  1  0.96624559  0.60831116  0.41397006  1
  O  O11  1  0.39168884  0.77190448  0.41397006  1
  O  O12  1  0.59128180  0.18982415  0.58285200  1
  O  O13  1  0.01569136  0.40871820  0.58285200  1
  O  O14  1  0.81017485  0.98430764  0.58285200  1
  O  O15  1  0.25846051  0.12772420  0.74665391  1
  O  O16  1  0.12260878  0.74153949  0.74665391  1
  O  O17  1  0.87227780  0.87739122  0.74665391  1
  O  O18  1  0.49299693  0.45114096  0.79925048  1
  O  O19  1  0.15889355  0.50700307  0.79925048  1
  O  O20  1  0.54885804  0.84110445  0.79925048  1
  O  O21  1  0.78807560  0.15764568  0.88612234  1
  O  O22  1  0.48344773  0.21192440  0.88612234  1
  O  O23  1  0.84235432  0.51655327  0.88612234  1
loop_
_geom_bond_atom_site_label_1
_geom_bond_atom_site_label_2
_geom_bond_distance
_geom_bond_site_symmetry_2
In0 O6 2.126157 1_655
In0 O7 2.126160 1_555
In0 O8 2.126162 1_545
In0 O13 2.128810 1_655
In0 O12 2.128810 1_555
In0 O14 2.128824 1_545
In1 O9 2.144592 1_565
In1 O10 2.144594 1_455
In1 O11 2.144596 1_555
In1 O17 2.145068 1_455
In1 O15 2.145077 1_565
In1 O16 2.145083 1_555
In2 O20 2.122247 1_555
In2 O18 2.122260 1_555
In2 O19 2.122266 1_555
In2 O1 2.138489 1_556
In2 O2 2.138494 1_556
In2 O0 2.138502 1_556
O0 S1 1.471143 1_455
O1 S2 1.471142 1_555
O2 S0 1.471141 1_565
O3 S0 1.469896 1_555
O3 V0 2.000958 1_555
O4 S1 1.469883 1_555
O4 V0 2.000953 1_555
O5 S2 1.469891 1_555
O5 V0 2.000952 1_555
O6 S0 1.466901 1_555
O7 S1 1.466908 1_555
O8 S2 1.466908 1_555
O9 S0 1.470613 1_555
O10 S1 1.470615 1_555
O11 S2 1.470614 1_555
O12 S3 1.466137 1_555
O13 S4 1.466134 1_555
O14 S5 1.466128 1_555
O15 S3 1.466069 1_555
O16 S4 1.466069 1_555
O17 S5 1.466084 1_555
O18 S3 1.468908 1_555
O19 S4 1.468916 1_555
O20 S5 1.468920 1_555
O21 S5 1.473815 1_545
O21 V0 2.006334 1_556
O22 S3 1.473820 1_555
O22 V0 2.006333 1_556
O23 S4 1.473815 1_655
O23 V0 2.006333 1_556
