# generated using pymatgen
data_Sr3Ga4(NiIr)2
_symmetry_space_group_name_H-M   'P 1'
_cell_length_a   6.67838278
_cell_length_b   6.67838256
_cell_length_c   6.56235630
_cell_angle_alpha   109.46889195
_cell_angle_beta   109.46888981
_cell_angle_gamma   110.18123983
_symmetry_Int_Tables_number   1
_chemical_formula_structural   Sr3Ga4(NiIr)2
_chemical_formula_sum   'Sr3 Ga4 Ni2 Ir2'
_cell_volume   223.31853448
_cell_formula_units_Z   1
loop_
 _symmetry_equiv_pos_site_id
 _symmetry_equiv_pos_as_xyz
  1  'x, y, z'
loop_
 _atom_site_type_symbol
 _atom_site_label
 _atom_site_symmetry_multiplicity
 _atom_site_fract_x
 _atom_site_fract_y
 _atom_site_fract_z
 _atom_site_occupancy
  Sr  Sr0  1  0.00685754  0.50685754  0.50000000  1
  Sr  Sr1  1  0.50685754  0.00685754  0.50000000  1
  Sr  Sr2  1  0.49845285  0.49845285  0.00000000  1
  Ga  Ga0  1  0.60708474  0.60708474  0.60331464  1
  Ga  Ga1  1  0.00377010  0.00377010  0.39668536  1
  Ga  Ga2  1  0.00461626  0.38359247  0.00000000  1
  Ga  Ga3  1  0.38359247  0.00461626  0.00000000  1
  Ni  Ni0  1  0.24165544  0.24165544  0.24175319  1
  Ni  Ni1  1  0.99990125  0.99990125  0.75824681  1
  Ir  Ir0  1  0.00058854  0.74662227  1.00000000  1
  Ir  Ir1  1  0.74662227  0.00058854  0.00000000  1
loop_
_geom_bond_atom_site_label_1
_geom_bond_atom_site_label_2
_geom_bond_distance
_geom_bond_site_symmetry_2
Sr0 Sr1 3.821906 1_455
Sr0 Sr1 3.821906 1_565
Sr0 Sr2 3.823215 1_556
Sr0 Sr2 3.823215 1_455
Sr1 Sr2 3.823215 1_556
Sr1 Sr2 3.823215 1_545
Ga0 Ni0 2.390035 1_555
Ga0 Ni1 2.548236 1_555
Ga0 Ir1 2.585385 1_566
Ga0 Ir0 2.585385 1_655
Ga0 Sr2 3.159733 1_556
Ga0 Sr1 3.189493 1_565
Ga0 Sr0 3.189493 1_655
Ga0 Sr2 3.540505 1_555
Ga0 Sr1 3.607035 1_555
Ga0 Sr0 3.607035 1_555
Ga1 Ni1 2.390039 1_445
Ga1 Ni0 2.548243 1_555
Ga1 Ir0 2.585385 1_544
Ga1 Ir1 2.585385 1_455
Ga1 Sr2 3.159734 1_445
Ga1 Sr0 3.189493 1_555
Ga1 Sr1 3.189494 1_555
Ga1 Sr2 3.540506 1_556
Ga1 Sr0 3.607035 1_545
Ga1 Sr1 3.607035 1_455
Ga2 Ir0 2.433863 1_554
Ga2 Ni0 2.507018 1_555
Ga2 Ni1 2.507020 1_444
Ga2 Ir1 2.543701 1_455
Ga2 Sr0 3.098752 1_555
Ga2 Sr1 3.098752 1_454
Ga2 Sr2 3.117669 1_555
Ga2 Sr0 3.642636 1_554
Ga2 Sr1 3.642636 1_565
Ga2 Sr2 3.715418 1_455
Ga3 Ir1 2.433863 1_555
Ga3 Ni0 2.507018 1_555
Ga3 Ni1 2.507020 1_444
Ga3 Ir0 2.543701 1_544
Ga3 Sr1 3.098752 1_555
Ga3 Sr0 3.098752 1_544
Ga3 Sr2 3.117669 1_555
Ga3 Sr1 3.642636 1_554
Ga3 Sr0 3.642636 1_655
Ga3 Sr2 3.715417 1_545
Ni0 Ni1 2.579295 1_444
Ni0 Sr2 3.161835 1_555
Ni0 Sr0 3.186630 1_555
Ni0 Sr1 3.186630 1_555
Ni1 Sr2 3.161842 1_666
Ni1 Sr0 3.186628 1_655
Ni1 Sr1 3.186628 1_565
Ir0 Ni1 2.677193 1_455
Ir0 Ni0 2.677199 1_566
Ir0 Ir1 2.781775 1_466
Ir0 Sr0 3.157126 1_555
Ir0 Sr1 3.157127 1_566
Ir0 Sr2 3.187110 1_456
Ir1 Ni1 2.677193 1_544
Ir1 Ni0 2.677199 1_655
Ir1 Sr1 3.157126 1_554
Ir1 Sr0 3.157126 1_655
Ir1 Sr2 3.187110 1_545
