# generated using pymatgen
data_Rb2TcAs2
_symmetry_space_group_name_H-M   'P 1'
_cell_length_a   8.47795553
_cell_length_b   8.47795534
_cell_length_c   8.47795557
_cell_angle_alpha   137.23082631
_cell_angle_beta   127.31813636
_cell_angle_gamma   70.10268383
_symmetry_Int_Tables_number   1
_chemical_formula_structural   Rb2TcAs2
_chemical_formula_sum   'Rb4 Tc2 As4'
_cell_volume   322.82997763
_cell_formula_units_Z   2
loop_
 _symmetry_equiv_pos_site_id
 _symmetry_equiv_pos_as_xyz
  1  'x, y, z'
loop_
 _atom_site_type_symbol
 _atom_site_label
 _atom_site_symmetry_multiplicity
 _atom_site_fract_x
 _atom_site_fract_y
 _atom_site_fract_z
 _atom_site_occupancy
  Rb  Rb0  1  0.99456109  0.65047833  0.34408276  1
  Rb  Rb1  1  0.00543891  0.34952167  0.65591724  1
  Rb  Rb2  1  0.69360443  0.84952167  0.84408276  1
  Rb  Rb3  1  0.30639557  0.15047833  0.15591724  1
  Tc  Tc0  1  0.50000000  0.75000000  0.25000000  1
  Tc  Tc1  1  0.50000000  0.25000000  0.75000000  1
  As  As0  1  0.57840965  0.40612793  0.17228173  1
  As  As1  1  0.42159035  0.59387207  0.82771827  1
  As  As2  1  0.23384620  0.90612793  0.32771827  1
  As  As3  1  0.76615380  0.09387207  0.67228173  1
loop_
_geom_bond_atom_site_label_1
_geom_bond_atom_site_label_2
_geom_bond_distance
_geom_bond_site_symmetry_2
As0 Tc0 2.401439 1_555
As0 Tc1 2.401439 1_554
As0 Rb2 3.441528 1_544
As0 Rb2 3.441528 1_555
As0 Rb3 3.550743 1_555
As0 Rb0 3.629706 1_555
As0 Rb1 3.722518 1_655
As0 Rb1 3.963549 1_554
As1 Tc1 2.401439 1_555
As1 Tc0 2.401439 1_556
As1 Rb3 3.441528 1_566
As1 Rb3 3.441528 1_555
As1 Rb2 3.550743 1_555
As1 Rb1 3.629706 1_555
As1 Rb0 3.722518 1_455
As1 Rb0 3.963549 1_556
As2 Tc0 2.401439 1_555
As2 Tc1 2.401439 1_565
As2 Rb1 3.441528 1_565
As2 Rb1 3.441528 1_554
As2 Rb0 3.550743 1_455
As2 Rb3 3.629706 1_565
As2 Rb2 3.722518 1_454
As2 Rb2 3.963548 1_555
As3 Tc1 2.401439 1_555
As3 Tc0 2.401439 1_545
As3 Rb0 3.441528 1_545
As3 Rb0 3.441528 1_556
As3 Rb1 3.550743 1_655
As3 Rb2 3.629706 1_545
As3 Rb3 3.722518 1_656
As3 Rb3 3.963548 1_555
