# generated using pymatgen
data_YHg4Se2Br5
_symmetry_space_group_name_H-M   'P 1'
_cell_length_a   8.49849229
_cell_length_b   10.87691699
_cell_length_c   9.24651745
_cell_angle_alpha   90.00000000
_cell_angle_beta   113.08385900
_cell_angle_gamma   90.00000000
_symmetry_Int_Tables_number   1
_chemical_formula_structural   YHg4Se2Br5
_chemical_formula_sum   'Y2 Hg8 Se4 Br10'
_cell_volume   786.28793570
_cell_formula_units_Z   2
loop_
 _symmetry_equiv_pos_site_id
 _symmetry_equiv_pos_as_xyz
  1  'x, y, z'
loop_
 _atom_site_type_symbol
 _atom_site_label
 _atom_site_symmetry_multiplicity
 _atom_site_fract_x
 _atom_site_fract_y
 _atom_site_fract_z
 _atom_site_occupancy
  Y  Y0  1  0.50405165  0.43073722  0.50744729  1
  Y  Y1  1  0.49594835  0.93073722  0.49255271  1
  Hg  Hg0  1  0.92068461  0.18387355  0.32688460  1
  Hg  Hg1  1  0.07931539  0.68387355  0.67311540  1
  Hg  Hg2  1  0.95496788  0.66663467  0.36712125  1
  Hg  Hg3  1  0.04503212  0.16663467  0.63287875  1
  Hg  Hg4  1  0.49757255  0.18094974  0.97348392  1
  Hg  Hg5  1  0.50242745  0.68094974  0.02651608  1
  Hg  Hg6  1  0.80394586  0.43396774  0.01772122  1
  Hg  Hg7  1  0.19605414  0.93396774  0.98227878  1
  Se  Se0  1  0.80793610  0.19994214  0.02071465  1
  Se  Se1  1  0.19206390  0.69994214  0.97928535  1
  Se  Se2  1  0.19106776  0.16494970  0.93872659  1
  Se  Se3  1  0.80893224  0.66494970  0.06127341  1
  Br  Br0  1  0.84165461  0.92615310  0.68230179  1
  Br  Br1  1  0.15834539  0.42615310  0.31769821  1
  Br  Br2  1  0.85251770  0.43666020  0.70430796  1
  Br  Br3  1  0.14748230  0.93666020  0.29569204  1
  Br  Br4  1  0.40843639  0.46311673  0.76329935  1
  Br  Br5  1  0.59156361  0.96311673  0.23670065  1
  Br  Br6  1  0.58950083  0.38712448  0.25323454  1
  Br  Br7  1  0.41049917  0.88712448  0.74676546  1
  Br  Br8  1  0.48810692  0.17949174  0.56895549  1
  Br  Br9  1  0.51189308  0.67949174  0.43104451  1
loop_
_geom_bond_atom_site_label_1
_geom_bond_atom_site_label_2
_geom_bond_distance
_geom_bond_site_symmetry_2
Hg0 Se0 2.614600 1_555
Hg1 Se1 2.614600 1_555
Hg2 Se3 2.605018 1_555
Hg3 Se2 2.605018 1_555
Hg4 Se2 2.502449 1_555
Hg4 Se0 2.507425 1_556
Hg5 Se3 2.502449 1_555
Hg5 Se1 2.507425 1_554
Hg6 Se3 2.542164 1_555
Hg6 Se0 2.545709 1_555
Hg7 Se2 2.542164 1_565
Hg7 Se1 2.545709 1_555
Br0 Y1 2.769555 1_555
Br1 Y0 2.769555 1_555
Br2 Y0 2.803670 1_555
Br2 Hg6 3.083438 1_556
Br3 Y1 2.803670 1_555
Br3 Hg7 3.083438 1_554
Br4 Y0 2.808647 1_555
Br5 Y1 2.808647 1_555
Br6 Y0 2.759737 1_555
Br7 Y1 2.759737 1_555
Br8 Y1 2.803776 1_545
Br8 Y0 2.805409 1_555
Br9 Y0 2.803776 1_555
Br9 Y1 2.805409 1_555
