# generated using pymatgen
data_Ni2Pd5PtO12
_symmetry_space_group_name_H-M   'P 1'
_cell_length_a   3.11811840
_cell_length_b   7.08612462
_cell_length_c   9.89207761
_cell_angle_alpha   89.91915346
_cell_angle_beta   90.00000000
_cell_angle_gamma   90.00000000
_symmetry_Int_Tables_number   1
_chemical_formula_structural   Ni2Pd5PtO12
_chemical_formula_sum   'Ni2 Pd5 Pt1 O12'
_cell_volume   218.56895230
_cell_formula_units_Z   1
loop_
 _symmetry_equiv_pos_site_id
 _symmetry_equiv_pos_as_xyz
  1  'x, y, z'
loop_
 _atom_site_type_symbol
 _atom_site_label
 _atom_site_symmetry_multiplicity
 _atom_site_fract_x
 _atom_site_fract_y
 _atom_site_fract_z
 _atom_site_occupancy
  Ni  Ni0  1  0.00000000  0.00065116  0.99846361  1
  Ni  Ni1  1  0.00000000  0.49831942  0.50230638  1
  Pd  Pd0  1  0.00000000  0.00132005  0.50055495  1
  Pd  Pd1  1  0.00000000  0.49900758  0.99859297  1
  Pd  Pd2  1  0.50000000  0.22825436  0.23813907  1
  Pd  Pd3  1  0.50000000  0.77196847  0.76172219  1
  Pd  Pd4  1  0.50000000  0.27149217  0.73827884  1
  Pt  Pt0  1  0.50000000  0.72931364  0.26155000  1
  O  O0  1  0.50000000  0.97498650  0.14449283  1
  O  O1  1  0.50000000  0.02343109  0.85606520  1
  O  O2  1  0.50000000  0.52387691  0.64435968  1
  O  O3  1  0.50000000  0.47758734  0.35727806  1
  O  O4  1  0.00000000  0.18472119  0.35709953  1
  O  O5  1  0.00000000  0.81658748  0.64284282  1
  O  O6  1  0.00000000  0.31397150  0.85734402  1
  O  O7  1  0.00000000  0.68501045  0.14246146  1
  O  O8  1  0.00000000  0.26811736  0.10996563  1
  O  O9  1  0.00000000  0.73078972  0.88906884  1
  O  O10  1  0.00000000  0.23237042  0.61032801  1
  O  O11  1  0.00000000  0.76822218  0.38908790  1
loop_
_geom_bond_atom_site_label_1
_geom_bond_atom_site_label_2
_geom_bond_distance
_geom_bond_site_symmetry_2
Ni0 O1 2.107197 1_555
Ni0 O1 2.107197 1_455
Ni0 O0 2.132996 1_546
Ni0 O0 2.132996 1_446
Ni0 O8 2.194228 1_556
Ni0 O9 2.198557 1_545
Ni1 O2 2.106840 1_455
Ni1 O2 2.106840 1_555
Ni1 O3 2.123914 1_455
Ni1 O3 2.123914 1_555
Ni1 O10 2.165099 1_555
Ni1 O11 2.214990 1_555
O0 Pd2 2.020824 1_565
O0 Pt0 2.089439 1_555
O1 Pd3 2.012659 1_545
O1 Pd4 2.107518 1_555
O2 Pd4 2.014184 1_555
O2 Pd3 2.108122 1_555
O3 Pt0 2.018356 1_555
O3 Pd2 2.125185 1_555
O4 Pd0 1.922896 1_555
O4 Pd2 1.977266 1_455
O4 Pd2 1.977266 1_555
O5 Pd0 1.920807 1_565
O5 Pd3 1.977998 1_455
O5 Pd3 1.977998 1_555
O6 Pd1 1.917467 1_555
O6 Pd4 1.977244 1_555
O6 Pd4 1.977244 1_455
O7 Pd1 1.941108 1_554
O7 Pt0 1.979401 1_555
O7 Pt0 1.979401 1_455
O8 Pd1 1.971180 1_554
O8 Pd2 2.029044 1_555
O8 Pd2 2.029044 1_455
O9 Pd1 1.966311 1_555
O9 Pd3 2.025259 1_555
O9 Pd3 2.025259 1_455
O10 Pd0 1.965898 1_555
O10 Pd4 2.027438 1_555
O10 Pd4 2.027438 1_455
O11 Pd0 1.987277 1_565
O11 Pt0 2.024682 1_555
O11 Pt0 2.024682 1_455
