# generated using pymatgen
data_RbHf2(Zr5Te8)2
_symmetry_space_group_name_H-M   'P 1'
_cell_length_a   7.95288911
_cell_length_b   11.10271875
_cell_length_c   11.84004064
_cell_angle_alpha   118.22341960
_cell_angle_beta   109.62818881
_cell_angle_gamma   89.98382354
_symmetry_Int_Tables_number   1
_chemical_formula_structural   RbHf2(Zr5Te8)2
_chemical_formula_sum   'Rb1 Hf2 Zr10 Te16'
_cell_volume   851.65283342
_cell_formula_units_Z   1
loop_
 _symmetry_equiv_pos_site_id
 _symmetry_equiv_pos_as_xyz
  1  'x, y, z'
loop_
 _atom_site_type_symbol
 _atom_site_label
 _atom_site_symmetry_multiplicity
 _atom_site_fract_x
 _atom_site_fract_y
 _atom_site_fract_z
 _atom_site_occupancy
  Rb  Rb0  1  0.49911572  0.00008004  0.99888028  1
  Hf  Hf0  1  0.12403558  0.12816992  0.49231283  1
  Hf  Hf1  1  0.62007654  0.12712075  0.49344462  1
  Zr  Zr0  1  0.31200759  0.36613058  0.87451465  1
  Zr  Zr1  1  0.81292824  0.36635802  0.87374902  1
  Zr  Zr2  1  0.19068149  0.50736896  0.63372326  1
  Zr  Zr3  1  0.69519711  0.50824115  0.63622305  1
  Zr  Zr4  1  0.37973696  0.87244846  0.50629943  1
  Zr  Zr5  1  0.87614306  0.87120550  0.50757936  1
  Zr  Zr6  1  0.18751904  0.63480215  0.12688181  1
  Zr  Zr7  1  0.68849200  0.63494497  0.12626632  1
  Zr  Zr8  1  0.30465901  0.48998981  0.36385641  1
  Zr  Zr9  1  0.80949318  0.49085595  0.36631615  1
  Te  Te0  1  0.72778914  0.05456725  0.70658972  1
  Te  Te1  1  0.22592181  0.05405997  0.70382893  1
  Te  Te2  1  0.84901859  0.65693878  0.94744392  1
  Te  Te3  1  0.34712281  0.65484455  0.94670245  1
  Te  Te4  1  0.54774026  0.29134849  0.34840915  1
  Te  Te5  1  0.04748905  0.28873698  0.34513056  1
  Te  Te6  1  0.77460523  0.95141702  0.29725258  1
  Te  Te7  1  0.27250803  0.95115671  0.29411295  1
  Te  Te8  1  0.65340496  0.34612627  0.05358761  1
  Te  Te9  1  0.15102081  0.34400633  0.05273946  1
  Te  Te10  1  0.95257313  0.70868041  0.65538970  1
  Te  Te11  1  0.45240852  0.70634222  0.65223290  1
  Te  Te12  1  0.95837233  0.33046433  0.66520221  1
  Te  Te13  1  0.45857339  0.33278113  0.66658471  1
  Te  Te14  1  0.54055647  0.66426251  0.33174321  1
  Te  Te15  1  0.04080693  0.66655180  0.33300277  1
loop_
_geom_bond_atom_site_label_1
_geom_bond_atom_site_label_2
_geom_bond_distance
_geom_bond_site_symmetry_2
Rb0 Te3 3.714338 1_545
Rb0 Te8 3.715032 1_556
Rb0 Te11 3.733051 1_545
Rb0 Te4 3.741866 1_556
Rb0 Te1 3.763508 1_555
Rb0 Te6 3.765240 1_546
Hf0 Te1 2.861945 1_555
Hf0 Te7 2.874349 1_545
Hf0 Te6 2.883096 1_445
Hf0 Te13 2.894578 1_555
Hf0 Te12 2.903853 1_455
Hf0 Te5 2.968258 1_555
Hf1 Te0 2.867315 1_555
Hf1 Te7 2.878668 1_545
Hf1 Te6 2.888320 1_545
Hf1 Te13 2.899313 1_555
Hf1 Te12 2.907959 1_555
Hf1 Te4 2.983577 1_555
Te0 Zr5 2.901372 1_545
Te0 Zr4 2.903799 1_545
Te0 Zr1 2.996661 1_555
Te1 Zr5 2.908237 1_445
Te1 Zr4 2.914159 1_545
Te1 Zr0 3.001153 1_555
Te2 Zr1 2.902078 1_555
Te2 Zr6 2.910726 1_656
Te2 Zr7 2.911600 1_556
Te2 Zr3 3.003189 1_555
Te3 Zr0 2.886628 1_555
Te3 Zr6 2.912070 1_556
Te3 Zr7 2.916433 1_556
Te3 Zr2 3.020906 1_555
Te4 Zr3 2.888256 1_555
Te4 Zr8 2.913481 1_555
Te4 Zr9 2.923498 1_555
Te5 Zr2 2.899497 1_555
Te5 Zr8 2.907632 1_555
Te5 Zr9 2.909546 1_455
Te6 Zr5 2.897043 1_555
Te6 Zr7 3.042284 1_555
Te7 Zr4 2.905037 1_555
Te7 Zr6 3.039515 1_555
Te8 Zr7 2.886241 1_555
Te8 Zr1 2.908831 1_554
Te8 Zr0 2.914452 1_554
Te8 Zr9 3.019736 1_555
Te9 Zr6 2.903022 1_555
Te9 Zr1 2.907115 1_454
Te9 Zr0 2.908256 1_554
Te9 Zr8 3.003236 1_555
Te10 Zr3 2.899408 1_555
Te10 Zr9 2.900722 1_555
Te10 Zr2 2.903286 1_655
Te10 Zr5 2.993317 1_555
Te11 Zr8 2.890967 1_555
Te11 Zr3 2.907057 1_555
Te11 Zr2 2.915329 1_555
Te11 Zr4 3.010504 1_555
Te12 Zr3 2.924047 1_555
Te12 Zr2 2.926963 1_655
Te12 Zr1 2.929437 1_555
Te12 Zr0 2.932260 1_655
Te13 Zr3 2.929933 1_555
Te13 Zr1 2.930709 1_555
Te13 Zr2 2.932910 1_555
Te13 Zr0 2.936360 1_555
Te14 Zr5 2.912492 1_555
Te14 Zr4 2.916476 1_555
Te14 Zr6 2.923730 1_555
Te14 Zr7 2.929621 1_555
Te14 Zr8 2.930042 1_555
Te14 Zr9 2.933212 1_555
Te15 Zr5 2.919761 1_455
Te15 Zr8 2.922247 1_555
Te15 Zr6 2.922453 1_555
Te15 Zr7 2.923334 1_455
Te15 Zr4 2.924529 1_555
Te15 Zr9 2.926128 1_455
