# generated using pymatgen
data_Sc16AlZn3Ni4
_symmetry_space_group_name_H-M   'P 1'
_cell_length_a   8.76882934
_cell_length_b   8.76882946
_cell_length_c   8.76883020
_cell_angle_alpha   59.98019833
_cell_angle_beta   59.98020119
_cell_angle_gamma   59.98019983
_symmetry_Int_Tables_number   1
_chemical_formula_structural   Sc16AlZn3Ni4
_chemical_formula_sum   'Sc16 Al1 Zn3 Ni4'
_cell_volume   476.55702192
_cell_formula_units_Z   1
loop_
 _symmetry_equiv_pos_site_id
 _symmetry_equiv_pos_as_xyz
  1  'x, y, z'
loop_
 _atom_site_type_symbol
 _atom_site_label
 _atom_site_symmetry_multiplicity
 _atom_site_fract_x
 _atom_site_fract_y
 _atom_site_fract_z
 _atom_site_occupancy
  Sc  Sc0  1  0.35529887  0.35529887  0.35529887  1
  Sc  Sc1  1  0.35374672  0.35374672  0.93788654  1
  Sc  Sc2  1  0.35374672  0.93788654  0.35374672  1
  Sc  Sc3  1  0.93788654  0.35374672  0.35374672  1
  Sc  Sc4  1  0.80983140  0.18968889  0.18968889  1
  Sc  Sc5  1  0.19094359  0.80951174  0.80951174  1
  Sc  Sc6  1  0.18968889  0.80983140  0.18968889  1
  Sc  Sc7  1  0.80951174  0.19094359  0.80951174  1
  Sc  Sc8  1  0.18968889  0.18968889  0.80983140  1
  Sc  Sc9  1  0.80951174  0.80951174  0.19094359  1
  Sc  Sc10  1  0.93864873  0.56361764  0.56361764  1
  Sc  Sc11  1  0.56407899  0.93701577  0.93701577  1
  Sc  Sc12  1  0.56361764  0.93864873  0.56361764  1
  Sc  Sc13  1  0.93701577  0.56407899  0.93701577  1
  Sc  Sc14  1  0.56361764  0.56361764  0.93864873  1
  Sc  Sc15  1  0.93701577  0.93701577  0.56407899  1
  Al  Al0  1  0.57773314  0.57773314  0.57773314  1
  Zn  Zn0  1  0.57956319  0.57956319  0.26018808  1
  Zn  Zn1  1  0.57956319  0.26018808  0.57956319  1
  Zn  Zn2  1  0.26018808  0.57956319  0.57956319  1
  Ni  Ni0  1  0.14425745  0.14425745  0.14425745  1
  Ni  Ni1  1  0.14477685  0.14477685  0.56529161  1
  Ni  Ni2  1  0.14477685  0.56529161  0.14477685  1
  Ni  Ni3  1  0.56529161  0.14477685  0.14477685  1
loop_
_geom_bond_atom_site_label_1
_geom_bond_atom_site_label_2
_geom_bond_distance
_geom_bond_site_symmetry_2
Sc0 Zn0 3.002913 1_555
Sc0 Zn1 3.002914 1_555
Sc0 Zn2 3.002914 1_555
Sc0 Sc12 3.163074 1_545
Sc0 Sc10 3.163075 1_455
Sc0 Sc14 3.163075 1_554
Sc0 Sc6 3.260494 1_555
Sc0 Sc4 3.260494 1_555
Sc0 Sc8 3.260494 1_555
Sc1 Zn2 3.032326 1_555
Sc1 Zn1 3.032326 1_555
Sc1 Sc13 3.166270 1_455
Sc1 Sc11 3.166270 1_545
Sc1 Sc14 3.191715 1_555
Sc2 Zn2 3.032326 1_555
Sc2 Zn0 3.032326 1_555
Sc3 Zn0 3.032326 1_555
Sc3 Zn1 3.032326 1_555
Sc4 Zn0 3.178927 1_555
Sc4 Zn1 3.178928 1_555
Sc5 Zn2 3.180935 1_555
Sc6 Zn0 3.178927 1_555
Sc6 Zn2 3.178928 1_555
Sc7 Zn1 3.180935 1_555
Sc8 Zn2 3.178927 1_555
Sc8 Zn1 3.178927 1_555
Sc9 Zn0 3.180935 1_555
Sc10 Zn2 2.966028 1_655
Sc10 Sc3 3.191715 1_555
Sc10 Sc15 3.269146 1_555
Sc10 Sc13 3.269146 1_555
Sc10 Sc8 3.272346 1_655
Sc10 Sc6 3.272346 1_655
Sc10 Sc12 3.287599 1_555
Sc10 Sc14 3.287600 1_555
Sc10 Sc7 3.289361 1_555
Sc10 Sc9 3.289361 1_555
Sc11 Zn0 2.990845 1_556
Sc11 Zn1 2.990845 1_565
Sc11 Sc2 3.166271 1_556
Sc11 Sc14 3.269146 1_555
Sc11 Sc12 3.269146 1_555
Sc11 Sc13 3.269240 1_555
Sc11 Sc15 3.269240 1_555
Sc11 Sc7 3.276596 1_565
Sc11 Sc9 3.276596 1_556
Sc11 Sc8 3.292953 1_565
Sc11 Sc6 3.292953 1_556
Sc12 Zn1 2.966028 1_565
Sc12 Sc2 3.191715 1_555
Sc12 Sc15 3.269146 1_555
Sc12 Sc4 3.272346 1_565
Sc12 Sc8 3.272346 1_565
Sc12 Sc14 3.287599 1_555
Sc12 Sc5 3.289361 1_555
Sc12 Sc9 3.289361 1_555
Sc13 Zn0 2.990845 1_556
Sc13 Zn2 2.990845 1_655
Sc13 Sc3 3.166270 1_556
Sc13 Sc14 3.269146 1_555
Sc13 Sc15 3.269240 1_555
Sc13 Sc5 3.276596 1_655
Sc13 Sc9 3.276596 1_556
Sc13 Sc4 3.292953 1_556
Sc13 Sc8 3.292954 1_655
Sc14 Zn0 2.966028 1_556
Sc14 Sc4 3.272346 1_556
Sc14 Sc6 3.272346 1_556
Sc14 Sc5 3.289361 1_555
Sc14 Sc7 3.289361 1_555
Sc15 Zn2 2.990845 1_655
Sc15 Zn1 2.990845 1_565
Sc15 Sc3 3.166270 1_565
Sc15 Sc2 3.166270 1_655
Sc15 Sc5 3.276596 1_655
Sc15 Sc7 3.276596 1_565
Sc15 Sc4 3.292954 1_565
Sc15 Sc6 3.292954 1_655
Al0 Zn2 2.768534 1_555
Al0 Zn1 2.768534 1_555
Al0 Zn0 2.768535 1_555
Al0 Sc2 3.022573 1_555
Al0 Sc1 3.022573 1_555
Al0 Sc3 3.022573 1_555
Al0 Sc10 3.045989 1_555
Al0 Sc12 3.045989 1_555
Al0 Sc14 3.045989 1_555
Al0 Sc7 3.178575 1_555
Al0 Sc9 3.178575 1_555
Al0 Sc5 3.178575 1_555
Zn0 Zn1 2.799708 1_555
Zn0 Zn2 2.799708 1_555
Zn1 Zn2 2.799708 1_555
Ni0 Sc4 2.595766 1_455
Ni0 Sc6 2.595766 1_545
Ni0 Sc8 2.595766 1_554
Ni0 Sc1 2.597643 1_554
Ni0 Sc2 2.597643 1_545
Ni0 Sc3 2.597643 1_455
Ni0 Sc13 3.173904 1_454
Ni0 Sc11 3.173904 1_544
Ni0 Sc15 3.173904 1_445
Ni1 Sc3 2.594201 1_455
Ni1 Sc2 2.594201 1_545
Ni1 Sc8 2.598755 1_555
Ni1 Sc5 2.601909 1_545
Ni1 Sc7 2.601910 1_455
Ni1 Sc0 2.610298 1_555
Ni1 Sc15 3.161956 1_445
Ni1 Sc12 3.175919 1_545
Ni1 Sc10 3.175919 1_455
Ni2 Sc3 2.594201 1_455
Ni2 Sc1 2.594201 1_554
Ni2 Sc6 2.598755 1_555
Ni2 Sc9 2.601909 1_455
Ni2 Sc5 2.601910 1_554
Ni2 Sc0 2.610299 1_555
Ni2 Sc13 3.161956 1_454
Ni2 Sc14 3.175919 1_554
Ni2 Sc10 3.175920 1_455
Ni3 Sc2 2.594201 1_545
Ni3 Sc1 2.594201 1_554
Ni3 Sc4 2.598755 1_555
Ni3 Sc9 2.601909 1_545
Ni3 Sc7 2.601910 1_554
Ni3 Sc0 2.610299 1_555
Ni3 Sc11 3.161956 1_544
Ni3 Sc14 3.175919 1_554
Ni3 Sc12 3.175920 1_545
