# generated using pymatgen
data_Hf9NbSn8
_symmetry_space_group_name_H-M   'P 1'
_cell_length_a   8.70343651
_cell_length_b   8.70343533
_cell_length_c   5.84038167
_cell_angle_alpha   90.00000000
_cell_angle_beta   90.00000000
_cell_angle_gamma   119.99999701
_symmetry_Int_Tables_number   1
_chemical_formula_structural   Hf9NbSn8
_chemical_formula_sum   'Hf9 Nb1 Sn8'
_cell_volume   383.13634025
_cell_formula_units_Z   1
loop_
 _symmetry_equiv_pos_site_id
 _symmetry_equiv_pos_as_xyz
  1  'x, y, z'
loop_
 _atom_site_type_symbol
 _atom_site_label
 _atom_site_symmetry_multiplicity
 _atom_site_fract_x
 _atom_site_fract_y
 _atom_site_fract_z
 _atom_site_occupancy
  Hf  Hf0  1  0.66666700  0.33333300  0.50000000  1
  Hf  Hf1  1  0.66666700  0.33333300  0.00000000  1
  Hf  Hf2  1  0.33333300  0.66666700  0.50000000  1
  Hf  Hf3  1  0.28187723  0.99932110  0.25036273  1
  Hf  Hf4  1  0.28187723  0.28255613  0.74963727  1
  Hf  Hf5  1  0.00067890  0.71812277  0.74963727  1
  Hf  Hf6  1  0.00067890  0.28255613  0.25036273  1
  Hf  Hf7  1  0.71744387  0.71812277  0.25036273  1
  Hf  Hf8  1  0.71744387  0.99932110  0.74963727  1
  Nb  Nb0  1  0.33333300  0.66666700  0.00000000  1
  Sn  Sn0  1  0.00000000  0.00000000  0.00000000  1
  Sn  Sn1  1  0.00000000  0.00000000  0.50000000  1
  Sn  Sn2  1  0.61200157  0.99879811  0.24855710  1
  Sn  Sn3  1  0.61200157  0.61320446  0.75144290  1
  Sn  Sn4  1  0.00120189  0.38799843  0.75144290  1
  Sn  Sn5  1  0.00120189  0.61320446  0.24855710  1
  Sn  Sn6  1  0.38679554  0.38799843  0.24855710  1
  Sn  Sn7  1  0.38679554  0.99879811  0.75144290  1
loop_
_geom_bond_atom_site_label_1
_geom_bond_atom_site_label_2
_geom_bond_distance
_geom_bond_site_symmetry_2
Hf0 Hf1 2.920191 1_555
Hf0 Hf1 2.920191 1_556
Hf0 Sn2 3.078162 1_545
Hf0 Sn4 3.078162 1_655
Hf0 Sn7 3.078167 1_545
Hf0 Sn5 3.078168 1_655
Hf0 Sn3 3.078177 1_555
Hf0 Sn6 3.078177 1_555
Hf0 Hf8 3.472271 1_545
Hf0 Hf6 3.472272 1_655
Hf0 Hf5 3.472276 1_655
Hf0 Hf3 3.472277 1_545
Hf0 Hf7 3.472279 1_555
Hf0 Hf4 3.472280 1_555
Hf1 Sn2 3.070157 1_545
Hf1 Sn4 3.070157 1_654
Hf1 Sn7 3.070162 1_544
Hf1 Sn5 3.070163 1_655
Hf1 Sn3 3.070172 1_554
Hf1 Sn6 3.070172 1_555
Hf2 Nb0 2.920191 1_556
Hf2 Nb0 2.920191 1_555
Hf2 Sn7 3.063340 1_555
Hf2 Sn6 3.063340 1_555
Hf2 Sn2 3.063340 1_555
Hf2 Sn3 3.063340 1_555
Hf2 Sn4 3.063341 1_555
Hf2 Sn5 3.063341 1_555
Hf3 Sn1 2.856381 1_565
Hf3 Sn0 2.858546 1_565
Hf3 Sn2 2.875514 1_555
Hf3 Sn5 3.008580 1_555
Hf3 Sn6 3.031246 1_565
Hf3 Sn7 3.054297 1_554
Hf3 Sn7 3.066336 1_555
Hf4 Sn1 2.856381 1_555
Hf4 Sn0 2.858546 1_556
Hf4 Sn3 2.875518 1_555
Hf4 Sn4 3.008586 1_555
Hf4 Sn7 3.031237 1_545
Hf4 Sn6 3.054298 1_556
Hf4 Sn6 3.066338 1_555
Hf5 Sn1 2.856381 1_565
Hf5 Sn0 2.858546 1_566
Hf5 Sn4 2.875514 1_555
Hf5 Sn7 3.008580 1_555
Hf5 Sn3 3.031246 1_455
Hf5 Sn5 3.054297 1_556
Hf5 Sn5 3.066336 1_555
Hf6 Sn1 2.856381 1_555
Hf6 Sn0 2.858546 1_555
Hf6 Sn5 2.875522 1_555
Hf6 Sn6 3.008578 1_555
Hf6 Sn2 3.031244 1_445
Hf6 Sn4 3.054299 1_554
Hf6 Sn4 3.066339 1_555
Hf7 Sn1 2.856381 1_665
Hf7 Sn0 2.858546 1_665
Hf7 Sn6 2.875518 1_555
Hf7 Sn2 3.008586 1_555
Hf7 Sn5 3.031238 1_655
Hf7 Sn3 3.054298 1_554
Hf7 Sn3 3.066338 1_555
Hf8 Sn1 2.856381 1_665
Hf8 Sn0 2.858546 1_666
Hf8 Sn7 2.875523 1_555
Hf8 Sn3 3.008577 1_555
Hf8 Sn4 3.031244 1_665
Hf8 Sn2 3.054300 1_556
Hf8 Sn2 3.066339 1_555
Nb0 Sn7 3.055296 1_554
Nb0 Sn6 3.055296 1_555
Nb0 Sn2 3.055297 1_555
Nb0 Sn3 3.055297 1_554
Nb0 Sn4 3.055297 1_554
Nb0 Sn5 3.055297 1_555
Sn0 Sn1 2.920191 1_555
Sn0 Sn1 2.920191 1_554
