# generated using pymatgen
data_Sr6RuIO12
_symmetry_space_group_name_H-M   'P 1'
_cell_length_a   5.84720188
_cell_length_b   6.05964387
_cell_length_c   8.37771147
_cell_angle_alpha   90.78233376
_cell_angle_beta   90.44745529
_cell_angle_gamma   90.22426434
_symmetry_Int_Tables_number   1
_chemical_formula_structural   Sr6RuIO12
_chemical_formula_sum   'Sr6 Ru1 I1 O12'
_cell_volume   296.79962476
_cell_formula_units_Z   1
loop_
 _symmetry_equiv_pos_site_id
 _symmetry_equiv_pos_as_xyz
  1  'x, y, z'
loop_
 _atom_site_type_symbol
 _atom_site_label
 _atom_site_symmetry_multiplicity
 _atom_site_fract_x
 _atom_site_fract_y
 _atom_site_fract_z
 _atom_site_occupancy
  Sr  Sr0  1  0.48279959  0.55726304  0.26906701  1
  Sr  Sr1  1  0.99244647  0.95674688  0.72727699  1
  Sr  Sr2  1  0.51720041  0.44273696  0.73093299  1
  Sr  Sr3  1  0.00755353  0.04325312  0.27272301  1
  Sr  Sr4  1  0.00000000  0.50000000  0.50000000  1
  Sr  Sr5  1  0.50000000  0.00000000  0.00000000  1
  Ru  Ru0  1  0.50000000  0.00000000  0.50000000  1
  I  I0  1  0.00000000  0.50000000  0.00000000  1
  O  O0  1  0.22534463  0.81928022  0.46180198  1
  O  O1  1  0.74355680  0.67388449  0.95163417  1
  O  O2  1  0.77465537  0.18071978  0.53819802  1
  O  O3  1  0.25644320  0.32611551  0.04836583  1
  O  O4  1  0.67525875  0.73077794  0.55017331  1
  O  O5  1  0.16450986  0.75396401  0.06802033  1
  O  O6  1  0.32474125  0.26922206  0.44982669  1
  O  O7  1  0.83549014  0.24603599  0.93197967  1
  O  O8  1  0.58812244  0.96027358  0.27583800  1
  O  O9  1  0.10410925  0.54214786  0.79015325  1
  O  O10  1  0.41187756  0.03972642  0.72416200  1
  O  O11  1  0.89589075  0.45785214  0.20984675  1
loop_
_geom_bond_atom_site_label_1
_geom_bond_atom_site_label_2
_geom_bond_distance
_geom_bond_site_symmetry_2
I0 O3 1.880793 1_555
I0 O1 1.880793 1_454
I0 O11 1.885272 1_455
I0 O9 1.885272 1_554
I0 O5 1.890566 1_555
I0 O7 1.890566 1_454
O0 Ru0 1.961991 1_565
O0 Sr4 2.363317 1_555
O0 Sr3 2.452273 1_565
O0 Sr0 2.716789 1_555
O0 Sr1 2.738702 1_455
O1 Sr5 2.471162 1_566
O1 Sr2 2.647434 1_555
O1 Sr1 2.949567 1_555
O1 Sr0 3.162677 1_556
O2 Ru0 1.961991 1_555
O2 Sr4 2.363317 1_655
O2 Sr1 2.452273 1_545
O2 Sr2 2.716789 1_555
O2 Sr3 2.738702 1_655
O3 Sr5 2.471162 1_555
O3 Sr0 2.647434 1_555
O3 Sr3 2.949567 1_555
O3 Sr2 3.162677 1_554
O4 Ru0 1.978222 1_565
O4 Sr4 2.398967 1_655
O4 Sr2 2.505061 1_555
O4 Sr1 2.719893 1_555
O4 Sr0 2.792814 1_555
O5 Sr5 2.532477 1_565
O5 Sr3 2.609856 1_565
O5 Sr0 2.782904 1_555
O6 Ru0 1.978222 1_555
O6 Sr4 2.398967 1_555
O6 Sr0 2.505061 1_555
O6 Sr3 2.719893 1_555
O6 Sr2 2.792814 1_555
O7 Sr5 2.532477 1_556
O7 Sr1 2.609856 1_545
O7 Sr2 2.782904 1_555
O8 Ru0 1.963146 1_565
O8 Sr5 2.379335 1_565
O8 Sr3 2.501993 1_665
O8 Sr0 2.515996 1_555
O9 Sr4 2.510659 1_555
O9 Sr2 2.542688 1_555
O9 Sr1 2.656905 1_455
O10 Ru0 1.963146 1_555
O10 Sr5 2.379335 1_556
O10 Sr1 2.501993 1_445
O10 Sr2 2.515996 1_555
O11 Sr4 2.510659 1_655
O11 Sr0 2.542688 1_555
O11 Sr3 2.656905 1_655
