# generated using pymatgen
data_RbTc(Sb4Pd)3
_symmetry_space_group_name_H-M   'P 1'
_cell_length_a   8.23330439
_cell_length_b   8.27434131
_cell_length_c   8.23330453
_cell_angle_alpha   109.57223301
_cell_angle_beta   109.37003296
_cell_angle_gamma   109.57221371
_symmetry_Int_Tables_number   1
_chemical_formula_structural   RbTc(Sb4Pd)3
_chemical_formula_sum   'Rb1 Tc1 Sb12 Pd3'
_cell_volume   431.23797791
_cell_formula_units_Z   1
loop_
 _symmetry_equiv_pos_site_id
 _symmetry_equiv_pos_as_xyz
  1  'x, y, z'
loop_
 _atom_site_type_symbol
 _atom_site_label
 _atom_site_symmetry_multiplicity
 _atom_site_fract_x
 _atom_site_fract_y
 _atom_site_fract_z
 _atom_site_occupancy
  Rb  Rb0  1  0.00000000  0.00000000  0.00000000  1
  Tc  Tc0  1  0.00000000  0.50000000  0.00000000  1
  Sb  Sb0  1  0.65213106  0.80820724  0.15830523  1
  Sb  Sb1  1  0.85074757  0.34873705  0.18881884  1
  Sb  Sb2  1  0.49382583  0.84392382  0.65213106  1
  Sb  Sb3  1  0.84169477  0.64990301  0.49382583  1
  Sb  Sb4  1  0.50617417  0.15607618  0.34786894  1
  Sb  Sb5  1  0.14925243  0.65126295  0.81118116  1
  Sb  Sb6  1  0.81118116  0.15991821  0.66192873  1
  Sb  Sb7  1  0.18881884  0.84008179  0.33807127  1
  Sb  Sb8  1  0.15830523  0.35009699  0.50617417  1
  Sb  Sb9  1  0.66192873  0.50201051  0.85074757  1
  Sb  Sb10  1  0.33807127  0.49798949  0.14925243  1
  Sb  Sb11  1  0.34786894  0.19179276  0.84169477  1
  Pd  Pd0  1  0.00000000  0.00000000  0.50000000  1
  Pd  Pd1  1  0.50000000  0.50000000  0.50000000  1
  Pd  Pd2  1  0.50000000  0.00000000  0.00000000  1
loop_
_geom_bond_atom_site_label_1
_geom_bond_atom_site_label_2
_geom_bond_distance
_geom_bond_site_symmetry_2
Rb0 Sb1 3.590371 1_455
Rb0 Sb5 3.590371 1_544
Rb0 Sb10 3.590371 1_555
Rb0 Sb9 3.590371 1_444
Rb0 Sb7 3.590371 1_545
Rb0 Sb6 3.590371 1_454
Rb0 Sb8 3.638286 1_555
Rb0 Sb3 3.638286 1_444
Rb0 Sb4 3.638289 1_555
Rb0 Sb2 3.638289 1_444
Rb0 Sb11 3.638290 1_554
Rb0 Sb0 3.638290 1_445
Sb0 Sb10 2.928732 1_555
Sb0 Sb9 2.968450 1_554
Sb1 Tc0 2.652118 1_655
Sb1 Sb3 2.928736 1_555
Sb1 Sb8 2.968456 1_655
Sb2 Sb7 2.928732 1_555
Sb2 Sb6 2.968451 1_565
Sb3 Sb5 2.968456 1_655
Sb4 Sb6 2.928732 1_555
Sb4 Sb7 2.968451 1_545
Sb5 Tc0 2.652118 1_556
Sb5 Sb8 2.928736 1_555
Sb6 Tc0 2.652117 1_656
Sb7 Tc0 2.652117 1_555
Sb9 Tc0 2.652117 1_656
Sb10 Tc0 2.652117 1_555
Sb10 Sb11 2.968450 1_554
Sb11 Sb9 2.928732 1_555
Pd0 Sb11 2.693471 1_555
Pd0 Sb0 2.693471 1_445
Pd0 Sb8 2.724095 1_555
Pd0 Sb3 2.724095 1_445
Pd0 Sb7 2.741578 1_545
Pd0 Sb6 2.741578 1_455
Pd1 Sb3 2.693472 1_555
Pd1 Sb8 2.693472 1_555
Pd1 Sb2 2.724102 1_555
Pd1 Sb4 2.724102 1_555
Pd1 Sb9 2.741578 1_555
Pd1 Sb10 2.741578 1_555
Pd2 Sb4 2.693471 1_555
Pd2 Sb2 2.693471 1_544
Pd2 Sb0 2.724103 1_545
Pd2 Sb11 2.724103 1_554
Pd2 Sb5 2.741578 1_544
Pd2 Sb1 2.741578 1_555
