# generated using pymatgen
data_TiGe2Mo5
_symmetry_space_group_name_H-M   'P 1'
_cell_length_a   4.89251788
_cell_length_b   4.96320265
_cell_length_c   4.96320265
_cell_angle_alpha   90.00000000
_cell_angle_beta   90.00000000
_cell_angle_gamma   90.00000000
_symmetry_Int_Tables_number   1
_chemical_formula_structural   TiGe2Mo5
_chemical_formula_sum   'Ti1 Ge2 Mo5'
_cell_volume   120.51925491
_cell_formula_units_Z   1
loop_
 _symmetry_equiv_pos_site_id
 _symmetry_equiv_pos_as_xyz
  1  'x, y, z'
loop_
 _atom_site_type_symbol
 _atom_site_label
 _atom_site_symmetry_multiplicity
 _atom_site_fract_x
 _atom_site_fract_y
 _atom_site_fract_z
 _atom_site_occupancy
  Ti  Ti0  1  0.25000000  0.00000000  0.50000000  1
  Ge  Ge0  1  0.00566958  0.00000000  0.00000000  1
  Ge  Ge1  1  0.49433042  0.50000000  0.50000000  1
  Mo  Mo0  1  0.75000000  0.00000000  0.50000000  1
  Mo  Mo1  1  0.99761181  0.50000000  0.24922609  1
  Mo  Mo2  1  0.99761181  0.50000000  0.75077391  1
  Mo  Mo3  1  0.50238819  0.74922609  0.00000000  1
  Mo  Mo4  1  0.50238819  0.25077391  0.00000000  1
loop_
_geom_bond_atom_site_label_1
_geom_bond_atom_site_label_2
_geom_bond_distance
_geom_bond_site_symmetry_2
Ge0 Mo4 2.730390 1_555
Ge0 Mo3 2.730390 1_545
Ge0 Ti0 2.754506 1_555
Ge0 Ti0 2.754506 1_554
Ge0 Mo4 2.759007 1_455
Ge0 Mo3 2.759007 1_445
Ge0 Mo1 2.773079 1_455
Ge0 Mo2 2.773079 1_454
Ge0 Mo1 2.773079 1_445
Ge0 Mo2 2.773079 1_444
Ge0 Mo0 2.779031 1_455
Ge0 Mo0 2.779031 1_454
Ge1 Mo1 2.730390 1_455
Ge1 Mo2 2.730390 1_455
Ge1 Ti0 2.754506 1_555
Ge1 Ti0 2.754506 1_565
Ge1 Mo1 2.759007 1_555
Ge1 Mo2 2.759007 1_555
Ge1 Mo4 2.773079 1_556
Ge1 Mo3 2.773079 1_555
Ge1 Mo3 2.773079 1_556
Ge1 Mo4 2.773079 1_555
Ge1 Mo0 2.779031 1_565
Ge1 Mo0 2.779031 1_555
Mo0 Ti0 2.446259 1_555
Mo0 Ti0 2.446259 1_655
Mo0 Mo2 3.029039 1_545
Mo0 Mo1 3.029039 1_545
Mo0 Mo1 3.029039 1_555
Mo0 Mo2 3.029039 1_555
Mo0 Mo3 3.029039 1_545
Mo0 Mo4 3.029039 1_556
Mo0 Mo4 3.029039 1_555
Mo0 Mo3 3.029039 1_546
Mo1 Mo2 2.473919 1_554
Mo1 Mo2 2.489284 1_555
Mo1 Mo3 2.988400 1_555
Mo1 Mo4 2.988400 1_555
Mo1 Mo4 3.026417 1_655
Mo1 Mo3 3.026417 1_655
Mo1 Ti0 3.038461 1_665
Mo1 Ti0 3.038461 1_655
Mo2 Mo4 2.988400 1_556
Mo2 Mo3 2.988400 1_556
Mo2 Mo3 3.026417 1_656
Mo2 Mo4 3.026417 1_656
Mo2 Ti0 3.038461 1_665
Mo2 Ti0 3.038461 1_655
Mo3 Mo4 2.473919 1_555
Mo3 Mo4 2.489284 1_565
Mo3 Ti0 3.038461 1_565
Mo3 Ti0 3.038461 1_564
Mo4 Ti0 3.038461 1_555
Mo4 Ti0 3.038461 1_554
