# generated using pymatgen
data_Na6AlCrH12
_symmetry_space_group_name_H-M   'P 1'
_cell_length_a   5.45820005
_cell_length_b   5.34754812
_cell_length_c   9.29710222
_cell_angle_alpha   54.86541892
_cell_angle_beta   89.79087443
_cell_angle_gamma   89.57965014
_symmetry_Int_Tables_number   1
_chemical_formula_structural   Na6AlCrH12
_chemical_formula_sum   'Na6 Al1 Cr1 H12'
_cell_volume   221.91589347
_cell_formula_units_Z   1
loop_
 _symmetry_equiv_pos_site_id
 _symmetry_equiv_pos_as_xyz
  1  'x, y, z'
loop_
 _atom_site_type_symbol
 _atom_site_label
 _atom_site_symmetry_multiplicity
 _atom_site_fract_x
 _atom_site_fract_y
 _atom_site_fract_z
 _atom_site_occupancy
  Na  Na0  1  0.00000000  0.50000000  0.50000000  1
  Na  Na1  1  0.50000000  0.50000000  0.00000000  1
  Na  Na2  1  0.04081768  0.26121673  0.24968408  1
  Na  Na3  1  0.53354696  0.74620472  0.25266844  1
  Na  Na4  1  0.95918232  0.73878327  0.75031592  1
  Na  Na5  1  0.46645304  0.25379528  0.74733156  1
  Al  Al0  1  0.50000000  0.00000000  0.50000000  1
  Cr  Cr0  1  0.00000000  0.00000000  0.00000000  1
  H  H0  1  0.22621830  0.79351726  0.54719057  1
  H  H1  1  0.74607553  0.23499148  0.93813895  1
  H  H2  1  0.77378170  0.20648274  0.45280943  1
  H  H3  1  0.25392447  0.76500852  0.06186105  1
  H  H4  1  0.18263705  0.29769149  0.95637084  1
  H  H5  1  0.66496455  0.68778436  0.53479459  1
  H  H6  1  0.81736295  0.70230851  0.04362916  1
  H  H7  1  0.33503545  0.31221564  0.46520541  1
  H  H8  1  0.04344908  0.11663335  0.78572665  1
  H  H9  1  0.53760227  0.85776778  0.72079916  1
  H  H10  1  0.95655092  0.88336665  0.21427335  1
  H  H11  1  0.46239773  0.14223222  0.27920084  1
loop_
_geom_bond_atom_site_label_1
_geom_bond_atom_site_label_2
_geom_bond_distance
_geom_bond_site_symmetry_2
Al0 H11 1.743063 1_555
Al0 H9 1.743063 1_545
Al0 H7 1.749665 1_555
Al0 H5 1.749665 1_545
Al0 H2 1.762562 1_555
Al0 H0 1.762562 1_545
Cr0 H4 1.723252 1_554
Cr0 H6 1.723252 1_445
Cr0 H3 1.726040 1_545
Cr0 H1 1.726040 1_454
Cr0 H10 1.726966 1_445
Cr0 H8 1.726966 1_554
H0 Na0 2.237350 1_555
H0 Na4 2.264152 1_455
H1 Na1 2.246690 1_556
H1 Na5 2.301874 1_555
H1 Na4 2.505308 1_555
H2 Na0 2.237350 1_655
H2 Na2 2.264152 1_655
H3 Na1 2.246690 1_555
H3 Na3 2.301874 1_555
H3 Na2 2.505308 1_555
H4 Na1 2.207550 1_556
H4 Na4 2.344163 1_455
H4 Na5 2.594166 1_555
H5 Na0 2.190839 1_655
H5 Na5 2.281999 1_555
H5 Na3 2.561114 1_555
H6 Na1 2.207550 1_555
H6 Na2 2.344163 1_655
H6 Na3 2.594166 1_555
H7 Na0 2.190839 1_555
H7 Na3 2.281999 1_555
H7 Na5 2.561114 1_555
H8 Na0 2.246093 1_555
H8 Na4 2.276628 1_445
H8 Na5 2.390320 1_555
H9 Na1 2.173979 1_556
H9 Na5 2.298946 1_565
H9 Na4 2.357376 1_555
H10 Na0 2.246093 1_655
H10 Na2 2.276628 1_665
H10 Na3 2.390320 1_555
H11 Na1 2.173979 1_555
H11 Na3 2.298946 1_545
H11 Na2 2.357376 1_555
