# generated using pymatgen
data_Ti13Mn2(Al3Rh2)3
_symmetry_space_group_name_H-M   'P 1'
_cell_length_a   8.64317582
_cell_length_b   8.64317552
_cell_length_c   8.64317534
_cell_angle_alpha   59.76015701
_cell_angle_beta   59.76015905
_cell_angle_gamma   59.76016737
_symmetry_Int_Tables_number   1
_chemical_formula_structural   Ti13Mn2(Al3Rh2)3
_chemical_formula_sum   'Ti13 Mn2 Al9 Rh6'
_cell_volume   454.08109512
_cell_formula_units_Z   1
loop_
 _symmetry_equiv_pos_site_id
 _symmetry_equiv_pos_as_xyz
  1  'x, y, z'
loop_
 _atom_site_type_symbol
 _atom_site_label
 _atom_site_symmetry_multiplicity
 _atom_site_fract_x
 _atom_site_fract_y
 _atom_site_fract_z
 _atom_site_occupancy
  Ti  Ti0  1  0.20793782  0.20793782  0.79287846  1
  Ti  Ti1  1  0.79287846  0.20793782  0.20793782  1
  Ti  Ti2  1  0.20793782  0.79287846  0.20793782  1
  Ti  Ti3  1  0.80505716  0.80505716  0.17762615  1
  Ti  Ti4  1  0.17762615  0.80505716  0.80505716  1
  Ti  Ti5  1  0.80505716  0.17762615  0.80505716  1
  Ti  Ti6  1  0.38202653  0.38202653  0.38202653  1
  Ti  Ti7  1  0.38332784  0.85597899  0.38332784  1
  Ti  Ti8  1  0.85597899  0.38332784  0.38332784  1
  Ti  Ti9  1  0.38332784  0.38332784  0.85597899  1
  Ti  Ti10  1  0.84502941  0.46546409  0.84502941  1
  Ti  Ti11  1  0.46546409  0.84502941  0.84502941  1
  Ti  Ti12  1  0.84502941  0.84502941  0.46546409  1
  Mn  Mn0  1  0.49979310  0.49979310  0.49979310  1
  Mn  Mn1  1  0.00389094  0.00389094  0.00389094  1
  Al  Al0  1  0.15418985  0.15418985  0.15418985  1
  Al  Al1  1  0.15922457  0.52903615  0.15922457  1
  Al  Al2  1  0.52903615  0.15922457  0.15922457  1
  Al  Al3  1  0.15922457  0.15922457  0.52903615  1
  Al  Al4  1  0.61666920  0.61666920  0.61666920  1
  Al  Al5  1  0.61805803  0.14967239  0.61805803  1
  Al  Al6  1  0.14967239  0.61805803  0.61805803  1
  Al  Al7  1  0.61805803  0.61805803  0.14967239  1
  Al  Al8  1  0.82790277  0.82790277  0.82790277  1
  Rh  Rh0  1  0.00352311  0.00352311  0.49866689  1
  Rh  Rh1  1  0.49866689  0.00352311  0.00352311  1
  Rh  Rh2  1  0.00352311  0.49866689  0.00352311  1
  Rh  Rh3  1  0.50083425  0.50083425  0.00022011  1
  Rh  Rh4  1  0.00022011  0.50083425  0.50083425  1
  Rh  Rh5  1  0.50083425  0.00022011  0.50083425  1
loop_
_geom_bond_atom_site_label_1
_geom_bond_atom_site_label_2
_geom_bond_distance
_geom_bond_site_symmetry_2
Ti0 Ti11 2.747812 1_545
Ti0 Ti10 2.747813 1_455
Ti0 Ti6 2.941908 1_555
Ti0 Ti9 2.978877 1_555
Ti1 Ti10 2.747812 1_554
Ti1 Ti12 2.747812 1_545
Ti1 Ti6 2.941909 1_555
Ti1 Ti8 2.978877 1_555
Ti2 Ti6 2.941908 1_555
Ti2 Ti7 2.978877 1_555
Ti3 Ti8 3.047293 1_555
Ti3 Ti7 3.047293 1_555
Ti4 Ti7 3.047292 1_555
Ti4 Ti9 3.047293 1_555
Ti5 Ti8 3.047292 1_555
Ti5 Ti9 3.047293 1_555
Ti10 Ti5 2.877454 1_555
Ti11 Ti2 2.747812 1_556
Ti11 Ti4 2.877454 1_555
Ti12 Ti2 2.747812 1_655
Ti12 Ti3 2.877454 1_555
Mn0 Ti6 2.497789 1_555
Mn0 Ti9 2.506397 1_555
Mn0 Ti7 2.506397 1_555
Mn0 Ti8 2.506398 1_555
Mn1 Ti3 2.436788 1_445
Mn1 Ti5 2.436788 1_454
Mn1 Ti4 2.436788 1_544
Mn1 Ti0 2.490025 1_554
Mn1 Ti2 2.490025 1_545
Mn1 Ti1 2.490025 1_455
Al0 Rh0 2.480697 1_555
Al0 Rh2 2.480698 1_555
Al0 Rh1 2.480698 1_555
Al0 Ti0 2.734750 1_554
Al0 Ti2 2.734751 1_545
Al0 Ti1 2.734751 1_455
Al0 Ti9 2.855782 1_554
Al0 Ti7 2.855782 1_545
Al0 Ti8 2.855783 1_455
Al1 Rh4 2.488229 1_555
Al1 Rh3 2.488229 1_555
Al1 Rh2 2.495353 1_555
Al1 Ti4 2.761042 1_554
Al1 Ti3 2.761042 1_455
Al1 Ti2 2.769059 1_555
Al1 Ti6 2.799522 1_555
Al1 Ti8 2.821647 1_455
Al1 Ti9 2.821647 1_554
Al2 Rh5 2.488229 1_555
Al2 Rh3 2.488229 1_555
Al2 Rh1 2.495353 1_555
Al2 Ti5 2.761042 1_554
Al2 Ti3 2.761042 1_545
Al2 Ti1 2.769059 1_555
Al2 Ti6 2.799522 1_555
Al2 Ti7 2.821647 1_545
Al2 Ti9 2.821647 1_554
Al3 Rh4 2.488229 1_555
Al3 Rh5 2.488230 1_555
Al3 Rh0 2.495353 1_555
Al3 Ti4 2.761042 1_545
Al3 Ti5 2.761042 1_455
Al3 Ti0 2.769059 1_555
Al3 Ti6 2.799522 1_555
Al3 Ti7 2.821647 1_545
Al3 Ti8 2.821647 1_455
Al4 Mn0 2.478903 1_555
Al4 Rh3 2.705203 1_556
Al4 Rh5 2.705204 1_565
Al4 Rh4 2.705204 1_655
Al4 Ti9 2.847235 1_555
Al4 Ti7 2.847235 1_555
Al4 Ti8 2.847235 1_555
Al4 Ti12 2.868274 1_555
Al4 Ti10 2.868274 1_555
Al4 Ti11 2.868274 1_555
Al4 Ti3 3.150519 1_555
Al4 Ti5 3.150519 1_555
Al4 Ti4 3.150519 1_555
Al5 Mn0 2.463409 1_555
Al5 Rh1 2.715040 1_556
Al5 Rh0 2.715040 1_655
Al5 Rh5 2.718855 1_555
Al5 Al8 2.732362 1_545
Al5 Ti11 2.865318 1_545
Al5 Ti12 2.865318 1_545
Al5 Ti8 2.877006 1_555
Al5 Ti9 2.877007 1_555
Al5 Ti6 2.880194 1_555
Al5 Ti1 2.945407 1_555
Al5 Ti0 2.945408 1_555
Al5 Ti5 2.949730 1_555
Al6 Mn0 2.463409 1_555
Al6 Rh2 2.715040 1_556
Al6 Rh0 2.715040 1_565
Al6 Rh4 2.718855 1_555
Al6 Al8 2.732362 1_455
Al6 Ti10 2.865318 1_455
Al6 Ti12 2.865318 1_455
Al6 Ti7 2.877006 1_555
Al6 Ti9 2.877007 1_555
Al6 Ti6 2.880194 1_555
Al6 Ti2 2.945407 1_555
Al6 Ti0 2.945407 1_555
Al6 Ti4 2.949730 1_555
Al7 Mn0 2.463409 1_555
Al7 Rh1 2.715040 1_565
Al7 Rh2 2.715040 1_655
Al7 Rh3 2.718855 1_555
Al7 Al8 2.732361 1_554
Al7 Ti11 2.865318 1_554
Al7 Ti10 2.865318 1_554
Al7 Ti8 2.877007 1_555
Al7 Ti7 2.877007 1_555
Al7 Ti6 2.880193 1_555
Al7 Ti1 2.945408 1_555
Al7 Ti2 2.945408 1_555
Al7 Ti3 2.949730 1_555
Al8 Rh0 2.514981 1_665
Al8 Rh2 2.514981 1_656
Al8 Rh1 2.514981 1_566
Al8 Ti3 2.837556 1_556
Al8 Ti5 2.837556 1_565
Al8 Ti4 2.837556 1_655
Al8 Ti12 2.990829 1_555
Al8 Ti10 2.990829 1_555
Al8 Ti11 2.990829 1_555
Rh0 Ti12 2.552975 1_445
Rh0 Ti8 2.676560 1_455
Rh0 Ti7 2.676561 1_545
Rh0 Ti4 3.009678 1_545
Rh0 Ti5 3.009678 1_455
Rh0 Ti1 3.105939 1_455
Rh0 Ti2 3.105939 1_545
Rh1 Ti11 2.552975 1_544
Rh1 Ti7 2.676560 1_545
Rh1 Ti9 2.676560 1_554
Rh1 Ti5 3.009678 1_554
Rh1 Ti3 3.009678 1_545
Rh1 Ti2 3.105939 1_545
Rh1 Ti0 3.105939 1_554
Rh2 Ti10 2.552975 1_454
Rh2 Ti8 2.676560 1_455
Rh2 Ti9 2.676561 1_554
Rh2 Ti4 3.009678 1_554
Rh2 Ti3 3.009678 1_455
Rh2 Ti1 3.105939 1_455
Rh2 Ti0 3.105939 1_554
Rh3 Ti11 2.494111 1_554
Rh3 Ti10 2.494111 1_554
Rh3 Ti9 2.684576 1_554
Rh3 Ti6 2.689737 1_555
Rh3 Ti1 3.090928 1_555
Rh3 Ti2 3.090928 1_555
Rh4 Ti10 2.494111 1_455
Rh4 Ti12 2.494111 1_455
Rh4 Ti8 2.684576 1_455
Rh4 Ti6 2.689738 1_555
Rh4 Ti2 3.090927 1_555
Rh4 Ti0 3.090928 1_555
Rh5 Ti11 2.494111 1_545
Rh5 Ti12 2.494111 1_545
Rh5 Ti7 2.684576 1_545
Rh5 Ti6 2.689738 1_555
Rh5 Ti1 3.090927 1_555
Rh5 Ti0 3.090928 1_555
