# generated using pymatgen
data_K2CaCdBi2
_symmetry_space_group_name_H-M   'P 1'
_cell_length_a   5.06833554
_cell_length_b   5.06833554
_cell_length_c   8.57235091
_cell_angle_alpha   90.00000000
_cell_angle_beta   90.00000000
_cell_angle_gamma   90.00000000
_symmetry_Int_Tables_number   1
_chemical_formula_structural   K2CaCdBi2
_chemical_formula_sum   'K2 Ca1 Cd1 Bi2'
_cell_volume   220.20676583
_cell_formula_units_Z   1
loop_
 _symmetry_equiv_pos_site_id
 _symmetry_equiv_pos_as_xyz
  1  'x, y, z'
loop_
 _atom_site_type_symbol
 _atom_site_label
 _atom_site_symmetry_multiplicity
 _atom_site_fract_x
 _atom_site_fract_y
 _atom_site_fract_z
 _atom_site_occupancy
  K  K0  1  0.50000000  0.00000000  0.85099666  1
  K  K1  1  0.00000000  0.50000000  0.14900334  1
  Ca  Ca0  1  0.00000000  0.00000000  0.50000000  1
  Cd  Cd0  1  0.50000000  0.50000000  0.50000000  1
  Bi  Bi0  1  0.50000000  0.00000000  0.28392881  1
  Bi  Bi1  1  0.00000000  0.50000000  0.71607119  1
loop_
_geom_bond_atom_site_label_1
_geom_bond_atom_site_label_2
_geom_bond_distance
_geom_bond_site_symmetry_2
K0 K1 4.401146 1_546
K0 K1 4.401146 1_656
K0 K1 4.401146 1_646
K0 K1 4.401146 1_556
Ca0 Cd0 3.583854 1_545
Ca0 Cd0 3.583854 1_555
Ca0 Cd0 3.583854 1_445
Ca0 Cd0 3.583854 1_455
Ca0 K0 3.933864 1_455
Ca0 K0 3.933864 1_555
Ca0 K1 3.933864 1_545
Ca0 K1 3.933864 1_555
Cd0 K0 3.933864 1_555
Cd0 K0 3.933864 1_565
Cd0 K1 3.933864 1_655
Cd0 K1 3.933864 1_555
Bi0 Ca0 3.138916 1_555
Bi0 Cd0 3.138916 1_545
Bi0 Cd0 3.138916 1_555
Bi0 Ca0 3.138916 1_655
Bi0 K0 3.711246 1_554
Bi0 K1 3.765873 1_645
Bi0 K1 3.765873 1_555
Bi0 K1 3.765873 1_545
Bi0 K1 3.765873 1_655
Bi1 Ca0 3.138916 1_565
Bi1 Cd0 3.138916 1_455
Bi1 Cd0 3.138916 1_555
Bi1 Ca0 3.138916 1_555
Bi1 K1 3.711246 1_556
Bi1 K0 3.765873 1_465
Bi1 K0 3.765873 1_565
Bi1 K0 3.765873 1_555
Bi1 K0 3.765873 1_455
