# generated using pymatgen
data_NbIn2(Ni10B3)2
_symmetry_space_group_name_H-M   'P 1'
_cell_length_a   7.47246846
_cell_length_b   7.47246808
_cell_length_c   7.47246866
_cell_angle_alpha   60.00000176
_cell_angle_beta   60.00000345
_cell_angle_gamma   60.00000311
_symmetry_Int_Tables_number   1
_chemical_formula_structural   NbIn2(Ni10B3)2
_chemical_formula_sum   'Nb1 In2 Ni20 B6'
_cell_volume   295.03754828
_cell_formula_units_Z   1
loop_
 _symmetry_equiv_pos_site_id
 _symmetry_equiv_pos_as_xyz
  1  'x, y, z'
loop_
 _atom_site_type_symbol
 _atom_site_label
 _atom_site_symmetry_multiplicity
 _atom_site_fract_x
 _atom_site_fract_y
 _atom_site_fract_z
 _atom_site_occupancy
  Nb  Nb0  1  0.00000000  0.00000000  0.00000000  1
  In  In0  1  0.25000000  0.25000000  0.25000000  1
  In  In1  1  0.75000000  0.75000000  0.75000000  1
  Ni  Ni0  1  0.38645110  0.38645110  0.38645110  1
  Ni  Ni1  1  0.61354890  0.61354890  0.61354890  1
  Ni  Ni2  1  0.38645110  0.38645110  0.84064570  1
  Ni  Ni3  1  0.38645110  0.84064570  0.38645110  1
  Ni  Ni4  1  0.61354890  0.61354890  0.15935430  1
  Ni  Ni5  1  0.61354890  0.15935430  0.61354890  1
  Ni  Ni6  1  0.84064570  0.38645110  0.38645110  1
  Ni  Ni7  1  0.15935430  0.61354890  0.61354890  1
  Ni  Ni8  1  0.34026262  1.00000000  1.00000000  1
  Ni  Ni9  1  0.65973738  0.00000000  0.00000000  1
  Ni  Ni10  1  0.00000000  0.34026262  0.65973738  1
  Ni  Ni11  1  1.00000000  0.65973738  0.34026262  1
  Ni  Ni12  1  1.00000000  0.34026262  0.00000000  1
  Ni  Ni13  1  0.65973738  0.00000000  0.34026262  1
  Ni  Ni14  1  0.00000000  0.65973738  1.00000000  1
  Ni  Ni15  1  0.34026262  0.00000000  0.65973738  1
  Ni  Ni16  1  1.00000000  1.00000000  0.34026262  1
  Ni  Ni17  1  0.00000000  0.00000000  0.65973738  1
  Ni  Ni18  1  0.65973738  0.34026262  0.00000000  1
  Ni  Ni19  1  0.34026262  0.65973738  1.00000000  1
  B  B0  1  0.72839725  0.27160275  0.27160275  1
  B  B1  1  0.27160275  0.72839725  0.72839725  1
  B  B2  1  0.27160275  0.72839725  0.27160275  1
  B  B3  1  0.72839725  0.27160275  0.72839725  1
  B  B4  1  0.27160275  0.27160275  0.72839725  1
  B  B5  1  0.72839725  0.72839725  0.27160275  1
loop_
_geom_bond_atom_site_label_1
_geom_bond_atom_site_label_2
_geom_bond_distance
_geom_bond_site_symmetry_2
Nb0 Ni12 2.542602 1_455
Nb0 Ni14 2.542602 1_544
Nb0 Ni8 2.542602 1_544
Nb0 Ni9 2.542602 1_455
Nb0 Ni11 2.542602 1_445
Nb0 Ni10 2.542602 1_554
Nb0 Ni18 2.542602 1_455
Nb0 Ni19 2.542602 1_544
Nb0 Ni16 2.542602 1_445
Nb0 Ni17 2.542602 1_554
Nb0 Ni13 2.542602 1_455
Nb0 Ni15 2.542602 1_554
In0 Ni0 2.497565 1_555
In0 Ni3 2.497571 1_545
In0 Ni6 2.497571 1_455
In0 Ni2 2.497571 1_554
In0 Ni16 2.899048 1_445
In0 Ni19 2.899048 1_554
In0 Ni11 2.899048 1_455
In0 Ni8 2.899048 1_544
In0 Ni12 2.899048 1_455
In0 Ni14 2.899048 1_554
In0 Ni18 2.899048 1_555
In0 Ni13 2.899048 1_555
In0 Ni17 2.899049 1_555
In0 Ni15 2.899049 1_555
In0 Ni9 2.899049 1_555
In0 Ni10 2.899049 1_555
In1 Ni1 2.497565 1_555
In1 Ni5 2.497571 1_565
In1 Ni7 2.497571 1_655
In1 Ni4 2.497571 1_556
In1 Ni17 2.899048 1_665
In1 Ni18 2.899048 1_556
In1 Ni10 2.899048 1_655
In1 Ni9 2.899048 1_566
In1 Ni14 2.899048 1_655
In1 Ni12 2.899048 1_556
In1 Ni19 2.899048 1_555
In1 Ni15 2.899048 1_565
In1 Ni16 2.899049 1_555
In1 Ni13 2.899049 1_565
In1 Ni8 2.899049 1_555
In1 Ni11 2.899049 1_555
B0 Ni6 2.086321 1_555
B0 Ni4 2.086327 1_555
B0 Ni0 2.086327 1_555
B0 Ni5 2.086327 1_555
B0 Ni13 2.093388 1_555
B0 Ni16 2.093388 1_545
B0 Ni18 2.093388 1_555
B0 Ni12 2.093388 1_555
B1 Ni7 2.086321 1_555
B1 Ni2 2.086327 1_555
B1 Ni1 2.086327 1_555
B1 Ni3 2.086327 1_555
B1 Ni15 2.093388 1_565
B1 Ni17 2.093388 1_565
B1 Ni19 2.093388 1_555
B1 Ni14 2.093388 1_555
B2 Ni3 2.086321 1_555
B2 Ni0 2.086327 1_555
B2 Ni4 2.086327 1_555
B2 Ni7 2.086327 1_555
B2 Ni11 2.093388 1_455
B2 Ni8 2.093388 1_554
B2 Ni16 2.093388 1_455
B2 Ni19 2.093388 1_554
B3 Ni5 2.086321 1_555
B3 Ni1 2.086327 1_555
B3 Ni2 2.086327 1_555
B3 Ni6 2.086327 1_555
B3 Ni10 2.093388 1_655
B3 Ni9 2.093388 1_556
B3 Ni17 2.093388 1_655
B3 Ni18 2.093388 1_556
B4 Ni2 2.086321 1_555
B4 Ni7 2.086327 1_555
B4 Ni0 2.086327 1_555
B4 Ni5 2.086327 1_555
B4 Ni15 2.093388 1_555
B4 Ni10 2.093388 1_555
B4 Ni8 2.093388 1_545
B4 Ni12 2.093388 1_456
B5 Ni4 2.086321 1_555
B5 Ni6 2.086327 1_555
B5 Ni1 2.086327 1_555
B5 Ni3 2.086327 1_555
B5 Ni13 2.093388 1_565
B5 Ni11 2.093388 1_555
B5 Ni9 2.093388 1_565
B5 Ni14 2.093388 1_654
