# generated using pymatgen
data_AlSb2(SCl2)2
_symmetry_space_group_name_H-M   'P 1'
_cell_length_a   9.24400127
_cell_length_b   11.10424545
_cell_length_c   11.65008598
_cell_angle_alpha   67.45290392
_cell_angle_beta   80.04341655
_cell_angle_gamma   73.28112274
_symmetry_Int_Tables_number   1
_chemical_formula_structural   AlSb2(SCl2)2
_chemical_formula_sum   'Al4 Sb8 S8 Cl16'
_cell_volume   1055.10913866
_cell_formula_units_Z   4
loop_
 _symmetry_equiv_pos_site_id
 _symmetry_equiv_pos_as_xyz
  1  'x, y, z'
loop_
 _atom_site_type_symbol
 _atom_site_label
 _atom_site_symmetry_multiplicity
 _atom_site_fract_x
 _atom_site_fract_y
 _atom_site_fract_z
 _atom_site_occupancy
  Al  Al0  1  0.81359300  0.31663036  0.55278433  1
  Al  Al1  1  0.18640700  0.68336964  0.44721567  1
  Al  Al2  1  0.89589747  0.81032378  0.04011366  1
  Al  Al3  1  0.10410253  0.18967622  0.95988634  1
  Sb  Sb0  1  0.34885020  0.98806324  0.42457240  1
  Sb  Sb1  1  0.65114980  0.01193676  0.57542760  1
  Sb  Sb2  1  0.55333923  0.63126093  0.67456219  1
  Sb  Sb3  1  0.44666077  0.36873907  0.32543781  1
  Sb  Sb4  1  0.54892820  0.85694141  0.83210507  1
  Sb  Sb5  1  0.45107180  0.14305859  0.16789493  1
  Sb  Sb6  1  0.70194422  0.44039595  0.01063105  1
  Sb  Sb7  1  0.29805578  0.55960405  0.98936895  1
  S  S0  1  0.60875059  0.84881541  0.48545430  1
  S  S1  1  0.39124941  0.15118459  0.51454570  1
  S  S2  1  0.35212959  0.78067676  0.76787795  1
  S  S3  1  0.64787041  0.21932324  0.23212205  1
  S  S4  1  0.73785520  0.65871682  0.79301479  1
  S  S5  1  0.26214480  0.34128318  0.20698521  1
  S  S6  1  0.51045712  0.40708151  0.90612021  1
  S  S7  1  0.48954288  0.59291849  0.09387979  1
  Cl  Cl0  1  0.74444301  0.43377942  0.36748224  1
  Cl  Cl1  1  0.25555699  0.56622058  0.63251776  1
  Cl  Cl2  1  0.61714168  0.24737485  0.66042684  1
  Cl  Cl3  1  0.38285832  0.75262515  0.33957316  1
  Cl  Cl4  1  0.86623826  0.44420797  0.63138489  1
  Cl  Cl5  1  0.13376174  0.55579203  0.36861511  1
  Cl  Cl6  1  0.99732995  0.15080623  0.55222481  1
  Cl  Cl7  1  0.00267005  0.84919377  0.44777519  1
  Cl  Cl8  1  0.89628037  0.60451621  0.08178855  1
  Cl  Cl9  1  0.10371963  0.39548379  0.91821145  1
  Cl  Cl10  1  0.84960895  0.91676577  0.84698409  1
  Cl  Cl11  1  0.15039105  0.08323423  0.15301591  1
  Cl  Cl12  1  0.12160394  0.81484737  0.05832617  1
  Cl  Cl13  1  0.87839606  0.18515263  0.94167383  1
  Cl  Cl14  1  0.73144864  0.88694783  0.16344857  1
  Cl  Cl15  1  0.26855136  0.11305217  0.83655143  1
loop_
_geom_bond_atom_site_label_1
_geom_bond_atom_site_label_2
_geom_bond_distance
_geom_bond_site_symmetry_2
Al0 Cl6 2.116927 1_555
Al0 Cl0 2.146235 1_555
Al0 Cl4 2.151241 1_555
Al0 Cl2 2.176762 1_555
Al1 Cl7 2.116927 1_555
Al1 Cl1 2.146235 1_555
Al1 Cl5 2.151241 1_555
Al1 Cl3 2.176762 1_555
Al2 Cl14 2.130135 1_555
Al2 Cl8 2.145585 1_555
Al2 Cl12 2.149952 1_655
Al2 Cl10 2.155228 1_554
Al3 Cl15 2.130135 1_555
Al3 Cl9 2.145585 1_555
Al3 Cl13 2.149952 1_455
Al3 Cl11 2.155228 1_556
Sb0 Sb5 2.967962 1_565
Sb1 Sb4 2.967962 1_545
S0 Sb0 2.505373 1_555
S0 Sb1 2.557313 1_565
S0 Sb2 2.681839 1_555
S1 Sb1 2.505373 1_555
S1 Sb0 2.557313 1_545
S1 Sb3 2.681839 1_555
S2 Sb2 2.510510 1_555
S2 Sb4 2.535671 1_555
S2 Sb7 2.887335 1_555
S3 Sb3 2.510510 1_555
S3 Sb5 2.535671 1_555
S3 Sb6 2.887335 1_555
S4 Sb2 2.518410 1_555
S4 Sb4 2.526738 1_555
S4 Sb6 2.805965 1_556
S5 Sb3 2.518410 1_555
S5 Sb5 2.526738 1_555
S5 Sb7 2.805965 1_554
S6 Sb6 2.493999 1_556
S6 Sb7 2.520332 1_555
S6 Sb2 2.946080 1_555
S7 Sb7 2.493999 1_554
S7 Sb6 2.520332 1_555
S7 Sb3 2.946080 1_555
Cl0 Sb3 3.196917 1_555
Cl1 Sb2 3.196917 1_555
Cl2 Sb1 3.052729 1_555
Cl3 Sb0 3.052729 1_555
Cl4 Sb2 3.126501 1_555
Cl5 Sb3 3.126501 1_555
