# generated using pymatgen
data_Cs2Zr(SeO3)3
_symmetry_space_group_name_H-M   'P 1'
_cell_length_a   8.26973651
_cell_length_b   8.27066463
_cell_length_c   10.19906253
_cell_angle_alpha   90.00000000
_cell_angle_beta   90.00000000
_cell_angle_gamma   120.00003206
_symmetry_Int_Tables_number   1
_chemical_formula_structural   Cs2Zr(SeO3)3
_chemical_formula_sum   'Cs4 Zr2 Se6 O18'
_cell_volume   604.11946486
_cell_formula_units_Z   2
loop_
 _symmetry_equiv_pos_site_id
 _symmetry_equiv_pos_as_xyz
  1  'x, y, z'
loop_
 _atom_site_type_symbol
 _atom_site_label
 _atom_site_symmetry_multiplicity
 _atom_site_fract_x
 _atom_site_fract_y
 _atom_site_fract_z
 _atom_site_occupancy
  Cs  Cs0  1  0.33332953  0.66666481  0.04954386  1
  Cs  Cs1  1  0.33332953  0.66666481  0.45045614  1
  Cs  Cs2  1  0.66667147  0.33333619  0.54954386  1
  Cs  Cs3  1  0.66667147  0.33333619  0.95045614  1
  Zr  Zr0  1  0.00000000  0.00000000  0.00000000  1
  Zr  Zr1  1  0.00000000  0.00000000  0.50000000  1
  Se  Se0  1  0.75968524  0.07632600  0.25000000  1
  Se  Se1  1  0.31668580  0.24034081  0.25000000  1
  Se  Se2  1  0.92369856  0.68339963  0.25000000  1
  Se  Se3  1  0.07630144  0.31660037  0.75000000  1
  Se  Se4  1  0.68331420  0.75965919  0.75000000  1
  Se  Se5  1  0.24031476  0.92367300  0.75000000  1
  O  O0  1  0.77202178  0.94722417  0.11888801  1
  O  O1  1  0.05275862  0.82479725  0.11891174  1
  O  O2  1  0.17519038  0.22796858  0.11888451  1
  O  O3  1  0.53491604  0.01093666  0.25000000  1
  O  O4  1  0.98903223  0.52400958  0.25000000  1
  O  O5  1  0.47598442  0.46506657  0.25000000  1
  O  O6  1  0.17519038  0.22796858  0.38111549  1
  O  O7  1  0.05275862  0.82479725  0.38108826  1
  O  O8  1  0.77202178  0.94722417  0.38111199  1
  O  O9  1  0.22797822  0.05277683  0.61888801  1
  O  O10  1  0.94724138  0.17520175  0.61891174  1
  O  O11  1  0.82481062  0.77203142  0.61888451  1
  O  O12  1  0.52401658  0.53493443  0.75000000  1
  O  O13  1  0.01096777  0.47599042  0.75000000  1
  O  O14  1  0.46508396  0.98906334  0.75000000  1
  O  O15  1  0.94724138  0.17520175  0.88108826  1
  O  O16  1  0.82481062  0.77203142  0.88111649  1
  O  O17  1  0.22797822  0.05277683  0.88111199  1
loop_
_geom_bond_atom_site_label_1
_geom_bond_atom_site_label_2
_geom_bond_distance
_geom_bond_site_symmetry_2
Cs0 O5 3.212264 1_555
Cs0 O4 3.212378 1_455
Cs0 O3 3.212421 1_565
Cs0 O0 3.260028 1_555
Cs0 O1 3.260237 1_555
Cs0 O2 3.260374 1_555
Cs1 O5 3.212264 1_555
Cs1 O4 3.212378 1_455
Cs1 O3 3.212421 1_565
Cs1 O8 3.260028 1_555
Cs1 O7 3.260237 1_555
Cs1 O6 3.260374 1_555
Cs2 O12 3.212264 1_555
Cs2 O13 3.212373 1_655
Cs2 O14 3.212427 1_545
Cs2 O9 3.260035 1_555
Cs2 O10 3.260242 1_555
Cs2 O11 3.260367 1_555
Cs3 O12 3.212264 1_555
Cs3 O13 3.212373 1_655
Cs3 O14 3.212427 1_545
Cs3 O17 3.260035 1_555
Cs3 O15 3.260242 1_555
Cs3 O16 3.260364 1_555
O0 Se0 1.745739 1_565
O0 Zr0 2.095781 1_665
O1 Se2 1.745306 1_455
O1 Zr0 2.095986 1_565
O2 Se1 1.745907 1_555
O2 Zr0 2.095821 1_555
O3 Se0 1.655988 1_555
O4 Se2 1.655891 1_555
O5 Se1 1.655735 1_555
O6 Se1 1.745907 1_555
O6 Zr1 2.095821 1_555
O7 Se2 1.745306 1_455
O7 Zr1 2.095986 1_565
O8 Se0 1.745739 1_565
O8 Zr1 2.095781 1_665
O9 Se5 1.745749 1_545
O9 Zr1 2.095779 1_555
O10 Se3 1.745309 1_655
O10 Zr1 2.095979 1_655
O11 Se4 1.745912 1_555
O11 Zr1 2.095819 1_665
O12 Se4 1.655727 1_555
O13 Se3 1.655891 1_555
O14 Se5 1.655986 1_555
O15 Se3 1.745309 1_655
O15 Zr0 2.095979 1_656
O16 Se4 1.745920 1_555
O16 Zr0 2.095813 1_666
O17 Se5 1.745749 1_545
O17 Zr0 2.095779 1_556
