# generated using pymatgen
data_Cs12V3AsSe16
_symmetry_space_group_name_H-M   'P 1'
_cell_length_a   10.17421369
_cell_length_b   10.18775515
_cell_length_c   11.99581326
_cell_angle_alpha   90.00000000
_cell_angle_beta   90.00000000
_cell_angle_gamma   90.23104567
_symmetry_Int_Tables_number   1
_chemical_formula_structural   Cs12V3AsSe16
_chemical_formula_sum   'Cs12 V3 As1 Se16'
_cell_volume   1243.38470023
_cell_formula_units_Z   1
loop_
 _symmetry_equiv_pos_site_id
 _symmetry_equiv_pos_as_xyz
  1  'x, y, z'
loop_
 _atom_site_type_symbol
 _atom_site_label
 _atom_site_symmetry_multiplicity
 _atom_site_fract_x
 _atom_site_fract_y
 _atom_site_fract_z
 _atom_site_occupancy
  Cs  Cs0  1  0.54476655  0.70416756  0.03836944  1
  Cs  Cs1  1  0.04341906  0.79162339  0.45665607  1
  Cs  Cs2  1  0.45880912  0.29622401  0.53887147  1
  Cs  Cs3  1  0.95566878  0.20427798  0.95948434  1
  Cs  Cs4  1  0.45880912  0.29622401  0.96112853  1
  Cs  Cs5  1  0.95566878  0.20427798  0.54051566  1
  Cs  Cs6  1  0.54476655  0.70416756  0.46163056  1
  Cs  Cs7  1  0.04341906  0.79162339  0.04334393  1
  Cs  Cs8  1  0.34696206  0.09595157  0.25000000  1
  Cs  Cs9  1  0.85275372  0.40840324  0.25000000  1
  Cs  Cs10  1  0.64855439  0.91009447  0.75000000  1
  Cs  Cs11  1  0.14931664  0.59076707  0.75000000  1
  V  V0  1  0.27968735  0.52104717  0.25000000  1
  V  V1  1  0.77394776  0.97907332  0.25000000  1
  V  V2  1  0.72315489  0.48047565  0.75000000  1
  As  As0  1  0.22282217  0.02035800  0.75000000  1
  Se  Se0  1  0.29393708  0.74441152  0.25000000  1
  Se  Se1  1  0.78718366  0.75603715  0.25000000  1
  Se  Se2  1  0.70954684  0.25747036  0.75000000  1
  Se  Se3  1  0.20848387  0.24776395  0.75000000  1
  Se  Se4  1  0.48754716  0.43549319  0.25000000  1
  Se  Se5  1  0.98193011  0.06593107  0.25000000  1
  Se  Se6  1  0.51524460  0.56598421  0.75000000  1
  Se  Se7  1  0.01189222  0.92886496  0.75000000  1
  Se  Se8  1  0.17157159  0.45494093  0.09338196  1
  Se  Se9  1  0.66605223  0.04348519  0.40708105  1
  Se  Se10  1  0.83098993  0.54563099  0.59287055  1
  Se  Se11  1  0.33224198  0.95558549  0.91051287  1
  Se  Se12  1  0.83098993  0.54563099  0.90712945  1
  Se  Se13  1  0.33224198  0.95558549  0.58948713  1
  Se  Se14  1  0.17157159  0.45494093  0.40661804  1
  Se  Se15  1  0.66605223  0.04348519  0.09291895  1
loop_
_geom_bond_atom_site_label_1
_geom_bond_atom_site_label_2
_geom_bond_distance
_geom_bond_site_symmetry_2
Cs0 Se1 3.577258 1_555
Cs0 Se0 3.624100 1_555
Cs0 Se12 3.688552 1_554
Cs0 Se11 3.692308 1_554
Cs0 Se15 3.723784 1_565
Cs0 Se6 3.746317 1_554
Cs0 Se4 3.776660 1_555
Cs1 Se0 3.589319 1_555
Cs1 Se1 3.614652 1_455
Cs1 Se10 3.684846 1_455
Cs1 Se14 3.723111 1_555
Cs1 Se13 3.731581 1_555
Cs1 Se5 3.789542 1_465
Cs1 Se7 3.800536 1_555
Cs2 Se2 3.617494 1_555
Cs2 Se3 3.624150 1_555
Cs2 Se9 3.690375 1_555
Cs2 Se14 3.702723 1_555
Cs2 Se13 3.746214 1_545
Cs2 Se4 3.755422 1_555
Cs2 Se6 3.779445 1_555
Cs3 Se2 3.590259 1_555
Cs3 Se3 3.621893 1_655
Cs3 Se8 3.725755 1_656
Cs3 Se15 3.726818 1_556
Cs3 Se12 3.759385 1_555
Cs3 Se5 3.769083 1_556
Cs3 Se7 3.811528 1_645
Cs4 Se2 3.617494 1_555
Cs4 Se3 3.624150 1_555
Cs4 Se15 3.690375 1_556
Cs4 Se8 3.702723 1_556
Cs4 Se11 3.746214 1_545
Cs4 Se4 3.755422 1_556
Cs4 Se6 3.779445 1_555
Cs5 Se2 3.590259 1_555
Cs5 Se3 3.621893 1_655
Cs5 Se14 3.725755 1_655
Cs5 Se9 3.726818 1_555
Cs5 Se10 3.759385 1_555
Cs5 Se5 3.769083 1_555
Cs5 Se7 3.811528 1_645
Cs6 Se1 3.577258 1_555
Cs6 Se0 3.624100 1_555
Cs6 Se10 3.688552 1_555
Cs6 Se13 3.692308 1_555
Cs6 Se9 3.723784 1_565
Cs6 Se6 3.746317 1_555
Cs6 Se4 3.776660 1_555
Cs7 Se0 3.589319 1_555
Cs7 Se1 3.614652 1_455
Cs7 Se12 3.684846 1_454
Cs7 Se8 3.723111 1_555
Cs7 Se11 3.731581 1_554
Cs7 Se5 3.789542 1_465
Cs7 Se7 3.800536 1_554
Cs8 Se0 3.619657 1_545
Cs8 Se5 3.725255 1_455
Cs8 Se4 3.737889 1_555
Cs8 Se15 3.793422 1_555
Cs8 Se9 3.793422 1_555
Cs9 Se1 3.606536 1_555
Cs9 Se4 3.727035 1_555
Cs9 Se5 3.733304 1_555
Cs9 Se14 3.776751 1_655
Cs9 Se8 3.776751 1_655
Cs10 Se2 3.590509 1_565
Cs10 Se7 3.700849 1_655
Cs10 Se6 3.753834 1_555
Cs10 Se11 3.780384 1_555
Cs10 Se13 3.780384 1_555
Cs11 Se3 3.548295 1_555
Cs11 Se7 3.722641 1_555
Cs11 Se6 3.732596 1_555
Cs11 Se12 3.773805 1_455
Cs11 Se10 3.773805 1_455
As0 Se11 2.321251 1_545
As0 Se13 2.321251 1_545
As0 Se3 2.321932 1_555
As0 Se7 2.336281 1_545
Se0 V0 2.279612 1_555
Se1 V1 2.276767 1_555
Se2 V2 2.275581 1_555
Se4 V0 2.290629 1_555
Se5 V1 2.290331 1_545
Se6 V2 2.290926 1_555
Se8 V0 2.277569 1_555
Se9 V1 2.278624 1_545
Se10 V2 2.278438 1_555
Se12 V2 2.278438 1_555
Se14 V0 2.277569 1_555
Se15 V1 2.278624 1_545
