# generated using pymatgen
data_Li2Lu2As6Rh7
_symmetry_space_group_name_H-M   'P 1'
_cell_length_a   7.00345040
_cell_length_b   7.07283966
_cell_length_c   7.00345056
_cell_angle_alpha   109.36175217
_cell_angle_beta   109.29368710
_cell_angle_gamma   109.36175359
_symmetry_Int_Tables_number   1
_chemical_formula_structural   Li2Lu2As6Rh7
_chemical_formula_sum   'Li2 Lu2 As6 Rh7'
_cell_volume   268.35075667
_cell_formula_units_Z   1
loop_
 _symmetry_equiv_pos_site_id
 _symmetry_equiv_pos_as_xyz
  1  'x, y, z'
loop_
 _atom_site_type_symbol
 _atom_site_label
 _atom_site_symmetry_multiplicity
 _atom_site_fract_x
 _atom_site_fract_y
 _atom_site_fract_z
 _atom_site_occupancy
  Li  Li0  1  0.50000000  0.50000000  0.50000000  1
  Li  Li1  1  0.00000000  0.50000000  0.00000000  1
  Lu  Lu0  1  0.50000000  0.00000000  0.00000000  1
  Lu  Lu1  1  0.00000000  0.00000000  0.50000000  1
  As  As0  1  0.68491558  0.99987937  0.68491558  1
  As  As1  1  0.68453602  0.67194180  0.98756078  1
  As  As2  1  0.31546398  0.32805820  0.01243922  1
  As  As3  1  0.98756078  0.67194180  0.68453602  1
  As  As4  1  0.01243922  0.32805820  0.31546398  1
  As  As5  1  0.31508442  0.00012063  0.31508442  1
  Rh  Rh0  1  0.74998114  0.50000000  0.25001886  1
  Rh  Rh1  1  0.49924321  0.24857699  0.74937079  1
  Rh  Rh2  1  0.74937079  0.24857699  0.49924321  1
  Rh  Rh3  1  0.25062921  0.75142301  0.50075679  1
  Rh  Rh4  1  0.25001886  0.50000000  0.74998114  1
  Rh  Rh5  1  0.50075679  0.75142301  0.25062921  1
  Rh  Rh6  1  0.00000000  0.00000000  0.00000000  1
loop_
_geom_bond_atom_site_label_1
_geom_bond_atom_site_label_2
_geom_bond_distance
_geom_bond_site_symmetry_2
Li0 Rh4 2.855796 1_555
Li0 Rh0 2.855796 1_555
Li0 Rh3 2.876026 1_555
Li0 Rh2 2.876026 1_555
Li0 Rh5 2.876026 1_555
Li0 Rh1 2.876026 1_555
Li1 Rh0 2.856227 1_455
Li1 Rh4 2.856227 1_554
Li1 Rh5 2.875723 1_555
Li1 Rh1 2.875723 1_454
Li1 Rh3 2.875723 1_555
Li1 Rh2 2.875723 1_454
Lu0 Rh1 2.866763 1_554
Lu0 Rh5 2.866763 1_545
Lu0 Rh2 2.866884 1_555
Lu0 Rh3 2.866884 1_544
Lu0 Rh0 2.898355 1_555
Lu0 Rh4 2.898355 1_544
Lu1 Rh2 2.866763 1_455
Lu1 Rh3 2.866763 1_545
Lu1 Rh5 2.866884 1_445
Lu1 Rh1 2.866884 1_555
Lu1 Rh4 2.898355 1_555
Lu1 Rh0 2.898355 1_445
As0 Rh3 2.522551 1_555
As0 Rh5 2.522551 1_555
As0 Rh2 2.523248 1_565
As0 Rh1 2.523248 1_565
As0 Rh6 2.553143 1_666
As0 Lu1 2.904225 1_665
As0 Lu0 2.904225 1_566
As0 Li0 2.945211 1_555
As0 Li1 2.946540 1_666
As1 Rh1 2.472653 1_555
As1 Rh0 2.522442 1_556
As1 Rh4 2.523188 1_555
As1 Rh6 2.571432 1_666
As1 Rh5 2.593653 1_556
As1 Li1 2.844693 1_656
As1 Li0 2.845525 1_555
As1 Lu1 2.997433 1_666
As1 Lu0 2.998397 1_566
As2 Rh5 2.472653 1_555
As2 Rh4 2.522442 1_554
As2 Rh0 2.523188 1_555
As2 Rh6 2.571432 1_555
As2 Rh1 2.593653 1_554
As2 Li1 2.844693 1_555
As2 Li0 2.845525 1_555
As2 Lu1 2.997433 1_554
As2 Lu0 2.998397 1_555
As3 Rh2 2.472653 1_555
As3 Rh4 2.522442 1_655
As3 Rh0 2.523188 1_555
As3 Rh6 2.571432 1_666
As3 Rh3 2.593653 1_655
As3 Li1 2.844693 1_656
As3 Li0 2.845525 1_555
As3 Lu0 2.997433 1_666
As3 Lu1 2.998397 1_665
As4 Rh3 2.472653 1_555
As4 Rh0 2.522442 1_455
As4 Rh4 2.523188 1_555
As4 Rh6 2.571432 1_555
As4 Rh2 2.593653 1_455
As4 Li1 2.844693 1_555
As4 Li0 2.845525 1_555
As4 Lu0 2.997433 1_455
As4 Lu1 2.998397 1_555
As5 Rh2 2.522551 1_555
As5 Rh1 2.522551 1_555
As5 Rh3 2.523248 1_545
As5 Rh5 2.523248 1_545
As5 Rh6 2.553143 1_555
As5 Lu1 2.904225 1_555
As5 Lu0 2.904225 1_555
As5 Li0 2.945211 1_555
As5 Li1 2.946540 1_545
