# generated using pymatgen
data_PtRh(SeO3)4
_symmetry_space_group_name_H-M   'P 1'
_cell_length_a   6.83331002
_cell_length_b   5.19925616
_cell_length_c   8.96973000
_cell_angle_alpha   55.59401782
_cell_angle_beta   89.62271753
_cell_angle_gamma   89.57816021
_symmetry_Int_Tables_number   1
_chemical_formula_structural   PtRh(SeO3)4
_chemical_formula_sum   'Pt1 Rh1 Se4 O12'
_cell_volume   262.91823277
_cell_formula_units_Z   1
loop_
 _symmetry_equiv_pos_site_id
 _symmetry_equiv_pos_as_xyz
  1  'x, y, z'
loop_
 _atom_site_type_symbol
 _atom_site_label
 _atom_site_symmetry_multiplicity
 _atom_site_fract_x
 _atom_site_fract_y
 _atom_site_fract_z
 _atom_site_occupancy
  Pt  Pt0  1  0.00000000  0.00000000  0.00000000  1
  Rh  Rh0  1  0.50000000  0.00000000  0.50000000  1
  Se  Se0  1  0.82161912  0.32412771  0.19195215  1
  Se  Se1  1  0.67884750  0.32005665  0.69121852  1
  Se  Se2  1  0.17838088  0.67587229  0.80804785  1
  Se  Se3  1  0.32115250  0.67994335  0.30878148  1
  O  O0  1  0.83415240  0.32266119  0.99787884  1
  O  O1  1  0.66658175  0.31884006  0.49982891  1
  O  O2  1  0.16584760  0.67733881  0.00212116  1
  O  O3  1  0.33341825  0.68115994  0.50017109  1
  O  O4  1  0.58402627  0.19083571  0.24707399  1
  O  O5  1  0.92075722  0.20028007  0.74150924  1
  O  O6  1  0.41597373  0.80916429  0.75292601  1
  O  O7  1  0.07924278  0.79971993  0.25849076  1
  O  O8  1  0.76671640  0.71575165  0.08268180  1
  O  O9  1  0.72530441  0.71650897  0.58295322  1
  O  O10  1  0.23328360  0.28424835  0.91731820  1
  O  O11  1  0.27469559  0.28349103  0.41704678  1
loop_
_geom_bond_atom_site_label_1
_geom_bond_atom_site_label_2
_geom_bond_distance
_geom_bond_site_symmetry_2
O0 Se0 1.746641 1_556
O0 Pt0 2.008795 1_656
O1 Se1 1.722888 1_555
O1 Rh0 2.017102 1_555
O2 Se2 1.746641 1_554
O2 Pt0 2.008795 1_565
O3 Se3 1.722888 1_555
O3 Rh0 2.017102 1_565
O4 Se0 1.726095 1_555
O4 Rh0 1.976973 1_555
O5 Se1 1.732354 1_555
O5 Pt0 2.008269 1_656
O6 Se2 1.726095 1_555
O6 Rh0 1.976973 1_565
O7 Se3 1.732354 1_555
O7 Pt0 2.008269 1_565
O8 Se0 1.727881 1_555
O8 Pt0 2.013895 1_665
O9 Se1 1.742425 1_555
O9 Rh0 1.959261 1_565
O10 Se2 1.727881 1_555
O10 Pt0 2.013895 1_556
O11 Se3 1.742425 1_555
O11 Rh0 1.959261 1_555
