# generated using pymatgen
data_Y20TcHg6Pd
_symmetry_space_group_name_H-M   'P 1'
_cell_length_a   9.68678209
_cell_length_b   9.68678084
_cell_length_c   9.64526578
_cell_angle_alpha   90.00000000
_cell_angle_beta   90.00000000
_cell_angle_gamma   120.00003152
_symmetry_Int_Tables_number   1
_chemical_formula_structural   Y20TcHg6Pd
_chemical_formula_sum   'Y20 Tc1 Hg6 Pd1'
_cell_volume   783.79718118
_cell_formula_units_Z   1
loop_
 _symmetry_equiv_pos_site_id
 _symmetry_equiv_pos_as_xyz
  1  'x, y, z'
loop_
 _atom_site_type_symbol
 _atom_site_label
 _atom_site_symmetry_multiplicity
 _atom_site_fract_x
 _atom_site_fract_y
 _atom_site_fract_z
 _atom_site_occupancy
  Y  Y0  1  0.20933038  0.79066962  0.93877667  1
  Y  Y1  1  0.20933038  0.41866076  0.93877567  1
  Y  Y2  1  0.58133924  0.79066962  0.93877567  1
  Y  Y3  1  0.79303592  0.20696408  0.06005451  1
  Y  Y4  1  0.79303592  0.58607084  0.06005451  1
  Y  Y5  1  0.41392916  0.20696408  0.06005451  1
  Y  Y6  1  0.79303592  0.20696408  0.43994549  1
  Y  Y7  1  0.79303592  0.58607084  0.43994549  1
  Y  Y8  1  0.41392916  0.20696408  0.43994549  1
  Y  Y9  1  0.20933038  0.79066962  0.56122333  1
  Y  Y10  1  0.20933038  0.41866076  0.56122433  1
  Y  Y11  1  0.58133924  0.79066962  0.56122433  1
  Y  Y12  1  0.54026153  0.45973847  0.75000000  1
  Y  Y13  1  0.54026153  0.08052306  0.75000000  1
  Y  Y14  1  0.91947694  0.45973847  0.75000000  1
  Y  Y15  1  0.45696910  0.54303090  0.25000000  1
  Y  Y16  1  0.45697010  0.91393920  0.25000000  1
  Y  Y17  1  0.08605980  0.54302990  0.25000000  1
  Y  Y18  1  0.00000000  0.00000000  0.99949983  1
  Y  Y19  1  0.00000000  0.00000000  0.50050017  1
  Tc  Tc0  1  0.33333300  0.66666700  0.75000000  1
  Hg  Hg0  1  0.87968674  0.12031426  0.75000000  1
  Hg  Hg1  1  0.87968574  0.75937248  0.75000000  1
  Hg  Hg2  1  0.24062752  0.12031426  0.75000000  1
  Hg  Hg3  1  0.11986005  0.88013995  0.25000000  1
  Hg  Hg4  1  0.11986005  0.23971909  0.25000000  1
  Hg  Hg5  1  0.76028091  0.88013995  0.25000000  1
  Pd  Pd0  1  0.66666600  0.33333300  0.25000000  1
loop_
_geom_bond_atom_site_label_1
_geom_bond_atom_site_label_2
_geom_bond_distance
_geom_bond_site_symmetry_2
Y0 Y14 3.531900 1_455
Y0 Y13 3.531900 1_565
Y0 Y18 3.560646 1_565
Y0 Y17 3.650591 1_556
Y0 Y16 3.650591 1_556
Y1 Y12 3.531896 1_555
Y1 Y14 3.531896 1_455
Y1 Y18 3.560645 1_555
Y1 Y15 3.650594 1_556
Y1 Y17 3.650600 1_556
Y10 Y12 3.531896 1_555
Y10 Y14 3.531896 1_455
Y10 Y19 3.560645 1_555
Y10 Y15 3.650594 1_555
Y10 Y17 3.650600 1_555
Y11 Y12 3.531896 1_555
Y11 Y13 3.531896 1_565
Y11 Y19 3.560646 1_665
Y11 Y15 3.650594 1_555
Y11 Y16 3.650595 1_555
Y12 Y2 3.531896 1_555
Y12 Y5 3.666068 1_556
Y12 Y8 3.666068 1_555
Y12 Y4 3.666069 1_556
Y12 Y7 3.666069 1_555
Y12 Y13 3.673377 1_555
Y12 Y14 3.673377 1_555
Y13 Y2 3.531896 1_545
Y13 Y9 3.531900 1_545
Y13 Y5 3.666064 1_556
Y13 Y8 3.666064 1_555
Y13 Y3 3.666069 1_556
Y13 Y6 3.666069 1_555
Y13 Y14 3.673375 1_555
Y14 Y9 3.531900 1_655
Y14 Y4 3.666064 1_556
Y14 Y7 3.666064 1_555
Y14 Y3 3.666068 1_556
Y14 Y6 3.666068 1_555
Y15 Y8 3.573618 1_555
Y15 Y5 3.573618 1_555
Y15 Y7 3.573618 1_555
Y15 Y4 3.573618 1_555
Y15 Y16 3.592903 1_555
Y15 Y17 3.592913 1_555
Y15 Y2 3.650594 1_554
Y16 Y6 3.573606 1_565
Y16 Y3 3.573606 1_565
Y16 Y8 3.573607 1_565
Y16 Y5 3.573607 1_565
Y16 Y17 3.592920 1_555
Y16 Y9 3.650591 1_555
Y16 Y2 3.650595 1_554
Y17 Y7 3.573599 1_455
Y17 Y4 3.573599 1_455
Y17 Y6 3.573602 1_455
Y17 Y3 3.573602 1_455
Y17 Y9 3.650591 1_555
Y18 Y3 3.521221 1_456
Y18 Y4 3.521227 1_446
Y18 Y5 3.521228 1_556
Y18 Y2 3.560646 1_445
Y19 Y6 3.521221 1_455
Y19 Y7 3.521227 1_445
Y19 Y8 3.521228 1_555
Y19 Y9 3.560646 1_545
Tc0 Y1 2.764753 1_555
Tc0 Y10 2.764753 1_555
Tc0 Y2 2.764753 1_555
Tc0 Y11 2.764753 1_555
Tc0 Y9 2.764754 1_555
Tc0 Y0 2.764754 1_555
Tc0 Y13 3.471837 1_565
Tc0 Y14 3.471837 1_455
Tc0 Y12 3.471847 1_555
Hg0 Y14 3.113155 1_555
Hg0 Y13 3.113162 1_555
Hg0 Y19 3.141027 1_655
Hg0 Y18 3.141027 1_655
Hg0 Y3 3.325211 1_556
Hg0 Y6 3.325211 1_555
Hg0 Y1 3.554651 1_655
Hg0 Y10 3.554651 1_655
Hg0 Y2 3.554660 1_545
Hg0 Y11 3.554660 1_545
Hg1 Y12 3.113154 1_555
Hg1 Y14 3.113162 1_555
Hg1 Y19 3.141026 1_665
Hg1 Y18 3.141026 1_665
Hg1 Y4 3.325214 1_556
Hg1 Y7 3.325214 1_555
Hg1 Y2 3.554653 1_555
Hg1 Y11 3.554653 1_555
Hg1 Y9 3.554666 1_655
Hg1 Y0 3.554666 1_655
Hg2 Y12 3.113154 1_555
Hg2 Y13 3.113162 1_555
Hg2 Y19 3.141026 1_555
Hg2 Y18 3.141026 1_555
Hg2 Y5 3.325214 1_556
Hg2 Y8 3.325214 1_555
Hg2 Y1 3.554653 1_555
Hg2 Y10 3.554653 1_555
Hg2 Y9 3.554666 1_545
Hg2 Y0 3.554666 1_545
Hg3 Y17 3.114737 1_555
Hg3 Y16 3.114741 1_555
Hg3 Y18 3.143550 1_564
Hg3 Y19 3.143550 1_565
Hg3 Y0 3.356247 1_554
Hg3 Y9 3.356247 1_555
Hg3 Y8 3.532056 1_565
Hg3 Y5 3.532056 1_565
Hg3 Y7 3.532056 1_455
Hg3 Y4 3.532056 1_455
Hg4 Y15 3.114738 1_555
Hg4 Y17 3.114747 1_555
Hg4 Y18 3.143544 1_554
Hg4 Y19 3.143544 1_555
Hg4 Y10 3.356259 1_555
Hg4 Y1 3.356259 1_554
Hg4 Y6 3.532057 1_455
Hg4 Y3 3.532057 1_455
Hg4 Y8 3.532057 1_555
Hg4 Y5 3.532057 1_555
Hg5 Y15 3.114738 1_555
Hg5 Y16 3.114741 1_555
Hg5 Y18 3.143544 1_664
Hg5 Y19 3.143544 1_665
Hg5 Y11 3.356259 1_555
Hg5 Y2 3.356259 1_554
Hg5 Y6 3.532057 1_565
Hg5 Y3 3.532057 1_565
Hg5 Y7 3.532057 1_555
Hg5 Y4 3.532057 1_555
Pd0 Y8 2.802103 1_555
Pd0 Y5 2.802103 1_555
Pd0 Y7 2.802109 1_555
Pd0 Y4 2.802109 1_555
Pd0 Y6 2.802116 1_555
Pd0 Y3 2.802116 1_555
Pd0 Y16 3.518293 1_545
Pd0 Y17 3.518293 1_655
Pd0 Y15 3.518303 1_555
