# generated using pymatgen
data_Na5TcNO4
_symmetry_space_group_name_H-M   'P 1'
_cell_length_a   5.64001682
_cell_length_b   5.64001765
_cell_length_c   10.63491705
_cell_angle_alpha   90.00000000
_cell_angle_beta   90.00000000
_cell_angle_gamma   118.67227295
_symmetry_Int_Tables_number   1
_chemical_formula_structural   Na5TcNO4
_chemical_formula_sum   'Na10 Tc2 N2 O8'
_cell_volume   296.81232730
_cell_formula_units_Z   2
loop_
 _symmetry_equiv_pos_site_id
 _symmetry_equiv_pos_as_xyz
  1  'x, y, z'
loop_
 _atom_site_type_symbol
 _atom_site_label
 _atom_site_symmetry_multiplicity
 _atom_site_fract_x
 _atom_site_fract_y
 _atom_site_fract_z
 _atom_site_occupancy
  Na  Na0  1  0.19263715  0.80736285  0.50000000  1
  Na  Na1  1  0.19263715  0.80736285  0.00000000  1
  Na  Na2  1  0.55640944  0.17413882  0.75000000  1
  Na  Na3  1  0.17413882  0.55640944  0.75000000  1
  Na  Na4  1  0.50000000  0.50000000  0.00000000  1
  Na  Na5  1  0.80736285  0.19263715  0.50000000  1
  Na  Na6  1  0.80736285  0.19263715  0.00000000  1
  Na  Na7  1  0.50000000  0.50000000  0.50000000  1
  Na  Na8  1  0.44359056  0.82586118  0.25000000  1
  Na  Na9  1  0.82586118  0.44359056  0.25000000  1
  Tc  Tc0  1  0.20037084  0.20037084  0.25000000  1
  Tc  Tc1  1  0.79962916  0.79962916  0.75000000  1
  N  N0  1  0.90749270  0.90749270  0.25000000  1
  N  N1  1  0.09250730  0.09250730  0.75000000  1
  O  O0  1  0.83410897  0.55699663  0.62744964  1
  O  O1  1  0.55699663  0.83410897  0.62744964  1
  O  O2  1  0.16589103  0.44300337  0.37255036  1
  O  O3  1  0.44300337  0.16589103  0.37255036  1
  O  O4  1  0.44300337  0.16589103  0.12744964  1
  O  O5  1  0.16589103  0.44300337  0.12744964  1
  O  O6  1  0.55699663  0.83410897  0.87255036  1
  O  O7  1  0.83410897  0.55699663  0.87255036  1
loop_
_geom_bond_atom_site_label_1
_geom_bond_atom_site_label_2
_geom_bond_distance
_geom_bond_site_symmetry_2
Na0 O0 2.275964 1_455
Na0 O3 2.275964 1_565
Na0 O1 2.405294 1_555
Na0 O2 2.405294 1_555
Na1 O7 2.275964 1_454
Na1 O4 2.275964 1_565
Na1 O6 2.405294 1_554
Na1 O5 2.405294 1_555
Na2 O6 2.320041 1_545
Na2 O1 2.320041 1_545
Na2 O7 2.359878 1_555
Na2 O0 2.359878 1_555
Na3 O7 2.320040 1_455
Na3 O0 2.320040 1_455
Na3 O6 2.359878 1_555
Na3 O1 2.359878 1_555
Na4 O5 2.215874 1_555
Na4 O7 2.215874 1_554
Na4 O4 2.215874 1_555
Na4 O6 2.215874 1_554
Na5 O2 2.275964 1_655
Na5 O1 2.275964 1_545
Na5 O3 2.405294 1_555
Na5 O0 2.405294 1_555
Na6 O5 2.275964 1_655
Na6 O6 2.275964 1_544
Na6 O4 2.405294 1_555
Na6 O7 2.405294 1_554
Na7 O0 2.215874 1_555
Na7 O2 2.215874 1_555
Na7 O1 2.215874 1_555
Na7 O3 2.215874 1_555
Na8 O3 2.320041 1_565
Na8 O4 2.320041 1_565
Na8 O2 2.359878 1_555
Na8 O5 2.359878 1_555
Na9 O2 2.320040 1_655
Na9 O5 2.320040 1_655
Na9 O3 2.359878 1_555
Na9 O4 2.359878 1_555
N0 Tc0 1.684876 1_665
N0 Na8 2.429334 1_555
N0 Na9 2.429335 1_555
N1 Tc1 1.684876 1_445
N1 Na2 2.429334 1_555
N1 Na3 2.429335 1_555
O0 Tc1 1.965825 1_555
O1 Tc1 1.965825 1_555
O2 Tc0 1.965825 1_555
O3 Tc0 1.965825 1_555
O4 Tc0 1.965825 1_555
O5 Tc0 1.965825 1_555
O6 Tc1 1.965825 1_555
O7 Tc1 1.965825 1_555
