# generated using pymatgen
data_InAgSe2
_symmetry_space_group_name_H-M   'P 1'
_cell_length_a   7.04106577
_cell_length_b   7.04106577
_cell_length_c   7.04106577
_cell_angle_alpha   132.53066846
_cell_angle_beta   132.53066846
_cell_angle_gamma   69.39217406
_symmetry_Int_Tables_number   1
_chemical_formula_structural   InAgSe2
_chemical_formula_sum   'In2 Ag2 Se4'
_cell_volume   185.98550555
_cell_formula_units_Z   2
loop_
 _symmetry_equiv_pos_site_id
 _symmetry_equiv_pos_as_xyz
  1  'x, y, z'
loop_
 _atom_site_type_symbol
 _atom_site_label
 _atom_site_symmetry_multiplicity
 _atom_site_fract_x
 _atom_site_fract_y
 _atom_site_fract_z
 _atom_site_occupancy
  In  In0  1  0.00000000  0.00000000  0.00000000  1
  In  In1  1  0.75000000  0.25000000  0.50000000  1
  Ag  Ag0  1  0.25000000  0.75000000  0.50000000  1
  Ag  Ag1  1  0.50000000  0.50000000  0.00000000  1
  Se  Se0  1  0.75860100  0.75860100  0.00000000  1
  Se  Se1  1  0.50860100  0.00860100  0.50000000  1
  Se  Se2  1  0.24139900  0.24139900  0.00000000  1
  Se  Se3  1  0.99139900  0.49139900  0.50000000  1
loop_
_geom_bond_atom_site_label_1
_geom_bond_atom_site_label_2
_geom_bond_distance
_geom_bond_site_symmetry_2
In0 Se2 2.794939 1_555
In0 Se0 2.794939 1_445
In0 Se3 2.835790 1_444
In0 Se1 2.835790 1_555
In0 Se1 2.835790 1_454
In0 Se3 2.835790 1_455
In1 Se3 2.794939 1_555
In1 Se1 2.794939 1_555
In1 Se0 2.835790 1_556
In1 Se2 2.835790 1_656
In1 Se2 2.835790 1_555
In1 Se0 2.835790 1_545
Ag0 Se0 2.835790 1_556
Ag0 Se2 2.835790 1_566
Ag0 Se2 2.835790 1_555
Ag0 Se0 2.835790 1_455
Ag0 Se1 2.994105 1_565
Ag0 Se3 2.994105 1_455
Ag1 Se3 2.835790 1_555
Ag1 Se1 2.835790 1_565
Ag1 Se1 2.835790 1_554
Ag1 Se3 2.835790 1_454
Ag1 Se0 2.994105 1_555
Ag1 Se2 2.994105 1_555
