# generated using pymatgen
data_Li4Ca(Cu2P3)2
_symmetry_space_group_name_H-M   'P 1'
_cell_length_a   7.99858382
_cell_length_b   7.99858461
_cell_length_c   7.99858417
_cell_angle_alpha   151.75053372
_cell_angle_beta   114.27350742
_cell_angle_gamma   73.02297993
_symmetry_Int_Tables_number   1
_chemical_formula_structural   Li4Ca(Cu2P3)2
_chemical_formula_sum   'Li4 Ca1 Cu4 P6'
_cell_volume   217.85711457
_cell_formula_units_Z   1
loop_
 _symmetry_equiv_pos_site_id
 _symmetry_equiv_pos_as_xyz
  1  'x, y, z'
loop_
 _atom_site_type_symbol
 _atom_site_label
 _atom_site_symmetry_multiplicity
 _atom_site_fract_x
 _atom_site_fract_y
 _atom_site_fract_z
 _atom_site_occupancy
  Li  Li0  1  0.71813978  0.71813978  1.00000000  1
  Li  Li1  1  0.66888824  0.50000000  0.16888824  1
  Li  Li2  1  0.33111176  0.50000000  0.83111176  1
  Li  Li3  1  0.28186022  0.28186022  0.00000000  1
  Ca  Ca0  1  0.00000000  0.00000000  0.00000000  1
  Cu  Cu0  1  0.90573098  0.17507151  0.73066047  1
  Cu  Cu1  1  0.55558895  0.82492849  0.73066047  1
  Cu  Cu2  1  0.44441105  0.17507151  0.26933953  1
  Cu  Cu3  1  0.09426902  0.82492849  0.26933953  1
  P  P0  1  0.97415370  0.34712035  0.62703335  1
  P  P1  1  0.72008499  0.34712035  0.37296665  1
  P  P2  1  0.58470011  0.08470011  0.50000000  1
  P  P3  1  0.41529989  0.91529989  0.50000000  1
  P  P4  1  0.27991501  0.65287965  0.62703335  1
  P  P5  1  0.02584630  0.65287965  0.37296665  1
loop_
_geom_bond_atom_site_label_1
_geom_bond_atom_site_label_2
_geom_bond_distance
_geom_bond_site_symmetry_2
Li0 P2 2.598778 1_566
Li0 P2 2.598778 1_555
Li0 P1 2.788579 1_555
Li0 P1 2.788585 1_566
Li0 P0 2.788586 1_555
Li0 P0 2.788587 1_566
Li1 P5 2.646151 1_655
Li1 P1 2.646155 1_555
Li1 P3 2.673074 1_555
Li1 P2 2.673074 1_554
Li1 P2 2.673074 1_565
Li1 P3 2.673074 1_544
Li2 P0 2.646151 1_455
Li2 P4 2.646155 1_555
Li2 P2 2.673074 1_555
Li2 P3 2.673074 1_556
Li2 P3 2.673074 1_545
Li2 P2 2.673074 1_566
Li3 P3 2.598778 1_544
Li3 P3 2.598778 1_555
Li3 P4 2.788579 1_555
Li3 P4 2.788585 1_544
Li3 P5 2.788586 1_555
Li3 P5 2.788587 1_544
Ca0 P5 2.981579 1_544
Ca0 P0 2.981579 1_455
Ca0 P5 2.981580 1_555
Ca0 P0 2.981580 1_444
Ca0 P4 2.981589 1_555
Ca0 P1 2.981589 1_444
Ca0 P4 2.981593 1_544
Ca0 P1 2.981593 1_455
Ca0 Cu0 3.245513 1_454
Ca0 Cu3 3.245513 1_545
Ca0 Cu2 3.245514 1_555
Ca0 Cu1 3.245514 1_444
Cu0 P2 2.315000 1_555
Cu0 P5 2.327532 1_656
Cu0 P5 2.327535 1_645
Cu0 P0 2.388031 1_555
Cu0 Li3 2.711401 1_656
Cu0 Cu3 2.763205 1_656
Cu0 Cu3 2.763210 1_645
Cu0 Li0 2.850570 1_555
Cu0 Li0 2.850573 1_544
Cu0 Li1 3.027282 1_556
Cu0 Li1 3.027285 1_545
Cu1 P3 2.315007 1_555
Cu1 P1 2.327523 1_555
Cu1 P1 2.327530 1_566
Cu1 P4 2.388012 1_555
Cu1 Li0 2.711394 1_555
Cu1 Cu2 2.763197 1_566
Cu1 Cu2 2.763198 1_555
Cu1 Li3 2.850573 1_566
Cu1 Li3 2.850574 1_555
Cu1 Li1 3.027289 1_555
Cu1 Li1 3.027290 1_566
Cu2 P2 2.315007 1_555
Cu2 P4 2.327523 1_555
Cu2 P4 2.327530 1_544
Cu2 P1 2.388012 1_555
Cu2 Li3 2.711394 1_555
Cu2 Li0 2.850573 1_544
Cu2 Li0 2.850574 1_555
Cu2 Li2 3.027289 1_555
Cu2 Li2 3.027290 1_544
Cu3 P3 2.315000 1_555
Cu3 P0 2.327532 1_454
Cu3 P0 2.327535 1_465
Cu3 P5 2.388031 1_555
Cu3 Li0 2.711401 1_454
Cu3 Li3 2.850570 1_555
Cu3 Li3 2.850573 1_566
Cu3 Li2 3.027282 1_554
Cu3 Li2 3.027285 1_565
P0 P1 2.205469 1_555
P2 P3 2.178068 1_545
P4 P5 2.205469 1_555
