# generated using pymatgen
data_Ca4Al17SiRh6
_symmetry_space_group_name_H-M   'P 1'
_cell_length_a   7.49559634
_cell_length_b   7.47708895
_cell_length_c   9.55320732
_cell_angle_alpha   89.94613020
_cell_angle_beta   90.09675749
_cell_angle_gamma   119.15035701
_symmetry_Int_Tables_number   1
_chemical_formula_structural   Ca4Al17SiRh6
_chemical_formula_sum   'Ca4 Al17 Si1 Rh6'
_cell_volume   467.59825383
_cell_formula_units_Z   1
loop_
 _symmetry_equiv_pos_site_id
 _symmetry_equiv_pos_as_xyz
  1  'x, y, z'
loop_
 _atom_site_type_symbol
 _atom_site_label
 _atom_site_symmetry_multiplicity
 _atom_site_fract_x
 _atom_site_fract_y
 _atom_site_fract_z
 _atom_site_occupancy
  Ca  Ca0  1  0.99219594  0.66489901  0.24765382  1
  Ca  Ca1  1  0.00695869  0.32823562  0.75455024  1
  Ca  Ca2  1  0.67693917  0.00197428  0.24740644  1
  Ca  Ca3  1  0.32739544  0.00583716  0.74960377  1
  Al  Al0  1  0.13074497  0.13183086  0.24915922  1
  Al  Al1  1  0.86736505  0.86857809  0.74940350  1
  Al  Al2  1  0.99819134  0.66815597  0.92802183  1
  Al  Al3  1  0.99690445  0.66456582  0.57049121  1
  Al  Al4  1  0.33399655  0.00003372  0.42699453  1
  Al  Al5  1  0.00196033  0.33505137  0.43398108  1
  Al  Al6  1  0.66334161  0.99706676  0.57106574  1
  Al  Al7  1  0.66102177  0.99504009  0.92716285  1
  Al  Al8  1  0.33465936  0.00027772  0.07187220  1
  Al  Al9  1  0.33497012  0.33394790  0.54168826  1
  Al  Al10  1  0.66595803  0.66713823  0.45555163  1
  Al  Al11  1  0.66731016  0.66756143  0.04294947  1
  Al  Al12  1  0.33701847  0.33395966  0.95995256  1
  Al  Al13  1  0.33634216  0.54744096  0.24970714  1
  Al  Al14  1  0.66410231  0.45293881  0.75160216  1
  Al  Al15  1  0.54247260  0.33723348  0.24965203  1
  Al  Al16  1  0.45360166  0.66099885  0.74964695  1
  Si  Si0  1  0.00642395  0.33650367  0.07147584  1
  Rh  Rh0  1  0.68082738  0.32991953  0.00377988  1
  Rh  Rh1  1  0.32234487  0.66456044  0.99974045  1
  Rh  Rh2  1  0.32725568  0.67033715  0.49917115  1
  Rh  Rh3  1  0.67043413  0.32814232  0.49961136  1
  Rh  Rh4  1  0.00017260  0.00752873  0.99964883  1
  Rh  Rh5  1  0.99909021  0.00023936  0.49845587  1
loop_
_geom_bond_atom_site_label_1
_geom_bond_atom_site_label_2
_geom_bond_distance
_geom_bond_site_symmetry_2
Ca0 Si0 3.022708 1_655
Ca1 Si0 3.028394 1_556
Ca1 Rh4 3.332612 1_555
Ca1 Rh1 3.405861 1_555
Ca1 Rh0 3.419731 1_456
Ca1 Rh5 3.445777 1_455
Ca1 Rh3 3.503125 1_455
Ca1 Rh2 3.504900 1_555
Ca2 Si0 3.027978 1_655
Al0 Rh4 2.571669 1_554
Al0 Rh5 2.582922 1_455
Al0 Al15 2.695461 1_555
Al0 Al13 2.714108 1_555
Al0 Si0 2.733267 1_555
Al0 Al4 2.762089 1_555
Al0 Al8 2.765638 1_555
Al0 Al5 2.792484 1_555
Al0 Ca2 3.048907 1_455
Al0 Ca0 3.120200 1_445
Al1 Rh5 2.597681 1_565
Al1 Rh4 2.602811 1_665
Al1 Al16 2.708914 1_555
Al1 Al14 2.714251 1_555
Al1 Al2 2.745949 1_555
Al1 Al6 2.753851 1_555
Al1 Al7 2.758026 1_555
Al1 Al3 2.764861 1_555
Al1 Ca1 3.066964 1_665
Al1 Ca3 3.081520 1_665
Al2 Rh1 2.536076 1_655
Al2 Rh0 2.592300 1_556
Al2 Rh4 2.621826 1_665
Al2 Si0 2.858970 1_656
Al2 Al8 2.882574 1_666
Al2 Ca3 3.050512 1_665
Al2 Ca0 3.053817 1_556
Al2 Ca1 3.062919 1_655
Al3 Rh2 2.549331 1_655
Al3 Rh5 2.594220 1_565
Al3 Rh3 2.602910 1_555
Al3 Ca3 3.067822 1_665
Al3 Ca0 3.084287 1_555
Al3 Ca1 3.097972 1_655
Al4 Rh2 2.535869 1_545
Al4 Rh5 2.603331 1_455
Al4 Rh3 2.613339 1_555
Al4 Ca3 3.083119 1_555
Al4 Ca0 3.085006 1_445
Al4 Ca2 3.087058 1_555
Al5 Rh3 2.539896 1_455
Al5 Rh5 2.567417 1_455
Al5 Rh2 2.580837 1_555
Al5 Ca1 3.063309 1_555
Al5 Ca2 3.065504 1_455
Al5 Ca0 3.069794 1_455
Al6 Rh3 2.542742 1_565
Al6 Rh5 2.600555 1_565
Al6 Rh2 2.605354 1_555
Al6 Ca3 3.070816 1_565
Al6 Ca2 3.093430 1_565
Al6 Ca1 3.101214 1_665
Al7 Rh0 2.543296 1_566
Al7 Rh4 2.591066 1_665
Al7 Rh1 2.631108 1_555
Al7 Al8 2.828748 1_566
Al7 Si0 2.945697 1_666
Al7 Ca3 3.052793 1_565
Al7 Ca1 3.059891 1_665
Al7 Ca2 3.060981 1_566
Al8 Rh1 2.561586 1_544
Al8 Rh4 2.625156 1_554
Al8 Rh0 2.646336 1_555
Al8 Ca2 3.057494 1_555
Al8 Ca0 3.071358 1_445
Al8 Ca3 3.079686 1_554
Al9 Rh3 2.568262 1_555
Al9 Rh5 2.571658 1_455
Al9 Rh2 2.575714 1_555
Al9 Ca3 3.134121 1_555
Al9 Ca1 3.177474 1_555
Al10 Rh5 2.558529 1_565
Al10 Rh2 2.585024 1_555
Al10 Rh3 2.585305 1_555
Al10 Ca0 3.159259 1_555
Al10 Ca2 3.165307 1_565
Al11 Rh4 2.584691 1_664
Al11 Rh0 2.602860 1_555
Al11 Rh1 2.607055 1_554
Al11 Al7 2.707120 1_554
Al11 Ca0 3.128264 1_555
Al11 Ca2 3.147276 1_565
Al12 Rh4 2.544385 1_555
Al12 Rh1 2.556129 1_555
Al12 Rh0 2.624803 1_556
Al12 Al8 2.705628 1_556
Al12 Si0 2.707549 1_556
Al12 Ca1 3.139032 1_555
Al12 Ca3 3.146248 1_555
Al13 Rh1 2.562240 1_554
Al13 Rh2 2.567921 1_555
Al13 Si0 2.773662 1_555
Al13 Ca2 3.100951 1_565
Al13 Ca0 3.103675 1_455
Al14 Rh3 2.591505 1_555
Al14 Rh0 2.602449 1_556
Al14 Ca3 3.053884 1_555
Al14 Ca1 3.131897 1_655
Al15 Rh0 2.580575 1_555
Al15 Rh3 2.584994 1_555
Al15 Al8 2.798979 1_555
Al15 Ca0 3.052941 1_555
Al15 Ca2 3.124386 1_555
Al16 Rh2 2.585329 1_555
Al16 Rh1 2.590464 1_555
Al16 Al7 2.783417 1_555
Al16 Ca1 3.047350 1_555
Al16 Ca3 3.149474 1_565
Rh0 Si0 2.500916 1_655
Rh1 Si0 2.537227 1_556
Rh4 Si0 2.532648 1_556
