# generated using pymatgen
data_Rb2Ca(PS3)2
_symmetry_space_group_name_H-M   'P 1'
_cell_length_a   12.25612753
_cell_length_b   6.60136999
_cell_length_c   9.29900744
_cell_angle_alpha   55.97328939
_cell_angle_beta   90.00000000
_cell_angle_gamma   90.00000000
_symmetry_Int_Tables_number   1
_chemical_formula_structural   Rb2Ca(PS3)2
_chemical_formula_sum   'Rb4 Ca2 P4 S12'
_cell_volume   623.53598641
_cell_formula_units_Z   2
loop_
 _symmetry_equiv_pos_site_id
 _symmetry_equiv_pos_as_xyz
  1  'x, y, z'
loop_
 _atom_site_type_symbol
 _atom_site_label
 _atom_site_symmetry_multiplicity
 _atom_site_fract_x
 _atom_site_fract_y
 _atom_site_fract_z
 _atom_site_occupancy
  Rb  Rb0  1  0.32727219  0.20794147  0.51165381  1
  Rb  Rb1  1  0.67272781  0.79205853  0.48834619  1
  Rb  Rb2  1  0.82727219  0.79205853  0.98834619  1
  Rb  Rb3  1  0.17272781  0.20794147  0.01165381  1
  Ca  Ca0  1  0.50000000  0.50000000  0.00000000  1
  Ca  Ca1  1  0.00000000  0.50000000  0.50000000  1
  P  P0  1  0.46339441  0.85358355  0.12837313  1
  P  P1  1  0.03660559  0.85358355  0.62837313  1
  P  P2  1  0.96339441  0.14641645  0.37162687  1
  P  P3  1  0.53660559  0.14641645  0.87162687  1
  S  S0  1  0.07243919  0.01736958  0.75229944  1
  S  S1  1  0.66938471  0.26874400  0.93014641  1
  S  S2  1  0.07829537  0.41101392  0.25242263  1
  S  S3  1  0.92756081  0.98263042  0.24770056  1
  S  S4  1  0.42756081  0.01736958  0.25229944  1
  S  S5  1  0.33061529  0.73125600  0.06985359  1
  S  S6  1  0.42170463  0.41101392  0.75242263  1
  S  S7  1  0.57829537  0.58898608  0.24757737  1
  S  S8  1  0.57243919  0.98263042  0.74770056  1
  S  S9  1  0.16938471  0.73125600  0.56985359  1
  S  S10  1  0.92170463  0.58898608  0.74757737  1
  S  S11  1  0.83061529  0.26874400  0.43014641  1
loop_
_geom_bond_atom_site_label_1
_geom_bond_atom_site_label_2
_geom_bond_distance
_geom_bond_site_symmetry_2
Rb0 S6 3.392398 1_555
Rb0 S9 3.468963 1_545
Rb0 S4 3.507924 1_555
Rb0 S8 3.522116 1_545
Rb0 S5 3.595883 1_555
Rb0 S0 3.632409 1_555
Rb0 S2 3.647334 1_555
Rb0 S7 3.861322 1_555
Rb1 S7 3.392398 1_555
Rb1 S11 3.468963 1_565
Rb1 S8 3.507924 1_555
Rb1 S4 3.522116 1_565
Rb1 S1 3.595883 1_555
Rb1 S3 3.632409 1_555
Rb1 S10 3.647334 1_555
Rb1 S6 3.861322 1_555
Rb2 S10 3.392398 1_555
Rb2 S1 3.468963 1_565
Rb2 S3 3.507924 1_556
Rb2 S0 3.522116 1_665
Rb2 S11 3.595883 1_556
Rb2 S8 3.632409 1_555
Rb2 S7 3.647334 1_556
Rb2 S2 3.861322 1_656
Rb3 S2 3.392398 1_555
Rb3 S5 3.468963 1_545
Rb3 S0 3.507924 1_554
Rb3 S3 3.522116 1_445
Rb3 S9 3.595883 1_554
Rb3 S4 3.632409 1_555
Rb3 S6 3.647334 1_554
Rb3 S10 3.861322 1_454
Ca0 S8 2.842145 1_554
Ca0 S4 2.842145 1_555
Ca0 S7 2.842478 1_555
Ca0 S6 2.842478 1_554
Ca0 S5 2.858679 1_555
Ca0 S1 2.858679 1_554
Ca1 S0 2.842145 1_555
Ca1 S3 2.842145 1_455
Ca1 S10 2.842478 1_455
Ca1 S2 2.842478 1_555
Ca1 S9 2.858679 1_555
Ca1 S11 2.858679 1_455
P0 S4 2.020979 1_565
P0 S5 2.021960 1_555
P0 S7 2.023845 1_555
P1 S0 2.020979 1_565
P1 S9 2.021960 1_555
P1 S10 2.023845 1_455
P2 S3 2.020979 1_545
P2 S11 2.021960 1_555
P2 S2 2.023845 1_655
P3 S8 2.020979 1_545
P3 S1 2.021960 1_555
P3 S6 2.023845 1_555
