# generated using pymatgen
data_K2Al(InTe2)5
_symmetry_space_group_name_H-M   'P 1'
_cell_length_a   11.12163807
_cell_length_b   11.13945024
_cell_length_c   11.08780544
_cell_angle_alpha   90.46762216
_cell_angle_beta   90.62655899
_cell_angle_gamma   90.16105974
_symmetry_Int_Tables_number   1
_chemical_formula_structural   K2Al(InTe2)5
_chemical_formula_sum   'K4 Al2 In10 Te20'
_cell_volume   1373.52273531
_cell_formula_units_Z   2
loop_
 _symmetry_equiv_pos_site_id
 _symmetry_equiv_pos_as_xyz
  1  'x, y, z'
loop_
 _atom_site_type_symbol
 _atom_site_label
 _atom_site_symmetry_multiplicity
 _atom_site_fract_x
 _atom_site_fract_y
 _atom_site_fract_z
 _atom_site_occupancy
  K  K0  1  0.25285927  0.99828542  0.74387908  1
  K  K1  1  0.74597791  0.25122947  0.99810123  1
  K  K2  1  0.99414594  0.74129806  0.25261026  1
  K  K3  1  0.49987900  0.49922484  0.50075884  1
  Al  Al0  1  0.83721237  0.25976787  0.64976645  1
  Al  Al1  1  0.64906890  0.83897799  0.26165281  1
  In  In0  1  0.83577516  0.88638771  0.57651263  1
  In  In1  1  0.57982832  0.83972871  0.88687109  1
  In  In2  1  0.88489113  0.57436367  0.83302670  1
  In  In3  1  0.16385775  0.42039674  0.11651053  1
  In  In4  1  0.11566089  0.15959461  0.42235095  1
  In  In5  1  0.42158011  0.11719466  0.16273912  1
  In  In6  1  0.73451835  0.16716293  0.35084925  1
  In  In7  1  0.34945813  0.74048857  0.17123298  1
  In  In8  1  0.16581346  0.34660959  0.73566746  1
  In  In9  1  0.26226741  0.65417723  0.83679978  1
  Te  Te0  1  0.18133358  0.82133355  0.00392005  1
  Te  Te1  1  0.80587464  0.99362409  0.18503612  1
  Te  Te2  1  0.16720724  0.16714008  0.16832117  1
  Te  Te3  1  0.83179958  0.82777056  0.82969053  1
  Te  Te4  1  0.99352009  0.18124148  0.80621568  1
  Te  Te5  1  0.92764910  0.49684256  0.07010746  1
  Te  Te6  1  0.07190697  0.92325189  0.49698771  1
  Te  Te7  1  0.49709837  0.07449667  0.92556530  1
  Te  Te8  1  0.73471043  0.70344132  0.43212386  1
  Te  Te9  1  0.44341063  0.74572833  0.69434507  1
  Te  Te10  1  0.70147869  0.42915085  0.73603222  1
  Te  Te11  1  0.25221156  0.55940041  0.31024008  1
  Te  Te12  1  0.31045103  0.24899436  0.55812555  1
  Te  Te13  1  0.55832874  0.31172802  0.25054070  1
  Te  Te14  1  0.67804206  0.08674205  0.58810806  1
  Te  Te15  1  0.58530022  0.68100100  0.08684254  1
  Te  Te16  1  0.07862613  0.57851023  0.66899971  1
  Te  Te17  1  0.32966384  0.42202982  0.92419350  1
  Te  Te18  1  0.92277693  0.32592552  0.43396248  1
  Te  Te19  1  0.43581706  0.92676013  0.33131408  1
loop_
_geom_bond_atom_site_label_1
_geom_bond_atom_site_label_2
_geom_bond_distance
_geom_bond_site_symmetry_2
K0 Te7 3.463650 1_565
K0 Te6 3.474944 1_555
K0 Te12 3.544630 1_565
K0 Te9 3.569526 1_555
K0 Te0 3.600785 1_556
K0 Te4 3.606105 1_465
K1 Te7 3.475488 1_555
K1 Te5 3.478998 1_556
K1 Te10 3.561546 1_555
K1 Te13 3.570556 1_556
K1 Te4 3.581476 1_555
K1 Te1 3.612751 1_546
K2 Te5 3.452969 1_555
K2 Te6 3.470929 1_655
K2 Te8 3.549263 1_555
K2 Te11 3.572845 1_655
K2 Te1 3.588778 1_555
K2 Te0 3.589923 1_655
K3 Te10 3.515210 1_555
K3 Te11 3.522079 1_555
K3 Te13 3.526258 1_555
K3 Te9 3.533363 1_555
K3 Te8 3.551546 1_555
K3 Te12 3.554993 1_555
Al0 Te4 2.600706 1_555
Al0 Te10 2.602306 1_555
Al0 Te18 2.692356 1_555
Al0 Te14 2.692374 1_555
Al1 Te1 2.601919 1_555
Al1 Te8 2.602820 1_555
Al1 Te19 2.686736 1_555
Al1 Te15 2.695162 1_555
In0 Te8 2.806079 1_555
In0 Te6 2.809520 1_655
In0 Te14 2.845572 1_565
In0 Te3 2.888094 1_555
In1 Te9 2.799814 1_555
In1 Te7 2.806009 1_565
In1 Te15 2.847427 1_556
In1 Te3 2.883116 1_555
In2 Te10 2.799867 1_555
In2 Te5 2.809619 1_556
In2 Te16 2.835284 1_655
In2 Te3 2.885982 1_555
In3 Te11 2.805039 1_555
In3 Te5 2.807369 1_455
In3 Te17 2.834477 1_554
In3 Te2 2.883887 1_555
In4 Te12 2.800607 1_555
In4 Te6 2.808927 1_545
In4 Te18 2.841810 1_455
In4 Te2 2.882368 1_555
In5 Te13 2.805587 1_555
In5 Te7 2.806651 1_554
In5 Te19 2.842342 1_545
In5 Te2 2.885996 1_555
In6 Te13 2.769354 1_555
In6 Te1 2.780180 1_545
In6 Te14 2.861638 1_555
In6 Te18 2.875948 1_555
In7 Te11 2.772979 1_555
In7 Te0 2.776625 1_555
In7 Te15 2.871908 1_555
In7 Te19 2.875722 1_555
In8 Te12 2.772968 1_555
In8 Te4 2.777313 1_455
In8 Te16 2.861713 1_555
In8 Te17 2.876716 1_555
In9 Te9 2.770901 1_555
In9 Te0 2.774985 1_556
In9 Te17 2.867768 1_555
In9 Te16 2.867932 1_555
