# generated using pymatgen
data_Sr2CdTeO6
_symmetry_space_group_name_H-M   'P 1'
_cell_length_a   5.85401171
_cell_length_b   5.77182524
_cell_length_c   9.99873016
_cell_angle_alpha   54.81787922
_cell_angle_beta   90.00000000
_cell_angle_gamma   90.00000000
_symmetry_Int_Tables_number   1
_chemical_formula_structural   Sr2CdTeO6
_chemical_formula_sum   'Sr4 Cd2 Te2 O12'
_cell_volume   276.12533173
_cell_formula_units_Z   2
loop_
 _symmetry_equiv_pos_site_id
 _symmetry_equiv_pos_as_xyz
  1  'x, y, z'
loop_
 _atom_site_type_symbol
 _atom_site_label
 _atom_site_symmetry_multiplicity
 _atom_site_fract_x
 _atom_site_fract_y
 _atom_site_fract_z
 _atom_site_occupancy
  Sr  Sr0  1  0.96027435  0.24214415  0.24927385  1
  Sr  Sr1  1  0.46027435  0.75785585  0.25072615  1
  Sr  Sr2  1  0.03972565  0.75785585  0.75072615  1
  Sr  Sr3  1  0.53972565  0.24214415  0.74927385  1
  Cd  Cd0  1  0.00000000  0.50000000  0.50000000  1
  Cd  Cd1  1  0.50000000  0.50000000  0.00000000  1
  Te  Te0  1  0.50000000  0.00000000  0.50000000  1
  Te  Te1  1  0.00000000  0.00000000  0.00000000  1
  O  O0  1  0.23245504  0.86090762  0.45408969  1
  O  O1  1  0.73245504  0.13909238  0.04591031  1
  O  O2  1  0.76754496  0.13909238  0.54591031  1
  O  O3  1  0.26754496  0.86090762  0.95408969  1
  O  O4  1  0.68955570  0.76967206  0.46186733  1
  O  O5  1  0.18955570  0.23032794  0.03813267  1
  O  O6  1  0.31044430  0.23032794  0.53813267  1
  O  O7  1  0.81044430  0.76967206  0.96186733  1
  O  O8  1  0.02596254  0.69206100  0.22828883  1
  O  O9  1  0.52596254  0.30793900  0.27171117  1
  O  O10  1  0.97403746  0.30793900  0.77171117  1
  O  O11  1  0.47403746  0.69206100  0.72828883  1
loop_
_geom_bond_atom_site_label_1
_geom_bond_atom_site_label_2
_geom_bond_distance
_geom_bond_site_symmetry_2
Cd0 O10 2.272069 1_455
Cd0 O8 2.272069 1_555
Cd0 O4 2.277483 1_455
Cd0 O6 2.277483 1_555
Cd0 O0 2.302140 1_555
Cd0 O2 2.302140 1_455
Cd1 O9 2.272069 1_555
Cd1 O11 2.272069 1_554
Cd1 O7 2.277483 1_554
Cd1 O5 2.277483 1_555
Cd1 O3 2.302140 1_554
Cd1 O1 2.302140 1_555
O0 Te0 1.932079 1_565
O0 Sr0 2.526210 1_465
O0 Sr1 2.767807 1_555
O0 Sr2 2.896697 1_555
O1 Te1 1.932079 1_655
O1 Sr1 2.526210 1_545
O1 Sr0 2.767807 1_555
O1 Sr3 2.896697 1_554
O2 Te0 1.932079 1_555
O2 Sr2 2.526210 1_645
O2 Sr3 2.767807 1_555
O2 Sr0 2.896697 1_555
O3 Te1 1.932079 1_566
O3 Sr3 2.526210 1_565
O3 Sr2 2.767807 1_555
O3 Sr1 2.896697 1_556
O4 Te0 1.930844 1_565
O4 Sr1 2.535555 1_555
O4 Sr0 2.790480 1_565
O4 Sr3 2.866244 1_555
O5 Te1 1.930844 1_555
O5 Sr0 2.535555 1_455
O5 Sr1 2.790480 1_545
O5 Sr2 2.866244 1_554
O6 Te0 1.930844 1_555
O6 Sr3 2.535555 1_555
O6 Sr2 2.790480 1_545
O6 Sr1 2.866244 1_555
O7 Te1 1.930844 1_666
O7 Sr2 2.535555 1_655
O7 Sr3 2.790480 1_565
O7 Sr0 2.866244 1_556
O8 Te1 1.928023 1_565
O8 Sr0 2.511491 1_455
O8 Sr1 2.599396 1_555
O9 Te0 1.928023 1_555
O9 Sr1 2.511491 1_555
O9 Sr0 2.599396 1_555
O10 Te1 1.928023 1_656
O10 Sr2 2.511491 1_655
O10 Sr3 2.599396 1_555
O11 Te0 1.928023 1_565
O11 Sr3 2.511491 1_555
O11 Sr2 2.599396 1_555
