# generated using pymatgen
data_K2TiAs2
_symmetry_space_group_name_H-M   'P 1'
_cell_length_a   8.27123869
_cell_length_b   8.27123792
_cell_length_c   8.27123740
_cell_angle_alpha   133.64102777
_cell_angle_beta   128.35508729
_cell_angle_gamma   71.90031137
_symmetry_Int_Tables_number   1
_chemical_formula_structural   K2TiAs2
_chemical_formula_sum   'K4 Ti2 As4'
_cell_volume   314.15538159
_cell_formula_units_Z   2
loop_
 _symmetry_equiv_pos_site_id
 _symmetry_equiv_pos_as_xyz
  1  'x, y, z'
loop_
 _atom_site_type_symbol
 _atom_site_label
 _atom_site_symmetry_multiplicity
 _atom_site_fract_x
 _atom_site_fract_y
 _atom_site_fract_z
 _atom_site_occupancy
  K  K0  1  0.99767037  0.15074960  0.84692077  1
  K  K1  1  0.00232963  0.84925040  0.15307923  1
  K  K2  1  0.69617018  0.34925040  0.34692077  1
  K  K3  1  0.30382982  0.65074960  0.65307923  1
  Ti  Ti0  1  0.50000000  0.25000000  0.75000000  1
  Ti  Ti1  1  0.50000000  0.75000000  0.25000000  1
  As  As0  1  0.21929017  0.40126198  0.81802920  1
  As  As1  1  0.78070983  0.59873802  0.18197080  1
  As  As2  1  0.41676722  0.09873802  0.31802920  1
  As  As3  1  0.58323278  0.90126198  0.68197080  1
loop_
_geom_bond_atom_site_label_1
_geom_bond_atom_site_label_2
_geom_bond_distance
_geom_bond_site_symmetry_2
As0 Ti1 2.473361 1_556
As0 Ti0 2.473365 1_555
As0 K0 3.361208 1_455
As0 K2 3.465356 1_455
As0 K1 3.535131 1_556
As0 K1 3.535137 1_545
As0 K3 3.546167 1_555
As1 Ti0 2.473361 1_554
As1 Ti1 2.473365 1_555
As1 K1 3.361208 1_655
As1 K3 3.465356 1_655
As1 K0 3.535131 1_554
As1 K0 3.535137 1_565
As1 K2 3.546167 1_555
As2 Ti0 2.473357 1_555
As2 Ti1 2.473357 1_545
As2 K2 3.361208 1_555
As2 K0 3.465356 1_454
As2 K3 3.535134 1_555
As2 K3 3.535139 1_544
As2 K1 3.546158 1_545
As3 Ti1 2.473357 1_555
As3 Ti0 2.473357 1_565
As3 K3 3.361208 1_555
As3 K1 3.465356 1_656
As3 K2 3.535134 1_555
As3 K2 3.535139 1_566
As3 K0 3.546158 1_565
