# generated using pymatgen
data_MnV2O4
_symmetry_space_group_name_H-M   'P 1'
_cell_length_a   6.15298158
_cell_length_b   6.15298158
_cell_length_c   6.15298158
_cell_angle_alpha   60.00000000
_cell_angle_beta   60.00000000
_cell_angle_gamma   60.00000000
_symmetry_Int_Tables_number   1
_chemical_formula_structural   MnV2O4
_chemical_formula_sum   'Mn2 V4 O8'
_cell_volume   164.71829836
_cell_formula_units_Z   2
loop_
 _symmetry_equiv_pos_site_id
 _symmetry_equiv_pos_as_xyz
  1  'x, y, z'
loop_
 _atom_site_type_symbol
 _atom_site_label
 _atom_site_symmetry_multiplicity
 _atom_site_fract_x
 _atom_site_fract_y
 _atom_site_fract_z
 _atom_site_occupancy
  Mn  Mn0  1  0.00000000  0.00000000  0.00000000  1
  Mn  Mn1  1  0.25000000  0.25000000  0.25000000  1
  V  V0  1  0.62500000  0.62500000  0.12500000  1
  V  V1  1  0.62500000  0.62500000  0.62500000  1
  V  V2  1  0.62500000  0.12500000  0.62500000  1
  V  V3  1  0.12500000  0.62500000  0.62500000  1
  O  O0  1  0.41158900  0.86280400  0.86280400  1
  O  O1  1  0.38719600  0.83841100  0.38719600  1
  O  O2  1  0.86280400  0.41158900  0.86280400  1
  O  O3  1  0.86280400  0.86280400  0.41158900  1
  O  O4  1  0.38719600  0.38719600  0.38719600  1
  O  O5  1  0.83841100  0.38719600  0.38719600  1
  O  O6  1  0.38719600  0.38719600  0.83841100  1
  O  O7  1  0.86280400  0.86280400  0.86280400  1
loop_
_geom_bond_atom_site_label_1
_geom_bond_atom_site_label_2
_geom_bond_distance
_geom_bond_site_symmetry_2
Mn0 O7 2.067772 1_444
Mn0 O0 2.067777 1_544
Mn0 O3 2.067777 1_445
Mn0 O2 2.067777 1_454
Mn1 O4 2.067772 1_555
Mn1 O6 2.067777 1_554
Mn1 O1 2.067777 1_545
Mn1 O5 2.067777 1_455
O0 V0 2.074714 1_556
O0 V2 2.074714 1_565
O0 V1 2.074718 1_555
O1 V0 2.074714 1_555
O1 V3 2.074714 1_555
O1 V1 2.074718 1_555
O2 V0 2.074714 1_556
O2 V3 2.074714 1_655
O2 V1 2.074718 1_555
O3 V3 2.074714 1_655
O3 V2 2.074714 1_565
O3 V1 2.074718 1_555
O4 V3 2.074718 1_555
O4 V0 2.074718 1_555
O4 V2 2.074718 1_555
O5 V0 2.074714 1_555
O5 V2 2.074714 1_555
O5 V1 2.074718 1_555
O6 V3 2.074714 1_555
O6 V2 2.074714 1_555
O6 V1 2.074718 1_555
O7 V3 2.074718 1_655
O7 V0 2.074718 1_556
O7 V2 2.074718 1_565
