# generated using pymatgen
data_LuBi3(As4O9)2
_symmetry_space_group_name_H-M   'P 1'
_cell_length_a   6.85364716
_cell_length_b   7.46938294
_cell_length_c   9.71326619
_cell_angle_alpha   95.30052450
_cell_angle_beta   103.98411972
_cell_angle_gamma   104.24603274
_symmetry_Int_Tables_number   1
_chemical_formula_structural   LuBi3(As4O9)2
_chemical_formula_sum   'Lu1 Bi3 As8 O18'
_cell_volume   461.53592836
_cell_formula_units_Z   1
loop_
 _symmetry_equiv_pos_site_id
 _symmetry_equiv_pos_as_xyz
  1  'x, y, z'
loop_
 _atom_site_type_symbol
 _atom_site_label
 _atom_site_symmetry_multiplicity
 _atom_site_fract_x
 _atom_site_fract_y
 _atom_site_fract_z
 _atom_site_occupancy
  Lu  Lu0  1  0.27744827  0.45857153  0.59242790  1
  Bi  Bi0  1  0.24495454  0.92113557  0.62114186  1
  Bi  Bi1  1  0.77265417  0.08116751  0.37454367  1
  Bi  Bi2  1  0.70758908  0.54174825  0.40692965  1
  As  As0  1  0.67352576  0.76739609  0.05586325  1
  As  As1  1  0.32272210  0.24123111  0.93464766  1
  As  As2  1  0.17828529  0.76229553  0.91834185  1
  As  As3  1  0.82028163  0.24153866  0.07349653  1
  As  As4  1  0.74392591  0.90318837  0.71164651  1
  As  As5  1  0.25269255  0.08933685  0.29159191  1
  As  As6  1  0.80146239  0.34606245  0.70458420  1
  As  As7  1  0.18625708  0.64909244  0.29918429  1
  O  O0  1  0.73583452  0.74386822  0.23569680  1
  O  O1  1  0.28811361  0.28294154  0.76016128  1
  O  O2  1  0.31692944  0.99167737  0.88311000  1
  O  O3  1  0.67932100  0.01465544  0.10469757  1
  O  O4  1  0.60495371  0.33161470  0.99828098  1
  O  O5  1  0.39124990  0.68311089  0.01513607  1
  O  O6  1  0.14129039  0.66359522  0.74034614  1
  O  O7  1  0.87816729  0.33005900  0.25688522  1
  O  O8  1  0.83259765  0.85329281  0.55950651  1
  O  O9  1  0.17403326  0.16134241  0.44434547  1
  O  O10  1  0.48734699  0.75782934  0.66690898  1
  O  O11  1  0.51072339  0.22444242  0.32212239  1
  O  O12  1  0.36734600  0.53566242  0.37915208  1
  O  O13  1  0.60971515  0.44422584  0.61735375  1
  O  O14  1  0.09403237  0.65287647  0.45724162  1
  O  O15  1  0.91735383  0.33135200  0.55744539  1
  O  O16  1  0.35055739  0.89741543  0.36307330  1
  O  O17  1  0.63863534  0.09727312  0.65413716  1
loop_
_geom_bond_atom_site_label_1
_geom_bond_atom_site_label_2
_geom_bond_distance
_geom_bond_site_symmetry_2
Lu0 O1 2.182941 1_555
Lu0 O13 2.261491 1_555
Lu0 O10 2.281427 1_555
Lu0 O15 2.343091 1_455
Lu0 O9 2.375499 1_555
Lu0 O12 2.380208 1_555
Lu0 O14 2.421384 1_555
Lu0 O6 2.495023 1_555
Bi0 O10 2.277270 1_555
Bi0 O14 2.283423 1_555
Bi0 O6 2.383771 1_555
Bi0 O2 2.452242 1_555
Bi0 O17 2.621199 1_565
Bi0 O9 2.645656 1_565
Bi0 O8 2.650223 1_455
Bi0 O16 2.774276 1_555
Bi0 O1 2.820198 1_565
Bi1 O11 2.287282 1_555
Bi1 O15 2.292340 1_555
Bi1 O7 2.327118 1_555
Bi1 O3 2.513716 1_555
Bi1 O9 2.568770 1_655
Bi1 O8 2.616493 1_545
Bi1 O0 2.669240 1_545
Bi2 O12 2.270271 1_555
Bi2 O0 2.357698 1_555
Bi2 O11 2.375826 1_555
Bi2 O13 2.419782 1_555
Bi2 O8 2.472539 1_555
Bi2 O14 2.481954 1_655
Bi2 O15 2.682281 1_555
Bi2 O7 2.701573 1_555
As0 O0 1.731355 1_555
As0 O5 1.811145 1_555
As0 O3 1.852149 1_565
As1 O1 1.722040 1_555
As1 O4 1.811558 1_555
As1 O2 1.873042 1_545
As2 O6 1.748599 1_555
As2 O5 1.796819 1_556
As2 O2 1.849263 1_555
As3 O7 1.754808 1_555
As3 O4 1.795210 1_554
As3 O3 1.824205 1_555
As4 O10 1.750374 1_555
As4 O8 1.770823 1_555
As4 O17 1.845011 1_565
As5 O11 1.745467 1_555
As5 O9 1.778547 1_555
As5 O16 1.849062 1_545
As6 O13 1.741673 1_555
As6 O15 1.802260 1_555
As6 O17 1.866969 1_555
As7 O12 1.742055 1_555
As7 O14 1.796411 1_555
As7 O16 1.874860 1_555
