# generated using pymatgen
data_Cs4Al2S5
_symmetry_space_group_name_H-M   'P 1'
_cell_length_a   7.90985126
_cell_length_b   8.91446484
_cell_length_c   10.87422858
_cell_angle_alpha   78.09992729
_cell_angle_beta   85.60559617
_cell_angle_gamma   80.10027048
_symmetry_Int_Tables_number   1
_chemical_formula_structural   Cs4Al2S5
_chemical_formula_sum   'Cs8 Al4 S10'
_cell_volume   738.43975625
_cell_formula_units_Z   2
loop_
 _symmetry_equiv_pos_site_id
 _symmetry_equiv_pos_as_xyz
  1  'x, y, z'
loop_
 _atom_site_type_symbol
 _atom_site_label
 _atom_site_symmetry_multiplicity
 _atom_site_fract_x
 _atom_site_fract_y
 _atom_site_fract_z
 _atom_site_occupancy
  Cs  Cs0  1  0.42492668  0.32273408  0.09330615  1
  Cs  Cs1  1  0.57507332  0.67726592  0.90669385  1
  Cs  Cs2  1  0.20056167  0.07662384  0.87288701  1
  Cs  Cs3  1  0.06085912  0.60252415  0.75628761  1
  Cs  Cs4  1  0.79943833  0.92337616  0.12711299  1
  Cs  Cs5  1  0.93914088  0.39747585  0.24371239  1
  Cs  Cs6  1  0.59045284  0.70821307  0.51249256  1
  Cs  Cs7  1  0.40954716  0.29178693  0.48750744  1
  Al  Al0  1  0.90850023  0.08722734  0.59615618  1
  Al  Al1  1  0.09149977  0.91277266  0.40384382  1
  Al  Al2  1  0.27573323  0.72894502  0.21492192  1
  Al  Al3  1  0.72426677  0.27105498  0.78507808  1
  S  S0  1  0.89065760  0.33804313  0.60318104  1
  S  S1  1  0.18399047  0.96078564  0.58214063  1
  S  S2  1  0.45522796  0.39131563  0.76584552  1
  S  S3  1  0.16291405  0.69075653  0.04528919  1
  S  S4  1  0.83708595  0.30924347  0.95471081  1
  S  S5  1  0.54477204  0.60868437  0.23415448  1
  S  S6  1  0.10934240  0.66195687  0.39681896  1
  S  S7  1  0.24333147  0.99232899  0.22585141  1
  S  S8  1  0.75666853  0.00767101  0.77414859  1
  S  S9  1  0.81600953  0.03921436  0.41785937  1
loop_
_geom_bond_atom_site_label_1
_geom_bond_atom_site_label_2
_geom_bond_distance
_geom_bond_site_symmetry_2
Cs0 S4 3.478683 1_554
Cs0 S2 3.483227 1_554
Cs0 S7 3.493223 1_545
Cs0 S5 3.522200 1_555
Cs0 S3 3.528798 1_555
Cs1 S3 3.478683 1_556
Cs1 S5 3.483227 1_556
Cs1 S8 3.493223 1_565
Cs1 S2 3.522200 1_555
Cs1 S4 3.528798 1_555
Cs2 S4 3.417106 1_455
Cs2 S1 3.540621 1_545
Cs2 S3 3.611467 1_546
Cs2 S2 3.676877 1_555
Cs2 S7 3.785909 1_546
Cs3 S2 3.352000 1_555
Cs3 S3 3.573955 1_556
Cs3 S1 3.609317 1_555
Cs3 S0 3.632758 1_455
Cs3 S4 3.647377 1_455
Cs3 S6 3.833230 1_555
Cs3 S8 4.012582 1_465
Cs4 S3 3.417106 1_655
Cs4 S9 3.540621 1_565
Cs4 S4 3.611467 1_564
Cs4 S5 3.676877 1_555
Cs4 S8 3.785909 1_564
Cs5 S5 3.352000 1_555
Cs5 S4 3.573955 1_554
Cs5 S9 3.609317 1_555
Cs5 S6 3.632758 1_655
Cs5 S3 3.647377 1_655
Cs5 S0 3.833230 1_555
Cs5 S7 4.012582 1_645
Cs6 S5 3.385864 1_555
Cs6 S9 3.636650 1_565
Cs6 S1 3.717623 1_555
Cs6 S0 3.717890 1_555
Cs6 S2 3.753974 1_555
Cs7 S2 3.385864 1_555
Cs7 S1 3.636650 1_545
Cs7 S9 3.717623 1_555
Cs7 S6 3.717890 1_555
Cs7 S5 3.753974 1_555
Al0 S0 2.232764 1_555
Al0 S8 2.249912 1_555
Al0 S9 2.268212 1_555
Al0 S1 2.284193 1_645
Al1 S6 2.232764 1_555
Al1 S7 2.249912 1_555
Al1 S1 2.268212 1_555
Al1 S9 2.284193 1_465
Al2 S5 2.216519 1_555
Al2 S3 2.220490 1_555
Al2 S6 2.320650 1_555
Al2 S7 2.344371 1_555
Al3 S2 2.216519 1_555
Al3 S4 2.220490 1_555
Al3 S0 2.320650 1_555
Al3 S8 2.344371 1_555
