# generated using pymatgen
data_Ce(SiRu)2
_symmetry_space_group_name_H-M   'P 1'
_cell_length_a   4.19706170
_cell_length_b   4.19706170
_cell_length_c   5.68603266
_cell_angle_alpha   111.65811052
_cell_angle_beta   111.65810951
_cell_angle_gamma   90.00000907
_symmetry_Int_Tables_number   1
_chemical_formula_structural   Ce(SiRu)2
_chemical_formula_sum   'Ce1 Si2 Ru2'
_cell_volume   85.43582093
_cell_formula_units_Z   1
loop_
 _symmetry_equiv_pos_site_id
 _symmetry_equiv_pos_as_xyz
  1  'x, y, z'
loop_
 _atom_site_type_symbol
 _atom_site_label
 _atom_site_symmetry_multiplicity
 _atom_site_fract_x
 _atom_site_fract_y
 _atom_site_fract_z
 _atom_site_occupancy
  Ce  Ce0  1  -0.00000000  -0.00000000  -0.00000000  1
  Si  Si0  1  0.63454799  0.63454799  0.26909697  1
  Si  Si1  1  0.36545201  0.36545201  0.73090303  1
  Ru  Ru0  1  0.75000000  0.25000000  0.50000000  1
  Ru  Ru1  1  0.25000000  0.75000000  0.50000000  1
loop_
_geom_bond_atom_site_label_1
_geom_bond_atom_site_label_2
_geom_bond_distance
_geom_bond_site_symmetry_2
Ce0 Ru0 3.206970 1_455
Ce0 Ru1 3.206970 1_544
Ce0 Ru0 3.206970 1_454
Ce0 Ru1 3.206970 1_545
Ce0 Ru0 3.206971 1_444
Ce0 Ru1 3.206971 1_555
Ce0 Ru1 3.206971 1_444
Ce0 Ru0 3.206971 1_555
Ce0 Si1 3.242074 1_444
Ce0 Si0 3.242074 1_555
Ce0 Si1 3.242077 1_544
Ce0 Si0 3.242077 1_455
Ce0 Si0 3.242077 1_545
Ce0 Si1 3.242077 1_454
Ce0 Si0 3.242079 1_445
Ce0 Si1 3.242079 1_554
Ru0 Si1 2.378654 1_555
Ru0 Si0 2.378654 1_555
Ru0 Si0 2.378658 1_545
Ru0 Si1 2.378658 1_655
Ru1 Si0 2.378654 1_555
Ru1 Si1 2.378654 1_555
Ru1 Si1 2.378658 1_565
Ru1 Si0 2.378658 1_455
