# generated using pymatgen
data_Ta12Al9Ru3C4
_symmetry_space_group_name_H-M   'P 1'
_cell_length_a   8.26540464
_cell_length_b   8.26540492
_cell_length_c   8.26540457
_cell_angle_alpha   60.23232585
_cell_angle_beta   60.23232360
_cell_angle_gamma   60.23232463
_symmetry_Int_Tables_number   1
_chemical_formula_structural   Ta12Al9Ru3C4
_chemical_formula_sum   'Ta12 Al9 Ru3 C4'
_cell_volume   401.37988788
_cell_formula_units_Z   1
loop_
 _symmetry_equiv_pos_site_id
 _symmetry_equiv_pos_as_xyz
  1  'x, y, z'
loop_
 _atom_site_type_symbol
 _atom_site_label
 _atom_site_symmetry_multiplicity
 _atom_site_fract_x
 _atom_site_fract_y
 _atom_site_fract_z
 _atom_site_occupancy
  Ta  Ta0  1  0.18679306  0.81272038  0.18679306  1
  Ta  Ta1  1  0.81178867  0.18733402  0.81178867  1
  Ta  Ta2  1  0.06320694  0.43727962  0.06320694  1
  Ta  Ta3  1  0.06266598  0.43821133  0.43821133  1
  Ta  Ta4  1  0.43727962  0.06320694  0.06320694  1
  Ta  Ta5  1  0.43821133  0.06266598  0.43821133  1
  Ta  Ta6  1  0.81178867  0.81178867  0.18733402  1
  Ta  Ta7  1  0.06320694  0.06320694  0.43727962  1
  Ta  Ta8  1  0.18679306  0.18679306  0.81272038  1
  Ta  Ta9  1  0.18733402  0.81178867  0.81178867  1
  Ta  Ta10  1  0.43821133  0.43821133  0.06266598  1
  Ta  Ta11  1  0.81272038  0.18679306  0.18679306  1
  Al  Al0  1  0.62500000  0.62500000  0.62500000  1
  Al  Al1  1  0.83794618  0.83794618  0.49877069  1
  Al  Al2  1  0.49877069  0.83794618  0.83794618  1
  Al  Al3  1  0.41205382  0.75122931  0.41205382  1
  Al  Al4  1  0.75122931  0.41205382  0.41205382  1
  Al  Al5  1  0.41676925  0.41676925  0.41676925  1
  Al  Al6  1  0.41205382  0.41205382  0.75122931  1
  Al  Al7  1  0.83794618  0.49877069  0.83794618  1
  Al  Al8  1  0.83323075  0.83323075  0.83323075  1
  Ru  Ru0  1  0.12500000  0.62500000  0.62500000  1
  Ru  Ru1  1  0.62500000  0.62500000  0.12500000  1
  Ru  Ru2  1  0.62500000  0.12500000  0.62500000  1
  C  C0  1  0.12500000  0.12500000  0.12500000  1
  C  C1  1  0.12500000  0.12500000  0.62500000  1
  C  C2  1  0.62500000  0.12500000  0.12500000  1
  C  C3  1  0.12500000  0.62500000  0.12500000  1
loop_
_geom_bond_atom_site_label_1
_geom_bond_atom_site_label_2
_geom_bond_distance
_geom_bond_site_symmetry_2
Al0 Al4 2.591058 1_555
Al0 Al2 2.591058 1_555
Al0 Al7 2.591058 1_555
Al0 Al3 2.591058 1_555
Al0 Al1 2.591058 1_555
Al0 Al6 2.591058 1_555
Al0 Ta3 3.021384 1_655
Al0 Ta9 3.021384 1_555
Al0 Ta10 3.021384 1_556
Al0 Ta6 3.021384 1_555
Al0 Ta1 3.021384 1_555
Al0 Ta5 3.021384 1_565
Al1 Ru0 2.510716 1_655
Al1 Ru2 2.510716 1_565
Al1 Al8 2.726306 1_555
Al2 Ru1 2.510716 1_556
Al2 Ru2 2.510716 1_565
Al2 Al8 2.726306 1_555
Al3 Ru1 2.510716 1_555
Al3 Ru0 2.510716 1_555
Al3 Al5 2.726306 1_555
Al4 Ru1 2.510716 1_555
Al4 Ru2 2.510716 1_555
Al4 Al5 2.726306 1_555
Al5 Ru0 2.537469 1_555
Al5 Ru1 2.537469 1_555
Al5 Ru2 2.537470 1_555
Al5 Al6 2.726306 1_555
Al5 Ta10 2.762260 1_555
Al5 Ta3 2.762260 1_555
Al5 Ta5 2.762260 1_555
Al5 Ta11 3.028280 1_555
Al5 Ta8 3.028281 1_555
Al5 Ta0 3.028281 1_555
Al6 Ru0 2.510716 1_555
Al6 Ru2 2.510716 1_555
Al7 Ru1 2.510716 1_556
Al7 Ru0 2.510716 1_655
Al7 Al8 2.726306 1_555
Al8 Ru0 2.537469 1_655
Al8 Ru1 2.537469 1_556
Al8 Ru2 2.537470 1_565
Al8 Ta6 2.762260 1_556
Al8 Ta9 2.762260 1_655
Al8 Ta1 2.762260 1_565
Al8 Ta4 3.028280 1_566
Al8 Ta7 3.028281 1_665
Al8 Ta2 3.028281 1_656
Ru0 Ta9 2.996515 1_555
Ru0 Ta3 2.996515 1_555
Ru0 Ta2 3.025987 1_556
Ru0 Ta0 3.025987 1_555
Ru0 Ta7 3.025987 1_565
Ru0 Ta8 3.025987 1_555
Ru1 Ta6 2.996515 1_555
Ru1 Ta10 2.996515 1_555
Ru1 Ta2 3.025987 1_655
Ru1 Ta0 3.025987 1_555
Ru1 Ta4 3.025987 1_565
Ru1 Ta11 3.025987 1_555
Ru2 Ta1 2.996515 1_555
Ru2 Ta5 2.996515 1_555
Ru2 Ta4 3.025987 1_556
Ru2 Ta11 3.025987 1_555
Ru2 Ta7 3.025987 1_655
Ru2 Ta8 3.025987 1_555
C0 Ta7 2.196558 1_555
C0 Ta8 2.196558 1_554
C0 Ta4 2.196558 1_555
C0 Ta11 2.196558 1_455
C0 Ta2 2.196558 1_555
C0 Ta0 2.196558 1_545
C1 Ta8 2.182188 1_555
C1 Ta7 2.182188 1_555
C1 Ta5 2.201748 1_555
C1 Ta1 2.201748 1_455
C1 Ta9 2.201748 1_545
C1 Ta3 2.201748 1_555
C2 Ta11 2.182188 1_555
C2 Ta4 2.182188 1_555
C2 Ta5 2.201748 1_555
C2 Ta1 2.201748 1_554
C2 Ta10 2.201748 1_555
C2 Ta6 2.201748 1_545
C3 Ta0 2.182188 1_555
C3 Ta2 2.182188 1_555
C3 Ta6 2.201748 1_455
C3 Ta10 2.201748 1_555
C3 Ta3 2.201748 1_555
C3 Ta9 2.201748 1_554
