# generated using pymatgen
data_Ba6Sc2Fe2O13
_symmetry_space_group_name_H-M   'P 1'
_cell_length_a   11.34332065
_cell_length_b   11.34331987
_cell_length_c   5.67652916
_cell_angle_alpha   90.00000000
_cell_angle_beta   90.00000000
_cell_angle_gamma   151.02283319
_symmetry_Int_Tables_number   1
_chemical_formula_structural   Ba6Sc2Fe2O13
_chemical_formula_sum   'Ba6 Sc2 Fe2 O13'
_cell_volume   353.85237282
_cell_formula_units_Z   1
loop_
 _symmetry_equiv_pos_site_id
 _symmetry_equiv_pos_as_xyz
  1  'x, y, z'
loop_
 _atom_site_type_symbol
 _atom_site_label
 _atom_site_symmetry_multiplicity
 _atom_site_fract_x
 _atom_site_fract_y
 _atom_site_fract_z
 _atom_site_occupancy
  Ba  Ba0  1  0.50000000  0.50000000  0.00000000  1
  Ba  Ba1  1  0.00000000  0.00000000  0.50000000  1
  Ba  Ba2  1  0.18330397  0.81669603  0.50000000  1
  Ba  Ba3  1  0.68459115  0.31540885  0.00000000  1
  Ba  Ba4  1  0.31540885  0.68459115  0.00000000  1
  Ba  Ba5  1  0.81669603  0.18330397  0.50000000  1
  Sc  Sc0  1  0.90565700  0.09434300  0.00000000  1
  Sc  Sc1  1  0.09434300  0.90565700  0.00000000  1
  Fe  Fe0  1  0.39569957  0.60430043  0.50000000  1
  Fe  Fe1  1  0.60430043  0.39569957  0.50000000  1
  O  O0  1  0.63795682  0.82120385  0.72964580  1
  O  O1  1  0.17879615  0.36204318  0.27035420  1
  O  O2  1  0.82120385  0.63795682  0.72964580  1
  O  O3  1  0.36204318  0.17879615  0.27035420  1
  O  O4  1  0.17879615  0.36204318  0.72964580  1
  O  O5  1  0.63795682  0.82120385  0.27035420  1
  O  O6  1  0.36204318  0.17879615  0.72964580  1
  O  O7  1  0.82120385  0.63795682  0.27035420  1
  O  O8  1  0.30704620  0.69295380  0.50000000  1
  O  O9  1  0.81122790  0.18877210  0.00000000  1
  O  O10  1  0.18877210  0.81122790  0.00000000  1
  O  O11  1  0.69295380  0.30704620  0.50000000  1
  O  O12  1  0.00000000  0.00000000  0.00000000  1
loop_
_geom_bond_atom_site_label_1
_geom_bond_atom_site_label_2
_geom_bond_distance
_geom_bond_site_symmetry_2
Ba0 O12 2.837952 1_555
Ba0 O12 2.837952 1_665
Ba0 O5 2.846662 1_555
Ba0 O0 2.846662 1_554
Ba0 O3 2.846662 1_555
Ba0 O6 2.846662 1_554
Ba0 O7 2.846662 1_555
Ba0 O1 2.846662 1_555
Ba0 O2 2.846662 1_554
Ba0 O4 2.846662 1_554
Ba1 O12 2.838265 1_556
Ba1 O12 2.838265 1_555
Ba1 O4 2.847007 1_555
Ba1 O1 2.847007 1_555
Ba1 O2 2.847007 1_445
Ba1 O7 2.847007 1_445
Ba1 O6 2.847007 1_555
Ba1 O3 2.847007 1_555
Ba1 O0 2.847007 1_445
Ba1 O5 2.847007 1_445
Ba2 O8 2.718016 1_555
Ba2 O10 2.840805 1_556
Ba2 O10 2.840805 1_555
Ba2 O11 2.845857 1_455
Ba2 O11 2.845857 1_565
Ba2 O6 2.847891 1_565
Ba2 O3 2.847891 1_565
Ba2 O2 2.847891 1_455
Ba2 O7 2.847891 1_455
Ba3 O9 2.781595 1_555
Ba3 O10 2.839438 1_545
Ba3 O10 2.839438 1_655
Ba3 O11 2.844202 1_554
Ba3 O11 2.844202 1_555
Ba3 O7 2.867610 1_555
Ba3 O2 2.867610 1_554
Ba3 O3 2.867611 1_555
Ba3 O6 2.867611 1_554
Ba4 O10 2.781595 1_555
Ba4 O9 2.839438 1_565
Ba4 O9 2.839438 1_455
Ba4 O8 2.844202 1_555
Ba4 O8 2.844202 1_554
Ba4 O1 2.867610 1_555
Ba4 O4 2.867610 1_554
Ba4 O5 2.867611 1_555
Ba4 O0 2.867611 1_554
Ba5 O11 2.718016 1_555
Ba5 O9 2.840805 1_556
Ba5 O9 2.840805 1_555
Ba5 O8 2.845857 1_655
Ba5 O8 2.845857 1_545
Ba5 O0 2.847891 1_545
Ba5 O5 2.847891 1_545
Ba5 O4 2.847891 1_655
Ba5 O1 2.847891 1_655
Fe0 O4 1.864106 1_555
Fe0 O1 1.864106 1_555
Fe0 O0 1.864106 1_555
Fe0 O5 1.864106 1_555
Fe0 O8 1.947284 1_555
Fe1 O2 1.864106 1_555
Fe1 O7 1.864106 1_555
Fe1 O6 1.864106 1_555
Fe1 O3 1.864106 1_555
Fe1 O11 1.947284 1_555
O0 Sc0 2.171321 1_566
O1 Sc0 2.171321 1_455
O2 Sc1 2.171321 1_656
O3 Sc1 2.171321 1_545
O4 Sc0 2.171321 1_456
O5 Sc0 2.171321 1_565
O6 Sc1 2.171321 1_546
O7 Sc1 2.171321 1_655
O9 Sc0 2.074149 1_555
O10 Sc1 2.074149 1_555
O12 Sc0 2.072258 1_455
O12 Sc1 2.072258 1_545
