# generated using pymatgen
data_Cs2Mn(HgSe2)2
_symmetry_space_group_name_H-M   'P 1'
_cell_length_a   10.14564519
_cell_length_b   10.14564454
_cell_length_c   10.14564442
_cell_angle_alpha   142.69812187
_cell_angle_beta   108.00402193
_cell_angle_gamma   83.99948514
_symmetry_Int_Tables_number   1
_chemical_formula_structural   Cs2Mn(HgSe2)2
_chemical_formula_sum   'Cs4 Mn2 Hg4 Se8'
_cell_volume   583.51599589
_cell_formula_units_Z   2
loop_
 _symmetry_equiv_pos_site_id
 _symmetry_equiv_pos_as_xyz
  1  'x, y, z'
loop_
 _atom_site_type_symbol
 _atom_site_label
 _atom_site_symmetry_multiplicity
 _atom_site_fract_x
 _atom_site_fract_y
 _atom_site_fract_z
 _atom_site_occupancy
  Cs  Cs0  1  0.62525225  0.22563028  0.85088352  1
  Cs  Cs1  1  0.37474775  0.77436972  0.14911648  1
  Cs  Cs2  1  0.12525225  0.27436972  0.39962197  1
  Cs  Cs3  1  0.87474775  0.72563028  0.60037803  1
  Mn  Mn0  1  0.75000000  0.75000000  0.00000000  1
  Mn  Mn1  1  0.25000000  0.25000000  0.00000000  1
  Hg  Hg0  1  0.08898133  0.75000000  0.33898133  1
  Hg  Hg1  1  0.41101867  0.75000000  0.66101867  1
  Hg  Hg2  1  0.91101867  0.25000000  0.66101867  1
  Hg  Hg3  1  0.58898133  0.25000000  0.33898133  1
  Se  Se0  1  0.98069140  0.64641178  0.91729309  1
  Se  Se1  1  0.72911969  0.06339831  0.08270691  1
  Se  Se2  1  0.77088031  0.85358822  0.33427862  1
  Se  Se3  1  0.51930860  0.43660169  0.66572138  1
  Se  Se4  1  0.01930860  0.35358822  0.08270691  1
  Se  Se5  1  0.27088031  0.93660169  0.91729309  1
  Se  Se6  1  0.22911969  0.14641178  0.66572138  1
  Se  Se7  1  0.48069140  0.56339831  0.33427862  1
loop_
_geom_bond_atom_site_label_1
_geom_bond_atom_site_label_2
_geom_bond_distance
_geom_bond_site_symmetry_2
Cs0 Se1 3.689928 1_556
Cs0 Se4 3.689937 1_656
Cs0 Se6 3.732783 1_555
Cs0 Se3 3.732792 1_555
Cs0 Se7 3.821673 1_556
Cs0 Se2 3.821689 1_556
Cs0 Se7 4.006063 1_545
Cs0 Se2 4.006072 1_545
Cs0 Hg1 4.066630 1_545
Cs0 Hg2 4.066644 1_555
Cs1 Se5 3.689928 1_554
Cs1 Se0 3.689937 1_454
Cs1 Se2 3.732783 1_555
Cs1 Se7 3.732792 1_555
Cs1 Se3 3.821673 1_554
Cs1 Se6 3.821689 1_554
Cs1 Se3 4.006063 1_565
Cs1 Se6 4.006072 1_565
Cs1 Hg3 4.066630 1_565
Cs1 Hg0 4.066644 1_555
Cs2 Se3 3.689937 1_555
Cs2 Se6 3.689946 1_555
Cs2 Se1 3.732783 1_455
Cs2 Se4 3.732792 1_555
Cs2 Se5 3.821680 1_544
Cs2 Se0 3.821687 1_444
Cs2 Se5 4.006064 1_555
Cs2 Se0 4.006065 1_455
Cs2 Hg2 4.066637 1_455
Cs2 Hg1 4.066637 1_555
Cs3 Se7 3.689937 1_555
Cs3 Se2 3.689946 1_555
Cs3 Se5 3.732783 1_655
Cs3 Se0 3.732792 1_555
Cs3 Se1 3.821680 1_566
Cs3 Se4 3.821687 1_666
Cs3 Se1 4.006064 1_555
Cs3 Se4 4.006065 1_655
Cs3 Hg0 4.066637 1_655
Cs3 Hg3 4.066637 1_555
Mn0 Se2 2.565812 1_555
Mn0 Se1 2.565819 1_565
Mn0 Se3 2.565819 1_554
Mn0 Se0 2.565819 1_554
Mn1 Se6 2.565812 1_554
Mn1 Se5 2.565819 1_544
Mn1 Se7 2.565819 1_555
Mn1 Se4 2.565819 1_555
Hg0 Se4 2.501461 1_555
Hg0 Se6 2.501463 1_565
Hg1 Se7 2.501469 1_555
Hg1 Se5 2.501469 1_555
Hg2 Se0 2.501461 1_555
Hg2 Se2 2.501463 1_545
Hg3 Se3 2.501469 1_555
Hg3 Se1 2.501469 1_555
