# generated using pymatgen
data_SrMn(Sb4Ru)3
_symmetry_space_group_name_H-M   'P 1'
_cell_length_a   8.14524124
_cell_length_b   8.12866346
_cell_length_c   8.14524182
_cell_angle_alpha   109.42999800
_cell_angle_beta   109.51241836
_cell_angle_gamma   109.42999747
_symmetry_Int_Tables_number   1
_chemical_formula_structural   SrMn(Sb4Ru)3
_chemical_formula_sum   'Sr1 Mn1 Sb12 Ru3'
_cell_volume   415.36112339
_cell_formula_units_Z   1
loop_
 _symmetry_equiv_pos_site_id
 _symmetry_equiv_pos_as_xyz
  1  'x, y, z'
loop_
 _atom_site_type_symbol
 _atom_site_label
 _atom_site_symmetry_multiplicity
 _atom_site_fract_x
 _atom_site_fract_y
 _atom_site_fract_z
 _atom_site_occupancy
  Sr  Sr0  1  0.00000000  0.00000000  0.00000000  1
  Mn  Mn0  1  0.00000000  0.50000000  0.00000000  1
  Sb  Sb0  1  0.16005617  0.49912270  0.34982499  1
  Sb  Sb1  1  0.50273406  0.66092424  0.84206381  1
  Sb  Sb2  1  0.34982499  0.85070228  0.18976981  1
  Sb  Sb3  1  0.81023019  0.66093347  0.16005617  1
  Sb  Sb4  1  0.66067025  0.84180982  0.50273406  1
  Sb  Sb5  1  0.18976981  0.33906653  0.83994383  1
  Sb  Sb6  1  0.65017501  0.14929772  0.81023019  1
  Sb  Sb7  1  0.33932975  0.15819018  0.49726594  1
  Sb  Sb8  1  0.49726594  0.33907576  0.15793619  1
  Sb  Sb9  1  0.83994383  0.50087730  0.65017501  1
  Sb  Sb10  1  0.84206381  0.18113958  0.33932975  1
  Sb  Sb11  1  0.15793619  0.81886042  0.66067025  1
  Ru  Ru0  1  0.50000000  0.50000000  0.50000000  1
  Ru  Ru1  1  0.50000000  0.00000000  0.00000000  1
  Ru  Ru2  1  0.00000000  0.00000000  0.50000000  1
loop_
_geom_bond_atom_site_label_1
_geom_bond_atom_site_label_2
_geom_bond_distance
_geom_bond_site_symmetry_2
Mn0 Sb2 2.712371 1_555
Mn0 Sb6 2.712371 1_454
Mn0 Sb0 2.712373 1_555
Mn0 Sb9 2.712373 1_454
Mn0 Sb3 2.712380 1_455
Mn0 Sb5 2.712380 1_554
Sb0 Sb10 2.940753 1_455
Sb0 Sb11 2.974365 1_555
Sb0 Sr0 3.547905 1_555
Sb1 Sb3 2.940748 1_556
Sb1 Sb5 2.974360 1_555
Sb1 Sr0 3.519947 1_666
Sb2 Sb7 2.940748 1_565
Sb2 Sb4 2.974360 1_555
Sb2 Sr0 3.547907 1_565
Sb3 Sb8 2.974360 1_555
Sb3 Sr0 3.547907 1_665
Sb4 Sb6 2.940748 1_565
Sb4 Sr0 3.519947 1_666
Sb5 Sb8 2.940748 1_556
Sb5 Sr0 3.547907 1_556
Sb6 Sb7 2.974360 1_555
Sb6 Sr0 3.547907 1_656
Sb7 Sr0 3.519947 1_555
Sb8 Sr0 3.519947 1_555
Sb9 Sr0 3.547905 1_666
Sb10 Sb9 2.974365 1_555
Sb10 Sr0 3.519947 1_655
Sb11 Sb9 2.940753 1_455
Sb11 Sr0 3.519947 1_566
Ru0 Sb9 2.623303 1_555
Ru0 Sb0 2.623303 1_555
Ru0 Sb4 2.636892 1_555
Ru0 Sb7 2.636892 1_555
Ru0 Sb8 2.643645 1_555
Ru0 Sb1 2.643645 1_555
Ru1 Sb6 2.623311 1_554
Ru1 Sb2 2.623311 1_545
Ru1 Sb8 2.636892 1_555
Ru1 Sb1 2.636892 1_544
Ru1 Sb10 2.643645 1_555
Ru1 Sb11 2.643645 1_544
Ru2 Sb5 2.623303 1_555
Ru2 Sb3 2.623303 1_445
Ru2 Sb11 2.636892 1_545
Ru2 Sb10 2.636892 1_455
Ru2 Sb7 2.643645 1_555
Ru2 Sb4 2.643645 1_445
