# generated using pymatgen
data_Cs5SrNbAs4
_symmetry_space_group_name_H-M   'P 1'
_cell_length_a   11.15523769
_cell_length_b   11.15523788
_cell_length_c   8.31128323
_cell_angle_alpha   87.10393379
_cell_angle_beta   87.10393493
_cell_angle_gamma   120.87207718
_symmetry_Int_Tables_number   1
_chemical_formula_structural   Cs5SrNbAs4
_chemical_formula_sum   'Cs10 Sr2 Nb2 As8'
_cell_volume   883.04623919
_cell_formula_units_Z   2
loop_
 _symmetry_equiv_pos_site_id
 _symmetry_equiv_pos_as_xyz
  1  'x, y, z'
loop_
 _atom_site_type_symbol
 _atom_site_label
 _atom_site_symmetry_multiplicity
 _atom_site_fract_x
 _atom_site_fract_y
 _atom_site_fract_z
 _atom_site_occupancy
  Cs  Cs0  1  0.46547884  0.52445522  0.49085660  1
  Cs  Cs1  1  0.06311527  0.52871734  0.49794343  1
  Cs  Cs2  1  0.52445522  0.46547884  0.99085660  1
  Cs  Cs3  1  0.52871734  0.06311527  0.99794343  1
  Cs  Cs4  1  0.86638316  0.13887490  0.68574842  1
  Cs  Cs5  1  0.29579538  0.15254125  0.74485359  1
  Cs  Cs6  1  0.85793268  0.72143417  0.64159106  1
  Cs  Cs7  1  0.13887490  0.86638316  0.18574842  1
  Cs  Cs8  1  0.72143417  0.85793268  0.14159106  1
  Cs  Cs9  1  0.15254125  0.29579538  0.24485359  1
  Sr  Sr0  1  0.46304141  0.93521748  0.49159937  1
  Sr  Sr1  1  0.93521748  0.46304141  0.99159937  1
  Nb  Nb0  1  0.67263853  0.32492472  0.39232172  1
  Nb  Nb1  1  0.32492472  0.67263853  0.89232172  1
  As  As0  1  0.69617075  0.34596693  0.68968403  1
  As  As1  1  0.34596693  0.69617075  0.18968403  1
  As  As2  1  0.78521640  0.19602359  0.28653171  1
  As  As3  1  0.41746265  0.18580467  0.34261432  1
  As  As4  1  0.79594762  0.56685503  0.25054475  1
  As  As5  1  0.19602359  0.78521640  0.78653171  1
  As  As6  1  0.56685503  0.79594762  0.75054475  1
  As  As7  1  0.18580467  0.41746265  0.84261432  1
loop_
_geom_bond_atom_site_label_1
_geom_bond_atom_site_label_2
_geom_bond_distance
_geom_bond_site_symmetry_2
As0 Nb0 2.508601 1_555
As0 Sr1 3.542091 1_555
As0 Cs3 3.558085 1_555
As0 Cs6 3.600065 1_555
As0 Cs4 3.666896 1_555
As0 Cs1 3.728250 1_655
As0 Cs2 3.766400 1_555
As0 Cs5 3.823199 1_555
As1 Nb1 2.508601 1_554
As1 Sr0 3.542091 1_555
As1 Cs1 3.558085 1_555
As1 Cs8 3.600065 1_555
As1 Cs7 3.666896 1_555
As1 Cs3 3.728250 1_564
As1 Cs0 3.766400 1_555
As1 Cs9 3.823199 1_555
As2 Nb0 2.507426 1_555
As2 Sr1 3.378420 1_554
As2 Sr0 3.526348 1_545
As2 Cs3 3.582945 1_554
As2 Cs4 3.594103 1_555
As2 Cs9 3.645050 1_655
As2 Cs8 3.738093 1_545
As2 Cs1 3.984157 1_655
As3 Nb0 2.516352 1_555
As3 Sr0 3.283026 1_545
As3 Cs5 3.472111 1_555
As3 Cs3 3.660566 1_554
As3 Cs7 3.683607 1_545
As3 Cs0 3.812688 1_555
As3 Cs2 3.822232 1_554
As3 Cs9 3.842175 1_555
As4 Nb0 2.503842 1_555
As4 Sr1 3.185427 1_554
As4 Cs2 3.535796 1_554
As4 Cs7 3.546954 1_655
As4 Cs6 3.685711 1_555
As4 Cs8 3.821383 1_555
As4 Cs1 3.888870 1_655
As4 Cs0 3.895385 1_555
As5 Nb1 2.507426 1_555
As5 Sr0 3.378420 1_555
As5 Sr1 3.526348 1_455
As5 Cs1 3.582945 1_555
As5 Cs7 3.594103 1_556
As5 Cs5 3.645050 1_565
As5 Cs6 3.738093 1_455
As5 Cs3 3.984157 1_565
As6 Nb1 2.503842 1_555
As6 Sr0 3.185427 1_555
As6 Cs0 3.535796 1_555
As6 Cs4 3.546954 1_565
As6 Cs8 3.685711 1_556
As6 Cs6 3.821383 1_555
As6 Cs3 3.888870 1_565
As6 Cs2 3.895385 1_555
As7 Nb1 2.516352 1_555
As7 Sr1 3.283026 1_455
As7 Cs9 3.472111 1_556
As7 Cs1 3.660566 1_555
As7 Cs4 3.683607 1_455
As7 Cs2 3.812688 1_555
As7 Cs0 3.822232 1_555
As7 Cs5 3.842175 1_555
