# generated using pymatgen
data_Cs4Ca(PS4)2
_symmetry_space_group_name_H-M   'P 1'
_cell_length_a   9.51623569
_cell_length_b   9.53445353
_cell_length_c   11.53761983
_cell_angle_alpha   105.29768915
_cell_angle_beta   103.16684002
_cell_angle_gamma   92.93475441
_symmetry_Int_Tables_number   1
_chemical_formula_structural   Cs4Ca(PS4)2
_chemical_formula_sum   'Cs8 Ca2 P4 S16'
_cell_volume   976.26846255
_cell_formula_units_Z   2
loop_
 _symmetry_equiv_pos_site_id
 _symmetry_equiv_pos_as_xyz
  1  'x, y, z'
loop_
 _atom_site_type_symbol
 _atom_site_label
 _atom_site_symmetry_multiplicity
 _atom_site_fract_x
 _atom_site_fract_y
 _atom_site_fract_z
 _atom_site_occupancy
  Cs  Cs0  1  0.92859540  0.52504446  0.25110771  1
  Cs  Cs1  1  0.07140460  0.47495554  0.74889229  1
  Cs  Cs2  1  0.76090988  0.98652015  0.46351143  1
  Cs  Cs3  1  0.23909012  0.01347985  0.53648857  1
  Cs  Cs4  1  0.59205339  0.74133142  0.01378244  1
  Cs  Cs5  1  0.40794661  0.25866858  0.98621756  1
  Cs  Cs6  1  0.61492825  0.68684432  0.61646632  1
  Cs  Cs7  1  0.38507175  0.31315568  0.38353368  1
  Ca  Ca0  1  0.85138439  0.13702769  0.92494870  1
  Ca  Ca1  1  0.14861561  0.86297231  0.07505130  1
  P  P0  1  0.94913765  0.11202982  0.23016167  1
  P  P1  1  0.05086235  0.88797018  0.76983833  1
  P  P2  1  0.36942229  0.68299688  0.25540253  1
  P  P3  1  0.63057771  0.31700312  0.74459747  1
  S  S0  1  0.95821840  0.89777621  0.23086299  1
  S  S1  1  0.04178160  0.10222379  0.76913701  1
  S  S2  1  0.59277718  0.09867549  0.73883072  1
  S  S3  1  0.40722282  0.90132451  0.26116928  1
  S  S4  1  0.28692448  0.66439362  0.39782545  1
  S  S5  1  0.71307552  0.33560638  0.60217455  1
  S  S6  1  0.77865508  0.41743159  0.91147719  1
  S  S7  1  0.22134492  0.58256841  0.08852281  1
  S  S8  1  0.00515906  0.24624092  0.40411529  1
  S  S9  1  0.99484094  0.75375908  0.59588471  1
  S  S10  1  0.09186272  0.16451435  0.13138701  1
  S  S11  1  0.90813728  0.83548565  0.86861299  1
  S  S12  1  0.74522356  0.13591451  0.13660162  1
  S  S13  1  0.25477644  0.86408549  0.86339838  1
  S  S14  1  0.55845865  0.59026262  0.26382829  1
  S  S15  1  0.44154135  0.40973738  0.73617171  1
loop_
_geom_bond_atom_site_label_1
_geom_bond_atom_site_label_2
_geom_bond_distance
_geom_bond_site_symmetry_2
Cs0 S4 3.460934 1_655
Cs0 S8 3.577998 1_655
Cs0 S0 3.623382 1_555
Cs0 S14 3.636824 1_555
Cs0 S6 3.691194 1_554
Cs0 S12 3.775707 1_555
Cs0 S7 3.787859 1_655
Cs0 S9 3.887930 1_555
Cs0 S10 3.893223 1_655
Cs1 S5 3.460934 1_455
Cs1 S9 3.577998 1_455
Cs1 S1 3.623382 1_555
Cs1 S15 3.636824 1_555
Cs1 S7 3.691194 1_556
Cs1 S13 3.775707 1_555
Cs1 S6 3.787859 1_455
Cs1 S8 3.887930 1_555
Cs1 S11 3.893223 1_455
Cs2 S5 3.394373 1_565
Cs2 S3 3.546554 1_555
Cs2 S0 3.564653 1_555
Cs2 S9 3.599831 1_555
Cs2 S8 3.610528 1_665
Cs2 S1 3.761219 1_665
Cs2 S2 3.806840 1_565
Cs2 S14 3.991634 1_555
Cs3 S4 3.394373 1_545
Cs3 S2 3.546554 1_555
Cs3 S1 3.564653 1_555
Cs3 S8 3.599831 1_555
Cs3 S9 3.610528 1_445
Cs3 S0 3.761219 1_445
Cs3 S3 3.806840 1_545
Cs3 S15 3.991634 1_555
Cs4 S14 3.614602 1_555
Cs4 S13 3.687957 1_554
Cs4 S6 3.698178 1_554
Cs4 S3 3.719121 1_555
Cs4 S12 3.737742 1_565
Cs4 S0 3.763014 1_555
Cs4 S15 3.795910 1_554
Cs4 S11 3.933310 1_554
Cs5 S15 3.614602 1_555
Cs5 S12 3.687957 1_556
Cs5 S7 3.698178 1_556
Cs5 S2 3.719121 1_555
Cs5 S13 3.737742 1_545
Cs5 S1 3.763014 1_555
Cs5 S14 3.795910 1_556
Cs5 S10 3.933310 1_556
Cs6 S11 3.461035 1_555
Cs6 S4 3.494523 1_555
Cs6 S5 3.494777 1_555
Cs6 S9 3.710656 1_555
Cs6 S15 3.758682 1_555
Cs6 S14 3.829699 1_555
Cs6 S2 3.840684 1_565
Cs7 S10 3.461035 1_555
Cs7 S5 3.494523 1_555
Cs7 S4 3.494777 1_555
Cs7 S8 3.710656 1_555
Cs7 S14 3.758682 1_555
Cs7 S15 3.829699 1_555
Cs7 S3 3.840684 1_545
Ca0 S1 2.802741 1_655
Ca0 S2 2.808419 1_555
Ca0 S6 2.830282 1_555
Ca0 S10 2.846880 1_656
Ca0 S12 2.849636 1_556
Ca0 S11 2.883203 1_545
Ca1 S0 2.802741 1_455
Ca1 S3 2.808419 1_555
Ca1 S7 2.830282 1_555
Ca1 S11 2.846880 1_454
Ca1 S13 2.849636 1_554
Ca1 S10 2.883203 1_565
P0 S8 2.009298 1_655
P0 S12 2.050193 1_555
P0 S0 2.051099 1_545
P0 S10 2.080952 1_655
P1 S9 2.009298 1_455
P1 S13 2.050193 1_555
P1 S1 2.051099 1_565
P1 S11 2.080952 1_455
P2 S4 2.018717 1_555
P2 S14 2.038591 1_555
P2 S7 2.064620 1_555
P2 S3 2.075178 1_555
P3 S5 2.018717 1_555
P3 S15 2.038591 1_555
P3 S6 2.064620 1_555
P3 S2 2.075178 1_555
