# generated using pymatgen
data_K2RbNaPb4
_symmetry_space_group_name_H-M   'P 1'
_cell_length_a   9.02648279
_cell_length_b   9.02648404
_cell_length_c   10.81971174
_cell_angle_alpha   90.00000000
_cell_angle_beta   90.00000000
_cell_angle_gamma   133.67416144
_symmetry_Int_Tables_number   1
_chemical_formula_structural   K2RbNaPb4
_chemical_formula_sum   'K4 Rb2 Na2 Pb8'
_cell_volume   637.61497235
_cell_formula_units_Z   2
loop_
 _symmetry_equiv_pos_site_id
 _symmetry_equiv_pos_as_xyz
  1  'x, y, z'
loop_
 _atom_site_type_symbol
 _atom_site_label
 _atom_site_symmetry_multiplicity
 _atom_site_fract_x
 _atom_site_fract_y
 _atom_site_fract_z
 _atom_site_occupancy
  K  K0  1  0.61148834  0.38851166  0.04396839  1
  K  K1  1  0.38851166  0.61148834  0.95603161  1
  K  K2  1  0.38851166  0.61148834  0.54396839  1
  K  K3  1  0.61148834  0.38851166  0.45603161  1
  Rb  Rb0  1  0.22620185  0.77379815  0.25000000  1
  Rb  Rb1  1  0.77379815  0.22620185  0.75000000  1
  Na  Na0  1  0.00000000  0.00000000  0.00000000  1
  Na  Na1  1  0.00000000  0.00000000  0.50000000  1
  Pb  Pb0  1  0.18268724  0.27960940  0.25000000  1
  Pb  Pb1  1  0.81731276  0.72039060  0.75000000  1
  Pb  Pb2  1  0.72039060  0.81731276  0.25000000  1
  Pb  Pb3  1  0.27960940  0.18268724  0.75000000  1
  Pb  Pb4  1  0.82051985  0.17948015  0.10926205  1
  Pb  Pb5  1  0.17948015  0.82051985  0.89073795  1
  Pb  Pb6  1  0.17948015  0.82051985  0.60926205  1
  Pb  Pb7  1  0.82051985  0.17948015  0.39073795  1
loop_
_geom_bond_atom_site_label_1
_geom_bond_atom_site_label_2
_geom_bond_distance
_geom_bond_site_symmetry_2
K0 Pb4 3.540641 1_555
K0 K1 3.821250 1_554
K0 Pb3 3.854310 1_554
K0 Pb1 3.854310 1_554
K0 Pb0 3.957535 1_555
K0 Pb2 3.957536 1_555
K0 Na0 4.031975 1_555
K0 Na0 4.031975 1_665
K0 Pb5 4.077809 1_654
K0 Pb5 4.077810 1_544
K0 Rb1 4.168218 1_554
K0 K3 4.458405 1_555
K0 Rb0 4.604435 1_655
K0 Rb0 4.604436 1_545
K1 Pb5 3.540641 1_555
K1 Pb2 3.854310 1_556
K1 Pb0 3.854310 1_556
K1 Pb1 3.957535 1_555
K1 Pb3 3.957536 1_555
K1 Na0 4.031975 1_666
K1 Na0 4.031975 1_556
K1 Pb4 4.077809 1_456
K1 Pb4 4.077810 1_566
K1 Rb0 4.168218 1_556
K1 K2 4.458405 1_555
K1 Rb1 4.604435 1_455
K1 Rb1 4.604436 1_565
K2 Pb6 3.540641 1_555
K2 K3 3.821250 1_555
K2 Pb2 3.854310 1_555
K2 Pb0 3.854310 1_555
K2 Pb1 3.957535 1_555
K2 Pb3 3.957536 1_555
K2 Na1 4.031975 1_665
K2 Na1 4.031975 1_555
K2 Pb7 4.077809 1_455
K2 Pb7 4.077810 1_565
K2 Rb0 4.168218 1_555
K2 Rb1 4.604435 1_455
K2 Rb1 4.604436 1_565
K3 Pb7 3.540641 1_555
K3 Pb3 3.854310 1_555
K3 Pb1 3.854310 1_555
K3 Pb0 3.957535 1_555
K3 Pb2 3.957536 1_555
K3 Na1 4.031975 1_555
K3 Na1 4.031975 1_665
K3 Pb6 4.077809 1_655
K3 Pb6 4.077810 1_545
K3 Rb1 4.168218 1_555
K3 Rb0 4.604435 1_655
K3 Rb0 4.604436 1_545
Na0 Pb5 3.204960 1_544
Na0 Pb4 3.204960 1_455
Na0 Pb2 3.264629 1_445
Na0 Pb3 3.264629 1_554
Na0 Pb0 3.264630 1_555
Na0 Pb1 3.264630 1_444
Na1 Pb7 3.204960 1_455
Na1 Pb6 3.204960 1_545
Na1 Pb2 3.264629 1_445
Na1 Pb3 3.264629 1_555
Na1 Pb0 3.264630 1_555
Na1 Pb1 3.264630 1_445
Pb0 Pb7 3.121204 1_455
Pb0 Pb4 3.121204 1_455
Pb0 Pb2 3.282805 1_445
Pb0 Rb0 4.199169 1_555
Pb1 Pb6 3.121204 1_655
Pb1 Pb5 3.121204 1_655
Pb1 Pb3 3.282805 1_665
Pb1 Rb1 4.199169 1_555
Pb2 Pb7 3.121204 1_565
Pb2 Pb4 3.121204 1_565
Pb2 Rb0 4.199168 1_555
Pb3 Pb6 3.121204 1_545
Pb3 Pb5 3.121204 1_545
Pb3 Rb1 4.199168 1_555
Pb4 Pb7 3.045488 1_555
Pb4 Rb1 3.963710 1_554
Pb4 Rb0 4.168424 1_545
Pb4 Rb0 4.168424 1_655
Pb5 Pb6 3.045488 1_555
Pb5 Rb0 3.963710 1_556
Pb5 Rb1 4.168424 1_565
Pb5 Rb1 4.168424 1_455
Pb6 Rb0 3.963710 1_555
Pb6 Rb1 4.168424 1_565
Pb6 Rb1 4.168424 1_455
Pb7 Rb1 3.963710 1_555
Pb7 Rb0 4.168424 1_545
Pb7 Rb0 4.168424 1_655
