# generated using pymatgen
data_Nb12Ga9Pd3N4
_symmetry_space_group_name_H-M   'P 1'
_cell_length_a   8.30998256
_cell_length_b   8.30230265
_cell_length_c   8.30230330
_cell_angle_alpha   60.00000527
_cell_angle_beta   60.03057211
_cell_angle_gamma   60.03057141
_symmetry_Int_Tables_number   1
_chemical_formula_structural   Nb12Ga9Pd3N4
_chemical_formula_sum   'Nb12 Ga9 Pd3 N4'
_cell_volume   405.21248455
_cell_formula_units_Z   1
loop_
 _symmetry_equiv_pos_site_id
 _symmetry_equiv_pos_as_xyz
  1  'x, y, z'
loop_
 _atom_site_type_symbol
 _atom_site_label
 _atom_site_symmetry_multiplicity
 _atom_site_fract_x
 _atom_site_fract_y
 _atom_site_fract_z
 _atom_site_occupancy
  Nb  Nb0  1  0.82075250  0.81559930  0.18182310  1
  Nb  Nb1  1  0.18435990  0.19664819  0.80949646  1
  Nb  Nb2  1  0.82075250  0.18182310  0.81559930  1
  Nb  Nb3  1  0.18435990  0.80949646  0.19664819  1
  Nb  Nb4  1  0.18435990  0.80949646  0.80949646  1
  Nb  Nb5  1  0.82075250  0.18182310  0.18182310  1
  Nb  Nb6  1  0.42924750  0.43440070  0.06817690  1
  Nb  Nb7  1  0.06564010  0.05335181  0.44050354  1
  Nb  Nb8  1  0.42924750  0.06817690  0.43440070  1
  Nb  Nb9  1  0.06564010  0.44050354  0.05335181  1
  Nb  Nb10  1  0.06564010  0.44050354  0.44050354  1
  Nb  Nb11  1  0.42924750  0.06817690  0.06817690  1
  Ga  Ga0  1  0.12500000  0.62500000  0.62500000  1
  Ga  Ga1  1  0.76781940  0.41072753  0.41072753  1
  Ga  Ga2  1  0.42243058  0.75689654  0.41033694  1
  Ga  Ga3  1  0.42243058  0.41033694  0.75689654  1
  Ga  Ga4  1  0.42243058  0.41033694  0.41033694  1
  Ga  Ga5  1  0.48218060  0.83927247  0.83927247  1
  Ga  Ga6  1  0.82756942  0.49310346  0.83966306  1
  Ga  Ga7  1  0.82756942  0.83966306  0.49310346  1
  Ga  Ga8  1  0.82756942  0.83966306  0.83966306  1
  Pd  Pd0  1  0.62500000  0.12500000  0.62500000  1
  Pd  Pd1  1  0.62500000  0.62500000  0.12500000  1
  Pd  Pd2  1  0.62500000  0.62500000  0.62500000  1
  N  N0  1  0.62500000  0.12500000  0.12500000  1
  N  N1  1  0.12500000  0.62500000  0.12500000  1
  N  N2  1  0.12500000  0.12500000  0.62500000  1
  N  N3  1  0.12500000  0.12500000  0.12500000  1
loop_
_geom_bond_atom_site_label_1
_geom_bond_atom_site_label_2
_geom_bond_distance
_geom_bond_site_symmetry_2
Nb0 Pd1 3.075338 1_555
Nb0 Pd2 3.075350 1_555
Nb1 Pd0 3.039672 1_555
Nb2 Pd0 3.075338 1_555
Nb2 Pd2 3.075350 1_555
Nb3 Pd1 3.039672 1_555
Nb4 Pd2 3.039673 1_555
Nb5 Pd1 3.075353 1_555
Nb5 Pd0 3.075353 1_555
Nb6 Pd1 3.075338 1_555
Nb6 Pd2 3.075350 1_554
Nb7 Pd0 3.039672 1_455
Nb8 Pd0 3.075338 1_555
Nb8 Pd2 3.075350 1_545
Nb9 Pd1 3.039672 1_455
Nb10 Pd2 3.039673 1_455
Nb11 Pd1 3.075353 1_545
Nb11 Pd0 3.075353 1_554
Ga0 Ga8 2.614562 1_455
Ga0 Ga4 2.614562 1_555
Ga0 Ga2 2.614567 1_555
Ga0 Ga6 2.614567 1_455
Ga0 Ga3 2.614567 1_555
Ga0 Ga7 2.614567 1_455
Ga0 Nb7 2.965093 1_565
Ga0 Nb1 2.965093 1_555
Ga0 Nb9 2.965093 1_556
Ga0 Nb3 2.965093 1_555
Ga0 Nb4 2.965100 1_555
Ga0 Nb10 2.965100 1_555
Ga1 Pd2 2.585320 1_555
Ga1 Pd0 2.585333 1_555
Ga1 Pd1 2.585333 1_555
Ga1 Nb10 2.744247 1_655
Ga1 Nb7 2.744262 1_655
Ga1 Nb9 2.744262 1_655
Ga1 Ga2 2.873415 1_555
Ga1 Ga3 2.873415 1_555
Ga1 Ga4 2.873419 1_555
Ga2 Pd2 2.532405 1_555
Ga2 Pd1 2.532412 1_555
Ga2 Nb11 2.719525 1_565
Ga2 Nb8 2.719529 1_565
Ga2 Nb7 2.737725 1_565
Ga2 Ga4 2.877243 1_555
Ga2 Ga3 2.877243 1_555
Ga2 Nb3 3.020061 1_555
Ga2 Nb4 3.020062 1_555
Ga2 Nb0 3.034202 1_555
Ga3 Pd2 2.532405 1_555
Ga3 Pd0 2.532412 1_555
Ga3 Nb11 2.719525 1_556
Ga3 Nb6 2.719529 1_556
Ga3 Nb9 2.737725 1_556
Ga3 Ga4 2.877243 1_555
Ga3 Nb1 3.020061 1_555
Ga3 Nb4 3.020061 1_555
Ga3 Nb2 3.034202 1_555
Ga4 Pd1 2.532407 1_555
Ga4 Pd0 2.532407 1_555
Ga4 Nb8 2.719521 1_555
Ga4 Nb6 2.719521 1_555
Ga4 Nb10 2.737732 1_555
Ga4 Nb3 3.020062 1_555
Ga4 Nb1 3.020062 1_555
Ga4 Nb5 3.034212 1_555
Ga5 Pd2 2.585320 1_555
Ga5 Pd0 2.585333 1_565
Ga5 Pd1 2.585333 1_556
Ga5 Nb4 2.744247 1_555
Ga5 Nb1 2.744262 1_565
Ga5 Nb3 2.744262 1_556
Ga5 Ga6 2.873415 1_555
Ga5 Ga7 2.873415 1_555
Ga5 Ga8 2.873419 1_555
Ga6 Pd2 2.532405 1_555
Ga6 Pd1 2.532412 1_556
Ga6 Nb5 2.719525 1_556
Ga6 Nb2 2.719529 1_555
Ga6 Nb1 2.737725 1_655
Ga6 Ga8 2.877243 1_555
Ga6 Ga7 2.877243 1_555
Ga6 Nb9 3.020061 1_656
Ga6 Nb10 3.020062 1_655
Ga6 Nb6 3.034202 1_556
Ga7 Pd2 2.532405 1_555
Ga7 Pd0 2.532412 1_565
Ga7 Nb5 2.719525 1_565
Ga7 Nb0 2.719529 1_555
Ga7 Nb3 2.737725 1_655
Ga7 Ga8 2.877243 1_555
Ga7 Nb7 3.020061 1_665
Ga7 Nb10 3.020061 1_655
Ga7 Nb8 3.034202 1_565
Ga8 Pd1 2.532407 1_556
Ga8 Pd0 2.532407 1_565
Ga8 Nb2 2.719521 1_565
Ga8 Nb0 2.719521 1_556
Ga8 Nb4 2.737732 1_655
Ga8 Nb9 3.020062 1_656
Ga8 Nb7 3.020062 1_665
Ga8 Nb11 3.034212 1_566
N0 Nb5 2.201646 1_555
N0 Nb11 2.201646 1_555
N0 Nb6 2.201658 1_555
N0 Nb0 2.201658 1_545
N0 Nb8 2.201658 1_555
N0 Nb2 2.201658 1_554
N1 Nb6 2.162549 1_555
N1 Nb0 2.162549 1_455
N1 Nb10 2.214175 1_555
N1 Nb4 2.214175 1_554
N1 Nb3 2.214180 1_555
N1 Nb9 2.214180 1_555
N2 Nb8 2.162549 1_555
N2 Nb2 2.162549 1_455
N2 Nb10 2.214175 1_555
N2 Nb4 2.214175 1_545
N2 Nb1 2.214180 1_555
N2 Nb7 2.214180 1_555
N3 Nb11 2.162553 1_555
N3 Nb5 2.162553 1_455
N3 Nb9 2.214173 1_555
N3 Nb3 2.214173 1_545
N3 Nb7 2.214173 1_555
N3 Nb1 2.214173 1_554
