# generated using pymatgen
data_Er(SiOs)2
_symmetry_space_group_name_H-M   'P 1'
_cell_length_a   4.16289445
_cell_length_b   4.16289441
_cell_length_c   5.59563425
_cell_angle_alpha   111.83757758
_cell_angle_beta   111.83759188
_cell_angle_gamma   90.00000169
_symmetry_Int_Tables_number   1
_chemical_formula_structural   Er(SiOs)2
_chemical_formula_sum   'Er1 Si2 Os2'
_cell_volume   82.46872574
_cell_formula_units_Z   1
loop_
 _symmetry_equiv_pos_site_id
 _symmetry_equiv_pos_as_xyz
  1  'x, y, z'
loop_
 _atom_site_type_symbol
 _atom_site_label
 _atom_site_symmetry_multiplicity
 _atom_site_fract_x
 _atom_site_fract_y
 _atom_site_fract_z
 _atom_site_occupancy
  Er  Er0  1  0.00000000  -0.00000000  0.00000000  1
  Si  Si0  1  0.62882370  0.62882370  0.25764841  1
  Si  Si1  1  0.37117530  0.37117530  0.74235159  1
  Os  Os0  1  0.25000000  0.75000000  0.50000000  1
  Os  Os1  1  0.75000000  0.25000000  0.50000000  1
loop_
_geom_bond_atom_site_label_1
_geom_bond_atom_site_label_2
_geom_bond_distance
_geom_bond_site_symmetry_2
Er0 Os0 3.161327 1_545
Er0 Os1 3.161327 1_454
Er0 Os1 3.161328 1_455
Er0 Os0 3.161328 1_544
Er0 Os1 3.161328 1_555
Er0 Os0 3.161328 1_444
Er0 Os1 3.161328 1_444
Er0 Os0 3.161328 1_555
Er0 Si1 3.188753 1_554
Er0 Si0 3.188754 1_555
Er0 Si0 3.188756 1_545
Er0 Si1 3.188756 1_454
Er0 Si0 3.188757 1_455
Er0 Si1 3.188757 1_544
Er0 Si0 3.188759 1_445
Er0 Si1 3.188759 1_444
Os0 Si0 2.379607 1_555
Os0 Si1 2.379607 1_565
Os0 Si1 2.379610 1_555
Os0 Si0 2.379610 1_455
Os1 Si0 2.379606 1_555
Os1 Si1 2.379607 1_655
Os1 Si1 2.379610 1_555
Os1 Si0 2.379611 1_545
