# generated using pymatgen
data_Lu2SiCO7
_symmetry_space_group_name_H-M   'P 1'
_cell_length_a   6.48208056
_cell_length_b   6.48467465
_cell_length_c   6.33596668
_cell_angle_alpha   116.13456892
_cell_angle_beta   93.55840011
_cell_angle_gamma   95.26918524
_symmetry_Int_Tables_number   1
_chemical_formula_structural   Lu2SiCO7
_chemical_formula_sum   'Lu4 Si2 C2 O14'
_cell_volume   236.51734405
_cell_formula_units_Z   2
loop_
 _symmetry_equiv_pos_site_id
 _symmetry_equiv_pos_as_xyz
  1  'x, y, z'
loop_
 _atom_site_type_symbol
 _atom_site_label
 _atom_site_symmetry_multiplicity
 _atom_site_fract_x
 _atom_site_fract_y
 _atom_site_fract_z
 _atom_site_occupancy
  Lu  Lu0  1  0.91693759  0.69807477  0.25142043  1
  Lu  Lu1  1  0.67202991  0.18258136  0.25117638  1
  Lu  Lu2  1  0.32796593  0.81741534  0.74882181  1
  Lu  Lu3  1  0.08306282  0.30192575  0.74857815  1
  Si  Si0  1  0.16073452  0.24504043  0.26571391  1
  Si  Si1  1  0.83926524  0.75496093  0.73428613  1
  C  C0  1  0.41435906  0.73391608  0.19710784  1
  C  C1  1  0.58564028  0.26608364  0.80289207  1
  O  O0  1  0.64812125  0.37651996  0.02491755  1
  O  O1  1  0.03825442  0.34458008  0.10587976  1
  O  O2  1  0.34013345  0.09590205  0.13388442  1
  O  O3  1  0.60605980  0.83390325  0.26714986  1
  O  O4  1  0.98344354  0.08595927  0.32988417  1
  O  O5  1  0.28789997  0.75199564  0.34967452  1
  O  O6  1  0.75841269  0.55155377  0.46974693  1
  O  O7  1  0.24158998  0.44844872  0.53025257  1
  O  O8  1  0.71209942  0.24800423  0.65032609  1
  O  O9  1  0.01655649  0.91404244  0.67011620  1
  O  O10  1  0.39393965  0.16609586  0.73284875  1
  O  O11  1  0.65986454  0.90409671  0.86611512  1
  O  O12  1  0.96174739  0.65542139  0.89411982  1
  O  O13  1  0.35187904  0.62347933  0.97508251  1
loop_
_geom_bond_atom_site_label_1
_geom_bond_atom_site_label_2
_geom_bond_distance
_geom_bond_site_symmetry_2
Lu0 O12 2.197867 1_554
Lu0 O6 2.242147 1_555
Lu0 O3 2.262767 1_555
Lu0 O1 2.298322 1_655
Lu0 O4 2.330746 1_565
Lu0 O5 2.399987 1_655
Lu0 O9 2.400866 1_655
Lu0 O0 2.414494 1_555
Lu1 O6 2.166753 1_555
Lu1 O2 2.169815 1_555
Lu1 O4 2.258022 1_555
Lu1 O0 2.292874 1_555
Lu1 O11 2.299629 1_544
Lu1 O3 2.309739 1_545
Lu1 O8 2.365652 1_555
Lu2 O7 2.166716 1_555
Lu2 O11 2.169830 1_555
Lu2 O9 2.258008 1_555
Lu2 O13 2.292872 1_555
Lu2 O2 2.299638 1_566
Lu2 O10 2.309756 1_565
Lu2 O5 2.365642 1_555
Lu3 O1 2.197869 1_556
Lu3 O7 2.242157 1_555
Lu3 O10 2.262766 1_555
Lu3 O12 2.298323 1_455
Lu3 O9 2.330742 1_545
Lu3 O8 2.399992 1_455
Lu3 O4 2.400856 1_455
Lu3 O13 2.414491 1_555
C0 O5 1.279172 1_555
C0 O13 1.282309 1_554
C0 O3 1.300586 1_555
C1 O8 1.279169 1_555
C1 O0 1.282311 1_556
C1 O10 1.300587 1_555
O1 Si0 1.625646 1_555
O2 Si0 1.612687 1_555
O4 Si0 1.661304 1_655
O6 Si1 1.624864 1_555
O7 Si0 1.624868 1_555
O9 Si1 1.661306 1_455
O11 Si1 1.612688 1_555
O12 Si1 1.625650 1_555
