# generated using pymatgen
data_Ca10ScTcN10
_symmetry_space_group_name_H-M   'P 1'
_cell_length_a   6.96526865
_cell_length_b   6.96526823
_cell_length_c   8.76900882
_cell_angle_alpha   82.42306584
_cell_angle_beta   82.42305941
_cell_angle_gamma   60.19052858
_symmetry_Int_Tables_number   1
_chemical_formula_structural   Ca10ScTcN10
_chemical_formula_sum   'Ca10 Sc1 Tc1 N10'
_cell_volume   364.82483871
_cell_formula_units_Z   1
loop_
 _symmetry_equiv_pos_site_id
 _symmetry_equiv_pos_as_xyz
  1  'x, y, z'
loop_
 _atom_site_type_symbol
 _atom_site_label
 _atom_site_symmetry_multiplicity
 _atom_site_fract_x
 _atom_site_fract_y
 _atom_site_fract_z
 _atom_site_occupancy
  Ca  Ca0  1  0.89412227  0.36788664  0.83400492  1
  Ca  Ca1  1  0.88593935  0.88593935  0.80694306  1
  Ca  Ca2  1  0.73778920  0.73778920  0.53730136  1
  Ca  Ca3  1  0.74292891  0.26437247  0.51860046  1
  Ca  Ca4  1  0.60972217  0.12502305  0.13609616  1
  Ca  Ca5  1  0.36788664  0.89412227  0.83400492  1
  Ca  Ca6  1  0.26437247  0.74292891  0.51860046  1
  Ca  Ca7  1  0.24356024  0.24356024  0.50232131  1
  Ca  Ca8  1  0.12878123  0.12878123  0.17227042  1
  Ca  Ca9  1  0.12502305  0.60972217  0.13609616  1
  Sc  Sc0  1  0.37391316  0.37391316  0.77799499  1
  Tc  Tc0  1  0.63066981  0.63066981  0.22811243  1
  N  N0  1  0.89520222  0.47399546  0.31961791  1
  N  N1  1  0.98297400  0.98297400  0.03275577  1
  N  N2  1  0.68506856  0.68506856  0.02848430  1
  N  N3  1  0.55245030  0.55245030  0.69552625  1
  N  N4  1  0.47399546  0.89520222  0.31961791  1
  N  N5  1  0.55498679  0.07941018  0.66037244  1
  N  N6  1  0.47702178  0.47702178  0.28052870  1
  N  N7  1  0.29013829  0.29013829  0.00203435  1
  N  N8  1  0.06633191  0.06633191  0.64414728  1
  N  N9  1  0.07941018  0.55498679  0.66037244  1
loop_
_geom_bond_atom_site_label_1
_geom_bond_atom_site_label_2
_geom_bond_distance
_geom_bond_site_symmetry_2
Ca0 N3 2.469718 1_555
Ca0 N9 2.512551 1_655
Ca0 N8 2.552042 1_655
Ca0 N2 2.655142 1_556
Ca0 N1 2.830362 1_546
Ca0 N7 3.073940 1_656
Ca1 N8 2.412263 1_665
Ca1 N1 2.448400 1_556
Ca1 N9 2.453123 1_655
Ca1 N5 2.453124 1_565
Ca1 N2 2.863879 1_556
Ca2 N5 2.398004 1_565
Ca2 N9 2.398004 1_655
Ca2 N3 2.443424 1_555
Ca2 N0 2.567488 1_555
Ca2 N4 2.567488 1_555
Ca3 N8 2.313684 1_655
Ca3 N5 2.396698 1_555
Ca3 N3 2.413463 1_555
Ca3 N0 2.584788 1_555
Ca3 N6 2.731158 1_555
Ca4 N7 2.334088 1_555
Ca4 N1 2.369977 1_545
Ca4 N4 2.543630 1_545
Ca4 N6 2.593581 1_555
Ca4 N2 3.096690 1_545
Ca5 N3 2.469718 1_555
Ca5 N5 2.512551 1_565
Ca5 N8 2.552042 1_565
Ca5 N2 2.655142 1_556
Ca5 N1 2.830362 1_456
Ca5 N7 3.073940 1_566
Ca6 N8 2.313684 1_565
Ca6 N9 2.396698 1_555
Ca6 N3 2.413464 1_555
Ca6 N4 2.584788 1_555
Ca6 N6 2.731158 1_555
Ca7 N8 2.302119 1_555
Ca7 N9 2.417130 1_555
Ca7 N5 2.417131 1_555
Ca7 N4 2.739602 1_545
Ca7 N0 2.739603 1_455
Ca8 N7 2.264001 1_555
Ca8 N1 2.289179 1_445
Ca8 N0 2.544330 1_455
Ca8 N4 2.544330 1_545
Ca9 N7 2.334087 1_555
Ca9 N1 2.369977 1_455
Ca9 N0 2.543630 1_455
Ca9 N6 2.593582 1_555
Ca9 N2 3.096690 1_455
N0 Tc0 1.841072 1_555
N2 Tc0 1.773254 1_555
N3 Sc0 2.163113 1_555
N4 Tc0 1.841072 1_555
N5 Sc0 2.122503 1_555
N6 Tc0 1.838805 1_555
N7 Sc0 2.067496 1_554
N9 Sc0 2.122503 1_555
