# generated using pymatgen
data_KFe(Sb4Rh)3
_symmetry_space_group_name_H-M   'P 1'
_cell_length_a   8.04816089
_cell_length_b   8.08046016
_cell_length_c   8.04816069
_cell_angle_alpha   109.55253646
_cell_angle_beta   109.38978131
_cell_angle_gamma   109.55253875
_symmetry_Int_Tables_number   1
_chemical_formula_structural   KFe(Sb4Rh)3
_chemical_formula_sum   'K1 Fe1 Sb12 Rh3'
_cell_volume   402.50443146
_cell_formula_units_Z   1
loop_
 _symmetry_equiv_pos_site_id
 _symmetry_equiv_pos_as_xyz
  1  'x, y, z'
loop_
 _atom_site_type_symbol
 _atom_site_label
 _atom_site_symmetry_multiplicity
 _atom_site_fract_x
 _atom_site_fract_y
 _atom_site_fract_z
 _atom_site_occupancy
  K  K0  1  0.00000000  0.00000000  0.00000000  1
  Fe  Fe0  1  0.00000000  0.50000000  0.00000000  1
  Sb  Sb0  1  0.84471230  0.65611751  0.50052905  1
  Sb  Sb1  1  0.15528770  0.34388249  0.49947095  1
  Sb  Sb2  1  0.15271413  0.65555655  0.82132667  1
  Sb  Sb3  1  0.84728587  0.34444345  0.17867333  1
  Sb  Sb4  1  0.66861154  0.50284243  0.84728587  1
  Sb  Sb5  1  0.33138846  0.49715757  0.15271413  1
  Sb  Sb6  1  0.65581675  0.81140621  0.15528770  1
  Sb  Sb7  1  0.34418325  0.18859379  0.84471230  1
  Sb  Sb8  1  0.50052905  0.84441153  0.65581675  1
  Sb  Sb9  1  0.49947095  0.15558847  0.34418325  1
  Sb  Sb10  1  0.17867333  0.83423089  0.33138846  1
  Sb  Sb11  1  0.82132667  0.16576911  0.66861154  1
  Rh  Rh0  1  0.50000000  0.50000000  0.50000000  1
  Rh  Rh1  1  0.50000000  0.00000000  0.00000000  1
  Rh  Rh2  1  0.00000000  0.00000000  0.50000000  1
loop_
_geom_bond_atom_site_label_1
_geom_bond_atom_site_label_2
_geom_bond_distance
_geom_bond_site_symmetry_2
K0 Sb10 3.479839 1_545
K0 Sb11 3.479839 1_454
K0 Sb3 3.479839 1_455
K0 Sb2 3.479839 1_544
K0 Sb5 3.479841 1_555
K0 Sb4 3.479841 1_444
K0 Sb7 3.507906 1_554
K0 Sb6 3.507906 1_445
K0 Sb9 3.507908 1_555
K0 Sb8 3.507908 1_444
K0 Sb1 3.507908 1_555
K0 Sb0 3.507908 1_444
Fe0 Sb2 2.551019 1_554
Fe0 Sb3 2.551019 1_455
Fe0 Sb4 2.551026 1_454
Fe0 Sb5 2.551026 1_555
Fe0 Sb10 2.551027 1_555
Fe0 Sb11 2.551027 1_454
Sb0 Sb2 2.928554 1_655
Sb0 Sb3 2.959216 1_555
Sb1 Sb3 2.928554 1_455
Sb1 Sb2 2.959216 1_555
Sb4 Sb6 2.928554 1_556
Sb4 Sb7 2.959216 1_555
Sb5 Sb7 2.928554 1_554
Sb5 Sb6 2.959216 1_555
Sb10 Sb9 2.928553 1_565
Sb10 Sb8 2.959216 1_555
Sb11 Sb8 2.928553 1_545
Sb11 Sb9 2.959216 1_555
Rh0 Sb1 2.633278 1_555
Rh0 Sb0 2.633278 1_555
Rh0 Sb8 2.640126 1_555
Rh0 Sb9 2.640126 1_555
Rh0 Sb5 2.659298 1_555
Rh0 Sb4 2.659298 1_555
Rh1 Sb8 2.633278 1_544
Rh1 Sb9 2.633278 1_555
Rh1 Sb6 2.640118 1_545
Rh1 Sb7 2.640118 1_554
Rh1 Sb3 2.659299 1_555
Rh1 Sb2 2.659299 1_544
Rh2 Sb7 2.633279 1_555
Rh2 Sb6 2.633279 1_445
Rh2 Sb1 2.640126 1_555
Rh2 Sb0 2.640126 1_445
Rh2 Sb11 2.659291 1_455
Rh2 Sb10 2.659291 1_545
