# generated using pymatgen
data_KSrAlO3
_symmetry_space_group_name_H-M   'P 1'
_cell_length_a   6.18083213
_cell_length_b   6.18083219
_cell_length_c   12.14718656
_cell_angle_alpha   90.00000000
_cell_angle_beta   90.00000000
_cell_angle_gamma   127.04376554
_symmetry_Int_Tables_number   1
_chemical_formula_structural   KSrAlO3
_chemical_formula_sum   'K4 Sr4 Al4 O12'
_cell_volume   370.39749253
_cell_formula_units_Z   4
loop_
 _symmetry_equiv_pos_site_id
 _symmetry_equiv_pos_as_xyz
  1  'x, y, z'
loop_
 _atom_site_type_symbol
 _atom_site_label
 _atom_site_symmetry_multiplicity
 _atom_site_fract_x
 _atom_site_fract_y
 _atom_site_fract_z
 _atom_site_occupancy
  K  K0  1  0.45686975  0.54313025  0.64134977  1
  K  K1  1  0.54313025  0.45686975  0.35865023  1
  K  K2  1  0.04313025  0.95686975  0.14134977  1
  K  K3  1  0.95686975  0.04313025  0.85865023  1
  Sr  Sr0  1  0.64365497  0.35634503  0.92192042  1
  Sr  Sr1  1  0.85634503  0.14365497  0.42192042  1
  Sr  Sr2  1  0.14365497  0.85634503  0.57807958  1
  Sr  Sr3  1  0.35634503  0.64365497  0.07807958  1
  Al  Al0  1  0.22689262  0.77310738  0.33481271  1
  Al  Al1  1  0.72689262  0.27310738  0.16518729  1
  Al  Al2  1  0.77310738  0.22689262  0.66518729  1
  Al  Al3  1  0.27310738  0.72689262  0.83481271  1
  O  O0  1  0.98677511  0.51322489  0.75000000  1
  O  O1  1  0.51322489  0.98677511  0.25000000  1
  O  O2  1  0.01322489  0.48677511  0.25000000  1
  O  O3  1  0.48677511  0.01322489  0.75000000  1
  O  O4  1  0.42506340  0.57493660  0.87703989  1
  O  O5  1  0.57493660  0.42506340  0.12296011  1
  O  O6  1  0.07493660  0.92506340  0.37703989  1
  O  O7  1  0.67682232  0.32317768  0.55077114  1
  O  O8  1  0.17682232  0.82317768  0.94922886  1
  O  O9  1  0.82317768  0.17682232  0.05077114  1
  O  O10  1  0.32317768  0.67682232  0.44922886  1
  O  O11  1  0.92506340  0.07493660  0.62296011  1
loop_
_geom_bond_atom_site_label_1
_geom_bond_atom_site_label_2
_geom_bond_distance
_geom_bond_site_symmetry_2
K0 O7 2.670927 1_555
K0 O10 2.763081 1_555
K0 O11 2.787109 1_455
K0 O11 2.787109 1_565
K0 O4 2.884522 1_555
K0 O0 3.093754 1_455
K0 O3 3.093754 1_565
K1 O10 2.670927 1_555
K1 O7 2.763081 1_555
K1 O6 2.787109 1_655
K1 O6 2.787109 1_545
K1 O5 2.884522 1_555
K1 O2 3.093754 1_655
K1 O1 3.093754 1_545
K2 O9 2.670927 1_465
K2 O8 2.763081 1_554
K2 O5 2.787109 1_565
K2 O5 2.787109 1_455
K2 O6 2.884522 1_555
K2 O1 3.093754 1_555
K2 O2 3.093754 1_555
K3 O8 2.670927 1_645
K3 O9 2.763081 1_556
K3 O4 2.787109 1_545
K3 O4 2.787109 1_655
K3 O11 2.884522 1_555
K3 O3 3.093754 1_555
K3 O0 3.093754 1_555
Al0 O10 1.751200 1_555
Al0 O6 1.757892 1_555
Al0 O1 1.766793 1_555
Al0 O2 1.766793 1_555
Al1 O9 1.751200 1_555
Al1 O5 1.757892 1_555
Al1 O2 1.766793 1_655
Al1 O1 1.766793 1_545
Al2 O7 1.751200 1_555
Al2 O11 1.757892 1_555
Al2 O3 1.766793 1_555
Al2 O0 1.766793 1_555
Al3 O8 1.751200 1_555
Al3 O4 1.757892 1_555
Al3 O0 1.766793 1_455
Al3 O3 1.766793 1_565
O0 Sr0 2.705813 1_555
O0 Sr2 2.705813 1_655
O1 Sr1 2.705813 1_565
O1 Sr3 2.705813 1_555
O2 Sr3 2.705813 1_555
O2 Sr1 2.705813 1_455
O3 Sr2 2.705813 1_545
O3 Sr0 2.705813 1_555
O4 Sr0 2.479391 1_555
O4 Sr3 2.557704 1_556
O5 Sr3 2.479391 1_555
O5 Sr0 2.557704 1_554
O6 Sr1 2.479391 1_465
O6 Sr2 2.557704 1_555
O7 Sr1 2.528956 1_555
O7 Sr2 2.799811 1_545
O7 Sr2 2.799811 1_655
O8 Sr3 2.528956 1_556
O8 Sr0 2.799811 1_455
O8 Sr0 2.799811 1_565
O9 Sr0 2.528956 1_554
O9 Sr3 2.799811 1_655
O9 Sr3 2.799811 1_545
O10 Sr2 2.528956 1_555
O10 Sr1 2.799811 1_565
O10 Sr1 2.799811 1_455
O11 Sr2 2.479391 1_645
O11 Sr1 2.557704 1_555
