# generated using pymatgen
data_Hf5Al16SbIr7
_symmetry_space_group_name_H-M   'P 1'
_cell_length_a   8.68786441
_cell_length_b   8.69353702
_cell_length_c   8.69353805
_cell_angle_alpha   59.95682958
_cell_angle_beta   60.02158338
_cell_angle_gamma   60.02158321
_symmetry_Int_Tables_number   1
_chemical_formula_structural   Hf5Al16SbIr7
_chemical_formula_sum   'Hf5 Al16 Sb1 Ir7'
_cell_volume   464.29148762
_cell_formula_units_Z   1
loop_
 _symmetry_equiv_pos_site_id
 _symmetry_equiv_pos_as_xyz
  1  'x, y, z'
loop_
 _atom_site_type_symbol
 _atom_site_label
 _atom_site_symmetry_multiplicity
 _atom_site_fract_x
 _atom_site_fract_y
 _atom_site_fract_z
 _atom_site_occupancy
  Hf  Hf0  1  0.31369460  0.68630540  0.68630540  1
  Hf  Hf1  1  0.28287488  0.71712512  0.28423584  1
  Hf  Hf2  1  0.71576416  0.28423584  0.71712512  1
  Hf  Hf3  1  0.28287488  0.28423584  0.71712512  1
  Hf  Hf4  1  0.71576416  0.71712512  0.28423584  1
  Al  Al0  1  0.35937558  0.33264735  0.33264735  1
  Al  Al1  1  0.67600258  0.65477880  0.65477880  1
  Al  Al2  1  0.34522120  0.32399742  0.98555918  1
  Al  Al3  1  0.34522120  0.98555918  0.32399742  1
  Al  Al4  1  0.66735265  0.64062442  0.02466828  1
  Al  Al5  1  0.66735265  0.02466828  0.64062442  1
  Al  Al6  1  0.97533172  0.33264735  0.33264735  1
  Al  Al7  1  0.01444082  0.65477880  0.65477880  1
  Al  Al8  1  0.11022628  0.12182238  0.12182238  1
  Al  Al9  1  0.88636095  0.87126619  0.87126619  1
  Al  Al10  1  0.12873381  0.11363905  0.62889434  1
  Al  Al11  1  0.12873381  0.62889434  0.11363905  1
  Al  Al12  1  0.87817762  0.88977372  0.35387004  1
  Al  Al13  1  0.87817762  0.35387004  0.88977372  1
  Al  Al14  1  0.64612996  0.12182238  0.12182238  1
  Al  Al15  1  0.37110566  0.87126619  0.87126619  1
  Sb  Sb0  1  0.55206563  0.44793437  0.44793437  1
  Ir  Ir0  1  0.51094416  0.98905584  0.98905584  1
  Ir  Ir1  1  0.01094416  0.48905584  0.48905584  1
  Ir  Ir2  1  0.01275335  0.49819836  0.98724665  1
  Ir  Ir3  1  0.50180164  0.98724665  0.49819836  1
  Ir  Ir4  1  0.01275335  0.98724665  0.49819836  1
  Ir  Ir5  1  0.50180164  0.49819836  0.98724665  1
  Ir  Ir6  1  0.00802027  0.99197973  0.99197973  1
loop_
_geom_bond_atom_site_label_1
_geom_bond_atom_site_label_2
_geom_bond_distance
_geom_bond_site_symmetry_2
Hf0 Sb0 2.932568 1_555
Hf0 Ir3 3.083476 1_555
Hf0 Ir2 3.083476 1_555
Hf0 Ir4 3.083476 1_555
Hf0 Ir5 3.083476 1_555
Hf1 Sb0 2.737372 1_555
Hf1 Ir4 2.997650 1_555
Hf1 Ir1 3.102466 1_555
Hf1 Ir0 3.102466 1_554
Hf1 Ir5 3.209566 1_554
Hf2 Sb0 2.737372 1_555
Hf2 Ir5 2.997650 1_555
Hf2 Ir0 3.102466 1_545
Hf2 Ir1 3.102467 1_655
Hf2 Ir4 3.209566 1_645
Hf3 Sb0 2.737372 1_555
Hf3 Ir2 2.997650 1_555
Hf3 Ir0 3.102467 1_545
Hf3 Ir1 3.102467 1_555
Hf3 Ir3 3.209566 1_545
Hf4 Sb0 2.737372 1_555
Hf4 Ir3 2.997650 1_555
Hf4 Ir1 3.102467 1_655
Hf4 Ir0 3.102467 1_554
Hf4 Ir2 3.209566 1_654
Al0 Ir3 2.521569 1_545
Al0 Ir5 2.521570 1_554
Al0 Ir1 2.546713 1_555
Al0 Sb0 3.028335 1_555
Al1 Ir3 2.499041 1_555
Al1 Ir5 2.499041 1_555
Al1 Ir1 2.513582 1_655
Al1 Hf0 2.899839 1_555
Al2 Ir2 2.499038 1_555
Al2 Ir5 2.499046 1_555
Al2 Ir0 2.513579 1_545
Al2 Hf0 2.899835 1_555
Al3 Ir4 2.499038 1_555
Al3 Ir3 2.499046 1_555
Al3 Ir0 2.513580 1_554
Al3 Hf0 2.899836 1_555
Al4 Ir5 2.521558 1_554
Al4 Ir2 2.521573 1_654
Al4 Ir0 2.546717 1_554
Al4 Sb0 3.028348 1_555
Al5 Ir3 2.521558 1_545
Al5 Ir4 2.521573 1_645
Al5 Ir0 2.546717 1_545
Al5 Sb0 3.028348 1_555
Al6 Ir4 2.521572 1_645
Al6 Ir2 2.521573 1_654
Al6 Ir1 2.546702 1_655
Al6 Sb0 3.028350 1_555
Al7 Ir4 2.499038 1_555
Al7 Ir2 2.499038 1_555
Al7 Ir1 2.513587 1_555
Al7 Hf0 2.899830 1_555
Al8 Ir6 2.572150 1_544
Al8 Ir2 2.679566 1_554
Al8 Ir4 2.679566 1_545
Al8 Ir0 2.843786 1_544
Al8 Hf1 2.913791 1_545
Al8 Hf3 2.913791 1_554
Al9 Ir6 2.576714 1_655
Al9 Ir2 2.648445 1_655
Al9 Ir4 2.648445 1_655
Al9 Ir0 2.666383 1_555
Al9 Hf0 3.100294 1_655
Al10 Ir6 2.576707 1_545
Al10 Ir3 2.648445 1_545
Al10 Ir4 2.648452 1_545
Al10 Ir1 2.666383 1_555
Al10 Hf0 3.100295 1_545
Al11 Ir6 2.576706 1_554
Al11 Ir5 2.648445 1_554
Al11 Ir2 2.648452 1_554
Al11 Ir1 2.666383 1_555
Al11 Hf0 3.100296 1_554
Al12 Ir6 2.572142 1_654
Al12 Ir3 2.679566 1_555
Al12 Ir4 2.679574 1_655
Al12 Ir1 2.843785 1_655
Al12 Hf4 2.913785 1_555
Al12 Hf1 2.913792 1_655
Al13 Ir6 2.572142 1_645
Al13 Ir5 2.679566 1_555
Al13 Ir2 2.679574 1_655
Al13 Ir1 2.843786 1_655
Al13 Hf2 2.913785 1_555
Al13 Hf3 2.913792 1_655
Al14 Ir6 2.572143 1_644
Al14 Ir5 2.679567 1_554
Al14 Ir3 2.679567 1_545
Al14 Ir0 2.843793 1_544
Al14 Hf4 2.913792 1_545
Al14 Hf2 2.913792 1_554
Al15 Ir6 2.576707 1_555
Al15 Ir5 2.648445 1_555
Al15 Ir3 2.648445 1_555
Al15 Ir0 2.666390 1_555
Al15 Hf0 3.100288 1_555
