# generated using pymatgen
data_Sr9Tc4HgN14
_symmetry_space_group_name_H-M   'P 1'
_cell_length_a   6.46640311
_cell_length_b   9.11812559
_cell_length_c   9.46113806
_cell_angle_alpha   115.12953712
_cell_angle_beta   100.43099598
_cell_angle_gamma   90.44457685
_symmetry_Int_Tables_number   1
_chemical_formula_structural   Sr9Tc4HgN14
_chemical_formula_sum   'Sr9 Tc4 Hg1 N14'
_cell_volume   494.44679530
_cell_formula_units_Z   1
loop_
 _symmetry_equiv_pos_site_id
 _symmetry_equiv_pos_as_xyz
  1  'x, y, z'
loop_
 _atom_site_type_symbol
 _atom_site_label
 _atom_site_symmetry_multiplicity
 _atom_site_fract_x
 _atom_site_fract_y
 _atom_site_fract_z
 _atom_site_occupancy
  Sr  Sr0  1  0.26078159  0.97978273  0.55918975  1
  Sr  Sr1  1  0.69934157  0.41655470  0.85810103  1
  Sr  Sr2  1  0.29064024  0.59387865  0.16456262  1
  Sr  Sr3  1  0.39477857  0.79602311  0.91215796  1
  Sr  Sr4  1  0.61735555  0.23428027  0.11080023  1
  Sr  Sr5  1  0.12247964  0.40376077  0.66234107  1
  Sr  Sr6  1  0.87423298  0.82699615  0.73909741  1
  Sr  Sr7  1  0.11758673  0.17066728  0.24103643  1
  Sr  Sr8  1  0.72175382  0.98748708  0.41699248  1
  Tc  Tc0  1  0.58200674  0.35336456  0.48379558  1
  Tc  Tc1  1  0.41815493  0.63010092  0.53112557  1
  Tc  Tc2  1  0.12901593  0.21089253  0.90511683  1
  Tc  Tc3  1  0.88145817  0.79774272  0.07772853  1
  Hg  Hg0  1  0.87550976  0.59337061  0.34096703  1
  N  N0  1  0.59286023  0.56336739  0.67517941  1
  N  N1  1  0.40438464  0.42466446  0.33900203  1
  N  N2  1  0.19220728  0.70498393  0.61971738  1
  N  N3  1  0.81787982  0.26348573  0.41115642  1
  N  N4  1  0.43149077  0.20001397  0.50953086  1
  N  N5  1  0.53926846  0.79483616  0.50371851  1
  N  N6  1  0.96587479  0.12531859  0.70514289  1
  N  N7  1  0.05616673  0.89223350  0.27131247  1
  N  N8  1  0.24550867  0.06140726  0.96463081  1
  N  N9  1  0.78215748  0.95280925  0.01799132  1
  N  N10  1  0.34815870  0.34456076  0.91453626  1
  N  N11  1  0.97055753  0.32408589  0.04384549  1
  N  N12  1  0.02238219  0.65461786  0.93299966  1
  N  N13  1  0.64600949  0.69871016  0.08822596  1
loop_
_geom_bond_atom_site_label_1
_geom_bond_atom_site_label_2
_geom_bond_distance
_geom_bond_site_symmetry_2
N0 Tc1 1.913515 1_555
N0 Tc0 1.989287 1_555
N0 Sr1 2.609930 1_555
N0 Sr6 2.784509 1_555
N0 Sr3 2.865350 1_555
N1 Tc0 1.953664 1_555
N1 Tc1 1.966658 1_555
N1 Sr7 2.673937 1_555
N1 Sr2 2.717756 1_555
N1 Sr4 2.738982 1_555
N2 Tc1 1.810061 1_555
N2 Sr6 2.559367 1_455
N2 Sr3 2.603899 1_555
N2 Sr0 2.845392 1_555
N2 Sr5 2.982790 1_555
N3 Tc0 1.841447 1_555
N3 Sr8 2.613201 1_545
N3 Sr5 2.616779 1_655
N3 Sr7 2.657218 1_655
N3 Sr4 2.800936 1_555
N4 Tc0 1.820880 1_555
N4 Sr0 2.535042 1_545
N4 Sr8 2.693557 1_545
N4 Sr7 2.862147 1_555
N4 Sr5 2.890816 1_555
N4 Sr1 3.181590 1_555
N5 Tc1 1.822886 1_555
N5 Sr0 2.449456 1_555
N5 Sr8 2.587284 1_555
N5 Sr6 2.725031 1_555
N5 Sr2 3.054697 1_555
N6 Tc2 1.819882 1_655
N6 Sr0 2.596314 1_645
N6 Sr8 2.646618 1_545
N6 Sr5 2.935501 1_655
N6 Sr6 2.939326 1_545
N6 Sr1 3.134774 1_555
N7 Tc3 1.807902 1_455
N7 Sr0 2.576470 1_555
N7 Sr7 2.707115 1_565
N7 Sr8 2.724317 1_455
N7 Sr2 3.000765 1_555
N8 Tc2 1.804583 1_555
N8 Sr3 2.494606 1_545
N8 Sr4 2.657908 1_556
N8 Sr7 2.664375 1_556
N8 Sr6 3.012844 1_445
N9 Tc3 1.814470 1_555
N9 Sr6 2.577121 1_554
N9 Sr4 2.638331 1_565
N9 Sr3 2.672364 1_554
N9 Sr7 2.796289 1_665
N10 Tc2 1.826668 1_555
N10 Sr1 2.566433 1_555
N10 Sr2 2.581933 1_556
N10 Sr4 2.816361 1_556
N10 Sr5 2.821270 1_555
N11 Tc2 1.786264 1_654
N11 Sr1 2.653367 1_554
N11 Sr4 2.687686 1_555
N11 Sr7 2.817170 1_655
N11 Sr2 2.884226 1_655
N12 Tc3 1.833317 1_456
N12 Sr1 2.768533 1_455
N12 Sr2 2.790148 1_556
N12 Sr3 2.799961 1_555
N12 Sr5 2.802973 1_555
N12 Sr6 2.930823 1_455
N13 Tc3 1.803572 1_555
N13 Sr3 2.549364 1_554
N13 Sr1 2.646963 1_554
N13 Sr2 2.805200 1_555
N13 Sr8 3.052937 1_555
