# generated using pymatgen
data_Sr10CrW3N14
_symmetry_space_group_name_H-M   'P 1'
_cell_length_a   6.44230290
_cell_length_b   9.18794072
_cell_length_c   9.28690623
_cell_angle_alpha   114.89801039
_cell_angle_beta   97.07523864
_cell_angle_gamma   89.73222848
_symmetry_Int_Tables_number   1
_chemical_formula_structural   Sr10CrW3N14
_chemical_formula_sum   'Sr10 Cr1 W3 N14'
_cell_volume   494.13842170
_cell_formula_units_Z   1
loop_
 _symmetry_equiv_pos_site_id
 _symmetry_equiv_pos_as_xyz
  1  'x, y, z'
loop_
 _atom_site_type_symbol
 _atom_site_label
 _atom_site_symmetry_multiplicity
 _atom_site_fract_x
 _atom_site_fract_y
 _atom_site_fract_z
 _atom_site_occupancy
  Sr  Sr0  1  0.84901128  0.58535546  0.32969764  1
  Sr  Sr1  1  0.26763798  0.98751137  0.56233404  1
  Sr  Sr2  1  0.70190799  0.41134766  0.84490037  1
  Sr  Sr3  1  0.29726883  0.58577224  0.14840072  1
  Sr  Sr4  1  0.40163020  0.79029973  0.92178507  1
  Sr  Sr5  1  0.59988601  0.21166627  0.08760256  1
  Sr  Sr6  1  0.14618762  0.41244548  0.66943909  1
  Sr  Sr7  1  0.89181041  0.84422210  0.75978540  1
  Sr  Sr8  1  0.11412247  0.16290559  0.24269702  1
  Sr  Sr9  1  0.73453990  0.01545969  0.43606753  1
  Cr  Cr0  1  0.57581506  0.35545960  0.47551130  1
  W  W0  1  0.42222242  0.63403293  0.52270556  1
  W  W1  1  0.12014552  0.21560011  0.91229604  1
  W  W2  1  0.88343401  0.78524531  0.08753486  1
  N  N0  1  0.54203522  0.55009817  0.67179486  1
  N  N1  1  0.45100072  0.43981239  0.32768362  1
  N  N2  1  0.15273401  0.69598711  0.56014102  1
  N  N3  1  0.82528851  0.30495541  0.43830704  1
  N  N4  1  0.42188624  0.20358187  0.47558683  1
  N  N5  1  0.58611859  0.80253368  0.52641811  1
  N  N6  1  0.95065640  0.13632692  0.71228729  1
  N  N7  1  0.05729032  0.86802330  0.28565966  1
  N  N8  1  0.23286581  0.04998450  0.95916969  1
  N  N9  1  0.76889400  0.95067780  0.04179429  1
  N  N10  1  0.35085368  0.33083579  0.89911974  1
  N  N11  1  0.96753570  0.34600945  0.07720588  1
  N  N12  1  0.03465314  0.65332808  0.92201759  1
  N  N13  1  0.65256798  0.67052299  0.10205920  1
loop_
_geom_bond_atom_site_label_1
_geom_bond_atom_site_label_2
_geom_bond_distance
_geom_bond_site_symmetry_2
Cr0 N3 1.706625 1_555
Cr0 N4 1.715976 1_555
Cr0 N1 1.936522 1_555
Cr0 N0 1.979281 1_555
N0 W0 1.933341 1_555
N0 Sr2 2.564351 1_555
N0 Sr4 2.695042 1_555
N0 Sr6 2.845440 1_555
N0 Sr7 3.285150 1_555
N1 W0 1.964003 1_555
N1 Sr5 2.618764 1_555
N1 Sr3 2.648200 1_555
N1 Sr0 2.891776 1_555
N1 Sr8 3.121672 1_555
N2 W0 1.852524 1_555
N2 Sr0 2.568501 1_455
N2 Sr7 2.595821 1_455
N2 Sr1 2.773386 1_555
N2 Sr6 3.171293 1_555
N2 Sr4 3.292066 1_555
N3 Sr6 2.645304 1_655
N3 Sr8 2.698065 1_655
N3 Sr9 2.717000 1_555
N3 Sr0 3.147652 1_555
N3 Sr5 3.153894 1_555
N4 Sr9 2.606669 1_555
N4 Sr8 2.649254 1_555
N4 Sr1 2.672073 1_545
N4 Sr6 2.815177 1_555
N5 W0 1.863937 1_555
N5 Sr1 2.620709 1_555
N5 Sr7 2.641733 1_555
N5 Sr9 2.653854 1_565
N5 Sr0 2.801583 1_555
N6 W1 1.881907 1_655
N6 Sr9 2.547169 1_555
N6 Sr1 2.655219 1_645
N6 Sr2 2.880606 1_555
N6 Sr7 2.930672 1_545
N6 Sr6 3.030622 1_655
N7 W2 1.881591 1_455
N7 Sr1 2.534691 1_555
N7 Sr9 2.684282 1_465
N7 Sr3 2.899111 1_555
N7 Sr8 2.930761 1_565
N7 Sr0 3.126484 1_455
N8 W1 1.871321 1_555
N8 Sr4 2.523231 1_545
N8 Sr8 2.604483 1_556
N8 Sr5 2.658241 1_556
N8 Sr7 2.814144 1_445
N9 W2 1.868490 1_555
N9 Sr5 2.519397 1_565
N9 Sr7 2.605680 1_554
N9 Sr4 2.647964 1_554
N9 Sr8 2.860905 1_665
N10 W1 1.874474 1_555
N10 Sr2 2.554483 1_555
N10 Sr3 2.566826 1_556
N10 Sr6 2.737728 1_555
N10 Sr5 2.782498 1_556
N11 W1 1.887476 1_654
N11 Sr0 2.645932 1_555
N11 Sr5 2.706800 1_555
N11 Sr8 2.808714 1_655
N11 Sr2 2.848613 1_554
N11 Sr3 2.876417 1_655
N12 W2 1.889459 1_456
N12 Sr6 2.635502 1_555
N12 Sr4 2.684117 1_555
N12 Sr3 2.807212 1_556
N12 Sr7 2.839264 1_455
N12 Sr2 2.894275 1_455
N13 W2 1.877530 1_555
N13 Sr3 2.563658 1_555
N13 Sr2 2.620407 1_554
N13 Sr0 2.721719 1_555
N13 Sr4 2.737782 1_554
