# generated using pymatgen
data_Cs2SbP2S7
_symmetry_space_group_name_H-M   'P 1'
_cell_length_a   9.52157161
_cell_length_b   9.52166376
_cell_length_c   9.34837507
_cell_angle_alpha   73.73558011
_cell_angle_beta   73.73615343
_cell_angle_gamma   70.52381772
_symmetry_Int_Tables_number   1
_chemical_formula_structural   Cs2SbP2S7
_chemical_formula_sum   'Cs4 Sb2 P4 S14'
_cell_volume   750.56612942
_cell_formula_units_Z   2
loop_
 _symmetry_equiv_pos_site_id
 _symmetry_equiv_pos_as_xyz
  1  'x, y, z'
loop_
 _atom_site_type_symbol
 _atom_site_label
 _atom_site_symmetry_multiplicity
 _atom_site_fract_x
 _atom_site_fract_y
 _atom_site_fract_z
 _atom_site_occupancy
  Cs  Cs0  1  0.60375777  0.05540342  0.17053414  1
  Cs  Cs1  1  0.94459763  0.39624640  0.82946093  1
  Cs  Cs2  1  0.39624223  0.94459658  0.82946586  1
  Cs  Cs3  1  0.05540237  0.60375360  0.17053907  1
  Sb  Sb0  1  0.68107923  0.31889182  0.49998204  1
  Sb  Sb1  1  0.31892077  0.68110818  0.50001796  1
  P  P0  1  0.94806383  0.94806207  0.43979052  1
  P  P1  1  0.05193617  0.05193793  0.56020948  1
  P  P2  1  0.38738564  0.38738176  0.81394609  1
  P  P3  1  0.61261436  0.61261824  0.18605391  1
  S  S0  1  0.69326142  0.38272658  0.19402569  1
  S  S1  1  0.61727720  0.30673489  0.80596657  1
  S  S2  1  0.30673858  0.61727342  0.80597431  1
  S  S3  1  0.38272280  0.69326511  0.19403343  1
  S  S4  1  0.00283015  0.00282779  0.21726961  1
  S  S5  1  0.99716985  0.99717221  0.78273039  1
  S  S6  1  0.71945319  0.02183922  0.53171053  1
  S  S7  1  0.97813637  0.28053090  0.46827901  1
  S  S8  1  0.28054681  0.97816078  0.46828947  1
  S  S9  1  0.02186363  0.71946910  0.53172099  1
  S  S10  1  0.27473722  0.27472948  0.99759606  1
  S  S11  1  0.72526278  0.72527052  0.00240394  1
  S  S12  1  0.35594263  0.35594863  0.61263731  1
  S  S13  1  0.64405737  0.64405137  0.38736269  1
loop_
_geom_bond_atom_site_label_1
_geom_bond_atom_site_label_2
_geom_bond_distance
_geom_bond_site_symmetry_2
Cs0 S0 3.570355 1_555
Cs0 S1 3.570703 1_554
Cs0 S11 3.607464 1_545
Cs0 S8 3.650241 1_545
Cs0 S10 3.656823 1_554
Cs0 S6 3.736307 1_555
Cs0 S4 3.797217 1_655
Cs0 S13 3.818807 1_545
Cs1 S1 3.570354 1_555
Cs1 S0 3.570713 1_556
Cs1 S10 3.607491 1_655
Cs1 S9 3.650313 1_655
Cs1 S11 3.656931 1_556
Cs1 S7 3.736539 1_555
Cs1 S5 3.797268 1_545
Cs1 S12 3.818729 1_655
Cs2 S2 3.570355 1_555
Cs2 S3 3.570703 1_556
Cs2 S10 3.607464 1_565
Cs2 S6 3.650241 1_565
Cs2 S11 3.656823 1_556
Cs2 S8 3.736307 1_555
Cs2 S5 3.797217 1_455
Cs2 S12 3.818807 1_565
Cs3 S3 3.570354 1_555
Cs3 S2 3.570713 1_554
Cs3 S11 3.607491 1_455
Cs3 S7 3.650313 1_455
Cs3 S10 3.656931 1_554
Cs3 S9 3.736539 1_555
Cs3 S4 3.797268 1_565
Cs3 S13 3.818729 1_455
P0 S4 1.958886 1_665
P0 S9 2.059235 1_655
P0 S6 2.059325 1_565
P0 P1 2.263468 1_665
P1 S5 1.958886 1_445
P1 S7 2.059235 1_455
P1 S8 2.059325 1_545
P2 S10 1.988148 1_555
P2 S1 2.050954 1_555
P2 S2 2.050984 1_555
P2 S12 2.100388 1_555
P3 S11 1.988148 1_555
P3 S3 2.050954 1_555
P3 S0 2.050984 1_555
P3 S13 2.100388 1_555
S0 Sb0 2.729653 1_555
S1 Sb0 2.729975 1_555
S2 Sb1 2.729653 1_555
S3 Sb1 2.729975 1_555
S6 Sb0 2.668926 1_555
S7 Sb0 2.669002 1_555
S8 Sb1 2.668926 1_555
S9 Sb1 2.669002 1_555
S12 Sb0 2.910536 1_555
S12 Sb1 2.910764 1_555
S13 Sb1 2.910536 1_555
S13 Sb0 2.910764 1_555
