# generated using pymatgen
data_Hf8Al14GeRh7
_symmetry_space_group_name_H-M   'P 1'
_cell_length_a   8.79447333
_cell_length_b   8.79447438
_cell_length_c   8.79447392
_cell_angle_alpha   120.14532904
_cell_angle_beta   119.88127256
_cell_angle_gamma   89.97711690
_symmetry_Int_Tables_number   1
_chemical_formula_structural   Hf8Al14GeRh7
_chemical_formula_sum   'Hf8 Al14 Ge1 Rh7'
_cell_volume   480.86630569
_cell_formula_units_Z   1
loop_
 _symmetry_equiv_pos_site_id
 _symmetry_equiv_pos_as_xyz
  1  'x, y, z'
loop_
 _atom_site_type_symbol
 _atom_site_label
 _atom_site_symmetry_multiplicity
 _atom_site_fract_x
 _atom_site_fract_y
 _atom_site_fract_z
 _atom_site_occupancy
  Hf  Hf0  1  0.80281051  0.29666471  0.08653863  1
  Hf  Hf1  1  0.21012608  0.29666471  0.49385421  1
  Hf  Hf2  1  0.19746174  0.69746174  0.50000000  1
  Hf  Hf3  1  0.21012608  0.71627287  0.91346137  1
  Hf  Hf4  1  0.80281051  0.71627287  0.50614579  1
  Hf  Hf5  1  0.78476485  0.28476485  0.50000000  1
  Hf  Hf6  1  0.38000181  0.12045745  0.74045563  1
  Hf  Hf7  1  0.38000181  0.63954618  0.25954437  1
  Al  Al0  1  0.16217226  0.33085293  0.16868067  1
  Al  Al1  1  0.16217226  0.99349259  0.83131933  1
  Al  Al2  1  0.15435828  0.33843614  0.81592214  1
  Al  Al3  1  0.52251199  0.33843614  0.18407786  1
  Al  Al4  1  0.83536290  0.66225540  0.82689349  1
  Al  Al5  1  0.83536290  0.00846741  0.17310651  1
  Al  Al6  1  0.83495358  0.66431659  0.17063700  1
  Al  Al7  1  0.49367759  0.66431659  0.82936300  1
  Al  Al8  1  0.38030841  0.12066030  0.25964711  1
  Al  Al9  1  0.86101419  0.12066030  0.74035289  1
  Al  Al10  1  0.62162245  0.87793240  0.25630995  1
  Al  Al11  1  0.62162245  0.36531150  0.74369005  1
  Al  Al12  1  0.62290672  0.87911137  0.74379636  1
  Al  Al13  1  0.13531401  0.87911137  0.25620364  1
  Ge  Ge0  1  0.99015081  0.49015081  0.50000000  1
  Rh  Rh0  1  0.99942020  0.99985885  0.50148408  1
  Rh  Rh1  1  0.49837477  0.99985885  0.00043865  1
  Rh  Rh2  1  0.49887684  0.49887684  1.00000000  1
  Rh  Rh3  1  0.49837477  0.49793612  0.49851592  1
  Rh  Rh4  1  0.99942020  0.49793612  0.99956135  1
  Rh  Rh5  1  0.99951607  0.99951607  0.00000000  1
  Rh  Rh6  1  0.50439996  0.00439996  0.50000000  1
loop_
_geom_bond_atom_site_label_1
_geom_bond_atom_site_label_2
_geom_bond_distance
_geom_bond_site_symmetry_2
Hf0 Rh4 3.064016 1_554
Hf0 Rh5 3.116353 1_545
Hf0 Rh2 3.196083 1_554
Hf0 Rh1 3.248904 1_545
Hf1 Rh3 3.064016 1_555
Hf1 Rh5 3.116353 1_445
Hf1 Rh2 3.196083 1_555
Hf1 Rh0 3.248904 1_445
Hf2 Rh3 3.176509 1_555
Hf2 Rh1 3.176509 1_556
Hf2 Rh4 3.176509 1_454
Hf2 Rh0 3.176509 1_455
Hf3 Rh1 3.064010 1_556
Hf3 Rh5 3.116347 1_456
Hf3 Rh2 3.196089 1_555
Hf3 Rh4 3.248910 1_455
Hf4 Rh0 3.064009 1_555
Hf4 Rh5 3.116352 1_556
Hf4 Rh2 3.196082 1_554
Hf4 Rh3 3.248909 1_555
Hf5 Rh3 3.137902 1_555
Hf5 Rh1 3.137902 1_545
Hf5 Rh4 3.137902 1_555
Hf5 Rh0 3.137902 1_545
Hf6 Rh6 2.616666 1_555
Hf6 Rh2 2.715505 1_555
Hf6 Rh0 2.738497 1_445
Hf6 Rh1 2.738497 1_546
Hf7 Rh6 2.616666 1_565
Hf7 Rh2 2.715505 1_554
Hf7 Rh4 2.738497 1_454
Hf7 Rh3 2.738497 1_555
Al0 Rh5 2.507019 1_445
Al0 Rh3 2.547970 1_555
Al0 Rh4 2.547971 1_454
Al1 Rh5 2.507021 1_456
Al1 Rh0 2.547965 1_455
Al1 Rh1 2.547973 1_556
Al2 Rh4 2.519600 1_455
Al2 Rh0 2.519600 1_445
Al2 Rh2 2.571678 1_555
Al3 Rh3 2.519589 1_555
Al3 Rh1 2.519604 1_545
Al3 Rh2 2.571683 1_554
Al4 Rh5 2.545068 1_556
Al4 Rh4 2.548574 1_555
Al4 Rh3 2.548582 1_555
Al5 Rh5 2.545065 1_545
Al5 Rh0 2.548571 1_545
Al5 Rh1 2.548586 1_545
Al6 Rh4 2.540116 1_554
Al6 Rh0 2.540117 1_555
Al6 Rh2 2.548638 1_554
Al7 Rh1 2.540112 1_556
Al7 Rh3 2.540127 1_555
Al7 Rh2 2.548634 1_555
Al8 Rh6 2.564320 1_555
Al8 Rh1 2.707126 1_545
Al8 Rh3 2.707134 1_555
Al8 Rh5 2.739345 1_445
Al9 Rh6 2.564327 1_555
Al9 Rh0 2.707126 1_545
Al9 Rh4 2.707133 1_555
Al9 Rh5 2.739338 1_546
Al10 Rh6 2.588286 1_565
Al10 Rh0 2.716714 1_555
Al10 Rh1 2.716714 1_555
Al10 Rh2 2.718494 1_554
Al11 Rh6 2.588279 1_555
Al11 Rh4 2.716714 1_555
Al11 Rh3 2.716721 1_555
Al11 Rh2 2.718494 1_555
Al12 Rh6 2.653792 1_565
Al12 Rh5 2.708965 1_556
Al12 Rh1 2.734245 1_556
Al12 Rh3 2.734252 1_555
Al13 Rh6 2.653799 1_565
Al13 Rh5 2.708958 1_455
Al13 Rh0 2.734245 1_455
Al13 Rh4 2.734252 1_454
Ge0 Hf5 2.554950 1_555
Ge0 Hf1 2.578783 1_655
Ge0 Hf0 2.578783 1_555
Ge0 Hf3 2.578784 1_655
Ge0 Hf4 2.578790 1_555
Ge0 Hf2 2.578896 1_655
