# generated using pymatgen
data_Ba4Cu3Rh
_symmetry_space_group_name_H-M   'P 1'
_cell_length_a   4.44251011
_cell_length_b   4.44250892
_cell_length_c   16.79875912
_cell_angle_alpha   90.00000000
_cell_angle_beta   90.00000000
_cell_angle_gamma   120.00000157
_symmetry_Int_Tables_number   1
_chemical_formula_structural   Ba4Cu3Rh
_chemical_formula_sum   'Ba4 Cu3 Rh1'
_cell_volume   287.12073771
_cell_formula_units_Z   1
loop_
 _symmetry_equiv_pos_site_id
 _symmetry_equiv_pos_as_xyz
  1  'x, y, z'
loop_
 _atom_site_type_symbol
 _atom_site_label
 _atom_site_symmetry_multiplicity
 _atom_site_fract_x
 _atom_site_fract_y
 _atom_site_fract_z
 _atom_site_occupancy
  Ba  Ba0  1  0.33333300  0.66666700  0.12844177  1
  Ba  Ba1  1  0.66666700  0.33333300  0.87319967  1
  Ba  Ba2  1  0.33333300  0.66666700  0.37155823  1
  Ba  Ba3  1  0.66666700  0.33333300  0.62680033  1
  Cu  Cu0  1  0.66666700  0.33333300  0.25000000  1
  Cu  Cu1  1  0.33333300  0.66666700  0.75000000  1
  Cu  Cu2  1  0.00000000  0.00000000  0.75000000  1
  Rh  Rh0  1  0.00000000  0.00000000  0.25000000  1
loop_
_geom_bond_atom_site_label_1
_geom_bond_atom_site_label_2
_geom_bond_distance
_geom_bond_site_symmetry_2
Ba0 Cu0 3.278489 1_565
Ba0 Rh0 3.278489 1_565
Ba0 Cu0 3.278490 1_455
Ba0 Rh0 3.278492 1_555
Ba0 Rh0 3.278493 1_665
Ba0 Cu0 3.278495 1_555
Ba1 Cu1 3.295734 1_545
Ba1 Cu2 3.295735 1_655
Ba1 Cu1 3.295735 1_655
Ba1 Cu2 3.295737 1_665
Ba1 Cu2 3.295738 1_555
Ba1 Cu1 3.295741 1_555
Ba2 Cu0 3.278489 1_565
Ba2 Rh0 3.278489 1_565
Ba2 Cu0 3.278490 1_455
Ba2 Rh0 3.278492 1_555
Ba2 Rh0 3.278493 1_665
Ba2 Cu0 3.278495 1_555
Ba3 Cu1 3.295734 1_545
Ba3 Cu2 3.295735 1_655
Ba3 Cu1 3.295735 1_655
Ba3 Cu2 3.295737 1_665
Ba3 Cu2 3.295738 1_555
Ba3 Cu1 3.295741 1_555
Cu0 Rh0 2.564882 1_655
Cu0 Rh0 2.564885 1_665
Cu0 Rh0 2.564886 1_555
Cu1 Cu2 2.564882 1_565
Cu1 Cu2 2.564885 1_555
Cu1 Cu2 2.564886 1_665
