# generated using pymatgen
data_Lu12ZnCo4Os
_symmetry_space_group_name_H-M   'P 1'
_cell_length_a   7.99164048
_cell_length_b   7.99164135
_cell_length_c   7.99164051
_cell_angle_alpha   111.57495781
_cell_angle_beta   110.57384714
_cell_angle_gamma   106.31198797
_symmetry_Int_Tables_number   1
_chemical_formula_structural   Lu12ZnCo4Os
_chemical_formula_sum   'Lu12 Zn1 Co4 Os1'
_cell_volume   391.98219667
_cell_formula_units_Z   1
loop_
 _symmetry_equiv_pos_site_id
 _symmetry_equiv_pos_as_xyz
  1  'x, y, z'
loop_
 _atom_site_type_symbol
 _atom_site_label
 _atom_site_symmetry_multiplicity
 _atom_site_fract_x
 _atom_site_fract_y
 _atom_site_fract_z
 _atom_site_occupancy
  Lu  Lu0  1  0.42243307  0.22894505  0.19348801  1
  Lu  Lu1  1  0.57756693  0.77105495  0.80651199  1
  Lu  Lu2  1  0.03545704  0.22894505  0.80651199  1
  Lu  Lu3  1  0.96454296  0.77105495  0.19348801  1
  Lu  Lu4  1  0.18161779  0.27602472  0.45764251  1
  Lu  Lu5  1  0.81838221  0.72397528  0.54235749  1
  Lu  Lu6  1  0.18161779  0.72397528  0.90559408  1
  Lu  Lu7  1  0.81838221  0.27602472  0.09440592  1
  Lu  Lu8  1  0.31527301  0.62025408  0.30498007  1
  Lu  Lu9  1  0.68472699  0.37974592  0.69501993  1
  Lu  Lu10  1  0.31527301  0.01029094  0.69501993  1
  Lu  Lu11  1  0.68472699  0.98970906  0.30498007  1
  Zn  Zn0  1  0.50000000  0.50000000  0.00000000  1
  Co  Co0  1  0.37438074  0.00000000  0.37438074  1
  Co  Co1  1  0.62561926  1.00000000  0.62561926  1
  Co  Co2  1  0.11205443  0.61205443  0.50000000  1
  Co  Co3  1  0.88794557  0.38794557  0.50000000  1
  Os  Os0  1  0.00000000  0.00000000  0.00000000  1
loop_
_geom_bond_atom_site_label_1
_geom_bond_atom_site_label_2
_geom_bond_distance
_geom_bond_site_symmetry_2
Lu0 Os0 2.813589 1_555
Lu0 Zn0 3.138523 1_555
Lu0 Lu6 3.313567 1_544
Lu0 Lu4 3.313567 1_555
Lu0 Lu11 3.321816 1_545
Lu0 Lu9 3.321831 1_555
Lu0 Lu10 3.361265 1_554
Lu0 Lu8 3.361272 1_555
Lu0 Lu5 3.477431 1_555
Lu0 Lu7 3.477436 1_555
Lu0 Lu2 3.522238 1_554
Lu1 Os0 2.813589 1_666
Lu1 Zn0 3.138523 1_556
Lu1 Lu7 3.313567 1_566
Lu1 Lu5 3.313567 1_555
Lu1 Lu10 3.321816 1_565
Lu1 Lu8 3.321831 1_555
Lu1 Lu11 3.361265 1_556
Lu1 Lu9 3.361272 1_555
Lu1 Lu4 3.477431 1_555
Lu1 Lu6 3.477436 1_555
Lu1 Lu3 3.522238 1_556
Lu2 Os0 2.813590 1_556
Lu2 Zn0 3.138522 1_556
Lu2 Lu7 3.313560 1_456
Lu2 Lu5 3.313567 1_445
Lu2 Lu9 3.321824 1_455
Lu2 Lu8 3.361267 1_556
Lu2 Lu6 3.477429 1_555
Lu2 Lu4 3.477431 1_555
Lu3 Os0 2.813590 1_665
Lu3 Zn0 3.138522 1_555
Lu3 Lu6 3.313560 1_654
Lu3 Lu4 3.313567 1_665
Lu3 Lu8 3.321824 1_655
Lu3 Lu9 3.361267 1_554
Lu3 Lu7 3.477429 1_555
Lu3 Lu5 3.477431 1_555
Lu4 Os0 2.980934 1_555
Lu4 Lu7 3.306158 1_455
Lu4 Lu8 3.454086 1_555
Lu4 Lu9 3.473084 1_555
Lu4 Zn0 3.528356 1_556
Lu5 Os0 2.980934 1_666
Lu5 Lu6 3.306158 1_655
Lu5 Lu9 3.454086 1_555
Lu5 Lu8 3.473084 1_555
Lu5 Zn0 3.528356 1_555
Lu6 Os0 2.980933 1_566
Lu6 Lu9 3.454080 1_455
Lu6 Lu8 3.473069 1_556
Lu6 Zn0 3.528355 1_556
Lu7 Os0 2.980933 1_655
Lu7 Lu8 3.454080 1_655
Lu7 Lu9 3.473069 1_554
Lu7 Zn0 3.528355 1_555
Lu8 Zn0 3.262902 1_555
Lu9 Zn0 3.262902 1_556
Lu10 Zn0 3.262914 1_556
Lu10 Lu3 3.321831 1_445
Lu10 Lu2 3.361275 1_555
Lu10 Lu6 3.454074 1_545
Lu10 Lu5 3.454076 1_445
Lu10 Lu7 3.473079 1_556
Lu10 Lu4 3.473096 1_555
Lu11 Zn0 3.262914 1_555
Lu11 Lu2 3.321831 1_665
Lu11 Lu3 3.361275 1_555
Lu11 Lu7 3.454074 1_565
Lu11 Lu4 3.454076 1_665
Lu11 Lu6 3.473079 1_554
Lu11 Lu5 3.473096 1_555
Co0 Co1 2.286761 1_545
Co0 Lu8 2.741066 1_545
Co0 Lu9 2.741070 1_555
Co0 Lu11 2.741070 1_545
Co0 Lu10 2.741078 1_555
Co0 Lu3 2.743289 1_445
Co0 Lu0 2.743289 1_555
Co0 Lu6 3.038356 1_544
Co0 Lu4 3.038362 1_555
Co1 Lu9 2.741066 1_565
Co1 Lu8 2.741070 1_555
Co1 Lu10 2.741070 1_565
Co1 Lu11 2.741078 1_555
Co1 Lu2 2.743289 1_665
Co1 Lu1 2.743289 1_555
Co1 Lu7 3.038356 1_566
Co1 Lu5 3.038362 1_555
Co2 Co3 2.147902 1_455
Co2 Lu10 2.620125 1_565
Co2 Lu8 2.620138 1_555
Co2 Lu5 2.817358 1_455
Co2 Lu4 2.817358 1_555
Co2 Lu7 2.817362 1_455
Co2 Lu6 2.817365 1_555
Co2 Lu1 3.178923 1_555
Co2 Lu3 3.178923 1_455
Co3 Lu11 2.620125 1_545
Co3 Lu9 2.620138 1_555
Co3 Lu4 2.817358 1_655
Co3 Lu5 2.817358 1_555
Co3 Lu6 2.817362 1_655
Co3 Lu7 2.817365 1_555
Co3 Lu0 3.178923 1_555
Co3 Lu2 3.178923 1_655
