# generated using pymatgen
data_Hf18Ta5W3S2
_symmetry_space_group_name_H-M   'P 1'
_cell_length_a   8.71580221
_cell_length_b   8.75269605
_cell_length_c   8.62605981
_cell_angle_alpha   90.00000000
_cell_angle_beta   90.00000000
_cell_angle_gamma   120.14012273
_symmetry_Int_Tables_number   1
_chemical_formula_structural   Hf18Ta5W3S2
_chemical_formula_sum   'Hf18 Ta5 W3 S2'
_cell_volume   569.08529794
_cell_formula_units_Z   1
loop_
 _symmetry_equiv_pos_site_id
 _symmetry_equiv_pos_as_xyz
  1  'x, y, z'
loop_
 _atom_site_type_symbol
 _atom_site_label
 _atom_site_symmetry_multiplicity
 _atom_site_fract_x
 _atom_site_fract_y
 _atom_site_fract_z
 _atom_site_occupancy
  Hf  Hf0  1  0.19813112  0.80221117  0.44897454  1
  Hf  Hf1  1  0.19813112  0.39592094  0.44897454  1
  Hf  Hf2  1  0.60594207  0.80297153  0.45100893  1
  Hf  Hf3  1  0.80208543  0.19699517  0.55277617  1
  Hf  Hf4  1  0.80208543  0.60508926  0.55277617  1
  Hf  Hf5  1  0.39616708  0.19808304  0.55197241  1
  Hf  Hf6  1  0.80208543  0.19699517  0.94722383  1
  Hf  Hf7  1  0.80208543  0.60508926  0.94722383  1
  Hf  Hf8  1  0.39616708  0.19808304  0.94802759  1
  Hf  Hf9  1  0.19813112  0.80221117  0.05102546  1
  Hf  Hf10  1  0.19813112  0.39592094  0.05102546  1
  Hf  Hf11  1  0.60594207  0.80297153  0.04899107  1
  Hf  Hf12  1  0.54375775  0.45594370  0.25000000  1
  Hf  Hf13  1  0.54375775  0.08781606  0.25000000  1
  Hf  Hf14  1  0.91097304  0.45548652  0.25000000  1
  Hf  Hf15  1  0.45637343  0.54562548  0.75000000  1
  Hf  Hf16  1  0.45637343  0.91074694  0.75000000  1
  Hf  Hf17  1  0.08802972  0.54401486  0.75000000  1
  Ta  Ta0  1  0.88781798  0.11096352  0.25000000  1
  Ta  Ta1  1  0.88781798  0.77685446  0.25000000  1
  Ta  Ta2  1  0.22257910  0.11128955  0.25000000  1
  Ta  Ta3  1  0.10953993  0.88714161  0.75000000  1
  Ta  Ta4  1  0.10953993  0.22239832  0.75000000  1
  W  W0  1  0.77756451  0.88878276  0.75000000  1
  W  W1  1  0.99867597  0.99933749  0.50112456  1
  W  W2  1  0.99867597  0.99933749  0.99887544  1
  S  S0  1  0.33503167  0.66751684  0.25000000  1
  S  S1  1  0.66840734  0.33420317  0.75000000  1
loop_
_geom_bond_atom_site_label_1
_geom_bond_atom_site_label_2
_geom_bond_distance
_geom_bond_site_symmetry_2
Hf0 S0 2.678095 1_555
Hf0 Ta3 2.909963 1_555
Hf0 W1 3.035379 1_455
Hf0 Ta1 3.115667 1_455
Hf0 Ta2 3.119441 1_565
Hf1 S0 2.678101 1_555
Hf1 Ta4 2.909966 1_555
Hf1 W1 3.035394 1_445
Hf1 Ta0 3.115670 1_455
Hf1 Ta2 3.119448 1_555
Hf2 S0 2.678823 1_555
Hf2 W0 2.885344 1_555
Hf2 W1 2.991602 1_555
Hf2 Ta0 3.107799 1_565
Hf2 Ta1 3.107803 1_555
Hf3 S1 2.664432 1_555
Hf3 Ta0 2.917489 1_555
Hf3 W1 3.017334 1_545
Hf3 Ta4 3.086463 1_655
Hf3 W0 3.104596 1_545
Hf4 S1 2.664432 1_555
Hf4 Ta1 2.917492 1_555
Hf4 W1 3.017335 1_555
Hf4 Ta3 3.086466 1_655
Hf4 W0 3.104611 1_555
Hf5 S1 2.669945 1_555
Hf5 Ta2 2.914975 1_555
Hf5 W1 3.027996 1_445
Hf5 Ta3 3.120587 1_545
Hf5 Ta4 3.120591 1_555
Hf6 S1 2.664432 1_555
Hf6 Ta0 2.917489 1_556
Hf6 W2 3.017334 1_545
Hf6 Ta4 3.086463 1_655
Hf6 W0 3.104596 1_545
Hf7 S1 2.664432 1_555
Hf7 Ta1 2.917492 1_556
Hf7 W2 3.017335 1_555
Hf7 Ta3 3.086466 1_655
Hf7 W0 3.104611 1_555
Hf8 S1 2.669945 1_555
Hf8 Ta2 2.914975 1_556
Hf8 W2 3.027996 1_445
Hf8 Ta3 3.120587 1_545
Hf8 Ta4 3.120591 1_555
Hf9 S0 2.678095 1_555
Hf9 Ta3 2.909963 1_554
Hf9 W2 3.035379 1_454
Hf9 Ta1 3.115667 1_455
Hf9 Ta2 3.119441 1_565
Hf10 S0 2.678101 1_555
Hf10 Ta4 2.909966 1_554
Hf10 W2 3.035394 1_444
Hf10 Ta0 3.115670 1_455
Hf10 Ta2 3.119448 1_555
Hf11 S0 2.678823 1_555
Hf11 W0 2.885344 1_554
Hf11 W2 2.991602 1_554
Hf11 Ta0 3.107799 1_565
Hf11 Ta1 3.107803 1_555
Hf12 Ta1 2.902316 1_555
Hf12 Ta2 2.907936 1_555
Hf12 S0 3.181507 1_555
Hf13 Ta0 2.902324 1_555
Hf13 Ta2 2.907926 1_555
Hf13 S0 3.181507 1_545
Hf14 Ta1 2.919392 1_555
Hf14 Ta0 2.919392 1_555
Hf14 S0 3.196311 1_655
Hf15 W0 2.900746 1_555
Hf15 Ta4 2.924649 1_555
Hf15 S1 3.205307 1_555
Hf16 W0 2.900736 1_555
Hf16 Ta3 2.924653 1_555
Hf16 S1 3.205307 1_565
Hf17 Ta4 2.913662 1_555
Hf17 Ta3 2.913662 1_555
Hf17 S1 3.162873 1_455
Ta0 W1 2.743841 1_545
Ta0 W2 2.743841 1_544
Ta0 Ta2 2.916280 1_655
Ta0 Ta1 2.924355 1_545
Ta1 W1 2.743837 1_555
Ta1 W2 2.743837 1_554
Ta1 Ta2 2.916280 1_665
Ta2 W1 2.746027 1_445
Ta2 W2 2.746027 1_444
Ta3 W2 2.731254 1_455
Ta3 W1 2.731254 1_455
Ta3 W0 2.900671 1_455
Ta3 Ta4 2.934400 1_565
Ta4 W2 2.731259 1_445
Ta4 W1 2.731259 1_445
Ta4 W0 2.900667 1_445
W0 W2 2.717794 1_555
W0 W1 2.717794 1_555
