# generated using pymatgen
data_GaCu6BrO8
_symmetry_space_group_name_H-M   'P 1'
_cell_length_a   6.36464959
_cell_length_b   6.36464909
_cell_length_c   6.36464922
_cell_angle_alpha   59.99999929
_cell_angle_beta   60.00000188
_cell_angle_gamma   59.99999288
_symmetry_Int_Tables_number   1
_chemical_formula_structural   GaCu6BrO8
_chemical_formula_sum   'Ga1 Cu6 Br1 O8'
_cell_volume   182.30912964
_cell_formula_units_Z   1
loop_
 _symmetry_equiv_pos_site_id
 _symmetry_equiv_pos_as_xyz
  1  'x, y, z'
loop_
 _atom_site_type_symbol
 _atom_site_label
 _atom_site_symmetry_multiplicity
 _atom_site_fract_x
 _atom_site_fract_y
 _atom_site_fract_z
 _atom_site_occupancy
  Ga  Ga0  1  0.00000000  0.00000000  0.00000000  1
  Cu  Cu0  1  0.00000000  0.00000000  0.50000000  1
  Cu  Cu1  1  0.50000000  0.00000000  0.00000000  1
  Cu  Cu2  1  0.00000000  0.50000000  0.00000000  1
  Cu  Cu3  1  0.50000000  0.50000000  0.00000000  1
  Cu  Cu4  1  0.00000000  0.50000000  0.50000000  1
  Cu  Cu5  1  0.50000000  0.00000000  0.50000000  1
  Br  Br0  1  0.50000000  0.50000000  0.50000000  1
  O  O0  1  0.13883146  0.13883146  0.58350363  1
  O  O1  1  0.13883146  0.58350363  0.13883146  1
  O  O2  1  0.58350363  0.13883146  0.13883146  1
  O  O3  1  0.86116854  0.41649637  0.86116854  1
  O  O4  1  0.13883146  0.13883146  0.13883146  1
  O  O5  1  0.86116854  0.86116854  0.86116854  1
  O  O6  1  0.86116854  0.86116854  0.41649637  1
  O  O7  1  0.41649637  0.86116854  0.86116854  1
loop_
_geom_bond_atom_site_label_1
_geom_bond_atom_site_label_2
_geom_bond_distance
_geom_bond_site_symmetry_2
Ga0 O4 2.164402 1_555
Ga0 O5 2.164402 1_444
Ga0 O3 2.164412 1_454
Ga0 O1 2.164412 1_545
Ga0 O7 2.164413 1_544
Ga0 O2 2.164413 1_455
Ga0 O6 2.164413 1_445
Ga0 O0 2.164413 1_554
Cu0 O0 1.887859 1_555
Cu0 O6 1.887859 1_445
Cu0 O5 1.887868 1_445
Cu0 O4 1.887868 1_555
Cu1 O2 1.887859 1_555
Cu1 O7 1.887859 1_544
Cu1 O5 1.887868 1_544
Cu1 O4 1.887868 1_555
Cu2 O1 1.887859 1_555
Cu2 O3 1.887859 1_454
Cu2 O5 1.887868 1_454
Cu2 O4 1.887868 1_555
Cu3 O7 1.887869 1_554
Cu3 O2 1.887869 1_555
Cu3 O3 1.887870 1_554
Cu3 O1 1.887870 1_555
Cu4 O6 1.887869 1_455
Cu4 O0 1.887869 1_555
Cu4 O3 1.887870 1_455
Cu4 O1 1.887870 1_555
Cu5 O6 1.887870 1_545
Cu5 O0 1.887870 1_555
Cu5 O7 1.887870 1_545
Cu5 O2 1.887870 1_555
Br0 Cu0 3.182324 1_565
Br0 Cu0 3.182324 1_655
Br0 Cu5 3.182325 1_565
Br0 Cu5 3.182325 1_555
Br0 Cu1 3.182325 1_565
Br0 Cu1 3.182325 1_556
Br0 Cu3 3.182325 1_556
Br0 Cu3 3.182325 1_555
Br0 Cu4 3.182325 1_655
Br0 Cu4 3.182325 1_555
Br0 Cu2 3.182325 1_556
Br0 Cu2 3.182325 1_655
