# generated using pymatgen
data_Ba6Sn8SbCl
_symmetry_space_group_name_H-M   'P 1'
_cell_length_a   9.21584374
_cell_length_b   9.21584458
_cell_length_c   9.30282697
_cell_angle_alpha   119.69118095
_cell_angle_beta   119.69119045
_cell_angle_gamma   90.00000255
_symmetry_Int_Tables_number   1
_chemical_formula_structural   Ba6Sn8SbCl
_chemical_formula_sum   'Ba6 Sn8 Sb1 Cl1'
_cell_volume   563.86439072
_cell_formula_units_Z   1
loop_
 _symmetry_equiv_pos_site_id
 _symmetry_equiv_pos_as_xyz
  1  'x, y, z'
loop_
 _atom_site_type_symbol
 _atom_site_label
 _atom_site_symmetry_multiplicity
 _atom_site_fract_x
 _atom_site_fract_y
 _atom_site_fract_z
 _atom_site_occupancy
  Ba  Ba0  1  0.25605326  0.25605326  0.51210553  1
  Ba  Ba1  1  0.74394674  0.74394674  0.48789447  1
  Ba  Ba2  1  0.66695979  0.16592179  0.00000000  1
  Ba  Ba3  1  0.33304021  0.83407821  1.00000000  1
  Ba  Ba4  1  0.83407821  0.66695979  1.00000000  1
  Ba  Ba5  1  0.16592179  0.33304021  0.00000000  1
  Sn  Sn0  1  0.33442273  0.83410841  0.38865534  1
  Sn  Sn1  1  0.66557727  0.16589159  0.61134466  1
  Sn  Sn2  1  0.05423360  0.55454793  0.38865534  1
  Sn  Sn3  1  0.55454793  0.33442273  0.38865534  1
  Sn  Sn4  1  0.16589159  0.94576640  0.61134466  1
  Sn  Sn5  1  0.94576640  0.44545207  0.61134466  1
  Sn  Sn6  1  0.44545207  0.66557727  0.61134466  1
  Sn  Sn7  1  0.83410841  0.05423360  0.38865534  1
  Sb  Sb0  1  0.00000000  0.00000000  0.00000000  1
  Cl  Cl0  1  0.50000000  0.50000000  0.00000000  1
loop_
_geom_bond_atom_site_label_1
_geom_bond_atom_site_label_2
_geom_bond_distance
_geom_bond_site_symmetry_2
Ba0 Cl0 3.239145 1_556
Ba0 Sb0 3.399882 1_555
Ba0 Sn6 3.618676 1_555
Ba0 Sn1 3.618683 1_555
Ba0 Sn5 3.618693 1_455
Ba0 Sn4 3.618700 1_545
Ba0 Sn7 3.655029 1_455
Ba0 Sn3 3.655030 1_555
Ba0 Sn2 3.655030 1_555
Ba0 Sn0 3.655030 1_545
Ba1 Cl0 3.239145 1_555
Ba1 Sb0 3.399882 1_666
Ba1 Sn3 3.618676 1_555
Ba1 Sn0 3.618683 1_555
Ba1 Sn2 3.618693 1_655
Ba1 Sn7 3.618700 1_565
Ba1 Sn4 3.655029 1_655
Ba1 Sn6 3.655030 1_555
Ba1 Sn5 3.655030 1_555
Ba1 Sn1 3.655030 1_565
Ba2 Sb0 3.429060 1_655
Ba2 Cl0 3.441891 1_555
Ba2 Sn1 3.609161 1_554
Ba2 Sn2 3.609169 1_655
Ba2 Sn7 3.830685 1_555
Ba2 Sn6 3.830693 1_544
Ba2 Sn3 3.834805 1_555
Ba2 Sn4 3.834811 1_544
Ba2 Sn0 4.073408 1_544
Ba2 Sn5 4.073409 1_555
Ba3 Sb0 3.429060 1_566
Ba3 Cl0 3.441891 1_556
Ba3 Sn0 3.609161 1_556
Ba3 Sn5 3.609169 1_455
Ba3 Sn4 3.830685 1_555
Ba3 Sn3 3.830693 1_566
Ba3 Sn6 3.834805 1_555
Ba3 Sn7 3.834811 1_566
Ba3 Sn1 4.073408 1_566
Ba3 Sn2 4.073409 1_555
Ba4 Sb0 3.429060 1_666
Ba4 Cl0 3.441890 1_556
Ba4 Sn6 3.609165 1_555
Ba4 Sn7 3.609166 1_566
Ba4 Sn5 3.830686 1_555
Ba4 Sn0 3.830691 1_656
Ba4 Sn2 3.834805 1_656
Ba4 Sn1 3.834811 1_555
Ba4 Sn4 4.073409 1_656
Ba4 Sn3 4.073409 1_555
Ba5 Sb0 3.429060 1_555
Ba5 Cl0 3.441890 1_555
Ba5 Sn3 3.609165 1_555
Ba5 Sn4 3.609166 1_544
Ba5 Sn2 3.830686 1_555
Ba5 Sn1 3.830691 1_454
Ba5 Sn5 3.834805 1_454
Ba5 Sn0 3.834811 1_555
Ba5 Sn7 4.073409 1_454
Ba5 Sn6 4.073409 1_555
Sn0 Sn6 2.972968 1_555
Sn0 Sn4 2.972969 1_555
Sn0 Sn1 3.227458 1_565
Sn1 Sn3 2.972968 1_555
Sn1 Sn7 2.972969 1_555
Sn2 Sn6 2.972952 1_555
Sn2 Sn4 2.972952 1_555
Sn2 Sn5 3.227481 1_455
Sn3 Sn5 2.972952 1_555
Sn3 Sn6 3.227470 1_555
Sn4 Sn7 3.227469 1_465
Sn5 Sn7 2.972952 1_555
