# generated using pymatgen
data_KBaWN3
_symmetry_space_group_name_H-M   'P 1'
_cell_length_a   6.70930609
_cell_length_b   6.70930558
_cell_length_c   13.37980718
_cell_angle_alpha   89.94425849
_cell_angle_beta   89.94425574
_cell_angle_gamma   125.81914783
_symmetry_Int_Tables_number   1
_chemical_formula_structural   KBaWN3
_chemical_formula_sum   'K4 Ba4 W4 N12'
_cell_volume   488.37604767
_cell_formula_units_Z   4
loop_
 _symmetry_equiv_pos_site_id
 _symmetry_equiv_pos_as_xyz
  1  'x, y, z'
loop_
 _atom_site_type_symbol
 _atom_site_label
 _atom_site_symmetry_multiplicity
 _atom_site_fract_x
 _atom_site_fract_y
 _atom_site_fract_z
 _atom_site_occupancy
  K  K0  1  0.95629410  0.54892313  0.36392515  1
  K  K1  1  0.45107687  0.04370590  0.13607485  1
  K  K2  1  0.04370590  0.45107687  0.63607485  1
  K  K3  1  0.54892313  0.95629410  0.86392515  1
  Ba  Ba0  1  0.14017177  0.35484078  0.08071388  1
  Ba  Ba1  1  0.64515922  0.85982823  0.41928612  1
  Ba  Ba2  1  0.85982823  0.64515922  0.91928612  1
  Ba  Ba3  1  0.35484078  0.14017177  0.58071388  1
  W  W0  1  0.77108007  0.72630885  0.16817153  1
  W  W1  1  0.27369115  0.22891993  0.33182847  1
  W  W2  1  0.22891993  0.27369115  0.83182847  1
  W  W3  1  0.72630885  0.77108007  0.66817153  1
  N  N0  1  0.48545233  0.51454767  0.25000000  1
  N  N1  1  0.51454767  0.48545233  0.75000000  1
  N  N2  1  0.90834564  0.57534194  0.12332981  1
  N  N3  1  0.42465806  0.09165436  0.37667019  1
  N  N4  1  0.09165436  0.42465806  0.87667019  1
  N  N5  1  0.57534194  0.90834564  0.62332981  1
  N  N6  1  0.82430707  0.68555128  0.55947038  1
  N  N7  1  0.31444872  0.17569293  0.94052962  1
  N  N8  1  0.17569293  0.31444872  0.44052962  1
  N  N9  1  0.68555128  0.82430707  0.05947038  1
  N  N10  1  0.99335868  0.00664132  0.25000000  1
  N  N11  1  0.00664132  0.99335868  0.75000000  1
loop_
_geom_bond_atom_site_label_1
_geom_bond_atom_site_label_2
_geom_bond_distance
_geom_bond_site_symmetry_2
K0 N8 2.898695 1_655
K0 N3 3.058368 1_555
K0 N6 3.069218 1_555
K0 N3 3.126081 1_665
K0 N2 3.250428 1_555
K0 N10 3.303405 1_565
K0 N0 3.393136 1_555
K1 N9 2.898695 1_545
K1 N2 3.058368 1_555
K1 N7 3.069218 1_554
K1 N2 3.126081 1_445
K1 N3 3.250428 1_555
K1 N10 3.303405 1_455
K1 N0 3.393135 1_555
K2 N6 2.898695 1_455
K2 N5 3.058368 1_555
K2 N8 3.069218 1_555
K2 N5 3.126081 1_445
K2 N4 3.250428 1_555
K2 N11 3.303405 1_545
K2 N1 3.393136 1_555
K3 N7 2.898695 1_565
K3 N4 3.058368 1_555
K3 N9 3.069218 1_556
K3 N4 3.126081 1_665
K3 N5 3.250428 1_555
K3 N11 3.303405 1_655
K3 N1 3.393135 1_555
Ba0 N2 2.761563 1_455
Ba0 N4 2.820701 1_554
Ba0 N7 2.824011 1_554
Ba0 N0 2.958815 1_555
Ba0 N10 2.974931 1_455
Ba0 N9 3.057835 1_445
Ba0 N9 3.145997 1_555
Ba1 N3 2.761563 1_565
Ba1 N5 2.820701 1_555
Ba1 N6 2.824011 1_555
Ba1 N0 2.958815 1_555
Ba1 N10 2.974931 1_565
Ba1 N8 3.057835 1_665
Ba1 N8 3.145997 1_555
Ba2 N4 2.761563 1_655
Ba2 N2 2.820701 1_556
Ba2 N9 2.824011 1_556
Ba2 N1 2.958815 1_555
Ba2 N11 2.974931 1_655
Ba2 N7 3.057835 1_665
Ba2 N7 3.145997 1_555
Ba3 N5 2.761563 1_545
Ba3 N3 2.820701 1_555
Ba3 N8 2.824011 1_555
Ba3 N1 2.958815 1_555
Ba3 N11 2.974931 1_545
Ba3 N6 3.057835 1_445
Ba3 N6 3.145997 1_555
N0 W1 1.922448 1_555
N0 W0 1.922448 1_555
N1 W3 1.922448 1_555
N1 W2 1.922448 1_555
N2 W0 1.823732 1_555
N3 W1 1.823732 1_555
N4 W2 1.823732 1_555
N5 W3 1.823732 1_555
N6 W3 1.821607 1_555
N7 W2 1.821607 1_555
N8 W1 1.821607 1_555
N9 W0 1.821607 1_555
N10 W0 1.919485 1_545
N10 W1 1.919485 1_655
N11 W2 1.919485 1_565
N11 W3 1.919485 1_455
