# generated using pymatgen
data_LuCd3(Ir2O7)2
_symmetry_space_group_name_H-M   'P 1'
_cell_length_a   7.13786502
_cell_length_b   7.19578908
_cell_length_c   7.13786434
_cell_angle_alpha   60.26591685
_cell_angle_beta   59.99998963
_cell_angle_gamma   60.26592541
_symmetry_Int_Tables_number   1
_chemical_formula_structural   LuCd3(Ir2O7)2
_chemical_formula_sum   'Lu1 Cd3 Ir4 O14'
_cell_volume   260.27590869
_cell_formula_units_Z   1
loop_
 _symmetry_equiv_pos_site_id
 _symmetry_equiv_pos_as_xyz
  1  'x, y, z'
loop_
 _atom_site_type_symbol
 _atom_site_label
 _atom_site_symmetry_multiplicity
 _atom_site_fract_x
 _atom_site_fract_y
 _atom_site_fract_z
 _atom_site_occupancy
  Lu  Lu0  1  0.12500000  0.62500000  0.12500000  1
  Cd  Cd0  1  0.62500000  0.12500000  0.12500000  1
  Cd  Cd1  1  0.12500000  0.12500000  0.62500000  1
  Cd  Cd2  1  0.12500000  0.12500000  0.12500000  1
  Ir  Ir0  1  0.12500000  0.62500000  0.62500000  1
  Ir  Ir1  1  0.62500000  0.12500000  0.62500000  1
  Ir  Ir2  1  0.62500000  0.62500000  0.12500000  1
  Ir  Ir3  1  0.62500000  0.62500000  0.62500000  1
  O  O0  1  0.72030912  0.69053177  0.29457955  1
  O  O1  1  0.29616248  0.30063283  0.70160184  1
  O  O2  1  0.70160184  0.30063283  0.70160184  1
  O  O3  1  0.29457955  0.69053177  0.29457955  1
  O  O4  1  0.29457955  0.69053177  0.72030912  1
  O  O5  1  0.70160184  0.30063283  0.29616248  1
  O  O6  1  0.52969088  0.55946823  0.95542045  1
  O  O7  1  0.95383752  0.94936717  0.54839816  1
  O  O8  1  0.54839816  0.94936717  0.54839816  1
  O  O9  1  0.95542045  0.55946823  0.95542045  1
  O  O10  1  0.95542045  0.55946823  0.52969088  1
  O  O11  1  0.54839816  0.94936717  0.95383752  1
  O  O12  1  0.24824480  0.25526661  0.24824480  1
  O  O13  1  0.00175520  0.99473339  0.00175520  1
loop_
_geom_bond_atom_site_label_1
_geom_bond_atom_site_label_2
_geom_bond_distance
_geom_bond_site_symmetry_2
Lu0 O13 2.180999 1_555
Lu0 O12 2.180999 1_555
Lu0 O10 2.397958 1_455
Lu0 O4 2.397958 1_554
Lu0 O6 2.397959 1_554
Lu0 O0 2.397959 1_455
Lu0 O3 2.397959 1_555
Lu0 O9 2.397959 1_454
Cd0 O13 2.199141 1_645
Cd0 O12 2.199141 1_555
Cd0 O5 2.504780 1_555
Cd0 O11 2.504780 1_544
Cd0 O2 2.504785 1_554
Cd0 O8 2.504785 1_545
Cd0 O6 2.581071 1_554
Cd0 O0 2.581071 1_545
Cd1 O13 2.199141 1_546
Cd1 O12 2.199141 1_555
Cd1 O1 2.504780 1_555
Cd1 O7 2.504780 1_445
Cd1 O8 2.504786 1_545
Cd1 O2 2.504786 1_455
Cd1 O10 2.581071 1_455
Cd1 O4 2.581071 1_545
Cd2 O12 2.199147 1_555
Cd2 O13 2.199147 1_545
Cd2 O7 2.504784 1_445
Cd2 O1 2.504784 1_554
Cd2 O11 2.504785 1_544
Cd2 O5 2.504785 1_455
Cd2 O9 2.581071 1_454
Cd2 O3 2.581071 1_545
Ir0 O7 1.952670 1_455
Ir0 O1 1.952670 1_555
Ir0 O9 1.964230 1_455
Ir0 O3 1.964230 1_555
Ir0 O4 1.964230 1_555
Ir0 O10 1.964230 1_455
Ir1 O2 1.965969 1_555
Ir1 O8 1.965969 1_545
Ir1 O11 1.965974 1_545
Ir1 O5 1.965974 1_555
Ir1 O7 1.965974 1_545
Ir1 O1 1.965974 1_555
Ir2 O11 1.952670 1_554
Ir2 O5 1.952670 1_555
Ir2 O9 1.964230 1_554
Ir2 O3 1.964230 1_555
Ir2 O0 1.964230 1_555
Ir2 O6 1.964230 1_554
Ir3 O8 1.952671 1_555
Ir3 O2 1.952671 1_555
Ir3 O6 1.964230 1_555
Ir3 O0 1.964230 1_555
Ir3 O10 1.964230 1_555
Ir3 O4 1.964230 1_555
