# generated using pymatgen
data_Rb4Ba(SnSe3)2
_symmetry_space_group_name_H-M   'P 1'
_cell_length_a   7.89657715
_cell_length_b   7.89657603
_cell_length_c   9.26037385
_cell_angle_alpha   81.85948850
_cell_angle_beta   81.85948933
_cell_angle_gamma   119.73954974
_symmetry_Int_Tables_number   1
_chemical_formula_structural   Rb4Ba(SnSe3)2
_chemical_formula_sum   'Rb4 Ba1 Sn2 Se6'
_cell_volume   481.02160948
_cell_formula_units_Z   1
loop_
 _symmetry_equiv_pos_site_id
 _symmetry_equiv_pos_as_xyz
  1  'x, y, z'
loop_
 _atom_site_type_symbol
 _atom_site_label
 _atom_site_symmetry_multiplicity
 _atom_site_fract_x
 _atom_site_fract_y
 _atom_site_fract_z
 _atom_site_occupancy
  Rb  Rb0  1  0.81756998  0.18243002  1.00000000  1
  Rb  Rb1  1  0.17632734  0.82367266  0.00000000  1
  Rb  Rb2  1  0.50786135  0.49213865  0.00000000  1
  Rb  Rb3  1  0.66596126  0.33403874  0.50000000  1
  Ba  Ba0  1  0.33518810  0.66481190  0.50000000  1
  Sn  Sn0  1  0.05024787  0.05192792  0.34315788  1
  Sn  Sn1  1  0.94807208  0.94975213  0.65684212  1
  Se  Se0  1  0.09882617  0.39851603  0.25915980  1
  Se  Se1  1  0.37847465  0.05988814  0.26442416  1
  Se  Se2  1  0.94011186  0.62152535  0.73557584  1
  Se  Se3  1  0.60148397  0.90117383  0.74084020  1
  Se  Se4  1  0.76463860  0.78476325  0.25481309  1
  Se  Se5  1  0.21523675  0.23536140  0.74518691  1
loop_
_geom_bond_atom_site_label_1
_geom_bond_atom_site_label_2
_geom_bond_distance
_geom_bond_site_symmetry_2
Rb0 Se4 3.453061 1_546
Rb0 Se5 3.453061 1_655
Rb0 Se3 3.537409 1_545
Rb0 Se0 3.537409 1_656
Rb0 Se2 3.542674 1_555
Rb0 Se1 3.542675 1_556
Rb1 Se1 3.386712 1_565
Rb1 Se2 3.386712 1_454
Rb1 Se0 3.559392 1_555
Rb1 Se3 3.559393 1_554
Rb1 Se5 3.586390 1_564
Rb1 Se4 3.586391 1_455
Rb2 Se3 3.416439 1_554
Rb2 Se0 3.416440 1_555
Rb2 Se1 3.486405 1_555
Rb2 Se2 3.486405 1_554
Rb2 Se4 3.642753 1_555
Rb2 Se5 3.642754 1_554
Rb3 Se2 3.530358 1_555
Rb3 Se1 3.530358 1_555
Rb3 Se3 3.565096 1_545
Rb3 Se0 3.565096 1_655
Rb3 Se4 3.590133 1_555
Rb3 Se5 3.590133 1_555
Ba0 Se1 3.378186 1_565
Ba0 Se2 3.378186 1_455
Ba0 Se0 3.390104 1_555
Ba0 Se3 3.390104 1_555
Ba0 Se5 3.402373 1_555
Ba0 Se4 3.402373 1_555
Se0 Sn0 2.552178 1_555
Se1 Sn0 2.558032 1_555
Se2 Sn1 2.558032 1_555
Se3 Sn1 2.552178 1_555
Se4 Sn0 2.549000 1_665
Se5 Sn1 2.549000 1_445
