# generated using pymatgen
data_Cs2VMoN4
_symmetry_space_group_name_H-M   'P 1'
_cell_length_a   6.02752723
_cell_length_b   6.02752746
_cell_length_c   6.02752718
_cell_angle_alpha   59.99999616
_cell_angle_beta   59.99999487
_cell_angle_gamma   60.00000097
_symmetry_Int_Tables_number   1
_chemical_formula_structural   Cs2VMoN4
_chemical_formula_sum   'Cs2 V1 Mo1 N4'
_cell_volume   154.84690602
_cell_formula_units_Z   1
loop_
 _symmetry_equiv_pos_site_id
 _symmetry_equiv_pos_as_xyz
  1  'x, y, z'
loop_
 _atom_site_type_symbol
 _atom_site_label
 _atom_site_symmetry_multiplicity
 _atom_site_fract_x
 _atom_site_fract_y
 _atom_site_fract_z
 _atom_site_occupancy
  Cs  Cs0  1  0.25000000  0.25000000  0.25000000  1
  Cs  Cs1  1  0.00000000  0.00000000  0.00000000  1
  V  V0  1  0.50000000  0.50000000  0.50000000  1
  Mo  Mo0  1  0.75000000  0.75000000  0.75000000  1
  N  N0  1  0.62370709  0.62370709  0.62370709  1
  N  N1  1  0.12887773  0.62370709  0.62370709  1
  N  N2  1  0.62370709  0.12887773  0.62370709  1
  N  N3  1  0.62370709  0.62370709  0.12887773  1
loop_
_geom_bond_atom_site_label_1
_geom_bond_atom_site_label_2
_geom_bond_distance
_geom_bond_site_symmetry_2
Cs0 N3 3.530676 1_555
Cs0 N2 3.530676 1_555
Cs0 N1 3.530676 1_555
Cs0 N0 3.530678 1_554
Cs0 N0 3.530678 1_455
Cs0 N0 3.530678 1_545
Cs0 N2 3.530680 1_455
Cs0 N2 3.530681 1_554
Cs0 N1 3.530681 1_554
Cs0 N1 3.530681 1_545
Cs0 N3 3.530681 1_455
Cs0 N3 3.530681 1_545
Cs1 N2 3.537321 1_554
Cs1 N2 3.537321 1_455
Cs1 N1 3.537321 1_545
Cs1 N1 3.537321 1_554
Cs1 N3 3.537321 1_545
Cs1 N3 3.537322 1_455
Cs1 N0 3.537324 1_445
Cs1 N0 3.537324 1_544
Cs1 N0 3.537324 1_454
Cs1 N3 3.537327 1_445
Cs1 N2 3.537327 1_454
Cs1 N1 3.537327 1_544
Mo0 N3 1.864630 1_556
Mo0 N1 1.864630 1_655
Mo0 N2 1.864630 1_565
Mo0 N0 1.864635 1_555
N0 V0 1.826457 1_555
N1 V0 1.826462 1_555
N2 V0 1.826462 1_555
N3 V0 1.826462 1_555
