# generated using pymatgen
data_HfSc3Ir2O
_symmetry_space_group_name_H-M   'P 1'
_cell_length_a   8.67157338
_cell_length_b   8.67157091
_cell_length_c   8.67158658
_cell_angle_alpha   59.99994395
_cell_angle_beta   59.99995339
_cell_angle_gamma   59.99992156
_symmetry_Int_Tables_number   1
_chemical_formula_structural   HfSc3Ir2O
_chemical_formula_sum   'Hf4 Sc12 Ir8 O4'
_cell_volume   461.08251752
_cell_formula_units_Z   4
loop_
 _symmetry_equiv_pos_site_id
 _symmetry_equiv_pos_as_xyz
  1  'x, y, z'
loop_
 _atom_site_type_symbol
 _atom_site_label
 _atom_site_symmetry_multiplicity
 _atom_site_fract_x
 _atom_site_fract_y
 _atom_site_fract_z
 _atom_site_occupancy
  Hf  Hf0  1  0.12500000  0.62500000  0.62500000  1
  Hf  Hf1  1  0.62500000  0.12500000  0.62500000  1
  Hf  Hf2  1  0.62500000  0.62500000  0.12500000  1
  Hf  Hf3  1  0.62500000  0.62500000  0.62500000  1
  Sc  Sc0  1  0.81700367  0.81700167  0.18299733  1
  Sc  Sc1  1  0.18299733  0.18299733  0.81700267  1
  Sc  Sc2  1  0.81700267  0.18299833  0.81700267  1
  Sc  Sc3  1  0.18299733  0.81700167  0.18299633  1
  Sc  Sc4  1  0.18299733  0.81700167  0.81700367  1
  Sc  Sc5  1  0.81700267  0.18299833  0.18299633  1
  Sc  Sc6  1  0.43299633  0.43299833  0.06700267  1
  Sc  Sc7  1  0.06700267  0.06700267  0.43299733  1
  Sc  Sc8  1  0.43299733  0.06700167  0.43299733  1
  Sc  Sc9  1  0.06700267  0.43299833  0.06700367  1
  Sc  Sc10  1  0.06700267  0.43299833  0.43299633  1
  Sc  Sc11  1  0.43299733  0.06700167  0.06700367  1
  Ir  Ir0  1  0.76209029  0.41263624  0.41263624  1
  Ir  Ir1  1  0.41263624  0.76209029  0.41263624  1
  Ir  Ir2  1  0.41263624  0.41263624  0.76209029  1
  Ir  Ir3  1  0.41263624  0.41263624  0.41263624  1
  Ir  Ir4  1  0.48790971  0.83736376  0.83736376  1
  Ir  Ir5  1  0.83736376  0.48790971  0.83736376  1
  Ir  Ir6  1  0.83736376  0.83736376  0.48790971  1
  Ir  Ir7  1  0.83736376  0.83736376  0.83736376  1
  O  O0  1  0.62500000  0.12500000  0.12500000  1
  O  O1  1  0.12500000  0.62500000  0.12500000  1
  O  O2  1  0.12500000  0.12500000  0.62500000  1
  O  O3  1  0.12500000  0.12500000  0.12500000  1
loop_
_geom_bond_atom_site_label_1
_geom_bond_atom_site_label_2
_geom_bond_distance
_geom_bond_site_symmetry_2
Hf0 Ir2 2.684861 1_555
Hf0 Ir6 2.684861 1_455
Hf0 Ir1 2.684861 1_555
Hf0 Ir5 2.684861 1_455
Hf0 Ir7 2.684866 1_455
Hf0 Ir3 2.684866 1_555
Hf1 Ir0 2.684860 1_555
Hf1 Ir4 2.684860 1_545
Hf1 Ir2 2.684860 1_555
Hf1 Ir6 2.684860 1_545
Hf1 Ir7 2.684865 1_545
Hf1 Ir3 2.684865 1_555
Hf2 Ir4 2.684863 1_554
Hf2 Ir0 2.684863 1_555
Hf2 Ir1 2.684863 1_555
Hf2 Ir5 2.684863 1_554
Hf2 Ir7 2.684866 1_554
Hf2 Ir3 2.684866 1_555
Hf3 Ir2 2.684868 1_555
Hf3 Ir6 2.684868 1_555
Hf3 Ir4 2.684870 1_555
Hf3 Ir0 2.684870 1_555
Hf3 Ir5 2.684870 1_555
Hf3 Ir1 2.684870 1_555
Ir0 Sc9 2.831654 1_655
Ir0 Sc7 2.831655 1_655
Ir0 Sc10 2.831664 1_655
Ir1 Sc11 2.831650 1_565
Ir1 Sc8 2.831655 1_565
Ir1 Sc7 2.831655 1_565
Ir2 Sc9 2.831662 1_556
Ir2 Sc11 2.831666 1_556
Ir2 Sc6 2.831668 1_556
Ir3 Sc10 2.831654 1_555
Ir3 Sc6 2.831659 1_555
Ir3 Sc8 2.831662 1_555
Ir4 Sc3 2.831654 1_556
Ir4 Sc1 2.831655 1_565
Ir4 Sc4 2.831664 1_555
Ir5 Sc5 2.831650 1_556
Ir5 Sc2 2.831655 1_555
Ir5 Sc1 2.831655 1_655
Ir6 Sc3 2.831662 1_655
Ir6 Sc5 2.831666 1_565
Ir6 Sc0 2.831668 1_555
Ir7 Sc4 2.831654 1_655
Ir7 Sc0 2.831659 1_556
Ir7 Sc2 2.831662 1_565
O0 Sc5 2.281587 1_555
O0 Sc11 2.281587 1_555
O0 Sc8 2.281587 1_555
O0 Sc2 2.281587 1_554
O0 Sc6 2.281591 1_555
O0 Sc0 2.281591 1_545
O1 Sc9 2.281573 1_555
O1 Sc3 2.281573 1_555
O1 Sc6 2.281575 1_555
O1 Sc0 2.281575 1_455
O1 Sc10 2.281579 1_555
O1 Sc4 2.281579 1_554
O2 Sc8 2.281585 1_555
O2 Sc2 2.281585 1_455
O2 Sc1 2.281589 1_555
O2 Sc7 2.281589 1_555
O2 Sc4 2.281592 1_545
O2 Sc10 2.281592 1_555
O3 Sc11 2.281585 1_555
O3 Sc5 2.281585 1_455
O3 Sc7 2.281589 1_555
O3 Sc1 2.281589 1_554
O3 Sc3 2.281594 1_545
O3 Sc9 2.281594 1_555
