# generated using pymatgen
data_Hf4InHgN2
_symmetry_space_group_name_H-M   'P 1'
_cell_length_a   3.24991466
_cell_length_b   3.24991428
_cell_length_c   14.47998522
_cell_angle_alpha   90.00000000
_cell_angle_beta   90.00000000
_cell_angle_gamma   119.99999378
_symmetry_Int_Tables_number   1
_chemical_formula_structural   Hf4InHgN2
_chemical_formula_sum   'Hf4 In1 Hg1 N2'
_cell_volume   132.44715685
_cell_formula_units_Z   1
loop_
 _symmetry_equiv_pos_site_id
 _symmetry_equiv_pos_as_xyz
  1  'x, y, z'
loop_
 _atom_site_type_symbol
 _atom_site_label
 _atom_site_symmetry_multiplicity
 _atom_site_fract_x
 _atom_site_fract_y
 _atom_site_fract_z
 _atom_site_occupancy
  Hf  Hf0  1  0.33333300  0.66666700  0.41799830  1
  Hf  Hf1  1  0.66666700  0.33333300  0.58574758  1
  Hf  Hf2  1  0.66666700  0.33333300  0.91425242  1
  Hf  Hf3  1  0.33333300  0.66666700  0.08200170  1
  In  In0  1  0.66666700  0.33333300  0.25000000  1
  Hg  Hg0  1  0.33333300  0.66666700  0.75000000  1
  N  N0  1  0.00000000  0.00000000  0.50368165  1
  N  N1  1  0.00000000  0.00000000  0.99631835  1
loop_
_geom_bond_atom_site_label_1
_geom_bond_atom_site_label_2
_geom_bond_distance
_geom_bond_site_symmetry_2
Hf0 N0 2.249436 1_565
Hf0 N0 2.249438 1_555
Hf0 N0 2.249438 1_665
Hf0 In0 3.072173 1_565
Hf0 In0 3.072173 1_455
Hf0 In0 3.072176 1_555
Hf1 N0 2.220975 1_655
Hf1 N0 2.220977 1_665
Hf1 N0 2.220978 1_555
Hf1 Hg0 3.029405 1_545
Hf1 Hg0 3.029406 1_655
Hf1 Hg0 3.029409 1_555
Hf2 N1 2.220975 1_655
Hf2 N1 2.220977 1_665
Hf2 N1 2.220978 1_555
Hf2 Hg0 3.029405 1_545
Hf2 Hg0 3.029406 1_655
Hf2 Hg0 3.029409 1_555
Hf3 N1 2.249436 1_564
Hf3 N1 2.249438 1_554
Hf3 N1 2.249438 1_664
Hf3 In0 3.072173 1_565
Hf3 In0 3.072173 1_455
Hf3 In0 3.072176 1_555
