# generated using pymatgen
data_Ti6CrTc5As6
_symmetry_space_group_name_H-M   'P 1'
_cell_length_a   7.51203843
_cell_length_b   7.51105608
_cell_length_c   7.51105609
_cell_angle_alpha   127.54251714
_cell_angle_beta   124.50679023
_cell_angle_gamma   79.86867880
_symmetry_Int_Tables_number   1
_chemical_formula_structural   Ti6CrTc5As6
_chemical_formula_sum   'Ti6 Cr1 Tc5 As6'
_cell_volume   267.45297082
_cell_formula_units_Z   1
loop_
 _symmetry_equiv_pos_site_id
 _symmetry_equiv_pos_as_xyz
  1  'x, y, z'
loop_
 _atom_site_type_symbol
 _atom_site_label
 _atom_site_symmetry_multiplicity
 _atom_site_fract_x
 _atom_site_fract_y
 _atom_site_fract_z
 _atom_site_occupancy
  Ti  Ti0  1  0.46304072  0.24837432  0.28247451  1
  Ti  Ti1  1  0.53695928  0.81943380  0.78533361  1
  Ti  Ti2  1  0.74643643  0.65493298  0.40499932  1
  Ti  Ti3  1  0.25356357  0.65856289  0.90849555  1
  Ti  Ti4  1  0.05618082  0.85213148  0.29553341  1
  Ti  Ti5  1  0.94381918  0.23935259  0.79595066  1
  Cr  Cr0  1  0.50000000  0.99301297  0.49301297  1
  Tc  Tc0  1  0.66423226  0.50360764  0.91205493  1
  Tc  Tc1  1  0.33576774  0.24782467  0.83937838  1
  Tc  Tc2  1  0.90602429  0.24438900  0.40499686  1
  Tc  Tc3  1  0.09397571  0.49897257  0.33836470  1
  Tc  Tc4  1  1.00000000  0.99033054  0.99033054  1
  As  As0  1  0.83487436  0.57606275  0.74675628  1
  As  As1  1  0.16512564  0.91187991  0.74118838  1
  As  As2  1  0.66787711  0.91573207  0.25344169  1
  As  As3  1  0.33212289  0.58556458  0.24785496  1
  As  As4  1  0.27998255  0.27624111  0.50397567  1
  As  As5  1  0.72001745  0.22399313  0.99625957  1
loop_
_geom_bond_atom_site_label_1
_geom_bond_atom_site_label_2
_geom_bond_distance
_geom_bond_site_symmetry_2
Cr0 Ti2 2.828299 1_555
Cr0 Ti3 2.828304 1_554
Cr0 Ti5 2.856685 1_565
Cr0 Ti4 2.856685 1_555
Tc0 Ti5 2.758684 1_555
Tc0 Ti4 2.780659 1_656
Tc0 Ti2 2.812417 1_556
Tc0 Ti1 2.893100 1_555
Tc0 Ti3 3.090889 1_555
Tc1 Ti4 2.758697 1_545
Tc1 Ti5 2.780650 1_455
Tc1 Ti3 2.812413 1_555
Tc1 Ti0 2.893088 1_556
Tc1 Ti2 3.090882 1_556
Tc2 Ti4 2.749228 1_645
Tc2 Ti5 2.809257 1_555
Tc2 Ti3 2.851077 1_655
Tc2 Ti0 2.906932 1_555
Tc2 Ti2 3.105690 1_555
Tc3 Ti5 2.749228 1_454
Tc3 Ti4 2.809257 1_555
Tc3 Ti2 2.851078 1_455
Tc3 Ti1 2.906932 1_555
Tc3 Ti3 3.105682 1_555
Tc4 Ti2 2.829424 1_555
Tc4 Ti3 2.829425 1_655
Tc4 Ti4 2.856637 1_656
Tc4 Ti5 2.856637 1_565
Tc4 Ti0 3.035051 1_666
Tc4 Ti1 3.035051 1_555
As0 Tc0 2.520504 1_555
As0 Tc2 2.524637 1_555
As0 Tc4 2.533132 1_555
As0 Ti0 2.634979 1_555
As0 Ti1 2.661550 1_555
As0 Ti4 2.661966 1_656
As0 Ti2 2.676593 1_555
As0 Ti3 2.681655 1_655
As0 Ti5 2.696381 1_555
As1 Tc1 2.520518 1_565
As1 Tc3 2.524628 1_555
As1 Tc4 2.533128 1_455
As1 Ti1 2.634977 1_555
As1 Ti0 2.661552 1_566
As1 Ti5 2.661977 1_465
As1 Ti3 2.676573 1_555
As1 Ti2 2.681647 1_455
As1 Ti4 2.696389 1_555
As2 Cr0 2.491164 1_555
As2 Tc2 2.532142 1_565
As2 Tc0 2.536689 1_554
As2 Ti5 2.634581 1_565
As2 Ti3 2.647666 1_554
As2 Ti0 2.649790 1_565
As2 Ti2 2.651615 1_555
As2 Ti1 2.661902 1_554
As2 Ti4 2.736007 1_655
As3 Cr0 2.491163 1_555
As3 Tc3 2.532142 1_555
As3 Tc1 2.536671 1_554
As3 Ti4 2.634582 1_555
As3 Ti2 2.647667 1_555
As3 Ti1 2.649790 1_555
As3 Ti3 2.651622 1_554
As3 Ti0 2.661902 1_555
As3 Ti5 2.736007 1_454
As4 Cr0 2.442906 1_545
As4 Tc0 2.444173 1_555
As4 Tc1 2.448546 1_555
As4 Tc3 2.458239 1_555
As4 Tc2 2.480913 1_455
As4 Tc4 2.493600 1_444
As4 Ti0 2.601774 1_555
As4 Ti3 2.714188 1_555
As4 Ti4 2.872102 1_545
As5 Cr0 2.442911 1_545
As5 Tc1 2.444177 1_555
As5 Tc0 2.448539 1_555
As5 Tc2 2.458232 1_556
As5 Tc3 2.480913 1_656
As5 Tc4 2.493601 1_545
As5 Ti1 2.601770 1_545
As5 Ti2 2.714189 1_556
As5 Ti5 2.872109 1_555
