# generated using pymatgen
data_YHf3(SbRh5)2
_symmetry_space_group_name_H-M   'P 1'
_cell_length_a   4.12530276
_cell_length_b   5.64652950
_cell_length_c   11.05648470
_cell_angle_alpha   89.92951054
_cell_angle_beta   90.00000000
_cell_angle_gamma   90.00000000
_symmetry_Int_Tables_number   1
_chemical_formula_structural   YHf3(SbRh5)2
_chemical_formula_sum   'Y1 Hf3 Sb2 Rh10'
_cell_volume   257.54562050
_cell_formula_units_Z   1
loop_
 _symmetry_equiv_pos_site_id
 _symmetry_equiv_pos_as_xyz
  1  'x, y, z'
loop_
 _atom_site_type_symbol
 _atom_site_label
 _atom_site_symmetry_multiplicity
 _atom_site_fract_x
 _atom_site_fract_y
 _atom_site_fract_z
 _atom_site_occupancy
  Y  Y0  1  0.50000000  0.17908358  0.64215831  1
  Hf  Hf0  1  0.50000000  0.82414049  0.35503452  1
  Hf  Hf1  1  0.50000000  0.67679290  0.85580703  1
  Hf  Hf2  1  0.50000000  0.32681823  0.14249991  1
  Sb  Sb0  1  0.00000000  0.49874045  0.49816307  1
  Sb  Sb1  1  0.00000000  0.99952022  0.00122047  1
  Rh  Rh0  1  0.50000000  0.20363186  0.89672079  1
  Rh  Rh1  1  0.50000000  0.79991008  0.11173547  1
  Rh  Rh2  1  0.50000000  0.69366475  0.61165477  1
  Rh  Rh3  1  0.50000000  0.30073014  0.38156874  1
  Rh  Rh4  1  0.00000000  0.44383434  0.75281718  1
  Rh  Rh5  1  0.00000000  0.56652409  0.25340544  1
  Rh  Rh6  1  0.00000000  0.98673738  0.49191833  1
  Rh  Rh7  1  0.00000000  0.50276548  0.00213084  1
  Rh  Rh8  1  0.00000000  0.06620718  0.24291985  1
  Rh  Rh9  1  0.00000000  0.93089884  0.76024628  1
loop_
_geom_bond_atom_site_label_1
_geom_bond_atom_site_label_2
_geom_bond_distance
_geom_bond_site_symmetry_2
Hf0 Rh1 2.693677 1_555
Hf0 Rh3 2.707381 1_565
Hf0 Rh6 2.718716 1_555
Hf0 Rh6 2.718716 1_655
Hf0 Rh5 2.763537 1_655
Hf0 Rh5 2.763537 1_555
Hf0 Rh8 2.766803 1_665
Hf0 Rh8 2.766803 1_565
Hf0 Rh2 2.930530 1_555
Hf0 Rh3 2.969618 1_555
Hf0 Sb0 3.182396 1_655
Hf0 Sb0 3.182396 1_555
Hf1 Rh4 2.699104 1_555
Hf1 Rh4 2.699104 1_655
Hf1 Rh2 2.701029 1_555
Hf1 Rh0 2.709194 1_555
Hf1 Rh9 2.725038 1_555
Hf1 Rh9 2.725038 1_655
Hf1 Rh7 2.798854 1_656
Hf1 Rh7 2.798854 1_556
Hf1 Rh1 2.914644 1_556
Hf1 Rh0 3.009559 1_565
Hf1 Sb1 3.188632 1_556
Hf1 Sb1 3.188632 1_656
Hf2 Rh3 2.647181 1_555
Hf2 Rh1 2.692481 1_555
Hf2 Rh5 2.755762 1_655
Hf2 Rh5 2.755762 1_555
Hf2 Rh7 2.765218 1_555
Hf2 Rh7 2.765218 1_655
Hf2 Rh8 2.765630 1_555
Hf2 Rh8 2.765630 1_655
Hf2 Rh0 2.805892 1_554
Hf2 Rh1 2.994999 1_545
Hf2 Sb1 3.180741 1_545
Hf2 Sb1 3.180741 1_645
Sb0 Y0 3.168601 1_455
Sb0 Y0 3.168601 1_555
Rh0 Sb1 2.629545 1_546
Rh0 Sb1 2.629545 1_646
Rh0 Y0 2.818148 1_555
Rh0 Rh7 2.910435 1_556
Rh0 Rh7 2.910435 1_656
Rh0 Rh4 2.936034 1_555
Rh0 Rh4 2.936034 1_655
Rh1 Sb1 2.648502 1_655
Rh1 Sb1 2.648502 1_555
Rh1 Rh7 2.922880 1_555
Rh1 Rh7 2.922880 1_655
Rh2 Sb0 2.654039 1_555
Rh2 Sb0 2.654039 1_655
Rh2 Y0 2.762015 1_565
Rh2 Y0 2.924694 1_555
Rh2 Rh4 2.945350 1_555
Rh2 Rh4 2.945350 1_655
Rh2 Rh6 2.956394 1_655
Rh2 Rh6 2.956394 1_555
Rh3 Sb0 2.677685 1_655
Rh3 Sb0 2.677685 1_555
Rh3 Y0 2.961127 1_555
Rh3 Rh6 2.980138 1_545
Rh3 Rh6 2.980138 1_645
Rh4 Rh9 2.751551 1_555
Rh4 Rh7 2.776951 1_556
Rh4 Y0 2.826796 1_455
Rh4 Y0 2.826796 1_555
Rh4 Sb0 2.832218 1_555
Rh4 Rh9 2.897369 1_545
Rh5 Sb0 2.732625 1_555
Rh5 Rh7 2.801882 1_555
Rh6 Sb0 2.756269 1_555
Rh6 Rh8 2.788833 1_565
Rh6 Y0 2.863197 1_565
Rh6 Y0 2.863197 1_465
Rh6 Sb0 2.891950 1_565
Rh6 Rh9 2.983085 1_555
Rh7 Sb1 2.804946 1_555
Rh7 Sb1 2.841619 1_545
Rh8 Sb1 2.699203 1_545
Rh9 Sb1 2.692827 1_556
Rh9 Y0 2.813999 1_565
Rh9 Y0 2.813999 1_465
