# generated using pymatgen
data_LiYCdPt3
_symmetry_space_group_name_H-M   'P 1'
_cell_length_a   5.43528844
_cell_length_b   5.43528800
_cell_length_c   5.11669949
_cell_angle_alpha   57.91801473
_cell_angle_beta   57.91801180
_cell_angle_gamma   59.99998465
_symmetry_Int_Tables_number   1
_chemical_formula_structural   LiYCdPt3
_chemical_formula_sum   'Li1 Y1 Cd1 Pt3'
_cell_volume   103.39769943
_cell_formula_units_Z   1
loop_
 _symmetry_equiv_pos_site_id
 _symmetry_equiv_pos_as_xyz
  1  'x, y, z'
loop_
 _atom_site_type_symbol
 _atom_site_label
 _atom_site_symmetry_multiplicity
 _atom_site_fract_x
 _atom_site_fract_y
 _atom_site_fract_z
 _atom_site_occupancy
  Li  Li0  1  0.62255814  0.62255814  0.13232657  1
  Y  Y0  1  0.00329851  0.00329851  0.99010448  1
  Cd  Cd0  1  0.25274514  0.25274514  0.24176758  1
  Pt  Pt0  1  0.62332428  0.12475265  0.62860079  1
  Pt  Pt1  1  0.62332428  0.62332428  0.62860079  1
  Pt  Pt2  1  0.12475265  0.62332428  0.62860079  1
loop_
_geom_bond_atom_site_label_1
_geom_bond_atom_site_label_2
_geom_bond_distance
_geom_bond_site_symmetry_2
Li0 Pt2 2.543713 1_555
Li0 Pt0 2.543713 1_555
Li0 Pt1 2.543716 1_555
Li0 Pt1 2.572996 1_554
Li0 Pt2 2.572999 1_654
Li0 Pt0 2.572999 1_564
Li0 Y0 3.190268 1_664
Li0 Y0 3.190271 1_654
Li0 Y0 3.190272 1_564
Cd0 Pt1 2.930639 1_554
Cd0 Pt0 2.930641 1_554
Cd0 Pt2 2.930641 1_554
Cd0 Y0 3.024352 1_555
Cd0 Pt2 3.135233 1_555
Cd0 Pt0 3.135233 1_555
Cd0 Pt1 3.135235 1_455
Cd0 Pt1 3.135235 1_545
Cd0 Pt2 3.135238 1_545
Cd0 Pt0 3.135238 1_455
Cd0 Li0 3.169076 1_555
Cd0 Li0 3.169084 1_545
Cd0 Li0 3.169085 1_455
Cd0 Y0 3.298768 1_564
Cd0 Y0 3.298768 1_654
Cd0 Y0 3.298782 1_554
Pt0 Pt2 2.709880 1_555
Pt0 Pt1 2.709880 1_555
Pt0 Pt2 2.725407 1_645
Pt0 Pt1 2.725408 1_545
Pt0 Y0 3.022354 1_654
Pt0 Y0 3.085462 1_655
Pt0 Y0 3.085472 1_555
Pt1 Pt2 2.709881 1_555
Pt1 Pt2 2.725408 1_655
Pt1 Y0 3.022349 1_664
Pt1 Y0 3.085467 1_565
Pt1 Y0 3.085467 1_655
Pt2 Y0 3.022354 1_564
Pt2 Y0 3.085462 1_565
Pt2 Y0 3.085472 1_555
