# generated using pymatgen
data_Cs4As2PbS8
_symmetry_space_group_name_H-M   'P 1'
_cell_length_a   9.61904429
_cell_length_b   9.70971892
_cell_length_c   11.82110504
_cell_angle_alpha   106.38198064
_cell_angle_beta   102.06654458
_cell_angle_gamma   93.99901351
_symmetry_Int_Tables_number   1
_chemical_formula_structural   Cs4As2PbS8
_chemical_formula_sum   'Cs8 As4 Pb2 S16'
_cell_volume   1026.05217240
_cell_formula_units_Z   2
loop_
 _symmetry_equiv_pos_site_id
 _symmetry_equiv_pos_as_xyz
  1  'x, y, z'
loop_
 _atom_site_type_symbol
 _atom_site_label
 _atom_site_symmetry_multiplicity
 _atom_site_fract_x
 _atom_site_fract_y
 _atom_site_fract_z
 _atom_site_occupancy
  Cs  Cs0  1  0.92985122  0.51831830  0.25616200  1
  Cs  Cs1  1  0.07014878  0.48168170  0.74383800  1
  Cs  Cs2  1  0.76268521  0.99111485  0.46672526  1
  Cs  Cs3  1  0.23731479  0.00888515  0.53327474  1
  Cs  Cs4  1  0.59549589  0.74356316  0.02127286  1
  Cs  Cs5  1  0.40450411  0.25643684  0.97872714  1
  Cs  Cs6  1  0.60948605  0.68902917  0.61658700  1
  Cs  Cs7  1  0.39051395  0.31097083  0.38341300  1
  As  As0  1  0.95156403  0.11295516  0.23888584  1
  As  As1  1  0.04843597  0.88704484  0.76111416  1
  As  As2  1  0.36955719  0.67491835  0.25841113  1
  As  As3  1  0.63044281  0.32508165  0.74158887  1
  Pb  Pb0  1  0.84682841  0.14268812  0.92659366  1
  Pb  Pb1  1  0.15317159  0.85731188  0.07340634  1
  S  S0  1  0.95892623  0.88634360  0.23305394  1
  S  S1  1  0.04107377  0.11365640  0.76694606  1
  S  S2  1  0.58724096  0.09556366  0.73313750  1
  S  S3  1  0.41275904  0.90443634  0.26686250  1
  S  S4  1  0.28195419  0.65602737  0.40643381  1
  S  S5  1  0.71804581  0.34397263  0.59356619  1
  S  S6  1  0.78634418  0.43122404  0.91462780  1
  S  S7  1  0.21365582  0.56877596  0.08537220  1
  S  S8  1  0.01871124  0.25249750  0.42118810  1
  S  S9  1  0.98128876  0.74750250  0.57881190  1
  S  S10  1  0.09983715  0.17070278  0.13531117  1
  S  S11  1  0.90016285  0.82929722  0.86468883  1
  S  S12  1  0.73635625  0.13807180  0.15233882  1
  S  S13  1  0.26364375  0.86192820  0.84766118  1
  S  S14  1  0.56580459  0.57956866  0.26292411  1
  S  S15  1  0.43419541  0.42043134  0.73707589  1
loop_
_geom_bond_atom_site_label_1
_geom_bond_atom_site_label_2
_geom_bond_distance
_geom_bond_site_symmetry_2
Cs0 S4 3.453629 1_655
Cs0 S14 3.606001 1_555
Cs0 S0 3.655864 1_555
Cs0 S8 3.694418 1_655
Cs0 S9 3.743503 1_555
Cs0 S12 3.759312 1_555
Cs0 S7 3.800571 1_655
Cs0 S6 3.808116 1_554
Cs0 S10 3.890144 1_655
Cs1 S5 3.453629 1_455
Cs1 S15 3.606001 1_555
Cs1 S1 3.655864 1_555
Cs1 S9 3.694418 1_455
Cs1 S8 3.743503 1_555
Cs1 S13 3.759312 1_555
Cs1 S6 3.800571 1_455
Cs1 S7 3.808116 1_556
Cs1 S11 3.890144 1_455
Cs2 S5 3.427489 1_565
Cs2 S3 3.574667 1_555
Cs2 S9 3.615123 1_555
Cs2 S0 3.618141 1_555
Cs2 S8 3.639931 1_665
Cs2 S1 3.792335 1_665
Cs2 S2 3.801807 1_565
Cs3 S4 3.427489 1_545
Cs3 S2 3.574667 1_555
Cs3 S8 3.615123 1_555
Cs3 S1 3.618141 1_555
Cs3 S9 3.639931 1_445
Cs3 S0 3.792335 1_445
Cs3 S3 3.801807 1_545
Cs4 S14 3.690619 1_555
Cs4 S6 3.707329 1_554
Cs4 S3 3.730468 1_555
Cs4 S12 3.736339 1_565
Cs4 S0 3.757336 1_555
Cs4 S15 3.838453 1_554
Cs4 S13 3.850381 1_554
Cs4 S11 3.937574 1_554
Cs5 S15 3.690619 1_555
Cs5 S7 3.707329 1_556
Cs5 S2 3.730468 1_555
Cs5 S13 3.736339 1_545
Cs5 S1 3.757336 1_555
Cs5 S14 3.838453 1_556
Cs5 S12 3.850381 1_556
Cs5 S10 3.937574 1_556
Cs6 S11 3.472961 1_555
Cs6 S4 3.512536 1_555
Cs6 S5 3.533013 1_555
Cs6 S9 3.720187 1_555
Cs6 S15 3.762909 1_555
Cs6 S2 3.833901 1_565
Cs6 S14 3.934611 1_555
Cs7 S10 3.472961 1_555
Cs7 S5 3.512536 1_555
Cs7 S4 3.533013 1_555
Cs7 S8 3.720187 1_555
Cs7 S14 3.762909 1_555
Cs7 S3 3.833901 1_545
Cs7 S15 3.934611 1_555
As0 S8 2.132139 1_655
As0 S12 2.171898 1_555
As0 S0 2.188481 1_545
As0 S10 2.203056 1_655
As1 S9 2.132139 1_455
As1 S13 2.171898 1_555
As1 S1 2.188481 1_565
As1 S11 2.203056 1_455
As2 S4 2.140431 1_555
As2 S14 2.157073 1_555
As2 S7 2.192697 1_555
As2 S3 2.208396 1_555
As3 S5 2.140431 1_555
As3 S15 2.157073 1_555
As3 S6 2.192697 1_555
As3 S2 2.208396 1_555
Pb0 S1 2.894789 1_655
Pb0 S2 2.921815 1_555
Pb0 S6 2.936657 1_555
Pb0 S10 3.017105 1_656
Pb0 S11 3.029323 1_545
Pb0 S12 3.082017 1_556
Pb1 S0 2.894789 1_455
Pb1 S3 2.921815 1_555
Pb1 S7 2.936657 1_555
Pb1 S11 3.017105 1_454
Pb1 S10 3.029323 1_565
Pb1 S13 3.082017 1_554
