# generated using pymatgen
data_NaCa21(Ga4Hg3)2
_symmetry_space_group_name_H-M   'P 1'
_cell_length_a   11.41742760
_cell_length_b   11.41742801
_cell_length_c   11.41742832
_cell_angle_alpha   60.00000195
_cell_angle_beta   60.00000075
_cell_angle_gamma   60.00000498
_symmetry_Int_Tables_number   1
_chemical_formula_structural   NaCa21(Ga4Hg3)2
_chemical_formula_sum   'Na1 Ca21 Ga8 Hg6'
_cell_volume   1052.42188182
_cell_formula_units_Z   1
loop_
 _symmetry_equiv_pos_site_id
 _symmetry_equiv_pos_as_xyz
  1  'x, y, z'
loop_
 _atom_site_type_symbol
 _atom_site_label
 _atom_site_symmetry_multiplicity
 _atom_site_fract_x
 _atom_site_fract_y
 _atom_site_fract_z
 _atom_site_occupancy
  Na  Na0  1  0.50000000  0.50000000  0.50000000  1
  Ca  Ca0  1  0.00000000  0.00000000  0.00000000  1
  Ca  Ca1  1  0.13109818  0.13109818  0.13109818  1
  Ca  Ca2  1  0.39329353  0.86890182  0.86890182  1
  Ca  Ca3  1  0.86890182  0.39329353  0.86890182  1
  Ca  Ca4  1  0.86890182  0.86890182  0.39329353  1
  Ca  Ca5  1  0.13109818  0.60670647  0.13109818  1
  Ca  Ca6  1  0.13109818  0.13109818  0.60670647  1
  Ca  Ca7  1  0.60670647  0.13109818  0.13109818  1
  Ca  Ca8  1  0.86890182  0.86890182  0.86890182  1
  Ca  Ca9  1  0.50000000  0.83320886  0.50000000  1
  Ca  Ca10  1  0.83320886  0.50000000  0.50000000  1
  Ca  Ca11  1  0.50000000  0.83320886  0.16679114  1
  Ca  Ca12  1  0.16679114  0.50000000  0.83320886  1
  Ca  Ca13  1  0.83320886  0.50000000  0.16679114  1
  Ca  Ca14  1  0.50000000  0.50000000  0.83320886  1
  Ca  Ca15  1  0.16679114  0.83320886  0.50000000  1
  Ca  Ca16  1  0.50000000  0.16679114  0.83320886  1
  Ca  Ca17  1  0.50000000  0.50000000  0.16679114  1
  Ca  Ca18  1  0.83320886  0.16679114  0.50000000  1
  Ca  Ca19  1  0.16679114  0.50000000  0.50000000  1
  Ca  Ca20  1  0.50000000  0.16679114  0.50000000  1
  Ga  Ga0  1  0.30860386  0.30860286  0.30860286  1
  Ga  Ga1  1  0.92580957  0.69139714  0.69139714  1
  Ga  Ga2  1  0.69139714  0.92580957  0.69139714  1
  Ga  Ga3  1  0.69139714  0.69139714  0.92580957  1
  Ga  Ga4  1  0.30860286  0.07419043  0.30860286  1
  Ga  Ga5  1  0.30860286  0.30860286  0.07419043  1
  Ga  Ga6  1  0.07419043  0.30860286  0.30860286  1
  Ga  Ga7  1  0.69139714  0.69139714  0.69139614  1
  Hg  Hg0  1  0.21436856  0.78563144  0.21436856  1
  Hg  Hg1  1  0.21436856  0.78563144  0.78563144  1
  Hg  Hg2  1  0.78563144  0.21436856  0.21436856  1
  Hg  Hg3  1  0.78563144  0.78563144  0.21436856  1
  Hg  Hg4  1  0.21436856  0.21436856  0.78563144  1
  Hg  Hg5  1  0.78563144  0.21436856  0.78563144  1
loop_
_geom_bond_atom_site_label_1
_geom_bond_atom_site_label_2
_geom_bond_distance
_geom_bond_site_symmetry_2
Ca0 Hg4 3.461341 1_554
Ca0 Hg3 3.461341 1_445
Ca0 Hg0 3.461341 1_545
Ca0 Hg2 3.461341 1_455
Ca0 Hg5 3.461341 1_454
Ca0 Hg1 3.461341 1_544
Ca1 Ga5 3.179696 1_555
Ca1 Ga4 3.179696 1_555
Ca1 Ga6 3.179696 1_555
Ca1 Hg2 3.281688 1_455
Ca1 Hg0 3.281688 1_545
Ca1 Hg4 3.281688 1_554
Ca2 Ga7 3.179711 1_555
Ca2 Ga2 3.179716 1_555
Ca2 Ga3 3.179716 1_555
Ca2 Hg1 3.281678 1_555
Ca2 Hg0 3.281686 1_556
Ca2 Hg4 3.281687 1_565
Ca3 Ga7 3.179711 1_555
Ca3 Ga1 3.179716 1_555
Ca3 Ga3 3.179716 1_555
Ca3 Hg5 3.281678 1_555
Ca3 Hg4 3.281686 1_655
Ca3 Hg2 3.281686 1_556
Ca4 Ga7 3.179701 1_555
Ca4 Ga2 3.179716 1_555
Ca4 Ga1 3.179716 1_555
Ca4 Hg3 3.281678 1_555
Ca4 Hg0 3.281686 1_655
Ca4 Hg2 3.281687 1_565
Ca5 Ga0 3.179711 1_555
Ca5 Ga6 3.179716 1_555
Ca5 Ga5 3.179716 1_555
Ca5 Hg0 3.281678 1_555
Ca5 Hg3 3.281686 1_455
Ca5 Hg1 3.281686 1_554
Ca6 Ga0 3.179711 1_555
Ca6 Ga4 3.179716 1_555
Ca6 Ga6 3.179716 1_555
Ca6 Hg4 3.281678 1_555
Ca6 Hg5 3.281686 1_455
Ca6 Hg1 3.281687 1_545
Ca7 Ga0 3.179701 1_555
Ca7 Ga4 3.179716 1_555
Ca7 Ga5 3.179716 1_555
Ca7 Hg2 3.281678 1_555
Ca7 Hg5 3.281686 1_554
Ca7 Hg3 3.281687 1_545
Ca8 Ga3 3.179696 1_555
Ca8 Ga2 3.179696 1_555
Ca8 Ga1 3.179696 1_555
Ca8 Hg1 3.281688 1_655
Ca8 Hg5 3.281688 1_565
Ca8 Hg3 3.281688 1_556
Ca9 Ga7 3.141848 1_555
Ca9 Ga4 3.141855 1_565
Ca9 Hg1 3.306108 1_555
Ca9 Hg3 3.306108 1_555
Ca9 Na0 3.804388 1_555
Ca10 Ga7 3.141848 1_555
Ca10 Ga6 3.141855 1_655
Ca10 Hg5 3.306108 1_555
Ca10 Hg3 3.306108 1_555
Ca10 Na0 3.804388 1_555
Ca11 Ga3 3.141848 1_554
Ca11 Ga4 3.141848 1_565
Ca11 Hg0 3.306108 1_555
Ca11 Hg3 3.306108 1_555
Ca11 Na0 3.804388 1_555
Ca12 Ga1 3.141848 1_455
Ca12 Ga5 3.141848 1_556
Ca12 Hg1 3.306108 1_555
Ca12 Hg4 3.306108 1_555
Ca12 Na0 3.804388 1_555
Ca13 Ga6 3.141848 1_655
Ca13 Ga3 3.141848 1_554
Ca13 Hg2 3.306108 1_555
Ca13 Hg3 3.306108 1_555
Ca13 Na0 3.804388 1_555
Ca14 Ga7 3.141854 1_555
Ca14 Ga5 3.141854 1_556
Ca14 Hg5 3.306108 1_555
Ca14 Hg1 3.306108 1_555
Ca14 Na0 3.804388 1_555
Ca15 Ga1 3.141847 1_455
Ca15 Ga4 3.141847 1_565
Ca15 Hg0 3.306108 1_555
Ca15 Hg1 3.306108 1_555
Ca15 Na0 3.804388 1_555
Ca16 Ga5 3.141848 1_556
Ca16 Ga2 3.141848 1_545
Ca16 Hg5 3.306108 1_555
Ca16 Hg4 3.306108 1_555
Ca16 Na0 3.804388 1_555
Ca17 Ga0 3.141847 1_555
Ca17 Ga3 3.141854 1_554
Ca17 Hg0 3.306108 1_555
Ca17 Hg2 3.306108 1_555
Ca17 Na0 3.804388 1_555
Ca18 Ga6 3.141847 1_655
Ca18 Ga2 3.141847 1_545
Ca18 Hg5 3.306108 1_555
Ca18 Hg2 3.306108 1_555
Ca18 Na0 3.804388 1_555
Ca19 Ga0 3.141855 1_555
Ca19 Ga1 3.141855 1_455
Ca19 Hg0 3.306108 1_555
Ca19 Hg4 3.306108 1_555
Ca19 Na0 3.804388 1_555
Ca20 Ga0 3.141848 1_555
Ca20 Ga2 3.141855 1_545
Ca20 Hg2 3.306108 1_555
Ca20 Hg4 3.306108 1_555
Ca20 Na0 3.804388 1_555
Ga0 Ga4 2.676393 1_555
Ga0 Ga5 2.676393 1_555
Ga0 Ga6 2.676398 1_555
Ga1 Ga3 2.676387 1_555
Ga1 Ga2 2.676387 1_555
Ga1 Ga7 2.676393 1_555
Ga2 Ga3 2.676387 1_555
Ga2 Ga7 2.676393 1_555
Ga3 Ga7 2.676398 1_555
Ga4 Ga5 2.676387 1_555
Ga4 Ga6 2.676387 1_555
Ga5 Ga6 2.676387 1_555
