# generated using pymatgen
data_Zr6Zn21Cu2C
_symmetry_space_group_name_H-M   'P 1'
_cell_length_a   8.55642135
_cell_length_b   8.55642075
_cell_length_c   8.58057735
_cell_angle_alpha   59.90655738
_cell_angle_beta   59.90655970
_cell_angle_gamma   60.02356754
_symmetry_Int_Tables_number   1
_chemical_formula_structural   Zr6Zn21Cu2C
_chemical_formula_sum   'Zr6 Zn21 Cu2 C1'
_cell_volume   443.65772891
_cell_formula_units_Z   1
loop_
 _symmetry_equiv_pos_site_id
 _symmetry_equiv_pos_as_xyz
  1  'x, y, z'
loop_
 _atom_site_type_symbol
 _atom_site_label
 _atom_site_symmetry_multiplicity
 _atom_site_fract_x
 _atom_site_fract_y
 _atom_site_fract_z
 _atom_site_occupancy
  Zr  Zr0  1  0.69145495  0.30854505  0.30894748  1
  Zr  Zr1  1  0.30854505  0.69145495  0.69105252  1
  Zr  Zr2  1  0.30854505  0.69145495  0.30894748  1
  Zr  Zr3  1  0.69145495  0.30854505  0.69105252  1
  Zr  Zr4  1  0.30830599  0.30830599  0.69169401  1
  Zr  Zr5  1  0.69169401  0.69169401  0.30830599  1
  Zn  Zn0  1  0.11903076  0.11903076  0.11796884  1
  Zn  Zn1  1  0.88096924  0.88096924  0.88203116  1
  Zn  Zn2  1  0.11903076  0.11903076  0.64397063  1
  Zn  Zn3  1  0.12584671  0.64252418  0.11581606  1
  Zn  Zn4  1  0.88096924  0.88096924  0.35602937  1
  Zn  Zn5  1  0.87415329  0.35747582  0.88418394  1
  Zn  Zn6  1  0.64252418  0.12584671  0.11581606  1
  Zn  Zn7  1  0.35747582  0.87415329  0.88418394  1
  Zn  Zn8  1  0.50000000  0.00000000  0.00000000  1
  Zn  Zn9  1  0.00000000  0.50000000  0.50000000  1
  Zn  Zn10  1  0.00000000  0.50000000  0.00000000  1
  Zn  Zn11  1  0.50000000  0.00000000  0.50000000  1
  Zn  Zn12  1  0.00000000  0.00000000  0.50000000  1
  Zn  Zn13  1  0.33226748  0.33226748  0.32619473  1
  Zn  Zn14  1  0.66773252  0.66773252  0.67380527  1
  Zn  Zn15  1  0.33226748  0.33226748  0.00927131  1
  Zn  Zn16  1  0.33058813  0.01064908  0.32938190  1
  Zn  Zn17  1  0.66773252  0.66773252  0.99072869  1
  Zn  Zn18  1  0.66941187  0.98935092  0.67061810  1
  Zn  Zn19  1  0.01064908  0.33058813  0.32938190  1
  Zn  Zn20  1  0.98935092  0.66941187  0.67061810  1
  Cu  Cu0  1  0.50000000  0.50000000  0.00000000  1
  Cu  Cu1  1  0.00000000  0.00000000  0.00000000  1
  C  C0  1  0.50000000  0.50000000  0.50000000  1
loop_
_geom_bond_atom_site_label_1
_geom_bond_atom_site_label_2
_geom_bond_distance
_geom_bond_site_symmetry_2
Zn0 Zn10 2.663661 1_555
Zn0 Zn8 2.663662 1_555
Zn0 Zn12 2.675941 1_555
Zn0 Zn19 2.712193 1_555
Zn0 Zn16 2.712193 1_555
Zn0 Zn15 2.727882 1_555
Zn0 Zn7 2.900987 1_544
Zn0 Zn5 2.900987 1_454
Zn1 Zn10 2.663661 1_656
Zn1 Zn8 2.663662 1_566
Zn1 Zn12 2.675941 1_665
Zn1 Zn20 2.712193 1_555
Zn1 Zn18 2.712193 1_555
Zn1 Zn17 2.727882 1_555
Zn1 Zn6 2.900987 1_566
Zn1 Zn3 2.900987 1_656
Zn2 Zn9 2.663662 1_555
Zn2 Zn7 2.900963 1_545
Zn2 Zn5 2.900963 1_455
Zn3 Zn9 2.689753 1_555
Zn3 Zn7 2.798388 1_554
Zn3 Zn4 2.900963 1_455
Zn3 Zr2 3.051712 1_555
Zn3 Zr1 3.051734 1_554
Zn3 Zr5 3.112371 1_455
Zn4 Zn9 2.663662 1_655
Zn4 Zn6 2.900963 1_565
Zn5 Zn9 2.689753 1_655
Zn5 Zn6 2.798388 1_556
Zn5 Zr3 3.051712 1_555
Zn5 Zr0 3.051734 1_556
Zn5 Zr4 3.112371 1_655
Zn6 Zn8 2.689774 1_555
Zn6 Zr0 3.051712 1_555
Zn6 Zr3 3.051734 1_554
Zn6 Zr5 3.112371 1_545
Zn7 Zn8 2.689774 1_566
Zn7 Zr1 3.051712 1_555
Zn7 Zr2 3.051734 1_556
Zn7 Zr4 3.112371 1_565
Zn8 Zr3 3.103121 1_554
Zn8 Zr2 3.103121 1_545
Zn8 Zr5 3.110767 1_545
Zn8 Zr4 3.110767 1_554
Zn9 Zr2 3.103121 1_555
Zn9 Zr3 3.103121 1_455
Zn9 Zr4 3.110768 1_555
Zn9 Zr5 3.110768 1_455
Zn10 Zn19 2.472903 1_555
Zn10 Zn20 2.472903 1_454
Zn10 Zn15 2.486727 1_555
Zn10 Zn17 2.486727 1_454
Zn10 Zn3 2.689774 1_555
Zn10 Zn5 2.689774 1_454
Zn10 Zr1 3.103121 1_554
Zn10 Zr0 3.103121 1_455
Zn10 Zr5 3.110768 1_455
Zn10 Zr4 3.110768 1_554
Zn11 Zn18 2.472896 1_545
Zn11 Zn16 2.472896 1_555
Zn11 Zn14 2.486724 1_545
Zn11 Zn13 2.486724 1_555
Zn11 Zn4 2.663662 1_545
Zn11 Zn2 2.663662 1_555
Zn11 Zn7 2.689753 1_545
Zn11 Zn6 2.689753 1_555
Zn11 Zr0 3.103121 1_555
Zn11 Zr1 3.103121 1_545
Zn11 Zr4 3.110768 1_555
Zn11 Zr5 3.110768 1_545
Zn12 Zn19 2.474634 1_555
Zn12 Zn20 2.474634 1_445
Zn12 Zn16 2.474634 1_555
Zn12 Zn18 2.474634 1_445
Zn12 Zn2 2.675949 1_555
Zn12 Zn4 2.675949 1_445
Zn12 Zr3 3.108412 1_455
Zn12 Zr2 3.108412 1_545
Zn12 Zr1 3.108412 1_545
Zn12 Zr0 3.108412 1_455
Zn13 Zn9 2.486724 1_555
Zn13 Zn3 2.670536 1_555
Zn13 Zn6 2.670536 1_555
Zn13 Zn15 2.719386 1_555
Zn13 Zn2 2.727882 1_555
Zn13 Zn16 2.745464 1_555
Zn13 Zn19 2.745464 1_555
Zn13 Zr2 2.908481 1_555
Zn13 Zr0 2.908482 1_555
Zn13 Zr4 2.944855 1_555
Zn14 Zn9 2.486724 1_655
Zn14 Zn5 2.670536 1_555
Zn14 Zn7 2.670536 1_555
Zn14 Zn17 2.719386 1_555
Zn14 Zn4 2.727882 1_555
Zn14 Zn18 2.745464 1_555
Zn14 Zn20 2.745464 1_555
Zn14 Zr3 2.908481 1_555
Zn14 Zr1 2.908482 1_555
Zn14 Zr5 2.944855 1_555
Zn15 Zn8 2.486727 1_555
Zn15 Zn3 2.670545 1_555
Zn15 Zn6 2.670545 1_555
Zn15 Zn16 2.745463 1_555
Zn15 Zn19 2.745464 1_555
Zn15 Zr1 2.908485 1_554
Zn15 Zr3 2.908485 1_554
Zn15 Zr4 2.944863 1_554
Zn16 Zn8 2.472903 1_555
Zn16 Zn2 2.712193 1_555
Zn16 Zn6 2.714080 1_555
Zn16 Zn19 2.738508 1_555
Zn16 Zr5 2.921597 1_545
Zn16 Zr1 2.924666 1_545
Zn16 Zr2 2.924671 1_545
Zn17 Zn8 2.486727 1_566
Zn17 Zn5 2.670545 1_555
Zn17 Zn7 2.670545 1_555
Zn17 Zn18 2.745463 1_555
Zn17 Zn20 2.745464 1_555
Zn17 Zr0 2.908485 1_556
Zn17 Zr2 2.908485 1_556
Zn17 Zr5 2.944863 1_556
Zn18 Zn8 2.472903 1_566
Zn18 Zn4 2.712193 1_555
Zn18 Zn7 2.714080 1_555
Zn18 Zn20 2.738508 1_555
Zn18 Zr4 2.921597 1_565
Zn18 Zr0 2.924666 1_565
Zn18 Zr3 2.924671 1_565
Zn19 Zn9 2.472896 1_555
Zn19 Zn2 2.712193 1_555
Zn19 Zn3 2.714080 1_555
Zn19 Zr5 2.921596 1_455
Zn19 Zr3 2.924666 1_455
Zn19 Zr0 2.924671 1_455
Zn20 Zn9 2.472896 1_655
Zn20 Zn4 2.712193 1_555
Zn20 Zn5 2.714080 1_555
Zn20 Zr4 2.921596 1_655
Zn20 Zr2 2.924666 1_655
Zn20 Zr1 2.924671 1_655
Cu0 Zn17 2.440324 1_554
Cu0 Zn15 2.440324 1_555
Cu0 Zn14 2.440328 1_554
Cu0 Zn13 2.440328 1_555
Cu0 Zn6 2.616741 1_555
Cu0 Zn7 2.616741 1_554
Cu0 Zn5 2.616742 1_554
Cu0 Zn3 2.616742 1_555
Cu0 Zr0 3.116574 1_555
Cu0 Zr1 3.116574 1_554
Cu0 Zr2 3.116574 1_555
Cu0 Zr3 3.116574 1_554
Cu1 Zn4 2.490673 1_445
Cu1 Zn2 2.490673 1_554
Cu1 Zn0 2.490681 1_555
Cu1 Zn1 2.490681 1_444
Cu1 Zn5 2.497279 1_454
Cu1 Zn3 2.497279 1_545
Cu1 Zn7 2.497279 1_544
Cu1 Zn6 2.497279 1_455
C0 Zr5 2.315918 1_555
C0 Zr4 2.315918 1_555
C0 Zr3 2.317962 1_555
C0 Zr2 2.317962 1_555
C0 Zr1 2.317962 1_555
C0 Zr0 2.317962 1_555
