# generated using pymatgen
data_TlCr5Se8
_symmetry_space_group_name_H-M   'P 1'
_cell_length_a   3.66920035
_cell_length_b   9.06356560
_cell_length_c   9.64183190
_cell_angle_alpha   104.76879857
_cell_angle_beta   100.96884348
_cell_angle_gamma   90.00000017
_symmetry_Int_Tables_number   1
_chemical_formula_structural   TlCr5Se8
_chemical_formula_sum   'Tl1 Cr5 Se8'
_cell_volume   303.99356207
_cell_formula_units_Z   1
loop_
 _symmetry_equiv_pos_site_id
 _symmetry_equiv_pos_as_xyz
  1  'x, y, z'
loop_
 _atom_site_type_symbol
 _atom_site_label
 _atom_site_symmetry_multiplicity
 _atom_site_fract_x
 _atom_site_fract_y
 _atom_site_fract_z
 _atom_site_occupancy
  Tl  Tl0  1  0.00001676  0.99998156  0.00003352  1
  Cr  Cr0  1  0.49999909  0.49998365  -0.00000182  1
  Cr  Cr1  1  0.15785143  0.47464216  0.31570487  1
  Cr  Cr2  1  0.20410705  0.83445058  0.40821510  1
  Cr  Cr3  1  0.79588183  0.16554807  0.59176466  1
  Cr  Cr4  1  0.84215619  0.52537527  0.68431139  1
  Se  Se0  1  0.92450691  0.34712889  0.84901381  1
  Se  Se1  1  0.32983995  0.00952352  0.65967989  1
  Se  Se2  1  0.67015384  0.99049396  0.34030767  1
  Se  Se3  1  0.41584684  0.67751231  0.83169367  1
  Se  Se4  1  0.58416181  0.32249606  0.16832361  1
  Se  Se5  1  0.73778485  0.65590420  0.47556971  1
  Se  Se6  1  0.26221009  0.34410386  0.52441818  1
  Se  Se7  1  0.07548337  0.65285593  0.15096674  1
loop_
_geom_bond_atom_site_label_1
_geom_bond_atom_site_label_2
_geom_bond_distance
_geom_bond_site_symmetry_2
Cr0 Se0 2.509858 1_454
Cr0 Se0 2.509858 1_554
Cr0 Se7 2.509858 1_655
Cr0 Se7 2.509858 1_555
Cr0 Se4 2.541175 1_555
Cr0 Se3 2.541314 1_554
Cr1 Se4 2.492887 1_455
Cr1 Se4 2.492893 1_555
Cr1 Se7 2.519662 1_555
Cr1 Se6 2.552796 1_555
Cr1 Se5 2.657742 1_455
Cr1 Se5 2.657747 1_555
Cr2 Se1 2.494424 1_565
Cr2 Se2 2.500265 1_455
Cr2 Se2 2.500267 1_555
Cr2 Se7 2.560662 1_555
Cr2 Se5 2.631887 1_455
Cr2 Se5 2.631889 1_555
Cr3 Se2 2.494300 1_545
Cr3 Se1 2.500187 1_555
Cr3 Se1 2.500189 1_655
Cr3 Se0 2.560618 1_555
Cr3 Se6 2.631911 1_555
Cr3 Se6 2.631919 1_655
Cr4 Se3 2.492859 1_655
Cr4 Se3 2.492862 1_555
Cr4 Se0 2.519634 1_555
Cr4 Se5 2.552980 1_555
Cr4 Se6 2.657893 1_555
Cr4 Se6 2.657895 1_655
