# generated using pymatgen
data_UNb3O10
_symmetry_space_group_name_H-M   'P 1'
_cell_length_a   10.39014005
_cell_length_b   8.92000734
_cell_length_c   7.53025286
_cell_angle_alpha   77.83189836
_cell_angle_beta   57.05776101
_cell_angle_gamma   45.11034062
_symmetry_Int_Tables_number   1
_chemical_formula_structural   UNb3O10
_chemical_formula_sum   'U2 Nb6 O20'
_cell_volume   396.99215158
_cell_formula_units_Z   2
loop_
 _symmetry_equiv_pos_site_id
 _symmetry_equiv_pos_as_xyz
  1  'x, y, z'
loop_
 _atom_site_type_symbol
 _atom_site_label
 _atom_site_symmetry_multiplicity
 _atom_site_fract_x
 _atom_site_fract_y
 _atom_site_fract_z
 _atom_site_occupancy
  U  U0  1  0.00000000  0.00000000  0.00000000  1
  U  U1  1  0.25000000  0.25000000  0.25000000  1
  Nb  Nb0  1  0.73873500  0.73873500  0.26126500  1
  Nb  Nb1  1  0.26126500  0.26126500  0.73873500  1
  Nb  Nb2  1  0.51126500  0.51126500  0.98873500  1
  Nb  Nb3  1  0.98873500  0.98873500  0.51126500  1
  Nb  Nb4  1  0.50000000  0.50000000  0.50000000  1
  Nb  Nb5  1  0.75000000  0.75000000  0.75000000  1
  O  O0  1  0.79692900  0.20307100  0.79692900  1
  O  O1  1  0.20307100  0.79692900  0.20307100  1
  O  O2  1  0.45307100  0.04692900  0.45307100  1
  O  O3  1  0.04692900  0.45307100  0.04692900  1
  O  O4  1  0.88421100  0.88421100  0.11578900  1
  O  O5  1  0.11578900  0.11578900  0.88421100  1
  O  O6  1  0.36578900  0.36578900  0.13421100  1
  O  O7  1  0.13421100  0.13421100  0.36578900  1
  O  O8  1  0.84999300  0.65446800  0.44792700  1
  O  O9  1  0.04761300  0.44792700  0.65446800  1
  O  O10  1  0.44792700  0.04761300  0.84999300  1
  O  O11  1  0.65446800  0.84999300  0.04761300  1
  O  O12  1  0.40000700  0.59553200  0.80207300  1
  O  O13  1  0.20238700  0.80207300  0.59553200  1
  O  O14  1  0.80207300  0.20238700  0.40000700  1
  O  O15  1  0.59553200  0.40000700  0.20238700  1
  O  O16  1  0.87393500  0.87393500  0.62606500  1
  O  O17  1  0.62606500  0.62606500  0.87393500  1
  O  O18  1  0.37606500  0.37606500  0.62393500  1
  O  O19  1  0.62393500  0.62393500  0.37606500  1
loop_
_geom_bond_atom_site_label_1
_geom_bond_atom_site_label_2
_geom_bond_distance
_geom_bond_site_symmetry_2
Nb0 O19 1.856901 1_555
Nb0 O3 1.986841 1_655
Nb0 O2 1.986841 1_565
Nb0 O11 1.993075 1_555
Nb0 O8 1.993082 1_555
Nb0 O4 2.353088 1_555
Nb1 O18 1.856901 1_555
Nb1 O2 1.986841 1_555
Nb1 O3 1.986841 1_556
Nb1 O9 1.993074 1_555
Nb1 O10 1.993080 1_555
Nb1 O5 2.353088 1_555
Nb2 O17 1.856901 1_555
Nb2 O0 1.986841 1_555
Nb2 O1 1.986841 1_556
Nb2 O15 1.993075 1_556
Nb2 O12 1.993082 1_555
Nb2 O6 2.353088 1_556
Nb3 O16 1.856901 1_555
Nb3 O1 1.986841 1_655
Nb3 O0 1.986841 1_565
Nb3 O13 1.993074 1_655
Nb3 O14 1.993080 1_565
Nb3 O7 2.353088 1_665
Nb4 O12 1.994242 1_555
Nb4 O14 1.994245 1_555
Nb4 O13 1.994246 1_555
Nb4 O15 1.994249 1_555
Nb4 O18 2.004660 1_555
Nb4 O19 2.004660 1_555
Nb5 O8 1.994242 1_555
Nb5 O10 1.994245 1_565
Nb5 O9 1.994246 1_655
Nb5 O11 1.994249 1_556
Nb5 O16 2.004660 1_555
Nb5 O17 2.004660 1_555
O0 U0 2.649173 1_656
O1 U0 2.649173 1_565
O2 U1 2.649173 1_555
O3 U1 2.649173 1_555
O4 U0 1.872898 1_665
O5 U0 1.872898 1_556
O6 U1 1.872898 1_555
O7 U1 1.872898 1_555
O8 U1 2.622297 1_655
O9 U1 2.622300 1_555
O10 U1 2.622294 1_556
O11 U1 2.622297 1_565
O12 U0 2.622297 1_566
O13 U0 2.622300 1_566
O14 U0 2.622294 1_655
O15 U0 2.622297 1_655
