# generated using pymatgen
data_Cs8SrSnI12
_symmetry_space_group_name_H-M   'P 1'
_cell_length_a   10.53605654
_cell_length_b   10.53605613
_cell_length_c   10.53605747
_cell_angle_alpha   89.04986055
_cell_angle_beta   89.04985973
_cell_angle_gamma   89.04985364
_symmetry_Int_Tables_number   1
_chemical_formula_structural   Cs8SrSnI12
_chemical_formula_sum   'Cs8 Sr1 Sn1 I12'
_cell_volume   1169.11458256
_cell_formula_units_Z   1
loop_
 _symmetry_equiv_pos_site_id
 _symmetry_equiv_pos_as_xyz
  1  'x, y, z'
loop_
 _atom_site_type_symbol
 _atom_site_label
 _atom_site_symmetry_multiplicity
 _atom_site_fract_x
 _atom_site_fract_y
 _atom_site_fract_z
 _atom_site_occupancy
  Cs  Cs0  1  0.24859654  0.24859654  0.24859654  1
  Cs  Cs1  1  0.75140346  0.75140346  0.75140346  1
  Cs  Cs2  1  0.87152814  0.63005186  0.24907686  1
  Cs  Cs3  1  0.63005186  0.24907686  0.87152814  1
  Cs  Cs4  1  0.24907686  0.87152814  0.63005186  1
  Cs  Cs5  1  0.12847186  0.36994814  0.75092314  1
  Cs  Cs6  1  0.36994814  0.75092314  0.12847186  1
  Cs  Cs7  1  0.75092314  0.12847186  0.36994814  1
  Sr  Sr0  1  0.50000000  0.50000000  0.50000000  1
  Sn  Sn0  1  0.00000000  0.00000000  0.00000000  1
  I  I0  1  0.20351636  0.56089178  0.42666777  1
  I  I1  1  0.06087408  0.70803036  0.93049508  1
  I  I2  1  0.93049508  0.06087408  0.70803036  1
  I  I3  1  0.79648364  0.43910822  0.57333223  1
  I  I4  1  0.70803036  0.93049508  0.06087408  1
  I  I5  1  0.43910822  0.57333223  0.79648364  1
  I  I6  1  0.57333223  0.79648364  0.43910822  1
  I  I7  1  0.56089178  0.42666777  0.20351636  1
  I  I8  1  0.06950492  0.93912592  0.29196964  1
  I  I9  1  0.93912592  0.29196964  0.06950492  1
  I  I10  1  0.29196964  0.06950492  0.93912592  1
  I  I11  1  0.42666777  0.20351636  0.56089178  1
loop_
_geom_bond_atom_site_label_1
_geom_bond_atom_site_label_2
_geom_bond_distance
_geom_bond_site_symmetry_2
Cs0 I9 3.811409 1_455
Cs0 I8 3.811409 1_545
Cs0 I10 3.811409 1_554
Cs0 I0 3.833461 1_555
Cs0 I7 3.833461 1_555
Cs0 I11 3.833461 1_555
Cs1 I1 3.811409 1_655
Cs1 I2 3.811409 1_565
Cs1 I4 3.811409 1_556
Cs1 I3 3.833461 1_555
Cs1 I5 3.833461 1_555
Cs1 I6 3.833461 1_555
Cs2 I8 3.932533 1_655
Cs2 I1 3.957578 1_654
Cs2 I7 3.981567 1_555
Cs2 I3 4.009901 1_555
Cs2 I0 4.044039 1_655
Cs2 I4 4.079700 1_555
Cs2 I6 4.084076 1_555
Cs2 I9 4.107279 1_555
Cs3 I9 3.932533 1_556
Cs3 I4 3.957578 1_546
Cs3 I11 3.981567 1_555
Cs3 I5 4.009901 1_555
Cs3 I7 4.044039 1_556
Cs3 I2 4.079700 1_555
Cs3 I3 4.084077 1_555
Cs3 I10 4.107279 1_555
Cs4 I10 3.932533 1_565
Cs4 I2 3.957577 1_465
Cs4 I0 3.981567 1_555
Cs4 I6 4.009901 1_555
Cs4 I11 4.044039 1_565
Cs4 I1 4.079700 1_555
Cs4 I5 4.084076 1_555
Cs4 I8 4.107280 1_555
Cs5 I2 3.932533 1_455
Cs5 I9 3.957578 1_456
Cs5 I5 3.981567 1_555
Cs5 I0 4.009901 1_555
Cs5 I3 4.044039 1_455
Cs5 I10 4.079700 1_555
Cs5 I11 4.084076 1_555
Cs5 I1 4.107279 1_555
Cs6 I1 3.932533 1_554
Cs6 I10 3.957578 1_564
Cs6 I6 3.981567 1_555
Cs6 I7 4.009901 1_555
Cs6 I5 4.044039 1_554
Cs6 I8 4.079700 1_555
Cs6 I0 4.084077 1_555
Cs6 I4 4.107279 1_555
Cs7 I4 3.932533 1_545
Cs7 I8 3.957577 1_645
Cs7 I3 3.981567 1_555
Cs7 I11 4.009901 1_555
Cs7 I6 4.044039 1_545
Cs7 I9 4.079700 1_555
Cs7 I7 4.084076 1_555
Cs7 I2 4.107280 1_555
I0 Sr0 3.280797 1_555
I1 Sn0 3.225584 1_566
I2 Sn0 3.225584 1_656
I3 Sr0 3.280797 1_555
I4 Sn0 3.225584 1_665
I5 Sr0 3.280797 1_555
I6 Sr0 3.280797 1_555
I7 Sr0 3.280797 1_555
I8 Sn0 3.225584 1_565
I9 Sn0 3.225584 1_655
I10 Sn0 3.225584 1_556
I11 Sr0 3.280797 1_555
