# generated using pymatgen
data_K6InSe4Br
_symmetry_space_group_name_H-M   'P 1'
_cell_length_a   10.72081972
_cell_length_b   10.72082020
_cell_length_c   7.87673776
_cell_angle_alpha   90.00000000
_cell_angle_beta   90.00000000
_cell_angle_gamma   120.00000442
_symmetry_Int_Tables_number   1
_chemical_formula_structural   K6InSe4Br
_chemical_formula_sum   'K12 In2 Se8 Br2'
_cell_volume   784.03058450
_cell_formula_units_Z   2
loop_
 _symmetry_equiv_pos_site_id
 _symmetry_equiv_pos_as_xyz
  1  'x, y, z'
loop_
 _atom_site_type_symbol
 _atom_site_label
 _atom_site_symmetry_multiplicity
 _atom_site_fract_x
 _atom_site_fract_y
 _atom_site_fract_z
 _atom_site_occupancy
  K  K0  1  0.13491185  0.86508815  0.51002533  1
  K  K1  1  0.73017630  0.86508815  0.51002533  1
  K  K2  1  0.94354237  0.47177069  0.32300700  1
  K  K3  1  0.52822931  0.47177069  0.32300700  1
  K  K4  1  0.86508815  0.73017630  0.01002533  1
  K  K5  1  0.26982370  0.13491185  0.01002533  1
  K  K6  1  0.52822931  0.05645763  0.32300700  1
  K  K7  1  0.13491185  0.26982370  0.51002533  1
  K  K8  1  0.86508815  0.13491185  0.01002533  1
  K  K9  1  0.05645763  0.52822931  0.82300700  1
  K  K10  1  0.47177069  0.94354237  0.82300700  1
  K  K11  1  0.47177069  0.52822931  0.82300700  1
  In  In0  1  0.66666700  0.33333300  0.71038548  1
  In  In1  1  0.33333300  0.66666700  0.21038548  1
  Se  Se0  1  0.40203669  0.20101884  0.60584765  1
  Se  Se1  1  0.59796331  0.79898116  0.10584765  1
  Se  Se2  1  0.66666700  0.33333300  0.04536299  1
  Se  Se3  1  0.79898116  0.59796331  0.60584765  1
  Se  Se4  1  0.20101884  0.40203669  0.10584765  1
  Se  Se5  1  0.33333300  0.66666700  0.54536299  1
  Se  Se6  1  0.20101884  0.79898116  0.10584765  1
  Se  Se7  1  0.79898116  0.20101884  0.60584765  1
  Br  Br0  1  0.00000000  0.00000000  0.26821355  1
  Br  Br1  1  0.00000000  0.00000000  0.76821355  1
loop_
_geom_bond_atom_site_label_1
_geom_bond_atom_site_label_2
_geom_bond_distance
_geom_bond_site_symmetry_2
K0 Se3 3.380479 1_455
K0 Se0 3.380479 1_565
K0 Se6 3.412063 1_555
K0 Se5 3.694982 1_555
K1 Se3 3.380472 1_555
K1 Se7 3.380482 1_565
K1 Se1 3.412060 1_555
K1 Se5 3.694991 1_555
K2 Se7 3.360392 1_555
K2 Se3 3.360406 1_555
K2 Se2 3.375041 1_555
K2 Se6 3.628772 1_655
K2 Se4 3.628773 1_655
K3 Se3 3.360391 1_555
K3 Se0 3.360392 1_555
K3 Se2 3.375041 1_555
K3 Se4 3.628772 1_555
K3 Se1 3.628773 1_555
K4 Se1 3.380472 1_555
K4 Se6 3.380482 1_655
K4 Se3 3.412060 1_554
K4 Se2 3.694991 1_555
K5 Se4 3.380472 1_555
K5 Se6 3.380482 1_545
K5 Se0 3.412060 1_554
K5 Se2 3.694991 1_555
K6 Se7 3.360392 1_555
K6 Se0 3.360406 1_555
K6 Se2 3.375041 1_555
K6 Se6 3.628772 1_545
K6 Se1 3.628773 1_545
K7 Se0 3.380472 1_555
K7 Se7 3.380482 1_455
K7 Se4 3.412060 1_555
K7 Se5 3.694991 1_555
K8 Se4 3.380479 1_655
K8 Se1 3.380479 1_545
K8 Se7 3.412063 1_554
K8 Se2 3.694982 1_555
K9 Se6 3.360392 1_556
K9 Se4 3.360406 1_556
K9 Se5 3.375041 1_555
K9 Se7 3.628772 1_455
K9 Se3 3.628773 1_455
K10 Se6 3.360392 1_556
K10 Se1 3.360406 1_556
K10 Se5 3.375041 1_555
K10 Se7 3.628772 1_565
K10 Se0 3.628773 1_565
K11 Se4 3.360391 1_556
K11 Se1 3.360392 1_556
K11 Se5 3.375041 1_555
K11 Se3 3.628772 1_555
K11 Se0 3.628773 1_555
In0 Se7 2.591251 1_555
In0 Se0 2.591268 1_555
In0 Se3 2.591268 1_555
In0 Se2 2.638530 1_556
In1 Se6 2.591251 1_555
In1 Se1 2.591268 1_555
In1 Se4 2.591268 1_555
In1 Se5 2.638530 1_555
Br0 K1 3.147023 1_445
Br0 K7 3.147024 1_555
Br0 K0 3.147024 1_545
Br0 K5 3.226729 1_555
Br0 K4 3.226729 1_445
Br0 K8 3.226729 1_455
Br1 K5 3.147023 1_556
Br1 K4 3.147024 1_446
Br1 K8 3.147024 1_456
Br1 K1 3.226729 1_445
Br1 K7 3.226729 1_555
Br1 K0 3.226729 1_545
