# generated using pymatgen
data_Cs3K3(VTe4)2
_symmetry_space_group_name_H-M   'P 1'
_cell_length_a   10.72093935
_cell_length_b   10.64544216
_cell_length_c   11.78491119
_cell_angle_alpha   90.00000000
_cell_angle_beta   90.00000000
_cell_angle_gamma   90.43148481
_symmetry_Int_Tables_number   1
_chemical_formula_structural   Cs3K3(VTe4)2
_chemical_formula_sum   'Cs6 K6 V4 Te16'
_cell_volume   1344.96363687
_cell_formula_units_Z   2
loop_
 _symmetry_equiv_pos_site_id
 _symmetry_equiv_pos_as_xyz
  1  'x, y, z'
loop_
 _atom_site_type_symbol
 _atom_site_label
 _atom_site_symmetry_multiplicity
 _atom_site_fract_x
 _atom_site_fract_y
 _atom_site_fract_z
 _atom_site_occupancy
  Cs  Cs0  1  0.04296171  0.21149304  0.04200548  1
  Cs  Cs1  1  0.13812364  0.40433684  0.75293567  1
  Cs  Cs2  1  0.34870912  0.89715725  0.24280447  1
  Cs  Cs3  1  0.65129088  0.10284275  0.74280447  1
  Cs  Cs4  1  0.86187636  0.59566316  0.25293567  1
  Cs  Cs5  1  0.95703829  0.78850696  0.54200548  1
  K  K0  1  0.53926509  0.30013358  0.45711343  1
  K  K1  1  0.46073491  0.69986642  0.95711343  1
  K  K2  1  0.54930861  0.29618397  0.04910118  1
  K  K3  1  0.05062336  0.20339124  0.44827658  1
  K  K4  1  0.45069139  0.70381603  0.54910118  1
  K  K5  1  0.94937664  0.79660876  0.94827658  1
  V  V0  1  0.77549981  0.01752908  0.24822365  1
  V  V1  1  0.70758420  0.51807054  0.75231402  1
  V  V2  1  0.29241580  0.48192946  0.25231402  1
  V  V3  1  0.22450019  0.98247092  0.74822365  1
  Te  Te0  1  0.33835443  0.06187341  0.91749045  1
  Te  Te1  1  0.21548010  0.74855167  0.76028181  1
  Te  Te2  1  0.30580407  0.24870145  0.24936204  1
  Te  Te3  1  0.69419593  0.75129855  0.74936204  1
  Te  Te4  1  0.78451990  0.25144833  0.26028181  1
  Te  Te5  1  0.00511727  0.06518553  0.74636268  1
  Te  Te6  1  0.50949451  0.57026045  0.25313557  1
  Te  Te7  1  0.49050549  0.42973955  0.75313557  1
  Te  Te8  1  0.99488273  0.93481447  0.24636268  1
  Te  Te9  1  0.66164557  0.93812659  0.41749045  1
  Te  Te10  1  0.82125571  0.43966332  0.58132128  1
  Te  Te11  1  0.17874429  0.56033668  0.08132128  1
  Te  Te12  1  0.66964065  0.95166997  0.06891914  1
  Te  Te13  1  0.33035935  0.04833003  0.56891914  1
  Te  Te14  1  0.18228975  0.54240477  0.43035054  1
  Te  Te15  1  0.81771025  0.45759523  0.93035054  1
loop_
_geom_bond_atom_site_label_1
_geom_bond_atom_site_label_2
_geom_bond_distance
_geom_bond_site_symmetry_2
Cs0 Te2 3.748640 1_555
Cs0 Te4 3.806932 1_455
Cs0 Te15 3.810802 1_454
Cs0 Te8 3.836413 1_445
Cs0 Te5 3.836672 1_554
Cs0 Te0 3.846468 1_554
Cs0 Te11 4.005391 1_555
Cs1 Te1 3.751900 1_555
Cs1 Te7 3.785500 1_555
Cs1 Te5 3.872584 1_555
Cs1 Te10 3.973846 1_455
Cs1 Te15 4.064780 1_455
Cs1 Te14 4.102007 1_555
Cs1 Te11 4.232435 1_556
Cs2 Te2 3.774734 1_565
Cs2 Te8 3.817706 1_455
Cs2 Te6 3.897010 1_555
Cs2 Te9 3.957536 1_555
Cs2 Te12 4.042813 1_555
Cs2 Te13 4.171781 1_565
Cs2 Te0 4.217574 1_564
Cs3 Te3 3.774734 1_545
Cs3 Te5 3.817706 1_655
Cs3 Te7 3.897010 1_555
Cs3 Te0 3.957536 1_555
Cs3 Te13 4.042813 1_555
Cs3 Te12 4.171781 1_546
Cs3 Te9 4.217574 1_545
Cs4 Te4 3.751900 1_555
Cs4 Te6 3.785500 1_555
Cs4 Te8 3.872584 1_555
Cs4 Te11 3.973846 1_655
Cs4 Te14 4.064780 1_655
Cs4 Te15 4.102007 1_554
Cs4 Te10 4.232435 1_555
Cs5 Te3 3.748640 1_555
Cs5 Te1 3.806932 1_655
Cs5 Te14 3.810802 1_655
Cs5 Te5 3.836413 1_665
Cs5 Te8 3.836672 1_555
Cs5 Te9 3.846468 1_555
Cs5 Te10 4.005391 1_555
K0 Te2 3.540915 1_555
K0 Te4 3.547312 1_555
K0 Te10 3.663476 1_555
K0 Te13 3.721183 1_555
K0 Te6 3.763433 1_555
K0 Te7 3.789199 1_555
K1 Te3 3.540915 1_555
K1 Te1 3.547312 1_555
K1 Te11 3.663476 1_556
K1 Te12 3.721183 1_556
K1 Te7 3.763433 1_555
K1 Te6 3.789199 1_556
K2 Te2 3.552564 1_555
K2 Te4 3.577378 1_555
K2 Te15 3.621695 1_554
K2 Te0 3.695590 1_554
K2 Te6 3.807293 1_555
K2 Te7 3.820730 1_554
K2 Te12 3.903931 1_545
K3 Te2 3.632146 1_555
K3 Te4 3.651174 1_455
K3 Te13 3.716848 1_555
K3 Te8 3.764059 1_445
K3 Te5 3.838282 1_555
K3 Te10 3.863253 1_455
K3 Te14 3.871045 1_555
K4 Te3 3.552564 1_555
K4 Te1 3.577378 1_555
K4 Te14 3.621695 1_555
K4 Te9 3.695590 1_555
K4 Te7 3.807293 1_555
K4 Te6 3.820730 1_555
K4 Te13 3.903931 1_565
K5 Te3 3.632146 1_555
K5 Te1 3.651174 1_655
K5 Te12 3.716848 1_556
K5 Te5 3.764059 1_665
K5 Te8 3.838282 1_556
K5 Te11 3.863253 1_656
K5 Te15 3.871045 1_555
Te0 V3 2.483561 1_545
Te1 V3 2.495373 1_555
Te2 V2 2.488283 1_555
Te3 V1 2.488283 1_555
Te4 V0 2.495373 1_555
Te5 V3 2.517712 1_545
Te6 V2 2.503519 1_555
Te7 V1 2.503519 1_555
Te8 V0 2.517712 1_565
Te9 V0 2.483561 1_565
Te10 V1 2.501584 1_555
Te11 V2 2.501584 1_555
Te12 V0 2.496541 1_565
Te13 V3 2.496541 1_545
Te14 V2 2.494407 1_555
Te15 V1 2.494407 1_555
