# generated using pymatgen
data_K3NaAs2O7
_symmetry_space_group_name_H-M   'P 1'
_cell_length_a   5.99252694
_cell_length_b   5.99252668
_cell_length_c   13.71960073
_cell_angle_alpha   90.00000000
_cell_angle_beta   90.00000000
_cell_angle_gamma   117.02825007
_symmetry_Int_Tables_number   1
_chemical_formula_structural   K3NaAs2O7
_chemical_formula_sum   'K6 Na2 As4 O14'
_cell_volume   438.86723224
_cell_formula_units_Z   2
loop_
 _symmetry_equiv_pos_site_id
 _symmetry_equiv_pos_as_xyz
  1  'x, y, z'
loop_
 _atom_site_type_symbol
 _atom_site_label
 _atom_site_symmetry_multiplicity
 _atom_site_fract_x
 _atom_site_fract_y
 _atom_site_fract_z
 _atom_site_occupancy
  K  K0  1  0.13523670  0.13523670  0.00000000  1
  K  K1  1  0.86476330  0.86476330  0.50000000  1
  K  K2  1  0.77494755  0.45249661  0.11876379  1
  K  K3  1  0.45249661  0.77494755  0.88123621  1
  K  K4  1  0.22505245  0.54750339  0.61876379  1
  K  K5  1  0.54750339  0.22505245  0.38123621  1
  Na  Na0  1  0.01542796  0.98457204  0.25000000  1
  Na  Na1  1  0.98457204  0.01542796  0.75000000  1
  As  As0  1  0.44515576  0.80302164  0.14765663  1
  As  As1  1  0.80302164  0.44515576  0.85234337  1
  As  As2  1  0.55484424  0.19697836  0.64765663  1
  As  As3  1  0.19697836  0.55484424  0.35234337  1
  O  O0  1  0.37741529  0.03436277  0.18270462  1
  O  O1  1  0.03436277  0.37741529  0.81729538  1
  O  O2  1  0.62258471  0.96563723  0.68270462  1
  O  O3  1  0.96563723  0.62258471  0.31729538  1
  O  O4  1  0.75241710  0.91058693  0.12419610  1
  O  O5  1  0.91058693  0.75241710  0.87580390  1
  O  O6  1  0.24758290  0.08941307  0.62419610  1
  O  O7  1  0.08941307  0.24758290  0.37580390  1
  O  O8  1  0.25753999  0.61591249  0.06034460  1
  O  O9  1  0.61591249  0.25753999  0.93965540  1
  O  O10  1  0.74246001  0.38408751  0.56034460  1
  O  O11  1  0.38408751  0.74246001  0.43965540  1
  O  O12  1  0.40076847  0.59923153  0.25000000  1
  O  O13  1  0.59923153  0.40076847  0.75000000  1
loop_
_geom_bond_atom_site_label_1
_geom_bond_atom_site_label_2
_geom_bond_distance
_geom_bond_site_symmetry_2
K0 O5 2.677969 1_444
K0 O4 2.677969 1_445
K0 O8 2.756980 1_555
K0 O9 2.756980 1_554
K0 O1 3.090647 1_554
K0 O0 3.090648 1_555
K1 O7 2.677969 1_665
K1 O6 2.677969 1_665
K1 O10 2.756980 1_555
K1 O11 2.756980 1_555
K1 O3 3.090647 1_555
K1 O2 3.090648 1_555
K2 O0 2.701463 1_555
K2 O9 2.701761 1_554
K2 O8 2.718607 1_655
K2 O4 2.810037 1_555
K2 O3 2.950434 1_555
K2 O4 3.189194 1_545
K2 O12 3.291626 1_555
K3 O1 2.701463 1_555
K3 O8 2.701761 1_556
K3 O9 2.718607 1_565
K3 O5 2.810037 1_555
K3 O2 2.950434 1_555
K3 O5 3.189194 1_455
K3 O13 3.291625 1_555
K4 O2 2.701463 1_555
K4 O11 2.701761 1_555
K4 O10 2.718607 1_455
K4 O6 2.810037 1_555
K4 O1 2.950434 1_555
K4 O6 3.189194 1_565
K4 O13 3.291626 1_555
K5 O3 2.701463 1_555
K5 O10 2.701761 1_555
K5 O11 2.718607 1_545
K5 O7 2.810037 1_555
K5 O0 2.950434 1_555
K5 O7 3.189194 1_655
K5 O12 3.291625 1_555
Na0 O7 2.241556 1_565
Na0 O4 2.241556 1_455
Na0 O3 2.249158 1_455
Na0 O0 2.249158 1_565
Na1 O5 2.241556 1_545
Na1 O6 2.241556 1_655
Na1 O1 2.249158 1_655
Na1 O2 2.249158 1_545
As0 O8 1.676441 1_555
As0 O0 1.682064 1_565
As0 O4 1.682464 1_555
As0 O12 1.799561 1_555
As1 O9 1.676441 1_555
As1 O1 1.682064 1_655
As1 O5 1.682464 1_555
As1 O13 1.799561 1_555
As2 O10 1.676441 1_555
As2 O2 1.682064 1_545
As2 O6 1.682464 1_555
As2 O13 1.799561 1_555
As3 O11 1.676441 1_555
As3 O3 1.682064 1_455
As3 O7 1.682464 1_555
As3 O12 1.799561 1_555
