# generated using pymatgen
data_Ag4RuPt3O14
_symmetry_space_group_name_H-M   'P 1'
_cell_length_a   7.10287367
_cell_length_b   7.10287254
_cell_length_c   7.11267209
_cell_angle_alpha   60.04555309
_cell_angle_beta   60.04555816
_cell_angle_gamma   60.00000233
_symmetry_Int_Tables_number   1
_chemical_formula_structural   Ag4RuPt3O14
_chemical_formula_sum   'Ag4 Ru1 Pt3 O14'
_cell_volume   253.91280856
_cell_formula_units_Z   1
loop_
 _symmetry_equiv_pos_site_id
 _symmetry_equiv_pos_as_xyz
  1  'x, y, z'
loop_
 _atom_site_type_symbol
 _atom_site_label
 _atom_site_symmetry_multiplicity
 _atom_site_fract_x
 _atom_site_fract_y
 _atom_site_fract_z
 _atom_site_occupancy
  Ag  Ag0  1  0.12500000  0.12500000  0.12500000  1
  Ag  Ag1  1  0.62500000  0.12500000  0.12500000  1
  Ag  Ag2  1  0.12500000  0.62500000  0.12500000  1
  Ag  Ag3  1  0.12500000  0.12500000  0.62500000  1
  Ru  Ru0  1  0.62500000  0.62500000  0.12500000  1
  Pt  Pt0  1  0.62500000  0.62500000  0.62500000  1
  Pt  Pt1  1  0.62500000  0.12500000  0.62500000  1
  Pt  Pt2  1  0.12500000  0.62500000  0.62500000  1
  O  O0  1  0.69589689  0.30945419  0.29875402  1
  O  O1  1  0.70290623  0.28552534  0.72604309  1
  O  O2  1  0.99803962  0.99803962  0.00588113  1
  O  O3  1  0.30945419  0.69589689  0.29875402  1
  O  O4  1  0.69589689  0.69589689  0.29875402  1
  O  O5  1  0.96447466  0.54709377  0.52395691  1
  O  O6  1  0.28552534  0.70290623  0.72604309  1
  O  O7  1  0.25196038  0.25196038  0.24411887  1
  O  O8  1  0.94054581  0.55410311  0.95124598  1
  O  O9  1  0.54709377  0.96447466  0.52395691  1
  O  O10  1  0.55410311  0.55410311  0.95124598  1
  O  O11  1  0.96447466  0.96447466  0.52395691  1
  O  O12  1  0.55410311  0.94054581  0.95124598  1
  O  O13  1  0.28552534  0.28552534  0.72604309  1
loop_
_geom_bond_atom_site_label_1
_geom_bond_atom_site_label_2
_geom_bond_distance
_geom_bond_site_symmetry_2
Ag0 O7 2.164128 1_555
Ag0 O2 2.164128 1_445
Ag0 O11 2.343150 1_445
Ag0 O13 2.343150 1_554
Ag0 O8 2.528942 1_454
Ag0 O3 2.528942 1_545
Ag0 O12 2.528943 1_544
Ag0 O0 2.528943 1_455
Ag1 O2 2.164129 1_545
Ag1 O7 2.164129 1_555
Ag1 O9 2.343150 1_545
Ag1 O1 2.343150 1_554
Ag1 O10 2.528940 1_554
Ag1 O4 2.528940 1_545
Ag1 O0 2.528952 1_555
Ag1 O12 2.528952 1_544
Ag2 O2 2.164128 1_455
Ag2 O7 2.164128 1_555
Ag2 O5 2.343150 1_455
Ag2 O6 2.343150 1_554
Ag2 O10 2.528940 1_554
Ag2 O4 2.528940 1_455
Ag2 O3 2.528953 1_555
Ag2 O8 2.528953 1_454
Ag3 O2 2.213479 1_446
Ag3 O7 2.213479 1_555
Ag3 O6 2.460333 1_545
Ag3 O5 2.460333 1_455
Ag3 O13 2.460333 1_555
Ag3 O11 2.460333 1_445
Ag3 O9 2.460333 1_545
Ag3 O1 2.460333 1_455
O0 Ru0 1.879101 1_555
O0 Pt1 1.952321 1_555
O1 Pt0 1.992270 1_555
O1 Pt1 1.992270 1_555
O3 Ru0 1.879101 1_555
O3 Pt2 1.952321 1_555
O4 Ru0 1.879112 1_555
O4 Pt0 1.952318 1_555
O5 Pt2 1.992270 1_655
O5 Pt0 1.992270 1_555
O6 Pt2 1.992270 1_555
O6 Pt0 1.992270 1_555
O8 Ru0 1.879101 1_556
O8 Pt2 1.952321 1_655
O9 Pt0 1.992270 1_555
O9 Pt1 1.992270 1_565
O10 Ru0 1.879112 1_556
O10 Pt0 1.952318 1_555
O11 Pt2 1.992270 1_655
O11 Pt1 1.992270 1_565
O12 Ru0 1.879101 1_556
O12 Pt1 1.952321 1_565
O13 Pt2 1.992270 1_555
O13 Pt1 1.992270 1_555
