# generated using pymatgen
data_Mg2TcO4
_symmetry_space_group_name_H-M   'P 1'
_cell_length_a   6.10768188
_cell_length_b   6.10768188
_cell_length_c   6.10768188
_cell_angle_alpha   120.55662238
_cell_angle_beta   119.32484704
_cell_angle_gamma   90.10598540
_symmetry_Int_Tables_number   1
_chemical_formula_structural   Mg2TcO4
_chemical_formula_sum   'Mg4 Tc2 O8'
_cell_volume   161.22771472
_cell_formula_units_Z   2
loop_
 _symmetry_equiv_pos_site_id
 _symmetry_equiv_pos_as_xyz
  1  'x, y, z'
loop_
 _atom_site_type_symbol
 _atom_site_label
 _atom_site_symmetry_multiplicity
 _atom_site_fract_x
 _atom_site_fract_y
 _atom_site_fract_z
 _atom_site_occupancy
  Mg  Mg0  1  0.61281400  0.86281400  0.75000000  1
  Mg  Mg1  1  0.38718600  0.13718600  0.25000000  1
  Mg  Mg2  1  0.00000000  0.50000000  0.00000000  1
  Mg  Mg3  1  0.00000000  0.00000000  0.50000000  1
  Tc  Tc0  1  0.50000000  0.50000000  0.00000000  1
  Tc  Tc1  1  0.00000000  0.50000000  0.50000000  1
  O  O0  1  0.24681600  0.72487500  0.97805900  1
  O  O1  1  0.24760100  0.26524000  0.98236000  1
  O  O2  1  0.24681600  0.26875700  0.52194100  1
  O  O3  1  0.78288000  0.26524000  0.51764000  1
  O  O4  1  0.21712000  0.73476000  0.48236000  1
  O  O5  1  0.75239900  0.73476000  0.01764000  1
  O  O6  1  0.75318400  0.73124300  0.47805900  1
  O  O7  1  0.75318400  0.27512500  0.02194100  1
loop_
_geom_bond_atom_site_label_1
_geom_bond_atom_site_label_2
_geom_bond_distance
_geom_bond_site_symmetry_2
Mg0 O5 1.986951 1_556
Mg0 O4 1.986951 1_555
Mg0 O6 2.044438 1_555
Mg0 O7 2.044438 1_566
Mg1 O1 1.986951 1_554
Mg1 O3 1.986951 1_555
Mg1 O2 2.044438 1_555
Mg1 O0 2.044438 1_544
Mg2 O3 2.089254 1_454
Mg2 O4 2.089254 1_555
Mg2 O5 2.089259 1_455
Mg2 O1 2.089259 1_554
Mg2 O7 2.134058 1_455
Mg2 O0 2.134058 1_554
Mg3 O3 2.089254 1_455
Mg3 O4 2.089254 1_545
Mg3 O1 2.089254 1_555
Mg3 O5 2.089254 1_445
Mg3 O2 2.134058 1_555
Mg3 O6 2.134058 1_445
O0 Tc0 2.070661 1_556
O0 Tc1 2.070661 1_555
O1 Tc0 2.028796 1_556
O2 Tc1 2.070661 1_555
O2 Tc0 2.070661 1_556
O3 Tc1 2.028800 1_655
O4 Tc1 2.028800 1_555
O5 Tc0 2.028796 1_555
O6 Tc0 2.070661 1_555
O6 Tc1 2.070661 1_655
O7 Tc0 2.070661 1_555
O7 Tc1 2.070661 1_655
