# generated using pymatgen
data_Mg9V10O24
_symmetry_space_group_name_H-M   'P 1'
_cell_length_a   6.00033978
_cell_length_b   6.00033978
_cell_length_c   15.30335820
_cell_angle_alpha   89.51299390
_cell_angle_beta   89.51299390
_cell_angle_gamma   59.88025258
_symmetry_Int_Tables_number   1
_chemical_formula_structural   Mg9V10O24
_chemical_formula_sum   'Mg9 V10 O24'
_cell_volume   476.56578685
_cell_formula_units_Z   1
loop_
 _symmetry_equiv_pos_site_id
 _symmetry_equiv_pos_as_xyz
  1  'x, y, z'
loop_
 _atom_site_type_symbol
 _atom_site_label
 _atom_site_symmetry_multiplicity
 _atom_site_fract_x
 _atom_site_fract_y
 _atom_site_fract_z
 _atom_site_occupancy
  Mg  Mg0  1  0.33441100  0.33441100  0.20019800  1
  Mg  Mg1  1  0.66670600  0.66670600  0.54233900  1
  Mg  Mg2  1  0.00474500  0.00474500  0.84729800  1
  Mg  Mg3  1  0.33329400  0.33329400  0.45766100  1
  Mg  Mg4  1  0.00000000  0.00000000  0.00000000  1
  Mg  Mg5  1  0.00000000  0.50000000  0.00000000  1
  Mg  Mg6  1  0.66558900  0.66558900  0.79980200  1
  Mg  Mg7  1  0.50000000  0.00000000  0.00000000  1
  Mg  Mg8  1  0.99525500  0.99525500  0.15270200  1
  V  V0  1  0.33925900  0.83192800  0.33686200  1
  V  V1  1  0.83192800  0.33925900  0.33686200  1
  V  V2  1  0.00000000  0.00000000  0.50000000  1
  V  V3  1  0.66074100  0.16807200  0.66313800  1
  V  V4  1  0.83130100  0.83130100  0.33747900  1
  V  V5  1  0.16807200  0.66074100  0.66313800  1
  V  V6  1  0.33160200  0.33160200  0.83516400  1
  V  V7  1  0.16869900  0.16869900  0.66252100  1
  V  V8  1  0.66839800  0.66839800  0.16483600  1
  V  V9  1  0.50000000  0.50000000  0.00000000  1
  O  O0  1  0.97357000  0.51402700  0.25342800  1
  O  O1  1  0.51402700  0.97357000  0.25342800  1
  O  O2  1  0.66675300  0.66675300  0.40849800  1
  O  O3  1  0.51473700  0.51473700  0.25280900  1
  O  O4  1  0.15452300  0.15452300  0.41569500  1
  O  O5  1  0.30620000  0.84626400  0.58366500  1
  O  O6  1  0.15373600  0.69380000  0.41633500  1
  O  O7  1  0.84626400  0.30620000  0.58366500  1
  O  O8  1  0.00101500  0.00101500  0.27406700  1
  O  O9  1  0.99898500  0.99898500  0.72593300  1
  O  O10  1  0.84547700  0.84547700  0.58430500  1
  O  O11  1  0.69380000  0.15373600  0.41633500  1
  O  O12  1  0.48526300  0.48526300  0.74719100  1
  O  O13  1  0.66908300  0.16956600  0.91876700  1
  O  O14  1  0.48597300  0.02643000  0.74657200  1
  O  O15  1  0.33324700  0.33324700  0.59150200  1
  O  O16  1  0.33811800  0.33811800  0.06961000  1
  O  O17  1  0.16956600  0.66908300  0.91876700  1
  O  O18  1  0.17017700  0.17017700  0.91586000  1
  O  O19  1  0.02643000  0.48597300  0.74657200  1
  O  O20  1  0.82982300  0.82982300  0.08414000  1
  O  O21  1  0.83043400  0.33091700  0.08123300  1
  O  O22  1  0.66188200  0.66188200  0.93039000  1
  O  O23  1  0.33091700  0.83043400  0.08123300  1
loop_
_geom_bond_atom_site_label_1
_geom_bond_atom_site_label_2
_geom_bond_distance
_geom_bond_site_symmetry_2
Mg0 O16 1.998429 1_555
Mg0 O1 2.038641 1_545
Mg0 O0 2.038641 1_455
Mg0 O3 2.048015 1_555
Mg1 O7 1.972135 1_555
Mg1 O5 1.972135 1_555
Mg1 O10 1.972816 1_555
Mg1 O2 2.048212 1_555
Mg2 O9 1.858845 1_445
Mg2 O18 2.023835 1_555
Mg2 O13 2.052482 1_455
Mg2 O17 2.052482 1_545
Mg3 O11 1.972135 1_555
Mg3 O6 1.972135 1_555
Mg3 O4 1.972816 1_555
Mg3 O15 2.048212 1_555
Mg4 O21 2.125123 1_455
Mg4 O17 2.125123 1_544
Mg4 O23 2.125123 1_545
Mg4 O13 2.125123 1_454
Mg4 O18 2.178326 1_554
Mg4 O20 2.178326 1_445
Mg5 O22 2.058096 1_454
Mg5 O16 2.058096 1_555
Mg5 O21 2.145456 1_455
Mg5 O17 2.145456 1_554
Mg5 O18 2.147117 1_554
Mg5 O20 2.147117 1_455
Mg6 O22 1.998429 1_555
Mg6 O19 2.038641 1_655
Mg6 O14 2.038641 1_565
Mg6 O12 2.048015 1_555
Mg7 O22 2.058096 1_544
Mg7 O16 2.058096 1_555
Mg7 O23 2.145456 1_545
Mg7 O13 2.145456 1_554
Mg7 O18 2.147117 1_554
Mg7 O20 2.147117 1_545
Mg8 O8 1.858845 1_665
Mg8 O20 2.023835 1_555
Mg8 O21 2.052482 1_565
Mg8 O23 2.052482 1_655
O0 V1 2.074990 1_555
O0 V8 2.089904 1_555
O0 V4 2.097475 1_555
O1 V0 2.074990 1_555
O1 V8 2.089904 1_555
O1 V4 2.097475 1_555
O2 V4 2.018114 1_555
O2 V0 2.027099 1_555
O2 V1 2.027099 1_555
O3 V8 2.079351 1_555
O3 V0 2.095933 1_555
O3 V1 2.095933 1_555
O4 V2 2.050847 1_555
O4 V0 2.072329 1_545
O4 V1 2.072329 1_455
O5 V2 2.045695 1_565
O5 V5 2.071504 1_555
O5 V7 2.073854 1_565
O6 V2 2.045695 1_565
O6 V0 2.071504 1_555
O6 V4 2.073854 1_455
O7 V2 2.045695 1_655
O7 V3 2.071504 1_555
O7 V7 2.073854 1_655
O8 V1 2.005492 1_455
O8 V0 2.005492 1_545
O8 V4 2.005722 1_445
O9 V3 2.005492 1_565
O9 V5 2.005492 1_655
O9 V7 2.005722 1_665
O10 V2 2.050847 1_665
O10 V5 2.072329 1_655
O10 V3 2.072329 1_565
O11 V2 2.045695 1_655
O11 V1 2.071504 1_555
O11 V4 2.073854 1_545
O12 V6 2.079351 1_555
O12 V5 2.095933 1_555
O12 V3 2.095933 1_555
O13 V9 2.123084 1_556
O13 V6 2.174797 1_555
O14 V3 2.074990 1_555
O14 V6 2.089904 1_555
O14 V7 2.097475 1_555
O15 V7 2.018114 1_555
O15 V5 2.027099 1_555
O15 V3 2.027099 1_555
O16 V9 1.983323 1_555
O17 V9 2.123084 1_556
O17 V6 2.174797 1_555
O18 V6 2.074208 1_555
O19 V5 2.074990 1_555
O19 V6 2.089904 1_555
O19 V7 2.097475 1_555
O20 V8 2.074208 1_555
O21 V9 2.123084 1_555
O21 V8 2.174797 1_555
O22 V9 1.983323 1_556
O23 V9 2.123084 1_555
O23 V8 2.174797 1_555
