# generated using pymatgen
data_Cs(SbSe2)2
_symmetry_space_group_name_H-M   'P 1'
_cell_length_a   6.80913313
_cell_length_b   7.04183213
_cell_length_c   10.02663818
_cell_angle_alpha   80.35906148
_cell_angle_beta   87.79355893
_cell_angle_gamma   75.64404581
_symmetry_Int_Tables_number   1
_chemical_formula_structural   Cs(SbSe2)2
_chemical_formula_sum   'Cs2 Sb4 Se8'
_cell_volume   459.17235090
_cell_formula_units_Z   2
loop_
 _symmetry_equiv_pos_site_id
 _symmetry_equiv_pos_as_xyz
  1  'x, y, z'
loop_
 _atom_site_type_symbol
 _atom_site_label
 _atom_site_symmetry_multiplicity
 _atom_site_fract_x
 _atom_site_fract_y
 _atom_site_fract_z
 _atom_site_occupancy
  Cs  Cs0  1  0.67777250  0.67008487  0.06655483  1
  Cs  Cs1  1  0.32222750  0.32991513  0.93344517  1
  Sb  Sb0  1  0.65508571  0.68707782  0.54217490  1
  Sb  Sb1  1  0.34491429  0.31292218  0.45782510  1
  Sb  Sb2  1  0.91455293  0.09980810  0.67151584  1
  Sb  Sb3  1  0.08544707  0.90019190  0.32848416  1
  Se  Se0  1  0.70684489  0.34670456  0.40077276  1
  Se  Se1  1  0.29315511  0.65329544  0.59922724  1
  Se  Se2  1  0.58327606  0.98144979  0.71369163  1
  Se  Se3  1  0.41672394  0.01855021  0.28630837  1
  Se  Se4  1  0.09422080  0.91564125  0.91517392  1
  Se  Se5  1  0.90577920  0.08435875  0.08482608  1
  Se  Se6  1  0.18338368  0.56596969  0.23708134  1
  Se  Se7  1  0.81661632  0.43403031  0.76291866  1
loop_
_geom_bond_atom_site_label_1
_geom_bond_atom_site_label_2
_geom_bond_distance
_geom_bond_site_symmetry_2
Cs0 Se3 3.658175 1_565
Cs0 Se5 3.660749 1_565
Cs0 Se7 3.690487 1_554
Cs0 Se0 3.704872 1_555
Cs0 Se6 3.754379 1_655
Cs0 Se4 3.815203 1_654
Cs0 Se2 3.823148 1_554
Cs0 Se6 3.892835 1_555
Cs0 Se5 4.006178 1_555
Cs0 Se4 4.154581 1_554
Cs1 Se2 3.658175 1_545
Cs1 Se4 3.660749 1_545
Cs1 Se6 3.690487 1_556
Cs1 Se1 3.704872 1_555
Cs1 Se7 3.754379 1_455
Cs1 Se5 3.815203 1_456
Cs1 Se3 3.823148 1_556
Cs1 Se7 3.892835 1_555
Cs1 Se4 4.006178 1_555
Cs1 Se5 4.154581 1_556
Sb0 Se1 2.567849 1_555
Sb0 Se7 2.679233 1_555
Sb0 Se2 2.849603 1_555
Sb0 Se0 2.925762 1_555
Sb0 Se3 3.331744 1_565
Sb1 Se0 2.567849 1_555
Sb1 Se6 2.679233 1_555
Sb1 Se3 2.849603 1_555
Sb1 Se1 2.925762 1_555
Sb1 Se2 3.331744 1_545
Sb2 Se2 2.588918 1_545
Sb2 Se7 2.592460 1_555
Sb2 Se4 2.743954 1_645
Sb2 Se0 3.144477 1_555
Sb3 Se3 2.588918 1_565
Sb3 Se6 2.592460 1_555
Sb3 Se5 2.743954 1_465
Sb3 Se1 3.144477 1_555
Se4 Se5 2.388383 1_466
