# generated using pymatgen
data_Rb4Ag(SnAu3)2
_symmetry_space_group_name_H-M   'P 1'
_cell_length_a   10.48868126
_cell_length_b   10.48868130
_cell_length_c   10.48868205
_cell_angle_alpha   38.35607659
_cell_angle_beta   38.35607723
_cell_angle_gamma   38.35607784
_symmetry_Int_Tables_number   1
_chemical_formula_structural   Rb4Ag(SnAu3)2
_chemical_formula_sum   'Rb4 Ag1 Sn2 Au6'
_cell_volume   399.11851704
_cell_formula_units_Z   1
loop_
 _symmetry_equiv_pos_site_id
 _symmetry_equiv_pos_as_xyz
  1  'x, y, z'
loop_
 _atom_site_type_symbol
 _atom_site_label
 _atom_site_symmetry_multiplicity
 _atom_site_fract_x
 _atom_site_fract_y
 _atom_site_fract_z
 _atom_site_occupancy
  Rb  Rb0  1  0.68388565  0.68388565  0.68388565  1
  Rb  Rb1  1  0.31611435  0.31611435  0.31611435  1
  Rb  Rb2  1  0.81171963  0.81171963  0.81171963  1
  Rb  Rb3  1  0.18828037  0.18828037  0.18828037  1
  Ag  Ag0  1  0.00000000  0.00000000  0.00000000  1
  Sn  Sn0  1  0.44966002  0.44966002  0.44966002  1
  Sn  Sn1  1  0.55033998  0.55033998  0.55033998  1
  Au  Au0  1  0.18906933  0.78790034  0.78790034  1
  Au  Au1  1  0.78790034  0.78790034  0.18906933  1
  Au  Au2  1  0.78790034  0.18906933  0.78790034  1
  Au  Au3  1  0.21209966  0.81093067  0.21209966  1
  Au  Au4  1  0.81093067  0.21209966  0.21209966  1
  Au  Au5  1  0.21209966  0.21209966  0.81093067  1
loop_
_geom_bond_atom_site_label_1
_geom_bond_atom_site_label_2
_geom_bond_distance
_geom_bond_site_symmetry_2
Rb0 Rb2 3.721808 1_555
Rb0 Sn1 3.888100 1_555
Rb0 Rb1 4.103005 1_556
Rb0 Rb1 4.103006 1_565
Rb0 Rb1 4.103006 1_655
Rb1 Rb3 3.721808 1_555
Rb1 Sn0 3.888100 1_555
Rb2 Sn0 4.065568 1_556
Rb2 Sn0 4.065568 1_565
Rb2 Sn0 4.065568 1_655
Rb2 Rb3 4.172923 1_665
Rb2 Rb3 4.172923 1_656
Rb2 Rb3 4.172923 1_566
Rb3 Sn1 4.065568 1_554
Rb3 Sn1 4.065568 1_545
Rb3 Sn1 4.065568 1_455
Ag0 Au1 2.784697 1_445
Ag0 Au5 2.784697 1_554
Ag0 Au2 2.784697 1_454
Ag0 Au3 2.784697 1_545
Ag0 Au4 2.784697 1_455
Ag0 Au0 2.784697 1_544
Ag0 Rb0 4.010073 1_454
Ag0 Rb1 4.010073 1_545
Ag0 Rb0 4.010073 1_544
Ag0 Rb1 4.010073 1_455
Ag0 Rb1 4.010074 1_554
Ag0 Rb0 4.010074 1_445
Sn0 Sn1 2.931236 1_555
Au0 Sn1 2.626247 1_555
Au0 Au2 2.764520 1_465
Au0 Au1 2.764520 1_456
Au0 Rb2 3.575767 1_455
Au0 Rb0 3.663692 1_555
Au0 Rb1 3.898341 1_565
Au0 Rb1 3.898341 1_556
Au0 Rb3 3.974299 1_556
Au0 Rb3 3.974299 1_565
Au1 Sn1 2.626247 1_555
Au1 Au2 2.764520 1_564
Au1 Rb2 3.575767 1_554
Au1 Rb0 3.663692 1_555
Au1 Rb1 3.898341 1_655
Au1 Rb1 3.898341 1_565
Au1 Rb3 3.974299 1_565
Au1 Rb3 3.974299 1_655
Au2 Sn1 2.626247 1_555
Au2 Rb2 3.575767 1_545
Au2 Rb0 3.663692 1_555
Au2 Rb1 3.898341 1_655
Au2 Rb1 3.898341 1_556
Au2 Rb3 3.974299 1_556
Au2 Rb3 3.974299 1_655
Au3 Sn0 2.626247 1_555
Au3 Au4 2.764520 1_465
Au3 Au5 2.764520 1_564
Au3 Rb3 3.575767 1_565
Au3 Rb1 3.663692 1_555
Au3 Rb0 3.898341 1_455
Au3 Rb0 3.898341 1_554
Au3 Rb2 3.974299 1_554
Au3 Rb2 3.974299 1_455
Au4 Sn0 2.626247 1_555
Au4 Au5 2.764520 1_654
Au4 Rb3 3.575767 1_655
Au4 Rb1 3.663692 1_555
Au4 Rb0 3.898341 1_545
Au4 Rb0 3.898341 1_554
Au4 Rb2 3.974299 1_554
Au4 Rb2 3.974299 1_545
Au5 Sn0 2.626247 1_555
Au5 Rb3 3.575767 1_556
Au5 Rb1 3.663692 1_555
Au5 Rb0 3.898341 1_455
Au5 Rb0 3.898341 1_545
Au5 Rb2 3.974299 1_545
Au5 Rb2 3.974299 1_455
