# generated using pymatgen
data_MgCd3P7N12
_symmetry_space_group_name_H-M   'P 1'
_cell_length_a   7.31582647
_cell_length_b   7.31736434
_cell_length_c   7.31691864
_cell_angle_alpha   111.07683530
_cell_angle_beta   108.78385947
_cell_angle_gamma   108.75206723
_symmetry_Int_Tables_number   1
_chemical_formula_structural   MgCd3P7N12
_chemical_formula_sum   'Mg1 Cd3 P7 N12'
_cell_volume   300.65977330
_cell_formula_units_Z   1
loop_
 _symmetry_equiv_pos_site_id
 _symmetry_equiv_pos_as_xyz
  1  'x, y, z'
loop_
 _atom_site_type_symbol
 _atom_site_label
 _atom_site_symmetry_multiplicity
 _atom_site_fract_x
 _atom_site_fract_y
 _atom_site_fract_z
 _atom_site_occupancy
  Mg  Mg0  1  0.61681460  0.99220888  0.99241022  1
  Cd  Cd0  1  0.00843496  0.01505251  0.68185929  1
  Cd  Cd1  1  0.00776455  0.68189137  0.01501911  1
  Cd  Cd2  1  0.33521811  0.31823448  0.31814217  1
  P  P0  1  0.25292116  0.74849255  0.50135217  1
  P  P1  1  0.75492262  0.25058128  0.49872059  1
  P  P2  1  0.75495246  0.49871266  0.25073079  1
  P  P3  1  0.25279042  0.50127064  0.74843953  1
  P  P4  1  0.50450832  0.75090348  0.24979501  1
  P  P5  1  0.50451875  0.24963949  0.75082130  1
  P  P6  1  0.96148508  0.99471126  0.99425367  1
  N  N0  1  0.71175800  0.27944183  0.27945648  1
  N  N1  1  0.29039900  0.71326475  0.28717329  1
  N  N2  1  0.29481943  0.57212831  0.57213876  1
  N  N3  1  0.57502306  0.57152608  0.28505543  1
  N  N4  1  0.42814890  0.72088424  0.00023247  1
  N  N5  1  0.00354545  0.71376432  0.43230944  1
  N  N6  1  0.57499776  0.28467894  0.57144902  1
  N  N7  1  0.72254333  0.99997665  0.42277727  1
  N  N8  1  0.42826451  0.00023901  0.72110512  1
  N  N9  1  0.72239536  0.42295167  0.00002449  1
  N  N10  1  0.29030629  0.28701850  0.71287013  1
  N  N11  1  0.00346889  0.43242709  0.71386423  1
loop_
_geom_bond_atom_site_label_1
_geom_bond_atom_site_label_2
_geom_bond_distance
_geom_bond_site_symmetry_2
Mg0 N8 2.054131 1_565
Mg0 N4 2.054463 1_556
Mg0 N0 2.063515 1_566
Mg0 P6 2.511366 1_555
Cd0 N10 2.235981 1_555
Cd0 N7 2.264544 1_445
Cd0 N5 2.282029 1_545
Cd0 P6 2.466230 1_445
Cd1 N1 2.237823 1_555
Cd1 N9 2.262817 1_455
Cd1 N11 2.283452 1_554
Cd1 P6 2.468322 1_454
Cd2 N3 2.253277 1_555
Cd2 N6 2.254571 1_555
Cd2 N2 2.283908 1_555
Cd2 P6 2.515280 1_444
N0 P2 1.636381 1_555
N0 P1 1.636617 1_555
N1 P0 1.621457 1_555
N1 P4 1.630003 1_555
N2 P0 1.631104 1_555
N2 P3 1.631383 1_555
N3 P2 1.627044 1_555
N3 P4 1.627492 1_555
N4 P3 1.626489 1_554
N4 P4 1.634131 1_555
N5 P2 1.627619 1_455
N5 P0 1.632247 1_555
N6 P1 1.626296 1_555
N6 P5 1.626949 1_555
N7 P1 1.621925 1_565
N7 P4 1.624680 1_555
N8 P0 1.626757 1_545
N8 P5 1.634279 1_555
N9 P2 1.622153 1_555
N9 P5 1.624558 1_554
N10 P3 1.621766 1_555
N10 P5 1.630282 1_555
N11 P1 1.627694 1_455
N11 P3 1.632520 1_555
