# generated using pymatgen
data_Zr2AlFe2Os
_symmetry_space_group_name_H-M   'P 1'
_cell_length_a   5.10776309
_cell_length_b   5.14989779
_cell_length_c   5.10776308
_cell_angle_alpha   60.49746336
_cell_angle_beta   59.11106791
_cell_angle_gamma   60.49746324
_symmetry_Int_Tables_number   1
_chemical_formula_structural   Zr2AlFe2Os
_chemical_formula_sum   'Zr2 Al1 Fe2 Os1'
_cell_volume   95.04405567
_cell_formula_units_Z   1
loop_
 _symmetry_equiv_pos_site_id
 _symmetry_equiv_pos_as_xyz
  1  'x, y, z'
loop_
 _atom_site_type_symbol
 _atom_site_label
 _atom_site_symmetry_multiplicity
 _atom_site_fract_x
 _atom_site_fract_y
 _atom_site_fract_z
 _atom_site_occupancy
  Zr  Zr0  1  0.12374608  0.12242892  0.12374608  1
  Zr  Zr1  1  0.87625392  0.87757108  0.87625392  1
  Al  Al0  1  0.50000000  0.50000000  0.50000000  1
  Fe  Fe0  1  0.00000000  0.50000000  0.50000000  1
  Fe  Fe1  1  0.50000000  0.50000000  0.00000000  1
  Os  Os0  1  0.50000000  0.00000000  0.50000000  1
loop_
_geom_bond_atom_site_label_1
_geom_bond_atom_site_label_2
_geom_bond_distance
_geom_bond_site_symmetry_2
Zr0 Zr1 3.093056 1_444
Zr0 Zr1 3.125557 1_445
Zr0 Zr1 3.125557 1_544
Zr0 Zr1 3.205693 1_454
Al0 Fe1 2.553882 1_556
Al0 Fe1 2.553882 1_555
Al0 Fe0 2.553882 1_555
Al0 Fe0 2.553882 1_655
Al0 Os0 2.574949 1_555
Al0 Os0 2.574949 1_565
Al0 Zr1 2.986126 1_455
Al0 Zr0 2.986126 1_655
Al0 Zr1 2.986126 1_554
Al0 Zr0 2.986126 1_556
Al0 Zr1 3.052704 1_545
Al0 Zr0 3.052704 1_565
Fe0 Fe1 2.519491 1_555
Fe0 Fe1 2.519491 1_456
Fe0 Os0 2.583737 1_465
Fe0 Os0 2.583737 1_555
Fe0 Zr0 3.008099 1_565
Fe0 Zr1 3.008099 1_445
Fe0 Zr0 3.014338 1_556
Fe0 Zr1 3.014338 1_454
Fe0 Zr1 3.016060 1_455
Fe0 Zr0 3.016060 1_555
Fe1 Os0 2.583737 1_555
Fe1 Os0 2.583737 1_564
Fe1 Zr0 3.008099 1_565
Fe1 Zr1 3.008099 1_544
Fe1 Zr0 3.014338 1_655
Fe1 Zr1 3.014338 1_454
Fe1 Zr1 3.016060 1_554
Fe1 Zr0 3.016060 1_555
Os0 Zr0 2.956278 1_556
Os0 Zr1 2.956278 1_544
Os0 Zr0 2.956278 1_655
Os0 Zr1 2.956278 1_445
Os0 Zr1 3.031434 1_545
Os0 Zr0 3.031434 1_555
