# generated using pymatgen
data_Nb3Te5Se
_symmetry_space_group_name_H-M   'P 1'
_cell_length_a   7.59374082
_cell_length_b   7.59374214
_cell_length_c   9.67475784
_cell_angle_alpha   68.65531158
_cell_angle_beta   68.65530878
_cell_angle_gamma   27.92772647
_symmetry_Int_Tables_number   1
_chemical_formula_structural   Nb3Te5Se
_chemical_formula_sum   'Nb3 Te5 Se1'
_cell_volume   242.21933963
_cell_formula_units_Z   1
loop_
 _symmetry_equiv_pos_site_id
 _symmetry_equiv_pos_as_xyz
  1  'x, y, z'
loop_
 _atom_site_type_symbol
 _atom_site_label
 _atom_site_symmetry_multiplicity
 _atom_site_fract_x
 _atom_site_fract_y
 _atom_site_fract_z
 _atom_site_occupancy
  Nb  Nb0  1  0.99787761  0.99787761  0.00126670  1
  Nb  Nb1  1  0.36333238  0.36333238  0.28532944  1
  Nb  Nb2  1  0.63415588  0.63415588  0.70972795  1
  Te  Te0  1  0.65186324  0.65186324  0.97579231  1
  Te  Te1  1  0.70254989  0.70254989  0.38222143  1
  Te  Te2  1  0.29419177  0.29419177  0.61252195  1
  Te  Te3  1  0.99596986  0.99596986  0.70377221  1
  Te  Te4  1  0.99782068  0.99782068  0.30116199  1
  Se  Se0  1  0.36223969  0.36223969  0.02820803  1
loop_
_geom_bond_atom_site_label_1
_geom_bond_atom_site_label_2
_geom_bond_distance
_geom_bond_site_symmetry_2
Nb0 Se0 2.651680 1_565
Nb0 Se0 2.651681 1_655
Nb0 Te0 2.854792 1_654
Nb0 Te0 2.854793 1_564
Nb0 Te3 2.888851 1_554
Nb0 Te4 2.901100 1_555
Nb1 Se0 2.493672 1_555
Nb1 Te4 2.745560 1_545
Nb1 Te4 2.745561 1_455
Nb1 Te1 2.861090 1_455
Nb1 Te1 2.861091 1_545
Nb1 Te2 2.939244 1_555
Nb2 Te0 2.682923 1_555
Nb2 Te3 2.756312 1_455
Nb2 Te3 2.756313 1_545
Nb2 Te2 2.853396 1_655
Nb2 Te2 2.853397 1_565
Nb2 Te1 2.942775 1_555
