# generated using pymatgen
data_ZrGa2
_symmetry_space_group_name_H-M   'P 1'
_cell_length_a   3.98483322
_cell_length_b   4.12734508
_cell_length_c   6.75735286
_cell_angle_alpha   89.99999947
_cell_angle_beta   107.11950014
_cell_angle_gamma   90.00000063
_symmetry_Int_Tables_number   1
_chemical_formula_structural   ZrGa2
_chemical_formula_sum   'Zr2 Ga4'
_cell_volume   106.21256113
_cell_formula_units_Z   2
loop_
 _symmetry_equiv_pos_site_id
 _symmetry_equiv_pos_as_xyz
  1  'x, y, z'
loop_
 _atom_site_type_symbol
 _atom_site_label
 _atom_site_symmetry_multiplicity
 _atom_site_fract_x
 _atom_site_fract_y
 _atom_site_fract_z
 _atom_site_occupancy
  Zr  Zr0  1  0.64959412  -0.00000000  0.29921531  1
  Zr  Zr1  1  0.35040588  0.00000001  0.70078469  1
  Ga  Ga0  1  0.00000000  -0.00000000  0.00000000  1
  Ga  Ga1  1  0.50000000  0.50000000  1.00000000  1
  Ga  Ga2  1  0.82185524  0.50000000  0.64358349  1
  Ga  Ga3  1  0.17814476  0.50000000  0.35641650  1
loop_
_geom_bond_atom_site_label_1
_geom_bond_atom_site_label_2
_geom_bond_distance
_geom_bond_site_symmetry_2
Ga0 Zr0 2.774866 1_455
Ga0 Zr1 2.774866 1_554
Ga0 Zr1 2.776199 1_454
Ga0 Zr0 2.776199 1_555
Ga1 Zr1 2.827119 1_555
Ga1 Zr0 2.827119 1_556
Ga1 Zr0 2.827119 1_566
Ga1 Zr1 2.827119 1_565
Ga2 Ga3 2.720875 1_655
Ga2 Ga3 2.722997 1_555
Ga2 Zr1 2.892211 1_655
Ga2 Zr1 2.892211 1_665
Ga2 Zr1 2.892226 1_555
Ga2 Zr1 2.892226 1_565
Ga2 Zr0 3.033898 1_565
Ga2 Zr0 3.033898 1_555
Ga3 Zr0 2.892211 1_455
Ga3 Zr0 2.892211 1_465
Ga3 Zr0 2.892226 1_565
Ga3 Zr0 2.892226 1_555
Ga3 Zr1 3.033898 1_555
Ga3 Zr1 3.033898 1_565
