# generated using pymatgen
data_ZrTi6(BiPb)2
_symmetry_space_group_name_H-M   'P 1'
_cell_length_a   8.36495099
_cell_length_b   8.36495068
_cell_length_c   8.36495093
_cell_angle_alpha   40.46234303
_cell_angle_beta   40.46234499
_cell_angle_gamma   40.46234553
_symmetry_Int_Tables_number   1
_chemical_formula_structural   ZrTi6(BiPb)2
_chemical_formula_sum   'Zr1 Ti6 Bi2 Pb2'
_cell_volume   222.29814286
_cell_formula_units_Z   1
loop_
 _symmetry_equiv_pos_site_id
 _symmetry_equiv_pos_as_xyz
  1  'x, y, z'
loop_
 _atom_site_type_symbol
 _atom_site_label
 _atom_site_symmetry_multiplicity
 _atom_site_fract_x
 _atom_site_fract_y
 _atom_site_fract_z
 _atom_site_occupancy
  Zr  Zr0  1  0.99989193  0.99989193  0.99989193  1
  Ti  Ti0  1  0.59962380  0.59962380  0.11739176  1
  Ti  Ti1  1  0.87946310  0.40186730  0.40186830  1
  Ti  Ti2  1  0.40186730  0.87946310  0.40186830  1
  Ti  Ti3  1  0.59962480  0.11739076  0.59962380  1
  Ti  Ti4  1  0.11739076  0.59962480  0.59962380  1
  Ti  Ti5  1  0.40186830  0.40186830  0.87946210  1
  Bi  Bi0  1  0.12695509  0.12695509  0.12695509  1
  Bi  Bi1  1  0.33155754  0.33155754  0.33155754  1
  Pb  Pb0  1  0.66832581  0.66832581  0.66832581  1
  Pb  Pb1  1  0.87343155  0.87343155  0.87343155  1
loop_
_geom_bond_atom_site_label_1
_geom_bond_atom_site_label_2
_geom_bond_distance
_geom_bond_site_symmetry_2
Ti0 Ti3 2.789882 1_555
Ti0 Ti4 2.789882 1_555
Ti0 Ti3 2.995464 1_564
Ti0 Ti4 2.995464 1_654
Ti0 Ti2 3.236138 1_555
Ti0 Ti1 3.236138 1_555
Ti1 Ti5 2.763048 1_555
Ti1 Ti2 2.763057 1_555
Ti1 Ti2 3.022289 1_645
Ti1 Ti5 3.022298 1_654
Ti1 Ti3 3.236135 1_555
Ti2 Ti5 2.763048 1_555
Ti2 Ti5 3.022298 1_564
Ti2 Ti4 3.236135 1_555
Ti3 Ti4 2.789891 1_555
Ti3 Ti4 2.995455 1_645
Ti3 Ti5 3.236138 1_555
Ti4 Ti5 3.236138 1_555
Bi0 Ti1 2.901866 1_455
Bi0 Ti2 2.901866 1_545
Bi0 Ti5 2.901869 1_554
Bi0 Zr0 2.923394 1_444
Bi0 Ti4 2.934906 1_545
Bi0 Ti3 2.934906 1_455
Bi0 Ti0 2.934909 1_545
Bi0 Ti0 2.934909 1_455
Bi0 Ti4 2.934912 1_554
Bi0 Ti3 2.934912 1_554
Bi1 Ti0 2.948128 1_555
Bi1 Ti4 2.948131 1_555
Bi1 Ti3 2.948131 1_555
Bi1 Ti2 2.958177 1_545
Bi1 Ti1 2.958177 1_455
Bi1 Ti5 2.958180 1_554
Bi1 Zr0 3.340392 1_454
Bi1 Zr0 3.340392 1_445
Bi1 Zr0 3.340392 1_544
Bi1 Pb0 3.341106 1_554
Bi1 Pb0 3.341106 1_545
Bi1 Pb0 3.341106 1_455
Pb0 Ti5 2.938481 1_555
Pb0 Ti1 2.938484 1_555
Pb0 Ti2 2.938484 1_555
Pb0 Ti3 2.950233 1_565
Pb0 Ti4 2.950233 1_655
Pb0 Ti0 2.950236 1_556
Pb0 Zr0 3.340419 1_545
Pb0 Zr0 3.340419 1_554
Pb0 Zr0 3.340419 1_455
Pb1 Ti4 2.900709 1_655
Pb1 Ti3 2.900709 1_565
Pb1 Ti0 2.900712 1_556
Pb1 Zr0 2.909526 1_555
Pb1 Ti1 2.933576 1_565
Pb1 Ti2 2.933576 1_655
Pb1 Ti5 2.933579 1_565
Pb1 Ti5 2.933579 1_655
Pb1 Ti1 2.933582 1_556
Pb1 Ti2 2.933582 1_556
