# generated using pymatgen
data_Cs2Sn(IO3)6
_symmetry_space_group_name_H-M   'P 1'
_cell_length_a   7.82336373
_cell_length_b   7.82336514
_cell_length_c   7.82336422
_cell_angle_alpha   97.11423634
_cell_angle_beta   97.11423131
_cell_angle_gamma   97.11423885
_symmetry_Int_Tables_number   1
_chemical_formula_structural   Cs2Sn(IO3)6
_chemical_formula_sum   'Cs2 Sn1 I6 O18'
_cell_volume   466.75064907
_cell_formula_units_Z   1
loop_
 _symmetry_equiv_pos_site_id
 _symmetry_equiv_pos_as_xyz
  1  'x, y, z'
loop_
 _atom_site_type_symbol
 _atom_site_label
 _atom_site_symmetry_multiplicity
 _atom_site_fract_x
 _atom_site_fract_y
 _atom_site_fract_z
 _atom_site_occupancy
  Cs  Cs0  1  0.16093001  0.16093001  0.16093001  1
  Cs  Cs1  1  0.83906999  0.83906999  0.83906999  1
  Sn  Sn0  1  0.50000000  0.50000000  0.50000000  1
  I  I0  1  0.70148960  0.34001685  0.12929833  1
  I  I1  1  0.65998315  0.87070167  0.29851040  1
  I  I2  1  0.12929833  0.70148960  0.34001685  1
  I  I3  1  0.87070167  0.29851040  0.65998315  1
  I  I4  1  0.29851040  0.65998315  0.87070167  1
  I  I5  1  0.34001685  0.12929833  0.70148960  1
  O  O0  1  0.89554376  0.39956143  0.28690180  1
  O  O1  1  0.60043857  0.71309820  0.10445624  1
  O  O2  1  0.71309820  0.10445624  0.60043857  1
  O  O3  1  0.66570937  0.70880040  0.45431299  1
  O  O4  1  0.69048469  0.10769310  0.09232227  1
  O  O5  1  0.45431299  0.66570937  0.70880040  1
  O  O6  1  0.29119960  0.54568701  0.33429063  1
  O  O7  1  0.33429063  0.29119960  0.54568701  1
  O  O8  1  0.10769310  0.09232227  0.69048469  1
  O  O9  1  0.90767773  0.30951531  0.89230690  1
  O  O10  1  0.70880040  0.45431299  0.66570937  1
  O  O11  1  0.10445624  0.60043857  0.71309820  1
  O  O12  1  0.54568701  0.33429063  0.29119960  1
  O  O13  1  0.30951531  0.89230690  0.90767773  1
  O  O14  1  0.89230690  0.90767773  0.30951531  1
  O  O15  1  0.39956143  0.28690180  0.89554376  1
  O  O16  1  0.28690180  0.89554376  0.39956143  1
  O  O17  1  0.09232227  0.69048469  0.10769310  1
loop_
_geom_bond_atom_site_label_1
_geom_bond_atom_site_label_2
_geom_bond_distance
_geom_bond_site_symmetry_2
Cs0 O15 3.127047 1_554
Cs0 O0 3.127047 1_455
Cs0 O16 3.127047 1_545
Cs0 O12 3.134537 1_555
Cs0 O7 3.134537 1_555
Cs0 O6 3.134538 1_555
Cs0 O14 3.136468 1_445
Cs0 O13 3.136468 1_544
Cs0 O9 3.136468 1_454
Cs1 O1 3.127047 1_556
Cs1 O11 3.127047 1_655
Cs1 O2 3.127047 1_565
Cs1 O5 3.134537 1_555
Cs1 O3 3.134537 1_555
Cs1 O10 3.134538 1_555
Cs1 O8 3.136468 1_665
Cs1 O4 3.136468 1_566
Cs1 O17 3.136468 1_656
I0 O4 1.794278 1_555
I0 O0 1.805815 1_555
I0 O12 1.864128 1_555
I1 O14 1.794277 1_555
I1 O1 1.805815 1_555
I1 O3 1.864128 1_555
I2 O17 1.794277 1_555
I2 O16 1.805815 1_555
I2 O6 1.864128 1_555
I3 O9 1.794277 1_555
I3 O2 1.805815 1_555
I3 O10 1.864128 1_555
I4 O13 1.794278 1_555
I4 O11 1.805815 1_555
I4 O5 1.864128 1_555
I5 O8 1.794277 1_555
I5 O15 1.805815 1_555
I5 O7 1.864128 1_555
O3 Sn0 2.052233 1_555
O5 Sn0 2.052233 1_555
O6 Sn0 2.052233 1_555
O7 Sn0 2.052233 1_555
O10 Sn0 2.052233 1_555
O12 Sn0 2.052233 1_555
