# generated using pymatgen
data_Na2NiPtO4
_symmetry_space_group_name_H-M   'P 1'
_cell_length_a   3.09325729
_cell_length_b   5.45646841
_cell_length_c   10.33260133
_cell_angle_alpha   100.86045356
_cell_angle_beta   90.00054721
_cell_angle_gamma   90.00004231
_symmetry_Int_Tables_number   1
_chemical_formula_structural   Na2NiPtO4
_chemical_formula_sum   'Na4 Ni2 Pt2 O8'
_cell_volume   171.27272526
_cell_formula_units_Z   2
loop_
 _symmetry_equiv_pos_site_id
 _symmetry_equiv_pos_as_xyz
  1  'x, y, z'
loop_
 _atom_site_type_symbol
 _atom_site_label
 _atom_site_symmetry_multiplicity
 _atom_site_fract_x
 _atom_site_fract_y
 _atom_site_fract_z
 _atom_site_occupancy
  Na  Na0  1  0.99999838  0.99999778  0.99999005  1
  Na  Na1  1  0.00000708  0.50000289  0.50000943  1
  Na  Na2  1  0.49999437  0.24999099  0.24999779  1
  Na  Na3  1  0.50000741  0.75000650  0.75000103  1
  Ni  Ni0  1  0.99999173  0.25001240  0.74999701  1
  Ni  Ni1  1  0.99998958  0.74998755  0.25000304  1
  Pt  Pt0  1  0.50000439  0.49996161  0.99991737  1
  Pt  Pt1  1  0.49999451  0.00003888  0.50008263  1
  O  O0  1  0.50000252  0.83474939  0.13037137  1
  O  O1  1  0.50000947  0.33477033  0.63038119  1
  O  O2  1  0.50000335  0.66524136  0.36963656  1
  O  O3  1  0.49999830  0.16523969  0.86961172  1
  O  O4  1  0.00000693  0.08811777  0.38757476  1
  O  O5  1  0.99998625  0.58812434  0.88755377  1
  O  O6  1  0.99999201  0.41187361  0.11242296  1
  O  O7  1  0.00001172  0.91188590  0.61244832  1
loop_
_geom_bond_atom_site_label_1
_geom_bond_atom_site_label_2
_geom_bond_distance
_geom_bond_site_symmetry_2
Na0 O5 2.327336 1_555
Na0 O6 2.327337 1_566
Na0 O3 2.340405 1_565
Na0 O3 2.340421 1_665
Na0 O0 2.340450 1_556
Na0 O0 2.340451 1_656
Na1 O4 2.327387 1_555
Na1 O7 2.327390 1_555
Na1 O1 2.340341 1_555
Na1 O1 2.340347 1_455
Na1 O2 2.340367 1_455
Na1 O2 2.340368 1_555
Na2 O0 2.367720 1_545
Na2 O2 2.367805 1_555
Na2 O4 2.380338 1_555
Na2 O6 2.380361 1_455
Na2 O6 2.380368 1_555
Na2 O4 2.380371 1_655
Na3 O3 2.367625 1_565
Na3 O1 2.367672 1_555
Na3 O5 2.380160 1_555
Na3 O7 2.380187 1_555
Na3 O7 2.380221 1_655
Na3 O5 2.380262 1_455
Ni0 O1 2.085352 1_555
Ni0 O3 2.085414 1_555
Ni0 O3 2.085428 1_655
Ni0 O1 2.085451 1_655
Ni0 O5 2.106101 1_555
Ni0 O7 2.106118 1_645
Ni1 O2 2.085473 1_555
Ni1 O0 2.085474 1_555
Ni1 O2 2.085519 1_655
Ni1 O0 2.085551 1_655
Ni1 O6 2.106232 1_555
Ni1 O4 2.106254 1_665
O0 Pt0 2.055739 1_554
O1 Pt1 2.054720 1_555
O2 Pt1 2.055740 1_565
O3 Pt0 2.054716 1_555
O4 Pt1 2.045684 1_555
O4 Pt1 2.045759 1_455
O5 Pt0 2.044931 1_555
O5 Pt0 2.045000 1_655
O6 Pt0 2.045687 1_554
O6 Pt0 2.045761 1_654
O7 Pt1 2.044928 1_565
O7 Pt1 2.044993 1_465
