# generated using pymatgen
data_Zr5AlInSb2
_symmetry_space_group_name_H-M   'P 1'
_cell_length_a   8.69532604
_cell_length_b   8.73001258
_cell_length_c   5.86540199
_cell_angle_alpha   90.00000000
_cell_angle_beta   90.00000000
_cell_angle_gamma   120.13205152
_symmetry_Int_Tables_number   1
_chemical_formula_structural   Zr5AlInSb2
_chemical_formula_sum   'Zr10 Al2 In2 Sb4'
_cell_volume   385.07890268
_cell_formula_units_Z   2
loop_
 _symmetry_equiv_pos_site_id
 _symmetry_equiv_pos_as_xyz
  1  'x, y, z'
loop_
 _atom_site_type_symbol
 _atom_site_label
 _atom_site_symmetry_multiplicity
 _atom_site_fract_x
 _atom_site_fract_y
 _atom_site_fract_z
 _atom_site_occupancy
  Zr  Zr0  1  0.72596719  0.72442701  0.75000000  1
  Zr  Zr1  1  0.27403281  0.99845983  0.75000000  1
  Zr  Zr2  1  1.00000000  0.27721718  0.75000000  1
  Zr  Zr3  1  0.26611860  0.26603039  0.25000000  1
  Zr  Zr4  1  0.73388140  0.99991179  0.25000000  1
  Zr  Zr5  1  0.00000000  0.73291066  0.25000000  1
  Zr  Zr6  1  0.66864574  0.33481821  0.99829442  1
  Zr  Zr7  1  0.33135426  0.66617347  0.99829442  1
  Zr  Zr8  1  0.33135426  0.66617347  0.50170558  1
  Zr  Zr9  1  0.66864574  0.33481821  0.50170558  1
  Al  Al0  1  0.00000000  0.00238646  0.98920614  1
  Al  Al1  1  0.00000000  0.00238646  0.51079386  1
  In  In0  1  0.38058665  0.38045876  0.75000000  1
  In  In1  1  0.61941335  0.99987210  0.75000000  1
  Sb  Sb0  1  0.00000000  0.61617579  0.75000000  1
  Sb  Sb1  1  0.60793877  0.60944600  0.25000000  1
  Sb  Sb2  1  0.39206123  0.00150723  0.25000000  1
  Sb  Sb3  1  1.00000000  0.38682395  0.25000000  1
loop_
_geom_bond_atom_site_label_1
_geom_bond_atom_site_label_2
_geom_bond_distance
_geom_bond_site_symmetry_2
Zr6 Zr9 2.912693 1_555
Zr6 Zr9 2.952709 1_556
Zr7 Zr8 2.912693 1_555
Zr7 Zr8 2.952709 1_556
Al0 Zr3 2.764901 1_556
Al0 Zr4 2.764901 1_446
Al0 Zr2 2.779397 1_455
Al0 Zr0 2.780191 1_445
Al0 Zr1 2.780191 1_545
Al0 Zr5 2.806109 1_546
Al1 Zr3 2.764901 1_555
Al1 Zr4 2.764901 1_445
Al1 Zr2 2.779397 1_455
Al1 Zr0 2.780191 1_445
Al1 Zr1 2.780191 1_545
Al1 Zr5 2.806109 1_545
In0 Zr2 2.961314 1_455
In0 Zr1 2.979524 1_545
In0 Zr0 2.997026 1_555
In0 Zr6 3.091205 1_555
In0 Zr9 3.091205 1_555
In0 Zr3 3.096948 1_555
In0 Zr3 3.096948 1_556
In0 Zr7 3.098024 1_555
In0 Zr8 3.098024 1_555
In1 Zr2 2.961314 1_565
In1 Zr0 2.979524 1_555
In1 Zr1 2.997026 1_555
In1 Zr7 3.091200 1_555
In1 Zr8 3.091200 1_555
In1 Zr4 3.096948 1_555
In1 Zr4 3.096948 1_556
In1 Zr6 3.098016 1_565
In1 Zr9 3.098016 1_565
Sb0 Zr2 2.959113 1_455
Sb0 Zr1 2.971811 1_555
Sb0 Zr0 2.971812 1_455
Sb0 Zr7 3.057834 1_555
Sb0 Zr8 3.057834 1_555
Sb0 Zr6 3.057837 1_455
Sb0 Zr9 3.057837 1_455
Sb0 Zr5 3.104721 1_556
Sb0 Zr5 3.104721 1_555
Sb1 Zr3 2.979254 1_555
Sb1 Zr4 3.011829 1_555
Sb1 Zr5 3.015721 1_655
Sb1 Zr8 3.066699 1_555
Sb1 Zr7 3.066699 1_554
Sb1 Zr9 3.078458 1_555
Sb1 Zr6 3.078458 1_554
Sb1 Zr0 3.102791 1_555
Sb1 Zr0 3.102791 1_554
Sb2 Zr4 2.979254 1_545
Sb2 Zr3 3.011829 1_555
Sb2 Zr5 3.015720 1_545
Sb2 Zr9 3.066694 1_555
Sb2 Zr6 3.066694 1_554
Sb2 Zr8 3.078450 1_545
Sb2 Zr7 3.078450 1_544
Sb2 Zr1 3.102791 1_544
Sb2 Zr1 3.102791 1_545
Sb3 Zr4 2.986046 1_545
Sb3 Zr3 2.986047 1_655
Sb3 Zr5 3.021341 1_655
Sb3 Zr9 3.061687 1_555
Sb3 Zr6 3.061687 1_554
Sb3 Zr8 3.061689 1_655
Sb3 Zr7 3.061689 1_654
Sb3 Zr2 3.084855 1_554
Sb3 Zr2 3.084855 1_555
