# generated using pymatgen
data_Nb6BiPbS12
_symmetry_space_group_name_H-M   'P 1'
_cell_length_a   5.86169306
_cell_length_b   5.86169302
_cell_length_c   14.52689120
_cell_angle_alpha   90.00000000
_cell_angle_beta   90.00000000
_cell_angle_gamma   120.00000026
_symmetry_Int_Tables_number   1
_chemical_formula_structural   Nb6BiPbS12
_chemical_formula_sum   'Nb6 Bi1 Pb1 S12'
_cell_volume   432.26438829
_cell_formula_units_Z   1
loop_
 _symmetry_equiv_pos_site_id
 _symmetry_equiv_pos_as_xyz
  1  'x, y, z'
loop_
 _atom_site_type_symbol
 _atom_site_label
 _atom_site_symmetry_multiplicity
 _atom_site_fract_x
 _atom_site_fract_y
 _atom_site_fract_z
 _atom_site_occupancy
  Nb  Nb0  1  0.00000000  0.00000000  0.75590653  1
  Nb  Nb1  1  0.00000000  0.00000000  0.24409347  1
  Nb  Nb2  1  0.33333300  0.66666700  0.24406145  1
  Nb  Nb3  1  0.66666700  0.33333300  0.75593855  1
  Nb  Nb4  1  0.66666700  0.33333300  0.24406145  1
  Nb  Nb5  1  0.33333300  0.66666700  0.75593855  1
  Bi  Bi0  1  0.00000000  0.00000000  0.00000000  1
  Pb  Pb0  1  0.00000000  0.00000000  0.50000000  1
  S  S0  1  0.33809796  0.00000000  0.13666444  1
  S  S1  1  1.00000000  0.33809796  0.13666444  1
  S  S2  1  0.66190204  0.66190204  0.13666444  1
  S  S3  1  0.33603286  0.33603286  0.64892619  1
  S  S4  1  0.66396714  0.66396714  0.35107381  1
  S  S5  1  0.66396714  0.00000000  0.64892619  1
  S  S6  1  0.00000000  0.66396714  0.64892619  1
  S  S7  1  0.00000000  0.66190204  0.86333556  1
  S  S8  1  0.33809796  0.33809796  0.86333556  1
  S  S9  1  1.00000000  0.33603286  0.35107381  1
  S  S10  1  0.33603286  0.00000000  0.35107381  1
  S  S11  1  0.66190204  0.00000000  0.86333556  1
loop_
_geom_bond_atom_site_label_1
_geom_bond_atom_site_label_2
_geom_bond_distance
_geom_bond_site_symmetry_2
Nb0 S3 2.508985 1_555
Nb0 S6 2.508985 1_545
Nb0 S5 2.508985 1_455
Nb0 S7 2.522526 1_545
Nb0 S8 2.522526 1_555
Nb0 S11 2.522526 1_455
Nb1 S9 2.508985 1_455
Nb1 S4 2.508985 1_445
Nb1 S10 2.508985 1_555
Nb1 S1 2.522526 1_455
Nb1 S2 2.522526 1_445
Nb1 S0 2.522526 1_555
Nb2 S0 2.489572 1_565
Nb2 S1 2.489574 1_455
Nb2 S2 2.489576 1_555
Nb2 S10 2.490720 1_565
Nb2 S9 2.490722 1_455
Nb2 S4 2.490724 1_555
Nb3 S11 2.489572 1_555
Nb3 S7 2.489574 1_655
Nb3 S8 2.489576 1_555
Nb3 S5 2.490720 1_555
Nb3 S6 2.490722 1_655
Nb3 S3 2.490724 1_555
Nb4 S1 2.489572 1_555
Nb4 S0 2.489574 1_555
Nb4 S2 2.489576 1_555
Nb4 S9 2.490720 1_555
Nb4 S10 2.490722 1_555
Nb4 S4 2.490724 1_555
Nb5 S7 2.489572 1_555
Nb5 S11 2.489574 1_565
Nb5 S8 2.489576 1_555
Nb5 S6 2.490720 1_555
Nb5 S5 2.490722 1_565
Nb5 S3 2.490724 1_555
Bi0 S1 2.805190 1_455
Bi0 S7 2.805190 1_544
Bi0 S2 2.805190 1_445
Bi0 S8 2.805190 1_554
Bi0 S0 2.805190 1_555
Bi0 S11 2.805190 1_454
Pb0 S3 2.925791 1_555
Pb0 S6 2.925791 1_545
Pb0 S9 2.925791 1_455
Pb0 S4 2.925791 1_445
Pb0 S5 2.925791 1_455
Pb0 S10 2.925791 1_555
