# generated using pymatgen
data_Zr3Nb2SiSn3
_symmetry_space_group_name_H-M   'P 1'
_cell_length_a   8.54468549
_cell_length_b   8.54468548
_cell_length_c   5.71406652
_cell_angle_alpha   90.00000000
_cell_angle_beta   90.00000000
_cell_angle_gamma   120.00000387
_symmetry_Int_Tables_number   1
_chemical_formula_structural   Zr3Nb2SiSn3
_chemical_formula_sum   'Zr6 Nb4 Si2 Sn6'
_cell_volume   361.30009025
_cell_formula_units_Z   2
loop_
 _symmetry_equiv_pos_site_id
 _symmetry_equiv_pos_as_xyz
  1  'x, y, z'
loop_
 _atom_site_type_symbol
 _atom_site_label
 _atom_site_symmetry_multiplicity
 _atom_site_fract_x
 _atom_site_fract_y
 _atom_site_fract_z
 _atom_site_occupancy
  Zr  Zr0  1  0.73930369  0.73930369  0.75000000  1
  Zr  Zr1  1  0.26069631  1.00000000  0.75000000  1
  Zr  Zr2  1  1.00000000  0.26069631  0.75000000  1
  Zr  Zr3  1  0.26069631  0.26069631  0.25000000  1
  Zr  Zr4  1  0.73930369  0.00000000  0.25000000  1
  Zr  Zr5  1  0.00000000  0.73930369  0.25000000  1
  Nb  Nb0  1  0.66666700  0.33333300  0.00000000  1
  Nb  Nb1  1  0.33333300  0.66666700  0.00000000  1
  Nb  Nb2  1  0.33333300  0.66666700  0.50000000  1
  Nb  Nb3  1  0.66666700  0.33333300  0.50000000  1
  Si  Si0  1  0.00000000  0.00000000  0.00000000  1
  Si  Si1  1  0.00000000  0.00000000  0.50000000  1
  Sn  Sn0  1  0.39654788  0.39654788  0.75000000  1
  Sn  Sn1  1  0.60345212  1.00000000  0.75000000  1
  Sn  Sn2  1  1.00000000  0.60345212  0.75000000  1
  Sn  Sn3  1  0.60345212  0.60345212  0.25000000  1
  Sn  Sn4  1  0.39654788  0.00000000  0.25000000  1
  Sn  Sn5  1  0.00000000  0.39654788  0.25000000  1
loop_
_geom_bond_atom_site_label_1
_geom_bond_atom_site_label_2
_geom_bond_distance
_geom_bond_site_symmetry_2
Nb0 Nb3 2.857033 1_555
Nb0 Nb3 2.857033 1_554
Nb0 Sn1 2.984349 1_544
Nb0 Sn5 2.984349 1_655
Nb0 Sn4 2.984352 1_555
Nb0 Sn2 2.984352 1_554
Nb0 Sn3 2.984357 1_555
Nb0 Sn0 2.984357 1_554
Nb0 Zr4 3.507996 1_555
Nb0 Zr2 3.507996 1_554
Nb0 Zr5 3.508001 1_655
Nb0 Zr1 3.508001 1_544
Nb0 Zr0 3.508004 1_554
Nb0 Zr3 3.508004 1_555
Nb1 Nb2 2.857033 1_555
Nb1 Nb2 2.857033 1_554
Nb1 Sn4 2.984349 1_565
Nb1 Sn2 2.984349 1_454
Nb1 Sn1 2.984352 1_554
Nb1 Sn5 2.984352 1_555
Nb1 Sn0 2.984357 1_554
Nb1 Sn3 2.984357 1_555
Nb1 Zr1 3.507996 1_554
Nb1 Zr5 3.507996 1_555
Nb1 Zr2 3.508001 1_454
Nb1 Zr4 3.508001 1_565
Nb1 Zr3 3.508004 1_555
Nb1 Zr0 3.508004 1_554
Nb2 Sn4 2.984349 1_565
Nb2 Sn2 2.984349 1_455
Nb2 Sn1 2.984352 1_555
Nb2 Sn5 2.984352 1_555
Nb2 Sn0 2.984357 1_555
Nb2 Sn3 2.984357 1_555
Nb2 Zr1 3.507996 1_555
Nb2 Zr5 3.507996 1_555
Nb2 Zr2 3.508001 1_455
Nb2 Zr4 3.508001 1_565
Nb2 Zr3 3.508004 1_555
Nb2 Zr0 3.508004 1_555
Nb3 Sn1 2.984349 1_545
Nb3 Sn5 2.984349 1_655
Nb3 Sn4 2.984352 1_555
Nb3 Sn2 2.984352 1_555
Nb3 Sn3 2.984357 1_555
Nb3 Sn0 2.984357 1_555
Nb3 Zr4 3.507996 1_555
Nb3 Zr2 3.507996 1_555
Nb3 Zr5 3.508001 1_655
Nb3 Zr1 3.508001 1_545
Nb3 Zr0 3.508004 1_555
Nb3 Zr3 3.508004 1_555
Si0 Zr0 2.646265 1_444
Si0 Zr3 2.646265 1_555
Si0 Zr2 2.646265 1_454
Si0 Zr5 2.646265 1_545
Si0 Zr1 2.646265 1_544
Si0 Zr4 2.646265 1_455
Si1 Zr0 2.646265 1_445
Si1 Zr3 2.646265 1_555
Si1 Zr2 2.646265 1_455
Si1 Zr5 2.646265 1_545
Si1 Zr1 2.646265 1_545
Si1 Zr4 2.646265 1_455
Sn0 Zr0 2.928740 1_555
Sn0 Zr1 2.982502 1_545
Sn0 Zr2 2.982502 1_455
Sn0 Zr3 3.083848 1_555
Sn0 Zr3 3.083848 1_556
Sn1 Zr1 2.928741 1_555
Sn1 Zr2 2.982502 1_565
Sn1 Zr0 2.982502 1_555
Sn1 Zr4 3.083848 1_565
Sn1 Zr4 3.083848 1_566
Sn2 Zr2 2.928741 1_555
Sn2 Zr1 2.982502 1_655
Sn2 Zr0 2.982502 1_555
Sn2 Zr5 3.083848 1_655
Sn2 Zr5 3.083848 1_656
Sn3 Zr3 2.928740 1_555
Sn3 Zr4 2.982502 1_565
Sn3 Zr5 2.982502 1_655
Sn3 Zr0 3.083848 1_555
Sn3 Zr0 3.083848 1_554
Sn4 Zr4 2.928741 1_555
Sn4 Zr5 2.982502 1_545
Sn4 Zr3 2.982502 1_555
Sn4 Zr1 3.083848 1_544
Sn4 Zr1 3.083848 1_545
Sn5 Zr5 2.928741 1_555
Sn5 Zr4 2.982502 1_455
Sn5 Zr3 2.982502 1_555
Sn5 Zr2 3.083848 1_455
Sn5 Zr2 3.083848 1_454
