# generated using pymatgen
data_Zr4InPbC2
_symmetry_space_group_name_H-M   'P 1'
_cell_length_a   3.38692011
_cell_length_b   3.38692101
_cell_length_c   14.92781524
_cell_angle_alpha   90.00000000
_cell_angle_beta   90.00000000
_cell_angle_gamma   119.99999122
_symmetry_Int_Tables_number   1
_chemical_formula_structural   Zr4InPbC2
_chemical_formula_sum   'Zr4 In1 Pb1 C2'
_cell_volume   148.29856285
_cell_formula_units_Z   1
loop_
 _symmetry_equiv_pos_site_id
 _symmetry_equiv_pos_as_xyz
  1  'x, y, z'
loop_
 _atom_site_type_symbol
 _atom_site_label
 _atom_site_symmetry_multiplicity
 _atom_site_fract_x
 _atom_site_fract_y
 _atom_site_fract_z
 _atom_site_occupancy
  Zr  Zr0  1  0.33333300  0.66666700  0.08253255  1
  Zr  Zr1  1  0.33333300  0.66666700  0.41746745  1
  Zr  Zr2  1  0.66666700  0.33333300  0.58230083  1
  Zr  Zr3  1  0.66666700  0.33333300  0.91769917  1
  In  In0  1  0.33333300  0.66666700  0.75000000  1
  Pb  Pb0  1  0.66666700  0.33333300  0.25000000  1
  C  C0  1  0.00000000  0.00000000  0.00007608  1
  C  C1  1  0.00000000  0.00000000  0.49992392  1
loop_
_geom_bond_atom_site_label_1
_geom_bond_atom_site_label_2
_geom_bond_distance
_geom_bond_site_symmetry_2
In0 Zr3 3.176580 1_455
In0 Zr2 3.176580 1_455
In0 Zr3 3.176580 1_565
In0 Zr2 3.176580 1_565
In0 Zr3 3.176583 1_555
In0 Zr2 3.176583 1_555
Pb0 Zr1 3.173854 1_655
Pb0 Zr0 3.173854 1_655
Pb0 Zr1 3.173855 1_545
Pb0 Zr0 3.173855 1_545
Pb0 Zr1 3.173858 1_555
Pb0 Zr0 3.173858 1_555
C0 Zr3 2.309960 1_454
C0 Zr3 2.309963 1_554
C0 Zr3 2.309963 1_444
C0 Zr0 2.310593 1_545
C0 Zr0 2.310595 1_445
C0 Zr0 2.310595 1_555
C1 Zr2 2.309960 1_455
C1 Zr2 2.309963 1_555
C1 Zr2 2.309963 1_445
C1 Zr1 2.310593 1_545
C1 Zr1 2.310595 1_445
C1 Zr1 2.310595 1_555
