# generated using pymatgen
data_SbIrSeBr12
_symmetry_space_group_name_H-M   'P 1'
_cell_length_a   9.18543147
_cell_length_b   9.18543148
_cell_length_c   6.71409543
_cell_angle_alpha   72.39585469
_cell_angle_beta   72.39585034
_cell_angle_gamma   77.76467675
_symmetry_Int_Tables_number   1
_chemical_formula_structural   SbIrSeBr12
_chemical_formula_sum   'Sb1 Ir1 Se1 Br12'
_cell_volume   510.12320881
_cell_formula_units_Z   1
loop_
 _symmetry_equiv_pos_site_id
 _symmetry_equiv_pos_as_xyz
  1  'x, y, z'
loop_
 _atom_site_type_symbol
 _atom_site_label
 _atom_site_symmetry_multiplicity
 _atom_site_fract_x
 _atom_site_fract_y
 _atom_site_fract_z
 _atom_site_occupancy
  Sb  Sb0  1  0.27006653  0.27006653  0.73609135  1
  Ir  Ir0  1  0.99858196  0.99858196  0.99854097  1
  Se  Se0  1  0.72526525  0.72526525  0.26990468  1
  Br  Br0  1  0.96583258  0.25625123  0.74332627  1
  Br  Br1  1  0.25625123  0.96583258  0.74332627  1
  Br  Br2  1  0.04482782  0.74415451  0.25063111  1
  Br  Br3  1  0.74415451  0.04482782  0.25063111  1
  Br  Br4  1  0.20200124  0.53252402  0.80420212  1
  Br  Br5  1  0.53252402  0.20200124  0.80420212  1
  Br  Br6  1  0.78377904  0.47320142  0.21287059  1
  Br  Br7  1  0.47320142  0.78377904  0.21287059  1
  Br  Br8  1  0.12705138  0.12705138  0.16224046  1
  Br  Br9  1  0.87465439  0.87465439  0.82426724  1
  Br  Br10  1  0.65163430  0.65163430  0.65628491  1
  Br  Br11  1  0.35017733  0.35017733  0.33060820  1
loop_
_geom_bond_atom_site_label_1
_geom_bond_atom_site_label_2
_geom_bond_distance
_geom_bond_site_symmetry_2
Br0 Ir0 2.487032 1_545
Br0 Sb0 2.809319 1_655
Br1 Ir0 2.487032 1_455
Br1 Sb0 2.809319 1_565
Br2 Ir0 2.475556 1_454
Br2 Se0 2.938619 1_455
Br3 Ir0 2.475556 1_544
Br3 Se0 2.938619 1_545
Br4 Sb0 2.503389 1_555
Br5 Sb0 2.503389 1_555
Br6 Se0 2.383389 1_555
Br7 Se0 2.383389 1_555
Br8 Ir0 2.480380 1_444
Br8 Sb0 2.796836 1_554
Br9 Ir0 2.474116 1_555
Br9 Se0 2.923946 1_556
Br10 Se0 2.390818 1_555
Br11 Sb0 2.510116 1_555
