# generated using pymatgen
data_Sr3Ga4CuIr3
_symmetry_space_group_name_H-M   'P 1'
_cell_length_a   6.73366377
_cell_length_b   6.73366330
_cell_length_c   6.73366374
_cell_angle_alpha   109.78691491
_cell_angle_beta   109.78691225
_cell_angle_gamma   109.78690796
_symmetry_Int_Tables_number   1
_chemical_formula_structural   Sr3Ga4CuIr3
_chemical_formula_sum   'Sr3 Ga4 Cu1 Ir3'
_cell_volume   232.24717456
_cell_formula_units_Z   1
loop_
 _symmetry_equiv_pos_site_id
 _symmetry_equiv_pos_as_xyz
  1  'x, y, z'
loop_
 _atom_site_type_symbol
 _atom_site_label
 _atom_site_symmetry_multiplicity
 _atom_site_fract_x
 _atom_site_fract_y
 _atom_site_fract_z
 _atom_site_occupancy
  Sr  Sr0  1  0.00072606  0.49991387  0.49991387  1
  Sr  Sr1  1  0.49991387  0.00072606  0.49991387  1
  Sr  Sr2  1  0.49991387  0.49991387  0.00072606  1
  Ga  Ga0  1  0.61992900  0.61992900  0.61992900  1
  Ga  Ga1  1  0.99581180  0.99581180  0.38175272  1
  Ga  Ga2  1  0.99581180  0.38175272  0.99581180  1
  Ga  Ga3  1  0.38175272  0.99581180  0.99581180  1
  Cu  Cu0  1  0.24929650  0.24929650  0.24929650  1
  Ir  Ir0  1  0.00490092  0.00490092  0.74704255  1
  Ir  Ir1  1  0.00490092  0.74704255  0.00490092  1
  Ir  Ir2  1  0.74704255  0.00490092  0.00490092  1
loop_
_geom_bond_atom_site_label_1
_geom_bond_atom_site_label_2
_geom_bond_distance
_geom_bond_site_symmetry_2
Ga0 Ir2 2.572589 1_566
Ga0 Ir1 2.572589 1_656
Ga0 Ir0 2.572589 1_665
Ga0 Sr1 3.200762 1_565
Ga0 Sr0 3.200762 1_655
Ga0 Sr2 3.200762 1_556
Ga1 Ir0 2.418971 1_665
Ga1 Ir1 2.558468 1_655
Ga1 Ir2 2.558469 1_565
Ga1 Sr2 3.119795 1_555
Ga1 Sr0 3.199066 1_665
Ga1 Sr1 3.199066 1_665
Ga2 Ir1 2.418971 1_656
Ga2 Ir0 2.558468 1_655
Ga2 Ir2 2.558469 1_556
Ga2 Sr1 3.119795 1_555
Ga2 Sr0 3.199066 1_656
Ga2 Sr2 3.199066 1_656
Ga3 Ir2 2.418971 1_566
Ga3 Ir0 2.558469 1_565
Ga3 Ir1 2.558469 1_556
Ga3 Sr0 3.119795 1_555
Ga3 Sr2 3.199066 1_566
Ga3 Sr1 3.199066 1_566
Cu0 Ga0 2.456552 1_555
Cu0 Ga3 2.590622 1_544
Cu0 Ga2 2.590622 1_454
Cu0 Ga1 2.590622 1_445
Cu0 Ir1 2.735766 1_545
Cu0 Ir0 2.735766 1_554
Cu0 Ir2 2.735766 1_455
Cu0 Sr0 3.223979 1_555
Cu0 Sr1 3.223979 1_555
Cu0 Sr2 3.223979 1_555
Ir0 Sr2 3.147488 1_556
Ir0 Sr0 3.225719 1_545
Ir0 Sr1 3.225719 1_455
Ir1 Sr1 3.147488 1_565
Ir1 Sr0 3.225719 1_554
Ir1 Sr2 3.225719 1_455
Ir2 Sr0 3.147487 1_655
Ir2 Sr2 3.225719 1_545
Ir2 Sr1 3.225719 1_554
