# generated using pymatgen
data_Zr12Zn11AuC4
_symmetry_space_group_name_H-M   'P 1'
_cell_length_a   8.64561625
_cell_length_b   8.62625456
_cell_length_c   8.62625496
_cell_angle_alpha   59.99999848
_cell_angle_beta   60.07405229
_cell_angle_gamma   60.07405888
_symmetry_Int_Tables_number   1
_chemical_formula_structural   Zr12Zn11AuC4
_chemical_formula_sum   'Zr12 Zn11 Au1 C4'
_cell_volume   455.41856822
_cell_formula_units_Z   1
loop_
 _symmetry_equiv_pos_site_id
 _symmetry_equiv_pos_as_xyz
  1  'x, y, z'
loop_
 _atom_site_type_symbol
 _atom_site_label
 _atom_site_symmetry_multiplicity
 _atom_site_fract_x
 _atom_site_fract_y
 _atom_site_fract_z
 _atom_site_occupancy
  Zr  Zr0  1  0.44083610  0.44070035  0.05923127  1
  Zr  Zr1  1  0.06216819  0.43995077  0.05793028  1
  Zr  Zr2  1  0.44083610  0.05923127  0.05923127  1
  Zr  Zr3  1  0.06216819  0.05793028  0.43995077  1
  Zr  Zr4  1  0.44083610  0.05923127  0.44070035  1
  Zr  Zr5  1  0.06216819  0.43995077  0.43995077  1
  Zr  Zr6  1  0.80916390  0.80929965  0.19076873  1
  Zr  Zr7  1  0.18783181  0.81004923  0.19206972  1
  Zr  Zr8  1  0.80916390  0.19076873  0.19076873  1
  Zr  Zr9  1  0.18783181  0.19206972  0.81004923  1
  Zr  Zr10  1  0.80916390  0.19076873  0.80929965  1
  Zr  Zr11  1  0.18783181  0.81004923  0.81004923  1
  Zn  Zn0  1  0.82588822  0.83258270  0.50894639  1
  Zn  Zn1  1  0.82588822  0.50894639  0.83258270  1
  Zn  Zn2  1  0.50786381  0.83071206  0.83071206  1
  Zn  Zn3  1  0.82588822  0.83258270  0.83258270  1
  Zn  Zn4  1  0.42411178  0.41741730  0.74105361  1
  Zn  Zn5  1  0.42411178  0.74105361  0.41741730  1
  Zn  Zn6  1  0.74213619  0.41928794  0.41928794  1
  Zn  Zn7  1  0.42411178  0.41741730  0.41741730  1
  Zn  Zn8  1  0.62500000  0.62500000  0.12500000  1
  Zn  Zn9  1  0.62500000  0.12500000  0.62500000  1
  Zn  Zn10  1  0.62500000  0.62500000  0.62500000  1
  Au  Au0  1  0.12500000  0.62500000  0.62500000  1
  C  C0  1  0.12500000  0.12500000  0.62500000  1
  C  C1  1  0.12500000  0.62500000  0.12500000  1
  C  C2  1  0.62500000  0.12500000  0.12500000  1
  C  C3  1  0.12500000  0.12500000  0.12500000  1
loop_
_geom_bond_atom_site_label_1
_geom_bond_atom_site_label_2
_geom_bond_distance
_geom_bond_site_symmetry_2
Zn0 Zn10 2.607824 1_555
Zn0 Zn9 2.607825 1_565
Zn0 Zn2 2.765712 1_555
Zn0 Zn1 2.791769 1_555
Zn0 Zn3 2.791769 1_555
Zn0 Zr6 2.927580 1_555
Zn0 Zr8 2.927585 1_565
Zn0 Zr7 2.948154 1_655
Zn0 Zr4 3.092214 1_565
Zn0 Zr3 3.146111 1_665
Zn0 Zr5 3.146111 1_655
Zn1 Zn10 2.607825 1_555
Zn1 Zn8 2.607825 1_556
Zn1 Zn2 2.765712 1_555
Zn1 Zn3 2.791769 1_555
Zn1 Zr10 2.927580 1_555
Zn1 Zr8 2.927585 1_556
Zn1 Zr9 2.948154 1_655
Zn1 Zr0 3.092214 1_556
Zn1 Zr5 3.146111 1_655
Zn1 Zr1 3.146111 1_656
Zn2 Zn9 2.624172 1_565
Zn2 Zn8 2.624172 1_556
Zn2 Zn3 2.765712 1_555
Zn2 Zr7 2.955511 1_556
Zn2 Zr11 2.955511 1_555
Zn2 Zr9 2.955511 1_565
Zn2 Zr2 3.116714 1_566
Zn2 Zr0 3.116722 1_556
Zn2 Zr4 3.116722 1_565
Zn3 Zn8 2.607824 1_556
Zn3 Zn9 2.607825 1_565
Zn3 Zr10 2.927589 1_565
Zn3 Zr6 2.927589 1_556
Zn3 Zr11 2.948154 1_655
Zn3 Zr2 3.092210 1_566
Zn3 Zr3 3.146111 1_665
Zn3 Zr1 3.146111 1_656
Zn4 Zn9 2.607825 1_555
Zn4 Zn6 2.765712 1_555
Zn4 Zn5 2.791769 1_555
Zn4 Zn7 2.791769 1_555
Zn4 Zr0 2.927580 1_556
Zn4 Zr2 2.927585 1_556
Zn4 Zr1 2.948154 1_556
Zn4 Zr10 3.092214 1_555
Zn4 Zr9 3.146111 1_555
Zn4 Zr11 3.146111 1_555
Zn5 Zn8 2.607825 1_555
Zn5 Zn6 2.765712 1_555
Zn5 Zn7 2.791769 1_555
Zn5 Zr4 2.927580 1_565
Zn5 Zr2 2.927585 1_565
Zn5 Zr3 2.948154 1_565
Zn5 Zr6 3.092214 1_555
Zn5 Zr11 3.146111 1_555
Zn5 Zr7 3.146111 1_555
Zn6 Zn9 2.624172 1_555
Zn6 Zn8 2.624172 1_555
Zn6 Zn7 2.765712 1_555
Zn6 Zr1 2.955511 1_655
Zn6 Zr5 2.955511 1_655
Zn6 Zr3 2.955511 1_655
Zn6 Zr8 3.116714 1_555
Zn6 Zr6 3.116722 1_555
Zn6 Zr10 3.116722 1_555
Zn7 Zn8 2.607824 1_555
Zn7 Zn9 2.607825 1_555
Zn7 Zr4 2.927589 1_555
Zn7 Zr0 2.927589 1_555
Zn7 Zr5 2.948154 1_555
Zn7 Zr8 3.092210 1_555
Zn7 Zr9 3.146111 1_555
Zn7 Zr7 3.146111 1_555
Zn8 Zr2 3.116631 1_565
Zn8 Zr8 3.116631 1_555
Zn8 Zr6 3.116638 1_555
Zn8 Zr0 3.116638 1_555
Zn8 Zr1 3.144850 1_655
Zn8 Zr7 3.144850 1_555
Zn9 Zr2 3.116631 1_556
Zn9 Zr8 3.116631 1_555
Zn9 Zr10 3.116638 1_555
Zn9 Zr4 3.116638 1_555
Zn9 Zr3 3.144850 1_655
Zn9 Zr9 3.144850 1_555
Zn10 Zn4 2.607824 1_555
Zn10 Zn5 2.607825 1_555
Zn10 Zn2 2.624172 1_555
Zn10 Zn6 2.624172 1_555
Zn10 Zr6 3.116632 1_555
Zn10 Zr0 3.116632 1_556
Zn10 Zr4 3.116632 1_565
Zn10 Zr10 3.116632 1_555
Zn10 Zr5 3.144850 1_655
Zn10 Zr11 3.144850 1_555
Au0 Zn5 2.658241 1_555
Au0 Zn1 2.658241 1_455
Au0 Zn4 2.658242 1_555
Au0 Zn3 2.658242 1_455
Au0 Zn7 2.658242 1_555
Au0 Zn0 2.658242 1_455
Au0 Zr3 3.109632 1_565
Au0 Zr9 3.109632 1_555
Au0 Zr11 3.109633 1_555
Au0 Zr5 3.109633 1_555
Au0 Zr1 3.109633 1_556
Au0 Zr7 3.109633 1_555
C0 Zr5 2.297880 1_555
C0 Zr11 2.297880 1_545
C0 Zr9 2.297880 1_555
C0 Zr3 2.297880 1_555
C0 Zr4 2.308763 1_555
C0 Zr10 2.308763 1_455
C1 Zr7 2.297880 1_555
C1 Zr1 2.297880 1_555
C1 Zr5 2.297880 1_555
C1 Zr11 2.297880 1_554
C1 Zr0 2.308763 1_555
C1 Zr6 2.308763 1_455
C2 Zr4 2.302893 1_555
C2 Zr10 2.302893 1_554
C2 Zr6 2.302894 1_545
C2 Zr0 2.302894 1_555
C2 Zr8 2.302900 1_555
C2 Zr2 2.302900 1_555
C3 Zr1 2.297880 1_555
C3 Zr7 2.297880 1_545
C3 Zr3 2.297880 1_555
C3 Zr9 2.297880 1_554
C3 Zr2 2.308761 1_555
C3 Zr8 2.308761 1_455
