# generated using pymatgen
data_CsSeClO3
_symmetry_space_group_name_H-M   'P 1'
_cell_length_a   6.13926209
_cell_length_b   8.81908970
_cell_length_c   10.02590590
_cell_angle_alpha   90.00000000
_cell_angle_beta   90.00000000
_cell_angle_gamma   90.00000000
_symmetry_Int_Tables_number   1
_chemical_formula_structural   CsSeClO3
_chemical_formula_sum   'Cs4 Se4 Cl4 O12'
_cell_volume   542.82964584
_cell_formula_units_Z   4
loop_
 _symmetry_equiv_pos_site_id
 _symmetry_equiv_pos_as_xyz
  1  'x, y, z'
loop_
 _atom_site_type_symbol
 _atom_site_label
 _atom_site_symmetry_multiplicity
 _atom_site_fract_x
 _atom_site_fract_y
 _atom_site_fract_z
 _atom_site_occupancy
  Cs  Cs0  1  0.75000000  0.87843616  0.78441436  1
  Cs  Cs1  1  0.25000000  0.37843616  0.71558564  1
  Cs  Cs2  1  0.75000000  0.62156384  0.28441436  1
  Cs  Cs3  1  0.25000000  0.12156384  0.21558564  1
  Se  Se0  1  0.25000000  0.75558771  0.51266852  1
  Se  Se1  1  0.75000000  0.24441229  0.48733148  1
  Se  Se2  1  0.25000000  0.74441229  0.01266852  1
  Se  Se3  1  0.75000000  0.25558771  0.98733148  1
  Cl  Cl0  1  0.25000000  0.51186957  0.10686736  1
  Cl  Cl1  1  0.25000000  0.98813043  0.60686736  1
  Cl  Cl2  1  0.75000000  0.01186957  0.39313264  1
  Cl  Cl3  1  0.75000000  0.48813043  0.89313264  1
  O  O0  1  0.75000000  0.20752397  0.64627510  1
  O  O1  1  0.75000000  0.29247603  0.14627510  1
  O  O2  1  0.47399448  0.82097471  0.06717003  1
  O  O3  1  0.25000000  0.70752397  0.85372490  1
  O  O4  1  0.97399448  0.32097471  0.43282997  1
  O  O5  1  0.25000000  0.79247603  0.35372490  1
  O  O6  1  0.52600552  0.17902529  0.93282997  1
  O  O7  1  0.02600552  0.67902529  0.56717003  1
  O  O8  1  0.47399448  0.67902529  0.56717003  1
  O  O9  1  0.97399448  0.17902529  0.93282997  1
  O  O10  1  0.52600552  0.32097471  0.43282997  1
  O  O11  1  0.02600552  0.82097471  0.06717003  1
loop_
_geom_bond_atom_site_label_1
_geom_bond_atom_site_label_2
_geom_bond_distance
_geom_bond_site_symmetry_2
Cs0 O0 3.215778 1_565
Cs0 O7 3.272304 1_655
Cs0 O8 3.272304 1_555
Cs0 O9 3.336556 1_565
Cs0 O6 3.336556 1_565
Cs0 O11 3.341345 1_656
Cs0 O2 3.341345 1_556
Cs0 O3 3.489620 1_655
Cs0 O3 3.489620 1_555
Cs1 O3 3.215778 1_555
Cs1 O6 3.272304 1_555
Cs1 O9 3.272304 1_455
Cs1 O8 3.336556 1_555
Cs1 O7 3.336556 1_555
Cs1 O10 3.341345 1_555
Cs1 O4 3.341345 1_455
Cs1 O0 3.489620 1_455
Cs1 O0 3.489620 1_555
Cs2 O1 3.215778 1_555
Cs2 O11 3.272304 1_655
Cs2 O2 3.272304 1_555
Cs2 O4 3.336556 1_555
Cs2 O10 3.336556 1_555
Cs2 O7 3.341345 1_655
Cs2 O8 3.341345 1_555
Cs2 O5 3.489620 1_655
Cs2 O5 3.489620 1_555
Cs3 O5 3.215778 1_545
Cs3 O10 3.272304 1_555
Cs3 O4 3.272304 1_455
Cs3 O2 3.336556 1_545
Cs3 O11 3.336556 1_545
Cs3 O6 3.341345 1_554
Cs3 O9 3.341345 1_454
Cs3 O1 3.489620 1_555
Cs3 O1 3.489620 1_455
Cl0 Se2 2.257828 1_555
Cl0 Cs3 3.610600 1_555
Cl0 Cs2 3.677928 1_455
Cl0 Cs2 3.677928 1_555
Cl1 Se0 2.257828 1_555
Cl1 Cs1 3.610600 1_565
Cl1 Cs0 3.677928 1_455
Cl1 Cs0 3.677928 1_555
Cl2 Se1 2.257828 1_555
Cl2 Cs2 3.610600 1_545
Cl2 Cs3 3.677928 1_655
Cl2 Cs3 3.677928 1_555
Cl3 Se3 2.257828 1_555
Cl3 Cs0 3.610600 1_555
Cl3 Cs1 3.677928 1_555
Cl3 Cs1 3.677928 1_655
O0 Se1 1.626422 1_555
O1 Se3 1.626422 1_554
O2 Se2 1.626518 1_555
O3 Se2 1.626422 1_556
O4 Se1 1.626518 1_555
O5 Se0 1.626422 1_555
O6 Se3 1.626518 1_555
O7 Se0 1.626518 1_555
O8 Se0 1.626518 1_555
O9 Se3 1.626518 1_555
O10 Se1 1.626518 1_555
O11 Se2 1.626518 1_555
