# generated using pymatgen
data_KBa3(MnN2)4
_symmetry_space_group_name_H-M   'P 1'
_cell_length_a   6.39323168
_cell_length_b   6.39323162
_cell_length_c   7.79826310
_cell_angle_alpha   89.38337278
_cell_angle_beta   90.61662696
_cell_angle_gamma   126.53173377
_symmetry_Int_Tables_number   1
_chemical_formula_structural   KBa3(MnN2)4
_chemical_formula_sum   'K1 Ba3 Mn4 N8'
_cell_volume   256.09898811
_cell_formula_units_Z   1
loop_
 _symmetry_equiv_pos_site_id
 _symmetry_equiv_pos_as_xyz
  1  'x, y, z'
loop_
 _atom_site_type_symbol
 _atom_site_label
 _atom_site_symmetry_multiplicity
 _atom_site_fract_x
 _atom_site_fract_y
 _atom_site_fract_z
 _atom_site_occupancy
  K  K0  1  0.84513610  0.15486390  0.56235954  1
  Ba  Ba0  1  0.16223656  0.83776344  0.44309511  1
  Ba  Ba1  1  0.66147852  0.33852148  0.06888891  1
  Ba  Ba2  1  0.33997653  0.66002347  0.92656973  1
  Mn  Mn0  1  0.55399996  0.44600004  0.63677980  1
  Mn  Mn1  1  0.44727640  0.55272360  0.36312276  1
  Mn  Mn2  1  0.94597745  0.05402255  0.13672701  1
  Mn  Mn3  1  0.04972456  0.95027544  0.86729375  1
  N  N0  1  0.89333567  0.10666433  0.91554052  1
  N  N1  1  0.10542285  0.89457715  0.08834000  1
  N  N2  1  0.60487046  0.39512954  0.41799798  1
  N  N3  1  0.39572638  0.60427362  0.58035420  1
  N  N4  1  0.34248484  0.15264893  0.75637092  1
  N  N5  1  0.15517225  0.35017059  0.24009393  1
  N  N6  1  0.64982941  0.84482775  0.24009393  1
  N  N7  1  0.84735107  0.65751516  0.75637092  1
loop_
_geom_bond_atom_site_label_1
_geom_bond_atom_site_label_2
_geom_bond_distance
_geom_bond_site_symmetry_2
K0 N0 2.802149 1_555
K0 N3 2.936476 1_545
K0 N3 2.936476 1_655
K0 N2 2.953144 1_555
K0 N5 2.982754 1_655
K0 N6 2.982754 1_545
Ba0 N1 2.833911 1_555
Ba0 N3 2.861199 1_555
Ba0 N7 2.938081 1_455
Ba0 N4 2.938081 1_565
Ba0 N2 2.955632 1_565
Ba0 N2 2.955632 1_455
Ba1 N2 2.805710 1_555
Ba1 N0 2.918358 1_554
Ba1 N7 2.929308 1_554
Ba1 N4 2.929308 1_554
Ba1 N1 2.950680 1_655
Ba1 N1 2.950680 1_545
Ba2 N3 2.781383 1_555
Ba2 N5 2.910219 1_556
Ba2 N6 2.910219 1_556
Ba2 N0 2.941317 1_455
Ba2 N0 2.941317 1_565
Ba2 N1 2.974448 1_556
Mn0 N4 1.784903 1_555
Mn0 N7 1.784903 1_555
Mn0 N2 1.808921 1_555
Mn0 N3 1.855059 1_555
Mn1 N6 1.787173 1_555
Mn1 N5 1.787173 1_555
Mn1 N3 1.800086 1_555
Mn1 N2 1.844821 1_555
Mn2 N5 1.737294 1_655
Mn2 N6 1.737294 1_545
Mn2 N0 1.819772 1_554
Mn2 N1 1.863943 1_645
Mn3 N7 1.747323 1_455
Mn3 N4 1.747323 1_565
Mn3 N0 1.829537 1_465
Mn3 N1 1.830177 1_556
