# generated using pymatgen
data_K8GeSb4
_symmetry_space_group_name_H-M   'P 1'
_cell_length_a   11.45830600
_cell_length_b   11.45830521
_cell_length_c   11.45830628
_cell_angle_alpha   59.99999974
_cell_angle_beta   60.00000202
_cell_angle_gamma   59.99999579
_symmetry_Int_Tables_number   1
_chemical_formula_structural   K8GeSb4
_chemical_formula_sum   'K16 Ge2 Sb8'
_cell_volume   1063.76628792
_cell_formula_units_Z   2
loop_
 _symmetry_equiv_pos_site_id
 _symmetry_equiv_pos_as_xyz
  1  'x, y, z'
loop_
 _atom_site_type_symbol
 _atom_site_label
 _atom_site_symmetry_multiplicity
 _atom_site_fract_x
 _atom_site_fract_y
 _atom_site_fract_z
 _atom_site_occupancy
  K  K0  1  0.62500000  0.12500000  0.62500000  1
  K  K1  1  0.62500000  0.62500000  0.12500000  1
  K  K2  1  0.12500000  0.62500000  0.62500000  1
  K  K3  1  0.62500000  0.62500000  0.62500000  1
  K  K4  1  0.02319385  0.02319385  0.47680615  1
  K  K5  1  0.77319385  0.22680615  0.22680615  1
  K  K6  1  0.22680615  0.77319385  0.77319385  1
  K  K7  1  0.77319385  0.77319385  0.22680615  1
  K  K8  1  0.77319385  0.22680615  0.77319385  1
  K  K9  1  0.22680615  0.77319385  0.22680615  1
  K  K10  1  0.47680615  0.02319385  0.47680615  1
  K  K11  1  0.47680615  0.02319385  0.02319385  1
  K  K12  1  0.02319385  0.47680615  0.47680615  1
  K  K13  1  0.02319385  0.47680615  0.02319385  1
  K  K14  1  0.22680615  0.22680615  0.77319385  1
  K  K15  1  0.47680615  0.47680615  0.02319385  1
  Ge  Ge0  1  0.75000000  0.75000000  0.75000000  1
  Ge  Ge1  1  0.50000000  0.50000000  0.50000000  1
  Sb  Sb0  1  0.40079432  0.79761805  0.40079432  1
  Sb  Sb1  1  0.84920568  0.84920568  0.45238195  1
  Sb  Sb2  1  0.45238195  0.84920568  0.84920568  1
  Sb  Sb3  1  0.84920568  0.84920568  0.84920568  1
  Sb  Sb4  1  0.79761805  0.40079432  0.40079432  1
  Sb  Sb5  1  0.40079432  0.40079432  0.40079432  1
  Sb  Sb6  1  0.40079432  0.40079432  0.79761805  1
  Sb  Sb7  1  0.84920568  0.45238195  0.84920568  1
loop_
_geom_bond_atom_site_label_1
_geom_bond_atom_site_label_2
_geom_bond_distance
_geom_bond_site_symmetry_2
K0 Sb3 3.680913 1_545
K0 Sb5 3.680913 1_555
K0 Sb6 3.680920 1_555
K0 Sb1 3.680920 1_545
K0 Sb4 3.680920 1_555
K0 Sb2 3.680920 1_545
K1 Sb3 3.680913 1_554
K1 Sb5 3.680913 1_555
K1 Sb4 3.680920 1_555
K1 Sb2 3.680920 1_554
K1 Sb0 3.680920 1_555
K1 Sb7 3.680920 1_554
K2 Sb3 3.680913 1_455
K2 Sb5 3.680913 1_555
K2 Sb6 3.680920 1_555
K2 Sb1 3.680920 1_455
K2 Sb0 3.680920 1_555
K2 Sb7 3.680920 1_455
K3 Sb2 3.680911 1_555
K3 Sb4 3.680911 1_555
K3 Sb7 3.680911 1_555
K3 Sb0 3.680911 1_555
K3 Sb1 3.680911 1_555
K3 Sb6 3.680911 1_555
K4 Sb3 3.621819 1_445
K4 Sb1 3.621826 1_445
K4 Sb4 3.668647 1_455
K4 Sb0 3.668647 1_545
K5 Sb5 3.621819 1_555
K5 Sb4 3.621826 1_555
K5 Sb1 3.668647 1_545
K5 Sb7 3.668647 1_554
K6 Sb6 3.621816 1_555
K6 Sb0 3.621816 1_555
K6 Sb2 3.668639 1_555
K6 Sb3 3.668650 1_455
K7 Sb4 3.621816 1_555
K7 Sb0 3.621816 1_555
K7 Sb1 3.668639 1_555
K7 Sb3 3.668650 1_554
K8 Sb6 3.621816 1_555
K8 Sb4 3.621816 1_555
K8 Sb7 3.668639 1_555
K8 Sb3 3.668650 1_545
K9 Sb5 3.621818 1_555
K9 Sb0 3.621826 1_555
K9 Sb1 3.668647 1_455
K9 Sb2 3.668648 1_554
K10 Sb1 3.621816 1_545
K10 Sb2 3.621816 1_545
K10 Sb0 3.668639 1_545
K10 Sb5 3.668650 1_555
K11 Sb3 3.621819 1_544
K11 Sb2 3.621826 1_544
K11 Sb6 3.668647 1_554
K11 Sb0 3.668647 1_545
K12 Sb1 3.621816 1_455
K12 Sb7 3.621816 1_455
K12 Sb4 3.668639 1_455
K12 Sb5 3.668650 1_555
K13 Sb3 3.621818 1_454
K13 Sb7 3.621826 1_454
K13 Sb6 3.668647 1_554
K13 Sb4 3.668648 1_455
K14 Sb5 3.621819 1_555
K14 Sb6 3.621826 1_555
K14 Sb2 3.668647 1_545
K14 Sb7 3.668647 1_455
K15 Sb2 3.621816 1_554
K15 Sb7 3.621816 1_554
K15 Sb6 3.668639 1_554
K15 Sb5 3.668650 1_555
Ge0 Sb3 2.784406 1_555
Ge0 Sb7 2.784415 1_555
Ge0 Sb2 2.784416 1_555
Ge0 Sb1 2.784416 1_555
Ge0 K0 3.508375 1_565
Ge0 K2 3.508375 1_655
Ge0 K3 3.508375 1_555
Ge0 K1 3.508376 1_556
Ge1 Sb5 2.784406 1_555
Ge1 Sb0 2.784415 1_555
Ge1 Sb4 2.784416 1_555
Ge1 Sb6 2.784416 1_555
Ge1 K0 3.508375 1_555
Ge1 K2 3.508375 1_555
Ge1 K3 3.508375 1_555
Ge1 K1 3.508376 1_555
