# generated using pymatgen
data_BaGePdSe4
_symmetry_space_group_name_H-M   'P 1'
_cell_length_a   8.74431616
_cell_length_b   8.74431646
_cell_length_c   8.74431518
_cell_angle_alpha   125.45841805
_cell_angle_beta   125.45841413
_cell_angle_gamma   80.78010245
_symmetry_Int_Tables_number   1
_chemical_formula_structural   BaGePdSe4
_chemical_formula_sum   'Ba2 Ge2 Pd2 Se8'
_cell_volume   427.65836107
_cell_formula_units_Z   2
loop_
 _symmetry_equiv_pos_site_id
 _symmetry_equiv_pos_as_xyz
  1  'x, y, z'
loop_
 _atom_site_type_symbol
 _atom_site_label
 _atom_site_symmetry_multiplicity
 _atom_site_fract_x
 _atom_site_fract_y
 _atom_site_fract_z
 _atom_site_occupancy
  Ba  Ba0  1  0.25000000  0.25000000  0.00000000  1
  Ba  Ba1  1  0.75000000  0.75000000  0.00000000  1
  Ge  Ge0  1  0.75000000  0.25000000  0.50000000  1
  Ge  Ge1  1  0.25000000  0.75000000  0.50000000  1
  Pd  Pd0  1  0.50000000  0.00000000  0.50000000  1
  Pd  Pd1  1  0.00000000  0.50000000  0.50000000  1
  Se  Se0  1  0.21399646  0.71399546  0.19003101  1
  Se  Se1  1  0.47603354  0.97603354  0.19003101  1
  Se  Se2  1  0.02396546  0.21399546  0.50000000  1
  Se  Se3  1  0.28600354  0.47603454  0.50000000  1
  Se  Se4  1  0.71399546  0.52396546  0.50000000  1
  Se  Se5  1  0.97603354  0.78600354  0.50000000  1
  Se  Se6  1  0.52396546  0.02396546  0.80996799  1
  Se  Se7  1  0.78600354  0.28600354  0.80996799  1
loop_
_geom_bond_atom_site_label_1
_geom_bond_atom_site_label_2
_geom_bond_distance
_geom_bond_site_symmetry_2
Ba0 Se0 3.420174 1_555
Ba0 Se2 3.420177 1_554
Ba0 Se4 3.420178 1_555
Ba0 Se7 3.420181 1_454
Ba0 Se3 3.420182 1_555
Ba0 Se5 3.420184 1_444
Ba0 Se6 3.420187 1_554
Ba0 Se1 3.420188 1_545
Ba1 Se4 3.420177 1_554
Ba1 Se2 3.420178 1_665
Ba1 Se7 3.420181 1_554
Ba1 Se3 3.420182 1_554
Ba1 Se5 3.420183 1_555
Ba1 Se0 3.420184 1_655
Ba1 Se6 3.420187 1_564
Ba1 Se1 3.420188 1_555
Ge0 Se7 2.365688 1_555
Ge0 Se2 2.365697 1_655
Ge0 Se4 2.365697 1_555
Ge0 Se1 2.365707 1_545
Ge1 Se0 2.365693 1_555
Ge1 Se3 2.365697 1_555
Ge1 Se6 2.365698 1_565
Ge1 Se5 2.365706 1_455
Pd0 Se1 2.475975 1_545
Pd0 Se6 2.475975 1_555
Pd0 Se7 2.475985 1_555
Pd0 Se0 2.475990 1_545
Pd1 Se5 2.475984 1_455
Pd1 Se3 2.475984 1_555
Pd1 Se4 2.475993 1_455
Pd1 Se2 2.475993 1_555
