# generated using pymatgen
data_Zr16Co4Ir3Os
_symmetry_space_group_name_H-M   'P 1'
_cell_length_a   8.65552986
_cell_length_b   8.65554913
_cell_length_c   8.65539704
_cell_angle_alpha   59.93121177
_cell_angle_beta   59.93558618
_cell_angle_gamma   59.93695592
_symmetry_Int_Tables_number   1
_chemical_formula_structural   Zr16Co4Ir3Os
_chemical_formula_sum   'Zr16 Co4 Ir3 Os1'
_cell_volume   457.84177940
_cell_formula_units_Z   1
loop_
 _symmetry_equiv_pos_site_id
 _symmetry_equiv_pos_as_xyz
  1  'x, y, z'
loop_
 _atom_site_type_symbol
 _atom_site_label
 _atom_site_symmetry_multiplicity
 _atom_site_fract_x
 _atom_site_fract_y
 _atom_site_fract_z
 _atom_site_occupancy
  Zr  Zr0  1  0.05873445  0.64691480  0.64692248  1
  Zr  Zr1  1  0.64692552  0.05871557  0.64695005  1
  Zr  Zr2  1  0.64693382  0.64695017  0.05871259  1
  Zr  Zr3  1  0.64572575  0.64573311  0.64572525  1
  Zr  Zr4  1  0.80185320  0.80186529  0.19820810  1
  Zr  Zr5  1  0.19817538  0.19816916  0.80110223  1
  Zr  Zr6  1  0.80184594  0.19821011  0.80187770  1
  Zr  Zr7  1  0.19817967  0.80108870  0.19816710  1
  Zr  Zr8  1  0.19821946  0.80185274  0.80187174  1
  Zr  Zr9  1  0.80109405  0.19817298  0.19817083  1
  Zr  Zr10  1  0.43674560  0.43673327  0.06670922  1
  Zr  Zr11  1  0.06372551  0.06373408  0.43661164  1
  Zr  Zr12  1  0.43674932  0.06672303  0.43674198  1
  Zr  Zr13  1  0.06373621  0.43660687  0.06373439  1
  Zr  Zr14  1  0.06669720  0.43673902  0.43674196  1
  Zr  Zr15  1  0.43663593  0.06372311  0.06371713  1
  Co  Co0  1  0.42409586  0.85793998  0.85792390  1
  Co  Co1  1  0.85791049  0.42409221  0.85792718  1
  Co  Co2  1  0.85791029  0.85793735  0.42408810  1
  Co  Co3  1  0.85908064  0.85911882  0.85910769  1
  Ir  Ir0  1  0.75015135  0.41580812  0.41580476  1
  Ir  Ir1  1  0.41581284  0.75012420  0.41580601  1
  Ir  Ir2  1  0.41580858  0.41580412  0.75013482  1
  Os  Os0  1  0.41725093  0.41724319  0.41724314  1
loop_
_geom_bond_atom_site_label_1
_geom_bond_atom_site_label_2
_geom_bond_distance
_geom_bond_site_symmetry_2
Co0 Zr8 2.535882 1_555
Co0 Zr7 2.545699 1_556
Co0 Zr5 2.545717 1_565
Co0 Zr1 2.593033 1_565
Co0 Zr2 2.593197 1_556
Co0 Zr3 2.597527 1_555
Co1 Zr6 2.535804 1_555
Co1 Zr9 2.545599 1_556
Co1 Zr5 2.545992 1_655
Co1 Zr0 2.593268 1_655
Co1 Zr2 2.593473 1_556
Co1 Zr3 2.597239 1_555
Co2 Zr4 2.535853 1_555
Co2 Zr9 2.545592 1_565
Co2 Zr7 2.545968 1_655
Co2 Zr0 2.593370 1_655
Co2 Zr1 2.593449 1_565
Co2 Zr3 2.597217 1_555
Co3 Zr4 2.537165 1_556
Co3 Zr6 2.537195 1_565
Co3 Zr8 2.537536 1_655
Co3 Zr2 2.598028 1_556
Co3 Zr1 2.598042 1_565
Co3 Zr0 2.598672 1_655
Ir0 Os0 2.869024 1_555
Ir0 Zr13 2.887596 1_655
Ir0 Zr11 2.887665 1_655
Ir0 Ir2 2.891019 1_555
Ir0 Ir1 2.891025 1_555
Ir0 Zr14 2.932622 1_655
Ir0 Zr3 3.016972 1_555
Ir0 Zr2 3.022107 1_555
Ir0 Zr1 3.022159 1_555
Ir0 Zr9 3.030298 1_555
Ir0 Zr4 3.043112 1_555
Ir0 Zr6 3.043170 1_555
Ir1 Os0 2.868854 1_555
Ir1 Zr15 2.887565 1_565
Ir1 Zr11 2.887888 1_565
Ir1 Ir2 2.890727 1_555
Ir1 Zr12 2.933116 1_565
Ir1 Zr3 3.016852 1_555
Ir1 Zr0 3.022079 1_555
Ir1 Zr2 3.022133 1_555
Ir1 Zr7 3.030131 1_555
Ir1 Zr4 3.043230 1_555
Ir1 Zr8 3.043400 1_555
Ir2 Os0 2.868869 1_555
Ir2 Zr15 2.887480 1_556
Ir2 Zr13 2.887700 1_556
Ir2 Zr10 2.932832 1_556
Ir2 Zr3 3.016892 1_555
Ir2 Zr0 3.022114 1_555
Ir2 Zr1 3.022210 1_555
Ir2 Zr5 3.030092 1_555
Ir2 Zr6 3.043264 1_555
Ir2 Zr8 3.043385 1_555
Os0 Zr12 2.874754 1_555
Os0 Zr10 2.874862 1_555
Os0 Zr14 2.875059 1_555
Os0 Zr2 3.021833 1_555
Os0 Zr1 3.021862 1_555
Os0 Zr0 3.021922 1_555
Os0 Zr5 3.034285 1_555
Os0 Zr7 3.034304 1_555
Os0 Zr9 3.034492 1_555
