# generated using pymatgen
data_Li14ZrFeN8
_symmetry_space_group_name_H-M   'P 1'
_cell_length_a   6.86854598
_cell_length_b   6.86854598
_cell_length_c   4.88459244
_cell_angle_alpha   90.00000000
_cell_angle_beta   90.00000000
_cell_angle_gamma   90.00000000
_symmetry_Int_Tables_number   1
_chemical_formula_structural   Li14ZrFeN8
_chemical_formula_sum   'Li14 Zr1 Fe1 N8'
_cell_volume   230.44004576
_cell_formula_units_Z   1
loop_
 _symmetry_equiv_pos_site_id
 _symmetry_equiv_pos_as_xyz
  1  'x, y, z'
loop_
 _atom_site_type_symbol
 _atom_site_label
 _atom_site_symmetry_multiplicity
 _atom_site_fract_x
 _atom_site_fract_y
 _atom_site_fract_z
 _atom_site_occupancy
  Li  Li0  1  0.50000000  0.00000000  0.51731166  1
  Li  Li1  1  0.24010122  0.75989878  0.00000000  1
  Li  Li2  1  0.00000000  0.50000000  0.94870960  1
  Li  Li3  1  0.75989878  0.24010122  0.00000000  1
  Li  Li4  1  0.26962923  0.73037077  0.50000000  1
  Li  Li5  1  0.00000000  0.00000000  0.00000000  1
  Li  Li6  1  0.50000000  0.00000000  0.05129040  1
  Li  Li7  1  0.73037077  0.73037077  0.50000000  1
  Li  Li8  1  0.26962923  0.26962923  0.50000000  1
  Li  Li9  1  0.24010122  0.24010122  0.00000000  1
  Li  Li10  1  0.75989878  0.75989878  0.00000000  1
  Li  Li11  1  0.73037077  0.26962923  0.50000000  1
  Li  Li12  1  0.00000000  0.50000000  0.48268834  1
  Li  Li13  1  0.50000000  0.50000000  0.50000000  1
  Zr  Zr0  1  0.00000000  0.00000000  0.50000000  1
  Fe  Fe0  1  0.50000000  0.50000000  0.00000000  1
  N  N0  1  0.00000000  0.25115877  0.73149641  1
  N  N1  1  0.29104678  0.50000000  0.21049920  1
  N  N2  1  0.50000000  0.29104678  0.78950080  1
  N  N3  1  0.00000000  0.74884123  0.73149641  1
  N  N4  1  0.50000000  0.70895322  0.78950080  1
  N  N5  1  0.74884123  0.00000000  0.26850359  1
  N  N6  1  0.70895322  0.50000000  0.21049920  1
  N  N7  1  0.25115877  0.00000000  0.26850359  1
loop_
_geom_bond_atom_site_label_1
_geom_bond_atom_site_label_2
_geom_bond_distance
_geom_bond_site_symmetry_2
Li0 N5 2.097214 1_555
Li0 N7 2.097214 1_555
Li0 N2 2.400819 1_555
Li0 N4 2.400819 1_545
Li1 N1 2.089575 1_555
Li1 N4 2.089575 1_554
Li1 N3 2.108451 1_554
Li1 N7 2.108451 1_565
Li2 N3 2.011717 1_555
Li2 N0 2.011717 1_555
Li2 N1 2.373065 1_556
Li2 N6 2.373065 1_456
Li3 N2 2.089575 1_554
Li3 N6 2.089575 1_555
Li3 N5 2.108451 1_555
Li3 N0 2.108451 1_654
Li4 N1 2.127208 1_555
Li4 N4 2.127208 1_555
Li4 N3 2.173588 1_555
Li4 N7 2.173588 1_565
Li5 N7 2.167041 1_555
Li5 N0 2.167041 1_554
Li5 N5 2.167041 1_455
Li5 N3 2.167041 1_544
Li6 N5 2.011717 1_555
Li6 N7 2.011717 1_555
Li6 N2 2.373065 1_554
Li6 N4 2.373065 1_544
Li7 N4 2.127208 1_555
Li7 N6 2.127208 1_555
Li7 N3 2.173588 1_655
Li7 N5 2.173588 1_565
Li8 N2 2.127208 1_555
Li8 N1 2.127208 1_555
Li8 N0 2.173588 1_555
Li8 N7 2.173588 1_555
Li9 N1 2.089575 1_555
Li9 N2 2.089575 1_554
Li9 N7 2.108451 1_555
Li9 N0 2.108451 1_554
Li10 N6 2.089575 1_555
Li10 N4 2.089575 1_554
Li10 N5 2.108451 1_565
Li10 N3 2.108451 1_654
Li11 N2 2.127208 1_555
Li11 N6 2.127208 1_555
Li11 N5 2.173588 1_555
Li11 N0 2.173588 1_655
Li12 N3 2.097214 1_555
Li12 N0 2.097214 1_555
Li12 N1 2.400819 1_555
Li12 N6 2.400819 1_455
Li13 N4 2.014813 1_555
Li13 N6 2.014813 1_555
Li13 N2 2.014813 1_555
Li13 N1 2.014813 1_555
Fe0 N6 1.765507 1_555
Fe0 N4 1.765507 1_554
Fe0 N1 1.765507 1_555
Fe0 N2 1.765507 1_554
N0 Zr0 2.062665 1_555
N3 Zr0 2.062665 1_565
N5 Zr0 2.062665 1_655
N7 Zr0 2.062665 1_555
