# generated using pymatgen
data_Sc12Co4TcSb
_symmetry_space_group_name_H-M   'P 1'
_cell_length_a   7.72179144
_cell_length_b   7.72179161
_cell_length_c   7.72179131
_cell_angle_alpha   111.55351604
_cell_angle_beta   110.45687760
_cell_angle_gamma   106.44696154
_symmetry_Int_Tables_number   1
_chemical_formula_structural   Sc12Co4TcSb
_chemical_formula_sum   'Sc12 Co4 Tc1 Sb1'
_cell_volume   353.66155299
_cell_formula_units_Z   1
loop_
 _symmetry_equiv_pos_site_id
 _symmetry_equiv_pos_as_xyz
  1  'x, y, z'
loop_
 _atom_site_type_symbol
 _atom_site_label
 _atom_site_symmetry_multiplicity
 _atom_site_fract_x
 _atom_site_fract_y
 _atom_site_fract_z
 _atom_site_occupancy
  Sc  Sc0  1  0.42485166  0.22314072  0.20170994  1
  Sc  Sc1  1  0.57514834  0.77685928  0.79829006  1
  Sc  Sc2  1  0.02143079  0.22314072  0.79829006  1
  Sc  Sc3  1  0.97856921  0.77685928  0.20170994  1
  Sc  Sc4  1  0.30739885  0.60979938  0.30240054  1
  Sc  Sc5  1  0.69260115  0.39020062  0.69759946  1
  Sc  Sc6  1  0.30739885  0.00499731  0.69759946  1
  Sc  Sc7  1  0.69260115  0.99500269  0.30240054  1
  Sc  Sc8  1  0.18404002  0.27437441  0.45841543  1
  Sc  Sc9  1  0.81595998  0.72562459  0.54158457  1
  Sc  Sc10  1  0.18404002  0.72562459  0.90966562  1
  Sc  Sc11  1  0.81595998  0.27437441  0.09033438  1
  Co  Co0  1  0.37263994  0.00000000  0.37263994  1
  Co  Co1  1  0.62736006  1.00000000  0.62736006  1
  Co  Co2  1  0.11546066  0.61546066  0.50000000  1
  Co  Co3  1  0.88453934  0.38453934  0.50000000  1
  Tc  Tc0  1  0.00000000  0.00000000  0.00000000  1
  Sb  Sb0  1  0.50000000  0.50000000  0.00000000  1
loop_
_geom_bond_atom_site_label_1
_geom_bond_atom_site_label_2
_geom_bond_distance
_geom_bond_site_symmetry_2
Sc0 Tc0 2.722660 1_555
Sc1 Tc0 2.722660 1_666
Sc2 Tc0 2.722654 1_556
Sc3 Tc0 2.722654 1_665
Sc8 Tc0 2.882170 1_555
Sc9 Tc0 2.882171 1_666
Sc10 Tc0 2.882170 1_566
Sc11 Tc0 2.882164 1_655
Co0 Co1 2.243464 1_545
Co0 Sc3 2.554034 1_445
Co0 Sc0 2.554035 1_555
Co0 Sc7 2.715729 1_545
Co0 Sc5 2.715730 1_555
Co0 Sc4 2.715730 1_545
Co0 Sc6 2.715732 1_555
Co0 Sc10 2.904942 1_544
Co0 Sc8 2.904942 1_555
Co1 Sc2 2.554034 1_665
Co1 Sc1 2.554035 1_555
Co1 Sc6 2.715729 1_565
Co1 Sc4 2.715730 1_555
Co1 Sc5 2.715730 1_565
Co1 Sc7 2.715732 1_555
Co1 Sc11 2.904941 1_566
Co1 Sc9 2.904948 1_555
Co2 Co3 2.135099 1_455
Co2 Sc6 2.468822 1_565
Co2 Sc4 2.468828 1_555
Co2 Sc9 2.758194 1_455
Co2 Sc11 2.758200 1_455
Co2 Sc10 2.758201 1_555
Co2 Sc8 2.758201 1_555
Co2 Sc1 3.021445 1_555
Co2 Sc3 3.021451 1_455
Co3 Sc7 2.468822 1_545
Co3 Sc5 2.468828 1_555
Co3 Sc9 2.758194 1_555
Co3 Sc10 2.758197 1_655
Co3 Sc8 2.758198 1_655
Co3 Sc11 2.758200 1_555
Co3 Sc0 3.021445 1_555
Co3 Sc2 3.021451 1_655
Sb0 Sc1 3.115926 1_554
Sb0 Sc0 3.115926 1_555
Sb0 Sc3 3.115927 1_555
Sb0 Sc2 3.115927 1_554
Sb0 Sc4 3.173347 1_555
Sb0 Sc5 3.173347 1_554
Sb0 Sc7 3.173353 1_555
Sb0 Sc6 3.173353 1_554
Sb0 Sc8 3.403629 1_554
Sb0 Sc10 3.403629 1_554
Sb0 Sc9 3.403630 1_555
Sb0 Sc11 3.403635 1_555
