# generated using pymatgen
data_Sc2As2Cl2O5
_symmetry_space_group_name_H-M   'P 1'
_cell_length_a   6.64174578
_cell_length_b   7.37014888
_cell_length_c   9.03415452
_cell_angle_alpha   108.74147587
_cell_angle_beta   104.53108492
_cell_angle_gamma   101.92554948
_symmetry_Int_Tables_number   1
_chemical_formula_structural   Sc2As2Cl2O5
_chemical_formula_sum   'Sc4 As4 Cl4 O10'
_cell_volume   384.96598854
_cell_formula_units_Z   2
loop_
 _symmetry_equiv_pos_site_id
 _symmetry_equiv_pos_as_xyz
  1  'x, y, z'
loop_
 _atom_site_type_symbol
 _atom_site_label
 _atom_site_symmetry_multiplicity
 _atom_site_fract_x
 _atom_site_fract_y
 _atom_site_fract_z
 _atom_site_occupancy
  Sc  Sc0  1  0.40580851  0.69169397  0.51740301  1
  Sc  Sc1  1  0.59419149  0.30830603  0.48259699  1
  Sc  Sc2  1  0.86207874  0.77563082  0.34461996  1
  Sc  Sc3  1  0.13792126  0.22436918  0.65538004  1
  As  As0  1  0.88882885  0.84817398  0.75229773  1
  As  As1  1  0.11117115  0.15182602  0.24770227  1
  As  As2  1  0.69709309  0.23213853  0.79555913  1
  As  As3  1  0.30290691  0.76786147  0.20444087  1
  Cl  Cl0  1  0.23715258  0.61492185  0.72093959  1
  Cl  Cl1  1  0.76284742  0.38507815  0.27906041  1
  Cl  Cl2  1  0.76819090  0.71913844  0.04952558  1
  Cl  Cl3  1  0.23180910  0.28086156  0.95047442  1
  O  O0  1  0.83505280  0.26843970  0.65418399  1
  O  O1  1  0.16494720  0.73156030  0.34581601  1
  O  O2  1  0.54968981  0.77836745  0.34904363  1
  O  O3  1  0.45031019  0.22163255  0.65095637  1
  O  O4  1  0.65022880  0.95712199  0.72094263  1
  O  O5  1  0.34977120  0.04287801  0.27905737  1
  O  O6  1  0.68981187  0.61562841  0.60558346  1
  O  O7  1  0.31018813  0.38437159  0.39441654  1
  O  O8  1  0.98992130  0.91768146  0.60656071  1
  O  O9  1  0.01007870  0.08231854  0.39343929  1
loop_
_geom_bond_atom_site_label_1
_geom_bond_atom_site_label_2
_geom_bond_distance
_geom_bond_site_symmetry_2
As0 O6 1.779390 1_555
As0 O8 1.783699 1_555
As0 O4 1.919145 1_555
As1 O7 1.779390 1_555
As1 O9 1.783699 1_555
As1 O5 1.919145 1_555
As2 O3 1.790863 1_555
As2 O0 1.802209 1_555
As2 O4 1.848143 1_545
As3 O2 1.790863 1_555
As3 O1 1.802209 1_555
As3 O5 1.848143 1_565
Cl0 Sc0 2.529087 1_555
Cl0 Sc3 2.644826 1_555
Cl1 Sc1 2.529087 1_555
Cl1 Sc2 2.644826 1_555
Cl2 Sc2 2.452466 1_555
Cl3 Sc3 2.452466 1_555
O0 Sc1 2.071467 1_555
O0 Sc3 2.100815 1_655
O1 Sc0 2.071467 1_555
O1 Sc2 2.100815 1_455
O2 Sc2 2.089310 1_555
O2 Sc0 2.176260 1_555
O3 Sc3 2.089310 1_555
O3 Sc1 2.176260 1_555
O4 Sc0 2.172908 1_555
O5 Sc1 2.172908 1_555
O6 Sc1 2.049965 1_555
O6 Sc0 2.115875 1_555
O7 Sc0 2.049965 1_555
O7 Sc1 2.115875 1_555
O8 Sc2 2.109324 1_555
O8 Sc3 2.119779 1_665
O9 Sc3 2.109324 1_555
O9 Sc2 2.119779 1_445
