# generated using pymatgen
data_Na2Y(B3Rh4)2
_symmetry_space_group_name_H-M   'P 1'
_cell_length_a   9.71972865
_cell_length_b   8.87266566
_cell_length_c   5.54739927
_cell_angle_alpha   81.22077741
_cell_angle_beta   64.44292175
_cell_angle_gamma   34.33629885
_symmetry_Int_Tables_number   1
_chemical_formula_structural   Na2Y(B3Rh4)2
_chemical_formula_sum   'Na2 Y1 B6 Rh8'
_cell_volume   223.10590388
_cell_formula_units_Z   1
loop_
 _symmetry_equiv_pos_site_id
 _symmetry_equiv_pos_as_xyz
  1  'x, y, z'
loop_
 _atom_site_type_symbol
 _atom_site_label
 _atom_site_symmetry_multiplicity
 _atom_site_fract_x
 _atom_site_fract_y
 _atom_site_fract_z
 _atom_site_occupancy
  Na  Na0  1  0.31081562  0.31081562  0.68918438  1
  Na  Na1  1  0.68918438  0.68918438  0.31081562  1
  Y  Y0  1  0.50000000  0.50000000  0.50000000  1
  B  B0  1  0.66792564  0.98638876  0.01361124  1
  B  B1  1  0.98638876  0.66792564  0.33207436  1
  B  B2  1  0.33207436  0.01361124  0.98638876  1
  B  B3  1  0.01361124  0.33207436  0.66792564  1
  B  B4  1  0.16825141  0.83174859  0.16825141  1
  B  B5  1  0.83174859  0.16825141  0.83174859  1
  Rh  Rh0  1  0.58543732  0.58543732  0.91456268  1
  Rh  Rh1  1  0.91303098  0.91303098  0.08696902  1
  Rh  Rh2  1  0.41456268  0.41456268  0.08543732  1
  Rh  Rh3  1  0.08543732  0.08543732  0.41456268  1
  Rh  Rh4  1  0.91456268  0.91456268  0.58543732  1
  Rh  Rh5  1  0.25000000  0.25000000  0.25000000  1
  Rh  Rh6  1  0.08696902  0.08696902  0.91303098  1
  Rh  Rh7  1  0.75000000  0.75000000  0.75000000  1
loop_
_geom_bond_atom_site_label_1
_geom_bond_atom_site_label_2
_geom_bond_distance
_geom_bond_site_symmetry_2
Na0 Rh5 2.957521 1_556
Na0 Rh5 2.957521 1_555
Na0 Rh7 2.957521 1_455
Na0 Rh7 2.957521 1_545
Na0 Y0 3.192944 1_555
Na0 Rh1 3.238585 1_545
Na0 Rh1 3.238586 1_456
Na0 Rh2 3.280145 1_555
Na0 Rh2 3.280145 1_556
Na0 Rh4 3.280145 1_545
Na0 Rh4 3.280146 1_455
Na1 Rh7 2.957521 1_554
Na1 Rh7 2.957521 1_555
Na1 Rh5 2.957521 1_655
Na1 Rh5 2.957521 1_565
Na1 Y0 3.192944 1_555
Na1 Rh6 3.238585 1_565
Na1 Rh6 3.238586 1_654
Na1 Rh0 3.280145 1_555
Na1 Rh0 3.280145 1_554
Na1 Rh3 3.280145 1_565
Na1 Rh3 3.280146 1_655
B0 Rh7 2.083373 1_554
B0 Rh5 2.083373 1_565
B0 Rh1 2.111796 1_555
B0 Rh4 2.195639 1_554
B0 Rh2 2.195640 1_565
B0 Na1 2.789557 1_555
B0 Na0 3.153974 1_565
B0 Na0 3.153975 1_654
B1 Rh7 2.083373 1_555
B1 Rh5 2.083373 1_655
B1 Rh1 2.111796 1_555
B1 Rh4 2.195640 1_555
B1 Rh2 2.195640 1_655
B1 Na1 2.789557 1_555
B1 Na0 3.153974 1_654
B1 Na0 3.153975 1_565
B2 Rh5 2.083373 1_556
B2 Rh7 2.083373 1_545
B2 Rh6 2.111796 1_555
B2 Rh3 2.195639 1_556
B2 Rh0 2.195640 1_545
B2 Na0 2.789557 1_555
B2 Na1 3.153974 1_545
B2 Na1 3.153975 1_456
B3 Rh5 2.083373 1_555
B3 Rh7 2.083373 1_455
B3 Rh6 2.111796 1_555
B3 Rh3 2.195640 1_555
B3 Rh0 2.195640 1_455
B3 Na0 2.789557 1_555
B3 Na1 3.153974 1_456
B3 Na1 3.153975 1_545
B4 Rh4 2.139894 1_455
B4 Rh3 2.139894 1_565
B4 Rh0 2.139894 1_554
B4 Rh2 2.139895 1_555
B4 Rh6 2.188252 1_564
B4 Rh1 2.188252 1_455
B4 Y0 3.185330 1_554
B4 Y0 3.185331 1_465
B4 Y0 3.200044 1_555
B5 Rh3 2.139894 1_655
B5 Rh4 2.139894 1_545
B5 Rh2 2.139894 1_556
B5 Rh0 2.139895 1_555
B5 Rh1 2.188252 1_546
B5 Rh6 2.188252 1_655
B5 Y0 3.185330 1_556
B5 Y0 3.185331 1_645
B5 Y0 3.200044 1_555
Rh0 Y0 3.126126 1_556
Rh0 Y0 3.126126 1_555
Rh1 Y0 3.109152 1_654
Rh1 Y0 3.109153 1_565
Rh2 Y0 3.126126 1_554
Rh2 Y0 3.126126 1_555
Rh3 Y0 3.126126 1_455
Rh3 Y0 3.126127 1_545
Rh4 Y0 3.126126 1_655
Rh4 Y0 3.126127 1_565
Rh6 Y0 3.109152 1_456
Rh6 Y0 3.109153 1_545
