# generated using pymatgen
data_CaPd3O4
_symmetry_space_group_name_H-M   'P 1'
_cell_length_a   5.76790725
_cell_length_b   5.76790725
_cell_length_c   5.76790725
_cell_angle_alpha   90.00000000
_cell_angle_beta   90.00000000
_cell_angle_gamma   90.00000000
_symmetry_Int_Tables_number   1
_chemical_formula_structural   CaPd3O4
_chemical_formula_sum   'Ca2 Pd6 O8'
_cell_volume   191.89108765
_cell_formula_units_Z   2
loop_
 _symmetry_equiv_pos_site_id
 _symmetry_equiv_pos_as_xyz
  1  'x, y, z'
loop_
 _atom_site_type_symbol
 _atom_site_label
 _atom_site_symmetry_multiplicity
 _atom_site_fract_x
 _atom_site_fract_y
 _atom_site_fract_z
 _atom_site_occupancy
  Ca  Ca0  1  0.50000000  0.50000000  0.50000000  1
  Ca  Ca1  1  -0.00000000  0.00000000  -0.00000000  1
  Pd  Pd0  1  -0.00000000  0.50000000  0.25000000  1
  Pd  Pd1  1  -0.00000000  0.50000000  0.75000000  1
  Pd  Pd2  1  0.50000000  0.75000000  -0.00000000  1
  Pd  Pd3  1  0.50000000  0.25000000  -0.00000000  1
  Pd  Pd4  1  0.75000000  0.00000000  0.50000000  1
  Pd  Pd5  1  0.25000000  0.00000000  0.50000000  1
  O  O0  1  0.25000000  0.25000000  0.25000000  1
  O  O1  1  0.75000000  0.25000000  0.75000000  1
  O  O2  1  0.75000000  0.75000000  0.25000000  1
  O  O3  1  0.25000000  0.75000000  0.75000000  1
  O  O4  1  0.75000000  0.75000000  0.75000000  1
  O  O5  1  0.25000000  0.75000000  0.25000000  1
  O  O6  1  0.25000000  0.25000000  0.75000000  1
  O  O7  1  0.75000000  0.25000000  0.25000000  1
loop_
_geom_bond_atom_site_label_1
_geom_bond_atom_site_label_2
_geom_bond_distance
_geom_bond_site_symmetry_2
Ca0 O6 2.497577 1_555
Ca0 O7 2.497577 1_555
Ca0 O4 2.497577 1_555
Ca0 O1 2.497577 1_555
Ca0 O5 2.497577 1_555
Ca0 O2 2.497577 1_555
Ca0 O3 2.497577 1_555
Ca0 O0 2.497577 1_555
Ca1 O6 2.497577 1_554
Ca1 O2 2.497577 1_445
Ca1 O3 2.497577 1_544
Ca1 O7 2.497577 1_455
Ca1 O5 2.497577 1_545
Ca1 O4 2.497577 1_444
Ca1 O1 2.497577 1_454
Ca1 O0 2.497577 1_555
O0 Pd5 2.039263 1_555
O0 Pd0 2.039263 1_555
O0 Pd3 2.039263 1_555
O1 Pd1 2.039263 1_655
O1 Pd4 2.039263 1_555
O1 Pd3 2.039263 1_556
O2 Pd2 2.039263 1_555
O2 Pd0 2.039263 1_655
O2 Pd4 2.039263 1_565
O3 Pd5 2.039263 1_565
O3 Pd1 2.039263 1_555
O3 Pd2 2.039263 1_556
O4 Pd1 2.039263 1_655
O4 Pd4 2.039263 1_565
O4 Pd2 2.039263 1_556
O5 Pd2 2.039263 1_555
O5 Pd5 2.039263 1_565
O5 Pd0 2.039263 1_555
O6 Pd5 2.039263 1_555
O6 Pd3 2.039263 1_556
O6 Pd1 2.039263 1_555
O7 Pd4 2.039263 1_555
O7 Pd0 2.039263 1_655
O7 Pd3 2.039263 1_555
