# generated using pymatgen
data_Na3VSiN4
_symmetry_space_group_name_H-M   'P 1'
_cell_length_a   6.61706365
_cell_length_b   8.00241942
_cell_length_c   5.36566269
_cell_angle_alpha   90.00430572
_cell_angle_beta   92.18933839
_cell_angle_gamma   127.20270758
_symmetry_Int_Tables_number   1
_chemical_formula_structural   Na3VSiN4
_chemical_formula_sum   'Na6 V2 Si2 N8'
_cell_volume   226.04516314
_cell_formula_units_Z   2
loop_
 _symmetry_equiv_pos_site_id
 _symmetry_equiv_pos_as_xyz
  1  'x, y, z'
loop_
 _atom_site_type_symbol
 _atom_site_label
 _atom_site_symmetry_multiplicity
 _atom_site_fract_x
 _atom_site_fract_y
 _atom_site_fract_z
 _atom_site_occupancy
  Na  Na0  1  0.20711289  0.95420239  0.02623463  1
  Na  Na1  1  0.79443031  0.74846292  0.47227439  1
  Na  Na2  1  0.78859790  0.04075937  0.96224321  1
  Na  Na3  1  0.21182951  0.25259410  0.53766444  1
  Na  Na4  1  0.99885120  0.59904921  0.74887061  1
  Na  Na5  1  0.99894930  0.39361545  0.24923389  1
  V  V0  1  0.42199879  0.82715318  0.42168108  1
  V  V1  1  0.57796844  0.40524079  0.07888850  1
  Si  Si0  1  0.57882346  0.17603074  0.57921769  1
  Si  Si1  1  0.42118529  0.59730349  0.92131838  1
  N  N0  1  0.26509738  0.94235515  0.51800354  1
  N  N1  1  0.73497667  0.67732513  0.98274112  1
  N  N2  1  0.73863685  0.06797150  0.48615639  1
  N  N3  1  0.26143029  0.32941167  0.01435499  1
  N  N4  1  0.64662783  0.25982976  0.88796783  1
  N  N5  1  0.35356056  0.61328207  0.61259948  1
  N  N6  1  0.34868677  0.73208689  0.09951388  1
  N  N7  1  0.65123655  0.38332621  0.40103595  1
loop_
_geom_bond_atom_site_label_1
_geom_bond_atom_site_label_2
_geom_bond_distance
_geom_bond_site_symmetry_2
N0 Si0 1.779799 1_565
N0 V0 1.842087 1_555
N0 Na1 2.503054 1_455
N0 Na4 2.549543 1_455
N0 Na0 2.661848 1_555
N0 Na3 2.712931 1_565
N0 Na0 2.777878 1_556
N1 Si1 1.780397 1_555
N1 V1 1.841718 1_556
N1 Na0 2.509487 1_656
N1 Na4 2.550640 1_555
N1 Na1 2.651082 1_556
N1 Na2 2.711394 1_565
N1 Na1 2.791534 1_555
N2 Si0 1.805963 1_555
N2 V0 1.812515 1_545
N2 Na5 2.472588 1_555
N2 Na3 2.530400 1_655
N2 Na2 2.589384 1_555
N2 Na1 2.796938 1_545
N2 Na2 2.866566 1_554
N3 Si1 1.806238 1_554
N3 V1 1.811860 1_555
N3 Na5 2.472895 1_455
N3 Na2 2.529125 1_454
N3 Na3 2.592179 1_554
N3 Na0 2.800979 1_545
N3 Na3 2.862973 1_555
N4 Si0 1.724729 1_555
N4 V1 1.812342 1_556
N4 Na4 2.416693 1_555
N4 Na2 2.465307 1_555
N4 Na0 2.560060 1_546
N4 Na5 2.641016 1_556
N5 Si1 1.724270 1_555
N5 V0 1.811661 1_555
N5 Na4 2.421673 1_455
N5 Na3 2.463723 1_555
N5 Na1 2.568904 1_555
N5 Na5 2.656939 1_455
N6 Si1 1.722877 1_554
N6 V0 1.814313 1_555
N6 Na5 2.428946 1_455
N6 Na0 2.485384 1_555
N6 Na2 2.566414 1_564
N6 Na4 2.592028 1_454
N7 Si0 1.723229 1_555
N7 V1 1.814516 1_555
N7 Na5 2.424495 1_555
N7 Na1 2.491180 1_555
N7 Na3 2.563304 1_555
N7 Na4 2.573715 1_555
