# generated using pymatgen
data_Zr2GaP2Ru5
_symmetry_space_group_name_H-M   'P 1'
_cell_length_a   9.55219535
_cell_length_b   9.55219535
_cell_length_c   3.24782005
_cell_angle_alpha   90.00000000
_cell_angle_beta   90.00000000
_cell_angle_gamma   90.00000000
_symmetry_Int_Tables_number   1
_chemical_formula_structural   Zr2GaP2Ru5
_chemical_formula_sum   'Zr4 Ga2 P4 Ru10'
_cell_volume   296.34550886
_cell_formula_units_Z   2
loop_
 _symmetry_equiv_pos_site_id
 _symmetry_equiv_pos_as_xyz
  1  'x, y, z'
loop_
 _atom_site_type_symbol
 _atom_site_label
 _atom_site_symmetry_multiplicity
 _atom_site_fract_x
 _atom_site_fract_y
 _atom_site_fract_z
 _atom_site_occupancy
  Zr  Zr0  1  0.67424276  0.17424276  0.00000000  1
  Zr  Zr1  1  0.32575724  0.82575724  0.00000000  1
  Zr  Zr2  1  0.17424276  0.32575724  0.00000000  1
  Zr  Zr3  1  0.82575724  0.67424276  0.00000000  1
  Ga  Ga0  1  0.00000000  0.00000000  0.00000000  1
  Ga  Ga1  1  0.50000000  0.50000000  0.00000000  1
  P  P0  1  0.12587643  0.62587643  0.00000000  1
  P  P1  1  0.87412357  0.37412357  0.00000000  1
  P  P2  1  0.62587643  0.87412357  0.00000000  1
  P  P3  1  0.37412357  0.12587643  0.00000000  1
  Ru  Ru0  1  0.21227678  0.06963596  0.50000000  1
  Ru  Ru1  1  0.78772322  0.93036404  0.50000000  1
  Ru  Ru2  1  0.06963596  0.78772322  0.50000000  1
  Ru  Ru3  1  0.71227678  0.43036404  0.50000000  1
  Ru  Ru4  1  0.93036404  0.21227678  0.50000000  1
  Ru  Ru5  1  0.28772322  0.56963596  0.50000000  1
  Ru  Ru6  1  0.56963596  0.71227678  0.50000000  1
  Ru  Ru7  1  0.43036404  0.28772322  0.50000000  1
  Ru  Ru8  1  0.50000000  0.00000000  0.50000000  1
  Ru  Ru9  1  0.00000000  0.50000000  0.50000000  1
loop_
_geom_bond_atom_site_label_1
_geom_bond_atom_site_label_2
_geom_bond_distance
_geom_bond_site_symmetry_2
Ga0 Ru0 2.681632 1_554
Ga0 Ru0 2.681632 1_555
Ga0 Ru4 2.681632 1_455
Ga0 Ru4 2.681632 1_454
Ga0 Ru2 2.681632 1_544
Ga0 Ru2 2.681632 1_545
Ga0 Ru1 2.681632 1_444
Ga0 Ru1 2.681632 1_445
Ga1 Ru6 2.681632 1_555
Ga1 Ru6 2.681632 1_554
Ga1 Ru3 2.681632 1_555
Ga1 Ru3 2.681632 1_554
Ga1 Ru5 2.681632 1_554
Ga1 Ru5 2.681632 1_555
Ga1 Ru7 2.681632 1_555
Ga1 Ru7 2.681632 1_554
P0 Ru2 2.305598 1_554
P0 Ru2 2.305598 1_555
P0 Ru5 2.305598 1_555
P0 Ru5 2.305598 1_554
P0 Ru9 2.351297 1_554
P0 Ru9 2.351297 1_555
P0 Zr1 2.700159 1_555
P0 Zr3 2.903786 1_455
P0 Zr2 2.903786 1_555
P1 Ru4 2.305598 1_555
P1 Ru4 2.305598 1_554
P1 Ru3 2.305598 1_554
P1 Ru3 2.305598 1_555
P1 Ru9 2.351297 1_654
P1 Ru9 2.351297 1_655
P1 Zr0 2.700159 1_555
P1 Zr2 2.903786 1_655
P1 Zr3 2.903786 1_555
P2 Ru1 2.305598 1_555
P2 Ru1 2.305598 1_554
P2 Ru6 2.305598 1_554
P2 Ru6 2.305598 1_555
P2 Ru8 2.351297 1_564
P2 Ru8 2.351297 1_565
P2 Zr3 2.700159 1_555
P2 Zr0 2.903786 1_565
P2 Zr1 2.903786 1_555
P3 Ru7 2.305598 1_554
P3 Ru0 2.305598 1_554
P3 Ru0 2.305598 1_555
P3 Ru7 2.305598 1_555
P3 Ru8 2.351297 1_555
P3 Ru8 2.351297 1_554
P3 Zr2 2.700159 1_555
P3 Zr1 2.903786 1_545
P3 Zr0 2.903786 1_555
Ru0 Zr2 2.958807 1_556
Ru0 Zr2 2.958807 1_555
Ru0 Zr1 3.039579 1_546
Ru0 Zr1 3.039579 1_545
Ru1 Zr3 2.958807 1_555
Ru1 Zr3 2.958807 1_556
Ru1 Zr0 3.039579 1_566
Ru1 Zr0 3.039579 1_565
Ru2 Zr1 2.958807 1_555
Ru2 Zr1 2.958807 1_556
Ru2 Zr3 3.039579 1_456
Ru2 Zr3 3.039579 1_455
Ru3 Zr0 2.958807 1_555
Ru3 Zr0 2.958807 1_556
Ru3 Zr3 3.039579 1_555
Ru3 Zr3 3.039579 1_556
Ru4 Zr0 2.958807 1_555
Ru4 Zr0 2.958807 1_556
Ru4 Zr2 3.039579 1_655
Ru4 Zr2 3.039579 1_656
Ru5 Zr1 2.958807 1_556
Ru5 Zr1 2.958807 1_555
Ru5 Zr2 3.039579 1_556
Ru5 Zr2 3.039579 1_555
Ru6 Zr3 2.958807 1_555
Ru6 Zr3 2.958807 1_556
Ru6 Zr1 3.039579 1_555
Ru6 Zr1 3.039579 1_556
Ru7 Zr2 2.958807 1_555
Ru7 Zr2 2.958807 1_556
Ru7 Zr0 3.039579 1_555
Ru7 Zr0 3.039579 1_556
Ru8 Zr0 2.859641 1_555
Ru8 Zr0 2.859641 1_556
Ru8 Zr1 2.859641 1_545
Ru8 Zr1 2.859641 1_546
Ru9 Zr2 2.859641 1_556
Ru9 Zr2 2.859641 1_555
Ru9 Zr3 2.859641 1_456
Ru9 Zr3 2.859641 1_455
