# generated using pymatgen
data_NaCa4Bi2As
_symmetry_space_group_name_H-M   'P 1'
_cell_length_a   8.11784163
_cell_length_b   9.47165092
_cell_length_c   12.69695639
_cell_angle_alpha   90.00000000
_cell_angle_beta   90.00000000
_cell_angle_gamma   90.00000000
_symmetry_Int_Tables_number   1
_chemical_formula_structural   NaCa4Bi2As
_chemical_formula_sum   'Na4 Ca16 Bi8 As4'
_cell_volume   976.26087853
_cell_formula_units_Z   4
loop_
 _symmetry_equiv_pos_site_id
 _symmetry_equiv_pos_as_xyz
  1  'x, y, z'
loop_
 _atom_site_type_symbol
 _atom_site_label
 _atom_site_symmetry_multiplicity
 _atom_site_fract_x
 _atom_site_fract_y
 _atom_site_fract_z
 _atom_site_occupancy
  Na  Na0  1  0.02465983  0.75000000  0.49995977  1
  Na  Na1  1  0.97534017  0.25000000  0.50004023  1
  Na  Na2  1  0.52465983  0.25000000  0.00004023  1
  Na  Na3  1  0.47534017  0.75000000  0.99995977  1
  Ca  Ca0  1  0.85241198  0.75000000  0.79706276  1
  Ca  Ca1  1  0.14758802  0.25000000  0.20293724  1
  Ca  Ca2  1  0.35241198  0.25000000  0.70293724  1
  Ca  Ca3  1  0.64758802  0.75000000  0.29706276  1
  Ca  Ca4  1  0.69497167  0.50947578  0.56582246  1
  Ca  Ca5  1  0.30502833  0.49052422  0.43417754  1
  Ca  Ca6  1  0.19497167  0.49052422  0.93417754  1
  Ca  Ca7  1  0.30502833  0.00947578  0.43417754  1
  Ca  Ca8  1  0.80502833  0.50947578  0.06582246  1
  Ca  Ca9  1  0.69497167  0.99052422  0.56582246  1
  Ca  Ca10  1  0.80502833  0.99052422  0.06582246  1
  Ca  Ca11  1  0.19497167  0.00947578  0.93417754  1
  Ca  Ca12  1  0.34296520  0.75000000  0.70749360  1
  Ca  Ca13  1  0.65703480  0.25000000  0.29250640  1
  Ca  Ca14  1  0.84296520  0.25000000  0.79250640  1
  Ca  Ca15  1  0.15703480  0.75000000  0.20749360  1
  Bi  Bi0  1  0.56605745  0.50341411  0.82745307  1
  Bi  Bi1  1  0.43394255  0.49658589  0.17254693  1
  Bi  Bi2  1  0.06605745  0.49658589  0.67254693  1
  Bi  Bi3  1  0.43394255  0.00341411  0.17254693  1
  Bi  Bi4  1  0.93394255  0.50341411  0.32745307  1
  Bi  Bi5  1  0.56605745  0.99658589  0.82745307  1
  Bi  Bi6  1  0.93394255  0.99658589  0.32745307  1
  Bi  Bi7  1  0.06605745  0.00341411  0.67254693  1
  As  As0  1  0.01782748  0.75000000  0.99736034  1
  As  As1  1  0.98217252  0.25000000  0.00263966  1
  As  As2  1  0.51782748  0.25000000  0.50263966  1
  As  As3  1  0.48217252  0.75000000  0.49736034  1
loop_
_geom_bond_atom_site_label_1
_geom_bond_atom_site_label_2
_geom_bond_distance
_geom_bond_site_symmetry_2
Bi0 Na2 3.267426 1_556
Bi0 Na3 3.285529 1_555
Bi0 Ca6 3.305417 1_555
Bi0 Ca0 3.317752 1_555
Bi0 Ca14 3.318299 1_555
Bi0 Ca12 3.324850 1_555
Bi0 Ca2 3.356875 1_555
Bi0 Ca4 3.483328 1_555
Bi0 Ca8 3.595374 1_556
Bi1 Na3 3.267426 1_554
Bi1 Na2 3.285529 1_555
Bi1 Ca8 3.305417 1_555
Bi1 Ca1 3.317752 1_555
Bi1 Ca15 3.318299 1_555
Bi1 Ca13 3.324850 1_555
Bi1 Ca3 3.356875 1_555
Bi1 Ca5 3.483328 1_555
Bi1 Ca6 3.595374 1_554
Bi2 Na0 3.267426 1_555
Bi2 Na1 3.285529 1_455
Bi2 Ca4 3.305417 1_455
Bi2 Ca2 3.317752 1_555
Bi2 Ca12 3.318299 1_555
Bi2 Ca14 3.324850 1_455
Bi2 Ca0 3.356875 1_455
Bi2 Ca6 3.483328 1_555
Bi2 Ca5 3.595374 1_555
Bi3 Na3 3.267426 1_544
Bi3 Na2 3.285529 1_555
Bi3 Ca10 3.305417 1_545
Bi3 Ca1 3.317752 1_555
Bi3 Ca15 3.318299 1_545
Bi3 Ca13 3.324850 1_555
Bi3 Ca3 3.356875 1_545
Bi3 Ca7 3.483328 1_555
Bi3 Ca11 3.595374 1_554
Bi4 Na1 3.267426 1_555
Bi4 Na0 3.285529 1_655
Bi4 Ca5 3.305417 1_655
Bi4 Ca3 3.317752 1_555
Bi4 Ca13 3.318299 1_555
Bi4 Ca15 3.324850 1_655
Bi4 Ca1 3.356875 1_655
Bi4 Ca8 3.483328 1_555
Bi4 Ca4 3.595374 1_555
Bi5 Na2 3.267426 1_566
Bi5 Na3 3.285529 1_555
Bi5 Ca11 3.305417 1_565
Bi5 Ca0 3.317752 1_555
Bi5 Ca14 3.318299 1_565
Bi5 Ca12 3.324850 1_555
Bi5 Ca2 3.356875 1_565
Bi5 Ca9 3.483328 1_555
Bi5 Ca10 3.595374 1_556
Bi6 Na1 3.267426 1_565
Bi6 Na0 3.285529 1_655
Bi6 Ca7 3.305417 1_665
Bi6 Ca3 3.317752 1_555
Bi6 Ca13 3.318299 1_565
Bi6 Ca15 3.324850 1_655
Bi6 Ca1 3.356875 1_665
Bi6 Ca10 3.483328 1_555
Bi6 Ca9 3.595374 1_555
Bi7 Na0 3.267426 1_545
Bi7 Na1 3.285529 1_455
Bi7 Ca9 3.305417 1_445
Bi7 Ca2 3.317752 1_555
Bi7 Ca12 3.318299 1_545
Bi7 Ca14 3.324850 1_455
Bi7 Ca0 3.356875 1_445
Bi7 Ca11 3.483328 1_555
Bi7 Ca7 3.595374 1_555
As0 Ca0 2.875912 1_455
As0 Ca15 2.897507 1_556
As0 Ca11 2.958312 1_565
As0 Ca6 2.958312 1_555
As0 Ca10 2.988275 1_456
As0 Ca8 2.988275 1_456
As1 Ca1 2.875912 1_655
As1 Ca14 2.897507 1_554
As1 Ca8 2.958312 1_555
As1 Ca10 2.958312 1_545
As1 Ca6 2.988275 1_654
As1 Ca11 2.988275 1_654
As2 Ca2 2.875912 1_555
As2 Ca13 2.897507 1_555
As2 Ca4 2.958312 1_555
As2 Ca9 2.958312 1_545
As2 Ca5 2.988275 1_555
As2 Ca7 2.988275 1_555
As3 Ca3 2.875912 1_555
As3 Ca12 2.897507 1_555
As3 Ca7 2.958312 1_565
As3 Ca5 2.958312 1_555
As3 Ca9 2.988275 1_555
As3 Ca4 2.988275 1_555
