# generated using pymatgen
data_HfZr4ZnSn3
_symmetry_space_group_name_H-M   'P 1'
_cell_length_a   8.66158537
_cell_length_b   8.66158534
_cell_length_c   5.86332103
_cell_angle_alpha   90.00000000
_cell_angle_beta   90.00000000
_cell_angle_gamma   119.99949940
_symmetry_Int_Tables_number   1
_chemical_formula_structural   HfZr4ZnSn3
_chemical_formula_sum   'Hf2 Zr8 Zn2 Sn6'
_cell_volume   380.95289249
_cell_formula_units_Z   2
loop_
 _symmetry_equiv_pos_site_id
 _symmetry_equiv_pos_as_xyz
  1  'x, y, z'
loop_
 _atom_site_type_symbol
 _atom_site_label
 _atom_site_symmetry_multiplicity
 _atom_site_fract_x
 _atom_site_fract_y
 _atom_site_fract_z
 _atom_site_occupancy
  Hf  Hf0  1  0.33331470  0.66668530  0.00000000  1
  Hf  Hf1  1  0.66668530  0.33331470  0.50000000  1
  Zr  Zr0  1  0.66668455  0.33331545  0.00000000  1
  Zr  Zr1  1  0.33331545  0.66668455  0.50000000  1
  Zr  Zr2  1  0.26738358  0.99997871  0.25000209  1
  Zr  Zr3  1  0.26737062  0.26737062  0.75000000  1
  Zr  Zr4  1  0.00002129  0.73261642  0.74999791  1
  Zr  Zr5  1  0.99997871  0.26738358  0.24999791  1
  Zr  Zr6  1  0.73262938  0.73262938  0.25000000  1
  Zr  Zr7  1  0.73261642  0.00002129  0.75000209  1
  Zn  Zn0  1  0.99999991  0.00000009  0.00000000  1
  Zn  Zn1  1  0.00000009  0.99999991  0.50000000  1
  Sn  Sn0  1  0.61451080  0.00002278  0.25000114  1
  Sn  Sn1  1  0.61454722  0.61454722  0.75000000  1
  Sn  Sn2  1  0.99997722  0.38548920  0.74999886  1
  Sn  Sn3  1  0.00002278  0.61451080  0.24999886  1
  Sn  Sn4  1  0.38545278  0.38545278  0.25000000  1
  Sn  Sn5  1  0.38548920  0.99997722  0.75000114  1
loop_
_geom_bond_atom_site_label_1
_geom_bond_atom_site_label_2
_geom_bond_distance
_geom_bond_site_symmetry_2
Hf0 Zr1 2.931661 1_554
Hf0 Zr1 2.931661 1_555
Hf0 Sn5 3.063023 1_554
Hf0 Sn3 3.063023 1_555
Hf0 Sn0 3.063479 1_565
Hf0 Sn2 3.063479 1_454
Hf0 Sn4 3.063714 1_555
Hf0 Sn1 3.063714 1_554
Hf1 Zr0 2.931661 1_555
Hf1 Zr0 2.931661 1_556
Hf1 Sn0 3.063023 1_555
Hf1 Sn2 3.063023 1_555
Hf1 Sn5 3.063479 1_545
Hf1 Sn3 3.063479 1_655
Hf1 Sn1 3.063714 1_555
Hf1 Sn4 3.063714 1_555
Zn0 Zr6 2.740788 1_545
Zn0 Zr3 2.740788 1_654
Zn0 Zr5 2.740938 1_555
Zn0 Zr7 2.740938 1_554
Zn0 Zr4 2.740953 1_644
Zn0 Zr2 2.740953 1_645
Zn0 Zn1 2.931661 1_644
Zn0 Zn1 2.931661 1_645
Zn1 Zr3 2.740788 1_565
Zn1 Zr6 2.740788 1_455
Zn1 Zr4 2.740938 1_555
Zn1 Zr2 2.740938 1_555
Zn1 Zr5 2.740953 1_465
Zn1 Zr7 2.740953 1_465
Sn0 Zr5 2.962843 1_555
Sn0 Zr6 2.963160 1_545
Sn0 Zr2 3.006481 1_545
Sn0 Zr0 3.063037 1_555
Sn0 Zr1 3.063474 1_545
Sn0 Zr7 3.105013 1_554
Sn0 Zr7 3.105024 1_555
Sn1 Zr7 2.962954 1_565
Sn1 Zr4 2.962954 1_655
Sn1 Zr3 3.007123 1_555
Sn1 Zr0 3.063705 1_556
Sn1 Zr1 3.063705 1_555
Sn1 Zr6 3.104952 1_556
Sn1 Zr6 3.104952 1_555
Sn2 Zr7 2.962843 1_555
Sn2 Zr3 2.963160 1_655
Sn2 Zr4 3.006481 1_655
Sn2 Zr0 3.063037 1_556
Sn2 Zr1 3.063474 1_655
Sn2 Zr5 3.105013 1_556
Sn2 Zr5 3.105024 1_555
Sn3 Zr2 2.962843 1_555
Sn3 Zr6 2.963160 1_455
Sn3 Zr5 3.006481 1_455
Sn3 Zr1 3.063037 1_555
Sn3 Zr0 3.063474 1_455
Sn3 Zr4 3.105013 1_555
Sn3 Zr4 3.105024 1_554
Sn4 Zr2 2.962954 1_545
Sn4 Zr5 2.962954 1_455
Sn4 Zr6 3.007123 1_555
Sn4 Zr1 3.063705 1_555
Sn4 Zr0 3.063705 1_555
Sn4 Zr3 3.104952 1_554
Sn4 Zr3 3.104952 1_555
Sn5 Zr4 2.962843 1_555
Sn5 Zr3 2.963160 1_565
Sn5 Zr7 3.006481 1_565
Sn5 Zr1 3.063037 1_555
Sn5 Zr0 3.063474 1_566
Sn5 Zr2 3.105013 1_555
Sn5 Zr2 3.105024 1_556
