# generated using pymatgen
data_K3Cu2P2Au
_symmetry_space_group_name_H-M   'P 1'
_cell_length_a   7.40426494
_cell_length_b   7.40426465
_cell_length_c   7.51433986
_cell_angle_alpha   46.23262822
_cell_angle_beta   46.23262600
_cell_angle_gamma   44.71214248
_symmetry_Int_Tables_number   1
_chemical_formula_structural   K3Cu2P2Au
_chemical_formula_sum   'K3 Cu2 P2 Au1'
_cell_volume   192.37783352
_cell_formula_units_Z   1
loop_
 _symmetry_equiv_pos_site_id
 _symmetry_equiv_pos_as_xyz
  1  'x, y, z'
loop_
 _atom_site_type_symbol
 _atom_site_label
 _atom_site_symmetry_multiplicity
 _atom_site_fract_x
 _atom_site_fract_y
 _atom_site_fract_z
 _atom_site_occupancy
  K  K0  1  0.90494247  0.90494247  0.91675523  1
  K  K1  1  0.50000000  0.50000000  0.50000000  1
  K  K2  1  0.09505753  0.09505753  0.08324477  1
  Cu  Cu0  1  0.00000000  0.50000000  0.50000000  1
  Cu  Cu1  1  0.50000000  0.00000000  0.50000000  1
  P  P0  1  0.24103677  0.24103677  0.28155589  1
  P  P1  1  0.75896323  0.75896323  0.71844411  1
  Au  Au0  1  0.50000000  0.50000000  0.00000000  1
loop_
_geom_bond_atom_site_label_1
_geom_bond_atom_site_label_2
_geom_bond_distance
_geom_bond_site_symmetry_2
K0 P1 3.267156 1_555
K0 P0 3.332309 1_665
K0 P0 3.358566 1_566
K0 P0 3.358566 1_656
K0 K1 3.651688 1_655
K0 K1 3.651688 1_565
K0 K1 3.688585 1_556
K1 K2 3.651688 1_655
K1 K2 3.651688 1_565
K1 P0 3.662994 1_565
K1 P1 3.662994 1_545
K1 P0 3.662995 1_655
K1 P1 3.662995 1_455
K1 K2 3.688585 1_556
K2 P0 3.267156 1_555
K2 P1 3.332309 1_445
K2 P1 3.358566 1_544
K2 P1 3.358566 1_454
Cu0 P1 2.234675 1_455
Cu0 P0 2.234675 1_555
Cu0 K2 3.432462 1_556
Cu0 K0 3.432462 1_454
Cu0 K2 3.461842 1_565
Cu0 K0 3.461842 1_445
Cu0 K1 3.702132 1_455
Cu0 K1 3.702132 1_555
Cu1 P1 2.234676 1_545
Cu1 P0 2.234676 1_555
Cu1 K2 3.432462 1_556
Cu1 K0 3.432462 1_544
Cu1 K2 3.461842 1_655
Cu1 K0 3.461842 1_445
Cu1 K1 3.702132 1_545
Cu1 K1 3.702132 1_555
Au0 P1 2.414565 1_554
Au0 P0 2.414565 1_555
Au0 Cu0 2.928952 1_654
Au0 Cu0 2.928952 1_555
Au0 Cu1 2.928952 1_555
Au0 Cu1 2.928952 1_564
Au0 K2 3.351990 1_565
Au0 K0 3.351990 1_544
Au0 K2 3.351990 1_655
Au0 K0 3.351990 1_454
Au0 K1 3.757170 1_554
Au0 K1 3.757170 1_555
