# generated using pymatgen
data_Si8AsP15
_symmetry_space_group_name_H-M   'P 1'
_cell_length_a   3.45815861
_cell_length_b   10.16647249
_cell_length_c   15.06405541
_cell_angle_alpha   90.30905736
_cell_angle_beta   90.00000000
_cell_angle_gamma   90.00000000
_symmetry_Int_Tables_number   1
_chemical_formula_structural   Si8AsP15
_chemical_formula_sum   'Si8 As1 P15'
_cell_volume   529.60342402
_cell_formula_units_Z   1
loop_
 _symmetry_equiv_pos_site_id
 _symmetry_equiv_pos_as_xyz
  1  'x, y, z'
loop_
 _atom_site_type_symbol
 _atom_site_label
 _atom_site_symmetry_multiplicity
 _atom_site_fract_x
 _atom_site_fract_y
 _atom_site_fract_z
 _atom_site_occupancy
  Si  Si0  1  0.00000000  0.59029918  0.84037668  1
  Si  Si1  1  0.00000000  0.40931407  0.16019264  1
  Si  Si2  1  0.00000000  0.08910668  0.65711199  1
  Si  Si3  1  0.00000000  0.91045714  0.33988041  1
  Si  Si4  1  0.50000000  0.80883286  0.73248349  1
  Si  Si5  1  0.50000000  0.19336769  0.26746993  1
  Si  Si6  1  0.50000000  0.30633692  0.76548359  1
  Si  Si7  1  0.50000000  0.69332387  0.23236107  1
  As  As0  1  0.50000000  0.88565868  0.88766368  1
  P  P0  1  0.00000000  0.67403492  0.70230668  1
  P  P1  1  0.00000000  0.32739360  0.29887085  1
  P  P2  1  0.00000000  0.17234551  0.79594527  1
  P  P3  1  0.00000000  0.82697759  0.20104950  1
  P  P4  1  0.00000000  0.75352505  0.94325116  1
  P  P5  1  0.00000000  0.23760580  0.06323087  1
  P  P6  1  0.00000000  0.26021669  0.56112733  1
  P  P7  1  0.00000000  0.74037000  0.43671194  1
  P  P8  1  0.50000000  0.12332472  0.12022455  1
  P  P9  1  0.50000000  0.37492081  0.61853815  1
  P  P10  1  0.50000000  0.62539115  0.37956466  1
  P  P11  1  0.50000000  0.95878301  0.62208332  1
  P  P12  1  0.50000000  0.04033191  0.37567706  1
  P  P13  1  0.50000000  0.45959271  0.87414973  1
  P  P14  1  0.50000000  0.53848942  0.12424546  1
loop_
_geom_bond_atom_site_label_1
_geom_bond_atom_site_label_2
_geom_bond_distance
_geom_bond_site_symmetry_2
As0 P4 2.346825 1_655
As0 P4 2.346825 1_555
As0 Si4 2.460673 1_555
P0 Si4 2.251153 1_555
P0 Si4 2.251153 1_455
P0 Si0 2.251614 1_555
P1 Si5 2.250136 1_455
P1 Si5 2.250136 1_555
P1 Si1 2.253120 1_555
P2 Si6 2.250038 1_555
P2 Si6 2.250038 1_455
P2 Si2 2.251879 1_555
P3 Si7 2.250647 1_555
P3 Si7 2.250647 1_455
P3 Si3 2.252755 1_555
P4 Si0 2.264412 1_555
P5 P8 2.255539 1_455
P5 P8 2.255539 1_555
P5 Si1 2.270090 1_555
P6 P9 2.255362 1_555
P6 P9 2.255362 1_455
P6 Si2 2.268033 1_555
P7 Si3 2.268266 1_555
P8 Si5 2.325953 1_555
P9 Si6 2.324396 1_555
P10 P7 2.255294 1_655
P10 P7 2.255294 1_555
P10 Si7 2.326098 1_555
P11 Si2 2.239656 1_565
P11 Si2 2.239656 1_665
P11 Si4 2.262114 1_555
P12 Si3 2.239685 1_545
P12 Si3 2.239685 1_645
P12 Si5 2.259425 1_555
P13 Si0 2.240896 1_555
P13 Si0 2.240896 1_655
P13 Si6 2.253815 1_555
P14 Si1 2.239479 1_655
P14 Si1 2.239479 1_555
P14 Si7 2.258922 1_555
