# generated using pymatgen
data_YHf2PtF15
_symmetry_space_group_name_H-M   'P 1'
_cell_length_a   7.98082337
_cell_length_b   7.98082351
_cell_length_c   7.96894913
_cell_angle_alpha   79.87595185
_cell_angle_beta   79.87595670
_cell_angle_gamma   99.93605777
_symmetry_Int_Tables_number   1
_chemical_formula_structural   YHf2PtF15
_chemical_formula_sum   'Y2 Hf4 Pt2 F30'
_cell_volume   480.92593528
_cell_formula_units_Z   2
loop_
 _symmetry_equiv_pos_site_id
 _symmetry_equiv_pos_as_xyz
  1  'x, y, z'
loop_
 _atom_site_type_symbol
 _atom_site_label
 _atom_site_symmetry_multiplicity
 _atom_site_fract_x
 _atom_site_fract_y
 _atom_site_fract_z
 _atom_site_occupancy
  Y  Y0  1  0.17715707  0.82284293  0.25000000  1
  Y  Y1  1  0.82284293  0.17715707  0.75000000  1
  Hf  Hf0  1  0.74386786  0.67809232  0.67214775  1
  Hf  Hf1  1  0.32190768  0.25613214  0.82785225  1
  Hf  Hf2  1  0.25613214  0.32190768  0.32785225  1
  Hf  Hf3  1  0.67809232  0.74386786  0.17214775  1
  Pt  Pt0  1  0.75047016  0.24952984  0.25000000  1
  Pt  Pt1  1  0.24952984  0.75047016  0.75000000  1
  F  F0  1  0.31600189  0.35031143  0.05625544  1
  F  F1  1  0.93406393  0.81320689  0.15002225  1
  F  F2  1  0.83863453  0.46210307  0.68578048  1
  F  F3  1  0.46210307  0.83863453  0.18578048  1
  F  F4  1  0.81320689  0.93406393  0.65002225  1
  F  F5  1  0.35031143  0.31600189  0.55625444  1
  F  F6  1  0.68399811  0.64968857  0.94374456  1
  F  F7  1  0.06593607  0.18679311  0.84997775  1
  F  F8  1  0.16136547  0.53789693  0.31421952  1
  F  F9  1  0.53789693  0.16136547  0.81421952  1
  F  F10  1  0.18679311  0.06593607  0.34997775  1
  F  F11  1  0.64968857  0.68399811  0.44374456  1
  F  F12  1  0.77425674  0.28818734  0.99894416  1
  F  F13  1  0.00317528  0.27437594  0.20964335  1
  F  F14  1  0.78942075  0.50465155  0.22075557  1
  F  F15  1  0.50465155  0.78942075  0.72075557  1
  F  F16  1  0.27437594  0.00317528  0.70964335  1
  F  F17  1  0.28818734  0.77425674  0.49894416  1
  F  F18  1  0.22574326  0.71181266  0.00105584  1
  F  F19  1  0.99682472  0.72562406  0.79035665  1
  F  F20  1  0.21057925  0.49534845  0.77924443  1
  F  F21  1  0.49534845  0.21057925  0.27924443  1
  F  F22  1  0.72562406  0.99682472  0.29035665  1
  F  F23  1  0.71181266  0.22574326  0.50105584  1
  F  F24  1  0.47495406  0.52504594  0.25000000  1
  F  F25  1  0.74399322  0.95411334  0.97494858  1
  F  F26  1  0.04588666  0.25600678  0.52505142  1
  F  F27  1  0.25600678  0.04588666  0.02505142  1
  F  F28  1  0.95411334  0.74399322  0.47494858  1
  F  F29  1  0.52504594  0.47495406  0.75000000  1
loop_
_geom_bond_atom_site_label_1
_geom_bond_atom_site_label_2
_geom_bond_distance
_geom_bond_site_symmetry_2
F0 Hf1 2.084004 1_554
F0 Hf2 2.095384 1_555
F1 Hf3 1.989863 1_555
F1 Y0 2.217669 1_655
F2 Hf0 1.992026 1_555
F2 Y1 2.217793 1_555
F3 Hf3 1.992026 1_555
F3 Y0 2.217793 1_555
F4 Hf0 1.989863 1_555
F4 Y1 2.217669 1_565
F5 Hf2 2.083997 1_555
F5 Hf1 2.095392 1_555
F6 Hf3 2.084004 1_556
F6 Hf0 2.095384 1_555
F7 Hf1 1.989863 1_555
F7 Y1 2.217669 1_455
F8 Hf2 1.992026 1_555
F8 Y0 2.217793 1_555
F9 Hf1 1.992026 1_555
F9 Y1 2.217793 1_555
F10 Hf2 1.989863 1_555
F10 Y0 2.217669 1_545
F11 Hf0 2.084004 1_555
F11 Hf3 2.095384 1_555
F12 Pt0 1.939871 1_556
F12 Y1 2.310249 1_555
F13 Pt0 1.954931 1_455
F13 Hf2 2.374183 1_555
F14 Pt0 1.971259 1_555
F14 Hf3 2.242917 1_555
F15 Pt1 1.971259 1_555
F15 Hf0 2.242917 1_555
F16 Pt1 1.954931 1_545
F16 Hf1 2.374183 1_555
F17 Pt1 1.939871 1_555
F17 Y0 2.310249 1_555
F18 Pt1 1.939871 1_554
F18 Y0 2.310249 1_555
F19 Pt1 1.954931 1_655
F19 Hf0 2.374183 1_555
F20 Pt1 1.971259 1_555
F20 Hf1 2.242917 1_555
F21 Pt0 1.971259 1_555
F21 Hf2 2.242917 1_555
F22 Pt0 1.954931 1_565
F22 Hf3 2.374183 1_555
F23 Pt0 1.939871 1_555
F23 Y1 2.310249 1_555
F24 Hf2 2.086026 1_555
F24 Hf3 2.086026 1_555
F25 Hf3 2.009845 1_556
F25 Y1 2.207515 1_565
F26 Hf2 2.009845 1_555
F26 Y1 2.207515 1_455
F27 Hf1 2.009845 1_554
F27 Y0 2.207515 1_545
F28 Hf0 2.009845 1_555
F28 Y0 2.207515 1_655
F29 Hf0 2.086026 1_555
F29 Hf1 2.086026 1_555
