# generated using pymatgen
data_LiHgSI
_symmetry_space_group_name_H-M   'P 1'
_cell_length_a   7.11066647
_cell_length_b   7.62442594
_cell_length_c   8.54590717
_cell_angle_alpha   90.00000000
_cell_angle_beta   90.00000000
_cell_angle_gamma   90.00000000
_symmetry_Int_Tables_number   1
_chemical_formula_structural   LiHgSI
_chemical_formula_sum   'Li4 Hg4 S4 I4'
_cell_volume   463.31421999
_cell_formula_units_Z   4
loop_
 _symmetry_equiv_pos_site_id
 _symmetry_equiv_pos_as_xyz
  1  'x, y, z'
loop_
 _atom_site_type_symbol
 _atom_site_label
 _atom_site_symmetry_multiplicity
 _atom_site_fract_x
 _atom_site_fract_y
 _atom_site_fract_z
 _atom_site_occupancy
  Li  Li0  1  0.08970666  0.16991947  0.38309445  1
  Li  Li1  1  0.58970666  0.33008053  0.61690555  1
  Li  Li2  1  0.41029334  0.83008053  0.88309445  1
  Li  Li3  1  0.91029334  0.66991947  0.11690555  1
  Hg  Hg0  1  0.25356358  0.26610650  0.98926030  1
  Hg  Hg1  1  0.24643642  0.73389350  0.48926130  1
  Hg  Hg2  1  0.74643642  0.76610650  0.51073970  1
  Hg  Hg3  1  0.75356358  0.23389350  0.01073970  1
  S  S0  1  0.00519054  0.35753836  0.15547443  1
  S  S1  1  0.49480946  0.64246164  0.65547443  1
  S  S2  1  0.99480946  0.85753836  0.34452557  1
  S  S3  1  0.50519054  0.14246164  0.84452557  1
  I  I0  1  0.01622829  0.86718116  0.86509270  1
  I  I1  1  0.51622829  0.63281884  0.13490730  1
  I  I2  1  0.48377171  0.13281884  0.36509270  1
  I  I3  1  0.98377171  0.36718116  0.63490730  1
loop_
_geom_bond_atom_site_label_1
_geom_bond_atom_site_label_2
_geom_bond_distance
_geom_bond_site_symmetry_2
Li0 S0 2.488238 1_555
Li0 S2 2.497317 1_445
Li1 S3 2.488238 1_555
Li1 S1 2.497317 1_555
Li2 S1 2.488238 1_555
Li2 S3 2.497317 1_565
Li3 S2 2.488238 1_555
Li3 S0 2.497317 1_655
Hg0 S3 2.370650 1_555
Hg0 S0 2.371234 1_556
Hg1 S2 2.370655 1_455
Hg1 S1 2.371229 1_555
Hg2 S1 2.370650 1_555
Hg2 S2 2.371234 1_555
Hg3 S0 2.370650 1_655
Hg3 S3 2.371234 1_554
I0 Li3 2.731377 1_456
I0 Li2 2.820506 1_555
I1 Li2 2.731377 1_554
I1 Li3 2.820506 1_555
I2 Li1 2.731377 1_555
I2 Li0 2.820506 1_555
I3 Li0 2.731377 1_655
I3 Li1 2.820506 1_555
