# generated using pymatgen
data_Cs2BeI4
_symmetry_space_group_name_H-M   'P 1'
_cell_length_a   8.17349442
_cell_length_b   10.91877357
_cell_length_c   14.18973687
_cell_angle_alpha   90.00000000
_cell_angle_beta   90.00000000
_cell_angle_gamma   90.00000000
_symmetry_Int_Tables_number   1
_chemical_formula_structural   Cs2BeI4
_chemical_formula_sum   'Cs8 Be4 I16'
_cell_volume   1266.35646685
_cell_formula_units_Z   4
loop_
 _symmetry_equiv_pos_site_id
 _symmetry_equiv_pos_as_xyz
  1  'x, y, z'
loop_
 _atom_site_type_symbol
 _atom_site_label
 _atom_site_symmetry_multiplicity
 _atom_site_fract_x
 _atom_site_fract_y
 _atom_site_fract_z
 _atom_site_occupancy
  Cs  Cs0  1  0.25000000  0.52706479  0.33094045  1
  Cs  Cs1  1  0.25000000  0.02706479  0.16905955  1
  Cs  Cs2  1  0.75000000  0.47293521  0.66905955  1
  Cs  Cs3  1  0.75000000  0.97293521  0.83094045  1
  Cs  Cs4  1  0.25000000  0.85816804  0.60250947  1
  Cs  Cs5  1  0.25000000  0.35816804  0.89749053  1
  Cs  Cs6  1  0.75000000  0.14183196  0.39749053  1
  Cs  Cs7  1  0.75000000  0.64183196  0.10250947  1
  Be  Be0  1  0.25000000  0.25593208  0.57879367  1
  Be  Be1  1  0.25000000  0.75593208  0.92120633  1
  Be  Be2  1  0.75000000  0.74406792  0.42120633  1
  Be  Be3  1  0.75000000  0.24406792  0.07879367  1
  I  I0  1  0.25000000  0.47778039  0.60196360  1
  I  I1  1  0.25000000  0.97778039  0.89803640  1
  I  I2  1  0.75000000  0.52221961  0.39803640  1
  I  I3  1  0.75000000  0.02221961  0.10196360  1
  I  I4  1  0.25000000  0.19532425  0.41386927  1
  I  I5  1  0.25000000  0.69532425  0.08613073  1
  I  I6  1  0.75000000  0.80467575  0.58613073  1
  I  I7  1  0.75000000  0.30467575  0.91386927  1
  I  I8  1  0.49396951  0.17183842  0.65079280  1
  I  I9  1  0.00603049  0.67183842  0.84920720  1
  I  I10  1  0.99396951  0.82816158  0.34920720  1
  I  I11  1  0.50603049  0.32816158  0.15079280  1
  I  I12  1  0.50603049  0.82816158  0.34920720  1
  I  I13  1  0.99396951  0.32816158  0.15079280  1
  I  I14  1  0.00603049  0.17183842  0.65079280  1
  I  I15  1  0.49396951  0.67183842  0.84920720  1
loop_
_geom_bond_atom_site_label_1
_geom_bond_atom_site_label_2
_geom_bond_distance
_geom_bond_site_symmetry_2
Cs0 I4 3.808549 1_555
Cs0 I0 3.883214 1_555
Cs0 I12 3.905738 1_555
Cs0 I10 3.905738 1_455
Cs0 I5 3.929687 1_555
Cs0 I11 3.953513 1_555
Cs0 I13 3.953513 1_455
Cs0 I2 4.196516 1_555
Cs0 I2 4.196516 1_455
Cs1 I5 3.808549 1_545
Cs1 I1 3.883214 1_544
Cs1 I11 3.905738 1_555
Cs1 I13 3.905738 1_455
Cs1 I4 3.929687 1_555
Cs1 I12 3.953513 1_545
Cs1 I10 3.953513 1_445
Cs1 I3 4.196516 1_555
Cs1 I3 4.196516 1_455
Cs2 I6 3.808549 1_555
Cs2 I2 3.883214 1_555
Cs2 I14 3.905738 1_655
Cs2 I8 3.905738 1_555
Cs2 I7 3.929687 1_555
Cs2 I9 3.953513 1_655
Cs2 I15 3.953513 1_555
Cs2 I0 4.196516 1_555
Cs2 I0 4.196516 1_655
Cs3 I7 3.808549 1_565
Cs3 I3 3.883214 1_566
Cs3 I9 3.905738 1_655
Cs3 I15 3.905738 1_555
Cs3 I6 3.929687 1_555
Cs3 I14 3.953513 1_665
Cs3 I8 3.953513 1_565
Cs3 I1 4.196516 1_655
Cs3 I1 4.196516 1_555
Cs4 I8 4.021900 1_565
Cs4 I14 4.021900 1_565
Cs4 I6 4.134810 1_455
Cs4 I6 4.134810 1_555
Cs4 I0 4.153374 1_555
Cs4 I12 4.171993 1_555
Cs4 I10 4.171993 1_455
Cs4 I1 4.392119 1_555
Cs4 I15 4.513264 1_555
Cs4 I9 4.513264 1_555
Cs4 I4 4.551618 1_565
Cs5 I15 4.021900 1_555
Cs5 I9 4.021900 1_555
Cs5 I7 4.134810 1_455
Cs5 I7 4.134810 1_555
Cs5 I1 4.153374 1_545
Cs5 I11 4.171993 1_556
Cs5 I13 4.171993 1_456
Cs5 I0 4.392119 1_555
Cs5 I8 4.513264 1_555
Cs5 I14 4.513264 1_555
Cs5 I5 4.551618 1_556
Cs6 I10 4.021900 1_545
Cs6 I12 4.021900 1_545
Cs6 I4 4.134810 1_655
Cs6 I4 4.134810 1_555
Cs6 I2 4.153374 1_555
Cs6 I14 4.171993 1_655
Cs6 I8 4.171993 1_555
Cs6 I3 4.392119 1_555
Cs6 I13 4.513264 1_555
Cs6 I11 4.513264 1_555
Cs6 I6 4.551618 1_545
Cs7 I13 4.021900 1_555
Cs7 I11 4.021900 1_555
Cs7 I5 4.134810 1_655
Cs7 I5 4.134810 1_555
Cs7 I3 4.153374 1_565
Cs7 I9 4.171993 1_654
Cs7 I15 4.171993 1_554
Cs7 I2 4.392119 1_555
Cs7 I10 4.513264 1_555
Cs7 I12 4.513264 1_555
Cs7 I7 4.551618 1_554
Be0 I8 2.421410 1_555
Be0 I14 2.421410 1_555
Be0 I4 2.432000 1_555
Be0 I0 2.444522 1_555
Be1 I15 2.421410 1_555
Be1 I9 2.421410 1_555
Be1 I5 2.432000 1_556
Be1 I1 2.444522 1_555
Be2 I10 2.421410 1_555
Be2 I12 2.421410 1_555
Be2 I6 2.432000 1_555
Be2 I2 2.444522 1_555
Be3 I13 2.421410 1_555
Be3 I11 2.421410 1_555
Be3 I7 2.432000 1_554
Be3 I3 2.444522 1_555
