# generated using pymatgen
data_Sr2CoReO6
_symmetry_space_group_name_H-M   'P 1'
_cell_length_a   5.62627908
_cell_length_b   5.63311147
_cell_length_c   8.03435040
_cell_angle_alpha   90.00016139
_cell_angle_beta   90.00361470
_cell_angle_gamma   89.98573809
_symmetry_Int_Tables_number   1
_chemical_formula_structural   Sr2CoReO6
_chemical_formula_sum   'Sr4 Co2 Re2 O12'
_cell_volume   254.63633236
_cell_formula_units_Z   2
loop_
 _symmetry_equiv_pos_site_id
 _symmetry_equiv_pos_as_xyz
  1  'x, y, z'
loop_
 _atom_site_type_symbol
 _atom_site_label
 _atom_site_symmetry_multiplicity
 _atom_site_fract_x
 _atom_site_fract_y
 _atom_site_fract_z
 _atom_site_occupancy
  Sr  Sr0  1  0.99997100  0.50004200  0.24980900  1
  Sr  Sr1  1  0.49999800  0.99994500  0.74993900  1
  Sr  Sr2  1  0.49999800  0.99993100  0.25001400  1
  Sr  Sr3  1  0.99997500  0.50001900  0.75014100  1
  Co  Co0  1  0.49995500  0.50003800  0.49995800  1
  Co  Co1  1  0.00001200  0.99992900  0.99991100  1
  Re  Re0  1  0.49995300  0.49997600  0.00002500  1
  Re  Re1  1  0.00007500  0.00001300  0.50006400  1
  O  O0  1  0.00006300  0.99992600  0.25656400  1
  O  O1  1  0.49990200  0.50004200  0.75643900  1
  O  O2  1  0.49996100  0.50008700  0.24352400  1
  O  O3  1  0.00011700  0.00001700  0.74348200  1
  O  O4  1  0.69366500  0.77935300  0.99993400  1
  O  O5  1  0.19908300  0.28143700  0.50005300  1
  O  O6  1  0.21820900  0.69886700  0.99993200  1
  O  O7  1  0.72031800  0.19337500  0.50005300  1
  O  O8  1  0.78188200  0.30111800  0.99998000  1
  O  O9  1  0.27962200  0.80673200  0.50006800  1
  O  O10  1  0.30637000  0.22057400  0.99999700  1
  O  O11  1  0.80087200  0.71857600  0.50011300  1
loop_
_geom_bond_atom_site_label_1
_geom_bond_atom_site_label_2
_geom_bond_distance
_geom_bond_site_symmetry_2
Co0 O2 2.060281 1_555
Co0 O1 2.060658 1_555
Co0 O11 2.093541 1_555
Co0 O5 2.093545 1_555
Co0 O7 2.126085 1_555
Co0 O9 2.126129 1_555
Co1 O3 2.060241 1_565
Co1 O0 2.062040 1_556
Co1 O6 2.093367 1_555
Co1 O8 2.093726 1_465
Co1 O4 2.125022 1_455
Co1 O10 2.125300 1_565
O0 Re1 1.956364 1_565
O0 Sr2 2.813269 1_555
O0 Sr2 2.813994 1_455
O0 Sr0 2.816425 1_455
O0 Sr0 2.817732 1_465
O1 Re0 1.957055 1_556
O1 Sr3 2.813181 1_455
O1 Sr3 2.814008 1_555
O1 Sr1 2.816494 1_555
O1 Sr1 2.817586 1_545
O2 Re0 1.956356 1_555
O2 Sr0 2.813540 1_455
O2 Sr0 2.813646 1_555
O2 Sr2 2.816160 1_555
O2 Sr2 2.817917 1_545
O3 Re1 1.955706 1_555
O3 Sr1 2.812945 1_545
O3 Sr1 2.814291 1_445
O3 Sr3 2.817053 1_445
O3 Sr3 2.817075 1_455
O4 Re0 1.914527 1_556
O4 Sr1 2.600906 1_555
O4 Sr2 2.601496 1_556
O4 Sr3 3.077797 1_555
O4 Sr0 3.078012 1_556
O5 Re1 1.941058 1_555
O5 Sr3 2.609190 1_455
O5 Sr0 2.610122 1_455
O5 Sr1 3.067527 1_545
O5 Sr2 3.068506 1_545
O6 Re0 1.940907 1_556
O6 Sr3 2.605829 1_455
O6 Sr0 2.606440 1_456
O6 Sr1 3.070173 1_555
O6 Sr2 3.070460 1_556
O7 Re1 1.913901 1_655
O7 Sr1 2.599147 1_545
O7 Sr2 2.600004 1_545
O7 Sr3 3.081825 1_555
O7 Sr0 3.082840 1_555
O8 Re0 1.941650 1_556
O8 Sr0 2.605864 1_556
O8 Sr3 2.606005 1_555
O8 Sr1 3.070860 1_545
O8 Sr2 3.071004 1_546
O9 Re1 1.912669 1_565
O9 Sr1 2.598566 1_555
O9 Sr2 2.599795 1_555
O9 Sr3 3.082072 1_455
O9 Sr0 3.082849 1_455
O10 Re0 1.914230 1_556
O10 Sr2 2.601088 1_546
O10 Sr1 2.601405 1_545
O10 Sr0 3.078563 1_456
O10 Sr3 3.078579 1_455
O11 Re1 1.941752 1_665
O11 Sr3 2.608637 1_555
O11 Sr0 2.610377 1_555
O11 Sr1 3.066860 1_555
O11 Sr2 3.068122 1_555
