# generated using pymatgen
data_Hf3GaAs2Ru3
_symmetry_space_group_name_H-M   'P 1'
_cell_length_a   7.62468063
_cell_length_b   7.62468021
_cell_length_c   7.62468135
_cell_angle_alpha   128.34300133
_cell_angle_beta   119.94762554
_cell_angle_gamma   83.13236950
_symmetry_Int_Tables_number   1
_chemical_formula_structural   Hf3GaAs2Ru3
_chemical_formula_sum   'Hf6 Ga2 As4 Ru6'
_cell_volume   289.21238729
_cell_formula_units_Z   2
loop_
 _symmetry_equiv_pos_site_id
 _symmetry_equiv_pos_as_xyz
  1  'x, y, z'
loop_
 _atom_site_type_symbol
 _atom_site_label
 _atom_site_symmetry_multiplicity
 _atom_site_fract_x
 _atom_site_fract_y
 _atom_site_fract_z
 _atom_site_occupancy
  Hf  Hf0  1  0.47674851  0.71407894  0.73733043  1
  Hf  Hf1  1  0.52325149  0.26058192  0.23733043  1
  Hf  Hf2  1  0.74936526  0.83274438  0.58337912  1
  Hf  Hf3  1  0.25063474  0.83401486  0.08337912  1
  Hf  Hf4  1  0.05468707  0.25451608  0.69982902  1
  Hf  Hf5  1  0.94531293  0.64514195  0.19982902  1
  Ga  Ga0  1  0.27991880  0.27824550  0.49832769  1
  Ga  Ga1  1  0.72008120  0.21840789  0.99832769  1
  As  As0  1  0.32752527  0.58653247  0.24781783  1
  As  As1  1  0.67247473  0.92029257  0.25900720  1
  As  As2  1  0.16128537  0.92029257  0.74781783  1
  As  As3  1  0.83871463  0.58653247  0.75900720  1
  Ru  Ru0  1  0.50000000  0.49877019  0.99877019  1
  Ru  Ru1  1  0.00000000  0.49877019  0.49877019  1
  Ru  Ru2  1  0.09387888  0.25157224  0.09764616  1
  Ru  Ru3  1  0.90612112  0.00376728  0.15769336  1
  Ru  Ru4  1  0.34607393  0.00376728  0.59764616  1
  Ru  Ru5  1  0.65392607  0.25157224  0.65769336  1
loop_
_geom_bond_atom_site_label_1
_geom_bond_atom_site_label_2
_geom_bond_distance
_geom_bond_site_symmetry_2
Hf0 Ru3 2.887689 1_566
Hf0 Ru4 2.887689 1_565
Hf0 Ru1 3.215266 1_555
Hf0 Ru0 3.215266 1_555
Hf1 Ru2 2.887689 1_555
Hf1 Ru5 2.887689 1_555
Hf1 Ru1 3.215266 1_655
Hf1 Ru0 3.215266 1_554
Hf2 Ru1 2.929401 1_655
Hf2 Ru0 2.929401 1_554
Hf2 Ru5 2.942692 1_565
Hf2 Ru2 2.942692 1_666
Hf3 Ru1 2.929401 1_554
Hf3 Ru0 2.929406 1_554
Hf3 Ru3 2.942691 1_465
Hf3 Ru4 2.942695 1_565
Hf4 Ru4 2.839476 1_555
Hf4 Ru3 2.839476 1_455
Hf4 Ru5 2.910013 1_455
Hf4 Ru2 2.910013 1_556
Hf4 Ru0 2.951400 1_555
Hf4 Ru1 2.951400 1_555
Hf5 Ru2 2.839476 1_655
Hf5 Ru5 2.839476 1_554
Hf5 Ru4 2.910013 1_665
Hf5 Ru3 2.910013 1_565
Hf5 Ru0 2.951400 1_554
Hf5 Ru1 2.951400 1_655
Ga0 Ru5 2.521559 1_555
Ga0 Ru2 2.521565 1_555
Ga0 Ru0 2.554272 1_555
Ga0 Ru1 2.554278 1_555
Ga0 Ru4 2.557393 1_555
Ga0 Ru3 2.557398 1_455
Ga0 Hf0 2.750393 1_555
Ga0 Hf3 2.777010 1_545
Ga0 Hf4 2.897565 1_555
Ga0 Hf1 3.273316 1_555
Ga1 Ru3 2.521554 1_556
Ga1 Ru4 2.521560 1_555
Ga1 Ru1 2.554274 1_656
Ga1 Ru0 2.554279 1_555
Ga1 Ru2 2.557401 1_656
Ga1 Ru5 2.557406 1_555
Ga1 Hf1 2.750384 1_556
Ga1 Hf2 2.777016 1_545
Ga1 Hf5 2.897575 1_556
Ga1 Hf0 3.273306 1_545
As0 Ru2 2.535876 1_555
As0 Ru4 2.541234 1_565
As0 Ru0 2.547398 1_554
As0 Hf1 2.719494 1_555
As0 Hf3 2.722745 1_555
As0 Hf4 2.766139 1_554
As0 Hf5 2.766444 1_455
As0 Hf2 2.771987 1_555
As0 Hf0 2.773466 1_555
As1 Ru3 2.535876 1_565
As1 Ru5 2.541234 1_565
As1 Ru0 2.547398 1_554
As1 Hf0 2.719494 1_554
As1 Hf2 2.722738 1_555
As1 Hf5 2.766139 1_555
As1 Hf4 2.766444 1_665
As1 Hf3 2.771987 1_555
As1 Hf1 2.773466 1_565
As2 Ru4 2.535876 1_565
As2 Ru2 2.541234 1_566
As2 Ru1 2.547398 1_555
As2 Hf0 2.719494 1_555
As2 Hf2 2.722738 1_455
As2 Hf5 2.766139 1_455
As2 Hf4 2.766444 1_565
As2 Hf3 2.771982 1_556
As2 Hf1 2.773466 1_566
As3 Ru5 2.535876 1_555
As3 Ru3 2.541234 1_566
As3 Ru1 2.547398 1_655
As3 Hf1 2.719494 1_555
As3 Hf3 2.722740 1_656
As3 Hf4 2.766139 1_655
As3 Hf5 2.766444 1_556
As3 Hf2 2.771987 1_555
As3 Hf0 2.773466 1_555
Ru0 Ru4 2.851267 1_555
Ru0 Ru5 2.851268 1_555
Ru1 Ru3 2.851267 1_455
Ru1 Ru2 2.851268 1_555
