# generated using pymatgen
data_Y4Al4Ir3Rh
_symmetry_space_group_name_H-M   'P 1'
_cell_length_a   4.18001192
_cell_length_b   6.90001301
_cell_length_c   7.94957190
_cell_angle_alpha   90.10974099
_cell_angle_beta   90.00000000
_cell_angle_gamma   90.00000000
_symmetry_Int_Tables_number   1
_chemical_formula_structural   Y4Al4Ir3Rh
_chemical_formula_sum   'Y4 Al4 Ir3 Rh1'
_cell_volume   229.28221859
_cell_formula_units_Z   1
loop_
 _symmetry_equiv_pos_site_id
 _symmetry_equiv_pos_as_xyz
  1  'x, y, z'
loop_
 _atom_site_type_symbol
 _atom_site_label
 _atom_site_symmetry_multiplicity
 _atom_site_fract_x
 _atom_site_fract_y
 _atom_site_fract_z
 _atom_site_occupancy
  Y  Y0  1  0.25000000  0.53248363  0.17961966  1
  Y  Y1  1  0.75000000  0.46817499  0.82031047  1
  Y  Y2  1  0.75000000  0.96622069  0.68014878  1
  Y  Y3  1  0.25000000  0.03169465  0.32025261  1
  Al  Al0  1  0.25000000  0.63793797  0.56051616  1
  Al  Al1  1  0.75000000  0.36290596  0.43895283  1
  Al  Al2  1  0.75000000  0.86231049  0.06072090  1
  Al  Al3  1  0.25000000  0.13694322  0.94179737  1
  Ir  Ir0  1  0.25000000  0.76940104  0.87870825  1
  Ir  Ir1  1  0.75000000  0.23173463  0.12045875  1
  Ir  Ir2  1  0.75000000  0.73125177  0.37957461  1
  Rh  Rh0  1  0.25000000  0.26893996  0.61893665  1
loop_
_geom_bond_atom_site_label_1
_geom_bond_atom_site_label_2
_geom_bond_distance
_geom_bond_site_symmetry_2
Y0 Y1 3.566360 1_554
Y0 Y1 3.566360 1_454
Y0 Y3 3.619409 1_565
Y0 Y3 3.633841 1_555
Y1 Y2 3.614671 1_555
Y1 Y2 3.636274 1_545
Y2 Y3 3.572480 1_565
Y2 Y3 3.572480 1_665
Al0 Rh0 2.588975 1_555
Al0 Ir2 2.618254 1_555
Al0 Ir2 2.618254 1_455
Al0 Ir0 2.685584 1_555
Al0 Y0 3.112809 1_555
Al0 Y1 3.164611 1_555
Al0 Y1 3.164611 1_455
Al0 Y2 3.224167 1_455
Al0 Y2 3.224167 1_555
Al0 Y3 3.324099 1_565
Al1 Ir2 2.585942 1_555
Al1 Rh0 2.615192 1_655
Al1 Rh0 2.615192 1_555
Al1 Ir1 2.687168 1_555
Al1 Y1 3.116078 1_555
Al1 Y0 3.161742 1_655
Al1 Y0 3.161742 1_555
Al1 Y3 3.236226 1_555
Al1 Y3 3.236226 1_655
Al1 Y2 3.344913 1_545
Al2 Ir1 2.591996 1_565
Al2 Ir0 2.620904 1_654
Al2 Ir0 2.620904 1_554
Al2 Ir2 2.692863 1_555
Al2 Al3 2.976518 1_664
Al2 Al3 2.976518 1_564
Al2 Y2 3.110519 1_554
Al2 Y3 3.159355 1_665
Al2 Y3 3.159355 1_565
Al2 Y0 3.232502 1_655
Al2 Y0 3.232502 1_555
Al2 Y1 3.320922 1_554
Al3 Ir0 2.584219 1_545
Al3 Ir1 2.609514 1_456
Al3 Ir1 2.609514 1_556
Al3 Rh0 2.725056 1_555
Al3 Y3 3.096317 1_556
Al3 Y2 3.173763 1_445
Al3 Y2 3.173763 1_545
Al3 Y1 3.245430 1_555
Al3 Y1 3.245430 1_455
Al3 Y0 3.317117 1_556
Ir0 Y0 2.899923 1_556
Ir0 Y2 2.951644 1_455
Ir0 Y2 2.951644 1_555
Ir0 Y1 2.983279 1_555
Ir0 Y1 2.983279 1_455
Ir1 Y1 2.893052 1_554
Ir1 Y3 2.967206 1_555
Ir1 Y3 2.967206 1_655
Ir1 Y0 2.981931 1_655
Ir1 Y0 2.981931 1_555
Ir2 Y2 2.884985 1_555
Ir2 Y0 2.960994 1_655
Ir2 Y0 2.960994 1_555
Ir2 Y3 2.981919 1_665
Ir2 Y3 2.981919 1_565
Rh0 Y3 2.881439 1_555
Rh0 Y1 2.968541 1_455
Rh0 Y1 2.968541 1_555
Rh0 Y2 2.995289 1_545
Rh0 Y2 2.995289 1_445
