# generated using pymatgen
data_CaHf4(AsO4)6
_symmetry_space_group_name_H-M   'P 1'
_cell_length_a   9.01036884
_cell_length_b   9.01036772
_cell_length_c   9.33227025
_cell_angle_alpha   61.13461795
_cell_angle_beta   61.13462175
_cell_angle_gamma   60.00000201
_symmetry_Int_Tables_number   1
_chemical_formula_structural   CaHf4(AsO4)6
_chemical_formula_sum   'Ca1 Hf4 As6 O24'
_cell_volume   544.74888321
_cell_formula_units_Z   1
loop_
 _symmetry_equiv_pos_site_id
 _symmetry_equiv_pos_as_xyz
  1  'x, y, z'
loop_
 _atom_site_type_symbol
 _atom_site_label
 _atom_site_symmetry_multiplicity
 _atom_site_fract_x
 _atom_site_fract_y
 _atom_site_fract_z
 _atom_site_occupancy
  Ca  Ca0  1  0.50000000  0.50000000  0.50000000  1
  Hf  Hf0  1  0.14094444  0.14094444  0.57716568  1
  Hf  Hf1  1  0.85905556  0.85905556  0.42283432  1
  Hf  Hf2  1  0.64530082  0.64530082  0.06409853  1
  Hf  Hf3  1  0.35469918  0.35469918  0.93590147  1
  As  As0  1  0.95900093  0.25612869  0.25765904  1
  As  As1  1  0.25612869  0.52721134  0.25765904  1
  As  As2  1  0.52721134  0.95900093  0.25765904  1
  As  As3  1  0.04099907  0.74387131  0.74234096  1
  As  As4  1  0.74387131  0.47278866  0.74234096  1
  As  As5  1  0.47278866  0.04099907  0.74234096  1
  O  O0  1  0.98156292  0.26711811  0.42035808  1
  O  O1  1  0.26711811  0.33096089  0.42035808  1
  O  O2  1  0.33096089  0.98156292  0.42035808  1
  O  O3  1  0.01843708  0.73288189  0.57964192  1
  O  O4  1  0.73288189  0.66903911  0.57964192  1
  O  O5  1  0.66903911  0.01843708  0.57964192  1
  O  O6  1  0.50424746  0.88234648  0.92953246  1
  O  O7  1  0.88234648  0.68387461  0.92953246  1
  O  O8  1  0.68387461  0.50424746  0.92953246  1
  O  O9  1  0.49575254  0.11765352  0.07046754  1
  O  O10  1  0.11765352  0.31612539  0.07046754  1
  O  O11  1  0.31612539  0.49575254  0.07046754  1
  O  O12  1  0.02519815  0.94762519  0.71709578  1
  O  O13  1  0.94762519  0.31008088  0.71709578  1
  O  O14  1  0.31008088  0.02519815  0.71709578  1
  O  O15  1  0.97480185  0.05237481  0.28290422  1
  O  O16  1  0.05237481  0.68991912  0.28290422  1
  O  O17  1  0.68991912  0.97480185  0.28290422  1
  O  O18  1  0.59209836  0.74874012  0.25204475  1
  O  O19  1  0.74874012  0.40711677  0.25204475  1
  O  O20  1  0.40711677  0.59209836  0.25204475  1
  O  O21  1  0.40790164  0.25125988  0.74795525  1
  O  O22  1  0.25125988  0.59288323  0.74795525  1
  O  O23  1  0.59288323  0.40790164  0.74795525  1
loop_
_geom_bond_atom_site_label_1
_geom_bond_atom_site_label_2
_geom_bond_distance
_geom_bond_site_symmetry_2
Ca0 O18 2.462698 1_555
Ca0 O21 2.462698 1_555
Ca0 O23 2.462698 1_555
Ca0 O20 2.462698 1_555
Ca0 O22 2.462698 1_555
Ca0 O19 2.462698 1_555
Hf0 O12 2.032880 1_545
Hf0 O13 2.032886 1_455
Hf0 O14 2.032887 1_555
Hf0 O0 2.070359 1_455
Hf0 O2 2.070361 1_545
Hf0 O1 2.070366 1_555
Hf1 O15 2.032880 1_565
Hf1 O16 2.032886 1_655
Hf1 O17 2.032887 1_555
Hf1 O3 2.070359 1_655
Hf1 O5 2.070361 1_565
Hf1 O4 2.070366 1_555
Hf2 O6 1.997749 1_554
Hf2 O8 1.997749 1_554
Hf2 O7 1.997749 1_554
Hf2 O18 2.120054 1_555
Hf2 O19 2.120057 1_555
Hf2 O20 2.120060 1_555
Hf3 O9 1.997749 1_556
Hf3 O11 1.997749 1_556
Hf3 O10 1.997749 1_556
Hf3 O21 2.120054 1_555
Hf3 O22 2.120057 1_555
Hf3 O23 2.120060 1_555
As0 O15 1.673227 1_555
As0 O0 1.679236 1_555
As0 O10 1.684449 1_655
As0 O19 1.700711 1_555
As1 O16 1.673228 1_555
As1 O1 1.679236 1_555
As1 O11 1.684454 1_555
As1 O20 1.700711 1_555
As2 O17 1.673228 1_555
As2 O2 1.679236 1_555
As2 O9 1.684451 1_565
As2 O18 1.700711 1_555
As3 O12 1.673227 1_555
As3 O3 1.679236 1_555
As3 O7 1.684449 1_455
As3 O22 1.700711 1_555
As4 O13 1.673228 1_555
As4 O4 1.679236 1_555
As4 O8 1.684454 1_555
As4 O23 1.700711 1_555
As5 O14 1.673228 1_555
As5 O5 1.679236 1_555
As5 O6 1.684451 1_545
As5 O21 1.700711 1_555
