# generated using pymatgen
data_Cs3Li2ZrP3
_symmetry_space_group_name_H-M   'P 1'
_cell_length_a   10.37146985
_cell_length_b   10.37147059
_cell_length_c   16.50366851
_cell_angle_alpha   90.00000000
_cell_angle_beta   90.00000000
_cell_angle_gamma   143.13474773
_symmetry_Int_Tables_number   1
_chemical_formula_structural   Cs3Li2ZrP3
_chemical_formula_sum   'Cs12 Li8 Zr4 P12'
_cell_volume   1065.03882389
_cell_formula_units_Z   4
loop_
 _symmetry_equiv_pos_site_id
 _symmetry_equiv_pos_as_xyz
  1  'x, y, z'
loop_
 _atom_site_type_symbol
 _atom_site_label
 _atom_site_symmetry_multiplicity
 _atom_site_fract_x
 _atom_site_fract_y
 _atom_site_fract_z
 _atom_site_occupancy
  Cs  Cs0  1  0.94860774  0.60325175  0.82667846  1
  Cs  Cs1  1  0.55139226  0.89674825  0.32667846  1
  Cs  Cs2  1  0.39674825  0.05139226  0.17332154  1
  Cs  Cs3  1  0.05139226  0.39674825  0.17332154  1
  Cs  Cs4  1  0.89674825  0.55139226  0.32667846  1
  Cs  Cs5  1  0.44860774  0.10325175  0.67332154  1
  Cs  Cs6  1  0.60325175  0.94860774  0.82667846  1
  Cs  Cs7  1  0.29684162  0.29684162  0.31777040  1
  Cs  Cs8  1  0.79684162  0.79684162  0.18222960  1
  Cs  Cs9  1  0.20315838  0.20315838  0.81777040  1
  Cs  Cs10  1  0.70315838  0.70315838  0.68222960  1
  Cs  Cs11  1  0.10325175  0.44860774  0.67332154  1
  Li  Li0  1  0.91698741  0.08301259  0.00000000  1
  Li  Li1  1  0.58301259  0.41698741  0.50000000  1
  Li  Li2  1  0.08301259  0.91698741  0.00000000  1
  Li  Li3  1  0.41698741  0.58301259  0.50000000  1
  Li  Li4  1  0.75156847  0.24843153  0.00000000  1
  Li  Li5  1  0.74843153  0.25156847  0.50000000  1
  Li  Li6  1  0.24843153  0.75156847  0.00000000  1
  Li  Li7  1  0.25156847  0.74843153  0.50000000  1
  Zr  Zr0  1  0.58768495  0.41231505  0.00000000  1
  Zr  Zr1  1  0.91231505  0.08768495  0.50000000  1
  Zr  Zr2  1  0.41231505  0.58768495  0.00000000  1
  Zr  Zr3  1  0.08768495  0.91231505  0.50000000  1
  P  P0  1  0.89691311  0.57338155  0.07950075  1
  P  P1  1  0.42661845  0.10308689  0.92049925  1
  P  P2  1  0.60308689  0.92661845  0.57950075  1
  P  P3  1  0.92661845  0.60308689  0.57950075  1
  P  P4  1  0.10308689  0.42661845  0.92049925  1
  P  P5  1  0.57338155  0.89691311  0.07950075  1
  P  P6  1  0.39691311  0.07338155  0.42049925  1
  P  P7  1  0.22019459  0.22019459  0.57826898  1
  P  P8  1  0.72019459  0.72019459  0.92173102  1
  P  P9  1  0.27980541  0.27980541  0.07826898  1
  P  P10  1  0.07338155  0.39691311  0.42049925  1
  P  P11  1  0.77980541  0.77980541  0.42173102  1
loop_
_geom_bond_atom_site_label_1
_geom_bond_atom_site_label_2
_geom_bond_distance
_geom_bond_site_symmetry_2
Cs0 P1 3.567425 1_665
Cs0 P4 3.607901 1_655
Cs0 P1 3.698583 1_555
Cs0 P8 3.760517 1_555
Cs1 P10 3.567425 1_555
Cs1 P6 3.607901 1_565
Cs1 P10 3.698583 1_665
Cs1 P11 3.760517 1_555
Cs2 P0 3.567425 1_445
Cs2 P5 3.607901 1_545
Cs2 P0 3.698583 1_555
Cs2 P9 3.760517 1_555
Cs3 P5 3.567425 1_445
Cs3 P0 3.607901 1_455
Cs3 P5 3.698583 1_555
Cs3 P9 3.760517 1_555
Cs4 P6 3.567425 1_555
Cs4 P10 3.607901 1_655
Cs4 P6 3.698583 1_665
Cs4 P11 3.760517 1_555
Cs5 P3 3.567425 1_555
Cs5 P2 3.607901 1_545
Cs5 P3 3.698583 1_445
Cs5 P7 3.760517 1_555
Cs6 P4 3.567425 1_665
Cs6 P1 3.607901 1_565
Cs6 P4 3.698583 1_555
Cs6 P8 3.760517 1_555
Cs7 P11 3.602430 1_555
Cs7 P10 3.629301 1_555
Cs7 P6 3.629301 1_555
Cs7 P11 3.800419 1_445
Cs7 P9 3.954231 1_555
Cs8 P9 3.602430 1_665
Cs8 P5 3.629301 1_555
Cs8 P0 3.629301 1_555
Cs8 P9 3.800419 1_555
Cs8 P11 3.954231 1_555
Cs9 P8 3.602430 1_445
Cs9 P1 3.629301 1_555
Cs9 P4 3.629301 1_555
Cs9 P8 3.800419 1_555
Cs9 P7 3.954231 1_555
Cs10 P7 3.602430 1_555
Cs10 P3 3.629301 1_555
Cs10 P2 3.629301 1_555
Cs10 P7 3.800419 1_665
Cs10 P8 3.954231 1_555
Cs11 P2 3.567425 1_555
Cs11 P3 3.607901 1_455
Cs11 P2 3.698583 1_445
Cs11 P7 3.760517 1_555
Li0 P5 2.672214 1_545
Li0 P4 2.672215 1_654
Li0 P9 2.775780 1_655
Li0 P8 2.775781 1_544
Li1 P3 2.672214 1_555
Li1 P6 2.672215 1_555
Li1 P7 2.775780 1_555
Li1 P11 2.775781 1_555
Li2 P1 2.672214 1_564
Li2 P0 2.672215 1_455
Li2 P8 2.775780 1_454
Li2 P9 2.775781 1_565
Li3 P10 2.672214 1_555
Li3 P2 2.672215 1_555
Li3 P11 2.775780 1_555
Li3 P7 2.775781 1_555
Li4 P1 2.687575 1_554
Li4 P0 2.687576 1_555
Li4 P4 2.765429 1_654
Li4 P5 2.765430 1_545
Li5 P10 2.687575 1_655
Li5 P2 2.687576 1_545
Li5 P6 2.765429 1_555
Li5 P3 2.765430 1_555
Li6 P5 2.687575 1_555
Li6 P4 2.687576 1_554
Li6 P0 2.765429 1_455
Li6 P1 2.765430 1_564
Li7 P3 2.687575 1_455
Li7 P6 2.687576 1_565
Li7 P2 2.765429 1_555
Li7 P10 2.765430 1_555
P0 Zr0 2.495052 1_555
P1 Zr0 2.495052 1_556
P2 Zr1 2.495052 1_565
P3 Zr3 2.495052 1_655
P4 Zr2 2.495052 1_556
P5 Zr2 2.495052 1_555
P6 Zr3 2.495052 1_545
P7 Zr1 2.594550 1_455
P7 Zr3 2.594550 1_545
P8 Zr2 2.594550 1_556
P8 Zr0 2.594550 1_556
P9 Zr0 2.594550 1_555
P9 Zr2 2.594550 1_555
P10 Zr1 2.495052 1_455
P11 Zr3 2.594550 1_655
P11 Zr1 2.594550 1_565
