# generated using pymatgen
data_K(WO3)6
_symmetry_space_group_name_H-M   'P 1'
_cell_length_a   7.40658512
_cell_length_b   7.40658512
_cell_length_c   7.61682637
_cell_angle_alpha   90.00000000
_cell_angle_beta   90.00000000
_cell_angle_gamma   119.99999300
_symmetry_Int_Tables_number   1
_chemical_formula_structural   K(WO3)6
_chemical_formula_sum   'K1 W6 O18'
_cell_volume   361.86014615
_cell_formula_units_Z   1
loop_
 _symmetry_equiv_pos_site_id
 _symmetry_equiv_pos_as_xyz
  1  'x, y, z'
loop_
 _atom_site_type_symbol
 _atom_site_label
 _atom_site_symmetry_multiplicity
 _atom_site_fract_x
 _atom_site_fract_y
 _atom_site_fract_z
 _atom_site_occupancy
  K  K0  1  0.00000000  0.00000000  0.50000000  1
  W  W0  1  0.00000000  0.50000000  0.24948410  1
  W  W1  1  0.50000000  0.00000000  0.24948410  1
  W  W2  1  0.50000000  0.00000000  0.75051590  1
  W  W3  1  0.50000000  0.50000000  0.75051590  1
  W  W4  1  0.50000000  0.50000000  0.24948410  1
  W  W5  1  0.00000000  0.50000000  0.75051590  1
  O  O0  1  0.00000000  0.50000000  0.50000000  1
  O  O1  1  0.00000000  0.50000000  0.00000000  1
  O  O2  1  0.21258299  0.78741701  0.25196841  1
  O  O3  1  0.21258299  0.78741701  0.74803159  1
  O  O4  1  0.21258299  0.42516598  0.25196841  1
  O  O5  1  0.21258299  0.42516598  0.74803159  1
  O  O6  1  0.50000000  0.00000000  0.50000000  1
  O  O7  1  0.57483402  0.78741701  0.25196841  1
  O  O8  1  0.57483402  0.78741701  0.74803159  1
  O  O9  1  0.50000000  0.50000000  0.50000000  1
  O  O10  1  0.50000000  0.50000000  0.00000000  1
  O  O11  1  0.42516598  0.21258299  0.25196841  1
  O  O12  1  0.42516598  0.21258299  0.74803159  1
  O  O13  1  0.50000000  0.00000000  0.00000000  1
  O  O14  1  0.78741701  0.57483402  0.74803159  1
  O  O15  1  0.78741701  0.57483402  0.25196841  1
  O  O16  1  0.78741701  0.21258299  0.25196841  1
  O  O17  1  0.78741701  0.21258299  0.74803159  1
loop_
_geom_bond_atom_site_label_1
_geom_bond_atom_site_label_2
_geom_bond_distance
_geom_bond_site_symmetry_2
K0 O16 3.317591 1_455
K0 O17 3.317591 1_455
K0 O2 3.317591 1_545
K0 O3 3.317591 1_545
K0 O14 3.317591 1_445
K0 O15 3.317591 1_445
K0 O7 3.317591 1_445
K0 O8 3.317591 1_445
K0 O5 3.317591 1_555
K0 O11 3.317591 1_555
K0 O4 3.317591 1_555
K0 O12 3.317591 1_555
O0 W5 1.908136 1_555
O0 W0 1.908136 1_555
O1 W0 1.900277 1_555
O1 W5 1.900277 1_554
O2 W0 1.912945 1_555
O2 W1 1.912945 1_565
O3 W5 1.912945 1_555
O3 W2 1.912945 1_565
O4 W0 1.912945 1_555
O4 W4 1.912945 1_555
O5 W5 1.912945 1_555
O5 W3 1.912945 1_555
O6 W2 1.908136 1_555
O6 W1 1.908136 1_555
O7 W1 1.912945 1_565
O7 W4 1.912945 1_555
O8 W2 1.912945 1_565
O8 W3 1.912945 1_555
O9 W4 1.908136 1_555
O9 W3 1.908136 1_555
O10 W3 1.900277 1_554
O10 W4 1.900277 1_555
O11 W1 1.912945 1_555
O11 W4 1.912945 1_555
O12 W2 1.912945 1_555
O12 W3 1.912945 1_555
O13 W2 1.900277 1_554
O13 W1 1.900277 1_555
O14 W5 1.912945 1_655
O14 W3 1.912945 1_555
O15 W0 1.912945 1_655
O15 W4 1.912945 1_555
O16 W0 1.912945 1_655
O16 W1 1.912945 1_555
O17 W2 1.912945 1_555
O17 W5 1.912945 1_655
