# generated using pymatgen
data_TcSn14IrRh4
_symmetry_space_group_name_H-M   'P 1'
_cell_length_a   8.16735261
_cell_length_b   8.16735274
_cell_length_c   8.16735263
_cell_angle_alpha   109.28211477
_cell_angle_beta   109.85009748
_cell_angle_gamma   109.28211468
_symmetry_Int_Tables_number   1
_chemical_formula_structural   TcSn14IrRh4
_chemical_formula_sum   'Tc1 Sn14 Ir1 Rh4'
_cell_volume   419.38006579
_cell_formula_units_Z   1
loop_
 _symmetry_equiv_pos_site_id
 _symmetry_equiv_pos_as_xyz
  1  'x, y, z'
loop_
 _atom_site_type_symbol
 _atom_site_label
 _atom_site_symmetry_multiplicity
 _atom_site_fract_x
 _atom_site_fract_y
 _atom_site_fract_z
 _atom_site_occupancy
  Tc  Tc0  1  0.65229771  0.00000000  0.65229771  1
  Sn  Sn0  1  0.99707558  0.00000000  0.67335495  1
  Sn  Sn1  1  0.32663838  0.00000000  0.99924980  1
  Sn  Sn2  1  0.67335495  0.67627937  0.67335495  1
  Sn  Sn3  1  0.99707558  0.32372063  0.99707558  1
  Sn  Sn4  1  0.32663838  0.32738958  0.32663838  1
  Sn  Sn5  1  0.99924980  0.67261042  0.99924980  1
  Sn  Sn6  1  0.25371870  0.75015221  0.50356750  1
  Sn  Sn7  1  0.75341529  0.24984779  0.50356750  1
  Sn  Sn8  1  0.75099954  0.50000000  0.25099954  1
  Sn  Sn9  1  0.25099954  0.50000000  0.75099954  1
  Sn  Sn10  1  0.50356750  0.75015221  0.25371870  1
  Sn  Sn11  1  0.50356750  0.24984779  0.75341529  1
  Sn  Sn12  1  0.99924980  0.00000000  0.32663838  1
  Sn  Sn13  1  0.67335495  0.00000000  0.99707558  1
  Ir  Ir0  1  0.33862697  0.00000000  0.33862697  1
  Rh  Rh0  1  0.65560273  0.65556127  0.00004246  1
  Rh  Rh1  1  0.34448119  0.34443873  0.00004246  1
  Rh  Rh2  1  0.00004246  0.65556127  0.65560273  1
  Rh  Rh3  1  0.00004246  0.34443873  0.34448119  1
loop_
_geom_bond_atom_site_label_1
_geom_bond_atom_site_label_2
_geom_bond_distance
_geom_bond_site_symmetry_2
Sn0 Tc0 2.762265 1_555
Sn0 Sn12 2.837835 1_555
Sn0 Sn2 3.060080 1_545
Sn0 Sn3 3.060080 1_555
Sn0 Sn1 3.076389 1_655
Sn1 Sn13 2.837835 1_555
Sn2 Tc0 2.762265 1_565
Sn2 Sn4 2.837833 1_555
Sn2 Sn5 3.076394 1_555
Sn3 Tc0 2.762265 1_555
Sn3 Sn5 2.837827 1_555
Sn3 Sn4 3.076384 1_656
Sn6 Tc0 2.743548 1_565
Sn7 Tc0 2.743542 1_555
Sn10 Tc0 2.743548 1_565
Sn11 Tc0 2.743542 1_555
Sn12 Sn13 3.076389 1_554
Sn13 Tc0 2.762265 1_555
Sn13 Sn2 3.060080 1_545
Sn13 Sn3 3.060080 1_555
Ir0 Sn12 2.740113 1_455
Ir0 Sn1 2.740113 1_554
Ir0 Sn5 2.740116 1_444
Ir0 Sn4 2.740121 1_555
Ir0 Sn7 2.824011 1_555
Ir0 Sn11 2.824011 1_555
Ir0 Sn10 2.824012 1_545
Ir0 Sn6 2.824012 1_545
Ir0 Tc0 2.944332 1_555
Rh0 Sn9 2.761724 1_554
Rh0 Sn12 2.766171 1_565
Rh0 Sn5 2.766179 1_554
Rh0 Sn8 2.776958 1_555
Rh0 Sn13 2.777313 1_564
Rh0 Sn2 2.777318 1_554
Rh0 Sn10 2.784771 1_555
Rh0 Sn11 2.784786 1_554
Rh1 Sn9 2.761731 1_554
Rh1 Sn4 2.766165 1_555
Rh1 Sn1 2.766168 1_554
Rh1 Sn8 2.776956 1_555
Rh1 Sn3 2.777315 1_454
Rh1 Sn0 2.777315 1_454
Rh1 Sn10 2.784783 1_555
Rh1 Sn11 2.784784 1_554
Rh2 Sn8 2.761724 1_455
Rh2 Sn1 2.766171 1_565
Rh2 Sn5 2.766179 1_455
Rh2 Sn9 2.776958 1_555
Rh2 Sn0 2.777313 1_465
Rh2 Sn2 2.777318 1_455
Rh2 Sn6 2.784771 1_555
Rh2 Sn7 2.784786 1_455
Rh3 Sn8 2.761731 1_455
Rh3 Sn4 2.766165 1_555
Rh3 Sn12 2.766168 1_455
Rh3 Sn9 2.776956 1_555
Rh3 Sn3 2.777315 1_454
Rh3 Sn13 2.777315 1_454
Rh3 Sn6 2.784783 1_555
Rh3 Sn7 2.784784 1_455
