# generated using pymatgen
data_K3RbHfSe4
_symmetry_space_group_name_H-M   'P 1'
_cell_length_a   8.51207147
_cell_length_b   10.18511123
_cell_length_c   15.20683461
_cell_angle_alpha   90.00000000
_cell_angle_beta   90.00000000
_cell_angle_gamma   90.00000000
_symmetry_Int_Tables_number   1
_chemical_formula_structural   K3RbHfSe4
_chemical_formula_sum   'K12 Rb4 Hf4 Se16'
_cell_volume   1318.37773681
_cell_formula_units_Z   4
loop_
 _symmetry_equiv_pos_site_id
 _symmetry_equiv_pos_as_xyz
  1  'x, y, z'
loop_
 _atom_site_type_symbol
 _atom_site_label
 _atom_site_symmetry_multiplicity
 _atom_site_fract_x
 _atom_site_fract_y
 _atom_site_fract_z
 _atom_site_occupancy
  K  K0  1  0.97840155  0.75000000  0.43113745  1
  K  K1  1  0.47840155  0.25000000  0.06886255  1
  K  K2  1  0.02159845  0.25000000  0.56886255  1
  K  K3  1  0.52159845  0.75000000  0.93113745  1
  K  K4  1  0.83874417  0.05628385  0.27388777  1
  K  K5  1  0.33874417  0.94371615  0.22611223  1
  K  K6  1  0.16125583  0.55628385  0.72611223  1
  K  K7  1  0.66125583  0.44371615  0.77388777  1
  K  K8  1  0.16125583  0.94371615  0.72611223  1
  K  K9  1  0.66125583  0.05628385  0.77388777  1
  K  K10  1  0.83874417  0.44371615  0.27388777  1
  K  K11  1  0.33874417  0.55628385  0.22611223  1
  Rb  Rb0  1  0.00000000  0.00000000  0.00000000  1
  Rb  Rb1  1  0.50000000  0.00000000  0.50000000  1
  Rb  Rb2  1  0.00000000  0.50000000  0.00000000  1
  Rb  Rb3  1  0.50000000  0.50000000  0.50000000  1
  Hf  Hf0  1  0.76249302  0.75000000  0.67165999  1
  Hf  Hf1  1  0.23750698  0.25000000  0.32834001  1
  Hf  Hf2  1  0.73750698  0.75000000  0.17165999  1
  Hf  Hf3  1  0.26249302  0.25000000  0.82834001  1
  Se  Se0  1  0.96822010  0.25000000  0.82040018  1
  Se  Se1  1  0.53177990  0.25000000  0.32040018  1
  Se  Se2  1  0.46822010  0.75000000  0.67959982  1
  Se  Se3  1  0.03177990  0.75000000  0.17959982  1
  Se  Se4  1  0.64485084  0.54791562  0.09514682  1
  Se  Se5  1  0.14485084  0.45208438  0.40485318  1
  Se  Se6  1  0.35514916  0.04791562  0.90485318  1
  Se  Se7  1  0.85514916  0.95208438  0.59514682  1
  Se  Se8  1  0.35514916  0.45208438  0.90485318  1
  Se  Se9  1  0.85514916  0.54791562  0.59514682  1
  Se  Se10  1  0.64485084  0.95208438  0.09514682  1
  Se  Se11  1  0.14485084  0.04791562  0.40485318  1
  Se  Se12  1  0.62411578  0.75000000  0.32491778  1
  Se  Se13  1  0.12411578  0.25000000  0.17508222  1
  Se  Se14  1  0.37588422  0.25000000  0.67508222  1
  Se  Se15  1  0.87588422  0.75000000  0.82491778  1
loop_
_geom_bond_atom_site_label_1
_geom_bond_atom_site_label_2
_geom_bond_distance
_geom_bond_site_symmetry_2
K0 Se11 3.372560 1_665
K0 Se5 3.372560 1_655
K0 Se7 3.399622 1_555
K0 Se9 3.399622 1_555
K0 Se12 3.421047 1_555
K0 Se3 3.851982 1_655
K1 Se4 3.372560 1_555
K1 Se10 3.372560 1_545
K1 Se8 3.399622 1_554
K1 Se6 3.399622 1_554
K1 Se13 3.421047 1_555
K1 Se1 3.851982 1_555
K2 Se9 3.372560 1_455
K2 Se7 3.372560 1_445
K2 Se5 3.399622 1_555
K2 Se11 3.399622 1_555
K2 Se14 3.421047 1_555
K2 Se0 3.851982 1_455
K3 Se6 3.372560 1_565
K3 Se8 3.372560 1_555
K3 Se10 3.399622 1_556
K3 Se4 3.399622 1_556
K3 Se15 3.421047 1_555
K3 Se2 3.851982 1_555
K4 Se11 3.280667 1_655
K4 Se1 3.349679 1_555
K4 Se10 3.352348 1_545
K4 Se13 3.471443 1_655
K4 Se12 3.697481 1_545
K4 Se3 3.806210 1_645
K5 Se10 3.280667 1_555
K5 Se3 3.349679 1_555
K5 Se11 3.352348 1_565
K5 Se12 3.471443 1_555
K5 Se13 3.697481 1_565
K5 Se1 3.806210 1_565
K6 Se9 3.280667 1_455
K6 Se2 3.349679 1_555
K6 Se8 3.352348 1_555
K6 Se15 3.471443 1_455
K6 Se14 3.697481 1_555
K6 Se0 3.806210 1_455
K7 Se8 3.280667 1_555
K7 Se0 3.349679 1_555
K7 Se9 3.352348 1_555
K7 Se14 3.471443 1_555
K7 Se15 3.697481 1_555
K7 Se2 3.806210 1_555
K8 Se7 3.280667 1_455
K8 Se2 3.349679 1_555
K8 Se6 3.352348 1_565
K8 Se15 3.471443 1_455
K8 Se14 3.697481 1_565
K8 Se0 3.806210 1_465
K9 Se6 3.280667 1_555
K9 Se0 3.349679 1_555
K9 Se7 3.352348 1_545
K9 Se14 3.471443 1_555
K9 Se15 3.697481 1_545
K9 Se2 3.806210 1_545
K10 Se5 3.280667 1_655
K10 Se1 3.349679 1_555
K10 Se4 3.352348 1_555
K10 Se13 3.471443 1_655
K10 Se12 3.697481 1_555
K10 Se3 3.806210 1_655
K11 Se4 3.280667 1_555
K11 Se3 3.349679 1_555
K11 Se5 3.352348 1_555
K11 Se12 3.471443 1_555
K11 Se13 3.697481 1_555
K11 Se1 3.806210 1_555
Rb0 Se10 3.386812 1_445
Rb0 Se6 3.386812 1_554
Rb0 Se3 3.743776 1_545
Rb0 Se0 3.743776 1_454
Rb0 Se13 3.832533 1_555
Rb0 Se15 3.832533 1_444
Rb1 Se7 3.386812 1_545
Rb1 Se11 3.386812 1_555
Rb1 Se2 3.743776 1_545
Rb1 Se1 3.743776 1_555
Rb1 Se14 3.832533 1_555
Rb1 Se12 3.832533 1_545
Rb2 Se4 3.386812 1_455
Rb2 Se8 3.386812 1_554
Rb2 Se3 3.743776 1_555
Rb2 Se0 3.743776 1_454
Rb2 Se13 3.832533 1_555
Rb2 Se15 3.832533 1_454
Rb3 Se9 3.386812 1_555
Rb3 Se5 3.386812 1_555
Rb3 Se2 3.743776 1_555
Rb3 Se1 3.743776 1_555
Rb3 Se14 3.832533 1_555
Rb3 Se12 3.832533 1_555
Hf0 Se7 2.492434 1_555
Hf0 Se9 2.492434 1_555
Hf0 Se2 2.507780 1_555
Hf0 Se15 2.522526 1_555
Hf1 Se5 2.492434 1_555
Hf1 Se11 2.492434 1_555
Hf1 Se1 2.507780 1_555
Hf1 Se13 2.522526 1_555
Hf2 Se10 2.492434 1_555
Hf2 Se4 2.492434 1_555
Hf2 Se3 2.507780 1_655
Hf2 Se12 2.522526 1_555
Hf3 Se8 2.492434 1_555
Hf3 Se6 2.492434 1_555
Hf3 Se0 2.507780 1_455
Hf3 Se14 2.522526 1_555
