# generated using pymatgen
data_Rb2VAuS4
_symmetry_space_group_name_H-M   'P 1'
_cell_length_a   13.52741216
_cell_length_b   12.06616591
_cell_length_c   7.32061738
_cell_angle_alpha   84.74090828
_cell_angle_beta   62.65091856
_cell_angle_gamma   32.60817734
_symmetry_Int_Tables_number   1
_chemical_formula_structural   Rb2VAuS4
_chemical_formula_sum   'Rb4 V2 Au2 S8'
_cell_volume   450.09506501
_cell_formula_units_Z   2
loop_
 _symmetry_equiv_pos_site_id
 _symmetry_equiv_pos_as_xyz
  1  'x, y, z'
loop_
 _atom_site_type_symbol
 _atom_site_label
 _atom_site_symmetry_multiplicity
 _atom_site_fract_x
 _atom_site_fract_y
 _atom_site_fract_z
 _atom_site_occupancy
  Rb  Rb0  1  0.68011680  0.68011680  0.31988320  1
  Rb  Rb1  1  0.31988320  0.31988320  0.68011680  1
  Rb  Rb2  1  0.93011680  0.93011680  0.56988320  1
  Rb  Rb3  1  0.56988320  0.56988320  0.93011680  1
  V  V0  1  0.75000000  0.75000000  0.75000000  1
  V  V1  1  0.50000000  0.50000000  0.50000000  1
  Au  Au0  1  0.00000000  0.00000000  0.00000000  1
  Au  Au1  1  0.25000000  0.25000000  0.25000000  1
  S  S0  1  0.39003007  0.00022888  0.91620577  1
  S  S1  1  0.69353727  0.91620577  0.00022888  1
  S  S2  1  0.91620577  0.69353727  0.39003007  1
  S  S3  1  0.00022888  0.39003007  0.69353727  1
  S  S4  1  0.24977112  0.85996993  0.55646273  1
  S  S5  1  0.55646273  0.33379423  0.24977112  1
  S  S6  1  0.33379423  0.55646273  0.85996993  1
  S  S7  1  0.85996993  0.24977112  0.33379423  1
loop_
_geom_bond_atom_site_label_1
_geom_bond_atom_site_label_2
_geom_bond_distance
_geom_bond_site_symmetry_2
Rb0 S3 3.345182 1_654
Rb0 S0 3.345194 1_565
Rb0 S7 3.426302 1_555
Rb0 S4 3.426306 1_555
Rb0 S1 3.589265 1_555
Rb0 S2 3.589273 1_555
Rb0 S3 3.727820 1_565
Rb0 S0 3.727823 1_654
Rb1 S1 3.345184 1_456
Rb1 S2 3.345188 1_545
Rb1 S6 3.426280 1_555
Rb1 S5 3.426288 1_555
Rb1 S3 3.589246 1_555
Rb1 S0 3.589254 1_555
Rb1 S1 3.727813 1_545
Rb1 S2 3.727825 1_456
Rb2 S5 3.345184 1_655
Rb2 S6 3.345188 1_565
Rb2 S2 3.426280 1_555
Rb2 S1 3.426288 1_556
Rb2 S4 3.589246 1_655
Rb2 S7 3.589254 1_565
Rb2 S5 3.727813 1_566
Rb2 S6 3.727825 1_654
Rb3 S4 3.345182 1_556
Rb3 S7 3.345194 1_555
Rb3 S0 3.426302 1_565
Rb3 S3 3.426306 1_655
Rb3 S5 3.589265 1_556
Rb3 S6 3.589273 1_555
Rb3 S4 3.727820 1_645
Rb3 S7 3.727823 1_466
Au0 S7 2.474106 1_455
Au0 S4 2.474117 1_544
Au0 S6 2.474123 1_544
Au0 S5 2.474126 1_455
Au0 V1 2.845428 1_455
Au0 V1 2.845428 1_544
Au1 S0 2.474106 1_554
Au1 S3 2.474117 1_555
Au1 S2 2.474123 1_455
Au1 S1 2.474126 1_545
Au1 V0 2.845428 1_544
Au1 V0 2.845428 1_455
S0 V0 2.183583 1_545
S1 V0 2.183605 1_554
S2 V0 2.183594 1_555
S3 V0 2.183588 1_455
S4 V1 2.183588 1_555
S5 V1 2.183605 1_555
S6 V1 2.183594 1_555
S7 V1 2.183583 1_555
