# generated using pymatgen
data_IrRh(Se2Br)6
_symmetry_space_group_name_H-M   'P 1'
_cell_length_a   8.81173790
_cell_length_b   8.81173732
_cell_length_c   8.81173825
_cell_angle_alpha   108.77431042
_cell_angle_beta   108.77430805
_cell_angle_gamma   108.77430913
_symmetry_Int_Tables_number   1
_chemical_formula_structural   IrRh(Se2Br)6
_chemical_formula_sum   'Ir1 Rh1 Se12 Br6'
_cell_volume   539.86183453
_cell_formula_units_Z   1
loop_
 _symmetry_equiv_pos_site_id
 _symmetry_equiv_pos_as_xyz
  1  'x, y, z'
loop_
 _atom_site_type_symbol
 _atom_site_label
 _atom_site_symmetry_multiplicity
 _atom_site_fract_x
 _atom_site_fract_y
 _atom_site_fract_z
 _atom_site_occupancy
  Ir  Ir0  1  0.25000000  0.25000000  0.25000000  1
  Rh  Rh0  1  0.75000000  0.75000000  0.75000000  1
  Se  Se0  1  0.92505578  0.15889535  0.17268313  1
  Se  Se1  1  0.17268313  0.92505578  0.15889535  1
  Se  Se2  1  0.15889535  0.17268313  0.92505578  1
  Se  Se3  1  0.67455219  0.65976396  0.42509861  1
  Se  Se4  1  0.42509861  0.67455219  0.65976396  1
  Se  Se5  1  0.65976396  0.42509861  0.67455219  1
  Se  Se6  1  0.07490139  0.84023604  0.82544781  1
  Se  Se7  1  0.82544781  0.07490139  0.84023604  1
  Se  Se8  1  0.84023604  0.82544781  0.07490139  1
  Se  Se9  1  0.32731687  0.34110465  0.57494422  1
  Se  Se10  1  0.57494422  0.32731687  0.34110465  1
  Se  Se11  1  0.34110465  0.57494422  0.32731687  1
  Br  Br0  1  0.98963835  0.51036165  0.25000000  1
  Br  Br1  1  0.25000000  0.98963835  0.51036165  1
  Br  Br2  1  0.51036165  0.25000000  0.98963835  1
  Br  Br3  1  0.75000000  0.00926092  0.49073908  1
  Br  Br4  1  0.49073908  0.75000000  0.00926092  1
  Br  Br5  1  0.00926092  0.49073908  0.75000000  1
loop_
_geom_bond_atom_site_label_1
_geom_bond_atom_site_label_2
_geom_bond_distance
_geom_bond_site_symmetry_2
Ir0 Se1 2.493978 1_545
Ir0 Se11 2.493978 1_555
Ir0 Se0 2.493978 1_455
Ir0 Se10 2.493978 1_555
Ir0 Se9 2.493978 1_555
Ir0 Se2 2.493978 1_554
Rh0 Se7 2.497992 1_565
Rh0 Se5 2.497992 1_555
Rh0 Se6 2.497993 1_655
Rh0 Se4 2.497993 1_555
Rh0 Se3 2.497993 1_555
Rh0 Se8 2.497993 1_556
Se0 Se7 2.535935 1_554
Se0 Se8 2.544927 1_545
Se1 Se8 2.535935 1_455
Se1 Se6 2.544927 1_554
Se2 Se6 2.535935 1_545
Se2 Se7 2.544927 1_455
Se4 Se9 2.544927 1_555
Se5 Se9 2.535935 1_555
Se10 Se3 2.535935 1_555
Se10 Se5 2.544927 1_555
Se11 Se4 2.535935 1_555
Se11 Se3 2.544927 1_555
Br0 Se0 2.763586 1_555
Br0 Se11 2.763586 1_655
Br1 Se9 2.763586 1_565
Br1 Se1 2.763586 1_555
Br2 Se2 2.763586 1_555
Br2 Se10 2.763586 1_556
Br3 Se3 2.747531 1_545
Br3 Se7 2.747531 1_555
Br4 Se8 2.747531 1_555
Br4 Se4 2.747531 1_554
Br5 Se6 2.747531 1_555
Br5 Se5 2.747531 1_455
