# generated using pymatgen
data_Sr3(H6Ir)2
_symmetry_space_group_name_H-M   'P 1'
_cell_length_a   5.19932323
_cell_length_b   5.19932291
_cell_length_c   8.51395831
_cell_angle_alpha   90.00000000
_cell_angle_beta   90.00000000
_cell_angle_gamma   119.99999578
_symmetry_Int_Tables_number   1
_chemical_formula_structural   Sr3(H6Ir)2
_chemical_formula_sum   'Sr3 H12 Ir2'
_cell_volume   199.32224854
_cell_formula_units_Z   1
loop_
 _symmetry_equiv_pos_site_id
 _symmetry_equiv_pos_as_xyz
  1  'x, y, z'
loop_
 _atom_site_type_symbol
 _atom_site_label
 _atom_site_symmetry_multiplicity
 _atom_site_fract_x
 _atom_site_fract_y
 _atom_site_fract_z
 _atom_site_occupancy
  Sr  Sr0  1  0.00000000  0.00000000  0.00000000  1
  Sr  Sr1  1  0.66666700  0.33333300  0.36068316  1
  Sr  Sr2  1  0.33333300  0.66666700  0.63931684  1
  H  H0  1  0.17939893  0.82060107  0.35858427  1
  H  H1  1  0.64120214  0.82060107  0.35858427  1
  H  H2  1  0.17939893  0.35879786  0.35858427  1
  H  H3  1  0.82060107  0.17939893  0.64141573  1
  H  H4  1  0.35879786  0.17939893  0.64141573  1
  H  H5  1  0.82060107  0.64120214  0.64141573  1
  H  H6  1  0.51884771  0.03769542  0.87032123  1
  H  H7  1  0.51884771  0.48115229  0.87032123  1
  H  H8  1  0.96230458  0.48115229  0.87032123  1
  H  H9  1  0.48115229  0.96230458  0.12967877  1
  H  H10  1  0.48115229  0.51884771  0.12967877  1
  H  H11  1  0.03769542  0.51884771  0.12967877  1
  Ir  Ir0  1  0.66666700  0.33333300  0.75306641  1
  Ir  Ir1  1  0.33333300  0.66666700  0.24693359  1
loop_
_geom_bond_atom_site_label_1
_geom_bond_atom_site_label_2
_geom_bond_distance
_geom_bond_site_symmetry_2
H0 Ir1 1.680867 1_555
H0 Sr1 2.602250 1_565
H0 Sr1 2.602250 1_455
H0 Sr2 2.763058 1_555
H1 Ir1 1.680871 1_555
H1 Sr1 2.602248 1_565
H1 Sr1 2.602253 1_555
H1 Sr2 2.763060 1_555
H2 Ir1 1.680871 1_555
H2 Sr1 2.602248 1_455
H2 Sr1 2.602253 1_555
H2 Sr2 2.763060 1_555
H3 Ir0 1.680867 1_555
H3 Sr2 2.602250 1_545
H3 Sr2 2.602250 1_655
H3 Sr1 2.763058 1_555
H4 Ir0 1.680871 1_555
H4 Sr2 2.602248 1_545
H4 Sr2 2.602253 1_555
H4 Sr1 2.763060 1_555
H5 Ir0 1.680871 1_555
H5 Sr2 2.602248 1_655
H5 Sr2 2.602253 1_555
H5 Sr1 2.763060 1_555
H6 Ir0 1.663926 1_555
H6 Sr2 2.580545 1_545
H6 Sr0 2.829495 1_656
H6 Sr0 2.829495 1_556
H7 Ir0 1.663930 1_555
H7 Sr2 2.580548 1_555
H7 Sr0 2.829495 1_666
H7 Sr0 2.829495 1_556
H8 Ir0 1.663926 1_555
H8 Sr2 2.580545 1_655
H8 Sr0 2.829495 1_656
H8 Sr0 2.829495 1_666
H9 Ir1 1.663926 1_555
H9 Sr1 2.580545 1_565
H9 Sr0 2.829495 1_565
H9 Sr0 2.829495 1_665
H10 Ir1 1.663930 1_555
H10 Sr1 2.580548 1_555
H10 Sr0 2.829495 1_555
H10 Sr0 2.829495 1_665
H11 Ir1 1.663926 1_555
H11 Sr1 2.580545 1_455
H11 Sr0 2.829495 1_565
H11 Sr0 2.829495 1_555
