# generated using pymatgen
data_Cs4RbSb2Pt
_symmetry_space_group_name_H-M   'P 1'
_cell_length_a   10.55375896
_cell_length_b   10.55375954
_cell_length_c   10.55375953
_cell_angle_alpha   35.15694641
_cell_angle_beta   35.15694224
_cell_angle_gamma   35.15693869
_symmetry_Int_Tables_number   1
_chemical_formula_structural   Cs4RbSb2Pt
_chemical_formula_sum   'Cs4 Rb1 Sb2 Pt1'
_cell_volume   348.09858795
_cell_formula_units_Z   1
loop_
 _symmetry_equiv_pos_site_id
 _symmetry_equiv_pos_as_xyz
  1  'x, y, z'
loop_
 _atom_site_type_symbol
 _atom_site_label
 _atom_site_symmetry_multiplicity
 _atom_site_fract_x
 _atom_site_fract_y
 _atom_site_fract_z
 _atom_site_occupancy
  Cs  Cs0  1  0.21898597  0.21898597  0.21898597  1
  Cs  Cs1  1  0.35757277  0.35757277  0.35757277  1
  Cs  Cs2  1  0.49939826  0.49939826  0.49939826  1
  Cs  Cs3  1  0.64286498  0.64286498  0.64286498  1
  Rb  Rb0  1  0.78158787  0.78158787  0.78158787  1
  Sb  Sb0  1  0.08721633  0.08721633  0.08721633  1
  Sb  Sb1  1  0.91257426  0.91257426  0.91257426  1
  Pt  Pt0  1  0.99980156  0.99980156  0.99980156  1
loop_
_geom_bond_atom_site_label_1
_geom_bond_atom_site_label_2
_geom_bond_distance
_geom_bond_site_symmetry_2
Cs0 Sb1 3.766146 1_544
Cs0 Sb1 3.766146 1_454
Cs0 Sb1 3.766147 1_445
Cs0 Sb0 3.910086 1_555
Cs0 Cs2 4.001463 1_455
Cs0 Cs2 4.001463 1_545
Cs0 Cs2 4.001464 1_554
Cs1 Pt0 3.751204 1_544
Cs1 Pt0 3.751204 1_454
Cs1 Pt0 3.751205 1_445
Cs1 Sb0 4.127701 1_655
Cs1 Sb0 4.127702 1_565
Cs1 Sb0 4.127702 1_556
Cs1 Cs2 4.208480 1_555
Cs2 Rb0 3.981061 1_455
Cs2 Rb0 3.981061 1_545
Cs2 Rb0 3.981062 1_554
Cs2 Cs3 4.257181 1_555
Cs2 Sb0 4.361191 1_655
Cs2 Sb0 4.361191 1_565
Cs2 Sb0 4.361192 1_556
Cs2 Sb1 4.377087 1_455
Cs2 Sb1 4.377087 1_545
Cs2 Sb1 4.377088 1_554
Cs3 Pt0 3.746495 1_455
Cs3 Pt0 3.746495 1_545
Cs3 Pt0 3.746496 1_554
Cs3 Sb1 4.136430 1_455
Cs3 Sb1 4.136431 1_545
Cs3 Sb1 4.136431 1_554
Rb0 Sb0 3.771144 1_566
Rb0 Sb0 3.771145 1_656
Rb0 Sb0 3.771145 1_665
Rb0 Sb1 3.886844 1_555
Pt0 Sb1 2.588352 1_555
Pt0 Sb0 2.593915 1_666
