# generated using pymatgen
data_Rb4Sn2Au7
_symmetry_space_group_name_H-M   'P 1'
_cell_length_a   10.49003804
_cell_length_b   10.49003678
_cell_length_c   10.49003719
_cell_angle_alpha   38.20160732
_cell_angle_beta   38.20160745
_cell_angle_gamma   38.20160872
_symmetry_Int_Tables_number   1
_chemical_formula_structural   Rb4Sn2Au7
_chemical_formula_sum   'Rb4 Sn2 Au7'
_cell_volume   396.44119825
_cell_formula_units_Z   1
loop_
 _symmetry_equiv_pos_site_id
 _symmetry_equiv_pos_as_xyz
  1  'x, y, z'
loop_
 _atom_site_type_symbol
 _atom_site_label
 _atom_site_symmetry_multiplicity
 _atom_site_fract_x
 _atom_site_fract_y
 _atom_site_fract_z
 _atom_site_occupancy
  Rb  Rb0  1  0.68418469  0.68418469  0.68418469  1
  Rb  Rb1  1  0.31581531  0.31581531  0.31581531  1
  Rb  Rb2  1  0.18843433  0.18843433  0.18843433  1
  Rb  Rb3  1  0.81156567  0.81156567  0.81156567  1
  Sn  Sn0  1  0.45005287  0.45005287  0.45005287  1
  Sn  Sn1  1  0.54994713  0.54994713  0.54994713  1
  Au  Au0  1  0.21267655  0.21267655  0.80761795  1
  Au  Au1  1  0.21267655  0.80761795  0.21267655  1
  Au  Au2  1  0.80761795  0.21267655  0.21267655  1
  Au  Au3  1  0.19238205  0.78732345  0.78732345  1
  Au  Au4  1  0.78732345  0.78732345  0.19238205  1
  Au  Au5  1  0.78732345  0.19238205  0.78732345  1
  Au  Au6  1  0.00000000  -0.00000000  -0.00000000  1
loop_
_geom_bond_atom_site_label_1
_geom_bond_atom_site_label_2
_geom_bond_distance
_geom_bond_site_symmetry_2
Rb0 Rb3 3.711510 1_555
Rb0 Sn1 3.911291 1_555
Rb0 Rb1 4.093051 1_556
Rb0 Rb1 4.093051 1_655
Rb0 Rb1 4.093051 1_565
Rb1 Rb2 3.711510 1_555
Rb1 Sn0 3.911291 1_555
Rb2 Sn1 4.047850 1_554
Rb2 Sn1 4.047850 1_455
Rb2 Sn1 4.047850 1_545
Rb2 Rb3 4.161732 1_445
Rb2 Rb3 4.161732 1_544
Rb2 Rb3 4.161732 1_454
Rb3 Sn0 4.047850 1_556
Rb3 Sn0 4.047850 1_655
Rb3 Sn0 4.047850 1_565
Sn0 Sn1 2.910627 1_555
Au0 Sn0 2.618472 1_555
Au0 Au6 2.774444 1_556
Au0 Au1 2.780862 1_546
Au0 Au2 2.780863 1_456
Au0 Rb2 3.604991 1_556
Au0 Rb1 3.640217 1_555
Au0 Rb0 3.872375 1_545
Au0 Rb0 3.872375 1_455
Au0 Rb3 3.970317 1_455
Au0 Rb3 3.970318 1_545
Au1 Sn0 2.618472 1_555
Au1 Au6 2.774444 1_565
Au1 Au2 2.780863 1_465
Au1 Rb2 3.604990 1_565
Au1 Rb1 3.640217 1_555
Au1 Rb0 3.872375 1_554
Au1 Rb0 3.872375 1_455
Au1 Rb3 3.970317 1_455
Au1 Rb3 3.970318 1_554
Au2 Sn0 2.618472 1_555
Au2 Au6 2.774444 1_655
Au2 Rb2 3.604991 1_655
Au2 Rb1 3.640217 1_555
Au2 Rb0 3.872375 1_545
Au2 Rb0 3.872375 1_554
Au2 Rb3 3.970317 1_554
Au2 Rb3 3.970318 1_545
Au3 Sn1 2.618472 1_555
Au3 Au6 2.774444 1_566
Au3 Au4 2.780863 1_456
Au3 Au5 2.780863 1_465
Au3 Rb3 3.604991 1_455
Au3 Rb0 3.640217 1_555
Au3 Rb1 3.872375 1_565
Au3 Rb1 3.872375 1_556
Au3 Rb2 3.970317 1_556
Au3 Rb2 3.970318 1_565
Au4 Sn1 2.618472 1_555
Au4 Au6 2.774444 1_665
Au4 Au5 2.780862 1_564
Au4 Rb3 3.604991 1_554
Au4 Rb0 3.640217 1_555
Au4 Rb1 3.872375 1_565
Au4 Rb1 3.872375 1_655
Au4 Rb2 3.970317 1_655
Au4 Rb2 3.970318 1_565
Au5 Sn1 2.618472 1_555
Au5 Au6 2.774444 1_656
Au5 Rb3 3.604990 1_545
Au5 Rb0 3.640217 1_555
Au5 Rb1 3.872375 1_556
Au5 Rb1 3.872375 1_655
Au5 Rb2 3.970317 1_655
Au5 Rb2 3.970318 1_556
Au6 Rb1 3.996432 1_545
Au6 Rb0 3.996432 1_454
Au6 Rb1 3.996432 1_554
Au6 Rb0 3.996432 1_445
Au6 Rb1 3.996432 1_455
Au6 Rb0 3.996432 1_544
