# generated using pymatgen
data_NaSc3As6Rh7
_symmetry_space_group_name_H-M   'P 1'
_cell_length_a   7.05638187
_cell_length_b   7.06286292
_cell_length_c   7.05638294
_cell_angle_alpha   109.48983723
_cell_angle_beta   109.45260500
_cell_angle_gamma   109.48982839
_symmetry_Int_Tables_number   1
_chemical_formula_structural   NaSc3As6Rh7
_chemical_formula_sum   'Na1 Sc3 As6 Rh7'
_cell_volume   270.65950193
_cell_formula_units_Z   1
loop_
 _symmetry_equiv_pos_site_id
 _symmetry_equiv_pos_as_xyz
  1  'x, y, z'
loop_
 _atom_site_type_symbol
 _atom_site_label
 _atom_site_symmetry_multiplicity
 _atom_site_fract_x
 _atom_site_fract_y
 _atom_site_fract_z
 _atom_site_occupancy
  Na  Na0  1  0.00000000  0.50000000  0.00000000  1
  Sc  Sc0  1  0.00000000  0.00000000  0.50000000  1
  Sc  Sc1  1  0.50000000  0.00000000  0.00000000  1
  Sc  Sc2  1  0.50000000  0.50000000  0.50000000  1
  As  As0  1  0.68644319  0.68103858  1.00000000  1
  As  As1  1  0.31355681  0.31896142  0.00000000  1
  As  As2  1  1.00000000  0.68103858  0.68644319  1
  As  As3  1  0.00000000  0.31896142  0.31355681  1
  As  As4  1  0.68644319  0.00540462  0.68644319  1
  As  As5  1  0.31355681  0.99459538  0.31355681  1
  Rh  Rh0  1  0.00000000  0.00000000  0.00000000  1
  Rh  Rh1  1  0.25457855  0.50000000  0.74542145  1
  Rh  Rh2  1  0.74542145  0.24542145  0.49084289  1
  Rh  Rh3  1  0.49084289  0.24542145  0.74542145  1
  Rh  Rh4  1  0.50915711  0.75457855  0.25457855  1
  Rh  Rh5  1  0.74542145  0.50000000  0.25457855  1
  Rh  Rh6  1  0.25457855  0.75457855  0.50915711  1
loop_
_geom_bond_atom_site_label_1
_geom_bond_atom_site_label_2
_geom_bond_distance
_geom_bond_site_symmetry_2
Na0 Rh4 2.933178 1_555
Na0 Rh3 2.933178 1_454
Na0 Rh6 2.933178 1_555
Na0 Rh2 2.933178 1_454
Na0 Rh1 2.933178 1_554
Na0 Rh5 2.933178 1_455
As0 Rh1 2.523813 1_555
As0 Rh4 2.523813 1_556
As0 Rh3 2.534772 1_555
As0 Rh5 2.534772 1_556
As0 Rh0 2.577692 1_666
As0 Na0 2.901422 1_656
As0 Sc0 2.930777 1_666
As0 Sc2 2.930778 1_555
As0 Sc1 2.963703 1_566
As1 Rh5 2.523813 1_555
As1 Rh3 2.523813 1_554
As1 Rh4 2.534772 1_555
As1 Rh1 2.534772 1_554
As1 Rh0 2.577692 1_555
As1 Na0 2.901422 1_555
As1 Sc0 2.930777 1_554
As1 Sc2 2.930778 1_555
As1 Sc1 2.963703 1_555
As2 Rh6 2.523813 1_655
As2 Rh5 2.523813 1_555
As2 Rh2 2.534772 1_555
As2 Rh1 2.534772 1_655
As2 Rh0 2.577692 1_666
As2 Na0 2.901423 1_656
As2 Sc1 2.930777 1_666
As2 Sc2 2.930777 1_555
As2 Sc0 2.963704 1_665
As3 Rh2 2.523813 1_455
As3 Rh1 2.523813 1_555
As3 Rh6 2.534772 1_555
As3 Rh5 2.534772 1_455
As3 Rh0 2.577692 1_555
As3 Na0 2.901423 1_555
As3 Sc1 2.930777 1_455
As3 Sc2 2.930777 1_555
As3 Sc0 2.963704 1_555
As4 Rh6 2.523813 1_545
As4 Rh4 2.523813 1_545
As4 Rh3 2.534772 1_555
As4 Rh2 2.534772 1_555
As4 Rh0 2.577693 1_656
As4 Na0 2.901422 1_656
As4 Sc0 2.930777 1_655
As4 Sc1 2.930778 1_556
As4 Sc2 2.963703 1_545
As5 Rh2 2.523813 1_565
As5 Rh3 2.523813 1_565
As5 Rh4 2.534772 1_555
As5 Rh6 2.534772 1_555
As5 Rh0 2.577693 1_565
As5 Na0 2.901422 1_555
As5 Sc0 2.930777 1_565
As5 Sc1 2.930778 1_565
As5 Sc2 2.963703 1_565
Rh1 Sc2 2.827672 1_555
Rh1 Sc1 2.882892 1_566
Rh1 Sc0 2.882892 1_555
Rh2 Sc1 2.827672 1_555
Rh2 Sc2 2.882892 1_555
Rh2 Sc0 2.882893 1_655
Rh3 Sc0 2.827672 1_555
Rh3 Sc2 2.882893 1_555
Rh3 Sc1 2.882893 1_556
Rh4 Sc0 2.827672 1_665
Rh4 Sc2 2.882893 1_555
Rh4 Sc1 2.882893 1_565
Rh5 Sc2 2.827672 1_555
Rh5 Sc1 2.882892 1_555
Rh5 Sc0 2.882892 1_665
Rh6 Sc1 2.827672 1_566
Rh6 Sc2 2.882892 1_555
Rh6 Sc0 2.882893 1_565
