# generated using pymatgen
data_CdIn2SnPt2
_symmetry_space_group_name_H-M   'P 1'
_cell_length_a   7.84966909
_cell_length_b   7.84966872
_cell_length_c   7.84967024
_cell_angle_alpha   33.57387579
_cell_angle_beta   33.57387724
_cell_angle_gamma   33.57388464
_symmetry_Int_Tables_number   1
_chemical_formula_structural   CdIn2SnPt2
_chemical_formula_sum   'Cd1 In2 Sn1 Pt2'
_cell_volume   131.75818531
_cell_formula_units_Z   1
loop_
 _symmetry_equiv_pos_site_id
 _symmetry_equiv_pos_as_xyz
  1  'x, y, z'
loop_
 _atom_site_type_symbol
 _atom_site_label
 _atom_site_symmetry_multiplicity
 _atom_site_fract_x
 _atom_site_fract_y
 _atom_site_fract_z
 _atom_site_occupancy
  Cd  Cd0  1  0.37678384  0.37678384  0.37678384  1
  In  In0  1  0.12142853  0.12142853  0.12142853  1
  In  In1  1  0.62844517  0.62844517  0.62844517  1
  Sn  Sn0  1  0.87334770  0.87334770  0.87334770  1
  Pt  Pt0  1  0.99638302  0.99638302  0.99638302  1
  Pt  Pt1  1  0.50361275  0.50361275  0.50361275  1
loop_
_geom_bond_atom_site_label_1
_geom_bond_atom_site_label_2
_geom_bond_distance
_geom_bond_site_symmetry_2
Cd0 Pt1 2.815714 1_555
Cd0 Pt0 2.818658 1_445
Cd0 Pt0 2.818659 1_454
Cd0 Pt0 2.818659 1_544
Cd0 In0 3.138459 1_565
Cd0 In0 3.138459 1_655
Cd0 In0 3.138459 1_556
Cd0 In1 3.184430 1_545
Cd0 In1 3.184430 1_455
Cd0 In1 3.184431 1_554
In0 Pt0 2.776121 1_444
In0 Pt1 2.833574 1_554
In0 Pt1 2.833575 1_545
In0 Pt1 2.833575 1_455
In0 Sn0 3.230352 1_454
In0 Sn0 3.230353 1_544
In0 Sn0 3.230353 1_445
In1 Pt0 2.728212 1_554
In1 Pt0 2.728213 1_545
In1 Pt0 2.728213 1_455
In1 Pt1 2.771390 1_555
In1 Sn0 3.272194 1_545
In1 Sn0 3.272194 1_455
In1 Sn0 3.272195 1_554
Pt0 Sn0 2.731493 1_555
Pt1 Sn0 2.739715 1_554
Pt1 Sn0 2.739715 1_545
Pt1 Sn0 2.739715 1_455
