# generated using pymatgen
data_Hf5Ga3S
_symmetry_space_group_name_H-M   'P 1'
_cell_length_a   8.04850828
_cell_length_b   8.04850568
_cell_length_c   5.87410167
_cell_angle_alpha   90.00000000
_cell_angle_beta   90.00000000
_cell_angle_gamma   119.99966674
_symmetry_Int_Tables_number   1
_chemical_formula_structural   Hf5Ga3S
_chemical_formula_sum   'Hf10 Ga6 S2'
_cell_volume   329.53701151
_cell_formula_units_Z   2
loop_
 _symmetry_equiv_pos_site_id
 _symmetry_equiv_pos_as_xyz
  1  'x, y, z'
loop_
 _atom_site_type_symbol
 _atom_site_label
 _atom_site_symmetry_multiplicity
 _atom_site_fract_x
 _atom_site_fract_y
 _atom_site_fract_z
 _atom_site_occupancy
  Hf  Hf0  1  0.66666686  0.33333343  0.99999989  1
  Hf  Hf1  1  0.33333314  0.66666657  0.00000011  1
  Hf  Hf2  1  0.33333314  0.66666657  0.49999989  1
  Hf  Hf3  1  0.66666686  0.33333343  0.50000011  1
  Hf  Hf4  1  0.74207144  0.74207156  0.75000000  1
  Hf  Hf5  1  0.25792902  0.00000020  0.75000000  1
  Hf  Hf6  1  0.00000040  0.25792898  0.75000000  1
  Hf  Hf7  1  0.25792856  0.25792844  0.25000000  1
  Hf  Hf8  1  0.74207098  0.99999980  0.25000000  1
  Hf  Hf9  1  0.99999960  0.74207102  0.25000000  1
  Ga  Ga0  1  0.39627109  0.39627113  0.75000000  1
  Ga  Ga1  1  0.60372843  0.99999974  0.75000000  1
  Ga  Ga2  1  0.99999977  0.60372842  0.75000000  1
  Ga  Ga3  1  0.60372891  0.60372887  0.25000000  1
  Ga  Ga4  1  0.39627157  0.00000026  0.25000000  1
  Ga  Ga5  1  0.00000023  0.39627158  0.25000000  1
  S  S0  1  0.00000000  0.00000000  0.00000000  1
  S  S1  1  0.00000000  0.00000000  0.50000000  1
loop_
_geom_bond_atom_site_label_1
_geom_bond_atom_site_label_2
_geom_bond_distance
_geom_bond_site_symmetry_2
Hf4 S1 2.542860 1_665
Hf4 S0 2.542860 1_666
Hf5 S1 2.542854 1_555
Hf5 S0 2.542854 1_556
Hf6 S0 2.542853 1_556
Hf6 S1 2.542853 1_555
Hf7 S0 2.542860 1_555
Hf7 S1 2.542860 1_555
Hf8 S1 2.542854 1_665
Hf8 S0 2.542854 1_665
Hf9 S0 2.542853 1_665
Hf9 S1 2.542853 1_665
Ga0 Hf4 2.783191 1_555
Ga0 Hf6 2.803708 1_555
Ga0 Hf5 2.803709 1_555
Ga0 Hf1 2.872587 1_556
Ga0 Hf2 2.872587 1_555
Ga0 Hf0 2.872588 1_555
Ga0 Hf3 2.872588 1_555
Ga0 Hf7 3.141028 1_555
Ga0 Hf7 3.141028 1_556
Ga1 Hf5 2.783171 1_565
Ga1 Hf4 2.803700 1_555
Ga1 Hf6 2.803723 1_665
Ga1 Hf0 2.872592 1_565
Ga1 Hf3 2.872592 1_565
Ga1 Hf1 2.872598 1_556
Ga1 Hf2 2.872598 1_555
Ga1 Hf8 3.141025 1_556
Ga1 Hf8 3.141025 1_555
Ga2 Hf6 2.783171 1_655
Ga2 Hf4 2.803702 1_555
Ga2 Hf5 2.803721 1_665
Ga2 Hf1 2.872591 1_656
Ga2 Hf2 2.872591 1_655
Ga2 Hf0 2.872596 1_555
Ga2 Hf3 2.872596 1_555
Ga2 Hf9 3.141026 1_555
Ga2 Hf9 3.141026 1_556
Ga3 Hf7 2.783191 1_555
Ga3 Hf9 2.803708 1_555
Ga3 Hf8 2.803709 1_555
Ga3 Hf3 2.872587 1_555
Ga3 Hf0 2.872587 1_554
Ga3 Hf2 2.872588 1_555
Ga3 Hf1 2.872588 1_555
Ga3 Hf4 3.141028 1_555
Ga3 Hf4 3.141028 1_554
Ga4 Hf8 2.783171 1_545
Ga4 Hf7 2.803700 1_555
Ga4 Hf9 2.803723 1_445
Ga4 Hf2 2.872592 1_545
Ga4 Hf1 2.872592 1_545
Ga4 Hf3 2.872598 1_555
Ga4 Hf0 2.872598 1_554
Ga4 Hf5 3.141025 1_555
Ga4 Hf5 3.141025 1_554
Ga5 Hf9 2.783171 1_455
Ga5 Hf7 2.803702 1_555
Ga5 Hf8 2.803721 1_445
Ga5 Hf3 2.872591 1_455
Ga5 Hf0 2.872591 1_454
Ga5 Hf2 2.872596 1_555
Ga5 Hf1 2.872596 1_555
Ga5 Hf6 3.141026 1_554
Ga5 Hf6 3.141026 1_555
