# generated using pymatgen
data_K2NaScBi2
_symmetry_space_group_name_H-M   'P 1'
_cell_length_a   9.71301618
_cell_length_b   9.71301719
_cell_length_c   9.71301588
_cell_angle_alpha   135.99159775
_cell_angle_beta   135.53321330
_cell_angle_gamma   64.34860129
_symmetry_Int_Tables_number   1
_chemical_formula_structural   K2NaScBi2
_chemical_formula_sum   'K4 Na2 Sc2 Bi4'
_cell_volume   439.84258400
_cell_formula_units_Z   2
loop_
 _symmetry_equiv_pos_site_id
 _symmetry_equiv_pos_as_xyz
  1  'x, y, z'
loop_
 _atom_site_type_symbol
 _atom_site_label
 _atom_site_symmetry_multiplicity
 _atom_site_fract_x
 _atom_site_fract_y
 _atom_site_fract_z
 _atom_site_occupancy
  K  K0  1  0.09596333  0.32428913  0.77167421  1
  K  K1  1  0.44738608  0.17571087  0.27167421  1
  K  K2  1  0.90403667  0.67571087  0.22832579  1
  K  K3  1  0.55261392  0.82428913  0.72832579  1
  Na  Na0  1  0.50000000  0.75000000  0.25000000  1
  Na  Na1  1  0.50000000  0.25000000  0.75000000  1
  Sc  Sc0  1  0.00000000  0.75000000  0.75000000  1
  Sc  Sc1  1  0.00000000  0.25000000  0.25000000  1
  Bi  Bi0  1  0.11561550  0.89734638  0.21826912  1
  Bi  Bi1  1  0.88438450  0.10265362  0.78173088  1
  Bi  Bi2  1  0.32092374  0.60265362  0.71826912  1
  Bi  Bi3  1  0.67907626  0.39734638  0.28173088  1
loop_
_geom_bond_atom_site_label_1
_geom_bond_atom_site_label_2
_geom_bond_distance
_geom_bond_site_symmetry_2
K0 Na1 3.804605 1_555
K0 Na0 3.804605 1_556
K0 Sc1 3.955509 1_555
K0 Sc0 3.955509 1_555
K0 K2 4.394760 1_456
K0 K2 4.394761 1_445
K0 K1 4.413117 1_455
K0 K1 4.413123 1_556
K1 Na0 3.804608 1_545
K1 Na1 3.804611 1_555
K1 Sc0 3.955515 1_544
K1 Sc1 3.955518 1_555
K1 K3 4.394745 1_544
K1 K3 4.394758 1_555
K2 Na0 3.804605 1_555
K2 Na1 3.804605 1_554
K2 Sc0 3.955509 1_655
K2 Sc1 3.955509 1_655
K2 K3 4.413117 1_655
K2 K3 4.413123 1_554
K3 Na1 3.804608 1_565
K3 Na0 3.804611 1_555
K3 Sc1 3.955515 1_666
K3 Sc0 3.955518 1_655
Na0 Na1 3.639220 1_565
Na0 Na1 3.639220 1_554
Na0 Sc0 3.675214 1_554
Na0 Sc0 3.675214 1_655
Na1 Sc1 3.675214 1_656
Na1 Sc1 3.675214 1_555
Bi0 Sc0 2.955342 1_554
Bi0 Sc1 2.955342 1_565
Bi0 Na0 3.232403 1_555
Bi0 Na1 3.232403 1_565
Bi0 K2 3.645062 1_455
Bi0 K3 3.796367 1_454
Bi0 K0 3.852410 1_565
Bi0 K0 3.852410 1_554
Bi0 K3 3.936883 1_555
Bi1 Sc1 2.955342 1_656
Bi1 Sc0 2.955342 1_645
Bi1 Na1 3.232403 1_555
Bi1 Na0 3.232403 1_545
Bi1 K0 3.645062 1_655
Bi1 K1 3.796367 1_656
Bi1 K2 3.852410 1_545
Bi1 K2 3.852410 1_556
Bi1 K1 3.936883 1_555
Bi2 Sc1 2.955347 1_555
Bi2 Sc0 2.955351 1_555
Bi2 Na1 3.232403 1_555
Bi2 Na0 3.232406 1_556
Bi2 K3 3.645045 1_555
Bi2 K2 3.796362 1_455
Bi2 K1 3.852410 1_555
Bi2 K1 3.852410 1_566
Bi2 K2 3.936878 1_556
Bi3 Sc0 2.955347 1_655
Bi3 Sc1 2.955351 1_655
Bi3 Na0 3.232403 1_555
Bi3 Na1 3.232406 1_554
Bi3 K1 3.645045 1_555
Bi3 K0 3.796362 1_655
Bi3 K3 3.852410 1_555
Bi3 K3 3.852410 1_544
Bi3 K0 3.936878 1_554
