# generated using pymatgen
data_Rb4Zr6SiCl18
_symmetry_space_group_name_H-M   'P 1'
_cell_length_a   10.34101135
_cell_length_b   10.34101103
_cell_length_c   9.93536886
_cell_angle_alpha   77.11901726
_cell_angle_beta   77.11901688
_cell_angle_gamma   117.58547724
_symmetry_Int_Tables_number   1
_chemical_formula_structural   Rb4Zr6SiCl18
_chemical_formula_sum   'Rb4 Zr6 Si1 Cl18'
_cell_volume   850.06026104
_cell_formula_units_Z   1
loop_
 _symmetry_equiv_pos_site_id
 _symmetry_equiv_pos_as_xyz
  1  'x, y, z'
loop_
 _atom_site_type_symbol
 _atom_site_label
 _atom_site_symmetry_multiplicity
 _atom_site_fract_x
 _atom_site_fract_y
 _atom_site_fract_z
 _atom_site_occupancy
  Rb  Rb0  1  0.76607624  0.44002539  0.69226463  1
  Rb  Rb1  1  0.55997461  0.23392376  0.30773537  1
  Rb  Rb2  1  0.23392376  0.55997461  0.30773537  1
  Rb  Rb3  1  0.44002539  0.76607624  0.69226463  1
  Zr  Zr0  1  0.12970359  0.12970359  0.15299279  1
  Zr  Zr1  1  0.87029641  0.87029641  0.84700721  1
  Zr  Zr2  1  0.94426021  0.74845420  0.16146417  1
  Zr  Zr3  1  0.25154580  0.05573979  0.83853583  1
  Zr  Zr4  1  0.05573979  0.25154580  0.83853583  1
  Zr  Zr5  1  0.74845420  0.94426021  0.16146417  1
  Si  Si0  1  0.00000000  0.00000000  0.00000000  1
  Cl  Cl0  1  0.80406196  0.59603165  0.00978791  1
  Cl  Cl1  1  0.40396935  0.19593804  0.99021209  1
  Cl  Cl2  1  0.19593804  0.40396935  0.99021209  1
  Cl  Cl3  1  0.59603065  0.80406196  0.00978791  1
  Cl  Cl4  1  0.20755625  0.79244375  1.00000000  1
  Cl  Cl5  1  0.79244375  0.20755625  0.00000000  1
  Cl  Cl6  1  0.32575921  0.32575921  0.66398519  1
  Cl  Cl7  1  0.67424079  0.67424079  0.33601481  1
  Cl  Cl8  1  0.88547540  0.48427018  0.33438191  1
  Cl  Cl9  1  0.51572982  0.11452460  0.66561809  1
  Cl  Cl10  1  0.11452460  0.51572982  0.66561809  1
  Cl  Cl11  1  0.48427018  0.88547540  0.33438191  1
  Cl  Cl12  1  0.26934730  0.26934730  0.30535451  1
  Cl  Cl13  1  0.73065270  0.73065270  0.69464549  1
  Cl  Cl14  1  0.08015910  0.87153247  0.32621211  1
  Cl  Cl15  1  0.12846753  0.91984090  0.67378789  1
  Cl  Cl16  1  0.91984090  0.12846753  0.67378789  1
  Cl  Cl17  1  0.87153247  0.08015910  0.32621211  1
loop_
_geom_bond_atom_site_label_1
_geom_bond_atom_site_label_2
_geom_bond_distance
_geom_bond_site_symmetry_2
Si0 Zr2 2.451683 1_445
Si0 Zr4 2.451683 1_554
Si0 Zr5 2.451683 1_445
Si0 Zr3 2.451683 1_554
Si0 Zr0 2.461783 1_555
Si0 Zr1 2.461783 1_444
Cl0 Zr2 2.602684 1_555
Cl0 Zr1 2.605869 1_554
Cl0 Rb1 3.482617 1_555
Cl0 Rb0 3.865725 1_554
Cl1 Zr3 2.602689 1_555
Cl1 Zr0 2.605877 1_556
Cl1 Rb0 3.482611 1_555
Cl1 Rb1 3.865720 1_556
Cl2 Zr4 2.602689 1_555
Cl2 Zr0 2.605877 1_556
Cl2 Rb3 3.482611 1_555
Cl2 Rb2 3.865720 1_556
Cl3 Zr5 2.602689 1_555
Cl3 Zr1 2.605877 1_554
Cl3 Rb2 3.482611 1_555
Cl3 Rb3 3.865720 1_554
Cl4 Zr3 2.602670 1_565
Cl4 Zr2 2.602670 1_456
Cl4 Rb2 3.592104 1_556
Cl4 Rb3 3.592104 1_555
Cl5 Zr5 2.602670 1_545
Cl5 Zr4 2.602670 1_654
Cl5 Rb0 3.592104 1_554
Cl5 Rb1 3.592104 1_555
Cl6 Zr3 2.579971 1_555
Cl6 Zr4 2.579971 1_555
Cl7 Zr5 2.579971 1_555
Cl7 Zr2 2.579971 1_555
Cl8 Zr2 2.586158 1_555
Cl8 Rb2 3.246000 1_655
Cl8 Rb1 3.276371 1_555
Cl8 Rb0 3.342286 1_555
Cl9 Zr3 2.586158 1_555
Cl9 Rb3 3.246000 1_545
Cl9 Rb0 3.276371 1_555
Cl9 Rb1 3.342286 1_555
Cl10 Zr4 2.586158 1_555
Cl10 Rb0 3.246000 1_455
Cl10 Rb3 3.276371 1_555
Cl10 Rb2 3.342286 1_555
Cl11 Zr5 2.586158 1_555
Cl11 Rb1 3.246000 1_565
Cl11 Rb2 3.276371 1_555
Cl11 Rb3 3.342286 1_555
Cl12 Zr0 2.545596 1_555
Cl12 Rb2 3.196012 1_555
Cl12 Rb1 3.196013 1_555
Cl13 Zr1 2.545596 1_555
Cl13 Rb0 3.196012 1_555
Cl13 Rb3 3.196013 1_555
Cl14 Zr2 2.563586 1_455
Cl14 Zr0 2.577487 1_565
Cl15 Zr3 2.563586 1_565
Cl15 Zr1 2.577487 1_455
Cl16 Zr4 2.563586 1_655
Cl16 Zr1 2.577487 1_545
Cl17 Zr5 2.563586 1_545
Cl17 Zr0 2.577487 1_655
