# generated using pymatgen
data_Sr2AuIO2
_symmetry_space_group_name_H-M   'P 1'
_cell_length_a   10.40611086
_cell_length_b   10.40611111
_cell_length_c   10.40611101
_cell_angle_alpha   22.90057510
_cell_angle_beta   22.90057287
_cell_angle_gamma   22.90057259
_symmetry_Int_Tables_number   1
_chemical_formula_structural   Sr2AuIO2
_chemical_formula_sum   'Sr2 Au1 I1 O2'
_cell_volume   149.73841850
_cell_formula_units_Z   1
loop_
 _symmetry_equiv_pos_site_id
 _symmetry_equiv_pos_as_xyz
  1  'x, y, z'
loop_
 _atom_site_type_symbol
 _atom_site_label
 _atom_site_symmetry_multiplicity
 _atom_site_fract_x
 _atom_site_fract_y
 _atom_site_fract_z
 _atom_site_occupancy
  Sr  Sr0  1  0.25017237  0.25017237  0.25017237  1
  Sr  Sr1  1  0.74982763  0.74982763  0.74982763  1
  Au  Au0  1  0.50000000  0.50000000  0.50000000  1
  I  I0  1  0.00000000  0.00000000  0.00000000  1
  O  O0  1  0.43387365  0.43387365  0.43387365  1
  O  O1  1  0.56612635  0.56612635  0.56612635  1
loop_
_geom_bond_atom_site_label_1
_geom_bond_atom_site_label_2
_geom_bond_distance
_geom_bond_site_symmetry_2
Au0 O1 2.009386 1_555
Au0 O0 2.009386 1_555
I0 Sr1 3.475031 1_544
I0 Sr0 3.475031 1_455
I0 Sr1 3.475031 1_445
I0 Sr0 3.475031 1_554
I0 Sr1 3.475031 1_454
I0 Sr0 3.475031 1_545
O0 Sr1 2.443137 1_455
O0 Sr1 2.443137 1_554
O0 Sr1 2.443137 1_545
O1 Sr0 2.443137 1_655
O1 Sr0 2.443137 1_556
O1 Sr0 2.443137 1_565
