# generated using pymatgen
data_Ta8Ga5Mo2As
_symmetry_space_group_name_H-M   'P 1'
_cell_length_a   6.57163314
_cell_length_b   7.61596107
_cell_length_c   6.57163229
_cell_angle_alpha   115.40171687
_cell_angle_beta   90.32881204
_cell_angle_gamma   115.40171637
_symmetry_Int_Tables_number   1
_chemical_formula_structural   Ta8Ga5Mo2As
_chemical_formula_sum   'Ta8 Ga5 Mo2 As1'
_cell_volume   261.02715682
_cell_formula_units_Z   1
loop_
 _symmetry_equiv_pos_site_id
 _symmetry_equiv_pos_as_xyz
  1  'x, y, z'
loop_
 _atom_site_type_symbol
 _atom_site_label
 _atom_site_symmetry_multiplicity
 _atom_site_fract_x
 _atom_site_fract_y
 _atom_site_fract_z
 _atom_site_occupancy
  Ta  Ta0  1  0.50558014  0.69043720  0.68485706  1
  Ta  Ta1  1  0.18315151  0.69058201  0.00742850  1
  Ta  Ta2  1  0.68314854  0.69143320  0.18213167  1
  Ta  Ta3  1  0.00930153  0.69143320  0.50828365  1
  Ta  Ta4  1  0.49257150  0.30941799  0.31684849  1
  Ta  Ta5  1  0.81514294  0.30956280  0.99441986  1
  Ta  Ta6  1  0.31786833  0.30856680  0.81685146  1
  Ta  Ta7  1  0.99171635  0.30856680  0.49069847  1
  Ga  Ga0  1  0.74975893  0.50000000  0.75024107  1
  Ga  Ga1  1  0.24975893  0.50000000  0.25024107  1
  Ga  Ga2  1  0.14034817  0.00000000  0.35965183  1
  Ga  Ga3  1  0.63287028  0.00000000  0.13558959  1
  Ga  Ga4  1  0.36441041  1.00000000  0.86712972  1
  Mo  Mo0  1  0.99735659  0.00000000  0.99790364  1
  Mo  Mo1  1  0.50209636  0.00000000  0.50264341  1
  As  As0  1  0.86492449  1.00000000  0.63507551  1
loop_
_geom_bond_atom_site_label_1
_geom_bond_atom_site_label_2
_geom_bond_distance
_geom_bond_site_symmetry_2
Ga0 Ta4 2.714499 1_555
Ga0 Ta1 2.714499 1_656
Ga0 Ta2 2.717437 1_556
Ga0 Ta6 2.717437 1_555
Ga0 Ta5 2.717811 1_555
Ga0 Ta0 2.717811 1_555
Ga0 Ta3 2.729396 1_655
Ga0 Ta7 2.729396 1_555
Ga0 Mo0 3.022232 1_565
Ga0 Mo1 3.022232 1_555
Ga1 Ta1 2.714515 1_555
Ga1 Ta4 2.714515 1_555
Ga1 Ta7 2.717434 1_455
Ga1 Ta3 2.717435 1_555
Ga1 Ta0 2.717811 1_555
Ga1 Ta5 2.717811 1_454
Ga1 Ta6 2.729391 1_554
Ga1 Ta2 2.729391 1_555
Ga1 Mo1 3.022232 1_565
Ga1 Mo0 3.022232 1_454
Ga2 Mo0 2.551238 1_454
Ga2 Mo1 2.551238 1_555
Ga2 Ta1 2.624229 1_545
Ga2 Ta4 2.624229 1_555
Ga2 Ta3 2.731483 1_545
Ga2 Ta7 2.731483 1_455
Ga2 Ta6 2.731488 1_555
Ga2 Ta2 2.731488 1_445
Ga3 Ga4 2.487814 1_544
Ga3 Mo1 2.565305 1_555
Ga3 Mo0 2.565326 1_554
Ga3 Ta2 2.647079 1_545
Ga3 Ta7 2.647082 1_555
Ga3 Ta4 2.700097 1_555
Ga3 Ta1 2.700106 1_545
Ga3 Ta0 2.705591 1_544
Ga3 Ta5 2.705591 1_554
Ga4 Mo0 2.565305 1_465
Ga4 Mo1 2.565326 1_565
Ga4 Ta6 2.647079 1_565
Ga4 Ta3 2.647082 1_555
Ga4 Ta1 2.700097 1_556
Ga4 Ta4 2.700106 1_566
Ga4 Ta0 2.705591 1_555
Ga4 Ta5 2.705591 1_565
Mo0 Ta5 3.075835 1_555
Mo0 Ta0 3.075835 1_545
Mo0 Ta6 3.091237 1_655
Mo0 Ta3 3.091241 1_645
Mo0 Ta7 3.091693 1_556
Mo0 Ta2 3.091695 1_546
Mo0 Ta1 3.105156 1_646
Mo0 Ta4 3.105171 1_656
Mo1 Ta0 3.075835 1_545
Mo1 Ta5 3.075835 1_555
Mo1 Ta2 3.091237 1_545
Mo1 Ta7 3.091242 1_555
Mo1 Ta3 3.091693 1_545
Mo1 Ta6 3.091695 1_555
Mo1 Ta4 3.105156 1_555
Mo1 Ta1 3.105170 1_545
As0 Mo0 2.533541 1_565
As0 Mo1 2.533542 1_565
As0 Ga2 2.567037 1_665
As0 Ta5 2.671344 1_565
As0 Ta0 2.671344 1_555
As0 Ta7 2.712785 1_565
As0 Ta3 2.712785 1_655
As0 Ta2 2.712785 1_555
As0 Ta6 2.712785 1_665
