# generated using pymatgen
data_Zr6Ga6Rh5Au
_symmetry_space_group_name_H-M   'P 1'
_cell_length_a   7.22154288
_cell_length_b   7.22154258
_cell_length_c   6.85539696
_cell_angle_alpha   90.00000000
_cell_angle_beta   90.00000000
_cell_angle_gamma   119.99999809
_symmetry_Int_Tables_number   1
_chemical_formula_structural   Zr6Ga6Rh5Au
_chemical_formula_sum   'Zr6 Ga6 Rh5 Au1'
_cell_volume   309.61587352
_cell_formula_units_Z   1
loop_
 _symmetry_equiv_pos_site_id
 _symmetry_equiv_pos_as_xyz
  1  'x, y, z'
loop_
 _atom_site_type_symbol
 _atom_site_label
 _atom_site_symmetry_multiplicity
 _atom_site_fract_x
 _atom_site_fract_y
 _atom_site_fract_z
 _atom_site_occupancy
  Zr  Zr0  1  0.39628364  0.38719662  0.74412918  1
  Zr  Zr1  1  0.99091298  0.60371636  0.74412918  1
  Zr  Zr2  1  0.61280338  0.00908702  0.74412918  1
  Zr  Zr3  1  0.61322396  0.00981429  0.25591934  1
  Zr  Zr4  1  0.99018571  0.60340867  0.25591934  1
  Zr  Zr5  1  0.39659133  0.38677604  0.25591934  1
  Ga  Ga0  1  0.25715289  0.00381253  0.99992926  1
  Ga  Ga1  1  0.74665964  0.74284711  0.99992926  1
  Ga  Ga2  1  0.99618747  0.25334036  0.99992926  1
  Ga  Ga3  1  0.71858527  0.72452047  0.49995135  1
  Ga  Ga4  1  0.27547953  0.99406481  0.49995135  1
  Ga  Ga5  1  0.00593519  0.28141473  0.49995135  1
  Rh  Rh0  1  0.66666700  0.33333300  0.99942871  1
  Rh  Rh1  1  0.00000000  0.00000000  0.72700825  1
  Rh  Rh2  1  0.66666700  0.33333300  0.50049000  1
  Rh  Rh3  1  0.33333300  0.66666700  0.49929804  1
  Rh  Rh4  1  0.00000000  0.00000000  0.27282722  1
  Au  Au0  1  0.33333300  0.66666700  0.00115440  1
loop_
_geom_bond_atom_site_label_1
_geom_bond_atom_site_label_2
_geom_bond_distance
_geom_bond_site_symmetry_2
Ga0 Rh4 2.626445 1_556
Ga0 Rh1 2.626557 1_555
Ga0 Rh0 2.714978 1_555
Ga0 Zr5 2.992879 1_556
Ga0 Zr0 2.994694 1_555
Ga0 Zr1 3.092690 1_445
Ga0 Zr2 3.094377 1_555
Ga0 Zr3 3.095506 1_556
Ga0 Zr4 3.095628 1_446
Ga1 Rh4 2.626445 1_666
Ga1 Rh1 2.626557 1_665
Ga1 Rh0 2.714981 1_555
Ga1 Zr4 2.992885 1_556
Ga1 Zr1 2.994694 1_555
Ga1 Zr2 3.092690 1_565
Ga1 Zr0 3.094377 1_555
Ga1 Zr5 3.095503 1_556
Ga1 Zr3 3.095624 1_566
Ga2 Rh4 2.626444 1_656
Ga2 Rh1 2.626557 1_655
Ga2 Rh0 2.714974 1_555
Ga2 Zr3 2.992880 1_556
Ga2 Zr2 2.994694 1_555
Ga2 Zr0 3.092690 1_655
Ga2 Zr1 3.094377 1_555
Ga2 Zr4 3.095500 1_556
Ga2 Zr5 3.095629 1_656
Ga3 Rh1 2.543160 1_665
Ga3 Rh4 2.543442 1_665
Ga3 Rh3 2.598537 1_555
Ga3 Rh2 2.657426 1_555
Ga3 Zr5 2.912581 1_555
Ga3 Zr0 2.912671 1_555
Ga3 Zr4 3.020943 1_555
Ga3 Zr1 3.024304 1_555
Ga3 Zr2 3.029607 1_565
Ga3 Zr3 3.031487 1_565
Ga4 Rh1 2.543160 1_565
Ga4 Rh4 2.543442 1_565
Ga4 Rh3 2.598530 1_555
Ga4 Rh2 2.657423 1_565
Ga4 Zr3 2.912583 1_565
Ga4 Zr2 2.912671 1_565
Ga4 Zr5 3.020938 1_565
Ga4 Zr0 3.024304 1_565
Ga4 Zr1 3.029607 1_455
Ga4 Zr4 3.031491 1_455
Ga5 Rh1 2.543160 1_555
Ga5 Rh4 2.543442 1_555
Ga5 Rh3 2.598534 1_555
Ga5 Rh2 2.657419 1_455
Ga5 Zr4 2.912577 1_455
Ga5 Zr1 2.912671 1_455
Ga5 Zr3 3.020939 1_455
Ga5 Zr2 3.024304 1_455
Ga5 Zr0 3.029608 1_555
Ga5 Zr5 3.031493 1_555
Rh0 Zr2 2.790431 1_555
Rh0 Zr1 2.790433 1_555
Rh0 Zr0 2.790436 1_555
Rh0 Zr3 2.792377 1_556
Rh0 Zr5 2.792377 1_556
Rh0 Zr4 2.792377 1_556
Rh1 Zr1 2.831972 1_445
Rh1 Zr2 2.831972 1_455
Rh1 Zr0 2.831972 1_555
Rh2 Zr2 2.741001 1_555
Rh2 Zr1 2.741003 1_555
Rh2 Zr0 2.741007 1_555
Rh2 Zr3 2.741656 1_555
Rh2 Zr5 2.741656 1_555
Rh2 Zr4 2.741656 1_555
Rh3 Zr4 2.828631 1_455
Rh3 Zr3 2.828635 1_565
Rh3 Zr5 2.828642 1_555
Rh3 Zr1 2.830962 1_455
Rh3 Zr2 2.830964 1_565
Rh3 Zr0 2.830967 1_555
Rh4 Zr3 2.831596 1_455
Rh4 Zr5 2.831600 1_555
Rh4 Zr4 2.831603 1_445
Au0 Ga0 2.751357 1_564
Au0 Ga2 2.751362 1_454
Au0 Ga1 2.751364 1_554
Au0 Zr4 2.875364 1_455
Au0 Zr3 2.875368 1_565
Au0 Zr5 2.875375 1_555
Au0 Zr1 2.881310 1_454
Au0 Zr2 2.881312 1_564
Au0 Zr0 2.881316 1_554
