# generated using pymatgen
data_Ba4Ni3P4Pd
_symmetry_space_group_name_H-M   'P 1'
_cell_length_a   6.25681967
_cell_length_b   6.19942772
_cell_length_c   7.51371167
_cell_angle_alpha   89.57394004
_cell_angle_beta   89.56004336
_cell_angle_gamma   105.49259868
_symmetry_Int_Tables_number   1
_chemical_formula_structural   Ba4Ni3P4Pd
_chemical_formula_sum   'Ba4 Ni3 P4 Pd1'
_cell_volume   280.83548588
_cell_formula_units_Z   1
loop_
 _symmetry_equiv_pos_site_id
 _symmetry_equiv_pos_as_xyz
  1  'x, y, z'
loop_
 _atom_site_type_symbol
 _atom_site_label
 _atom_site_symmetry_multiplicity
 _atom_site_fract_x
 _atom_site_fract_y
 _atom_site_fract_z
 _atom_site_occupancy
  Ba  Ba0  1  0.18594421  0.81004954  0.51387063  1
  Ba  Ba1  1  0.68901149  0.31551270  0.99117278  1
  Ba  Ba2  1  0.81410176  0.19056618  0.49013354  1
  Ba  Ba3  1  0.31966262  0.69515574  0.01496192  1
  Ni  Ni0  1  0.38076430  0.37764788  0.61365504  1
  Ni  Ni1  1  0.61102200  0.61276574  0.37760308  1
  Ni  Ni2  1  0.11715998  0.12010248  0.12042531  1
  P  P0  1  0.17101220  0.20469171  0.82910025  1
  P  P1  1  0.64792872  0.67768853  0.66173702  1
  P  P2  1  0.84492601  0.81075381  0.18622430  1
  P  P3  1  0.33911338  0.30688569  0.32463568  1
  Pd  Pd0  1  0.87935432  0.87817701  0.87648145  1
loop_
_geom_bond_atom_site_label_1
_geom_bond_atom_site_label_2
_geom_bond_distance
_geom_bond_site_symmetry_2
Ba0 P2 3.270901 1_455
Ba0 P3 3.280873 1_565
Ba0 Ni0 3.311133 1_555
Ba0 Ni1 3.366362 1_555
Ba0 P1 3.400866 1_555
Ba0 Pd0 3.413361 1_455
Ba0 P1 3.419472 1_455
Ba0 P0 3.436460 1_565
Ba0 Ni0 3.491656 1_565
Ba0 Ba3 3.945840 1_555
Ba0 Ba3 3.963561 1_556
Ba1 P3 3.305245 1_556
Ba1 P2 3.318817 1_556
Ba1 Pd0 3.354952 1_545
Ba1 P0 3.367897 1_555
Ba1 Ni2 3.367953 1_656
Ba1 P1 3.386717 1_555
Ba1 Pd0 3.471125 1_555
Ba1 P0 3.480357 1_655
Ba1 Ni0 3.518350 1_555
Ba1 Ni1 3.550026 1_556
Ba1 Ni2 3.581363 1_556
Ba1 Ba3 3.717162 1_556
Ba1 P2 3.804744 1_546
Ba1 Ba3 3.924092 1_546
Ba1 Ba3 4.024539 1_656
Ba2 Ni1 3.307638 1_555
Ba2 P1 3.317440 1_545
Ba2 P2 3.333398 1_545
Ba2 Ni0 3.348884 1_555
Ba2 P0 3.386354 1_655
Ba2 P3 3.393428 1_655
Ba2 Ni2 3.447117 1_655
Ba2 P3 3.476624 1_555
Ba2 Ni0 3.556245 1_655
Ba2 Pd0 3.563860 1_545
Ba2 Ni1 3.576367 1_545
Ba2 P1 3.684817 1_555
Ba3 P0 3.260800 1_554
Ba3 Ni2 3.312446 1_565
Ba3 P3 3.361585 1_555
Ba3 P1 3.363553 1_554
Ba3 Ni1 3.400236 1_555
Ba3 Pd0 3.414092 1_454
Ba3 P2 3.433780 1_555
Ba3 P2 3.476293 1_455
Ba3 Pd0 3.526624 1_554
Ba3 Ni2 3.531573 1_555
Ba3 Ni0 3.685819 1_554
Ba3 P0 3.783832 1_564
Ni0 P0 2.163867 1_555
Ni0 P1 2.177809 1_555
Ni0 P3 2.222167 1_555
Ni1 P2 2.167463 1_555
Ni1 P1 2.178030 1_555
Ni1 P3 2.224136 1_555
Ni2 P3 2.196311 1_555
Ni2 P2 2.247549 1_445
Ni2 P0 2.248814 1_554
Ni2 Pd0 2.591038 1_444
P0 Pd0 2.358000 1_445
P1 Pd0 2.312838 1_555
P2 Pd0 2.359504 1_554
