# generated using pymatgen
data_Na2V3Ni9As7
_symmetry_space_group_name_H-M   'P 1'
_cell_length_a   9.39567724
_cell_length_b   9.39567690
_cell_length_c   3.74040634
_cell_angle_alpha   90.00000000
_cell_angle_beta   90.00000000
_cell_angle_gamma   120.00000120
_symmetry_Int_Tables_number   1
_chemical_formula_structural   Na2V3Ni9As7
_chemical_formula_sum   'Na2 V3 Ni9 As7'
_cell_volume   285.96018805
_cell_formula_units_Z   1
loop_
 _symmetry_equiv_pos_site_id
 _symmetry_equiv_pos_as_xyz
  1  'x, y, z'
loop_
 _atom_site_type_symbol
 _atom_site_label
 _atom_site_symmetry_multiplicity
 _atom_site_fract_x
 _atom_site_fract_y
 _atom_site_fract_z
 _atom_site_occupancy
  Na  Na0  1  0.33333300  0.66666700  0.00000000  1
  Na  Na1  1  0.66666700  0.33333300  0.50000000  1
  V  V0  1  0.21808926  0.11957265  0.50000000  1
  V  V1  1  0.88042735  0.09851761  0.50000000  1
  V  V2  1  0.90148239  0.78191074  0.50000000  1
  Ni  Ni0  1  0.12259078  0.28076111  0.00000000  1
  Ni  Ni1  1  0.71923889  0.84182967  0.00000000  1
  Ni  Ni2  1  0.15817033  0.87740922  0.00000000  1
  Ni  Ni3  1  0.42936483  0.37290343  0.00000000  1
  Ni  Ni4  1  0.62709657  0.05646140  0.00000000  1
  Ni  Ni5  1  0.94353860  0.57063517  0.00000000  1
  Ni  Ni6  1  0.04929759  0.43126407  0.50000000  1
  Ni  Ni7  1  0.56873593  0.61803352  0.50000000  1
  Ni  Ni8  1  0.38196648  0.95070241  0.50000000  1
  As  As0  1  0.29277501  0.41139513  0.50000000  1
  As  As1  1  0.58860487  0.88137988  0.50000000  1
  As  As2  1  0.11862012  0.70722499  0.50000000  1
  As  As3  1  0.41400153  0.11859200  0.00000000  1
  As  As4  1  0.88140800  0.29540953  0.00000000  1
  As  As5  1  0.70459047  0.58599847  0.00000000  1
  As  As6  1  0.00000000  0.00000000  0.00000000  1
loop_
_geom_bond_atom_site_label_1
_geom_bond_atom_site_label_2
_geom_bond_distance
_geom_bond_site_symmetry_2
Na0 Ni8 3.099838 1_555
Na0 Ni8 3.099838 1_554
Na0 Ni6 3.099840 1_555
Na0 Ni6 3.099840 1_554
Na0 Ni7 3.099845 1_555
Na0 Ni7 3.099845 1_554
Na0 Ni2 3.144513 1_555
Na0 Ni0 3.144521 1_555
Na0 Ni1 3.144521 1_555
Na0 Ni5 3.304944 1_455
Na0 Ni4 3.304946 1_565
Na0 Ni3 3.304953 1_555
Na1 Ni4 3.071803 1_556
Na1 Ni4 3.071803 1_555
Na1 Ni5 3.071806 1_556
Na1 Ni5 3.071806 1_555
Na1 Ni3 3.071811 1_555
Na1 Ni3 3.071811 1_556
Na1 Ni6 3.234696 1_655
Na1 Ni8 3.234699 1_545
Na1 Ni7 3.234705 1_555
Ni0 V1 2.776796 1_454
Ni0 V1 2.776796 1_455
Ni0 V0 2.820512 1_555
Ni0 V0 2.820512 1_554
Ni1 V2 2.776791 1_555
Ni1 V2 2.776791 1_554
Ni1 V1 2.820518 1_565
Ni1 V1 2.820518 1_564
Ni2 V0 2.776798 1_565
Ni2 V0 2.776798 1_564
Ni2 V2 2.820519 1_454
Ni2 V2 2.820519 1_455
Ni3 V0 2.894599 1_554
Ni3 V0 2.894599 1_555
Ni4 V1 2.894596 1_555
Ni4 V1 2.894596 1_554
Ni5 V2 2.894603 1_554
Ni5 V2 2.894603 1_555
Ni6 V1 2.707625 1_455
Ni7 V2 2.707625 1_555
Ni8 V0 2.707633 1_565
As0 Ni7 2.336290 1_555
As0 Ni0 2.366083 1_555
As0 Ni0 2.366083 1_556
As0 Ni6 2.386459 1_555
As0 Ni3 2.395743 1_555
As0 Ni3 2.395743 1_556
As0 V0 2.467029 1_555
As0 Na0 2.912296 1_555
As0 Na0 2.912296 1_556
As1 Ni8 2.336290 1_555
As1 Ni1 2.366083 1_556
As1 Ni1 2.366083 1_555
As1 Ni7 2.386459 1_555
As1 Ni4 2.395743 1_566
As1 Ni4 2.395743 1_565
As1 V1 2.467031 1_565
As1 Na0 2.912293 1_555
As1 Na0 2.912293 1_556
As2 Ni6 2.336290 1_555
As2 Ni2 2.366083 1_556
As2 Ni2 2.366083 1_555
As2 Ni8 2.386459 1_555
As2 Ni5 2.395743 1_455
As2 Ni5 2.395743 1_456
As2 V2 2.467038 1_455
As2 Na0 2.912289 1_555
As2 Na0 2.912289 1_556
As3 Ni3 2.320623 1_555
As3 Ni2 2.337932 1_545
As3 Ni4 2.349097 1_555
As3 Ni8 2.366805 1_544
As3 Ni8 2.366805 1_545
As3 V0 2.627353 1_555
As3 V0 2.627353 1_554
As3 Na1 2.900763 1_555
As3 Na1 2.900763 1_554
As4 Ni4 2.320623 1_555
As4 Ni0 2.337932 1_655
As4 Ni5 2.349096 1_555
As4 Ni6 2.366805 1_654
As4 Ni6 2.366805 1_655
As4 V1 2.627347 1_555
As4 V1 2.627347 1_554
As4 Na1 2.900758 1_554
As4 Na1 2.900758 1_555
As5 Ni5 2.320623 1_555
As5 Ni1 2.337932 1_555
As5 Ni3 2.349096 1_555
As5 Ni7 2.366805 1_554
As5 Ni7 2.366805 1_555
As5 V2 2.627350 1_555
As5 V2 2.627350 1_554
As5 Na1 2.900765 1_554
As5 Na1 2.900765 1_555
As6 Ni0 2.290630 1_555
As6 Ni1 2.290630 1_445
As6 Ni2 2.290630 1_545
As6 V2 2.580027 1_444
As6 V2 2.580027 1_445
As6 V0 2.580027 1_555
As6 V0 2.580027 1_554
As6 V1 2.580033 1_455
As6 V1 2.580033 1_454
