# generated using pymatgen
data_V5Re(PbO3)8
_symmetry_space_group_name_H-M   'P 1'
_cell_length_a   9.47451475
_cell_length_b   9.47451472
_cell_length_c   9.47451432
_cell_angle_alpha   109.49012491
_cell_angle_beta   109.49011532
_cell_angle_gamma   109.43342030
_symmetry_Int_Tables_number   1
_chemical_formula_structural   V5Re(PbO3)8
_chemical_formula_sum   'V5 Re1 Pb8 O24'
_cell_volume   654.70991452
_cell_formula_units_Z   1
loop_
 _symmetry_equiv_pos_site_id
 _symmetry_equiv_pos_as_xyz
  1  'x, y, z'
loop_
 _atom_site_type_symbol
 _atom_site_label
 _atom_site_symmetry_multiplicity
 _atom_site_fract_x
 _atom_site_fract_y
 _atom_site_fract_z
 _atom_site_occupancy
  V  V0  1  0.37500000  0.62500000  0.75000000  1
  V  V1  1  0.87968884  0.25878005  0.12934975  1
  V  V2  1  0.62942930  0.75033809  0.37065025  1
  V  V3  1  0.24966191  0.12031116  0.87909121  1
  V  V4  1  0.74121995  0.37057070  0.62090879  1
  Re  Re0  1  0.12500000  0.87500000  0.25000000  1
  Pb  Pb0  1  0.35584033  0.37098813  0.34063303  1
  Pb  Pb1  1  0.16229342  0.48827931  0.98934650  1
  Pb  Pb2  1  0.99893281  0.17294691  0.51065350  1
  Pb  Pb3  1  0.82705309  0.83770658  0.82598590  1
  Pb  Pb4  1  0.53035510  0.01520730  0.15936697  1
  Pb  Pb5  1  0.62901187  0.46964490  0.98485220  1
  Pb  Pb6  1  0.51172069  0.00106719  0.67401410  1
  Pb  Pb7  1  0.98479270  0.64415967  0.51514780  1
  O  O0  1  0.30286167  0.15793757  0.08410557  1
  O  O1  1  0.18862406  0.26297066  0.84097248  1
  O  O2  1  0.92199818  0.34765158  0.65902752  1
  O  O3  1  0.14783268  0.07789386  0.29675346  1
  O  O4  1  0.79700874  0.57298240  0.63951338  1
  O  O5  1  0.57383300  0.21875609  0.41589443  1
  O  O6  1  0.28114039  0.85108021  0.20324654  1
  O  O7  1  0.67941932  0.34653752  0.76587261  1
  O  O8  1  0.34806805  0.65100305  0.92632966  1
  O  O9  1  0.43346802  0.15749436  0.86048662  1
  O  O10  1  0.22467139  0.42173739  0.57367034  1
  O  O11  1  0.08066491  0.91354671  0.73412739  1
  O  O12  1  0.08645329  0.32058068  0.16711720  1
  O  O13  1  0.65234842  0.81137594  0.57434560  1
  O  O14  1  0.65346248  0.91933509  0.33288280  1
  O  O15  1  0.84206243  0.42616700  0.14492310  1
  O  O16  1  0.42701760  0.56653198  0.22402534  1
  O  O17  1  0.73702934  0.07800182  0.92565440  1
  O  O18  1  0.84250564  0.20299126  0.27597466  1
  O  O19  1  0.78124391  0.69713833  0.35507690  1
  O  O20  1  0.57826261  0.65193195  0.80293500  1
  O  O21  1  0.34899695  0.77532861  0.69706500  1
  O  O22  1  0.92210614  0.71885961  0.06993882  1
  O  O23  1  0.14891979  0.85216732  0.43006118  1
loop_
_geom_bond_atom_site_label_1
_geom_bond_atom_site_label_2
_geom_bond_distance
_geom_bond_site_symmetry_2
O0 V3 1.708555 1_554
O0 Pb0 2.339161 1_555
O1 V3 1.731551 1_555
O1 Pb1 2.276237 1_555
O1 Pb2 2.682814 1_455
O2 V4 1.731551 1_555
O2 Pb2 2.276237 1_555
O2 Pb1 2.682814 1_655
O3 Re0 1.740535 1_545
O3 Pb0 2.609474 1_555
O4 V4 1.739532 1_555
O4 Pb3 2.392813 1_555
O4 Pb7 2.477770 1_555
O5 V4 1.708552 1_555
O5 Pb4 2.339157 1_555
O6 Re0 1.740531 1_555
O6 Pb4 2.609471 1_565
O7 V4 1.713972 1_555
O7 Pb5 2.304365 1_555
O7 Pb6 2.776924 1_555
O8 V0 1.722928 1_555
O8 Pb1 2.311105 1_555
O9 V3 1.739524 1_555
O9 Pb6 2.392815 1_555
O9 Pb5 2.477779 1_555
O10 V0 1.722935 1_555
O10 Pb2 2.311090 1_455
O11 V3 1.713972 1_565
O11 Pb7 2.304365 1_455
O11 Pb3 2.776923 1_455
O12 V1 1.713972 1_455
O12 Pb0 2.304368 1_555
O12 Pb1 2.776915 1_554
O13 V2 1.731533 1_555
O13 Pb3 2.276245 1_555
O13 Pb6 2.682816 1_565
O14 V2 1.713972 1_555
O14 Pb4 2.304371 1_565
O14 Pb2 2.776924 1_565
O15 V1 1.708546 1_555
O15 Pb5 2.339164 1_554
O16 V2 1.739531 1_555
O16 Pb1 2.392805 1_554
O16 Pb0 2.477785 1_555
O17 V1 1.731541 1_556
O17 Pb6 2.276243 1_555
O17 Pb3 2.682815 1_545
O18 V1 1.739547 1_555
O18 Pb2 2.392802 1_555
O18 Pb4 2.477776 1_555
O19 V2 1.708555 1_555
O19 Pb7 2.339157 1_555
O20 V0 1.722937 1_555
O20 Pb3 2.311098 1_555
O21 V0 1.722946 1_555
O21 Pb6 2.311091 1_565
O22 Re0 1.740535 1_655
O22 Pb5 2.609474 1_554
O23 Re0 1.740536 1_555
O23 Pb7 2.609470 1_455
