# generated using pymatgen
data_Hf6AlSi6Tc5
_symmetry_space_group_name_H-M   'P 1'
_cell_length_a   7.71247747
_cell_length_b   7.71281559
_cell_length_c   7.71281551
_cell_angle_alpha   126.93943029
_cell_angle_beta   127.21897700
_cell_angle_gamma   78.12274539
_symmetry_Int_Tables_number   1
_chemical_formula_structural   Hf6AlSi6Tc5
_chemical_formula_sum   'Hf6 Al1 Si6 Tc5'
_cell_volume   282.91222726
_cell_formula_units_Z   1
loop_
 _symmetry_equiv_pos_site_id
 _symmetry_equiv_pos_as_xyz
  1  'x, y, z'
loop_
 _atom_site_type_symbol
 _atom_site_label
 _atom_site_symmetry_multiplicity
 _atom_site_fract_x
 _atom_site_fract_y
 _atom_site_fract_z
 _atom_site_occupancy
  Hf  Hf0  1  0.54831379  0.09326739  0.04377261  1
  Hf  Hf1  1  0.45168621  0.49545782  0.54495260  1
  Hf  Hf2  1  0.95068103  0.49545488  0.04377368  1
  Hf  Hf3  1  0.04931897  0.09309265  0.54477384  1
  Hf  Hf4  1  0.74783222  0.90105026  0.64894613  1
  Hf  Hf5  1  0.25216778  0.90111391  0.15321704  1
  Al  Al0  1  0.00000000  0.25266785  0.25266785  1
  Si  Si0  1  0.33364808  0.83093634  0.49737215  1
  Si  Si1  1  0.66635192  0.16372308  0.49728726  1
  Si  Si2  1  0.83110176  0.82185000  0.99078038  1
  Si  Si3  1  0.16889824  0.15967762  0.99074624  1
  Si  Si4  1  0.74177494  0.50394854  0.24568828  1
  Si  Si5  1  0.25822506  0.50391334  0.76217360  1
  Tc  Tc0  1  0.12667631  0.74166482  0.61510578  1
  Tc  Tc1  1  0.87332369  0.48843047  0.61498951  1
  Tc  Tc2  1  0.62767964  0.75379174  0.12615788  1
  Tc  Tc3  1  0.37232036  0.49847724  0.12611210  1
  Tc  Tc4  1  0.50000000  0.24548408  0.74548408  1
loop_
_geom_bond_atom_site_label_1
_geom_bond_atom_site_label_2
_geom_bond_distance
_geom_bond_site_symmetry_2
Hf0 Si3 2.679461 1_554
Hf0 Si0 2.699017 1_544
Hf0 Si1 2.725070 1_555
Hf0 Si2 2.734353 1_544
Hf0 Si4 2.808928 1_555
Hf0 Tc2 2.916072 1_545
Hf0 Tc1 2.937411 1_555
Hf0 Tc0 2.950772 1_544
Hf0 Tc4 2.973121 1_554
Hf0 Tc3 2.987350 1_555
Hf1 Si2 2.679471 1_555
Hf1 Si1 2.699017 1_555
Hf1 Si0 2.725077 1_555
Hf1 Si3 2.734356 1_554
Hf1 Si5 2.808932 1_555
Hf1 Tc3 2.916064 1_555
Hf1 Tc0 2.937411 1_555
Hf1 Tc1 2.950767 1_555
Hf1 Tc4 2.973120 1_555
Hf1 Tc2 2.987361 1_556
Hf2 Si2 2.679566 1_554
Hf2 Si1 2.699437 1_554
Hf2 Si0 2.724639 1_655
Hf2 Si3 2.733534 1_654
Hf2 Si4 2.809767 1_555
Hf2 Tc3 2.914403 1_655
Hf2 Tc0 2.938354 1_655
Hf2 Tc1 2.950774 1_554
Hf2 Tc4 2.974060 1_554
Hf2 Tc2 2.988240 1_555
Hf3 Si3 2.679555 1_555
Hf3 Si0 2.699432 1_545
Hf3 Si1 2.724635 1_455
Hf3 Si2 2.733528 1_444
Hf3 Si5 2.809766 1_555
Hf3 Tc2 2.914404 1_445
Hf3 Tc1 2.938359 1_455
Hf3 Tc0 2.950777 1_545
Hf3 Tc4 2.974060 1_555
Hf3 Tc3 2.988237 1_556
Hf4 Si0 2.701260 1_555
Hf4 Si1 2.702342 1_565
Hf4 Si2 2.731796 1_555
Hf4 Si3 2.732058 1_665
Hf4 Si4 2.736763 1_555
Hf4 Tc4 2.918764 1_565
Hf4 Tc3 2.968809 1_555
Hf4 Tc2 2.969130 1_555
Hf4 Tc1 3.028256 1_555
Hf4 Tc0 3.028991 1_655
Hf5 Si1 2.701257 1_565
Hf5 Si0 2.702351 1_555
Hf5 Si3 2.731794 1_564
Hf5 Si2 2.732061 1_454
Hf5 Si5 2.736759 1_554
Hf5 Tc4 2.918769 1_565
Hf5 Tc2 2.968802 1_555
Hf5 Tc3 2.969140 1_555
Hf5 Tc0 3.028253 1_554
Hf5 Tc1 3.028985 1_454
Al0 Si5 2.476336 1_555
Al0 Si4 2.476336 1_455
Al0 Si2 2.711001 1_444
Al0 Si3 2.711013 1_554
Al0 Tc0 2.921333 1_555
Al0 Tc1 2.921339 1_455
Al0 Hf1 2.972417 1_555
Al0 Hf0 2.972418 1_455
Al0 Hf3 2.973006 1_555
Al0 Hf2 2.973006 1_455
Al0 Hf4 2.976064 1_444
Al0 Hf5 2.976065 1_545
Si0 Tc3 2.599346 1_555
Si0 Tc0 2.608470 1_555
Si0 Tc4 2.625899 1_565
Si1 Tc2 2.599337 1_545
Si1 Tc1 2.608474 1_555
Si1 Tc4 2.625904 1_555
Si2 Tc2 2.608957 1_556
Si2 Tc1 2.637855 1_555
Si3 Tc3 2.608948 1_556
Si3 Tc0 2.637853 1_545
Si4 Tc2 2.406962 1_555
Si4 Tc3 2.407312 1_555
Si4 Tc4 2.432816 1_554
Si4 Tc1 2.453698 1_555
Si4 Tc0 2.453877 1_655
Si5 Tc3 2.406966 1_556
Si5 Tc2 2.407311 1_556
Si5 Tc4 2.432816 1_555
Si5 Tc0 2.453696 1_555
Si5 Tc1 2.453879 1_455
