# generated using pymatgen
data_Ta12Al9Rh3C4
_symmetry_space_group_name_H-M   'P 1'
_cell_length_a   8.27246363
_cell_length_b   8.27246388
_cell_length_c   8.27246337
_cell_angle_alpha   60.11540941
_cell_angle_beta   60.11541062
_cell_angle_gamma   60.11540521
_symmetry_Int_Tables_number   1
_chemical_formula_structural   Ta12Al9Rh3C4
_chemical_formula_sum   'Ta12 Al9 Rh3 C4'
_cell_volume   401.35036559
_cell_formula_units_Z   1
loop_
 _symmetry_equiv_pos_site_id
 _symmetry_equiv_pos_as_xyz
  1  'x, y, z'
loop_
 _atom_site_type_symbol
 _atom_site_label
 _atom_site_symmetry_multiplicity
 _atom_site_fract_x
 _atom_site_fract_y
 _atom_site_fract_z
 _atom_site_occupancy
  Ta  Ta0  1  0.18412643  0.81585282  0.18412643  1
  Ta  Ta1  1  0.81219051  0.19092959  0.81219051  1
  Ta  Ta2  1  0.06587357  0.43414718  0.06587357  1
  Ta  Ta3  1  0.05907041  0.43780949  0.43780949  1
  Ta  Ta4  1  0.43414718  0.06587357  0.06587357  1
  Ta  Ta5  1  0.43780949  0.05907041  0.43780949  1
  Ta  Ta6  1  0.81219051  0.81219051  0.19092959  1
  Ta  Ta7  1  0.06587357  0.06587357  0.43414718  1
  Ta  Ta8  1  0.18412643  0.18412643  0.81585282  1
  Ta  Ta9  1  0.19092959  0.81219051  0.81219051  1
  Ta  Ta10  1  0.43780949  0.43780949  0.05907041  1
  Ta  Ta11  1  0.81585282  0.18412643  0.18412643  1
  Al  Al0  1  0.62500000  0.62500000  0.62500000  1
  Al  Al1  1  0.83841727  0.83841727  0.49847544  1
  Al  Al2  1  0.49847544  0.83841727  0.83841727  1
  Al  Al3  1  0.41158273  0.75152456  0.41158273  1
  Al  Al4  1  0.75152456  0.41158273  0.41158273  1
  Al  Al5  1  0.41556517  0.41556517  0.41556517  1
  Al  Al6  1  0.41158273  0.41158273  0.75152456  1
  Al  Al7  1  0.83841727  0.49847544  0.83841727  1
  Al  Al8  1  0.83443483  0.83443483  0.83443483  1
  Rh  Rh0  1  0.12500000  0.62500000  0.62500000  1
  Rh  Rh1  1  0.62500000  0.62500000  0.12500000  1
  Rh  Rh2  1  0.62500000  0.12500000  0.62500000  1
  C  C0  1  0.12500000  0.12500000  0.12500000  1
  C  C1  1  0.12500000  0.12500000  0.62500000  1
  C  C2  1  0.62500000  0.12500000  0.12500000  1
  C  C3  1  0.12500000  0.62500000  0.12500000  1
loop_
_geom_bond_atom_site_label_1
_geom_bond_atom_site_label_2
_geom_bond_distance
_geom_bond_site_symmetry_2
Al0 Al7 2.598577 1_555
Al0 Al3 2.598577 1_555
Al0 Al2 2.598577 1_555
Al0 Al4 2.598577 1_555
Al0 Al1 2.598578 1_555
Al0 Al6 2.598578 1_555
Al0 Ta3 2.999555 1_655
Al0 Ta9 2.999555 1_555
Al0 Ta1 2.999555 1_555
Al0 Ta5 2.999555 1_565
Al0 Ta10 2.999555 1_556
Al0 Ta6 2.999555 1_555
Al1 Rh0 2.508641 1_655
Al1 Rh2 2.508641 1_565
Al2 Rh1 2.508641 1_556
Al2 Rh2 2.508641 1_565
Al3 Rh1 2.508641 1_555
Al3 Rh0 2.508641 1_555
Al4 Rh1 2.508641 1_555
Al4 Rh2 2.508641 1_555
Al5 Rh2 2.544099 1_555
Al5 Rh0 2.544099 1_555
Al5 Rh1 2.544099 1_555
Al6 Rh0 2.508641 1_555
Al6 Rh2 2.508641 1_555
Al7 Rh1 2.508641 1_556
Al7 Rh0 2.508641 1_655
Al8 Rh2 2.544099 1_565
Al8 Rh0 2.544099 1_655
Al8 Rh1 2.544099 1_556
Rh0 Ta9 3.027562 1_555
Rh0 Ta3 3.027562 1_555
Rh0 Ta2 3.047488 1_556
Rh0 Ta0 3.047488 1_555
Rh0 Ta7 3.047488 1_565
Rh0 Ta8 3.047488 1_555
Rh1 Ta6 3.027562 1_555
Rh1 Ta10 3.027562 1_555
Rh1 Ta2 3.047488 1_655
Rh1 Ta0 3.047488 1_555
Rh1 Ta4 3.047488 1_565
Rh1 Ta11 3.047488 1_555
Rh2 Ta1 3.027562 1_555
Rh2 Ta5 3.027562 1_555
Rh2 Ta4 3.047488 1_556
Rh2 Ta11 3.047488 1_555
Rh2 Ta7 3.047488 1_655
Rh2 Ta8 3.047488 1_555
C0 Ta7 2.182703 1_555
C0 Ta8 2.182703 1_554
C0 Ta4 2.182703 1_555
C0 Ta11 2.182703 1_455
C0 Ta2 2.182703 1_555
C0 Ta0 2.182703 1_545
C1 Ta8 2.179139 1_555
C1 Ta7 2.179139 1_555
C1 Ta5 2.198564 1_555
C1 Ta1 2.198564 1_455
C1 Ta3 2.198564 1_555
C1 Ta9 2.198564 1_545
C2 Ta11 2.179139 1_555
C2 Ta4 2.179139 1_555
C2 Ta10 2.198564 1_555
C2 Ta6 2.198564 1_545
C2 Ta5 2.198564 1_555
C2 Ta1 2.198564 1_554
C3 Ta0 2.179139 1_555
C3 Ta2 2.179139 1_555
C3 Ta6 2.198564 1_455
C3 Ta10 2.198564 1_555
C3 Ta3 2.198564 1_555
C3 Ta9 2.198564 1_554
