# generated using pymatgen
data_CeGa3Pd2
_symmetry_space_group_name_H-M   'P 1'
_cell_length_a   5.37994996
_cell_length_b   5.37994996
_cell_length_c   4.27102198
_cell_angle_alpha   90.00000000
_cell_angle_beta   90.00000000
_cell_angle_gamma   119.99999708
_symmetry_Int_Tables_number   1
_chemical_formula_structural   CeGa3Pd2
_chemical_formula_sum   'Ce1 Ga3 Pd2'
_cell_volume   107.05795018
_cell_formula_units_Z   1
loop_
 _symmetry_equiv_pos_site_id
 _symmetry_equiv_pos_as_xyz
  1  'x, y, z'
loop_
 _atom_site_type_symbol
 _atom_site_label
 _atom_site_symmetry_multiplicity
 _atom_site_fract_x
 _atom_site_fract_y
 _atom_site_fract_z
 _atom_site_occupancy
  Ce  Ce0  1  -0.00000000  -0.00000000  0.00000000  1
  Ga  Ga0  1  -0.00000000  0.50000000  0.50000000  1
  Ga  Ga1  1  0.50000000  -0.00000000  0.50000000  1
  Ga  Ga2  1  0.50000000  0.50000000  0.50000000  1
  Pd  Pd0  1  0.66666700  0.33333300  -0.00000000  1
  Pd  Pd1  1  0.33333300  0.66666700  0.00000000  1
loop_
_geom_bond_atom_site_label_1
_geom_bond_atom_site_label_2
_geom_bond_distance
_geom_bond_site_symmetry_2
Ce0 Pd0 3.106112 1_455
Ce0 Pd1 3.106112 1_545
Ce0 Pd0 3.106117 1_445
Ce0 Pd1 3.106117 1_555
Ce0 Pd1 3.106117 1_445
Ce0 Pd0 3.106117 1_555
Ce0 Ga0 3.434585 1_545
Ce0 Ga1 3.434585 1_454
Ce0 Ga1 3.434585 1_555
Ce0 Ga0 3.434585 1_554
Ce0 Ga1 3.434585 1_554
Ce0 Ga0 3.434585 1_555
Ce0 Ga1 3.434585 1_455
Ce0 Ga0 3.434585 1_544
Ce0 Ga2 3.434585 1_444
Ce0 Ga2 3.434585 1_445
Ce0 Ga2 3.434585 1_554
Ce0 Ga2 3.434585 1_555
Ga0 Pd1 2.640529 1_556
Ga0 Pd0 2.640529 1_455
Ga0 Pd0 2.640529 1_456
Ga0 Pd1 2.640529 1_555
Ga1 Pd1 2.640529 1_545
Ga1 Pd1 2.640529 1_546
Ga1 Pd0 2.640529 1_555
Ga1 Pd0 2.640529 1_556
Ga2 Pd1 2.640531 1_556
Ga2 Pd0 2.640531 1_556
Ga2 Pd1 2.640531 1_555
Ga2 Pd0 2.640531 1_555
