# generated using pymatgen
data_Cs2KYAs2
_symmetry_space_group_name_H-M   'P 1'
_cell_length_a   9.80523153
_cell_length_b   9.80523093
_cell_length_c   9.80523115
_cell_angle_alpha   133.05373334
_cell_angle_beta   66.50432364
_cell_angle_gamma   135.72488342
_symmetry_Int_Tables_number   1
_chemical_formula_structural   Cs2KYAs2
_chemical_formula_sum   'Cs4 K2 Y2 As4'
_cell_volume   473.32118204
_cell_formula_units_Z   2
loop_
 _symmetry_equiv_pos_site_id
 _symmetry_equiv_pos_as_xyz
  1  'x, y, z'
loop_
 _atom_site_type_symbol
 _atom_site_label
 _atom_site_symmetry_multiplicity
 _atom_site_fract_x
 _atom_site_fract_y
 _atom_site_fract_z
 _atom_site_occupancy
  Cs  Cs0  1  0.81524725  0.26887430  0.08412055  1
  Cs  Cs1  1  0.68475275  0.76887430  0.45362705  1
  Cs  Cs2  1  0.31524725  0.23112570  0.54637395  1
  Cs  Cs3  1  0.18475275  0.73112570  0.91587945  1
  K  K0  1  0.74999900  0.24999900  0.50000000  1
  K  K1  1  0.24999900  0.74999900  0.50000000  1
  Y  Y0  1  0.24999900  0.24999900  0.00000000  1
  Y  Y1  1  0.75000000  0.75000000  0.00000000  1
  As  As0  1  0.40764500  0.69844510  0.10608910  1
  As  As1  1  0.09235500  0.19844410  0.29079810  1
  As  As2  1  0.90764500  0.80155590  0.70920190  1
  As  As3  1  0.59235500  0.30155590  0.89391090  1
loop_
_geom_bond_atom_site_label_1
_geom_bond_atom_site_label_2
_geom_bond_distance
_geom_bond_site_symmetry_2
As0 Y1 2.847783 1_555
As0 Y0 2.847792 1_555
As0 K0 3.354922 1_565
As0 K1 3.354934 1_555
As0 Cs3 3.664220 1_554
As0 Cs2 3.952330 1_554
As0 Cs0 4.031274 1_565
As0 Cs0 4.031274 1_455
As1 Y0 2.847765 1_555
As1 Y1 2.847775 1_445
As1 K1 3.354920 1_555
As1 K0 3.354932 1_455
As1 Cs2 3.664254 1_555
As1 Cs3 3.952336 1_544
As1 Cs1 4.031275 1_555
As1 Cs1 4.031282 1_445
As2 Y0 2.847770 1_666
As2 Y1 2.847770 1_556
As2 K1 3.354924 1_655
As2 K0 3.354928 1_555
As2 Cs1 3.664245 1_555
As2 Cs0 3.952336 1_566
As2 Cs2 4.031275 1_555
As2 Cs2 4.031275 1_665
As3 Y1 2.847779 1_556
As3 Y0 2.847784 1_556
As3 K0 3.354923 1_555
As3 K1 3.354931 1_545
As3 Cs0 3.664229 1_556
As3 Cs1 3.952336 1_556
As3 Cs3 4.031274 1_655
As3 Cs3 4.031281 1_545
