# generated using pymatgen
data_CoH8C3(NO3)2
_symmetry_space_group_name_H-M   'P 1'
_cell_length_a   8.55804320
_cell_length_b   7.71279803
_cell_length_c   11.40684011
_cell_angle_alpha   90.00000000
_cell_angle_beta   90.00000000
_cell_angle_gamma   90.00000000
_symmetry_Int_Tables_number   1
_chemical_formula_structural   CoH8C3(NO3)2
_chemical_formula_sum   'Co4 H32 C12 N8 O24'
_cell_volume   752.92512077
_cell_formula_units_Z   4
loop_
 _symmetry_equiv_pos_site_id
 _symmetry_equiv_pos_as_xyz
  1  'x, y, z'
loop_
 _atom_site_type_symbol
 _atom_site_label
 _atom_site_symmetry_multiplicity
 _atom_site_fract_x
 _atom_site_fract_y
 _atom_site_fract_z
 _atom_site_occupancy
  Co  Co0  1  0.53618582  0.50039388  0.51216313  1
  Co  Co1  1  0.46381418  0.49960609  0.01216312  1
  Co  Co2  1  0.03618582  0.99960612  0.51216313  1
  Co  Co3  1  0.96381418  0.00039390  0.01216312  1
  H  H0  1  0.53278682  0.42114276  0.75957276  1
  H  H1  1  0.46721318  0.57885724  0.25957279  1
  H  H2  1  0.03278681  0.07885726  0.75957276  1
  H  H3  1  0.96721318  0.92114276  0.25957279  1
  H  H4  1  0.26919294  0.72885919  0.56152138  1
  H  H5  1  0.73080605  0.27114081  0.06152140  1
  H  H6  1  0.76919395  0.77114081  0.56152138  1
  H  H7  1  0.23080607  0.22885919  0.06152140  1
  H  H8  1  0.33914511  0.18760158  0.50321937  1
  H  H9  1  0.66085486  0.81239842  0.00321938  1
  H  H10  1  0.83914514  0.31239842  0.50321937  1
  H  H11  1  0.16085489  0.68760158  0.00321938  1
  H  H12  1  0.07275744  0.41067728  0.67783543  1
  H  H13  1  0.92724259  0.58932275  0.17783543  1
  H  H14  1  0.57275741  0.08932273  0.67783543  1
  H  H15  1  0.42724256  0.91067725  0.17783543  1
  H  H16  1  0.07118201  0.62828061  0.70323497  1
  H  H17  1  0.92881799  0.37171942  0.20323497  1
  H  H18  1  0.57118201  0.87171939  0.70323497  1
  H  H19  1  0.42881799  0.12828060  0.20323497  1
  H  H20  1  0.14810147  0.48812680  0.80380368  1
  H  H21  1  0.85189853  0.51187317  0.30380368  1
  H  H22  1  0.64810147  0.01187319  0.80380368  1
  H  H23  1  0.35189853  0.98812683  0.30380368  1
  H  H24  1  0.91542400  0.39741939  0.85286917  1
  H  H25  1  0.08457603  0.60258061  0.35286920  1
  H  H26  1  0.41542397  0.10258061  0.85286917  1
  H  H27  1  0.58457600  0.89741939  0.35286920  1
  H  H28  1  0.89734775  0.60894784  0.84009390  1
  H  H29  1  0.10265225  0.39105219  0.34009393  1
  H  H30  1  0.39734775  0.89105216  0.84009390  1
  H  H31  1  0.60265225  0.10894782  0.34009393  1
  C  C0  1  0.53138734  0.56318093  0.76204577  1
  C  C1  1  0.46861266  0.43681907  0.26204574  1
  C  C2  1  0.03138734  0.93681907  0.76204577  1
  C  C3  1  0.96861266  0.06318092  0.26204574  1
  C  C4  1  0.31975385  0.79016054  0.48350590  1
  C  C5  1  0.68024615  0.20983949  0.98350593  1
  C  C6  1  0.81975385  0.70983946  0.48350590  1
  C  C7  1  0.18024615  0.29016051  0.98350593  1
  C  C8  1  0.26563300  0.27810933  0.55286517  1
  C  C9  1  0.73436700  0.72189067  0.05286518  1
  C  C10  1  0.76563300  0.22189065  0.55286517  1
  C  C11  1  0.23436699  0.77810933  0.05286518  1
  N  N0  1  0.90660129  0.49623123  0.79348595  1
  N  N1  1  0.09339868  0.50376874  0.29348598  1
  N  N2  1  0.40660132  0.00376876  0.79348595  1
  N  N3  1  0.59339871  0.99623126  0.29348598  1
  N  N4  1  0.06078754  0.50605444  0.74135574  1
  N  N5  1  0.93921248  0.49394556  0.24135572  1
  N  N6  1  0.56078752  0.99394556  0.74135574  1
  N  N7  1  0.43921245  0.00605443  0.24135572  1
  O  O0  1  0.55665347  0.64413047  0.66703318  1
  O  O1  1  0.44334650  0.35586953  0.16703315  1
  O  O2  1  0.05665348  0.85586953  0.66703318  1
  O  O3  1  0.94334653  0.14413046  0.16703315  1
  O  O4  1  0.50507759  0.63801845  0.85842366  1
  O  O5  1  0.49492238  0.36198155  0.35842366  1
  O  O6  1  0.00507762  0.86198155  0.85842366  1
  O  O7  1  0.99492241  0.13801845  0.35842366  1
  O  O8  1  0.44405622  0.72792734  0.44147127  1
  O  O9  1  0.55594378  0.27207266  0.94147130  1
  O  O10  1  0.94405622  0.77207266  0.44147127  1
  O  O11  1  0.05594377  0.22792734  0.94147130  1
  O  O12  1  0.24957680  0.92023171  0.44029875  1
  O  O13  1  0.75042320  0.07976831  0.94029875  1
  O  O14  1  0.74957680  0.57976829  0.44029875  1
  O  O15  1  0.25042320  0.42023168  0.94029875  1
  O  O16  1  0.32065919  0.42441453  0.57958885  1
  O  O17  1  0.67934081  0.57558544  0.07958784  1
  O  O18  1  0.82065919  0.07558547  0.57958885  1
  O  O19  1  0.17934083  0.92441456  0.07958784  1
  O  O20  1  0.12822089  0.23022872  0.57978391  1
  O  O21  1  0.87177911  0.76977130  0.07978390  1
  O  O22  1  0.62822089  0.26977130  0.57978391  1
  O  O23  1  0.37177911  0.73022870  0.07978390  1
loop_
_geom_bond_atom_site_label_1
_geom_bond_atom_site_label_2
_geom_bond_distance
_geom_bond_site_symmetry_2
Co0 O16 2.082565 1_555
Co0 O5 2.083209 1_555
Co0 O8 2.086056 1_555
Co0 O22 2.092672 1_555
Co0 O0 2.092964 1_555
Co0 O14 2.093277 1_555
Co1 O17 2.082561 1_555
Co1 O4 2.083209 1_554
Co1 O9 2.086055 1_554
Co1 O23 2.092672 1_555
Co1 O1 2.092964 1_555
Co1 O15 2.093277 1_554
Co2 O18 2.082565 1_465
Co2 O7 2.083209 1_465
Co2 O10 2.086056 1_455
Co2 O20 2.092672 1_565
Co2 O2 2.092964 1_555
Co2 O12 2.093277 1_555
Co3 O19 2.082561 1_645
Co3 O6 2.083209 1_644
Co3 O11 2.086055 1_654
Co3 O21 2.092672 1_545
Co3 O3 2.092964 1_555
Co3 O13 2.093277 1_554
H12 N4 1.037609 1_555
H13 N5 1.037609 1_555
H14 N6 1.037609 1_545
H15 N7 1.037609 1_565
H16 N4 1.041965 1_555
H17 N5 1.041965 1_555
H18 N6 1.041965 1_555
H19 N7 1.041965 1_555
H20 N4 1.041586 1_555
H21 N5 1.041586 1_555
H22 N6 1.041586 1_545
H23 N7 1.041586 1_565
H24 N0 1.022428 1_555
H25 N1 1.022428 1_555
H26 N2 1.022428 1_555
H27 N3 1.022428 1_555
H28 N0 1.022111 1_555
H29 N1 1.022110 1_555
H30 N2 1.022111 1_565
H31 N3 1.022110 1_545
C0 H0 1.095940 1_555
C0 O4 1.261932 1_555
C0 O0 1.269320 1_555
C1 H1 1.095940 1_555
C1 O5 1.261932 1_555
C1 O1 1.269320 1_555
C2 H2 1.095940 1_565
C2 O6 1.261932 1_555
C2 O2 1.269320 1_555
C3 H3 1.095940 1_545
C3 O7 1.261932 1_555
C3 O3 1.269320 1_555
C4 H4 1.096684 1_555
C4 O8 1.261719 1_555
C4 O12 1.268873 1_555
C5 H5 1.096680 1_556
C5 O9 1.261719 1_555
C5 O13 1.268873 1_555
C6 H6 1.096681 1_555
C6 O10 1.261719 1_555
C6 O14 1.268873 1_555
C7 H7 1.096680 1_556
C7 O11 1.261719 1_555
C7 O15 1.268873 1_555
C8 H8 1.097173 1_555
C8 O16 1.260168 1_555
C8 O20 1.270271 1_555
C9 H9 1.097173 1_555
C9 O17 1.260165 1_555
C9 O21 1.270271 1_555
C10 H10 1.097173 1_555
C10 O18 1.260168 1_555
C10 O22 1.270271 1_555
C11 H11 1.097173 1_555
C11 O19 1.260165 1_555
C11 O23 1.270271 1_555
