# generated using pymatgen
data_Rb8Ti6BCl20
_symmetry_space_group_name_H-M   'P 1'
_cell_length_a   11.15148459
_cell_length_b   11.15148458
_cell_length_c   11.15148402
_cell_angle_alpha   59.99999879
_cell_angle_beta   59.99999881
_cell_angle_gamma   59.99999753
_symmetry_Int_Tables_number   1
_chemical_formula_structural   Rb8Ti6BCl20
_chemical_formula_sum   'Rb8 Ti6 B1 Cl20'
_cell_volume   980.57999549
_cell_formula_units_Z   1
loop_
 _symmetry_equiv_pos_site_id
 _symmetry_equiv_pos_as_xyz
  1  'x, y, z'
loop_
 _atom_site_type_symbol
 _atom_site_label
 _atom_site_symmetry_multiplicity
 _atom_site_fract_x
 _atom_site_fract_y
 _atom_site_fract_z
 _atom_site_occupancy
  Rb  Rb0  1  0.36078314  0.36078314  0.36078314  1
  Rb  Rb1  1  0.63921686  0.63921686  0.63921686  1
  Rb  Rb2  1  0.36078314  0.36078314  0.91765059  1
  Rb  Rb3  1  0.36078314  0.91765059  0.36078314  1
  Rb  Rb4  1  0.63921686  0.63921686  0.08234941  1
  Rb  Rb5  1  0.63921686  0.08234941  0.63921686  1
  Rb  Rb6  1  0.91765059  0.36078314  0.36078314  1
  Rb  Rb7  1  0.08234941  0.63921686  0.63921686  1
  Ti  Ti0  1  0.86362489  0.13637511  0.13637511  1
  Ti  Ti1  1  0.13637511  0.86362489  0.86362489  1
  Ti  Ti2  1  0.13637511  0.86362489  0.13637511  1
  Ti  Ti3  1  0.86362489  0.13637511  0.86362489  1
  Ti  Ti4  1  0.13637511  0.13637511  0.86362489  1
  Ti  Ti5  1  0.86362489  0.86362489  0.13637511  1
  B  B0  1  0.00000000  0.00000000  0.00000000  1
  Cl  Cl0  1  0.30864253  0.00000000  1.00000000  1
  Cl  Cl1  1  0.69135747  1.00000000  0.00000000  1
  Cl  Cl2  1  0.00000000  0.30864253  0.69135747  1
  Cl  Cl3  1  1.00000000  0.69135747  0.30864253  1
  Cl  Cl4  1  0.00000000  0.30864253  1.00000000  1
  Cl  Cl5  1  0.69135747  1.00000000  0.30864253  1
  Cl  Cl6  1  1.00000000  0.69135747  0.00000000  1
  Cl  Cl7  1  0.30864253  0.00000000  0.69135747  1
  Cl  Cl8  1  0.00000000  0.00000000  0.30864253  1
  Cl  Cl9  1  1.00000000  1.00000000  0.69135747  1
  Cl  Cl10  1  0.69135747  0.30864253  0.00000000  1
  Cl  Cl11  1  0.30864253  0.69135747  0.00000000  1
  Cl  Cl12  1  0.69726354  0.30273646  0.30273646  1
  Cl  Cl13  1  0.30273646  0.69726354  0.69726354  1
  Cl  Cl14  1  0.30273646  0.69726354  0.30273646  1
  Cl  Cl15  1  0.69726354  0.30273646  0.69726354  1
  Cl  Cl16  1  0.30273646  0.30273646  0.69726354  1
  Cl  Cl17  1  0.69726354  0.69726354  0.30273646  1
  Cl  Cl18  1  0.25000000  0.25000000  0.25000000  1
  Cl  Cl19  1  0.75000000  0.75000000  0.75000000  1
loop_
_geom_bond_atom_site_label_1
_geom_bond_atom_site_label_2
_geom_bond_distance
_geom_bond_site_symmetry_2
B0 Ti2 2.150715 1_545
B0 Ti0 2.150715 1_455
B0 Ti1 2.150715 1_544
B0 Ti3 2.150715 1_454
B0 Ti4 2.150715 1_554
B0 Ti5 2.150715 1_445
Cl0 Ti4 2.450137 1_555
Cl0 Ti2 2.450137 1_546
Cl1 Ti5 2.450137 1_555
Cl1 Ti3 2.450137 1_564
Cl2 Ti4 2.450137 1_555
Cl2 Ti3 2.450137 1_455
Cl3 Ti5 2.450137 1_555
Cl3 Ti2 2.450137 1_655
Cl4 Ti4 2.450137 1_555
Cl4 Ti0 2.450137 1_456
Cl5 Ti5 2.450137 1_555
Cl5 Ti0 2.450137 1_565
Cl6 Ti5 2.450137 1_555
Cl6 Ti1 2.450137 1_654
Cl7 Ti4 2.450137 1_555
Cl7 Ti1 2.450137 1_545
Cl8 Ti2 2.450137 1_545
Cl8 Ti0 2.450137 1_455
Cl9 Ti3 2.450137 1_565
Cl9 Ti1 2.450137 1_655
Cl10 Ti0 2.450137 1_555
Cl10 Ti3 2.450137 1_554
Cl11 Ti1 2.450137 1_554
Cl11 Ti2 2.450137 1_555
Cl12 Ti0 2.623615 1_555
Cl12 Rb5 3.237085 1_555
Cl12 Rb4 3.237085 1_555
Cl12 Rb0 3.237086 1_555
Cl12 Rb6 3.237086 1_555
Cl13 Ti1 2.623615 1_555
Cl13 Rb3 3.237085 1_555
Cl13 Rb2 3.237085 1_555
Cl13 Rb1 3.237086 1_555
Cl13 Rb7 3.237086 1_555
Cl14 Ti2 2.623615 1_555
Cl14 Rb7 3.237085 1_555
Cl14 Rb4 3.237085 1_555
Cl14 Rb0 3.237086 1_555
Cl14 Rb3 3.237086 1_555
Cl15 Ti3 2.623615 1_555
Cl15 Rb6 3.237085 1_555
Cl15 Rb2 3.237085 1_555
Cl15 Rb1 3.237086 1_555
Cl15 Rb5 3.237086 1_555
Cl16 Ti4 2.623615 1_555
Cl16 Rb0 3.237085 1_555
Cl16 Rb7 3.237085 1_555
Cl16 Rb5 3.237085 1_555
Cl16 Rb2 3.237085 1_555
Cl17 Ti5 2.623615 1_555
Cl17 Rb1 3.237085 1_555
Cl17 Rb6 3.237085 1_555
Cl17 Rb3 3.237085 1_555
Cl17 Rb4 3.237085 1_555
Cl18 Rb2 3.026091 1_554
Cl18 Rb3 3.026091 1_545
Cl18 Rb6 3.026091 1_455
Cl18 Rb0 3.026091 1_555
Cl19 Rb4 3.026091 1_556
Cl19 Rb5 3.026091 1_565
Cl19 Rb7 3.026091 1_655
Cl19 Rb1 3.026091 1_555
