# generated using pymatgen
data_HfZrTi3Rh
_symmetry_space_group_name_H-M   'P 1'
_cell_length_a   5.57979726
_cell_length_b   5.57979777
_cell_length_c   5.16587366
_cell_angle_alpha   57.31204976
_cell_angle_beta   57.31204802
_cell_angle_gamma   60.00000379
_symmetry_Int_Tables_number   1
_chemical_formula_structural   HfZrTi3Rh
_chemical_formula_sum   'Hf1 Zr1 Ti3 Rh1'
_cell_volume   108.88562865
_cell_formula_units_Z   1
loop_
 _symmetry_equiv_pos_site_id
 _symmetry_equiv_pos_as_xyz
  1  'x, y, z'
loop_
 _atom_site_type_symbol
 _atom_site_label
 _atom_site_symmetry_multiplicity
 _atom_site_fract_x
 _atom_site_fract_y
 _atom_site_fract_z
 _atom_site_occupancy
  Hf  Hf0  1  0.24859719  0.24859719  0.25420643  1
  Zr  Zr0  1  0.00007502  0.00007502  0.99977293  1
  Ti  Ti0  1  0.62503763  0.12620301  0.62372274  1
  Ti  Ti1  1  0.12620301  0.62503763  0.62372274  1
  Ti  Ti2  1  0.62503763  0.62503763  0.62372274  1
  Rh  Rh0  1  0.62504953  0.62504953  0.12485342  1
loop_
_geom_bond_atom_site_label_1
_geom_bond_atom_site_label_2
_geom_bond_distance
_geom_bond_site_symmetry_2
Hf0 Ti0 3.010828 1_554
Hf0 Ti1 3.010828 1_554
Hf0 Ti2 3.010835 1_554
Hf0 Zr0 3.010852 1_555
Hf0 Ti0 3.163900 1_455
Hf0 Ti1 3.163900 1_545
Hf0 Ti2 3.163907 1_455
Hf0 Ti2 3.163907 1_545
Hf0 Ti0 3.163915 1_555
Hf0 Ti1 3.163915 1_555
Hf0 Rh0 3.263568 1_455
Hf0 Rh0 3.263568 1_545
Hf0 Rh0 3.263587 1_555
Hf0 Zr0 3.381387 1_654
Hf0 Zr0 3.381387 1_554
Hf0 Zr0 3.381388 1_564
Ti0 Zr0 2.992597 1_654
Ti0 Zr0 3.176430 1_655
Ti0 Zr0 3.176444 1_555
Ti1 Zr0 2.992597 1_564
Ti1 Zr0 3.176430 1_565
Ti1 Zr0 3.176445 1_555
Ti2 Zr0 2.992589 1_664
Ti2 Zr0 3.176437 1_565
Ti2 Zr0 3.176437 1_655
Rh0 Ti2 2.577024 1_555
Rh0 Ti1 2.577027 1_555
Rh0 Ti0 2.577027 1_555
Rh0 Ti1 2.588846 1_654
Rh0 Ti0 2.588846 1_564
Rh0 Ti2 2.588849 1_554
Rh0 Zr0 3.260845 1_664
Rh0 Zr0 3.260864 1_564
Rh0 Zr0 3.260864 1_654
