# generated using pymatgen
data_Y20NiAg6Rh
_symmetry_space_group_name_H-M   'P 1'
_cell_length_a   9.53457126
_cell_length_b   9.53457145
_cell_length_c   9.64259677
_cell_angle_alpha   90.00000000
_cell_angle_beta   90.00000000
_cell_angle_gamma   119.99999589
_symmetry_Int_Tables_number   1
_chemical_formula_structural   Y20NiAg6Rh
_chemical_formula_sum   'Y20 Ni1 Ag6 Rh1'
_cell_volume   759.14896166
_cell_formula_units_Z   1
loop_
 _symmetry_equiv_pos_site_id
 _symmetry_equiv_pos_as_xyz
  1  'x, y, z'
loop_
 _atom_site_type_symbol
 _atom_site_label
 _atom_site_symmetry_multiplicity
 _atom_site_fract_x
 _atom_site_fract_y
 _atom_site_fract_z
 _atom_site_occupancy
  Y  Y0  1  0.00000000  0.00000000  0.50065887  1
  Y  Y1  1  0.00000000  0.00000000  0.99934113  1
  Y  Y2  1  0.54284745  0.45715255  0.25000000  1
  Y  Y3  1  0.54284745  0.08569490  0.25000000  1
  Y  Y4  1  0.91430510  0.45715255  0.25000000  1
  Y  Y5  1  0.45697288  0.54302712  0.75000000  1
  Y  Y6  1  0.45697288  0.91394376  0.75000000  1
  Y  Y7  1  0.08605624  0.54302712  0.75000000  1
  Y  Y8  1  0.20780217  0.79219783  0.44029901  1
  Y  Y9  1  0.20780217  0.41560534  0.44029901  1
  Y  Y10  1  0.58439466  0.79219783  0.44029901  1
  Y  Y11  1  0.79050189  0.20949811  0.56270353  1
  Y  Y12  1  0.79050189  0.58100278  0.56270353  1
  Y  Y13  1  0.41899722  0.20949811  0.56270353  1
  Y  Y14  1  0.79050189  0.20949811  0.93729647  1
  Y  Y15  1  0.79050189  0.58100278  0.93729647  1
  Y  Y16  1  0.41899722  0.20949811  0.93729647  1
  Y  Y17  1  0.20780217  0.79219783  0.05970099  1
  Y  Y18  1  0.20780217  0.41560534  0.05970099  1
  Y  Y19  1  0.58439466  0.79219783  0.05970099  1
  Ni  Ni0  1  0.66666700  0.33333300  0.75000000  1
  Ag  Ag0  1  0.88359689  0.11640311  0.25000000  1
  Ag  Ag1  1  0.88359689  0.76719277  0.25000000  1
  Ag  Ag2  1  0.23280723  0.11640311  0.25000000  1
  Ag  Ag3  1  0.11634790  0.88365210  0.75000000  1
  Ag  Ag4  1  0.11634790  0.23269579  0.75000000  1
  Ag  Ag5  1  0.76730421  0.88365210  0.75000000  1
  Rh  Rh0  1  0.33333300  0.66666700  0.25000000  1
loop_
_geom_bond_atom_site_label_1
_geom_bond_atom_site_label_2
_geom_bond_distance
_geom_bond_site_symmetry_2
Y0 Y8 3.480727 1_545
Y0 Y10 3.480735 1_445
Y0 Y9 3.480735 1_555
Y0 Y11 3.511074 1_455
Y0 Y13 3.511083 1_555
Y0 Y12 3.511083 1_445
Y1 Y17 3.480727 1_546
Y1 Y19 3.480735 1_446
Y1 Y18 3.480735 1_556
Y1 Y14 3.511074 1_455
Y1 Y16 3.511083 1_555
Y1 Y15 3.511083 1_445
Y2 Y9 3.530371 1_555
Y2 Y4 3.541690 1_555
Y2 Y3 3.541690 1_555
Y3 Y8 3.530368 1_545
Y3 Y4 3.541690 1_555
Y4 Y9 3.530363 1_655
Y4 Y8 3.530368 1_655
Y5 Y7 3.536531 1_555
Y5 Y6 3.536531 1_555
Y5 Y9 3.626560 1_555
Y6 Y7 3.536531 1_555
Y6 Y8 3.626561 1_555
Y7 Y9 3.626546 1_555
Y7 Y8 3.626561 1_555
Y10 Y3 3.530363 1_565
Y10 Y2 3.530371 1_555
Y10 Y6 3.626546 1_555
Y10 Y5 3.626560 1_555
Y11 Y6 3.514850 1_545
Y11 Y7 3.514850 1_655
Y11 Y3 3.643296 1_555
Y11 Y4 3.643296 1_555
Y12 Y5 3.514846 1_555
Y12 Y7 3.514854 1_655
Y12 Y4 3.643291 1_555
Y12 Y2 3.643296 1_555
Y13 Y5 3.514846 1_555
Y13 Y6 3.514854 1_545
Y13 Y3 3.643291 1_555
Y13 Y2 3.643296 1_555
Y14 Y6 3.514850 1_545
Y14 Y7 3.514850 1_655
Y14 Y3 3.643296 1_556
Y14 Y4 3.643296 1_556
Y15 Y5 3.514846 1_555
Y15 Y7 3.514854 1_655
Y15 Y4 3.643291 1_556
Y15 Y2 3.643296 1_556
Y16 Y5 3.514846 1_555
Y16 Y6 3.514854 1_545
Y16 Y3 3.643291 1_556
Y16 Y2 3.643296 1_556
Y17 Y3 3.530368 1_565
Y17 Y4 3.530368 1_455
Y17 Y6 3.626561 1_554
Y17 Y7 3.626561 1_554
Y18 Y4 3.530363 1_455
Y18 Y2 3.530371 1_555
Y18 Y7 3.626546 1_554
Y18 Y5 3.626560 1_554
Y19 Y3 3.530363 1_565
Y19 Y2 3.530371 1_555
Y19 Y6 3.626546 1_554
Y19 Y5 3.626560 1_554
Ni0 Y14 2.728364 1_555
Ni0 Y11 2.728364 1_555
Ni0 Y16 2.728364 1_555
Ni0 Y13 2.728364 1_555
Ni0 Y15 2.728364 1_555
Ni0 Y12 2.728364 1_555
Ni0 Y5 3.462965 1_555
Ni0 Y7 3.462973 1_655
Ni0 Y6 3.462973 1_545
Ag0 Y0 3.088240 1_655
Ag0 Y1 3.088240 1_654
Ag0 Y3 3.112849 1_555
Ag0 Y4 3.112849 1_555
Ag0 Ag2 3.329571 1_655
Ag0 Ag1 3.329571 1_545
Ag0 Y11 3.384596 1_555
Ag0 Y14 3.384596 1_554
Ag0 Y9 3.498903 1_655
Ag0 Y18 3.498903 1_655
Ag0 Y10 3.498903 1_545
Ag0 Y19 3.498903 1_545
Ag1 Y0 3.088245 1_665
Ag1 Y1 3.088245 1_664
Ag1 Y4 3.112840 1_555
Ag1 Y2 3.112846 1_555
Ag1 Ag2 3.329571 1_665
Ag1 Y12 3.384596 1_555
Ag1 Y15 3.384596 1_554
Ag1 Y8 3.498895 1_655
Ag1 Y17 3.498895 1_655
Ag1 Y10 3.498912 1_555
Ag1 Y19 3.498912 1_555
Ag2 Y0 3.088245 1_555
Ag2 Y1 3.088245 1_554
Ag2 Y3 3.112840 1_555
Ag2 Y2 3.112846 1_555
Ag2 Y13 3.384596 1_555
Ag2 Y16 3.384596 1_554
Ag2 Y8 3.498895 1_545
Ag2 Y17 3.498895 1_545
Ag2 Y9 3.498912 1_555
Ag2 Y18 3.498912 1_555
Ag3 Y1 3.077736 1_565
Ag3 Y0 3.077736 1_565
Ag3 Y6 3.113368 1_555
Ag3 Y7 3.113368 1_555
Ag3 Ag5 3.327982 1_455
Ag3 Ag4 3.327982 1_565
Ag3 Y17 3.346513 1_556
Ag3 Y8 3.346513 1_555
Ag3 Y15 3.503673 1_455
Ag3 Y12 3.503673 1_455
Ag3 Y16 3.503673 1_565
Ag3 Y13 3.503673 1_565
Ag4 Y1 3.077736 1_555
Ag4 Y0 3.077736 1_555
Ag4 Y7 3.113349 1_555
Ag4 Y5 3.113360 1_555
Ag4 Ag5 3.327982 1_445
Ag4 Y18 3.346517 1_556
Ag4 Y9 3.346517 1_555
Ag4 Y14 3.503670 1_455
Ag4 Y11 3.503670 1_455
Ag4 Y16 3.503678 1_555
Ag4 Y13 3.503678 1_555
Ag5 Y1 3.077736 1_665
Ag5 Y0 3.077736 1_665
Ag5 Y6 3.113349 1_555
Ag5 Y5 3.113360 1_555
Ag5 Y19 3.346517 1_556
Ag5 Y10 3.346517 1_555
Ag5 Y14 3.503670 1_565
Ag5 Y11 3.503670 1_565
Ag5 Y15 3.503678 1_555
Ag5 Y12 3.503678 1_555
Rh0 Y8 2.768524 1_555
Rh0 Y17 2.768524 1_555
Rh0 Y10 2.768524 1_555
Rh0 Y19 2.768524 1_555
Rh0 Y9 2.768524 1_555
Rh0 Y18 2.768524 1_555
Rh0 Y4 3.459989 1_455
Rh0 Y3 3.459989 1_565
Rh0 Y2 3.459997 1_555
