# generated using pymatgen
data_Ti5ZnSb2
_symmetry_space_group_name_H-M   'P 1'
_cell_length_a   7.81883299
_cell_length_b   7.81884435
_cell_length_c   7.81883348
_cell_angle_alpha   96.30027049
_cell_angle_beta   96.29800178
_cell_angle_gamma   141.31187716
_symmetry_Int_Tables_number   1
_chemical_formula_structural   Ti5ZnSb2
_chemical_formula_sum   'Ti10 Zn2 Sb4'
_cell_volume   281.92027415
_cell_formula_units_Z   2
loop_
 _symmetry_equiv_pos_site_id
 _symmetry_equiv_pos_as_xyz
  1  'x, y, z'
loop_
 _atom_site_type_symbol
 _atom_site_label
 _atom_site_symmetry_multiplicity
 _atom_site_fract_x
 _atom_site_fract_y
 _atom_site_fract_z
 _atom_site_occupancy
  Ti  Ti0  1  0.57505013  0.71811513  0.29316626  1
  Ti  Ti1  1  0.42494987  0.28188487  0.70683374  1
  Ti  Ti2  1  0.75000100  0.25000000  0.50000100  1
  Ti  Ti3  1  0.24999900  0.75000000  0.49999900  1
  Ti  Ti4  1  0.71810423  0.42493858  0.14304481  1
  Ti  Ti5  1  0.28189577  0.57506142  0.85695519  1
  Ti  Ti6  1  0.92494887  0.21811513  0.14306500  1
  Ti  Ti7  1  0.21810623  0.07506142  0.29316566  1
  Ti  Ti8  1  0.07505113  0.78188487  0.85693500  1
  Ti  Ti9  1  0.78189377  0.92493858  0.70683434  1
  Zn  Zn0  1  0.75000000  0.75000000  0.00000000  1
  Zn  Zn1  1  0.25000000  0.25000000  0.00000000  1
  Sb  Sb0  1  0.33614024  0.83612784  0.17227108  1
  Sb  Sb1  1  0.16385776  0.33612784  0.49998760  1
  Sb  Sb2  1  0.66385976  0.16387216  0.82772892  1
  Sb  Sb3  1  0.83614224  0.66387216  0.50001240  1
loop_
_geom_bond_atom_site_label_1
_geom_bond_atom_site_label_2
_geom_bond_distance
_geom_bond_site_symmetry_2
Ti0 Zn0 2.732866 1_555
Ti0 Zn1 2.732871 1_555
Ti1 Zn1 2.732866 1_556
Ti1 Zn0 2.732871 1_556
Ti2 Ti3 2.589913 1_655
Ti2 Ti3 2.589913 1_545
Ti4 Zn1 2.732839 1_555
Ti4 Zn0 2.732847 1_555
Ti5 Zn0 2.732839 1_556
Ti5 Zn1 2.732847 1_556
Ti6 Zn1 2.732866 1_655
Ti6 Zn0 2.732871 1_545
Ti7 Zn1 2.732839 1_555
Ti7 Zn0 2.732847 1_445
Ti8 Zn0 2.732866 1_456
Ti8 Zn1 2.732871 1_566
Ti9 Zn0 2.732839 1_556
Ti9 Zn1 2.732847 1_666
Zn0 Zn1 2.589913 1_555
Zn0 Zn1 2.589913 1_665
Sb0 Ti3 2.742735 1_555
Sb0 Ti2 2.742761 1_565
Sb0 Ti0 2.780142 1_555
Sb0 Ti7 2.780418 1_565
Sb0 Ti5 2.781956 1_554
Sb0 Ti8 2.782233 1_554
Sb0 Ti6 3.013661 1_455
Sb0 Ti6 3.013663 1_565
Sb0 Ti4 3.013768 1_455
Sb0 Ti4 3.013777 1_565
Sb1 Ti2 2.742743 1_455
Sb1 Ti3 2.742766 1_555
Sb1 Ti6 2.780144 1_455
Sb1 Ti5 2.780421 1_555
Sb1 Ti7 2.781950 1_555
Sb1 Ti1 2.782227 1_555
Sb1 Ti0 3.013661 1_555
Sb1 Ti0 3.013663 1_445
Sb1 Ti9 3.013769 1_445
Sb1 Ti9 3.013775 1_555
Sb2 Ti2 2.742735 1_555
Sb2 Ti3 2.742761 1_545
Sb2 Ti1 2.780142 1_555
Sb2 Ti9 2.780418 1_545
Sb2 Ti4 2.781956 1_556
Sb2 Ti6 2.782233 1_556
Sb2 Ti8 3.013661 1_655
Sb2 Ti8 3.013663 1_545
Sb2 Ti5 3.013768 1_655
Sb2 Ti5 3.013777 1_545
Sb3 Ti3 2.742743 1_655
Sb3 Ti2 2.742766 1_555
Sb3 Ti8 2.780144 1_655
Sb3 Ti4 2.780421 1_555
Sb3 Ti9 2.781950 1_555
Sb3 Ti0 2.782227 1_555
Sb3 Ti1 3.013661 1_555
Sb3 Ti1 3.013663 1_665
Sb3 Ti7 3.013769 1_665
Sb3 Ti7 3.013775 1_555
