# generated using pymatgen
data_Na4TaMnO6
_symmetry_space_group_name_H-M   'P 1'
_cell_length_a   5.37611679
_cell_length_b   5.37615996
_cell_length_c   5.73627055
_cell_angle_alpha   100.52466182
_cell_angle_beta   100.52360088
_cell_angle_gamma   118.02502593
_symmetry_Int_Tables_number   1
_chemical_formula_structural   Na4TaMnO6
_chemical_formula_sum   'Na4 Ta1 Mn1 O6'
_cell_volume   136.83460718
_cell_formula_units_Z   1
loop_
 _symmetry_equiv_pos_site_id
 _symmetry_equiv_pos_as_xyz
  1  'x, y, z'
loop_
 _atom_site_type_symbol
 _atom_site_label
 _atom_site_symmetry_multiplicity
 _atom_site_fract_x
 _atom_site_fract_y
 _atom_site_fract_z
 _atom_site_occupancy
  Na  Na0  1  0.50226198  0.49773017  0.99999546  1
  Na  Na1  1  0.98994327  0.01004901  0.49999960  1
  Na  Na2  1  0.65603761  0.34395819  0.49999523  1
  Na  Na3  1  0.33991867  0.66010068  0.49999857  1
  Ta  Ta0  1  0.17588372  0.82410858  0.00000196  1
  Mn  Mn0  1  0.83844415  0.16154258  0.00001045  1
  O  O0  1  0.94135938  0.56341827  0.19052091  1
  O  O1  1  0.54361714  0.92094224  0.22853897  1
  O  O2  1  0.19169909  0.19482188  0.20632358  1
  O  O3  1  0.80518080  0.80829760  0.79368026  1
  O  O4  1  0.07905920  0.45638520  0.77144902  1
  O  O5  1  0.43659897  0.05864460  0.80948699  1
loop_
_geom_bond_atom_site_label_1
_geom_bond_atom_site_label_2
_geom_bond_distance
_geom_bond_site_symmetry_2
Na0 O5 2.241619 1_555
Na0 O0 2.241643 1_556
Na0 O4 2.296383 1_555
Na0 O1 2.296388 1_556
Na0 O3 2.389814 1_555
Na0 O2 2.389832 1_556
Na1 O3 2.295088 1_545
Na1 O2 2.295091 1_655
Na1 O4 2.386269 1_655
Na1 O1 2.386279 1_545
Na1 O0 2.582509 1_545
Na1 O5 2.582617 1_655
Na2 O1 2.243410 1_545
Na2 O4 2.243421 1_655
Na2 O2 2.408730 1_555
Na2 O3 2.408753 1_555
Na2 O0 2.637338 1_555
Na2 O5 2.637376 1_555
Na3 O5 2.289010 1_565
Na3 O0 2.289038 1_455
Na3 O1 2.359672 1_555
Na3 O4 2.359697 1_555
Na3 O3 2.413925 1_555
Na3 O2 2.413936 1_555
Mn0 O2 1.954915 1_655
Mn0 O3 1.954946 1_544
Mn0 O5 1.990290 1_554
Mn0 O0 1.990378 1_555
Mn0 O1 2.314243 1_545
Mn0 O4 2.314471 1_654
O0 Ta0 2.037308 1_655
O1 Ta0 1.932581 1_555
O2 Ta0 2.079026 1_545
O3 Ta0 2.078998 1_656
O4 Ta0 1.932592 1_556
O5 Ta0 2.037379 1_546
