# generated using pymatgen
data_BaSr(AgSb)2
_symmetry_space_group_name_H-M   'P 1'
_cell_length_a   4.82696461
_cell_length_b   4.82696379
_cell_length_c   9.00515409
_cell_angle_alpha   90.00000000
_cell_angle_beta   90.00000000
_cell_angle_gamma   119.99999889
_symmetry_Int_Tables_number   1
_chemical_formula_structural   BaSr(AgSb)2
_chemical_formula_sum   'Ba1 Sr1 Ag2 Sb2'
_cell_volume   181.70628161
_cell_formula_units_Z   1
loop_
 _symmetry_equiv_pos_site_id
 _symmetry_equiv_pos_as_xyz
  1  'x, y, z'
loop_
 _atom_site_type_symbol
 _atom_site_label
 _atom_site_symmetry_multiplicity
 _atom_site_fract_x
 _atom_site_fract_y
 _atom_site_fract_z
 _atom_site_occupancy
  Ba  Ba0  1  0.00000000  0.00000000  0.00000000  1
  Sr  Sr0  1  0.00000000  0.00000000  0.50000000  1
  Ag  Ag0  1  0.33333300  0.66666700  0.26886922  1
  Ag  Ag1  1  0.66666700  0.33333300  0.73113078  1
  Sb  Sb0  1  0.33333300  0.66666700  0.74064111  1
  Sb  Sb1  1  0.66666700  0.33333300  0.25935889  1
loop_
_geom_bond_atom_site_label_1
_geom_bond_atom_site_label_2
_geom_bond_distance
_geom_bond_site_symmetry_2
Ba0 Sb1 3.636122 1_455
Ba0 Sb0 3.636122 1_544
Ba0 Sb1 3.636125 1_445
Ba0 Sb0 3.636125 1_554
Ba0 Sb1 3.636126 1_555
Ba0 Sb0 3.636126 1_444
Ag0 Sb1 2.788162 1_565
Ag0 Sb1 2.788162 1_455
Ag0 Sb1 2.788170 1_555
Ag0 Sr0 3.478305 1_565
Ag0 Sr0 3.478308 1_555
Ag0 Sr0 3.478309 1_665
Ag0 Ba0 3.691716 1_565
Ag0 Ba0 3.691719 1_555
Ag0 Ba0 3.691719 1_665
Ag1 Sb0 2.788162 1_545
Ag1 Sb0 2.788162 1_655
Ag1 Sb0 2.788170 1_555
Ag1 Sr0 3.478305 1_655
Ag1 Sr0 3.478308 1_665
Ag1 Sr0 3.478309 1_555
Ag1 Ba0 3.691716 1_656
Ag1 Ba0 3.691719 1_666
Ag1 Ba0 3.691719 1_556
Sb0 Sr0 3.530219 1_565
Sb0 Sr0 3.530222 1_555
Sb0 Sr0 3.530222 1_665
Sb1 Sr0 3.530219 1_655
Sb1 Sr0 3.530222 1_665
Sb1 Sr0 3.530222 1_555
