# generated using pymatgen
data_Hf6Al16Pt4Rh3
_symmetry_space_group_name_H-M   'P 1'
_cell_length_a   8.66764579
_cell_length_b   8.66190160
_cell_length_c   8.66190193
_cell_angle_alpha   60.04387604
_cell_angle_beta   59.97806229
_cell_angle_gamma   59.97805876
_symmetry_Int_Tables_number   1
_chemical_formula_structural   Hf6Al16Pt4Rh3
_chemical_formula_sum   'Hf6 Al16 Pt4 Rh3'
_cell_volume   459.84585244
_cell_formula_units_Z   1
loop_
 _symmetry_equiv_pos_site_id
 _symmetry_equiv_pos_as_xyz
  1  'x, y, z'
loop_
 _atom_site_type_symbol
 _atom_site_label
 _atom_site_symmetry_multiplicity
 _atom_site_fract_x
 _atom_site_fract_y
 _atom_site_fract_z
 _atom_site_occupancy
  Hf  Hf0  1  0.68731781  0.31268119  0.31268119  1
  Hf  Hf1  1  0.31268119  0.68731781  0.68731781  1
  Hf  Hf2  1  0.31879452  0.68120448  0.31879452  1
  Hf  Hf3  1  0.31879452  0.31879452  0.68120448  1
  Hf  Hf4  1  0.68120448  0.31879452  0.68120448  1
  Hf  Hf5  1  0.68120448  0.68120448  0.31879452  1
  Al  Al0  1  0.33295484  0.33755432  0.33755432  1
  Al  Al1  1  0.33755432  0.33295484  0.99193551  1
  Al  Al2  1  0.99193551  0.33755432  0.33755432  1
  Al  Al3  1  0.33755432  0.99193551  0.33295484  1
  Al  Al4  1  0.66704516  0.66244568  0.66244568  1
  Al  Al5  1  0.66244568  0.66704516  0.00806449  1
  Al  Al6  1  0.66244568  0.00806449  0.66704516  1
  Al  Al7  1  0.00806449  0.66244568  0.66244568  1
  Al  Al8  1  0.12304633  0.11709370  0.11709370  1
  Al  Al9  1  0.11709370  0.12304633  0.64276526  1
  Al  Al10  1  0.64276526  0.11709370  0.11709370  1
  Al  Al11  1  0.11709370  0.64276526  0.12304633  1
  Al  Al12  1  0.87695267  0.88290530  0.88290530  1
  Al  Al13  1  0.88290530  0.87695267  0.35723774  1
  Al  Al14  1  0.88290530  0.35723774  0.87695267  1
  Al  Al15  1  0.35723774  0.88290530  0.88290530  1
  Pt  Pt0  1  0.00000000  0.50000000  0.00000000  1
  Pt  Pt1  1  0.00000000  0.00000000  0.50000000  1
  Pt  Pt2  1  0.50000000  0.00000000  0.50000000  1
  Pt  Pt3  1  0.50000000  0.50000000  0.00000000  1
  Rh  Rh0  1  0.00000000  0.00000000  0.00000000  1
  Rh  Rh1  1  0.50000000  0.00000000  0.00000000  1
  Rh  Rh2  1  0.00000000  0.50000000  0.50000000  1
loop_
_geom_bond_atom_site_label_1
_geom_bond_atom_site_label_2
_geom_bond_distance
_geom_bond_site_symmetry_2
Hf0 Pt3 3.159075 1_555
Hf0 Pt2 3.159075 1_555
Hf0 Pt1 3.159087 1_655
Hf0 Pt0 3.159087 1_655
Hf0 Hf2 3.192481 1_555
Hf0 Hf5 3.192481 1_555
Hf0 Hf4 3.192482 1_555
Hf0 Hf3 3.192482 1_555
Hf1 Pt1 3.159078 1_565
Hf1 Pt0 3.159078 1_556
Hf1 Pt3 3.159090 1_556
Hf1 Pt2 3.159090 1_565
Hf1 Hf4 3.192481 1_555
Hf1 Hf3 3.192481 1_555
Hf1 Hf2 3.192482 1_555
Hf1 Hf5 3.192482 1_555
Hf2 Hf3 3.141241 1_555
Hf2 Hf5 3.141241 1_555
Hf2 Pt3 3.174461 1_555
Hf2 Pt1 3.174473 1_565
Hf2 Rh2 3.178378 1_555
Hf2 Rh1 3.178390 1_565
Hf3 Hf4 3.141241 1_555
Hf3 Pt2 3.174461 1_555
Hf3 Pt0 3.174473 1_556
Hf3 Rh2 3.178378 1_555
Hf3 Rh1 3.178390 1_556
Hf4 Hf5 3.141241 1_555
Hf4 Pt1 3.174464 1_655
Hf4 Pt3 3.174476 1_556
Hf4 Rh1 3.178381 1_556
Hf4 Rh2 3.178393 1_655
Hf5 Pt0 3.174464 1_655
Hf5 Pt2 3.174476 1_565
Hf5 Rh1 3.178381 1_565
Hf5 Rh2 3.178393 1_655
Al0 Rh2 2.477654 1_555
Al0 Pt2 2.513762 1_555
Al0 Pt3 2.513762 1_555
Al0 Hf2 2.841358 1_555
Al0 Hf3 2.841358 1_555
Al0 Hf0 2.872087 1_555
Al1 Rh1 2.477652 1_556
Al1 Pt0 2.513760 1_556
Al1 Pt3 2.513767 1_556
Al1 Hf4 2.841362 1_555
Al1 Hf3 2.841366 1_555
Al1 Hf1 2.872091 1_555
Al2 Rh2 2.477659 1_655
Al2 Pt1 2.513760 1_655
Al2 Pt0 2.513760 1_655
Al2 Hf5 2.841361 1_555
Al2 Hf4 2.841362 1_555
Al2 Hf0 2.872096 1_555
Al3 Rh1 2.477652 1_565
Al3 Pt1 2.513760 1_565
Al3 Pt2 2.513767 1_565
Al3 Hf5 2.841361 1_555
Al3 Hf2 2.841366 1_555
Al3 Hf1 2.872091 1_555
Al4 Rh2 2.477654 1_655
Al4 Pt2 2.513762 1_565
Al4 Pt3 2.513762 1_556
Al4 Hf4 2.841374 1_555
Al4 Hf5 2.841374 1_555
Al4 Hf1 2.872103 1_555
Al5 Rh1 2.477652 1_565
Al5 Pt0 2.513760 1_655
Al5 Pt3 2.513767 1_555
Al5 Hf5 2.841348 1_555
Al5 Hf2 2.841363 1_555
Al5 Hf0 2.872092 1_555
Al6 Rh1 2.477652 1_556
Al6 Pt1 2.513760 1_655
Al6 Pt2 2.513767 1_555
Al6 Hf4 2.841348 1_555
Al6 Hf3 2.841362 1_555
Al6 Hf0 2.872092 1_555
Al7 Rh2 2.477659 1_555
Al7 Pt1 2.513760 1_565
Al7 Pt0 2.513760 1_556
Al7 Hf3 2.841362 1_555
Al7 Hf2 2.841362 1_555
Al7 Hf1 2.872077 1_555
Al8 Rh0 2.527276 1_555
Al8 Rh1 2.669809 1_555
Al8 Pt0 2.711072 1_555
Al8 Pt1 2.711072 1_555
Al8 Hf0 3.172570 1_455
Al8 Hf2 3.186655 1_545
Al8 Hf3 3.186656 1_554
Al9 Rh0 2.527283 1_556
Al9 Rh2 2.669809 1_555
Al9 Pt1 2.711065 1_555
Al9 Pt2 2.711072 1_555
Al9 Hf1 3.172572 1_545
Al9 Hf3 3.186650 1_555
Al9 Hf4 3.186657 1_455
Al10 Rh0 2.527283 1_655
Al10 Rh1 2.669802 1_555
Al10 Pt3 2.711072 1_555
Al10 Pt2 2.711072 1_555
Al10 Hf0 3.172565 1_555
Al10 Hf5 3.186657 1_545
Al10 Hf4 3.186657 1_554
Al11 Rh0 2.527283 1_565
Al11 Rh2 2.669809 1_555
Al11 Pt0 2.711065 1_555
Al11 Pt3 2.711072 1_555
Al11 Hf1 3.172572 1_554
Al11 Hf2 3.186650 1_555
Al11 Hf5 3.186658 1_455
Al12 Rh0 2.527297 1_666
Al12 Rh1 2.669801 1_566
Al12 Pt0 2.711064 1_656
Al12 Pt1 2.711065 1_665
Al12 Hf1 3.172570 1_655
Al12 Hf4 3.186655 1_565
Al12 Hf5 3.186656 1_556
Al13 Rh0 2.527304 1_665
Al13 Rh2 2.669801 1_655
Al13 Pt1 2.711057 1_665
Al13 Pt2 2.711064 1_565
Al13 Hf0 3.172565 1_565
Al13 Hf2 3.186650 1_655
Al13 Hf5 3.186672 1_555
Al14 Rh0 2.527304 1_656
Al14 Rh2 2.669801 1_655
Al14 Pt0 2.711057 1_656
Al14 Pt3 2.711064 1_556
Al14 Hf0 3.172565 1_556
Al14 Hf3 3.186650 1_655
Al14 Hf4 3.186672 1_555
Al15 Rh0 2.527304 1_566
Al15 Rh1 2.669794 1_566
Al15 Pt3 2.711064 1_556
Al15 Pt2 2.711064 1_565
Al15 Hf1 3.172587 1_555
Al15 Hf3 3.186650 1_565
Al15 Hf2 3.186650 1_556
