# generated using pymatgen
data_NaY6RuI12
_symmetry_space_group_name_H-M   'P 1'
_cell_length_a   9.70587923
_cell_length_b   9.70587856
_cell_length_c   9.70587838
_cell_angle_alpha   106.88068407
_cell_angle_beta   106.88068331
_cell_angle_gamma   106.88067228
_symmetry_Int_Tables_number   1
_chemical_formula_structural   NaY6RuI12
_chemical_formula_sum   'Na1 Y6 Ru1 I12'
_cell_volume   763.93055819
_cell_formula_units_Z   1
loop_
 _symmetry_equiv_pos_site_id
 _symmetry_equiv_pos_as_xyz
  1  'x, y, z'
loop_
 _atom_site_type_symbol
 _atom_site_label
 _atom_site_symmetry_multiplicity
 _atom_site_fract_x
 _atom_site_fract_y
 _atom_site_fract_z
 _atom_site_occupancy
  Na  Na0  1  0.50000000  0.50000000  0.50000000  1
  Y  Y0  1  0.89928804  0.69615078  0.97078895  1
  Y  Y1  1  0.97078895  0.89928804  0.69615078  1
  Y  Y2  1  0.69615078  0.97078895  0.89928804  1
  Y  Y3  1  0.10071196  0.30384922  0.02921105  1
  Y  Y4  1  0.02921105  0.10071196  0.30384922  1
  Y  Y5  1  0.30384922  0.02921105  0.10071196  1
  Ru  Ru0  1  0.00000000  0.00000000  0.00000000  1
  I  I0  1  0.62567375  0.85708416  0.54553453  1
  I  I1  1  0.54553453  0.62567375  0.85708416  1
  I  I2  1  0.85708416  0.54553453  0.62567375  1
  I  I3  1  0.37432625  0.14291584  0.45446547  1
  I  I4  1  0.45446547  0.37432625  0.14291584  1
  I  I5  1  0.14291584  0.45446547  0.37432625  1
  I  I6  1  0.68120947  0.07555385  0.22649566  1
  I  I7  1  0.22649566  0.68120947  0.07555385  1
  I  I8  1  0.07555385  0.22649566  0.68120947  1
  I  I9  1  0.31879053  0.92444615  0.77350434  1
  I  I10  1  0.77350434  0.31879053  0.92444615  1
  I  I11  1  0.92444615  0.77350434  0.31879053  1
loop_
_geom_bond_atom_site_label_1
_geom_bond_atom_site_label_2
_geom_bond_distance
_geom_bond_site_symmetry_2
Ru0 Y4 2.722587 1_555
Ru0 Y1 2.722587 1_444
Ru0 Y3 2.722588 1_555
Ru0 Y0 2.722588 1_444
Ru0 Y5 2.722588 1_555
Ru0 Y2 2.722588 1_444
I0 Y2 3.077606 1_555
I0 Y1 3.088126 1_555
I0 Na0 3.168161 1_555
I1 Y0 3.077606 1_555
I1 Y2 3.088126 1_555
I1 Na0 3.168160 1_555
I2 Y1 3.077606 1_555
I2 Y0 3.088126 1_555
I2 Na0 3.168161 1_555
I3 Y5 3.077606 1_555
I3 Y4 3.088126 1_555
I3 Na0 3.168161 1_555
I4 Y3 3.077606 1_555
I4 Y5 3.088126 1_555
I4 Na0 3.168160 1_555
I5 Y4 3.077606 1_555
I5 Y3 3.088126 1_555
I5 Na0 3.168161 1_555
I6 Y2 3.101385 1_544
I6 Y4 3.158116 1_655
I6 Y5 3.351863 1_555
I7 Y0 3.101385 1_454
I7 Y5 3.158116 1_565
I7 Y3 3.351863 1_555
I8 Y1 3.101385 1_445
I8 Y3 3.158116 1_556
I8 Y4 3.351862 1_555
I9 Y5 3.101385 1_566
I9 Y1 3.158116 1_455
I9 Y2 3.351863 1_555
I10 Y3 3.101385 1_656
I10 Y2 3.158116 1_545
I10 Y0 3.351863 1_555
I11 Y4 3.101385 1_665
I11 Y0 3.158116 1_554
I11 Y1 3.351862 1_555
