# generated using pymatgen
data_Rb2Ge3PbO9
_symmetry_space_group_name_H-M   'P 1'
_cell_length_a   7.25619448
_cell_length_b   7.25619409
_cell_length_c   10.67895668
_cell_angle_alpha   90.00000000
_cell_angle_beta   90.00000000
_cell_angle_gamma   119.99999422
_symmetry_Int_Tables_number   1
_chemical_formula_structural   Rb2Ge3PbO9
_chemical_formula_sum   'Rb4 Ge6 Pb2 O18'
_cell_volume   486.94205776
_cell_formula_units_Z   2
loop_
 _symmetry_equiv_pos_site_id
 _symmetry_equiv_pos_as_xyz
  1  'x, y, z'
loop_
 _atom_site_type_symbol
 _atom_site_label
 _atom_site_symmetry_multiplicity
 _atom_site_fract_x
 _atom_site_fract_y
 _atom_site_fract_z
 _atom_site_occupancy
  Rb  Rb0  1  0.33333300  0.66666700  0.05688717  1
  Rb  Rb1  1  0.66666700  0.33333300  0.55688717  1
  Rb  Rb2  1  0.33333300  0.66666700  0.44311283  1
  Rb  Rb3  1  0.66666700  0.33333300  0.94311283  1
  Ge  Ge0  1  0.62251055  0.75007356  0.75000000  1
  Ge  Ge1  1  0.87243700  0.62251055  0.25000000  1
  Ge  Ge2  1  0.75007356  0.12756300  0.25000000  1
  Ge  Ge3  1  0.24992644  0.87243700  0.75000000  1
  Ge  Ge4  1  0.12756300  0.37748945  0.75000000  1
  Ge  Ge5  1  0.37748945  0.24992644  0.25000000  1
  Pb  Pb0  1  0.00000000  0.00000000  0.00000000  1
  Pb  Pb1  1  0.00000000  0.00000000  0.50000000  1
  O  O0  1  0.25407907  0.24347278  0.39006149  1
  O  O1  1  0.01060729  0.25407907  0.89006149  1
  O  O2  1  0.24347278  0.98939271  0.89006149  1
  O  O3  1  0.75652722  0.01060729  0.39006149  1
  O  O4  1  0.98939271  0.74592093  0.39006149  1
  O  O5  1  0.74592093  0.75652722  0.89006149  1
  O  O6  1  0.74592093  0.75652722  0.60993851  1
  O  O7  1  0.98939271  0.74592093  0.10993851  1
  O  O8  1  0.75652722  0.01060729  0.10993851  1
  O  O9  1  0.24347278  0.98939271  0.60993851  1
  O  O10  1  0.01060729  0.25407907  0.60993851  1
  O  O11  1  0.25407907  0.24347278  0.10993851  1
  O  O12  1  0.48068198  0.07462878  0.25000000  1
  O  O13  1  0.40605320  0.48068198  0.75000000  1
  O  O14  1  0.07462878  0.59394680  0.75000000  1
  O  O15  1  0.92537122  0.40605320  0.25000000  1
  O  O16  1  0.59394680  0.51931802  0.25000000  1
  O  O17  1  0.51931802  0.92537122  0.75000000  1
loop_
_geom_bond_atom_site_label_1
_geom_bond_atom_site_label_2
_geom_bond_distance
_geom_bond_site_symmetry_2
Ge0 O5 1.731852 1_555
Ge0 O6 1.731852 1_555
Ge0 O17 1.769491 1_555
Ge0 O13 1.793819 1_555
Ge1 O4 1.731850 1_555
Ge1 O7 1.731850 1_555
Ge1 O16 1.769491 1_555
Ge1 O15 1.793819 1_555
Ge2 O3 1.731848 1_555
Ge2 O8 1.731848 1_555
Ge2 O15 1.769491 1_555
Ge2 O12 1.793819 1_555
Ge3 O2 1.731848 1_555
Ge3 O9 1.731848 1_555
Ge3 O14 1.769491 1_555
Ge3 O17 1.793819 1_555
Ge4 O1 1.731850 1_555
Ge4 O10 1.731850 1_555
Ge4 O13 1.769491 1_555
Ge4 O14 1.793819 1_555
Ge5 O0 1.731852 1_555
Ge5 O11 1.731852 1_555
Ge5 O12 1.769491 1_555
Ge5 O16 1.793819 1_555
O0 Pb1 2.154394 1_555
O0 Rb2 2.883646 1_555
O0 Rb1 3.257275 1_555
O1 Pb0 2.154391 1_556
O1 Rb3 2.883646 1_455
O1 Rb0 3.257271 1_556
O2 Pb0 2.154397 1_566
O2 Rb3 2.883647 1_565
O2 Rb0 3.257263 1_556
O3 Pb1 2.154397 1_655
O3 Rb2 2.883647 1_545
O3 Rb1 3.257263 1_555
O4 Pb1 2.154391 1_665
O4 Rb2 2.883646 1_655
O4 Rb1 3.257271 1_555
O5 Pb0 2.154394 1_666
O5 Rb3 2.883646 1_555
O5 Rb0 3.257275 1_556
O6 Pb1 2.154394 1_665
O6 Rb1 2.883646 1_555
O6 Rb2 3.257275 1_555
O7 Pb0 2.154391 1_665
O7 Rb0 2.883646 1_655
O7 Rb3 3.257271 1_554
O8 Pb0 2.154397 1_655
O8 Rb0 2.883647 1_545
O8 Rb3 3.257263 1_554
O9 Pb1 2.154397 1_565
O9 Rb1 2.883647 1_565
O9 Rb2 3.257263 1_555
O10 Pb1 2.154391 1_555
O10 Rb1 2.883646 1_455
O10 Rb2 3.257271 1_555
O11 Pb0 2.154394 1_555
O11 Rb0 2.883646 1_555
O11 Rb3 3.257275 1_554
O12 Rb2 3.315724 1_545
O12 Rb0 3.315724 1_545
O13 Rb3 3.315729 1_555
O13 Rb1 3.315729 1_555
O14 Rb3 3.315725 1_455
O14 Rb1 3.315725 1_455
O15 Rb2 3.315725 1_655
O15 Rb0 3.315725 1_655
O16 Rb2 3.315729 1_555
O16 Rb0 3.315729 1_555
O17 Rb3 3.315724 1_565
O17 Rb1 3.315724 1_565
