# generated using pymatgen
data_Na10HfSiAs6
_symmetry_space_group_name_H-M   'P 1'
_cell_length_a   7.50153385
_cell_length_b   8.27244791
_cell_length_c   15.75883556
_cell_angle_alpha   59.25023144
_cell_angle_beta   90.00000000
_cell_angle_gamma   90.00000000
_symmetry_Int_Tables_number   1
_chemical_formula_structural   Na10HfSiAs6
_chemical_formula_sum   'Na20 Hf2 Si2 As12'
_cell_volume   840.44223919
_cell_formula_units_Z   2
loop_
 _symmetry_equiv_pos_site_id
 _symmetry_equiv_pos_as_xyz
  1  'x, y, z'
loop_
 _atom_site_type_symbol
 _atom_site_label
 _atom_site_symmetry_multiplicity
 _atom_site_fract_x
 _atom_site_fract_y
 _atom_site_fract_z
 _atom_site_occupancy
  Na  Na0  1  0.52128794  0.55796947  0.75283984  1
  Na  Na1  1  0.02128794  0.44203053  0.74716016  1
  Na  Na2  1  0.48699932  0.44592235  0.23616507  1
  Na  Na3  1  0.98699932  0.55407765  0.26383493  1
  Na  Na4  1  0.97996092  0.26549379  0.57899172  1
  Na  Na5  1  0.47996092  0.73450621  0.92100828  1
  Na  Na6  1  0.02910243  0.76301834  0.41696750  1
  Na  Na7  1  0.52910243  0.23698166  0.08303250  1
  Na  Na8  1  0.47940226  0.07047769  0.59149968  1
  Na  Na9  1  0.97940226  0.92952231  0.90850032  1
  Na  Na10  1  0.51422523  0.92215664  0.41098709  1
  Na  Na11  1  0.01422523  0.07784336  0.08901291  1
  Na  Na12  1  0.34451841  0.16111655  0.91318298  1
  Na  Na13  1  0.84451841  0.83888345  0.58681702  1
  Na  Na14  1  0.65881469  0.85029702  0.07885416  1
  Na  Na15  1  0.15881469  0.14970298  0.42114584  1
  Na  Na16  1  0.15620314  0.83531194  0.74191144  1
  Na  Na17  1  0.65620314  0.16468806  0.75808856  1
  Na  Na18  1  0.84398029  0.16264192  0.25789521  1
  Na  Na19  1  0.34398029  0.83735808  0.24210479  1
  Hf  Hf0  1  0.13218469  0.49079413  0.07957620  1
  Hf  Hf1  1  0.63218469  0.50920587  0.42042380  1
  Si  Si0  1  0.86371613  0.51186926  0.91712902  1
  Si  Si1  1  0.36371613  0.48813074  0.58287098  1
  As  As0  1  0.24433572  0.75776821  0.58108995  1
  As  As1  1  0.74433572  0.24223179  0.91891005  1
  As  As2  1  0.76040383  0.21745482  0.42358922  1
  As  As3  1  0.26040383  0.78254518  0.07641078  1
  As  As4  1  0.27314326  0.19537566  0.71983446  1
  As  As5  1  0.77314326  0.80462434  0.78016554  1
  As  As6  1  0.73204787  0.81799087  0.26839770  1
  As  As7  1  0.23204787  0.18200913  0.23160230  1
  As  As8  1  0.19155503  0.47646869  0.92243841  1
  As  As9  1  0.69155503  0.52353131  0.57756159  1
  As  As10  1  0.78811782  0.51978453  0.06612552  1
  As  As11  1  0.28811782  0.48021547  0.43387448  1
loop_
_geom_bond_atom_site_label_1
_geom_bond_atom_site_label_2
_geom_bond_distance
_geom_bond_site_symmetry_2
Na0 Si1 3.238490 1_555
Na1 Si0 3.238490 1_455
As0 Si1 2.390431 1_555
As0 Na15 2.986664 1_565
As0 Na16 2.988980 1_555
As0 Na6 3.030387 1_555
As0 Na10 3.066973 1_555
As0 Na1 3.079103 1_555
As0 Na13 3.084769 1_455
As0 Na0 3.130363 1_555
As0 Na8 3.203468 1_565
As1 Si0 2.390431 1_555
As1 Na14 2.986664 1_546
As1 Na17 2.988980 1_555
As1 Na7 3.030387 1_556
As1 Na11 3.066973 1_656
As1 Na0 3.079103 1_555
As1 Na12 3.084769 1_555
As1 Na1 3.130363 1_655
As1 Na9 3.203468 1_545
As2 Hf1 2.574776 1_555
As2 Na13 2.929993 1_545
As2 Na18 2.937256 1_555
As2 Na15 3.044662 1_655
As2 Na8 3.103795 1_555
As2 Na3 3.132575 1_555
As2 Na4 3.140572 1_555
As2 Na10 3.148548 1_545
As2 Na2 3.285399 1_555
As3 Hf0 2.574776 1_555
As3 Na12 2.929993 1_564
As3 Na19 2.937256 1_555
As3 Na14 3.044662 1_555
As3 Na9 3.103795 1_454
As3 Na2 3.132575 1_555
As3 Na5 3.140572 1_554
As3 Na11 3.148548 1_565
As3 Na3 3.285399 1_455
As4 Si1 2.374905 1_555
As4 Na17 2.920374 1_555
As4 Na16 2.950085 1_545
As4 Na12 2.961058 1_555
As4 Na4 2.963649 1_455
As4 Na1 2.969307 1_555
As4 Na8 3.112623 1_555
As4 Na9 3.441723 1_445
As5 Si0 2.374905 1_555
As5 Na16 2.920374 1_655
As5 Na17 2.950085 1_565
As5 Na13 2.961058 1_555
As5 Na5 2.963649 1_555
As5 Na0 2.969307 1_555
As5 Na9 3.112623 1_555
As5 Na8 3.441723 1_565
As6 Hf1 2.562795 1_555
As6 Na18 2.894601 1_565
As6 Na14 2.911873 1_555
As6 Na3 2.930845 1_555
As6 Na19 2.933255 1_555
As6 Na6 3.092779 1_655
As6 Na10 3.231365 1_555
As6 Na11 3.298321 1_665
As7 Hf0 2.562795 1_555
As7 Na19 2.894601 1_545
As7 Na15 2.911873 1_555
As7 Na2 2.930845 1_555
As7 Na18 2.933255 1_455
As7 Na7 3.092779 1_555
As7 Na11 3.231365 1_555
As7 Na10 3.298321 1_545
As8 Si0 2.473022 1_455
As8 Hf0 2.577709 1_556
As8 Na16 2.887911 1_555
As8 Na12 2.921048 1_555
As8 Na5 3.031256 1_555
As8 Na1 3.185418 1_555
As8 Na11 3.268449 1_556
As8 Na7 3.407986 1_556
As8 Na0 3.445771 1_555
As9 Si1 2.473022 1_555
As9 Hf1 2.577709 1_555
As9 Na17 2.887911 1_555
As9 Na13 2.921048 1_555
As9 Na4 3.031256 1_555
As9 Na0 3.185418 1_555
As9 Na10 3.268449 1_555
As9 Na6 3.407986 1_655
As9 Na1 3.445771 1_655
As10 Si0 2.448728 1_554
As10 Hf0 2.590786 1_655
As10 Na7 2.946528 1_555
As10 Na18 2.984478 1_555
As10 Na14 3.002909 1_555
As10 Na5 3.094324 1_554
As10 Na2 3.313890 1_555
As10 Na9 3.332940 1_554
As11 Si1 2.448728 1_555
As11 Hf1 2.590786 1_555
As11 Na6 2.946528 1_555
As11 Na19 2.984478 1_555
As11 Na15 3.002909 1_555
As11 Na4 3.094324 1_455
As11 Na3 3.313890 1_455
As11 Na8 3.332940 1_555
