# generated using pymatgen
data_Lu4B16MoW3
_symmetry_space_group_name_H-M   'P 1'
_cell_length_a   3.57747106
_cell_length_b   5.97245820
_cell_length_c   11.52334980
_cell_angle_alpha   90.00191558
_cell_angle_beta   90.00000000
_cell_angle_gamma   90.00000000
_symmetry_Int_Tables_number   1
_chemical_formula_structural   Lu4B16MoW3
_chemical_formula_sum   'Lu4 B16 Mo1 W3'
_cell_volume   246.21130715
_cell_formula_units_Z   1
loop_
 _symmetry_equiv_pos_site_id
 _symmetry_equiv_pos_as_xyz
  1  'x, y, z'
loop_
 _atom_site_type_symbol
 _atom_site_label
 _atom_site_symmetry_multiplicity
 _atom_site_fract_x
 _atom_site_fract_y
 _atom_site_fract_z
 _atom_site_occupancy
  Lu  Lu0  1  0.00000000  0.62863593  0.35132338  1
  Lu  Lu1  1  0.00000000  0.37189233  0.64880699  1
  Lu  Lu2  1  0.00000000  0.12841836  0.14873076  1
  Lu  Lu3  1  0.00000000  0.87138429  0.85097745  1
  B  B0  1  0.50000000  0.78948035  0.18674882  1
  B  B1  1  0.50000000  0.21033062  0.81299466  1
  B  B2  1  0.50000000  0.28950712  0.31328489  1
  B  B3  1  0.50000000  0.71127546  0.68643802  1
  B  B4  1  0.50000000  0.86786254  0.03163244  1
  B  B5  1  0.50000000  0.13204645  0.96822063  1
  B  B6  1  0.50000000  0.36832554  0.46869081  1
  B  B7  1  0.50000000  0.63239044  0.53199928  1
  B  B8  1  0.50000000  0.88474586  0.45190885  1
  B  B9  1  0.50000000  0.11472937  0.54859003  1
  B  B10  1  0.50000000  0.38500957  0.04824392  1
  B  B11  1  0.50000000  0.61497033  0.95162060  1
  B  B12  1  0.50000000  0.97747251  0.30537763  1
  B  B13  1  0.50000000  0.02158250  0.69455473  1
  B  B14  1  0.50000000  0.47778117  0.19461235  1
  B  B15  1  0.50000000  0.52253858  0.80521137  1
  Mo  Mo0  1  0.00000000  0.86890955  0.58414331  1
  W  W0  1  0.00000000  0.63145951  0.08470426  1
  W  W1  1  0.00000000  0.36839560  0.91531312  1
  W  W2  1  0.00000000  0.13085503  0.41587169  1
loop_
_geom_bond_atom_site_label_1
_geom_bond_atom_site_label_2
_geom_bond_distance
_geom_bond_site_symmetry_2
Lu0 Mo0 3.042500 1_555
Lu0 W2 3.064635 1_555
Lu0 W0 3.072392 1_555
Lu0 W2 3.090308 1_565
Lu1 W2 3.045825 1_555
Lu1 Mo0 3.060534 1_555
Lu1 W1 3.071115 1_555
Lu1 Mo0 3.095055 1_545
Lu2 W1 3.047827 1_554
Lu2 W0 3.058368 1_545
Lu2 W2 3.078392 1_555
Lu2 W0 3.093682 1_555
Lu3 W0 3.050824 1_556
Lu3 W1 3.059534 1_565
Lu3 Mo0 3.074858 1_555
Lu3 W1 3.094230 1_555
B0 B12 1.768959 1_555
B0 B4 1.847761 1_555
B0 B14 1.863817 1_555
B0 W0 2.339431 1_555
B0 W0 2.339431 1_655
B0 Lu2 2.736663 1_665
B0 Lu2 2.736663 1_565
B0 Lu0 2.778317 1_555
B0 Lu0 2.778317 1_655
B1 B13 1.770149 1_555
B1 B5 1.848834 1_555
B1 B15 1.866808 1_555
B1 W1 2.341125 1_655
B1 W1 2.341125 1_555
B1 Lu3 2.736635 1_645
B1 Lu3 2.736635 1_545
B1 Lu1 2.776761 1_655
B1 Lu1 2.776761 1_555
B2 B6 1.851619 1_555
B2 W2 2.344131 1_555
B2 W2 2.344131 1_655
B2 Lu0 2.737522 1_555
B2 Lu0 2.737522 1_655
B2 Lu2 2.778617 1_555
B2 Lu2 2.778617 1_655
B3 B7 1.840944 1_555
B3 Mo0 2.339983 1_555
B3 Mo0 2.339983 1_655
B3 Lu1 2.737899 1_555
B3 Lu1 2.737899 1_655
B3 Lu3 2.776480 1_555
B3 Lu3 2.776480 1_655
B4 B5 1.738840 1_564
B4 W0 2.359476 1_655
B4 W0 2.359476 1_555
B4 Lu2 2.727975 1_565
B4 Lu2 2.727975 1_665
B4 Lu3 2.744760 1_654
B4 Lu3 2.744760 1_554
B5 W1 2.358793 1_555
B5 W1 2.358793 1_655
B5 Lu3 2.729164 1_645
B5 Lu3 2.729164 1_545
B5 Lu2 2.743499 1_656
B5 Lu2 2.743499 1_556
B6 B7 1.737650 1_555
B6 B9 1.772508 1_555
B6 W2 2.362520 1_655
B6 W2 2.362520 1_555
B6 Lu0 2.728727 1_555
B6 Lu0 2.728727 1_655
B6 Lu1 2.740055 1_655
B6 Lu1 2.740055 1_555
B7 B8 1.767330 1_555
B7 Mo0 2.357118 1_555
B7 Mo0 2.357118 1_655
B7 Lu1 2.726175 1_655
B7 Lu1 2.726175 1_555
B7 Lu0 2.744952 1_555
B7 Lu0 2.744952 1_655
B8 B9 1.768554 1_565
B8 Mo0 2.351690 1_655
B8 Mo0 2.351690 1_555
B8 W2 2.352148 1_565
B8 W2 2.352148 1_665
B8 Lu0 2.623475 1_555
B8 Lu0 2.623475 1_655
B9 Mo0 2.350090 1_545
B9 Mo0 2.350090 1_645
B9 W2 2.355377 1_555
B9 W2 2.355377 1_655
B9 Lu1 2.625276 1_555
B9 Lu1 2.625276 1_655
B10 B11 1.768086 1_554
B10 B5 1.769970 1_554
B10 B14 1.775314 1_555
B10 W0 2.354269 1_655
B10 W0 2.354269 1_555
B10 W1 2.357084 1_654
B10 W1 2.357084 1_554
B10 Lu2 2.624695 1_555
B10 Lu2 2.624695 1_655
B11 B4 1.769540 1_556
B11 B15 1.775128 1_555
B11 W1 2.354421 1_655
B11 W1 2.354421 1_555
B11 W0 2.358198 1_656
B11 W0 2.358198 1_556
B11 Lu3 2.624873 1_555
B11 Lu3 2.624873 1_655
B12 B8 1.777048 1_555
B12 B2 1.865837 1_565
B12 W2 2.379050 1_665
B12 W2 2.379050 1_565
B12 Lu2 2.696441 1_565
B12 Lu2 2.696441 1_665
B12 Lu0 2.796528 1_555
B12 Lu0 2.796528 1_655
B13 B9 1.771632 1_555
B13 B3 1.855651 1_545
B13 Mo0 2.376911 1_545
B13 Mo0 2.376911 1_645
B13 Lu3 2.693222 1_645
B13 Lu3 2.693222 1_545
B13 Lu1 2.802659 1_655
B13 Lu1 2.802659 1_555
B14 B2 1.770475 1_555
B14 W0 2.376157 1_555
B14 W0 2.376157 1_655
B14 Lu0 2.696713 1_655
B14 Lu0 2.696713 1_555
B14 Lu2 2.798704 1_555
B14 Lu2 2.798704 1_655
B15 B3 1.773128 1_555
B15 W1 2.378421 1_655
B15 W1 2.378421 1_555
B15 Lu1 2.693932 1_655
B15 Lu1 2.693932 1_555
B15 Lu3 2.796151 1_655
B15 Lu3 2.796151 1_555
Mo0 W2 2.491517 1_565
