# generated using pymatgen
data_OsRuSe4
_symmetry_space_group_name_H-M   'P 1'
_cell_length_a   5.97878023
_cell_length_b   5.97879541
_cell_length_c   5.97804142
_cell_angle_alpha   90.00000000
_cell_angle_beta   90.00000000
_cell_angle_gamma   90.12510580
_symmetry_Int_Tables_number   1
_chemical_formula_structural   OsRuSe4
_chemical_formula_sum   'Os2 Ru2 Se8'
_cell_volume   213.68998398
_cell_formula_units_Z   2
loop_
 _symmetry_equiv_pos_site_id
 _symmetry_equiv_pos_as_xyz
  1  'x, y, z'
loop_
 _atom_site_type_symbol
 _atom_site_label
 _atom_site_symmetry_multiplicity
 _atom_site_fract_x
 _atom_site_fract_y
 _atom_site_fract_z
 _atom_site_occupancy
  Os  Os0  1  0.00000000  0.50000000  0.50000000  1
  Os  Os1  1  0.50000000  0.50000000  0.00000000  1
  Ru  Ru0  1  0.50000000  0.00000000  0.50000000  1
  Ru  Ru1  1  0.00000000  0.00000000  0.00000000  1
  Se  Se0  1  0.38054975  0.12104492  0.87953570  1
  Se  Se1  1  0.11945025  0.87895508  0.37953570  1
  Se  Se2  1  0.87820672  0.37972445  0.12106210  1
  Se  Se3  1  0.62179328  0.62027555  0.62106210  1
  Se  Se4  1  0.37820672  0.37972445  0.37893790  1
  Se  Se5  1  0.12179328  0.62027555  0.87893790  1
  Se  Se6  1  0.88054975  0.12104492  0.62046430  1
  Se  Se7  1  0.61945025  0.87895508  0.12046430  1
loop_
_geom_bond_atom_site_label_1
_geom_bond_atom_site_label_2
_geom_bond_distance
_geom_bond_site_symmetry_2
Os0 Se1 2.480916 1_555
Os0 Se6 2.480916 1_455
Os0 Se3 2.482149 1_455
Os0 Se4 2.482149 1_555
Os0 Se5 2.485292 1_555
Os0 Se2 2.485292 1_455
Os1 Se7 2.480916 1_555
Os1 Se0 2.480916 1_554
Os1 Se5 2.482149 1_554
Os1 Se2 2.482149 1_555
Os1 Se4 2.485292 1_555
Os1 Se3 2.485292 1_554
Ru0 Se0 2.486736 1_555
Ru0 Se7 2.486736 1_545
Ru0 Se6 2.492348 1_555
Ru0 Se1 2.492348 1_545
Ru0 Se4 2.493082 1_555
Ru0 Se3 2.493082 1_545
Ru1 Se1 2.486736 1_545
Ru1 Se6 2.486736 1_454
Ru1 Se0 2.492348 1_554
Ru1 Se7 2.492348 1_445
Ru1 Se2 2.493082 1_455
Ru1 Se5 2.493082 1_544
Se0 Se7 2.493704 1_546
Se1 Se6 2.493704 1_465
Se2 Se5 2.505054 1_654
Se3 Se4 2.505054 1_555
