# generated using pymatgen
data_Cs5K(ReH9)3
_symmetry_space_group_name_H-M   'P 1'
_cell_length_a   10.32194873
_cell_length_b   10.32194859
_cell_length_c   5.99649807
_cell_angle_alpha   90.00000000
_cell_angle_beta   90.00000000
_cell_angle_gamma   122.02528812
_symmetry_Int_Tables_number   1
_chemical_formula_structural   Cs5K(ReH9)3
_chemical_formula_sum   'Cs5 K1 Re3 H27'
_cell_volume   541.65372853
_cell_formula_units_Z   1
loop_
 _symmetry_equiv_pos_site_id
 _symmetry_equiv_pos_as_xyz
  1  'x, y, z'
loop_
 _atom_site_type_symbol
 _atom_site_label
 _atom_site_symmetry_multiplicity
 _atom_site_fract_x
 _atom_site_fract_y
 _atom_site_fract_z
 _atom_site_occupancy
  Cs  Cs0  1  0.25428328  0.99245257  0.50000000  1
  Cs  Cs1  1  0.99245257  0.25428328  0.50000000  1
  Cs  Cs2  1  0.59343830  0.00598339  0.00000000  1
  Cs  Cs3  1  0.00598339  0.59343830  0.00000000  1
  Cs  Cs4  1  0.41792526  0.41792526  0.00000000  1
  K  K0  1  0.73451489  0.73451489  0.50000000  1
  Re  Re0  1  0.97848830  0.97848830  0.00000000  1
  Re  Re1  1  0.35044005  0.67168517  0.50000000  1
  Re  Re2  1  0.67168517  0.35044005  0.50000000  1
  H  H0  1  0.86080098  0.97525175  0.20101974  1
  H  H1  1  0.97525175  0.86080098  0.20101974  1
  H  H2  1  0.86080098  0.97525175  0.79898026  1
  H  H3  1  0.97525175  0.86080098  0.79898026  1
  H  H4  1  0.10052131  0.10052131  0.19679838  1
  H  H5  1  0.10052131  0.10052131  0.80320162  1
  H  H6  1  0.14165850  0.97982658  0.00000000  1
  H  H7  1  0.97982658  0.14165850  0.00000000  1
  H  H8  1  0.81078653  0.81078653  0.00000000  1
  H  H9  1  0.24826519  0.54369175  0.29479056  1
  H  H10  1  0.48047622  0.70180776  0.29921018  1
  H  H11  1  0.24826519  0.54369175  0.70520944  1
  H  H12  1  0.54369175  0.24826519  0.70520944  1
  H  H13  1  0.32422145  0.77063583  0.29649902  1
  H  H14  1  0.48047622  0.70180776  0.70078982  1
  H  H15  1  0.70180776  0.48047622  0.70078982  1
  H  H16  1  0.54369175  0.24826519  0.29479056  1
  H  H17  1  0.32422145  0.77063583  0.70350098  1
  H  H18  1  0.70180776  0.48047622  0.29921018  1
  H  H19  1  0.77063583  0.32422145  0.70350098  1
  H  H20  1  0.77063583  0.32422145  0.29649902  1
  H  H21  1  0.38200597  0.52833890  0.50000000  1
  H  H22  1  0.49446520  0.85484908  0.50000000  1
  H  H23  1  0.52833890  0.38200597  0.50000000  1
  H  H24  1  0.16912385  0.62838773  0.50000000  1
  H  H25  1  0.85484908  0.49446520  0.50000000  1
  H  H26  1  0.62838773  0.16912385  0.50000000  1
loop_
_geom_bond_atom_site_label_1
_geom_bond_atom_site_label_2
_geom_bond_distance
_geom_bond_site_symmetry_2
Cs0 H5 2.991084 1_565
Cs0 H4 2.991084 1_565
Cs0 H17 3.000903 1_555
Cs0 H13 3.000903 1_555
Cs0 H12 3.007389 1_565
Cs0 H16 3.007389 1_565
Cs0 H3 3.034001 1_455
Cs0 H1 3.034001 1_455
Cs1 H5 2.991084 1_655
Cs1 H4 2.991084 1_655
Cs1 H19 3.000903 1_555
Cs1 H20 3.000903 1_555
Cs1 H11 3.007389 1_655
Cs1 H9 3.007389 1_655
Cs1 H2 3.034001 1_545
Cs1 H0 3.034001 1_545
Cs2 H13 3.102393 1_545
Cs2 H17 3.102393 1_544
Cs2 H0 3.177744 1_545
Cs2 H2 3.177744 1_544
Cs2 H10 3.248649 1_545
Cs2 H14 3.248649 1_544
Cs2 H22 3.282759 1_544
Cs2 H22 3.282759 1_545
Cs2 H20 3.305231 1_555
Cs2 H19 3.305231 1_554
Cs2 H16 3.317302 1_555
Cs2 H12 3.317302 1_554
Cs2 H26 3.363179 1_554
Cs2 H26 3.363179 1_555
Cs2 H7 3.455991 1_555
Cs3 H20 3.102393 1_455
Cs3 H19 3.102393 1_454
Cs3 H1 3.177744 1_455
Cs3 H3 3.177744 1_454
Cs3 H18 3.248649 1_455
Cs3 H15 3.248649 1_454
Cs3 H25 3.282760 1_455
Cs3 H25 3.282760 1_454
Cs3 H13 3.305231 1_555
Cs3 H17 3.305231 1_554
Cs3 H9 3.317302 1_555
Cs3 H11 3.317302 1_554
Cs3 H24 3.363179 1_555
Cs3 H24 3.363179 1_554
Cs3 H6 3.455991 1_555
Cs4 H10 3.196207 1_555
Cs4 H14 3.196207 1_554
Cs4 H18 3.196207 1_555
Cs4 H15 3.196207 1_554
Cs4 H16 3.207473 1_555
Cs4 H12 3.207473 1_554
Cs4 H9 3.207473 1_555
Cs4 H11 3.207473 1_554
Cs4 H21 3.297572 1_555
Cs4 H21 3.297572 1_554
Cs4 H23 3.297572 1_554
Cs4 H23 3.297572 1_555
Cs4 H4 3.387622 1_555
Cs4 H5 3.387622 1_554
H0 Re0 1.699043 1_555
H0 K0 2.766349 1_555
H1 Re0 1.699043 1_555
H1 K0 2.766349 1_555
H2 Re0 1.699043 1_556
H2 K0 2.766349 1_555
H3 Re0 1.699043 1_556
H3 K0 2.766349 1_555
H4 Re0 1.697983 1_445
H5 Re0 1.697983 1_446
H6 Re0 1.676950 1_455
H7 Re0 1.676950 1_545
H8 Re0 1.677751 1_555
H9 Re1 1.701223 1_555
H10 Re1 1.704504 1_555
H10 K0 2.738720 1_555
H11 Re1 1.701223 1_555
H12 Re2 1.701223 1_555
H13 Re1 1.702555 1_555
H14 Re1 1.704504 1_555
H14 K0 2.738720 1_555
H15 Re2 1.704504 1_555
H15 K0 2.738720 1_555
H16 Re2 1.701223 1_555
H17 Re1 1.702555 1_555
H18 Re2 1.704504 1_555
H18 K0 2.738720 1_555
H19 Re2 1.702555 1_555
H20 Re2 1.702555 1_555
H21 Re1 1.675325 1_555
H22 Re1 1.674376 1_555
H23 Re2 1.675325 1_555
H24 Re1 1.677882 1_555
H25 Re2 1.674376 1_555
H26 Re2 1.677882 1_555
