# generated using pymatgen
data_HfZrNb3Re
_symmetry_space_group_name_H-M   'P 1'
_cell_length_a   5.54676497
_cell_length_b   5.54676573
_cell_length_c   5.41819656
_cell_angle_alpha   59.21189525
_cell_angle_beta   59.21189666
_cell_angle_gamma   60.00000197
_symmetry_Int_Tables_number   1
_chemical_formula_structural   HfZrNb3Re
_chemical_formula_sum   'Hf1 Zr1 Nb3 Re1'
_cell_volume   116.45064858
_cell_formula_units_Z   1
loop_
 _symmetry_equiv_pos_site_id
 _symmetry_equiv_pos_as_xyz
  1  'x, y, z'
loop_
 _atom_site_type_symbol
 _atom_site_label
 _atom_site_symmetry_multiplicity
 _atom_site_fract_x
 _atom_site_fract_y
 _atom_site_fract_z
 _atom_site_occupancy
  Hf  Hf0  1  0.25049515  0.25049515  0.24851455  1
  Zr  Zr0  1  0.99940558  0.99940558  0.00178325  1
  Nb  Nb0  1  0.62499127  0.12516105  0.62485540  1
  Nb  Nb1  1  0.12516105  0.62499127  0.62485540  1
  Nb  Nb2  1  0.62499127  0.62499127  0.62485540  1
  Re  Re0  1  0.62495467  0.62495467  0.12513599  1
loop_
_geom_bond_atom_site_label_1
_geom_bond_atom_site_label_2
_geom_bond_distance
_geom_bond_site_symmetry_2
Hf0 Nb2 3.160950 1_554
Hf0 Nb1 3.160952 1_554
Hf0 Nb0 3.160952 1_554
Hf0 Nb0 3.224438 1_555
Hf0 Nb1 3.224439 1_555
Hf0 Nb2 3.224441 1_455
Hf0 Nb2 3.224441 1_545
Hf0 Nb0 3.224443 1_455
Hf0 Nb1 3.224443 1_545
Hf0 Re0 3.247507 1_455
Hf0 Re0 3.247507 1_555
Hf0 Re0 3.247507 1_545
Hf0 Zr0 3.292165 1_446
Hf0 Zr0 3.379105 1_545
Hf0 Zr0 3.379105 1_445
Hf0 Zr0 3.379106 1_455
Nb0 Re0 2.707789 1_555
Nb0 Re0 2.710408 1_546
Nb0 Nb1 2.772441 1_555
Nb0 Nb2 2.772441 1_555
Nb0 Nb1 2.774324 1_645
Nb0 Nb2 2.774325 1_545
Nb0 Zr0 3.159290 1_545
Nb0 Zr0 3.225748 1_446
Nb0 Zr0 3.225752 1_546
Nb1 Re0 2.707789 1_555
Nb1 Re0 2.710408 1_456
Nb1 Nb2 2.772441 1_555
Nb1 Nb2 2.774324 1_455
Nb1 Zr0 3.159290 1_455
Nb1 Zr0 3.225748 1_446
Nb1 Zr0 3.225753 1_456
Nb2 Re0 2.707786 1_555
Nb2 Re0 2.710411 1_556
Nb2 Zr0 3.159292 1_555
Nb2 Zr0 3.225750 1_456
Nb2 Zr0 3.225750 1_546
Re0 Zr0 3.247488 1_455
Re0 Zr0 3.247488 1_555
Re0 Zr0 3.247488 1_545
