# generated using pymatgen
data_Hf4NbNi
_symmetry_space_group_name_H-M   'P 1'
_cell_length_a   8.73231182
_cell_length_b   8.73231146
_cell_length_c   8.73231165
_cell_angle_alpha   59.99999555
_cell_angle_beta   59.99999694
_cell_angle_gamma   59.99999873
_symmetry_Int_Tables_number   1
_chemical_formula_structural   Hf4NbNi
_chemical_formula_sum   'Hf16 Nb4 Ni4'
_cell_volume   470.83924332
_cell_formula_units_Z   4
loop_
 _symmetry_equiv_pos_site_id
 _symmetry_equiv_pos_as_xyz
  1  'x, y, z'
loop_
 _atom_site_type_symbol
 _atom_site_label
 _atom_site_symmetry_multiplicity
 _atom_site_fract_x
 _atom_site_fract_y
 _atom_site_fract_z
 _atom_site_occupancy
  Hf  Hf0  1  0.69730947  0.10089684  0.10089684  1
  Hf  Hf1  1  0.10089684  0.69730947  0.10089684  1
  Hf  Hf2  1  0.10089684  0.10089684  0.69730947  1
  Hf  Hf3  1  0.10089684  0.10089684  0.10089684  1
  Hf  Hf4  1  0.31392870  0.31392870  0.68607130  1
  Hf  Hf5  1  0.68607130  0.68607130  0.31392870  1
  Hf  Hf6  1  0.31392870  0.68607130  0.31392870  1
  Hf  Hf7  1  0.68607130  0.31392870  0.68607130  1
  Hf  Hf8  1  0.68607130  0.31392870  0.31392870  1
  Hf  Hf9  1  0.31392870  0.68607130  0.68607130  1
  Hf  Hf10  1  0.94684470  0.94684470  0.55315530  1
  Hf  Hf11  1  0.55315530  0.55315530  0.94684470  1
  Hf  Hf12  1  0.94684470  0.55315530  0.94684470  1
  Hf  Hf13  1  0.55315530  0.94684470  0.55315530  1
  Hf  Hf14  1  0.55315530  0.94684470  0.94684470  1
  Hf  Hf15  1  0.94684470  0.55315530  0.55315530  1
  Nb  Nb0  1  0.99567255  0.33477582  0.33477582  1
  Nb  Nb1  1  0.33477582  0.99567255  0.33477582  1
  Nb  Nb2  1  0.33477582  0.33477582  0.99567255  1
  Nb  Nb3  1  0.33477582  0.33477582  0.33477582  1
  Ni  Ni0  1  0.32256028  0.89248024  0.89248024  1
  Ni  Ni1  1  0.89248024  0.32256028  0.89248024  1
  Ni  Ni2  1  0.89248024  0.89248024  0.32256028  1
  Ni  Ni3  1  0.89248024  0.89248024  0.89248024  1
loop_
_geom_bond_atom_site_label_1
_geom_bond_atom_site_label_2
_geom_bond_distance
_geom_bond_site_symmetry_2
Hf0 Ni3 2.576408 1_544
Hf0 Ni1 2.576414 1_554
Hf0 Ni2 2.576414 1_545
Hf0 Nb1 3.099058 1_545
Hf0 Nb3 3.099058 1_555
Hf0 Nb2 3.099058 1_554
Hf0 Hf5 3.166421 1_545
Hf0 Hf7 3.166421 1_554
Hf0 Hf8 3.166421 1_555
Hf1 Ni3 2.576408 1_454
Hf1 Ni0 2.576414 1_554
Hf1 Ni2 2.576414 1_455
Hf1 Nb0 3.099057 1_455
Hf1 Nb3 3.099058 1_555
Hf1 Nb2 3.099058 1_554
Hf1 Hf9 3.166421 1_554
Hf1 Hf5 3.166421 1_455
Hf1 Hf6 3.166421 1_555
Hf2 Ni3 2.576408 1_445
Hf2 Ni1 2.576414 1_455
Hf2 Ni0 2.576414 1_545
Hf2 Nb3 3.099057 1_555
Hf2 Nb0 3.099058 1_455
Hf2 Nb1 3.099058 1_545
Hf2 Hf9 3.166421 1_545
Hf2 Hf4 3.166421 1_555
Hf2 Hf7 3.166421 1_455
Hf3 Ni2 2.576408 1_445
Hf3 Ni1 2.576408 1_454
Hf3 Ni0 2.576408 1_544
Hf3 Nb2 3.099058 1_554
Hf3 Nb0 3.099058 1_455
Hf3 Nb1 3.099058 1_545
Hf3 Hf4 3.166421 1_554
Hf3 Hf6 3.166421 1_545
Hf3 Hf8 3.166421 1_455
Hf4 Nb3 2.897040 1_555
Hf4 Nb2 2.897040 1_555
Hf4 Ni0 3.166003 1_545
Hf4 Ni1 3.166003 1_455
Hf4 Hf6 3.249665 1_555
Hf4 Hf8 3.249665 1_555
Hf4 Hf9 3.249665 1_555
Hf4 Hf7 3.249665 1_555
Hf5 Nb0 2.897040 1_555
Hf5 Nb1 2.897040 1_555
Hf5 Ni3 3.166005 1_554
Hf5 Ni2 3.166011 1_555
Hf5 Hf7 3.249665 1_555
Hf5 Hf9 3.249665 1_555
Hf5 Hf8 3.249665 1_555
Hf5 Hf6 3.249665 1_555
Hf6 Nb3 2.897040 1_555
Hf6 Nb1 2.897040 1_555
Hf6 Ni0 3.166003 1_554
Hf6 Ni2 3.166003 1_455
Hf6 Hf8 3.249665 1_555
Hf6 Hf9 3.249665 1_555
Hf7 Nb0 2.897040 1_555
Hf7 Nb2 2.897040 1_555
Hf7 Ni3 3.166005 1_545
Hf7 Ni1 3.166011 1_555
Hf7 Hf9 3.249665 1_555
Hf7 Hf8 3.249665 1_555
Hf8 Nb3 2.897040 1_555
Hf8 Nb0 2.897040 1_555
Hf8 Ni2 3.166003 1_545
Hf8 Ni1 3.166003 1_554
Hf9 Nb2 2.897040 1_555
Hf9 Nb1 2.897040 1_555
Hf9 Ni3 3.166005 1_455
Hf9 Ni0 3.166011 1_555
Hf10 Ni2 2.577333 1_555
Hf10 Ni3 2.577341 1_555
Hf10 Nb0 3.076538 1_565
Hf10 Nb1 3.076538 1_655
Hf10 Hf8 3.253589 1_565
Hf10 Hf7 3.253589 1_565
Hf10 Hf6 3.253589 1_655
Hf10 Hf9 3.253589 1_655
Hf11 Ni0 2.577338 1_555
Hf11 Ni1 2.577338 1_555
Hf11 Nb3 3.076538 1_556
Hf11 Nb2 3.076538 1_555
Hf11 Hf8 3.253589 1_556
Hf11 Hf6 3.253589 1_556
Hf11 Hf7 3.253589 1_555
Hf11 Hf9 3.253589 1_555
Hf12 Ni1 2.577332 1_555
Hf12 Ni3 2.577341 1_555
Hf12 Nb0 3.076538 1_556
Hf12 Nb2 3.076538 1_655
Hf12 Hf8 3.253588 1_556
Hf12 Hf9 3.253589 1_655
Hf12 Hf5 3.253589 1_556
Hf12 Hf4 3.253589 1_655
Hf13 Ni0 2.577338 1_555
Hf13 Ni2 2.577338 1_555
Hf13 Nb3 3.076538 1_565
Hf13 Nb1 3.076538 1_555
Hf13 Hf8 3.253588 1_565
Hf13 Hf9 3.253589 1_555
Hf13 Hf4 3.253589 1_565
Hf13 Hf5 3.253589 1_555
Hf14 Ni0 2.577333 1_555
Hf14 Ni3 2.577341 1_555
Hf14 Nb2 3.076538 1_565
Hf14 Nb1 3.076538 1_556
Hf14 Hf6 3.253588 1_556
Hf14 Hf7 3.253588 1_565
Hf14 Hf4 3.253589 1_565
Hf14 Hf5 3.253589 1_556
Hf15 Ni2 2.577338 1_555
Hf15 Ni1 2.577338 1_555
Hf15 Nb3 3.076538 1_655
Hf15 Nb0 3.076538 1_555
Hf15 Hf6 3.253589 1_655
Hf15 Hf7 3.253589 1_555
Hf15 Hf4 3.253589 1_655
Hf15 Hf5 3.253589 1_555
Nb0 Nb2 2.961155 1_654
Nb0 Nb1 2.961155 1_645
Nb0 Nb3 2.961155 1_655
Nb1 Nb2 2.961155 1_564
Nb1 Nb3 2.961155 1_565
Nb2 Nb3 2.961155 1_556
