# generated using pymatgen
data_Ca2Al9Ir2Pd
_symmetry_space_group_name_H-M   'P 1'
_cell_length_a   7.52586504
_cell_length_b   7.52587292
_cell_length_c   9.55655715
_cell_angle_alpha   90.00000000
_cell_angle_beta   90.00000000
_cell_angle_gamma   118.93154926
_symmetry_Int_Tables_number   1
_chemical_formula_structural   Ca2Al9Ir2Pd
_chemical_formula_sum   'Ca4 Al18 Ir4 Pd2'
_cell_volume   473.71945826
_cell_formula_units_Z   2
loop_
 _symmetry_equiv_pos_site_id
 _symmetry_equiv_pos_as_xyz
  1  'x, y, z'
loop_
 _atom_site_type_symbol
 _atom_site_label
 _atom_site_symmetry_multiplicity
 _atom_site_fract_x
 _atom_site_fract_y
 _atom_site_fract_z
 _atom_site_occupancy
  Ca  Ca0  1  0.99606132  0.67480023  0.25000000  1
  Ca  Ca1  1  0.00393868  0.32519977  0.75000000  1
  Ca  Ca2  1  0.67480423  0.99606032  0.25000000  1
  Ca  Ca3  1  0.32519577  0.00393968  0.75000000  1
  Al  Al0  1  0.13748041  0.13748041  0.25000000  1
  Al  Al1  1  0.86251959  0.86251959  0.75000000  1
  Al  Al2  1  0.00313125  0.34086547  0.07304210  1
  Al  Al3  1  0.99686875  0.65913453  0.92695790  1
  Al  Al4  1  0.99686875  0.65913453  0.57304210  1
  Al  Al5  1  0.34086547  0.00313125  0.42695690  1
  Al  Al6  1  0.00313125  0.34086547  0.42695790  1
  Al  Al7  1  0.65913453  0.99686875  0.57304310  1
  Al  Al8  1  0.65913453  0.99686875  0.92695690  1
  Al  Al9  1  0.34086547  0.00313125  0.07304310  1
  Al  Al10  1  0.33728247  0.33728247  0.54486432  1
  Al  Al11  1  0.66271753  0.66271753  0.45513568  1
  Al  Al12  1  0.66271753  0.66271753  0.04486432  1
  Al  Al13  1  0.33728247  0.33728247  0.95513568  1
  Al  Al14  1  0.33777508  0.54876551  0.25000000  1
  Al  Al15  1  0.66222492  0.45123449  0.75000000  1
  Al  Al16  1  0.54876551  0.33777508  0.25000000  1
  Al  Al17  1  0.45123449  0.66222492  0.75000000  1
  Ir  Ir0  1  0.67153541  0.32846659  0.00000000  1
  Ir  Ir1  1  0.32846459  0.67153341  0.00000000  1
  Ir  Ir2  1  0.32846459  0.67153341  0.50000000  1
  Ir  Ir3  1  0.67153541  0.32846659  0.50000000  1
  Pd  Pd0  1  0.00000000  0.00000000  0.00000000  1
  Pd  Pd1  1  0.00000000  0.00000000  0.50000000  1
loop_
_geom_bond_atom_site_label_1
_geom_bond_atom_site_label_2
_geom_bond_distance
_geom_bond_site_symmetry_2
Al0 Pd0 2.610224 1_555
Al0 Pd1 2.610224 1_555
Al0 Al16 2.708999 1_555
Al0 Al14 2.709002 1_555
Al0 Al5 2.778919 1_555
Al0 Al9 2.778919 1_555
Al0 Al6 2.778925 1_555
Al0 Al2 2.778925 1_555
Al0 Ca2 3.109938 1_445
Al0 Ca0 3.109972 1_445
Al1 Pd0 2.610224 1_666
Al1 Pd1 2.610224 1_665
Al1 Al17 2.708999 1_555
Al1 Al15 2.709002 1_555
Al1 Al8 2.778919 1_555
Al1 Al7 2.778919 1_555
Al1 Al3 2.778925 1_555
Al1 Al4 2.778925 1_555
Al1 Ca3 3.109938 1_665
Al1 Ca1 3.109972 1_665
Al2 Ir0 2.549196 1_455
Al2 Ir1 2.603795 1_555
Al2 Pd0 2.647665 1_555
Al2 Ca0 3.050898 1_455
Al2 Ca2 3.081466 1_445
Al2 Ca1 3.089539 1_554
Al3 Ir1 2.549196 1_656
Al3 Ir0 2.603795 1_556
Al3 Pd0 2.647665 1_666
Al3 Ca1 3.050898 1_655
Al3 Ca3 3.081466 1_665
Al3 Ca0 3.089539 1_556
Al4 Ir2 2.549196 1_655
Al4 Ir3 2.603795 1_555
Al4 Pd1 2.647665 1_665
Al4 Ca1 3.050898 1_655
Al4 Ca3 3.081466 1_665
Al4 Ca0 3.089539 1_555
Al5 Ir2 2.549209 1_545
Al5 Ir3 2.603812 1_555
Al5 Pd1 2.647665 1_555
Al5 Ca2 3.050919 1_545
Al5 Ca0 3.081469 1_445
Al5 Ca3 3.089550 1_555
Al6 Ir3 2.549196 1_455
Al6 Ir2 2.603795 1_555
Al6 Pd1 2.647665 1_555
Al6 Ca0 3.050898 1_455
Al6 Ca2 3.081466 1_445
Al6 Ca1 3.089539 1_555
Al7 Ir3 2.549209 1_565
Al7 Ir2 2.603812 1_555
Al7 Pd1 2.647665 1_665
Al7 Ca3 3.050919 1_565
Al7 Ca1 3.081469 1_665
Al7 Ca2 3.089550 1_555
Al8 Ir0 2.549209 1_566
Al8 Ir1 2.603812 1_556
Al8 Pd0 2.647665 1_666
Al8 Ca3 3.050919 1_565
Al8 Ca1 3.081469 1_665
Al8 Ca2 3.089550 1_556
Al9 Ir1 2.549209 1_545
Al9 Ir0 2.603812 1_555
Al9 Pd0 2.647665 1_555
Al9 Ca2 3.050919 1_545
Al9 Ca0 3.081469 1_445
Al9 Ca3 3.089550 1_554
Al10 Ir2 2.584112 1_555
Al10 Ir3 2.584117 1_555
Al10 Pd1 2.614619 1_555
Al10 Ca3 3.150265 1_555
Al10 Ca1 3.150280 1_555
Al11 Ir3 2.584112 1_555
Al11 Ir2 2.584117 1_555
Al11 Pd1 2.614619 1_665
Al11 Ca2 3.150265 1_555
Al11 Ca0 3.150280 1_555
Al12 Ir0 2.584112 1_555
Al12 Ir1 2.584117 1_555
Al12 Pd0 2.614619 1_665
Al12 Ca2 3.150265 1_555
Al12 Ca0 3.150280 1_555
Al13 Ir1 2.584112 1_556
Al13 Ir0 2.584117 1_556
Al13 Pd0 2.614619 1_556
Al13 Ca3 3.150265 1_555
Al13 Ca1 3.150280 1_555
Al14 Ir1 2.574722 1_555
Al14 Ir2 2.574722 1_555
Al14 Ca2 3.082898 1_555
Al14 Ca0 3.142195 1_455
Al15 Ir3 2.574722 1_555
Al15 Ir0 2.574722 1_556
Al15 Ca3 3.082898 1_555
Al15 Ca1 3.142195 1_655
Al16 Ir0 2.574724 1_555
Al16 Ir3 2.574724 1_555
Al16 Ca0 3.082893 1_555
Al16 Ca2 3.142225 1_545
Al17 Ir2 2.574724 1_555
Al17 Ir1 2.574724 1_556
Al17 Ca1 3.082893 1_555
Al17 Ca3 3.142225 1_565
