# generated using pymatgen
data_LuHfAgS4
_symmetry_space_group_name_H-M   'P 1'
_cell_length_a   7.66422374
_cell_length_b   7.66422526
_cell_length_c   7.66422409
_cell_angle_alpha   119.18086268
_cell_angle_beta   121.08638737
_cell_angle_gamma   89.77666415
_symmetry_Int_Tables_number   1
_chemical_formula_structural   LuHfAgS4
_chemical_formula_sum   'Lu2 Hf2 Ag2 S8'
_cell_volume   317.58291553
_cell_formula_units_Z   2
loop_
 _symmetry_equiv_pos_site_id
 _symmetry_equiv_pos_as_xyz
  1  'x, y, z'
loop_
 _atom_site_type_symbol
 _atom_site_label
 _atom_site_symmetry_multiplicity
 _atom_site_fract_x
 _atom_site_fract_y
 _atom_site_fract_z
 _atom_site_occupancy
  Lu  Lu0  1  0.00000000  0.00000000  0.50000000  1
  Lu  Lu1  1  0.00000000  0.50000000  0.00000000  1
  Hf  Hf0  1  0.00000000  0.00000000  0.00000000  1
  Hf  Hf1  1  0.50000000  0.00000000  0.50000000  1
  Ag  Ag0  1  0.37333136  0.62333136  0.75000000  1
  Ag  Ag1  1  0.62666864  0.37666864  0.25000000  1
  S  S0  1  0.24670965  0.77195894  0.02524829  1
  S  S1  1  0.75329035  0.77853864  0.52524829  1
  S  S2  1  0.22120909  0.23276712  0.98844097  1
  S  S3  1  0.74432615  0.23276712  0.51155903  1
  S  S4  1  0.77879091  0.76723288  0.01155903  1
  S  S5  1  0.25567385  0.76723288  0.48844097  1
  S  S6  1  0.75329035  0.22804106  0.97475171  1
  S  S7  1  0.24670965  0.22146136  0.47475171  1
loop_
_geom_bond_atom_site_label_1
_geom_bond_atom_site_label_2
_geom_bond_distance
_geom_bond_site_symmetry_2
Lu0 S2 2.651062 1_555
Lu0 S4 2.651062 1_445
Lu0 S5 2.651063 1_545
Lu0 S3 2.651063 1_455
Lu0 S7 2.686408 1_555
Lu0 S1 2.686408 1_445
Lu1 S5 2.651063 1_555
Lu1 S3 2.651063 1_454
Lu1 S4 2.651068 1_455
Lu1 S2 2.651068 1_554
Lu1 S0 2.686414 1_555
Lu1 S6 2.686414 1_454
Hf0 S2 2.529347 1_554
Hf0 S4 2.529347 1_445
Hf0 S6 2.567793 1_454
Hf0 S0 2.567793 1_545
Hf0 S1 2.567799 1_444
Hf0 S7 2.567799 1_555
Hf1 S3 2.529341 1_555
Hf1 S5 2.529341 1_545
Hf1 S6 2.567799 1_555
Hf1 S0 2.567799 1_545
Hf1 S7 2.567799 1_555
Hf1 S1 2.567799 1_545
Ag0 S4 2.515862 1_556
Ag0 S5 2.515869 1_555
Ag0 S0 2.540046 1_556
Ag0 S7 2.540046 1_555
Ag1 S2 2.515862 1_554
Ag1 S3 2.515869 1_555
Ag1 S6 2.540046 1_554
Ag1 S1 2.540046 1_555
