# generated using pymatgen
data_Fe2Te4O11
_symmetry_space_group_name_H-M   'P 1'
_cell_length_a   7.05523000
_cell_length_b   11.96160000
_cell_length_c   14.37432062
_cell_angle_alpha   57.12663201
_cell_angle_beta   90.00000000
_cell_angle_gamma   90.00000000
_symmetry_Int_Tables_number   1
_chemical_formula_structural   Fe2Te4O11
_chemical_formula_sum   'Fe8 Te16 O44'
_cell_volume   1018.82832680
_cell_formula_units_Z   4
loop_
 _symmetry_equiv_pos_site_id
 _symmetry_equiv_pos_as_xyz
  1  'x, y, z'
loop_
 _atom_site_type_symbol
 _atom_site_label
 _atom_site_symmetry_multiplicity
 _atom_site_fract_x
 _atom_site_fract_y
 _atom_site_fract_z
 _atom_site_occupancy
  Fe  Fe0  1  0.75221500  0.88567000  0.37074800  1
  Fe  Fe1  1  0.25221500  0.11433000  0.12925200  1
  Fe  Fe2  1  0.24778500  0.11433000  0.62925200  1
  Fe  Fe3  1  0.74778500  0.88567000  0.87074800  1
  Fe  Fe4  1  0.45417100  0.71397900  0.59751300  1
  Fe  Fe5  1  0.95417100  0.28602100  0.90248700  1
  Fe  Fe6  1  0.54582900  0.28602100  0.40248700  1
  Fe  Fe7  1  0.04582900  0.71397900  0.09751300  1
  Te  Te0  1  0.79671500  0.62642000  0.36194400  1
  Te  Te1  1  0.20374800  0.77343600  0.83575600  1
  Te  Te2  1  0.29625200  0.77343600  0.33575600  1
  Te  Te3  1  0.79625200  0.22656400  0.16424400  1
  Te  Te4  1  0.70374800  0.22656400  0.66424400  1
  Te  Te5  1  0.29671500  0.37358000  0.13805600  1
  Te  Te6  1  0.20328500  0.37358000  0.63805600  1
  Te  Te7  1  0.70328500  0.62642000  0.86194400  1
  Te  Te8  1  0.89409300  0.59967300  0.64749000  1
  Te  Te9  1  0.39409300  0.40032700  0.85251000  1
  Te  Te10  1  0.10590700  0.40032700  0.35251000  1
  Te  Te11  1  0.60590700  0.59967300  0.14749000  1
  Te  Te12  1  0.74404000  0.00025300  0.02039100  1
  Te  Te13  1  0.24404000  0.99974700  0.47960900  1
  Te  Te14  1  0.25596000  0.99974700  0.97960900  1
  Te  Te15  1  0.75596000  0.00025300  0.52039100  1
  O  O0  1  0.95659700  0.46870600  0.60873200  1
  O  O1  1  0.45659700  0.53129400  0.89126800  1
  O  O2  1  0.04340300  0.53129400  0.39126800  1
  O  O3  1  0.54340300  0.46870600  0.10873200  1
  O  O4  1  0.71274500  0.27905000  0.51476800  1
  O  O5  1  0.21274500  0.72095000  0.98523200  1
  O  O6  1  0.28725500  0.72095000  0.48523200  1
  O  O7  1  0.78725500  0.27905000  0.01476800  1
  O  O8  1  0.77639000  0.16729200  0.88427100  1
  O  O9  1  0.27639000  0.83270800  0.61572900  1
  O  O10  1  0.22361000  0.83270800  0.11572900  1
  O  O11  1  0.72361000  0.16729200  0.38427100  1
  O  O12  1  0.82076300  0.45700300  0.79272100  1
  O  O13  1  0.32076300  0.54299700  0.70727900  1
  O  O14  1  0.17923700  0.54299700  0.20727900  1
  O  O15  1  0.67923700  0.45700300  0.29272100  1
  O  O16  1  0.74256500  0.04287900  0.72655300  1
  O  O17  1  0.17965900  0.29094100  0.79672100  1
  O  O18  1  0.32034100  0.29094100  0.29672100  1
  O  O19  1  0.82034100  0.70905900  0.20327900  1
  O  O20  1  0.67014700  0.63196100  0.56292700  1
  O  O21  1  0.17014700  0.36803900  0.93707300  1
  O  O22  1  0.32985300  0.36803900  0.43707300  1
  O  O23  1  0.82985300  0.63196100  0.06292700  1
  O  O24  1  0.57477000  0.90709400  0.47224000  1
  O  O25  1  0.07477000  0.09290600  0.02776000  1
  O  O26  1  0.42523000  0.09290600  0.52776000  1
  O  O27  1  0.92523000  0.90709400  0.97224000  1
  O  O28  1  0.93315300  0.93085700  0.45864500  1
  O  O29  1  0.43315300  0.06914300  0.04135500  1
  O  O30  1  0.06684700  0.06914300  0.54135500  1
  O  O31  1  0.56684700  0.93085700  0.95864500  1
  O  O32  1  0.93520100  0.75999000  0.36873900  1
  O  O33  1  0.43520100  0.24001000  0.13126100  1
  O  O34  1  0.06479900  0.24001000  0.63126100  1
  O  O35  1  0.56479900  0.75999000  0.86873900  1
  O  O36  1  0.57473700  0.79105500  0.32438000  1
  O  O37  1  0.07473700  0.20894500  0.17562000  1
  O  O38  1  0.42526300  0.20894500  0.67562000  1
  O  O39  1  0.92526300  0.79105500  0.82438000  1
  O  O40  1  0.75743500  0.04287900  0.22655300  1
  O  O41  1  0.25743500  0.95712100  0.27344700  1
  O  O42  1  0.24256500  0.95712100  0.77344700  1
  O  O43  1  0.67965900  0.70905900  0.70327900  1
loop_
_geom_bond_atom_site_label_1
_geom_bond_atom_site_label_2
_geom_bond_distance
_geom_bond_site_symmetry_2
Fe0 O40 1.898014 1_565
Fe0 O32 1.993659 1_555
Fe0 O36 2.027763 1_555
Fe0 O24 2.041358 1_555
Fe0 O28 2.063839 1_555
Fe1 O41 1.898014 1_545
Fe1 O33 1.993659 1_555
Fe1 O37 2.027763 1_555
Fe1 O25 2.041358 1_555
Fe1 O29 2.063839 1_555
Fe2 O42 1.898014 1_545
Fe2 O34 1.993659 1_555
Fe2 O38 2.027763 1_555
Fe2 O26 2.041358 1_555
Fe2 O30 2.063839 1_555
Fe3 O16 1.898014 1_565
Fe3 O35 1.993659 1_555
Fe3 O39 2.027763 1_555
Fe3 O27 2.041358 1_555
Fe3 O31 2.063839 1_555
Fe4 O6 1.962791 1_555
Fe4 O13 2.013756 1_555
Fe4 O20 2.015184 1_555
Fe4 O9 2.015544 1_555
Fe4 O43 2.179119 1_555
Fe4 O24 2.187909 1_555
Fe5 O7 1.962791 1_556
Fe5 O12 2.013756 1_555
Fe5 O21 2.015184 1_655
Fe5 O8 2.015544 1_555
Fe5 O17 2.179119 1_655
Fe5 O25 2.187909 1_656
Fe6 O4 1.962791 1_555
Fe6 O15 2.013756 1_555
Fe6 O22 2.015184 1_555
Fe6 O11 2.015544 1_555
Fe6 O18 2.179119 1_555
Fe6 O26 2.187909 1_555
Fe7 O5 1.962791 1_554
Fe7 O14 2.013756 1_555
Fe7 O23 2.015184 1_455
Fe7 O10 2.015544 1_555
Fe7 O19 2.179119 1_455
Fe7 O27 2.187909 1_454
O0 Te8 1.976475 1_555
O0 Te6 1.995211 1_655
O1 Te9 1.976475 1_555
O1 Te7 1.995211 1_555
O2 Te10 1.976475 1_555
O2 Te0 1.995211 1_455
O3 Te11 1.976475 1_555
O3 Te5 1.995211 1_555
O4 Te4 1.884243 1_555
O5 Te1 1.884243 1_555
O6 Te2 1.884243 1_555
O7 Te3 1.884243 1_555
O8 Te12 1.904925 1_556
O9 Te13 1.904925 1_555
O10 Te14 1.904925 1_554
O11 Te15 1.904925 1_555
O12 Te8 1.915885 1_555
O13 Te9 1.915885 1_555
O14 Te10 1.915885 1_555
O15 Te11 1.915885 1_555
O16 Te4 1.889034 1_555
O17 Te6 1.938849 1_555
O17 Te9 2.404776 1_555
O18 Te5 1.938849 1_555
O18 Te10 2.404776 1_555
O19 Te0 1.938849 1_555
O19 Te11 2.404776 1_555
O20 Te8 1.900902 1_555
O21 Te9 1.900902 1_555
O22 Te10 1.900902 1_555
O23 Te11 1.900902 1_555
O24 Te15 2.047486 1_565
O24 Te13 2.609901 1_555
O25 Te14 2.047486 1_544
O25 Te12 2.609901 1_455
O26 Te13 2.047486 1_545
O26 Te15 2.609901 1_555
O27 Te12 2.047486 1_566
O27 Te14 2.609901 1_655
O28 Te15 1.959448 1_565
O28 Te13 2.418743 1_655
O29 Te14 1.959448 1_544
O29 Te12 2.418743 1_555
O30 Te13 1.959448 1_545
O30 Te15 2.418743 1_455
O31 Te12 1.959448 1_566
O31 Te14 2.418743 1_555
O32 Te0 1.919962 1_555
O32 Te2 2.580038 1_655
O33 Te5 1.919962 1_555
O33 Te3 2.580038 1_555
O34 Te6 1.919962 1_555
O34 Te4 2.580038 1_455
O35 Te7 1.919962 1_555
O35 Te1 2.580038 1_555
O36 Te2 1.973344 1_555
O36 Te0 2.338387 1_555
O37 Te3 1.973344 1_455
O37 Te5 2.338387 1_555
O38 Te4 1.973344 1_555
O38 Te6 2.338387 1_555
O39 Te1 1.973344 1_655
O39 Te7 2.338387 1_555
O40 Te3 1.889034 1_555
O41 Te2 1.889034 1_555
O42 Te1 1.889034 1_555
O43 Te7 1.938849 1_555
O43 Te8 2.404776 1_555
