# generated using pymatgen
data_Ca5Si2Sb
_symmetry_space_group_name_H-M   'P 1'
_cell_length_a   9.21300494
_cell_length_b   9.21300381
_cell_length_c   9.21300456
_cell_angle_alpha   130.02510550
_cell_angle_beta   130.02511228
_cell_angle_gamma   73.36663281
_symmetry_Int_Tables_number   1
_chemical_formula_structural   Ca5Si2Sb
_chemical_formula_sum   'Ca10 Si4 Sb2'
_cell_volume   447.60937907
_cell_formula_units_Z   2
loop_
 _symmetry_equiv_pos_site_id
 _symmetry_equiv_pos_as_xyz
  1  'x, y, z'
loop_
 _atom_site_type_symbol
 _atom_site_label
 _atom_site_symmetry_multiplicity
 _atom_site_fract_x
 _atom_site_fract_y
 _atom_site_fract_z
 _atom_site_occupancy
  Ca  Ca0  1  0.81022482  0.31022482  0.84151522  1
  Ca  Ca1  1  0.18977518  0.68977518  0.15848478  1
  Ca  Ca2  1  0.46870960  0.96870960  0.15848478  1
  Ca  Ca3  1  0.31022482  0.46870960  0.50000000  1
  Ca  Ca4  1  0.03129040  0.18977518  0.50000000  1
  Ca  Ca5  1  0.53129040  0.03129040  0.84151522  1
  Ca  Ca6  1  0.68977518  0.53129040  0.50000000  1
  Ca  Ca7  1  0.96870960  0.81022482  0.50000000  1
  Ca  Ca8  1  0.00000000  0.00000000  0.00000000  1
  Ca  Ca9  1  0.50000000  0.50000000  0.00000000  1
  Si  Si0  1  0.11377639  0.61377639  0.72755279  1
  Si  Si1  1  0.88622361  0.38622361  0.27244721  1
  Si  Si2  1  0.61377639  0.88622361  0.50000000  1
  Si  Si3  1  0.38622361  0.11377639  0.50000000  1
  Sb  Sb0  1  0.25000000  0.25000000  0.00000000  1
  Sb  Sb1  1  0.75000000  0.75000000  0.00000000  1
loop_
_geom_bond_atom_site_label_1
_geom_bond_atom_site_label_2
_geom_bond_distance
_geom_bond_site_symmetry_2
Ca0 Si2 3.057558 1_545
Ca0 Si3 3.057558 1_555
Ca0 Si1 3.142036 1_556
Ca0 Sb1 3.316841 1_556
Ca0 Sb0 3.316841 1_656
Ca1 Si3 3.057558 1_565
Ca1 Si2 3.057558 1_555
Ca1 Si0 3.142036 1_554
Ca1 Sb0 3.316841 1_555
Ca1 Sb1 3.316841 1_455
Ca2 Si2 3.057558 1_555
Ca2 Si3 3.057559 1_565
Ca2 Si0 3.142035 1_554
Ca2 Sb0 3.316841 1_565
Ca2 Sb1 3.316841 1_555
Ca3 Si1 3.057558 1_455
Ca3 Si0 3.057559 1_555
Ca3 Si3 3.142035 1_555
Ca3 Sb1 3.316840 1_556
Ca3 Sb0 3.316841 1_555
Ca4 Si0 3.057558 1_555
Ca4 Si1 3.057558 1_455
Ca4 Si3 3.142036 1_555
Ca4 Sb1 3.316840 1_445
Ca4 Sb0 3.316841 1_556
Ca5 Si3 3.057558 1_555
Ca5 Si2 3.057559 1_545
Ca5 Si1 3.142035 1_556
Ca5 Sb1 3.316841 1_546
Ca5 Sb0 3.316841 1_556
Ca6 Si0 3.057558 1_655
Ca6 Si1 3.057559 1_555
Ca6 Si2 3.142035 1_555
Ca6 Sb0 3.316840 1_555
Ca6 Sb1 3.316841 1_556
Ca7 Si1 3.057558 1_555
Ca7 Si0 3.057558 1_655
Ca7 Si2 3.142036 1_555
Ca7 Sb0 3.316840 1_666
Ca7 Sb1 3.316841 1_555
Ca8 Si3 3.133901 1_555
Ca8 Si2 3.133901 1_444
Ca8 Si1 3.133902 1_455
Ca8 Si0 3.133902 1_544
Ca8 Sb1 3.694183 1_445
Ca8 Sb0 3.694183 1_555
Ca9 Si2 3.133901 1_555
Ca9 Si3 3.133901 1_554
Ca9 Si1 3.133901 1_555
Ca9 Si0 3.133901 1_554
Ca9 Sb1 3.694183 1_555
Ca9 Sb0 3.694183 1_555
Si0 Si1 2.504797 1_455
Si2 Si3 2.504797 1_565
