# generated using pymatgen
data_Zr2V3AgO12
_symmetry_space_group_name_H-M   'P 1'
_cell_length_a   9.39437799
_cell_length_b   9.39437849
_cell_length_c   9.39437854
_cell_angle_alpha   59.96632230
_cell_angle_beta   59.96631647
_cell_angle_gamma   59.96631310
_symmetry_Int_Tables_number   1
_chemical_formula_structural   Zr2V3AgO12
_chemical_formula_sum   'Zr4 V6 Ag2 O24'
_cell_volume   585.81068236
_cell_formula_units_Z   2
loop_
 _symmetry_equiv_pos_site_id
 _symmetry_equiv_pos_as_xyz
  1  'x, y, z'
loop_
 _atom_site_type_symbol
 _atom_site_label
 _atom_site_symmetry_multiplicity
 _atom_site_fract_x
 _atom_site_fract_y
 _atom_site_fract_z
 _atom_site_occupancy
  Zr  Zr0  1  0.85943401  0.85943401  0.85943401  1
  Zr  Zr1  1  0.64056599  0.64056599  0.64056599  1
  Zr  Zr2  1  0.35943401  0.35943401  0.35943401  1
  Zr  Zr3  1  0.14056599  0.14056599  0.14056599  1
  V  V0  1  0.75000000  0.03946279  0.46053721  1
  V  V1  1  0.96053721  0.53946279  0.25000000  1
  V  V2  1  0.03946279  0.46053721  0.75000000  1
  V  V3  1  0.25000000  0.96053721  0.53946279  1
  V  V4  1  0.46053721  0.75000000  0.03946279  1
  V  V5  1  0.53946279  0.25000000  0.96053721  1
  Ag  Ag0  1  0.00000000  0.00000000  0.00000000  1
  Ag  Ag1  1  0.50000000  0.50000000  0.50000000  1
  O  O0  1  0.87143389  0.50343546  0.69350074  1
  O  O1  1  0.26700467  0.92137432  0.05949201  1
  O  O2  1  0.80649926  0.99656454  0.62856611  1
  O  O3  1  0.57862568  0.23299533  0.44050799  1
  O  O4  1  0.12856611  0.49656454  0.30649926  1
  O  O5  1  0.92137432  0.05949201  0.26700467  1
  O  O6  1  0.73299533  0.07862568  0.94050799  1
  O  O7  1  0.76700467  0.55949201  0.42137432  1
  O  O8  1  0.42137432  0.76700467  0.55949201  1
  O  O9  1  0.50343546  0.69350074  0.87143389  1
  O  O10  1  0.07862568  0.94050799  0.73299533  1
  O  O11  1  0.19350074  0.00343546  0.37143389  1
  O  O12  1  0.00343546  0.37143389  0.19350074  1
  O  O13  1  0.37143389  0.19350074  0.00343546  1
  O  O14  1  0.94050799  0.73299533  0.07862568  1
  O  O15  1  0.49656454  0.30649926  0.12856611  1
  O  O16  1  0.23299533  0.44050799  0.57862568  1
  O  O17  1  0.62856611  0.80649926  0.99656454  1
  O  O18  1  0.99656454  0.62856611  0.80649926  1
  O  O19  1  0.44050799  0.57862568  0.23299533  1
  O  O20  1  0.55949201  0.42137432  0.76700467  1
  O  O21  1  0.69350074  0.87143389  0.50343546  1
  O  O22  1  0.30649926  0.12856611  0.49656454  1
  O  O23  1  0.05949201  0.26700467  0.92137432  1
loop_
_geom_bond_atom_site_label_1
_geom_bond_atom_site_label_2
_geom_bond_distance
_geom_bond_site_symmetry_2
Ag0 O1 2.507022 1_545
Ag0 O6 2.507022 1_454
Ag0 O5 2.507022 1_455
Ag0 O10 2.507022 1_544
Ag0 O23 2.507022 1_554
Ag0 O14 2.507022 1_445
Ag1 O7 2.507022 1_555
Ag1 O16 2.507022 1_555
Ag1 O8 2.507022 1_555
Ag1 O3 2.507022 1_555
Ag1 O20 2.507022 1_555
Ag1 O19 2.507022 1_555
O0 V2 1.709871 1_655
O0 Zr1 2.062116 1_555
O1 V4 1.721522 1_555
O1 Zr3 2.108817 1_565
O2 V0 1.709871 1_565
O2 Zr0 2.062116 1_555
O3 V0 1.721522 1_555
O3 Zr2 2.108817 1_555
O4 V1 1.709871 1_455
O4 Zr2 2.062116 1_555
O5 V0 1.721522 1_555
O5 Zr3 2.108817 1_655
O6 V5 1.721522 1_555
O6 Zr0 2.108817 1_545
O7 V1 1.721522 1_555
O7 Zr1 2.108817 1_555
O8 V3 1.721522 1_555
O8 Zr1 2.108817 1_555
O9 V4 1.709871 1_556
O9 Zr1 2.062116 1_555
O10 V3 1.721522 1_555
O10 Zr0 2.108817 1_455
O11 V3 1.709871 1_545
O11 Zr3 2.062116 1_555
O12 V1 1.709871 1_455
O12 Zr3 2.062116 1_555
O13 V5 1.709871 1_554
O13 Zr3 2.062116 1_555
O14 V1 1.721522 1_555
O14 Zr0 2.108817 1_554
O15 V5 1.709871 1_554
O15 Zr2 2.062116 1_555
O16 V2 1.721522 1_555
O16 Zr2 2.108817 1_555
O17 V4 1.709871 1_556
O17 Zr0 2.062116 1_555
O18 V2 1.709871 1_655
O18 Zr0 2.062116 1_555
O19 V4 1.721522 1_555
O19 Zr2 2.108818 1_555
O20 V5 1.721522 1_555
O20 Zr1 2.108818 1_555
O21 V0 1.709871 1_565
O21 Zr1 2.062117 1_555
O22 V3 1.709871 1_545
O22 Zr2 2.062117 1_555
O23 V2 1.721522 1_555
O23 Zr3 2.108817 1_556
