# generated using pymatgen
data_Li3Mn2O4
_symmetry_space_group_name_H-M   'P 1'
_cell_length_a   6.13640412
_cell_length_b   6.13640412
_cell_length_c   6.13640412
_cell_angle_alpha   118.74162739
_cell_angle_beta   118.51410161
_cell_angle_gamma   92.39361500
_symmetry_Int_Tables_number   1
_chemical_formula_structural   Li3Mn2O4
_chemical_formula_sum   'Li6 Mn4 O8'
_cell_volume   166.62113024
_cell_formula_units_Z   2
loop_
 _symmetry_equiv_pos_site_id
 _symmetry_equiv_pos_as_xyz
  1  'x, y, z'
loop_
 _atom_site_type_symbol
 _atom_site_label
 _atom_site_symmetry_multiplicity
 _atom_site_fract_x
 _atom_site_fract_y
 _atom_site_fract_z
 _atom_site_occupancy
  Li  Li0  1  0.13283700  0.38283700  0.75000000  1
  Li  Li1  1  0.00000000  0.50000000  0.00000000  1
  Li  Li2  1  0.00000000  0.00000000  0.50000000  1
  Li  Li3  1  0.00000000  0.50000000  0.50000000  1
  Li  Li4  1  0.86716300  0.61716300  0.25000000  1
  Li  Li5  1  0.50000000  0.50000000  0.00000000  1
  Mn  Mn0  1  0.00000000  0.00000000  0.00000000  1
  Mn  Mn1  1  0.50000000  0.00000000  0.00000000  1
  Mn  Mn2  1  0.50000000  0.50000000  0.50000000  1
  Mn  Mn3  1  0.50000000  0.00000000  0.50000000  1
  O  O0  1  0.73324400  0.72695500  0.49371100  1
  O  O1  1  0.75694700  0.25478900  0.50215800  1
  O  O2  1  0.25263100  0.25478900  0.99784200  1
  O  O3  1  0.26675600  0.76046700  0.99371100  1
  O  O4  1  0.74736900  0.74521100  0.00215800  1
  O  O5  1  0.73324400  0.23953300  0.00628900  1
  O  O6  1  0.26675600  0.27304500  0.50628900  1
  O  O7  1  0.24305300  0.74521100  0.49784200  1
loop_
_geom_bond_atom_site_label_1
_geom_bond_atom_site_label_2
_geom_bond_distance
_geom_bond_site_symmetry_2
Li0 O1 1.897610 1_455
Li0 O2 1.897610 1_555
Li0 O3 1.901683 1_555
Li0 O6 1.901683 1_555
Li1 O7 2.205195 1_555
Li1 O4 2.205195 1_455
Li1 O1 2.205195 1_454
Li1 O2 2.205195 1_554
Li1 O5 2.266442 1_455
Li1 O3 2.266442 1_554
Li2 O7 2.205195 1_545
Li2 O2 2.205195 1_555
Li2 O1 2.205195 1_455
Li2 O4 2.205195 1_445
Li2 O0 2.266442 1_445
Li2 O6 2.266442 1_555
Li3 O1 2.083120 1_455
Li3 O7 2.083120 1_555
Li3 O3 2.191434 1_555
Li3 O0 2.191434 1_455
Li3 O6 2.191434 1_555
Li3 O5 2.191434 1_455
Li4 O7 1.897610 1_655
Li4 O4 1.897610 1_555
Li4 O0 1.901683 1_555
Li4 O5 1.901683 1_555
Li5 O2 2.083120 1_554
Li5 O4 2.083120 1_555
Li5 O0 2.191434 1_555
Li5 O5 2.191434 1_555
Li5 O3 2.191434 1_554
Li5 O6 2.191434 1_554
Mn0 O4 2.164484 1_445
Mn0 O2 2.164484 1_554
Mn0 O5 2.246834 1_455
Mn0 O6 2.246834 1_555
Mn0 O3 2.246834 1_544
Mn0 O0 2.246834 1_444
Mn1 O3 1.981806 1_544
Mn1 O5 1.981806 1_555
Mn1 O2 2.224370 1_554
Mn1 O4 2.224370 1_545
Mn1 O1 2.224370 1_555
Mn1 O7 2.224370 1_544
Mn2 O6 1.981806 1_555
Mn2 O0 1.981806 1_555
Mn2 O1 2.224370 1_555
Mn2 O4 2.224370 1_556
Mn2 O2 2.224370 1_554
Mn2 O7 2.224370 1_555
Mn3 O1 2.164484 1_555
Mn3 O7 2.164484 1_545
Mn3 O5 2.246834 1_556
Mn3 O0 2.246834 1_545
Mn3 O6 2.246834 1_555
Mn3 O3 2.246834 1_544
