# generated using pymatgen
data_BaSb12Os3Pt
_symmetry_space_group_name_H-M   'P 1'
_cell_length_a   8.15187192
_cell_length_b   8.15187133
_cell_length_c   8.15187137
_cell_angle_alpha   109.44157889
_cell_angle_beta   109.44156518
_cell_angle_gamma   109.44157414
_symmetry_Int_Tables_number   1
_chemical_formula_structural   BaSb12Os3Pt
_chemical_formula_sum   'Ba1 Sb12 Os3 Pt1'
_cell_volume   417.47059930
_cell_formula_units_Z   1
loop_
 _symmetry_equiv_pos_site_id
 _symmetry_equiv_pos_as_xyz
  1  'x, y, z'
loop_
 _atom_site_type_symbol
 _atom_site_label
 _atom_site_symmetry_multiplicity
 _atom_site_fract_x
 _atom_site_fract_y
 _atom_site_fract_z
 _atom_site_occupancy
  Ba  Ba0  1  0.00000000  0.00000000  0.00000000  1
  Sb  Sb0  1  0.33989929  0.18171023  0.84106823  1
  Sb  Sb1  1  0.66010071  0.81828977  0.15893177  1
  Sb  Sb2  1  0.65852655  0.49984627  0.84919642  1
  Sb  Sb3  1  0.34147345  0.50015373  0.15080358  1
  Sb  Sb4  1  0.18171023  0.84106823  0.33989929  1
  Sb  Sb5  1  0.81828977  0.15893177  0.66010071  1
  Sb  Sb6  1  0.49984627  0.84919642  0.65852655  1
  Sb  Sb7  1  0.50015373  0.15080358  0.34147345  1
  Sb  Sb8  1  0.84106823  0.33989929  0.18171023  1
  Sb  Sb9  1  0.15893177  0.66010071  0.81828977  1
  Sb  Sb10  1  0.84919642  0.65852655  0.49984627  1
  Sb  Sb11  1  0.15080358  0.34147345  0.50015373  1
  Os  Os0  1  0.00000000  0.00000000  0.50000000  1
  Os  Os1  1  0.50000000  0.00000000  0.00000000  1
  Os  Os2  1  0.00000000  0.50000000  0.00000000  1
  Pt  Pt0  1  0.50000000  0.50000000  0.50000000  1
loop_
_geom_bond_atom_site_label_1
_geom_bond_atom_site_label_2
_geom_bond_distance
_geom_bond_site_symmetry_2
Ba0 Sb9 3.533441 1_544
Ba0 Sb8 3.533441 1_455
Ba0 Sb0 3.533441 1_554
Ba0 Sb1 3.533441 1_445
Ba0 Sb4 3.533442 1_545
Ba0 Sb5 3.533442 1_454
Ba0 Sb11 3.565612 1_555
Ba0 Sb10 3.565612 1_444
Ba0 Sb3 3.565612 1_555
Ba0 Sb2 3.565612 1_444
Ba0 Sb7 3.565613 1_555
Ba0 Sb6 3.565613 1_444
Sb0 Sb3 2.950788 1_556
Sb0 Sb2 2.960325 1_555
Sb1 Sb2 2.950788 1_554
Sb1 Sb3 2.960325 1_555
Sb4 Sb7 2.950789 1_565
Sb4 Sb6 2.960326 1_555
Sb5 Sb6 2.950789 1_545
Sb5 Sb7 2.960326 1_555
Sb10 Sb9 2.950789 1_655
Sb10 Sb8 2.960325 1_555
Sb11 Sb8 2.950789 1_455
Sb11 Sb9 2.960325 1_555
Os0 Sb11 2.641703 1_555
Os0 Sb10 2.641703 1_445
Os0 Sb0 2.645696 1_555
Os0 Sb1 2.645696 1_445
Os0 Sb5 2.648576 1_455
Os0 Sb4 2.648576 1_545
Os1 Sb6 2.641702 1_544
Os1 Sb7 2.641702 1_555
Os1 Sb8 2.645695 1_555
Os1 Sb9 2.645695 1_544
Os1 Sb1 2.648577 1_545
Os1 Sb0 2.648577 1_554
Os2 Sb3 2.641703 1_555
Os2 Sb2 2.641703 1_454
Os2 Sb4 2.645695 1_555
Os2 Sb5 2.645695 1_454
Os2 Sb8 2.648576 1_455
Os2 Sb9 2.648576 1_554
Pt0 Sb6 2.706988 1_555
Pt0 Sb7 2.706988 1_555
Pt0 Sb10 2.706989 1_555
Pt0 Sb11 2.706989 1_555
Pt0 Sb2 2.706989 1_555
Pt0 Sb3 2.706989 1_555
