# generated using pymatgen
data_Na3Ca2OsO6
_symmetry_space_group_name_H-M   'P 1'
_cell_length_a   10.80458028
_cell_length_b   10.27417714
_cell_length_c   5.72266225
_cell_angle_alpha   79.43096066
_cell_angle_beta   69.19211895
_cell_angle_gamma   31.37692227
_symmetry_Int_Tables_number   1
_chemical_formula_structural   Na3Ca2OsO6
_chemical_formula_sum   'Na6 Ca4 Os2 O12'
_cell_volume   299.66284960
_cell_formula_units_Z   2
loop_
 _symmetry_equiv_pos_site_id
 _symmetry_equiv_pos_as_xyz
  1  'x, y, z'
loop_
 _atom_site_type_symbol
 _atom_site_label
 _atom_site_symmetry_multiplicity
 _atom_site_fract_x
 _atom_site_fract_y
 _atom_site_fract_z
 _atom_site_occupancy
  Na  Na0  1  0.00000000  0.00000000  0.00000000  1
  Na  Na1  1  0.08589267  0.08589267  0.41410733  1
  Na  Na2  1  0.83589267  0.83589267  0.16410733  1
  Na  Na3  1  0.16410733  0.16410733  0.83589267  1
  Na  Na4  1  0.25000000  0.25000000  0.25000000  1
  Na  Na5  1  0.41410733  0.41410733  0.08589267  1
  Ca  Ca0  1  0.58062216  0.58062216  0.91937784  1
  Ca  Ca1  1  0.91937784  0.91937784  0.58062216  1
  Ca  Ca2  1  0.66937784  0.66937784  0.33062216  1
  Ca  Ca3  1  0.33062216  0.33062216  0.66937784  1
  Os  Os0  1  0.75000000  0.75000000  0.75000000  1
  Os  Os1  1  0.50000000  0.50000000  0.50000000  1
  O  O0  1  0.28581566  0.71418434  0.28581566  1
  O  O1  1  0.71418434  0.28581566  0.71418434  1
  O  O2  1  0.96418434  0.53581566  0.96418434  1
  O  O3  1  0.53581566  0.96418434  0.53581566  1
  O  O4  1  0.20840328  0.64465856  0.78999892  1
  O  O5  1  0.35693924  0.78999892  0.64465856  1
  O  O6  1  0.78999892  0.35693924  0.20840328  1
  O  O7  1  0.64465856  0.20840328  0.35693924  1
  O  O8  1  0.60534144  0.04159672  0.89306076  1
  O  O9  1  0.89306076  0.46000108  0.60534144  1
  O  O10  1  0.46000108  0.89306076  0.04159672  1
  O  O11  1  0.04159672  0.60534144  0.46000108  1
loop_
_geom_bond_atom_site_label_1
_geom_bond_atom_site_label_2
_geom_bond_distance
_geom_bond_site_symmetry_2
Na0 O7 2.343738 1_455
Na0 O5 2.343738 1_544
Na0 O4 2.343738 1_544
Na0 O6 2.343738 1_455
Na0 O0 2.679028 1_545
Na0 O1 2.679028 1_454
Na1 O1 2.367613 1_455
Na1 O0 2.367613 1_545
Na1 O6 2.372941 1_455
Na1 O5 2.372941 1_545
Na1 O10 2.561494 1_545
Na1 O9 2.561494 1_455
Na2 O3 2.367613 1_555
Na2 O2 2.367613 1_554
Na2 O8 2.372941 1_564
Na2 O11 2.372941 1_655
Na2 O4 2.561494 1_654
Na2 O7 2.561494 1_565
Na3 O3 2.367613 1_545
Na3 O2 2.367613 1_455
Na3 O10 2.372941 1_546
Na3 O9 2.372941 1_455
Na3 O6 2.561494 1_456
Na3 O5 2.561494 1_545
Na4 O8 2.343738 1_554
Na4 O9 2.343738 1_455
Na4 O11 2.343738 1_555
Na4 O10 2.343738 1_545
Na4 O3 2.679028 1_545
Na4 O2 2.679028 1_454
Na5 O1 2.367613 1_554
Na5 O0 2.367613 1_555
Na5 O7 2.372941 1_555
Na5 O4 2.372941 1_554
Na5 O11 2.561494 1_555
Na5 O8 2.561494 1_554
Ca0 O0 2.296277 1_556
Ca0 O1 2.296277 1_555
Ca0 O5 2.349796 1_555
Ca0 O6 2.349796 1_556
Ca0 O9 2.350453 1_555
Ca0 O10 2.350453 1_556
Ca1 O0 2.296277 1_655
Ca1 O1 2.296277 1_565
Ca1 O4 2.349796 1_655
Ca1 O7 2.349796 1_565
Ca1 O8 2.350453 1_565
Ca1 O11 2.350453 1_655
Ca2 O2 2.296277 1_554
Ca2 O3 2.296277 1_555
Ca2 O9 2.349796 1_555
Ca2 O10 2.349796 1_555
Ca2 O5 2.350453 1_555
Ca2 O6 2.350453 1_555
Ca3 O2 2.296277 1_455
Ca3 O3 2.296277 1_545
Ca3 O11 2.349796 1_555
Ca3 O8 2.349796 1_555
Ca3 O7 2.350453 1_555
Ca3 O4 2.350453 1_555
O0 Os1 2.007608 1_555
O1 Os1 2.007608 1_555
O2 Os0 2.007608 1_555
O3 Os0 2.007608 1_555
O4 Os1 2.020832 1_555
O5 Os1 2.020832 1_555
O6 Os1 2.020832 1_555
O7 Os1 2.020832 1_555
O8 Os0 2.020832 1_545
O9 Os0 2.020832 1_555
O10 Os0 2.020832 1_554
O11 Os0 2.020832 1_455
