# generated using pymatgen
data_Cs4Sn(TeS)2
_symmetry_space_group_name_H-M   'P 1'
_cell_length_a   9.28929598
_cell_length_b   11.19739518
_cell_length_c   15.74488143
_cell_angle_alpha   90.00000000
_cell_angle_beta   90.00000000
_cell_angle_gamma   90.00000000
_symmetry_Int_Tables_number   1
_chemical_formula_structural   Cs4Sn(TeS)2
_chemical_formula_sum   'Cs16 Sn4 Te8 S8'
_cell_volume   1637.71829625
_cell_formula_units_Z   4
loop_
 _symmetry_equiv_pos_site_id
 _symmetry_equiv_pos_as_xyz
  1  'x, y, z'
loop_
 _atom_site_type_symbol
 _atom_site_label
 _atom_site_symmetry_multiplicity
 _atom_site_fract_x
 _atom_site_fract_y
 _atom_site_fract_z
 _atom_site_occupancy
  Cs  Cs0  1  0.50000000  0.50000000  0.50000000  1
  Cs  Cs1  1  0.14721082  0.45897135  0.27921790  1
  Cs  Cs2  1  0.14721082  0.04102865  0.27921790  1
  Cs  Cs3  1  0.98283337  0.75000000  0.43801588  1
  Cs  Cs4  1  0.01716663  0.25000000  0.56198412  1
  Cs  Cs5  1  0.64721082  0.95897135  0.22078210  1
  Cs  Cs6  1  0.35278918  0.04102865  0.77921790  1
  Cs  Cs7  1  0.85278918  0.95897135  0.72078210  1
  Cs  Cs8  1  0.35278918  0.45897135  0.77921790  1
  Cs  Cs9  1  0.00000000  0.50000000  0.00000000  1
  Cs  Cs10  1  0.48283337  0.25000000  0.06198412  1
  Cs  Cs11  1  0.64721082  0.54102865  0.22078210  1
  Cs  Cs12  1  0.51716663  0.75000000  0.93801588  1
  Cs  Cs13  1  0.00000000  0.00000000  0.00000000  1
  Cs  Cs14  1  0.85278918  0.54102865  0.72078210  1
  Cs  Cs15  1  0.50000000  0.00000000  0.50000000  1
  Sn  Sn0  1  0.73355159  0.25000000  0.83939789  1
  Sn  Sn1  1  0.76644841  0.25000000  0.33939789  1
  Sn  Sn2  1  0.23355159  0.75000000  0.66060211  1
  Sn  Sn3  1  0.26644841  0.75000000  0.16060211  1
  Te  Te0  1  0.53344506  0.75000000  0.67505382  1
  Te  Te1  1  0.46655494  0.25000000  0.32494618  1
  Te  Te2  1  0.36900012  0.75000000  0.32848175  1
  Te  Te3  1  0.13099988  0.75000000  0.82848175  1
  Te  Te4  1  0.03344506  0.25000000  0.82494618  1
  Te  Te5  1  0.96655494  0.75000000  0.17505382  1
  Te  Te6  1  0.63099988  0.25000000  0.67151825  1
  Te  Te7  1  0.86900012  0.25000000  0.17151825  1
  S  S0  1  0.84279622  0.42888238  0.40909137  1
  S  S1  1  0.65720378  0.07111762  0.90909137  1
  S  S2  1  0.34279622  0.92888238  0.09090863  1
  S  S3  1  0.34279622  0.57111762  0.09090863  1
  S  S4  1  0.15720378  0.57111762  0.59090863  1
  S  S5  1  0.84279622  0.07111762  0.40909137  1
  S  S6  1  0.15720378  0.92888238  0.59090863  1
  S  S7  1  0.65720378  0.42888238  0.90909137  1
loop_
_geom_bond_atom_site_label_1
_geom_bond_atom_site_label_2
_geom_bond_distance
_geom_bond_site_symmetry_2
Cs0 S4 3.580906 1_555
Cs0 S0 3.580906 1_555
Cs0 Te0 3.940752 1_555
Cs0 Te1 3.940752 1_555
Cs0 Te6 4.075546 1_555
Cs0 Te2 4.075546 1_555
Cs1 S0 3.505900 1_455
Cs1 S3 3.697096 1_555
Cs1 Te1 3.846257 1_555
Cs1 Te7 3.876826 1_455
Cs1 Sn3 3.915902 1_555
Cs1 Te2 3.932667 1_555
Cs1 Te5 4.015662 1_455
Cs2 S5 3.505900 1_455
Cs2 S2 3.697096 1_545
Cs2 Te1 3.846257 1_555
Cs2 Te7 3.876826 1_455
Cs2 Sn3 3.915902 1_545
Cs2 Te2 3.932667 1_545
Cs2 Te5 4.015662 1_445
Cs3 S6 3.525726 1_655
Cs3 S4 3.525726 1_655
Cs3 S0 3.850782 1_555
Cs3 S5 3.850782 1_565
Cs3 Te2 3.980249 1_655
Cs3 Te5 4.143067 1_555
Cs4 S5 3.525726 1_455
Cs4 S0 3.525726 1_455
Cs4 S4 3.850782 1_555
Cs4 S6 3.850782 1_545
Cs4 Te6 3.980249 1_455
Cs4 Te4 4.143067 1_555
Cs5 S2 3.505900 1_555
Cs5 S5 3.697096 1_565
Cs5 Te5 3.846257 1_555
Cs5 Te2 3.876826 1_555
Cs5 Sn1 3.915902 1_565
Cs5 Te7 3.932667 1_565
Cs5 Te1 4.015662 1_565
Cs6 S1 3.505900 1_555
Cs6 S6 3.697096 1_545
Cs6 Te4 3.846257 1_555
Cs6 Te6 3.876826 1_555
Cs6 Sn2 3.915902 1_545
Cs6 Te3 3.932667 1_545
Cs6 Te0 4.015662 1_545
Cs7 S6 3.505900 1_655
Cs7 S1 3.697096 1_565
Cs7 Te0 3.846257 1_555
Cs7 Te3 3.876826 1_655
Cs7 Sn0 3.915902 1_565
Cs7 Te6 3.932667 1_565
Cs7 Te4 4.015662 1_665
Cs8 S7 3.505900 1_555
Cs8 S4 3.697096 1_555
Cs8 Te4 3.846257 1_555
Cs8 Te6 3.876826 1_555
Cs8 Sn2 3.915902 1_555
Cs8 Te3 3.932667 1_555
Cs8 Te0 4.015662 1_555
Cs9 S3 3.580906 1_555
Cs9 S7 3.580906 1_454
Cs9 Te5 3.940752 1_455
Cs9 Te4 3.940752 1_554
Cs9 Te7 4.075546 1_455
Cs9 Te3 4.075546 1_554
Cs10 S1 3.525726 1_554
Cs10 S7 3.525726 1_554
Cs10 S3 3.850782 1_555
Cs10 S2 3.850782 1_545
Cs10 Te7 3.980249 1_555
Cs10 Te1 4.143067 1_555
Cs11 S3 3.505900 1_555
Cs11 S0 3.697096 1_555
Cs11 Te5 3.846257 1_555
Cs11 Te2 3.876826 1_555
Cs11 Sn1 3.915902 1_555
Cs11 Te7 3.932667 1_555
Cs11 Te1 4.015662 1_555
Cs12 S2 3.525726 1_556
Cs12 S3 3.525726 1_556
Cs12 S7 3.850782 1_555
Cs12 S1 3.850782 1_565
Cs12 Te3 3.980249 1_555
Cs12 Te0 4.143067 1_555
Cs13 S2 3.580906 1_545
Cs13 S1 3.580906 1_454
Cs13 Te5 3.940752 1_445
Cs13 Te4 3.940752 1_554
Cs13 Te7 4.075546 1_455
Cs13 Te3 4.075546 1_544
Cs14 S4 3.505900 1_655
Cs14 S7 3.697096 1_555
Cs14 Te0 3.846257 1_555
Cs14 Te3 3.876826 1_655
Cs14 Sn0 3.915902 1_555
Cs14 Te6 3.932667 1_555
Cs14 Te4 4.015662 1_655
Cs15 S6 3.580906 1_545
Cs15 S5 3.580906 1_555
Cs15 Te0 3.940752 1_545
Cs15 Te1 3.940752 1_555
Cs15 Te6 4.075546 1_555
Cs15 Te2 4.075546 1_545
Sn0 Te4 2.795076 1_655
Sn0 Te6 2.809672 1_555
Sn1 Te1 2.795076 1_555
Sn1 Te7 2.809672 1_555
Sn2 Te0 2.795076 1_555
Sn2 Te3 2.809672 1_555
Sn3 Te5 2.795076 1_455
Sn3 Te2 2.809672 1_555
S0 Sn1 2.391478 1_555
S1 Sn0 2.391478 1_555
S2 Sn3 2.391478 1_555
S3 Sn3 2.391478 1_555
S4 Sn2 2.391478 1_555
S5 Sn1 2.391478 1_555
S6 Sn2 2.391478 1_555
S7 Sn0 2.391478 1_555
