# generated using pymatgen
data_Sr2Ir2O6F
_symmetry_space_group_name_H-M   'P 1'
_cell_length_a   7.39598750
_cell_length_b   7.39437362
_cell_length_c   7.39437360
_cell_angle_alpha   60.01510804
_cell_angle_beta   59.99280195
_cell_angle_gamma   59.99280085
_symmetry_Int_Tables_number   1
_chemical_formula_structural   Sr2Ir2O6F
_chemical_formula_sum   'Sr4 Ir4 O12 F2'
_cell_volume   285.94745816
_cell_formula_units_Z   2
loop_
 _symmetry_equiv_pos_site_id
 _symmetry_equiv_pos_as_xyz
  1  'x, y, z'
loop_
 _atom_site_type_symbol
 _atom_site_label
 _atom_site_symmetry_multiplicity
 _atom_site_fract_x
 _atom_site_fract_y
 _atom_site_fract_z
 _atom_site_occupancy
  Sr  Sr0  1  0.12500000  0.12500000  0.62500000  1
  Sr  Sr1  1  0.12500000  0.62500000  0.12500000  1
  Sr  Sr2  1  0.62500000  0.12500000  0.12500000  1
  Sr  Sr3  1  0.12500000  0.12500000  0.12500000  1
  Ir  Ir0  1  0.62500000  0.62500000  0.12500000  1
  Ir  Ir1  1  0.62500000  0.12500000  0.62500000  1
  Ir  Ir2  1  0.12500000  0.62500000  0.62500000  1
  Ir  Ir3  1  0.62500000  0.62500000  0.62500000  1
  O  O0  1  0.30089824  0.30091396  0.69909330  1
  O  O1  1  0.69909973  0.69909430  0.30090644  1
  O  O2  1  0.94931508  0.55069423  0.55069423  1
  O  O3  1  0.69930417  0.30069615  0.30069615  1
  O  O4  1  0.55090027  0.94909356  0.55090570  1
  O  O5  1  0.55090027  0.55090570  0.94909356  1
  O  O6  1  0.30068492  0.69930577  0.69930577  1
  O  O7  1  0.94910176  0.55090670  0.94908604  1
  O  O8  1  0.55069583  0.94930385  0.94930385  1
  O  O9  1  0.69909973  0.30090644  0.69909430  1
  O  O10  1  0.30089824  0.69909330  0.30091396  1
  O  O11  1  0.94910176  0.94908604  0.55090670  1
  F  F0  1  0.24999925  0.25000108  0.25000108  1
  F  F1  1  0.00000075  0.99999892  0.99999892  1
loop_
_geom_bond_atom_site_label_1
_geom_bond_atom_site_label_2
_geom_bond_distance
_geom_bond_site_symmetry_2
Ir0 O1 2.004502 1_555
Ir0 O5 2.004502 1_554
Ir0 O10 2.004521 1_555
Ir0 O7 2.004521 1_554
Ir0 O8 2.005576 1_554
Ir0 O3 2.005576 1_555
Ir1 O9 2.004502 1_555
Ir1 O4 2.004502 1_545
Ir1 O11 2.004521 1_545
Ir1 O0 2.004521 1_555
Ir1 O8 2.005576 1_545
Ir1 O3 2.005576 1_555
Ir2 O11 2.004423 1_455
Ir2 O0 2.004423 1_555
Ir2 O7 2.004423 1_455
Ir2 O10 2.004423 1_555
Ir2 O6 2.005503 1_555
Ir2 O2 2.005503 1_455
Ir3 O4 2.004466 1_555
Ir3 O9 2.004466 1_555
Ir3 O5 2.004466 1_555
Ir3 O1 2.004466 1_555
Ir3 O2 2.005631 1_555
Ir3 O6 2.005631 1_555
O0 Sr0 2.608153 1_555
O0 Sr3 2.608179 1_556
O1 Sr1 2.608120 1_655
O1 Sr2 2.608167 1_565
O2 Sr0 2.606325 1_655
O2 Sr1 2.606325 1_655
O3 Sr3 2.606324 1_655
O3 Sr2 2.606327 1_555
O4 Sr0 2.608120 1_565
O4 Sr2 2.608167 1_565
O5 Sr1 2.608120 1_556
O5 Sr2 2.608167 1_556
O6 Sr0 2.606325 1_565
O6 Sr1 2.606325 1_556
O7 Sr1 2.608153 1_656
O7 Sr3 2.608179 1_656
O8 Sr3 2.606324 1_566
O8 Sr2 2.606327 1_566
O9 Sr0 2.608120 1_655
O9 Sr2 2.608167 1_556
O10 Sr1 2.608153 1_555
O10 Sr3 2.608179 1_565
O11 Sr0 2.608153 1_665
O11 Sr3 2.608179 1_665
F0 Sr2 2.264221 1_555
F0 Sr3 2.264224 1_555
F0 Sr1 2.264225 1_555
F0 Sr0 2.264225 1_555
F1 Sr2 2.264221 1_466
F1 Sr3 2.264224 1_566
F1 Sr1 2.264225 1_556
F1 Sr0 2.264225 1_565
