# generated using pymatgen
data_Lu5TcOsO12
_symmetry_space_group_name_H-M   'P 1'
_cell_length_a   6.65127649
_cell_length_b   6.65127720
_cell_length_c   7.25600753
_cell_angle_alpha   73.98466610
_cell_angle_beta   73.98466268
_cell_angle_gamma   49.47234273
_symmetry_Int_Tables_number   1
_chemical_formula_structural   Lu5TcOsO12
_chemical_formula_sum   'Lu5 Tc1 Os1 O12'
_cell_volume   232.46171876
_cell_formula_units_Z   1
loop_
 _symmetry_equiv_pos_site_id
 _symmetry_equiv_pos_as_xyz
  1  'x, y, z'
loop_
 _atom_site_type_symbol
 _atom_site_label
 _atom_site_symmetry_multiplicity
 _atom_site_fract_x
 _atom_site_fract_y
 _atom_site_fract_z
 _atom_site_occupancy
  Lu  Lu0  1  0.69702553  0.70168608  0.63930284  1
  Lu  Lu1  1  0.29831392  0.30297447  0.36069716  1
  Lu  Lu2  1  0.68818711  0.68665840  0.17653591  1
  Lu  Lu3  1  0.31334160  0.31181289  0.82346409  1
  Lu  Lu4  1  0.99875567  0.00124433  0.50000000  1
  Tc  Tc0  1  0.21944151  0.78055849  1.00000000  1
  Os  Os0  1  0.77765570  0.22234430  0.00000000  1
  O  O0  1  0.00333917  0.00339664  0.20660238  1
  O  O1  1  0.99660336  0.99666083  0.79339762  1
  O  O2  1  0.57719965  0.08668778  0.08953580  1
  O  O3  1  0.42650866  0.91125519  0.91127903  1
  O  O4  1  0.91331222  0.42280035  0.91046420  1
  O  O5  1  0.08874481  0.57349134  0.08872097  1
  O  O6  1  0.50204840  0.49750609  0.18289731  1
  O  O7  1  0.50249391  0.49795160  0.81710269  1
  O  O8  1  0.40402105  0.90158559  0.42808238  1
  O  O9  1  0.59493302  0.10033972  0.57048461  1
  O  O10  1  0.09841441  0.59597895  0.57191762  1
  O  O11  1  0.89966028  0.40506698  0.42951539  1
loop_
_geom_bond_atom_site_label_1
_geom_bond_atom_site_label_2
_geom_bond_distance
_geom_bond_site_symmetry_2
Lu0 O9 2.204016 1_565
Lu0 O10 2.211531 1_655
Lu0 O8 2.251863 1_555
Lu0 O11 2.257275 1_555
Lu0 O3 2.318188 1_555
Lu0 O4 2.336986 1_555
Lu0 O7 2.359612 1_555
Lu1 O11 2.204015 1_455
Lu1 O8 2.211531 1_545
Lu1 O10 2.251863 1_555
Lu1 O9 2.257274 1_555
Lu1 O5 2.318188 1_555
Lu1 O2 2.336986 1_555
Lu1 O6 2.359612 1_555
Lu2 O5 2.189137 1_655
Lu2 O2 2.190999 1_565
Lu2 O11 2.227038 1_555
Lu2 O8 2.229811 1_555
Lu2 O6 2.253550 1_555
Lu2 O3 2.418318 1_554
Lu2 O4 2.430758 1_554
Lu3 O3 2.189138 1_545
Lu3 O4 2.190999 1_455
Lu3 O9 2.227038 1_555
Lu3 O10 2.229811 1_555
Lu3 O7 2.253550 1_555
Lu3 O5 2.418318 1_556
Lu3 O2 2.430758 1_556
Lu4 O0 2.116901 1_655
Lu4 O1 2.116901 1_545
Lu4 O9 2.244436 1_555
Lu4 O11 2.244436 1_555
Lu4 O8 2.251704 1_645
Lu4 O10 2.251704 1_645
O0 Tc0 1.943825 1_544
O0 Os0 1.953817 1_455
O1 Tc0 1.943825 1_655
O1 Os0 1.953817 1_566
O2 Os0 1.943171 1_555
O3 Tc0 1.955740 1_555
O4 Os0 1.943171 1_556
O5 Tc0 1.955740 1_554
O6 Os0 2.027009 1_555
O6 Tc0 2.058527 1_554
O7 Os0 2.027009 1_556
O7 Tc0 2.058527 1_555
