# generated using pymatgen
data_Sm5AgSe8
_symmetry_space_group_name_H-M   'P 1'
_cell_length_a   7.66975914
_cell_length_b   7.66975914
_cell_length_c   7.66975914
_cell_angle_alpha   109.84617306
_cell_angle_beta   109.84617306
_cell_angle_gamma   108.72389061
_symmetry_Int_Tables_number   1
_chemical_formula_structural   Sm5AgSe8
_chemical_formula_sum   'Sm5 Ag1 Se8'
_cell_volume   347.27054957
_cell_formula_units_Z   1
loop_
 _symmetry_equiv_pos_site_id
 _symmetry_equiv_pos_as_xyz
  1  'x, y, z'
loop_
 _atom_site_type_symbol
 _atom_site_label
 _atom_site_symmetry_multiplicity
 _atom_site_fract_x
 _atom_site_fract_y
 _atom_site_fract_z
 _atom_site_occupancy
  Sm  Sm0  1  0.62212100  0.50059600  0.38361500  1
  Sm  Sm1  1  0.49940400  0.88301900  0.12152500  1
  Sm  Sm2  1  0.11698100  0.23850600  0.61638500  1
  Sm  Sm3  1  0.25000000  0.75000000  0.50000000  1
  Sm  Sm4  1  0.76149400  0.37787900  0.87847500  1
  Ag  Ag0  1  0.00000000  0.00000000  0.00000000  1
  Se  Se0  1  0.72895800  0.97778200  0.61180100  1
  Se  Se1  1  0.23963000  0.49745100  0.10695000  1
  Se  Se2  1  0.02221800  0.63401900  0.75117600  1
  Se  Se3  1  0.39050100  0.13267900  0.89305000  1
  Se  Se4  1  0.86732100  0.76037000  0.25782200  1
  Se  Se5  1  0.50254900  0.60949900  0.74217800  1
  Se  Se6  1  0.88284300  0.27104200  0.24882400  1
  Se  Se7  1  0.36598100  0.11715700  0.38819900  1
loop_
_geom_bond_atom_site_label_1
_geom_bond_atom_site_label_2
_geom_bond_distance
_geom_bond_site_symmetry_2
Ag0 Se6 2.905320 1_455
Ag0 Se2 2.905320 1_544
Ag0 Se0 2.905320 1_444
Ag0 Se7 2.905320 1_555
Ag0 Se5 3.310119 1_444
Ag0 Se3 3.310119 1_554
Ag0 Se1 3.310120 1_555
Ag0 Se4 3.310124 1_445
Se0 Sm4 2.926162 1_565
Se0 Sm2 2.986186 1_665
Se0 Sm0 3.143407 1_555
Se0 Sm3 3.163180 1_555
Se0 Sm1 3.255058 1_555
Se1 Sm1 2.927262 1_555
Se1 Sm3 2.935907 1_555
Se1 Sm0 2.966893 1_555
Se1 Sm4 3.121914 1_454
Se1 Sm2 3.210820 1_554
Se2 Sm0 2.926162 1_455
Se2 Sm4 2.986186 1_455
Se2 Sm1 3.143407 1_556
Se2 Sm3 3.163180 1_555
Se2 Sm2 3.255058 1_555
Se3 Sm4 2.927264 1_555
Se3 Sm3 2.935903 1_545
Se3 Sm2 2.966899 1_555
Se3 Sm1 3.121907 1_546
Se3 Sm0 3.210823 1_556
Se4 Sm0 2.927260 1_555
Se4 Sm3 2.935899 1_655
Se4 Sm4 2.966894 1_554
Se4 Sm2 3.121912 1_665
Se4 Sm1 3.210828 1_555
Se5 Sm2 2.927264 1_555
Se5 Sm3 2.935903 1_555
Se5 Sm1 2.966899 1_556
Se5 Sm0 3.121907 1_555
Se5 Sm4 3.210823 1_555
Se6 Sm2 2.926162 1_655
Se6 Sm1 2.986186 1_545
Se6 Sm4 3.143407 1_554
Se6 Sm3 3.163180 1_655
Se6 Sm0 3.255058 1_555
Se7 Sm1 2.926162 1_545
Se7 Sm0 2.986186 1_555
Se7 Sm2 3.143407 1_555
Se7 Sm3 3.163180 1_545
Se7 Sm4 3.255058 1_555
