# generated using pymatgen
data_AlFe2Co4Si
_symmetry_space_group_name_H-M   'P 1'
_cell_length_a   6.88622261
_cell_length_b   6.88622263
_cell_length_c   6.88622263
_cell_angle_alpha   33.58665134
_cell_angle_beta   33.58664991
_cell_angle_gamma   33.58665523
_symmetry_Int_Tables_number   1
_chemical_formula_structural   AlFe2Co4Si
_chemical_formula_sum   'Al1 Fe2 Co4 Si1'
_cell_volume   89.01587802
_cell_formula_units_Z   1
loop_
 _symmetry_equiv_pos_site_id
 _symmetry_equiv_pos_as_xyz
  1  'x, y, z'
loop_
 _atom_site_type_symbol
 _atom_site_label
 _atom_site_symmetry_multiplicity
 _atom_site_fract_x
 _atom_site_fract_y
 _atom_site_fract_z
 _atom_site_occupancy
  Al  Al0  1  0.00000000  0.00000000  0.00000000  1
  Fe  Fe0  1  0.25067494  0.25067494  0.25067494  1
  Fe  Fe1  1  0.74932506  0.74932506  0.74932506  1
  Co  Co0  1  0.87275311  0.87275311  0.87275311  1
  Co  Co1  1  0.37746450  0.37746450  0.37746450  1
  Co  Co2  1  0.12724689  0.12724689  0.12724689  1
  Co  Co3  1  0.62253550  0.62253550  0.62253550  1
  Si  Si0  1  0.50000000  0.50000000  0.50000000  1
loop_
_geom_bond_atom_site_label_1
_geom_bond_atom_site_label_2
_geom_bond_distance
_geom_bond_site_symmetry_2
Al0 Co1 2.452859 1_554
Al0 Co3 2.452859 1_445
Al0 Co1 2.452859 1_455
Al0 Co3 2.452859 1_544
Al0 Co1 2.452859 1_545
Al0 Co3 2.452859 1_454
Al0 Co2 2.478147 1_555
Al0 Co0 2.478147 1_444
Co0 Fe1 2.403775 1_555
Co0 Si0 2.422234 1_556
Co0 Si0 2.422234 1_655
Co0 Si0 2.422234 1_565
Co0 Fe0 2.455994 1_665
Co0 Fe0 2.455994 1_566
Co0 Fe0 2.455994 1_656
Co1 Si0 2.386392 1_555
Co1 Fe1 2.416781 1_554
Co1 Fe1 2.416781 1_455
Co1 Fe1 2.416781 1_545
Co1 Fe0 2.469241 1_555
Co2 Fe0 2.403775 1_555
Co2 Si0 2.422234 1_554
Co2 Si0 2.422234 1_455
Co2 Si0 2.422234 1_545
Co2 Fe1 2.455994 1_445
Co2 Fe1 2.455994 1_544
Co2 Fe1 2.455994 1_454
Co3 Si0 2.386392 1_555
Co3 Fe0 2.416781 1_556
Co3 Fe0 2.416781 1_655
Co3 Fe0 2.416781 1_565
Co3 Fe1 2.469241 1_555
