# generated using pymatgen
data_Li12POsN8
_symmetry_space_group_name_H-M   'P 1'
_cell_length_a   6.45673664
_cell_length_b   6.45673664
_cell_length_c   4.83908927
_cell_angle_alpha   90.00000000
_cell_angle_beta   90.00000000
_cell_angle_gamma   90.00000000
_symmetry_Int_Tables_number   1
_chemical_formula_structural   Li12POsN8
_chemical_formula_sum   'Li12 P1 Os1 N8'
_cell_volume   201.73896066
_cell_formula_units_Z   1
loop_
 _symmetry_equiv_pos_site_id
 _symmetry_equiv_pos_as_xyz
  1  'x, y, z'
loop_
 _atom_site_type_symbol
 _atom_site_label
 _atom_site_symmetry_multiplicity
 _atom_site_fract_x
 _atom_site_fract_y
 _atom_site_fract_z
 _atom_site_occupancy
  Li  Li0  1  0.50000000  0.00000000  0.59595341  1
  Li  Li1  1  0.00000000  0.50000000  0.87487367  1
  Li  Li2  1  0.00000000  0.50000000  0.40404659  1
  Li  Li3  1  0.50000000  0.00000000  0.12512633  1
  Li  Li4  1  0.22662938  0.22662938  0.50000000  1
  Li  Li5  1  0.77337062  0.77337062  0.50000000  1
  Li  Li6  1  0.70066394  0.70066394  0.00000000  1
  Li  Li7  1  0.29933606  0.29933606  0.00000000  1
  Li  Li8  1  0.22662938  0.77337062  0.50000000  1
  Li  Li9  1  0.77337062  0.22662938  0.50000000  1
  Li  Li10  1  0.70066394  0.29933606  0.00000000  1
  Li  Li11  1  0.29933606  0.70066394  0.00000000  1
  P  P0  1  0.50000000  0.50000000  0.50000000  1
  Os  Os0  1  0.00000000  0.00000000  0.00000000  1
  N  N0  1  0.50000000  0.27722576  0.31748478  1
  N  N1  1  0.50000000  0.72277424  0.31748478  1
  N  N2  1  0.00000000  0.75247325  0.18636982  1
  N  N3  1  0.00000000  0.24752675  0.18636982  1
  N  N4  1  0.27722576  0.50000000  0.68251522  1
  N  N5  1  0.72277424  0.50000000  0.68251522  1
  N  N6  1  0.75247325  0.00000000  0.81363018  1
  N  N7  1  0.24752675  0.00000000  0.81363018  1
loop_
_geom_bond_atom_site_label_1
_geom_bond_atom_site_label_2
_geom_bond_distance
_geom_bond_site_symmetry_2
Li0 N6 1.940866 1_555
Li0 N7 1.940866 1_555
Li0 N0 2.240503 1_555
Li0 N1 2.240503 1_545
Li1 N4 2.017540 1_555
Li1 N5 2.017540 1_455
Li1 N2 2.220254 1_556
Li1 N3 2.220254 1_556
Li2 N2 1.940866 1_555
Li2 N3 1.940866 1_555
Li2 N4 2.240503 1_555
Li2 N5 2.240503 1_455
Li3 N0 2.017540 1_555
Li3 N1 2.017540 1_545
Li3 N6 2.220254 1_554
Li3 N7 2.220254 1_554
Li4 N4 2.000574 1_555
Li4 N0 2.000574 1_555
Li4 N7 2.112529 1_555
Li4 N3 2.112529 1_555
Li5 N5 2.000574 1_555
Li5 N1 2.000574 1_555
Li5 N6 2.112529 1_565
Li5 N2 2.112529 1_655
Li6 N1 2.014790 1_555
Li6 N5 2.014790 1_554
Li6 N2 2.158869 1_655
Li6 N6 2.158869 1_564
Li7 N0 2.014790 1_555
Li7 N4 2.014790 1_554
Li7 N3 2.158869 1_555
Li7 N7 2.158869 1_554
Li8 N4 2.000574 1_555
Li8 N1 2.000574 1_555
Li8 N2 2.112529 1_555
Li8 N7 2.112529 1_565
Li9 N0 2.000574 1_555
Li9 N5 2.000574 1_555
Li9 N6 2.112529 1_555
Li9 N3 2.112529 1_655
Li10 N0 2.014790 1_555
Li10 N5 2.014790 1_554
Li10 N6 2.158869 1_554
Li10 N3 2.158869 1_655
Li11 N4 2.014790 1_554
Li11 N1 2.014790 1_555
Li11 N2 2.158869 1_555
Li11 N7 2.158869 1_564
N0 P0 1.687908 1_555
N1 P0 1.687908 1_555
N2 Os0 1.835114 1_565
N3 Os0 1.835114 1_555
N4 P0 1.687908 1_555
N5 P0 1.687908 1_555
N6 Os0 1.835114 1_656
N7 Os0 1.835114 1_556
