# generated using pymatgen
data_Hf6Ti6Ge5As
_symmetry_space_group_name_H-M   'P 1'
_cell_length_a   7.92935472
_cell_length_b   7.93372445
_cell_length_c   7.93127917
_cell_angle_alpha   127.52778369
_cell_angle_beta   124.22435469
_cell_angle_gamma   80.10946432
_symmetry_Int_Tables_number   1
_chemical_formula_structural   Hf6Ti6Ge5As
_chemical_formula_sum   'Hf6 Ti6 Ge5 As1'
_cell_volume   315.88010552
_cell_formula_units_Z   1
loop_
 _symmetry_equiv_pos_site_id
 _symmetry_equiv_pos_as_xyz
  1  'x, y, z'
loop_
 _atom_site_type_symbol
 _atom_site_label
 _atom_site_symmetry_multiplicity
 _atom_site_fract_x
 _atom_site_fract_y
 _atom_site_fract_z
 _atom_site_occupancy
  Hf  Hf0  1  0.45264577  0.65955933  0.70607789  1
  Hf  Hf1  1  0.54655880  0.25331261  0.20625061  1
  Hf  Hf2  1  0.74969032  0.84721139  0.59699124  1
  Hf  Hf3  1  0.25005295  0.84716510  0.09737241  1
  Hf  Hf4  1  0.04716428  0.25337831  0.70685740  1
  Hf  Hf5  1  0.95338917  0.65952068  0.20679639  1
  Ti  Ti0  1  0.50022173  0.50305953  0.00270833  1
  Ti  Ti1  1  0.00019601  0.50241504  0.50214067  1
  Ti  Ti2  1  0.12454324  0.25287064  0.12830174  1
  Ti  Ti3  1  0.87533393  0.00472233  0.12931362  1
  Ti  Ti4  1  0.37531786  0.00371506  0.62815094  1
  Ti  Ti5  1  0.62457294  0.25281826  0.62845430  1
  Ge  Ge0  1  0.25019036  0.25339197  0.50342026  1
  Ge  Ge1  1  0.74995104  0.25332058  0.00327713  1
  Ge  Ge2  1  0.33339594  0.58660413  0.25340536  1
  Ge  Ge3  1  0.66668247  0.92013897  0.25353840  1
  Ge  Ge4  1  0.16671119  0.91973450  0.75318464  1
  As  As0  1  0.83338301  0.58665756  0.75335967  1
loop_
_geom_bond_atom_site_label_1
_geom_bond_atom_site_label_2
_geom_bond_distance
_geom_bond_site_symmetry_2
Hf0 Ti4 3.044302 1_565
Hf0 Ti3 3.049423 1_566
Hf0 Ti1 3.097413 1_555
Hf0 Ti0 3.101365 1_556
Hf0 Ti2 3.104550 1_555
Hf0 Ti5 3.108590 1_555
Hf1 Ti2 3.042085 1_555
Hf1 Ti5 3.046466 1_555
Hf1 Ti3 3.100866 1_555
Hf1 Ti0 3.105932 1_555
Hf1 Ti4 3.105952 1_554
Hf1 Ti1 3.106140 1_655
Hf2 Ti0 3.045165 1_555
Hf2 Ti1 3.049870 1_655
Hf2 Ti4 3.098409 1_565
Hf2 Ti5 3.099244 1_565
Hf2 Ti2 3.102348 1_666
Hf2 Ti3 3.106110 1_566
Hf3 Ti0 3.044594 1_555
Hf3 Ti1 3.050057 1_554
Hf3 Ti4 3.098628 1_565
Hf3 Ti5 3.101007 1_565
Hf3 Ti2 3.102133 1_565
Hf3 Ti3 3.104869 1_465
Hf4 Ti2 3.042690 1_556
Hf4 Ti5 3.045149 1_455
Hf4 Ti3 3.102317 1_455
Hf4 Ti4 3.103853 1_555
Hf4 Ti0 3.104082 1_556
Hf4 Ti1 3.107096 1_555
Hf5 Ti4 3.043375 1_665
Hf5 Ti3 3.049866 1_565
Hf5 Ti1 3.098167 1_655
Hf5 Ti0 3.100750 1_555
Hf5 Ti2 3.104411 1_655
Hf5 Ti5 3.107306 1_554
Ge0 Ti5 2.546654 1_555
Ge0 Ti1 2.547410 1_555
Ge0 Ti3 2.548196 1_455
Ge0 Ti4 2.548536 1_555
Ge0 Ti2 2.548802 1_555
Ge0 Ti0 2.548969 1_556
Ge0 Hf0 2.847645 1_555
Ge0 Hf3 2.847949 1_545
Ge0 Hf4 2.849084 1_555
Ge1 Ti1 2.547033 1_655
Ge1 Ti3 2.547177 1_555
Ge1 Ti5 2.547246 1_554
Ge1 Ti2 2.548209 1_655
Ge1 Ti4 2.549334 1_554
Ge1 Ti0 2.549504 1_555
Ge1 Hf2 2.847938 1_544
Ge1 Hf5 2.848296 1_555
Ge1 Hf1 2.848379 1_555
Ge2 Ti4 2.679424 1_565
Ge2 Ti0 2.682268 1_555
Ge2 Ti2 2.682338 1_555
Ge2 Hf0 2.820765 1_555
Ge2 Hf2 2.821165 1_555
Ge2 Hf5 2.821254 1_455
Ge2 Hf1 2.821293 1_555
Ge2 Hf4 2.822019 1_554
Ge2 Hf3 2.822956 1_555
Ge3 Ti5 2.678135 1_565
Ge3 Ti0 2.678826 1_555
Ge3 Ti3 2.679343 1_565
Ge3 Hf2 2.821480 1_555
Ge3 Hf3 2.822012 1_555
Ge3 Hf1 2.824184 1_565
Ge3 Hf4 2.824299 1_665
Ge3 Hf5 2.824961 1_555
Ge3 Hf0 2.826245 1_554
Ge4 Ti1 2.680116 1_555
Ge4 Ti2 2.680373 1_566
Ge4 Ti4 2.681829 1_565
Ge4 Hf0 2.818946 1_555
Ge4 Hf5 2.820918 1_455
Ge4 Hf1 2.822444 1_566
Ge4 Hf4 2.823389 1_565
Ge4 Hf3 2.824019 1_556
Ge4 Hf2 2.824419 1_455
As0 Ti5 2.683781 1_555
As0 Ti1 2.684176 1_655
As0 Ti3 2.686506 1_566
As0 Hf3 2.822665 1_656
As0 Hf4 2.824261 1_655
As0 Hf2 2.824522 1_555
As0 Hf5 2.824885 1_556
As0 Hf1 2.824911 1_555
As0 Hf0 2.824960 1_555
