# generated using pymatgen
data_LuHBr2
_symmetry_space_group_name_H-M   'P 1'
_cell_length_a   3.72772462
_cell_length_b   3.72772440
_cell_length_c   14.53772446
_cell_angle_alpha   90.00000000
_cell_angle_beta   90.00000000
_cell_angle_gamma   120.00000196
_symmetry_Int_Tables_number   1
_chemical_formula_structural   LuHBr2
_chemical_formula_sum   'Lu2 H2 Br4'
_cell_volume   174.95029324
_cell_formula_units_Z   2
loop_
 _symmetry_equiv_pos_site_id
 _symmetry_equiv_pos_as_xyz
  1  'x, y, z'
loop_
 _atom_site_type_symbol
 _atom_site_label
 _atom_site_symmetry_multiplicity
 _atom_site_fract_x
 _atom_site_fract_y
 _atom_site_fract_z
 _atom_site_occupancy
  Lu  Lu0  1  0.00000000  0.00000000  0.25000000  1
  Lu  Lu1  1  0.00000000  0.00000000  0.75000000  1
  H  H0  1  0.33333300  0.66666700  0.75000000  1
  H  H1  1  0.66666700  0.33333300  0.25000000  1
  Br  Br0  1  0.33333300  0.66666700  0.12046782  1
  Br  Br1  1  0.66666700  0.33333300  0.87953218  1
  Br  Br2  1  0.66666700  0.33333300  0.62046782  1
  Br  Br3  1  0.33333300  0.66666700  0.37953218  1
loop_
_geom_bond_atom_site_label_1
_geom_bond_atom_site_label_2
_geom_bond_distance
_geom_bond_site_symmetry_2
H0 Lu1 2.152201 1_565
H0 Lu1 2.152204 1_555
H0 Lu1 2.152204 1_665
H1 Lu0 2.152201 1_655
H1 Lu0 2.152204 1_665
H1 Lu0 2.152204 1_555
Br0 Lu0 2.859728 1_565
Br0 Lu0 2.859730 1_555
Br0 Lu0 2.859731 1_665
Br1 Lu1 2.859728 1_655
Br1 Lu1 2.859730 1_665
Br1 Lu1 2.859731 1_555
Br2 Lu1 2.859728 1_655
Br2 Lu1 2.859730 1_665
Br2 Lu1 2.859731 1_555
Br3 Lu0 2.859728 1_565
Br3 Lu0 2.859730 1_555
Br3 Lu0 2.859731 1_665
