# generated using pymatgen
data_Y7BI12
_symmetry_space_group_name_H-M   'P 1'
_cell_length_a   9.58303319
_cell_length_b   9.58303383
_cell_length_c   9.58303338
_cell_angle_alpha   107.63386607
_cell_angle_beta   107.63386710
_cell_angle_gamma   107.63386252
_symmetry_Int_Tables_number   1
_chemical_formula_structural   Y7BI12
_chemical_formula_sum   'Y7 B1 I12'
_cell_volume   719.86800483
_cell_formula_units_Z   1
loop_
 _symmetry_equiv_pos_site_id
 _symmetry_equiv_pos_as_xyz
  1  'x, y, z'
loop_
 _atom_site_type_symbol
 _atom_site_label
 _atom_site_symmetry_multiplicity
 _atom_site_fract_x
 _atom_site_fract_y
 _atom_site_fract_z
 _atom_site_occupancy
  Y  Y0  1  0.70678035  0.96820575  0.90070134  1
  Y  Y1  1  0.96820575  0.90070134  0.70678035  1
  Y  Y2  1  0.50000000  0.50000000  0.50000000  1
  Y  Y3  1  0.09929866  0.29321965  0.03179425  1
  Y  Y4  1  0.29321965  0.03179425  0.09929866  1
  Y  Y5  1  0.90070134  0.70678035  0.96820575  1
  Y  Y6  1  0.03179425  0.09929866  0.29321965  1
  B  B0  1  0.00000000  0.00000000  0.00000000  1
  I  I0  1  0.07627173  0.22691324  0.68460732  1
  I  I1  1  0.38972157  0.15214838  0.46985615  1
  I  I2  1  0.61027843  0.84785162  0.53014385  1
  I  I3  1  0.22691324  0.68460732  0.07627173  1
  I  I4  1  0.77308676  0.31539268  0.92372827  1
  I  I5  1  0.68460732  0.07627173  0.22691324  1
  I  I6  1  0.53014385  0.61027843  0.84785162  1
  I  I7  1  0.84785162  0.53014385  0.61027843  1
  I  I8  1  0.92372827  0.77308676  0.31539268  1
  I  I9  1  0.31539268  0.92372827  0.77308676  1
  I  I10  1  0.46985615  0.38972157  0.15214838  1
  I  I11  1  0.15214838  0.46985615  0.38972157  1
loop_
_geom_bond_atom_site_label_1
_geom_bond_atom_site_label_2
_geom_bond_distance
_geom_bond_site_symmetry_2
B0 Y4 2.565089 1_555
B0 Y0 2.565089 1_444
B0 Y6 2.565089 1_555
B0 Y1 2.565089 1_444
B0 Y3 2.565089 1_555
B0 Y5 2.565089 1_444
I0 Y1 3.076436 1_445
I0 Y3 3.116318 1_556
I0 Y6 3.417815 1_555
I1 Y2 3.067506 1_555
I1 Y4 3.110987 1_555
I1 Y6 3.130062 1_555
I2 Y2 3.067506 1_555
I2 Y0 3.110987 1_555
I2 Y1 3.130062 1_555
I3 Y5 3.076436 1_454
I3 Y4 3.116318 1_565
I3 Y3 3.417816 1_555
I4 Y3 3.076436 1_656
I4 Y0 3.116318 1_545
I4 Y5 3.417816 1_555
I5 Y0 3.076436 1_544
I5 Y6 3.116318 1_655
I5 Y4 3.417815 1_555
I6 Y2 3.067506 1_555
I6 Y5 3.110987 1_555
I6 Y0 3.130062 1_555
I7 Y2 3.067506 1_555
I7 Y1 3.110987 1_555
I7 Y5 3.130062 1_555
I8 Y6 3.076436 1_665
I8 Y5 3.116318 1_554
I8 Y1 3.417815 1_555
I9 Y4 3.076436 1_566
I9 Y1 3.116318 1_455
I9 Y0 3.417815 1_555
I10 Y2 3.067506 1_555
I10 Y3 3.110987 1_555
I10 Y4 3.130062 1_555
I11 Y2 3.067506 1_555
I11 Y6 3.110987 1_555
I11 Y3 3.130062 1_555
