# generated using pymatgen
data_LuBi3(Rh2O7)2
_symmetry_space_group_name_H-M   'P 1'
_cell_length_a   7.17169873
_cell_length_b   7.17169856
_cell_length_c   7.17169829
_cell_angle_alpha   60.53512165
_cell_angle_beta   60.53512271
_cell_angle_gamma   60.53511993
_symmetry_Int_Tables_number   1
_chemical_formula_structural   LuBi3(Rh2O7)2
_chemical_formula_sum   'Lu1 Bi3 Rh4 O14'
_cell_volume   263.97974230
_cell_formula_units_Z   1
loop_
 _symmetry_equiv_pos_site_id
 _symmetry_equiv_pos_as_xyz
  1  'x, y, z'
loop_
 _atom_site_type_symbol
 _atom_site_label
 _atom_site_symmetry_multiplicity
 _atom_site_fract_x
 _atom_site_fract_y
 _atom_site_fract_z
 _atom_site_occupancy
  Lu  Lu0  1  0.12500000  0.12500000  0.12500000  1
  Bi  Bi0  1  0.12500000  0.62500000  0.12500000  1
  Bi  Bi1  1  0.62500000  0.12500000  0.12500000  1
  Bi  Bi2  1  0.12500000  0.12500000  0.62500000  1
  Rh  Rh0  1  0.62500000  0.62500000  0.62500000  1
  Rh  Rh1  1  0.62500000  0.62500000  0.12500000  1
  Rh  Rh2  1  0.12500000  0.62500000  0.62500000  1
  Rh  Rh3  1  0.62500000  0.12500000  0.62500000  1
  O  O0  1  0.24562685  0.24562685  0.24562685  1
  O  O1  1  0.28855171  0.71840075  0.28855171  1
  O  O2  1  0.96144829  0.96144829  0.53159925  1
  O  O3  1  0.54198651  0.95806672  0.54198651  1
  O  O4  1  0.70801349  0.70801349  0.29193328  1
  O  O5  1  0.95806672  0.54198651  0.54198651  1
  O  O6  1  0.70801349  0.29193328  0.70801349  1
  O  O7  1  0.28855171  0.28855171  0.71840075  1
  O  O8  1  0.71840075  0.28855171  0.28855171  1
  O  O9  1  0.29193328  0.70801349  0.70801349  1
  O  O10  1  0.96144829  0.53159925  0.96144829  1
  O  O11  1  0.54198651  0.54198651  0.95806672  1
  O  O12  1  0.00437315  0.00437315  0.00437315  1
  O  O13  1  0.53159925  0.96144829  0.96144829  1
loop_
_geom_bond_atom_site_label_1
_geom_bond_atom_site_label_2
_geom_bond_distance
_geom_bond_site_symmetry_2
Lu0 O0 2.110442 1_555
Lu0 O12 2.110442 1_555
Lu0 O10 2.424563 1_454
Lu0 O1 2.424563 1_545
Lu0 O2 2.424563 1_445
Lu0 O7 2.424563 1_554
Lu0 O13 2.424563 1_544
Lu0 O8 2.424563 1_455
Bi0 O12 2.237063 1_565
Bi0 O0 2.237063 1_555
Bi0 O1 2.469747 1_555
Bi0 O10 2.469747 1_454
Bi0 O5 2.481602 1_455
Bi0 O9 2.481602 1_554
Bi0 O4 2.481602 1_455
Bi0 O11 2.481602 1_554
Bi1 O12 2.237063 1_655
Bi1 O0 2.237063 1_555
Bi1 O8 2.469747 1_555
Bi1 O13 2.469747 1_544
Bi1 O3 2.481602 1_545
Bi1 O6 2.481602 1_554
Bi1 O11 2.481602 1_554
Bi1 O4 2.481602 1_545
Bi2 O12 2.237062 1_556
Bi2 O0 2.237062 1_555
Bi2 O7 2.469747 1_555
Bi2 O2 2.469747 1_445
Bi2 O5 2.481602 1_455
Bi2 O9 2.481602 1_545
Bi2 O3 2.481602 1_545
Bi2 O6 2.481602 1_455
O1 Rh2 2.011267 1_555
O1 Rh1 2.011267 1_555
O2 Rh2 2.011267 1_655
O2 Rh3 2.011267 1_565
O3 Rh3 1.973124 1_565
O3 Rh0 1.991283 1_555
O4 Rh1 1.973124 1_555
O4 Rh0 1.991283 1_555
O5 Rh2 1.973124 1_655
O5 Rh0 1.991283 1_555
O6 Rh3 1.973124 1_555
O6 Rh0 1.991283 1_555
O7 Rh2 2.011267 1_555
O7 Rh3 2.011267 1_555
O8 Rh3 2.011267 1_555
O8 Rh1 2.011267 1_555
O9 Rh2 1.973124 1_555
O9 Rh0 1.991283 1_555
O10 Rh2 2.011267 1_655
O10 Rh1 2.011267 1_556
O11 Rh1 1.973124 1_556
O11 Rh0 1.991283 1_555
O13 Rh3 2.011267 1_565
O13 Rh1 2.011267 1_556
