# generated using pymatgen
data_Zr(NbCl3)6
_symmetry_space_group_name_H-M   'P 1'
_cell_length_a   10.02325456
_cell_length_b   10.02325490
_cell_length_c   10.02325428
_cell_angle_alpha   55.92124993
_cell_angle_beta   55.92124655
_cell_angle_gamma   55.92125137
_symmetry_Int_Tables_number   1
_chemical_formula_structural   Zr(NbCl3)6
_chemical_formula_sum   'Zr1 Nb6 Cl18'
_cell_volume   644.74381997
_cell_formula_units_Z   1
loop_
 _symmetry_equiv_pos_site_id
 _symmetry_equiv_pos_as_xyz
  1  'x, y, z'
loop_
 _atom_site_type_symbol
 _atom_site_label
 _atom_site_symmetry_multiplicity
 _atom_site_fract_x
 _atom_site_fract_y
 _atom_site_fract_z
 _atom_site_occupancy
  Zr  Zr0  1  0.00000000  0.00000000  0.00000000  1
  Nb  Nb0  1  0.40609275  0.30275397  0.65038451  1
  Nb  Nb1  1  0.34961549  0.59390725  0.69724603  1
  Nb  Nb2  1  0.69724603  0.34961549  0.59390725  1
  Nb  Nb3  1  0.30275397  0.65038451  0.40609275  1
  Nb  Nb4  1  0.65038451  0.40609275  0.30275397  1
  Nb  Nb5  1  0.59390725  0.69724603  0.34961549  1
  Cl  Cl0  1  0.56782447  0.15500412  0.44410221  1
  Cl  Cl1  1  0.21544323  0.37309930  0.91461451  1
  Cl  Cl2  1  0.91461451  0.21544323  0.37309930  1
  Cl  Cl3  1  0.37309930  0.91461451  0.21544323  1
  Cl  Cl4  1  0.78455677  0.62690070  0.08538549  1
  Cl  Cl5  1  0.08538549  0.78455677  0.62690070  1
  Cl  Cl6  1  0.71686838  0.96547244  0.14823948  1
  Cl  Cl7  1  0.96547244  0.14823948  0.71686838  1
  Cl  Cl8  1  0.14823948  0.71686838  0.96547244  1
  Cl  Cl9  1  0.28313162  0.03452756  0.85176052  1
  Cl  Cl10  1  0.03452756  0.85176052  0.28313162  1
  Cl  Cl11  1  0.85176052  0.28313162  0.03452756  1
  Cl  Cl12  1  0.55589779  0.43217553  0.84499588  1
  Cl  Cl13  1  0.15500412  0.44410221  0.56782447  1
  Cl  Cl14  1  0.44410221  0.56782447  0.15500412  1
  Cl  Cl15  1  0.43217553  0.84499588  0.55589779  1
  Cl  Cl16  1  0.84499588  0.55589779  0.43217553  1
  Cl  Cl17  1  0.62690070  0.08538549  0.78455677  1
loop_
_geom_bond_atom_site_label_1
_geom_bond_atom_site_label_2
_geom_bond_distance
_geom_bond_site_symmetry_2
Cl0 Nb4 2.459703 1_555
Cl0 Nb0 2.465968 1_555
Cl1 Nb0 2.464580 1_555
Cl1 Nb1 2.470207 1_555
Cl2 Nb4 2.464580 1_555
Cl2 Nb2 2.470207 1_555
Cl3 Nb3 2.464580 1_555
Cl3 Nb5 2.470207 1_555
Cl4 Nb5 2.464580 1_555
Cl4 Nb4 2.470207 1_555
Cl5 Nb1 2.464580 1_555
Cl5 Nb3 2.470207 1_555
Cl6 Zr0 2.485977 1_665
Cl6 Nb5 2.768616 1_555
Cl7 Zr0 2.485977 1_656
Cl7 Nb2 2.768616 1_555
Cl8 Zr0 2.485977 1_566
Cl8 Nb1 2.768616 1_555
Cl9 Zr0 2.485977 1_556
Cl9 Nb0 2.768616 1_555
Cl10 Zr0 2.485977 1_565
Cl10 Nb3 2.768616 1_555
Cl11 Zr0 2.485977 1_655
Cl11 Nb4 2.768616 1_555
Cl12 Nb2 2.459703 1_555
Cl12 Nb1 2.465968 1_555
Cl13 Nb0 2.459703 1_555
Cl13 Nb3 2.465968 1_555
Cl14 Nb3 2.459703 1_555
Cl14 Nb4 2.465968 1_555
Cl15 Nb1 2.459703 1_555
Cl15 Nb5 2.465968 1_555
Cl16 Nb5 2.459703 1_555
Cl16 Nb2 2.465968 1_555
Cl17 Nb2 2.464580 1_555
Cl17 Nb0 2.470207 1_555
