# generated using pymatgen
data_Hf7Co16TcP12
_symmetry_space_group_name_H-M   'P 1'
_cell_length_a   11.87759033
_cell_length_b   11.87759003
_cell_length_c   3.61837681
_cell_angle_alpha   90.00000000
_cell_angle_beta   90.00000000
_cell_angle_gamma   120.08036511
_symmetry_Int_Tables_number   1
_chemical_formula_structural   Hf7Co16TcP12
_chemical_formula_sum   'Hf7 Co16 Tc1 P12'
_cell_volume   441.72179508
_cell_formula_units_Z   1
loop_
 _symmetry_equiv_pos_site_id
 _symmetry_equiv_pos_as_xyz
  1  'x, y, z'
loop_
 _atom_site_type_symbol
 _atom_site_label
 _atom_site_symmetry_multiplicity
 _atom_site_fract_x
 _atom_site_fract_y
 _atom_site_fract_z
 _atom_site_occupancy
  Hf  Hf0  1  0.81940699  0.81940699  0.50000000  1
  Hf  Hf1  1  0.99784469  0.17283071  0.50000000  1
  Hf  Hf2  1  0.55710863  0.00008080  0.00000000  1
  Hf  Hf3  1  0.33480244  0.66723014  0.00000000  1
  Hf  Hf4  1  0.66723014  0.33480244  0.00000000  1
  Hf  Hf5  1  0.00008080  0.55710863  0.00000000  1
  Hf  Hf6  1  0.17283071  0.99784469  0.50000000  1
  Co  Co0  1  0.62574581  0.81653082  0.00000000  1
  Co  Co1  1  0.37341992  0.19765578  0.00000000  1
  Co  Co2  1  0.00176059  0.72274045  0.50000000  1
  Co  Co3  1  0.28072397  0.28072397  0.50000000  1
  Co  Co4  1  0.87487466  0.35625451  0.50000000  1
  Co  Co5  1  0.72274045  0.00176059  0.50000000  1
  Co  Co6  1  0.81653082  0.62574581  0.00000000  1
  Co  Co7  1  0.18068155  0.80896370  0.00000000  1
  Co  Co8  1  0.35625451  0.87487466  0.50000000  1
  Co  Co9  1  0.13124302  0.48331268  0.50000000  1
  Co  Co10  1  0.64009683  0.51408326  0.50000000  1
  Co  Co11  1  0.00075437  0.00075437  0.00000000  1
  Co  Co12  1  0.51408326  0.64009683  0.50000000  1
  Co  Co13  1  0.48331268  0.13124302  0.50000000  1
  Co  Co14  1  0.19765578  0.37341992  0.00000000  1
  Co  Co15  1  0.80896370  0.18068155  0.00000000  1
  Tc  Tc0  1  0.44720291  0.44720291  0.00000000  1
  P  P0  1  0.00440581  0.34749151  0.00000000  1
  P  P1  1  0.82532333  0.51755428  0.50000000  1
  P  P2  1  0.69201520  0.17489116  0.50000000  1
  P  P3  1  0.17640013  0.17640013  0.00000000  1
  P  P4  1  0.64122813  0.64122813  0.00000000  1
  P  P5  1  0.82301175  0.99701244  0.00000000  1
  P  P6  1  0.51755428  0.82532333  0.50000000  1
  P  P7  1  0.17489116  0.69201520  0.50000000  1
  P  P8  1  0.34749151  0.00440581  0.00000000  1
  P  P9  1  0.48026361  0.31505543  0.50000000  1
  P  P10  1  0.99701244  0.82301175  0.00000000  1
  P  P11  1  0.31505543  0.48026361  0.50000000  1
loop_
_geom_bond_atom_site_label_1
_geom_bond_atom_site_label_2
_geom_bond_distance
_geom_bond_site_symmetry_2
Hf0 P5 2.763069 1_556
Hf0 P5 2.763069 1_555
Hf0 P10 2.763069 1_556
Hf0 P10 2.763069 1_555
Hf0 P4 2.782294 1_555
Hf0 P4 2.782294 1_556
Hf1 P0 2.724138 1_655
Hf1 P0 2.724138 1_656
Hf1 P5 2.756685 1_545
Hf1 P5 2.756685 1_546
Hf1 P3 2.771760 1_655
Hf1 P3 2.771760 1_656
Hf2 P8 2.515887 1_555
Hf2 P2 2.610891 1_554
Hf2 P2 2.610891 1_555
Hf2 P6 2.612442 1_545
Hf2 P6 2.612442 1_544
Hf3 P6 2.724889 1_555
Hf3 P6 2.724889 1_554
Hf3 P7 2.743702 1_555
Hf3 P7 2.743702 1_554
Hf3 P11 2.781656 1_555
Hf3 P11 2.781656 1_554
Hf4 P1 2.724889 1_554
Hf4 P1 2.724889 1_555
Hf4 P2 2.743702 1_554
Hf4 P2 2.743702 1_555
Hf4 P9 2.781656 1_554
Hf4 P9 2.781656 1_555
Hf5 P0 2.515887 1_555
Hf5 P7 2.610891 1_555
Hf5 P7 2.610891 1_554
Hf5 P1 2.612442 1_455
Hf5 P1 2.612442 1_454
Hf6 P8 2.724138 1_565
Hf6 P8 2.724138 1_566
Hf6 P10 2.756685 1_455
Hf6 P10 2.756685 1_456
Hf6 P3 2.771760 1_566
Hf6 P3 2.771760 1_565
Co0 P4 2.180158 1_555
Co0 P5 2.247287 1_555
Co0 P6 2.251658 1_554
Co0 P6 2.251658 1_555
Co0 Hf2 2.683142 1_565
Co0 Hf0 2.913178 1_555
Co0 Hf0 2.913178 1_554
Co0 Hf3 2.990588 1_555
Co1 P8 2.157508 1_555
Co1 P3 2.224335 1_555
Co1 P9 2.248149 1_554
Co1 P9 2.248149 1_555
Co1 Hf6 2.985612 1_544
Co1 Hf6 2.985612 1_545
Co1 Hf4 3.022157 1_555
Co2 P10 2.182226 1_455
Co2 P10 2.182226 1_456
Co2 P7 2.261446 1_555
Co2 P1 2.282880 1_455
Co2 Hf5 2.665429 1_556
Co2 Hf5 2.665429 1_555
Co2 Hf6 2.854848 1_555
Co2 Hf0 2.915883 1_455
Co3 P3 2.191995 1_555
Co3 P3 2.191995 1_556
Co3 P11 2.194225 1_555
Co3 P9 2.194225 1_555
Co3 Hf6 2.935153 1_545
Co3 Hf1 2.935153 1_455
Co4 P2 2.160471 1_555
Co4 P1 2.268743 1_555
Co4 P0 2.410717 1_656
Co4 P0 2.410717 1_655
Co4 Hf5 2.760382 1_655
Co4 Hf5 2.760382 1_656
Co4 Hf4 2.964939 1_555
Co4 Hf4 2.964939 1_556
Co4 Hf1 3.173258 1_555
Co5 P5 2.182226 1_545
Co5 P5 2.182226 1_546
Co5 P2 2.261446 1_555
Co5 P6 2.282880 1_545
Co5 Hf2 2.665429 1_556
Co5 Hf2 2.665429 1_555
Co5 Hf1 2.854848 1_555
Co5 Hf0 2.915883 1_545
Co6 P4 2.180158 1_555
Co6 P10 2.247287 1_555
Co6 P1 2.251658 1_554
Co6 P1 2.251658 1_555
Co6 Hf5 2.683142 1_655
Co6 Hf0 2.913178 1_555
Co6 Hf0 2.913178 1_554
Co6 Hf4 2.990588 1_555
Co7 P8 2.168834 1_565
Co7 P7 2.260892 1_555
Co7 P7 2.260892 1_554
Co7 P10 2.269775 1_455
Co7 Hf5 2.667886 1_555
Co7 Hf6 2.919698 1_555
Co7 Hf6 2.919698 1_554
Co7 Hf3 3.045364 1_555
Co8 P7 2.160471 1_555
Co8 P6 2.268743 1_555
Co8 P8 2.410717 1_565
Co8 P8 2.410717 1_566
Co8 Hf2 2.760382 1_565
Co8 Hf2 2.760382 1_566
Co8 Hf3 2.964939 1_555
Co8 Hf3 2.964939 1_556
Co8 Hf6 3.173258 1_555
Co9 P11 2.201623 1_555
Co9 P7 2.263929 1_555
Co9 P0 2.389353 1_555
Co9 P0 2.389353 1_556
Co9 Hf5 2.799519 1_556
Co9 Hf5 2.799519 1_555
Co9 Hf3 2.931967 1_555
Co9 Hf3 2.931967 1_556
Co9 Hf1 3.202014 1_455
Co10 P9 2.166488 1_555
Co10 P1 2.179673 1_555
Co10 P4 2.352367 1_555
Co10 P4 2.352367 1_556
Co10 Hf4 2.932474 1_555
Co10 Hf4 2.932474 1_556
Co10 Hf0 3.153587 1_555
Co11 P3 2.083714 1_555
Co11 P10 2.089231 1_445
Co11 P5 2.089231 1_445
Co11 Hf1 2.742717 1_455
Co11 Hf1 2.742717 1_454
Co11 Hf6 2.742717 1_544
Co11 Hf6 2.742717 1_545
Co11 Hf0 2.810957 1_444
Co11 Hf0 2.810957 1_445
Co12 P11 2.166488 1_555
Co12 P6 2.179673 1_555
Co12 P4 2.352367 1_555
Co12 P4 2.352367 1_556
Co12 Hf3 2.932475 1_555
Co12 Hf3 2.932475 1_556
Co12 Hf0 3.153587 1_555
Co13 P9 2.201623 1_555
Co13 P2 2.263929 1_555
Co13 P8 2.389353 1_555
Co13 P8 2.389353 1_556
Co13 Hf2 2.799519 1_556
Co13 Hf2 2.799519 1_555
Co13 Hf4 2.931967 1_555
Co13 Hf4 2.931967 1_556
Co13 Hf6 3.202014 1_545
Co14 P0 2.157508 1_555
Co14 P3 2.224335 1_555
Co14 P11 2.248149 1_555
Co14 P11 2.248149 1_554
Co14 Hf1 2.985612 1_454
Co14 Hf1 2.985612 1_455
Co14 Hf3 3.022157 1_555
Co15 P0 2.168834 1_655
Co15 P2 2.260892 1_555
Co15 P2 2.260892 1_554
Co15 P5 2.269775 1_545
Co15 Hf2 2.667886 1_555
Co15 Hf1 2.919698 1_554
Co15 Hf1 2.919698 1_555
Co15 Hf4 3.045364 1_555
P4 Tc0 2.301752 1_555
P9 Tc0 2.551241 1_555
P9 Tc0 2.551241 1_556
P11 Tc0 2.551241 1_556
P11 Tc0 2.551241 1_555
