# generated using pymatgen
data_Ba6Tc(NiO6)2
_symmetry_space_group_name_H-M   'P 1'
_cell_length_a   8.98907377
_cell_length_b   8.98907333
_cell_length_c   7.19325958
_cell_angle_alpha   68.11979167
_cell_angle_beta   68.11979354
_cell_angle_gamma   36.81802158
_symmetry_Int_Tables_number   1
_chemical_formula_structural   Ba6Tc(NiO6)2
_chemical_formula_sum   'Ba6 Tc1 Ni2 O12'
_cell_volume   320.33108249
_cell_formula_units_Z   1
loop_
 _symmetry_equiv_pos_site_id
 _symmetry_equiv_pos_as_xyz
  1  'x, y, z'
loop_
 _atom_site_type_symbol
 _atom_site_label
 _atom_site_symmetry_multiplicity
 _atom_site_fract_x
 _atom_site_fract_y
 _atom_site_fract_z
 _atom_site_occupancy
  Ba  Ba0  1  0.87504193  0.87504193  0.71784327  1
  Ba  Ba1  1  0.21920210  0.21920210  0.71369952  1
  Ba  Ba2  1  0.54882477  0.54882477  0.70535756  1
  Ba  Ba3  1  0.45117523  0.45117523  0.29464244  1
  Ba  Ba4  1  0.78079790  0.78079790  0.28630048  1
  Ba  Ba5  1  0.12495807  0.12495807  0.28215673  1
  Tc  Tc0  1  0.00000000  0.00000000  0.00000000  1
  Ni  Ni0  1  0.66767297  0.66767297  0.00038296  1
  Ni  Ni1  1  0.33232703  0.33232703  0.99961704  1
  O  O0  1  0.95015051  0.95015051  0.29748974  1
  O  O1  1  0.28581542  0.28581542  0.29611542  1
  O  O2  1  0.61588551  0.61588551  0.29828729  1
  O  O3  1  0.38411449  0.38411449  0.70171271  1
  O  O4  1  0.71418458  0.71418458  0.70388458  1
  O  O5  1  0.04984949  0.04984949  0.70251026  1
  O  O6  1  0.50000000  0.00000000  0.00000000  1
  O  O7  1  0.83694166  0.31883725  0.00056971  1
  O  O8  1  0.16305834  0.68116275  0.99943029  1
  O  O9  1  0.00000000  0.50000000  0.00000000  1
  O  O10  1  0.31883725  0.83694166  0.00056971  1
  O  O11  1  0.68116275  0.16305834  0.99943029  1
loop_
_geom_bond_atom_site_label_1
_geom_bond_atom_site_label_2
_geom_bond_distance
_geom_bond_site_symmetry_2
Ba0 O9 2.698686 1_656
Ba0 O6 2.698686 1_566
Ba0 O0 2.782296 1_555
Ba0 O4 2.784896 1_555
Ba0 O11 2.810033 1_565
Ba0 O8 2.810033 1_655
Ba0 O3 2.842836 1_565
Ba0 O3 2.842836 1_655
Ba0 O5 2.940322 1_665
Ba1 O9 2.716940 1_556
Ba1 O6 2.716940 1_556
Ba1 O1 2.762743 1_555
Ba1 O3 2.780363 1_555
Ba1 O10 2.834214 1_546
Ba1 O7 2.834214 1_456
Ba1 O4 2.841737 1_545
Ba1 O4 2.841737 1_455
Ba1 O5 2.921391 1_555
Ba2 O2 2.692857 1_555
Ba2 O11 2.778167 1_555
Ba2 O8 2.778167 1_555
Ba2 O10 2.783053 1_556
Ba2 O7 2.783053 1_556
Ba2 O4 2.816586 1_555
Ba2 O3 2.820052 1_555
Ba2 O5 2.838812 1_565
Ba2 O5 2.838812 1_655
Ba3 O3 2.692857 1_555
Ba3 O10 2.778167 1_555
Ba3 O7 2.778167 1_555
Ba3 O11 2.783053 1_554
Ba3 O8 2.783053 1_554
Ba3 O1 2.816586 1_555
Ba3 O2 2.820052 1_555
Ba3 O0 2.838812 1_545
Ba3 O0 2.838812 1_455
Ba4 O9 2.716940 1_655
Ba4 O6 2.716940 1_565
Ba4 O4 2.762743 1_555
Ba4 O2 2.780363 1_555
Ba4 O11 2.834214 1_564
Ba4 O8 2.834214 1_654
Ba4 O1 2.841737 1_565
Ba4 O1 2.841737 1_655
Ba4 O0 2.921391 1_555
Ba5 O9 2.698686 1_555
Ba5 O6 2.698686 1_555
Ba5 O5 2.782296 1_555
Ba5 O1 2.784896 1_555
Ba5 O10 2.810033 1_545
Ba5 O7 2.810033 1_455
Ba5 O2 2.842836 1_545
Ba5 O2 2.842836 1_455
Ba5 O0 2.940322 1_445
Ni0 O4 1.961895 1_554
Ni0 O2 1.971138 1_555
Ni0 O6 1.995935 1_565
Ni0 O9 1.995936 1_655
Ni0 O7 2.123002 1_555
Ni0 O10 2.123002 1_555
Ni1 O1 1.961895 1_556
Ni1 O3 1.971138 1_555
Ni1 O6 1.995935 1_556
Ni1 O9 1.995936 1_556
Ni1 O8 2.123002 1_555
Ni1 O11 2.123002 1_555
O0 Tc0 1.967978 1_665
O5 Tc0 1.967978 1_556
O7 Tc0 1.908128 1_655
O8 Tc0 1.908128 1_566
O10 Tc0 1.908128 1_565
O11 Tc0 1.908128 1_656
