# generated using pymatgen
data_LiTa3(GeRu3)2
_symmetry_space_group_name_H-M   'P 1'
_cell_length_a   4.35266530
_cell_length_b   6.12548382
_cell_length_c   13.02761191
_cell_angle_alpha   90.00000000
_cell_angle_beta   89.99994840
_cell_angle_gamma   90.00000000
_symmetry_Int_Tables_number   1
_chemical_formula_structural   LiTa3(GeRu3)2
_chemical_formula_sum   'Li2 Ta6 Ge4 Ru12'
_cell_volume   347.34454533
_cell_formula_units_Z   2
loop_
 _symmetry_equiv_pos_site_id
 _symmetry_equiv_pos_as_xyz
  1  'x, y, z'
loop_
 _atom_site_type_symbol
 _atom_site_label
 _atom_site_symmetry_multiplicity
 _atom_site_fract_x
 _atom_site_fract_y
 _atom_site_fract_z
 _atom_site_occupancy
  Li  Li0  1  0.00001819  0.50000000  0.66796218  1
  Li  Li1  1  0.50002119  0.00000000  0.83203782  1
  Ta  Ta0  1  0.00001869  0.00000000  0.99206994  1
  Ta  Ta1  1  0.49995477  0.50000000  0.16439227  1
  Ta  Ta2  1  0.99995577  0.00000000  0.33560873  1
  Ta  Ta3  1  0.50001569  0.50000000  0.50792906  1
  Ta  Ta4  1  0.00007481  0.00000000  0.67126372  1
  Ta  Ta5  1  0.50007581  0.50000000  0.82873628  1
  Ge  Ge0  1  0.00002956  0.50000000  0.99400337  1
  Ge  Ge1  1  0.49996404  0.00000000  0.16440986  1
  Ge  Ge2  1  0.99996804  0.50000000  0.33558914  1
  Ge  Ge3  1  0.50002556  0.00000000  0.50599863  1
  Ru  Ru0  1  0.50000000  0.24993164  0.00326458  1
  Ru  Ru1  1  0.50000000  0.75006736  0.00326458  1
  Ru  Ru2  1  0.99995160  0.25093861  0.16836292  1
  Ru  Ru3  1  0.99995160  0.74906139  0.16836292  1
  Ru  Ru4  1  0.49995360  0.24905939  0.33163708  1
  Ru  Ru5  1  0.49995360  0.75094061  0.33163708  1
  Ru  Ru6  1  0.99999600  0.25006836  0.49673542  1
  Ru  Ru7  1  0.99999600  0.74993064  0.49673542  1
  Ru  Ru8  1  0.50001887  0.25048770  0.66586874  1
  Ru  Ru9  1  0.50001887  0.74951230  0.66586874  1
  Ru  Ru10  1  0.00002087  0.24951430  0.83413026  1
  Ru  Ru11  1  0.00002087  0.75048570  0.83413026  1
loop_
_geom_bond_atom_site_label_1
_geom_bond_atom_site_label_2
_geom_bond_distance
_geom_bond_site_symmetry_2
Li0 Ru11 2.653387 1_555
Li0 Ru10 2.653387 1_555
Li0 Ru9 2.659532 1_455
Li0 Ru8 2.659532 1_455
Li0 Ru9 2.659537 1_555
Li0 Ru8 2.659537 1_555
Li0 Ru7 2.705496 1_455
Li0 Ru6 2.705500 1_455
Li1 Ru8 2.653404 1_555
Li1 Ru9 2.653404 1_545
Li1 Ru10 2.659540 1_655
Li1 Ru11 2.659540 1_645
Li1 Ru10 2.659543 1_555
Li1 Ru11 2.659543 1_545
Li1 Ru0 2.705500 1_556
Li1 Ru1 2.705503 1_546
Ge0 Ru11 2.586915 1_555
Ge0 Ru10 2.586915 1_555
Ge0 Ru1 2.663979 1_556
Ge0 Ru0 2.663982 1_556
Ge0 Ru1 2.664189 1_456
Ge0 Ru0 2.664192 1_456
Ge0 Ru2 2.736272 1_456
Ge0 Ru3 2.736272 1_456
Ge0 Ta5 3.061228 1_455
Ge0 Ta5 3.061512 1_555
Ge0 Ta0 3.062845 1_565
Ge0 Ta0 3.062845 1_555
Ge0 Ta1 3.108433 1_556
Ge0 Ta1 3.108886 1_456
Ge1 Ru0 2.598276 1_555
Ge1 Ru1 2.598279 1_545
Ge1 Ru4 2.659635 1_555
Ge1 Ru5 2.659635 1_545
Ge1 Ru3 2.664879 1_545
Ge1 Ru2 2.664879 1_555
Ge1 Ru3 2.664967 1_445
Ge1 Ru2 2.664967 1_455
Ge2 Ru7 2.598282 1_555
Ge2 Ru6 2.598286 1_555
Ge2 Ru2 2.659631 1_555
Ge2 Ru3 2.659631 1_555
Ge2 Ru5 2.664879 1_655
Ge2 Ru4 2.664879 1_655
Ge2 Ru5 2.664981 1_555
Ge2 Ru4 2.664981 1_555
Ge3 Ru8 2.586890 1_555
Ge3 Ru9 2.586890 1_545
Ge3 Ru6 2.663983 1_555
Ge3 Ru7 2.663987 1_545
Ge3 Ru6 2.664194 1_455
Ge3 Ru7 2.664197 1_445
Ge3 Ru4 2.736286 1_555
Ge3 Ru5 2.736286 1_545
Ge3 Ta4 3.061198 1_555
Ge3 Ta4 3.061505 1_655
Ge3 Ta3 3.062845 1_555
Ge3 Ta3 3.062845 1_545
Ge3 Ta2 3.108454 1_555
Ge3 Ta2 3.108882 1_455
Ru0 Ta1 2.598584 1_555
Ru0 Ta0 2.664799 1_554
Ru0 Ta0 2.664932 1_654
Ru0 Ta5 2.741538 1_554
Ru1 Ta1 2.598580 1_555
Ru1 Ta0 2.664803 1_564
Ru1 Ta0 2.664935 1_664
Ru1 Ta5 2.741535 1_554
Ru2 Ta1 2.658300 1_555
Ru2 Ta1 2.658323 1_655
Ru2 Ta2 2.666452 1_555
Ru2 Ta0 2.763596 1_654
Ru3 Ta1 2.658300 1_555
Ru3 Ta1 2.658323 1_655
Ru3 Ta2 2.666452 1_565
Ru3 Ta0 2.763596 1_664
Ru4 Ta2 2.658297 1_455
Ru4 Ta2 2.658313 1_555
Ru4 Ta1 2.666449 1_555
Ru4 Ta3 2.763592 1_555
Ru5 Ta2 2.658297 1_465
Ru5 Ta2 2.658313 1_565
Ru5 Ta1 2.666449 1_555
Ru5 Ta3 2.763592 1_555
Ru6 Ta2 2.598573 1_555
Ru6 Ta3 2.664795 1_555
Ru6 Ta3 2.664935 1_655
Ru6 Ta4 2.741538 1_655
Ru7 Ta2 2.598577 1_565
Ru7 Ta3 2.664791 1_555
Ru7 Ta3 2.664931 1_655
Ru7 Ta4 2.741542 1_665
Ru8 Ta3 2.563119 1_555
Ru8 Ta5 2.614935 1_555
Ru8 Ta4 2.663561 1_555
Ru8 Ta4 2.663959 1_655
Ru9 Ta3 2.563119 1_555
Ru9 Ta5 2.614935 1_555
Ru9 Ta4 2.663561 1_565
Ru9 Ta4 2.663959 1_665
Ru10 Ta0 2.563126 1_555
Ru10 Ta4 2.614932 1_555
Ru10 Ta5 2.663558 1_455
Ru10 Ta5 2.663948 1_555
Ru11 Ta0 2.563126 1_565
Ru11 Ta4 2.614932 1_565
Ru11 Ta5 2.663558 1_455
Ru11 Ta5 2.663948 1_555
