# generated using pymatgen
data_Ba6Lu3RhS12
_symmetry_space_group_name_H-M   'P 1'
_cell_length_a   8.34564092
_cell_length_b   8.34563982
_cell_length_c   8.34564058
_cell_angle_alpha   93.44821723
_cell_angle_beta   93.44821286
_cell_angle_gamma   93.44822727
_symmetry_Int_Tables_number   1
_chemical_formula_structural   Ba6Lu3RhS12
_chemical_formula_sum   'Ba6 Lu3 Rh1 S12'
_cell_volume   577.98147807
_cell_formula_units_Z   1
loop_
 _symmetry_equiv_pos_site_id
 _symmetry_equiv_pos_as_xyz
  1  'x, y, z'
loop_
 _atom_site_type_symbol
 _atom_site_label
 _atom_site_symmetry_multiplicity
 _atom_site_fract_x
 _atom_site_fract_y
 _atom_site_fract_z
 _atom_site_occupancy
  Ba  Ba0  1  0.36940872  0.74403602  0.12812364  1
  Ba  Ba1  1  0.12812364  0.36940872  0.74403602  1
  Ba  Ba2  1  0.74403602  0.12812364  0.36940872  1
  Ba  Ba3  1  0.63059128  0.25596398  0.87187636  1
  Ba  Ba4  1  0.87187636  0.63059128  0.25596398  1
  Ba  Ba5  1  0.25596398  0.87187636  0.63059128  1
  Lu  Lu0  1  0.00000000  0.00000000  0.00000000  1
  Lu  Lu1  1  0.25676477  0.25676477  0.25676477  1
  Lu  Lu2  1  0.74323523  0.74323523  0.74323523  1
  Rh  Rh0  1  0.50000000  0.50000000  0.50000000  1
  S  S0  1  0.53412669  0.41656636  0.21767637  1
  S  S1  1  0.21767637  0.53412669  0.41656636  1
  S  S2  1  0.41656636  0.21767637  0.53412669  1
  S  S3  1  0.96523813  0.30137562  0.10018577  1
  S  S4  1  0.10018577  0.96523813  0.30137562  1
  S  S5  1  0.30137562  0.10018577  0.96523813  1
  S  S6  1  0.46587331  0.58343364  0.78232363  1
  S  S7  1  0.78232363  0.46587331  0.58343364  1
  S  S8  1  0.58343364  0.78232363  0.46587331  1
  S  S9  1  0.03476187  0.69862438  0.89981423  1
  S  S10  1  0.69862438  0.89981423  0.03476187  1
  S  S11  1  0.89981423  0.03476187  0.69862438  1
loop_
_geom_bond_atom_site_label_1
_geom_bond_atom_site_label_2
_geom_bond_distance
_geom_bond_site_symmetry_2
Ba0 S10 3.129825 1_555
Ba0 S8 3.233444 1_555
Ba0 S0 3.239033 1_555
Ba0 S6 3.273703 1_554
Ba0 S9 3.274108 1_554
Ba0 S1 3.327814 1_555
Ba0 S4 3.333999 1_555
Ba0 S5 3.406032 1_564
Ba1 S9 3.129825 1_555
Ba1 S6 3.233443 1_555
Ba1 S1 3.239033 1_555
Ba1 S7 3.273703 1_455
Ba1 S11 3.274107 1_455
Ba1 S2 3.327814 1_555
Ba1 S5 3.333999 1_555
Ba1 S3 3.406032 1_456
Ba2 S11 3.129826 1_555
Ba2 S7 3.233443 1_555
Ba2 S2 3.239033 1_555
Ba2 S8 3.273703 1_545
Ba2 S10 3.274108 1_545
Ba2 S0 3.327814 1_555
Ba2 S3 3.333999 1_555
Ba2 S4 3.406033 1_645
Ba3 S5 3.129825 1_555
Ba3 S2 3.233444 1_555
Ba3 S6 3.239033 1_555
Ba3 S0 3.273703 1_556
Ba3 S3 3.274108 1_556
Ba3 S7 3.327814 1_555
Ba3 S11 3.333999 1_555
Ba3 S10 3.406032 1_546
Ba4 S3 3.129825 1_555
Ba4 S0 3.233443 1_555
Ba4 S7 3.239033 1_555
Ba4 S1 3.273703 1_655
Ba4 S4 3.274107 1_655
Ba4 S8 3.327814 1_555
Ba4 S10 3.333999 1_555
Ba4 S9 3.406032 1_654
Ba5 S4 3.129826 1_555
Ba5 S1 3.233443 1_555
Ba5 S8 3.239033 1_555
Ba5 S2 3.273703 1_565
Ba5 S5 3.274108 1_565
Ba5 S6 3.327814 1_555
Ba5 S9 3.333999 1_555
Ba5 S11 3.406033 1_465
Lu0 S3 2.640705 1_455
Lu0 S9 2.640705 1_544
Lu0 S5 2.640705 1_554
Lu0 S10 2.640705 1_445
Lu0 S4 2.640706 1_545
Lu0 S11 2.640706 1_454
Lu1 S0 2.648580 1_555
Lu1 S1 2.648580 1_555
Lu1 S2 2.648580 1_555
Lu1 S4 2.747840 1_545
Lu1 S5 2.747840 1_554
Lu1 S3 2.747841 1_455
Lu2 S6 2.648580 1_555
Lu2 S7 2.648580 1_555
Lu2 S8 2.648580 1_555
Lu2 S11 2.747840 1_565
Lu2 S10 2.747840 1_556
Lu2 S9 2.747841 1_655
Rh0 S8 2.454532 1_555
Rh0 S2 2.454532 1_555
Rh0 S6 2.454532 1_555
Rh0 S0 2.454532 1_555
Rh0 S7 2.454532 1_555
Rh0 S1 2.454532 1_555
