# generated using pymatgen
data_Zr6MnZn22As
_symmetry_space_group_name_H-M   'P 1'
_cell_length_a   8.69662122
_cell_length_b   8.69662068
_cell_length_c   8.69662141
_cell_angle_alpha   60.00000089
_cell_angle_beta   60.00000293
_cell_angle_gamma   60.00000204
_symmetry_Int_Tables_number   1
_chemical_formula_structural   Zr6MnZn22As
_chemical_formula_sum   'Zr6 Mn1 Zn22 As1'
_cell_volume   465.08964301
_cell_formula_units_Z   1
loop_
 _symmetry_equiv_pos_site_id
 _symmetry_equiv_pos_as_xyz
  1  'x, y, z'
loop_
 _atom_site_type_symbol
 _atom_site_label
 _atom_site_symmetry_multiplicity
 _atom_site_fract_x
 _atom_site_fract_y
 _atom_site_fract_z
 _atom_site_occupancy
  Zr  Zr0  1  0.71323321  0.28676679  0.28676679  1
  Zr  Zr1  1  0.28676679  0.71323321  0.71323321  1
  Zr  Zr2  1  0.28676679  0.71323321  0.28676679  1
  Zr  Zr3  1  0.71323321  0.28676679  0.71323321  1
  Zr  Zr4  1  0.28676679  0.28676679  0.71323321  1
  Zr  Zr5  1  0.71323321  0.71323321  0.28676679  1
  Mn  Mn0  1  0.00000000  0.00000000  0.00000000  1
  Zn  Zn0  1  0.12212083  0.12212083  0.12212083  1
  Zn  Zn1  1  0.87787917  0.87787917  0.87787917  1
  Zn  Zn2  1  0.12212083  0.12212083  0.63363950  1
  Zn  Zn3  1  0.12212083  0.63363950  0.12212083  1
  Zn  Zn4  1  0.87787917  0.87787917  0.36636050  1
  Zn  Zn5  1  0.87787917  0.36636050  0.87787917  1
  Zn  Zn6  1  0.63363950  0.12212083  0.12212083  1
  Zn  Zn7  1  0.36636050  0.87787917  0.87787917  1
  Zn  Zn8  1  0.50000000  0.00000000  0.00000000  1
  Zn  Zn9  1  0.00000000  0.50000000  0.50000000  1
  Zn  Zn10  1  0.00000000  0.50000000  0.00000000  1
  Zn  Zn11  1  0.50000000  0.00000000  0.50000000  1
  Zn  Zn12  1  0.00000000  0.00000000  0.50000000  1
  Zn  Zn13  1  0.50000000  0.50000000  0.00000000  1
  Zn  Zn14  1  0.33277582  0.33277582  0.33277582  1
  Zn  Zn15  1  0.66722418  0.66722418  0.66722418  1
  Zn  Zn16  1  0.33277582  0.33277582  0.00167353  1
  Zn  Zn17  1  0.33277582  0.00167353  0.33277582  1
  Zn  Zn18  1  0.66722418  0.66722418  0.99832647  1
  Zn  Zn19  1  0.66722418  0.99832647  0.66722418  1
  Zn  Zn20  1  0.00167353  0.33277582  0.33277582  1
  Zn  Zn21  1  0.99832647  0.66722418  0.66722418  1
  As  As0  1  0.50000000  0.50000000  0.50000000  1
loop_
_geom_bond_atom_site_label_1
_geom_bond_atom_site_label_2
_geom_bond_distance
_geom_bond_site_symmetry_2
Mn0 Zn3 2.601438 1_545
Mn0 Zn5 2.601438 1_454
Mn0 Zn7 2.601439 1_544
Mn0 Zn6 2.601439 1_455
Mn0 Zn4 2.601439 1_445
Mn0 Zn2 2.601439 1_554
Mn0 Zn0 2.601453 1_555
Mn0 Zn1 2.601453 1_444
Zn0 Zn10 2.683853 1_555
Zn0 Zn8 2.683853 1_555
Zn0 Zn12 2.683853 1_555
Zn0 Zn16 2.706990 1_555
Zn0 Zn20 2.706990 1_555
Zn0 Zn17 2.706990 1_555
Zn0 Zr2 2.934650 1_545
Zn0 Zr0 2.934650 1_455
Zn0 Zr4 2.934650 1_554
Zn0 Zn4 3.003899 1_445
Zn0 Zn7 3.003899 1_544
Zn0 Zn5 3.003899 1_454
Zn1 Zn10 2.683853 1_656
Zn1 Zn8 2.683853 1_566
Zn1 Zn12 2.683853 1_665
Zn1 Zn18 2.706990 1_555
Zn1 Zn21 2.706990 1_555
Zn1 Zn19 2.706990 1_555
Zn1 Zr3 2.934650 1_565
Zn1 Zr1 2.934650 1_655
Zn1 Zr5 2.934650 1_556
Zn1 Zn2 3.003899 1_665
Zn1 Zn6 3.003899 1_566
Zn1 Zn3 3.003899 1_656
Zn2 Zn9 2.683853 1_555
Zn2 Zn20 2.706997 1_555
Zn2 Zr4 2.934637 1_555
Zn2 Zr1 2.934652 1_545
Zn2 Zr3 2.934652 1_455
Zn2 Zn7 3.003874 1_545
Zn2 Zn5 3.003874 1_455
Zn3 Zn9 2.683853 1_555
Zn3 Zr2 2.934637 1_555
Zn3 Zr5 2.934652 1_455
Zn3 Zr1 2.934652 1_554
Zn3 Zn7 3.003874 1_554
Zn3 Zn4 3.003874 1_455
Zn4 Zn9 2.683853 1_655
Zn4 Zr5 2.934637 1_555
Zn4 Zr0 2.934652 1_565
Zn4 Zr2 2.934652 1_655
Zn4 Zn6 3.003874 1_565
Zn5 Zn9 2.683853 1_655
Zn5 Zr3 2.934637 1_555
Zn5 Zr4 2.934652 1_655
Zn5 Zr0 2.934652 1_556
Zn5 Zn6 3.003874 1_556
Zn6 Zn8 2.683867 1_555
Zn6 Zr0 2.934637 1_555
Zn6 Zr5 2.934652 1_545
Zn6 Zr3 2.934652 1_554
Zn7 Zn8 2.683867 1_566
Zn7 Zr1 2.934637 1_555
Zn7 Zr4 2.934652 1_565
Zn7 Zr2 2.934652 1_556
Zn8 Zr3 3.107793 1_554
Zn8 Zr2 3.107793 1_545
Zn8 Zr5 3.107793 1_545
Zn8 Zr4 3.107793 1_554
Zn9 Zr2 3.107793 1_555
Zn9 Zr3 3.107793 1_455
Zn9 Zr4 3.107793 1_555
Zn9 Zr5 3.107793 1_455
Zn10 Zn16 2.510529 1_555
Zn10 Zn18 2.510529 1_454
Zn10 Zn20 2.510529 1_555
Zn10 Zn21 2.510529 1_454
Zn10 Zn3 2.683867 1_555
Zn10 Zn5 2.683867 1_454
Zn10 Zr1 3.107793 1_554
Zn10 Zr0 3.107793 1_455
Zn10 Zr5 3.107793 1_455
Zn10 Zr4 3.107793 1_554
Zn11 Zn19 2.510521 1_545
Zn11 Zn17 2.510521 1_555
Zn11 Zn14 2.510526 1_555
Zn11 Zn15 2.510526 1_545
Zn11 Zn4 2.683853 1_545
Zn11 Zn2 2.683853 1_555
Zn11 Zn7 2.683853 1_545
Zn11 Zn6 2.683853 1_555
Zn11 Zr0 3.107793 1_555
Zn11 Zr1 3.107793 1_545
Zn11 Zr4 3.107793 1_555
Zn11 Zr5 3.107793 1_545
Zn12 Zn20 2.510529 1_555
Zn12 Zn21 2.510529 1_445
Zn12 Zn17 2.510529 1_555
Zn12 Zn19 2.510529 1_445
Zn12 Zn2 2.683867 1_555
Zn12 Zn4 2.683867 1_445
Zn12 Zr1 3.107793 1_545
Zn12 Zr3 3.107793 1_455
Zn12 Zr0 3.107793 1_455
Zn12 Zr2 3.107793 1_545
Zn13 Zn18 2.510521 1_554
Zn13 Zn16 2.510521 1_555
Zn13 Zn14 2.510526 1_555
Zn13 Zn15 2.510526 1_554
Zn13 Zn7 2.683853 1_554
Zn13 Zn6 2.683853 1_555
Zn13 Zn5 2.683853 1_554
Zn13 Zn3 2.683853 1_555
Zn13 Zr2 3.107793 1_555
Zn13 Zr0 3.107793 1_555
Zn13 Zr3 3.107793 1_554
Zn13 Zr1 3.107793 1_554
Zn14 Zn9 2.510526 1_555
Zn14 Zn3 2.706992 1_555
Zn14 Zn2 2.706992 1_555
Zn14 Zn6 2.706992 1_555
Zn14 Zn17 2.879471 1_555
Zn14 Zn20 2.879471 1_555
Zn14 Zn16 2.879471 1_555
Zn14 Zr2 2.963103 1_555
Zn14 Zr0 2.963103 1_555
Zn14 Zr4 2.963103 1_555
Zn15 Zn9 2.510526 1_655
Zn15 Zn5 2.706992 1_555
Zn15 Zn4 2.706992 1_555
Zn15 Zn7 2.706992 1_555
Zn15 Zn19 2.879471 1_555
Zn15 Zn21 2.879471 1_555
Zn15 Zn18 2.879471 1_555
Zn15 Zr3 2.963103 1_555
Zn15 Zr1 2.963103 1_555
Zn15 Zr5 2.963103 1_555
Zn16 Zn8 2.510529 1_555
Zn16 Zn3 2.706997 1_555
Zn16 Zn6 2.706997 1_555
Zn16 Zn17 2.879471 1_555
Zn16 Zn20 2.879471 1_555
Zn16 Zr1 2.963106 1_554
Zn16 Zr3 2.963106 1_554
Zn16 Zr4 2.963112 1_554
Zn17 Zn8 2.510529 1_555
Zn17 Zn6 2.706997 1_555
Zn17 Zn2 2.706997 1_555
Zn17 Zn20 2.879471 1_555
Zn17 Zr1 2.963106 1_545
Zn17 Zr5 2.963106 1_545
Zn17 Zr2 2.963112 1_545
Zn18 Zn8 2.510529 1_566
Zn18 Zn5 2.706997 1_555
Zn18 Zn7 2.706997 1_555
Zn18 Zn19 2.879471 1_555
Zn18 Zn21 2.879471 1_555
Zn18 Zr0 2.963106 1_556
Zn18 Zr2 2.963106 1_556
Zn18 Zr5 2.963112 1_556
Zn19 Zn8 2.510529 1_566
Zn19 Zn7 2.706997 1_555
Zn19 Zn4 2.706997 1_555
Zn19 Zn21 2.879471 1_555
Zn19 Zr0 2.963106 1_565
Zn19 Zr4 2.963106 1_565
Zn19 Zr3 2.963112 1_565
Zn20 Zn9 2.510521 1_555
Zn20 Zn3 2.706997 1_555
Zn20 Zr5 2.963106 1_455
Zn20 Zr3 2.963106 1_455
Zn20 Zr0 2.963112 1_455
Zn21 Zn9 2.510521 1_655
Zn21 Zn5 2.706997 1_555
Zn21 Zn4 2.706997 1_555
Zn21 Zr4 2.963106 1_655
Zn21 Zr2 2.963106 1_655
Zn21 Zr1 2.963112 1_655
As0 Zr5 2.622530 1_555
As0 Zr4 2.622530 1_555
As0 Zr1 2.622530 1_555
As0 Zr3 2.622530 1_555
As0 Zr0 2.622530 1_555
As0 Zr2 2.622530 1_555
