# generated using pymatgen
data_Ta3AlZn2C
_symmetry_space_group_name_H-M   'P 1'
_cell_length_a   8.25853873
_cell_length_b   8.25853940
_cell_length_c   8.25853837
_cell_angle_alpha   59.99999632
_cell_angle_beta   59.99999363
_cell_angle_gamma   59.99999618
_symmetry_Int_Tables_number   1
_chemical_formula_structural   Ta3AlZn2C
_chemical_formula_sum   'Ta12 Al4 Zn8 C4'
_cell_volume   398.28559810
_cell_formula_units_Z   4
loop_
 _symmetry_equiv_pos_site_id
 _symmetry_equiv_pos_as_xyz
  1  'x, y, z'
loop_
 _atom_site_type_symbol
 _atom_site_label
 _atom_site_symmetry_multiplicity
 _atom_site_fract_x
 _atom_site_fract_y
 _atom_site_fract_z
 _atom_site_occupancy
  Ta  Ta0  1  0.81706474  0.18293526  0.81706474  1
  Ta  Ta1  1  0.06706474  0.43293526  0.43293526  1
  Ta  Ta2  1  0.43293526  0.06706474  0.06706474  1
  Ta  Ta3  1  0.06706474  0.43293526  0.06706474  1
  Ta  Ta4  1  0.43293526  0.43293526  0.06706474  1
  Ta  Ta5  1  0.06706474  0.06706474  0.43293526  1
  Ta  Ta6  1  0.81706474  0.81706474  0.18293526  1
  Ta  Ta7  1  0.18293526  0.81706474  0.81706474  1
  Ta  Ta8  1  0.81706474  0.18293526  0.18293526  1
  Ta  Ta9  1  0.18293526  0.18293526  0.81706474  1
  Ta  Ta10  1  0.43293526  0.06706474  0.43293526  1
  Ta  Ta11  1  0.18293526  0.81706474  0.18293526  1
  Al  Al0  1  0.62500000  0.62500000  0.62500000  1
  Al  Al1  1  0.12500000  0.62500000  0.62500000  1
  Al  Al2  1  0.62500000  0.12500000  0.62500000  1
  Al  Al3  1  0.62500000  0.62500000  0.12500000  1
  Zn  Zn0  1  0.41644165  0.41644165  0.41644165  1
  Zn  Zn1  1  0.49932596  0.83355835  0.83355835  1
  Zn  Zn2  1  0.83355835  0.49932596  0.83355835  1
  Zn  Zn3  1  0.83355835  0.83355835  0.49932596  1
  Zn  Zn4  1  0.41644165  0.75067404  0.41644165  1
  Zn  Zn5  1  0.41644165  0.41644165  0.75067404  1
  Zn  Zn6  1  0.75067404  0.41644165  0.41644165  1
  Zn  Zn7  1  0.83355835  0.83355835  0.83355835  1
  C  C0  1  0.12500000  0.12500000  0.12500000  1
  C  C1  1  0.62500000  0.12500000  0.12500000  1
  C  C2  1  0.12500000  0.62500000  0.12500000  1
  C  C3  1  0.12500000  0.12500000  0.62500000  1
loop_
_geom_bond_atom_site_label_1
_geom_bond_atom_site_label_2
_geom_bond_distance
_geom_bond_site_symmetry_2
Ta0 Zn7 2.755871 1_545
Ta0 Zn2 2.755879 1_555
Ta0 Zn6 3.056538 1_555
Ta0 Zn5 3.056538 1_555
Ta1 Zn0 2.755870 1_555
Ta1 Zn6 2.755879 1_455
Ta1 Zn2 3.056538 1_455
Ta1 Zn3 3.056538 1_455
Ta2 Zn4 2.755874 1_545
Ta2 Zn5 2.755874 1_554
Ta2 Zn1 3.056531 1_544
Ta2 Zn7 3.056535 1_544
Ta3 Zn6 2.755874 1_455
Ta3 Zn5 2.755874 1_554
Ta3 Zn2 3.056531 1_454
Ta3 Zn7 3.056535 1_454
Ta4 Zn0 2.755870 1_555
Ta4 Zn5 2.755879 1_554
Ta4 Zn2 3.056538 1_554
Ta4 Zn1 3.056538 1_554
Ta5 Zn4 2.755874 1_545
Ta5 Zn6 2.755874 1_455
Ta5 Zn3 3.056531 1_445
Ta5 Zn7 3.056535 1_445
Ta6 Zn7 2.755870 1_554
Ta6 Zn3 2.755879 1_555
Ta6 Zn4 3.056538 1_555
Ta6 Zn6 3.056538 1_555
Ta7 Zn7 2.755870 1_455
Ta7 Zn1 2.755879 1_555
Ta7 Zn4 3.056538 1_555
Ta7 Zn5 3.056538 1_555
Ta8 Zn2 2.755874 1_554
Ta8 Zn3 2.755874 1_545
Ta8 Zn6 3.056531 1_555
Ta8 Zn0 3.056535 1_555
Ta9 Zn2 2.755874 1_455
Ta9 Zn1 2.755874 1_545
Ta9 Zn5 3.056531 1_555
Ta9 Zn0 3.056535 1_555
Ta10 Zn0 2.755871 1_555
Ta10 Zn4 2.755879 1_545
Ta10 Zn1 3.056538 1_545
Ta10 Zn3 3.056538 1_545
Ta11 Zn1 2.755874 1_554
Ta11 Zn3 2.755874 1_455
Ta11 Zn4 3.056531 1_555
Ta11 Zn0 3.056535 1_555
Al0 Zn2 2.530174 1_555
Al0 Zn4 2.530174 1_555
Al0 Zn1 2.530174 1_555
Al0 Zn6 2.530174 1_555
Al0 Zn3 2.530174 1_555
Al0 Zn5 2.530174 1_555
Al0 Ta4 3.048706 1_556
Al0 Ta6 3.048706 1_555
Al0 Ta1 3.048707 1_655
Al0 Ta7 3.048707 1_555
Al0 Ta10 3.048707 1_565
Al0 Ta0 3.048707 1_555
Al1 Zn4 2.530167 1_555
Al1 Zn2 2.530167 1_455
Al1 Zn5 2.530167 1_555
Al1 Zn3 2.530167 1_455
Al1 Zn7 2.530172 1_455
Al1 Zn0 2.530172 1_555
Al1 Ta3 3.048706 1_556
Al1 Ta11 3.048706 1_555
Al1 Ta7 3.048707 1_555
Al1 Ta1 3.048707 1_555
Al1 Ta5 3.048707 1_565
Al1 Ta9 3.048707 1_555
Al2 Zn5 2.530167 1_555
Al2 Zn3 2.530167 1_545
Al2 Zn6 2.530167 1_555
Al2 Zn1 2.530167 1_545
Al2 Zn7 2.530172 1_545
Al2 Zn0 2.530172 1_555
Al2 Ta2 3.048706 1_556
Al2 Ta8 3.048706 1_555
Al2 Ta5 3.048707 1_655
Al2 Ta9 3.048707 1_555
Al2 Ta0 3.048707 1_555
Al2 Ta10 3.048707 1_555
Al3 Zn4 2.530167 1_555
Al3 Zn2 2.530167 1_554
Al3 Zn6 2.530167 1_555
Al3 Zn1 2.530167 1_554
Al3 Zn7 2.530172 1_554
Al3 Zn0 2.530172 1_555
Al3 Ta3 3.048707 1_655
Al3 Ta11 3.048707 1_555
Al3 Ta2 3.048707 1_565
Al3 Ta8 3.048707 1_555
Al3 Ta6 3.048707 1_555
Al3 Ta4 3.048707 1_555
Zn0 Zn5 2.760271 1_555
Zn0 Zn6 2.760271 1_555
Zn0 Zn4 2.760271 1_555
Zn1 Zn3 2.760271 1_555
Zn1 Zn2 2.760271 1_555
Zn1 Zn7 2.760271 1_555
Zn2 Zn3 2.760271 1_555
Zn2 Zn7 2.760271 1_555
Zn3 Zn7 2.760271 1_555
Zn4 Zn5 2.760271 1_555
Zn4 Zn6 2.760271 1_555
Zn5 Zn6 2.760271 1_555
C0 Ta5 2.172686 1_555
C0 Ta9 2.172686 1_554
C0 Ta2 2.172686 1_555
C0 Ta8 2.172686 1_455
C0 Ta3 2.172686 1_555
C0 Ta11 2.172686 1_545
C1 Ta10 2.172686 1_555
C1 Ta0 2.172686 1_554
C1 Ta4 2.172686 1_555
C1 Ta6 2.172686 1_545
C1 Ta8 2.172686 1_555
C1 Ta2 2.172686 1_555
C2 Ta1 2.172686 1_555
C2 Ta7 2.172686 1_554
C2 Ta6 2.172686 1_455
C2 Ta4 2.172686 1_555
C2 Ta11 2.172686 1_555
C2 Ta3 2.172686 1_555
C3 Ta10 2.172686 1_555
C3 Ta0 2.172686 1_455
C3 Ta9 2.172686 1_555
C3 Ta5 2.172686 1_555
C3 Ta1 2.172686 1_555
C3 Ta7 2.172686 1_545
