# generated using pymatgen
data_RbAlPH
_symmetry_space_group_name_H-M   'P 1'
_cell_length_a   3.97079919
_cell_length_b   3.97079955
_cell_length_c   6.32297986
_cell_angle_alpha   90.00000000
_cell_angle_beta   90.00000000
_cell_angle_gamma   119.99999698
_symmetry_Int_Tables_number   1
_chemical_formula_structural   RbAlPH
_chemical_formula_sum   'Rb1 Al1 P1 H1'
_cell_volume   86.33926194
_cell_formula_units_Z   1
loop_
 _symmetry_equiv_pos_site_id
 _symmetry_equiv_pos_as_xyz
  1  'x, y, z'
loop_
 _atom_site_type_symbol
 _atom_site_label
 _atom_site_symmetry_multiplicity
 _atom_site_fract_x
 _atom_site_fract_y
 _atom_site_fract_z
 _atom_site_occupancy
  Rb  Rb0  1  0.00000000  0.00000000  0.03704699  1
  Al  Al0  1  0.66666700  0.33333300  0.55655415  1
  P  P0  1  0.33333300  0.66666700  0.44603029  1
  H  H0  1  0.66666700  0.33333300  0.81746757  1
loop_
_geom_bond_atom_site_label_1
_geom_bond_atom_site_label_2
_geom_bond_distance
_geom_bond_site_symmetry_2
Al0 H0 1.649750 1_555
Al0 P0 2.396689 1_655
Al0 P0 2.396689 1_545
Al0 P0 2.396695 1_555
P0 Rb0 3.455879 1_565
P0 Rb0 3.455881 1_665
P0 Rb0 3.455881 1_555
H0 Rb0 2.680183 1_656
H0 Rb0 2.680186 1_556
H0 Rb0 2.680186 1_666
