# generated using pymatgen
data_Sc4Ga6OsRh
_symmetry_space_group_name_H-M   'P 1'
_cell_length_a   5.23261005
_cell_length_b   5.23260948
_cell_length_c   8.42094958
_cell_angle_alpha   90.00000000
_cell_angle_beta   90.00000000
_cell_angle_gamma   119.99999747
_symmetry_Int_Tables_number   1
_chemical_formula_structural   Sc4Ga6OsRh
_chemical_formula_sum   'Sc4 Ga6 Os1 Rh1'
_cell_volume   199.67716638
_cell_formula_units_Z   1
loop_
 _symmetry_equiv_pos_site_id
 _symmetry_equiv_pos_as_xyz
  1  'x, y, z'
loop_
 _atom_site_type_symbol
 _atom_site_label
 _atom_site_symmetry_multiplicity
 _atom_site_fract_x
 _atom_site_fract_y
 _atom_site_fract_z
 _atom_site_occupancy
  Sc  Sc0  1  0.66666600  0.33333300  0.05109088  1
  Sc  Sc1  1  0.66666600  0.33333300  0.44327754  1
  Sc  Sc2  1  0.33333300  0.66666600  0.55672146  1
  Sc  Sc3  1  0.33333300  0.66666600  0.94891012  1
  Ga  Ga0  1  0.16802407  0.33604913  0.24857498  1
  Ga  Ga1  1  0.16802507  0.83197593  0.24857498  1
  Ga  Ga2  1  0.66394987  0.83197593  0.24857498  1
  Ga  Ga3  1  0.33604913  0.16802307  0.75142502  1
  Ga  Ga4  1  0.83197393  0.16802307  0.75142502  1
  Ga  Ga5  1  0.83197593  0.66395187  0.75142502  1
  Os  Os0  1  0.00000000  0.00000000  0.50000000  1
  Rh  Rh0  1  0.00000000  0.00000000  0.00000000  1
loop_
_geom_bond_atom_site_label_1
_geom_bond_atom_site_label_2
_geom_bond_distance
_geom_bond_site_symmetry_2
Sc0 Sc3 3.141195 1_554
Sc0 Sc3 3.141199 1_544
Sc0 Sc3 3.141200 1_654
Sc0 Sc1 3.302584 1_555
Sc1 Sc2 3.168489 1_555
Sc1 Sc2 3.168494 1_545
Sc1 Sc2 3.168494 1_655
Sc2 Sc3 3.302601 1_555
Ga0 Rh0 2.588563 1_555
Ga0 Ga1 2.594989 1_555
Ga0 Ga2 2.594989 1_555
Ga0 Os0 2.608009 1_555
Ga0 Ga1 2.637621 1_545
Ga0 Ga2 2.637621 1_445
Ga0 Sc3 2.934708 1_554
Ga0 Sc2 2.996344 1_555
Ga0 Sc1 3.087625 1_555
Ga0 Sc1 3.087625 1_455
Ga0 Sc0 3.100127 1_555
Ga0 Sc0 3.100127 1_455
Ga1 Rh0 2.588563 1_565
Ga1 Ga2 2.594981 1_555
Ga1 Os0 2.608009 1_565
Ga1 Ga2 2.637629 1_455
Ga1 Sc3 2.934710 1_554
Ga1 Sc2 2.996347 1_555
Ga1 Sc1 3.087620 1_565
Ga1 Sc1 3.087629 1_455
Ga1 Sc0 3.100122 1_565
Ga1 Sc0 3.100131 1_455
Ga2 Rh0 2.588566 1_665
Ga2 Os0 2.608011 1_665
Ga2 Sc3 2.934708 1_554
Ga2 Sc2 2.996344 1_555
Ga2 Sc1 3.087620 1_565
Ga2 Sc1 3.087629 1_555
Ga2 Sc0 3.100122 1_565
Ga2 Sc0 3.100131 1_555
Ga3 Rh0 2.588563 1_556
Ga3 Ga4 2.594981 1_555
Ga3 Ga5 2.594997 1_555
Ga3 Os0 2.608009 1_555
Ga3 Ga5 2.637613 1_445
Ga3 Ga4 2.637629 1_455
Ga3 Sc0 2.934715 1_556
Ga3 Sc1 2.996352 1_555
Ga3 Sc2 3.087625 1_545
Ga3 Sc2 3.087634 1_555
Ga3 Sc3 3.100126 1_545
Ga3 Sc3 3.100135 1_555
Ga4 Rh0 2.588563 1_656
Ga4 Ga5 2.594997 1_555
Ga4 Os0 2.608009 1_655
Ga4 Ga5 2.637613 1_545
Ga4 Sc0 2.934717 1_556
Ga4 Sc1 2.996354 1_555
Ga4 Sc2 3.087625 1_545
Ga4 Sc2 3.087634 1_655
Ga4 Sc3 3.100127 1_545
Ga4 Sc3 3.100135 1_655
Ga5 Rh0 2.588560 1_666
Ga5 Os0 2.608006 1_665
Ga5 Sc0 2.934720 1_556
Ga5 Sc1 2.996356 1_555
Ga5 Sc2 3.087629 1_555
Ga5 Sc2 3.087629 1_655
Ga5 Sc3 3.100131 1_555
Ga5 Sc3 3.100131 1_655
Os0 Sc2 3.058572 1_555
Os0 Sc1 3.058574 1_555
Os0 Sc2 3.058577 1_545
Os0 Sc2 3.058577 1_445
Os0 Sc1 3.058578 1_445
Os0 Sc1 3.058578 1_455
Rh0 Sc3 3.051526 1_554
Rh0 Sc0 3.051527 1_555
Rh0 Sc3 3.051530 1_544
Rh0 Sc3 3.051531 1_444
Rh0 Sc0 3.051532 1_445
Rh0 Sc0 3.051532 1_455
