# generated using pymatgen
data_Ba4W(BrN2)2
_symmetry_space_group_name_H-M   'P 1'
_cell_length_a   6.31374716
_cell_length_b   8.53885858
_cell_length_c   11.20688544
_cell_angle_alpha   81.25906098
_cell_angle_beta   90.00000000
_cell_angle_gamma   90.00000000
_symmetry_Int_Tables_number   1
_chemical_formula_structural   Ba4W(BrN2)2
_chemical_formula_sum   'Ba8 W2 Br4 N8'
_cell_volume   597.17047793
_cell_formula_units_Z   2
loop_
 _symmetry_equiv_pos_site_id
 _symmetry_equiv_pos_as_xyz
  1  'x, y, z'
loop_
 _atom_site_type_symbol
 _atom_site_label
 _atom_site_symmetry_multiplicity
 _atom_site_fract_x
 _atom_site_fract_y
 _atom_site_fract_z
 _atom_site_occupancy
  Ba  Ba0  1  0.75000000  0.28312165  0.30035541  1
  Ba  Ba1  1  0.75000000  0.00343736  0.62370449  1
  Ba  Ba2  1  0.75000000  0.44496460  0.61423299  1
  Ba  Ba3  1  0.75000000  0.80594992  0.10356832  1
  Ba  Ba4  1  0.25000000  0.99656264  0.37629551  1
  Ba  Ba5  1  0.25000000  0.55503540  0.38576701  1
  Ba  Ba6  1  0.25000000  0.19405008  0.89643168  1
  Ba  Ba7  1  0.25000000  0.71687835  0.69964459  1
  W  W0  1  0.75000000  0.77147071  0.40349680  1
  W  W1  1  0.25000000  0.22852929  0.59650320  1
  Br  Br0  1  0.25000000  0.33369518  0.16091764  1
  Br  Br1  1  0.75000000  0.66630482  0.83908236  1
  Br  Br2  1  0.25000000  0.84453733  0.09990979  1
  Br  Br3  1  0.75000000  0.15546267  0.90009021  1
  N  N0  1  0.25000000  0.03977590  0.70450230  1
  N  N1  1  0.00645944  0.24273149  0.49778073  1
  N  N2  1  0.50645944  0.75726851  0.50221927  1
  N  N3  1  0.99354056  0.75726851  0.50221927  1
  N  N4  1  0.75000000  0.60712110  0.30998368  1
  N  N5  1  0.75000000  0.96022410  0.29549770  1
  N  N6  1  0.49354056  0.24273149  0.49778073  1
  N  N7  1  0.25000000  0.39287890  0.69001632  1
loop_
_geom_bond_atom_site_label_1
_geom_bond_atom_site_label_2
_geom_bond_distance
_geom_bond_site_symmetry_2
Ba0 N6 2.721058 1_555
Ba0 N1 2.721058 1_655
Ba0 N5 2.765973 1_545
Ba0 N4 2.785026 1_555
Ba0 Br0 3.519823 1_555
Ba0 Br0 3.519823 1_655
Ba1 N6 2.812839 1_555
Ba1 N1 2.812839 1_655
Ba1 N3 3.083211 1_545
Ba1 N2 3.083211 1_545
Ba1 N0 3.311713 1_655
Ba1 N0 3.311713 1_555
Ba1 Br1 3.464279 1_545
Ba1 Br3 3.535707 1_555
Ba2 N6 2.827014 1_555
Ba2 N1 2.827014 1_655
Ba2 N3 3.167674 1_555
Ba2 N2 3.167674 1_555
Ba2 Br1 3.371834 1_555
Ba2 Br3 3.737216 1_555
Ba3 N4 2.653297 1_555
Ba3 N5 2.687571 1_555
Ba3 Br2 3.173640 1_555
Ba3 Br2 3.173640 1_655
Ba3 Br1 3.358829 1_554
Ba3 Br3 3.469648 1_564
Ba4 N2 2.812839 1_555
Ba4 N3 2.812839 1_455
Ba4 N1 3.083211 1_565
Ba4 N6 3.083211 1_565
Ba4 N5 3.311713 1_455
Ba4 N5 3.311713 1_555
Ba4 Br0 3.464279 1_565
Ba4 Br2 3.535707 1_555
Ba5 N2 2.827014 1_555
Ba5 N3 2.827014 1_455
Ba5 N1 3.167674 1_555
Ba5 N6 3.167674 1_555
Ba5 Br0 3.371834 1_555
Ba5 Br2 3.737216 1_555
Ba6 N7 2.653297 1_555
Ba6 N0 2.687571 1_555
Ba6 Br3 3.173640 1_555
Ba6 Br3 3.173640 1_455
Ba6 Br0 3.358829 1_556
Ba6 Br2 3.469648 1_546
Ba7 N2 2.721058 1_555
Ba7 N3 2.721058 1_455
Ba7 N0 2.765973 1_565
Ba7 N7 2.785026 1_555
Ba7 Br1 3.519823 1_555
Ba7 Br1 3.519823 1_455
N0 W1 1.862716 1_555
N1 W1 1.887422 1_555
N2 W0 1.887422 1_555
N3 W0 1.887422 1_555
N4 W0 1.874752 1_555
N5 W0 1.862716 1_555
N6 W1 1.887422 1_555
N7 W1 1.874752 1_555
