# generated using pymatgen
data_MgScNi6B
_symmetry_space_group_name_H-M   'P 1'
_cell_length_a   5.26089280
_cell_length_b   5.26089336
_cell_length_c   5.26089329
_cell_angle_alpha   60.00000046
_cell_angle_beta   59.99999697
_cell_angle_gamma   59.99999441
_symmetry_Int_Tables_number   1
_chemical_formula_structural   MgScNi6B
_chemical_formula_sum   'Mg1 Sc1 Ni6 B1'
_cell_volume   102.95878742
_cell_formula_units_Z   1
loop_
 _symmetry_equiv_pos_site_id
 _symmetry_equiv_pos_as_xyz
  1  'x, y, z'
loop_
 _atom_site_type_symbol
 _atom_site_label
 _atom_site_symmetry_multiplicity
 _atom_site_fract_x
 _atom_site_fract_y
 _atom_site_fract_z
 _atom_site_occupancy
  Mg  Mg0  1  0.25000000  0.25000000  0.25000000  1
  Sc  Sc0  1  0.75000000  0.75000000  0.75000000  1
  Ni  Ni0  1  0.73875541  0.26124559  0.26124559  1
  Ni  Ni1  1  0.26124559  0.73875541  0.26124559  1
  Ni  Ni2  1  0.73875441  0.73875441  0.26124659  1
  Ni  Ni3  1  0.26124559  0.26124559  0.73875541  1
  Ni  Ni4  1  0.73875441  0.26124659  0.73875441  1
  Ni  Ni5  1  0.26124659  0.73875441  0.73875441  1
  B  B0  1  0.00000000  0.00000000  0.00000000  1
loop_
_geom_bond_atom_site_label_1
_geom_bond_atom_site_label_2
_geom_bond_distance
_geom_bond_site_symmetry_2
Mg0 Ni0 2.631771 1_455
Mg0 Ni3 2.631772 1_554
Mg0 Ni1 2.631772 1_545
Mg0 Ni2 2.631777 1_455
Mg0 Ni2 2.631777 1_545
Mg0 Ni4 2.631777 1_455
Mg0 Ni4 2.631777 1_554
Mg0 Ni5 2.631777 1_545
Mg0 Ni5 2.631777 1_554
Mg0 Ni0 2.631782 1_555
Mg0 Ni3 2.631782 1_555
Mg0 Ni1 2.631782 1_555
Ni0 Sc0 2.631777 1_545
Ni0 Sc0 2.631777 1_554
Ni1 Sc0 2.631777 1_455
Ni1 Sc0 2.631777 1_554
Ni2 Sc0 2.631772 1_555
Ni2 Sc0 2.631782 1_554
Ni3 Sc0 2.631777 1_455
Ni3 Sc0 2.631777 1_545
Ni4 Sc0 2.631772 1_555
Ni4 Sc0 2.631782 1_545
Ni5 Sc0 2.631771 1_555
Ni5 Sc0 2.631782 1_455
B0 Ni5 1.943674 1_544
B0 Ni4 1.943674 1_454
B0 Ni1 1.943674 1_545
B0 Ni0 1.943674 1_455
B0 Ni3 1.943674 1_554
B0 Ni2 1.943674 1_445
