# generated using pymatgen
data_Sr8Pd(RuN4)2
_symmetry_space_group_name_H-M   'P 1'
_cell_length_a   9.93599680
_cell_length_b   5.32789417
_cell_length_c   7.56082023
_cell_angle_alpha   90.00001249
_cell_angle_beta   75.28422442
_cell_angle_gamma   74.44811246
_symmetry_Int_Tables_number   1
_chemical_formula_structural   Sr8Pd(RuN4)2
_chemical_formula_sum   'Sr8 Pd1 Ru2 N8'
_cell_volume   371.95404564
_cell_formula_units_Z   1
loop_
 _symmetry_equiv_pos_site_id
 _symmetry_equiv_pos_as_xyz
  1  'x, y, z'
loop_
 _atom_site_type_symbol
 _atom_site_label
 _atom_site_symmetry_multiplicity
 _atom_site_fract_x
 _atom_site_fract_y
 _atom_site_fract_z
 _atom_site_occupancy
  Sr  Sr0  1  0.05104428  0.97447786  0.73962634  1
  Sr  Sr1  1  0.94895572  0.02552214  0.26037366  1
  Sr  Sr2  1  0.68205373  0.65897313  0.46325971  1
  Sr  Sr3  1  0.31794627  0.34102687  0.53674029  1
  Sr  Sr4  1  0.81998170  0.59000915  0.97525666  1
  Sr  Sr5  1  0.18001830  0.40999085  0.02474334  1
  Sr  Sr6  1  0.40473765  0.79763117  0.19500929  1
  Sr  Sr7  1  0.59526235  0.20236883  0.80499071  1
  Pd  Pd0  1  0.00000000  0.50000000  0.50000000  1
  Ru  Ru0  1  0.37505578  0.81247211  0.78910407  1
  Ru  Ru1  1  0.62494422  0.18752789  0.21089593  1
  N  N0  1  0.21620589  0.89189606  0.99226837  1
  N  N1  1  0.78379411  0.10810394  0.00773163  1
  N  N2  1  0.35005094  0.82497553  0.55639693  1
  N  N3  1  0.64994906  0.17502447  0.44360307  1
  N  N4  1  0.55735708  0.72132146  0.82653441  1
  N  N5  1  0.44264292  0.27867854  0.17346559  1
  N  N6  1  0.93804631  0.53097535  0.25108789  1
  N  N7  1  0.06195369  0.46902465  0.74891211  1
loop_
_geom_bond_atom_site_label_1
_geom_bond_atom_site_label_2
_geom_bond_distance
_geom_bond_site_symmetry_2
N0 Ru0 1.854693 1_555
N0 Sr6 2.658086 1_556
N0 Sr5 2.689240 1_556
N0 Sr5 2.689250 1_566
N0 Sr0 2.782232 1_555
N0 Sr1 2.814017 1_466
N1 Ru1 1.854693 1_555
N1 Sr7 2.658086 1_554
N1 Sr4 2.689240 1_554
N1 Sr4 2.689250 1_544
N1 Sr1 2.782232 1_555
N1 Sr0 2.814017 1_644
N2 Ru0 1.837134 1_555
N2 Sr6 2.643042 1_555
N2 Sr3 2.690205 1_565
N2 Sr3 2.690215 1_555
N2 Sr0 2.831986 1_555
N2 Sr2 3.068454 1_555
N3 Ru1 1.837134 1_555
N3 Sr7 2.643042 1_555
N3 Sr2 2.690205 1_545
N3 Sr2 2.690215 1_555
N3 Sr1 2.831986 1_555
N3 Sr3 3.068454 1_555
N4 Ru0 1.840014 1_555
N4 Sr7 2.687681 1_555
N4 Sr7 2.687681 1_565
N4 Sr2 2.690711 1_555
N4 Sr6 2.783797 1_556
N4 Sr4 3.012447 1_555
N5 Ru1 1.840014 1_555
N5 Sr6 2.687681 1_555
N5 Sr6 2.687681 1_545
N5 Sr3 2.690711 1_555
N5 Sr7 2.783797 1_554
N5 Sr5 3.012447 1_555
N6 Pd0 2.117099 1_655
N6 Sr5 2.490620 1_655
N6 Sr2 2.550485 1_555
N6 Sr4 2.620974 1_554
N6 Sr1 2.667634 1_555
N6 Sr1 2.667650 1_565
N7 Pd0 2.117099 1_555
N7 Sr4 2.490620 1_455
N7 Sr3 2.550485 1_555
N7 Sr5 2.620974 1_556
N7 Sr0 2.667634 1_555
N7 Sr0 2.667650 1_545
