# generated using pymatgen
data_RhIBr2
_symmetry_space_group_name_H-M   'P 1'
_cell_length_a   6.58830452
_cell_length_b   6.58830435
_cell_length_c   6.74217299
_cell_angle_alpha   81.80702404
_cell_angle_beta   81.80702263
_cell_angle_gamma   121.50400576
_symmetry_Int_Tables_number   1
_chemical_formula_structural   RhIBr2
_chemical_formula_sum   'Rh2 I2 Br4'
_cell_volume   238.66453817
_cell_formula_units_Z   2
loop_
 _symmetry_equiv_pos_site_id
 _symmetry_equiv_pos_as_xyz
  1  'x, y, z'
loop_
 _atom_site_type_symbol
 _atom_site_label
 _atom_site_symmetry_multiplicity
 _atom_site_fract_x
 _atom_site_fract_y
 _atom_site_fract_z
 _atom_site_occupancy
  Rh  Rh0  1  0.83070850  0.16929150  0.00000000  1
  Rh  Rh1  1  0.16929150  0.83070850  1.00000000  1
  I  I0  1  0.77594552  0.77594552  0.23074370  1
  I  I1  1  0.22405448  0.22405448  0.76925630  1
  Br  Br0  1  0.43138764  0.07378143  0.21938537  1
  Br  Br1  1  0.56861236  0.92621857  0.78061463  1
  Br  Br2  1  0.92621857  0.56861236  0.78061463  1
  Br  Br3  1  0.07378143  0.43138764  0.21938537  1
loop_
_geom_bond_atom_site_label_1
_geom_bond_atom_site_label_2
_geom_bond_distance
_geom_bond_site_symmetry_2
I0 Rh0 2.641965 1_565
I0 Rh1 2.641965 1_654
I1 Rh1 2.641965 1_545
I1 Rh0 2.641965 1_456
Br0 Rh1 2.499438 1_544
Br0 Rh0 2.529946 1_555
Br1 Rh0 2.499438 1_566
Br1 Rh1 2.529946 1_555
Br2 Rh1 2.499438 1_655
Br2 Rh0 2.529946 1_556
Br3 Rh0 2.499438 1_455
Br3 Rh1 2.529946 1_554
