# generated using pymatgen
data_Ta3InPb4O13
_symmetry_space_group_name_H-M   'P 1'
_cell_length_a   7.57414839
_cell_length_b   7.57414838
_cell_length_c   7.57414823
_cell_angle_alpha   59.63354134
_cell_angle_beta   59.63353894
_cell_angle_gamma   59.63354234
_symmetry_Int_Tables_number   1
_chemical_formula_structural   Ta3InPb4O13
_chemical_formula_sum   'Ta3 In1 Pb4 O13'
_cell_volume   304.68754367
_cell_formula_units_Z   1
loop_
 _symmetry_equiv_pos_site_id
 _symmetry_equiv_pos_as_xyz
  1  'x, y, z'
loop_
 _atom_site_type_symbol
 _atom_site_label
 _atom_site_symmetry_multiplicity
 _atom_site_fract_x
 _atom_site_fract_y
 _atom_site_fract_z
 _atom_site_occupancy
  Ta  Ta0  1  0.00229971  0.50133962  0.50133962  1
  Ta  Ta1  1  0.50133962  0.50133962  0.00229971  1
  Ta  Ta2  1  0.50133962  0.00229971  0.50133962  1
  In  In0  1  0.50148865  0.50148865  0.50148865  1
  Pb  Pb0  1  0.00497095  0.00497095  0.00497095  1
  Pb  Pb1  1  0.50475064  0.01176979  0.01176979  1
  Pb  Pb2  1  0.01176979  0.01176979  0.50475064  1
  Pb  Pb3  1  0.01176979  0.50475064  0.01176979  1
  O  O0  1  0.85057021  0.41253876  0.41253876  1
  O  O1  1  0.42471950  0.80702925  0.80702925  1
  O  O2  1  0.41253876  0.41253876  0.85057021  1
  O  O3  1  0.80702925  0.80702925  0.42471950  1
  O  O4  1  0.80702925  0.42471950  0.80702925  1
  O  O5  1  0.41253876  0.85057021  0.41253876  1
  O  O6  1  0.16298881  0.57041487  0.57041487  1
  O  O7  1  0.56941831  0.18572831  0.18572831  1
  O  O8  1  0.57041487  0.57041487  0.16298881  1
  O  O9  1  0.18572831  0.18572831  0.56941831  1
  O  O10  1  0.18572831  0.56941831  0.18572831  1
  O  O11  1  0.57041487  0.16298881  0.57041487  1
  O  O12  1  0.12614903  0.12614903  0.12614903  1
loop_
_geom_bond_atom_site_label_1
_geom_bond_atom_site_label_2
_geom_bond_distance
_geom_bond_site_symmetry_2
In0 O8 2.165043 1_555
In0 O6 2.165043 1_555
In0 O11 2.165043 1_555
In0 O2 2.180690 1_555
In0 O0 2.180690 1_555
In0 O5 2.180690 1_555
O0 Ta0 2.060547 1_655
O0 Pb3 2.482779 1_655
O0 Pb2 2.482779 1_655
O1 Ta2 1.982941 1_565
O1 Ta1 1.982941 1_556
O1 Pb0 2.690219 1_566
O2 Ta1 2.060547 1_556
O2 Pb3 2.482779 1_556
O2 Pb1 2.482779 1_556
O3 Ta2 1.982941 1_565
O3 Ta0 1.982941 1_655
O3 Pb0 2.690219 1_665
O4 Ta0 1.982941 1_655
O4 Ta1 1.982941 1_556
O4 Pb0 2.690219 1_656
O5 Ta2 2.060547 1_565
O5 Pb1 2.482779 1_565
O5 Pb2 2.482779 1_565
O6 Ta0 1.895546 1_555
O6 Pb3 2.785307 1_556
O6 Pb2 2.785307 1_565
O7 Ta2 2.007659 1_555
O7 Ta1 2.007659 1_555
O7 Pb1 2.602345 1_555
O7 Pb0 2.719185 1_655
O8 Ta1 1.895546 1_555
O8 Pb3 2.785307 1_655
O8 Pb1 2.785307 1_565
O9 Ta2 2.007659 1_555
O9 Ta0 2.007659 1_555
O9 Pb2 2.602345 1_555
O9 Pb0 2.719185 1_556
O10 Ta0 2.007659 1_555
O10 Ta1 2.007659 1_555
O10 Pb3 2.602345 1_555
O10 Pb0 2.719185 1_565
O11 Ta2 1.895546 1_555
O11 Pb1 2.785307 1_556
O11 Pb2 2.785307 1_655
O12 Pb0 2.254399 1_555
O12 Pb2 2.336544 1_555
O12 Pb1 2.336544 1_555
O12 Pb3 2.336544 1_555
