# generated using pymatgen
data_Rb6In2BiSb3
_symmetry_space_group_name_H-M   'P 1'
_cell_length_a   9.82582663
_cell_length_b   9.82582651
_cell_length_c   9.85724965
_cell_angle_alpha   126.32331524
_cell_angle_beta   73.15420545
_cell_angle_gamma   134.14592479
_symmetry_Int_Tables_number   1
_chemical_formula_structural   Rb6In2BiSb3
_chemical_formula_sum   'Rb6 In2 Bi1 Sb3'
_cell_volume   537.65692094
_cell_formula_units_Z   1
loop_
 _symmetry_equiv_pos_site_id
 _symmetry_equiv_pos_as_xyz
  1  'x, y, z'
loop_
 _atom_site_type_symbol
 _atom_site_label
 _atom_site_symmetry_multiplicity
 _atom_site_fract_x
 _atom_site_fract_y
 _atom_site_fract_z
 _atom_site_occupancy
  Rb  Rb0  1  0.24567743  0.24978622  0.99877440  1
  Rb  Rb1  1  0.74898818  0.75309697  0.99877440  1
  Rb  Rb2  1  0.82720286  0.30559418  0.13279704  1
  Rb  Rb3  1  0.67423492  0.79916956  0.47340448  1
  Rb  Rb4  1  0.32349567  0.19499041  0.51848607  1
  Rb  Rb5  1  0.17690080  0.69317537  0.87007718  1
  In  In0  1  0.75173477  0.25168275  0.49973871  1
  In  In1  1  0.24805596  0.74800395  0.49973871  1
  Bi  Bi0  1  0.59918606  0.19104209  0.79022915  1
  Sb  Sb0  1  0.40565255  0.81550252  0.22115407  1
  Sb  Sb1  1  0.09432332  0.31111476  0.40543807  1
  Sb  Sb2  1  0.90454448  0.68684323  0.59138771  1
loop_
_geom_bond_atom_site_label_1
_geom_bond_atom_site_label_2
_geom_bond_distance
_geom_bond_site_symmetry_2
Rb0 Sb0 3.683078 1_556
Rb0 Sb1 3.684427 1_556
Rb0 Sb2 3.690192 1_445
Rb1 Sb0 3.683074 1_556
Rb1 Sb1 3.684427 1_666
Rb1 Sb2 3.690191 1_555
Rb2 Sb2 3.606831 1_555
Rb2 Sb0 4.024659 1_545
Rb2 Sb0 4.024667 1_655
Rb3 Sb2 3.770542 1_555
Rb3 Sb1 4.032015 1_665
Rb3 Sb1 4.032015 1_555
Rb4 Sb0 3.608363 1_545
Rb4 Sb1 3.762185 1_555
Rb4 Sb2 4.036981 1_445
Rb4 Sb2 4.036982 1_555
Rb5 Sb1 3.642795 1_555
Rb5 Sb0 3.780227 1_556
In0 Sb2 2.936013 1_555
In0 Sb1 2.937297 1_655
In0 Sb0 2.939572 1_545
In0 Rb2 3.752543 1_555
In0 Rb5 3.798845 1_655
In0 Rb3 3.801023 1_545
In0 Rb4 3.802138 1_555
In1 Sb2 2.936013 1_455
In1 Sb1 2.937297 1_555
In1 Sb0 2.939576 1_555
In1 Rb2 3.752543 1_455
In1 Rb5 3.798848 1_555
In1 Rb3 3.801023 1_555
In1 Rb4 3.802138 1_565
Bi0 In1 3.015052 1_545
Bi0 In0 3.015057 1_555
Bi0 Rb3 3.673919 1_545
Bi0 Rb0 3.724634 1_555
Bi0 Rb1 3.724638 1_555
Bi0 Rb2 3.749475 1_556
Bi0 Rb5 4.020088 1_545
Bi0 Rb5 4.020088 1_655
