# generated using pymatgen
data_CuIr4Pb3O14
_symmetry_space_group_name_H-M   'P 1'
_cell_length_a   7.24729843
_cell_length_b   7.24729779
_cell_length_c   7.14943355
_cell_angle_alpha   59.54614903
_cell_angle_beta   59.54615301
_cell_angle_gamma   60.00000057
_symmetry_Int_Tables_number   1
_chemical_formula_structural   CuIr4Pb3O14
_chemical_formula_sum   'Cu1 Ir4 Pb3 O14'
_cell_volume   263.69102496
_cell_formula_units_Z   1
loop_
 _symmetry_equiv_pos_site_id
 _symmetry_equiv_pos_as_xyz
  1  'x, y, z'
loop_
 _atom_site_type_symbol
 _atom_site_label
 _atom_site_symmetry_multiplicity
 _atom_site_fract_x
 _atom_site_fract_y
 _atom_site_fract_z
 _atom_site_occupancy
  Cu  Cu0  1  0.12500000  0.12500000  0.62500000  1
  Ir  Ir0  1  0.12500000  0.62500000  0.62500000  1
  Ir  Ir1  1  0.62500000  0.12500000  0.62500000  1
  Ir  Ir2  1  0.62500000  0.62500000  0.12500000  1
  Ir  Ir3  1  0.62500000  0.62500000  0.62500000  1
  Pb  Pb0  1  0.62500000  0.12500000  0.12500000  1
  Pb  Pb1  1  0.12500000  0.62500000  0.12500000  1
  Pb  Pb2  1  0.12500000  0.12500000  0.12500000  1
  O  O0  1  0.70870380  0.70870380  0.28947837  1
  O  O1  1  0.29963101  0.29963101  0.70685596  1
  O  O2  1  0.69388302  0.29963101  0.70685596  1
  O  O3  1  0.29311303  0.70870380  0.28947837  1
  O  O4  1  0.29963101  0.69388302  0.70685596  1
  O  O5  1  0.70870380  0.29311303  0.28947837  1
  O  O6  1  0.54129620  0.54129620  0.96052163  1
  O  O7  1  0.95036899  0.95036899  0.54314404  1
  O  O8  1  0.55611698  0.95036899  0.54314404  1
  O  O9  1  0.95688697  0.54129620  0.96052163  1
  O  O10  1  0.95036899  0.55611698  0.54314404  1
  O  O11  1  0.54129620  0.95688697  0.96052163  1
  O  O12  1  0.23229060  0.23229060  0.30312920  1
  O  O13  1  0.01770940  0.01770940  0.94687080  1
loop_
_geom_bond_atom_site_label_1
_geom_bond_atom_site_label_2
_geom_bond_distance
_geom_bond_site_symmetry_2
Cu0 O13 1.865924 1_555
Cu0 O12 1.865924 1_555
Cu0 O10 2.578625 1_455
Cu0 O4 2.578625 1_545
Cu0 O8 2.578625 1_545
Cu0 O2 2.578625 1_455
Cu0 O1 2.578631 1_555
Cu0 O7 2.578631 1_445
Ir0 O7 1.967789 1_455
Ir0 O1 1.967789 1_555
Ir0 O4 1.967794 1_555
Ir0 O10 1.967794 1_455
Ir0 O9 1.976866 1_455
Ir0 O3 1.976866 1_555
Ir1 O7 1.967789 1_545
Ir1 O1 1.967789 1_555
Ir1 O2 1.967794 1_555
Ir1 O8 1.967794 1_545
Ir1 O11 1.976866 1_545
Ir1 O5 1.976866 1_555
Ir2 O0 1.983184 1_555
Ir2 O6 1.983184 1_554
Ir2 O11 1.983189 1_554
Ir2 O5 1.983189 1_555
Ir2 O9 1.983189 1_554
Ir2 O3 1.983189 1_555
Ir3 O8 1.967788 1_555
Ir3 O2 1.967788 1_555
Ir3 O10 1.967788 1_555
Ir3 O4 1.967788 1_555
Ir3 O6 1.976867 1_555
Ir3 O0 1.976867 1_555
O0 Pb0 2.479873 1_565
O0 Pb1 2.479873 1_655
O1 Pb2 2.464086 1_556
O2 Pb0 2.464085 1_556
O3 Pb1 2.479867 1_555
O3 Pb2 2.479872 1_565
O4 Pb1 2.464085 1_556
O5 Pb0 2.479867 1_555
O5 Pb2 2.479872 1_655
O6 Pb0 2.479873 1_556
O6 Pb1 2.479873 1_556
O7 Pb2 2.464086 1_665
O8 Pb0 2.464085 1_565
O9 Pb1 2.479867 1_656
O9 Pb2 2.479872 1_656
O10 Pb1 2.464085 1_655
O11 Pb0 2.479867 1_566
O11 Pb2 2.479872 1_566
O12 Pb1 2.333082 1_555
O12 Pb0 2.333083 1_555
O12 Pb2 2.333088 1_555
O13 Pb1 2.333082 1_546
O13 Pb0 2.333083 1_456
O13 Pb2 2.333088 1_556
