# generated using pymatgen
data_Hf4ScH8
_symmetry_space_group_name_H-M   'P 1'
_cell_length_a   5.74089788
_cell_length_b   5.74240383
_cell_length_c   5.73776444
_cell_angle_alpha   99.36404898
_cell_angle_beta   99.36056300
_cell_angle_gamma   132.32723652
_symmetry_Int_Tables_number   1
_chemical_formula_structural   Hf4ScH8
_chemical_formula_sum   'Hf4 Sc1 H8'
_cell_volume   128.01344100
_cell_formula_units_Z   1
loop_
 _symmetry_equiv_pos_site_id
 _symmetry_equiv_pos_as_xyz
  1  'x, y, z'
loop_
 _atom_site_type_symbol
 _atom_site_label
 _atom_site_symmetry_multiplicity
 _atom_site_fract_x
 _atom_site_fract_y
 _atom_site_fract_z
 _atom_site_occupancy
  Hf  Hf0  1  0.40788496  0.81147220  0.21942121  1
  Hf  Hf1  1  0.81163235  0.59216958  0.40364313  1
  Hf  Hf2  1  0.18836865  0.40783142  0.59635787  1
  Hf  Hf3  1  0.59211604  0.18852880  0.78057979  1
  Sc  Sc0  1  0.00000000  0.00000000  0.00000000  1
  H  H0  1  0.45561973  0.15119819  0.09803443  1
  H  H1  1  0.94695712  0.64244026  0.09762929  1
  H  H2  1  0.35734809  0.45510688  0.30411373  1
  H  H3  1  0.84933160  0.94726087  0.30470341  1
  H  H4  1  0.15066940  0.05273913  0.69529759  1
  H  H5  1  0.64265291  0.54489312  0.69588727  1
  H  H6  1  0.05304288  0.35756074  0.90237071  1
  H  H7  1  0.54438027  0.84880281  0.90196557  1
loop_
_geom_bond_atom_site_label_1
_geom_bond_atom_site_label_2
_geom_bond_distance
_geom_bond_site_symmetry_2
H0 Hf1 2.020786 1_555
H0 Hf0 2.037217 1_545
H0 Sc0 2.053281 1_555
H0 Hf3 2.083970 1_554
H1 Hf1 2.019030 1_555
H1 Hf0 2.037467 1_655
H1 Sc0 2.051855 1_665
H1 Hf3 2.086585 1_554
H2 Hf0 2.019390 1_555
H2 Hf2 2.036945 1_555
H2 Sc0 2.052940 1_555
H2 Hf1 2.086174 1_555
H3 Hf0 2.020214 1_555
H3 Hf2 2.037470 1_665
H3 Sc0 2.051327 1_665
H3 Hf1 2.085493 1_555
H4 Hf3 2.020211 1_555
H4 Hf1 2.037467 1_445
H4 Sc0 2.051324 1_556
H4 Hf2 2.085499 1_555
H5 Hf3 2.019385 1_555
H5 Hf1 2.036945 1_555
H5 Sc0 2.052938 1_666
H5 Hf2 2.086177 1_555
H6 Hf2 2.019027 1_555
H6 Hf3 2.037461 1_455
H6 Sc0 2.051860 1_556
H6 Hf0 2.086588 1_556
H7 Hf2 2.020783 1_555
H7 Hf3 2.037211 1_565
H7 Sc0 2.053284 1_666
H7 Hf0 2.083973 1_556
