# generated using pymatgen
data_Ta3TiVSi3
_symmetry_space_group_name_H-M   'P 1'
_cell_length_a   7.46792750
_cell_length_b   7.46792724
_cell_length_c   7.45345008
_cell_angle_alpha   129.40401422
_cell_angle_beta   129.40401682
_cell_angle_gamma   74.50775340
_symmetry_Int_Tables_number   1
_chemical_formula_structural   Ta3TiVSi3
_chemical_formula_sum   'Ta6 Ti2 V2 Si6'
_cell_volume   241.67094312
_cell_formula_units_Z   2
loop_
 _symmetry_equiv_pos_site_id
 _symmetry_equiv_pos_as_xyz
  1  'x, y, z'
loop_
 _atom_site_type_symbol
 _atom_site_label
 _atom_site_symmetry_multiplicity
 _atom_site_fract_x
 _atom_site_fract_y
 _atom_site_fract_z
 _atom_site_occupancy
  Ta  Ta0  1  0.51620483  0.68629978  0.50000000  1
  Ta  Ta1  1  0.18629978  0.01620483  0.50000000  1
  Ta  Ta2  1  0.98405111  0.48405111  0.16821907  1
  Ta  Ta3  1  0.31583204  0.81583204  0.83178093  1
  Ta  Ta4  1  0.48304991  0.31432222  0.50000000  1
  Ta  Ta5  1  0.81432222  0.98304991  0.50000000  1
  Ti  Ti0  1  0.01481011  0.51481011  0.82925991  1
  Ti  Ti1  1  0.68555021  0.18555021  0.17074009  1
  V  V0  1  0.00126910  0.00126910  0.00000000  1
  V  V1  1  0.50126910  0.50126910  0.00000000  1
  Si  Si0  1  0.75190729  0.75190729  1.00000000  1
  Si  Si1  1  0.25190729  0.25190729  1.00000000  1
  Si  Si2  1  0.63365725  0.13365725  0.77006637  1
  Si  Si3  1  0.36358988  0.86358988  0.22993363  1
  Si  Si4  1  0.12904799  0.36723190  0.50000000  1
  Si  Si5  1  0.86723190  0.62904799  0.50000000  1
loop_
_geom_bond_atom_site_label_1
_geom_bond_atom_site_label_2
_geom_bond_distance
_geom_bond_site_symmetry_2
Si0 Ta1 2.653548 1_666
Si0 Ta0 2.653548 1_555
Si0 Ti1 2.657739 1_566
Si0 Ti0 2.657739 1_655
Si0 Ta4 2.672606 1_555
Si0 Ta5 2.672606 1_556
Si0 Ta3 2.674099 1_555
Si0 Ta2 2.674099 1_556
Si0 V0 2.964503 1_666
Si0 V1 2.979677 1_556
Si1 Ta0 2.653548 1_556
Si1 Ta1 2.653548 1_555
Si1 Ti1 2.657739 1_556
Si1 Ti0 2.657739 1_555
Si1 Ta5 2.672606 1_445
Si1 Ta4 2.672606 1_556
Si1 Ta3 2.674099 1_545
Si1 Ta2 2.674099 1_456
Si1 V1 2.964503 1_556
Si1 V0 2.979677 1_556
Si2 Si3 2.428835 1_545
Si2 V0 2.485802 1_656
Si2 V1 2.485802 1_556
Si2 Ti1 2.522017 1_556
Si2 Ta2 2.538029 1_556
Si2 Ta0 2.601656 1_545
Si2 Ta1 2.601656 1_555
Si2 Ta4 2.626820 1_555
Si2 Ta5 2.626820 1_545
Si3 V0 2.485802 1_565
Si3 V1 2.485802 1_555
Si3 Ti0 2.522008 1_554
Si3 Ta3 2.538037 1_554
Si3 Ta0 2.601648 1_555
Si3 Ta1 2.601649 1_565
Si3 Ta4 2.626827 1_565
Si3 Ta5 2.626827 1_555
Si4 Si5 2.367181 1_455
Si4 V1 2.493180 1_556
Si4 V0 2.493180 1_555
Si4 Ta1 2.540870 1_555
Si4 Ta4 2.566522 1_555
Si4 Ti1 2.585948 1_455
Si4 Ti0 2.585948 1_555
Si4 Ta3 2.623659 1_555
Si4 Ta2 2.623659 1_455
Si5 V1 2.493180 1_555
Si5 V0 2.493180 1_666
Si5 Ta0 2.540870 1_555
Si5 Ta5 2.566522 1_555
Si5 Ti1 2.585947 1_555
Si5 Ti0 2.585948 1_655
Si5 Ta3 2.623659 1_655
Si5 Ta2 2.623659 1_555
