# generated using pymatgen
data_Sc2SbI2
_symmetry_space_group_name_H-M   'P 1'
_cell_length_a   4.15007273
_cell_length_b   4.15007213
_cell_length_c   10.73010363
_cell_angle_alpha   90.00000000
_cell_angle_beta   90.00000000
_cell_angle_gamma   120.00000480
_symmetry_Int_Tables_number   1
_chemical_formula_structural   Sc2SbI2
_chemical_formula_sum   'Sc2 Sb1 I2'
_cell_volume   160.04638871
_cell_formula_units_Z   1
loop_
 _symmetry_equiv_pos_site_id
 _symmetry_equiv_pos_as_xyz
  1  'x, y, z'
loop_
 _atom_site_type_symbol
 _atom_site_label
 _atom_site_symmetry_multiplicity
 _atom_site_fract_x
 _atom_site_fract_y
 _atom_site_fract_z
 _atom_site_occupancy
  Sc  Sc0  1  0.33333300  0.66666700  0.14896271  1
  Sc  Sc1  1  0.66666700  0.33333300  0.85103729  1
  Sb  Sb0  1  0.00000000  0.00000000  0.00000000  1
  I  I0  1  0.33333300  0.66666700  0.67971781  1
  I  I1  1  0.66666700  0.33333300  0.32028219  1
loop_
_geom_bond_atom_site_label_1
_geom_bond_atom_site_label_2
_geom_bond_distance
_geom_bond_site_symmetry_2
Sb0 Sc0 2.880253 1_545
Sb0 Sc1 2.880253 1_454
Sb0 Sc0 2.880256 1_555
Sb0 Sc1 2.880256 1_444
Sb0 Sc0 2.880256 1_445
Sb0 Sc1 2.880256 1_554
I0 Sc1 3.019980 1_565
I0 Sc1 3.019980 1_455
I0 Sc1 3.019986 1_555
I1 Sc0 3.019980 1_545
I1 Sc0 3.019980 1_655
I1 Sc0 3.019986 1_555
