# generated using pymatgen
data_Ca10GaTcN10
_symmetry_space_group_name_H-M   'P 1'
_cell_length_a   6.88849131
_cell_length_b   6.88848957
_cell_length_c   8.68362978
_cell_angle_alpha   81.90977805
_cell_angle_beta   81.90977126
_cell_angle_gamma   60.40643992
_symmetry_Int_Tables_number   1
_chemical_formula_structural   Ca10GaTcN10
_chemical_formula_sum   'Ca10 Ga1 Tc1 N10'
_cell_volume   353.51557063
_cell_formula_units_Z   1
loop_
 _symmetry_equiv_pos_site_id
 _symmetry_equiv_pos_as_xyz
  1  'x, y, z'
loop_
 _atom_site_type_symbol
 _atom_site_label
 _atom_site_symmetry_multiplicity
 _atom_site_fract_x
 _atom_site_fract_y
 _atom_site_fract_z
 _atom_site_occupancy
  Ca  Ca0  1  0.90113762  0.36304718  0.83899512  1
  Ca  Ca1  1  0.88434303  0.88434303  0.81047453  1
  Ca  Ca2  1  0.73595480  0.73595480  0.54163505  1
  Ca  Ca3  1  0.73964422  0.26376458  0.52431924  1
  Ca  Ca4  1  0.60983744  0.12811709  0.12879856  1
  Ca  Ca5  1  0.36304718  0.90113762  0.83899512  1
  Ca  Ca6  1  0.26376458  0.73964422  0.52431924  1
  Ca  Ca7  1  0.24622492  0.24622492  0.50435583  1
  Ca  Ca8  1  0.13074199  0.13074199  0.17228552  1
  Ca  Ca9  1  0.12811709  0.60983744  0.12879856  1
  Ga  Ga0  1  0.37138779  0.37138779  0.77169321  1
  Tc  Tc0  1  0.63237740  0.63237740  0.22722473  1
  N  N0  1  0.89808537  0.47435979  0.31946751  1
  N  N1  1  0.98583158  0.98583158  0.03358129  1
  N  N2  1  0.69143419  0.69143419  0.02598111  1
  N  N3  1  0.54475896  0.54475896  0.70317951  1
  N  N4  1  0.47435979  0.89808537  0.31946751  1
  N  N5  1  0.55337025  0.07753106  0.66207889  1
  N  N6  1  0.47622629  0.47622629  0.27695216  1
  N  N7  1  0.28803446  0.28803446  0.98446901  1
  N  N8  1  0.06607900  0.06607900  0.64665741  1
  N  N9  1  0.07753106  0.55337025  0.66207889  1
loop_
_geom_bond_atom_site_label_1
_geom_bond_atom_site_label_2
_geom_bond_distance
_geom_bond_site_symmetry_2
Ca0 N9 2.456927 1_655
Ca0 N3 2.519660 1_555
Ca0 N8 2.529247 1_655
Ca0 N2 2.643179 1_556
Ca0 N1 2.737112 1_546
Ca0 N7 2.892997 1_655
Ca1 N8 2.388192 1_665
Ca1 N1 2.444605 1_556
Ca1 N9 2.444791 1_655
Ca1 N5 2.444792 1_565
Ca1 N2 2.716242 1_556
Ca2 N5 2.368880 1_565
Ca2 N9 2.368881 1_655
Ca2 N3 2.471902 1_555
Ca2 N0 2.569181 1_555
Ca2 N4 2.569181 1_555
Ca3 N8 2.297852 1_655
Ca3 N5 2.342028 1_555
Ca3 N3 2.377802 1_555
Ca3 N0 2.598274 1_555
Ca3 N6 2.763673 1_555
Ca4 N1 2.338930 1_545
Ca4 N7 2.383213 1_554
Ca4 N4 2.531868 1_545
Ca4 N6 2.570515 1_555
Ca4 N2 3.017676 1_545
Ca5 N5 2.456927 1_565
Ca5 N3 2.519659 1_555
Ca5 N8 2.529247 1_565
Ca5 N2 2.643179 1_556
Ca5 N1 2.737112 1_456
Ca5 N7 2.892996 1_565
Ca6 N8 2.297852 1_565
Ca6 N9 2.342028 1_555
Ca6 N3 2.377803 1_555
Ca6 N4 2.598274 1_555
Ca6 N6 2.763673 1_555
Ca7 N8 2.294455 1_555
Ca7 N9 2.375280 1_555
Ca7 N5 2.375281 1_555
Ca7 N4 2.729406 1_545
Ca7 N0 2.729406 1_455
Ca7 N6 3.104498 1_555
Ca8 N1 2.259326 1_445
Ca8 N7 2.274352 1_554
Ca8 N0 2.516519 1_455
Ca8 N4 2.516520 1_545
Ca9 N1 2.338930 1_455
Ca9 N7 2.383213 1_554
Ca9 N0 2.531868 1_455
Ca9 N6 2.570515 1_555
Ca9 N2 3.017677 1_455
Ga0 N7 1.949782 1_555
Ga0 N3 2.053105 1_555
Ga0 N5 2.067646 1_555
Ga0 N9 2.067647 1_555
N0 Tc0 1.837389 1_555
N2 Tc0 1.774289 1_555
N4 Tc0 1.837389 1_555
N6 Tc0 1.838964 1_555
