# generated using pymatgen
data_SmScO3
_symmetry_space_group_name_H-M   'P 1'
_cell_length_a   5.52626673
_cell_length_b   5.78431658
_cell_length_c   7.97599084
_cell_angle_alpha   90.00000000
_cell_angle_beta   90.00000000
_cell_angle_gamma   90.00000000
_symmetry_Int_Tables_number   1
_chemical_formula_structural   SmScO3
_chemical_formula_sum   'Sm4 Sc4 O12'
_cell_volume   254.95794114
_cell_formula_units_Z   4
loop_
 _symmetry_equiv_pos_site_id
 _symmetry_equiv_pos_as_xyz
  1  'x, y, z'
loop_
 _atom_site_type_symbol
 _atom_site_label
 _atom_site_symmetry_multiplicity
 _atom_site_fract_x
 _atom_site_fract_y
 _atom_site_fract_z
 _atom_site_occupancy
  Sm  Sm0  1  0.01735493  0.94037724  0.25000000  1
  Sm  Sm1  1  0.51735493  0.55962276  0.75000000  1
  Sm  Sm2  1  0.48264507  0.44037724  0.25000000  1
  Sm  Sm3  1  0.98264507  0.05962276  0.75000000  1
  Sc  Sc0  1  0.00000000  0.50000000  0.00000000  1
  Sc  Sc1  1  0.50000000  -0.00000000  -0.00000000  1
  Sc  Sc2  1  0.50000000  -0.00000000  0.50000000  1
  Sc  Sc3  1  0.00000000  0.50000000  0.50000000  1
  O  O0  1  0.88206952  0.54721112  0.25000000  1
  O  O1  1  0.38206952  0.95278888  0.75000000  1
  O  O2  1  0.61793048  0.04721112  0.25000000  1
  O  O3  1  0.11793048  0.45278888  0.75000000  1
  O  O4  1  0.69479673  0.30298091  0.93818140  1
  O  O5  1  0.19479673  0.19701909  0.06181860  1
  O  O6  1  0.80520327  0.80298091  0.56181860  1
  O  O7  1  0.30520327  0.69701909  0.43818140  1
  O  O8  1  0.30520327  0.69701909  0.06181860  1
  O  O9  1  0.80520327  0.80298091  0.93818140  1
  O  O10  1  0.19479673  0.19701909  0.43818140  1
  O  O11  1  0.69479673  0.30298091  0.56181860  1
loop_
_geom_bond_atom_site_label_1
_geom_bond_atom_site_label_2
_geom_bond_distance
_geom_bond_site_symmetry_2
O0 Sc3 2.115499 1_655
O0 Sc0 2.115499 1_655
O0 Sm2 2.292196 1_555
O0 Sm0 2.393933 1_655
O1 Sc2 2.115499 1_565
O1 Sc1 2.115499 1_566
O1 Sm3 2.292196 1_465
O1 Sm1 2.393933 1_555
O2 Sc1 2.115499 1_555
O2 Sc2 2.115499 1_555
O2 Sm0 2.292196 1_645
O2 Sm2 2.393933 1_555
O3 Sc3 2.115499 1_555
O3 Sc0 2.115499 1_556
O3 Sm1 2.292196 1_555
O3 Sm3 2.393933 1_455
O4 Sc0 2.094418 1_656
O4 Sc1 2.115030 1_556
O4 Sm1 2.327679 1_555
O4 Sm3 2.600908 1_555
O4 Sm2 2.862103 1_556
O5 Sc1 2.094418 1_555
O5 Sc0 2.115030 1_555
O5 Sm0 2.327679 1_545
O5 Sm2 2.600908 1_555
O5 Sm3 2.862103 1_454
O6 Sc2 2.094418 1_565
O6 Sc3 2.115030 1_655
O6 Sm3 2.327679 1_565
O6 Sm1 2.600908 1_555
O6 Sm0 2.862103 1_655
O7 Sc3 2.094418 1_555
O7 Sc2 2.115030 1_565
O7 Sm2 2.327679 1_555
O7 Sm0 2.600908 1_555
O7 Sm1 2.862103 1_555
O8 Sc0 2.094418 1_555
O8 Sc1 2.115030 1_565
O8 Sm2 2.327679 1_555
O8 Sm0 2.600908 1_555
O8 Sm1 2.862103 1_554
O9 Sc1 2.094418 1_566
O9 Sc0 2.115030 1_656
O9 Sm3 2.327679 1_565
O9 Sm1 2.600908 1_555
O9 Sm0 2.862103 1_656
O10 Sc2 2.094418 1_555
O10 Sc3 2.115030 1_555
O10 Sm0 2.327679 1_545
O10 Sm2 2.600908 1_555
O10 Sm3 2.862103 1_455
O11 Sc3 2.094418 1_655
O11 Sc2 2.115030 1_555
O11 Sm1 2.327679 1_555
O11 Sm3 2.600908 1_555
O11 Sm2 2.862103 1_555
