# generated using pymatgen
data_Sr2ZnRh3
_symmetry_space_group_name_H-M   'P 1'
_cell_length_a   5.58985886
_cell_length_b   5.33746796
_cell_length_c   5.58985907
_cell_angle_alpha   58.42304787
_cell_angle_beta   60.00000453
_cell_angle_gamma   58.42303930
_symmetry_Int_Tables_number   1
_chemical_formula_structural   Sr2ZnRh3
_chemical_formula_sum   'Sr2 Zn1 Rh3'
_cell_volume   115.03981052
_cell_formula_units_Z   1
loop_
 _symmetry_equiv_pos_site_id
 _symmetry_equiv_pos_as_xyz
  1  'x, y, z'
loop_
 _atom_site_type_symbol
 _atom_site_label
 _atom_site_symmetry_multiplicity
 _atom_site_fract_x
 _atom_site_fract_y
 _atom_site_fract_z
 _atom_site_occupancy
  Sr  Sr0  1  0.24972007  0.25084079  0.24972007  1
  Sr  Sr1  1  0.00027993  0.99915921  0.00027993  1
  Zn  Zn0  1  0.62500000  0.12500000  0.62500000  1
  Rh  Rh0  1  0.62500000  0.62500000  0.12500000  1
  Rh  Rh1  1  0.12500000  0.62500000  0.62500000  1
  Rh  Rh2  1  0.62500000  0.62500000  0.62500000  1
loop_
_geom_bond_atom_site_label_1
_geom_bond_atom_site_label_2
_geom_bond_distance
_geom_bond_site_symmetry_2
Sr0 Sr1 3.181282 1_555
Sr0 Zn0 3.271344 1_555
Sr0 Zn0 3.271349 1_554
Sr0 Zn0 3.271349 1_455
Sr0 Sr1 3.400044 1_645
Sr0 Sr1 3.400044 1_546
Sr0 Sr1 3.400053 1_545
Sr1 Zn0 3.271344 1_464
Sr1 Zn0 3.271349 1_465
Sr1 Zn0 3.271349 1_564
Rh0 Zn0 2.668734 1_564
Rh0 Zn0 2.668734 1_555
Rh0 Rh2 2.794930 1_555
Rh0 Rh2 2.794930 1_554
Rh0 Rh1 2.794930 1_555
Rh0 Rh1 2.794930 1_654
Rh0 Sr0 3.111700 1_565
Rh0 Sr1 3.111700 1_645
Rh0 Sr1 3.215860 1_655
Rh0 Sr0 3.215860 1_555
Rh0 Sr0 3.215865 1_655
Rh0 Sr1 3.215865 1_555
Rh1 Zn0 2.668734 1_555
Rh1 Zn0 2.668734 1_465
Rh1 Rh2 2.794929 1_555
Rh1 Rh2 2.794929 1_455
Rh1 Sr0 3.111700 1_565
Rh1 Sr1 3.111700 1_546
Rh1 Sr1 3.215860 1_556
Rh1 Sr0 3.215860 1_555
Rh1 Sr0 3.215865 1_556
Rh1 Sr1 3.215865 1_555
Rh2 Zn0 2.668734 1_565
Rh2 Zn0 2.668734 1_555
Rh2 Sr1 3.111698 1_646
Rh2 Sr0 3.111698 1_565
Rh2 Sr1 3.215862 1_556
Rh2 Sr0 3.215862 1_655
Rh2 Sr1 3.215863 1_655
Rh2 Sr0 3.215863 1_556
