# generated using pymatgen
data_Ba2Zn4SbP3
_symmetry_space_group_name_H-M   'P 1'
_cell_length_a   4.23224433
_cell_length_b   9.97660886
_cell_length_c   10.85575662
_cell_angle_alpha   88.92458312
_cell_angle_beta   90.00000000
_cell_angle_gamma   90.00000000
_symmetry_Int_Tables_number   1
_chemical_formula_structural   Ba2Zn4SbP3
_chemical_formula_sum   'Ba4 Zn8 Sb2 P6'
_cell_volume   458.28671866
_cell_formula_units_Z   2
loop_
 _symmetry_equiv_pos_site_id
 _symmetry_equiv_pos_as_xyz
  1  'x, y, z'
loop_
 _atom_site_type_symbol
 _atom_site_label
 _atom_site_symmetry_multiplicity
 _atom_site_fract_x
 _atom_site_fract_y
 _atom_site_fract_z
 _atom_site_occupancy
  Ba  Ba0  1  0.25000000  0.73492703  0.32534539  1
  Ba  Ba1  1  0.75000000  0.26507297  0.67465461  1
  Ba  Ba2  1  0.25000000  0.25577418  0.16857608  1
  Ba  Ba3  1  0.75000000  0.74422582  0.83142392  1
  Zn  Zn0  1  0.75000000  0.40095700  0.94954063  1
  Zn  Zn1  1  0.25000000  0.59904300  0.05045937  1
  Zn  Zn2  1  0.25000000  0.12149973  0.45073019  1
  Zn  Zn3  1  0.75000000  0.87850027  0.54926981  1
  Zn  Zn4  1  0.75000000  0.94909139  0.09932839  1
  Zn  Zn5  1  0.25000000  0.05090861  0.90067161  1
  Zn  Zn6  1  0.75000000  0.45425373  0.38089993  1
  Zn  Zn7  1  0.25000000  0.54574627  0.61910007  1
  Sb  Sb0  1  0.75000000  0.02306651  0.33508689  1
  Sb  Sb1  1  0.25000000  0.97693349  0.66491311  1
  P  P0  1  0.75000000  0.63797350  0.54297760  1
  P  P1  1  0.25000000  0.36202650  0.45702240  1
  P  P2  1  0.25000000  0.84457746  0.04006666  1
  P  P3  1  0.75000000  0.15542254  0.95993334  1
  P  P4  1  0.75000000  0.52087846  0.15510698  1
  P  P5  1  0.25000000  0.47912154  0.84489302  1
loop_
_geom_bond_atom_site_label_1
_geom_bond_atom_site_label_2
_geom_bond_distance
_geom_bond_site_symmetry_2
Ba0 P2 3.265031 1_555
Ba0 Zn1 3.300682 1_555
Ba0 P0 3.302953 1_555
Ba0 P0 3.302953 1_455
Ba0 Zn3 3.545348 1_455
Ba0 Zn3 3.545348 1_555
Ba0 P4 3.549892 1_555
Ba0 P4 3.549892 1_455
Ba0 Zn6 3.552356 1_555
Ba0 Zn6 3.552356 1_455
Ba0 Sb0 3.572703 1_465
Ba0 Sb0 3.572703 1_565
Ba1 P3 3.265031 1_555
Ba1 Zn0 3.300682 1_555
Ba1 P1 3.302953 1_555
Ba1 P1 3.302953 1_655
Ba1 Zn2 3.545348 1_555
Ba1 Zn2 3.545348 1_655
Ba1 P5 3.549892 1_655
Ba1 P5 3.549892 1_555
Ba1 Zn7 3.552356 1_555
Ba1 Zn7 3.552356 1_655
Ba1 Sb1 3.572703 1_545
Ba1 Sb1 3.572703 1_645
Ba2 P3 3.270404 1_554
Ba2 P3 3.270404 1_454
Ba2 Zn2 3.320010 1_555
Ba2 P1 3.324656 1_555
Ba2 P4 3.388218 1_555
Ba2 P4 3.388218 1_455
Ba2 Zn0 3.478586 1_554
Ba2 Zn0 3.478586 1_454
Ba2 Zn5 3.585910 1_554
Ba2 Sb0 3.602478 1_455
Ba2 Sb0 3.602478 1_555
Ba2 Zn1 3.634227 1_555
Ba2 Zn6 3.725994 1_555
Ba2 Zn6 3.725994 1_455
Ba2 Zn4 3.806692 1_445
Ba2 Zn4 3.806692 1_545
Ba3 P2 3.270404 1_656
Ba3 P2 3.270404 1_556
Ba3 Zn3 3.320010 1_555
Ba3 P0 3.324656 1_555
Ba3 P5 3.388218 1_555
Ba3 P5 3.388218 1_655
Ba3 Zn1 3.478586 1_556
Ba3 Zn1 3.478586 1_656
Ba3 Zn4 3.585910 1_556
Ba3 Sb1 3.602478 1_655
Ba3 Sb1 3.602478 1_555
Ba3 Zn0 3.634227 1_555
Ba3 Zn7 3.725994 1_555
Ba3 Zn7 3.725994 1_655
Ba3 Zn5 3.806692 1_565
Ba3 Zn5 3.806692 1_665
Sb0 Zn2 2.657941 1_555
Sb0 Zn2 2.657941 1_655
Sb0 Zn4 2.676898 1_545
Sb0 Zn3 2.713018 1_545
Sb1 Zn3 2.657941 1_455
Sb1 Zn3 2.657941 1_555
Sb1 Zn5 2.676898 1_565
Sb1 Zn2 2.713018 1_565
P0 Zn3 2.401895 1_555
P0 Zn7 2.445184 1_555
P0 Zn7 2.445184 1_655
P0 Zn6 2.564436 1_555
P1 Zn2 2.401895 1_555
P1 Zn6 2.445184 1_555
P1 Zn6 2.445184 1_455
P1 Zn7 2.564436 1_555
P2 Zn1 2.450082 1_555
P2 Zn4 2.450355 1_455
P2 Zn4 2.450355 1_555
P2 Zn5 2.531862 1_564
P3 Zn0 2.450082 1_555
P3 Zn5 2.450355 1_555
P3 Zn5 2.450355 1_655
P3 Zn4 2.531862 1_546
P4 Zn1 2.518610 1_555
P4 Zn1 2.518610 1_655
P4 Zn6 2.527609 1_555
P4 Zn0 2.551775 1_554
P5 Zn0 2.518610 1_455
P5 Zn0 2.518610 1_555
P5 Zn7 2.527609 1_555
P5 Zn1 2.551775 1_556
