# generated using pymatgen
data_K9Ta10O30
_symmetry_space_group_name_H-M   'P 1'
_cell_length_a   8.99755000
_cell_length_b   8.99818623
_cell_length_c   8.99809673
_cell_angle_alpha   90.00296816
_cell_angle_beta   101.53988128
_cell_angle_gamma   113.58116946
_symmetry_Int_Tables_number   1
_chemical_formula_structural   K9Ta10O30
_chemical_formula_sum   'K9 Ta10 O30'
_cell_volume   651.56362164
_cell_formula_units_Z   1
loop_
 _symmetry_equiv_pos_site_id
 _symmetry_equiv_pos_as_xyz
  1  'x, y, z'
loop_
 _atom_site_type_symbol
 _atom_site_label
 _atom_site_symmetry_multiplicity
 _atom_site_fract_x
 _atom_site_fract_y
 _atom_site_fract_z
 _atom_site_occupancy
  K  K0  1  0.49988000  0.39928500  0.69976900  1
  K  K1  1  0.50001200  0.80010500  0.89918000  1
  K  K2  1  0.00002000  0.60052000  0.80030400  1
  K  K3  1  0.49998800  0.19989500  0.10082000  1
  K  K4  1  0.00000000  0.00000000  0.00000000  1
  K  K5  1  0.99998000  0.39948000  0.19969600  1
  K  K6  1  0.50012000  0.60071500  0.30023100  1
  K  K7  1  0.00052700  0.79980400  0.40020200  1
  K  K8  1  0.99947300  0.20019600  0.59979800  1
  Ta  Ta0  1  0.74785000  0.80153900  0.64794600  1
  Ta  Ta1  1  0.74666400  0.19711100  0.84689700  1
  Ta  Ta2  1  0.25119000  0.99897400  0.74791400  1
  Ta  Ta3  1  0.75092800  0.60034400  0.05020500  1
  Ta  Ta4  1  0.24907200  0.39965600  0.94979500  1
  Ta  Ta5  1  0.74881000  0.00102600  0.25208600  1
  Ta  Ta6  1  0.25333600  0.80288900  0.15310300  1
  Ta  Ta7  1  0.74818700  0.39691300  0.45121000  1
  Ta  Ta8  1  0.25215000  0.19846100  0.35205400  1
  Ta  Ta9  1  0.25181300  0.60308700  0.54879000  1
  O  O0  1  0.75202300  0.99998700  0.75198900  1
  O  O1  1  0.49993700  0.10080100  0.80240600  1
  O  O2  1  0.00005800  0.90014000  0.69980500  1
  O  O3  1  0.75201700  0.30238400  0.65130100  1
  O  O4  1  0.74987700  0.39985400  0.94980700  1
  O  O5  1  0.25017900  0.20002300  0.84986900  1
  O  O6  1  0.50000000  0.50000000  0.00000000  1
  O  O7  1  0.74989500  0.70012100  0.84990900  1
  O  O8  1  0.25014400  0.50020400  0.74994400  1
  O  O9  1  0.99981700  0.29988400  0.89981600  1
  O  O10  1  0.74982100  0.79997700  0.15013100  1
  O  O11  1  0.25012300  0.60014600  0.05019300  1
  O  O12  1  0.50006300  0.89919900  0.19759400  1
  O  O13  1  0.00018300  0.70011600  0.10018400  1
  O  O14  1  0.74971900  0.09989100  0.04991800  1
  O  O15  1  0.25028100  0.90010900  0.95008200  1
  O  O16  1  0.75193800  0.20162800  0.34881600  1
  O  O17  1  0.24797700  0.00001300  0.24801100  1
  O  O18  1  0.49998500  0.30239900  0.39917800  1
  O  O19  1  0.74985600  0.49979600  0.25005600  1
  O  O20  1  0.99994200  0.09986000  0.30019500  1
  O  O21  1  0.25010500  0.29987900  0.15009100  1
  O  O22  1  0.74975800  0.59993200  0.54995300  1
  O  O23  1  0.25024200  0.40006800  0.45004700  1
  O  O24  1  0.00000000  0.50000000  0.50000000  1
  O  O25  1  0.50001500  0.69760100  0.60082200  1
  O  O26  1  0.75195700  0.89920100  0.44952100  1
  O  O27  1  0.24798300  0.69761600  0.34869900  1
  O  O28  1  0.24806200  0.79837200  0.65118400  1
  O  O29  1  0.24804300  0.10079900  0.55047900  1
loop_
_geom_bond_atom_site_label_1
_geom_bond_atom_site_label_2
_geom_bond_distance
_geom_bond_site_symmetry_2
K0 O25 2.827764 1_555
K0 O29 2.839911 1_555
K0 O1 2.840368 1_555
K0 O3 2.841752 1_555
K0 O18 2.842028 1_555
K0 O5 2.842169 1_555
K0 O4 2.843857 1_555
K0 O23 2.843867 1_555
K0 O22 2.845504 1_555
K0 O8 2.848852 1_555
K0 O6 2.849076 1_556
K0 O7 2.850404 1_555
K1 O12 2.829147 1_556
K1 O25 2.838642 1_555
K1 O28 2.840164 1_555
K1 O0 2.840653 1_555
K1 O8 2.842094 1_555
K1 O7 2.842211 1_555
K1 O1 2.842647 1_565
K1 O14 2.845258 1_566
K1 O15 2.845673 1_555
K1 O6 2.848721 1_556
K1 O10 2.849973 1_556
K1 O11 2.850424 1_556
K2 O28 2.823141 1_555
K2 O3 2.826077 1_455
K2 O13 2.842772 1_556
K2 O15 2.842977 1_555
K2 O7 2.843044 1_455
K2 O2 2.843591 1_555
K2 O4 2.845286 1_455
K2 O11 2.846294 1_556
K2 O22 2.847092 1_455
K2 O9 2.848986 1_455
K2 O8 2.849251 1_555
K2 O24 2.849426 1_555
K3 O1 2.829147 1_554
K3 O18 2.838642 1_555
K3 O16 2.840164 1_555
K3 O17 2.840653 1_555
K3 O19 2.842094 1_555
K3 O21 2.842211 1_555
K3 O12 2.842647 1_545
K3 O15 2.845258 1_544
K3 O14 2.845673 1_555
K3 O6 2.848721 1_555
K3 O5 2.849973 1_554
K3 O4 2.850424 1_554
K4 O17 2.822405 1_555
K4 O0 2.822405 1_444
K4 O21 2.845070 1_555
K4 O7 2.845070 1_444
K4 O13 2.845573 1_545
K4 O9 2.845573 1_454
K4 O2 2.846838 1_544
K4 O20 2.846838 1_455
K4 O15 2.846914 1_544
K4 O14 2.846914 1_455
K4 O5 2.847227 1_554
K4 O10 2.847227 1_445
K5 O16 2.823141 1_555
K5 O27 2.826077 1_655
K5 O9 2.842772 1_554
K5 O14 2.842977 1_555
K5 O21 2.843044 1_655
K5 O20 2.843591 1_555
K5 O11 2.845286 1_655
K5 O4 2.846294 1_554
K5 O23 2.847092 1_655
K5 O13 2.848986 1_655
K5 O19 2.849251 1_555
K5 O24 2.849426 1_655
K6 O18 2.827764 1_555
K6 O26 2.839911 1_555
K6 O12 2.840368 1_555
K6 O27 2.841752 1_555
K6 O25 2.842028 1_555
K6 O10 2.842169 1_555
K6 O11 2.843857 1_555
K6 O22 2.843867 1_555
K6 O23 2.845504 1_555
K6 O19 2.848852 1_555
K6 O6 2.849076 1_555
K6 O21 2.850404 1_555
K7 O26 2.827794 1_455
K7 O27 2.840486 1_555
K7 O28 2.841011 1_555
K7 O24 2.841773 1_555
K7 O13 2.843697 1_555
K7 O17 2.844087 1_565
K7 O2 2.844316 1_555
K7 O29 2.844720 1_565
K7 O19 2.847575 1_455
K7 O20 2.847685 1_465
K7 O22 2.847999 1_455
K7 O10 2.850191 1_455
K8 O29 2.827794 1_655
K8 O3 2.840486 1_555
K8 O16 2.841011 1_555
K8 O24 2.841773 1_655
K8 O9 2.843697 1_555
K8 O0 2.844087 1_545
K8 O20 2.844316 1_555
K8 O26 2.844720 1_545
K8 O8 2.847575 1_655
K8 O2 2.847685 1_645
K8 O23 2.847999 1_655
K8 O5 2.850191 1_655
O0 Ta1 1.990626 1_565
O0 Ta0 1.999651 1_555
O1 Ta1 1.986090 1_555
O1 Ta2 2.002307 1_545
O2 Ta2 2.021083 1_555
O2 Ta0 2.029742 1_455
O3 Ta7 1.991245 1_555
O3 Ta1 1.998697 1_555
O4 Ta3 2.013343 1_556
O4 Ta1 2.033067 1_555
O5 Ta4 2.013233 1_555
O5 Ta2 2.032436 1_545
O6 Ta3 2.019298 1_555
O6 Ta4 2.019298 1_554
O7 Ta3 2.013583 1_556
O7 Ta0 2.033687 1_555
O8 Ta4 2.013106 1_555
O8 Ta9 2.033051 1_555
O9 Ta4 2.005835 1_655
O9 Ta1 2.037351 1_555
O10 Ta3 2.013233 1_555
O10 Ta5 2.032436 1_565
O11 Ta4 2.013343 1_554
O11 Ta6 2.033067 1_555
O12 Ta6 1.986090 1_555
O12 Ta5 2.002307 1_565
O13 Ta3 2.005835 1_455
O13 Ta6 2.037351 1_555
O14 Ta5 2.025090 1_555
O14 Ta1 2.025477 1_554
O15 Ta2 2.025090 1_555
O15 Ta6 2.025477 1_556
O16 Ta5 1.991475 1_555
O16 Ta7 1.999385 1_555
O17 Ta6 1.990626 1_545
O17 Ta8 1.999651 1_555
O18 Ta8 1.994997 1_555
O18 Ta7 1.997937 1_555
O19 Ta3 2.013106 1_555
O19 Ta7 2.033051 1_555
O20 Ta5 2.021083 1_555
O20 Ta8 2.029742 1_655
O21 Ta4 2.013583 1_554
O21 Ta8 2.033687 1_555
O22 Ta0 2.024731 1_555
O22 Ta7 2.025089 1_555
O23 Ta8 2.024731 1_555
O23 Ta9 2.025089 1_555
O24 Ta9 2.026580 1_555
O24 Ta7 2.026580 1_455
O25 Ta0 1.994997 1_555
O25 Ta9 1.997937 1_555
O26 Ta0 1.990483 1_555
O26 Ta5 1.999297 1_565
O27 Ta9 1.991245 1_555
O27 Ta6 1.998697 1_555
O28 Ta2 1.991475 1_555
O28 Ta9 1.999385 1_555
O29 Ta8 1.990483 1_555
O29 Ta2 1.999297 1_545
