# generated using pymatgen
data_Ta4Tc(NiP)4
_symmetry_space_group_name_H-M   'P 1'
_cell_length_a   7.10777551
_cell_length_b   7.10777482
_cell_length_c   7.10515428
_cell_angle_alpha   93.58278059
_cell_angle_beta   93.58785871
_cell_angle_gamma   151.04220820
_symmetry_Int_Tables_number   1
_chemical_formula_structural   Ta4Tc(NiP)4
_chemical_formula_sum   'Ta4 Tc1 Ni4 P4'
_cell_volume   168.26998272
_cell_formula_units_Z   1
loop_
 _symmetry_equiv_pos_site_id
 _symmetry_equiv_pos_as_xyz
  1  'x, y, z'
loop_
 _atom_site_type_symbol
 _atom_site_label
 _atom_site_symmetry_multiplicity
 _atom_site_fract_x
 _atom_site_fract_y
 _atom_site_fract_z
 _atom_site_occupancy
  Ta  Ta0  1  0.87125509  0.19497678  0.06623086  1
  Ta  Ta1  1  0.12874491  0.80502322  0.93376914  1
  Ta  Ta2  1  0.19486221  0.12866848  0.32353169  1
  Ta  Ta3  1  0.80513779  0.87133152  0.67646831  1
  Tc  Tc0  1  0.50000000  0.50000000  0.00000000  1
  Ni  Ni0  1  0.60926050  0.08808456  0.69734606  1
  Ni  Ni1  1  0.39073950  0.91191544  0.30265394  1
  Ni  Ni2  1  0.08807772  0.39069786  0.47877458  1
  Ni  Ni3  1  0.91192228  0.60930214  0.52122542  1
  P  P0  1  0.75579449  0.44368177  0.19947526  1
  P  P1  1  0.24420551  0.55631823  0.80052474  1
  P  P2  1  0.44364099  0.24417699  0.68781898  1
  P  P3  1  0.55635901  0.75582301  0.31218102  1
loop_
_geom_bond_atom_site_label_1
_geom_bond_atom_site_label_2
_geom_bond_distance
_geom_bond_site_symmetry_2
Ta0 Tc0 2.886031 1_655
Ta0 Tc0 2.886033 1_545
Ta1 Tc0 2.886031 1_456
Ta1 Tc0 2.886033 1_566
Ta2 Tc0 2.884300 1_445
Ta2 Tc0 2.884303 1_555
Ta3 Tc0 2.884300 1_666
Ta3 Tc0 2.884303 1_556
Ni0 P2 2.214998 1_555
Ni0 P1 2.231185 1_545
Ni0 P1 2.231185 1_655
Ni0 Ta0 2.752987 1_556
Ni0 Ta1 2.765895 1_655
Ni0 Ta1 2.765896 1_545
Ni0 Ta3 2.843371 1_545
Ni1 P3 2.214998 1_555
Ni1 P0 2.231185 1_565
Ni1 P0 2.231185 1_455
Ni1 Ta1 2.752987 1_554
Ni1 Ta0 2.765895 1_455
Ni1 Ta0 2.765896 1_565
Ni1 Ta2 2.843371 1_565
Ni2 P1 2.214390 1_555
Ni2 P3 2.230610 1_445
Ni2 P3 2.230610 1_555
Ni2 Ta2 2.753762 1_555
Ni2 Ta3 2.766757 1_445
Ni2 Ta3 2.766757 1_555
Ni2 Ta0 2.841728 1_455
Ni3 P0 2.214390 1_555
Ni3 P2 2.230610 1_665
Ni3 P2 2.230610 1_555
Ni3 Ta3 2.753762 1_555
Ni3 Ta2 2.766757 1_665
Ni3 Ta2 2.766757 1_555
Ni3 Ta1 2.841728 1_655
P0 Tc0 2.548839 1_555
P0 Ta1 2.550617 1_654
P0 Ta1 2.550621 1_544
P0 Ta2 2.598243 1_665
P0 Ta2 2.598249 1_555
P0 Ta0 2.668607 1_555
P1 Tc0 2.548839 1_556
P1 Ta0 2.550617 1_456
P1 Ta0 2.550621 1_566
P1 Ta3 2.598243 1_445
P1 Ta3 2.598249 1_555
P1 Ta1 2.668607 1_555
P2 Tc0 2.548881 1_556
P2 Ta3 2.550832 1_445
P2 Ta3 2.550837 1_555
P2 Ta1 2.598465 1_655
P2 Ta1 2.598465 1_545
P2 Ta2 2.668571 1_555
P3 Tc0 2.548881 1_555
P3 Ta2 2.550832 1_665
P3 Ta2 2.550837 1_555
P3 Ta0 2.598465 1_455
P3 Ta0 2.598465 1_565
P3 Ta3 2.668571 1_555
