# generated using pymatgen
data_LaTlPd
_symmetry_space_group_name_H-M   'P 1'
_cell_length_a   8.00618353
_cell_length_b   8.00618394
_cell_length_c   3.99141039
_cell_angle_alpha   90.00000000
_cell_angle_beta   90.00000000
_cell_angle_gamma   119.99999833
_symmetry_Int_Tables_number   1
_chemical_formula_structural   LaTlPd
_chemical_formula_sum   'La3 Tl3 Pd3'
_cell_volume   221.56855628
_cell_formula_units_Z   3
loop_
 _symmetry_equiv_pos_site_id
 _symmetry_equiv_pos_as_xyz
  1  'x, y, z'
loop_
 _atom_site_type_symbol
 _atom_site_label
 _atom_site_symmetry_multiplicity
 _atom_site_fract_x
 _atom_site_fract_y
 _atom_site_fract_z
 _atom_site_occupancy
  La  La0  1  0.59367296  0.00000000  0.50000000  1
  La  La1  1  0.40632704  0.40632704  0.50000000  1
  La  La2  1  1.00000000  0.59367296  0.50000000  1
  Tl  Tl0  1  0.25910411  0.00000000  0.00000000  1
  Tl  Tl1  1  0.74089589  0.74089589  -0.00000000  1
  Tl  Tl2  1  1.00000000  0.25910411  -0.00000000  1
  Pd  Pd0  1  0.33333300  0.66666700  -0.00000000  1
  Pd  Pd1  1  0.66666700  0.33333300  0.00000000  1
  Pd  Pd2  1  -0.00000000  0.00000000  0.50000000  1
loop_
_geom_bond_atom_site_label_1
_geom_bond_atom_site_label_2
_geom_bond_distance
_geom_bond_site_symmetry_2
La0 Pd1 3.144336 1_555
La0 Pd1 3.144336 1_556
La0 Pd0 3.144338 1_546
La0 Pd0 3.144338 1_545
La0 Pd2 3.253129 1_655
La0 Tl0 3.340336 1_555
La0 Tl0 3.340336 1_556
La0 Tl2 3.481460 1_555
La0 Tl2 3.481460 1_556
La0 Tl1 3.481460 1_546
La0 Tl1 3.481460 1_545
La1 Pd1 3.144342 1_555
La1 Pd1 3.144342 1_556
La1 Pd0 3.144342 1_555
La1 Pd0 3.144342 1_556
La1 Pd2 3.253129 1_555
La1 Tl1 3.340336 1_555
La1 Tl1 3.340336 1_556
La1 Tl2 3.481460 1_455
La1 Tl2 3.481460 1_456
La1 Tl0 3.481460 1_556
La1 Tl0 3.481460 1_555
La2 Pd0 3.144336 1_655
La2 Pd0 3.144336 1_656
La2 Pd1 3.144338 1_556
La2 Pd1 3.144338 1_555
La2 Pd2 3.253129 1_665
La2 Tl2 3.340336 1_555
La2 Tl2 3.340336 1_556
La2 Tl1 3.481460 1_555
La2 Tl1 3.481460 1_556
La2 Tl0 3.481460 1_665
La2 Tl0 3.481460 1_666
Pd0 Tl0 3.010195 1_565
Pd0 Tl2 3.010200 1_455
Pd0 Tl1 3.010203 1_555
Pd1 Tl2 3.010195 1_555
Pd1 Tl0 3.010200 1_555
Pd1 Tl1 3.010203 1_555
Pd2 Tl0 2.878562 1_555
Pd2 Tl0 2.878562 1_556
Pd2 Tl1 2.878562 1_445
Pd2 Tl1 2.878562 1_446
Pd2 Tl2 2.878562 1_455
Pd2 Tl2 2.878562 1_456
