# generated using pymatgen
data_ZnCu(PdO3)2
_symmetry_space_group_name_H-M   'P 1'
_cell_length_a   6.04127653
_cell_length_b   6.04127581
_cell_length_c   3.09103435
_cell_angle_alpha   90.00000000
_cell_angle_beta   90.00000000
_cell_angle_gamma   109.09361345
_symmetry_Int_Tables_number   1
_chemical_formula_structural   ZnCu(PdO3)2
_chemical_formula_sum   'Zn1 Cu1 Pd2 O6'
_cell_volume   106.60714179
_cell_formula_units_Z   1
loop_
 _symmetry_equiv_pos_site_id
 _symmetry_equiv_pos_as_xyz
  1  'x, y, z'
loop_
 _atom_site_type_symbol
 _atom_site_label
 _atom_site_symmetry_multiplicity
 _atom_site_fract_x
 _atom_site_fract_y
 _atom_site_fract_z
 _atom_site_occupancy
  Zn  Zn0  1  0.50000000  0.50000000  0.00000000  1
  Cu  Cu0  1  0.00000000  0.00000000  0.00000000  1
  Pd  Pd0  1  0.50000000  0.00000000  0.50000000  1
  Pd  Pd1  1  0.00000000  0.50000000  0.50000000  1
  O  O0  1  0.07236873  0.32514536  0.00000000  1
  O  O1  1  0.92763127  0.67485464  0.00000000  1
  O  O2  1  0.32514536  0.07236873  0.00000000  1
  O  O3  1  0.67485464  0.92763127  0.00000000  1
  O  O4  1  0.64713413  0.35286587  0.50000000  1
  O  O5  1  0.35286587  0.64713413  0.50000000  1
loop_
_geom_bond_atom_site_label_1
_geom_bond_atom_site_label_2
_geom_bond_distance
_geom_bond_site_symmetry_2
Cu0 O0 1.867552 1_555
Cu0 O1 1.867552 1_445
Cu0 O2 1.867552 1_555
Cu0 O3 1.867552 1_445
O0 Pd1 1.999444 1_555
O0 Pd1 1.999444 1_554
O0 Zn0 2.450436 1_555
O1 Pd1 1.999444 1_654
O1 Pd1 1.999444 1_655
O1 Zn0 2.450436 1_555
O2 Pd0 1.999444 1_555
O2 Pd0 1.999444 1_554
O2 Zn0 2.450436 1_555
O3 Pd0 1.999444 1_565
O3 Pd0 1.999444 1_564
O3 Zn0 2.450436 1_555
O4 Pd0 2.023569 1_555
O4 Pd1 2.023569 1_655
O4 Zn0 2.117956 1_555
O4 Zn0 2.117956 1_556
O5 Pd0 2.023569 1_565
O5 Pd1 2.023569 1_555
O5 Zn0 2.117956 1_555
O5 Zn0 2.117956 1_556
