# generated using pymatgen
data_Nb2ReSi2Mo
_symmetry_space_group_name_H-M   'P 1'
_cell_length_a   7.63584792
_cell_length_b   7.64365005
_cell_length_c   7.63607035
_cell_angle_alpha   126.42053900
_cell_angle_beta   128.11381514
_cell_angle_gamma   77.80677323
_symmetry_Int_Tables_number   1
_chemical_formula_structural   Nb2ReSi2Mo
_chemical_formula_sum   'Nb6 Re3 Si6 Mo3'
_cell_volume   273.55423105
_cell_formula_units_Z   3
loop_
 _symmetry_equiv_pos_site_id
 _symmetry_equiv_pos_as_xyz
  1  'x, y, z'
loop_
 _atom_site_type_symbol
 _atom_site_label
 _atom_site_symmetry_multiplicity
 _atom_site_fract_x
 _atom_site_fract_y
 _atom_site_fract_z
 _atom_site_occupancy
  Nb  Nb0  1  0.54991036  0.09083629  0.03990481  1
  Nb  Nb1  1  0.44787277  0.49385330  0.54565102  1
  Nb  Nb2  1  0.94835898  0.49383646  0.04611694  1
  Nb  Nb3  1  0.05098389  0.09085588  0.54098801  1
  Nb  Nb4  1  0.75216202  0.90511986  0.65367645  1
  Nb  Nb5  1  0.25133666  0.90508561  0.15283118  1
  Re  Re0  1  0.87044026  0.49640847  0.62605717  1
  Re  Re1  1  0.62785933  0.75237760  0.12441540  1
  Re  Re2  1  0.37124403  0.49694398  0.12585788  1
  Si  Si0  1  0.74857201  0.49930020  0.25075582  1
  Si  Si1  1  0.24852821  0.49929757  0.75073153  1
  Si  Si2  1  0.33394578  0.82610016  0.49209491  1
  Si  Si3  1  0.66877209  0.16300475  0.49421657  1
  Si  Si4  1  0.83238870  0.82521263  0.99281378  1
  Si  Si5  1  0.16903278  0.16589464  0.99687339  1
  Mo  Mo0  1  0.50059053  0.24268902  0.74200326  1
  Mo  Mo1  1  0.99930465  0.24102932  0.24166139  1
  Mo  Mo2  1  0.12869596  0.75435226  0.62554951  1
loop_
_geom_bond_atom_site_label_1
_geom_bond_atom_site_label_2
_geom_bond_distance
_geom_bond_site_symmetry_2
Nb0 Si4 2.672953 1_544
Nb0 Si2 2.674981 1_544
Nb0 Si3 2.686149 1_555
Nb0 Si5 2.689756 1_554
Nb0 Si0 2.767296 1_555
Nb0 Re1 2.884680 1_545
Nb0 Re2 2.970687 1_555
Nb0 Re0 2.973247 1_555
Nb1 Si5 2.672960 1_554
Nb1 Si4 2.681624 1_555
Nb1 Si3 2.689094 1_555
Nb1 Si2 2.689667 1_555
Nb1 Si1 2.758542 1_555
Nb1 Re0 2.890584 1_555
Nb1 Re2 2.896080 1_555
Nb1 Re1 2.933402 1_556
Nb2 Si5 2.672612 1_654
Nb2 Si4 2.682780 1_554
Nb2 Si2 2.688414 1_655
Nb2 Si3 2.689361 1_554
Nb2 Si0 2.758483 1_555
Nb2 Re0 2.890877 1_554
Nb2 Re2 2.895921 1_655
Nb2 Re1 2.934683 1_555
Nb3 Si4 2.673017 1_444
Nb3 Si2 2.674847 1_545
Nb3 Si3 2.686384 1_455
Nb3 Si5 2.689597 1_555
Nb3 Si1 2.767113 1_555
Nb3 Re1 2.884929 1_445
Nb3 Re2 2.970601 1_556
Nb3 Re0 2.973401 1_455
Nb4 Si3 2.671403 1_565
Nb4 Si2 2.674152 1_555
Nb4 Si5 2.674554 1_665
Nb4 Si4 2.686354 1_555
Nb4 Si0 2.772792 1_555
Nb4 Re1 2.954232 1_555
Nb4 Re2 2.978092 1_555
Nb4 Re0 2.980062 1_555
Nb5 Si3 2.671495 1_565
Nb5 Si2 2.674484 1_555
Nb5 Si5 2.674566 1_564
Nb5 Si4 2.685776 1_454
Nb5 Si1 2.772550 1_554
Nb5 Re1 2.954207 1_555
Nb5 Re0 2.978752 1_454
Nb5 Re2 2.979335 1_555
Re0 Si1 2.418842 1_655
Re0 Si0 2.419473 1_555
Re0 Si3 2.564529 1_555
Re0 Si4 2.565632 1_555
Re1 Si1 2.425651 1_554
Re1 Si0 2.426407 1_555
Re1 Si3 2.593062 1_565
Re1 Si4 2.593815 1_554
Re2 Si0 2.412617 1_555
Re2 Si1 2.413360 1_554
Re2 Si2 2.560838 1_555
Re2 Si5 2.563386 1_554
Mo0 Si1 2.442246 1_555
Mo0 Si0 2.442335 1_556
Mo0 Si2 2.626585 1_545
Mo0 Si3 2.626974 1_555
Mo0 Nb5 2.870729 1_545
Mo0 Nb4 2.870875 1_545
Mo0 Nb1 2.905554 1_555
Mo0 Nb2 2.906169 1_556
Mo0 Nb3 2.924369 1_555
Mo0 Nb0 2.925203 1_556
Mo1 Si0 2.443833 1_555
Mo1 Si1 2.443860 1_655
Mo1 Si4 2.624355 1_544
Mo1 Si5 2.627713 1_654
Mo1 Nb4 2.865554 1_544
Mo1 Nb5 2.865875 1_645
Mo1 Nb0 2.916253 1_555
Mo1 Nb2 2.916602 1_555
Mo1 Nb3 2.916895 1_655
Mo1 Nb1 2.917090 1_655
Mo2 Si0 2.434527 1_455
Mo2 Si1 2.435426 1_555
Mo2 Si5 2.601944 1_565
Mo2 Si2 2.606498 1_555
Mo2 Nb3 2.870409 1_565
Mo2 Nb0 2.870512 1_566
Mo2 Nb2 2.934893 1_455
Mo2 Nb1 2.935979 1_555
Mo2 Nb5 2.951070 1_556
Mo2 Nb4 2.951183 1_455
