# generated using pymatgen
data_Hf10ZnSiSn6
_symmetry_space_group_name_H-M   'P 1'
_cell_length_a   8.56465333
_cell_length_b   8.56465391
_cell_length_c   5.78853574
_cell_angle_alpha   90.00000000
_cell_angle_beta   90.00000000
_cell_angle_gamma   119.99999400
_symmetry_Int_Tables_number   1
_chemical_formula_structural   Hf10ZnSiSn6
_chemical_formula_sum   'Hf10 Zn1 Si1 Sn6'
_cell_volume   367.72146720
_cell_formula_units_Z   1
loop_
 _symmetry_equiv_pos_site_id
 _symmetry_equiv_pos_as_xyz
  1  'x, y, z'
loop_
 _atom_site_type_symbol
 _atom_site_label
 _atom_site_symmetry_multiplicity
 _atom_site_fract_x
 _atom_site_fract_y
 _atom_site_fract_z
 _atom_site_occupancy
  Hf  Hf0  1  0.33333300  0.66666700  0.00000000  1
  Hf  Hf1  1  0.66666700  0.33333300  0.50000000  1
  Hf  Hf2  1  0.66666700  0.33333300  0.00000000  1
  Hf  Hf3  1  0.33333300  0.66666700  0.50000000  1
  Hf  Hf4  1  0.26227628  0.00000000  0.24462667  1
  Hf  Hf5  1  0.26227628  0.26227628  0.75537333  1
  Hf  Hf6  1  1.00000000  0.73772372  0.75537333  1
  Hf  Hf7  1  0.00000000  0.26227628  0.24462667  1
  Hf  Hf8  1  0.73772372  0.73772372  0.24462667  1
  Hf  Hf9  1  0.73772372  1.00000000  0.75537333  1
  Zn  Zn0  1  0.00000000  0.00000000  0.50000000  1
  Si  Si0  1  0.00000000  0.00000000  0.00000000  1
  Sn  Sn0  1  0.60961184  0.00000000  0.25310954  1
  Sn  Sn1  1  0.60961184  0.60961184  0.74689046  1
  Sn  Sn2  1  1.00000000  0.39038816  0.74689046  1
  Sn  Sn3  1  0.00000000  0.60961184  0.25310954  1
  Sn  Sn4  1  0.39038816  0.39038816  0.25310954  1
  Sn  Sn5  1  0.39038816  1.00000000  0.74689046  1
loop_
_geom_bond_atom_site_label_1
_geom_bond_atom_site_label_2
_geom_bond_distance
_geom_bond_site_symmetry_2
Hf0 Sn3 3.023358 1_555
Hf0 Sn5 3.023358 1_554
Hf0 Sn2 3.023361 1_454
Hf0 Sn0 3.023361 1_565
Hf0 Sn1 3.023365 1_554
Hf0 Sn4 3.023365 1_555
Hf1 Sn2 3.006077 1_555
Hf1 Sn0 3.006077 1_555
Hf1 Sn3 3.006080 1_655
Hf1 Sn5 3.006080 1_545
Hf1 Sn4 3.006085 1_555
Hf1 Sn1 3.006085 1_555
Hf2 Sn2 3.023358 1_554
Hf2 Sn0 3.023358 1_555
Hf2 Sn3 3.023361 1_655
Hf2 Sn5 3.023361 1_544
Hf2 Sn4 3.023365 1_555
Hf2 Sn1 3.023365 1_554
Hf3 Sn3 3.006077 1_555
Hf3 Sn5 3.006077 1_555
Hf3 Sn2 3.006080 1_455
Hf3 Sn0 3.006080 1_565
Hf3 Sn1 3.006085 1_555
Hf3 Sn4 3.006085 1_555
Hf4 Si0 2.655377 1_555
Hf4 Zn0 2.689066 1_555
Hf4 Sn4 2.952447 1_555
Hf4 Sn3 2.952447 1_545
Hf4 Sn0 2.975214 1_555
Hf4 Sn5 3.083022 1_544
Hf4 Sn5 3.107528 1_545
Hf5 Si0 2.655378 1_556
Hf5 Zn0 2.689066 1_555
Hf5 Sn2 2.952447 1_455
Hf5 Sn5 2.952447 1_545
Hf5 Sn1 2.975214 1_555
Hf5 Sn4 3.083022 1_556
Hf5 Sn4 3.107529 1_555
Hf6 Si0 2.655378 1_666
Hf6 Zn0 2.689066 1_665
Hf6 Sn1 2.952447 1_555
Hf6 Sn5 2.952447 1_655
Hf6 Sn2 2.975214 1_555
Hf6 Sn3 3.083022 1_656
Hf6 Sn3 3.107529 1_655
Hf7 Si0 2.655378 1_555
Hf7 Zn0 2.689066 1_555
Hf7 Sn4 2.952447 1_555
Hf7 Sn0 2.952447 1_455
Hf7 Sn3 2.975214 1_555
Hf7 Sn2 3.083022 1_454
Hf7 Sn2 3.107529 1_455
Hf8 Si0 2.655378 1_665
Hf8 Zn0 2.689066 1_665
Hf8 Sn3 2.952447 1_655
Hf8 Sn0 2.952447 1_565
Hf8 Sn4 2.975214 1_555
Hf8 Sn1 3.083022 1_554
Hf8 Sn1 3.107529 1_555
Hf9 Si0 2.655377 1_666
Hf9 Zn0 2.689066 1_665
Hf9 Sn1 2.952447 1_555
Hf9 Sn2 2.952447 1_565
Hf9 Sn5 2.975214 1_555
Hf9 Sn0 3.083022 1_566
Hf9 Sn0 3.107528 1_565
Si0 Zn0 2.894268 1_554
Si0 Zn0 2.894268 1_555
