# generated using pymatgen
data_Rb5TiSb3
_symmetry_space_group_name_H-M   'P 1'
_cell_length_a   9.14177357
_cell_length_b   9.79121891
_cell_length_c   19.23559049
_cell_angle_alpha   60.57440363
_cell_angle_beta   90.00000000
_cell_angle_gamma   90.00000000
_symmetry_Int_Tables_number   1
_chemical_formula_structural   Rb5TiSb3
_chemical_formula_sum   'Rb20 Ti4 Sb12'
_cell_volume   1499.64379476
_cell_formula_units_Z   4
loop_
 _symmetry_equiv_pos_site_id
 _symmetry_equiv_pos_as_xyz
  1  'x, y, z'
loop_
 _atom_site_type_symbol
 _atom_site_label
 _atom_site_symmetry_multiplicity
 _atom_site_fract_x
 _atom_site_fract_y
 _atom_site_fract_z
 _atom_site_occupancy
  Rb  Rb0  1  0.18159021  0.15573431  0.25831589  1
  Rb  Rb1  1  0.68159021  0.84426569  0.24168411  1
  Rb  Rb2  1  0.81840979  0.84426569  0.74168411  1
  Rb  Rb3  1  0.31840979  0.15573431  0.75831589  1
  Rb  Rb4  1  0.16393567  0.83896321  0.58079025  1
  Rb  Rb5  1  0.66393567  0.16103679  0.91920975  1
  Rb  Rb6  1  0.83606433  0.16103679  0.41920975  1
  Rb  Rb7  1  0.33606433  0.83896321  0.08079025  1
  Rb  Rb8  1  0.00380939  0.90830916  0.90973918  1
  Rb  Rb9  1  0.50380939  0.09169084  0.59026082  1
  Rb  Rb10  1  0.99619061  0.09169084  0.09026082  1
  Rb  Rb11  1  0.49619061  0.90830916  0.40973918  1
  Rb  Rb12  1  0.50778686  0.72561625  0.92428973  1
  Rb  Rb13  1  0.00778686  0.27438375  0.57571027  1
  Rb  Rb14  1  0.49221314  0.27438375  0.07571027  1
  Rb  Rb15  1  0.99221314  0.72561625  0.42428973  1
  Rb  Rb16  1  0.98253089  0.46025223  0.74936710  1
  Rb  Rb17  1  0.48253089  0.53974777  0.75063290  1
  Rb  Rb18  1  0.01746911  0.53974777  0.25063290  1
  Rb  Rb19  1  0.51746911  0.46025223  0.24936710  1
  Ti  Ti0  1  0.37104579  0.50514725  0.42113949  1
  Ti  Ti1  1  0.87104579  0.49485275  0.07886051  1
  Ti  Ti2  1  0.62895421  0.49485275  0.57886051  1
  Ti  Ti3  1  0.12895421  0.50514725  0.92113949  1
  Sb  Sb0  1  0.25184006  0.25167553  0.92272018  1
  Sb  Sb1  1  0.75184006  0.74832447  0.57727982  1
  Sb  Sb2  1  0.74815994  0.74832447  0.07727982  1
  Sb  Sb3  1  0.24815994  0.25167553  0.42272018  1
  Sb  Sb4  1  0.17133562  0.51330986  0.06149031  1
  Sb  Sb5  1  0.67133562  0.48669014  0.43850969  1
  Sb  Sb6  1  0.82866438  0.48669014  0.93850969  1
  Sb  Sb7  1  0.32866438  0.51330986  0.56149031  1
  Sb  Sb8  1  0.29375452  0.77034323  0.28650310  1
  Sb  Sb9  1  0.79375452  0.22965677  0.21349690  1
  Sb  Sb10  1  0.70624548  0.22965677  0.71349690  1
  Sb  Sb11  1  0.20624548  0.77034323  0.78650310  1
loop_
_geom_bond_atom_site_label_1
_geom_bond_atom_site_label_2
_geom_bond_distance
_geom_bond_site_symmetry_2
Rb0 Sb9 3.636566 1_455
Rb0 Sb8 3.684287 1_545
Rb0 Sb4 3.684587 1_555
Rb0 Sb3 3.764655 1_555
Rb1 Sb8 3.636566 1_555
Rb1 Sb9 3.684287 1_565
Rb1 Sb5 3.684587 1_555
Rb1 Sb2 3.764655 1_555
Rb2 Sb11 3.636566 1_655
Rb2 Sb10 3.684287 1_565
Rb2 Sb6 3.684587 1_555
Rb2 Sb1 3.764655 1_555
Rb3 Sb10 3.636566 1_555
Rb3 Sb11 3.684287 1_545
Rb3 Sb7 3.684587 1_555
Rb3 Sb0 3.764655 1_555
Rb4 Sb11 3.694133 1_555
Rb4 Sb7 3.706147 1_555
Rb4 Sb3 3.754249 1_565
Rb4 Sb1 3.878591 1_455
Rb5 Sb10 3.694133 1_555
Rb5 Sb6 3.706147 1_555
Rb5 Sb2 3.754249 1_546
Rb5 Sb0 3.878591 1_555
Rb6 Sb9 3.694133 1_555
Rb6 Sb5 3.706147 1_555
Rb6 Sb1 3.754249 1_545
Rb6 Sb3 3.878591 1_655
Rb7 Sb8 3.694133 1_555
Rb7 Sb4 3.706147 1_555
Rb7 Sb0 3.754249 1_564
Rb7 Sb2 3.878591 1_555
Rb8 Sb2 3.652598 1_456
Rb8 Sb11 3.743720 1_555
Rb8 Sb4 3.838111 1_556
Rb8 Sb0 4.163096 1_565
Rb9 Sb3 3.652598 1_555
Rb9 Sb10 3.743720 1_555
Rb9 Sb5 3.838111 1_555
Rb9 Sb1 4.163096 1_545
Rb10 Sb0 3.652598 1_654
Rb10 Sb9 3.743720 1_555
Rb10 Sb6 3.838111 1_554
Rb10 Sb2 4.163096 1_545
Rb11 Sb1 3.652598 1_555
Rb11 Sb8 3.743720 1_555
Rb11 Sb7 3.838111 1_555
Rb11 Sb3 4.163096 1_565
Rb12 Sb6 3.677436 1_555
Rb12 Sb11 3.697963 1_555
Rb12 Sb2 3.765831 1_556
Rb12 Sb4 3.918667 1_556
Rb13 Sb7 3.677436 1_555
Rb13 Sb10 3.697963 1_455
Rb13 Sb3 3.765831 1_555
Rb13 Sb5 3.918667 1_455
Rb14 Sb4 3.677436 1_555
Rb14 Sb9 3.697963 1_555
Rb14 Sb0 3.765831 1_554
Rb14 Sb6 3.918667 1_554
Rb15 Sb5 3.677436 1_555
Rb15 Sb8 3.697963 1_655
Rb15 Sb1 3.765831 1_555
Rb15 Sb7 3.918667 1_655
Rb16 Sb10 3.672039 1_555
Rb16 Sb1 3.766505 1_555
Rb16 Ti3 3.785431 1_655
Rb16 Sb0 3.828818 1_655
Rb16 Sb11 4.005283 1_655
Rb16 Sb6 4.025912 1_555
Rb17 Sb11 3.672039 1_555
Rb17 Sb0 3.766505 1_555
Rb17 Ti2 3.785431 1_555
Rb17 Sb1 3.828818 1_555
Rb17 Sb10 4.005283 1_555
Rb17 Sb7 4.025912 1_555
Rb18 Sb8 3.672039 1_555
Rb18 Sb3 3.766505 1_555
Rb18 Ti1 3.785431 1_455
Rb18 Sb2 3.828818 1_455
Rb18 Sb9 4.005283 1_455
Rb18 Sb4 4.025912 1_555
Rb19 Sb9 3.672039 1_555
Rb19 Sb2 3.766505 1_555
Rb19 Ti0 3.785431 1_555
Rb19 Sb3 3.828818 1_555
Rb19 Sb8 4.005283 1_555
Rb19 Sb5 4.025912 1_555
Sb0 Ti3 2.710740 1_555
Sb1 Ti2 2.710740 1_555
Sb2 Ti1 2.710740 1_555
Sb3 Ti0 2.710740 1_555
Sb4 Ti1 2.760614 1_455
Sb4 Ti3 2.767138 1_554
Sb5 Ti0 2.760614 1_555
Sb5 Ti2 2.767138 1_555
Sb6 Ti3 2.760614 1_655
Sb6 Ti1 2.767138 1_556
Sb7 Ti2 2.760614 1_555
Sb7 Ti0 2.767138 1_555
Sb8 Ti0 2.709444 1_555
Sb9 Ti1 2.709444 1_555
Sb10 Ti2 2.709444 1_555
Sb11 Ti3 2.709444 1_555
