# generated using pymatgen
data_Y2Cd(BPt2)3
_symmetry_space_group_name_H-M   'P 1'
_cell_length_a   5.38459907
_cell_length_b   5.35131831
_cell_length_c   7.67093010
_cell_angle_alpha   90.00000000
_cell_angle_beta   90.00000000
_cell_angle_gamma   119.79574320
_symmetry_Int_Tables_number   1
_chemical_formula_structural   Y2Cd(BPt2)3
_chemical_formula_sum   'Y2 Cd1 B3 Pt6'
_cell_volume   191.81519840
_cell_formula_units_Z   1
loop_
 _symmetry_equiv_pos_site_id
 _symmetry_equiv_pos_as_xyz
  1  'x, y, z'
loop_
 _atom_site_type_symbol
 _atom_site_label
 _atom_site_symmetry_multiplicity
 _atom_site_fract_x
 _atom_site_fract_y
 _atom_site_fract_z
 _atom_site_occupancy
  Y  Y0  1  0.50000000  0.50000000  0.34084238  1
  Y  Y1  1  0.50000000  0.00000000  0.99249062  1
  Cd  Cd0  1  0.00000000  0.50000000  0.66666700  1
  B  B0  1  0.00000000  0.50000000  0.16666700  1
  B  B1  1  0.50000000  0.50000000  0.82682403  1
  B  B2  1  0.50000000  0.00000000  0.50650897  1
  Pt  Pt0  1  0.28633243  0.14316721  0.66666700  1
  Pt  Pt1  1  0.15364617  0.84957626  0.33552394  1
  Pt  Pt2  1  0.84635383  0.69593108  0.99780906  1
  Pt  Pt3  1  0.84635383  0.15042374  0.33552394  1
  Pt  Pt4  1  0.15364617  0.30406892  0.99780906  1
  Pt  Pt5  1  0.71366757  0.85683279  0.66666700  1
loop_
_geom_bond_atom_site_label_1
_geom_bond_atom_site_label_2
_geom_bond_distance
_geom_bond_site_symmetry_2
Cd0 Pt0 2.991533 1_555
Cd0 Pt5 2.991533 1_455
Cd0 Pt0 2.991543 1_565
Cd0 Pt5 2.991543 1_445
Cd0 Pt2 3.016343 1_455
Cd0 Pt4 3.016343 1_555
Cd0 Pt1 3.016347 1_555
Cd0 Pt3 3.016347 1_455
B0 Pt1 2.079335 1_555
B0 Pt3 2.079335 1_455
B0 Pt2 2.079343 1_454
B0 Pt4 2.079343 1_554
B0 Y0 3.005596 1_455
B0 Y0 3.005596 1_555
B0 Y1 3.005599 1_454
B0 Y1 3.005599 1_564
B1 Pt5 2.072669 1_555
B1 Pt0 2.072669 1_555
B1 Pt2 2.086739 1_555
B1 Pt4 2.086739 1_555
B1 Y1 2.962115 1_565
B1 Y1 2.962115 1_555
B2 Pt5 2.072681 1_545
B2 Pt0 2.072681 1_555
B2 Pt3 2.086738 1_555
B2 Pt1 2.086738 1_545
B2 Y0 2.962115 1_545
B2 Y0 2.962115 1_555
Pt0 Y1 3.005577 1_555
Pt0 Y0 3.005579 1_555
Pt1 Y0 3.023804 1_565
Pt1 Y0 3.057035 1_455
Pt1 Y1 3.091655 1_564
Pt1 Y0 3.232110 1_555
Pt2 Y1 3.023799 1_565
Pt2 Y1 3.057035 1_665
Pt2 Y0 3.091655 1_556
Pt2 Y1 3.232115 1_555
Pt3 Y0 3.023804 1_545
Pt3 Y0 3.057035 1_655
Pt3 Y1 3.091655 1_554
Pt3 Y0 3.232110 1_555
Pt4 Y1 3.023799 1_555
Pt4 Y1 3.057035 1_455
Pt4 Y0 3.091655 1_556
Pt4 Y1 3.232115 1_565
Pt5 Y1 3.005577 1_565
Pt5 Y0 3.005579 1_555
