# generated using pymatgen
data_RbP4RhO12
_symmetry_space_group_name_H-M   'P 1'
_cell_length_a   13.34231014
_cell_length_b   5.11546083
_cell_length_c   7.38580939
_cell_angle_alpha   79.77257764
_cell_angle_beta   90.00000000
_cell_angle_gamma   90.00000000
_symmetry_Int_Tables_number   1
_chemical_formula_structural   RbP4RhO12
_chemical_formula_sum   'Rb2 P8 Rh2 O24'
_cell_volume   496.08701820
_cell_formula_units_Z   2
loop_
 _symmetry_equiv_pos_site_id
 _symmetry_equiv_pos_as_xyz
  1  'x, y, z'
loop_
 _atom_site_type_symbol
 _atom_site_label
 _atom_site_symmetry_multiplicity
 _atom_site_fract_x
 _atom_site_fract_y
 _atom_site_fract_z
 _atom_site_occupancy
  Rb  Rb0  1  0.01473010  0.43023101  0.83224320  1
  Rb  Rb1  1  0.51473010  0.56976899  0.16775680  1
  P  P0  1  0.87025834  0.01774711  0.45191458  1
  P  P1  1  0.82156685  0.78087630  0.13631192  1
  P  P2  1  0.37025834  0.98225289  0.54808542  1
  P  P3  1  0.17782530  0.88025165  0.09494383  1
  P  P4  1  0.09684675  0.03180481  0.43546003  1
  P  P5  1  0.59684675  0.96819519  0.56453997  1
  P  P6  1  0.67782530  0.11974835  0.90505617  1
  P  P7  1  0.32156685  0.21912370  0.86368808  1
  Rh  Rh0  1  0.23346740  0.50770346  0.48621795  1
  Rh  Rh1  1  0.73346740  0.49229654  0.51378205  1
  O  O0  1  0.15791965  0.81848998  0.54865197  1
  O  O1  1  0.10236888  0.30247882  0.48606086  1
  O  O2  1  0.61674410  0.94795717  0.77582010  1
  O  O3  1  0.98483864  0.93411430  0.46646314  1
  O  O4  1  0.86377434  0.28660103  0.50558521  1
  O  O5  1  0.84401046  0.02900977  0.24398406  1
  O  O6  1  0.11674410  0.05204283  0.22417990  1
  O  O7  1  0.61744349  0.12524301  0.06915386  1
  O  O8  1  0.11744349  0.87475699  0.93084614  1
  O  O9  1  0.23689779  0.37694133  0.76092601  1
  O  O10  1  0.36377434  0.71339897  0.49441479  1
  O  O11  1  0.60236888  0.69752118  0.51393914  1
  O  O12  1  0.65791965  0.18151002  0.45134803  1
  O  O13  1  0.48483864  0.06588570  0.53353686  1
  O  O14  1  0.27605500  0.06153908  0.04949758  1
  O  O15  1  0.91536921  0.65269721  0.10031770  1
  O  O16  1  0.71408331  0.37345893  0.78930844  1
  O  O17  1  0.77605500  0.93846092  0.95050242  1
  O  O18  1  0.41536921  0.34730279  0.89968230  1
  O  O19  1  0.81556440  0.79872567  0.57468106  1
  O  O20  1  0.31556440  0.20127433  0.42531894  1
  O  O21  1  0.34401046  0.97099023  0.75601594  1
  O  O22  1  0.73689779  0.62305867  0.23907399  1
  O  O23  1  0.21408331  0.62654107  0.21069156  1
loop_
_geom_bond_atom_site_label_1
_geom_bond_atom_site_label_2
_geom_bond_distance
_geom_bond_site_symmetry_2
O0 P4 1.493210 1_565
O0 Rh0 2.004124 1_555
O0 Rb0 3.241062 1_555
O1 P4 1.498680 1_555
O1 Rh0 2.040123 1_555
O1 Rb0 2.987495 1_555
O2 P5 1.568091 1_555
O2 P6 1.626471 1_565
O2 Rb1 3.462121 1_556
O3 P4 1.579526 1_665
O3 P0 1.585994 1_565
O3 Rb0 3.410095 1_655
O4 P0 1.499899 1_555
O4 Rh1 2.038672 1_555
O4 Rb0 3.323660 1_655
O5 P0 1.566214 1_555
O5 P1 1.640643 1_545
O6 P4 1.568091 1_555
O6 P3 1.626471 1_545
O6 Rb0 3.462121 1_554
O7 P6 1.459747 1_554
O7 Rb1 2.857867 1_555
O7 Rb1 3.122139 1_545
O8 P3 1.459747 1_556
O8 Rb0 2.857867 1_555
O8 Rb0 3.122139 1_565
O9 P7 1.512082 1_555
O9 Rh0 2.020937 1_555
O9 Rb0 3.031404 1_555
O10 P2 1.499899 1_555
O10 Rh0 2.038672 1_555
O10 Rb1 3.323660 1_555
O11 P5 1.498680 1_555
O11 Rh1 2.040123 1_555
O11 Rb1 2.987495 1_555
O12 P5 1.493210 1_545
O12 Rh1 2.004124 1_555
O12 Rb1 3.241062 1_555
O13 P5 1.579526 1_545
O13 P2 1.585994 1_545
O13 Rb1 3.410095 1_555
O14 P7 1.584001 1_554
O14 P3 1.606189 1_545
O15 P1 1.459063 1_555
O15 Rb0 2.787993 1_654
O16 P6 1.501756 1_555
O16 Rh1 2.034282 1_555
O17 P1 1.584001 1_556
O17 P6 1.606189 1_565
O18 P7 1.459063 1_555
O18 Rb1 2.787993 1_556
O19 P0 1.499738 1_565
O19 Rh1 2.027225 1_555
O20 P2 1.499738 1_545
O20 Rh0 2.027225 1_555
O21 P2 1.566214 1_555
O21 P7 1.640643 1_565
O22 P1 1.512082 1_555
O22 Rh1 2.020937 1_555
O22 Rb1 3.031404 1_555
O23 P3 1.501756 1_555
O23 Rh0 2.034282 1_555
