# generated using pymatgen
data_Ba2CdB2Pt7
_symmetry_space_group_name_H-M   'P 1'
_cell_length_a   5.72771210
_cell_length_b   5.72771292
_cell_length_c   7.55399289
_cell_angle_alpha   90.00000000
_cell_angle_beta   90.00000000
_cell_angle_gamma   119.99999524
_symmetry_Int_Tables_number   1
_chemical_formula_structural   Ba2CdB2Pt7
_chemical_formula_sum   'Ba2 Cd1 B2 Pt7'
_cell_volume   214.61973135
_cell_formula_units_Z   1
loop_
 _symmetry_equiv_pos_site_id
 _symmetry_equiv_pos_as_xyz
  1  'x, y, z'
loop_
 _atom_site_type_symbol
 _atom_site_label
 _atom_site_symmetry_multiplicity
 _atom_site_fract_x
 _atom_site_fract_y
 _atom_site_fract_z
 _atom_site_occupancy
  Ba  Ba0  1  0.00000000  0.00000000  0.00000000  1
  Ba  Ba1  1  0.00000000  0.00000000  0.50000000  1
  Cd  Cd0  1  0.66666700  0.33333400  0.50000000  1
  B  B0  1  0.66666700  0.33333400  0.00000000  1
  B  B1  1  0.33333400  0.66666700  0.00000000  1
  Pt  Pt0  1  0.49911311  0.99822522  0.19493608  1
  Pt  Pt1  1  0.00177478  0.50088689  0.19493608  1
  Pt  Pt2  1  0.49911211  0.50088689  0.19493608  1
  Pt  Pt3  1  0.33333400  0.66666700  0.50000000  1
  Pt  Pt4  1  0.49911311  0.99822522  0.80506392  1
  Pt  Pt5  1  0.00177478  0.50088689  0.80506392  1
  Pt  Pt6  1  0.49911211  0.50088689  0.80506392  1
loop_
_geom_bond_atom_site_label_1
_geom_bond_atom_site_label_2
_geom_bond_distance
_geom_bond_site_symmetry_2
Ba0 Pt0 3.220268 1_445
Ba0 Pt4 3.220268 1_444
Ba0 Pt1 3.220268 1_555
Ba0 Pt5 3.220268 1_554
Ba0 Pt2 3.220268 1_555
Ba0 Pt6 3.220268 1_554
Ba0 Pt0 3.220273 1_545
Ba0 Pt4 3.220273 1_544
Ba0 Pt2 3.220273 1_445
Ba0 Pt6 3.220273 1_444
Ba0 Pt1 3.220273 1_545
Ba0 Pt5 3.220273 1_544
Ba1 Pt3 3.306893 1_445
Ba1 Cd0 3.306893 1_445
Ba1 Pt3 3.306898 1_545
Ba1 Cd0 3.306898 1_555
Ba1 Cd0 3.306898 1_455
Ba1 Pt3 3.306898 1_555
Cd0 Pt6 2.841402 1_555
Cd0 Pt2 2.841402 1_555
Cd0 Pt5 2.841402 1_655
Cd0 Pt1 2.841402 1_655
Cd0 Pt4 2.841406 1_545
Cd0 Pt0 2.841406 1_545
Cd0 Pt3 3.306893 1_555
Cd0 Pt3 3.306898 1_655
Cd0 Pt3 3.306898 1_545
B0 Pt2 2.220690 1_555
B0 Pt6 2.220690 1_554
B0 Pt1 2.220690 1_655
B0 Pt5 2.220690 1_654
B0 Pt0 2.220694 1_545
B0 Pt4 2.220694 1_544
B1 Pt2 2.207542 1_555
B1 Pt6 2.207542 1_554
B1 Pt0 2.207542 1_555
B1 Pt4 2.207542 1_554
B1 Pt1 2.207546 1_555
B1 Pt5 2.207546 1_554
Pt0 Pt3 2.831138 1_555
Pt1 Pt3 2.831141 1_555
Pt2 Pt3 2.831138 1_555
Pt3 Pt6 2.831138 1_555
Pt3 Pt4 2.831138 1_555
Pt3 Pt5 2.831141 1_555
