# generated using pymatgen
data_Hf3Al2PtN
_symmetry_space_group_name_H-M   'P 1'
_cell_length_a   8.48188577
_cell_length_b   8.48188572
_cell_length_c   8.48188549
_cell_angle_alpha   59.99999708
_cell_angle_beta   59.99999728
_cell_angle_gamma   59.99999799
_symmetry_Int_Tables_number   1
_chemical_formula_structural   Hf3Al2PtN
_chemical_formula_sum   'Hf12 Al8 Pt4 N4'
_cell_volume   431.48153848
_cell_formula_units_Z   4
loop_
 _symmetry_equiv_pos_site_id
 _symmetry_equiv_pos_as_xyz
  1  'x, y, z'
loop_
 _atom_site_type_symbol
 _atom_site_label
 _atom_site_symmetry_multiplicity
 _atom_site_fract_x
 _atom_site_fract_y
 _atom_site_fract_z
 _atom_site_occupancy
  Hf  Hf0  1  0.81258335  0.81258335  0.18741665  1
  Hf  Hf1  1  0.06258335  0.43741665  0.43741665  1
  Hf  Hf2  1  0.43741665  0.06258335  0.06258335  1
  Hf  Hf3  1  0.06258335  0.06258335  0.43741665  1
  Hf  Hf4  1  0.06258335  0.43741665  0.06258335  1
  Hf  Hf5  1  0.43741665  0.06258335  0.43741665  1
  Hf  Hf6  1  0.18741665  0.81258335  0.18741665  1
  Hf  Hf7  1  0.18741665  0.81258335  0.81258335  1
  Hf  Hf8  1  0.81258335  0.18741665  0.18741665  1
  Hf  Hf9  1  0.81258335  0.18741665  0.81258335  1
  Hf  Hf10  1  0.43741665  0.43741665  0.06258335  1
  Hf  Hf11  1  0.18741665  0.18741665  0.81258335  1
  Al  Al0  1  0.41846377  0.74460568  0.41846377  1
  Al  Al1  1  0.83153623  0.83153623  0.50539432  1
  Al  Al2  1  0.50539432  0.83153623  0.83153623  1
  Al  Al3  1  0.83153623  0.83153623  0.83153623  1
  Al  Al4  1  0.74460568  0.41846377  0.41846377  1
  Al  Al5  1  0.41846377  0.41846377  0.41846377  1
  Al  Al6  1  0.41846377  0.41846377  0.74460568  1
  Al  Al7  1  0.83153623  0.50539432  0.83153623  1
  Pt  Pt0  1  0.62500000  0.12500000  0.62500000  1
  Pt  Pt1  1  0.62500000  0.62500000  0.12500000  1
  Pt  Pt2  1  0.12500000  0.62500000  0.62500000  1
  Pt  Pt3  1  0.62500000  0.62500000  0.62500000  1
  N  N0  1  0.12500000  0.62500000  0.12500000  1
  N  N1  1  0.12500000  0.12500000  0.62500000  1
  N  N2  1  0.62500000  0.12500000  0.12500000  1
  N  N3  1  0.12500000  0.12500000  0.12500000  1
loop_
_geom_bond_atom_site_label_1
_geom_bond_atom_site_label_2
_geom_bond_distance
_geom_bond_site_symmetry_2
Hf0 N2 2.248766 1_565
Hf0 N0 2.248766 1_655
Hf0 Pt3 3.091819 1_555
Hf0 Pt1 3.091819 1_555
Hf1 N0 2.248766 1_555
Hf1 N1 2.248766 1_555
Hf1 Pt3 3.091819 1_455
Hf1 Pt2 3.091819 1_555
Hf2 N3 2.248766 1_555
Hf2 N2 2.248767 1_555
Hf2 Pt0 3.091819 1_554
Hf2 Pt1 3.091819 1_545
Hf3 N3 2.248766 1_555
Hf3 N1 2.248767 1_555
Hf3 Pt2 3.091819 1_545
Hf3 Pt0 3.091819 1_455
Hf4 N3 2.248766 1_555
Hf4 N0 2.248767 1_555
Hf4 Pt2 3.091819 1_554
Hf4 Pt1 3.091819 1_455
Hf5 N2 2.248766 1_555
Hf5 N1 2.248766 1_555
Hf5 Pt3 3.091819 1_545
Hf5 Pt0 3.091819 1_555
Hf6 N3 2.248766 1_565
Hf6 N0 2.248767 1_555
Hf6 Pt2 3.091819 1_555
Hf6 Pt1 3.091819 1_555
Hf7 N0 2.248766 1_556
Hf7 N1 2.248766 1_565
Hf7 Pt3 3.091819 1_555
Hf7 Pt2 3.091819 1_555
Hf8 N3 2.248766 1_655
Hf8 N2 2.248767 1_555
Hf8 Pt0 3.091819 1_555
Hf8 Pt1 3.091819 1_555
Hf9 N2 2.248766 1_556
Hf9 N1 2.248766 1_655
Hf9 Pt3 3.091819 1_555
Hf9 Pt0 3.091819 1_555
Hf10 N2 2.248766 1_555
Hf10 N0 2.248766 1_555
Hf10 Pt3 3.091819 1_554
Hf10 Pt1 3.091819 1_555
Hf11 N3 2.248766 1_556
Hf11 N1 2.248767 1_555
Hf11 Pt2 3.091819 1_555
Hf11 Pt0 3.091819 1_555
Al0 Pt1 2.584817 1_555
Al0 Pt2 2.584817 1_555
Al0 Pt3 2.584838 1_555
Al0 Al6 2.766298 1_555
Al0 Al4 2.766298 1_555
Al0 Al5 2.766298 1_555
Al0 Hf2 2.866821 1_565
Al0 Hf3 2.866821 1_565
Al0 Hf5 2.866835 1_565
Al0 Hf6 3.097424 1_555
Al0 Hf7 3.097446 1_555
Al0 Hf0 3.097446 1_555
Al1 Pt0 2.584817 1_565
Al1 Pt2 2.584817 1_655
Al1 Pt3 2.584838 1_555
Al1 Al7 2.766298 1_555
Al1 Al2 2.766298 1_555
Al1 Al3 2.766298 1_555
Al1 Hf8 2.866821 1_565
Al1 Hf6 2.866821 1_655
Al1 Hf0 2.866835 1_555
Al1 Hf3 3.097424 1_665
Al1 Hf1 3.097446 1_655
Al1 Hf5 3.097446 1_565
Al2 Pt1 2.584817 1_556
Al2 Pt0 2.584817 1_565
Al2 Pt3 2.584838 1_555
Al2 Al7 2.766298 1_555
Al2 Al3 2.766298 1_555
Al2 Hf6 2.866821 1_556
Al2 Hf11 2.866821 1_565
Al2 Hf7 2.866835 1_555
Al2 Hf2 3.097424 1_566
Al2 Hf5 3.097446 1_565
Al2 Hf10 3.097446 1_556
Al3 Pt1 2.584830 1_556
Al3 Pt0 2.584830 1_565
Al3 Pt2 2.584830 1_655
Al3 Al7 2.766298 1_555
Al3 Hf0 2.866809 1_556
Al3 Hf9 2.866810 1_565
Al3 Hf7 2.866810 1_655
Al3 Hf3 3.097435 1_665
Al3 Hf4 3.097435 1_656
Al3 Hf2 3.097435 1_566
Al4 Pt1 2.584817 1_555
Al4 Pt0 2.584817 1_555
Al4 Pt3 2.584838 1_555
Al4 Al6 2.766298 1_555
Al4 Al5 2.766298 1_555
Al4 Hf4 2.866821 1_655
Al4 Hf3 2.866821 1_655
Al4 Hf1 2.866835 1_655
Al4 Hf8 3.097424 1_555
Al4 Hf9 3.097446 1_555
Al4 Hf0 3.097446 1_555
Al5 Pt1 2.584830 1_555
Al5 Pt0 2.584830 1_555
Al5 Pt2 2.584830 1_555
Al5 Al6 2.766298 1_555
Al5 Hf10 2.866809 1_555
Al5 Hf5 2.866810 1_555
Al5 Hf1 2.866810 1_555
Al5 Hf11 3.097435 1_555
Al5 Hf6 3.097435 1_555
Al5 Hf8 3.097435 1_555
Al6 Pt0 2.584817 1_555
Al6 Pt2 2.584817 1_555
Al6 Pt3 2.584838 1_555
Al6 Hf2 2.866821 1_556
Al6 Hf4 2.866821 1_556
Al6 Hf10 2.866835 1_556
Al6 Hf11 3.097424 1_555
Al6 Hf7 3.097446 1_555
Al6 Hf9 3.097446 1_555
Al7 Pt1 2.584817 1_556
Al7 Pt2 2.584817 1_655
Al7 Pt3 2.584838 1_555
Al7 Hf8 2.866821 1_556
Al7 Hf11 2.866821 1_655
Al7 Hf9 2.866835 1_555
Al7 Hf4 3.097424 1_656
Al7 Hf1 3.097446 1_655
Al7 Hf10 3.097446 1_556
