# generated using pymatgen
data_Li2YAgSb2
_symmetry_space_group_name_H-M   'P 1'
_cell_length_a   4.55955723
_cell_length_b   4.55955659
_cell_length_c   7.24888097
_cell_angle_alpha   90.00000000
_cell_angle_beta   90.00000000
_cell_angle_gamma   119.99999046
_symmetry_Int_Tables_number   1
_chemical_formula_structural   Li2YAgSb2
_chemical_formula_sum   'Li2 Y1 Ag1 Sb2'
_cell_volume   130.51094172
_cell_formula_units_Z   1
loop_
 _symmetry_equiv_pos_site_id
 _symmetry_equiv_pos_as_xyz
  1  'x, y, z'
loop_
 _atom_site_type_symbol
 _atom_site_label
 _atom_site_symmetry_multiplicity
 _atom_site_fract_x
 _atom_site_fract_y
 _atom_site_fract_z
 _atom_site_occupancy
  Li  Li0  1  0.66666700  0.33333300  0.35258337  1
  Li  Li1  1  0.00000000  0.00000000  0.49876331  1
  Y  Y0  1  0.00000000  0.00000000  0.99889378  1
  Ag  Ag0  1  0.33333300  0.66666700  0.63784689  1
  Sb  Sb0  1  0.33333300  0.66666700  0.24629309  1
  Sb  Sb1  1  0.66666700  0.33333300  0.76561956  1
loop_
_geom_bond_atom_site_label_1
_geom_bond_atom_site_label_2
_geom_bond_distance
_geom_bond_site_symmetry_2
Li0 Sb0 2.742898 1_545
Li0 Sb0 2.742898 1_655
Li0 Sb0 2.742905 1_555
Li0 Sb1 2.994050 1_555
Li1 Sb0 3.206119 1_545
Li1 Sb0 3.206123 1_555
Li1 Sb0 3.206123 1_445
Li1 Sb1 3.266769 1_455
Li1 Sb1 3.266772 1_445
Li1 Sb1 3.266772 1_555
Ag0 Sb1 2.790646 1_565
Ag0 Sb1 2.790646 1_455
Ag0 Sb1 2.790653 1_555
Ag0 Li1 2.818919 1_565
Ag0 Li1 2.818923 1_555
Ag0 Li1 2.818924 1_665
Ag0 Sb0 2.838327 1_555
Sb0 Y0 3.185280 1_564
Sb0 Y0 3.185283 1_554
Sb0 Y0 3.185284 1_664
Sb1 Y0 3.128776 1_655
Sb1 Y0 3.128780 1_665
Sb1 Y0 3.128780 1_555
