# generated using pymatgen
data_Y6Al23VOs8
_symmetry_space_group_name_H-M   'P 1'
_cell_length_a   8.80109800
_cell_length_b   8.80109820
_cell_length_c   9.49300037
_cell_angle_alpha   90.00000000
_cell_angle_beta   90.00000000
_cell_angle_gamma   119.99999187
_symmetry_Int_Tables_number   1
_chemical_formula_structural   Y6Al23VOs8
_chemical_formula_sum   'Y6 Al23 V1 Os8'
_cell_volume   636.80708792
_cell_formula_units_Z   1
loop_
 _symmetry_equiv_pos_site_id
 _symmetry_equiv_pos_as_xyz
  1  'x, y, z'
loop_
 _atom_site_type_symbol
 _atom_site_label
 _atom_site_symmetry_multiplicity
 _atom_site_fract_x
 _atom_site_fract_y
 _atom_site_fract_z
 _atom_site_occupancy
  Y  Y0  1  0.19401892  0.38803783  0.24764402  1
  Y  Y1  1  0.80683297  0.61366594  0.75035933  1
  Y  Y2  1  0.61196217  0.80598108  0.24764402  1
  Y  Y3  1  0.38633406  0.19316703  0.75035933  1
  Y  Y4  1  0.19401892  0.80598108  0.24764402  1
  Y  Y5  1  0.80683297  0.19316703  0.75035933  1
  Al  Al0  1  0.66666700  0.33333300  0.98684160  1
  Al  Al1  1  0.66666700  0.33333300  0.51386601  1
  Al  Al2  1  0.33333300  0.66666700  0.48631964  1
  Al  Al3  1  0.16261640  0.32523380  0.57449679  1
  Al  Al4  1  0.83673780  0.67347661  0.42536421  1
  Al  Al5  1  0.67476620  0.83738360  0.57449679  1
  Al  Al6  1  0.83597404  0.67194708  0.07682677  1
  Al  Al7  1  0.32652339  0.16326220  0.42536421  1
  Al  Al8  1  0.16068598  0.32137096  0.92567699  1
  Al  Al9  1  0.16261640  0.83738360  0.57449679  1
  Al  Al10  1  0.32805292  0.16402596  0.07682677  1
  Al  Al11  1  0.83673780  0.16326220  0.42536421  1
  Al  Al12  1  0.67862904  0.83931402  0.92567699  1
  Al  Al13  1  0.83597404  0.16402596  0.07682677  1
  Al  Al14  1  0.16068598  0.83931402  0.92567699  1
  Al  Al15  1  0.56185425  0.12370951  0.25204882  1
  Al  Al16  1  0.44068383  0.88136765  0.75021302  1
  Al  Al17  1  0.87629049  0.43814575  0.25204882  1
  Al  Al18  1  0.11863235  0.55931617  0.75021302  1
  Al  Al19  1  0.56185425  0.43814575  0.25204882  1
  Al  Al20  1  0.44068383  0.55931617  0.75021302  1
  Al  Al21  1  0.00000000  0.00000000  0.25066929  1
  Al  Al22  1  0.00000000  0.00000000  0.75020633  1
  V  V0  1  0.33333300  0.66666700  0.98410652  1
  Os  Os0  1  0.49450495  0.98900990  0.00405288  1
  Os  Os1  1  0.01099010  0.50549505  0.00405288  1
  Os  Os2  1  0.49933246  0.99866493  0.50233367  1
  Os  Os3  1  0.49450495  0.50549505  0.00405288  1
  Os  Os4  1  0.00133507  0.50066754  0.50233367  1
  Os  Os5  1  0.49933246  0.50066754  0.50233367  1
  Os  Os6  1  0.00000000  0.00000000  0.00161022  1
  Os  Os7  1  0.00000000  0.00000000  0.49932791  1
loop_
_geom_bond_atom_site_label_1
_geom_bond_atom_site_label_2
_geom_bond_distance
_geom_bond_site_symmetry_2
Al0 Os1 2.629503 1_656
Al0 Os0 2.629503 1_546
Al0 Os3 2.629510 1_556
Al0 Y5 3.099211 1_555
Al0 Y3 3.099216 1_555
Al0 Y1 3.099216 1_555
Al1 Os4 2.553180 1_655
Al1 Os2 2.553180 1_545
Al1 Os5 2.553187 1_555
Al1 Y5 3.099287 1_555
Al1 Y3 3.099292 1_555
Al1 Y1 3.099292 1_555
Al2 Os4 2.535042 1_555
Al2 Os2 2.535042 1_555
Al2 Os5 2.535050 1_555
Al2 Y4 3.105431 1_555
Al2 Y2 3.105436 1_555
Al2 Y0 3.105436 1_555
Al3 Os7 2.579585 1_555
Al3 Os4 2.657018 1_555
Al3 Os5 2.657026 1_555
Al3 Y0 3.139522 1_555
Al3 Y5 3.209903 1_455
Al3 Y3 3.209909 1_555
Al4 Os7 2.585902 1_665
Al4 Os5 2.673724 1_555
Al4 Os4 2.673731 1_655
Al4 Y1 3.118678 1_555
Al4 Y2 3.229068 1_555
Al4 Y4 3.229075 1_655
Al5 Os7 2.579585 1_665
Al5 Os2 2.657018 1_555
Al5 Os5 2.657026 1_555
Al5 Y2 3.139522 1_555
Al5 Y5 3.209903 1_565
Al5 Y1 3.209910 1_555
Al6 Os6 2.600365 1_665
Al6 Os1 2.693052 1_655
Al6 Os3 2.693059 1_555
Al6 Y1 3.130830 1_554
Al6 Y4 3.199023 1_655
Al6 Y2 3.199030 1_555
Al7 Os7 2.585902 1_555
Al7 Os5 2.673724 1_555
Al7 Os2 2.673731 1_545
Al7 Y3 3.118678 1_555
Al7 Y0 3.229068 1_555
Al7 Y4 3.229075 1_545
Al8 Os6 2.553343 1_556
Al8 Os3 2.655238 1_556
Al8 Os1 2.655245 1_556
Al8 Y0 3.098384 1_556
Al8 Y3 3.198097 1_555
Al8 Y5 3.198104 1_455
Al9 Os7 2.579577 1_565
Al9 Os2 2.657026 1_555
Al9 Os4 2.657026 1_555
Al9 Y4 3.139523 1_555
Al9 Y1 3.209904 1_455
Al9 Y3 3.209904 1_565
Al10 Os6 2.600365 1_555
Al10 Os0 2.693052 1_545
Al10 Os3 2.693060 1_555
Al10 Y3 3.130830 1_554
Al10 Y4 3.199023 1_545
Al10 Y0 3.199030 1_555
Al11 Os7 2.585909 1_655
Al11 Os2 2.673724 1_545
Al11 Os4 2.673724 1_655
Al11 Y5 3.118677 1_555
Al11 Y0 3.229074 1_655
Al11 Y2 3.229074 1_545
Al12 Os6 2.553343 1_666
Al12 Os3 2.655238 1_556
Al12 Os0 2.655245 1_556
Al12 Y2 3.098384 1_556
Al12 Y1 3.198097 1_555
Al12 Y5 3.198104 1_565
Al13 Os6 2.600357 1_655
Al13 Os0 2.693059 1_545
Al13 Os1 2.693059 1_655
Al13 Y5 3.130831 1_554
Al13 Y0 3.199024 1_655
Al13 Y2 3.199024 1_545
Al14 Os6 2.553350 1_566
Al14 Os0 2.655238 1_556
Al14 Os1 2.655238 1_556
Al14 Y4 3.098383 1_556
Al14 Y1 3.198103 1_455
Al14 Y3 3.198103 1_565
Al15 Os2 2.559987 1_545
Al15 Os0 2.568354 1_545
Al15 Y4 3.041223 1_545
Al15 Y2 3.041227 1_545
Al16 Os2 2.517235 1_555
Al16 Os0 2.545544 1_556
Al16 Y3 3.011969 1_565
Al16 Y5 3.011970 1_565
Al17 Os4 2.559987 1_655
Al17 Os1 2.568354 1_655
Al17 Y4 3.041223 1_655
Al17 Y0 3.041227 1_655
Al18 Os4 2.517235 1_555
Al18 Os1 2.545544 1_556
Al18 Y1 3.011969 1_455
Al18 Y5 3.011970 1_455
Al19 Os5 2.559984 1_555
Al19 Os3 2.568351 1_555
Al19 Y0 3.041219 1_555
Al19 Y2 3.041219 1_555
Al20 Os5 2.517235 1_555
Al20 Os3 2.545544 1_556
Al20 Y1 3.011969 1_555
Al20 Y3 3.011969 1_555
Al21 Os7 2.360516 1_555
Al21 Os6 2.364318 1_555
Al21 Y4 2.957754 1_545
Al21 Y2 2.957754 1_445
Al21 Y0 2.957754 1_555
Al22 Os7 2.381589 1_555
Al22 Os6 2.386577 1_556
Al22 Y5 2.944629 1_455
Al22 Y3 2.944629 1_555
Al22 Y1 2.944629 1_445
V0 Y4 3.281600 1_556
V0 Y2 3.281605 1_556
V0 Y0 3.281605 1_556
Os0 V0 2.464175 1_554
Os0 Y2 3.267409 1_555
Os0 Y4 3.267410 1_555
Os0 Y3 3.412541 1_564
Os0 Y5 3.412541 1_564
Os1 V0 2.464175 1_554
Os1 Y0 3.267409 1_555
Os1 Y4 3.267410 1_555
Os1 Y1 3.412541 1_454
Os1 Y5 3.412541 1_454
Os2 Y3 3.341491 1_565
Os2 Y5 3.341491 1_565
Os2 Y2 3.374176 1_555
Os2 Y4 3.374177 1_555
Os3 V0 2.464183 1_554
Os3 Y0 3.267410 1_555
Os3 Y2 3.267410 1_555
Os3 Y1 3.412541 1_554
Os3 Y3 3.412541 1_554
Os4 Y1 3.341491 1_455
Os4 Y5 3.341491 1_455
Os4 Y0 3.374176 1_555
Os4 Y4 3.374177 1_555
Os5 Y1 3.341491 1_555
Os5 Y3 3.341491 1_555
Os5 Y0 3.374177 1_555
Os5 Y2 3.374177 1_555
