# generated using pymatgen
data_La6OsI10
_symmetry_space_group_name_H-M   'P 1'
_cell_length_a   8.10739854
_cell_length_b   10.08946787
_cell_length_c   10.26956536
_cell_angle_alpha   108.46833477
_cell_angle_beta   97.37325622
_cell_angle_gamma   105.47409793
_symmetry_Int_Tables_number   1
_chemical_formula_structural   La6OsI10
_chemical_formula_sum   'La6 Os1 I10'
_cell_volume   746.79091424
_cell_formula_units_Z   1
loop_
 _symmetry_equiv_pos_site_id
 _symmetry_equiv_pos_as_xyz
  1  'x, y, z'
loop_
 _atom_site_type_symbol
 _atom_site_label
 _atom_site_symmetry_multiplicity
 _atom_site_fract_x
 _atom_site_fract_y
 _atom_site_fract_z
 _atom_site_occupancy
  La  La0  1  0.47103521  0.28557730  0.58906347  1
  La  La1  1  0.52898612  0.71441203  0.41099003  1
  La  La2  1  0.84613496  0.12713019  0.66807696  1
  La  La3  1  0.15381839  0.87285878  0.33188873  1
  La  La4  1  0.37573552  0.95546232  0.74848613  1
  La  La5  1  0.62428366  0.04449948  0.25157933  1
  Os  Os0  1  0.50005765  0.00003516  0.50006217  1
  I  I0  1  0.40938804  0.62776462  0.67552788  1
  I  I1  1  0.59087605  0.37236283  0.32459451  1
  I  I2  1  0.28546256  0.26200801  0.85234655  1
  I  I3  1  0.71448301  0.73783830  0.14756136  1
  I  I4  1  0.85905241  0.46214284  0.77947260  1
  I  I5  1  0.14069143  0.53772297  0.22033370  1
  I  I6  1  0.04925484  0.18740009  0.41442712  1
  I  I7  1  0.23804297  0.91358486  0.04021032  1
  I  I8  1  0.76193095  0.08648516  0.95979351  1
  I  I9  1  0.95077021  0.81271308  0.58558662  1
loop_
_geom_bond_atom_site_label_1
_geom_bond_atom_site_label_2
_geom_bond_distance
_geom_bond_site_symmetry_2
La0 Os0 2.817687 1_555
La1 Os0 2.818162 1_565
La2 Os0 2.815970 1_555
La3 Os0 2.817567 1_565
La4 Os0 2.978563 1_565
La5 Os0 2.978455 1_555
I0 La4 3.245264 1_555
I0 La1 3.288364 1_555
I0 La0 3.471358 1_555
I1 La5 3.246070 1_555
I1 La0 3.288969 1_555
I1 La1 3.470931 1_555
I2 La4 3.249217 1_545
I2 La0 3.300181 1_555
I2 La2 3.488759 1_455
I3 La5 3.250054 1_565
I3 La1 3.300892 1_555
I3 La3 3.488905 1_655
I4 La2 3.174155 1_555
I4 La0 3.180743 1_555
I5 La3 3.174851 1_555
I5 La1 3.183369 1_555
I6 La5 3.330041 1_455
I6 La0 3.373996 1_555
I6 La3 3.379988 1_545
I6 La2 3.381896 1_455
I7 La5 3.239441 1_565
I7 La3 3.280650 1_555
I7 La4 3.436378 1_554
I8 La4 3.238826 1_545
I8 La2 3.280692 1_555
I8 La5 3.437174 1_556
I9 La4 3.330128 1_655
I9 La1 3.373716 1_555
I9 La2 3.379145 1_565
I9 La3 3.381654 1_655
