# generated using pymatgen
data_Cs2NaCoO4
_symmetry_space_group_name_H-M   'P 1'
_cell_length_a   6.11696410
_cell_length_b   6.02277487
_cell_length_c   8.19428897
_cell_angle_alpha   87.38751204
_cell_angle_beta   90.00000000
_cell_angle_gamma   90.00000000
_symmetry_Int_Tables_number   1
_chemical_formula_structural   Cs2NaCoO4
_chemical_formula_sum   'Cs4 Na2 Co2 O8'
_cell_volume   301.57283699
_cell_formula_units_Z   2
loop_
 _symmetry_equiv_pos_site_id
 _symmetry_equiv_pos_as_xyz
  1  'x, y, z'
loop_
 _atom_site_type_symbol
 _atom_site_label
 _atom_site_symmetry_multiplicity
 _atom_site_fract_x
 _atom_site_fract_y
 _atom_site_fract_z
 _atom_site_occupancy
  Cs  Cs0  1  0.25000000  0.14766228  0.81907514  1
  Cs  Cs1  1  0.75000000  0.85233772  0.18092486  1
  Cs  Cs2  1  0.25000000  0.69881328  0.50872990  1
  Cs  Cs3  1  0.75000000  0.30118672  0.49127010  1
  Na  Na0  1  0.75000000  0.37264382  0.97116276  1
  Na  Na1  1  0.25000000  0.62735618  0.02883724  1
  Co  Co0  1  0.25000000  0.20722626  0.24106337  1
  Co  Co1  1  0.75000000  0.79277374  0.75893663  1
  O  O0  1  0.97180717  0.65252038  0.83481833  1
  O  O1  1  0.47180717  0.34747962  0.16518167  1
  O  O2  1  0.02819283  0.34747962  0.16518167  1
  O  O3  1  0.52819283  0.65252038  0.83481833  1
  O  O4  1  0.75000000  0.05454897  0.82624017  1
  O  O5  1  0.75000000  0.80036679  0.55345746  1
  O  O6  1  0.25000000  0.94545103  0.17375983  1
  O  O7  1  0.25000000  0.19963321  0.44654254  1
loop_
_geom_bond_atom_site_label_1
_geom_bond_atom_site_label_2
_geom_bond_distance
_geom_bond_site_symmetry_2
Cs0 O7 3.054420 1_555
Cs0 O6 3.099618 1_546
Cs0 O4 3.109543 1_455
Cs0 O4 3.109543 1_555
Cs1 O5 3.054420 1_555
Cs1 O4 3.099618 1_564
Cs1 O6 3.109543 1_555
Cs1 O6 3.109543 1_655
Cs2 O7 3.036079 1_565
Cs2 O6 3.060883 1_555
Cs2 O7 3.072144 1_555
Cs2 O5 3.143752 1_555
Cs2 O5 3.143752 1_455
Cs2 O3 3.169465 1_555
Cs2 O0 3.169465 1_455
Cs3 O5 3.036079 1_545
Cs3 O4 3.060883 1_555
Cs3 O5 3.072144 1_555
Cs3 O7 3.143752 1_555
Cs3 O7 3.143752 1_655
Cs3 O2 3.169465 1_655
Cs3 O1 3.169465 1_555
Na0 O4 2.299563 1_555
Na0 O2 2.329031 1_656
Na0 O1 2.329031 1_556
Na0 O0 2.399747 1_555
Na0 O3 2.399747 1_555
Na1 O6 2.299563 1_555
Na1 O3 2.329031 1_554
Na1 O0 2.329031 1_454
Na1 O1 2.399747 1_555
Na1 O2 2.399747 1_555
Co0 O7 1.682292 1_555
Co0 O6 1.693851 1_545
Co0 O1 1.700930 1_555
Co0 O2 1.700930 1_555
Co1 O5 1.682292 1_555
Co1 O4 1.693851 1_565
Co1 O0 1.700930 1_555
Co1 O3 1.700930 1_555
