# generated using pymatgen
data_ZrNi2Sb
_symmetry_space_group_name_H-M   'P 1'
_cell_length_a   4.19378187
_cell_length_b   4.19378212
_cell_length_c   8.29717602
_cell_angle_alpha   90.00000000
_cell_angle_beta   90.00000000
_cell_angle_gamma   120.00000603
_symmetry_Int_Tables_number   1
_chemical_formula_structural   ZrNi2Sb
_chemical_formula_sum   'Zr2 Ni4 Sb2'
_cell_volume   126.37832939
_cell_formula_units_Z   2
loop_
 _symmetry_equiv_pos_site_id
 _symmetry_equiv_pos_as_xyz
  1  'x, y, z'
loop_
 _atom_site_type_symbol
 _atom_site_label
 _atom_site_symmetry_multiplicity
 _atom_site_fract_x
 _atom_site_fract_y
 _atom_site_fract_z
 _atom_site_occupancy
  Zr  Zr0  1  0.66666700  0.33333300  0.75000000  1
  Zr  Zr1  1  0.33333300  0.66666700  0.25000000  1
  Ni  Ni0  1  0.66666700  0.33333300  0.40354368  1
  Ni  Ni1  1  0.33333300  0.66666700  0.90354368  1
  Ni  Ni2  1  0.66666700  0.33333300  0.09645632  1
  Ni  Ni3  1  0.33333300  0.66666700  0.59645632  1
  Sb  Sb0  1  -0.00000000  0.00000000  0.00000000  1
  Sb  Sb1  1  -0.00000000  0.00000000  0.50000000  1
loop_
_geom_bond_atom_site_label_1
_geom_bond_atom_site_label_2
_geom_bond_distance
_geom_bond_site_symmetry_2
Ni0 Ni2 2.547958 1_555
Ni0 Sb1 2.550117 1_655
Ni0 Sb1 2.550120 1_555
Ni0 Sb1 2.550120 1_665
Ni0 Zr1 2.735985 1_655
Ni0 Zr1 2.735985 1_545
Ni0 Zr1 2.735991 1_555
Ni0 Zr0 2.874609 1_555
Ni1 Ni3 2.547958 1_555
Ni1 Sb0 2.550117 1_566
Ni1 Sb0 2.550120 1_666
Ni1 Sb0 2.550120 1_556
Ni1 Zr0 2.735985 1_455
Ni1 Zr0 2.735985 1_565
Ni1 Zr0 2.735991 1_555
Ni1 Zr1 2.874609 1_556
Ni2 Sb0 2.550117 1_655
Ni2 Sb0 2.550120 1_555
Ni2 Sb0 2.550120 1_665
Ni2 Zr1 2.735985 1_655
Ni2 Zr1 2.735985 1_545
Ni2 Zr1 2.735991 1_555
Ni2 Zr0 2.874609 1_554
Ni3 Sb1 2.550117 1_565
Ni3 Sb1 2.550120 1_665
Ni3 Sb1 2.550120 1_555
Ni3 Zr0 2.735985 1_455
Ni3 Zr0 2.735985 1_565
Ni3 Zr0 2.735991 1_555
Ni3 Zr1 2.874609 1_555
Sb0 Zr1 3.188305 1_545
Sb0 Zr0 3.188305 1_454
Sb0 Zr0 3.188307 1_554
Sb0 Zr1 3.188307 1_445
Sb0 Zr1 3.188307 1_555
Sb0 Zr0 3.188307 1_444
Sb1 Zr0 3.188305 1_455
Sb1 Zr1 3.188305 1_545
Sb1 Zr0 3.188307 1_555
Sb1 Zr1 3.188307 1_445
Sb1 Zr0 3.188307 1_445
Sb1 Zr1 3.188307 1_555
