# generated using pymatgen
data_V2Co2SiAs
_symmetry_space_group_name_H-M   'P 1'
_cell_length_a   3.69730366
_cell_length_b   5.92317782
_cell_length_c   6.81765228
_cell_angle_alpha   90.00000000
_cell_angle_beta   90.00000000
_cell_angle_gamma   90.00000000
_symmetry_Int_Tables_number   1
_chemical_formula_structural   V2Co2SiAs
_chemical_formula_sum   'V4 Co4 Si2 As2'
_cell_volume   149.30513285
_cell_formula_units_Z   2
loop_
 _symmetry_equiv_pos_site_id
 _symmetry_equiv_pos_as_xyz
  1  'x, y, z'
loop_
 _atom_site_type_symbol
 _atom_site_label
 _atom_site_symmetry_multiplicity
 _atom_site_fract_x
 _atom_site_fract_y
 _atom_site_fract_z
 _atom_site_occupancy
  V  V0  1  0.75000000  0.47216165  0.68138239  1
  V  V1  1  0.25000000  0.02317117  0.18626345  1
  V  V2  1  0.75000000  0.97216165  0.81861761  1
  V  V3  1  0.25000000  0.52317117  0.31373655  1
  Co  Co0  1  0.25000000  0.64822874  0.94531988  1
  Co  Co1  1  0.25000000  0.14822874  0.55468012  1
  Co  Co2  1  0.75000000  0.85861914  0.43623647  1
  Co  Co3  1  0.75000000  0.35861914  0.06376353  1
  Si  Si0  1  0.75000000  0.23345345  0.37684358  1
  Si  Si1  1  0.75000000  0.73345345  0.12315642  1
  As  As0  1  0.25000000  0.76436485  0.61915317  1
  As  As1  1  0.25000000  0.26436485  0.88084683  1
loop_
_geom_bond_atom_site_label_1
_geom_bond_atom_site_label_2
_geom_bond_distance
_geom_bond_site_symmetry_2
Co0 Si1 2.267668 1_456
Co0 Si1 2.267668 1_556
Co0 V3 2.618686 1_556
Co0 Co3 2.648058 1_456
Co0 Co3 2.648058 1_556
Co0 V1 2.762343 1_566
Co0 V0 2.782637 1_555
Co0 V0 2.782637 1_455
Co0 V2 2.800918 1_555
Co0 V2 2.800918 1_455
Co1 Si0 2.267668 1_555
Co1 Si0 2.267668 1_455
Co1 V1 2.618686 1_555
Co1 Co2 2.648058 1_445
Co1 Co2 2.648058 1_545
Co1 V3 2.762343 1_555
Co1 V2 2.782637 1_545
Co1 V2 2.782637 1_445
Co1 V0 2.800918 1_555
Co1 V0 2.800918 1_455
Co2 Si0 2.256833 1_565
Co2 Si1 2.259559 1_555
Co2 V2 2.692294 1_555
Co2 V1 2.696645 1_665
Co2 V1 2.696645 1_565
Co2 V0 2.834270 1_555
Co2 V3 2.839516 1_655
Co2 V3 2.839516 1_555
Co3 Si1 2.256833 1_555
Co3 Si0 2.259559 1_555
Co3 V0 2.692294 1_554
Co3 V3 2.696645 1_655
Co3 V3 2.696645 1_555
Co3 V2 2.834270 1_544
Co3 V1 2.839516 1_655
Co3 V1 2.839516 1_555
Si0 V0 2.511955 1_555
Si0 V3 2.558798 1_655
Si0 V3 2.558798 1_555
Si0 V1 2.580133 1_555
Si0 V1 2.580133 1_655
Si1 V2 2.511955 1_554
Si1 V1 2.558798 1_565
Si1 V1 2.558798 1_665
Si1 V3 2.580133 1_655
Si1 V3 2.580133 1_555
As0 Co2 2.298774 1_555
As0 Co2 2.298774 1_455
As0 Co1 2.315792 1_565
As0 Co0 2.327660 1_555
As0 V3 2.525203 1_555
As0 V0 2.567699 1_555
As0 V0 2.567699 1_455
As0 V2 2.604169 1_555
As0 V2 2.604169 1_455
As1 Co3 2.298774 1_456
As1 Co3 2.298774 1_556
As1 Co0 2.315792 1_555
As1 Co1 2.327660 1_555
As1 V1 2.525203 1_556
As1 V2 2.567699 1_445
As1 V2 2.567699 1_545
As1 V0 2.604169 1_555
As1 V0 2.604169 1_455
