# generated using pymatgen
data_Ta3Ti2Nb5N12
_symmetry_space_group_name_H-M   'P 1'
_cell_length_a   5.21475043
_cell_length_b   5.20461604
_cell_length_c   10.30364105
_cell_angle_alpha   90.03777248
_cell_angle_beta   90.00000000
_cell_angle_gamma   120.06445236
_symmetry_Int_Tables_number   1
_chemical_formula_structural   Ta3Ti2Nb5N12
_chemical_formula_sum   'Ta3 Ti2 Nb5 N12'
_cell_volume   242.02544391
_cell_formula_units_Z   1
loop_
 _symmetry_equiv_pos_site_id
 _symmetry_equiv_pos_as_xyz
  1  'x, y, z'
loop_
 _atom_site_type_symbol
 _atom_site_label
 _atom_site_symmetry_multiplicity
 _atom_site_fract_x
 _atom_site_fract_y
 _atom_site_fract_z
 _atom_site_occupancy
  Ta  Ta0  1  0.66698127  0.33503069  0.50018774  1
  Ta  Ta1  1  0.33194958  0.66496931  0.99981226  1
  Ta  Ta2  1  0.67838518  0.00000000  0.75000000  1
  Ti  Ti0  1  0.33266593  0.66587914  0.50030300  1
  Ti  Ti1  1  0.66678779  0.33412086  0.99969700  1
  Nb  Nb0  1  0.67709734  0.67743798  0.24998563  1
  Nb  Nb1  1  0.99965937  0.32256202  0.25001437  1
  Nb  Nb2  1  0.00017701  0.67712076  0.75003528  1
  Nb  Nb3  1  0.32305625  0.32287924  0.74996472  1
  Nb  Nb4  1  0.32261676  1.00000000  0.25000000  1
  N  N0  1  0.34532175  0.34714530  0.38171754  1
  N  N1  1  0.65167525  0.99875139  0.38144064  1
  N  N2  1  0.00151358  0.65478027  0.38172718  1
  N  N3  1  0.99416645  0.34065037  0.88104589  1
  N  N4  1  0.65292486  0.00124861  0.11855936  1
  N  N5  1  0.65515044  0.65787617  0.88090665  1
  N  N6  1  0.35291688  0.00166270  0.88014825  1
  N  N7  1  0.65351507  0.65934963  0.61895411  1
  N  N8  1  0.99727327  0.34212383  0.61909335  1
  N  N9  1  0.99817745  0.65285470  0.11828246  1
  N  N10  1  0.35125319  0.99833731  0.61985175  1
  N  N11  1  0.34673331  0.34521973  0.11827282  1
loop_
_geom_bond_atom_site_label_1
_geom_bond_atom_site_label_2
_geom_bond_distance
_geom_bond_site_symmetry_2
N0 Ti0 2.087159 1_555
N0 Ta0 2.100875 1_555
N0 Nb0 2.194057 1_555
N0 Nb1 2.208106 1_455
N0 Nb4 2.214212 1_545
N1 Ti0 2.093782 1_555
N1 Ta0 2.103287 1_565
N1 Nb4 2.188587 1_555
N1 Nb0 2.206338 1_555
N1 Nb1 2.214905 1_565
N2 Ti0 2.092392 1_555
N2 Ta0 2.096768 1_455
N2 Nb1 2.193560 1_455
N2 Nb4 2.205237 1_555
N2 Nb0 2.217793 1_455
N3 Ti1 2.086194 1_555
N3 Ta1 2.113682 1_655
N3 Ta2 2.179410 1_555
N3 Nb2 2.199544 1_655
N3 Nb3 2.221031 1_655
N4 Ti1 2.093782 1_554
N4 Ta1 2.103290 1_544
N4 Nb4 2.188591 1_545
N4 Nb1 2.206335 1_555
N4 Nb0 2.214903 1_545
N5 Ta1 2.098875 1_555
N5 Ti1 2.108617 1_555
N5 Ta2 2.188973 1_565
N5 Nb3 2.197923 1_555
N5 Nb2 2.210246 1_655
N6 Ti1 2.085627 1_555
N6 Ta1 2.100910 1_545
N6 Ta2 2.166488 1_555
N6 Nb3 2.209579 1_555
N6 Nb2 2.217638 1_545
N7 Ti0 2.086194 1_555
N7 Ta0 2.113687 1_555
N7 Ta2 2.179408 1_565
N7 Nb3 2.199542 1_555
N7 Nb2 2.221035 1_655
N8 Ta0 2.098867 1_555
N8 Ti0 2.108617 1_655
N8 Ta2 2.188971 1_555
N8 Nb2 2.197921 1_655
N8 Nb3 2.210250 1_655
N9 Ti1 2.087158 1_554
N9 Ta1 2.100866 1_654
N9 Nb1 2.194056 1_555
N9 Nb0 2.208110 1_555
N9 Nb4 2.214209 1_655
N10 Ti0 2.085627 1_555
N10 Ta0 2.100913 1_565
N10 Ta2 2.166492 1_565
N10 Nb2 2.209577 1_555
N10 Nb3 2.217636 1_565
N11 Ti1 2.092396 1_554
N11 Ta1 2.096770 1_554
N11 Nb0 2.193559 1_555
N11 Nb4 2.205237 1_545
N11 Nb1 2.217793 1_455
