# generated using pymatgen
data_Si3W5
_symmetry_space_group_name_H-M   'P 1'
_cell_length_a   4.94090837
_cell_length_b   7.24418403
_cell_length_c   7.24421386
_cell_angle_alpha   83.32043172
_cell_angle_beta   70.06366163
_cell_angle_gamma   70.06383422
_symmetry_Int_Tables_number   1
_chemical_formula_structural   Si3W5
_chemical_formula_sum   'Si6 W10'
_cell_volume   229.14495619
_cell_formula_units_Z   2
loop_
 _symmetry_equiv_pos_site_id
 _symmetry_equiv_pos_as_xyz
  1  'x, y, z'
loop_
 _atom_site_type_symbol
 _atom_site_label
 _atom_site_symmetry_multiplicity
 _atom_site_fract_x
 _atom_site_fract_y
 _atom_site_fract_z
 _atom_site_occupancy
  Si  Si0  1  0.75000051  0.00008919  -0.00009201  1
  Si  Si1  1  0.25000141  -0.00009393  0.00009377  1
  Si  Si2  1  0.83232024  0.49996137  0.83545202  1
  Si  Si3  1  0.66767906  0.16454933  0.50004242  1
  Si  Si4  1  0.33232173  0.83545126  0.49995783  1
  Si  Si5  1  0.16767516  0.50004480  0.16455153  1
  W  W0  1  0.42368952  0.29934414  0.85246356  1
  W  W1  1  0.57630257  0.70066353  0.14754387  1
  W  W2  1  0.24999854  0.50007197  0.49992091  1
  W  W3  1  0.75000126  0.49991524  0.50007028  1
  W  W4  1  0.72372923  0.85232555  0.70062188  1
  W  W5  1  0.27627221  0.14766940  0.29937520  1
  W  W6  1  0.92369671  0.85245681  0.29933748  1
  W  W7  1  0.22372687  0.70062575  0.85233087  1
  W  W8  1  0.77626996  0.29938169  0.14767313  1
  W  W9  1  0.07631302  0.14754189  0.70065726  1
loop_
_geom_bond_atom_site_label_1
_geom_bond_atom_site_label_2
_geom_bond_distance
_geom_bond_site_symmetry_2
Si0 Si1 2.470444 1_555
Si0 Si1 2.470466 1_655
Si0 W1 2.586355 1_545
Si0 W6 2.586381 1_545
Si0 W4 2.586475 1_544
Si0 W8 2.586512 1_555
Si0 W0 2.586911 1_554
Si0 W9 2.586925 1_654
Si0 W7 2.588053 1_644
Si0 W5 2.588079 1_555
Si1 W0 2.586405 1_554
Si1 W9 2.586414 1_554
Si1 W7 2.586436 1_544
Si1 W5 2.586442 1_555
Si1 W1 2.586857 1_545
Si1 W6 2.586864 1_445
Si1 W4 2.588098 1_544
Si1 W8 2.588119 1_455
Si2 W1 2.526991 1_556
Si2 W8 2.527142 1_556
Si2 W4 2.569245 1_555
Si2 W9 2.569615 1_655
Si2 W3 2.596623 1_555
Si2 W2 2.597477 1_655
Si2 W0 2.823626 1_655
Si2 W7 2.824864 1_555
Si2 W7 2.826259 1_655
Si2 W0 2.827248 1_555
Si3 W6 2.527002 1_545
Si3 W4 2.527153 1_545
Si3 W8 2.569289 1_555
Si3 W0 2.569631 1_555
Si3 W3 2.596484 1_555
Si3 W2 2.597454 1_555
Si3 W9 2.823595 1_555
Si3 W5 2.824861 1_655
Si3 W5 2.826285 1_555
Si3 W9 2.827264 1_655
Si4 W9 2.526970 1_565
Si4 W5 2.527133 1_565
Si4 W7 2.569296 1_555
Si4 W1 2.569568 1_555
Si4 W2 2.596593 1_555
Si4 W3 2.597505 1_555
Si4 W6 2.823635 1_555
Si4 W4 2.824866 1_455
Si4 W4 2.826257 1_555
Si4 W6 2.827259 1_455
Si5 W0 2.526963 1_554
Si5 W7 2.527144 1_554
Si5 W5 2.569301 1_555
Si5 W6 2.569546 1_455
Si5 W2 2.596522 1_555
Si5 W3 2.597430 1_455
Si5 W1 2.823632 1_455
Si5 W8 2.824870 1_555
Si5 W8 2.826245 1_455
Si5 W1 2.827249 1_555
W2 W3 2.470450 1_555
W2 W3 2.470459 1_455
