# generated using pymatgen
data_K2VMoH10
_symmetry_space_group_name_H-M   'P 1'
_cell_length_a   4.74815494
_cell_length_b   5.57581425
_cell_length_c   12.69739618
_cell_angle_alpha   89.97670206
_cell_angle_beta   90.00000000
_cell_angle_gamma   90.00000000
_symmetry_Int_Tables_number   1
_chemical_formula_structural   K2VMoH10
_chemical_formula_sum   'K4 V2 Mo2 H20'
_cell_volume   336.16137746
_cell_formula_units_Z   2
loop_
 _symmetry_equiv_pos_site_id
 _symmetry_equiv_pos_as_xyz
  1  'x, y, z'
loop_
 _atom_site_type_symbol
 _atom_site_label
 _atom_site_symmetry_multiplicity
 _atom_site_fract_x
 _atom_site_fract_y
 _atom_site_fract_z
 _atom_site_occupancy
  K  K0  1  0.29030759  0.24963424  0.65337785  1
  K  K1  1  0.79030759  0.25036576  0.34662215  1
  K  K2  1  0.22376735  0.74997444  0.15971520  1
  K  K3  1  0.72376735  0.75002556  0.84028480  1
  V  V0  1  0.25200787  0.74982690  0.45837993  1
  V  V1  1  0.75200787  0.75017310  0.54162007  1
  Mo  Mo0  1  0.23669743  0.24961153  0.95704619  1
  Mo  Mo1  1  0.73669743  0.25038847  0.04295381  1
  H  H0  1  0.52840018  0.54008064  0.47873453  1
  H  H1  1  0.02840018  0.95991936  0.52126547  1
  H  H2  1  0.99342798  0.48912892  0.98658082  1
  H  H3  1  0.49342798  0.01087108  0.01341918  1
  H  H4  1  0.21894927  0.06238315  0.84756491  1
  H  H5  1  0.71894927  0.43761685  0.15243509  1
  H  H6  1  0.24983829  0.94087753  0.35529309  1
  H  H7  1  0.74983829  0.55912247  0.64470691  1
  H  H8  1  0.21860567  0.43500694  0.84694831  1
  H  H9  1  0.71860567  0.06499306  0.15305169  1
  H  H10  1  0.25049822  0.55818550  0.35554647  1
  H  H11  1  0.75049822  0.94181450  0.64445353  1
  H  H12  1  0.61663029  0.24932295  0.90336042  1
  H  H13  1  0.11663029  0.25067705  0.09663958  1
  H  H14  1  0.89915654  0.74950344  0.41067423  1
  H  H15  1  0.39915654  0.75049656  0.58932577  1
  H  H16  1  0.99317826  0.01062825  0.98742661  1
  H  H17  1  0.49317826  0.48937175  0.01257339  1
  H  H18  1  0.52853507  0.95960365  0.47815129  1
  H  H19  1  0.02853507  0.54039635  0.52184871  1
loop_
_geom_bond_atom_site_label_1
_geom_bond_atom_site_label_2
_geom_bond_distance
_geom_bond_site_symmetry_2
H0 V1 1.771400 1_555
H0 V0 1.776673 1_555
H0 K1 2.640482 1_555
H1 V0 1.771400 1_555
H1 V1 1.776673 1_455
H1 K0 2.640482 1_565
H2 Mo0 1.805222 1_655
H2 Mo1 1.941534 1_556
H2 K3 2.684024 1_555
H2 K2 2.854273 1_656
H3 Mo1 1.805222 1_555
H3 Mo0 1.941534 1_554
H3 K2 2.684024 1_545
H3 K3 2.854273 1_544
H4 Mo0 1.740853 1_555
H4 K0 2.698580 1_555
H4 K3 2.927483 1_445
H4 K3 2.964356 1_545
H5 Mo1 1.740853 1_555
H5 K1 2.698580 1_555
H5 K2 2.927483 1_555
H5 K2 2.964356 1_655
H6 V0 1.687325 1_555
H6 K2 2.705076 1_555
H6 K1 2.783993 1_465
H7 V1 1.687325 1_555
H7 K3 2.705076 1_555
H7 K0 2.783993 1_555
H8 Mo0 1.740427 1_555
H8 K0 2.688362 1_555
H8 K3 2.934749 1_455
H8 K3 2.974137 1_555
H9 Mo1 1.740427 1_555
H9 K1 2.688362 1_555
H9 K2 2.934749 1_545
H9 K2 2.974137 1_645
H10 V0 1.687571 1_555
H10 K2 2.709324 1_555
H10 K1 2.780883 1_455
H11 V1 1.687571 1_555
H11 K3 2.709324 1_555
H11 K0 2.780883 1_565
H12 Mo1 1.861911 1_556
H12 Mo0 1.928476 1_555
H12 K3 2.941534 1_545
H12 K3 2.948335 1_555
H13 Mo0 1.861911 1_554
H13 Mo1 1.928476 1_455
H13 K2 2.941534 1_555
H13 K2 2.948335 1_545
H14 V0 1.781534 1_655
H14 V1 1.803512 1_555
H15 V1 1.781534 1_555
H15 V0 1.803512 1_555
H16 Mo0 1.805814 1_655
H16 Mo1 1.941164 1_556
H16 K3 2.690837 1_545
H16 K2 2.845009 1_646
H17 Mo1 1.805814 1_555
H17 Mo0 1.941164 1_554
H17 K2 2.690837 1_555
H17 K3 2.845009 1_554
H18 V1 1.771502 1_555
H18 V0 1.776333 1_555
H18 K1 2.638229 1_565
H19 V0 1.771502 1_555
H19 V1 1.776333 1_455
H19 K0 2.638229 1_555
