# generated using pymatgen
data_Sr7NbSi2N9
_symmetry_space_group_name_H-M   'P 1'
_cell_length_a   10.33617228
_cell_length_b   6.39877622
_cell_length_c   9.48768101
_cell_angle_alpha   89.51236800
_cell_angle_beta   90.00000000
_cell_angle_gamma   90.00000000
_symmetry_Int_Tables_number   1
_chemical_formula_structural   Sr7NbSi2N9
_chemical_formula_sum   'Sr14 Nb2 Si4 N18'
_cell_volume   627.48161751
_cell_formula_units_Z   2
loop_
 _symmetry_equiv_pos_site_id
 _symmetry_equiv_pos_as_xyz
  1  'x, y, z'
loop_
 _atom_site_type_symbol
 _atom_site_label
 _atom_site_symmetry_multiplicity
 _atom_site_fract_x
 _atom_site_fract_y
 _atom_site_fract_z
 _atom_site_occupancy
  Sr  Sr0  1  0.94739135  0.43097160  0.16795126  1
  Sr  Sr1  1  0.07969089  0.24883879  0.49332540  1
  Sr  Sr2  1  0.25000000  0.10047673  0.79518048  1
  Sr  Sr3  1  0.44739135  0.56902840  0.83204874  1
  Sr  Sr4  1  0.57969089  0.75116121  0.50667460  1
  Sr  Sr5  1  0.58225814  0.07197457  0.83226547  1
  Sr  Sr6  1  0.91774186  0.07197457  0.83226547  1
  Sr  Sr7  1  0.41774186  0.92802543  0.16773453  1
  Sr  Sr8  1  0.42030911  0.24883879  0.49332540  1
  Sr  Sr9  1  0.08225814  0.92802543  0.16773453  1
  Sr  Sr10  1  0.92030911  0.75116121  0.50667460  1
  Sr  Sr11  1  0.05260865  0.56902840  0.83204874  1
  Sr  Sr12  1  0.75000000  0.89952327  0.20481952  1
  Sr  Sr13  1  0.55260865  0.43097160  0.16795126  1
  Nb  Nb0  1  0.75000000  0.28362349  0.43845533  1
  Nb  Nb1  1  0.25000000  0.71637651  0.56154467  1
  Si  Si0  1  0.25000000  0.32594963  0.06664465  1
  Si  Si1  1  0.75000000  0.46029110  0.72008308  1
  Si  Si2  1  0.75000000  0.67405037  0.93335535  1
  Si  Si3  1  0.25000000  0.53970890  0.27991692  1
  N  N0  1  0.39324437  0.23554096  0.98751264  1
  N  N1  1  0.25000000  0.26096498  0.25369888  1
  N  N2  1  0.89602804  0.12493774  0.34725091  1
  N  N3  1  0.61595960  0.36891902  0.63008239  1
  N  N4  1  0.75000000  0.54409530  0.33704126  1
  N  N5  1  0.25000000  0.60578900  0.09489306  1
  N  N6  1  0.88404040  0.36891902  0.63008239  1
  N  N7  1  0.38404040  0.63108098  0.36991761  1
  N  N8  1  0.75000000  0.39421100  0.90510694  1
  N  N9  1  0.10397196  0.87506226  0.65274909  1
  N  N10  1  0.75000000  0.73903502  0.74630112  1
  N  N11  1  0.11595960  0.63108098  0.36991761  1
  N  N12  1  0.60675563  0.76445904  0.01248736  1
  N  N13  1  0.25000000  0.45590470  0.66295874  1
  N  N14  1  0.39602804  0.87506226  0.65274909  1
  N  N15  1  0.60397196  0.12493774  0.34725091  1
  N  N16  1  0.10675563  0.23554096  0.98751264  1
  N  N17  1  0.89324437  0.76445904  0.01248736  1
loop_
_geom_bond_atom_site_label_1
_geom_bond_atom_site_label_2
_geom_bond_distance
_geom_bond_site_symmetry_2
N0 Si0 1.760086 1_556
N0 Sr2 2.509139 1_555
N0 Sr7 2.608159 1_546
N0 Sr3 2.643641 1_555
N0 Sr5 2.666095 1_555
N0 Sr13 2.691525 1_556
N1 Si3 1.802977 1_555
N1 Si0 1.819326 1_555
N1 Sr7 2.870454 1_545
N1 Sr9 2.870454 1_545
N1 Sr1 2.875871 1_555
N1 Sr8 2.875871 1_555
N2 Nb0 2.018157 1_555
N2 Sr1 2.484313 1_655
N2 Sr12 2.493583 1_545
N2 Sr0 2.636994 1_555
N2 Sr10 2.830113 1_545
N2 Sr9 2.868843 1_645
N3 Si1 1.731759 1_555
N3 Nb0 2.353670 1_555
N3 Sr8 2.525962 1_555
N3 Sr5 2.710957 1_555
N3 Sr4 2.728558 1_555
N3 Sr3 2.896361 1_555
N4 Nb0 1.917392 1_555
N4 Sr12 2.587974 1_555
N4 Sr13 2.698171 1_555
N4 Sr0 2.698171 1_555
N4 Sr4 2.735124 1_555
N4 Sr10 2.735124 1_555
N5 Si3 1.802151 1_555
N5 Si0 1.812830 1_555
N5 Sr7 2.785583 1_555
N5 Sr9 2.785583 1_555
N5 Sr11 3.232178 1_554
N5 Sr3 3.232178 1_554
N6 Si1 1.731759 1_555
N6 Nb0 2.353670 1_555
N6 Sr1 2.525962 1_655
N6 Sr6 2.710957 1_555
N6 Sr10 2.728558 1_555
N6 Sr11 2.896361 1_655
N7 Si3 1.731759 1_555
N7 Nb1 2.353670 1_555
N7 Sr4 2.525962 1_555
N7 Sr7 2.710957 1_555
N7 Sr8 2.728558 1_555
N7 Sr13 2.896361 1_555
N8 Si1 1.802151 1_555
N8 Si2 1.812830 1_555
N8 Sr6 2.785583 1_555
N8 Sr5 2.785583 1_555
N8 Sr13 3.232178 1_556
N8 Sr0 3.232178 1_556
N9 Nb1 2.018157 1_555
N9 Sr10 2.484313 1_455
N9 Sr2 2.493583 1_565
N9 Sr11 2.636994 1_555
N9 Sr1 2.830113 1_565
N9 Sr6 2.868843 1_465
N10 Si1 1.802977 1_555
N10 Si2 1.819326 1_555
N10 Sr6 2.870454 1_565
N10 Sr5 2.870454 1_565
N10 Sr4 2.875871 1_555
N10 Sr10 2.875871 1_555
N11 Si3 1.731759 1_555
N11 Nb1 2.353670 1_555
N11 Sr10 2.525962 1_455
N11 Sr9 2.710957 1_555
N11 Sr1 2.728558 1_555
N11 Sr0 2.896361 1_455
N12 Si2 1.760086 1_554
N12 Sr12 2.509139 1_555
N12 Sr5 2.608159 1_564
N12 Sr13 2.643641 1_555
N12 Sr7 2.666095 1_555
N12 Sr3 2.691525 1_554
N13 Nb1 1.917392 1_555
N13 Sr2 2.587974 1_555
N13 Sr11 2.698171 1_555
N13 Sr3 2.698171 1_555
N13 Sr1 2.735124 1_555
N13 Sr8 2.735124 1_555
N14 Nb1 2.018157 1_555
N14 Sr4 2.484313 1_555
N14 Sr2 2.493583 1_565
N14 Sr3 2.636994 1_555
N14 Sr8 2.830113 1_565
N14 Sr5 2.868843 1_565
N15 Nb0 2.018157 1_555
N15 Sr8 2.484313 1_555
N15 Sr12 2.493583 1_545
N15 Sr13 2.636994 1_555
N15 Sr4 2.830113 1_545
N15 Sr7 2.868843 1_545
N16 Si0 1.760086 1_556
N16 Sr2 2.509139 1_555
N16 Sr9 2.608159 1_546
N16 Sr11 2.643641 1_555
N16 Sr6 2.666095 1_455
N16 Sr0 2.691525 1_456
N17 Si2 1.760086 1_554
N17 Sr12 2.509139 1_555
N17 Sr6 2.608159 1_564
N17 Sr0 2.643641 1_555
N17 Sr9 2.666095 1_655
N17 Sr11 2.691525 1_654
