# generated using pymatgen
data_Li2Hf2NbN5
_symmetry_space_group_name_H-M   'P 1'
_cell_length_a   5.58448635
_cell_length_b   5.58448609
_cell_length_c   9.98258765
_cell_angle_alpha   87.78237386
_cell_angle_beta   87.78237152
_cell_angle_gamma   44.92277600
_symmetry_Int_Tables_number   1
_chemical_formula_structural   Li2Hf2NbN5
_chemical_formula_sum   'Li4 Hf4 Nb2 N10'
_cell_volume   219.64807347
_cell_formula_units_Z   2
loop_
 _symmetry_equiv_pos_site_id
 _symmetry_equiv_pos_as_xyz
  1  'x, y, z'
loop_
 _atom_site_type_symbol
 _atom_site_label
 _atom_site_symmetry_multiplicity
 _atom_site_fract_x
 _atom_site_fract_y
 _atom_site_fract_z
 _atom_site_occupancy
  Li  Li0  1  0.63499740  0.63499740  0.45114379  1
  Li  Li1  1  0.45854296  0.45854296  0.84403755  1
  Li  Li2  1  0.54145704  0.54145704  0.15596245  1
  Li  Li3  1  0.36500260  0.36500260  0.54885621  1
  Hf  Hf0  1  0.05812232  0.05812232  0.63933176  1
  Hf  Hf1  1  0.94187768  0.94187768  0.36066824  1
  Hf  Hf2  1  0.75727030  0.75727030  0.73682946  1
  Hf  Hf3  1  0.24272970  0.24272970  0.26317054  1
  Nb  Nb0  1  0.14361120  0.14361120  0.95027322  1
  Nb  Nb1  1  0.85638880  0.85638880  0.04972678  1
  N  N0  1  0.57910220  0.57910220  0.65589961  1
  N  N1  1  0.42089780  0.42089780  0.34410039  1
  N  N2  1  0.87308141  0.87308141  0.56302475  1
  N  N3  1  0.03833654  0.03833654  0.13862111  1
  N  N4  1  0.96166346  0.96166346  0.86137889  1
  N  N5  1  0.12691859  0.12691859  0.43697525  1
  N  N6  1  0.32908693  0.32908693  0.04935162  1
  N  N7  1  0.67091307  0.67091307  0.95064838  1
  N  N8  1  0.76152169  0.76152169  0.23860278  1
  N  N9  1  0.23847831  0.23847831  0.76139722  1
loop_
_geom_bond_atom_site_label_1
_geom_bond_atom_site_label_2
_geom_bond_distance
_geom_bond_site_symmetry_2
Li0 N0 2.100477 1_555
Li0 N5 2.140152 1_655
Li0 N5 2.140152 1_565
Li0 N8 2.444400 1_555
Li0 N1 2.494613 1_555
Li1 N4 2.140975 1_455
Li1 N4 2.140975 1_545
Li1 N0 2.209077 1_555
Li1 N6 2.399336 1_556
Li1 N9 2.448856 1_555
Li1 N7 2.476472 1_555
Li2 N3 2.140975 1_655
Li2 N3 2.140975 1_565
Li2 N1 2.209077 1_555
Li2 N7 2.399336 1_554
Li2 N8 2.448856 1_555
Li2 N6 2.476472 1_555
Li3 N1 2.100477 1_555
Li3 N2 2.140152 1_455
Li3 N2 2.140152 1_545
Li3 N9 2.444400 1_555
Li3 N0 2.494613 1_555
Hf0 N2 2.085646 1_445
Hf0 N5 2.112978 1_555
Hf0 N0 2.151639 1_455
Hf0 N0 2.151639 1_545
Hf0 N9 2.267208 1_555
Hf0 N4 2.391605 1_445
Hf1 N5 2.085646 1_665
Hf1 N2 2.112978 1_555
Hf1 N1 2.151639 1_655
Hf1 N1 2.151639 1_565
Hf1 N8 2.267208 1_555
Hf1 N3 2.391605 1_665
Hf2 N0 2.039361 1_555
Hf2 N2 2.065311 1_555
Hf2 N9 2.155479 1_565
Hf2 N9 2.155479 1_655
Hf2 N7 2.278404 1_555
Hf2 N4 2.493242 1_555
Hf3 N1 2.039361 1_555
Hf3 N5 2.065311 1_555
Hf3 N8 2.155479 1_545
Hf3 N8 2.155479 1_455
Hf3 N6 2.278404 1_555
Hf3 N3 2.493242 1_555
N3 Nb1 2.110433 1_445
N3 Nb0 2.131849 1_554
N4 Nb0 2.110433 1_665
N4 Nb1 2.131849 1_556
N6 Nb1 2.152166 1_455
N6 Nb1 2.152166 1_545
N6 Nb0 2.191301 1_554
N7 Nb0 2.152166 1_655
N7 Nb0 2.152166 1_565
N7 Nb1 2.191301 1_556
N8 Nb1 2.087869 1_555
N9 Nb0 2.087869 1_555
