# generated using pymatgen
data_Lu2(CO3)3
_symmetry_space_group_name_H-M   'P 1'
_cell_length_a   7.88687060
_cell_length_b   8.19476442
_cell_length_c   8.21103794
_cell_angle_alpha   119.93883736
_cell_angle_beta   90.03170442
_cell_angle_gamma   90.01666434
_symmetry_Int_Tables_number   1
_chemical_formula_structural   Lu2(CO3)3
_chemical_formula_sum   'Lu4 C6 O18'
_cell_volume   459.87208947
_cell_formula_units_Z   2
loop_
 _symmetry_equiv_pos_site_id
 _symmetry_equiv_pos_as_xyz
  1  'x, y, z'
loop_
 _atom_site_type_symbol
 _atom_site_label
 _atom_site_symmetry_multiplicity
 _atom_site_fract_x
 _atom_site_fract_y
 _atom_site_fract_z
 _atom_site_occupancy
  Lu  Lu0  1  0.96458828  0.66589526  0.33263097  1
  Lu  Lu1  1  0.53542016  0.66708430  0.33311434  1
  Lu  Lu2  1  0.46457984  0.33291570  0.66688566  1
  Lu  Lu3  1  0.03541172  0.33410474  0.66736903  1
  C  C0  1  0.24966958  0.96310644  0.37328095  1
  C  C1  1  0.24999610  0.41011781  0.03707363  1
  C  C2  1  0.74961995  0.37323076  0.41067471  1
  C  C3  1  0.25038005  0.62676924  0.58932529  1
  C  C4  1  0.75000390  0.58988219  0.96292637  1
  C  C5  1  0.75033042  0.03689356  0.62671905  1
  O  O0  1  0.10826887  0.87675428  0.32039154  1
  O  O1  1  0.39154023  0.87783395  0.32089864  1
  O  O2  1  0.74984030  0.66118164  0.14469224  1
  O  O3  1  0.39152727  0.44396703  0.12312480  1
  O  O4  1  0.10825214  0.44307431  0.12241224  1
  O  O5  1  0.74949093  0.48337443  0.33857926  1
  O  O6  1  0.75066702  0.85492564  0.51556697  1
  O  O7  1  0.10864045  0.67858720  0.55535482  1
  O  O8  1  0.39190531  0.67925207  0.55573544  1
  O  O9  1  0.60809469  0.32074793  0.44426456  1
  O  O10  1  0.89135955  0.32141280  0.44464518  1
  O  O11  1  0.24933298  0.14507436  0.48443303  1
  O  O12  1  0.25050907  0.51662557  0.66142074  1
  O  O13  1  0.89174786  0.55692569  0.87758776  1
  O  O14  1  0.60847273  0.55603297  0.87687520  1
  O  O15  1  0.25015970  0.33881836  0.85530776  1
  O  O16  1  0.60845977  0.12216605  0.67910136  1
  O  O17  1  0.89173113  0.12324572  0.67960846  1
loop_
_geom_bond_atom_site_label_1
_geom_bond_atom_site_label_2
_geom_bond_distance
_geom_bond_site_symmetry_2
Lu0 O0 2.110052 1_655
Lu0 O7 2.110415 1_655
Lu0 O4 2.110643 1_655
Lu0 O6 2.276886 1_555
Lu0 O5 2.277940 1_555
Lu0 O2 2.277944 1_555
Lu1 O8 2.110196 1_555
Lu1 O3 2.110403 1_555
Lu1 O1 2.110533 1_555
Lu1 O2 2.276854 1_555
Lu1 O5 2.277667 1_555
Lu1 O6 2.278079 1_555
Lu2 O9 2.110196 1_555
Lu2 O14 2.110403 1_555
Lu2 O16 2.110533 1_555
Lu2 O15 2.276854 1_555
Lu2 O12 2.277667 1_555
Lu2 O11 2.278079 1_555
Lu3 O17 2.110052 1_455
Lu3 O10 2.110415 1_455
Lu3 O13 2.110643 1_455
Lu3 O11 2.276886 1_555
Lu3 O12 2.277940 1_555
Lu3 O15 2.277944 1_555
C0 O0 1.274872 1_555
C0 O1 1.275249 1_555
C0 O11 1.303138 1_565
C1 O3 1.274946 1_555
C1 O4 1.275081 1_555
C1 O15 1.303260 1_554
C2 O9 1.274907 1_555
C2 O10 1.275122 1_555
C2 O5 1.303250 1_555
C3 O8 1.274907 1_555
C3 O7 1.275122 1_555
C3 O12 1.303250 1_555
C4 O14 1.274946 1_555
C4 O13 1.275081 1_555
C4 O2 1.303260 1_556
C5 O17 1.274872 1_555
C5 O16 1.275249 1_555
C5 O6 1.303138 1_545
