# generated using pymatgen
data_Zr10Ga5SnSe
_symmetry_space_group_name_H-M   'P 1'
_cell_length_a   5.84101772
_cell_length_b   8.29192708
_cell_length_c   8.26621388
_cell_angle_alpha   119.89766358
_cell_angle_beta   89.87114249
_cell_angle_gamma   90.06415883
_symmetry_Int_Tables_number   1
_chemical_formula_structural   Zr10Ga5SnSe
_chemical_formula_sum   'Zr10 Ga5 Sn1 Se1'
_cell_volume   347.07800713
_cell_formula_units_Z   1
loop_
 _symmetry_equiv_pos_site_id
 _symmetry_equiv_pos_as_xyz
  1  'x, y, z'
loop_
 _atom_site_type_symbol
 _atom_site_label
 _atom_site_symmetry_multiplicity
 _atom_site_fract_x
 _atom_site_fract_y
 _atom_site_fract_z
 _atom_site_occupancy
  Zr  Zr0  1  0.50300192  0.34472742  0.67315922  1
  Zr  Zr1  1  0.50301135  0.65527697  0.32843920  1
  Zr  Zr2  1  0.99701872  0.65998366  0.33167093  1
  Zr  Zr3  1  0.99702671  0.34002597  0.67169147  1
  Zr  Zr4  1  0.76510893  0.25815150  0.99934044  1
  Zr  Zr5  1  0.76511669  0.74186979  0.74116017  1
  Zr  Zr6  1  0.76485605  0.99998360  0.25656909  1
  Zr  Zr7  1  0.23559197  0.73600388  0.99126280  1
  Zr  Zr8  1  0.23559560  0.26399657  0.25524853  1
  Zr  Zr9  1  0.22570210  0.99998855  0.75166238  1
  Ga  Ga0  1  0.75282811  0.61103468  0.00207648  1
  Ga  Ga1  1  0.75283003  0.38900793  0.39100386  1
  Ga  Ga2  1  0.74716938  0.99995250  0.60775188  1
  Ga  Ga3  1  0.24856137  0.39050992  0.99739958  1
  Ga  Ga4  1  0.24856255  0.60952187  0.60683943  1
  Sn  Sn0  1  0.25712112  0.99998248  0.39387328  1
  Se  Se0  1  0.50089640  0.99998571  0.00085327  1
loop_
_geom_bond_atom_site_label_1
_geom_bond_atom_site_label_2
_geom_bond_distance
_geom_bond_site_symmetry_2
Ga0 Zr6 2.840497 1_555
Ga0 Zr5 2.857549 1_554
Ga0 Zr3 2.900763 1_554
Ga0 Zr0 2.902289 1_554
Ga0 Zr4 2.915836 1_554
Ga0 Zr2 2.921610 1_555
Ga0 Zr1 2.922106 1_555
Ga0 Zr7 3.019585 1_654
Ga0 Zr7 3.210904 1_554
Ga1 Zr6 2.841119 1_545
Ga1 Zr4 2.856822 1_554
Ga1 Zr2 2.900311 1_555
Ga1 Zr1 2.901793 1_555
Ga1 Zr5 2.915776 1_555
Ga1 Zr3 2.922077 1_555
Ga1 Zr0 2.922555 1_555
Ga1 Zr8 3.019601 1_655
Ga1 Zr8 3.210904 1_555
Ga2 Zr5 2.856642 1_555
Ga2 Zr4 2.857421 1_565
Ga2 Zr6 2.904686 1_555
Ga2 Zr2 2.977497 1_555
Ga2 Zr3 2.978147 1_565
Ga2 Zr1 2.993378 1_555
Ga2 Zr0 2.994010 1_565
Ga2 Zr9 3.040135 1_655
Ga2 Zr9 3.267413 1_555
Ga3 Zr8 2.806665 1_556
Ga3 Zr9 2.841250 1_545
Ga3 Zr7 2.891510 1_555
Ga3 Zr3 2.911281 1_455
Ga3 Zr0 2.916432 1_555
Ga3 Zr1 2.922136 1_556
Ga3 Zr2 2.936090 1_456
Ga3 Zr4 3.031392 1_455
Ga3 Zr4 3.214536 1_555
Ga4 Zr7 2.807187 1_555
Ga4 Zr9 2.840784 1_555
Ga4 Zr8 2.891461 1_555
Ga4 Zr2 2.910819 1_455
Ga4 Zr1 2.915934 1_555
Ga4 Zr0 2.922520 1_555
Ga4 Zr3 2.936489 1_455
Ga4 Zr5 3.031370 1_455
Ga4 Zr5 3.214590 1_555
Sn0 Zr7 2.936344 1_554
Sn0 Zr8 2.936584 1_565
Sn0 Zr9 2.962812 1_555
Sn0 Zr1 2.998261 1_555
Sn0 Zr0 2.998454 1_565
Sn0 Zr2 3.011561 1_455
Sn0 Zr3 3.011788 1_465
Sn0 Zr6 3.093606 1_455
Sn0 Zr6 3.173070 1_555
Se0 Zr9 2.615677 1_554
Se0 Zr6 2.619156 1_555
Se0 Zr5 2.642550 1_554
Se0 Zr4 2.642651 1_564
Se0 Zr7 2.649343 1_554
Se0 Zr8 2.649439 1_565
