# generated using pymatgen
data_Rb6MoAs4
_symmetry_space_group_name_H-M   'P 1'
_cell_length_a   10.64712464
_cell_length_b   10.64712414
_cell_length_c   8.53404405
_cell_angle_alpha   90.00000000
_cell_angle_beta   90.00000000
_cell_angle_gamma   119.99999245
_symmetry_Int_Tables_number   1
_chemical_formula_structural   Rb6MoAs4
_chemical_formula_sum   'Rb12 Mo2 As8'
_cell_volume   837.81899165
_cell_formula_units_Z   2
loop_
 _symmetry_equiv_pos_site_id
 _symmetry_equiv_pos_as_xyz
  1  'x, y, z'
loop_
 _atom_site_type_symbol
 _atom_site_label
 _atom_site_symmetry_multiplicity
 _atom_site_fract_x
 _atom_site_fract_y
 _atom_site_fract_z
 _atom_site_occupancy
  Rb  Rb0  1  0.14647677  0.29295454  0.28765238  1
  Rb  Rb1  1  0.85352323  0.14647677  0.78765238  1
  Rb  Rb2  1  0.53251954  0.46748046  0.10462730  1
  Rb  Rb3  1  0.06503908  0.53251954  0.60462730  1
  Rb  Rb4  1  0.46748046  0.93496092  0.60462730  1
  Rb  Rb5  1  0.53251954  0.06503908  0.10462730  1
  Rb  Rb6  1  0.93496092  0.46748046  0.10462730  1
  Rb  Rb7  1  0.46748046  0.53251954  0.60462730  1
  Rb  Rb8  1  0.14647677  0.85352323  0.28765238  1
  Rb  Rb9  1  0.70704546  0.85352323  0.28765238  1
  Rb  Rb10  1  0.85352323  0.70704546  0.78765238  1
  Rb  Rb11  1  0.29295454  0.14647677  0.78765238  1
  Mo  Mo0  1  0.66666700  0.33333300  0.49730761  1
  Mo  Mo1  1  0.33333300  0.66666700  0.99730761  1
  As  As0  1  0.79112125  0.58224350  0.40736786  1
  As  As1  1  0.41775650  0.20887875  0.40736786  1
  As  As2  1  0.33333300  0.66666700  0.27864775  1
  As  As3  1  0.66666700  0.33333300  0.77864775  1
  As  As4  1  0.79112125  0.20887875  0.40736786  1
  As  As5  1  0.20887875  0.79112125  0.90736786  1
  As  As6  1  0.20887875  0.41775650  0.90736786  1
  As  As7  1  0.58224350  0.79112125  0.90736786  1
loop_
_geom_bond_atom_site_label_1
_geom_bond_atom_site_label_2
_geom_bond_distance
_geom_bond_site_symmetry_2
As0 Mo0 2.420068 1_555
As0 Rb10 3.443347 1_555
As0 Rb2 3.519193 1_555
As0 Rb6 3.519199 1_555
As0 Rb9 3.573963 1_555
As0 Rb8 3.573964 1_655
As0 Rb7 3.628187 1_555
As0 Rb3 3.628196 1_655
As1 Mo0 2.420068 1_555
As1 Rb11 3.443347 1_555
As1 Rb2 3.519193 1_555
As1 Rb5 3.519199 1_555
As1 Rb0 3.573963 1_555
As1 Rb8 3.573964 1_545
As1 Rb7 3.628187 1_555
As1 Rb4 3.628196 1_545
As2 Mo1 2.400969 1_554
As2 Rb8 3.446740 1_555
As2 Rb0 3.446740 1_555
As2 Rb9 3.446740 1_555
As2 Rb4 3.722774 1_555
As2 Rb3 3.722774 1_555
As2 Rb7 3.722780 1_555
As2 Rb5 3.962117 1_565
As2 Rb6 3.962117 1_455
As2 Rb2 3.962125 1_555
As3 Mo0 2.400969 1_555
As3 Rb1 3.446740 1_555
As3 Rb10 3.446740 1_555
As3 Rb11 3.446740 1_555
As3 Rb5 3.722774 1_556
As3 Rb6 3.722774 1_556
As3 Rb2 3.722780 1_556
As3 Rb4 3.962117 1_545
As3 Rb3 3.962117 1_655
As3 Rb7 3.962125 1_555
As4 Mo0 2.420050 1_555
As4 Rb1 3.443353 1_555
As4 Rb6 3.519193 1_555
As4 Rb5 3.519193 1_555
As4 Rb9 3.573963 1_545
As4 Rb0 3.573964 1_655
As4 Rb3 3.628190 1_655
As4 Rb4 3.628190 1_545
As5 Mo1 2.420050 1_555
As5 Rb8 3.443353 1_556
As5 Rb3 3.519193 1_555
As5 Rb4 3.519193 1_555
As5 Rb11 3.573963 1_565
As5 Rb10 3.573964 1_455
As5 Rb6 3.628190 1_456
As5 Rb5 3.628190 1_566
As6 Mo1 2.420068 1_555
As6 Rb0 3.443347 1_556
As6 Rb7 3.519193 1_555
As6 Rb3 3.519199 1_555
As6 Rb11 3.573963 1_555
As6 Rb1 3.573964 1_455
As6 Rb2 3.628187 1_556
As6 Rb6 3.628196 1_456
As7 Mo1 2.420068 1_555
As7 Rb9 3.443347 1_556
As7 Rb7 3.519193 1_555
As7 Rb4 3.519199 1_555
As7 Rb10 3.573963 1_555
As7 Rb1 3.573964 1_565
As7 Rb2 3.628187 1_556
As7 Rb5 3.628196 1_566
