# generated using pymatgen
data_PrMg12
_symmetry_space_group_name_H-M   'P 1'
_cell_length_a   5.90539448
_cell_length_b   7.81780120
_cell_length_c   7.81780077
_cell_angle_alpha   81.78448272
_cell_angle_beta   67.86684937
_cell_angle_gamma   67.86684208
_symmetry_Int_Tables_number   1
_chemical_formula_structural   PrMg12
_chemical_formula_sum   'Pr1 Mg12'
_cell_volume   309.69293587
_cell_formula_units_Z   1
loop_
 _symmetry_equiv_pos_site_id
 _symmetry_equiv_pos_as_xyz
  1  'x, y, z'
loop_
 _atom_site_type_symbol
 _atom_site_label
 _atom_site_symmetry_multiplicity
 _atom_site_fract_x
 _atom_site_fract_y
 _atom_site_fract_z
 _atom_site_occupancy
  Pr  Pr0  1  0.00000000  -0.00000000  -0.00000000  1
  Mg  Mg0  1  0.50000000  -0.00000000  0.50000000  1
  Mg  Mg1  1  0.00000000  0.50000000  -0.00000000  1
  Mg  Mg2  1  0.50000000  0.50000000  -0.00000000  1
  Mg  Mg3  1  0.00000000  -0.00000000  0.50000000  1
  Mg  Mg4  1  0.35257258  0.64762395  0.64762395  1
  Mg  Mg5  1  1.00000000  0.35231320  0.64768680  1
  Mg  Mg6  1  0.00000000  0.64768680  0.35231320  1
  Mg  Mg7  1  0.64742742  0.35237605  0.35237605  1
  Mg  Mg8  1  0.28804498  0.21194755  0.21194755  1
  Mg  Mg9  1  0.50000000  0.78821301  0.21178699  1
  Mg  Mg10  1  0.50000000  0.21178699  0.78821301  1
  Mg  Mg11  1  0.71195502  0.78805245  0.78805245  1
loop_
_geom_bond_atom_site_label_1
_geom_bond_atom_site_label_2
_geom_bond_distance
_geom_bond_site_symmetry_2
Mg0 Mg3 2.952697 1_555
Mg0 Mg3 2.952697 1_655
Mg0 Mg11 2.979630 1_545
Mg0 Mg8 2.979630 1_555
Mg0 Mg9 2.980677 1_545
Mg0 Mg10 2.980677 1_555
Mg0 Mg4 3.133744 1_545
Mg0 Mg7 3.133744 1_555
Mg0 Mg6 3.138408 1_645
Mg0 Mg5 3.138408 1_455
Mg0 Pr0 3.911642 1_655
Mg0 Pr0 3.911642 1_556
Mg1 Mg2 2.952697 1_555
Mg1 Mg2 2.952697 1_455
Mg1 Mg11 2.980134 1_454
Mg1 Mg8 2.980134 1_555
Mg1 Mg9 2.984271 1_455
Mg1 Mg10 2.984271 1_554
Mg1 Mg5 3.134991 1_454
Mg1 Mg6 3.134991 1_555
Mg1 Mg7 3.136237 1_455
Mg1 Mg4 3.136237 1_554
Mg1 Pr0 3.908901 1_565
Mg1 Pr0 3.908901 1_555
Mg2 Mg8 2.979631 1_555
Mg2 Mg9 2.980677 1_555
Mg2 Mg4 3.133743 1_554
Mg2 Mg7 3.133743 1_555
Mg2 Mg6 3.138408 1_555
Mg2 Mg5 3.138408 1_554
Mg2 Pr0 3.911641 1_655
Mg2 Pr0 3.911641 1_565
Mg3 Mg8 2.980134 1_555
Mg3 Mg9 2.984271 1_545
Mg3 Mg6 3.134991 1_545
Mg3 Mg5 3.134991 1_455
Mg3 Mg4 3.136237 1_545
Mg3 Mg7 3.136237 1_455
Mg3 Pr0 3.908900 1_555
Mg3 Pr0 3.908900 1_556
Mg4 Mg7 3.025403 1_555
Mg4 Mg9 3.315279 1_555
Mg4 Pr0 3.610799 1_566
Mg5 Mg6 3.023346 1_655
Mg5 Mg8 3.316252 1_655
Mg5 Pr0 3.606160 1_656
Mg6 Mg9 3.284411 1_455
Mg6 Mg9 3.284411 1_555
Mg6 Mg8 3.316252 1_555
Mg6 Pr0 3.606160 1_565
Mg7 Mg8 3.281833 1_555
Mg7 Mg8 3.287506 1_655
Mg7 Mg9 3.315279 1_555
Mg7 Pr0 3.610799 1_655
Mg8 Mg9 3.068567 1_545
Mg8 Pr0 3.662897 1_555
Mg8 Pr0 3.667927 1_655
Mg9 Pr0 3.663017 1_565
Mg9 Pr0 3.663017 1_665
Mg10 Mg2 2.980677 1_556
Mg10 Mg3 2.984271 1_655
Mg10 Mg8 3.068567 1_556
Mg10 Mg11 3.068567 1_545
Mg10 Mg5 3.284411 1_455
Mg10 Mg5 3.284411 1_555
Mg10 Mg7 3.315279 1_555
Mg10 Mg4 3.315279 1_555
Mg10 Pr0 3.663017 1_656
Mg10 Pr0 3.663017 1_556
Mg11 Mg2 2.979631 1_556
Mg11 Mg3 2.980134 1_665
Mg11 Mg9 3.068567 1_556
Mg11 Mg4 3.281833 1_555
Mg11 Mg4 3.287506 1_655
Mg11 Mg6 3.316252 1_655
Mg11 Mg5 3.316252 1_555
Mg11 Pr0 3.662897 1_666
Mg11 Pr0 3.667927 1_566
