# generated using pymatgen
data_Sb12OsPdRh2
_symmetry_space_group_name_H-M   'P 1'
_cell_length_a   8.08357623
_cell_length_b   8.09108023
_cell_length_c   8.09647290
_cell_angle_alpha   109.47137152
_cell_angle_beta   109.44684596
_cell_angle_gamma   109.40548447
_symmetry_Int_Tables_number   1
_chemical_formula_structural   Sb12OsPdRh2
_chemical_formula_sum   'Sb12 Os1 Pd1 Rh2'
_cell_volume   408.09863469
_cell_formula_units_Z   1
loop_
 _symmetry_equiv_pos_site_id
 _symmetry_equiv_pos_as_xyz
  1  'x, y, z'
loop_
 _atom_site_type_symbol
 _atom_site_label
 _atom_site_symmetry_multiplicity
 _atom_site_fract_x
 _atom_site_fract_y
 _atom_site_fract_z
 _atom_site_occupancy
  Sb  Sb0  1  0.15504987  0.81865531  0.66495284  1
  Sb  Sb1  1  0.84495013  0.18134469  0.33504716  1
  Sb  Sb2  1  0.84336783  0.50229422  0.65275184  1
  Sb  Sb3  1  0.15663217  0.49770578  0.34724816  1
  Sb  Sb4  1  0.80963656  0.65922499  0.15703409  1
  Sb  Sb5  1  0.19036344  0.34077501  0.84296591  1
  Sb  Sb6  1  0.50964365  0.66475862  0.84607178  1
  Sb  Sb7  1  0.49035635  0.33524138  0.15392822  1
  Sb  Sb8  1  0.65529983  0.14946393  0.81220908  1
  Sb  Sb9  1  0.34470017  0.85053607  0.18779092  1
  Sb  Sb10  1  0.66050332  0.84484125  0.50555295  1
  Sb  Sb11  1  0.33949668  0.15515875  0.49444705  1
  Os  Os0  1  0.50000000  0.00000000  0.00000000  1
  Pd  Pd0  1  0.00000000  0.50000000  0.00000000  1
  Rh  Rh0  1  0.00000000  0.00000000  0.50000000  1
  Rh  Rh1  1  0.50000000  0.50000000  0.50000000  1
loop_
_geom_bond_atom_site_label_1
_geom_bond_atom_site_label_2
_geom_bond_distance
_geom_bond_site_symmetry_2
Sb0 Sb2 2.879226 1_455
Sb0 Sb3 2.991838 1_555
Sb1 Sb3 2.879226 1_655
Sb1 Sb2 2.991838 1_555
Sb4 Sb6 2.881562 1_554
Sb4 Sb7 2.991742 1_555
Sb5 Sb7 2.881562 1_556
Sb5 Sb6 2.991742 1_555
Sb10 Sb8 2.880944 1_565
Sb10 Sb9 2.986973 1_555
Sb11 Sb9 2.880944 1_545
Sb11 Sb8 2.986973 1_555
Os0 Sb8 2.614984 1_554
Os0 Sb9 2.614984 1_545
Os0 Sb7 2.620740 1_555
Os0 Sb6 2.620740 1_544
Os0 Sb1 2.622592 1_555
Os0 Sb0 2.622592 1_544
Pd0 Sb4 2.678117 1_455
Pd0 Sb5 2.678117 1_554
Pd0 Sb9 2.678170 1_555
Pd0 Sb8 2.678170 1_454
Pd0 Sb3 2.681048 1_555
Pd0 Sb2 2.681048 1_454
Rh0 Sb5 2.629087 1_555
Rh0 Sb4 2.629087 1_445
Rh0 Sb0 2.630837 1_545
Rh0 Sb1 2.630837 1_455
Rh0 Sb11 2.634369 1_555
Rh0 Sb10 2.634369 1_445
Rh1 Sb2 2.626551 1_555
Rh1 Sb3 2.626551 1_555
Rh1 Sb6 2.632391 1_555
Rh1 Sb7 2.632391 1_555
Rh1 Sb10 2.634815 1_555
Rh1 Sb11 2.634815 1_555
