# generated using pymatgen
data_MnGaBiO5
_symmetry_space_group_name_H-M   'P 1'
_cell_length_a   5.73688810
_cell_length_b   7.46372488
_cell_length_c   8.57882801
_cell_angle_alpha   90.00000000
_cell_angle_beta   90.00000000
_cell_angle_gamma   90.00000000
_symmetry_Int_Tables_number   1
_chemical_formula_structural   MnGaBiO5
_chemical_formula_sum   'Mn4 Ga4 Bi4 O20'
_cell_volume   367.33301424
_cell_formula_units_Z   4
loop_
 _symmetry_equiv_pos_site_id
 _symmetry_equiv_pos_as_xyz
  1  'x, y, z'
loop_
 _atom_site_type_symbol
 _atom_site_label
 _atom_site_symmetry_multiplicity
 _atom_site_fract_x
 _atom_site_fract_y
 _atom_site_fract_z
 _atom_site_occupancy
  Mn  Mn0  1  0.24556964  0.00000000  0.50000000  1
  Mn  Mn1  1  0.75443036  0.00000000  0.50000000  1
  Mn  Mn2  1  0.75443036  0.50000000  0.00000000  1
  Mn  Mn3  1  0.24556964  0.50000000  0.00000000  1
  Ga  Ga0  1  0.00000000  0.11200020  0.14566225  1
  Ga  Ga1  1  0.00000000  0.88799980  0.85433775  1
  Ga  Ga2  1  0.00000000  0.38799980  0.64566225  1
  Ga  Ga3  1  0.00000000  0.61200020  0.35433775  1
  Bi  Bi0  1  0.50000000  0.35600012  0.33489203  1
  Bi  Bi1  1  0.50000000  0.64399988  0.66510797  1
  Bi  Bi2  1  0.50000000  0.14399988  0.83489203  1
  Bi  Bi3  1  0.50000000  0.85600012  0.16510797  1
  O  O0  1  0.00000000  0.35110381  0.07066209  1
  O  O1  1  0.00000000  0.64889619  0.92933791  1
  O  O2  1  0.00000000  0.14889619  0.57066209  1
  O  O3  1  0.00000000  0.85110381  0.42933791  1
  O  O4  1  0.21888111  0.00000000  0.00000000  1
  O  O5  1  0.78111889  0.00000000  0.00000000  1
  O  O6  1  0.78111889  0.50000000  0.50000000  1
  O  O7  1  0.21888111  0.50000000  0.50000000  1
  O  O8  1  0.24784184  0.10703727  0.29896970  1
  O  O9  1  0.75215816  0.89296273  0.70103030  1
  O  O10  1  0.24784184  0.89296273  0.70103030  1
  O  O11  1  0.75215816  0.39296273  0.79896970  1
  O  O12  1  0.75215816  0.10703727  0.29896970  1
  O  O13  1  0.24784184  0.60703727  0.20103030  1
  O  O14  1  0.75215816  0.60703727  0.20103030  1
  O  O15  1  0.24784184  0.39296273  0.79896970  1
  O  O16  1  0.50000000  0.34471801  0.05317666  1
  O  O17  1  0.50000000  0.65528199  0.94682334  1
  O  O18  1  0.50000000  0.15528199  0.55317666  1
  O  O19  1  0.50000000  0.84471801  0.44682334  1
loop_
_geom_bond_atom_site_label_1
_geom_bond_atom_site_label_2
_geom_bond_distance
_geom_bond_site_symmetry_2
Mn0 O2 1.894001 1_555
Mn0 O3 1.894001 1_545
Mn0 O10 1.900701 1_545
Mn0 O8 1.900701 1_555
Mn0 O18 1.918827 1_555
Mn0 O19 1.918827 1_545
Mn1 O2 1.894001 1_655
Mn1 O3 1.894001 1_645
Mn1 O9 1.900701 1_545
Mn1 O12 1.900701 1_555
Mn1 O18 1.918827 1_555
Mn1 O19 1.918827 1_545
Mn2 O1 1.894001 1_654
Mn2 O0 1.894001 1_655
Mn2 O14 1.900701 1_555
Mn2 O11 1.900701 1_554
Mn2 O16 1.918827 1_555
Mn2 O17 1.918827 1_554
Mn3 O1 1.894001 1_554
Mn3 O0 1.894001 1_555
Mn3 O13 1.900701 1_555
Mn3 O15 1.900701 1_554
Mn3 O16 1.918827 1_555
Mn3 O17 1.918827 1_554
Ga0 O0 1.897048 1_555
Ga0 O12 1.937202 1_455
Ga0 O8 1.937202 1_555
Ga0 O4 1.958851 1_555
Ga0 O5 1.958851 1_455
Ga1 O1 1.897048 1_555
Ga1 O9 1.937202 1_455
Ga1 O10 1.937202 1_555
Ga1 O4 1.958851 1_566
Ga1 O5 1.958851 1_466
Ga2 O2 1.897048 1_555
Ga2 O11 1.937202 1_455
Ga2 O15 1.937202 1_555
Ga2 O7 1.958851 1_555
Ga2 O6 1.958851 1_455
Ga3 O3 1.897048 1_555
Ga3 O14 1.937202 1_455
Ga3 O13 1.937202 1_555
Ga3 O7 1.958851 1_555
Ga3 O6 1.958851 1_455
Bi0 O8 2.374974 1_555
Bi0 O12 2.374974 1_555
Bi0 O18 2.398134 1_555
Bi0 O6 2.400496 1_555
Bi0 O7 2.400496 1_555
Bi0 O16 2.418254 1_555
Bi0 O13 2.630984 1_555
Bi0 O14 2.630984 1_555
Bi1 O9 2.374974 1_555
Bi1 O10 2.374974 1_555
Bi1 O19 2.398134 1_555
Bi1 O6 2.400496 1_555
Bi1 O7 2.400496 1_555
Bi1 O17 2.418254 1_555
Bi1 O15 2.630984 1_555
Bi1 O11 2.630984 1_555
Bi2 O11 2.374974 1_555
Bi2 O15 2.374974 1_555
Bi2 O16 2.398134 1_556
Bi2 O5 2.400496 1_556
Bi2 O4 2.400496 1_556
Bi2 O18 2.418254 1_555
Bi2 O10 2.630984 1_545
Bi2 O9 2.630984 1_545
Bi3 O13 2.374974 1_555
Bi3 O14 2.374974 1_555
Bi3 O17 2.398134 1_554
Bi3 O5 2.400496 1_565
Bi3 O4 2.400496 1_565
Bi3 O19 2.418254 1_555
Bi3 O8 2.630984 1_565
Bi3 O12 2.630984 1_565
