# generated using pymatgen
data_ZrPd(SeO3)4
_symmetry_space_group_name_H-M   'P 1'
_cell_length_a   7.95944800
_cell_length_b   8.41927471
_cell_length_c   8.29229108
_cell_angle_alpha   89.07951303
_cell_angle_beta   89.99600941
_cell_angle_gamma   90.00129120
_symmetry_Int_Tables_number   1
_chemical_formula_structural   ZrPd(SeO3)4
_chemical_formula_sum   'Zr2 Pd2 Se8 O24'
_cell_volume   555.61775912
_cell_formula_units_Z   2
loop_
 _symmetry_equiv_pos_site_id
 _symmetry_equiv_pos_as_xyz
  1  'x, y, z'
loop_
 _atom_site_type_symbol
 _atom_site_label
 _atom_site_symmetry_multiplicity
 _atom_site_fract_x
 _atom_site_fract_y
 _atom_site_fract_z
 _atom_site_occupancy
  Zr  Zr0  1  0.00000000  0.00000000  0.50000000  1
  Zr  Zr1  1  0.50000000  0.00000000  0.00000000  1
  Pd  Pd0  1  0.00000000  0.50000000  0.00000000  1
  Pd  Pd1  1  0.50000000  0.50000000  0.50000000  1
  Se  Se0  1  0.30907980  0.64733757  0.19079540  1
  Se  Se1  1  0.80913389  0.35261810  0.30919464  1
  Se  Se2  1  0.65965363  0.79933731  0.66076540  1
  Se  Se3  1  0.15977667  0.20068504  0.83921855  1
  Se  Se4  1  0.69092020  0.35266243  0.80920460  1
  Se  Se5  1  0.19086611  0.64738190  0.69080536  1
  Se  Se6  1  0.34034637  0.20066269  0.33923460  1
  Se  Se7  1  0.84022333  0.79931496  0.16078145  1
  O  O0  1  0.24702375  0.52272872  0.03661666  1
  O  O1  1  0.74700801  0.47726994  0.46331980  1
  O  O2  1  0.75076539  0.94600915  0.54822082  1
  O  O3  1  0.25079364  0.05408745  0.95187460  1
  O  O4  1  0.52315395  0.90817554  0.76984283  1
  O  O5  1  0.46401217  0.51833567  0.26231246  1
  O  O6  1  0.96405140  0.48164866  0.23767364  1
  O  O7  1  0.02336560  0.09176563  0.73012717  1
  O  O8  1  0.93306016  0.22598380  0.41561149  1
  O  O9  1  0.51916807  0.73433960  0.51539205  1
  O  O10  1  0.43294814  0.77405728  0.08444640  1
  O  O11  1  0.01916003  0.26567764  0.98449163  1
  O  O12  1  0.75297625  0.47727128  0.96338334  1
  O  O13  1  0.25299199  0.52273006  0.53668020  1
  O  O14  1  0.24923461  0.05399085  0.45177918  1
  O  O15  1  0.74920636  0.94591255  0.04812540  1
  O  O16  1  0.47684605  0.09182446  0.23015717  1
  O  O17  1  0.53598783  0.48166433  0.73768754  1
  O  O18  1  0.03594860  0.51835134  0.76232636  1
  O  O19  1  0.97663440  0.90823437  0.26987283  1
  O  O20  1  0.06693984  0.77401620  0.58438851  1
  O  O21  1  0.48083193  0.26566040  0.48460795  1
  O  O22  1  0.56705186  0.22594272  0.91555360  1
  O  O23  1  0.98083997  0.73432236  0.01550837  1
loop_
_geom_bond_atom_site_label_1
_geom_bond_atom_site_label_2
_geom_bond_distance
_geom_bond_site_symmetry_2
O0 Se0 1.738483 1_555
O0 Pd0 1.999145 1_555
O1 Se1 1.738495 1_555
O1 Pd1 1.999071 1_555
O2 Se2 1.698416 1_555
O2 Zr0 2.072648 1_665
O3 Se3 1.698222 1_555
O3 Zr1 2.072532 1_556
O4 Se2 1.692554 1_555
O4 Zr1 2.078820 1_566
O5 Se0 1.741122 1_555
O5 Pd1 1.995226 1_555
O6 Se1 1.741105 1_555
O6 Pd0 1.995035 1_655
O7 Se3 1.692594 1_555
O7 Zr0 2.078569 1_555
O8 Se1 1.690654 1_555
O8 Zr0 2.085868 1_655
O9 Se2 1.739063 1_555
O9 Pd1 1.985008 1_555
O10 Se0 1.690445 1_555
O10 Zr1 2.085890 1_565
O11 Se3 1.739048 1_555
O11 Pd0 1.984942 1_556
O12 Se4 1.738483 1_555
O12 Pd0 1.999145 1_656
O13 Se5 1.738495 1_555
O13 Pd1 1.999071 1_555
O14 Se6 1.698416 1_555
O14 Zr0 2.072648 1_555
O15 Se7 1.698222 1_555
O15 Zr1 2.072532 1_565
O16 Se6 1.692554 1_555
O16 Zr1 2.078820 1_555
O17 Se4 1.741122 1_555
O17 Pd1 1.995226 1_555
O18 Se5 1.741105 1_555
O18 Pd0 1.995035 1_556
O19 Se7 1.692594 1_555
O19 Zr0 2.078569 1_665
O20 Se5 1.690654 1_555
O20 Zr0 2.085868 1_565
O21 Se6 1.739063 1_555
O21 Pd1 1.985008 1_555
O22 Se4 1.690445 1_555
O22 Zr1 2.085890 1_556
O23 Se7 1.739048 1_555
O23 Pd0 1.984942 1_655
