# generated using pymatgen
data_Lu2TaIr3
_symmetry_space_group_name_H-M   'P 1'
_cell_length_a   5.56894122
_cell_length_b   5.17975007
_cell_length_c   5.56894270
_cell_angle_alpha   57.48173234
_cell_angle_beta   60.00000288
_cell_angle_gamma   57.48172394
_symmetry_Int_Tables_number   1
_chemical_formula_structural   Lu2TaIr3
_chemical_formula_sum   'Lu2 Ta1 Ir3'
_cell_volume   109.07220901
_cell_formula_units_Z   1
loop_
 _symmetry_equiv_pos_site_id
 _symmetry_equiv_pos_as_xyz
  1  'x, y, z'
loop_
 _atom_site_type_symbol
 _atom_site_label
 _atom_site_symmetry_multiplicity
 _atom_site_fract_x
 _atom_site_fract_y
 _atom_site_fract_z
 _atom_site_occupancy
  Lu  Lu0  1  0.25276522  0.24170234  0.25276522  1
  Lu  Lu1  1  0.99723478  0.00829766  0.99723478  1
  Ta  Ta0  1  0.62500000  0.12500000  0.62500000  1
  Ir  Ir0  1  0.62500000  0.62500000  0.12500000  1
  Ir  Ir1  1  0.12500000  0.62500000  0.62500000  1
  Ir  Ir2  1  0.62500000  0.62500000  0.62500000  1
loop_
_geom_bond_atom_site_label_1
_geom_bond_atom_site_label_2
_geom_bond_distance
_geom_bond_site_symmetry_2
Lu0 Lu1 3.113180 1_464
Lu0 Ta0 3.249969 1_455
Lu0 Ta0 3.249969 1_554
Lu0 Ta0 3.249978 1_555
Lu0 Lu1 3.352025 1_454
Lu0 Lu1 3.352044 1_554
Lu0 Lu1 3.352045 1_455
Lu1 Ta0 3.249969 1_655
Lu1 Ta0 3.249969 1_556
Lu1 Ta0 3.249978 1_555
Ir0 Ta0 2.589876 1_564
Ir0 Ta0 2.589876 1_555
Ir0 Ir1 2.784471 1_654
Ir0 Ir1 2.784471 1_555
Ir0 Ir2 2.784471 1_555
Ir0 Ir2 2.784471 1_554
Ir0 Lu0 2.976025 1_565
Ir0 Lu1 2.976025 1_554
Ir0 Lu0 3.190018 1_655
Ir0 Lu1 3.190018 1_464
Ir0 Lu1 3.190028 1_564
Ir0 Lu0 3.190028 1_555
Ir1 Ta0 2.589875 1_555
Ir1 Ta0 2.589875 1_465
Ir1 Ir2 2.784471 1_555
Ir1 Ir2 2.784471 1_455
Ir1 Lu0 2.976025 1_565
Ir1 Lu1 2.976025 1_455
Ir1 Lu0 3.190019 1_556
Ir1 Lu1 3.190019 1_464
Ir1 Lu1 3.190029 1_465
Ir1 Lu0 3.190029 1_555
Ir2 Ta0 2.589875 1_555
Ir2 Ta0 2.589875 1_565
Ir2 Lu1 2.976030 1_555
Ir2 Lu0 2.976030 1_565
Ir2 Lu1 3.190024 1_465
Ir2 Lu0 3.190024 1_655
Ir2 Lu1 3.190024 1_564
Ir2 Lu0 3.190024 1_556
