# generated using pymatgen
data_Sr5Sb3Br
_symmetry_space_group_name_H-M   'P 1'
_cell_length_a   9.66326731
_cell_length_b   9.66326719
_cell_length_c   7.59711520
_cell_angle_alpha   90.00000000
_cell_angle_beta   90.00000000
_cell_angle_gamma   120.00000042
_symmetry_Int_Tables_number   1
_chemical_formula_structural   Sr5Sb3Br
_chemical_formula_sum   'Sr10 Sb6 Br2'
_cell_volume   614.36621203
_cell_formula_units_Z   2
loop_
 _symmetry_equiv_pos_site_id
 _symmetry_equiv_pos_as_xyz
  1  'x, y, z'
loop_
 _atom_site_type_symbol
 _atom_site_label
 _atom_site_symmetry_multiplicity
 _atom_site_fract_x
 _atom_site_fract_y
 _atom_site_fract_z
 _atom_site_occupancy
  Sr  Sr0  1  0.73755048  0.00000000  0.75000000  1
  Sr  Sr1  1  0.00000000  0.26244952  0.25000000  1
  Sr  Sr2  1  0.73755048  0.73755048  0.25000000  1
  Sr  Sr3  1  0.33333300  0.66666700  0.50000000  1
  Sr  Sr4  1  0.33333300  0.66666700  0.00000000  1
  Sr  Sr5  1  0.66666700  0.33333300  0.50000000  1
  Sr  Sr6  1  0.66666700  0.33333300  0.00000000  1
  Sr  Sr7  1  0.26244952  0.00000000  0.25000000  1
  Sr  Sr8  1  0.26244952  0.26244952  0.75000000  1
  Sr  Sr9  1  0.00000000  0.73755048  0.75000000  1
  Sb  Sb0  1  0.39145112  0.00000000  0.75000000  1
  Sb  Sb1  1  0.60854888  0.00000000  0.25000000  1
  Sb  Sb2  1  0.00000000  0.60854888  0.25000000  1
  Sb  Sb3  1  0.60854888  0.60854888  0.75000000  1
  Sb  Sb4  1  0.00000000  0.39145112  0.75000000  1
  Sb  Sb5  1  0.39145112  0.39145112  0.25000000  1
  Br  Br0  1  0.00000000  0.00000000  0.50000000  1
  Br  Br1  1  0.00000000  0.00000000  0.00000000  1
loop_
_geom_bond_atom_site_label_1
_geom_bond_atom_site_label_2
_geom_bond_distance
_geom_bond_site_symmetry_2
Sb0 Sr8 3.338761 1_555
Sb0 Sr9 3.338761 1_545
Sb0 Sr0 3.344451 1_555
Sb0 Sr3 3.533987 1_545
Sb0 Sr4 3.533987 1_546
Sb0 Sr6 3.533990 1_556
Sb0 Sr5 3.533990 1_555
Sb0 Sr7 3.997874 1_556
Sb0 Sr7 3.997874 1_555
Sb1 Sr1 3.338761 1_655
Sb1 Sr2 3.338761 1_545
Sb1 Sr7 3.344451 1_555
Sb1 Sr6 3.533987 1_555
Sb1 Sr5 3.533987 1_555
Sb1 Sr3 3.533990 1_545
Sb1 Sr4 3.533990 1_545
Sb1 Sr0 3.997874 1_555
Sb1 Sr0 3.997874 1_554
Sb2 Sr7 3.338761 1_565
Sb2 Sr2 3.338761 1_455
Sb2 Sr1 3.344451 1_555
Sb2 Sr3 3.533987 1_555
Sb2 Sr4 3.533987 1_555
Sb2 Sr5 3.533990 1_455
Sb2 Sr6 3.533990 1_455
Sb2 Sr9 3.997874 1_555
Sb2 Sr9 3.997874 1_554
Sb3 Sr0 3.338761 1_565
Sb3 Sr9 3.338761 1_655
Sb3 Sr8 3.344451 1_555
Sb3 Sr5 3.533995 1_555
Sb3 Sr6 3.533995 1_556
Sb3 Sr3 3.533995 1_555
Sb3 Sr4 3.533995 1_556
Sb3 Sr2 3.997874 1_556
Sb3 Sr2 3.997874 1_555
Sb4 Sr0 3.338761 1_455
Sb4 Sr8 3.338761 1_555
Sb4 Sr9 3.344451 1_555
Sb4 Sr5 3.533987 1_455
Sb4 Sr6 3.533987 1_456
Sb4 Sr3 3.533990 1_555
Sb4 Sr4 3.533990 1_556
Sb4 Sr1 3.997874 1_555
Sb4 Sr1 3.997874 1_556
Sb5 Sr7 3.338761 1_555
Sb5 Sr1 3.338761 1_555
Sb5 Sr2 3.344451 1_555
Sb5 Sr4 3.533995 1_555
Sb5 Sr3 3.533995 1_555
Sb5 Sr6 3.533995 1_555
Sb5 Sr5 3.533995 1_555
Sb5 Sr8 3.997874 1_555
Sb5 Sr8 3.997874 1_554
Br0 Sr8 3.168464 1_555
Br0 Sr1 3.168464 1_555
Br0 Sr2 3.168464 1_445
Br0 Sr9 3.168464 1_545
Br0 Sr7 3.168464 1_555
Br0 Sr0 3.168464 1_455
Br1 Sr8 3.168464 1_554
Br1 Sr1 3.168464 1_555
Br1 Sr2 3.168464 1_445
Br1 Sr9 3.168464 1_544
Br1 Sr7 3.168464 1_555
Br1 Sr0 3.168464 1_454
