# generated using pymatgen
data_Rb2Li2TiO4
_symmetry_space_group_name_H-M   'P 1'
_cell_length_a   5.68840350
_cell_length_b   5.77631906
_cell_length_c   8.89524387
_cell_angle_alpha   83.11144067
_cell_angle_beta   72.73222787
_cell_angle_gamma   85.01312028
_symmetry_Int_Tables_number   1
_chemical_formula_structural   Rb2Li2TiO4
_chemical_formula_sum   'Rb4 Li4 Ti2 O8'
_cell_volume   276.68538425
_cell_formula_units_Z   2
loop_
 _symmetry_equiv_pos_site_id
 _symmetry_equiv_pos_as_xyz
  1  'x, y, z'
loop_
 _atom_site_type_symbol
 _atom_site_label
 _atom_site_symmetry_multiplicity
 _atom_site_fract_x
 _atom_site_fract_y
 _atom_site_fract_z
 _atom_site_occupancy
  Rb  Rb0  1  0.46369980  0.85161415  0.72500034  1
  Rb  Rb1  1  0.53630020  0.14838585  0.27499966  1
  Rb  Rb2  1  0.78263945  0.72261308  0.02004144  1
  Rb  Rb3  1  0.21736055  0.27738692  0.97995856  1
  Li  Li0  1  0.92214762  0.18240301  0.44126625  1
  Li  Li1  1  0.07785238  0.81759699  0.55873375  1
  Li  Li2  1  0.69166435  0.58808593  0.42326464  1
  Li  Li3  1  0.30833565  0.41191407  0.57673536  1
  Ti  Ti0  1  0.14225833  0.68441133  0.27556332  1
  Ti  Ti1  1  0.85774167  0.31558867  0.72443668  1
  O  O0  1  0.02210826  0.57469755  0.72106600  1
  O  O1  1  0.97789174  0.42530245  0.27893400  1
  O  O2  1  0.89303145  0.86753048  0.39964592  1
  O  O3  1  0.10696855  0.13246952  0.60035408  1
  O  O4  1  0.26672933  0.79770404  0.07303127  1
  O  O5  1  0.73327067  0.20229596  0.92696873  1
  O  O6  1  0.37496149  0.63895038  0.38583744  1
  O  O7  1  0.62503851  0.36104962  0.61416256  1
loop_
_geom_bond_atom_site_label_1
_geom_bond_atom_site_label_2
_geom_bond_distance
_geom_bond_site_symmetry_2
Li0 O1 1.863802 1_555
Li0 O2 1.929467 1_545
Li0 O3 1.980834 1_655
Li0 O7 2.195653 1_555
Li1 O0 1.863802 1_555
Li1 O3 1.929467 1_565
Li1 O2 1.980834 1_455
Li1 O6 2.195653 1_555
Li2 O6 1.919185 1_555
Li2 O7 1.979176 1_555
Li2 O1 1.991436 1_555
Li2 O2 2.014686 1_555
Li3 O7 1.919185 1_555
Li3 O6 1.979176 1_555
Li3 O0 1.991436 1_555
Li3 O3 2.014686 1_555
O0 Ti1 1.825123 1_455
O0 Rb2 2.801842 1_456
O0 Rb0 3.103849 1_555
O0 Rb3 3.118415 1_555
O1 Ti0 1.825123 1_655
O1 Rb3 2.801842 1_654
O1 Rb1 3.103849 1_555
O1 Rb2 3.118415 1_555
O2 Ti0 1.854009 1_655
O2 Rb1 2.882868 1_565
O2 Rb0 3.182421 1_555
O3 Ti1 1.854009 1_455
O3 Rb0 2.882868 1_545
O3 Rb1 3.182421 1_555
O4 Ti0 1.793239 1_555
O4 Rb3 2.809646 1_564
O4 Rb2 2.833605 1_555
O4 Rb0 2.950694 1_554
O4 Rb2 3.003406 1_455
O4 Rb3 3.267886 1_554
O5 Ti1 1.793239 1_555
O5 Rb2 2.809646 1_546
O5 Rb3 2.833605 1_555
O5 Rb1 2.950694 1_556
O5 Rb3 3.003406 1_655
O5 Rb2 3.267886 1_556
O6 Ti0 1.852564 1_555
O6 Rb1 3.086228 1_555
O6 Rb1 3.116086 1_565
O6 Rb2 3.396597 1_555
O7 Ti1 1.852564 1_555
O7 Rb0 3.086228 1_555
O7 Rb0 3.116086 1_545
O7 Rb3 3.396597 1_555
