# generated using pymatgen
data_Zn2Ni3PdO8
_symmetry_space_group_name_H-M   'P 1'
_cell_length_a   5.93087920
_cell_length_b   5.93087926
_cell_length_c   5.93087865
_cell_angle_alpha   58.78353432
_cell_angle_beta   58.78353363
_cell_angle_gamma   58.78352657
_symmetry_Int_Tables_number   1
_chemical_formula_structural   Zn2Ni3PdO8
_chemical_formula_sum   'Zn2 Ni3 Pd1 O8'
_cell_volume   143.41857615
_cell_formula_units_Z   1
loop_
 _symmetry_equiv_pos_site_id
 _symmetry_equiv_pos_as_xyz
  1  'x, y, z'
loop_
 _atom_site_type_symbol
 _atom_site_label
 _atom_site_symmetry_multiplicity
 _atom_site_fract_x
 _atom_site_fract_y
 _atom_site_fract_z
 _atom_site_occupancy
  Zn  Zn0  1  0.49152254  0.49152254  0.49152254  1
  Zn  Zn1  1  0.75847746  0.75847746  0.75847746  1
  Ni  Ni0  1  0.62500000  0.12500000  0.12500000  1
  Ni  Ni1  1  0.12500000  0.62500000  0.12500000  1
  Ni  Ni2  1  0.12500000  0.12500000  0.62500000  1
  Pd  Pd0  1  0.12500000  0.12500000  0.12500000  1
  O  O0  1  0.89398024  0.89398024  0.89398024  1
  O  O1  1  0.90171355  0.36421343  0.36421343  1
  O  O2  1  0.36421343  0.90171355  0.36421343  1
  O  O3  1  0.36421343  0.36421343  0.90171355  1
  O  O4  1  0.88578657  0.34828645  0.88578657  1
  O  O5  1  0.88578657  0.88578657  0.34828645  1
  O  O6  1  0.34828645  0.88578657  0.88578657  1
  O  O7  1  0.35601976  0.35601976  0.35601976  1
loop_
_geom_bond_atom_site_label_1
_geom_bond_atom_site_label_2
_geom_bond_distance
_geom_bond_site_symmetry_2
Ni0 O7 1.927215 1_555
Ni0 O0 1.927215 1_544
Ni0 O5 2.014920 1_545
Ni0 O3 2.014920 1_554
Ni0 O4 2.014920 1_554
Ni0 O2 2.014920 1_545
Ni1 O7 1.927215 1_555
Ni1 O0 1.927215 1_454
Ni1 O5 2.014920 1_455
Ni1 O3 2.014920 1_554
Ni1 O6 2.014920 1_554
Ni1 O1 2.014920 1_455
Ni2 O7 1.927215 1_555
Ni2 O0 1.927215 1_445
Ni2 O4 2.014920 1_455
Ni2 O2 2.014920 1_545
Ni2 O6 2.014920 1_545
Ni2 O1 2.014920 1_455
O0 Zn1 1.986438 1_555
O1 Zn0 1.959999 1_555
O1 Pd0 1.992696 1_655
O2 Zn0 1.959999 1_555
O2 Pd0 1.992696 1_565
O3 Zn0 1.959999 1_555
O3 Pd0 1.992696 1_556
O4 Zn1 1.959999 1_555
O4 Pd0 1.992696 1_656
O5 Zn1 1.959999 1_555
O5 Pd0 1.992696 1_665
O6 Zn1 1.959999 1_555
O6 Pd0 1.992696 1_566
O7 Zn0 1.986438 1_555
