# generated using pymatgen
data_KCr(SeO4)2
_symmetry_space_group_name_H-M   'P 1'
_cell_length_a   5.39960327
_cell_length_b   7.89178634
_cell_length_c   8.25753496
_cell_angle_alpha   84.48741111
_cell_angle_beta   89.93964894
_cell_angle_gamma   89.89271137
_symmetry_Int_Tables_number   1
_chemical_formula_structural   KCr(SeO4)2
_chemical_formula_sum   'K2 Cr2 Se4 O16'
_cell_volume   350.24620829
_cell_formula_units_Z   2
loop_
 _symmetry_equiv_pos_site_id
 _symmetry_equiv_pos_as_xyz
  1  'x, y, z'
loop_
 _atom_site_type_symbol
 _atom_site_label
 _atom_site_symmetry_multiplicity
 _atom_site_fract_x
 _atom_site_fract_y
 _atom_site_fract_z
 _atom_site_occupancy
  K  K0  1  0.00000000  0.50000000  0.00000000  1
  K  K1  1  0.50000000  0.50000000  0.50000000  1
  Cr  Cr0  1  0.50000000  0.00000000  0.50000000  1
  Cr  Cr1  1  0.00000000  0.00000000  0.00000000  1
  Se  Se0  1  0.99956504  0.19842346  0.62479238  1
  Se  Se1  1  0.49956504  0.19842346  0.12479238  1
  Se  Se2  1  0.00043496  0.80157654  0.37520762  1
  Se  Se3  1  0.50043496  0.80157654  0.87520762  1
  O  O0  1  0.24971429  0.18388390  0.50712395  1
  O  O1  1  0.74971429  0.18388390  0.00712395  1
  O  O2  1  0.75028571  0.81611610  0.49287605  1
  O  O3  1  0.25028571  0.81611610  0.99287605  1
  O  O4  1  0.00048960  0.96855892  0.23752871  1
  O  O5  1  0.50048960  0.96855892  0.73752871  1
  O  O6  1  0.99951040  0.03144108  0.76247129  1
  O  O7  1  0.49951040  0.03144108  0.26247129  1
  O  O8  1  0.99654529  0.38613526  0.68881178  1
  O  O9  1  0.49654529  0.38613526  0.18881178  1
  O  O10  1  0.00345471  0.61386474  0.31118822  1
  O  O11  1  0.50345471  0.61386474  0.81118822  1
  O  O12  1  0.75329137  0.18165178  0.50463726  1
  O  O13  1  0.25329137  0.18165178  0.00463726  1
  O  O14  1  0.24670863  0.81834822  0.49536274  1
  O  O15  1  0.74670863  0.81834822  0.99536274  1
loop_
_geom_bond_atom_site_label_1
_geom_bond_atom_site_label_2
_geom_bond_distance
_geom_bond_site_symmetry_2
K0 O10 2.802627 1_555
K0 O8 2.802627 1_454
K0 O1 2.835093 1_455
K0 O3 2.835093 1_554
K0 O15 2.855274 1_454
K0 O13 2.855274 1_555
K0 O9 3.187082 1_555
K0 O11 3.187082 1_454
K0 O11 3.218598 1_554
K0 O9 3.218598 1_455
K1 O11 2.802627 1_555
K1 O9 2.802627 1_555
K1 O2 2.835093 1_555
K1 O0 2.835093 1_555
K1 O14 2.855274 1_555
K1 O12 2.855274 1_555
K1 O8 3.187082 1_555
K1 O10 3.187082 1_555
K1 O10 3.218598 1_655
K1 O8 3.218598 1_455
Cr0 O5 1.953247 1_545
Cr0 O7 1.953247 1_555
Cr0 O2 1.986115 1_545
Cr0 O0 1.986115 1_555
Cr0 O12 1.986223 1_555
Cr0 O14 1.986223 1_545
Cr1 O4 1.953247 1_545
Cr1 O6 1.953247 1_454
Cr1 O1 1.986115 1_455
Cr1 O3 1.986115 1_544
Cr1 O13 1.986223 1_555
Cr1 O15 1.986223 1_444
O0 Se0 1.673247 1_455
O1 Se1 1.673247 1_555
O2 Se2 1.673247 1_655
O3 Se3 1.673247 1_555
O4 Se2 1.655669 1_555
O5 Se3 1.655669 1_555
O6 Se0 1.655669 1_555
O7 Se1 1.655669 1_555
O8 Se0 1.620053 1_555
O9 Se1 1.620053 1_555
O10 Se2 1.620053 1_555
O11 Se3 1.620053 1_555
O12 Se0 1.673002 1_555
O13 Se1 1.673002 1_555
O14 Se2 1.673002 1_555
O15 Se3 1.673002 1_555
