# generated using pymatgen
data_Ti3Nb13(Cu2C)4
_symmetry_space_group_name_H-M   'P 1'
_cell_length_a   8.29078415
_cell_length_b   8.29078516
_cell_length_c   8.30870759
_cell_angle_alpha   60.07133569
_cell_angle_beta   60.07133289
_cell_angle_gamma   59.99999928
_symmetry_Int_Tables_number   1
_chemical_formula_structural   Ti3Nb13(Cu2C)4
_chemical_formula_sum   'Ti3 Nb13 Cu8 C4'
_cell_volume   404.27526291
_cell_formula_units_Z   1
loop_
 _symmetry_equiv_pos_site_id
 _symmetry_equiv_pos_as_xyz
  1  'x, y, z'
loop_
 _atom_site_type_symbol
 _atom_site_label
 _atom_site_symmetry_multiplicity
 _atom_site_fract_x
 _atom_site_fract_y
 _atom_site_fract_z
 _atom_site_occupancy
  Ti  Ti0  1  0.12500000  0.62500000  0.62500000  1
  Ti  Ti1  1  0.62500000  0.12500000  0.62500000  1
  Ti  Ti2  1  0.62500000  0.62500000  0.62500000  1
  Nb  Nb0  1  0.62500000  0.62500000  0.12500000  1
  Nb  Nb1  1  0.81641982  0.81641982  0.18214132  1
  Nb  Nb2  1  0.18216115  0.18216115  0.81789818  1
  Nb  Nb3  1  0.81777951  0.18216115  0.81789818  1
  Nb  Nb4  1  0.18501904  0.81641982  0.18214132  1
  Nb  Nb5  1  0.18216115  0.81777951  0.81789818  1
  Nb  Nb6  1  0.81641982  0.18501904  0.18214132  1
  Nb  Nb7  1  0.43358018  0.43358018  0.06785868  1
  Nb  Nb8  1  0.06783885  0.06783885  0.43210182  1
  Nb  Nb9  1  0.43222049  0.06783885  0.43210182  1
  Nb  Nb10  1  0.06498096  0.43358018  0.06785868  1
  Nb  Nb11  1  0.06783885  0.43222049  0.43210182  1
  Nb  Nb12  1  0.43358018  0.06498096  0.06785868  1
  Cu  Cu0  1  0.73984715  0.41687120  0.42640945  1
  Cu  Cu1  1  0.41687120  0.73984715  0.42640945  1
  Cu  Cu2  1  0.41943554  0.41943554  0.74169439  1
  Cu  Cu3  1  0.41687120  0.41687120  0.42640945  1
  Cu  Cu4  1  0.51015285  0.83312880  0.82359055  1
  Cu  Cu5  1  0.83312880  0.51015285  0.82359055  1
  Cu  Cu6  1  0.83056446  0.83056446  0.50830561  1
  Cu  Cu7  1  0.83312880  0.83312880  0.82359055  1
  C  C0  1  0.62500000  0.12500000  0.12500000  1
  C  C1  1  0.12500000  0.62500000  0.12500000  1
  C  C2  1  0.12500000  0.12500000  0.62500000  1
  C  C3  1  0.12500000  0.12500000  0.12500000  1
loop_
_geom_bond_atom_site_label_1
_geom_bond_atom_site_label_2
_geom_bond_distance
_geom_bond_site_symmetry_2
Cu0 Ti1 2.497409 1_555
Cu0 Ti2 2.497415 1_555
Cu0 Nb0 2.565182 1_555
Cu0 Cu2 2.640988 1_555
Cu0 Cu3 2.677724 1_555
Cu0 Cu1 2.677724 1_555
Cu0 Nb8 2.809527 1_655
Cu0 Nb11 2.809531 1_655
Cu0 Nb10 2.847627 1_655
Cu0 Nb3 3.050973 1_555
Cu0 Nb6 3.099027 1_555
Cu0 Nb1 3.099034 1_555
Cu1 Ti0 2.497408 1_555
Cu1 Ti2 2.497415 1_555
Cu1 Nb0 2.565182 1_555
Cu1 Cu2 2.640988 1_555
Cu1 Cu3 2.677724 1_555
Cu1 Nb8 2.809527 1_565
Cu1 Nb9 2.809531 1_565
Cu1 Nb12 2.847627 1_565
Cu1 Nb5 3.050973 1_555
Cu1 Nb4 3.099027 1_555
Cu1 Nb1 3.099034 1_555
Cu2 Ti2 2.521139 1_555
Cu2 Ti0 2.521146 1_555
Cu2 Ti1 2.521146 1_555
Cu2 Cu3 2.640996 1_555
Cu2 Nb7 2.831892 1_556
Cu2 Nb10 2.831896 1_556
Cu2 Nb12 2.831897 1_556
Cu2 Nb3 3.086205 1_555
Cu2 Nb5 3.086205 1_555
Cu2 Nb2 3.086212 1_555
Cu3 Ti0 2.497413 1_555
Cu3 Ti1 2.497413 1_555
Cu3 Nb0 2.565187 1_555
Cu3 Nb11 2.809523 1_555
Cu3 Nb9 2.809523 1_555
Cu3 Nb7 2.847624 1_555
Cu3 Nb2 3.050970 1_555
Cu3 Nb6 3.099030 1_555
Cu3 Nb4 3.099030 1_555
Cu4 Ti1 2.497409 1_565
Cu4 Ti2 2.497415 1_555
Cu4 Nb0 2.565182 1_556
Cu4 Cu6 2.640988 1_555
Cu4 Cu7 2.677724 1_555
Cu4 Cu5 2.677724 1_555
Cu4 Nb2 2.809527 1_565
Cu4 Nb5 2.809531 1_555
Cu4 Nb4 2.847627 1_556
Cu4 Nb9 3.050973 1_565
Cu4 Nb12 3.099027 1_566
Cu4 Nb7 3.099034 1_556
Cu5 Ti0 2.497408 1_655
Cu5 Ti2 2.497415 1_555
Cu5 Nb0 2.565182 1_556
Cu5 Cu6 2.640988 1_555
Cu5 Cu7 2.677724 1_555
Cu5 Nb2 2.809527 1_655
Cu5 Nb3 2.809531 1_555
Cu5 Nb6 2.847627 1_556
Cu5 Nb11 3.050973 1_655
Cu5 Nb10 3.099027 1_656
Cu5 Nb7 3.099034 1_556
Cu6 Ti2 2.521139 1_555
Cu6 Ti0 2.521146 1_655
Cu6 Ti1 2.521146 1_565
Cu6 Cu7 2.640996 1_555
Cu6 Nb1 2.831892 1_555
Cu6 Nb4 2.831896 1_655
Cu6 Nb6 2.831897 1_565
Cu6 Nb9 3.086205 1_565
Cu6 Nb11 3.086205 1_655
Cu6 Nb8 3.086212 1_665
Cu7 Ti0 2.497413 1_655
Cu7 Ti1 2.497413 1_565
Cu7 Nb0 2.565187 1_556
Cu7 Nb5 2.809523 1_655
Cu7 Nb3 2.809523 1_565
Cu7 Nb1 2.847624 1_556
Cu7 Nb8 3.050970 1_665
Cu7 Nb12 3.099030 1_566
Cu7 Nb10 3.099030 1_656
C0 Nb6 2.183791 1_555
C0 Nb12 2.183791 1_555
C0 Nb7 2.183791 1_555
C0 Nb1 2.183791 1_545
C0 Nb9 2.184324 1_555
C0 Nb3 2.184324 1_554
C1 Nb7 2.183791 1_555
C1 Nb1 2.183791 1_455
C1 Nb4 2.183791 1_555
C1 Nb10 2.183791 1_555
C1 Nb11 2.184324 1_555
C1 Nb5 2.184324 1_554
C2 Nb9 2.181367 1_555
C2 Nb3 2.181367 1_455
C2 Nb2 2.181367 1_555
C2 Nb8 2.181367 1_555
C2 Nb11 2.181367 1_555
C2 Nb5 2.181367 1_545
C3 Nb12 2.183791 1_555
C3 Nb6 2.183791 1_455
C3 Nb10 2.183792 1_555
C3 Nb4 2.183792 1_545
C3 Nb8 2.184324 1_555
C3 Nb2 2.184324 1_554
