# generated using pymatgen
data_ScZn2Rh3O8
_symmetry_space_group_name_H-M   'P 1'
_cell_length_a   6.15021808
_cell_length_b   6.15021763
_cell_length_c   5.95031288
_cell_angle_alpha   58.88229996
_cell_angle_beta   58.88230919
_cell_angle_gamma   60.00000814
_symmetry_Int_Tables_number   1
_chemical_formula_structural   ScZn2Rh3O8
_chemical_formula_sum   'Sc1 Zn2 Rh3 O8'
_cell_volume   156.40781858
_cell_formula_units_Z   1
loop_
 _symmetry_equiv_pos_site_id
 _symmetry_equiv_pos_as_xyz
  1  'x, y, z'
loop_
 _atom_site_type_symbol
 _atom_site_label
 _atom_site_symmetry_multiplicity
 _atom_site_fract_x
 _atom_site_fract_y
 _atom_site_fract_z
 _atom_site_occupancy
  Sc  Sc0  1  0.12500000  0.12500000  0.62500000  1
  Zn  Zn0  1  0.50706682  0.50706682  0.47879855  1
  Zn  Zn1  1  0.74293318  0.74293318  0.77120145  1
  Rh  Rh0  1  0.62500000  0.12500000  0.12500000  1
  Rh  Rh1  1  0.12500000  0.12500000  0.12500000  1
  Rh  Rh2  1  0.12500000  0.62500000  0.12500000  1
  O  O0  1  0.37103029  0.37103029  0.35932350  1
  O  O1  1  0.35138608  0.87896971  0.89067650  1
  O  O2  1  0.88515245  0.88515245  0.34454266  1
  O  O3  1  0.87896971  0.35138608  0.89067650  1
  O  O4  1  0.36484755  0.36484755  0.90545734  1
  O  O5  1  0.37103029  0.89861392  0.35932350  1
  O  O6  1  0.87896971  0.87896971  0.89067650  1
  O  O7  1  0.89861392  0.37103029  0.35932350  1
loop_
_geom_bond_atom_site_label_1
_geom_bond_atom_site_label_2
_geom_bond_distance
_geom_bond_site_symmetry_2
O0 Zn0 1.958293 1_555
O0 Rh2 2.059019 1_555
O0 Rh0 2.059019 1_555
O0 Sc0 2.103104 1_555
O1 Zn1 1.958289 1_555
O1 Rh1 2.059019 1_566
O1 Rh2 2.059028 1_556
O1 Sc0 2.103112 1_565
O2 Zn1 2.037171 1_555
O2 Rh0 2.061779 1_565
O2 Rh1 2.061779 1_665
O2 Rh2 2.061779 1_655
O3 Zn1 1.958288 1_555
O3 Rh1 2.059019 1_656
O3 Rh0 2.059028 1_556
O3 Sc0 2.103112 1_655
O4 Zn0 2.037171 1_555
O4 Rh0 2.061779 1_556
O4 Rh1 2.061779 1_556
O4 Rh2 2.061779 1_556
O5 Zn0 1.958288 1_555
O5 Rh1 2.059019 1_565
O5 Rh0 2.059028 1_565
O5 Sc0 2.103112 1_565
O6 Zn1 1.958293 1_555
O6 Rh2 2.059019 1_656
O6 Rh0 2.059019 1_566
O6 Sc0 2.103104 1_665
O7 Zn0 1.958289 1_555
O7 Rh1 2.059019 1_655
O7 Rh2 2.059028 1_655
O7 Sc0 2.103112 1_655
