# generated using pymatgen
data_K(SnAu2)2
_symmetry_space_group_name_H-M   'P 1'
_cell_length_a   7.66630537
_cell_length_b   7.66630537
_cell_length_c   7.66630537
_cell_angle_alpha   107.61067642
_cell_angle_beta   107.61067642
_cell_angle_gamma   113.26004906
_symmetry_Int_Tables_number   1
_chemical_formula_structural   K(SnAu2)2
_chemical_formula_sum   'K2 Sn4 Au8'
_cell_volume   345.70030222
_cell_formula_units_Z   2
loop_
 _symmetry_equiv_pos_site_id
 _symmetry_equiv_pos_as_xyz
  1  'x, y, z'
loop_
 _atom_site_type_symbol
 _atom_site_label
 _atom_site_symmetry_multiplicity
 _atom_site_fract_x
 _atom_site_fract_y
 _atom_site_fract_z
 _atom_site_occupancy
  K  K0  1  0.00000000  0.50000000  0.50000000  1
  K  K1  1  0.50000000  0.00000000  0.50000000  1
  Sn  Sn0  1  0.60759700  0.60759700  0.71519400  1
  Sn  Sn1  1  0.10759700  0.39240300  0.00000000  1
  Sn  Sn2  1  0.89240300  0.89240300  0.28480600  1
  Sn  Sn3  1  0.39240300  0.10759700  0.00000000  1
  Au  Au0  1  0.56176900  0.57132600  0.30192100  1
  Au  Au1  1  0.26940500  0.25984800  0.69807900  1
  Au  Au2  1  0.74015200  0.43823100  0.00955700  1
  Au  Au3  1  0.42867400  0.73059500  0.99044300  1
  Au  Au4  1  0.76940500  0.07132600  0.00955700  1
  Au  Au5  1  0.92867400  0.93823100  0.69807900  1
  Au  Au6  1  0.24015200  0.23059500  0.30192100  1
  Au  Au7  1  0.06176900  0.75984800  0.99044300  1
loop_
_geom_bond_atom_site_label_1
_geom_bond_atom_site_label_2
_geom_bond_distance
_geom_bond_site_symmetry_2
K0 K1 4.216799 1_565
K0 K1 4.216799 1_455
Au0 Au6 2.795668 1_555
Au0 Sn2 2.823096 1_555
Au0 Au5 2.908675 1_555
Au0 Sn1 2.965184 1_555
Au0 Sn0 2.992483 1_555
Au0 Sn3 3.039508 1_555
Au0 Au2 3.083484 1_555
Au0 Au3 3.083484 1_554
Au0 K1 3.460463 1_565
Au0 K0 3.571876 1_655
Au1 Au5 2.795668 1_445
Au1 Sn0 2.823096 1_555
Au1 Au6 2.908675 1_555
Au1 Sn3 2.965184 1_556
Au1 Sn2 2.992483 1_445
Au1 Sn1 3.039508 1_556
Au1 Au2 3.083484 1_556
Au1 Au3 3.083484 1_555
Au1 K1 3.460463 1_555
Au1 K0 3.571876 1_555
Au2 Au7 2.795668 1_654
Au2 Sn3 2.823096 1_555
Au2 Au4 2.908675 1_555
Au2 Sn2 2.965184 1_555
Au2 Sn1 2.992483 1_655
Au2 Sn0 3.039508 1_554
Au2 K0 3.460463 1_655
Au2 K1 3.571876 1_554
Au3 Au4 2.795668 1_566
Au3 Sn1 2.823096 1_556
Au3 Au7 2.908675 1_555
Au3 Sn0 2.965184 1_555
Au3 Sn3 2.992483 1_566
Au3 Sn2 3.039508 1_556
Au3 K0 3.460463 1_555
Au3 K1 3.571876 1_566
Au4 Sn1 2.823096 1_655
Au4 Sn2 2.965184 1_545
Au4 Sn3 2.992483 1_555
Au4 Sn0 3.039508 1_544
Au4 Au6 3.083484 1_655
Au4 Au5 3.083484 1_544
Au4 K0 3.460463 1_655
Au4 K1 3.571876 1_554
Au5 Sn0 2.823096 1_555
Au5 Sn1 2.965184 1_666
Au5 Sn2 2.992483 1_555
Au5 Sn3 3.039508 1_666
Au5 Au7 3.083484 1_655
Au5 K1 3.460463 1_565
Au5 K0 3.571876 1_655
Au6 Sn2 2.823096 1_445
Au6 Sn3 2.965184 1_555
Au6 Sn0 2.992483 1_555
Au6 Sn1 3.039508 1_555
Au6 Au7 3.083484 1_544
Au6 K1 3.460463 1_555
Au6 K0 3.571876 1_555
Au7 Sn3 2.823096 1_566
Au7 Sn0 2.965184 1_455
Au7 Sn1 2.992483 1_556
Au7 Sn2 3.039508 1_456
Au7 K0 3.460463 1_555
Au7 K1 3.571876 1_566
