# generated using pymatgen
data_Li2NiPt3O8
_symmetry_space_group_name_H-M   'P 1'
_cell_length_a   6.01365738
_cell_length_b   6.01365748
_cell_length_c   6.01365815
_cell_angle_alpha   61.12740906
_cell_angle_beta   61.12740887
_cell_angle_gamma   61.12739832
_symmetry_Int_Tables_number   1
_chemical_formula_structural   Li2NiPt3O8
_chemical_formula_sum   'Li2 Ni1 Pt3 O8'
_cell_volume   157.68226490
_cell_formula_units_Z   1
loop_
 _symmetry_equiv_pos_site_id
 _symmetry_equiv_pos_as_xyz
  1  'x, y, z'
loop_
 _atom_site_type_symbol
 _atom_site_label
 _atom_site_symmetry_multiplicity
 _atom_site_fract_x
 _atom_site_fract_y
 _atom_site_fract_z
 _atom_site_occupancy
  Li  Li0  1  0.88758104  0.88758104  0.88758104  1
  Li  Li1  1  0.11241896  0.11241896  0.11241896  1
  Ni  Ni0  1  0.50000000  0.50000000  0.50000000  1
  Pt  Pt0  1  0.50000000  0.00000000  0.50000000  1
  Pt  Pt1  1  0.00000000  0.50000000  0.50000000  1
  Pt  Pt2  1  0.50000000  0.50000000  0.00000000  1
  O  O0  1  0.28760110  0.74024205  0.74024205  1
  O  O1  1  0.74024205  0.28760110  0.74024205  1
  O  O2  1  0.26379783  0.26379783  0.26379783  1
  O  O3  1  0.74024205  0.74024205  0.28760110  1
  O  O4  1  0.25975795  0.25975795  0.71239890  1
  O  O5  1  0.73620217  0.73620217  0.73620217  1
  O  O6  1  0.25975795  0.71239890  0.25975795  1
  O  O7  1  0.71239890  0.25975795  0.25975795  1
loop_
_geom_bond_atom_site_label_1
_geom_bond_atom_site_label_2
_geom_bond_distance
_geom_bond_site_symmetry_2
Li0 O0 1.999586 1_655
Li0 O1 1.999586 1_565
Li0 O3 1.999587 1_556
Li0 O5 2.210682 1_555
Li1 O7 1.999586 1_455
Li1 O6 1.999586 1_545
Li1 O4 1.999587 1_554
Li1 O2 2.210682 1_555
Ni0 O1 2.063371 1_555
Ni0 O6 2.063371 1_555
Ni0 O0 2.063371 1_555
Ni0 O7 2.063371 1_555
Ni0 O3 2.063371 1_555
Ni0 O4 2.063371 1_555
O0 Pt2 2.030808 1_556
O0 Pt0 2.030808 1_565
O1 Pt2 2.030808 1_556
O1 Pt1 2.030808 1_655
O2 Pt0 2.036699 1_555
O2 Pt1 2.036699 1_555
O2 Pt2 2.036699 1_555
O3 Pt1 2.030808 1_655
O3 Pt0 2.030808 1_565
O4 Pt1 2.030808 1_555
O4 Pt0 2.030808 1_555
O5 Pt0 2.036699 1_565
O5 Pt1 2.036699 1_655
O5 Pt2 2.036699 1_556
O6 Pt2 2.030808 1_555
O6 Pt1 2.030808 1_555
O7 Pt2 2.030808 1_555
O7 Pt0 2.030808 1_555
