# generated using pymatgen
data_Sr3Ga4NiIr3
_symmetry_space_group_name_H-M   'P 1'
_cell_length_a   6.70540555
_cell_length_b   6.70540579
_cell_length_c   6.70540551
_cell_angle_alpha   109.88586160
_cell_angle_beta   109.88586182
_cell_angle_gamma   109.88586609
_symmetry_Int_Tables_number   1
_chemical_formula_structural   Sr3Ga4NiIr3
_chemical_formula_sum   'Sr3 Ga4 Ni1 Ir3'
_cell_volume   228.45593048
_cell_formula_units_Z   1
loop_
 _symmetry_equiv_pos_site_id
 _symmetry_equiv_pos_as_xyz
  1  'x, y, z'
loop_
 _atom_site_type_symbol
 _atom_site_label
 _atom_site_symmetry_multiplicity
 _atom_site_fract_x
 _atom_site_fract_y
 _atom_site_fract_z
 _atom_site_occupancy
  Sr  Sr0  1  0.00627607  0.50243670  0.50243670  1
  Sr  Sr1  1  0.50243670  0.00627607  0.50243670  1
  Sr  Sr2  1  0.50243670  0.50243670  0.00627607  1
  Ga  Ga0  1  0.60559605  0.60559605  0.60559605  1
  Ga  Ga1  1  0.00436813  0.00436813  0.38530266  1
  Ga  Ga2  1  0.00436813  0.38530266  0.00436813  1
  Ga  Ga3  1  0.38530266  0.00436813  0.00436813  1
  Ni  Ni0  1  0.24373248  0.24373248  0.24373248  1
  Ir  Ir0  1  0.00025813  0.00025813  0.74496583  1
  Ir  Ir1  1  0.00025813  0.74496583  0.00025813  1
  Ir  Ir2  1  0.74496583  0.00025813  0.00025813  1
loop_
_geom_bond_atom_site_label_1
_geom_bond_atom_site_label_2
_geom_bond_distance
_geom_bond_site_symmetry_2
Ga0 Ni0 2.376322 1_555
Ga0 Ir0 2.598212 1_665
Ga0 Ir1 2.598212 1_656
Ga0 Ir2 2.598212 1_566
Ga0 Sr2 3.221576 1_556
Ga0 Sr0 3.221576 1_655
Ga0 Sr1 3.221576 1_565
Ga0 Sr0 3.605423 1_555
Ga0 Sr2 3.605423 1_555
Ga0 Sr1 3.605423 1_555
Ga1 Ir0 2.430570 1_555
Ga1 Ni0 2.524664 1_555
Ga1 Ir2 2.560508 1_455
Ga1 Ir1 2.560508 1_545
Ga1 Sr2 3.125721 1_445
Ga1 Sr1 3.154456 1_555
Ga1 Sr0 3.154456 1_555
Ga1 Sr2 3.624499 1_556
Ga1 Sr1 3.710189 1_455
Ga1 Sr0 3.710189 1_545
Ga2 Ir1 2.430570 1_555
Ga2 Ni0 2.524664 1_555
Ga2 Ir2 2.560508 1_455
Ga2 Ir0 2.560508 1_554
Ga2 Sr1 3.125721 1_454
Ga2 Sr2 3.154456 1_555
Ga2 Sr0 3.154456 1_555
Ga2 Sr1 3.624499 1_565
Ga2 Sr0 3.710189 1_554
Ga2 Sr2 3.710189 1_455
Ga3 Ir2 2.430570 1_555
Ga3 Ni0 2.524664 1_555
Ga3 Ir1 2.560508 1_545
Ga3 Ir0 2.560508 1_554
Ga3 Sr0 3.125721 1_544
Ga3 Sr1 3.154456 1_555
Ga3 Sr2 3.154456 1_555
Ga3 Sr0 3.624499 1_655
Ga3 Sr1 3.710189 1_554
Ga3 Sr2 3.710189 1_545
Ni0 Sr2 3.203844 1_555
Ni0 Sr0 3.203844 1_555
Ni0 Sr1 3.203844 1_555
Ir0 Ni0 2.696992 1_556
Ir0 Sr2 3.163274 1_556
Ir0 Sr1 3.198819 1_455
Ir0 Sr0 3.198819 1_545
Ir1 Ni0 2.696992 1_565
Ir1 Sr1 3.163274 1_565
Ir1 Sr2 3.198819 1_455
Ir1 Sr0 3.198819 1_554
Ir2 Ni0 2.696992 1_655
Ir2 Sr0 3.163275 1_655
Ir2 Sr1 3.198819 1_554
Ir2 Sr2 3.198819 1_545
