# generated using pymatgen
data_Sr4CuAgO6
_symmetry_space_group_name_H-M   'P 1'
_cell_length_a   6.88631493
_cell_length_b   6.88631470
_cell_length_c   10.63749185
_cell_angle_alpha   90.00000000
_cell_angle_beta   90.00000000
_cell_angle_gamma   134.00470506
_symmetry_Int_Tables_number   1
_chemical_formula_structural   Sr4CuAgO6
_chemical_formula_sum   'Sr8 Cu2 Ag2 O12'
_cell_volume   362.83789080
_cell_formula_units_Z   2
loop_
 _symmetry_equiv_pos_site_id
 _symmetry_equiv_pos_as_xyz
  1  'x, y, z'
loop_
 _atom_site_type_symbol
 _atom_site_label
 _atom_site_symmetry_multiplicity
 _atom_site_fract_x
 _atom_site_fract_y
 _atom_site_fract_z
 _atom_site_occupancy
  Sr  Sr0  1  0.21563158  0.92620324  0.75000000  1
  Sr  Sr1  1  0.64794148  0.35205852  0.50000000  1
  Sr  Sr2  1  0.78436842  0.07379676  0.25000000  1
  Sr  Sr3  1  0.92620324  0.21563158  0.75000000  1
  Sr  Sr4  1  0.07379676  0.78436842  0.25000000  1
  Sr  Sr5  1  0.35205852  0.64794148  0.00000000  1
  Sr  Sr6  1  0.35205852  0.64794148  0.50000000  1
  Sr  Sr7  1  0.64794148  0.35205852  0.00000000  1
  Cu  Cu0  1  0.00000000  0.00000000  0.00000000  1
  Cu  Cu1  1  0.00000000  0.00000000  0.50000000  1
  Ag  Ag0  1  0.40078597  0.40078597  0.25000000  1
  Ag  Ag1  1  0.59921403  0.59921403  0.75000000  1
  O  O0  1  0.24438722  0.57417876  0.25000000  1
  O  O1  1  0.15069356  0.84930644  0.50000000  1
  O  O2  1  0.57417876  0.24438722  0.25000000  1
  O  O3  1  0.73458095  0.73458095  0.39400350  1
  O  O4  1  0.15069356  0.84930644  0.00000000  1
  O  O5  1  0.84930644  0.15069356  0.00000000  1
  O  O6  1  0.42582124  0.75561278  0.75000000  1
  O  O7  1  0.75561278  0.42582124  0.75000000  1
  O  O8  1  0.73458095  0.73458095  0.10599650  1
  O  O9  1  0.84930644  0.15069356  0.50000000  1
  O  O10  1  0.26541905  0.26541905  0.60599650  1
  O  O11  1  0.26541905  0.26541905  0.89400350  1
loop_
_geom_bond_atom_site_label_1
_geom_bond_atom_site_label_2
_geom_bond_distance
_geom_bond_site_symmetry_2
Cu0 O11 1.819631 1_554
Cu0 O8 1.819631 1_445
Cu0 O5 1.910492 1_455
Cu0 O4 1.910492 1_545
Cu1 O10 1.819631 1_555
Cu1 O3 1.819631 1_445
Cu1 O9 1.910492 1_455
Cu1 O1 1.910492 1_545
Ag0 O0 2.091047 1_555
Ag0 O2 2.091047 1_555
Ag0 O8 2.360620 1_555
Ag0 O3 2.360620 1_555
Ag1 O7 2.091047 1_555
Ag1 O6 2.091047 1_555
Ag1 O10 2.360620 1_555
Ag1 O11 2.360620 1_555
O0 Sr4 2.416114 1_555
O0 Sr2 2.596535 1_455
O0 Sr6 2.712332 1_555
O0 Sr5 2.712332 1_555
O0 Sr2 2.808655 1_565
O1 Sr6 2.552904 1_555
O1 Sr0 2.687681 1_555
O1 Sr4 2.687681 1_555
O1 Sr1 2.690664 1_565
O1 Sr1 2.690664 1_455
O2 Sr2 2.416114 1_555
O2 Sr4 2.596535 1_545
O2 Sr7 2.712332 1_555
O2 Sr1 2.712332 1_555
O2 Sr4 2.808655 1_655
O3 Sr1 2.526360 1_555
O3 Sr6 2.526360 1_555
O3 Sr2 2.609203 1_565
O3 Sr4 2.609203 1_655
O4 Sr5 2.552904 1_555
O4 Sr0 2.687681 1_554
O4 Sr4 2.687681 1_555
O4 Sr7 2.690664 1_565
O4 Sr7 2.690664 1_455
O5 Sr7 2.552904 1_555
O5 Sr2 2.687681 1_555
O5 Sr3 2.687681 1_554
O5 Sr5 2.690664 1_545
O5 Sr5 2.690664 1_655
O6 Sr0 2.416114 1_555
O6 Sr3 2.596535 1_565
O6 Sr6 2.712332 1_555
O6 Sr5 2.712332 1_556
O6 Sr3 2.808655 1_455
O7 Sr3 2.416114 1_555
O7 Sr0 2.596535 1_655
O7 Sr7 2.712332 1_556
O7 Sr1 2.712332 1_555
O7 Sr0 2.808655 1_545
O8 Sr7 2.526360 1_555
O8 Sr5 2.526360 1_555
O8 Sr2 2.609203 1_565
O8 Sr4 2.609203 1_655
O9 Sr1 2.552904 1_555
O9 Sr2 2.687681 1_555
O9 Sr3 2.687681 1_555
O9 Sr6 2.690664 1_545
O9 Sr6 2.690664 1_655
O10 Sr6 2.526360 1_555
O10 Sr1 2.526360 1_555
O10 Sr0 2.609203 1_545
O10 Sr3 2.609203 1_455
O11 Sr5 2.526360 1_556
O11 Sr7 2.526360 1_556
O11 Sr0 2.609203 1_545
O11 Sr3 2.609203 1_455
