# generated using pymatgen
data_Ca2Zn3Ir
_symmetry_space_group_name_H-M   'P 1'
_cell_length_a   5.39912290
_cell_length_b   5.39912255
_cell_length_c   5.38585425
_cell_angle_alpha   59.91846961
_cell_angle_beta   59.91847380
_cell_angle_gamma   59.99999350
_symmetry_Int_Tables_number   1
_chemical_formula_structural   Ca2Zn3Ir
_chemical_formula_sum   'Ca2 Zn3 Ir1'
_cell_volume   110.87910065
_cell_formula_units_Z   1
loop_
 _symmetry_equiv_pos_site_id
 _symmetry_equiv_pos_as_xyz
  1  'x, y, z'
loop_
 _atom_site_type_symbol
 _atom_site_label
 _atom_site_symmetry_multiplicity
 _atom_site_fract_x
 _atom_site_fract_y
 _atom_site_fract_z
 _atom_site_occupancy
  Ca  Ca0  1  0.25365568  0.25365568  0.23903396  1
  Ca  Ca1  1  0.99634432  0.99634432  0.01096604  1
  Zn  Zn0  1  0.62500000  0.62500000  0.62500000  1
  Zn  Zn1  1  0.12500000  0.62500000  0.62500000  1
  Zn  Zn2  1  0.62500000  0.12500000  0.62500000  1
  Ir  Ir0  1  0.62500000  0.62500000  0.12500000  1
loop_
_geom_bond_atom_site_label_1
_geom_bond_atom_site_label_2
_geom_bond_distance
_geom_bond_site_symmetry_2
Ca0 Zn0 3.114880 1_554
Ca0 Zn1 3.114882 1_554
Ca0 Zn2 3.114883 1_554
Ca0 Ir0 3.157162 1_555
Ca0 Ir0 3.157166 1_545
Ca0 Ir0 3.157167 1_455
Ca0 Zn1 3.187684 1_555
Ca0 Zn2 3.187684 1_555
Ca0 Zn0 3.187686 1_545
Ca0 Zn0 3.187686 1_455
Ca0 Zn1 3.187689 1_545
Ca0 Zn2 3.187689 1_455
Ca0 Ca1 3.274175 1_455
Ca0 Ca1 3.274175 1_545
Ca0 Ca1 3.274184 1_445
Ca0 Ca1 3.390407 1_446
Ca1 Zn0 3.114880 1_555
Ca1 Zn1 3.114882 1_655
Ca1 Zn2 3.114883 1_565
Ca1 Ir0 3.157162 1_555
Ca1 Ir0 3.157166 1_565
Ca1 Ir0 3.157167 1_655
Ca1 Zn1 3.187684 1_654
Ca1 Zn2 3.187684 1_564
Ca1 Zn0 3.187686 1_564
Ca1 Zn0 3.187686 1_654
Ca1 Zn1 3.187689 1_664
Ca1 Zn2 3.187689 1_664
Zn0 Zn2 2.699561 1_555
Zn0 Zn2 2.699561 1_565
Zn0 Zn1 2.699561 1_555
Zn0 Zn1 2.699561 1_655
Zn1 Zn2 2.699561 1_555
Zn1 Zn2 2.699561 1_465
Ir0 Zn2 2.692927 1_564
Ir0 Zn2 2.692927 1_555
Ir0 Zn0 2.692927 1_554
Ir0 Zn0 2.692927 1_555
Ir0 Zn1 2.692927 1_654
Ir0 Zn1 2.692927 1_555
