# generated using pymatgen
data_RbBeAlAs2
_symmetry_space_group_name_H-M   'P 1'
_cell_length_a   7.94904211
_cell_length_b   7.94904227
_cell_length_c   7.94904129
_cell_angle_alpha   151.28226960
_cell_angle_beta   151.28227379
_cell_angle_gamma   41.06235483
_symmetry_Int_Tables_number   1
_chemical_formula_structural   RbBeAlAs2
_chemical_formula_sum   'Rb1 Be1 Al1 As2'
_cell_volume   115.71439062
_cell_formula_units_Z   1
loop_
 _symmetry_equiv_pos_site_id
 _symmetry_equiv_pos_as_xyz
  1  'x, y, z'
loop_
 _atom_site_type_symbol
 _atom_site_label
 _atom_site_symmetry_multiplicity
 _atom_site_fract_x
 _atom_site_fract_y
 _atom_site_fract_z
 _atom_site_occupancy
  Rb  Rb0  1  0.00000000  0.00000000  0.00000000  1
  Be  Be0  1  0.25000000  0.75000000  0.50000000  1
  Al  Al0  1  0.75000000  0.25000000  0.50000000  1
  As  As0  1  0.34631424  0.34631424  0.00000000  1
  As  As1  1  0.65368576  0.65368576  1.00000000  1
loop_
_geom_bond_atom_site_label_1
_geom_bond_atom_site_label_2
_geom_bond_distance
_geom_bond_site_symmetry_2
Al0 As0 2.437685 1_555
Al0 As1 2.437686 1_555
Al0 As0 2.437686 1_656
Al0 As1 2.437686 1_544
As0 Be0 2.437686 1_555
As0 Be0 2.437686 1_544
As0 Rb0 3.606612 1_554
As0 Rb0 3.606612 1_655
As0 Rb0 3.606612 1_565
As0 Rb0 3.606614 1_666
As1 Be0 2.437685 1_555
As1 Be0 2.437686 1_656
As1 Rb0 3.606612 1_667
As1 Rb0 3.606612 1_566
As1 Rb0 3.606612 1_656
As1 Rb0 3.606614 1_555
