# generated using pymatgen
data_Lu3PtI12
_symmetry_space_group_name_H-M   'P 1'
_cell_length_a   7.16180552
_cell_length_b   7.48585042
_cell_length_c   13.07553655
_cell_angle_alpha   90.00000000
_cell_angle_beta   90.00000000
_cell_angle_gamma   89.57292934
_symmetry_Int_Tables_number   1
_chemical_formula_structural   Lu3PtI12
_chemical_formula_sum   'Lu3 Pt1 I12'
_cell_volume   700.98887087
_cell_formula_units_Z   1
loop_
 _symmetry_equiv_pos_site_id
 _symmetry_equiv_pos_as_xyz
  1  'x, y, z'
loop_
 _atom_site_type_symbol
 _atom_site_label
 _atom_site_symmetry_multiplicity
 _atom_site_fract_x
 _atom_site_fract_y
 _atom_site_fract_z
 _atom_site_occupancy
  Lu  Lu0  1  0.25089635  0.24957366  0.50000000  1
  Lu  Lu1  1  0.75085893  0.24911625  0.50000000  1
  Lu  Lu2  1  0.74897120  0.75112769  0.00000000  1
  Pt  Pt0  1  0.24923501  0.75061526  0.00000000  1
  I  I0  1  0.50035728  0.40660914  0.34279756  1
  I  I1  1  0.01283550  0.59602895  0.84974814  1
  I  I2  1  0.01283550  0.59602895  0.15025186  1
  I  I3  1  0.50035728  0.40660914  0.65720244  1
  I  I4  1  0.48524746  0.90556008  0.84951764  1
  I  I5  1  0.00151606  0.09171103  0.34325556  1
  I  I6  1  0.00151606  0.09171103  0.65674444  1
  I  I7  1  0.48524746  0.90556008  0.15048236  1
  I  I8  1  0.50241364  0.93319740  0.50000000  1
  I  I9  1  0.03237625  0.04249175  0.00000000  1
  I  I10  1  0.46659417  0.45883594  0.00000000  1
  I  I11  1  0.99874086  0.56522065  0.50000000  1
loop_
_geom_bond_atom_site_label_1
_geom_bond_atom_site_label_2
_geom_bond_distance
_geom_bond_site_symmetry_2
I0 Lu1 2.966839 1_555
I0 Lu0 2.971569 1_555
I1 Pt0 2.845083 1_556
I1 Lu2 2.957398 1_456
I2 Pt0 2.845083 1_555
I2 Lu2 2.957398 1_455
I3 Lu1 2.966839 1_555
I3 Lu0 2.971569 1_555
I4 Pt0 2.846614 1_556
I4 Lu2 2.956831 1_556
I5 Lu1 2.963106 1_455
I5 Lu0 2.969567 1_555
I6 Lu1 2.963106 1_455
I6 Lu0 2.969567 1_555
I7 Pt0 2.846614 1_555
I7 Lu2 2.956831 1_555
I8 Lu0 2.964829 1_565
I8 Lu1 2.970110 1_565
I9 Pt0 2.671238 1_545
I9 Lu2 2.990464 1_445
I10 Pt0 2.672710 1_555
I10 Lu2 2.990544 1_555
I11 Lu0 2.963250 1_655
I11 Lu1 2.968783 1_555
