# generated using pymatgen
data_Ca6Nb3Al13Os7
_symmetry_space_group_name_H-M   'P 1'
_cell_length_a   9.03407414
_cell_length_b   9.03407519
_cell_length_c   9.03407411
_cell_angle_alpha   59.77698442
_cell_angle_beta   59.77697978
_cell_angle_gamma   59.77698312
_symmetry_Int_Tables_number   1
_chemical_formula_structural   Ca6Nb3Al13Os7
_chemical_formula_sum   'Ca6 Nb3 Al13 Os7'
_cell_volume   518.71810195
_cell_formula_units_Z   1
loop_
 _symmetry_equiv_pos_site_id
 _symmetry_equiv_pos_as_xyz
  1  'x, y, z'
loop_
 _atom_site_type_symbol
 _atom_site_label
 _atom_site_symmetry_multiplicity
 _atom_site_fract_x
 _atom_site_fract_y
 _atom_site_fract_z
 _atom_site_occupancy
  Ca  Ca0  1  0.70909851  0.70909851  0.28717778  1
  Ca  Ca1  1  0.29406267  0.70686275  0.29406267  1
  Ca  Ca2  1  0.70686275  0.29406267  0.29406267  1
  Ca  Ca3  1  0.29406267  0.29406267  0.70686275  1
  Ca  Ca4  1  0.70909851  0.28717778  0.70909851  1
  Ca  Ca5  1  0.28717778  0.70909851  0.70909851  1
  Nb  Nb0  1  0.87938673  0.87938673  0.36007935  1
  Nb  Nb1  1  0.87938673  0.36007935  0.87938673  1
  Nb  Nb2  1  0.36007935  0.87938673  0.87938673  1
  Al  Al0  1  0.88144973  0.88144973  0.88144973  1
  Al  Al1  1  0.12061926  0.12061926  0.63700183  1
  Al  Al2  1  0.12061926  0.63700183  0.12061926  1
  Al  Al3  1  0.63700183  0.12061926  0.12061926  1
  Al  Al4  1  0.11978174  0.11978174  0.11978174  1
  Al  Al5  1  0.67279049  0.67279049  0.98875338  1
  Al  Al6  1  0.67279049  0.98875338  0.67279049  1
  Al  Al7  1  0.98875338  0.67279049  0.67279049  1
  Al  Al8  1  0.66932242  0.66932242  0.66932242  1
  Al  Al9  1  0.32940795  0.32940795  0.01559123  1
  Al  Al10  1  0.32940795  0.01559123  0.32940795  1
  Al  Al11  1  0.01559123  0.32940795  0.32940795  1
  Al  Al12  1  0.32888155  0.32888155  0.32888155  1
  Os  Os0  1  0.00019274  0.00019274  0.00019274  1
  Os  Os1  1  0.99822911  0.99822911  0.49448569  1
  Os  Os2  1  0.50370992  0.99580850  0.50370992  1
  Os  Os3  1  0.99580850  0.50370992  0.50370992  1
  Os  Os4  1  0.50370992  0.50370992  0.99580850  1
  Os  Os5  1  0.99822911  0.49448569  0.99822911  1
  Os  Os6  1  0.49448569  0.99822911  0.99822911  1
loop_
_geom_bond_atom_site_label_1
_geom_bond_atom_site_label_2
_geom_bond_distance
_geom_bond_site_symmetry_2
Ca0 Nb0 3.096724 1_555
Ca0 Os5 3.244738 1_554
Ca0 Os6 3.244738 1_554
Ca0 Os3 3.253735 1_555
Ca0 Os2 3.253735 1_555
Ca1 Nb0 3.102804 1_455
Ca1 Nb2 3.102804 1_554
Ca1 Os1 3.192794 1_455
Ca1 Os6 3.192794 1_554
Ca1 Os4 3.249145 1_554
Ca1 Os3 3.249145 1_455
Ca2 Nb1 3.102804 1_554
Ca2 Nb0 3.102805 1_545
Ca2 Os5 3.192794 1_554
Ca2 Os1 3.192794 1_545
Ca2 Os4 3.249145 1_554
Ca2 Os2 3.249145 1_545
Ca3 Nb1 3.102804 1_455
Ca3 Nb2 3.102805 1_545
Ca3 Os5 3.192794 1_455
Ca3 Os6 3.192794 1_545
Ca3 Os3 3.249145 1_455
Ca3 Os2 3.249145 1_545
Ca4 Nb1 3.096723 1_555
Ca4 Os1 3.244738 1_545
Ca4 Os6 3.244738 1_545
Ca4 Os4 3.253735 1_555
Ca4 Os3 3.253735 1_555
Ca5 Nb2 3.096724 1_555
Ca5 Os5 3.244738 1_455
Ca5 Os1 3.244738 1_455
Ca5 Os4 3.253735 1_555
Ca5 Os2 3.253735 1_555
Nb0 Os0 2.647160 1_665
Nb0 Os1 2.750459 1_555
Nb0 Os2 2.766811 1_555
Nb0 Os3 2.766812 1_555
Nb1 Os0 2.647160 1_656
Nb1 Os5 2.750459 1_555
Nb1 Os4 2.766811 1_555
Nb1 Os3 2.766812 1_555
Nb2 Os0 2.647160 1_566
Nb2 Os6 2.750459 1_555
Nb2 Os2 2.766811 1_555
Nb2 Os4 2.766812 1_555
Al0 Os0 2.632069 1_666
Al0 Os6 2.853363 1_555
Al0 Os1 2.853363 1_555
Al0 Os5 2.853364 1_555
Al0 Ca5 3.038631 1_655
Al0 Ca0 3.038631 1_556
Al0 Ca4 3.038632 1_565
Al1 Os0 2.671524 1_556
Al1 Al10 2.784931 1_555
Al1 Al11 2.784931 1_555
Al1 Al12 2.801230 1_555
Al1 Os2 2.818119 1_545
Al1 Os3 2.818119 1_455
Al1 Os1 2.863529 1_445
Al1 Ca4 3.070326 1_455
Al1 Ca5 3.070326 1_545
Al1 Nb1 3.072882 1_455
Al1 Nb2 3.072882 1_545
Al1 Ca3 3.125947 1_555
Al2 Os0 2.671525 1_565
Al2 Al9 2.784931 1_555
Al2 Os4 2.818119 1_554
Al2 Os3 2.818119 1_455
Al2 Os5 2.863529 1_454
Al2 Ca0 3.070326 1_455
Al2 Ca5 3.070326 1_554
Al2 Nb0 3.072882 1_455
Al2 Nb2 3.072882 1_554
Al2 Ca1 3.125946 1_555
Al3 Os0 2.671524 1_655
Al3 Al9 2.784931 1_555
Al3 Os2 2.818119 1_545
Al3 Os4 2.818119 1_554
Al3 Os6 2.863529 1_544
Al3 Ca4 3.070326 1_554
Al3 Ca0 3.070326 1_545
Al3 Nb0 3.072882 1_545
Al3 Nb1 3.072882 1_554
Al3 Ca2 3.125947 1_555
Al4 Os0 2.650821 1_555
Al4 Os6 2.756825 1_544
Al4 Os1 2.756825 1_445
Al4 Os5 2.756825 1_454
Al4 Al9 2.842573 1_555
Al4 Nb2 3.066142 1_544
Al4 Nb1 3.066142 1_454
Al4 Nb0 3.066143 1_445
Al4 Ca2 3.089219 1_455
Al4 Ca3 3.089219 1_554
Al4 Ca1 3.089219 1_545
Al5 Os5 2.567621 1_555
Al5 Os6 2.567621 1_555
Al5 Os4 2.612163 1_555
Al5 Nb2 2.843580 1_555
Al5 Nb1 2.843580 1_555
Al5 Ca0 3.061434 1_556
Al5 Ca1 3.114899 1_556
Al5 Ca2 3.114900 1_556
Al6 Os6 2.567621 1_555
Al6 Os1 2.567621 1_555
Al6 Os2 2.612163 1_555
Al6 Nb0 2.843580 1_555
Al6 Nb2 2.843580 1_555
Al6 Ca4 3.061434 1_565
Al6 Ca3 3.114899 1_565
Al6 Ca2 3.114900 1_565
Al7 Os5 2.567621 1_555
Al7 Os1 2.567621 1_555
Al7 Os3 2.612163 1_555
Al7 Nb0 2.843580 1_555
Al7 Nb1 2.843580 1_555
Al7 Ca5 3.061434 1_655
Al7 Ca1 3.114899 1_655
Al7 Ca3 3.114900 1_655
Al8 Os3 2.558283 1_555
Al8 Os4 2.558283 1_555
Al8 Os2 2.558283 1_555
Al8 Nb2 2.821072 1_555
Al8 Nb0 2.821072 1_555
Al8 Nb1 2.821073 1_555
Al8 Ca0 3.131925 1_555
Al8 Ca5 3.131925 1_555
Al8 Ca4 3.131925 1_555
Al9 Os4 2.630711 1_554
Al9 Os5 2.635356 1_454
Al9 Os6 2.635356 1_544
Al9 Ca4 3.124511 1_554
Al9 Ca5 3.124511 1_554
Al9 Ca3 3.143036 1_554
Al10 Os2 2.630711 1_545
Al10 Os6 2.635356 1_544
Al10 Os1 2.635356 1_445
Al10 Al3 2.784931 1_555
Al10 Al11 2.825482 1_555
Al10 Al9 2.825482 1_555
Al10 Al12 2.825509 1_555
Al10 Al4 2.842573 1_555
Al10 Ca0 3.124511 1_545
Al10 Ca5 3.124511 1_545
Al10 Ca1 3.143037 1_545
Al11 Os3 2.630711 1_455
Al11 Os5 2.635356 1_454
Al11 Os1 2.635356 1_445
Al11 Al2 2.784931 1_555
Al11 Al9 2.825481 1_555
Al11 Al12 2.825508 1_555
Al11 Al4 2.842573 1_555
Al11 Ca4 3.124511 1_455
Al11 Ca0 3.124511 1_455
Al11 Ca2 3.143036 1_455
Al12 Os3 2.643032 1_455
Al12 Os4 2.643032 1_554
Al12 Os2 2.643032 1_545
Al12 Al3 2.801230 1_555
Al12 Al2 2.801230 1_555
Al12 Al9 2.825508 1_555
Al12 Ca3 3.129704 1_555
Al12 Ca2 3.129704 1_555
Al12 Ca1 3.129704 1_555
