# generated using pymatgen
data_Re6SbP12
_symmetry_space_group_name_H-M   'P 1'
_cell_length_a   9.58797128
_cell_length_b   9.58797174
_cell_length_c   9.58797088
_cell_angle_alpha   111.91631362
_cell_angle_beta   111.91631067
_cell_angle_gamma   111.91631616
_symmetry_Int_Tables_number   1
_chemical_formula_structural   Re6SbP12
_chemical_formula_sum   'Re12 Sb2 P24'
_cell_volume   609.41908195
_cell_formula_units_Z   2
loop_
 _symmetry_equiv_pos_site_id
 _symmetry_equiv_pos_as_xyz
  1  'x, y, z'
loop_
 _atom_site_type_symbol
 _atom_site_label
 _atom_site_symmetry_multiplicity
 _atom_site_fract_x
 _atom_site_fract_y
 _atom_site_fract_z
 _atom_site_occupancy
  Re  Re0  1  0.81932595  0.90846024  0.32725908  1
  Re  Re1  1  0.90846024  0.32725908  0.81932595  1
  Re  Re2  1  0.32725908  0.81932595  0.90846024  1
  Re  Re3  1  0.18067405  0.09153976  0.67274092  1
  Re  Re4  1  0.09153976  0.67274092  0.18067405  1
  Re  Re5  1  0.67274092  0.18067405  0.09153976  1
  Re  Re6  1  0.84288437  0.73427231  0.50004575  1
  Re  Re7  1  0.73427231  0.50004575  0.84288437  1
  Re  Re8  1  0.50004575  0.84288437  0.73427231  1
  Re  Re9  1  0.15711563  0.26572769  0.49995425  1
  Re  Re10  1  0.26572769  0.49995425  0.15711563  1
  Re  Re11  1  0.49995425  0.15711563  0.26572769  1
  Sb  Sb0  1  0.33990036  0.33990036  0.33990036  1
  Sb  Sb1  1  0.66009964  0.66009964  0.66009964  1
  P  P0  1  0.95966084  0.00181968  0.19556429  1
  P  P1  1  0.00181968  0.19556429  0.95966084  1
  P  P2  1  0.19556429  0.95966084  0.00181968  1
  P  P3  1  0.04033916  0.99818032  0.80443571  1
  P  P4  1  0.99818032  0.80443571  0.04033916  1
  P  P5  1  0.80443571  0.04033916  0.99818032  1
  P  P6  1  0.38018641  0.01199584  0.80108205  1
  P  P7  1  0.01199584  0.80108205  0.38018641  1
  P  P8  1  0.80108205  0.38018641  0.01199584  1
  P  P9  1  0.61981359  0.98800416  0.19891795  1
  P  P10  1  0.98800416  0.19891795  0.61981359  1
  P  P11  1  0.19891795  0.61981359  0.98800416  1
  P  P12  1  0.40094686  0.22759258  0.61544803  1
  P  P13  1  0.22759258  0.61544903  0.40094686  1
  P  P14  1  0.61544903  0.40094686  0.22759258  1
  P  P15  1  0.59905314  0.77240742  0.38455097  1
  P  P16  1  0.77240742  0.38455197  0.59905314  1
  P  P17  1  0.38455097  0.59905314  0.77240742  1
  P  P18  1  0.60138112  0.60943041  0.99798988  1
  P  P19  1  0.60943041  0.99798988  0.60138112  1
  P  P20  1  0.99798988  0.60138112  0.60943041  1
  P  P21  1  0.39861888  0.39056959  0.00201012  1
  P  P22  1  0.39056959  0.00201012  0.39861888  1
  P  P23  1  0.00201012  0.39861888  0.39056959  1
loop_
_geom_bond_atom_site_label_1
_geom_bond_atom_site_label_2
_geom_bond_distance
_geom_bond_site_symmetry_2
Re6 Sb1 2.797154 1_555
Re7 Sb1 2.797154 1_555
Re8 Sb1 2.797154 1_555
Re9 Sb0 2.797154 1_555
Re10 Sb0 2.797154 1_555
Re11 Sb0 2.797154 1_555
Sb0 Sb1 2.677277 1_555
P0 P5 2.182315 1_554
P0 P4 2.182315 1_545
P0 Re9 2.300197 1_655
P0 Re0 2.327877 1_545
P0 Sb0 3.126797 1_655
P1 P5 2.182315 1_455
P1 P3 2.182315 1_545
P1 Re10 2.300197 1_556
P1 Re1 2.327877 1_455
P1 Sb0 3.126797 1_556
P2 P4 2.182315 1_455
P2 P3 2.182315 1_554
P2 Re11 2.300197 1_565
P2 Re2 2.327877 1_554
P2 Sb0 3.126797 1_565
P3 Re6 2.300197 1_455
P3 Re3 2.327877 1_565
P3 Sb1 3.126797 1_455
P4 Re7 2.300197 1_554
P4 Re4 2.327877 1_655
P4 Sb1 3.126797 1_554
P5 Re8 2.300197 1_545
P5 Re5 2.327877 1_556
P5 Sb1 3.126797 1_545
P6 Re8 2.350587 1_545
P6 Re5 2.378898 1_556
P6 Re3 2.405741 1_555
P6 Re2 2.416611 1_545
P7 Re6 2.350587 1_455
P7 Re3 2.378898 1_565
P7 Re4 2.405741 1_555
P7 Re0 2.416611 1_455
P8 Re7 2.350587 1_554
P8 Re4 2.378898 1_655
P8 Re5 2.405741 1_555
P8 Re1 2.416611 1_554
P9 Re11 2.350587 1_565
P9 Re2 2.378898 1_554
P9 Re0 2.405741 1_555
P9 Re5 2.416611 1_565
P10 Re9 2.350587 1_655
P10 Re0 2.378898 1_545
P10 Re1 2.405741 1_555
P10 Re3 2.416611 1_655
P11 Re10 2.350587 1_556
P11 Re1 2.378898 1_455
P11 Re2 2.405741 1_555
P11 Re4 2.416611 1_556
P12 P22 2.310466 1_555
P12 Re3 2.410016 1_555
P12 Re9 2.415213 1_555
P12 Re7 2.471007 1_555
P12 Sb0 3.149887 1_555
P13 P23 2.310471 1_555
P13 Re4 2.410009 1_555
P13 Re10 2.415214 1_555
P13 Re8 2.471007 1_555
P13 Sb0 3.149895 1_555
P14 P21 2.310471 1_555
P14 Re5 2.410009 1_555
P14 Re11 2.415214 1_555
P14 Re6 2.471007 1_555
P14 Sb0 3.149895 1_555
P15 P19 2.310471 1_555
P15 Re0 2.410009 1_555
P15 Re6 2.415214 1_555
P15 Re10 2.471007 1_555
P15 Sb1 3.149895 1_555
P16 P20 2.310466 1_555
P16 Re1 2.410016 1_555
P16 Re7 2.415213 1_555
P16 Re11 2.471007 1_555
P16 Sb1 3.149887 1_555
P17 P18 2.310471 1_555
P17 Re2 2.410009 1_555
P17 Re8 2.415214 1_555
P17 Re9 2.471007 1_555
P17 Sb1 3.149895 1_555
P18 P21 2.292442 1_556
P18 Re7 2.486520 1_555
P18 Re0 2.529718 1_556
P19 P22 2.292442 1_565
P19 Re8 2.486520 1_555
P19 Re1 2.529718 1_565
P20 P23 2.292442 1_655
P20 Re6 2.486520 1_555
P20 Re2 2.529718 1_655
P21 Re10 2.486520 1_555
P21 Re3 2.529718 1_554
P22 Re11 2.486520 1_555
P22 Re4 2.529718 1_545
P23 Re9 2.486520 1_555
P23 Re5 2.529718 1_455
