# generated using pymatgen
data_Ta4Al6CoCu
_symmetry_space_group_name_H-M   'P 1'
_cell_length_a   5.09244753
_cell_length_b   5.09244785
_cell_length_c   7.84560377
_cell_angle_alpha   90.00000000
_cell_angle_beta   90.00000000
_cell_angle_gamma   120.00000426
_symmetry_Int_Tables_number   1
_chemical_formula_structural   Ta4Al6CoCu
_chemical_formula_sum   'Ta4 Al6 Co1 Cu1'
_cell_volume   176.20171768
_cell_formula_units_Z   1
loop_
 _symmetry_equiv_pos_site_id
 _symmetry_equiv_pos_as_xyz
  1  'x, y, z'
loop_
 _atom_site_type_symbol
 _atom_site_label
 _atom_site_symmetry_multiplicity
 _atom_site_fract_x
 _atom_site_fract_y
 _atom_site_fract_z
 _atom_site_occupancy
  Ta  Ta0  1  0.66666600  0.33333300  0.06718604  1
  Ta  Ta1  1  0.66666600  0.33333300  0.43043357  1
  Ta  Ta2  1  0.33333400  0.66666700  0.56956443  1
  Ta  Ta3  1  0.33333400  0.66666700  0.93281396  1
  Al  Al0  1  0.16797902  0.33595903  0.25547611  1
  Al  Al1  1  0.16797902  0.83201998  0.25547611  1
  Al  Al2  1  0.66403997  0.83201998  0.25547611  1
  Al  Al3  1  0.33595903  0.16797802  0.74452389  1
  Al  Al4  1  0.83201898  0.16797802  0.74452389  1
  Al  Al5  1  0.83201998  0.66404097  0.74452389  1
  Co  Co0  1  0.00000000  0.00000000  0.49999900  1
  Cu  Cu0  1  0.00000000  0.00000000  0.00000000  1
loop_
_geom_bond_atom_site_label_1
_geom_bond_atom_site_label_2
_geom_bond_distance
_geom_bond_site_symmetry_2
Ta0 Ta1 2.849896 1_555
Ta0 Ta3 3.123416 1_544
Ta0 Ta3 3.123416 1_554
Ta0 Ta3 3.123424 1_654
Ta1 Ta2 3.136214 1_545
Ta1 Ta2 3.136214 1_555
Ta1 Ta2 3.136222 1_655
Ta2 Ta3 2.849912 1_555
Al0 Co0 2.423972 1_555
Al0 Cu0 2.492537 1_555
Al0 Al2 2.526164 1_555
Al0 Al1 2.526165 1_555
Al0 Al2 2.566283 1_445
Al0 Al1 2.566283 1_545
Al0 Ta2 2.863481 1_555
Al0 Ta1 2.892672 1_455
Al0 Ta1 2.892672 1_555
Al0 Ta3 2.921569 1_554
Al0 Ta0 2.943748 1_455
Al0 Ta0 2.943748 1_555
Al1 Co0 2.423972 1_565
Al1 Cu0 2.492537 1_565
Al1 Al2 2.526164 1_555
Al1 Al2 2.566283 1_455
Al1 Ta2 2.863481 1_555
Al1 Ta1 2.892672 1_455
Al1 Ta1 2.892672 1_565
Al1 Ta3 2.921569 1_554
Al1 Ta0 2.943748 1_455
Al1 Ta0 2.943748 1_565
Al2 Co0 2.423974 1_665
Al2 Cu0 2.492540 1_665
Al2 Ta2 2.863476 1_555
Al2 Ta1 2.892672 1_565
Al2 Ta1 2.892672 1_555
Al2 Ta3 2.921565 1_554
Al2 Ta0 2.943749 1_565
Al2 Ta0 2.943749 1_555
Al3 Co0 2.423984 1_555
Al3 Cu0 2.492537 1_556
Al3 Al4 2.526159 1_555
Al3 Al5 2.526169 1_555
Al3 Al5 2.566278 1_445
Al3 Al4 2.566288 1_455
Al3 Ta1 2.863492 1_555
Al3 Ta2 2.892672 1_545
Al3 Ta2 2.892686 1_555
Al3 Ta0 2.921567 1_556
Al3 Ta3 2.943742 1_545
Al3 Ta3 2.943755 1_555
Al4 Co0 2.423984 1_655
Al4 Cu0 2.492537 1_656
Al4 Al5 2.526172 1_555
Al4 Al5 2.566276 1_545
Al4 Ta1 2.863494 1_555
Al4 Ta2 2.892670 1_545
Al4 Ta2 2.892688 1_655
Al4 Ta0 2.921569 1_556
Al4 Ta3 2.943740 1_545
Al4 Ta3 2.943757 1_655
Al5 Co0 2.423984 1_665
Al5 Cu0 2.492537 1_666
Al5 Ta1 2.863494 1_555
Al5 Ta2 2.892675 1_555
Al5 Ta2 2.892684 1_655
Al5 Ta0 2.921569 1_556
Al5 Ta3 2.943744 1_555
Al5 Ta3 2.943753 1_655
Co0 Ta1 2.990351 1_555
Co0 Ta2 2.990351 1_445
Co0 Ta2 2.990356 1_555
Co0 Ta1 2.990356 1_445
Co0 Ta2 2.990356 1_545
Co0 Ta1 2.990356 1_455
Cu0 Ta3 2.987001 1_444
Cu0 Ta0 2.987001 1_555
Cu0 Ta3 2.987005 1_554
Cu0 Ta0 2.987005 1_445
Cu0 Ta3 2.987005 1_544
Cu0 Ta0 2.987005 1_455
