# generated using pymatgen
data_ReSiP
_symmetry_space_group_name_H-M   'P 1'
_cell_length_a   4.56989307
_cell_length_b   4.56989257
_cell_length_c   7.46406223
_cell_angle_alpha   61.24979939
_cell_angle_beta   61.24980006
_cell_angle_gamma   39.54128564
_symmetry_Int_Tables_number   1
_chemical_formula_structural   ReSiP
_chemical_formula_sum   'Re2 Si2 P2'
_cell_volume   85.29581049
_cell_formula_units_Z   2
loop_
 _symmetry_equiv_pos_site_id
 _symmetry_equiv_pos_as_xyz
  1  'x, y, z'
loop_
 _atom_site_type_symbol
 _atom_site_label
 _atom_site_symmetry_multiplicity
 _atom_site_fract_x
 _atom_site_fract_y
 _atom_site_fract_z
 _atom_site_occupancy
  Re  Re0  1  0.16570822  0.16570822  0.78313767  1
  Re  Re1  1  0.83429178  0.83429178  0.21686233  1
  Si  Si0  1  0.38986861  0.38986861  0.91068123  1
  Si  Si1  1  0.61013139  0.61013139  0.08931877  1
  P  P0  1  0.86627321  0.86627321  0.52249905  1
  P  P1  1  0.13372679  0.13372679  0.47750095  1
loop_
_geom_bond_atom_site_label_1
_geom_bond_atom_site_label_2
_geom_bond_distance
_geom_bond_site_symmetry_2
Re0 Si0 2.549469 1_555
Re0 Si0 2.572102 1_545
Re0 Si0 2.572102 1_455
Re0 Si1 2.593084 1_456
Re0 Si1 2.593084 1_546
Re1 Si1 2.549469 1_555
Re1 Si1 2.572102 1_565
Re1 Si1 2.572102 1_655
Re1 Si0 2.593084 1_654
Re1 Si0 2.593084 1_564
Si0 Si1 2.583960 1_546
Si0 Si1 2.583960 1_456
Si0 Si1 2.819424 1_556
P0 P1 2.148193 1_665
P0 Re0 2.391522 1_655
P0 Re0 2.391522 1_565
P0 Re1 2.433400 1_555
P1 Re1 2.391522 1_455
P1 Re1 2.391522 1_545
P1 Re0 2.433400 1_555
