# generated using pymatgen
data_K3Rb3HgSe4
_symmetry_space_group_name_H-M   'P 1'
_cell_length_a   10.46640874
_cell_length_b   10.46640961
_cell_length_c   8.32489314
_cell_angle_alpha   90.00000000
_cell_angle_beta   90.00000000
_cell_angle_gamma   120.00000029
_symmetry_Int_Tables_number   1
_chemical_formula_structural   K3Rb3HgSe4
_chemical_formula_sum   'K6 Rb6 Hg2 Se8'
_cell_volume   789.77742595
_cell_formula_units_Z   2
loop_
 _symmetry_equiv_pos_site_id
 _symmetry_equiv_pos_as_xyz
  1  'x, y, z'
loop_
 _atom_site_type_symbol
 _atom_site_label
 _atom_site_symmetry_multiplicity
 _atom_site_fract_x
 _atom_site_fract_y
 _atom_site_fract_z
 _atom_site_occupancy
  K  K0  1  0.14888484  0.29776968  0.21000074  1
  K  K1  1  0.14888484  0.85111516  0.21000074  1
  K  K2  1  0.70223032  0.85111516  0.21000074  1
  K  K3  1  0.85111516  0.70223032  0.71000074  1
  K  K4  1  0.85111516  0.14888484  0.71000074  1
  K  K5  1  0.29776968  0.14888484  0.71000074  1
  Rb  Rb0  1  0.52706775  0.05413650  0.37810520  1
  Rb  Rb1  1  0.52706775  0.47293225  0.37810520  1
  Rb  Rb2  1  0.94586350  0.47293225  0.37810520  1
  Rb  Rb3  1  0.47293225  0.94586350  0.87810520  1
  Rb  Rb4  1  0.47293225  0.52706775  0.87810520  1
  Rb  Rb5  1  0.05413650  0.52706775  0.87810520  1
  Hg  Hg0  1  0.33333300  0.66666700  0.50310353  1
  Hg  Hg1  1  0.66666700  0.33333300  0.00310353  1
  Se  Se0  1  0.33333300  0.66666700  0.16919542  1
  Se  Se1  1  0.66666700  0.33333300  0.66919542  1
  Se  Se2  1  0.81198021  0.62395942  0.09443341  1
  Se  Se3  1  0.81198021  0.18801979  0.09443341  1
  Se  Se4  1  0.37604058  0.18801979  0.09443341  1
  Se  Se5  1  0.18801979  0.37604058  0.59443341  1
  Se  Se6  1  0.18801979  0.81198021  0.59443341  1
  Se  Se7  1  0.62395942  0.81198021  0.59443341  1
loop_
_geom_bond_atom_site_label_1
_geom_bond_atom_site_label_2
_geom_bond_distance
_geom_bond_site_symmetry_2
K0 Se3 3.260148 1_455
K0 Se4 3.260158 1_555
K0 Se5 3.278055 1_555
K0 Se0 3.360962 1_555
K1 Se2 3.260150 1_455
K1 Se4 3.260151 1_565
K1 Se6 3.278053 1_555
K1 Se0 3.360953 1_555
K2 Se3 3.260149 1_565
K2 Se2 3.260158 1_555
K2 Se7 3.278055 1_555
K2 Se0 3.360961 1_555
K3 Se6 3.260148 1_655
K3 Se7 3.260158 1_555
K3 Se2 3.278055 1_556
K3 Se1 3.360962 1_555
K4 Se5 3.260150 1_655
K4 Se7 3.260151 1_545
K4 Se3 3.278053 1_556
K4 Se1 3.360953 1_555
K5 Se6 3.260149 1_545
K5 Se5 3.260158 1_555
K5 Se4 3.278055 1_556
K5 Se1 3.360961 1_555
Rb0 Se4 3.500586 1_555
Rb0 Se3 3.500600 1_555
Rb0 Se1 3.503817 1_555
Rb0 Se6 3.642208 1_545
Rb0 Se7 3.642208 1_545
Rb0 Se0 3.919112 1_545
Rb1 Se2 3.500599 1_555
Rb1 Se4 3.500599 1_555
Rb1 Se1 3.503830 1_555
Rb1 Se5 3.642208 1_555
Rb1 Se7 3.642208 1_555
Rb1 Se0 3.919112 1_555
Rb2 Se2 3.500586 1_555
Rb2 Se3 3.500600 1_555
Rb2 Se1 3.503817 1_555
Rb2 Se5 3.642208 1_655
Rb2 Se6 3.642208 1_655
Rb2 Se0 3.919112 1_655
Rb3 Se7 3.500586 1_555
Rb3 Se6 3.500600 1_555
Rb3 Se0 3.503817 1_556
Rb3 Se3 3.642208 1_566
Rb3 Se4 3.642208 1_566
Rb3 Se1 3.919112 1_565
Rb4 Se5 3.500599 1_555
Rb4 Se7 3.500599 1_555
Rb4 Se0 3.503830 1_556
Rb4 Se2 3.642208 1_556
Rb4 Se4 3.642208 1_556
Rb4 Se1 3.919112 1_555
Rb5 Se5 3.500586 1_555
Rb5 Se6 3.500600 1_555
Rb5 Se0 3.503817 1_556
Rb5 Se2 3.642208 1_456
Rb5 Se3 3.642208 1_456
Rb5 Se1 3.919112 1_455
Hg0 Se7 2.741815 1_555
Hg0 Se6 2.741816 1_555
Hg0 Se5 2.741816 1_555
Hg0 Se0 2.779749 1_555
Hg0 Rb2 3.663009 1_455
Hg0 Rb1 3.663009 1_555
Hg0 Rb0 3.663009 1_565
Hg1 Se4 2.741815 1_555
Hg1 Se3 2.741816 1_555
Hg1 Se2 2.741816 1_555
Hg1 Se1 2.779749 1_554
Hg1 Rb5 3.663009 1_654
Hg1 Rb4 3.663009 1_554
Hg1 Rb3 3.663009 1_544
