# generated using pymatgen
data_U12Rh4Se31
_symmetry_space_group_name_H-M   'P 1'
_cell_length_a   11.86009180
_cell_length_b   11.86009180
_cell_length_c   11.86009180
_cell_angle_alpha   109.52942108
_cell_angle_beta   109.52942108
_cell_angle_gamma   109.35488234
_symmetry_Int_Tables_number   1
_chemical_formula_structural   U12Rh4Se31
_chemical_formula_sum   'U12 Rh4 Se31'
_cell_volume   1284.22440496
_cell_formula_units_Z   1
loop_
 _symmetry_equiv_pos_site_id
 _symmetry_equiv_pos_as_xyz
  1  'x, y, z'
loop_
 _atom_site_type_symbol
 _atom_site_label
 _atom_site_symmetry_multiplicity
 _atom_site_fract_x
 _atom_site_fract_y
 _atom_site_fract_z
 _atom_site_occupancy
  U  U0  1  0.70516200  0.00085900  0.29569600  1
  U  U1  1  0.29483800  0.59053400  0.29569600  1
  U  U2  1  0.69950100  0.69950100  0.39900200  1
  U  U3  1  0.40946600  0.70516200  0.70430400  1
  U  U4  1  0.00085900  0.70516200  0.29569600  1
  U  U5  1  0.30049900  0.69950100  0.00000000  1
  U  U6  1  0.59053400  0.29483800  0.29569600  1
  U  U7  1  0.30049900  0.30049900  0.60099800  1
  U  U8  1  0.70516200  0.40946600  0.70430400  1
  U  U9  1  0.99914100  0.29483800  0.70430400  1
  U  U10  1  0.69950100  0.30049900  0.00000000  1
  U  U11  1  0.29483800  0.99914100  0.70430400  1
  Rh  Rh0  1  0.00000000  0.00000000  0.50000000  1
  Rh  Rh1  1  0.50000000  0.00000000  0.00000000  1
  Rh  Rh2  1  0.50000000  0.50000000  0.50000000  1
  Rh  Rh3  1  0.00000000  0.50000000  0.00000000  1
  Se  Se0  1  0.43736600  0.99951800  0.18217000  1
  Se  Se1  1  0.18265200  0.00048200  0.43784800  1
  Se  Se2  1  0.18265200  0.74480500  0.18217000  1
  Se  Se3  1  0.81734800  0.99951800  0.56215200  1
  Se  Se4  1  0.50000000  0.76304200  0.26304200  1
  Se  Se5  1  0.25000000  0.75000000  0.50000000  1
  Se  Se6  1  0.81149500  0.81149500  0.25163900  1
  Se  Se7  1  0.25519500  0.81734800  0.81783000  1
  Se  Se8  1  0.56263400  0.74480500  0.56215200  1
  Se  Se9  1  0.99951800  0.81734800  0.56215200  1
  Se  Se10  1  0.55985600  0.81149500  0.00000000  1
  Se  Se11  1  0.00048200  0.56263400  0.81783000  1
  Se  Se12  1  0.44014400  0.44014400  0.25163900  1
  Se  Se13  1  0.25519500  0.43736600  0.43784800  1
  Se  Se14  1  0.76304200  0.50000000  0.26304200  1
  Se  Se15  1  0.23695800  0.50000000  0.73695800  1
  Se  Se16  1  0.74480500  0.56263400  0.56215200  1
  Se  Se17  1  0.55985600  0.55985600  0.74836100  1
  Se  Se18  1  0.99951800  0.43736600  0.18217000  1
  Se  Se19  1  0.18850500  0.44014400  0.00000000  1
  Se  Se20  1  0.50000000  0.50000000  0.00000000  1
  Se  Se21  1  0.43736600  0.25519500  0.43784800  1
  Se  Se22  1  0.81149500  0.55985600  0.00000000  1
  Se  Se23  1  0.74480500  0.18265200  0.18217000  1
  Se  Se24  1  0.18850500  0.18850500  0.74836100  1
  Se  Se25  1  0.75000000  0.25000000  0.50000000  1
  Se  Se26  1  0.50000000  0.23695800  0.73695800  1
  Se  Se27  1  0.81734800  0.25519500  0.81783000  1
  Se  Se28  1  0.00048200  0.18265200  0.43784800  1
  Se  Se29  1  0.44014400  0.18850500  0.00000000  1
  Se  Se30  1  0.56263400  0.00048200  0.81783000  1
loop_
_geom_bond_atom_site_label_1
_geom_bond_atom_site_label_2
_geom_bond_distance
_geom_bond_site_symmetry_2
Rh0 Se1 2.509647 1_555
Rh0 Se28 2.509647 1_555
Rh0 Se9 2.509647 1_445
Rh0 Se3 2.509647 1_445
Rh0 Se6 2.560126 1_445
Rh0 Se24 2.560126 1_555
Rh1 Se30 2.509647 1_554
Rh1 Se0 2.509647 1_545
Rh1 Se7 2.509654 1_544
Rh1 Se23 2.509654 1_555
Rh1 Se29 2.560126 1_555
Rh1 Se10 2.560126 1_545
Rh2 Se21 2.509658 1_555
Rh2 Se13 2.509658 1_555
Rh2 Se16 2.509658 1_555
Rh2 Se8 2.509658 1_555
Rh2 Se12 2.560126 1_555
Rh2 Se17 2.560126 1_555
Rh3 Se18 2.509647 1_455
Rh3 Se11 2.509647 1_554
Rh3 Se27 2.509654 1_454
Rh3 Se2 2.509654 1_555
Rh3 Se19 2.560126 1_555
Rh3 Se22 2.560126 1_455
Se0 U6 2.893939 1_565
Se0 U5 2.941219 1_555
Se0 U0 2.998956 1_565
Se1 U4 2.893937 1_545
Se1 U7 2.941219 1_555
Se1 U11 2.998968 1_545
Se2 U4 2.893930 1_555
Se2 U5 2.941220 1_555
Se2 U1 2.998973 1_555
Se3 U9 2.893937 1_565
Se3 U2 2.941219 1_555
Se3 U0 2.998968 1_565
Se4 U1 2.848961 1_555
Se4 U0 2.848969 1_565
Se4 U2 2.865307 1_555
Se4 U5 2.865307 1_555
Se5 U4 2.862721 1_555
Se5 U11 2.862721 1_555
Se5 U1 2.862729 1_555
Se5 U3 2.862729 1_555
Se6 U4 2.905295 1_655
Se6 U0 2.905295 1_565
Se6 U2 2.918539 1_555
Se7 U11 2.893930 1_555
Se7 U5 2.941220 1_556
Se7 U3 2.998973 1_555
Se8 U3 2.893941 1_555
Se8 U2 2.941221 1_555
Se8 U1 2.998961 1_555
Se9 U11 2.893937 1_655
Se9 U2 2.941219 1_555
Se9 U4 2.998968 1_655
Se10 U3 2.905285 1_554
Se10 U0 2.905287 1_565
Se10 U5 2.918539 1_555
Se11 U8 2.893939 1_455
Se11 U5 2.941219 1_556
Se11 U9 2.998956 1_455
Se12 U1 2.905285 1_555
Se12 U6 2.905285 1_555
Se12 U2 2.918539 1_555
Se13 U1 2.893941 1_555
Se13 U7 2.941221 1_555
Se13 U3 2.998961 1_555
Se14 U6 2.848961 1_555
Se14 U4 2.848969 1_655
Se14 U10 2.865307 1_555
Se14 U2 2.865307 1_555
Se15 U3 2.848961 1_555
Se15 U9 2.848969 1_455
Se15 U7 2.865307 1_555
Se15 U5 2.865307 1_556
Se16 U8 2.893941 1_555
Se16 U2 2.941221 1_555
Se16 U6 2.998961 1_555
Se17 U8 2.905285 1_555
Se17 U3 2.905285 1_555
Se17 U7 2.918539 1_555
Se18 U1 2.893939 1_655
Se18 U10 2.941219 1_555
Se18 U4 2.998956 1_655
Se19 U1 2.905285 1_555
Se19 U9 2.905287 1_454
Se19 U5 2.918539 1_555
Se20 U7 3.861050 1_554
Se20 U2 3.861050 1_555
Se20 U5 3.861050 1_555
Se20 U10 3.861050 1_555
Se21 U6 2.893941 1_555
Se21 U7 2.941221 1_555
Se21 U8 2.998961 1_555
Se22 U8 2.905285 1_554
Se22 U4 2.905287 1_655
Se22 U10 2.918539 1_555
Se23 U0 2.893930 1_555
Se23 U10 2.941220 1_555
Se23 U6 2.998973 1_555
Se24 U9 2.905295 1_455
Se24 U11 2.905295 1_545
Se24 U7 2.918539 1_555
Se25 U9 2.862721 1_555
Se25 U0 2.862721 1_555
Se25 U6 2.862729 1_555
Se25 U8 2.862729 1_555
Se26 U8 2.848961 1_555
Se26 U11 2.848969 1_545
Se26 U7 2.865307 1_555
Se26 U10 2.865307 1_556
Se27 U9 2.893930 1_555
Se27 U10 2.941220 1_556
Se27 U8 2.998973 1_555
Se28 U0 2.893937 1_455
Se28 U7 2.941219 1_555
Se28 U9 2.998968 1_455
Se29 U6 2.905285 1_555
Se29 U11 2.905287 1_544
Se29 U10 2.918539 1_555
Se30 U3 2.893939 1_545
Se30 U10 2.941219 1_556
Se30 U11 2.998956 1_545
