# generated using pymatgen
data_Ho5Rh3
_symmetry_space_group_name_H-M   'P 1'
_cell_length_a   8.17937932
_cell_length_b   8.17937968
_cell_length_c   6.24441590
_cell_angle_alpha   90.00000000
_cell_angle_beta   90.00000000
_cell_angle_gamma   119.99999434
_symmetry_Int_Tables_number   1
_chemical_formula_structural   Ho5Rh3
_chemical_formula_sum   'Ho10 Rh6'
_cell_volume   361.79552830
_cell_formula_units_Z   2
loop_
 _symmetry_equiv_pos_site_id
 _symmetry_equiv_pos_as_xyz
  1  'x, y, z'
loop_
 _atom_site_type_symbol
 _atom_site_label
 _atom_site_symmetry_multiplicity
 _atom_site_fract_x
 _atom_site_fract_y
 _atom_site_fract_z
 _atom_site_occupancy
  Ho  Ho0  1  0.00000000  0.74617527  0.75000000  1
  Ho  Ho1  1  -0.00000000  0.25382473  0.25000000  1
  Ho  Ho2  1  0.74617527  0.74617527  0.25000000  1
  Ho  Ho3  1  0.74617527  0.00000000  0.75000000  1
  Ho  Ho4  1  0.25382473  0.25382473  0.75000000  1
  Ho  Ho5  1  0.25382473  -0.00000000  0.25000000  1
  Ho  Ho6  1  0.33333300  0.66666700  0.50000000  1
  Ho  Ho7  1  0.66666700  0.33333300  -0.00000000  1
  Ho  Ho8  1  0.66666700  0.33333300  0.50000000  1
  Ho  Ho9  1  0.33333300  0.66666700  -0.00000000  1
  Rh  Rh0  1  0.39558728  0.00000000  0.75000000  1
  Rh  Rh1  1  0.39558728  0.39558728  0.25000000  1
  Rh  Rh2  1  -0.00000000  0.60441272  0.25000000  1
  Rh  Rh3  1  0.00000000  0.39558728  0.75000000  1
  Rh  Rh4  1  0.60441272  0.60441272  0.75000000  1
  Rh  Rh5  1  0.60441272  -0.00000000  0.25000000  1
loop_
_geom_bond_atom_site_label_1
_geom_bond_atom_site_label_2
_geom_bond_distance
_geom_bond_site_symmetry_2
Ho0 Rh4 2.839393 1_455
Ho0 Rh0 2.839393 1_565
Ho0 Rh3 2.867592 1_555
Ho0 Rh2 3.330569 1_556
Ho0 Rh2 3.330569 1_555
Ho1 Rh1 2.839393 1_555
Ho1 Rh5 2.839393 1_455
Ho1 Rh2 2.867592 1_555
Ho1 Rh3 3.330569 1_555
Ho1 Rh3 3.330569 1_554
Ho2 Rh2 2.839393 1_655
Ho2 Rh5 2.839393 1_565
Ho2 Rh1 2.867592 1_555
Ho2 Rh4 3.330569 1_555
Ho2 Rh4 3.330569 1_554
Ho3 Rh4 2.839393 1_545
Ho3 Rh3 2.839393 1_655
Ho3 Rh0 2.867592 1_555
Ho3 Rh5 3.330569 1_555
Ho3 Rh5 3.330569 1_556
Ho4 Rh3 2.839393 1_555
Ho4 Rh0 2.839393 1_555
Ho4 Rh4 2.867592 1_555
Ho4 Rh1 3.330569 1_556
Ho4 Rh1 3.330569 1_555
Ho5 Rh1 2.839393 1_555
Ho5 Rh2 2.839393 1_545
Ho5 Rh5 2.867592 1_555
Ho5 Rh0 3.330569 1_555
Ho5 Rh0 3.330569 1_554
Ho6 Rh2 2.956617 1_555
Ho6 Rh0 2.956617 1_565
Ho6 Rh3 2.956620 1_555
Ho6 Rh5 2.956620 1_565
Ho6 Rh4 2.956624 1_555
Ho6 Rh1 2.956624 1_555
Ho7 Rh3 2.956617 1_654
Ho7 Rh5 2.956617 1_555
Ho7 Rh2 2.956620 1_655
Ho7 Rh0 2.956620 1_554
Ho7 Rh1 2.956624 1_555
Ho7 Rh4 2.956624 1_554
Ho8 Rh3 2.956617 1_655
Ho8 Rh5 2.956617 1_555
Ho8 Rh2 2.956620 1_655
Ho8 Rh0 2.956620 1_555
Ho8 Rh1 2.956624 1_555
Ho8 Rh4 2.956624 1_555
Ho9 Rh2 2.956617 1_555
Ho9 Rh0 2.956617 1_564
Ho9 Rh3 2.956620 1_554
Ho9 Rh5 2.956620 1_565
Ho9 Rh4 2.956624 1_554
Ho9 Rh1 2.956624 1_555
