# generated using pymatgen
data_SrSn6Ir3Ru
_symmetry_space_group_name_H-M   'P 1'
_cell_length_a   6.97809643
_cell_length_b   6.97809630
_cell_length_c   6.92654568
_cell_angle_alpha   119.40370926
_cell_angle_beta   119.40371228
_cell_angle_gamma   91.48243135
_symmetry_Int_Tables_number   1
_chemical_formula_structural   SrSn6Ir3Ru
_chemical_formula_sum   'Sr1 Sn6 Ir3 Ru1'
_cell_volume   239.62914634
_cell_formula_units_Z   1
loop_
 _symmetry_equiv_pos_site_id
 _symmetry_equiv_pos_as_xyz
  1  'x, y, z'
loop_
 _atom_site_type_symbol
 _atom_site_label
 _atom_site_symmetry_multiplicity
 _atom_site_fract_x
 _atom_site_fract_y
 _atom_site_fract_z
 _atom_site_occupancy
  Sr  Sr0  1  0.00302558  0.00302558  0.00298202  1
  Sn  Sn0  1  0.47289589  0.12738160  0.00437558  1
  Sn  Sn1  1  0.12738160  0.47289589  0.00437558  1
  Sn  Sn2  1  0.87322641  0.87322641  0.34583589  1
  Sn  Sn3  1  0.53059482  0.53059482  0.65309958  1
  Sn  Sn4  1  0.99510561  0.50071242  0.50128516  1
  Sn  Sn5  1  0.50071242  0.99510561  0.50128516  1
  Ir  Ir0  1  0.40206675  0.75828258  0.99737362  1
  Ir  Ir1  1  0.75828258  0.40206675  0.99737362  1
  Ir  Ir2  1  0.24716456  0.24716456  0.65371296  1
  Ru  Ru0  1  0.58954379  0.58954379  0.33830184  1
loop_
_geom_bond_atom_site_label_1
_geom_bond_atom_site_label_2
_geom_bond_distance
_geom_bond_site_symmetry_2
Sn0 Sr0 3.364094 1_555
Sn0 Sr0 3.825028 1_655
Sn1 Sr0 3.364094 1_555
Sn1 Sr0 3.825028 1_565
Sn2 Sr0 3.385577 1_665
Sn2 Sr0 3.770987 1_666
Sn3 Sr0 3.370022 1_666
Sn3 Sr0 3.758485 1_555
Sn4 Sr0 3.493739 1_666
Sn4 Sr0 3.521970 1_655
Sn5 Sr0 3.493738 1_666
Sn5 Sr0 3.521969 1_565
Ir0 Sn0 2.582312 1_566
Ir0 Sn4 2.681828 1_455
Ir0 Sn5 2.702896 1_556
Ir0 Sn2 2.729310 1_556
Ir0 Sn3 2.732902 1_555
Ir0 Sn1 2.762410 1_556
Ir0 Ru0 2.907043 1_556
Ir0 Ir2 2.914285 1_555
Ir0 Sr0 3.310447 1_566
Ir1 Sn1 2.582312 1_656
Ir1 Sn5 2.681828 1_545
Ir1 Sn4 2.702896 1_556
Ir1 Sn2 2.729310 1_556
Ir1 Sn3 2.732902 1_555
Ir1 Sn0 2.762410 1_556
Ir1 Ru0 2.907043 1_556
Ir1 Ir2 2.914285 1_555
Ir1 Sr0 3.310447 1_656
Ir2 Sn2 2.623957 1_445
Ir2 Sn0 2.717383 1_556
Ir2 Sn1 2.717383 1_556
Ir2 Sn4 2.740539 1_455
Ir2 Sn5 2.740539 1_545
Ir2 Sn3 2.763610 1_555
Ir2 Sr0 3.300079 1_555
Ru0 Sn3 2.616393 1_555
Ru0 Sn1 2.665351 1_555
Ru0 Sn0 2.665351 1_555
Ru0 Sn4 2.703452 1_555
Ru0 Sn5 2.703452 1_555
Ru0 Sn2 2.726619 1_555
Ru0 Sr0 3.365753 1_666
