# generated using pymatgen
data_Lu12Fe2TcBi2
_symmetry_space_group_name_H-M   'P 1'
_cell_length_a   8.25064768
_cell_length_b   8.25064871
_cell_length_c   8.25064851
_cell_angle_alpha   108.39021809
_cell_angle_beta   108.39021831
_cell_angle_gamma   111.65554507
_symmetry_Int_Tables_number   1
_chemical_formula_structural   Lu12Fe2TcBi2
_chemical_formula_sum   'Lu12 Fe2 Tc1 Bi2'
_cell_volume   431.88360626
_cell_formula_units_Z   1
loop_
 _symmetry_equiv_pos_site_id
 _symmetry_equiv_pos_as_xyz
  1  'x, y, z'
loop_
 _atom_site_type_symbol
 _atom_site_label
 _atom_site_symmetry_multiplicity
 _atom_site_fract_x
 _atom_site_fract_y
 _atom_site_fract_z
 _atom_site_occupancy
  Lu  Lu0  1  0.30970834  0.30970834  0.61941867  1
  Lu  Lu1  1  0.69029166  0.69029166  0.38058133  1
  Lu  Lu2  1  0.69029166  0.30970834  1.00000000  1
  Lu  Lu3  1  0.30970834  0.69029166  0.00000000  1
  Lu  Lu4  1  0.19333401  0.42667170  0.23333769  1
  Lu  Lu5  1  0.80666599  0.57332830  0.76666231  1
  Lu  Lu6  1  0.19333401  0.95999632  0.76666231  1
  Lu  Lu7  1  0.95999632  0.19333401  0.76666231  1
  Lu  Lu8  1  0.80666599  0.04000368  0.23333769  1
  Lu  Lu9  1  0.04000368  0.80666599  0.23333769  1
  Lu  Lu10  1  0.42667170  0.19333401  0.23333769  1
  Lu  Lu11  1  0.57332830  0.80666599  0.76666231  1
  Fe  Fe0  1  0.37845324  0.37845324  1.00000000  1
  Fe  Fe1  1  0.62154676  0.62154676  0.00000000  1
  Tc  Tc0  1  0.00000000  0.00000000  0.00000000  1
  Bi  Bi0  1  0.00000000  0.50000000  0.50000000  1
  Bi  Bi1  1  0.50000000  0.00000000  0.50000000  1
loop_
_geom_bond_atom_site_label_1
_geom_bond_atom_site_label_2
_geom_bond_distance
_geom_bond_site_symmetry_2
Lu4 Tc0 2.878375 1_555
Lu5 Tc0 2.878375 1_666
Lu6 Tc0 2.878374 1_566
Lu7 Tc0 2.878374 1_656
Lu8 Tc0 2.878374 1_655
Lu9 Tc0 2.878374 1_565
Lu10 Tc0 2.878374 1_555
Lu11 Tc0 2.878374 1_666
Fe0 Fe1 2.253109 1_556
Fe0 Lu4 2.831602 1_556
Fe0 Lu10 2.831602 1_556
Fe0 Lu7 2.831602 1_455
Fe0 Lu6 2.831602 1_545
Fe0 Lu0 2.831662 1_555
Fe0 Lu1 2.831670 1_556
Fe0 Lu2 2.831678 1_555
Fe0 Lu3 2.831679 1_556
Fe1 Lu5 2.831602 1_554
Fe1 Lu11 2.831602 1_554
Fe1 Lu9 2.831602 1_655
Fe1 Lu8 2.831602 1_565
Fe1 Lu1 2.831662 1_555
Fe1 Lu0 2.831670 1_554
Fe1 Lu3 2.831678 1_555
Fe1 Lu2 2.831679 1_554
Bi0 Lu5 3.136537 1_455
Bi0 Lu4 3.136537 1_555
Bi0 Lu6 3.136538 1_555
Bi0 Lu8 3.136538 1_455
Bi0 Lu2 3.509093 1_454
Bi0 Lu3 3.509093 1_556
Bi0 Lu0 3.509096 1_555
Bi0 Lu1 3.509096 1_455
Bi0 Lu9 3.834808 1_555
Bi0 Lu7 3.834808 1_455
Bi0 Lu11 3.834808 1_555
Bi0 Lu10 3.834808 1_455
Bi1 Lu10 3.136537 1_555
Bi1 Lu11 3.136537 1_545
Bi1 Lu7 3.136537 1_555
Bi1 Lu9 3.136537 1_545
Bi1 Lu3 3.509094 1_545
Bi1 Lu2 3.509094 1_555
Bi1 Lu0 3.509096 1_555
Bi1 Lu1 3.509096 1_545
Bi1 Lu8 3.834807 1_555
Bi1 Lu6 3.834807 1_545
Bi1 Lu5 3.834808 1_555
Bi1 Lu4 3.834808 1_545
