# generated using pymatgen
data_Sr2Pt(RhO4)2
_symmetry_space_group_name_H-M   'P 1'
_cell_length_a   6.58133535
_cell_length_b   6.58133444
_cell_length_c   5.32656627
_cell_angle_alpha   72.08865975
_cell_angle_beta   72.08866427
_cell_angle_gamma   56.67226918
_symmetry_Int_Tables_number   1
_chemical_formula_structural   Sr2Pt(RhO4)2
_chemical_formula_sum   'Sr2 Pt1 Rh2 O8'
_cell_volume   180.62117031
_cell_formula_units_Z   1
loop_
 _symmetry_equiv_pos_site_id
 _symmetry_equiv_pos_as_xyz
  1  'x, y, z'
loop_
 _atom_site_type_symbol
 _atom_site_label
 _atom_site_symmetry_multiplicity
 _atom_site_fract_x
 _atom_site_fract_y
 _atom_site_fract_z
 _atom_site_occupancy
  Sr  Sr0  1  0.72151686  0.72151686  0.32882740  1
  Sr  Sr1  1  0.27848314  0.27848314  0.67117260  1
  Pt  Pt0  1  0.00000000  0.00000000  0.50000000  1
  Rh  Rh0  1  0.74361384  0.25638616  1.00000000  1
  Rh  Rh1  1  0.25638616  0.74361384  0.00000000  1
  O  O0  1  0.40256784  0.40256784  0.95809352  1
  O  O1  1  0.59743216  0.59743216  0.04190648  1
  O  O2  1  0.90681368  0.90681368  0.90359326  1
  O  O3  1  0.09318632  0.09318632  0.09640674  1
  O  O4  1  0.32033686  0.88040798  0.61216163  1
  O  O5  1  0.88040798  0.32033686  0.61216163  1
  O  O6  1  0.11959202  0.67966314  0.38783837  1
  O  O7  1  0.67966314  0.11959202  0.38783837  1
loop_
_geom_bond_atom_site_label_1
_geom_bond_atom_site_label_2
_geom_bond_distance
_geom_bond_site_symmetry_2
O0 Rh1 1.953603 1_556
O0 Rh0 1.953604 1_555
O0 Sr1 2.436743 1_555
O1 Rh0 1.953603 1_554
O1 Rh1 1.953604 1_555
O1 Sr0 2.436743 1_555
O2 Pt0 2.040869 1_665
O2 Rh0 2.093423 1_565
O2 Rh1 2.093423 1_656
O2 Sr0 2.518121 1_556
O3 Pt0 2.040869 1_555
O3 Rh1 2.093423 1_545
O3 Rh0 2.093423 1_454
O3 Sr1 2.518121 1_554
O4 Rh1 1.998241 1_556
O4 Pt0 2.020700 1_565
O4 Sr0 2.414167 1_555
O4 Sr1 2.588175 1_565
O5 Rh0 1.998241 1_555
O5 Pt0 2.020700 1_655
O5 Sr0 2.414167 1_555
O5 Sr1 2.588175 1_655
O6 Rh1 1.998241 1_555
O6 Pt0 2.020700 1_565
O6 Sr1 2.414167 1_555
O6 Sr0 2.588175 1_455
O7 Rh0 1.998241 1_554
O7 Pt0 2.020700 1_655
O7 Sr1 2.414167 1_555
O7 Sr0 2.588175 1_545
