# generated using pymatgen
data_CsCoP2Os
_symmetry_space_group_name_H-M   'P 1'
_cell_length_a   7.80341086
_cell_length_b   7.80341157
_cell_length_c   7.80341116
_cell_angle_alpha   151.55870452
_cell_angle_beta   151.55871111
_cell_angle_gamma   40.65808805
_symmetry_Int_Tables_number   1
_chemical_formula_structural   CsCoP2Os
_chemical_formula_sum   'Cs1 Co1 P2 Os1'
_cell_volume   107.55747929
_cell_formula_units_Z   1
loop_
 _symmetry_equiv_pos_site_id
 _symmetry_equiv_pos_as_xyz
  1  'x, y, z'
loop_
 _atom_site_type_symbol
 _atom_site_label
 _atom_site_symmetry_multiplicity
 _atom_site_fract_x
 _atom_site_fract_y
 _atom_site_fract_z
 _atom_site_occupancy
  Cs  Cs0  1  0.00000000  0.00000000  0.00000000  1
  Co  Co0  1  0.75000000  0.25000000  0.50000000  1
  P  P0  1  0.33321737  0.33321737  0.00000000  1
  P  P1  1  0.66678263  0.66678263  1.00000000  1
  Os  Os0  1  0.25000000  0.75000000  0.50000000  1
loop_
_geom_bond_atom_site_label_1
_geom_bond_atom_site_label_2
_geom_bond_distance
_geom_bond_site_symmetry_2
Cs0 P1 3.647884 1_544
Cs0 P0 3.647884 1_455
Cs0 P1 3.647884 1_443
Cs0 P0 3.647884 1_556
Cs0 P1 3.647885 1_555
Cs0 P0 3.647885 1_444
Cs0 P1 3.647885 1_454
Cs0 P0 3.647885 1_545
Co0 P0 2.271107 1_656
Co0 P0 2.271107 1_555
Co0 P1 2.271107 1_555
Co0 P1 2.271107 1_544
Co0 Os0 2.710991 1_645
Co0 Os0 2.710991 1_555
Co0 Os0 2.710991 1_544
Co0 Os0 2.710991 1_656
Os0 P1 2.271107 1_454
Os0 P1 2.271107 1_555
Os0 P0 2.271107 1_555
Os0 P0 2.271107 1_566
