# generated using pymatgen
data_ScTa(SiOs)2
_symmetry_space_group_name_H-M   'P 1'
_cell_length_a   7.47869000
_cell_length_b   7.50162650
_cell_length_c   7.47868996
_cell_angle_alpha   127.56540649
_cell_angle_beta   121.90480784
_cell_angle_gamma   81.97427632
_symmetry_Int_Tables_number   1
_chemical_formula_structural   ScTa(SiOs)2
_chemical_formula_sum   'Sc3 Ta3 Si6 Os6'
_cell_volume   271.74042848
_cell_formula_units_Z   3
loop_
 _symmetry_equiv_pos_site_id
 _symmetry_equiv_pos_as_xyz
  1  'x, y, z'
loop_
 _atom_site_type_symbol
 _atom_site_label
 _atom_site_symmetry_multiplicity
 _atom_site_fract_x
 _atom_site_fract_y
 _atom_site_fract_z
 _atom_site_occupancy
  Sc  Sc0  1  0.53112535  0.04895557  0.01783021  1
  Sc  Sc1  1  0.47323307  0.49059156  0.51735748  1
  Sc  Sc2  1  0.94188679  0.48296991  0.04108212  1
  Ta  Ta0  1  0.05267153  0.09676815  0.54409662  1
  Ta  Ta1  1  0.74608290  0.91975334  0.67367045  1
  Ta  Ta2  1  0.25380694  0.91947192  0.16566497  1
  Si  Si0  1  0.72251360  0.47377905  0.25126546  1
  Si  Si1  1  0.28651511  0.55812216  0.77160705  1
  Si  Si2  1  0.32113788  0.82332132  0.48107292  1
  Si  Si3  1  0.67442004  0.16070915  0.50179031  1
  Si  Si4  1  0.84224840  0.82332132  0.00218344  1
  Si  Si5  1  0.15891784  0.16070915  0.98628911  1
  Os  Os0  1  0.47701860  0.24475276  0.72523419  1
  Os  Os1  1  0.01951857  0.24475276  0.26773316  1
  Os  Os2  1  0.08682308  0.75157540  0.59105151  1
  Os  Os3  1  0.91006888  0.49553404  0.65404651  1
  Os  Os4  1  0.66052389  0.75157540  0.16475332  1
  Os  Os5  1  0.34148753  0.49553404  0.08546516  1
loop_
_geom_bond_atom_site_label_1
_geom_bond_atom_site_label_2
_geom_bond_distance
_geom_bond_site_symmetry_2
Sc0 Si0 2.664803 1_555
Sc0 Si2 2.690573 1_544
Sc0 Si4 2.690574 1_545
Sc0 Si3 2.720738 1_555
Sc0 Si5 2.720745 1_554
Sc1 Si5 2.682438 1_554
Sc1 Si3 2.682442 1_555
Sc1 Si1 2.693816 1_555
Sc1 Si2 2.702664 1_555
Sc1 Si4 2.702668 1_556
Sc2 Si3 2.654441 1_554
Sc2 Si5 2.654442 1_654
Sc2 Si4 2.702580 1_555
Sc2 Si2 2.702584 1_655
Sc2 Si0 2.838473 1_555
Si0 Ta1 2.809365 1_555
Si1 Ta2 2.632286 1_556
Si2 Ta2 2.656232 1_555
Si2 Ta0 2.670670 1_565
Si2 Ta1 2.689007 1_555
Si3 Ta1 2.653541 1_545
Si3 Ta2 2.678318 1_545
Si3 Ta0 2.681890 1_655
Si4 Ta2 2.656232 1_655
Si4 Ta0 2.670670 1_665
Si4 Ta1 2.689007 1_554
Si5 Ta1 2.653534 1_445
Si5 Ta2 2.678318 1_546
Si5 Ta0 2.681892 1_555
Os0 Si1 2.503845 1_555
Os0 Si2 2.535354 1_545
Os0 Si3 2.536251 1_555
Os0 Si0 2.608433 1_556
Os0 Ta2 2.748770 1_545
Os0 Ta0 2.782947 1_555
Os0 Ta1 2.906158 1_545
Os0 Sc2 2.960952 1_556
Os0 Sc1 3.041968 1_555
Os0 Sc0 3.150649 1_556
Os1 Si1 2.503848 1_555
Os1 Si4 2.535356 1_445
Os1 Si5 2.536238 1_554
Os1 Si0 2.608434 1_455
Os1 Ta2 2.748770 1_545
Os1 Ta0 2.782954 1_555
Os1 Ta1 2.906153 1_444
Os1 Sc2 2.960951 1_455
Os1 Sc1 3.041961 1_555
Os1 Sc0 3.150651 1_455
Os2 Si1 2.410882 1_555
Os2 Si0 2.456317 1_455
Os2 Si5 2.482593 1_565
Os2 Si2 2.522616 1_555
Os2 Ta0 2.779099 1_565
Os2 Sc2 2.818538 1_455
Os2 Ta1 2.878074 1_455
Os2 Sc0 2.895256 1_566
Os3 Si0 2.462980 1_555
Os3 Si1 2.483724 1_655
Os3 Si4 2.514699 1_556
Os3 Si3 2.517690 1_555
Os3 Ta0 2.792633 1_655
Os3 Sc2 2.835858 1_556
Os3 Sc1 2.859532 1_555
Os3 Ta2 2.900196 1_656
Os4 Si1 2.410884 1_554
Os4 Si0 2.456312 1_555
Os4 Si3 2.482589 1_565
Os4 Si4 2.522622 1_555
Os4 Ta0 2.779099 1_665
Os4 Sc2 2.818536 1_555
Os4 Ta1 2.878067 1_555
Os4 Sc0 2.895262 1_565
Os5 Si0 2.462980 1_555
Os5 Si1 2.483725 1_554
Os5 Si2 2.514699 1_555
Os5 Si5 2.517694 1_554
Os5 Ta0 2.792632 1_554
Os5 Sc2 2.835862 1_455
Os5 Sc1 2.859527 1_555
Os5 Ta2 2.900196 1_555
