# generated using pymatgen
data_Zr5Sc(SnIr)6
_symmetry_space_group_name_H-M   'P 1'
_cell_length_a   7.36947479
_cell_length_b   7.37362459
_cell_length_c   7.34437560
_cell_angle_alpha   90.00000000
_cell_angle_beta   90.00000000
_cell_angle_gamma   119.92649798
_symmetry_Int_Tables_number   1
_chemical_formula_structural   Zr5Sc(SnIr)6
_chemical_formula_sum   'Zr5 Sc1 Sn6 Ir6'
_cell_volume   345.87904943
_cell_formula_units_Z   1
loop_
 _symmetry_equiv_pos_site_id
 _symmetry_equiv_pos_as_xyz
  1  'x, y, z'
loop_
 _atom_site_type_symbol
 _atom_site_label
 _atom_site_symmetry_multiplicity
 _atom_site_fract_x
 _atom_site_fract_y
 _atom_site_fract_z
 _atom_site_occupancy
  Zr  Zr0  1  0.59764492  0.61231058  0.75000000  1
  Zr  Zr1  1  0.61225579  0.59613496  0.25000000  1
  Zr  Zr2  1  0.98412422  0.38813143  0.25000000  1
  Zr  Zr3  1  0.01868533  0.40426340  0.75000000  1
  Zr  Zr4  1  0.38706779  0.98484205  0.75000000  1
  Sc  Sc0  1  0.40156124  0.01251124  0.25000000  1
  Sn  Sn0  1  0.27112885  0.26708713  0.49708793  1
  Sn  Sn1  1  0.27112885  0.26708713  0.00291207  1
  Sn  Sn2  1  0.72681941  0.00070813  0.99828147  1
  Sn  Sn3  1  0.00218614  0.73221680  0.49827546  1
  Sn  Sn4  1  0.72681941  0.00070813  0.50171853  1
  Sn  Sn5  1  0.00218614  0.73221680  0.00172454  1
  Ir  Ir0  1  0.67039738  0.33779045  0.53692132  1
  Ir  Ir1  1  0.67039738  0.33779045  0.96307868  1
  Ir  Ir2  1  0.33225362  0.66301339  0.03052483  1
  Ir  Ir3  1  0.33225362  0.66301339  0.46947517  1
  Ir  Ir4  1  0.00100243  0.00098254  0.75000000  1
  Ir  Ir5  1  0.99208749  0.99918903  0.25000000  1
loop_
_geom_bond_atom_site_label_1
_geom_bond_atom_site_label_2
_geom_bond_distance
_geom_bond_site_symmetry_2
Sc0 Sn2 3.062515 1_554
Sc0 Sn4 3.062515 1_555
Sc0 Sn0 3.088870 1_555
Sc0 Sn1 3.088870 1_555
Sc0 Sn3 3.192087 1_545
Sc0 Sn5 3.192087 1_545
Sn0 Zr1 3.068204 1_555
Sn0 Zr0 3.099756 1_555
Sn0 Zr3 3.132396 1_555
Sn0 Zr4 3.207138 1_545
Sn0 Zr2 3.232166 1_455
Sn1 Zr1 3.068204 1_555
Sn1 Zr0 3.099756 1_554
Sn1 Zr3 3.132396 1_554
Sn1 Zr4 3.207138 1_544
Sn1 Zr2 3.232166 1_455
Sn2 Zr4 3.052120 1_545
Sn2 Zr0 3.116560 1_545
Sn2 Zr2 3.125584 1_556
Sn2 Zr3 3.227983 1_655
Sn2 Zr1 3.242968 1_546
Sn3 Zr2 3.072915 1_455
Sn3 Zr3 3.094154 1_555
Sn3 Zr4 3.108227 1_555
Sn3 Zr1 3.116443 1_455
Sn3 Zr0 3.233808 1_455
Sn4 Zr4 3.052120 1_545
Sn4 Zr0 3.116560 1_545
Sn4 Zr2 3.125584 1_555
Sn4 Zr3 3.227983 1_655
Sn4 Zr1 3.242968 1_545
Sn5 Zr2 3.072915 1_455
Sn5 Zr3 3.094154 1_554
Sn5 Zr4 3.108227 1_554
Sn5 Zr1 3.116443 1_455
Sn5 Zr0 3.233808 1_454
Ir0 Sn3 2.724371 1_655
Ir0 Sn4 2.729234 1_555
Ir0 Sn0 2.735784 1_555
Ir0 Zr0 2.813670 1_555
Ir0 Zr3 2.832302 1_655
Ir0 Zr4 2.856541 1_545
Ir0 Zr1 3.011196 1_555
Ir0 Zr2 3.011209 1_555
Ir0 Sc0 3.062202 1_555
Ir0 Ir1 3.129860 1_555
Ir1 Sn5 2.724371 1_656
Ir1 Sn2 2.729234 1_555
Ir1 Sn1 2.735784 1_556
Ir1 Zr0 2.813670 1_555
Ir1 Zr3 2.832302 1_655
Ir1 Zr4 2.856541 1_545
Ir1 Zr1 3.011196 1_556
Ir1 Zr2 3.011209 1_556
Ir1 Sc0 3.062202 1_556
Ir2 Sn1 2.730358 1_555
Ir2 Sn5 2.731350 1_555
Ir2 Sn2 2.736244 1_564
Ir2 Zr2 2.846044 1_455
Ir2 Zr1 2.848622 1_555
Ir2 Sc0 2.861303 1_565
Ir2 Zr3 2.970822 1_554
Ir2 Zr0 2.989855 1_554
Ir2 Zr4 3.013769 1_554
Ir2 Ir3 3.223816 1_555
Ir3 Sn0 2.730358 1_555
Ir3 Sn3 2.731350 1_555
Ir3 Sn4 2.736244 1_565
Ir3 Zr2 2.846044 1_455
Ir3 Zr1 2.848622 1_555
Ir3 Sc0 2.861303 1_565
Ir3 Zr3 2.970822 1_555
Ir3 Zr0 2.989855 1_555
Ir3 Zr4 3.013769 1_555
Ir4 Sn5 2.713426 1_546
Ir4 Sn3 2.713426 1_545
Ir4 Sn1 2.713996 1_556
Ir4 Sn0 2.713996 1_555
Ir4 Sn4 2.720981 1_455
Ir4 Sn2 2.720981 1_455
Ir4 Zr4 2.906305 1_545
Ir4 Zr3 2.910821 1_555
Ir4 Zr0 2.923927 1_445
Ir5 Sn2 2.694681 1_564
Ir5 Sn4 2.694681 1_565
Ir5 Sn3 2.711422 1_655
Ir5 Sn5 2.711422 1_655
Ir5 Sn0 2.714940 1_665
Ir5 Sn1 2.714940 1_665
Ir5 Zr1 2.892641 1_555
Ir5 Zr2 2.897639 1_565
Ir5 Sc0 2.969820 1_665
