# generated using pymatgen
data_Cs2NaNbSe4
_symmetry_space_group_name_H-M   'P 1'
_cell_length_a   14.55879555
_cell_length_b   13.06148586
_cell_length_c   8.04816898
_cell_angle_alpha   83.60508407
_cell_angle_beta   63.07146505
_cell_angle_gamma   33.32345531
_symmetry_Int_Tables_number   1
_chemical_formula_structural   Cs2NaNbSe4
_chemical_formula_sum   'Cs4 Na2 Nb2 Se8'
_cell_volume   628.39967501
_cell_formula_units_Z   2
loop_
 _symmetry_equiv_pos_site_id
 _symmetry_equiv_pos_as_xyz
  1  'x, y, z'
loop_
 _atom_site_type_symbol
 _atom_site_label
 _atom_site_symmetry_multiplicity
 _atom_site_fract_x
 _atom_site_fract_y
 _atom_site_fract_z
 _atom_site_occupancy
  Cs  Cs0  1  0.81999451  0.81999451  0.18000549  1
  Cs  Cs1  1  0.18000549  0.18000549  0.81999451  1
  Cs  Cs2  1  0.43000549  0.43000549  0.06999451  1
  Cs  Cs3  1  0.06999451  0.06999451  0.43000549  1
  Na  Na0  1  0.50000000  0.50000000  0.50000000  1
  Na  Na1  1  0.75000000  0.75000000  0.75000000  1
  Nb  Nb0  1  0.25000000  0.25000000  0.25000000  1
  Nb  Nb1  1  0.00000000  0.00000000  0.00000000  1
  Se  Se0  1  0.75683041  0.35369662  0.04883087  1
  Se  Se1  1  0.40935690  0.20116913  0.89630338  1
  Se  Se2  1  0.89630338  0.49316959  0.40935690  1
  Se  Se3  1  0.20116913  0.40935690  0.49316959  1
  Se  Se4  1  0.04883087  0.84064310  0.75683041  1
  Se  Se5  1  0.35369662  0.75683041  0.84064310  1
  Se  Se6  1  0.49316959  0.89630338  0.20116913  1
  Se  Se7  1  0.84064310  0.04883087  0.35369662  1
loop_
_geom_bond_atom_site_label_1
_geom_bond_atom_site_label_2
_geom_bond_distance
_geom_bond_site_symmetry_2
Cs0 Se4 3.713652 1_654
Cs0 Se7 3.713655 1_565
Cs0 Se1 3.825292 1_654
Cs0 Se3 3.825293 1_565
Cs0 Se2 3.878258 1_555
Cs0 Se6 3.878262 1_555
Cs1 Se0 3.713642 1_456
Cs1 Se5 3.713643 1_545
Cs1 Se2 3.825288 1_456
Cs1 Se6 3.825295 1_545
Cs1 Se1 3.878247 1_555
Cs1 Se3 3.878252 1_555
Cs2 Se3 3.713652 1_555
Cs2 Se1 3.713655 1_554
Cs2 Se7 3.825292 1_465
Cs2 Se4 3.825293 1_644
Cs2 Se5 3.878258 1_554
Cs2 Se0 3.878262 1_555
Cs3 Se6 3.713642 1_545
Cs3 Se2 3.713643 1_455
Cs3 Se5 3.825288 1_544
Cs3 Se0 3.825295 1_456
Cs3 Se7 3.878247 1_455
Cs3 Se4 3.878252 1_545
Na0 Se4 2.850402 1_555
Na0 Se7 2.850403 1_555
Na0 Se0 2.850406 1_555
Na0 Se5 2.850412 1_555
Na1 Se3 2.850402 1_655
Na1 Se1 2.850403 1_565
Na1 Se6 2.850406 1_556
Na1 Se2 2.850412 1_555
Nb0 Se3 2.417077 1_555
Nb0 Se1 2.417083 1_554
Nb0 Se6 2.417086 1_545
Nb0 Se2 2.417089 1_455
Nb1 Se4 2.417077 1_544
Nb1 Se7 2.417083 1_455
Nb1 Se0 2.417086 1_455
Nb1 Se5 2.417089 1_544
