# generated using pymatgen
data_HfSc5(AsRu)6
_symmetry_space_group_name_H-M   'P 1'
_cell_length_a   7.65862116
_cell_length_b   7.64905358
_cell_length_c   7.65862127
_cell_angle_alpha   128.04592927
_cell_angle_beta   121.21634594
_cell_angle_gamma   82.30143276
_symmetry_Int_Tables_number   1
_chemical_formula_structural   HfSc5(AsRu)6
_chemical_formula_sum   'Hf1 Sc5 As6 Ru6'
_cell_volume   290.48526192
_cell_formula_units_Z   1
loop_
 _symmetry_equiv_pos_site_id
 _symmetry_equiv_pos_as_xyz
  1  'x, y, z'
loop_
 _atom_site_type_symbol
 _atom_site_label
 _atom_site_symmetry_multiplicity
 _atom_site_fract_x
 _atom_site_fract_y
 _atom_site_fract_z
 _atom_site_occupancy
  Hf  Hf0  1  0.94622290  0.64618226  0.19995936  1
  Sc  Sc0  1  0.46916397  0.69605355  0.72689058  1
  Sc  Sc1  1  0.53210351  0.25904608  0.22694257  1
  Sc  Sc2  1  0.74954616  0.83596919  0.58642303  1
  Sc  Sc3  1  0.25105399  0.83993068  0.08887568  1
  Sc  Sc4  1  0.05207979  0.25579841  0.70371862  1
  As  As0  1  0.27220229  0.27796119  0.50575990  1
  As  As1  1  0.72217852  0.20952651  0.98734799  1
  As  As2  1  0.33131199  0.58722223  0.25039643  1
  As  As3  1  0.66980897  0.92189111  0.25784970  1
  As  As4  1  0.16404142  0.92189111  0.75208114  1
  As  As5  1  0.83682580  0.58722223  0.75591024  1
  Ru  Ru0  1  0.51281838  0.49678265  0.00615858  1
  Ru  Ru1  1  0.99062407  0.49678265  0.48396427  1
  Ru  Ru2  1  0.09712315  0.25612348  0.10834646  1
  Ru  Ru3  1  0.90813221  0.00754710  0.16056023  1
  Ru  Ru4  1  0.34698687  0.00754710  0.59941488  1
  Ru  Ru5  1  0.64777701  0.25612348  0.65900033  1
loop_
_geom_bond_atom_site_label_1
_geom_bond_atom_site_label_2
_geom_bond_distance
_geom_bond_site_symmetry_2
Hf0 Ru5 2.840083 1_554
Hf0 Ru2 2.840083 1_655
Hf0 Ru0 2.888857 1_555
Hf0 Ru1 2.888857 1_555
Hf0 Ru4 2.921840 1_665
Hf0 Ru3 2.921840 1_565
As0 Ru4 2.491242 1_555
As0 Ru3 2.491247 1_455
As0 Ru5 2.508514 1_555
As0 Ru2 2.508521 1_555
As0 Ru0 2.546378 1_556
As0 Ru1 2.546384 1_455
As0 Sc0 2.709172 1_555
As0 Sc3 2.805322 1_545
As0 Sc4 2.865649 1_555
As1 Ru4 2.480576 1_555
As1 Ru3 2.480576 1_556
As1 Ru1 2.514933 1_556
As1 Ru0 2.514933 1_556
As1 Ru2 2.518029 1_656
As1 Ru5 2.518029 1_555
As1 Sc2 2.707214 1_545
As1 Sc1 2.719196 1_556
As1 Hf0 2.947395 1_556
As2 Ru2 2.571547 1_555
As2 Ru4 2.583441 1_565
As2 Ru0 2.598535 1_555
As2 Sc1 2.719310 1_555
As2 Sc3 2.735925 1_555
As2 Sc2 2.748811 1_555
As2 Sc4 2.760153 1_554
As2 Sc0 2.760868 1_555
As2 Hf0 2.779962 1_455
As3 Ru3 2.578315 1_565
As3 Ru0 2.579542 1_555
As3 Ru5 2.596878 1_565
As3 Sc0 2.730746 1_554
As3 Sc2 2.734105 1_555
As3 Sc1 2.753917 1_565
As3 Sc3 2.754968 1_555
As3 Sc4 2.765110 1_665
As3 Hf0 2.783849 1_555
As4 Ru4 2.578308 1_565
As4 Ru1 2.579544 1_455
As4 Ru2 2.596882 1_566
As4 Sc0 2.730750 1_555
As4 Sc2 2.734107 1_455
As4 Sc1 2.753918 1_566
As4 Sc3 2.754970 1_556
As4 Sc4 2.765105 1_565
As4 Hf0 2.783843 1_455
As5 Ru5 2.571547 1_555
As5 Ru3 2.583441 1_566
As5 Ru1 2.598535 1_555
As5 Sc1 2.719310 1_555
As5 Sc3 2.735920 1_656
As5 Sc2 2.748811 1_555
As5 Sc4 2.760153 1_655
As5 Sc0 2.760863 1_555
As5 Hf0 2.779962 1_556
Ru0 Ru5 2.798574 1_554
Ru0 Ru4 2.850387 1_554
Ru0 Sc2 2.909438 1_555
Ru0 Sc3 3.027673 1_555
Ru0 Sc4 3.036800 1_554
Ru0 Sc1 3.105950 1_555
Ru0 Sc0 3.185924 1_554
Ru1 Ru2 2.798574 1_655
Ru1 Ru3 2.850387 1_555
Ru1 Sc2 2.909438 1_555
Ru1 Sc3 3.027668 1_656
Ru1 Sc4 3.036800 1_655
Ru1 Sc1 3.105950 1_555
Ru1 Sc0 3.185929 1_655
Ru2 Ru3 2.853873 1_455
Ru2 Sc4 2.933391 1_554
Ru2 Sc1 2.963430 1_555
Ru2 Sc2 2.970009 1_444
Ru2 Sc3 3.184048 1_545
Ru2 Sc0 3.288240 1_555
Ru3 Sc4 2.862949 1_655
Ru3 Sc3 2.927028 1_645
Ru3 Sc0 2.971283 1_544
Ru4 Ru5 2.853873 1_555
Ru4 Sc4 2.862949 1_555
Ru4 Sc3 2.927032 1_545
Ru4 Sc0 2.971289 1_545
Ru5 Sc4 2.933391 1_655
Ru5 Sc1 2.963430 1_555
Ru5 Sc2 2.970010 1_545
Ru5 Sc3 3.184053 1_545
Ru5 Sc0 3.288236 1_555
