# generated using pymatgen
data_Rb2NaScBi2
_symmetry_space_group_name_H-M   'P 1'
_cell_length_a   9.97244270
_cell_length_b   9.97244387
_cell_length_c   9.97244195
_cell_angle_alpha   136.49394374
_cell_angle_beta   135.92432423
_cell_angle_gamma   63.65831785
_symmetry_Int_Tables_number   1
_chemical_formula_structural   Rb2NaScBi2
_chemical_formula_sum   'Rb4 Na2 Sc2 Bi4'
_cell_volume   468.69391194
_cell_formula_units_Z   2
loop_
 _symmetry_equiv_pos_site_id
 _symmetry_equiv_pos_as_xyz
  1  'x, y, z'
loop_
 _atom_site_type_symbol
 _atom_site_label
 _atom_site_symmetry_multiplicity
 _atom_site_fract_x
 _atom_site_fract_y
 _atom_site_fract_z
 _atom_site_occupancy
  Rb  Rb0  1  0.09967565  0.32424627  0.77542838  1
  Rb  Rb1  1  0.45118111  0.17575373  0.27542838  1
  Rb  Rb2  1  0.90032435  0.67575373  0.22457162  1
  Rb  Rb3  1  0.54881889  0.82424627  0.72457162  1
  Na  Na0  1  0.50000000  0.75000000  0.25000000  1
  Na  Na1  1  0.50000000  0.25000000  0.75000000  1
  Sc  Sc0  1  0.00000000  0.75000000  0.75000000  1
  Sc  Sc1  1  0.00000000  0.25000000  0.25000000  1
  Bi  Bi0  1  0.12022543  0.90290554  0.21731889  1
  Bi  Bi1  1  0.87977457  0.09709446  0.78268111  1
  Bi  Bi2  1  0.31441234  0.59709446  0.71731889  1
  Bi  Bi3  1  0.68558766  0.40290554  0.28268111  1
loop_
_geom_bond_atom_site_label_1
_geom_bond_atom_site_label_2
_geom_bond_distance
_geom_bond_site_symmetry_2
Bi0 Sc0 2.960898 1_554
Bi0 Sc1 2.960904 1_565
Bi0 Na0 3.255338 1_555
Bi0 Na1 3.255342 1_565
Bi0 Rb2 3.849637 1_455
Bi0 Rb3 3.921083 1_454
Bi0 Rb0 3.952866 1_565
Bi0 Rb0 3.952867 1_554
Bi0 Rb3 4.023342 1_555
Bi1 Sc1 2.960898 1_656
Bi1 Sc0 2.960904 1_645
Bi1 Na1 3.255338 1_555
Bi1 Na0 3.255342 1_545
Bi1 Rb0 3.849637 1_655
Bi1 Rb1 3.921083 1_656
Bi1 Rb2 3.952866 1_545
Bi1 Rb2 3.952867 1_556
Bi1 Rb1 4.023342 1_555
Bi2 Sc0 2.960895 1_555
Bi2 Sc1 2.960899 1_555
Bi2 Na0 3.255342 1_556
Bi2 Na1 3.255347 1_555
Bi2 Rb3 3.849638 1_555
Bi2 Rb2 3.921083 1_455
Bi2 Rb1 3.952866 1_555
Bi2 Rb1 3.952867 1_566
Bi2 Rb2 4.023342 1_556
Bi3 Sc1 2.960895 1_655
Bi3 Sc0 2.960899 1_655
Bi3 Na1 3.255342 1_554
Bi3 Na0 3.255347 1_555
Bi3 Rb1 3.849638 1_555
Bi3 Rb0 3.921083 1_655
Bi3 Rb3 3.952866 1_555
Bi3 Rb3 3.952867 1_544
Bi3 Rb0 4.023342 1_554
