# generated using pymatgen
data_Rb3Nb2SbSe11
_symmetry_space_group_name_H-M   'P 1'
_cell_length_a   10.31202114
_cell_length_b   10.31202018
_cell_length_c   10.18235749
_cell_angle_alpha   82.82346093
_cell_angle_beta   82.82345917
_cell_angle_gamma   82.23483871
_symmetry_Int_Tables_number   1
_chemical_formula_structural   Rb3Nb2SbSe11
_chemical_formula_sum   'Rb6 Nb4 Sb2 Se22'
_cell_volume   1057.98700656
_cell_formula_units_Z   2
loop_
 _symmetry_equiv_pos_site_id
 _symmetry_equiv_pos_as_xyz
  1  'x, y, z'
loop_
 _atom_site_type_symbol
 _atom_site_label
 _atom_site_symmetry_multiplicity
 _atom_site_fract_x
 _atom_site_fract_y
 _atom_site_fract_z
 _atom_site_occupancy
  Rb  Rb0  1  0.52643608  0.35812568  0.92669334  1
  Rb  Rb1  1  0.98724393  0.13879903  0.02377890  1
  Rb  Rb2  1  0.75249545  0.88805505  0.68746227  1
  Rb  Rb3  1  0.35812568  0.52643608  0.42669334  1
  Rb  Rb4  1  0.88805505  0.75249545  0.18746227  1
  Rb  Rb5  1  0.13879903  0.98724393  0.52377890  1
  Nb  Nb0  1  0.79351322  0.25072052  0.41185854  1
  Nb  Nb1  1  0.25072052  0.79351322  0.91185854  1
  Nb  Nb2  1  0.49991225  0.90714877  0.09804472  1
  Nb  Nb3  1  0.90714877  0.49991225  0.59804472  1
  Sb  Sb0  1  0.12753536  0.44459698  0.87426110  1
  Sb  Sb1  1  0.44459698  0.12753536  0.37426110  1
  Se  Se0  1  0.58081585  0.65911935  0.15480929  1
  Se  Se1  1  0.40050244  0.89941932  0.70950668  1
  Se  Se2  1  0.35026443  0.02267206  0.89496681  1
  Se  Se3  1  0.28817980  0.60068257  0.75419010  1
  Se  Se4  1  0.82059896  0.23317613  0.66826848  1
  Se  Se5  1  0.88850419  0.54186578  0.85368345  1
  Se  Se6  1  0.65911935  0.58081585  0.65480929  1
  Se  Se7  1  0.54186578  0.88850419  0.35368345  1
  Se  Se8  1  0.23317613  0.82059896  0.16826848  1
  Se  Se9  1  0.03541020  0.87074979  0.85706548  1
  Se  Se10  1  0.22193327  0.60613191  0.10674772  1
  Se  Se11  1  0.68258549  0.01848571  0.01112222  1
  Se  Se12  1  0.10696856  0.31584565  0.67254311  1
  Se  Se13  1  0.72443192  0.52943531  0.43613779  1
  Se  Se14  1  0.87074979  0.03541020  0.35706548  1
  Se  Se15  1  0.52943531  0.72443192  0.93613779  1
  Se  Se16  1  0.89941932  0.40050244  0.20950668  1
  Se  Se17  1  0.60613191  0.22193327  0.60674772  1
  Se  Se18  1  0.31584565  0.10696856  0.17254311  1
  Se  Se19  1  0.02267206  0.35026443  0.39496681  1
  Se  Se20  1  0.60068257  0.28817980  0.25419010  1
  Se  Se21  1  0.01848571  0.68258549  0.51112222  1
loop_
_geom_bond_atom_site_label_1
_geom_bond_atom_site_label_2
_geom_bond_distance
_geom_bond_site_symmetry_2
Rb0 Se20 3.480562 1_556
Rb0 Se6 3.622682 1_555
Rb0 Se17 3.663793 1_555
Rb0 Se11 3.697038 1_556
Rb0 Se3 3.701054 1_555
Rb0 Se15 3.794958 1_555
Rb1 Se9 3.370377 1_644
Rb1 Se16 3.444757 1_555
Rb1 Se14 3.538372 1_555
Rb1 Se11 3.552491 1_555
Rb1 Sb0 3.719891 1_654
Rb1 Se18 3.839558 1_655
Rb1 Se2 3.888730 1_654
Rb1 Se12 3.939875 1_654
Rb2 Se6 3.499019 1_555
Rb2 Se9 3.544960 1_655
Rb2 Se1 3.595459 1_555
Rb2 Se17 3.606402 1_565
Rb2 Se15 3.616002 1_555
Rb2 Se14 3.648618 1_565
Rb2 Se21 3.658743 1_655
Rb2 Se11 3.666298 1_566
Rb2 Se4 3.696546 1_565
Rb2 Se5 3.912343 1_555
Rb3 Se3 3.480562 1_555
Rb3 Se0 3.622682 1_555
Rb3 Se10 3.663793 1_555
Rb3 Se21 3.697038 1_555
Rb3 Se20 3.701054 1_555
Rb3 Se13 3.794958 1_555
Rb4 Se0 3.499019 1_555
Rb4 Se14 3.544960 1_565
Rb4 Se16 3.595459 1_555
Rb4 Se10 3.606402 1_655
Rb4 Se13 3.616002 1_555
Rb4 Se9 3.648618 1_654
Rb4 Se11 3.658743 1_565
Rb4 Se21 3.666298 1_655
Rb4 Se8 3.696546 1_655
Rb4 Se7 3.912343 1_555
Rb5 Se14 3.370378 1_465
Rb5 Se1 3.444757 1_555
Rb5 Se9 3.538372 1_555
Rb5 Se21 3.552491 1_555
Rb5 Sb1 3.719891 1_565
Rb5 Se12 3.839558 1_565
Rb5 Se19 3.888730 1_565
Rb5 Se18 3.939875 1_565
Nb0 Se14 2.365568 1_555
Nb0 Se17 2.609512 1_555
Nb0 Se16 2.630994 1_555
Nb0 Se4 2.641562 1_555
Nb0 Se20 2.667542 1_555
Nb0 Se19 2.679050 1_655
Nb0 Se13 2.899891 1_555
Nb1 Se9 2.365569 1_555
Nb1 Se10 2.609512 1_556
Nb1 Se1 2.630994 1_555
Nb1 Se8 2.641562 1_556
Nb1 Se3 2.667542 1_555
Nb1 Se2 2.679049 1_565
Nb1 Se15 2.899891 1_555
Nb2 Se11 2.358796 1_565
Nb2 Se0 2.597374 1_555
Nb2 Se15 2.618469 1_554
Nb2 Se7 2.670882 1_555
Nb2 Se18 2.719918 1_565
Nb2 Se2 2.785930 1_564
Nb2 Se8 2.980957 1_555
Nb3 Se21 2.358796 1_655
Nb3 Se6 2.597374 1_555
Nb3 Se13 2.618469 1_555
Nb3 Se5 2.670882 1_555
Nb3 Se12 2.719919 1_655
Nb3 Se19 2.785930 1_655
Nb3 Se4 2.980957 1_555
Sb0 Se5 2.556193 1_455
Sb0 Se3 2.559778 1_555
Sb0 Se12 2.625412 1_555
Sb1 Se7 2.556192 1_545
Sb1 Se20 2.559778 1_555
Sb1 Se18 2.625412 1_555
Se0 Se15 2.348551 1_554
Se1 Se2 2.372182 1_565
Se13 Se6 2.348551 1_555
Se16 Se19 2.372182 1_655
