# generated using pymatgen
data_Ca9YSi6F
_symmetry_space_group_name_H-M   'P 1'
_cell_length_a   9.05739939
_cell_length_b   9.03815760
_cell_length_c   9.05873248
_cell_angle_alpha   130.03072703
_cell_angle_beta   130.08728020
_cell_angle_gamma   73.21924187
_symmetry_Int_Tables_number   1
_chemical_formula_structural   Ca9YSi6F
_chemical_formula_sum   'Ca9 Y1 Si6 F1'
_cell_volume   424.33466273
_cell_formula_units_Z   1
loop_
 _symmetry_equiv_pos_site_id
 _symmetry_equiv_pos_as_xyz
  1  'x, y, z'
loop_
 _atom_site_type_symbol
 _atom_site_label
 _atom_site_symmetry_multiplicity
 _atom_site_fract_x
 _atom_site_fract_y
 _atom_site_fract_z
 _atom_site_occupancy
  Ca  Ca0  1  0.43352675  0.77273801  1.00000000  1
  Ca  Ca1  1  0.93050410  0.93150762  0.64178585  1
  Ca  Ca2  1  0.28871925  0.28972178  0.35821415  1
  Ca  Ca3  1  0.70924754  0.06570205  0.00000000  1
  Ca  Ca4  1  0.06727018  0.71059755  0.00000000  1
  Ca  Ca5  1  0.56491618  0.56470176  0.33517461  1
  Ca  Ca6  1  0.22974058  0.22952616  0.66482539  1
  Ca  Ca7  1  0.25299780  0.75235270  0.50516808  1
  Ca  Ca8  1  0.74782972  0.24718462  0.49483192  1
  Y  Y0  1  0.77652075  0.43591220  1.00000000  1
  Si  Si0  1  0.99413662  0.49641430  0.48427574  1
  Si  Si1  1  0.50986187  0.01213956  0.51572426  1
  Si  Si2  1  0.12867191  0.36363255  0.00000000  1
  Si  Si3  1  0.35658226  0.13614346  1.00000000  1
  Si  Si4  1  0.86548114  0.85795574  0.22507298  1
  Si  Si5  1  0.64040817  0.63288276  0.77492702  1
  F  F0  1  0.50358419  0.50088819  1.00000000  1
loop_
_geom_bond_atom_site_label_1
_geom_bond_atom_site_label_2
_geom_bond_distance
_geom_bond_site_symmetry_2
Ca0 F0 2.353583 1_555
Ca0 Si4 3.082756 1_556
Ca0 Si5 3.082756 1_555
Ca0 Si3 3.154679 1_565
Ca0 Si1 3.268902 1_566
Ca0 Si0 3.268908 1_455
Ca1 Si3 3.019324 1_665
Ca1 Si4 3.028736 1_555
Ca1 Si2 3.041144 1_666
Ca1 Si1 3.196033 1_565
Ca1 Si0 3.219416 1_555
Ca2 Si3 3.019317 1_554
Ca2 Si5 3.028731 1_555
Ca2 Si2 3.041142 1_555
Ca2 Si0 3.196049 1_455
Ca2 Si1 3.219408 1_555
Ca3 Si5 3.059356 1_544
Ca3 Si4 3.059356 1_545
Ca3 Si3 3.071511 1_554
Ca3 Si0 3.210958 1_555
Ca3 Si1 3.210966 1_554
Ca4 Si2 3.022629 1_555
Ca4 Si5 3.028501 1_454
Ca4 Si4 3.028501 1_455
Ca4 Si0 3.336604 1_454
Ca4 Si1 3.336611 1_565
Ca5 F0 2.370677 1_554
Ca5 Si3 3.081443 1_554
Ca5 Si2 3.119434 1_555
Ca5 Si0 3.200480 1_555
Ca5 Si5 3.208383 1_555
Ca5 Si1 3.264235 1_565
Ca6 F0 2.370686 1_555
Ca6 Si3 3.081433 1_555
Ca6 Si2 3.119424 1_556
Ca6 Si1 3.200494 1_555
Ca6 Si4 3.208373 1_445
Ca6 Si0 3.264235 1_455
Ca7 Si4 3.062601 1_455
Ca7 Si3 3.076774 1_565
Ca7 Si2 3.085194 1_555
Ca7 Si5 3.100523 1_555
Ca8 Si5 3.062601 1_555
Ca8 Si3 3.076774 1_554
Ca8 Si2 3.085194 1_656
Ca8 Si4 3.100523 1_545
Si0 Y0 3.135168 1_554
Si1 Y0 3.135161 1_555
Si2 Si3 2.457224 1_554
Si2 Y0 3.065452 1_454
Si4 Si5 2.437123 1_554
Si4 Y0 3.001811 1_554
Si5 Y0 3.001811 1_555
F0 Y0 2.370201 1_555
