# generated using pymatgen
data_Rb10Zn4Sn4S17
_symmetry_space_group_name_H-M   'P 1'
_cell_length_a   10.23242460
_cell_length_b   10.23242418
_cell_length_c   10.23242445
_cell_angle_alpha   90.70522789
_cell_angle_beta   90.70522994
_cell_angle_gamma   90.70522357
_symmetry_Int_Tables_number   1
_chemical_formula_structural   Rb10Zn4Sn4S17
_chemical_formula_sum   'Rb10 Zn4 Sn4 S17'
_cell_volume   1071.11503218
_cell_formula_units_Z   1
loop_
 _symmetry_equiv_pos_site_id
 _symmetry_equiv_pos_as_xyz
  1  'x, y, z'
loop_
 _atom_site_type_symbol
 _atom_site_label
 _atom_site_symmetry_multiplicity
 _atom_site_fract_x
 _atom_site_fract_y
 _atom_site_fract_z
 _atom_site_occupancy
  Rb  Rb0  1  0.00009951  0.50091290  0.00009951  1
  Rb  Rb1  1  0.00009951  0.00009951  0.50091290  1
  Rb  Rb2  1  0.50091290  0.00009951  0.00009951  1
  Rb  Rb3  1  0.03196861  0.50275439  0.50275439  1
  Rb  Rb4  1  0.50275439  0.03196861  0.50275439  1
  Rb  Rb5  1  0.50275439  0.50275439  0.03196861  1
  Rb  Rb6  1  0.33070445  0.68154060  0.33070445  1
  Rb  Rb7  1  0.33070445  0.33070445  0.68154060  1
  Rb  Rb8  1  0.68154060  0.33070445  0.33070445  1
  Rb  Rb9  1  0.66512537  0.66512537  0.66512537  1
  Zn  Zn0  1  0.86859921  0.86859921  0.86859921  1
  Zn  Zn1  1  0.13098542  0.87127084  0.13098542  1
  Zn  Zn2  1  0.87127084  0.13098542  0.13098542  1
  Zn  Zn3  1  0.13098542  0.13098542  0.87127084  1
  Sn  Sn0  1  0.21714829  0.78073255  0.78073255  1
  Sn  Sn1  1  0.78073255  0.21714829  0.78073255  1
  Sn  Sn2  1  0.78073255  0.78073255  0.21714829  1
  Sn  Sn3  1  0.22323148  0.22323148  0.22323148  1
  S  S0  1  0.00077454  0.00077454  0.00077454  1
  S  S1  1  0.34200736  0.64538572  0.64538572  1
  S  S2  1  0.64538572  0.34200736  0.64538572  1
  S  S3  1  0.64538572  0.64538572  0.34200736  1
  S  S4  1  0.35767920  0.35767920  0.35767920  1
  S  S5  1  0.99027095  0.73244584  0.73244584  1
  S  S6  1  0.73244584  0.99027095  0.73244584  1
  S  S7  1  0.73244584  0.73244584  0.99027095  1
  S  S8  1  0.00689889  0.73504290  0.26651431  1
  S  S9  1  0.26909078  0.99755815  0.26909078  1
  S  S10  1  0.26651431  0.73504290  0.00689889  1
  S  S11  1  0.99755815  0.26909078  0.26909078  1
  S  S12  1  0.73504290  0.00689889  0.26651431  1
  S  S13  1  0.73504290  0.26651431  0.00689889  1
  S  S14  1  0.00689889  0.26651431  0.73504290  1
  S  S15  1  0.26651431  0.00689889  0.73504290  1
  S  S16  1  0.26909078  0.26909078  0.99755815  1
loop_
_geom_bond_atom_site_label_1
_geom_bond_atom_site_label_2
_geom_bond_distance
_geom_bond_site_symmetry_2
Rb0 S14 3.600274 1_554
Rb0 S13 3.600275 1_455
Rb0 S8 3.606413 1_555
Rb0 S10 3.606414 1_555
Rb0 S7 3.644515 1_454
Rb0 S5 3.644515 1_454
Rb0 S16 3.655735 1_554
Rb0 S11 3.655735 1_455
Rb1 S8 3.600274 1_545
Rb1 S12 3.600274 1_455
Rb1 S14 3.606413 1_555
Rb1 S15 3.606413 1_555
Rb1 S5 3.644515 1_445
Rb1 S6 3.644515 1_445
Rb1 S11 3.655735 1_455
Rb1 S9 3.655735 1_545
Rb2 S15 3.600274 1_554
Rb2 S10 3.600275 1_545
Rb2 S12 3.606413 1_555
Rb2 S13 3.606413 1_555
Rb2 S7 3.644515 1_544
Rb2 S6 3.644515 1_544
Rb2 S16 3.655735 1_554
Rb2 S9 3.655735 1_545
Rb3 S5 3.338152 1_455
Rb3 S11 3.372691 1_455
Rb3 S8 3.420512 1_555
Rb3 S14 3.420512 1_555
Rb3 S1 3.747548 1_555
Rb4 S6 3.338152 1_545
Rb4 S9 3.372691 1_545
Rb4 S12 3.420512 1_555
Rb4 S15 3.420512 1_555
Rb4 S2 3.747548 1_555
Rb5 S7 3.338153 1_554
Rb5 S16 3.372691 1_554
Rb5 S10 3.420512 1_555
Rb5 S13 3.420512 1_555
Rb5 S3 3.747548 1_555
Rb6 S1 3.246466 1_555
Rb6 S3 3.246466 1_555
Rb6 S4 3.343258 1_555
Rb6 S9 3.367769 1_555
Rb6 S10 3.421859 1_555
Rb6 S8 3.421859 1_555
Rb7 S1 3.246466 1_555
Rb7 S2 3.246466 1_555
Rb7 S4 3.343259 1_555
Rb7 S16 3.367770 1_555
Rb7 S15 3.421859 1_555
Rb7 S14 3.421859 1_555
Rb8 S3 3.246466 1_555
Rb8 S2 3.246466 1_555
Rb8 S4 3.343259 1_555
Rb8 S11 3.367770 1_555
Rb8 S12 3.421859 1_555
Rb8 S13 3.421859 1_555
Rb9 S2 3.313488 1_555
Rb9 S3 3.313488 1_555
Rb9 S1 3.313488 1_555
Rb9 S6 3.448714 1_555
Rb9 S7 3.448714 1_555
Rb9 S5 3.448714 1_555
S0 Zn1 2.312931 1_545
S0 Zn2 2.312931 1_455
S0 Zn3 2.312931 1_554
S0 Zn0 2.313541 1_444
S1 Sn0 2.346962 1_555
S2 Sn1 2.346962 1_555
S3 Sn2 2.346962 1_555
S4 Sn3 2.353317 1_555
S5 Zn0 2.338702 1_555
S5 Sn0 2.411463 1_655
S6 Zn0 2.338702 1_555
S6 Sn1 2.411463 1_565
S7 Zn0 2.338702 1_555
S7 Sn2 2.411463 1_556
S8 Zn1 2.350697 1_555
S8 Sn2 2.415173 1_455
S9 Zn1 2.350486 1_555
S9 Sn3 2.412604 1_565
S10 Zn1 2.350697 1_555
S10 Sn0 2.415173 1_554
S11 Zn2 2.350486 1_555
S11 Sn3 2.412604 1_655
S12 Zn2 2.350697 1_555
S12 Sn2 2.415173 1_545
S13 Zn2 2.350697 1_555
S13 Sn1 2.415173 1_554
S14 Zn3 2.350697 1_555
S14 Sn1 2.415173 1_455
S15 Zn3 2.350697 1_555
S15 Sn0 2.415173 1_545
S16 Zn3 2.350486 1_555
S16 Sn3 2.412604 1_556
