# generated using pymatgen
data_Sr2Si3GeRu4
_symmetry_space_group_name_H-M   'P 1'
_cell_length_a   8.03437766
_cell_length_b   6.86649084
_cell_length_c   6.00297231
_cell_angle_alpha   76.93705105
_cell_angle_beta   57.20474478
_cell_angle_gamma   46.70638971
_symmetry_Int_Tables_number   1
_chemical_formula_structural   Sr2Si3GeRu4
_chemical_formula_sum   'Sr2 Si3 Ge1 Ru4'
_cell_volume   196.81891946
_cell_formula_units_Z   1
loop_
 _symmetry_equiv_pos_site_id
 _symmetry_equiv_pos_as_xyz
  1  'x, y, z'
loop_
 _atom_site_type_symbol
 _atom_site_label
 _atom_site_symmetry_multiplicity
 _atom_site_fract_x
 _atom_site_fract_y
 _atom_site_fract_z
 _atom_site_occupancy
  Sr  Sr0  1  0.99911439  0.00083040  0.99921995  1
  Sr  Sr1  1  0.25032315  0.24969838  0.25032707  1
  Si  Si0  1  0.57302888  0.92697490  0.57313919  1
  Si  Si1  1  0.67665391  0.32340060  0.67651493  1
  Si  Si2  1  0.92859599  0.57132475  0.92852848  1
  Ge  Ge0  1  0.31903711  0.68098928  0.31899273  1
  Ru  Ru0  1  0.62909950  0.62050819  0.37475539  1
  Ru  Ru1  1  0.37475892  0.37568016  0.62911438  1
  Ru  Ru2  1  0.86565608  0.87560090  0.63375881  1
  Ru  Ru3  1  0.63373805  0.62498544  0.86565008  1
loop_
_geom_bond_atom_site_label_1
_geom_bond_atom_site_label_2
_geom_bond_distance
_geom_bond_site_symmetry_2
Si0 Sr1 3.318110 1_565
Si0 Sr0 3.558200 1_564
Si0 Sr0 3.558686 1_465
Si0 Sr1 3.596251 1_566
Si0 Sr1 3.596864 1_655
Si1 Sr0 3.316299 1_555
Si1 Sr1 3.557739 1_655
Si1 Sr1 3.558375 1_556
Si1 Sr0 3.597038 1_554
Si1 Sr0 3.597913 1_465
Si2 Sr1 3.307870 1_656
Si2 Sr0 3.508760 1_555
Si2 Sr0 3.509512 1_565
Si2 Sr1 3.601236 1_655
Si2 Sr1 3.602276 1_566
Ge0 Ru3 2.373298 1_554
Ge0 Ru2 2.373667 1_455
Ge0 Ru0 2.431464 1_555
Ge0 Ru1 2.431568 1_555
Ge0 Sr0 3.288182 1_464
Ge0 Sr1 3.505070 1_555
Ge0 Sr1 3.505163 1_565
Ge0 Sr0 3.611693 1_554
Ge0 Sr0 3.611932 1_465
Ru0 Si0 2.302388 1_555
Ru0 Si2 2.321972 1_554
Ru0 Si1 2.366326 1_555
Ru0 Sr1 3.368159 1_655
Ru0 Sr1 3.384709 1_565
Ru0 Sr0 3.428221 1_554
Ru0 Sr0 3.497758 1_465
Ru1 Si0 2.302210 1_545
Ru1 Si2 2.322169 1_455
Ru1 Si1 2.366512 1_555
Ru1 Sr1 3.367990 1_556
Ru1 Sr1 3.384694 1_555
Ru1 Sr0 3.427920 1_465
Ru1 Sr0 3.497197 1_554
Ru2 Si1 2.314554 1_565
Ru2 Si0 2.348563 1_555
Ru2 Si2 2.366674 1_555
Ru2 Sr0 3.371599 1_565
Ru2 Sr0 3.428986 1_564
Ru2 Sr1 3.434791 1_566
Ru2 Sr1 3.445191 1_655
Ru3 Si1 2.314254 1_555
Ru3 Si0 2.348570 1_555
Ru3 Si2 2.366232 1_555
Ru3 Sr0 3.371926 1_555
Ru3 Sr0 3.429400 1_465
Ru3 Sr1 3.434809 1_655
Ru3 Sr1 3.445508 1_566
