# generated using pymatgen
data_V8Ni2O15
_symmetry_space_group_name_H-M   'P 1'
_cell_length_a   5.52017722
_cell_length_b   5.52017722
_cell_length_c   21.02571952
_cell_angle_alpha   86.27259417
_cell_angle_beta   86.27259417
_cell_angle_gamma   54.99496433
_symmetry_Int_Tables_number   1
_chemical_formula_structural   V8Ni2O15
_chemical_formula_sum   'V16 Ni4 O30'
_cell_volume   523.38972898
_cell_formula_units_Z   2
loop_
 _symmetry_equiv_pos_site_id
 _symmetry_equiv_pos_as_xyz
  1  'x, y, z'
loop_
 _atom_site_type_symbol
 _atom_site_label
 _atom_site_symmetry_multiplicity
 _atom_site_fract_x
 _atom_site_fract_y
 _atom_site_fract_z
 _atom_site_occupancy
  V  V0  1  0.49344900  0.99103000  0.92835000  1
  V  V1  1  0.22304900  0.69931700  0.97177900  1
  V  V2  1  0.81044500  0.31385300  0.16948100  1
  V  V3  1  0.77695100  0.30068300  0.02822100  1
  V  V4  1  0.68614700  0.18955600  0.33051900  1
  V  V5  1  0.50655100  0.00897000  0.07165000  1
  V  V6  1  0.39311900  0.88593400  0.23073800  1
  V  V7  1  0.30068300  0.77695100  0.52822100  1
  V  V8  1  0.11406600  0.60688100  0.26926200  1
  V  V9  1  0.00897000  0.50655100  0.57165000  1
  V  V10  1  0.99103000  0.49344900  0.42835000  1
  V  V11  1  0.88593400  0.39311900  0.73073800  1
  V  V12  1  0.69931700  0.22304900  0.47177900  1
  V  V13  1  0.60688100  0.11406600  0.76926200  1
  V  V14  1  0.31385300  0.81044500  0.66948100  1
  V  V15  1  0.18955500  0.68614700  0.83051900  1
  Ni  Ni0  1  0.08788600  0.59935400  0.13041800  1
  Ni  Ni1  1  0.40064600  0.91211400  0.36958200  1
  Ni  Ni2  1  0.59935400  0.08788600  0.63041800  1
  Ni  Ni3  1  0.91211400  0.40064600  0.86958200  1
  O  O0  1  0.77753600  0.96662000  0.98848300  1
  O  O1  1  0.33796200  0.45806000  0.04815700  1
  O  O2  1  0.23984600  0.43124300  0.91153800  1
  O  O3  1  0.76015400  0.56875700  0.08846200  1
  O  O4  1  0.66203800  0.54194000  0.95184300  1
  O  O5  1  0.37745800  0.57019500  0.19044200  1
  O  O6  1  0.22246400  0.03338000  0.01151700  1
  O  O7  1  0.94409600  0.05590400  0.25000000  1
  O  O8  1  0.82272300  0.04040500  0.10839500  1
  O  O9  1  0.36234500  0.17035000  0.28531200  1
  O  O10  1  0.25856700  0.12925200  0.15182200  1
  O  O11  1  0.95959500  0.17727700  0.39160500  1
  O  O12  1  0.82965000  0.63765500  0.21468800  1
  O  O13  1  0.54194000  0.66203800  0.45184300  1
  O  O14  1  0.42980500  0.62254200  0.30955800  1
  O  O15  1  0.96662000  0.77753600  0.48848300  1
  O  O16  1  0.87074800  0.74143300  0.34817800  1
  O  O17  1  0.56875700  0.76015400  0.58846200  1
  O  O18  1  0.43124300  0.23984600  0.41153800  1
  O  O19  1  0.12925200  0.25856700  0.65182200  1
  O  O20  1  0.03338000  0.22246400  0.51151700  1
  O  O21  1  0.57019500  0.37745800  0.69044200  1
  O  O22  1  0.45806000  0.33796200  0.54815700  1
  O  O23  1  0.17035000  0.36234500  0.78531200  1
  O  O24  1  0.04040500  0.82272300  0.60839500  1
  O  O25  1  0.74143300  0.87074800  0.84817800  1
  O  O26  1  0.63765500  0.82965000  0.71468800  1
  O  O27  1  0.17727700  0.95959500  0.89160500  1
  O  O28  1  0.05590400  0.94409600  0.75000000  1
  O  O29  1  0.62254200  0.42980500  0.80955800  1
loop_
_geom_bond_atom_site_label_1
_geom_bond_atom_site_label_2
_geom_bond_distance
_geom_bond_site_symmetry_2
Ni0 O5 2.028430 1_555
Ni0 O1 2.033514 1_555
Ni0 O8 2.034083 1_465
Ni0 O12 2.142593 1_455
Ni0 O3 2.158045 1_455
Ni0 O10 2.218701 1_555
Ni1 O14 2.028430 1_555
Ni1 O13 2.033514 1_555
Ni1 O11 2.034083 1_465
Ni1 O9 2.142593 1_565
Ni1 O18 2.158045 1_565
Ni1 O16 2.218701 1_555
Ni2 O21 2.028430 1_555
Ni2 O22 2.033514 1_555
Ni2 O24 2.034083 1_645
Ni2 O26 2.142593 1_545
Ni2 O17 2.158045 1_545
Ni2 O19 2.218701 1_555
Ni3 O29 2.028430 1_555
Ni3 O4 2.033514 1_555
Ni3 O27 2.034083 1_645
Ni3 O23 2.142593 1_655
Ni3 O2 2.158045 1_655
Ni3 O25 2.218701 1_555
O0 V0 2.017226 1_555
O0 V1 2.034830 1_655
O0 V3 2.071692 1_566
O0 V5 2.159148 1_566
O1 V1 1.907901 1_554
O1 V3 2.074305 1_555
O1 V5 2.123539 1_555
O2 V1 1.968188 1_555
O2 V0 2.009870 1_545
O2 V15 2.064111 1_555
O3 V3 1.968188 1_555
O3 V5 2.009870 1_565
O3 V2 2.064111 1_555
O4 V3 1.907901 1_556
O4 V1 2.074305 1_555
O4 V0 2.123539 1_555
O5 V2 1.993294 1_555
O5 V6 2.034092 1_555
O5 V8 2.072205 1_555
O6 V5 2.017226 1_555
O6 V3 2.034830 1_455
O6 V1 2.071692 1_544
O6 V0 2.159148 1_544
O7 V2 2.020324 1_555
O7 V4 2.020324 1_555
O7 V6 2.106872 1_645
O7 V8 2.106872 1_645
O8 V2 2.013984 1_555
O8 V5 2.052655 1_555
O8 V3 2.072146 1_555
O9 V6 1.927017 1_545
O9 V8 1.991070 1_555
O9 V4 2.135671 1_555
O10 V6 1.958266 1_545
O10 V5 1.989719 1_555
O10 V2 2.081639 1_455
O11 V4 2.013981 1_555
O11 V10 2.052655 1_555
O11 V12 2.072146 1_555
O12 V8 1.927017 1_655
O12 V6 1.991070 1_555
O12 V2 2.135668 1_555
O13 V7 1.907901 1_555
O13 V12 2.074305 1_555
O13 V10 2.123539 1_555
O14 V4 1.993290 1_555
O14 V8 2.034092 1_555
O14 V6 2.072205 1_555
O15 V10 2.017226 1_555
O15 V12 2.034830 1_565
O15 V7 2.071692 1_655
O15 V9 2.159148 1_655
O16 V8 1.958266 1_655
O16 V10 1.989719 1_555
O16 V4 2.081643 1_565
O17 V7 1.968188 1_555
O17 V9 2.009870 1_655
O17 V14 2.064111 1_555
O18 V12 1.968188 1_555
O18 V10 2.009870 1_455
O18 V4 2.064112 1_555
O19 V11 1.958266 1_455
O19 V9 1.989719 1_555
O19 V14 2.081639 1_545
O20 V9 2.017226 1_555
O20 V7 2.034830 1_545
O20 V12 2.071692 1_455
O20 V10 2.159148 1_455
O21 V14 1.993294 1_555
O21 V11 2.034092 1_555
O21 V13 2.072205 1_555
O22 V12 1.907901 1_555
O22 V7 2.074305 1_555
O22 V9 2.123539 1_555
O23 V11 1.927017 1_455
O23 V13 1.991070 1_555
O23 V15 2.135668 1_555
O24 V14 2.013984 1_555
O24 V9 2.052655 1_555
O24 V7 2.072146 1_555
O25 V13 1.958266 1_565
O25 V0 1.989719 1_555
O25 V15 2.081639 1_655
O26 V13 1.927017 1_565
O26 V11 1.991070 1_555
O26 V14 2.135668 1_555
O27 V15 2.013984 1_555
O27 V0 2.052655 1_555
O27 V1 2.072146 1_555
O28 V15 2.020324 1_555
O28 V14 2.020324 1_555
O28 V11 2.106872 1_465
O28 V13 2.106872 1_465
O29 V15 1.993294 1_555
O29 V13 2.034092 1_555
O29 V11 2.072205 1_555
