# generated using pymatgen
data_ScTa(SeO3)4
_symmetry_space_group_name_H-M   'P 1'
_cell_length_a   8.49468379
_cell_length_b   8.42488060
_cell_length_c   8.44185199
_cell_angle_alpha   89.89913988
_cell_angle_beta   90.00000000
_cell_angle_gamma   90.00000000
_symmetry_Int_Tables_number   1
_chemical_formula_structural   ScTa(SeO3)4
_chemical_formula_sum   'Sc2 Ta2 Se8 O24'
_cell_volume   604.15452479
_cell_formula_units_Z   2
loop_
 _symmetry_equiv_pos_site_id
 _symmetry_equiv_pos_as_xyz
  1  'x, y, z'
loop_
 _atom_site_type_symbol
 _atom_site_label
 _atom_site_symmetry_multiplicity
 _atom_site_fract_x
 _atom_site_fract_y
 _atom_site_fract_z
 _atom_site_occupancy
  Sc  Sc0  1  0.00000000  0.50000000  0.00000000  1
  Sc  Sc1  1  0.50000000  0.50000000  0.50000000  1
  Ta  Ta0  1  0.00000000  0.00000000  0.50000000  1
  Ta  Ta1  1  0.50000000  0.00000000  0.00000000  1
  Se  Se0  1  0.31940180  0.67603618  0.18471744  1
  Se  Se1  1  0.81940180  0.32396382  0.31528256  1
  Se  Se2  1  0.69083393  0.80896271  0.68387370  1
  Se  Se3  1  0.19083393  0.19103729  0.81612630  1
  Se  Se4  1  0.68059820  0.32396382  0.81528256  1
  Se  Se5  1  0.18059820  0.67603618  0.68471744  1
  Se  Se6  1  0.30916607  0.19103729  0.31612630  1
  Se  Se7  1  0.80916607  0.80896271  0.18387370  1
  O  O0  1  0.23221568  0.55814609  0.05140888  1
  O  O1  1  0.73221568  0.44185391  0.44859112  1
  O  O2  1  0.78225574  0.95887039  0.57727303  1
  O  O3  1  0.28225574  0.04112961  0.92272697  1
  O  O4  1  0.56180593  0.93119744  0.78434452  1
  O  O5  1  0.45597305  0.55503718  0.26296904  1
  O  O6  1  0.95597305  0.44496282  0.23703096  1
  O  O7  1  0.06180593  0.06880256  0.71565548  1
  O  O8  1  0.94215189  0.21774546  0.44614261  1
  O  O9  1  0.57160224  0.73720387  0.54551955  1
  O  O10  1  0.44215189  0.78225454  0.05385739  1
  O  O11  1  0.07160224  0.26279613  0.95448045  1
  O  O12  1  0.76778432  0.44185391  0.94859112  1
  O  O13  1  0.26778432  0.55814609  0.55140888  1
  O  O14  1  0.21774426  0.04112961  0.42272697  1
  O  O15  1  0.71774426  0.95887039  0.07727303  1
  O  O16  1  0.43819407  0.06880256  0.21565548  1
  O  O17  1  0.54402695  0.44496282  0.73703096  1
  O  O18  1  0.04402695  0.55503718  0.76296904  1
  O  O19  1  0.93819407  0.93119744  0.28434452  1
  O  O20  1  0.05784811  0.78225454  0.55385739  1
  O  O21  1  0.42839776  0.26279613  0.45448045  1
  O  O22  1  0.55784811  0.21774546  0.94614261  1
  O  O23  1  0.92839776  0.73720387  0.04551955  1
loop_
_geom_bond_atom_site_label_1
_geom_bond_atom_site_label_2
_geom_bond_distance
_geom_bond_site_symmetry_2
O0 Se0 1.674926 1_555
O0 Sc0 2.078513 1_555
O1 Se1 1.674926 1_555
O1 Sc1 2.078513 1_555
O2 Se2 1.733203 1_555
O2 Ta0 1.991502 1_665
O3 Se3 1.733203 1_555
O3 Ta1 1.991502 1_556
O4 Se2 1.727511 1_555
O4 Ta1 1.982346 1_566
O5 Se0 1.679014 1_555
O5 Sc1 2.086990 1_555
O6 Se1 1.679014 1_555
O6 Sc0 2.086990 1_655
O7 Se3 1.727511 1_555
O7 Ta0 1.982346 1_555
O8 Se1 1.762090 1_555
O8 Ta0 1.952067 1_655
O9 Se2 1.660710 1_555
O9 Sc1 2.124613 1_555
O10 Se0 1.762090 1_555
O10 Ta1 1.952067 1_565
O11 Se3 1.660710 1_555
O11 Sc0 2.124613 1_556
O12 Se4 1.674926 1_555
O12 Sc0 2.078513 1_656
O13 Se5 1.674926 1_555
O13 Sc1 2.078513 1_555
O14 Se6 1.733203 1_555
O14 Ta0 1.991502 1_555
O15 Se7 1.733203 1_555
O15 Ta1 1.991502 1_565
O16 Se6 1.727511 1_555
O16 Ta1 1.982346 1_555
O17 Se4 1.679014 1_555
O17 Sc1 2.086990 1_555
O18 Se5 1.679014 1_555
O18 Sc0 2.086990 1_556
O19 Se7 1.727511 1_555
O19 Ta0 1.982346 1_665
O20 Se5 1.762090 1_555
O20 Ta0 1.952067 1_565
O21 Se6 1.660710 1_555
O21 Sc1 2.124613 1_555
O22 Se4 1.762090 1_555
O22 Ta1 1.952067 1_556
O23 Se7 1.660710 1_555
O23 Sc0 2.124613 1_655
