# generated using pymatgen
data_Nb3Al2NiH
_symmetry_space_group_name_H-M   'P 1'
_cell_length_a   8.14103340
_cell_length_b   8.14103369
_cell_length_c   8.14103434
_cell_angle_alpha   60.00000547
_cell_angle_beta   60.00000426
_cell_angle_gamma   60.00000871
_symmetry_Int_Tables_number   1
_chemical_formula_structural   Nb3Al2NiH
_chemical_formula_sum   'Nb12 Al8 Ni4 H4'
_cell_volume   381.52564723
_cell_formula_units_Z   4
loop_
 _symmetry_equiv_pos_site_id
 _symmetry_equiv_pos_as_xyz
  1  'x, y, z'
loop_
 _atom_site_type_symbol
 _atom_site_label
 _atom_site_symmetry_multiplicity
 _atom_site_fract_x
 _atom_site_fract_y
 _atom_site_fract_z
 _atom_site_occupancy
  Nb  Nb0  1  0.80186441  0.80186441  0.19813559  1
  Nb  Nb1  1  0.19813559  0.19813559  0.80186441  1
  Nb  Nb2  1  0.80186441  0.19813559  0.80186441  1
  Nb  Nb3  1  0.19813559  0.80186441  0.19813559  1
  Nb  Nb4  1  0.19813559  0.80186441  0.80186441  1
  Nb  Nb5  1  0.80186441  0.19813559  0.19813559  1
  Nb  Nb6  1  0.44813559  0.44813559  0.05186441  1
  Nb  Nb7  1  0.05186441  0.05186441  0.44813559  1
  Nb  Nb8  1  0.44813559  0.05186441  0.44813559  1
  Nb  Nb9  1  0.05186441  0.44813559  0.05186441  1
  Nb  Nb10  1  0.05186441  0.44813559  0.44813559  1
  Nb  Nb11  1  0.44813559  0.05186441  0.05186441  1
  Al  Al0  1  0.74931540  0.41689487  0.41689487  1
  Al  Al1  1  0.41689487  0.74931540  0.41689487  1
  Al  Al2  1  0.41689487  0.41689487  0.74931540  1
  Al  Al3  1  0.41689487  0.41689487  0.41689487  1
  Al  Al4  1  0.50068460  0.83310513  0.83310513  1
  Al  Al5  1  0.83310513  0.50068460  0.83310513  1
  Al  Al6  1  0.83310513  0.83310513  0.50068460  1
  Al  Al7  1  0.83310513  0.83310513  0.83310513  1
  Ni  Ni0  1  0.12500000  0.62500000  0.62500000  1
  Ni  Ni1  1  0.62500000  0.12500000  0.62500000  1
  Ni  Ni2  1  0.62500000  0.62500000  0.12500000  1
  Ni  Ni3  1  0.62500000  0.62500000  0.62500000  1
  H  H0  1  0.62500000  0.12500000  0.12500000  1
  H  H1  1  0.12500000  0.62500000  0.12500000  1
  H  H2  1  0.12500000  0.12500000  0.62500000  1
  H  H3  1  0.12500000  0.12500000  0.12500000  1
loop_
_geom_bond_atom_site_label_1
_geom_bond_atom_site_label_2
_geom_bond_distance
_geom_bond_site_symmetry_2
Nb0 Ni2 2.879004 1_555
Nb0 Ni3 2.879005 1_555
Nb1 Ni1 2.879004 1_555
Nb1 Ni0 2.879004 1_555
Nb2 Ni1 2.879004 1_555
Nb2 Ni3 2.879005 1_555
Nb3 Ni2 2.879004 1_555
Nb3 Ni0 2.879005 1_555
Nb4 Ni0 2.879004 1_555
Nb4 Ni3 2.879004 1_555
Nb5 Ni2 2.879005 1_555
Nb5 Ni1 2.879005 1_555
Nb6 Ni2 2.879004 1_555
Nb6 Ni3 2.879005 1_554
Nb7 Ni1 2.879004 1_455
Nb7 Ni0 2.879004 1_545
Nb8 Ni1 2.879004 1_555
Nb8 Ni3 2.879005 1_545
Nb9 Ni2 2.879004 1_455
Nb9 Ni0 2.879005 1_554
Nb10 Ni0 2.879004 1_555
Nb10 Ni3 2.879004 1_455
Nb11 Ni2 2.879005 1_545
Nb11 Ni1 2.879005 1_554
Al0 Ni1 2.491159 1_555
Al0 Ni3 2.491159 1_555
Al0 Ni2 2.491159 1_555
Al1 Ni0 2.491159 1_555
Al1 Ni3 2.491159 1_555
Al1 Ni2 2.491159 1_555
Al2 Ni3 2.491159 1_555
Al2 Ni0 2.491159 1_555
Al2 Ni1 2.491159 1_555
Al3 Ni2 2.491159 1_555
Al3 Ni0 2.491159 1_555
Al3 Ni1 2.491159 1_555
Al4 Ni1 2.491159 1_565
Al4 Ni3 2.491159 1_555
Al4 Ni2 2.491159 1_556
Al5 Ni0 2.491159 1_655
Al5 Ni3 2.491159 1_555
Al5 Ni2 2.491159 1_556
Al6 Ni3 2.491159 1_555
Al6 Ni0 2.491159 1_655
Al6 Ni1 2.491159 1_565
Al7 Ni2 2.491159 1_556
Al7 Ni0 2.491159 1_655
Al7 Ni1 2.491159 1_565
H0 Nb5 2.202561 1_555
H0 Nb11 2.202561 1_555
H0 Nb6 2.202562 1_555
H0 Nb0 2.202562 1_545
H0 Nb8 2.202562 1_555
H0 Nb2 2.202562 1_554
H1 Nb9 2.202561 1_555
H1 Nb3 2.202561 1_555
H1 Nb6 2.202562 1_555
H1 Nb0 2.202562 1_455
H1 Nb10 2.202562 1_555
H1 Nb4 2.202562 1_554
H2 Nb1 2.202562 1_555
H2 Nb7 2.202562 1_555
H2 Nb8 2.202562 1_555
H2 Nb2 2.202562 1_455
H2 Nb10 2.202562 1_555
H2 Nb4 2.202562 1_545
H3 Nb11 2.202562 1_555
H3 Nb5 2.202562 1_455
H3 Nb3 2.202562 1_545
H3 Nb9 2.202562 1_555
H3 Nb7 2.202562 1_555
H3 Nb1 2.202562 1_554
