# generated using pymatgen
data_Cs2LiCuF6
_symmetry_space_group_name_H-M   'P 1'
_cell_length_a   6.19229374
_cell_length_b   6.19229360
_cell_length_c   4.99717104
_cell_angle_alpha   90.00000000
_cell_angle_beta   90.00000000
_cell_angle_gamma   119.99999572
_symmetry_Int_Tables_number   1
_chemical_formula_structural   Cs2LiCuF6
_chemical_formula_sum   'Cs2 Li1 Cu1 F6'
_cell_volume   165.94262446
_cell_formula_units_Z   1
loop_
 _symmetry_equiv_pos_site_id
 _symmetry_equiv_pos_as_xyz
  1  'x, y, z'
loop_
 _atom_site_type_symbol
 _atom_site_label
 _atom_site_symmetry_multiplicity
 _atom_site_fract_x
 _atom_site_fract_y
 _atom_site_fract_z
 _atom_site_occupancy
  Cs  Cs0  1  0.66666700  0.33333300  0.73711052  1
  Cs  Cs1  1  0.33333300  0.66666700  0.26288948  1
  Li  Li0  1  0.00000000  0.00000000  0.50000000  1
  Cu  Cu0  1  0.00000000  0.00000000  0.00000000  1
  F  F0  1  0.27929280  0.13964690  0.23368942  1
  F  F1  1  0.86035310  0.13964690  0.23368942  1
  F  F2  1  0.86035310  0.72070720  0.23368942  1
  F  F3  1  0.13964690  0.86035310  0.76631058  1
  F  F4  1  0.13964690  0.27929280  0.76631058  1
  F  F5  1  0.72070720  0.86035310  0.76631058  1
loop_
_geom_bond_atom_site_label_1
_geom_bond_atom_site_label_2
_geom_bond_distance
_geom_bond_site_symmetry_2
Cs0 F5 3.113102 1_545
Cs0 F5 3.113102 1_555
Cs0 F4 3.113102 1_655
Cs0 F4 3.113102 1_555
Cs0 F3 3.113102 1_655
Cs0 F3 3.113102 1_545
Cs0 F1 3.236231 1_556
Cs0 F2 3.236238 1_556
Cs0 F0 3.236238 1_556
Cs0 F1 3.262523 1_555
Cs0 F2 3.262530 1_555
Cs0 F0 3.262530 1_555
Cs1 F0 3.113102 1_565
Cs1 F0 3.113102 1_555
Cs1 F2 3.113102 1_455
Cs1 F2 3.113102 1_555
Cs1 F1 3.113102 1_455
Cs1 F1 3.113102 1_565
Cs1 F3 3.236231 1_554
Cs1 F4 3.236238 1_554
Cs1 F5 3.236238 1_554
Cs1 F3 3.262523 1_555
Cs1 F4 3.262530 1_555
Cs1 F5 3.262530 1_555
Cu0 F4 1.899212 1_554
Cu0 F2 1.899212 1_445
Cu0 F0 1.899212 1_555
Cu0 F5 1.899212 1_444
Cu0 F1 1.899216 1_455
Cu0 F3 1.899216 1_544
F0 Li0 2.003574 1_555
F1 Li0 2.003578 1_655
F2 Li0 2.003574 1_665
F3 Li0 2.003578 1_565
F4 Li0 2.003574 1_555
F5 Li0 2.003574 1_665
