# generated using pymatgen
data_HfTiNb6O12
_symmetry_space_group_name_H-M   'P 1'
_cell_length_a   6.73698151
_cell_length_b   6.73698280
_cell_length_c   6.73698251
_cell_angle_alpha   73.70415527
_cell_angle_beta   73.70414817
_cell_angle_gamma   73.70414984
_symmetry_Int_Tables_number   1
_chemical_formula_structural   HfTiNb6O12
_chemical_formula_sum   'Hf1 Ti1 Nb6 O12'
_cell_volume   274.85069516
_cell_formula_units_Z   1
loop_
 _symmetry_equiv_pos_site_id
 _symmetry_equiv_pos_as_xyz
  1  'x, y, z'
loop_
 _atom_site_type_symbol
 _atom_site_label
 _atom_site_symmetry_multiplicity
 _atom_site_fract_x
 _atom_site_fract_y
 _atom_site_fract_z
 _atom_site_occupancy
  Hf  Hf0  1  0.27369126  0.27369126  0.27369126  1
  Ti  Ti0  1  0.72569551  0.72569551  0.72569551  1
  Nb  Nb0  1  0.93972347  0.11589368  0.70996144  1
  Nb  Nb1  1  0.70996144  0.93972347  0.11589368  1
  Nb  Nb2  1  0.11589368  0.70996144  0.93972347  1
  Nb  Nb3  1  0.05220657  0.88544060  0.29279230  1
  Nb  Nb4  1  0.29279230  0.05220657  0.88544060  1
  Nb  Nb5  1  0.88544060  0.29279230  0.05220657  1
  O  O0  1  0.17419005  0.58421164  0.24981466  1
  O  O1  1  0.24981466  0.17419005  0.58421164  1
  O  O2  1  0.58421164  0.24981466  0.17419005  1
  O  O3  1  0.82503255  0.43029967  0.74461912  1
  O  O4  1  0.74461912  0.82503255  0.43029967  1
  O  O5  1  0.43029967  0.74461912  0.82503255  1
  O  O6  1  0.64661966  0.02850778  0.80286327  1
  O  O7  1  0.80286327  0.64661966  0.02850778  1
  O  O8  1  0.96552442  0.19943643  0.35347594  1
  O  O9  1  0.19943643  0.35347594  0.96552442  1
  O  O10  1  0.35347594  0.96552442  0.19943643  1
  O  O11  1  0.02850778  0.80286327  0.64661966  1
loop_
_geom_bond_atom_site_label_1
_geom_bond_atom_site_label_2
_geom_bond_distance
_geom_bond_site_symmetry_2
Hf0 O2 1.984000 1_555
Hf0 O1 1.984000 1_555
Hf0 O0 1.984000 1_555
Hf0 O8 2.157571 1_455
Hf0 O9 2.157572 1_554
Hf0 O10 2.157572 1_545
Nb0 O6 2.095122 1_555
Nb0 O3 2.096645 1_555
Nb0 O1 2.125256 1_655
Nb0 O11 2.154332 1_645
Nb0 O8 2.275282 1_555
Nb1 O7 2.095122 1_555
Nb1 O4 2.096645 1_555
Nb1 O2 2.125256 1_565
Nb1 O6 2.154332 1_564
Nb1 O10 2.275281 1_555
Nb2 O11 2.095122 1_555
Nb2 O5 2.096644 1_555
Nb2 O0 2.125256 1_556
Nb2 O7 2.154332 1_456
Nb2 O9 2.275282 1_555
Nb3 O0 2.034168 1_555
Nb3 O4 2.121852 1_455
Nb3 O10 2.124580 1_555
Nb3 O8 2.154323 1_465
Nb3 O11 2.260354 1_555
Nb4 O1 2.034168 1_555
Nb4 O5 2.121853 1_545
Nb4 O9 2.124580 1_555
Nb4 O10 2.154323 1_546
Nb4 O6 2.260354 1_555
Nb5 O2 2.034167 1_555
Nb5 O3 2.121853 1_554
Nb5 O8 2.124580 1_555
Nb5 O9 2.154322 1_654
Nb5 O7 2.260354 1_555
O3 Ti0 1.892780 1_555
O4 Ti0 1.892780 1_555
O5 Ti0 1.892780 1_555
O6 Ti0 2.132065 1_545
O7 Ti0 2.132065 1_554
O11 Ti0 2.132065 1_455
