# generated using pymatgen
data_Rb2LiVSe4
_symmetry_space_group_name_H-M   'P 1'
_cell_length_a   13.85065515
_cell_length_b   12.42855924
_cell_length_c   7.47243443
_cell_angle_alpha   84.29450151
_cell_angle_beta   63.23755330
_cell_angle_gamma   32.46795055
_symmetry_Int_Tables_number   1
_chemical_formula_structural   Rb2LiVSe4
_chemical_formula_sum   'Rb4 Li2 V2 Se8'
_cell_volume   499.97590195
_cell_formula_units_Z   2
loop_
 _symmetry_equiv_pos_site_id
 _symmetry_equiv_pos_as_xyz
  1  'x, y, z'
loop_
 _atom_site_type_symbol
 _atom_site_label
 _atom_site_symmetry_multiplicity
 _atom_site_fract_x
 _atom_site_fract_y
 _atom_site_fract_z
 _atom_site_occupancy
  Rb  Rb0  1  0.17949669  0.17949669  0.82050331  1
  Rb  Rb1  1  0.42949669  0.42949669  0.07050331  1
  Rb  Rb2  1  0.82050331  0.82050331  0.17949669  1
  Rb  Rb3  1  0.07050331  0.07050331  0.42949669  1
  Li  Li0  1  0.50000000  0.50000000  0.50000000  1
  Li  Li1  1  0.75000000  0.75000000  0.75000000  1
  V  V0  1  0.00000000  0.00000000  0.00000000  1
  V  V1  1  0.25000000  0.25000000  0.25000000  1
  Se  Se0  1  0.73998870  0.36889669  0.06736512  1
  Se  Se1  1  0.36889669  0.73998870  0.82374849  1
  Se  Se2  1  0.06736512  0.82374849  0.73998870  1
  Se  Se3  1  0.82374849  0.06736512  0.36889669  1
  Se  Se4  1  0.18263488  0.42625151  0.51001130  1
  Se  Se5  1  0.42625151  0.18263488  0.88110331  1
  Se  Se6  1  0.88110331  0.51001130  0.42625151  1
  Se  Se7  1  0.51001130  0.88110331  0.18263488  1
loop_
_geom_bond_atom_site_label_1
_geom_bond_atom_site_label_2
_geom_bond_distance
_geom_bond_site_symmetry_2
Rb0 Se1 3.545694 1_545
Rb0 Se0 3.545695 1_456
Rb0 Se7 3.556093 1_545
Rb0 Se6 3.556099 1_456
Rb0 Se4 3.675535 1_555
Rb0 Se5 3.675539 1_555
Rb0 Se7 3.872949 1_456
Rb0 Se6 3.872951 1_545
Rb1 Se5 3.545682 1_554
Rb1 Se4 3.545686 1_555
Rb1 Se2 3.556094 1_644
Rb1 Se3 3.556095 1_465
Rb1 Se0 3.675525 1_555
Rb1 Se1 3.675529 1_554
Rb1 Se2 3.872946 1_555
Rb1 Se3 3.872952 1_554
Rb2 Se3 3.545682 1_565
Rb2 Se2 3.545686 1_654
Rb2 Se4 3.556094 1_565
Rb2 Se5 3.556095 1_654
Rb2 Se7 3.675525 1_555
Rb2 Se6 3.675529 1_555
Rb2 Se4 3.872946 1_654
Rb2 Se5 3.872952 1_565
Rb3 Se6 3.545694 1_455
Rb3 Se7 3.545695 1_545
Rb3 Se0 3.556093 1_456
Rb3 Se1 3.556099 1_544
Rb3 Se2 3.675535 1_545
Rb3 Se3 3.675539 1_455
Rb3 Se0 3.872949 1_545
Rb3 Se1 3.872951 1_455
Li0 Se1 2.526997 1_555
Li0 Se0 2.527003 1_555
Li0 Se3 2.527005 1_555
Li0 Se2 2.527007 1_555
Li1 Se6 2.526997 1_555
Li1 Se7 2.527003 1_556
Li1 Se5 2.527005 1_565
Li1 Se4 2.527007 1_655
Se0 V0 2.282273 1_655
Se1 V0 2.282271 1_566
Se2 V0 2.282282 1_566
Se3 V0 2.282276 1_655
Se4 V1 2.282282 1_555
Se5 V1 2.282276 1_556
Se6 V1 2.282271 1_655
Se7 V1 2.282273 1_565
