# generated using pymatgen
data_TaAg4Te3O14
_symmetry_space_group_name_H-M   'P 1'
_cell_length_a   7.24487063
_cell_length_b   7.24487002
_cell_length_c   7.37517455
_cell_angle_alpha   120.08519557
_cell_angle_beta   117.95877506
_cell_angle_gamma   90.71211326
_symmetry_Int_Tables_number   1
_chemical_formula_structural   TaAg4Te3O14
_chemical_formula_sum   'Ta1 Ag4 Te3 O14'
_cell_volume   279.92775656
_cell_formula_units_Z   1
loop_
 _symmetry_equiv_pos_site_id
 _symmetry_equiv_pos_as_xyz
  1  'x, y, z'
loop_
 _atom_site_type_symbol
 _atom_site_label
 _atom_site_symmetry_multiplicity
 _atom_site_fract_x
 _atom_site_fract_y
 _atom_site_fract_z
 _atom_site_occupancy
  Ta  Ta0  1  0.50000000  0.50000000  0.50000000  1
  Ag  Ag0  1  0.00000000  0.50000000  0.50000000  1
  Ag  Ag1  1  0.50000000  0.00000000  0.50000000  1
  Ag  Ag2  1  0.00000000  0.50000000  0.00000000  1
  Ag  Ag3  1  0.00000000  0.00000000  0.50000000  1
  Te  Te0  1  0.50000000  0.50000000  0.00000000  1
  Te  Te1  1  0.00000000  0.00000000  0.00000000  1
  Te  Te2  1  0.50000000  0.00000000  0.00000000  1
  O  O0  1  0.53596500  0.42079585  0.73043976  1
  O  O1  1  0.45190166  0.18021551  0.87211127  1
  O  O2  1  0.80810324  0.07979040  0.12788873  1
  O  O3  1  0.19035609  0.30552524  0.26956024  1
  O  O4  1  0.46403500  0.57920415  0.26956024  1
  O  O5  1  0.54809834  0.81978449  0.12788873  1
  O  O6  1  0.19189676  0.92020960  0.87211127  1
  O  O7  1  0.80964391  0.69447476  0.73043976  1
  O  O8  1  0.58561131  0.24161465  0.32722596  1
  O  O9  1  0.41438869  0.75838535  0.67277404  1
  O  O10  1  0.18830566  0.42467508  0.79361183  1
  O  O11  1  0.81169434  0.57532492  0.20638817  1
  O  O12  1  0.86893575  0.10530617  0.79361183  1
  O  O13  1  0.13106425  0.89469383  0.20638817  1
loop_
_geom_bond_atom_site_label_1
_geom_bond_atom_site_label_2
_geom_bond_distance
_geom_bond_site_symmetry_2
Ag0 O10 2.298110 1_555
Ag0 O11 2.298110 1_455
Ag0 O7 2.573093 1_455
Ag0 O3 2.573093 1_555
Ag0 O6 2.583293 1_555
Ag0 O2 2.583293 1_455
Ag1 O13 2.298105 1_545
Ag1 O12 2.298105 1_555
Ag1 O0 2.573092 1_555
Ag1 O4 2.573092 1_545
Ag1 O1 2.583293 1_555
Ag1 O5 2.583293 1_545
Ag2 O10 2.368288 1_554
Ag2 O11 2.368288 1_455
Ag2 O13 2.368288 1_555
Ag2 O12 2.368288 1_454
Ag3 O10 2.542142 1_555
Ag3 O11 2.542142 1_445
Ag3 O13 2.542148 1_545
Ag3 O12 2.542148 1_455
Ag3 O1 2.798490 1_555
Ag3 O5 2.798490 1_445
Ag3 O6 2.798491 1_545
Ag3 O2 2.798491 1_455
O0 Te0 1.922300 1_556
O0 Ta0 1.962602 1_555
O1 Te2 1.911418 1_556
O1 Te0 1.964566 1_556
O2 Te2 1.911411 1_555
O2 Te1 1.964573 1_655
O3 Te1 1.922299 1_555
O3 Ta0 1.962602 1_555
O4 Te0 1.922300 1_555
O4 Ta0 1.962602 1_555
O5 Te2 1.911418 1_565
O5 Te0 1.964566 1_555
O6 Te2 1.911411 1_566
O6 Te1 1.964573 1_566
O7 Te1 1.922299 1_666
O7 Ta0 1.962602 1_555
O8 Te2 1.899255 1_555
O8 Ta0 1.972591 1_555
O9 Te2 1.899255 1_566
O9 Ta0 1.972591 1_555
O10 Te0 1.904640 1_556
O11 Te0 1.904640 1_555
O12 Te1 1.904641 1_656
O13 Te1 1.904641 1_565
