# generated using pymatgen
data_RuPt3Rh5
_symmetry_space_group_name_H-M   'P 1'
_cell_length_a   6.09343215
_cell_length_b   6.09343115
_cell_length_c   6.09343205
_cell_angle_alpha   95.69860885
_cell_angle_beta   95.68225713
_cell_angle_gamma   143.29205844
_symmetry_Int_Tables_number   1
_chemical_formula_structural   RuPt3Rh5
_chemical_formula_sum   'Ru1 Pt3 Rh5'
_cell_volume   128.35737910
_cell_formula_units_Z   1
loop_
 _symmetry_equiv_pos_site_id
 _symmetry_equiv_pos_as_xyz
  1  'x, y, z'
loop_
 _atom_site_type_symbol
 _atom_site_label
 _atom_site_symmetry_multiplicity
 _atom_site_fract_x
 _atom_site_fract_y
 _atom_site_fract_z
 _atom_site_occupancy
  Ru  Ru0  1  0.00000000  0.00375684  0.00375684  1
  Pt  Pt0  1  0.00000000  0.67130740  0.67130740  1
  Pt  Pt1  1  0.67089485  0.99826986  0.66916371  1
  Pt  Pt2  1  0.32910515  0.99826986  0.32737500  1
  Rh  Rh0  1  0.33660426  0.33825530  0.67485856  1
  Rh  Rh1  1  0.65964336  0.66342609  0.32306845  1
  Rh  Rh2  1  0.66339574  0.33825530  0.00165105  1
  Rh  Rh3  1  0.34035664  0.66342609  0.00378372  1
  Rh  Rh4  1  1.00000000  0.32503626  0.32503626  1
loop_
_geom_bond_atom_site_label_1
_geom_bond_atom_site_label_2
_geom_bond_distance
_geom_bond_site_symmetry_2
Pt0 Rh0 2.707782 1_455
Pt0 Rh2 2.707783 1_566
Pt0 Rh2 2.707783 1_456
Pt0 Rh0 2.707784 1_565
Pt0 Ru0 2.718903 1_566
Pt0 Pt1 2.763745 1_445
Pt0 Pt2 2.763747 1_445
Pt0 Pt2 2.763747 1_555
Pt0 Pt1 2.763749 1_555
Pt0 Rh3 2.784760 1_556
Pt0 Rh1 2.784760 1_455
Pt0 Rh4 2.831942 1_455
Pt1 Rh0 2.689127 1_555
Pt1 Rh0 2.689128 1_665
Pt1 Ru0 2.692355 1_666
Pt1 Rh3 2.725328 1_666
Pt1 Rh3 2.725334 1_556
Pt1 Rh1 2.740031 1_555
Pt1 Rh4 2.764563 1_565
Pt1 Rh4 2.764566 1_455
Pt1 Rh2 2.781216 1_566
Pt1 Pt2 2.795728 1_555
Pt2 Rh2 2.689128 1_455
Pt2 Rh2 2.689128 1_565
Pt2 Ru0 2.692350 1_565
Pt2 Rh1 2.725322 1_455
Pt2 Rh1 2.725324 1_565
Pt2 Rh3 2.740027 1_555
Pt2 Rh4 2.764568 1_455
Pt2 Rh4 2.764569 1_565
Pt2 Rh0 2.781208 1_565
Rh0 Rh3 2.659561 1_556
Rh0 Rh2 2.673055 1_556
Rh0 Ru0 2.701841 1_666
Rh0 Ru0 2.701843 1_556
Rh0 Rh4 2.755434 1_455
Rh0 Rh1 2.796635 1_445
Rh0 Rh1 2.796635 1_555
Rh1 Rh3 2.611657 1_555
Rh1 Rh2 2.659548 1_555
Rh1 Ru0 2.663071 1_665
Rh1 Ru0 2.663074 1_555
Rh1 Rh4 2.670894 1_565
Rh1 Rh4 2.670898 1_455
Rh2 Ru0 2.701837 1_665
Rh2 Ru0 2.701838 1_555
Rh2 Rh4 2.755438 1_555
Rh2 Rh3 2.796634 1_655
Rh2 Rh3 2.796636 1_545
Rh3 Ru0 2.663075 1_555
Rh3 Ru0 2.663078 1_665
Rh3 Rh4 2.670891 1_455
Rh3 Rh4 2.670893 1_565
Rh4 Ru0 2.627550 1_655
