# generated using pymatgen
data_AcClO
_symmetry_space_group_name_H-M   'P 1'
_cell_length_a   4.25922539
_cell_length_b   4.25922539
_cell_length_c   7.12271631
_cell_angle_alpha   90.00000000
_cell_angle_beta   90.00000000
_cell_angle_gamma   90.00000000
_symmetry_Int_Tables_number   1
_chemical_formula_structural   AcClO
_chemical_formula_sum   'Ac2 Cl2 O2'
_cell_volume   129.21320315
_cell_formula_units_Z   2
loop_
 _symmetry_equiv_pos_site_id
 _symmetry_equiv_pos_as_xyz
  1  'x, y, z'
loop_
 _atom_site_type_symbol
 _atom_site_label
 _atom_site_symmetry_multiplicity
 _atom_site_fract_x
 _atom_site_fract_y
 _atom_site_fract_z
 _atom_site_occupancy
  Ac  Ac0  1  0.75000000  0.75000000  0.82249259  1
  Ac  Ac1  1  0.25000000  0.25000000  0.17750741  1
  Cl  Cl0  1  0.25000000  0.25000000  0.63170585  1
  Cl  Cl1  1  0.75000000  0.75000000  0.36829415  1
  O  O0  1  0.75000000  0.25000000  -0.00000000  1
  O  O1  1  0.25000000  0.75000000  0.00000000  1
loop_
_geom_bond_atom_site_label_1
_geom_bond_atom_site_label_2
_geom_bond_distance
_geom_bond_site_symmetry_2
Ac0 O1 2.476650 1_556
Ac0 O0 2.476650 1_566
Ac0 O1 2.476650 1_656
Ac0 O0 2.476650 1_556
Ac0 Cl1 3.235127 1_555
Ac0 Cl0 3.304113 1_555
Ac0 Cl0 3.304113 1_655
Ac0 Cl0 3.304113 1_565
Ac0 Cl0 3.304113 1_665
Ac1 O0 2.476650 1_455
Ac1 O1 2.476650 1_545
Ac1 O0 2.476650 1_555
Ac1 O1 2.476650 1_555
Ac1 Cl0 3.235127 1_555
Ac1 Cl1 3.304113 1_455
Ac1 Cl1 3.304113 1_555
Ac1 Cl1 3.304113 1_545
Ac1 Cl1 3.304113 1_445
