# generated using pymatgen
data_Ir4Pt(RhS3)4
_symmetry_space_group_name_H-M   'P 1'
_cell_length_a   7.55599312
_cell_length_b   7.54694433
_cell_length_c   6.29383969
_cell_angle_alpha   77.13992004
_cell_angle_beta   76.99929384
_cell_angle_gamma   91.75179056
_symmetry_Int_Tables_number   1
_chemical_formula_structural   Ir4Pt(RhS3)4
_chemical_formula_sum   'Ir4 Pt1 Rh4 S12'
_cell_volume   339.70189753
_cell_formula_units_Z   1
loop_
 _symmetry_equiv_pos_site_id
 _symmetry_equiv_pos_as_xyz
  1  'x, y, z'
loop_
 _atom_site_type_symbol
 _atom_site_label
 _atom_site_symmetry_multiplicity
 _atom_site_fract_x
 _atom_site_fract_y
 _atom_site_fract_z
 _atom_site_occupancy
  Ir  Ir0  1  0.16324504  0.83881826  0.99942139  1
  Ir  Ir1  1  0.83865254  0.16165428  0.00042328  1
  Ir  Ir2  1  0.00149898  0.00130839  0.49921564  1
  Ir  Ir3  1  0.34881426  0.34873583  0.94537560  1
  Pt  Pt0  1  0.77388357  0.49006126  0.45219917  1
  Rh  Rh0  1  0.65017852  0.64848760  0.05604796  1
  Rh  Rh1  1  0.50871553  0.21985761  0.54845374  1
  Rh  Rh2  1  0.21986051  0.51097771  0.54894372  1
  Rh  Rh3  1  0.48797114  0.77880206  0.45213070  1
  S  S0  1  0.85705401  0.43965774  0.09556571  1
  S  S1  1  0.56004383  0.14124797  0.90024412  1
  S  S2  1  0.14523196  0.56153448  0.89732837  1
  S  S3  1  0.43982739  0.85525605  0.10270895  1
  S  S4  1  0.11658050  0.11656871  0.10928658  1
  S  S5  1  0.88518476  0.88407672  0.89058730  1
  S  S6  1  0.03494250  0.71863200  0.38707749  1
  S  S7  1  0.28683798  0.96980649  0.61059303  1
  S  S8  1  0.97102253  0.28314753  0.61279110  1
  S  S9  1  0.57993479  0.58617511  0.73537008  1
  S  S10  1  0.41370662  0.41473496  0.26859403  1
  S  S11  1  0.71681702  0.03046224  0.38764104  1
loop_
_geom_bond_atom_site_label_1
_geom_bond_atom_site_label_2
_geom_bond_distance
_geom_bond_site_symmetry_2
Ir0 S2 2.330464 1_555
Ir0 S3 2.331690 1_556
Ir0 S4 2.361584 1_566
Ir0 S5 2.363770 1_455
Ir0 S6 2.369032 1_556
Ir0 S7 2.382576 1_555
Ir1 S0 2.314889 1_555
Ir1 S1 2.339570 1_554
Ir1 S5 2.360140 1_544
Ir1 S4 2.362756 1_655
Ir1 S11 2.372320 1_555
Ir1 S8 2.375599 1_554
Ir2 S4 2.361984 1_555
Ir2 S5 2.372975 1_445
Ir2 S8 2.391848 1_455
Ir2 S6 2.395013 1_545
Ir2 S11 2.410056 1_455
Ir2 S7 2.415260 1_545
Ir3 S2 2.276188 1_555
Ir3 S1 2.286246 1_555
Ir3 S4 2.325162 1_556
Ir3 S10 2.347707 1_556
Ir3 S9 2.392407 1_555
Pt0 S9 2.305528 1_555
Pt0 S0 2.310382 1_555
Pt0 S8 2.407481 1_555
Pt0 S6 2.479540 1_655
Rh0 S0 2.267204 1_555
Rh0 S3 2.278852 1_555
Rh0 S9 2.337861 1_554
Rh0 S5 2.355755 1_554
Rh0 S10 2.403243 1_555
Rh1 S1 2.284815 1_555
Rh1 S10 2.293737 1_555
Rh1 S11 2.367550 1_555
Rh1 S7 2.389118 1_545
Rh2 S2 2.258462 1_555
Rh2 S10 2.293257 1_555
Rh2 S6 2.347287 1_555
Rh2 S8 2.409967 1_455
Rh3 S3 2.260460 1_555
Rh3 S9 2.289020 1_555
Rh3 S7 2.339705 1_555
Rh3 S11 2.429448 1_565
S0 S2 2.299663 1_654
S1 S3 2.289647 1_546
