# generated using pymatgen
data_Cs6As4W
_symmetry_space_group_name_H-M   'P 1'
_cell_length_a   11.02748423
_cell_length_b   11.02748504
_cell_length_c   8.95920763
_cell_angle_alpha   89.99712170
_cell_angle_beta   89.99712622
_cell_angle_gamma   120.00062078
_symmetry_Int_Tables_number   1
_chemical_formula_structural   Cs6As4W
_chemical_formula_sum   'Cs12 As8 W2'
_cell_volume   943.51853707
_cell_formula_units_Z   2
loop_
 _symmetry_equiv_pos_site_id
 _symmetry_equiv_pos_as_xyz
  1  'x, y, z'
loop_
 _atom_site_type_symbol
 _atom_site_label
 _atom_site_symmetry_multiplicity
 _atom_site_fract_x
 _atom_site_fract_y
 _atom_site_fract_z
 _atom_site_occupancy
  Cs  Cs0  1  0.46394857  0.53587404  0.60480516  1
  Cs  Cs1  1  0.07161978  0.53588875  0.60524993  1
  Cs  Cs2  1  0.53587404  0.46394857  0.10480516  1
  Cs  Cs3  1  0.53588875  0.07161978  0.10524993  1
  Cs  Cs4  1  0.85313639  0.14627913  0.79071564  1
  Cs  Cs5  1  0.29378767  0.14685229  0.79127830  1
  Cs  Cs6  1  0.85366777  0.70754126  0.79018045  1
  Cs  Cs7  1  0.14627913  0.85313639  0.29071564  1
  Cs  Cs8  1  0.70754126  0.85366777  0.29018045  1
  Cs  Cs9  1  0.14685229  0.29378767  0.29127830  1
  Cs  Cs10  1  0.46375878  0.92756590  0.60448474  1
  Cs  Cs11  1  0.92756590  0.46375878  0.10448474  1
  As  As0  1  0.66714170  0.33370610  0.76994383  1
  As  As1  1  0.33370610  0.66714170  0.26994383  1
  As  As2  1  0.21333669  0.78665149  0.91646168  1
  As  As3  1  0.57327888  0.78659495  0.91602792  1
  As  As4  1  0.21321630  0.42645753  0.91647125  1
  As  As5  1  0.78665149  0.21333669  0.41646168  1
  As  As6  1  0.42645753  0.21321630  0.41647125  1
  As  As7  1  0.78659495  0.57327888  0.41602792  1
  W  W0  1  0.66648570  0.33320631  0.50158211  1
  W  W1  1  0.33320631  0.66648570  0.00158211  1
loop_
_geom_bond_atom_site_label_1
_geom_bond_atom_site_label_2
_geom_bond_distance
_geom_bond_site_symmetry_2
As0 W0 2.404318 1_555
As0 Cs5 3.570643 1_555
As0 Cs4 3.571080 1_555
As0 Cs6 3.574753 1_555
As0 Cs11 3.894880 1_556
As0 Cs2 3.903568 1_556
As0 Cs3 3.909966 1_556
As0 Cs1 4.134878 1_655
As0 Cs0 4.144335 1_555
As0 Cs10 4.152394 1_545
As1 W1 2.404318 1_555
As1 Cs9 3.570643 1_555
As1 Cs7 3.571080 1_555
As1 Cs8 3.574753 1_555
As1 Cs10 3.894880 1_555
As1 Cs0 3.903568 1_555
As1 Cs1 3.909966 1_555
As1 Cs3 4.134878 1_565
As1 Cs2 4.144335 1_555
As1 Cs11 4.152394 1_455
As2 W1 2.415888 1_556
As2 Cs7 3.587374 1_556
As2 Cs1 3.680053 1_555
As2 Cs10 3.682473 1_555
As2 Cs3 3.769765 1_566
As2 Cs11 3.771582 1_456
As2 Cs5 3.781273 1_565
As2 Cs6 3.783193 1_455
As3 W1 2.417370 1_556
As3 Cs8 3.589074 1_556
As3 Cs0 3.679693 1_555
As3 Cs10 3.680131 1_555
As3 Cs3 3.770882 1_566
As3 Cs2 3.771144 1_556
As3 Cs4 3.778250 1_565
As3 Cs6 3.779796 1_555
As4 W1 2.415838 1_556
As4 Cs9 3.588947 1_556
As4 Cs1 3.681495 1_555
As4 Cs0 3.682430 1_555
As4 Cs2 3.769309 1_556
As4 Cs11 3.771524 1_456
As4 Cs5 3.780785 1_555
As4 Cs4 3.783474 1_455
As5 W0 2.415888 1_555
As5 Cs4 3.587374 1_555
As5 Cs3 3.680053 1_555
As5 Cs11 3.682473 1_555
As5 Cs1 3.769765 1_655
As5 Cs10 3.771582 1_545
As5 Cs9 3.781273 1_655
As5 Cs8 3.783194 1_545
As6 W0 2.415838 1_555
As6 Cs5 3.588947 1_555
As6 Cs3 3.681495 1_555
As6 Cs2 3.682430 1_555
As6 Cs0 3.769310 1_555
As6 Cs10 3.771524 1_545
As6 Cs9 3.780784 1_555
As6 Cs7 3.783474 1_545
As7 W0 2.417370 1_555
As7 Cs6 3.589074 1_555
As7 Cs2 3.679693 1_555
As7 Cs11 3.680131 1_555
As7 Cs1 3.770882 1_655
As7 Cs0 3.771144 1_555
As7 Cs7 3.778250 1_655
As7 Cs8 3.779796 1_555
