# generated using pymatgen
data_Sr(NbS2)3
_symmetry_space_group_name_H-M   'P 1'
_cell_length_a   5.86599238
_cell_length_b   5.86599176
_cell_length_c   15.08118632
_cell_angle_alpha   90.00000000
_cell_angle_beta   90.00000000
_cell_angle_gamma   119.99999213
_symmetry_Int_Tables_number   1
_chemical_formula_structural   Sr(NbS2)3
_chemical_formula_sum   'Sr2 Nb6 S12'
_cell_volume   449.41660503
_cell_formula_units_Z   2
loop_
 _symmetry_equiv_pos_site_id
 _symmetry_equiv_pos_as_xyz
  1  'x, y, z'
loop_
 _atom_site_type_symbol
 _atom_site_label
 _atom_site_symmetry_multiplicity
 _atom_site_fract_x
 _atom_site_fract_y
 _atom_site_fract_z
 _atom_site_occupancy
  Sr  Sr0  1  0.00000000  0.00000000  0.50000000  1
  Sr  Sr1  1  0.00000000  0.00000000  0.00000000  1
  Nb  Nb0  1  0.00000000  0.00000000  0.25000000  1
  Nb  Nb1  1  0.00000000  0.00000000  0.75000000  1
  Nb  Nb2  1  0.33333300  0.66666700  0.25000000  1
  Nb  Nb3  1  0.66666700  0.33333300  0.75000000  1
  Nb  Nb4  1  0.66666700  0.33333300  0.25000000  1
  Nb  Nb5  1  0.33333300  0.66666700  0.75000000  1
  S  S0  1  0.33613325  0.00000000  0.14692773  1
  S  S1  1  1.00000000  0.33613325  0.14692773  1
  S  S2  1  0.66386675  0.66386675  0.14692773  1
  S  S3  1  0.33613325  0.33613325  0.64692773  1
  S  S4  1  0.66386675  0.66386675  0.35307227  1
  S  S5  1  0.66386675  0.00000000  0.64692773  1
  S  S6  1  0.00000000  0.66386675  0.64692773  1
  S  S7  1  0.00000000  0.66386675  0.85307227  1
  S  S8  1  0.33613325  0.33613325  0.85307227  1
  S  S9  1  1.00000000  0.33613325  0.35307227  1
  S  S10  1  0.33613325  0.00000000  0.35307227  1
  S  S11  1  0.66386675  0.00000000  0.85307227  1
loop_
_geom_bond_atom_site_label_1
_geom_bond_atom_site_label_2
_geom_bond_distance
_geom_bond_site_symmetry_2
Nb0 S9 2.510804 1_455
Nb0 S1 2.510804 1_455
Nb0 S10 2.510805 1_555
Nb0 S0 2.510805 1_555
Nb0 S4 2.510805 1_445
Nb0 S2 2.510805 1_445
Nb1 S7 2.510804 1_545
Nb1 S6 2.510804 1_545
Nb1 S11 2.510805 1_455
Nb1 S5 2.510805 1_455
Nb1 S8 2.510805 1_555
Nb1 S3 2.510805 1_555
Nb2 S10 2.491542 1_565
Nb2 S0 2.491542 1_565
Nb2 S9 2.491545 1_455
Nb2 S1 2.491545 1_455
Nb2 S4 2.491547 1_555
Nb2 S2 2.491547 1_555
Nb3 S11 2.491542 1_555
Nb3 S5 2.491542 1_555
Nb3 S7 2.491545 1_655
Nb3 S6 2.491545 1_655
Nb3 S8 2.491547 1_555
Nb3 S3 2.491547 1_555
Nb4 S9 2.491542 1_555
Nb4 S1 2.491542 1_555
Nb4 S10 2.491545 1_555
Nb4 S0 2.491545 1_555
Nb4 S4 2.491547 1_555
Nb4 S2 2.491547 1_555
Nb5 S7 2.491542 1_555
Nb5 S6 2.491542 1_555
Nb5 S11 2.491545 1_565
Nb5 S5 2.491545 1_565
Nb5 S8 2.491547 1_555
Nb5 S3 2.491547 1_555
S0 Sr1 2.966106 1_555
S1 Sr1 2.966106 1_655
S2 Sr1 2.966106 1_665
S3 Sr0 2.966106 1_555
S4 Sr0 2.966106 1_665
S5 Sr0 2.966106 1_655
S6 Sr0 2.966106 1_565
S7 Sr1 2.966106 1_566
S8 Sr1 2.966106 1_556
S9 Sr0 2.966106 1_655
S10 Sr0 2.966106 1_555
S11 Sr1 2.966106 1_656
