# generated using pymatgen
data_Ta2MnF12
_symmetry_space_group_name_H-M   'P 1'
_cell_length_a   5.10942705
_cell_length_b   5.49112214
_cell_length_c   8.90404397
_cell_angle_alpha   74.14607199
_cell_angle_beta   89.50415192
_cell_angle_gamma   63.31539769
_symmetry_Int_Tables_number   1
_chemical_formula_structural   Ta2MnF12
_chemical_formula_sum   'Ta2 Mn1 F12'
_cell_volume   212.82026566
_cell_formula_units_Z   1
loop_
 _symmetry_equiv_pos_site_id
 _symmetry_equiv_pos_as_xyz
  1  'x, y, z'
loop_
 _atom_site_type_symbol
 _atom_site_label
 _atom_site_symmetry_multiplicity
 _atom_site_fract_x
 _atom_site_fract_y
 _atom_site_fract_z
 _atom_site_occupancy
  Ta  Ta0  1  0.76765182  0.01549837  0.22763633  1
  Ta  Ta1  1  0.23234818  0.98450163  0.77236367  1
  Mn  Mn0  1  0.50000000  0.50000000  0.50000000  1
  F  F0  1  0.95150358  0.24669502  0.20425512  1
  F  F1  1  0.04849642  0.75330498  0.79574488  1
  F  F2  1  0.03319317  0.76554753  0.12865648  1
  F  F3  1  0.47946146  0.76600532  0.63586884  1
  F  F4  1  0.52053854  0.23399468  0.36413116  1
  F  F5  1  0.95319894  0.23669379  0.57445550  1
  F  F6  1  0.04680106  0.76330621  0.42554450  1
  F  F7  1  0.41986728  0.23183918  0.69512964  1
  F  F8  1  0.58013272  0.76816082  0.30487036  1
  F  F9  1  0.51905130  0.76806280  0.94665364  1
  F  F10  1  0.48094870  0.23193720  0.05334636  1
  F  F11  1  0.96680683  0.23445247  0.87134352  1
loop_
_geom_bond_atom_site_label_1
_geom_bond_atom_site_label_2
_geom_bond_distance
_geom_bond_site_symmetry_2
F0 Ta0 1.860322 1_555
F1 Ta1 1.860322 1_555
F2 Ta0 1.862526 1_465
F3 Ta1 1.979980 1_555
F3 Mn0 2.105648 1_555
F4 Ta0 1.979980 1_555
F4 Mn0 2.105648 1_555
F5 Ta1 1.998377 1_645
F5 Mn0 2.094699 1_555
F6 Ta0 1.998377 1_465
F6 Mn0 2.094699 1_555
F7 Ta1 1.970417 1_545
F7 Mn0 2.118008 1_555
F8 Ta0 1.970417 1_565
F8 Mn0 2.118008 1_555
F9 Ta1 1.853288 1_555
F10 Ta0 1.853288 1_555
F11 Ta1 1.862526 1_645
