# generated using pymatgen
data_LiSc(PS3)2
_symmetry_space_group_name_H-M   'P 1'
_cell_length_a   6.13238563
_cell_length_b   6.13238680
_cell_length_c   13.44914998
_cell_angle_alpha   90.00000000
_cell_angle_beta   90.00000000
_cell_angle_gamma   119.99998840
_symmetry_Int_Tables_number   1
_chemical_formula_structural   LiSc(PS3)2
_chemical_formula_sum   'Li2 Sc2 P4 S12'
_cell_volume   438.01049486
_cell_formula_units_Z   2
loop_
 _symmetry_equiv_pos_site_id
 _symmetry_equiv_pos_as_xyz
  1  'x, y, z'
loop_
 _atom_site_type_symbol
 _atom_site_label
 _atom_site_symmetry_multiplicity
 _atom_site_fract_x
 _atom_site_fract_y
 _atom_site_fract_z
 _atom_site_occupancy
  Li  Li0  1  0.33333300  0.66666700  0.75000000  1
  Li  Li1  1  0.66666700  0.33333300  0.25000000  1
  Sc  Sc0  1  0.00000000  0.00000000  0.75000000  1
  Sc  Sc1  1  0.00000000  0.00000000  0.25000000  1
  P  P0  1  0.66666700  0.33333300  0.66888799  1
  P  P1  1  0.66666700  0.33333300  0.83111201  1
  P  P2  1  0.33333300  0.66666700  0.33111201  1
  P  P3  1  0.33333300  0.66666700  0.16888799  1
  S  S0  1  0.97921733  0.32141677  0.87078519  1
  S  S1  1  0.34219944  0.32141677  0.62921481  1
  S  S2  1  0.97921733  0.65780056  0.62921481  1
  S  S3  1  0.67858323  0.02078267  0.62921481  1
  S  S4  1  0.32141677  0.34219944  0.12921481  1
  S  S5  1  0.65780056  0.97921733  0.12921481  1
  S  S6  1  0.02078267  0.67858323  0.12921481  1
  S  S7  1  0.65780056  0.67858323  0.37078519  1
  S  S8  1  0.02078267  0.34219944  0.37078519  1
  S  S9  1  0.32141677  0.97921733  0.37078519  1
  S  S10  1  0.67858323  0.65780056  0.87078519  1
  S  S11  1  0.34219944  0.02078267  0.87078519  1
loop_
_geom_bond_atom_site_label_1
_geom_bond_atom_site_label_2
_geom_bond_distance
_geom_bond_site_symmetry_2
Li0 S2 2.690628 1_455
Li0 S11 2.690629 1_565
Li0 S0 2.690631 1_455
Li0 S3 2.690631 1_565
Li0 S10 2.690633 1_555
Li0 S1 2.690633 1_555
Li1 S8 2.690628 1_655
Li1 S5 2.690629 1_545
Li1 S6 2.690631 1_655
Li1 S9 2.690631 1_545
Li1 S4 2.690633 1_555
Li1 S7 2.690633 1_555
P0 S3 2.025774 1_555
P0 S2 2.025777 1_555
P0 S1 2.025779 1_555
P0 P1 2.181775 1_555
P1 S0 2.025773 1_555
P1 S11 2.025777 1_555
P1 S10 2.025780 1_555
P2 S9 2.025774 1_555
P2 S8 2.025777 1_555
P2 S7 2.025779 1_555
P2 P3 2.181775 1_555
P3 S6 2.025773 1_555
P3 S5 2.025777 1_555
P3 S4 2.025780 1_555
S0 Sc0 2.606023 1_655
S1 Sc0 2.606024 1_555
S2 Sc0 2.606024 1_665
S3 Sc0 2.606023 1_655
S4 Sc1 2.606024 1_555
S5 Sc1 2.606023 1_665
S6 Sc1 2.606023 1_565
S7 Sc1 2.606024 1_665
S8 Sc1 2.606024 1_555
S9 Sc1 2.606023 1_565
S10 Sc0 2.606024 1_665
S11 Sc0 2.606023 1_555
