# generated using pymatgen
data_Zr4Co6Si6Ir
_symmetry_space_group_name_H-M   'P 1'
_cell_length_a   6.69032869
_cell_length_b   6.69032841
_cell_length_c   6.69032858
_cell_angle_alpha   109.47122410
_cell_angle_beta   109.47122324
_cell_angle_gamma   109.47122307
_symmetry_Int_Tables_number   1
_chemical_formula_structural   Zr4Co6Si6Ir
_chemical_formula_sum   'Zr4 Co6 Si6 Ir1'
_cell_volume   230.52625902
_cell_formula_units_Z   1
loop_
 _symmetry_equiv_pos_site_id
 _symmetry_equiv_pos_as_xyz
  1  'x, y, z'
loop_
 _atom_site_type_symbol
 _atom_site_label
 _atom_site_symmetry_multiplicity
 _atom_site_fract_x
 _atom_site_fract_y
 _atom_site_fract_z
 _atom_site_occupancy
  Zr  Zr0  1  0.00000000  0.00000000  0.50000000  1
  Zr  Zr1  1  0.00000000  0.50000000  0.00000000  1
  Zr  Zr2  1  0.50000000  0.00000000  0.00000000  1
  Zr  Zr3  1  0.50000000  0.50000000  0.50000000  1
  Co  Co0  1  0.75000000  0.25000000  0.50000000  1
  Co  Co1  1  0.75000000  0.50000000  0.25000000  1
  Co  Co2  1  0.50000000  0.25000000  0.75000000  1
  Co  Co3  1  0.25000000  0.50000000  0.75000000  1
  Co  Co4  1  0.25000000  0.75000000  0.50000000  1
  Co  Co5  1  0.50000000  0.75000000  0.25000000  1
  Si  Si0  1  0.66912883  0.66912883  1.00000000  1
  Si  Si1  1  0.33087117  0.00000000  0.33087117  1
  Si  Si2  1  0.00000000  0.33087117  0.33087117  1
  Si  Si3  1  0.33087117  0.33087117  0.00000000  1
  Si  Si4  1  0.66912883  1.00000000  0.66912883  1
  Si  Si5  1  1.00000000  0.66912883  0.66912883  1
  Ir  Ir0  1  0.00000000  0.00000000  0.00000000  1
loop_
_geom_bond_atom_site_label_1
_geom_bond_atom_site_label_2
_geom_bond_distance
_geom_bond_site_symmetry_2
Co0 Si5 2.331776 1_555
Co0 Si1 2.331776 1_555
Co0 Si4 2.331776 1_545
Co0 Si2 2.331776 1_655
Co0 Zr1 2.731315 1_656
Co0 Zr2 2.731315 1_555
Co0 Zr3 2.731315 1_555
Co0 Zr0 2.731315 1_655
Co1 Si5 2.331776 1_555
Co1 Si3 2.331776 1_555
Co1 Si0 2.331776 1_554
Co1 Si2 2.331776 1_655
Co1 Zr0 2.731315 1_665
Co1 Zr2 2.731315 1_555
Co1 Zr1 2.731315 1_655
Co1 Zr3 2.731315 1_555
Co2 Si0 2.331776 1_555
Co2 Si1 2.331776 1_555
Co2 Si4 2.331776 1_545
Co2 Si3 2.331776 1_556
Co2 Zr1 2.731315 1_656
Co2 Zr0 2.731315 1_555
Co2 Zr2 2.731315 1_556
Co2 Zr3 2.731315 1_555
Co3 Si2 2.331776 1_555
Co3 Si0 2.331776 1_555
Co3 Si3 2.331776 1_556
Co3 Si5 2.331776 1_455
Co3 Zr2 2.731315 1_566
Co3 Zr0 2.731315 1_555
Co3 Zr3 2.731315 1_555
Co3 Zr1 2.731315 1_556
Co4 Si2 2.331776 1_555
Co4 Si4 2.331776 1_555
Co4 Si1 2.331776 1_565
Co4 Si5 2.331776 1_455
Co4 Zr1 2.731315 1_555
Co4 Zr2 2.731315 1_566
Co4 Zr3 2.731315 1_555
Co4 Zr0 2.731315 1_565
Co5 Si3 2.331776 1_555
Co5 Si4 2.331776 1_555
Co5 Si1 2.331776 1_565
Co5 Si0 2.331776 1_554
Co5 Zr1 2.731315 1_555
Co5 Zr0 2.731315 1_665
Co5 Zr3 2.731315 1_555
Co5 Zr2 2.731315 1_565
Si0 Zr0 2.801857 1_666
Si0 Zr3 2.801857 1_555
Si0 Zr2 2.801857 1_566
Si0 Zr1 2.801857 1_656
Si1 Zr1 2.801857 1_545
Si1 Zr3 2.801857 1_555
Si1 Zr2 2.801857 1_555
Si1 Zr0 2.801857 1_555
Si2 Zr2 2.801857 1_455
Si2 Zr3 2.801857 1_555
Si2 Zr0 2.801857 1_555
Si2 Zr1 2.801857 1_555
Si3 Zr0 2.801857 1_554
Si3 Zr3 2.801857 1_555
Si3 Zr2 2.801857 1_555
Si3 Zr1 2.801857 1_555
Si4 Zr1 2.801857 1_666
Si4 Zr3 2.801857 1_555
Si4 Zr2 2.801857 1_566
Si4 Zr0 2.801857 1_665
Si5 Zr2 2.801857 1_666
Si5 Zr3 2.801857 1_555
Si5 Zr0 2.801857 1_665
Si5 Zr1 2.801857 1_656
Ir0 Si2 2.556087 1_555
Ir0 Si5 2.556087 1_444
Ir0 Si3 2.556088 1_555
Ir0 Si0 2.556088 1_444
Ir0 Si1 2.556088 1_555
Ir0 Si4 2.556088 1_444
