# generated using pymatgen
data_BaLuIO6
_symmetry_space_group_name_H-M   'P 1'
_cell_length_a   5.51903009
_cell_length_b   5.51902977
_cell_length_c   5.62235598
_cell_angle_alpha   90.00000000
_cell_angle_beta   90.00000000
_cell_angle_gamma   119.99999612
_symmetry_Int_Tables_number   1
_chemical_formula_structural   BaLuIO6
_chemical_formula_sum   'Ba1 Lu1 I1 O6'
_cell_volume   148.31138394
_cell_formula_units_Z   1
loop_
 _symmetry_equiv_pos_site_id
 _symmetry_equiv_pos_as_xyz
  1  'x, y, z'
loop_
 _atom_site_type_symbol
 _atom_site_label
 _atom_site_symmetry_multiplicity
 _atom_site_fract_x
 _atom_site_fract_y
 _atom_site_fract_z
 _atom_site_occupancy
  Ba  Ba0  1  0.00000000  0.00000000  0.00000000  1
  Lu  Lu0  1  0.66666600  0.33333300  0.50000000  1
  I  I0  1  0.33333300  0.66666600  0.50000000  1
  O  O0  1  0.04144690  0.40121357  0.30791111  1
  O  O1  1  0.59878543  0.64023333  0.30791111  1
  O  O2  1  0.35976767  0.95855210  0.30791111  1
  O  O3  1  0.35976667  0.40121357  0.69208989  1
  O  O4  1  0.04144790  0.64023333  0.69208989  1
  O  O5  1  0.59878543  0.95855210  0.69208989  1
loop_
_geom_bond_atom_site_label_1
_geom_bond_atom_site_label_2
_geom_bond_distance
_geom_bond_site_symmetry_2
Ba0 O3 2.728729 1_554
Ba0 O4 2.728731 1_544
Ba0 O5 2.728731 1_444
Ba0 O0 2.728732 1_555
Ba0 O1 2.728735 1_445
Ba0 O2 2.728739 1_545
Lu0 O2 2.193218 1_545
Lu0 O3 2.193219 1_555
Lu0 O1 2.193221 1_555
Lu0 O0 2.193221 1_655
Lu0 O5 2.193224 1_545
Lu0 O4 2.193227 1_655
I0 O1 1.883542 1_555
I0 O2 1.883543 1_555
I0 O0 1.883545 1_555
I0 O4 1.883545 1_555
I0 O3 1.883548 1_555
I0 O5 1.883548 1_555
