# generated using pymatgen
data_Sr4Bi2Te
_symmetry_space_group_name_H-M   'P 1'
_cell_length_a   8.78454513
_cell_length_b   8.78501384
_cell_length_c   8.77326872
_cell_angle_alpha   109.44265501
_cell_angle_beta   109.44595800
_cell_angle_gamma   109.50011251
_symmetry_Int_Tables_number   1
_chemical_formula_structural   Sr4Bi2Te
_chemical_formula_sum   'Sr8 Bi4 Te2'
_cell_volume   521.35644611
_cell_formula_units_Z   2
loop_
 _symmetry_equiv_pos_site_id
 _symmetry_equiv_pos_as_xyz
  1  'x, y, z'
loop_
 _atom_site_type_symbol
 _atom_site_label
 _atom_site_symmetry_multiplicity
 _atom_site_fract_x
 _atom_site_fract_y
 _atom_site_fract_z
 _atom_site_occupancy
  Sr  Sr0  1  0.49373052  0.99542198  0.63664785  1
  Sr  Sr1  1  0.14685770  0.50116503  0.99880734  1
  Sr  Sr2  1  0.36971686  0.36659342  0.36234929  1
  Sr  Sr3  1  0.00448709  0.14481387  0.50867340  1
  Sr  Sr4  1  0.85314230  0.85430733  0.85194964  1
  Sr  Sr5  1  0.99551291  0.64032677  0.50418631  1
  Sr  Sr6  1  0.50626948  0.00169146  0.14291732  1
  Sr  Sr7  1  0.63028314  0.49687757  0.99263243  1
  Bi  Bi0  1  0.37456347  0.62841676  0.74716664  1
  Bi  Bi1  1  0.24944597  0.12189707  0.87793296  1
  Bi  Bi2  1  0.75055403  0.37245110  0.62848799  1
  Bi  Bi3  1  0.62543653  0.75385229  0.37260317  1
  Te  Te0  1  0.88215212  0.25216874  0.12889938  1
  Te  Te1  1  0.11784788  0.87001662  0.24674626  1
loop_
_geom_bond_atom_site_label_1
_geom_bond_atom_site_label_2
_geom_bond_distance
_geom_bond_site_symmetry_2
Sr0 Te1 3.370435 1_555
Sr0 Te0 3.734477 1_566
Sr1 Te1 3.394782 1_556
Sr1 Te0 3.395282 1_456
Sr2 Te0 3.669314 1_455
Sr2 Te1 3.751176 1_545
Sr3 Te1 3.396418 1_545
Sr3 Te0 3.678331 1_455
Sr4 Te0 3.394785 1_566
Sr4 Te1 3.395276 1_656
Sr5 Te0 3.396413 1_555
Sr5 Te1 3.678339 1_655
Sr6 Te0 3.370430 1_555
Sr6 Te1 3.734471 1_545
Sr7 Te1 3.669312 1_656
Sr7 Te0 3.751187 1_556
Bi0 Sr7 3.344841 1_555
Bi0 Sr5 3.361182 1_455
Bi0 Sr6 3.370398 1_566
Bi0 Sr2 3.370417 1_555
Bi0 Sr0 3.596502 1_555
Bi0 Sr4 3.619389 1_555
Bi0 Sr1 3.635297 1_555
Bi0 Sr3 3.650790 1_555
Bi1 Sr3 3.353784 1_555
Bi1 Sr7 3.354202 1_555
Bi1 Sr6 3.367835 1_556
Bi1 Sr4 3.368835 1_445
Bi1 Sr2 3.634708 1_556
Bi1 Sr5 3.635945 1_445
Bi1 Sr1 3.650594 1_555
Bi1 Sr0 3.656674 1_545
Bi2 Sr5 3.353790 1_555
Bi2 Sr2 3.354200 1_555
Bi2 Sr0 3.367830 1_545
Bi2 Sr1 3.368831 1_655
Bi2 Sr7 3.634701 1_555
Bi2 Sr3 3.635947 1_655
Bi2 Sr4 3.650593 1_555
Bi2 Sr6 3.656680 1_555
Bi3 Sr2 3.344841 1_555
Bi3 Sr3 3.361187 1_665
Bi3 Sr0 3.370402 1_555
Bi3 Sr7 3.370411 1_554
Bi3 Sr6 3.596510 1_565
Bi3 Sr1 3.619390 1_554
Bi3 Sr4 3.635295 1_555
Bi3 Sr5 3.650784 1_555
