# generated using pymatgen
data_Sc3Co2Ge3
_symmetry_space_group_name_H-M   'P 1'
_cell_length_a   5.34826585
_cell_length_b   5.34826585
_cell_length_c   13.29105600
_cell_angle_alpha   90.00000000
_cell_angle_beta   90.00000000
_cell_angle_gamma   135.60050858
_symmetry_Int_Tables_number   1
_chemical_formula_structural   Sc3Co2Ge3
_chemical_formula_sum   'Sc6 Co4 Ge6'
_cell_volume   265.99326752
_cell_formula_units_Z   2
loop_
 _symmetry_equiv_pos_site_id
 _symmetry_equiv_pos_as_xyz
  1  'x, y, z'
loop_
 _atom_site_type_symbol
 _atom_site_label
 _atom_site_symmetry_multiplicity
 _atom_site_fract_x
 _atom_site_fract_y
 _atom_site_fract_z
 _atom_site_occupancy
  Sc  Sc0  1  0.57996600  0.42003400  0.88945100  1
  Sc  Sc1  1  0.42003400  0.57996600  0.11054900  1
  Sc  Sc2  1  0.42003400  0.57996600  0.38945100  1
  Sc  Sc3  1  0.57996600  0.42003400  0.61054900  1
  Sc  Sc4  1  0.85343100  0.14656900  0.75000000  1
  Sc  Sc5  1  0.14656900  0.85343100  0.25000000  1
  Co  Co0  1  0.29097300  0.70902700  0.90203500  1
  Co  Co1  1  0.70902700  0.29097300  0.09796500  1
  Co  Co2  1  0.70902700  0.29097300  0.40203500  1
  Co  Co3  1  0.29097300  0.70902700  0.59796500  1
  Ge  Ge0  1  0.87679600  0.12320400  0.96015400  1
  Ge  Ge1  1  0.12320400  0.87679600  0.03984600  1
  Ge  Ge2  1  0.12320400  0.87679600  0.46015400  1
  Ge  Ge3  1  0.87679600  0.12320400  0.53984600  1
  Ge  Ge4  1  0.15354700  0.84645300  0.75000000  1
  Ge  Ge5  1  0.84645300  0.15354700  0.25000000  1
loop_
_geom_bond_atom_site_label_1
_geom_bond_atom_site_label_2
_geom_bond_distance
_geom_bond_site_symmetry_2
Co0 Ge0 2.324359 1_565
Co0 Ge0 2.324359 1_455
Co0 Ge4 2.436312 1_555
Co0 Ge1 2.472975 1_556
Co0 Sc0 2.866960 1_555
Co0 Sc0 2.911782 1_565
Co0 Sc0 2.911782 1_455
Co0 Sc4 2.923933 1_565
Co0 Sc4 2.923933 1_455
Co0 Sc1 3.051921 1_556
Co1 Ge1 2.324359 1_655
Co1 Ge1 2.324359 1_545
Co1 Ge5 2.436312 1_555
Co1 Ge0 2.472975 1_554
Co1 Sc1 2.866960 1_555
Co1 Sc1 2.911782 1_655
Co1 Sc1 2.911782 1_545
Co1 Sc5 2.923933 1_655
Co1 Sc5 2.923933 1_545
Co1 Sc0 3.051921 1_554
Co2 Ge2 2.324359 1_655
Co2 Ge2 2.324359 1_545
Co2 Ge5 2.436312 1_555
Co2 Ge3 2.472975 1_555
Co2 Sc2 2.866960 1_555
Co2 Sc2 2.911782 1_655
Co2 Sc2 2.911782 1_545
Co2 Sc5 2.923933 1_655
Co2 Sc5 2.923933 1_545
Co2 Sc3 3.051921 1_555
Co3 Ge3 2.324359 1_565
Co3 Ge3 2.324359 1_455
Co3 Ge4 2.436312 1_555
Co3 Ge2 2.472975 1_555
Co3 Sc3 2.866960 1_555
Co3 Sc3 2.911782 1_565
Co3 Sc3 2.911782 1_455
Co3 Sc4 2.923933 1_565
Co3 Sc4 2.923933 1_455
Co3 Sc2 3.051921 1_555
Ge0 Ge1 2.660283 1_646
Ge0 Sc4 2.802737 1_555
Ge0 Sc1 2.874459 1_656
Ge0 Sc1 2.874459 1_546
Ge0 Sc0 3.002533 1_545
Ge0 Sc0 3.002533 1_655
Ge0 Sc0 3.086237 1_555
Ge1 Sc5 2.802737 1_555
Ge1 Sc0 2.874459 1_454
Ge1 Sc0 2.874459 1_564
Ge1 Sc1 3.002533 1_455
Ge1 Sc1 3.002533 1_565
Ge1 Sc1 3.086237 1_555
Ge2 Ge3 2.660283 1_465
Ge2 Sc5 2.802737 1_555
Ge2 Sc3 2.874459 1_455
Ge2 Sc3 2.874459 1_565
Ge2 Sc2 3.002533 1_565
Ge2 Sc2 3.002533 1_455
Ge2 Sc2 3.086237 1_555
Ge3 Sc4 2.802737 1_555
Ge3 Sc2 2.874459 1_655
Ge3 Sc2 2.874459 1_545
Ge3 Sc3 3.002533 1_545
Ge3 Sc3 3.002533 1_655
Ge3 Sc3 3.086237 1_555
Ge4 Sc4 2.828822 1_565
Ge4 Sc4 2.828822 1_455
Ge4 Sc3 2.837222 1_565
Ge4 Sc0 2.837222 1_565
Ge4 Sc3 2.837222 1_455
Ge4 Sc0 2.837222 1_455
Ge4 Sc4 2.972235 1_465
Ge5 Sc5 2.828822 1_655
Ge5 Sc5 2.828822 1_545
Ge5 Sc1 2.837222 1_655
Ge5 Sc2 2.837222 1_655
Ge5 Sc2 2.837222 1_545
Ge5 Sc1 2.837222 1_545
Ge5 Sc5 2.972235 1_645
