# generated using pymatgen
data_Ni5Mo6PC
_symmetry_space_group_name_H-M   'P 1'
_cell_length_a   7.64755522
_cell_length_b   7.64755462
_cell_length_c   7.62464916
_cell_angle_alpha   60.09902470
_cell_angle_beta   60.09902728
_cell_angle_gamma   60.34261028
_symmetry_Int_Tables_number   1
_chemical_formula_structural   Ni5Mo6PC
_chemical_formula_sum   'Ni10 Mo12 P2 C2'
_cell_volume   316.60209159
_cell_formula_units_Z   2
loop_
 _symmetry_equiv_pos_site_id
 _symmetry_equiv_pos_as_xyz
  1  'x, y, z'
loop_
 _atom_site_type_symbol
 _atom_site_label
 _atom_site_symmetry_multiplicity
 _atom_site_fract_x
 _atom_site_fract_y
 _atom_site_fract_z
 _atom_site_occupancy
  Ni  Ni0  1  0.32715798  0.32715798  0.00619400  1
  Ni  Ni1  1  0.32715798  0.32715798  0.33948905  1
  Ni  Ni2  1  0.24890588  0.92342233  0.91383689  1
  Ni  Ni3  1  0.92284202  0.92284202  0.91051095  1
  Ni  Ni4  1  0.00109412  0.32657767  0.33616311  1
  Ni  Ni5  1  0.32657767  0.00109412  0.33616311  1
  Ni  Ni6  1  0.12500000  0.62500000  0.12500000  1
  Ni  Ni7  1  0.62500000  0.12500000  0.12500000  1
  Ni  Ni8  1  0.92284202  0.92284202  0.24380600  1
  Ni  Ni9  1  0.92342233  0.24890588  0.91383689  1
  Mo  Mo0  1  0.30171865  0.69457365  0.70046179  1
  Mo  Mo1  1  0.70014065  0.70014065  0.29985935  1
  Mo  Mo2  1  0.69457365  0.30171865  0.70046179  1
  Mo  Mo3  1  0.30171865  0.69457365  0.30324590  1
  Mo  Mo4  1  0.55542635  0.94828135  0.54953821  1
  Mo  Mo5  1  0.55542635  0.94828135  0.94675410  1
  Mo  Mo6  1  0.94828135  0.55542635  0.54953821  1
  Mo  Mo7  1  0.94828135  0.55542635  0.94675410  1
  Mo  Mo8  1  0.30402037  0.30402037  0.69597963  1
  Mo  Mo9  1  0.54985935  0.54985935  0.95014065  1
  Mo  Mo10  1  0.94597963  0.94597963  0.55402037  1
  Mo  Mo11  1  0.69457365  0.30171865  0.30324590  1
  P  P0  1  0.12500000  0.12500000  0.62500000  1
  P  P1  1  0.12500000  0.12500000  0.12500000  1
  C  C0  1  0.50210531  0.50210531  0.49789469  1
  C  C1  1  0.74789469  0.74789469  0.75210531  1
loop_
_geom_bond_atom_site_label_1
_geom_bond_atom_site_label_2
_geom_bond_distance
_geom_bond_site_symmetry_2
Ni0 P1 2.274580 1_555
Ni0 Ni6 2.361120 1_555
Ni0 Ni7 2.361121 1_555
Ni0 Ni5 2.508535 1_555
Ni0 Ni4 2.508535 1_555
Ni0 Ni1 2.541258 1_555
Ni1 P0 2.274582 1_555
Ni1 Ni6 2.361116 1_555
Ni1 Ni7 2.361116 1_555
Ni1 Ni5 2.508539 1_555
Ni1 Ni4 2.508540 1_555
Ni2 P1 2.318296 1_566
Ni2 P0 2.318309 1_565
Ni2 Ni6 2.377856 1_556
Ni2 Ni9 2.502032 1_465
Ni2 Ni8 2.508535 1_456
Ni2 Ni3 2.508540 1_455
Ni3 P0 2.274582 1_665
Ni3 Ni6 2.361116 1_656
Ni3 Ni7 2.361116 1_566
Ni3 Ni9 2.508539 1_565
Ni3 Ni8 2.541258 1_556
Ni4 P1 2.318296 1_555
Ni4 P0 2.318309 1_555
Ni4 Ni6 2.377856 1_555
Ni4 Ni5 2.502032 1_555
Ni5 P1 2.318296 1_555
Ni5 P0 2.318309 1_555
Ni5 Ni7 2.377856 1_555
Ni6 Ni8 2.361120 1_455
Ni7 Ni8 2.361121 1_545
Ni7 Ni9 2.377856 1_554
Ni8 P1 2.274580 1_665
Ni8 Ni9 2.508535 1_564
Ni9 P1 2.318296 1_656
Ni9 P0 2.318309 1_655
Mo0 Ni5 2.582499 1_565
Mo0 Ni0 2.597658 1_556
Mo0 Ni3 2.676388 1_455
Mo0 Ni6 2.687079 1_556
Mo0 Ni2 2.712390 1_555
Mo1 Ni4 2.622046 1_655
Mo1 Ni5 2.622046 1_565
Mo1 Ni7 2.694780 1_565
Mo1 Ni6 2.694781 1_655
Mo1 Ni3 2.720843 1_554
Mo1 Ni8 2.720846 1_555
Mo2 Ni4 2.582499 1_655
Mo2 Ni0 2.597658 1_556
Mo2 Ni3 2.676387 1_545
Mo2 Ni7 2.687078 1_556
Mo2 Ni9 2.712390 1_555
Mo3 Ni5 2.582490 1_565
Mo3 Ni1 2.597661 1_555
Mo3 Ni8 2.676385 1_455
Mo3 Ni6 2.687079 1_555
Mo3 Ni2 2.712377 1_554
Mo4 Ni2 2.582499 1_555
Mo4 Ni8 2.597658 1_555
Mo4 Ni1 2.676387 1_565
Mo4 Ni7 2.687078 1_565
Mo4 Ni5 2.712390 1_565
Mo5 Ni2 2.582490 1_555
Mo5 Ni3 2.597661 1_555
Mo5 Ni0 2.676385 1_566
Mo5 Ni7 2.687079 1_566
Mo5 Ni5 2.712377 1_566
Mo6 Ni9 2.582499 1_555
Mo6 Ni8 2.597658 1_555
Mo6 Ni1 2.676388 1_655
Mo6 Ni6 2.687079 1_655
Mo6 Ni4 2.712390 1_655
Mo7 Ni9 2.582490 1_555
Mo7 Ni3 2.597661 1_555
Mo7 Ni0 2.676385 1_656
Mo7 Ni6 2.687079 1_656
Mo7 Ni4 2.712377 1_656
Mo8 Ni0 2.553954 1_556
Mo8 Ni1 2.553961 1_555
Mo8 Ni2 2.665410 1_545
Mo8 Ni9 2.665410 1_455
Mo9 Ni2 2.622046 1_555
Mo9 Ni9 2.622046 1_555
Mo9 Ni7 2.694780 1_556
Mo9 Ni6 2.694781 1_556
Mo9 Ni1 2.720843 1_556
Mo9 Ni0 2.720846 1_556
Mo10 Ni8 2.553954 1_555
Mo10 Ni3 2.553961 1_555
Mo10 Ni4 2.665410 1_665
Mo10 Ni5 2.665410 1_665
Mo11 Ni4 2.582490 1_655
Mo11 Ni1 2.597661 1_555
Mo11 Ni8 2.676385 1_545
Mo11 Ni7 2.687079 1_555
Mo11 Ni9 2.712377 1_554
C0 Mo2 2.138918 1_555
C0 Mo11 2.138918 1_555
C0 Mo0 2.138918 1_555
C0 Mo3 2.138918 1_555
C0 Mo1 2.139453 1_555
C0 Mo8 2.139989 1_555
C1 Mo4 2.138918 1_555
C1 Mo5 2.138918 1_555
C1 Mo6 2.138918 1_555
C1 Mo7 2.138918 1_555
C1 Mo9 2.139453 1_555
C1 Mo10 2.139989 1_555
