# generated using pymatgen
data_Zr10Sb7Au
_symmetry_space_group_name_H-M   'P 1'
_cell_length_a   8.77127984
_cell_length_b   8.77127933
_cell_length_c   5.90038713
_cell_angle_alpha   90.00000000
_cell_angle_beta   90.00000000
_cell_angle_gamma   119.99999817
_symmetry_Int_Tables_number   1
_chemical_formula_structural   Zr10Sb7Au
_chemical_formula_sum   'Zr10 Sb7 Au1'
_cell_volume   393.13078666
_cell_formula_units_Z   1
loop_
 _symmetry_equiv_pos_site_id
 _symmetry_equiv_pos_as_xyz
  1  'x, y, z'
loop_
 _atom_site_type_symbol
 _atom_site_label
 _atom_site_symmetry_multiplicity
 _atom_site_fract_x
 _atom_site_fract_y
 _atom_site_fract_z
 _atom_site_occupancy
  Zr  Zr0  1  0.27886037  0.27886037  0.74829035  1
  Zr  Zr1  1  0.72113963  0.72113963  0.25170965  1
  Zr  Zr2  1  0.72113963  1.00000000  0.74829035  1
  Zr  Zr3  1  0.00000000  0.27886037  0.25170965  1
  Zr  Zr4  1  0.33333300  0.66666700  0.50000000  1
  Zr  Zr5  1  0.66666700  0.33333300  0.50000000  1
  Zr  Zr6  1  0.00000000  0.72113963  0.74829035  1
  Zr  Zr7  1  0.33333300  0.66666700  0.00000000  1
  Zr  Zr8  1  0.27886037  0.00000000  0.25170965  1
  Zr  Zr9  1  0.66666700  0.33333300  0.00000000  1
  Sb  Sb0  1  0.61407450  0.61407450  0.74817518  1
  Sb  Sb1  1  0.38592550  0.00000000  0.74817518  1
  Sb  Sb2  1  0.00000000  0.00000000  0.00000000  1
  Sb  Sb3  1  0.61407450  1.00000000  0.25182482  1
  Sb  Sb4  1  0.38592550  0.38592550  0.25182482  1
  Sb  Sb5  1  0.00000000  0.38592550  0.74817518  1
  Sb  Sb6  1  0.00000000  0.61407450  0.25182482  1
  Au  Au0  1  0.00000000  0.00000000  0.50000000  1
loop_
_geom_bond_atom_site_label_1
_geom_bond_atom_site_label_2
_geom_bond_distance
_geom_bond_site_symmetry_2
Sb0 Zr0 2.940257 1_555
Sb0 Zr2 3.026819 1_555
Sb0 Zr6 3.026820 1_655
Sb0 Zr1 3.076188 1_555
Sb0 Zr5 3.091395 1_555
Sb0 Zr4 3.091395 1_555
Sb0 Zr9 3.101654 1_556
Sb0 Zr7 3.101654 1_556
Sb0 Zr1 3.115932 1_556
Sb1 Zr2 2.940257 1_545
Sb1 Zr0 3.026819 1_555
Sb1 Zr6 3.026820 1_545
Sb1 Zr8 3.076188 1_555
Sb1 Zr4 3.091388 1_545
Sb1 Zr5 3.091391 1_555
Sb1 Zr7 3.101646 1_546
Sb1 Zr9 3.101649 1_556
Sb1 Zr8 3.115932 1_556
Sb2 Zr3 2.861556 1_555
Sb2 Zr6 2.861556 1_544
Sb2 Zr0 2.861556 1_554
Sb2 Zr1 2.861556 1_445
Sb2 Zr8 2.861556 1_555
Sb2 Zr2 2.861556 1_444
Sb3 Zr8 2.940257 1_565
Sb3 Zr1 3.026819 1_555
Sb3 Zr3 3.026820 1_665
Sb3 Zr2 3.076188 1_555
Sb3 Zr5 3.091388 1_565
Sb3 Zr4 3.091391 1_555
Sb3 Zr9 3.101646 1_565
Sb3 Zr7 3.101649 1_555
Sb3 Zr2 3.115932 1_554
Sb4 Zr1 2.940257 1_555
Sb4 Zr8 3.026819 1_555
Sb4 Zr3 3.026820 1_555
Sb4 Zr0 3.076188 1_555
Sb4 Zr4 3.091395 1_555
Sb4 Zr5 3.091395 1_555
Sb4 Zr7 3.101654 1_555
Sb4 Zr9 3.101654 1_555
Sb4 Zr0 3.115932 1_554
Sb5 Zr6 2.940257 1_555
Sb5 Zr2 3.026819 1_445
Sb5 Zr0 3.026819 1_555
Sb5 Zr3 3.076188 1_555
Sb5 Zr5 3.091388 1_455
Sb5 Zr4 3.091391 1_555
Sb5 Zr9 3.101646 1_456
Sb5 Zr7 3.101649 1_556
Sb5 Zr3 3.115932 1_556
Sb6 Zr3 2.940257 1_555
Sb6 Zr8 3.026819 1_565
Sb6 Zr1 3.026819 1_455
Sb6 Zr6 3.076188 1_555
Sb6 Zr4 3.091388 1_555
Sb6 Zr5 3.091391 1_455
Sb6 Zr7 3.101646 1_555
Sb6 Zr9 3.101649 1_455
Sb6 Zr6 3.115932 1_554
Au0 Zr3 2.851137 1_555
Au0 Zr6 2.851137 1_545
Au0 Zr0 2.851137 1_555
Au0 Zr1 2.851137 1_445
Au0 Zr8 2.851137 1_555
Au0 Zr2 2.851137 1_445
Au0 Sb2 2.950194 1_555
Au0 Sb2 2.950194 1_556
