# generated using pymatgen
data_CrRuBr18
_symmetry_space_group_name_H-M   'P 1'
_cell_length_a   8.81703574
_cell_length_b   8.81703670
_cell_length_c   8.81703614
_cell_angle_alpha   91.91817033
_cell_angle_beta   91.91815980
_cell_angle_gamma   91.91817003
_symmetry_Int_Tables_number   1
_chemical_formula_structural   CrRuBr18
_chemical_formula_sum   'Cr1 Ru1 Br18'
_cell_volume   684.25887258
_cell_formula_units_Z   1
loop_
 _symmetry_equiv_pos_site_id
 _symmetry_equiv_pos_as_xyz
  1  'x, y, z'
loop_
 _atom_site_type_symbol
 _atom_site_label
 _atom_site_symmetry_multiplicity
 _atom_site_fract_x
 _atom_site_fract_y
 _atom_site_fract_z
 _atom_site_occupancy
  Cr  Cr0  1  0.50000000  0.50000000  0.50000000  1
  Ru  Ru0  1  0.00000000  0.00000000  0.00000000  1
  Br  Br0  1  0.71797215  0.99181439  0.00775245  1
  Br  Br1  1  0.75736915  0.12793543  0.60251295  1
  Br  Br2  1  0.00775245  0.71797215  0.99181439  1
  Br  Br3  1  0.24263085  0.87206457  0.39748705  1
  Br  Br4  1  0.12793543  0.60251295  0.75736915  1
  Br  Br5  1  0.00818561  0.99224755  0.28202785  1
  Br  Br6  1  0.60251295  0.75736915  0.12793543  1
  Br  Br7  1  0.99224755  0.28202785  0.00818561  1
  Br  Br8  1  0.87206457  0.39748705  0.24263085  1
  Br  Br9  1  0.39748705  0.24263085  0.87206457  1
  Br  Br10  1  0.99181439  0.00775245  0.71797215  1
  Br  Br11  1  0.28202785  0.00818561  0.99224755  1
  Br  Br12  1  0.77993831  0.54699911  0.47691385  1
  Br  Br13  1  0.52308615  0.22006169  0.45300089  1
  Br  Br14  1  0.45300089  0.52308615  0.22006169  1
  Br  Br15  1  0.47691385  0.77993831  0.54699911  1
  Br  Br16  1  0.54699911  0.47691385  0.77993831  1
  Br  Br17  1  0.22006169  0.45300089  0.52308615  1
loop_
_geom_bond_atom_site_label_1
_geom_bond_atom_site_label_2
_geom_bond_distance
_geom_bond_site_symmetry_2
Br0 Ru0 2.488574 1_665
Br0 Br6 2.551499 1_555
Br1 Br10 2.551499 1_555
Br1 Br13 2.581927 1_555
Br2 Ru0 2.488575 1_566
Br2 Br4 2.551499 1_555
Br3 Br5 2.551499 1_555
Br5 Ru0 2.488574 1_565
Br7 Ru0 2.488575 1_655
Br7 Br8 2.551499 1_555
Br10 Ru0 2.488574 1_656
Br11 Ru0 2.488574 1_556
Br11 Br9 2.551499 1_555
Br12 Cr0 2.505215 1_555
Br12 Br8 2.581927 1_555
Br13 Cr0 2.505215 1_555
Br14 Cr0 2.505215 1_555
Br14 Br6 2.581927 1_555
Br15 Cr0 2.505215 1_555
Br15 Br3 2.581927 1_555
Br16 Cr0 2.505215 1_555
Br16 Br9 2.581927 1_555
Br17 Cr0 2.505215 1_555
Br17 Br4 2.581927 1_555
