# generated using pymatgen
data_Hf2TaSi3Ni2
_symmetry_space_group_name_H-M   'P 1'
_cell_length_a   5.12825109
_cell_length_b   5.12825043
_cell_length_c   12.72985803
_cell_angle_alpha   90.00000000
_cell_angle_beta   90.00000000
_cell_angle_gamma   136.00535381
_symmetry_Int_Tables_number   1
_chemical_formula_structural   Hf2TaSi3Ni2
_chemical_formula_sum   'Hf4 Ta2 Si6 Ni4'
_cell_volume   232.53659695
_cell_formula_units_Z   2
loop_
 _symmetry_equiv_pos_site_id
 _symmetry_equiv_pos_as_xyz
  1  'x, y, z'
loop_
 _atom_site_type_symbol
 _atom_site_label
 _atom_site_symmetry_multiplicity
 _atom_site_fract_x
 _atom_site_fract_y
 _atom_site_fract_z
 _atom_site_occupancy
  Hf  Hf0  1  0.57469521  0.42530479  0.61835814  1
  Hf  Hf1  1  0.42530479  0.57469521  0.38164186  1
  Hf  Hf2  1  0.42530479  0.57469521  0.11835814  1
  Hf  Hf3  1  0.57469521  0.42530479  0.88164186  1
  Ta  Ta0  1  0.13050717  0.86949283  0.25000000  1
  Ta  Ta1  1  0.86949283  0.13050717  0.75000000  1
  Si  Si0  1  0.83540059  0.16459941  0.25000000  1
  Si  Si1  1  0.16459941  0.83540059  0.75000000  1
  Si  Si2  1  0.88379457  0.11620543  0.54125161  1
  Si  Si3  1  0.11620543  0.88379457  0.45874839  1
  Si  Si4  1  0.11620543  0.88379457  0.04125161  1
  Si  Si5  1  0.88379457  0.11620543  0.95874839  1
  Ni  Ni0  1  0.28579843  0.71420157  0.90654299  1
  Ni  Ni1  1  0.71420157  0.28579843  0.09345701  1
  Ni  Ni2  1  0.71420157  0.28579843  0.40654299  1
  Ni  Ni3  1  0.28579843  0.71420157  0.59345701  1
loop_
_geom_bond_atom_site_label_1
_geom_bond_atom_site_label_2
_geom_bond_distance
_geom_bond_site_symmetry_2
Hf0 Si1 2.688663 1_545
Hf0 Si1 2.688663 1_655
Hf0 Ni3 2.765589 1_555
Hf0 Ni3 2.796507 1_545
Hf0 Ni3 2.796508 1_655
Hf0 Si2 2.819386 1_565
Hf0 Si2 2.819386 1_455
Hf0 Si3 2.823785 1_545
Hf0 Si3 2.823785 1_655
Hf0 Ni2 3.005085 1_555
Hf0 Si2 3.099037 1_555
Hf1 Si0 2.688663 1_565
Hf1 Si0 2.688663 1_455
Hf1 Ni2 2.765589 1_555
Hf1 Ni2 2.796507 1_565
Hf1 Ni2 2.796508 1_455
Hf1 Si3 2.819386 1_545
Hf1 Si3 2.819386 1_655
Hf1 Si2 2.823785 1_565
Hf1 Si2 2.823785 1_455
Hf1 Ni3 3.005085 1_555
Hf1 Si3 3.099037 1_555
Hf2 Si0 2.688663 1_565
Hf2 Si0 2.688663 1_455
Hf2 Ni1 2.765589 1_555
Hf2 Ni1 2.796507 1_565
Hf2 Ni1 2.796508 1_455
Hf2 Si4 2.819386 1_545
Hf2 Si4 2.819386 1_655
Hf2 Si5 2.823785 1_564
Hf2 Si5 2.823785 1_454
Hf2 Ni0 3.005085 1_554
Hf2 Si4 3.099037 1_555
Hf3 Si1 2.688663 1_545
Hf3 Si1 2.688663 1_655
Hf3 Ni0 2.765589 1_555
Hf3 Ni0 2.796507 1_545
Hf3 Ni0 2.796508 1_655
Hf3 Si5 2.819386 1_565
Hf3 Si5 2.819386 1_455
Hf3 Si4 2.823785 1_546
Hf3 Si4 2.823785 1_656
Hf3 Ni1 3.005085 1_556
Hf3 Si5 3.099037 1_555
Si0 Ta0 2.736119 1_655
Si0 Ta0 2.736120 1_545
Si0 Ta0 2.806417 1_645
Si1 Ta1 2.736119 1_455
Si1 Ta1 2.736120 1_565
Si1 Ta1 2.806417 1_465
Si2 Si3 2.447034 1_645
Si2 Ta1 2.660816 1_555
Si3 Ta0 2.660816 1_555
Si4 Si5 2.447034 1_464
Si4 Ta0 2.660816 1_555
Si5 Ta1 2.660816 1_555
Ni0 Si5 2.236028 1_455
Ni0 Si5 2.236028 1_565
Ni0 Si1 2.302082 1_555
Ni0 Si4 2.354091 1_556
Ni0 Ta1 2.879983 1_455
Ni0 Ta1 2.879983 1_565
Ni1 Si4 2.236028 1_655
Ni1 Si4 2.236028 1_545
Ni1 Si0 2.302082 1_555
Ni1 Si5 2.354091 1_554
Ni1 Ta0 2.879983 1_655
Ni1 Ta0 2.879983 1_545
Ni2 Si3 2.236028 1_655
Ni2 Si3 2.236028 1_545
Ni2 Si0 2.302082 1_555
Ni2 Si2 2.354091 1_555
Ni2 Ta0 2.879983 1_655
Ni2 Ta0 2.879983 1_545
Ni3 Si2 2.236028 1_455
Ni3 Si2 2.236028 1_565
Ni3 Si1 2.302082 1_555
Ni3 Si3 2.354091 1_555
Ni3 Ta1 2.879983 1_455
Ni3 Ta1 2.879983 1_565
