# generated using pymatgen
data_NaMn2(Sb6Os)2
_symmetry_space_group_name_H-M   'P 1'
_cell_length_a   8.15869487
_cell_length_b   8.15869451
_cell_length_c   8.19655534
_cell_angle_alpha   109.35298747
_cell_angle_beta   109.32618291
_cell_angle_gamma   109.54783096
_symmetry_Int_Tables_number   1
_chemical_formula_structural   NaMn2(Sb6Os)2
_chemical_formula_sum   'Na1 Mn2 Sb12 Os2'
_cell_volume   420.96485030
_cell_formula_units_Z   1
loop_
 _symmetry_equiv_pos_site_id
 _symmetry_equiv_pos_as_xyz
  1  'x, y, z'
loop_
 _atom_site_type_symbol
 _atom_site_label
 _atom_site_symmetry_multiplicity
 _atom_site_fract_x
 _atom_site_fract_y
 _atom_site_fract_z
 _atom_site_occupancy
  Na  Na0  1  0.00000000  0.00000000  0.00000000  1
  Mn  Mn0  1  0.50000000  0.00000000  0.00000000  1
  Mn  Mn1  1  0.00000000  0.50000000  0.00000000  1
  Sb  Sb0  1  0.84457260  0.66555470  0.51012730  1
  Sb  Sb1  1  0.15542740  0.33444530  0.48987270  1
  Sb  Sb2  1  0.15154434  0.65232313  0.80386746  1
  Sb  Sb3  1  0.84845566  0.34767687  0.19613254  1
  Sb  Sb4  1  0.65427037  0.50514133  0.84091924  1
  Sb  Sb5  1  0.34572963  0.49485867  0.15908076  1
  Sb  Sb6  1  0.66422209  0.81335113  0.15908076  1
  Sb  Sb7  1  0.33577791  0.18664887  0.84091924  1
  Sb  Sb8  1  0.50569772  0.84223270  0.65585700  1
  Sb  Sb9  1  0.49430228  0.15776730  0.34414300  1
  Sb  Sb10  1  0.18637570  0.84984072  0.34414300  1
  Sb  Sb11  1  0.81362430  0.15015928  0.65585700  1
  Os  Os0  1  0.50000000  0.50000000  0.50000000  1
  Os  Os1  1  0.00000000  0.00000000  0.50000000  1
loop_
_geom_bond_atom_site_label_1
_geom_bond_atom_site_label_2
_geom_bond_distance
_geom_bond_site_symmetry_2
Na0 Sb1 3.496963 1_555
Na0 Sb0 3.496963 1_444
Na0 Sb5 3.523169 1_555
Na0 Sb4 3.523169 1_444
Na0 Sb7 3.523169 1_554
Na0 Sb6 3.523169 1_445
Na0 Sb10 3.530988 1_545
Na0 Sb11 3.530988 1_454
Na0 Sb8 3.530988 1_444
Na0 Sb9 3.530988 1_555
Na0 Sb3 3.577650 1_455
Na0 Sb2 3.577650 1_544
Mn0 Sb3 2.696121 1_555
Mn0 Sb2 2.696121 1_544
Mn0 Sb8 2.708546 1_544
Mn0 Sb9 2.708546 1_555
Mn0 Sb6 2.709121 1_545
Mn0 Sb7 2.709121 1_554
Mn1 Sb2 2.696121 1_554
Mn1 Sb3 2.696121 1_455
Mn1 Sb10 2.708546 1_555
Mn1 Sb11 2.708546 1_454
Mn1 Sb5 2.709121 1_555
Mn1 Sb4 2.709121 1_454
Sb0 Sb2 2.905675 1_655
Sb0 Sb3 3.005992 1_555
Sb1 Sb3 2.905675 1_455
Sb1 Sb2 3.005992 1_555
Sb4 Sb6 2.916767 1_556
Sb4 Sb7 2.997632 1_555
Sb5 Sb7 2.916767 1_554
Sb5 Sb6 2.997632 1_555
Sb10 Sb9 2.898186 1_565
Sb10 Sb8 3.021034 1_555
Sb11 Sb8 2.898186 1_545
Sb11 Sb9 3.021034 1_555
Os0 Sb9 2.634408 1_555
Os0 Sb8 2.634408 1_555
Os0 Sb4 2.636940 1_555
Os0 Sb5 2.636940 1_555
Os0 Sb0 2.639071 1_555
Os0 Sb1 2.639071 1_555
Os1 Sb11 2.634408 1_455
Os1 Sb10 2.634408 1_545
Os1 Sb7 2.636940 1_555
Os1 Sb6 2.636940 1_445
Os1 Sb1 2.639071 1_555
Os1 Sb0 2.639071 1_445
