# generated using pymatgen
data_Nd5CuSe8
_symmetry_space_group_name_H-M   'P 1'
_cell_length_a   7.70051197
_cell_length_b   7.70051197
_cell_length_c   7.70051197
_cell_angle_alpha   110.31459797
_cell_angle_beta   110.31459797
_cell_angle_gamma   107.79732210
_symmetry_Int_Tables_number   1
_chemical_formula_structural   Nd5CuSe8
_chemical_formula_sum   'Nd5 Cu1 Se8'
_cell_volume   351.28516635
_cell_formula_units_Z   1
loop_
 _symmetry_equiv_pos_site_id
 _symmetry_equiv_pos_as_xyz
  1  'x, y, z'
loop_
 _atom_site_type_symbol
 _atom_site_label
 _atom_site_symmetry_multiplicity
 _atom_site_fract_x
 _atom_site_fract_y
 _atom_site_fract_z
 _atom_site_occupancy
  Nd  Nd0  1  0.37927300  0.76060500  0.87739600  1
  Nd  Nd1  1  0.49812300  0.62072700  0.38133200  1
  Nd  Nd2  1  0.88320900  0.50187700  0.12260400  1
  Nd  Nd3  1  0.75000000  0.25000000  0.50000000  1
  Nd  Nd4  1  0.23939500  0.11679100  0.61866800  1
  Cu  Cu0  1  0.00000000  0.00000000  0.00000000  1
  Se  Se0  1  0.26199800  0.89088600  0.24004900  1
  Se  Se1  1  0.76140700  0.86548500  0.25894200  1
  Se  Se2  1  0.13451500  0.39345700  0.89592300  1
  Se  Se3  1  0.97805100  0.73800200  0.62888800  1
  Se  Se4  1  0.60654300  0.50246500  0.74105800  1
  Se  Se5  1  0.49753500  0.23859300  0.10407700  1
  Se  Se6  1  0.10911400  0.34916300  0.37111200  1
  Se  Se7  1  0.65083700  0.02194900  0.75995100  1
loop_
_geom_bond_atom_site_label_1
_geom_bond_atom_site_label_2
_geom_bond_distance
_geom_bond_site_symmetry_2
Nd0 Se3 2.927925 1_455
Nd0 Se2 2.962306 1_555
Nd0 Se1 2.973245 1_556
Nd0 Se7 3.040615 1_565
Nd0 Se5 3.132130 1_566
Nd0 Se0 3.159169 1_556
Nd0 Se4 3.173294 1_555
Nd0 Se6 3.365716 1_555
Nd1 Se7 2.927925 1_565
Nd1 Se1 2.962302 1_555
Nd1 Se5 2.973248 1_555
Nd1 Se6 3.040615 1_555
Nd1 Se4 3.132130 1_555
Nd1 Se3 3.159169 1_555
Nd1 Se2 3.173289 1_554
Nd1 Se0 3.365716 1_555
Nd2 Se6 2.927925 1_655
Nd2 Se5 2.962298 1_555
Nd2 Se4 2.973245 1_554
Nd2 Se0 3.040615 1_655
Nd2 Se2 3.132125 1_654
Nd2 Se7 3.159169 1_554
Nd2 Se1 3.173294 1_555
Nd2 Se3 3.365716 1_555
Nd3 Se1 2.945603 1_545
Nd3 Se4 2.945603 1_555
Nd3 Se2 2.945608 1_655
Nd3 Se5 2.945610 1_555
Nd3 Se3 3.218151 1_555
Nd3 Se6 3.218151 1_655
Nd3 Se7 3.218151 1_555
Nd3 Se0 3.218151 1_545
Nd4 Se0 2.927925 1_545
Nd4 Se4 2.962302 1_555
Nd4 Se2 2.973249 1_555
Nd4 Se3 3.040615 1_445
Nd4 Se1 3.132130 1_445
Nd4 Se6 3.159169 1_555
Nd4 Se5 3.173288 1_556
Nd4 Se7 3.365716 1_555
Cu0 Se0 2.778227 1_545
Cu0 Se7 2.778227 1_454
Cu0 Se3 2.778227 1_444
Cu0 Se6 2.778227 1_555
