# generated using pymatgen
data_Nb3Al2IrN
_symmetry_space_group_name_H-M   'P 1'
_cell_length_a   8.28937203
_cell_length_b   8.28937198
_cell_length_c   8.28937128
_cell_angle_alpha   59.99999883
_cell_angle_beta   59.99999902
_cell_angle_gamma   59.99999459
_symmetry_Int_Tables_number   1
_chemical_formula_structural   Nb3Al2IrN
_chemical_formula_sum   'Nb12 Al8 Ir4 N4'
_cell_volume   402.76324371
_cell_formula_units_Z   4
loop_
 _symmetry_equiv_pos_site_id
 _symmetry_equiv_pos_as_xyz
  1  'x, y, z'
loop_
 _atom_site_type_symbol
 _atom_site_label
 _atom_site_symmetry_multiplicity
 _atom_site_fract_x
 _atom_site_fract_y
 _atom_site_fract_z
 _atom_site_occupancy
  Nb  Nb0  1  0.81398288  0.81398288  0.18601712  1
  Nb  Nb1  1  0.06398288  0.43601712  0.43601712  1
  Nb  Nb2  1  0.43601712  0.06398288  0.06398288  1
  Nb  Nb3  1  0.06398288  0.06398288  0.43601712  1
  Nb  Nb4  1  0.06398288  0.43601712  0.06398288  1
  Nb  Nb5  1  0.43601712  0.06398288  0.43601712  1
  Nb  Nb6  1  0.18601712  0.81398288  0.18601712  1
  Nb  Nb7  1  0.18601712  0.81398288  0.81398288  1
  Nb  Nb8  1  0.81398288  0.18601712  0.18601712  1
  Nb  Nb9  1  0.81398288  0.18601712  0.81398288  1
  Nb  Nb10  1  0.43601712  0.43601712  0.06398288  1
  Nb  Nb11  1  0.18601712  0.18601712  0.81398288  1
  Al  Al0  1  0.41677337  0.74967688  0.41677337  1
  Al  Al1  1  0.83322663  0.83322663  0.50032312  1
  Al  Al2  1  0.50032312  0.83322663  0.83322663  1
  Al  Al3  1  0.83322663  0.83322663  0.83322663  1
  Al  Al4  1  0.74967688  0.41677337  0.41677337  1
  Al  Al5  1  0.41677337  0.41677337  0.41677337  1
  Al  Al6  1  0.41677337  0.41677337  0.74967688  1
  Al  Al7  1  0.83322663  0.50032312  0.83322663  1
  Ir  Ir0  1  0.62500000  0.12500000  0.62500000  1
  Ir  Ir1  1  0.62500000  0.62500000  0.12500000  1
  Ir  Ir2  1  0.12500000  0.62500000  0.62500000  1
  Ir  Ir3  1  0.62500000  0.62500000  0.62500000  1
  N  N0  1  0.12500000  0.62500000  0.12500000  1
  N  N1  1  0.12500000  0.12500000  0.62500000  1
  N  N2  1  0.62500000  0.12500000  0.12500000  1
  N  N3  1  0.12500000  0.12500000  0.12500000  1
loop_
_geom_bond_atom_site_label_1
_geom_bond_atom_site_label_2
_geom_bond_distance
_geom_bond_site_symmetry_2
Al0 Ir1 2.537356 1_555
Al0 Ir2 2.537357 1_555
Al0 Ir3 2.537377 1_555
Al1 Ir0 2.537356 1_565
Al1 Ir2 2.537356 1_655
Al1 Ir3 2.537377 1_555
Al2 Ir1 2.537356 1_556
Al2 Ir0 2.537357 1_565
Al2 Ir3 2.537377 1_555
Al3 Ir0 2.537370 1_565
Al3 Ir2 2.537370 1_655
Al3 Ir1 2.537370 1_556
Al4 Ir1 2.537356 1_555
Al4 Ir0 2.537357 1_555
Al4 Ir3 2.537377 1_555
Al5 Ir0 2.537370 1_555
Al5 Ir2 2.537370 1_555
Al5 Ir1 2.537370 1_555
Al6 Ir0 2.537356 1_555
Al6 Ir2 2.537356 1_555
Al6 Ir3 2.537377 1_555
Al7 Ir1 2.537356 1_556
Al7 Ir2 2.537357 1_655
Al7 Ir3 2.537377 1_555
Ir0 Nb2 3.033605 1_556
Ir0 Nb8 3.033605 1_555
Ir0 Nb9 3.033605 1_555
Ir0 Nb5 3.033605 1_555
Ir0 Nb3 3.033605 1_655
Ir0 Nb11 3.033605 1_555
Ir1 Nb2 3.033605 1_565
Ir1 Nb8 3.033605 1_555
Ir1 Nb4 3.033605 1_655
Ir1 Nb6 3.033605 1_555
Ir1 Nb0 3.033605 1_555
Ir1 Nb10 3.033605 1_555
Ir2 Nb4 3.033605 1_556
Ir2 Nb6 3.033605 1_555
Ir2 Nb3 3.033605 1_565
Ir2 Nb11 3.033605 1_555
Ir2 Nb7 3.033605 1_555
Ir2 Nb1 3.033605 1_555
Ir3 Nb0 3.033605 1_555
Ir3 Nb10 3.033605 1_556
Ir3 Nb5 3.033605 1_565
Ir3 Nb9 3.033605 1_555
Ir3 Nb1 3.033605 1_655
Ir3 Nb7 3.033605 1_555
N0 Nb1 2.192318 1_555
N0 Nb7 2.192318 1_554
N0 Nb10 2.192318 1_555
N0 Nb0 2.192318 1_455
N0 Nb6 2.192318 1_555
N0 Nb4 2.192318 1_555
N1 Nb1 2.192318 1_555
N1 Nb7 2.192318 1_545
N1 Nb11 2.192318 1_555
N1 Nb3 2.192318 1_555
N1 Nb5 2.192318 1_555
N1 Nb9 2.192318 1_455
N2 Nb5 2.192318 1_555
N2 Nb9 2.192318 1_554
N2 Nb0 2.192318 1_545
N2 Nb10 2.192318 1_555
N2 Nb8 2.192318 1_555
N2 Nb2 2.192318 1_555
N3 Nb3 2.192318 1_555
N3 Nb11 2.192318 1_554
N3 Nb4 2.192318 1_555
N3 Nb6 2.192318 1_545
N3 Nb2 2.192318 1_555
N3 Nb8 2.192318 1_455
