# generated using pymatgen
data_KAs2RuPt
_symmetry_space_group_name_H-M   'P 1'
_cell_length_a   7.34302363
_cell_length_b   7.34302415
_cell_length_c   7.34302317
_cell_angle_alpha   148.17647496
_cell_angle_beta   148.17647792
_cell_angle_gamma   45.62492036
_symmetry_Int_Tables_number   1
_chemical_formula_structural   KAs2RuPt
_chemical_formula_sum   'K1 As2 Ru1 Pt1'
_cell_volume   109.72587552
_cell_formula_units_Z   1
loop_
 _symmetry_equiv_pos_site_id
 _symmetry_equiv_pos_as_xyz
  1  'x, y, z'
loop_
 _atom_site_type_symbol
 _atom_site_label
 _atom_site_symmetry_multiplicity
 _atom_site_fract_x
 _atom_site_fract_y
 _atom_site_fract_z
 _atom_site_occupancy
  K  K0  1  0.00000000  0.00000000  0.00000000  1
  As  As0  1  0.35398356  0.35398356  0.00000000  1
  As  As1  1  0.64601644  0.64601644  1.00000000  1
  Ru  Ru0  1  0.25000000  0.75000000  0.50000000  1
  Pt  Pt0  1  0.75000000  0.25000000  0.50000000  1
loop_
_geom_bond_atom_site_label_1
_geom_bond_atom_site_label_2
_geom_bond_distance
_geom_bond_site_symmetry_2
As0 Pt0 2.456465 1_555
As0 Ru0 2.456465 1_555
As0 Pt0 2.456465 1_454
As0 Ru0 2.456466 1_544
As0 K0 3.465929 1_554
As0 K0 3.465929 1_655
As0 K0 3.465929 1_666
As0 K0 3.465930 1_565
As1 Ru0 2.456465 1_555
As1 Pt0 2.456465 1_555
As1 Ru0 2.456465 1_656
As1 Pt0 2.456466 1_566
As1 K0 3.465929 1_667
As1 K0 3.465929 1_566
As1 K0 3.465929 1_555
As1 K0 3.465930 1_656
Pt0 Ru0 2.847008 1_544
Pt0 Ru0 2.847008 1_656
Pt0 Ru0 2.847008 1_555
Pt0 Ru0 2.847008 1_645
