# generated using pymatgen
data_Na4Ca2TiP4
_symmetry_space_group_name_H-M   'P 1'
_cell_length_a   9.18409139
_cell_length_b   9.18409025
_cell_length_c   7.13330603
_cell_angle_alpha   89.04103474
_cell_angle_beta   89.04103558
_cell_angle_gamma   120.05940978
_symmetry_Int_Tables_number   1
_chemical_formula_structural   Na4Ca2TiP4
_chemical_formula_sum   'Na8 Ca4 Ti2 P8'
_cell_volume   520.46275282
_cell_formula_units_Z   2
loop_
 _symmetry_equiv_pos_site_id
 _symmetry_equiv_pos_as_xyz
  1  'x, y, z'
loop_
 _atom_site_type_symbol
 _atom_site_label
 _atom_site_symmetry_multiplicity
 _atom_site_fract_x
 _atom_site_fract_y
 _atom_site_fract_z
 _atom_site_occupancy
  Na  Na0  1  0.47188456  0.93576207  0.38552673  1
  Na  Na1  1  0.93576207  0.47188456  0.88552673  1
  Na  Na2  1  0.86683634  0.72660456  0.19277662  1
  Na  Na3  1  0.27663827  0.13033238  0.23941402  1
  Na  Na4  1  0.85504072  0.13563224  0.21549294  1
  Na  Na5  1  0.13033238  0.27663827  0.73941402  1
  Na  Na6  1  0.72660456  0.86683634  0.69277662  1
  Na  Na7  1  0.13563224  0.85504072  0.71549294  1
  Ca  Ca0  1  0.05999322  0.53127342  0.39167641  1
  Ca  Ca1  1  0.47749200  0.53233603  0.38270553  1
  Ca  Ca2  1  0.53127342  0.05999322  0.89167641  1
  Ca  Ca3  1  0.53233603  0.47749200  0.88270553  1
  Ti  Ti0  1  0.66351943  0.32992103  0.49638957  1
  Ti  Ti1  1  0.32992103  0.66351943  0.99638957  1
  P  P0  1  0.19972313  0.38536475  0.12425939  1
  P  P1  1  0.61705890  0.80532575  0.08745086  1
  P  P2  1  0.19819908  0.81060610  0.10408616  1
  P  P3  1  0.80532575  0.61705890  0.58745086  1
  P  P4  1  0.38536475  0.19972313  0.62425939  1
  P  P5  1  0.81060610  0.19819908  0.60408616  1
  P  P6  1  0.65633368  0.33413734  0.16251877  1
  P  P7  1  0.33413734  0.65633368  0.66251877  1
loop_
_geom_bond_atom_site_label_1
_geom_bond_atom_site_label_2
_geom_bond_distance
_geom_bond_site_symmetry_2
Na0 P7 2.929942 1_555
Na0 P2 3.003566 1_555
Na0 P1 3.053552 1_555
Na0 P5 3.270177 1_565
Na0 P4 3.380986 1_565
Na1 P6 2.929943 1_556
Na1 P5 3.003566 1_555
Na1 P3 3.053552 1_555
Na1 P2 3.270177 1_656
Na1 P0 3.380986 1_656
Na2 P2 2.797157 1_655
Na2 P1 2.837344 1_555
Na2 P3 2.922328 1_555
Na2 P6 3.136132 1_555
Na3 P2 2.841172 1_545
Na3 P0 2.876174 1_555
Na3 P4 2.907282 1_555
Na3 P6 3.054078 1_555
Na4 P0 2.883143 1_655
Na4 P1 2.886375 1_545
Na4 P5 2.903589 1_555
Na4 P6 3.182750 1_555
Na5 P5 2.841172 1_455
Na5 P4 2.876174 1_555
Na5 P0 2.907282 1_556
Na5 P7 3.054078 1_555
Na6 P5 2.797157 1_565
Na6 P3 2.837343 1_555
Na6 P1 2.922328 1_556
Na6 P7 3.136133 1_555
Na7 P4 2.883143 1_565
Na7 P3 2.886375 1_455
Na7 P2 2.903589 1_556
Na7 P7 3.182750 1_555
Ca0 P7 2.954837 1_555
Ca0 P0 2.967782 1_555
Ca0 P2 2.979188 1_555
Ca0 P5 3.099824 1_455
Ca0 P3 3.132877 1_455
Ca1 P7 2.916231 1_555
Ca1 P0 2.918858 1_555
Ca1 P1 2.979621 1_555
Ca1 P3 3.105166 1_555
Ca1 P4 3.194074 1_555
Ca2 P6 2.954837 1_556
Ca2 P4 2.967782 1_555
Ca2 P5 2.979188 1_555
Ca2 P2 3.099824 1_546
Ca2 P1 3.132877 1_546
Ca3 P6 2.916231 1_556
Ca3 P4 2.918858 1_555
Ca3 P3 2.979621 1_555
Ca3 P1 3.105166 1_556
Ca3 P0 3.194074 1_556
P0 Ti1 2.369204 1_554
P1 Ti1 2.391111 1_554
P2 Ti1 2.349306 1_554
P3 Ti0 2.391111 1_555
P4 Ti0 2.369204 1_555
P5 Ti0 2.349306 1_555
P6 Ti0 2.383825 1_555
P7 Ti1 2.383825 1_555
