# generated using pymatgen
data_KSr2Cd2Bi3
_symmetry_space_group_name_H-M   'P 1'
_cell_length_a   4.98345902
_cell_length_b   13.04695568
_cell_length_c   16.81611306
_cell_angle_alpha   90.00000000
_cell_angle_beta   90.00000000
_cell_angle_gamma   90.00000000
_symmetry_Int_Tables_number   1
_chemical_formula_structural   KSr2Cd2Bi3
_chemical_formula_sum   'K4 Sr8 Cd8 Bi12'
_cell_volume   1093.36633259
_cell_formula_units_Z   4
loop_
 _symmetry_equiv_pos_site_id
 _symmetry_equiv_pos_as_xyz
  1  'x, y, z'
loop_
 _atom_site_type_symbol
 _atom_site_label
 _atom_site_symmetry_multiplicity
 _atom_site_fract_x
 _atom_site_fract_y
 _atom_site_fract_z
 _atom_site_occupancy
  K  K0  1  0.75000000  0.09796447  0.05278938  1
  K  K1  1  0.75000000  0.59796447  0.44721062  1
  K  K2  1  0.25000000  0.90203553  0.94721062  1
  K  K3  1  0.25000000  0.40203553  0.55278938  1
  Sr  Sr0  1  0.75000000  0.39630830  0.92627672  1
  Sr  Sr1  1  0.75000000  0.89630830  0.57372328  1
  Sr  Sr2  1  0.25000000  0.60369170  0.07372328  1
  Sr  Sr3  1  0.25000000  0.10369170  0.42627672  1
  Sr  Sr4  1  0.75000000  0.13519639  0.78224985  1
  Sr  Sr5  1  0.75000000  0.63519639  0.71775015  1
  Sr  Sr6  1  0.25000000  0.86480361  0.21775015  1
  Sr  Sr7  1  0.25000000  0.36480361  0.28224985  1
  Cd  Cd0  1  0.75000000  0.19602722  0.57832152  1
  Cd  Cd1  1  0.75000000  0.69602722  0.92167848  1
  Cd  Cd2  1  0.25000000  0.80397278  0.42167848  1
  Cd  Cd3  1  0.25000000  0.30397278  0.07832152  1
  Cd  Cd4  1  0.75000000  0.13934532  0.28616510  1
  Cd  Cd5  1  0.75000000  0.63934532  0.21383490  1
  Cd  Cd6  1  0.25000000  0.86065468  0.71383490  1
  Cd  Cd7  1  0.25000000  0.36065468  0.78616510  1
  Bi  Bi0  1  0.75000000  0.42250484  0.13139303  1
  Bi  Bi1  1  0.75000000  0.92250484  0.36860697  1
  Bi  Bi2  1  0.25000000  0.57749516  0.86860697  1
  Bi  Bi3  1  0.25000000  0.07749516  0.63139303  1
  Bi  Bi4  1  0.75000000  0.37531812  0.69520725  1
  Bi  Bi5  1  0.75000000  0.87531812  0.80479275  1
  Bi  Bi6  1  0.25000000  0.62468188  0.30479275  1
  Bi  Bi7  1  0.25000000  0.12468188  0.19520725  1
  Bi  Bi8  1  0.75000000  0.79681771  0.08101842  1
  Bi  Bi9  1  0.75000000  0.29681771  0.41898158  1
  Bi  Bi10  1  0.25000000  0.20318229  0.91898158  1
  Bi  Bi11  1  0.25000000  0.70318229  0.58101842  1
loop_
_geom_bond_atom_site_label_1
_geom_bond_atom_site_label_2
_geom_bond_distance
_geom_bond_site_symmetry_2
K0 K2 3.986903 1_644
K0 K2 3.986903 1_544
K1 K3 3.986903 1_555
K1 K3 3.986903 1_655
Cd0 Sr4 3.519924 1_555
Cd0 K3 3.690153 1_555
Cd0 K3 3.690153 1_655
Cd0 Sr3 3.767924 1_655
Cd0 Sr3 3.767924 1_555
Cd0 Sr1 3.911184 1_545
Cd1 Sr5 3.519924 1_555
Cd1 K2 3.690153 1_655
Cd1 K2 3.690153 1_555
Cd1 Sr2 3.767924 1_556
Cd1 Sr2 3.767924 1_656
Cd1 Sr0 3.911184 1_555
Cd2 Sr6 3.519924 1_555
Cd2 K1 3.690153 1_555
Cd2 K1 3.690153 1_455
Cd2 Sr1 3.767924 1_455
Cd2 Sr1 3.767924 1_555
Cd2 Sr3 3.911184 1_565
Cd3 Sr7 3.519924 1_555
Cd3 K0 3.690153 1_555
Cd3 K0 3.690153 1_455
Cd3 Sr0 3.767924 1_454
Cd3 Sr0 3.767924 1_554
Cd3 Sr2 3.911184 1_555
Cd4 Sr3 3.460703 1_555
Cd4 Sr3 3.460703 1_655
Cd4 Sr7 3.855611 1_655
Cd4 Sr7 3.855611 1_555
Cd4 K0 3.961435 1_555
Cd5 Sr2 3.460703 1_555
Cd5 Sr2 3.460703 1_655
Cd5 Sr6 3.855611 1_555
Cd5 Sr6 3.855611 1_655
Cd5 K1 3.961435 1_555
Cd6 Sr1 3.460703 1_555
Cd6 Sr1 3.460703 1_455
Cd6 Sr5 3.855611 1_455
Cd6 Sr5 3.855611 1_555
Cd6 K2 3.961435 1_555
Cd7 Sr0 3.460703 1_455
Cd7 Sr0 3.460703 1_555
Cd7 Sr4 3.855611 1_455
Cd7 Sr4 3.855611 1_555
Cd7 K3 3.961435 1_555
Bi0 Cd3 3.065420 1_555
Bi0 Cd3 3.065420 1_655
Bi0 Cd5 3.150528 1_555
Bi0 Sr0 3.466151 1_554
Bi0 Sr2 3.568948 1_555
Bi0 Sr2 3.568948 1_655
Bi0 Sr7 3.634686 1_655
Bi0 Sr7 3.634686 1_555
Bi1 Cd2 3.065420 1_555
Bi1 Cd2 3.065420 1_655
Bi1 Cd4 3.150528 1_565
Bi1 Sr1 3.466151 1_555
Bi1 Sr3 3.568948 1_565
Bi1 Sr3 3.568948 1_665
Bi1 Sr6 3.634686 1_655
Bi1 Sr6 3.634686 1_555
Bi2 Cd1 3.065420 1_455
Bi2 Cd1 3.065420 1_555
Bi2 Cd7 3.150528 1_555
Bi2 Sr2 3.466151 1_556
Bi2 Sr0 3.568948 1_555
Bi2 Sr0 3.568948 1_455
Bi2 Sr5 3.634686 1_455
Bi2 Sr5 3.634686 1_555
Bi3 Cd0 3.065420 1_455
Bi3 Cd0 3.065420 1_555
Bi3 Cd6 3.150528 1_545
Bi3 Sr3 3.466151 1_555
Bi3 Sr1 3.568948 1_445
Bi3 Sr1 3.568948 1_545
Bi3 Sr4 3.634686 1_555
Bi3 Sr4 3.634686 1_455
Bi4 Cd7 2.929994 1_555
Bi4 Cd7 2.929994 1_655
Bi4 Cd0 3.055372 1_555
Bi4 Sr5 3.411746 1_555
Bi4 Sr4 3.457928 1_555
Bi4 K3 3.473592 1_655
Bi4 K3 3.473592 1_555
Bi5 Cd6 2.929994 1_555
Bi5 Cd6 2.929994 1_655
Bi5 Cd1 3.055372 1_555
Bi5 Sr4 3.411746 1_565
Bi5 Sr5 3.457928 1_555
Bi5 K2 3.473592 1_555
Bi5 K2 3.473592 1_655
Bi6 Cd5 2.929994 1_455
Bi6 Cd5 2.929994 1_555
Bi6 Cd2 3.055372 1_555
Bi6 Sr7 3.411746 1_555
Bi6 Sr6 3.457928 1_555
Bi6 K1 3.473592 1_555
Bi6 K1 3.473592 1_455
Bi7 Cd4 2.929994 1_555
Bi7 Cd4 2.929994 1_455
Bi7 Cd3 3.055372 1_555
Bi7 Sr6 3.411746 1_545
Bi7 Sr7 3.457928 1_555
Bi7 K0 3.473592 1_455
Bi7 K0 3.473592 1_555
Bi8 Cd1 2.984770 1_554
Bi8 Cd5 3.034707 1_555
Bi8 Sr6 3.504606 1_655
Bi8 Sr6 3.504606 1_555
Bi8 Sr2 3.545798 1_655
Bi8 Sr2 3.545798 1_555
Bi8 K2 3.627160 1_554
Bi8 K2 3.627160 1_654
Bi8 K0 3.957621 1_565
Bi9 Cd0 2.984770 1_555
Bi9 Cd4 3.034707 1_555
Bi9 Sr7 3.504606 1_555
Bi9 Sr7 3.504606 1_655
Bi9 Sr3 3.545798 1_555
Bi9 Sr3 3.545798 1_655
Bi9 K3 3.627160 1_555
Bi9 K3 3.627160 1_655
Bi9 K1 3.957621 1_555
Bi10 Cd3 2.984770 1_556
Bi10 Cd7 3.034707 1_555
Bi10 Sr4 3.504606 1_455
Bi10 Sr4 3.504606 1_555
Bi10 Sr0 3.545798 1_455
Bi10 Sr0 3.545798 1_555
Bi10 K0 3.627160 1_556
Bi10 K0 3.627160 1_456
Bi10 K2 3.957621 1_545
Bi11 Cd2 2.984770 1_555
Bi11 Cd6 3.034707 1_555
Bi11 Sr5 3.504606 1_455
Bi11 Sr5 3.504606 1_555
Bi11 Sr1 3.545798 1_555
Bi11 Sr1 3.545798 1_455
Bi11 K1 3.627160 1_555
Bi11 K1 3.627160 1_455
Bi11 K3 3.957621 1_555
