# generated using pymatgen
data_Y12InCo2Ni3
_symmetry_space_group_name_H-M   'P 1'
_cell_length_a   8.33089634
_cell_length_b   8.33089571
_cell_length_c   8.33089528
_cell_angle_alpha   109.40397296
_cell_angle_beta   110.73865093
_cell_angle_gamma   108.28040040
_symmetry_Int_Tables_number   1
_chemical_formula_structural   Y12InCo2Ni3
_chemical_formula_sum   'Y12 In1 Co2 Ni3'
_cell_volume   444.88995863
_cell_formula_units_Z   1
loop_
 _symmetry_equiv_pos_site_id
 _symmetry_equiv_pos_as_xyz
  1  'x, y, z'
loop_
 _atom_site_type_symbol
 _atom_site_label
 _atom_site_symmetry_multiplicity
 _atom_site_fract_x
 _atom_site_fract_y
 _atom_site_fract_z
 _atom_site_occupancy
  Y  Y0  1  0.29276965  0.18301859  0.47578725  1
  Y  Y1  1  0.70723035  0.81698141  0.52421275  1
  Y  Y2  1  0.29276965  0.81698141  0.10975306  1
  Y  Y3  1  0.70723035  0.18301859  0.89024694  1
  Y  Y4  1  0.62691395  0.31937837  0.30753458  1
  Y  Y5  1  0.37308605  0.68062163  0.69246542  1
  Y  Y6  1  0.01184479  0.31937837  0.69246542  1
  Y  Y7  1  0.98815521  0.68062163  0.30753458  1
  Y  Y8  1  0.21354552  0.40517921  0.19163469  1
  Y  Y9  1  0.78645448  0.59482079  0.80836531  1
  Y  Y10  1  0.21354552  0.02191183  0.80836531  1
  Y  Y11  1  0.78645448  0.97808817  0.19163469  1
  In  In0  1  0.50000000  0.50000000  0.00000000  1
  Co  Co0  1  0.38837444  0.88837444  0.50000000  1
  Co  Co1  1  0.61162556  0.11162556  0.50000000  1
  Ni  Ni0  1  1.00000000  0.36567201  0.36567201  1
  Ni  Ni1  1  0.00000000  0.63432799  0.63432799  1
  Ni  Ni2  1  0.00000000  0.00000000  0.00000000  1
loop_
_geom_bond_atom_site_label_1
_geom_bond_atom_site_label_2
_geom_bond_distance
_geom_bond_site_symmetry_2
Y0 Y8 3.469276 1_555
Y0 Y11 3.469288 1_445
Y0 Y2 3.524071 1_545
Y0 Y4 3.583565 1_555
Y0 Y7 3.583569 1_445
Y0 Y10 3.622693 1_555
Y0 Y9 3.622694 1_555
Y0 Y6 3.650135 1_555
Y0 Y5 3.650140 1_555
Y1 Y9 3.469276 1_555
Y1 Y10 3.469288 1_665
Y1 Y3 3.524071 1_565
Y1 Y5 3.583565 1_555
Y1 Y6 3.583569 1_665
Y1 Y11 3.622693 1_555
Y1 Y8 3.622694 1_555
Y1 Y7 3.650135 1_555
Y1 Y4 3.650140 1_555
Y2 Y9 3.469293 1_454
Y2 Y7 3.583558 1_455
Y2 Y4 3.583570 1_565
Y2 Y8 3.622689 1_555
Y2 Y6 3.650143 1_554
Y2 Y5 3.650147 1_554
Y3 Y8 3.469293 1_656
Y3 Y6 3.583558 1_655
Y3 Y5 3.583570 1_545
Y3 Y9 3.622689 1_555
Y3 Y7 3.650143 1_556
Y3 Y4 3.650147 1_556
Y10 Y2 3.469310 1_546
Y10 Y3 3.622697 1_555
Y11 Y3 3.469310 1_564
Y11 Y2 3.622697 1_555
In0 Y10 3.349822 1_554
In0 Y11 3.349822 1_555
In0 Y9 3.349830 1_554
In0 Y8 3.349830 1_555
In0 Y7 3.404020 1_555
In0 Y6 3.404020 1_554
In0 Y4 3.404028 1_555
In0 Y5 3.404028 1_554
In0 Y2 3.628174 1_555
In0 Y3 3.628174 1_554
In0 Y1 3.628177 1_555
In0 Y0 3.628177 1_554
Co0 Co1 2.179052 1_565
Co0 Y5 2.726349 1_555
Co0 Y7 2.726356 1_455
Co0 Y2 2.853411 1_555
Co0 Y3 2.853418 1_565
Co0 Y1 2.853426 1_555
Co0 Y0 2.853429 1_565
Co0 Y10 3.424311 1_565
Co0 Y8 3.424316 1_555
Co1 Y4 2.726349 1_555
Co1 Y6 2.726356 1_655
Co1 Y3 2.853411 1_555
Co1 Y2 2.853418 1_545
Co1 Y0 2.853426 1_555
Co1 Y1 2.853429 1_545
Co1 Y11 3.424311 1_545
Co1 Y9 3.424316 1_555
Ni0 Ni1 2.586531 1_655
Ni0 Y8 2.674310 1_655
Ni0 Y11 2.674318 1_545
Ni0 Y4 2.846335 1_555
Ni0 Y5 2.846339 1_655
Ni0 Y6 2.846341 1_655
Ni0 Y7 2.846345 1_555
Ni0 Y0 3.282851 1_655
Ni0 Y3 3.282865 1_554
Ni1 Y9 2.674310 1_455
Ni1 Y10 2.674318 1_565
Ni1 Y5 2.846335 1_555
Ni1 Y4 2.846339 1_455
Ni1 Y7 2.846341 1_455
Ni1 Y6 2.846345 1_555
Ni1 Y1 3.282851 1_455
Ni1 Y2 3.282865 1_556
Ni2 Y8 2.783588 1_555
Ni2 Y9 2.783588 1_444
Ni2 Y11 2.783595 1_445
Ni2 Y10 2.783595 1_554
Ni2 Y0 3.284730 1_555
Ni2 Y1 3.284730 1_444
Ni2 Y2 3.284740 1_545
Ni2 Y3 3.284740 1_454
