# generated using pymatgen
data_Na10Mn4O9
_symmetry_space_group_name_H-M   'P 1'
_cell_length_a   8.87587422
_cell_length_b   8.87587422
_cell_length_c   8.90709323
_cell_angle_alpha   77.81298692
_cell_angle_beta   77.81298692
_cell_angle_gamma   78.93892194
_symmetry_Int_Tables_number   1
_chemical_formula_structural   Na10Mn4O9
_chemical_formula_sum   'Na20 Mn8 O18'
_cell_volume   662.42494018
_cell_formula_units_Z   2
loop_
 _symmetry_equiv_pos_site_id
 _symmetry_equiv_pos_as_xyz
  1  'x, y, z'
loop_
 _atom_site_type_symbol
 _atom_site_label
 _atom_site_symmetry_multiplicity
 _atom_site_fract_x
 _atom_site_fract_y
 _atom_site_fract_z
 _atom_site_occupancy
  Na  Na0  1  0.73755000  0.26892600  0.01985900  1
  Na  Na1  1  0.43800200  0.12292200  0.11124700  1
  Na  Na2  1  0.12292200  0.43800200  0.11124700  1
  Na  Na3  1  0.73046300  0.99094300  0.26908300  1
  Na  Na4  1  0.99094300  0.73046300  0.26908300  1
  Na  Na5  1  0.54014200  0.79863900  0.18679900  1
  Na  Na6  1  0.79863900  0.54014200  0.18679900  1
  Na  Na7  1  0.13903300  0.13903300  0.44624500  1
  Na  Na8  1  0.83661000  0.21922500  0.38869400  1
  Na  Na9  1  0.21922500  0.83661000  0.38869400  1
  Na  Na10  1  0.49932300  0.49932300  0.50055900  1
  Na  Na11  1  0.99573300  0.26074400  0.73515400  1
  Na  Na12  1  0.14494100  0.69949900  0.74676300  1
  Na  Na13  1  0.69949900  0.14494100  0.74676300  1
  Na  Na14  1  0.88393000  0.88393000  0.56429200  1
  Na  Na15  1  0.28179900  0.28179900  0.84747600  1
  Na  Na16  1  0.26074400  0.99573300  0.73515400  1
  Na  Na17  1  0.87781700  0.55024100  0.86476100  1
  Na  Na18  1  0.55024100  0.87781700  0.86476100  1
  Na  Na19  1  0.26892600  0.73755000  0.01985900  1
  Mn  Mn0  1  0.08757100  0.08757100  0.09247400  1
  Mn  Mn1  1  0.46822500  0.46822500  0.17432000  1
  Mn  Mn2  1  0.47421500  0.16706900  0.46581200  1
  Mn  Mn3  1  0.16706900  0.47421500  0.46581200  1
  Mn  Mn4  1  0.53412400  0.82833700  0.53073800  1
  Mn  Mn5  1  0.82833700  0.53412400  0.53073800  1
  Mn  Mn6  1  0.53010300  0.53010300  0.83951800  1
  Mn  Mn7  1  0.90044500  0.90044500  0.92867900  1
  O  O0  1  0.01231900  0.69218400  0.01257700  1
  O  O1  1  0.69218400  0.01231900  0.01257700  1
  O  O2  1  0.61538500  0.61538500  0.00777600  1
  O  O3  1  0.30289400  0.61500600  0.29596900  1
  O  O4  1  0.61500600  0.30289400  0.29596900  1
  O  O5  1  0.99310800  0.40175700  0.37753300  1
  O  O6  1  0.40175700  0.99310800  0.37753300  1
  O  O7  1  0.69710000  0.69710000  0.38407400  1
  O  O8  1  0.00144000  0.00144000  0.71054400  1
  O  O9  1  0.99069700  0.99069700  0.30695200  1
  O  O10  1  0.27680100  0.27680100  0.59313200  1
  O  O11  1  0.62452900  0.00283900  0.59650900  1
  O  O12  1  0.00283900  0.62452900  0.59650900  1
  O  O13  1  0.71713900  0.39829000  0.72024600  1
  O  O14  1  0.39829000  0.71713900  0.72024600  1
  O  O15  1  0.38833800  0.38833800  0.00657600  1
  O  O16  1  0.99949300  0.29971200  0.98474900  1
  O  O17  1  0.29971200  0.99949300  0.98474900  1
loop_
_geom_bond_atom_site_label_1
_geom_bond_atom_site_label_2
_geom_bond_distance
_geom_bond_site_symmetry_2
Na0 O16 2.340658 1_554
Na0 O1 2.403989 1_555
Na0 O4 2.525892 1_555
Na0 O13 2.702527 1_554
Na1 O15 2.336889 1_555
Na1 O1 2.345921 1_555
Na1 O17 2.365883 1_544
Na1 O6 2.392265 1_545
Na2 O15 2.336889 1_555
Na2 O0 2.345921 1_555
Na2 O16 2.365883 1_454
Na2 O5 2.392265 1_455
Na3 O1 2.343369 1_565
Na3 O9 2.403262 1_555
Na3 O7 2.641865 1_555
Na3 O4 2.803849 1_565
Na3 O6 2.870892 1_555
Na3 O11 2.887015 1_565
Na4 O0 2.343369 1_655
Na4 O9 2.403262 1_555
Na4 O7 2.641865 1_555
Na4 O3 2.803849 1_655
Na4 O5 2.870892 1_555
Na4 O12 2.887015 1_655
Na5 O7 2.392447 1_555
Na5 O2 2.421349 1_555
Na5 O1 2.584891 1_565
Na5 O6 2.630172 1_555
Na5 O3 2.796381 1_555
Na6 O7 2.392447 1_555
Na6 O2 2.421349 1_555
Na6 O0 2.584891 1_655
Na6 O5 2.630172 1_555
Na6 O4 2.796381 1_555
Na7 O6 2.462341 1_545
Na7 O5 2.462341 1_455
Na7 O10 2.574289 1_555
Na7 O8 2.582537 1_555
Na7 O9 2.655328 1_445
Na8 O4 2.229097 1_555
Na8 O5 2.302478 1_555
Na8 O9 2.377727 1_545
Na9 O3 2.229097 1_555
Na9 O6 2.302478 1_555
Na9 O9 2.377727 1_455
Na10 O7 2.623762 1_555
Na10 O4 2.698018 1_555
Na10 O3 2.698018 1_555
Na10 O14 2.926077 1_555
Na10 O13 2.926077 1_555
Na10 O10 2.933156 1_555
Na11 O16 2.328866 1_555
Na11 O8 2.347622 1_655
Na11 O13 2.556262 1_555
Na11 O10 2.563609 1_655
Na12 O14 2.243249 1_555
Na12 O12 2.288113 1_555
Na12 O0 2.404841 1_556
Na12 O8 2.721651 1_565
Na13 O13 2.243249 1_555
Na13 O11 2.288113 1_555
Na13 O1 2.404841 1_556
Na13 O8 2.721651 1_655
Na14 O12 2.326769 1_655
Na14 O11 2.326769 1_565
Na14 O8 2.331827 1_665
Na14 O9 2.358056 1_555
Na15 O10 2.285145 1_555
Na15 O15 2.295938 1_556
Na15 O16 2.536643 1_455
Na15 O17 2.536643 1_545
Na16 O17 2.328866 1_555
Na16 O8 2.347622 1_565
Na16 O14 2.556262 1_555
Na16 O10 2.563609 1_565
Na17 O16 2.411577 1_555
Na17 O12 2.423071 1_655
Na17 O2 2.433954 1_556
Na17 O0 2.585929 1_656
Na17 O13 2.784944 1_555
Na18 O17 2.411577 1_555
Na18 O11 2.423071 1_565
Na18 O2 2.433954 1_556
Na18 O1 2.585929 1_566
Na18 O14 2.784944 1_555
Na19 O17 2.340658 1_554
Na19 O0 2.403989 1_555
Na19 O3 2.525892 1_555
Na19 O14 2.702527 1_554
Mn0 O9 2.006197 1_445
Mn0 O17 2.016521 1_544
Mn0 O16 2.016521 1_454
Mn1 O4 2.053264 1_555
Mn1 O3 2.053264 1_555
Mn1 O15 2.079768 1_555
Mn1 O2 2.152028 1_555
Mn2 O10 2.068210 1_555
Mn2 O4 2.076889 1_555
Mn2 O11 2.110237 1_555
Mn2 O6 2.126770 1_545
Mn3 O10 2.068210 1_555
Mn3 O3 2.076889 1_555
Mn3 O12 2.110237 1_555
Mn3 O5 2.126770 1_455
Mn4 O14 2.042282 1_555
Mn4 O7 2.086623 1_555
Mn4 O11 2.108198 1_565
Mn4 O6 2.134559 1_555
Mn5 O13 2.042282 1_555
Mn5 O7 2.086623 1_555
Mn5 O12 2.108198 1_655
Mn5 O5 2.134559 1_555
Mn6 O14 2.070812 1_555
Mn6 O13 2.070812 1_555
Mn6 O15 2.099340 1_556
Mn6 O2 2.137712 1_556
Mn7 O0 1.996787 1_656
Mn7 O1 1.996787 1_566
Mn7 O8 2.054218 1_665
