# generated using pymatgen
data_Ca3RuBr2O5
_symmetry_space_group_name_H-M   'P 1'
_cell_length_a   6.98909307
_cell_length_b   6.98909299
_cell_length_c   10.84290042
_cell_angle_alpha   90.00000000
_cell_angle_beta   90.00000000
_cell_angle_gamma   133.38442058
_symmetry_Int_Tables_number   1
_chemical_formula_structural   Ca3RuBr2O5
_chemical_formula_sum   'Ca6 Ru2 Br4 O10'
_cell_volume   384.92756078
_cell_formula_units_Z   2
loop_
 _symmetry_equiv_pos_site_id
 _symmetry_equiv_pos_as_xyz
  1  'x, y, z'
loop_
 _atom_site_type_symbol
 _atom_site_label
 _atom_site_symmetry_multiplicity
 _atom_site_fract_x
 _atom_site_fract_y
 _atom_site_fract_z
 _atom_site_occupancy
  Ca  Ca0  1  0.88531096  0.11468904  0.75000000  1
  Ca  Ca1  1  0.66620994  0.33379006  0.53510170  1
  Ca  Ca2  1  0.33379006  0.66620994  0.46489830  1
  Ca  Ca3  1  0.66620994  0.33379006  0.96489830  1
  Ca  Ca4  1  0.33379006  0.66620994  0.03510170  1
  Ca  Ca5  1  0.11468904  0.88531096  0.25000000  1
  Ru  Ru0  1  0.76739251  0.23260749  0.25000000  1
  Ru  Ru1  1  0.23260749  0.76739251  0.75000000  1
  Br  Br0  1  0.48973586  0.51026414  0.25000000  1
  Br  Br1  1  0.51026414  0.48973586  0.75000000  1
  Br  Br2  1  0.00000000  0.00000000  0.50000000  1
  Br  Br3  1  0.00000000  0.00000000  0.00000000  1
  O  O0  1  0.10372254  0.89627746  0.75000000  1
  O  O1  1  0.04913562  0.48778186  0.63198556  1
  O  O2  1  0.48778186  0.04913562  0.36801444  1
  O  O3  1  0.51221814  0.95086438  0.63198556  1
  O  O4  1  0.95086438  0.51221814  0.36801444  1
  O  O5  1  0.89627746  0.10372254  0.25000000  1
  O  O6  1  0.04913562  0.48778186  0.86801444  1
  O  O7  1  0.51221814  0.95086438  0.86801444  1
  O  O8  1  0.95086438  0.51221814  0.13198556  1
  O  O9  1  0.48778186  0.04913562  0.13198556  1
loop_
_geom_bond_atom_site_label_1
_geom_bond_atom_site_label_2
_geom_bond_distance
_geom_bond_site_symmetry_2
Ca0 O6 2.376190 1_655
Ca0 O1 2.376190 1_655
Ca0 O7 2.376190 1_545
Ca0 O3 2.376190 1_545
Ca0 O0 2.803850 1_645
Ca1 O2 2.321019 1_555
Ca1 O4 2.321019 1_555
Ca1 O3 2.338258 1_545
Ca1 O1 2.338258 1_655
Ca2 O3 2.321019 1_555
Ca2 O1 2.321019 1_555
Ca2 O2 2.338258 1_565
Ca2 O4 2.338258 1_455
Ca3 O9 2.321019 1_556
Ca3 O8 2.321019 1_556
Ca3 O7 2.338258 1_545
Ca3 O6 2.338258 1_655
Ca4 O7 2.321019 1_554
Ca4 O6 2.321019 1_554
Ca4 O9 2.338258 1_565
Ca4 O8 2.338258 1_455
Ca5 O4 2.376190 1_455
Ca5 O8 2.376190 1_455
Ca5 O2 2.376190 1_565
Ca5 O9 2.376190 1_565
Ca5 O5 2.803850 1_465
Br0 Ca2 3.072012 1_555
Br0 Ca4 3.072012 1_555
Br0 Ca5 3.196934 1_545
Br0 Ca5 3.196934 1_655
Br1 Ca3 3.072012 1_555
Br1 Ca1 3.072012 1_555
Br1 Ca0 3.196934 1_565
Br1 Ca0 3.196934 1_455
Br2 Ca5 3.084760 1_545
Br2 Ca0 3.084760 1_455
Br2 Ca2 3.513532 1_555
Br2 Ca1 3.513532 1_445
Br2 Ca1 3.513532 1_555
Br2 Ca2 3.513532 1_445
Br3 Ca5 3.084760 1_545
Br3 Ca0 3.084760 1_454
Br3 Ca4 3.513532 1_555
Br3 Ca3 3.513532 1_444
Br3 Ca3 3.513532 1_554
Br3 Ca4 3.513532 1_445
O0 Ru1 1.654556 1_555
O1 Ru1 1.912630 1_555
O2 Ru0 1.912630 1_555
O3 Ru1 1.912630 1_555
O4 Ru0 1.912630 1_555
O5 Ru0 1.654556 1_555
O6 Ru1 1.912630 1_555
O7 Ru1 1.912630 1_555
O8 Ru0 1.912630 1_555
O9 Ru0 1.912630 1_555
