# generated using pymatgen
data_CaNb6Sn5Sb
_symmetry_space_group_name_H-M   'P 1'
_cell_length_a   5.81104233
_cell_length_b   5.81104355
_cell_length_c   9.64900830
_cell_angle_alpha   90.00000000
_cell_angle_beta   90.00000000
_cell_angle_gamma   120.00000428
_symmetry_Int_Tables_number   1
_chemical_formula_structural   CaNb6Sn5Sb
_chemical_formula_sum   'Ca1 Nb6 Sn5 Sb1'
_cell_volume   282.17690284
_cell_formula_units_Z   1
loop_
 _symmetry_equiv_pos_site_id
 _symmetry_equiv_pos_as_xyz
  1  'x, y, z'
loop_
 _atom_site_type_symbol
 _atom_site_label
 _atom_site_symmetry_multiplicity
 _atom_site_fract_x
 _atom_site_fract_y
 _atom_site_fract_z
 _atom_site_occupancy
  Ca  Ca0  1  0.00000000  0.00000000  0.99870649  1
  Nb  Nb0  1  0.00000000  0.50000000  0.74944050  1
  Nb  Nb1  1  0.50000000  0.50000000  0.74944050  1
  Nb  Nb2  1  0.50000000  0.00000000  0.74944050  1
  Nb  Nb3  1  0.00000000  0.50000000  0.25164146  1
  Nb  Nb4  1  0.50000000  0.50000000  0.25164146  1
  Nb  Nb5  1  0.50000000  0.00000000  0.25164146  1
  Sn  Sn0  1  0.66666700  0.33333300  0.49964472  1
  Sn  Sn1  1  0.33333300  0.66666700  0.49964472  1
  Sn  Sn2  1  0.66666700  0.33333300  0.00074593  1
  Sn  Sn3  1  0.33333300  0.66666700  0.00074593  1
  Sn  Sn4  1  0.00000000  0.00000000  0.31873556  1
  Sb  Sb0  1  0.00000000  0.00000000  0.67853075  1
loop_
_geom_bond_atom_site_label_1
_geom_bond_atom_site_label_2
_geom_bond_distance
_geom_bond_site_symmetry_2
Ca0 Sn4 3.087963 1_556
Ca0 Sb0 3.089378 1_555
Ca0 Sn3 3.355062 1_546
Ca0 Sn2 3.355062 1_456
Ca0 Sn2 3.355066 1_556
Ca0 Sn3 3.355066 1_446
Ca0 Sn3 3.355067 1_556
Ca0 Sn2 3.355067 1_446
Nb0 Sn1 2.936574 1_555
Nb0 Sn0 2.936574 1_455
Nb0 Sn3 2.948542 1_556
Nb0 Sn2 2.948542 1_456
Nb0 Sb0 2.984996 1_565
Nb0 Sb0 2.984996 1_555
Nb1 Sn0 2.936577 1_555
Nb1 Sn1 2.936577 1_555
Nb1 Sn2 2.948545 1_556
Nb1 Sn3 2.948545 1_556
Nb1 Sb0 2.984995 1_665
Nb1 Sb0 2.984995 1_555
Nb2 Sn0 2.936575 1_555
Nb2 Sn1 2.936575 1_545
Nb2 Sn2 2.948542 1_556
Nb2 Sn3 2.948542 1_546
Nb2 Sb0 2.984995 1_555
Nb2 Sb0 2.984995 1_655
Nb3 Sn1 2.922395 1_555
Nb3 Sn0 2.922395 1_455
Nb3 Sn3 2.945290 1_555
Nb3 Sn2 2.945290 1_455
Nb3 Sn4 2.976772 1_565
Nb3 Sn4 2.976772 1_555
Nb4 Sn1 2.922398 1_555
Nb4 Sn0 2.922398 1_555
Nb4 Sn3 2.945293 1_555
Nb4 Sn2 2.945293 1_555
Nb4 Sn4 2.976772 1_665
Nb4 Sn4 2.976772 1_555
Nb5 Sn0 2.922395 1_555
Nb5 Sn1 2.922395 1_545
Nb5 Sn2 2.945291 1_555
Nb5 Sn3 2.945291 1_545
Nb5 Sn4 2.976772 1_555
Nb5 Sn4 2.976772 1_655
