# generated using pymatgen
data_RbHBr2
_symmetry_space_group_name_H-M   'P 1'
_cell_length_a   6.86988340
_cell_length_b   6.86988199
_cell_length_c   6.86988332
_cell_angle_alpha   113.44756256
_cell_angle_beta   113.44755235
_cell_angle_gamma   101.78156023
_symmetry_Int_Tables_number   1
_chemical_formula_structural   RbHBr2
_chemical_formula_sum   'Rb2 H2 Br4'
_cell_volume   246.28156811
_cell_formula_units_Z   2
loop_
 _symmetry_equiv_pos_site_id
 _symmetry_equiv_pos_as_xyz
  1  'x, y, z'
loop_
 _atom_site_type_symbol
 _atom_site_label
 _atom_site_symmetry_multiplicity
 _atom_site_fract_x
 _atom_site_fract_y
 _atom_site_fract_z
 _atom_site_occupancy
  Rb  Rb0  1  0.25000000  0.25000000  0.00000000  1
  Rb  Rb1  1  0.75000000  0.75000000  0.00000000  1
  H  H0  1  0.50000000  0.00000000  0.50000000  1
  H  H1  1  0.00000000  0.50000000  0.50000000  1
  Br  Br0  1  0.84013070  0.34013070  0.18026140  1
  Br  Br1  1  0.34013070  0.15986930  0.50000000  1
  Br  Br2  1  0.65987030  0.84013070  0.50000000  1
  Br  Br3  1  0.15986930  0.65986830  0.81973860  1
loop_
_geom_bond_atom_site_label_1
_geom_bond_atom_site_label_2
_geom_bond_distance
_geom_bond_site_symmetry_2
Br0 H1 1.704415 1_655
Br0 Rb1 3.566815 1_545
Br0 Rb1 3.566815 1_555
Br0 Rb0 3.566816 1_655
Br0 Rb0 3.566816 1_555
Br1 H0 1.704415 1_555
Br1 Rb1 3.566815 1_556
Br1 Rb1 3.566815 1_445
Br1 Rb0 3.566816 1_556
Br1 Rb0 3.566816 1_555
Br2 H0 1.704420 1_565
Br2 Rb0 3.566811 1_666
Br2 Rb1 3.566811 1_555
Br2 Rb0 3.566816 1_555
Br2 Rb1 3.566817 1_556
Br3 H1 1.704415 1_555
Br3 Rb0 3.566809 1_556
Br3 Rb1 3.566814 1_556
Br3 Rb1 3.566817 1_456
Br3 Rb0 3.566821 1_566
