# generated using pymatgen
data_CaI2
_symmetry_space_group_name_H-M   'P 1'
_cell_length_a   4.52896507
_cell_length_b   4.52896600
_cell_length_c   7.20982996
_cell_angle_alpha   90.00000000
_cell_angle_beta   90.00000000
_cell_angle_gamma   120.00000086
_symmetry_Int_Tables_number   1
_chemical_formula_structural   CaI2
_chemical_formula_sum   'Ca1 I2'
_cell_volume   128.07184963
_cell_formula_units_Z   1
loop_
 _symmetry_equiv_pos_site_id
 _symmetry_equiv_pos_as_xyz
  1  'x, y, z'
loop_
 _atom_site_type_symbol
 _atom_site_label
 _atom_site_symmetry_multiplicity
 _atom_site_fract_x
 _atom_site_fract_y
 _atom_site_fract_z
 _atom_site_occupancy
  Ca  Ca0  1  -0.00000000  -0.00000000  0.00000000  1
  I  I0  1  0.33333300  0.66666700  0.24430237  1
  I  I1  1  0.66666700  0.33333300  0.75569763  1
loop_
_geom_bond_atom_site_label_1
_geom_bond_atom_site_label_2
_geom_bond_distance
_geom_bond_site_symmetry_2
Ca0 I1 3.152716 1_454
Ca0 I0 3.152716 1_545
Ca0 I1 3.152719 1_554
Ca0 I0 3.152719 1_445
Ca0 I0 3.152719 1_555
Ca0 I1 3.152719 1_444
