# generated using pymatgen
data_Mg4Tc(PIr)6
_symmetry_space_group_name_H-M   'P 1'
_cell_length_a   6.83505859
_cell_length_b   6.83505739
_cell_length_c   6.83505837
_cell_angle_alpha   109.47122645
_cell_angle_beta   109.47122292
_cell_angle_gamma   109.47122188
_symmetry_Int_Tables_number   1
_chemical_formula_structural   Mg4Tc(PIr)6
_chemical_formula_sum   'Mg4 Tc1 P6 Ir6'
_cell_volume   245.81291354
_cell_formula_units_Z   1
loop_
 _symmetry_equiv_pos_site_id
 _symmetry_equiv_pos_as_xyz
  1  'x, y, z'
loop_
 _atom_site_type_symbol
 _atom_site_label
 _atom_site_symmetry_multiplicity
 _atom_site_fract_x
 _atom_site_fract_y
 _atom_site_fract_z
 _atom_site_occupancy
  Mg  Mg0  1  0.50000000  0.50000000  0.50000000  1
  Mg  Mg1  1  0.00000000  0.00000000  0.50000000  1
  Mg  Mg2  1  0.50000000  0.00000000  0.00000000  1
  Mg  Mg3  1  0.00000000  0.50000000  0.00000000  1
  Tc  Tc0  1  0.00000000  0.00000000  0.00000000  1
  P  P0  1  0.31556938  0.00000000  0.31556938  1
  P  P1  1  0.68443062  1.00000000  0.68443062  1
  P  P2  1  1.00000000  0.68443062  0.68443062  1
  P  P3  1  0.00000000  0.31556938  0.31556938  1
  P  P4  1  0.68443062  0.68443062  1.00000000  1
  P  P5  1  0.31556938  0.31556938  0.00000000  1
  Ir  Ir0  1  0.25000000  0.75000000  0.50000000  1
  Ir  Ir1  1  0.25000000  0.50000000  0.75000000  1
  Ir  Ir2  1  0.50000000  0.75000000  0.25000000  1
  Ir  Ir3  1  0.50000000  0.25000000  0.75000000  1
  Ir  Ir4  1  0.75000000  0.25000000  0.50000000  1
  Ir  Ir5  1  0.75000000  0.50000000  0.25000000  1
loop_
_geom_bond_atom_site_label_1
_geom_bond_atom_site_label_2
_geom_bond_distance
_geom_bond_site_symmetry_2
Mg0 P0 2.837982 1_555
Mg0 P1 2.837982 1_555
Mg0 P4 2.837983 1_555
Mg0 P5 2.837983 1_555
Mg0 P2 2.837983 1_555
Mg0 P3 2.837983 1_555
Mg1 P5 2.837982 1_556
Mg1 P4 2.837982 1_444
Mg1 P2 2.837983 1_445
Mg1 P3 2.837983 1_555
Mg1 P0 2.837983 1_555
Mg1 P1 2.837983 1_445
Mg2 P3 2.837983 1_655
Mg2 P2 2.837983 1_444
Mg2 P5 2.837983 1_555
Mg2 P4 2.837983 1_544
Mg2 P0 2.837983 1_555
Mg2 P1 2.837983 1_544
Mg3 P0 2.837982 1_565
Mg3 P1 2.837982 1_444
Mg3 P4 2.837983 1_454
Mg3 P5 2.837983 1_555
Mg3 P3 2.837983 1_555
Mg3 P2 2.837983 1_454
P0 Tc0 2.490614 1_555
P1 Tc0 2.490614 1_666
P2 Tc0 2.490614 1_666
P3 Tc0 2.490614 1_555
P4 Tc0 2.490614 1_666
P5 Tc0 2.490614 1_555
Ir0 P3 2.451930 1_555
Ir0 P1 2.451931 1_555
Ir0 P0 2.451931 1_565
Ir0 P2 2.451931 1_455
Ir0 Mg3 2.790401 1_555
Ir0 Mg2 2.790401 1_566
Ir0 Mg1 2.790401 1_565
Ir0 Mg0 2.790401 1_555
Ir1 P3 2.451931 1_555
Ir1 P4 2.451931 1_555
Ir1 P2 2.451931 1_455
Ir1 P5 2.451931 1_556
Ir1 Mg2 2.790400 1_566
Ir1 Mg1 2.790400 1_555
Ir1 Mg3 2.790401 1_556
Ir1 Mg0 2.790401 1_555
Ir2 P5 2.451930 1_555
Ir2 P1 2.451931 1_555
Ir2 P0 2.451931 1_565
Ir2 P4 2.451931 1_554
Ir2 Mg3 2.790401 1_555
Ir2 Mg1 2.790401 1_665
Ir2 Mg2 2.790401 1_565
Ir2 Mg0 2.790401 1_555
Ir3 P4 2.451930 1_555
Ir3 P0 2.451931 1_555
Ir3 P1 2.451931 1_545
Ir3 P5 2.451931 1_556
Ir3 Mg1 2.790401 1_555
Ir3 Mg3 2.790401 1_656
Ir3 Mg0 2.790401 1_555
Ir3 Mg2 2.790401 1_556
Ir4 P2 2.451930 1_555
Ir4 P0 2.451931 1_555
Ir4 P1 2.451931 1_545
Ir4 P3 2.451931 1_655
Ir4 Mg2 2.790401 1_555
Ir4 Mg3 2.790401 1_656
Ir4 Mg1 2.790401 1_655
Ir4 Mg0 2.790401 1_555
Ir5 P2 2.451931 1_555
Ir5 P5 2.451931 1_555
Ir5 P3 2.451931 1_655
Ir5 P4 2.451931 1_554
Ir5 Mg1 2.790400 1_665
Ir5 Mg2 2.790400 1_555
Ir5 Mg0 2.790401 1_555
Ir5 Mg3 2.790401 1_655
