# generated using pymatgen
data_Hf3Pt(SeO3)8
_symmetry_space_group_name_H-M   'P 1'
_cell_length_a   8.37773992
_cell_length_b   8.37773974
_cell_length_c   8.37773944
_cell_angle_alpha   89.33741165
_cell_angle_beta   90.66258737
_cell_angle_gamma   90.66258258
_symmetry_Int_Tables_number   1
_chemical_formula_structural   Hf3Pt(SeO3)8
_chemical_formula_sum   'Hf3 Pt1 Se8 O24'
_cell_volume   587.88736450
_cell_formula_units_Z   1
loop_
 _symmetry_equiv_pos_site_id
 _symmetry_equiv_pos_as_xyz
  1  'x, y, z'
loop_
 _atom_site_type_symbol
 _atom_site_label
 _atom_site_symmetry_multiplicity
 _atom_site_fract_x
 _atom_site_fract_y
 _atom_site_fract_z
 _atom_site_occupancy
  Hf  Hf0  1  0.50000000  0.00000000  0.50000000  1
  Hf  Hf1  1  0.00000000  0.00000000  0.00000000  1
  Hf  Hf2  1  0.00000000  0.50000000  0.50000000  1
  Pt  Pt0  1  0.50000000  0.50000000  0.00000000  1
  Se  Se0  1  0.81377374  0.18622626  0.68622626  1
  Se  Se1  1  0.18622626  0.81377374  0.31377374  1
  Se  Se2  1  0.68565653  0.66753998  0.71295497  1
  Se  Se3  1  0.21295497  0.68565653  0.83246002  1
  Se  Se4  1  0.33246002  0.21295497  0.81434347  1
  Se  Se5  1  0.78704503  0.31434347  0.16753998  1
  Se  Se6  1  0.66753998  0.78704503  0.18565653  1
  Se  Se7  1  0.31434347  0.33246002  0.28704503  1
  O  O0  1  0.22635401  0.44729048  0.42601591  1
  O  O1  1  0.92601591  0.22635401  0.05270952  1
  O  O2  1  0.02485443  0.72624083  0.40228603  1
  O  O3  1  0.46658525  0.26504218  0.96633853  1
  O  O4  1  0.27375917  0.90228603  0.47514557  1
  O  O5  1  0.53366147  0.53341475  0.76504218  1
  O  O6  1  0.90228603  0.02485443  0.77375917  1
  O  O7  1  0.53341475  0.73495782  0.03366147  1
  O  O8  1  0.55270952  0.92601591  0.27364599  1
  O  O9  1  0.44729048  0.07398409  0.72635401  1
  O  O10  1  0.78684526  0.90963690  0.07762564  1
  O  O11  1  0.26504218  0.53366147  0.96658525  1
  O  O12  1  0.09036310  0.57762564  0.71315474  1
  O  O13  1  0.09771397  0.97514557  0.22624083  1
  O  O14  1  0.21315474  0.09036310  0.92237436  1
  O  O15  1  0.46633853  0.46658525  0.23495782  1
  O  O16  1  0.77364599  0.55270952  0.57398409  1
  O  O17  1  0.90963690  0.42237436  0.28684526  1
  O  O18  1  0.07398409  0.77364599  0.94729048  1
  O  O19  1  0.42237436  0.21315474  0.40963690  1
  O  O20  1  0.57762564  0.78684526  0.59036310  1
  O  O21  1  0.97514557  0.27375917  0.59771397  1
  O  O22  1  0.72624083  0.09771397  0.52485443  1
  O  O23  1  0.73495782  0.46633853  0.03341475  1
loop_
_geom_bond_atom_site_label_1
_geom_bond_atom_site_label_2
_geom_bond_distance
_geom_bond_site_symmetry_2
Hf0 O19 2.041852 1_555
Hf0 O20 2.041852 1_545
Hf0 O9 2.056245 1_555
Hf0 O8 2.056245 1_545
Hf0 O4 2.065168 1_545
Hf0 O22 2.065168 1_555
Hf1 O10 2.041852 1_445
Hf1 O14 2.041852 1_554
Hf1 O1 2.056245 1_455
Hf1 O18 2.056245 1_544
Hf1 O6 2.065168 1_454
Hf1 O13 2.065168 1_545
Hf2 O12 2.041852 1_555
Hf2 O17 2.041852 1_455
Hf2 O0 2.056245 1_555
Hf2 O16 2.056245 1_455
Hf2 O2 2.065168 1_555
Hf2 O21 2.065168 1_455
O0 Se7 1.698981 1_555
O1 Se5 1.698981 1_555
O2 Se1 1.703831 1_555
O3 Se4 1.744405 1_555
O3 Pt0 2.007691 1_556
O4 Se1 1.703831 1_555
O5 Se2 1.744405 1_555
O5 Pt0 2.007691 1_556
O6 Se0 1.703831 1_555
O7 Se6 1.744405 1_555
O7 Pt0 2.007691 1_555
O8 Se6 1.698981 1_555
O9 Se4 1.698981 1_555
O10 Se6 1.687791 1_555
O11 Se3 1.744405 1_555
O11 Pt0 2.007691 1_556
O12 Se3 1.687792 1_555
O13 Se1 1.703831 1_555
O14 Se4 1.687791 1_555
O15 Se7 1.744405 1_555
O15 Pt0 2.007691 1_555
O16 Se2 1.698981 1_555
O17 Se5 1.687792 1_555
O18 Se3 1.698981 1_555
O19 Se7 1.687791 1_555
O20 Se2 1.687791 1_555
O21 Se0 1.703831 1_555
O22 Se0 1.703831 1_555
O23 Se5 1.744405 1_555
O23 Pt0 2.007691 1_555
