# generated using pymatgen
data_KIn(AsO3)2
_symmetry_space_group_name_H-M   'P 1'
_cell_length_a   7.63645551
_cell_length_b   6.77202436
_cell_length_c   6.90789601
_cell_angle_alpha   90.04251171
_cell_angle_beta   120.03352397
_cell_angle_gamma   84.20119444
_symmetry_Int_Tables_number   1
_chemical_formula_structural   KIn(AsO3)2
_chemical_formula_sum   'K2 In2 As4 O12'
_cell_volume   307.17363315
_cell_formula_units_Z   2
loop_
 _symmetry_equiv_pos_site_id
 _symmetry_equiv_pos_as_xyz
  1  'x, y, z'
loop_
 _atom_site_type_symbol
 _atom_site_label
 _atom_site_symmetry_multiplicity
 _atom_site_fract_x
 _atom_site_fract_y
 _atom_site_fract_z
 _atom_site_occupancy
  K  K0  1  0.28467722  0.31721873  0.27221832  1
  K  K1  1  0.71533817  0.68279608  0.72781253  1
  In  In0  1  0.69638082  0.14757428  0.08954810  1
  In  In1  1  0.30363034  0.85242716  0.91046389  1
  As  As0  1  0.79687650  0.62188206  0.24958494  1
  As  As1  1  0.16877434  0.86003230  0.33899377  1
  As  As2  1  0.83121408  0.13996932  0.66099510  1
  As  As3  1  0.20314824  0.37811824  0.75042995  1
  O  O0  1  0.63537380  0.83585407  0.08120639  1
  O  O1  1  0.72094370  0.45067848  0.04799803  1
  O  O2  1  0.02201842  0.07854693  0.29468416  1
  O  O3  1  0.32438087  0.88120965  0.23504453  1
  O  O4  1  0.01366044  0.67507017  0.20384640  1
  O  O5  1  0.68264868  0.21644497  0.38907185  1
  O  O6  1  0.31732239  0.78353862  0.61091354  1
  O  O7  1  0.98633400  0.32493503  0.79611095  1
  O  O8  1  0.67561417  0.11878501  0.76495430  1
  O  O9  1  0.97797058  0.92145769  0.70529591  1
  O  O10  1  0.27905960  0.54932116  0.95202589  1
  O  O11  1  0.36463463  0.16413705  0.91879745  1
loop_
_geom_bond_atom_site_label_1
_geom_bond_atom_site_label_2
_geom_bond_distance
_geom_bond_site_symmetry_2
K0 O10 2.694673 1_554
K0 O5 2.734856 1_555
K0 O2 2.761650 1_555
K0 O4 2.896352 1_555
K0 O7 2.913028 1_454
K0 O11 2.961159 1_554
K0 O3 2.961757 1_545
K0 O8 3.365739 1_555
K1 O1 2.694736 1_556
K1 O6 2.735063 1_555
K1 O9 2.761588 1_555
K1 O7 2.896413 1_555
K1 O4 2.912615 1_656
K1 O0 2.960964 1_556
K1 O8 2.961599 1_565
K1 O3 3.365876 1_555
In0 O1 2.112681 1_555
In0 O2 2.156160 1_655
In0 O5 2.171517 1_555
In0 O8 2.177279 1_554
In0 O11 2.184807 1_554
In0 O0 2.201877 1_545
In1 O10 2.112723 1_555
In1 O9 2.156316 1_455
In1 O6 2.171568 1_555
In1 O3 2.177237 1_556
In1 O0 2.184786 1_556
In1 O11 2.201806 1_565
As0 O1 1.716031 1_555
As0 O0 1.782984 1_555
As0 O4 1.901148 1_655
As0 K1 3.671029 1_555
As1 O6 1.683227 1_555
As1 O3 1.684319 1_555
As1 O2 1.691625 1_565
As1 O4 1.742039 1_555
As2 O5 1.683227 1_555
As2 O8 1.684333 1_555
As2 O9 1.691620 1_545
As2 O7 1.742038 1_555
As3 O10 1.716068 1_555
As3 O11 1.782972 1_555
As3 O7 1.901124 1_455
As3 K0 3.670868 1_555
