# generated using pymatgen
data_Lu2Ti2O7
_symmetry_space_group_name_H-M   'P 1'
_cell_length_a   7.10155967
_cell_length_b   7.10155967
_cell_length_c   7.10155967
_cell_angle_alpha   60.00000000
_cell_angle_beta   60.00000000
_cell_angle_gamma   60.00000000
_symmetry_Int_Tables_number   1
_chemical_formula_structural   Lu2Ti2O7
_chemical_formula_sum   'Lu4 Ti4 O14'
_cell_volume   253.24811635
_cell_formula_units_Z   2
loop_
 _symmetry_equiv_pos_site_id
 _symmetry_equiv_pos_as_xyz
  1  'x, y, z'
loop_
 _atom_site_type_symbol
 _atom_site_label
 _atom_site_symmetry_multiplicity
 _atom_site_fract_x
 _atom_site_fract_y
 _atom_site_fract_z
 _atom_site_occupancy
  Lu  Lu0  1  0.12500000  0.12500000  0.62500000  1
  Lu  Lu1  1  0.12500000  0.62500000  0.12500000  1
  Lu  Lu2  1  0.62500000  0.12500000  0.12500000  1
  Lu  Lu3  1  0.12500000  0.12500000  0.12500000  1
  Ti  Ti0  1  0.62500000  0.62500000  0.12500000  1
  Ti  Ti1  1  0.62500000  0.12500000  0.62500000  1
  Ti  Ti2  1  0.12500000  0.62500000  0.62500000  1
  Ti  Ti3  1  0.62500000  0.62500000  0.62500000  1
  O  O0  1  0.25000000  0.25000000  0.25000000  1
  O  O1  1  0.00000000  0.00000000  0.00000000  1
  O  O2  1  0.54145500  0.95854500  0.54145500  1
  O  O3  1  0.29145500  0.70854500  0.29145500  1
  O  O4  1  0.54145500  0.54145500  0.95854500  1
  O  O5  1  0.95854500  0.54145500  0.54145500  1
  O  O6  1  0.54145500  0.95854500  0.95854500  1
  O  O7  1  0.95854500  0.95854500  0.54145500  1
  O  O8  1  0.95854500  0.54145500  0.95854500  1
  O  O9  1  0.70854500  0.29145500  0.29145500  1
  O  O10  1  0.29145500  0.70854500  0.70854500  1
  O  O11  1  0.70854500  0.29145500  0.70854500  1
  O  O12  1  0.29145500  0.29145500  0.70854500  1
  O  O13  1  0.70854500  0.70854500  0.29145500  1
loop_
_geom_bond_atom_site_label_1
_geom_bond_atom_site_label_2
_geom_bond_distance
_geom_bond_site_symmetry_2
Lu0 O0 2.174400 1_555
Lu0 O1 2.174400 1_556
Lu0 O10 2.438582 1_545
Lu0 O12 2.438582 1_555
Lu0 O2 2.438582 1_545
Lu0 O5 2.438582 1_455
Lu0 O7 2.438582 1_445
Lu0 O11 2.438582 1_455
Lu1 O0 2.174400 1_555
Lu1 O1 2.174400 1_565
Lu1 O8 2.438582 1_454
Lu1 O3 2.438582 1_555
Lu1 O13 2.438582 1_455
Lu1 O4 2.438582 1_554
Lu1 O5 2.438582 1_455
Lu1 O10 2.438582 1_554
Lu2 O0 2.174400 1_555
Lu2 O1 2.174400 1_655
Lu2 O9 2.438582 1_555
Lu2 O2 2.438582 1_545
Lu2 O11 2.438582 1_554
Lu2 O4 2.438582 1_554
Lu2 O6 2.438582 1_544
Lu2 O13 2.438582 1_545
Lu3 O0 2.174400 1_555
Lu3 O1 2.174400 1_555
Lu3 O12 2.438582 1_554
Lu3 O8 2.438582 1_454
Lu3 O6 2.438582 1_544
Lu3 O3 2.438582 1_545
Lu3 O9 2.438582 1_455
Lu3 O7 2.438582 1_445
O2 Ti1 1.963675 1_565
O2 Ti3 1.963675 1_555
O3 Ti0 1.963675 1_555
O3 Ti2 1.963675 1_555
O4 Ti3 1.963675 1_555
O4 Ti0 1.963675 1_556
O5 Ti3 1.963675 1_555
O5 Ti2 1.963675 1_655
O6 Ti0 1.963675 1_556
O6 Ti1 1.963675 1_565
O7 Ti1 1.963675 1_565
O7 Ti2 1.963675 1_655
O8 Ti2 1.963675 1_655
O8 Ti0 1.963675 1_556
O9 Ti0 1.963675 1_555
O9 Ti1 1.963675 1_555
O10 Ti2 1.963675 1_555
O10 Ti3 1.963675 1_555
O11 Ti3 1.963675 1_555
O11 Ti1 1.963675 1_555
O12 Ti1 1.963675 1_555
O12 Ti2 1.963675 1_555
O13 Ti3 1.963675 1_555
O13 Ti0 1.963675 1_555
