# generated using pymatgen
data_Tc2Mo(SeS)2
_symmetry_space_group_name_H-M   'P 1'
_cell_length_a   6.51552252
_cell_length_b   6.58305480
_cell_length_c   6.61597465
_cell_angle_alpha   94.06764051
_cell_angle_beta   92.62923821
_cell_angle_gamma   94.72340258
_symmetry_Int_Tables_number   1
_chemical_formula_structural   Tc2Mo(SeS)2
_chemical_formula_sum   'Tc4 Mo2 Se4 S4'
_cell_volume   281.71456464
_cell_formula_units_Z   2
loop_
 _symmetry_equiv_pos_site_id
 _symmetry_equiv_pos_as_xyz
  1  'x, y, z'
loop_
 _atom_site_type_symbol
 _atom_site_label
 _atom_site_symmetry_multiplicity
 _atom_site_fract_x
 _atom_site_fract_y
 _atom_site_fract_z
 _atom_site_occupancy
  Tc  Tc0  1  0.58968070  0.45462196  0.76128530  1
  Tc  Tc1  1  0.45193767  0.76308161  0.58957255  1
  Tc  Tc2  1  0.76753026  0.59323807  0.44820237  1
  Tc  Tc3  1  0.41021047  0.55033106  0.23605172  1
  Mo  Mo0  1  0.54572659  0.23347289  0.40818234  1
  Mo  Mo1  1  0.23059877  0.41037440  0.55093429  1
  Se  Se0  1  0.73560241  0.37629505  0.11787144  1
  Se  Se1  1  0.36499378  0.12068231  0.73891292  1
  Se  Se2  1  0.79189621  0.79445546  0.78386655  1
  Se  Se3  1  0.20416822  0.20867841  0.20931559  1
  S  S0  1  0.86437102  0.29302690  0.61130217  1
  S  S1  1  0.28934784  0.61508407  0.87332236  1
  S  S2  1  0.61864667  0.86705576  0.28999478  1
  S  S3  1  0.13528937  0.71960104  0.38118462  1
loop_
_geom_bond_atom_site_label_1
_geom_bond_atom_site_label_2
_geom_bond_distance
_geom_bond_site_symmetry_2
Mo0 S0 2.409392 1_555
Mo0 Se3 2.520184 1_555
Mo0 Se0 2.527090 1_555
Mo0 S2 2.571152 1_545
Mo0 Mo1 2.622888 1_555
Mo0 Tc3 2.641123 1_555
Mo0 Tc0 2.654504 1_555
Mo0 Se1 2.654934 1_555
Mo0 Tc2 2.660820 1_555
Mo1 S1 2.438086 1_555
Mo1 S3 2.501865 1_555
Mo1 S0 2.505532 1_455
Mo1 Se3 2.530173 1_555
Mo1 Se1 2.542031 1_555
Mo1 Tc1 2.620457 1_555
Mo1 Tc3 2.622354 1_555
Mo1 Tc0 2.650831 1_555
Se0 Tc2 2.515092 1_555
Se0 Tc0 2.604420 1_554
Se0 Tc3 2.616062 1_555
Se1 Tc0 2.530161 1_555
Se1 Tc1 2.603829 1_545
Se2 Tc0 2.492415 1_555
Se2 Tc1 2.495406 1_555
Se2 Tc2 2.495444 1_555
Se3 Tc3 2.513277 1_555
S0 Tc0 2.376178 1_555
S0 Tc2 2.431817 1_555
S1 Tc0 2.420092 1_555
S1 Tc1 2.422311 1_555
S1 Tc3 2.566700 1_556
S2 Tc3 2.388021 1_555
S2 Tc2 2.397557 1_555
S2 Tc1 2.417472 1_555
S3 Tc3 2.388932 1_555
S3 Tc1 2.413506 1_555
S3 Tc2 2.540001 1_455
