# generated using pymatgen
data_Zr4TiSiSn3
_symmetry_space_group_name_H-M   'P 1'
_cell_length_a   8.61583431
_cell_length_b   8.61583409
_cell_length_c   5.77847201
_cell_angle_alpha   90.00000000
_cell_angle_beta   90.00000000
_cell_angle_gamma   120.00000085
_symmetry_Int_Tables_number   1
_chemical_formula_structural   Zr4TiSiSn3
_chemical_formula_sum   'Zr8 Ti2 Si2 Sn6'
_cell_volume   371.48245566
_cell_formula_units_Z   2
loop_
 _symmetry_equiv_pos_site_id
 _symmetry_equiv_pos_as_xyz
  1  'x, y, z'
loop_
 _atom_site_type_symbol
 _atom_site_label
 _atom_site_symmetry_multiplicity
 _atom_site_fract_x
 _atom_site_fract_y
 _atom_site_fract_z
 _atom_site_occupancy
  Zr  Zr0  1  0.33333300  0.66666700  0.50000000  1
  Zr  Zr1  1  0.66666700  0.33333300  0.50000000  1
  Zr  Zr2  1  0.74140758  0.74140758  0.74810980  1
  Zr  Zr3  1  0.25859242  0.00000000  0.74810980  1
  Zr  Zr4  1  0.00000000  0.25859242  0.74810980  1
  Zr  Zr5  1  0.25859242  0.25859242  0.25189020  1
  Zr  Zr6  1  0.74140758  0.00000000  0.25189020  1
  Zr  Zr7  1  1.00000000  0.74140758  0.25189020  1
  Ti  Ti0  1  0.66666700  0.33333300  0.00000000  1
  Ti  Ti1  1  0.33333300  0.66666700  0.00000000  1
  Si  Si0  1  0.00000000  0.00000000  0.00000000  1
  Si  Si1  1  0.00000000  0.00000000  0.50000000  1
  Sn  Sn0  1  0.39707258  0.39707258  0.75933069  1
  Sn  Sn1  1  0.60292742  0.00000000  0.75933069  1
  Sn  Sn2  1  1.00000000  0.60292742  0.75933069  1
  Sn  Sn3  1  0.60292742  0.60292742  0.24066931  1
  Sn  Sn4  1  0.39707258  0.00000000  0.24066931  1
  Sn  Sn5  1  0.00000000  0.39707258  0.24066931  1
loop_
_geom_bond_atom_site_label_1
_geom_bond_atom_site_label_2
_geom_bond_distance
_geom_bond_site_symmetry_2
Ti0 Zr1 2.889236 1_555
Ti0 Zr1 2.889236 1_554
Ti1 Zr0 2.889236 1_555
Ti1 Zr0 2.889236 1_554
Si0 Zr5 2.661303 1_555
Si0 Zr2 2.661303 1_444
Si0 Zr4 2.661303 1_554
Si0 Zr7 2.661303 1_445
Si0 Zr3 2.661303 1_554
Si0 Zr6 2.661303 1_455
Si1 Zr5 2.649419 1_555
Si1 Zr2 2.649419 1_445
Si1 Zr4 2.649419 1_555
Si1 Zr7 2.649419 1_445
Si1 Zr3 2.649419 1_555
Si1 Zr6 2.649419 1_455
Sn0 Zr2 2.967442 1_555
Sn0 Ti1 2.984384 1_556
Sn0 Ti0 2.984384 1_556
Sn0 Zr3 3.008313 1_555
Sn0 Zr4 3.008313 1_555
Sn0 Zr0 3.036133 1_555
Sn0 Zr1 3.036133 1_555
Sn0 Zr5 3.086200 1_556
Sn0 Zr5 3.165678 1_555
Sn1 Zr3 2.967442 1_555
Sn1 Ti0 2.984376 1_556
Sn1 Ti1 2.984379 1_546
Sn1 Zr4 3.008313 1_655
Sn1 Zr2 3.008313 1_545
Sn1 Zr1 3.036126 1_555
Sn1 Zr0 3.036129 1_545
Sn1 Zr6 3.086200 1_556
Sn1 Zr6 3.165678 1_555
Sn2 Zr4 2.967442 1_655
Sn2 Ti1 2.984377 1_656
Sn2 Ti0 2.984379 1_556
Sn2 Zr3 3.008313 1_665
Sn2 Zr2 3.008313 1_555
Sn2 Zr0 3.036126 1_655
Sn2 Zr1 3.036129 1_555
Sn2 Zr7 3.086200 1_556
Sn2 Zr7 3.165678 1_555
Sn3 Zr5 2.967442 1_555
Sn3 Ti0 2.984384 1_555
Sn3 Ti1 2.984384 1_555
Sn3 Zr6 3.008313 1_565
Sn3 Zr7 3.008313 1_555
Sn3 Zr1 3.036133 1_555
Sn3 Zr0 3.036133 1_555
Sn3 Zr2 3.086200 1_554
Sn3 Zr2 3.165678 1_555
Sn4 Zr6 2.967442 1_555
Sn4 Ti1 2.984376 1_545
Sn4 Ti0 2.984379 1_555
Sn4 Zr7 3.008313 1_445
Sn4 Zr5 3.008313 1_555
Sn4 Zr0 3.036126 1_545
Sn4 Zr1 3.036129 1_555
Sn4 Zr3 3.086200 1_554
Sn4 Zr3 3.165678 1_555
Sn5 Zr7 2.967442 1_455
Sn5 Ti0 2.984377 1_455
Sn5 Ti1 2.984379 1_555
Sn5 Zr6 3.008313 1_455
Sn5 Zr5 3.008313 1_555
Sn5 Zr1 3.036126 1_455
Sn5 Zr0 3.036129 1_555
Sn5 Zr4 3.086200 1_554
Sn5 Zr4 3.165678 1_555
