# generated using pymatgen
data_RbBaNbS4
_symmetry_space_group_name_H-M   'P 1'
_cell_length_a   7.09768582
_cell_length_b   9.45397049
_cell_length_c   12.61971225
_cell_angle_alpha   90.00000000
_cell_angle_beta   90.00000000
_cell_angle_gamma   90.00000000
_symmetry_Int_Tables_number   1
_chemical_formula_structural   RbBaNbS4
_chemical_formula_sum   'Rb4 Ba4 Nb4 S16'
_cell_volume   846.79925184
_cell_formula_units_Z   4
loop_
 _symmetry_equiv_pos_site_id
 _symmetry_equiv_pos_as_xyz
  1  'x, y, z'
loop_
 _atom_site_type_symbol
 _atom_site_label
 _atom_site_symmetry_multiplicity
 _atom_site_fract_x
 _atom_site_fract_y
 _atom_site_fract_z
 _atom_site_occupancy
  Rb  Rb0  1  0.75000000  0.36343250  0.08765001  1
  Rb  Rb1  1  0.25000000  0.13656750  0.58765001  1
  Rb  Rb2  1  0.75000000  0.86343250  0.41234999  1
  Rb  Rb3  1  0.25000000  0.63656750  0.91234999  1
  Ba  Ba0  1  0.75000000  0.01918088  0.82371994  1
  Ba  Ba1  1  0.25000000  0.48081912  0.32371994  1
  Ba  Ba2  1  0.75000000  0.51918088  0.67628006  1
  Ba  Ba3  1  0.25000000  0.98081912  0.17628006  1
  Nb  Nb0  1  0.75000000  0.27062980  0.42121698  1
  Nb  Nb1  1  0.25000000  0.22937020  0.92121698  1
  Nb  Nb2  1  0.75000000  0.77062980  0.07878302  1
  Nb  Nb3  1  0.25000000  0.72937020  0.57878302  1
  S  S0  1  0.75000000  0.19402867  0.59301274  1
  S  S1  1  0.25000000  0.30597133  0.09301274  1
  S  S2  1  0.75000000  0.69402867  0.90698726  1
  S  S3  1  0.25000000  0.80597133  0.40698726  1
  S  S4  1  0.75000000  0.01207250  0.08435095  1
  S  S5  1  0.25000000  0.48792750  0.58435095  1
  S  S6  1  0.75000000  0.51207250  0.41564905  1
  S  S7  1  0.25000000  0.98792750  0.91564905  1
  S  S8  1  0.00910176  0.18509449  0.33755922  1
  S  S9  1  0.99089824  0.31490551  0.83755922  1
  S  S10  1  0.49089824  0.68509449  0.16244078  1
  S  S11  1  0.50910176  0.81490551  0.66244078  1
  S  S12  1  0.99089824  0.81490551  0.66244078  1
  S  S13  1  0.00910176  0.68509449  0.16244078  1
  S  S14  1  0.50910176  0.31490551  0.83755922  1
  S  S15  1  0.49089824  0.18509449  0.33755922  1
loop_
_geom_bond_atom_site_label_1
_geom_bond_atom_site_label_2
_geom_bond_distance
_geom_bond_site_symmetry_2
Rb0 S4 3.322008 1_555
Rb0 S1 3.590818 1_555
Rb0 S1 3.590818 1_655
Rb0 S9 3.618668 1_554
Rb0 S14 3.618668 1_554
Rb0 S13 3.677011 1_655
Rb0 S10 3.677011 1_555
Rb0 S2 3.868645 1_554
Rb1 S5 3.322008 1_555
Rb1 S0 3.590818 1_555
Rb1 S0 3.590818 1_455
Rb1 S15 3.618668 1_555
Rb1 S8 3.618668 1_555
Rb1 S11 3.677011 1_545
Rb1 S12 3.677011 1_445
Rb1 S3 3.868645 1_545
Rb2 S6 3.322008 1_555
Rb2 S3 3.590818 1_555
Rb2 S3 3.590818 1_655
Rb2 S12 3.618668 1_555
Rb2 S11 3.618668 1_555
Rb2 S8 3.677011 1_665
Rb2 S15 3.677011 1_565
Rb2 S0 3.868645 1_565
Rb3 S7 3.322008 1_555
Rb3 S2 3.590818 1_455
Rb3 S2 3.590818 1_555
Rb3 S10 3.618668 1_556
Rb3 S13 3.618668 1_556
Rb3 S14 3.677011 1_555
Rb3 S9 3.677011 1_455
Rb3 S1 3.868645 1_556
Ba0 S2 3.248623 1_545
Ba0 S9 3.281818 1_555
Ba0 S14 3.281818 1_555
Ba0 S12 3.285651 1_545
Ba0 S11 3.285651 1_545
Ba0 S4 3.289775 1_556
Ba0 S0 3.347987 1_555
Ba0 S7 3.745326 1_545
Ba0 S7 3.745326 1_645
Ba1 S3 3.248623 1_555
Ba1 S15 3.281818 1_555
Ba1 S8 3.281818 1_555
Ba1 S10 3.285651 1_555
Ba1 S13 3.285651 1_555
Ba1 S5 3.289775 1_555
Ba1 S1 3.347987 1_555
Ba1 S6 3.745326 1_455
Ba1 S6 3.745326 1_555
Ba2 S0 3.248623 1_555
Ba2 S12 3.281818 1_555
Ba2 S11 3.281818 1_555
Ba2 S9 3.285651 1_555
Ba2 S14 3.285651 1_555
Ba2 S6 3.289775 1_555
Ba2 S2 3.347987 1_555
Ba2 S5 3.745326 1_555
Ba2 S5 3.745326 1_655
Ba3 S1 3.248623 1_565
Ba3 S10 3.281818 1_555
Ba3 S13 3.281818 1_555
Ba3 S15 3.285651 1_565
Ba3 S8 3.285651 1_565
Ba3 S7 3.289775 1_554
Ba3 S3 3.347987 1_555
Ba3 S4 3.745326 1_565
Ba3 S4 3.745326 1_465
Nb0 S8 2.269471 1_655
Nb0 S15 2.269471 1_555
Nb0 S6 2.283673 1_555
Nb0 S0 2.285765 1_555
Nb1 S14 2.269471 1_555
Nb1 S9 2.269471 1_455
Nb1 S7 2.283673 1_545
Nb1 S1 2.285765 1_556
Nb2 S13 2.269471 1_655
Nb2 S10 2.269471 1_555
Nb2 S4 2.283673 1_565
Nb2 S2 2.285765 1_554
Nb3 S11 2.269471 1_555
Nb3 S12 2.269471 1_455
Nb3 S5 2.283673 1_555
Nb3 S3 2.285765 1_555
