# generated using pymatgen
data_KBa(AsIr)4
_symmetry_space_group_name_H-M   'P 1'
_cell_length_a   7.17683831
_cell_length_b   7.17683840
_cell_length_c   5.72640714
_cell_angle_alpha   90.00000000
_cell_angle_beta   90.00000000
_cell_angle_gamma   132.96472899
_symmetry_Int_Tables_number   1
_chemical_formula_structural   KBa(AsIr)4
_chemical_formula_sum   'K1 Ba1 As4 Ir4'
_cell_volume   215.83663904
_cell_formula_units_Z   1
loop_
 _symmetry_equiv_pos_site_id
 _symmetry_equiv_pos_as_xyz
  1  'x, y, z'
loop_
 _atom_site_type_symbol
 _atom_site_label
 _atom_site_symmetry_multiplicity
 _atom_site_fract_x
 _atom_site_fract_y
 _atom_site_fract_z
 _atom_site_occupancy
  K  K0  1  0.00000000  0.00000000  0.00000000  1
  Ba  Ba0  1  0.50000000  0.50000000  0.50000000  1
  As  As0  1  0.64343040  0.35656960  0.00000000  1
  As  As1  1  0.14548140  0.85451860  0.50000000  1
  As  As2  1  0.85451860  0.14548140  0.50000000  1
  As  As3  1  0.35656960  0.64343040  0.00000000  1
  Ir  Ir0  1  0.50000000  0.00000000  0.75124821  1
  Ir  Ir1  1  0.00000000  0.50000000  0.24875179  1
  Ir  Ir2  1  0.00000000  0.50000000  0.75124821  1
  Ir  Ir3  1  0.50000000  0.00000000  0.24875179  1
loop_
_geom_bond_atom_site_label_1
_geom_bond_atom_site_label_2
_geom_bond_distance
_geom_bond_site_symmetry_2
As0 Ir1 2.459002 1_655
As0 Ir2 2.459002 1_654
As0 Ir3 2.459002 1_555
As0 Ir0 2.459002 1_554
As0 Ba0 3.429508 1_555
As0 Ba0 3.429508 1_554
As0 K0 3.429992 1_555
As0 K0 3.429992 1_665
As1 Ir0 2.452066 1_565
As1 Ir3 2.452066 1_565
As1 Ir2 2.452066 1_555
As1 Ir1 2.452066 1_555
As1 K0 3.444441 1_566
As1 K0 3.444441 1_565
As1 Ba0 3.444923 1_455
As1 Ba0 3.444923 1_565
As2 Ir0 2.452066 1_555
As2 Ir3 2.452066 1_555
As2 Ir2 2.452066 1_655
As2 Ir1 2.452066 1_655
As2 K0 3.444441 1_655
As2 K0 3.444441 1_656
As2 Ba0 3.444923 1_655
As2 Ba0 3.444923 1_545
As3 Ir1 2.459002 1_555
As3 Ir2 2.459002 1_554
As3 Ir3 2.459002 1_565
As3 Ir0 2.459002 1_564
As3 Ba0 3.429508 1_555
As3 Ba0 3.429508 1_554
As3 K0 3.429992 1_665
As3 K0 3.429992 1_555
