# generated using pymatgen
data_Tl
_symmetry_space_group_name_H-M   'P 1'
_cell_length_a   6.77576557
_cell_length_b   6.77576779
_cell_length_c   6.77576612
_cell_angle_alpha   109.47123451
_cell_angle_beta   109.47124123
_cell_angle_gamma   109.47120236
_symmetry_Int_Tables_number   1
_chemical_formula_structural   Tl
_chemical_formula_sum   Tl8
_cell_volume   239.47121341
_cell_formula_units_Z   8
loop_
 _symmetry_equiv_pos_site_id
 _symmetry_equiv_pos_as_xyz
  1  'x, y, z'
loop_
 _atom_site_type_symbol
 _atom_site_label
 _atom_site_symmetry_multiplicity
 _atom_site_fract_x
 _atom_site_fract_y
 _atom_site_fract_z
 _atom_site_occupancy
  Tl  Tl0_0  1  0.00000000  0.00000000  0.00000000  1
  Tl  Tl0_1  1  0.00000000  0.00000000  0.50000000  1
  Tl  Tl0_2  1  0.00000000  0.50000000  0.00000000  1
  Tl  Tl0_3  1  0.00000000  0.50000000  0.50000000  1
  Tl  Tl0_4  1  0.50000000  0.00000000  0.00000000  1
  Tl  Tl0_5  1  0.50000000  0.00000000  0.50000000  1
  Tl  Tl0_6  1  0.50000000  0.50000000  0.00000000  1
  Tl  Tl0_7  1  0.50000000  0.50000000  0.50000000  1
loop_
_geom_bond_atom_site_label_1
_geom_bond_atom_site_label_2
_geom_bond_distance
_geom_bond_site_symmetry_2
Tl0_0 Tl0_7 3.387882 1_555
Tl0_0 Tl0_7 3.387882 1_444
Tl0_0 Tl0_4 3.387883 1_455
Tl0_0 Tl0_4 3.387883 1_555
Tl0_0 Tl0_1 3.387883 1_555
Tl0_0 Tl0_1 3.387883 1_554
Tl0_0 Tl0_2 3.387884 1_555
Tl0_0 Tl0_2 3.387884 1_545
Tl0_1 Tl0_6 3.387882 1_556
Tl0_1 Tl0_6 3.387882 1_445
Tl0_1 Tl0_5 3.387883 1_455
Tl0_1 Tl0_5 3.387883 1_555
Tl0_1 Tl0_3 3.387884 1_555
Tl0_1 Tl0_3 3.387884 1_545
Tl0_2 Tl0_5 3.387882 1_454
Tl0_2 Tl0_5 3.387882 1_565
Tl0_2 Tl0_6 3.387883 1_555
Tl0_2 Tl0_6 3.387883 1_455
Tl0_2 Tl0_3 3.387883 1_555
Tl0_2 Tl0_3 3.387883 1_554
Tl0_3 Tl0_4 3.387882 1_455
Tl0_3 Tl0_4 3.387882 1_566
Tl0_3 Tl0_7 3.387883 1_555
Tl0_3 Tl0_7 3.387883 1_455
Tl0_4 Tl0_5 3.387883 1_555
Tl0_4 Tl0_5 3.387883 1_554
Tl0_4 Tl0_6 3.387884 1_555
Tl0_4 Tl0_6 3.387884 1_545
Tl0_5 Tl0_7 3.387884 1_555
Tl0_5 Tl0_7 3.387884 1_545
Tl0_6 Tl0_7 3.387883 1_555
Tl0_6 Tl0_7 3.387883 1_554
