# generated using pymatgen
data_KLiMgS2
_symmetry_space_group_name_H-M   'P 1'
_cell_length_a   7.24298606
_cell_length_b   7.24298642
_cell_length_c   7.24298541
_cell_angle_alpha   147.24384941
_cell_angle_beta   147.24385215
_cell_angle_gamma   47.00285715
_symmetry_Int_Tables_number   1
_chemical_formula_structural   KLiMgS2
_chemical_formula_sum   'K1 Li1 Mg1 S2'
_cell_volume   110.82179062
_cell_formula_units_Z   1
loop_
 _symmetry_equiv_pos_site_id
 _symmetry_equiv_pos_as_xyz
  1  'x, y, z'
loop_
 _atom_site_type_symbol
 _atom_site_label
 _atom_site_symmetry_multiplicity
 _atom_site_fract_x
 _atom_site_fract_y
 _atom_site_fract_z
 _atom_site_occupancy
  K  K0  1  0.75000100  0.25000000  0.50000100  1
  Li  Li0  1  0.00000000  0.00000000  0.00000000  1
  Mg  Mg0  1  0.50000000  0.50000000  0.00000000  1
  S  S0  1  0.10093242  0.60093342  0.50000100  1
  S  S1  1  0.39906758  0.89906858  0.50000100  1
loop_
_geom_bond_atom_site_label_1
_geom_bond_atom_site_label_2
_geom_bond_distance
_geom_bond_site_symmetry_2
K0 S1 3.501957 1_645
K0 S0 3.501957 1_645
K0 S1 3.501961 1_544
K0 S0 3.501961 1_656
K0 S0 3.501962 1_544
K0 S1 3.501962 1_656
K0 S0 3.501966 1_555
K0 S1 3.501967 1_555
Li0 S0 2.443138 1_544
Li0 S1 2.443142 1_545
Li0 S1 2.443142 1_444
Li0 S0 2.443146 1_555
Mg0 S1 2.443139 1_544
Mg0 S0 2.443142 1_554
Mg0 S0 2.443142 1_655
Mg0 S1 2.443145 1_555
