# generated using pymatgen
data_LiSc6Zn22Si
_symmetry_space_group_name_H-M   'P 1'
_cell_length_a   8.72409913
_cell_length_b   8.72409926
_cell_length_c   8.72409934
_cell_angle_alpha   60.00000338
_cell_angle_beta   60.00000288
_cell_angle_gamma   59.99999816
_symmetry_Int_Tables_number   1
_chemical_formula_structural   LiSc6Zn22Si
_chemical_formula_sum   'Li1 Sc6 Zn22 Si1'
_cell_volume   469.51212072
_cell_formula_units_Z   1
loop_
 _symmetry_equiv_pos_site_id
 _symmetry_equiv_pos_as_xyz
  1  'x, y, z'
loop_
 _atom_site_type_symbol
 _atom_site_label
 _atom_site_symmetry_multiplicity
 _atom_site_fract_x
 _atom_site_fract_y
 _atom_site_fract_z
 _atom_site_occupancy
  Li  Li0  1  0.00000000  0.00000000  0.00000000  1
  Sc  Sc0  1  0.71089415  0.28910585  0.28910585  1
  Sc  Sc1  1  0.28910585  0.71089415  0.71089415  1
  Sc  Sc2  1  0.28910585  0.71089415  0.28910585  1
  Sc  Sc3  1  0.71089415  0.28910585  0.71089415  1
  Sc  Sc4  1  0.28910585  0.28910585  0.71089415  1
  Sc  Sc5  1  0.71089415  0.71089415  0.28910585  1
  Zn  Zn0  1  0.12183760  0.12183760  0.12183760  1
  Zn  Zn1  1  0.87816240  0.87816240  0.87816240  1
  Zn  Zn2  1  0.12183760  0.12183760  0.63448819  1
  Zn  Zn3  1  0.12183760  0.63448819  0.12183760  1
  Zn  Zn4  1  0.87816240  0.87816240  0.36551181  1
  Zn  Zn5  1  0.87816240  0.36551181  0.87816240  1
  Zn  Zn6  1  0.63448819  0.12183760  0.12183760  1
  Zn  Zn7  1  0.36551181  0.87816240  0.87816240  1
  Zn  Zn8  1  0.50000000  0.00000000  0.00000000  1
  Zn  Zn9  1  0.00000000  0.50000000  0.50000000  1
  Zn  Zn10  1  0.00000000  0.50000000  0.00000000  1
  Zn  Zn11  1  0.50000000  0.00000000  0.50000000  1
  Zn  Zn12  1  0.00000000  0.00000000  0.50000000  1
  Zn  Zn13  1  0.50000000  0.50000000  0.00000000  1
  Zn  Zn14  1  0.33243954  0.33243954  0.33243954  1
  Zn  Zn15  1  0.66756046  0.66756046  0.66756046  1
  Zn  Zn16  1  0.33243954  0.33243954  0.00268337  1
  Zn  Zn17  1  0.33243954  0.00268337  0.33243954  1
  Zn  Zn18  1  0.66756046  0.66756046  0.99731663  1
  Zn  Zn19  1  0.66756046  0.99731663  0.66756046  1
  Zn  Zn20  1  0.00268337  0.33243954  0.33243954  1
  Zn  Zn21  1  0.99731663  0.66756046  0.66756046  1
  Si  Si0  1  0.50000000  0.50000000  0.50000000  1
loop_
_geom_bond_atom_site_label_1
_geom_bond_atom_site_label_2
_geom_bond_distance
_geom_bond_site_symmetry_2
Li0 Zn7 2.603613 1_544
Li0 Zn6 2.603613 1_455
Li0 Zn5 2.603613 1_454
Li0 Zn3 2.603613 1_545
Li0 Zn4 2.603613 1_445
Li0 Zn2 2.603613 1_554
Li0 Zn0 2.603620 1_555
Li0 Zn1 2.603620 1_444
Sc0 Si0 2.601957 1_555
Sc0 Zn14 2.972111 1_555
Sc0 Zn18 2.972117 1_554
Sc0 Zn19 2.972117 1_545
Sc0 Zn20 2.972128 1_655
Sc0 Zn12 3.121942 1_655
Sc0 Zn13 3.121942 1_555
Sc0 Zn11 3.121942 1_555
Sc0 Zn10 3.121942 1_655
Sc1 Si0 2.601957 1_555
Sc1 Zn15 2.972111 1_555
Sc1 Zn16 2.972117 1_556
Sc1 Zn17 2.972117 1_565
Sc1 Zn21 2.972128 1_455
Sc1 Zn12 3.121942 1_565
Sc1 Zn13 3.121942 1_556
Sc1 Zn11 3.121942 1_565
Sc1 Zn10 3.121942 1_556
Sc2 Si0 2.601957 1_555
Sc2 Zn14 2.972111 1_555
Sc2 Zn18 2.972117 1_554
Sc2 Zn21 2.972117 1_455
Sc2 Zn17 2.972128 1_565
Sc2 Zn12 3.121942 1_565
Sc2 Zn13 3.121942 1_555
Sc2 Zn9 3.121942 1_555
Sc2 Zn8 3.121942 1_565
Sc3 Si0 2.601957 1_555
Sc3 Zn15 2.972111 1_555
Sc3 Zn16 2.972117 1_556
Sc3 Zn20 2.972117 1_655
Sc3 Zn19 2.972128 1_545
Sc3 Zn12 3.121942 1_655
Sc3 Zn13 3.121942 1_556
Sc3 Zn9 3.121942 1_655
Sc3 Zn8 3.121942 1_556
Sc4 Si0 2.601957 1_555
Sc4 Zn14 2.972111 1_555
Sc4 Zn19 2.972117 1_545
Sc4 Zn21 2.972117 1_455
Sc4 Zn16 2.972128 1_556
Sc4 Zn9 3.121942 1_555
Sc4 Zn11 3.121942 1_555
Sc4 Zn10 3.121942 1_556
Sc4 Zn8 3.121942 1_556
Sc5 Si0 2.601957 1_555
Sc5 Zn15 2.972111 1_555
Sc5 Zn17 2.972117 1_565
Sc5 Zn20 2.972117 1_655
Sc5 Zn18 2.972128 1_554
Sc5 Zn9 3.121942 1_655
Sc5 Zn11 3.121942 1_565
Sc5 Zn10 3.121942 1_655
Sc5 Zn8 3.121942 1_565
Zn0 Zn8 2.694479 1_555
Zn0 Zn10 2.694479 1_555
Zn0 Zn12 2.694479 1_555
Zn0 Zn17 2.718072 1_555
Zn0 Zn20 2.718072 1_555
Zn0 Zn16 2.718072 1_555
Zn1 Zn8 2.694479 1_566
Zn1 Zn10 2.694479 1_656
Zn1 Zn12 2.694479 1_665
Zn1 Zn19 2.718072 1_555
Zn1 Zn21 2.718072 1_555
Zn1 Zn18 2.718072 1_555
Zn2 Zn9 2.694479 1_555
Zn2 Zn20 2.718065 1_555
Zn3 Zn9 2.694479 1_555
Zn4 Zn9 2.694479 1_655
Zn5 Zn9 2.694479 1_655
Zn6 Zn8 2.694486 1_555
Zn7 Zn8 2.694486 1_566
Zn10 Zn16 2.518508 1_555
Zn10 Zn18 2.518508 1_454
Zn10 Zn20 2.518508 1_555
Zn10 Zn21 2.518508 1_454
Zn10 Zn3 2.694486 1_555
Zn10 Zn5 2.694486 1_454
Zn11 Zn19 2.518493 1_545
Zn11 Zn17 2.518493 1_555
Zn11 Zn15 2.518503 1_545
Zn11 Zn14 2.518503 1_555
Zn11 Zn4 2.694479 1_545
Zn11 Zn2 2.694479 1_555
Zn11 Zn7 2.694479 1_545
Zn11 Zn6 2.694479 1_555
Zn12 Zn17 2.518508 1_555
Zn12 Zn19 2.518508 1_445
Zn12 Zn20 2.518508 1_555
Zn12 Zn21 2.518508 1_445
Zn12 Zn2 2.694486 1_555
Zn12 Zn4 2.694486 1_445
Zn13 Zn18 2.518493 1_554
Zn13 Zn16 2.518493 1_555
Zn13 Zn14 2.518503 1_555
Zn13 Zn15 2.518503 1_554
Zn13 Zn5 2.694479 1_554
Zn13 Zn3 2.694479 1_555
Zn13 Zn7 2.694479 1_554
Zn13 Zn6 2.694479 1_555
Zn14 Zn9 2.518503 1_555
Zn14 Zn6 2.718069 1_555
Zn14 Zn3 2.718069 1_555
Zn14 Zn2 2.718070 1_555
Zn14 Zn20 2.876826 1_555
Zn14 Zn17 2.876826 1_555
Zn14 Zn16 2.876826 1_555
Zn15 Zn9 2.518503 1_655
Zn15 Zn7 2.718069 1_555
Zn15 Zn5 2.718069 1_555
Zn15 Zn4 2.718070 1_555
Zn15 Zn21 2.876826 1_555
Zn15 Zn19 2.876826 1_555
Zn15 Zn18 2.876826 1_555
Zn16 Zn8 2.518508 1_555
Zn16 Zn6 2.718065 1_555
Zn16 Zn3 2.718065 1_555
Zn16 Zn20 2.876826 1_555
Zn16 Zn17 2.876826 1_555
Zn17 Zn8 2.518508 1_555
Zn17 Zn2 2.718065 1_555
Zn17 Zn6 2.718065 1_555
Zn17 Zn20 2.876825 1_555
Zn18 Zn8 2.518508 1_566
Zn18 Zn7 2.718065 1_555
Zn18 Zn5 2.718065 1_555
Zn18 Zn21 2.876826 1_555
Zn18 Zn19 2.876826 1_555
Zn19 Zn8 2.518508 1_566
Zn19 Zn4 2.718065 1_555
Zn19 Zn7 2.718065 1_555
Zn19 Zn21 2.876825 1_555
Zn20 Zn9 2.518493 1_555
Zn20 Zn3 2.718065 1_555
Zn21 Zn9 2.518493 1_655
Zn21 Zn4 2.718065 1_555
Zn21 Zn5 2.718065 1_555
