# generated using pymatgen
data_Ca12Hg5Rh
_symmetry_space_group_name_H-M   'P 1'
_cell_length_a   9.48870798
_cell_length_b   9.48870870
_cell_length_c   9.48870705
_cell_angle_alpha   121.92396704
_cell_angle_beta   81.47429340
_cell_angle_gamma   128.27669696
_symmetry_Int_Tables_number   1
_chemical_formula_structural   Ca12Hg5Rh
_chemical_formula_sum   'Ca12 Hg5 Rh1'
_cell_volume   548.22772760
_cell_formula_units_Z   1
loop_
 _symmetry_equiv_pos_site_id
 _symmetry_equiv_pos_as_xyz
  1  'x, y, z'
loop_
 _atom_site_type_symbol
 _atom_site_label
 _atom_site_symmetry_multiplicity
 _atom_site_fract_x
 _atom_site_fract_y
 _atom_site_fract_z
 _atom_site_occupancy
  Ca  Ca0  1  0.60299278  0.60299278  0.00000000  1
  Ca  Ca1  1  0.75260167  0.10715138  0.10564076  1
  Ca  Ca2  1  0.41951580  0.20750049  0.21201631  1
  Ca  Ca3  1  0.24726804  0.47267295  0.22540491  1
  Ca  Ca4  1  0.00539889  0.69963214  0.30576676  1
  Ca  Ca5  1  0.00151061  0.10715038  0.35454971  1
  Ca  Ca6  1  0.58984134  0.08984034  0.50000000  1
  Ca  Ca7  1  0.75260167  0.64696191  0.64545029  1
  Ca  Ca8  1  0.39386438  0.69963214  0.69423324  1
  Ca  Ca9  1  0.24726704  0.02186213  0.77459609  1
  Ca  Ca10  1  0.99548418  0.20750049  0.78798369  1
  Ca  Ca11  1  0.00151061  0.64696191  0.89435924  1
  Hg  Hg0  1  0.33357735  0.74633911  0.07995161  1
  Hg  Hg1  1  0.66638751  0.74633911  0.41276176  1
  Hg  Hg2  1  0.99794888  0.49794888  0.50000000  1
  Hg  Hg3  1  0.33357735  0.25362474  0.58723924  1
  Hg  Hg4  1  0.66638751  0.25362474  0.92004839  1
  Rh  Rh0  1  0.99396739  0.99396739  1.00000000  1
loop_
_geom_bond_atom_site_label_1
_geom_bond_atom_site_label_2
_geom_bond_distance
_geom_bond_site_symmetry_2
Ca0 Rh0 3.236465 1_554
Ca0 Hg3 3.406216 1_554
Ca0 Hg1 3.406224 1_555
Ca0 Hg0 3.406225 1_555
Ca0 Hg4 3.406234 1_554
Ca1 Rh0 2.937946 1_544
Ca1 Hg4 3.182201 1_554
Ca1 Hg0 3.182675 1_545
Ca1 Hg2 3.222629 1_555
Ca2 Hg1 3.382578 1_555
Ca2 Hg4 3.382583 1_554
Ca2 Hg0 3.386165 1_545
Ca2 Hg3 3.386170 1_555
Ca2 Rh0 3.524029 1_444
Ca3 Rh0 2.950872 1_444
Ca3 Hg1 3.184186 1_555
Ca3 Hg0 3.184187 1_555
Ca3 Hg2 3.264572 1_455
Ca4 Hg2 3.253909 1_455
Ca4 Hg3 3.435194 1_565
Ca4 Hg0 3.435198 1_555
Ca4 Hg1 3.449185 1_455
Ca4 Hg4 3.449185 1_454
Ca5 Rh0 2.937948 1_444
Ca5 Hg3 3.182215 1_555
Ca5 Hg1 3.182670 1_445
Ca5 Hg2 3.222639 1_455
Ca6 Hg2 3.378295 1_555
Ca6 Hg1 3.426023 1_545
Ca6 Hg3 3.426031 1_555
Ca6 Hg4 3.426031 1_555
Ca6 Hg0 3.426032 1_545
Ca7 Rh0 2.937946 1_555
Ca7 Hg1 3.182202 1_555
Ca7 Hg3 3.182683 1_555
Ca7 Hg2 3.222636 1_555
Ca8 Hg2 3.253900 1_455
Ca8 Hg4 3.435190 1_565
Ca8 Hg1 3.435203 1_555
Ca8 Hg0 3.449183 1_556
Ca8 Hg3 3.449202 1_555
Ca9 Rh0 2.950860 1_445
Ca9 Hg3 3.184184 1_555
Ca9 Hg4 3.184192 1_555
Ca9 Hg2 3.264567 1_445
Ca10 Hg3 3.382576 1_655
Ca10 Hg0 3.382579 1_656
Ca10 Hg4 3.386155 1_555
Ca10 Hg1 3.386160 1_545
Ca10 Rh0 3.524037 1_545
Ca11 Rh0 2.937938 1_455
Ca11 Hg0 3.182215 1_556
Ca11 Hg4 3.182686 1_455
Ca11 Hg2 3.222628 1_455
