# generated using pymatgen
data_Hf16Ni4IrOs3
_symmetry_space_group_name_H-M   'P 1'
_cell_length_a   8.55879872
_cell_length_b   8.55879798
_cell_length_c   8.55879960
_cell_angle_alpha   60.05622966
_cell_angle_beta   60.05623400
_cell_angle_gamma   60.05622743
_symmetry_Int_Tables_number   1
_chemical_formula_structural   Hf16Ni4IrOs3
_chemical_formula_sum   'Hf16 Ni4 Ir1 Os3'
_cell_volume   443.89123968
_cell_formula_units_Z   1
loop_
 _symmetry_equiv_pos_site_id
 _symmetry_equiv_pos_as_xyz
  1  'x, y, z'
loop_
 _atom_site_type_symbol
 _atom_site_label
 _atom_site_symmetry_multiplicity
 _atom_site_fract_x
 _atom_site_fract_y
 _atom_site_fract_z
 _atom_site_occupancy
  Hf  Hf0  1  0.68129420  0.10615298  0.10615298  1
  Hf  Hf1  1  0.10615298  0.68129420  0.10615298  1
  Hf  Hf2  1  0.10615298  0.10615298  0.68129420  1
  Hf  Hf3  1  0.10475944  0.10475944  0.10475944  1
  Hf  Hf4  1  0.31526096  0.31526096  0.68806746  1
  Hf  Hf5  1  0.68548198  0.68548198  0.31489873  1
  Hf  Hf6  1  0.31526096  0.68806746  0.31526096  1
  Hf  Hf7  1  0.68548198  0.31489873  0.68548198  1
  Hf  Hf8  1  0.68806746  0.31526096  0.31526096  1
  Hf  Hf9  1  0.31489873  0.68548198  0.68548198  1
  Hf  Hf10  1  0.95115383  0.95115383  0.54873457  1
  Hf  Hf11  1  0.54948913  0.54948913  0.94965748  1
  Hf  Hf12  1  0.95115383  0.54873457  0.95115383  1
  Hf  Hf13  1  0.54948913  0.94965748  0.54948913  1
  Hf  Hf14  1  0.54873457  0.95115383  0.95115383  1
  Hf  Hf15  1  0.94965748  0.54948913  0.54948913  1
  Ni  Ni0  1  0.32216330  0.89183463  0.89183463  1
  Ni  Ni1  1  0.89183463  0.32216330  0.89183463  1
  Ni  Ni2  1  0.89183463  0.89183463  0.32216330  1
  Ni  Ni3  1  0.89315927  0.89315927  0.89315927  1
  Ir  Ir0  1  0.33400400  0.33400400  0.33400400  1
  Os  Os0  1  0.99785027  0.33333163  0.33333163  1
  Os  Os1  1  0.33333163  0.99785027  0.33333163  1
  Os  Os2  1  0.33333163  0.33333163  0.99785027  1
loop_
_geom_bond_atom_site_label_1
_geom_bond_atom_site_label_2
_geom_bond_distance
_geom_bond_site_symmetry_2
Hf0 Ni3 2.579171 1_544
Hf0 Ni2 2.582708 1_545
Hf0 Ni1 2.582708 1_554
Hf0 Ir0 2.943514 1_555
Hf0 Os2 2.947028 1_554
Hf0 Os1 2.947028 1_545
Hf1 Ni3 2.579171 1_454
Hf1 Ni0 2.582708 1_554
Hf1 Ni2 2.582708 1_455
Hf1 Ir0 2.943514 1_555
Hf1 Os2 2.947028 1_554
Hf1 Os0 2.947028 1_455
Hf2 Ni3 2.579171 1_445
Hf2 Ni0 2.582708 1_545
Hf2 Ni1 2.582708 1_455
Hf2 Ir0 2.943514 1_555
Hf2 Os0 2.947028 1_455
Hf2 Os1 2.947028 1_545
Hf3 Ni1 2.578662 1_454
Hf3 Ni2 2.578662 1_445
Hf3 Ni0 2.578662 1_544
Hf3 Os2 2.956029 1_554
Hf3 Os0 2.956029 1_455
Hf3 Os1 2.956029 1_545
Hf4 Os2 2.814289 1_555
Hf4 Ir0 2.879172 1_555
Hf5 Os0 2.856357 1_555
Hf5 Os1 2.856357 1_555
Hf6 Os1 2.814289 1_555
Hf6 Ir0 2.879172 1_555
Hf7 Os2 2.856357 1_555
Hf7 Os0 2.856357 1_555
Hf8 Os0 2.814289 1_555
Hf8 Ir0 2.879172 1_555
Hf9 Os2 2.856357 1_555
Hf9 Os1 2.856357 1_555
Hf10 Ni2 2.549304 1_555
Hf10 Ni3 2.550913 1_555
Hf10 Os0 2.967709 1_565
Hf10 Os1 2.967709 1_655
Hf11 Ni0 2.537360 1_555
Hf11 Ni1 2.537360 1_555
Hf11 Ir0 2.984366 1_556
Hf11 Os2 2.984754 1_555
Hf12 Ni1 2.549304 1_555
Hf12 Ni3 2.550912 1_555
Hf12 Os2 2.967709 1_655
Hf12 Os0 2.967709 1_556
Hf13 Ni2 2.537361 1_555
Hf13 Ni0 2.537361 1_555
Hf13 Ir0 2.984365 1_565
Hf13 Os1 2.984755 1_555
Hf14 Ni0 2.549304 1_555
Hf14 Ni3 2.550912 1_555
Hf14 Os2 2.967709 1_565
Hf14 Os1 2.967709 1_556
Hf15 Ni2 2.537360 1_555
Hf15 Ni1 2.537361 1_555
Hf15 Ir0 2.984365 1_655
Hf15 Os0 2.984755 1_555
