# generated using pymatgen
data_Ta10AlGa3P2
_symmetry_space_group_name_H-M   'P 1'
_cell_length_a   6.60317082
_cell_length_b   7.55832318
_cell_length_c   6.59820986
_cell_angle_alpha   115.89094179
_cell_angle_beta   90.03902737
_cell_angle_gamma   115.91623063
_symmetry_Int_Tables_number   1
_chemical_formula_structural   Ta10AlGa3P2
_chemical_formula_sum   'Ta10 Al1 Ga3 P2'
_cell_volume   258.89027977
_cell_formula_units_Z   1
loop_
 _symmetry_equiv_pos_site_id
 _symmetry_equiv_pos_as_xyz
  1  'x, y, z'
loop_
 _atom_site_type_symbol
 _atom_site_label
 _atom_site_symmetry_multiplicity
 _atom_site_fract_x
 _atom_site_fract_y
 _atom_site_fract_z
 _atom_site_occupancy
  Ta  Ta0  1  0.99213214  0.00057654  0.99790175  1
  Ta  Ta1  1  0.50795529  0.99966316  0.49753123  1
  Ta  Ta2  1  0.52219113  0.70548796  0.69103978  1
  Ta  Ta3  1  0.19098329  0.69521074  0.01052183  1
  Ta  Ta4  1  0.68327547  0.70547191  0.18926778  1
  Ta  Ta5  1  0.00232912  0.69482829  0.51040195  1
  Ta  Ta6  1  0.49703547  0.30445581  0.31549159  1
  Ta  Ta7  1  0.81620366  0.29484109  0.98440057  1
  Ta  Ta8  1  0.30934561  0.30433060  0.81576696  1
  Ta  Ta9  1  0.97850464  0.29522316  0.48616909  1
  Al  Al0  1  0.74982975  0.50009590  0.75676923  1
  Ga  Ga0  1  0.25025477  0.50009124  0.25715740  1
  Ga  Ga1  1  0.13763029  0.00021513  0.36370490  1
  Ga  Ga2  1  0.36201417  0.99922093  0.86323356  1
  P  P0  1  0.87217649  0.99997420  0.63016786  1
  P  P1  1  0.62813872  0.00031335  0.13047654  1
loop_
_geom_bond_atom_site_label_1
_geom_bond_atom_site_label_2
_geom_bond_distance
_geom_bond_site_symmetry_2
Al0 Ta4 2.734197 1_556
Al0 Ta7 2.735532 1_555
Al0 Ta2 2.735756 1_555
Al0 Ta9 2.738387 1_555
Al0 Ta6 2.743419 1_555
Al0 Ta5 2.745335 1_655
Al0 Ta8 2.746538 1_555
Al0 Ta3 2.746937 1_656
Al0 Ta1 2.974712 1_545
Al0 Ta0 2.975028 1_565
Ga0 Ta2 2.739561 1_555
Ga0 Ta4 2.741392 1_555
Ga0 Ta9 2.742132 1_455
Ga0 Ta7 2.743778 1_454
Ga0 Ta8 2.750707 1_554
Ga0 Ta3 2.752461 1_555
Ga0 Ta6 2.755436 1_555
Ga0 Ta5 2.756945 1_555
Ga0 Ta0 2.969248 1_454
Ga0 Ta1 2.969600 1_555
Ga1 P0 2.483513 1_445
Ga1 Ta0 2.598774 1_454
Ga1 Ta1 2.601636 1_545
Ga1 Ta3 2.624617 1_545
Ga1 Ta6 2.625042 1_555
Ga1 Ta8 2.682498 1_555
Ga1 Ta4 2.683743 1_445
Ga1 Ta9 2.684109 1_455
Ga1 Ta5 2.685648 1_545
Ga2 P1 2.483495 1_566
Ga2 Ta1 2.599721 1_555
Ga2 Ta0 2.602274 1_465
Ga2 Ta8 2.620858 1_565
Ga2 Ta5 2.625337 1_555
Ga2 Ta3 2.680144 1_556
Ga2 Ta2 2.681388 1_555
Ga2 Ta7 2.684276 1_565
Ga2 Ta6 2.684827 1_566
P0 Ta0 2.549383 1_565
P0 Ta1 2.557422 1_555
P0 Ta7 2.595890 1_565
P0 Ta2 2.596543 1_555
P0 Ta5 2.612349 1_655
P0 Ta8 2.618195 1_665
P0 Ta9 2.618918 1_565
P0 Ta4 2.624243 1_555
P1 Ta1 2.550497 1_545
P1 Ta0 2.557786 1_554
P1 Ta4 2.590995 1_545
P1 Ta9 2.597167 1_555
P1 Ta6 2.610441 1_555
P1 Ta2 2.618025 1_544
P1 Ta3 2.619366 1_545
P1 Ta7 2.624080 1_554
