# generated using pymatgen
data_Ba(NdSe2)2
_symmetry_space_group_name_H-M   'P 1'
_cell_length_a   7.98226939
_cell_length_b   7.98249135
_cell_length_c   7.98263101
_cell_angle_alpha   109.38194986
_cell_angle_beta   109.37852844
_cell_angle_gamma   109.65260189
_symmetry_Int_Tables_number   1
_chemical_formula_structural   Ba(NdSe2)2
_chemical_formula_sum   'Ba2 Nd4 Se8'
_cell_volume   391.55219552
_cell_formula_units_Z   2
loop_
 _symmetry_equiv_pos_site_id
 _symmetry_equiv_pos_as_xyz
  1  'x, y, z'
loop_
 _atom_site_type_symbol
 _atom_site_label
 _atom_site_symmetry_multiplicity
 _atom_site_fract_x
 _atom_site_fract_y
 _atom_site_fract_z
 _atom_site_occupancy
  Ba  Ba0  1  0.50000123  0.50000244  0.00000253  1
  Ba  Ba1  1  0.75000794  0.25000163  0.50000087  1
  Nd  Nd0  1  0.62503698  0.99637148  0.87131071  1
  Nd  Nd1  1  0.00363353  0.87494404  0.62867048  1
  Nd  Nd2  1  0.12504878  0.75371585  0.12868611  1
  Nd  Nd3  1  0.24627890  0.37496923  0.37133060  1
  Se  Se0  1  0.35462696  0.10902249  0.09240872  1
  Se  Se1  1  0.35908300  0.10470490  0.59249246  1
  Se  Se2  1  0.73777302  0.64540521  0.75440070  1
  Se  Se3  1  0.89098257  0.98335460  0.24556307  1
  Se  Se4  1  0.51222511  0.76660975  0.40753163  1
  Se  Se5  1  0.89529212  0.48775747  0.25437582  1
  Se  Se6  1  0.23340338  0.64092897  0.74561663  1
  Se  Se7  1  0.01660647  0.26221093  0.90760968  1
loop_
_geom_bond_atom_site_label_1
_geom_bond_atom_site_label_2
_geom_bond_distance
_geom_bond_site_symmetry_2
Ba0 Se1 3.189913 1_554
Ba0 Se5 3.190006 1_555
Ba0 Se4 3.190015 1_555
Ba0 Se6 3.190057 1_554
Ba0 Se3 3.360089 1_555
Ba0 Se2 3.360224 1_554
Ba0 Se0 3.360254 1_555
Ba0 Se7 3.360271 1_554
Ba1 Se0 3.190549 1_555
Ba1 Se7 3.190653 1_655
Ba1 Se2 3.190688 1_555
Ba1 Se3 3.190699 1_545
Ba1 Se5 3.360023 1_555
Ba1 Se4 3.360096 1_545
Ba1 Se6 3.360100 1_655
Ba1 Se1 3.360140 1_555
Nd0 Se7 2.980943 1_665
Nd0 Se6 2.982041 1_555
Nd0 Se1 3.095985 1_565
Nd0 Se3 3.096494 1_556
Nd0 Se2 3.169759 1_555
Nd0 Se4 3.170303 1_555
Nd0 Se5 3.370439 1_566
Nd0 Se0 3.370904 1_566
Nd1 Se2 2.981072 1_455
Nd1 Se1 2.982033 1_565
Nd1 Se5 3.096098 1_455
Nd1 Se7 3.096480 1_565
Nd1 Se0 3.170128 1_566
Nd1 Se6 3.170269 1_555
Nd1 Se4 3.370526 1_455
Nd1 Se3 3.371226 1_455
Nd2 Se0 2.981209 1_565
Nd2 Se5 2.982166 1_455
Nd2 Se4 3.096054 1_555
Nd2 Se2 3.096628 1_454
Nd2 Se3 3.169682 1_455
Nd2 Se1 3.170488 1_565
Nd2 Se6 3.370615 1_554
Nd2 Se7 3.370946 1_554
Nd3 Se3 2.981197 1_445
Nd3 Se4 2.982085 1_555
Nd3 Se6 3.095978 1_555
Nd3 Se0 3.096417 1_555
Nd3 Se7 3.170002 1_554
Nd3 Se5 3.170230 1_455
Nd3 Se1 3.370697 1_555
Nd3 Se2 3.370951 1_555
