# generated using pymatgen
data_Na2Nb5WS12
_symmetry_space_group_name_H-M   'P 1'
_cell_length_a   5.80391978
_cell_length_b   5.80391996
_cell_length_c   14.61731940
_cell_angle_alpha   90.00000000
_cell_angle_beta   90.00000000
_cell_angle_gamma   120.00000467
_symmetry_Int_Tables_number   1
_chemical_formula_structural   Na2Nb5WS12
_chemical_formula_sum   'Na2 Nb5 W1 S12'
_cell_volume   426.42353262
_cell_formula_units_Z   1
loop_
 _symmetry_equiv_pos_site_id
 _symmetry_equiv_pos_as_xyz
  1  'x, y, z'
loop_
 _atom_site_type_symbol
 _atom_site_label
 _atom_site_symmetry_multiplicity
 _atom_site_fract_x
 _atom_site_fract_y
 _atom_site_fract_z
 _atom_site_occupancy
  Na  Na0  1  0.33333300  0.66666700  0.25058729  1
  Na  Na1  1  0.66666700  0.33333300  0.75079874  1
  Nb  Nb0  1  0.00000000  0.00000000  0.99948078  1
  Nb  Nb1  1  0.66666700  0.33333300  0.99970507  1
  Nb  Nb2  1  0.33333300  0.66666700  0.50068742  1
  Nb  Nb3  1  0.00000000  0.00000000  0.50040115  1
  Nb  Nb4  1  0.66666700  0.33333300  0.50008015  1
  W  W0  1  0.33333300  0.66666700  0.99921354  1
  S  S0  1  0.66817532  0.66689001  0.39360906  1
  S  S1  1  0.66686827  0.66804056  0.60714858  1
  S  S2  1  0.00984938  0.66817208  0.89443009  1
  S  S3  1  0.65832270  0.99015062  0.89443009  1
  S  S4  1  0.65937654  0.99251224  0.10449355  1
  S  S5  1  0.33310999  0.00128631  0.39360906  1
  S  S6  1  0.00117129  0.33313173  0.60714858  1
  S  S7  1  0.33195944  0.99882871  0.60714858  1
  S  S8  1  0.00748776  0.66686430  0.10449355  1
  S  S9  1  0.33182792  0.34167730  0.89443009  1
  S  S10  1  0.99871369  0.33182468  0.39360906  1
  S  S11  1  0.33313570  0.34062346  0.10449355  1
loop_
_geom_bond_atom_site_label_1
_geom_bond_atom_site_label_2
_geom_bond_distance
_geom_bond_site_symmetry_2
Na0 S8 2.852908 1_555
Na0 S4 2.852910 1_555
Na0 S11 2.852912 1_555
Na0 S10 2.853922 1_455
Na0 S0 2.853922 1_555
Na0 S5 2.853922 1_565
Na1 S6 2.860161 1_655
Na1 S7 2.860165 1_545
Na1 S1 2.860169 1_555
Na1 S3 2.877687 1_545
Na1 S2 2.877689 1_655
Na1 S9 2.877691 1_555
Nb0 S9 2.486042 1_555
Nb0 S3 2.486042 1_445
Nb0 S2 2.486042 1_545
Nb0 S11 2.486071 1_556
Nb0 S4 2.486071 1_446
Nb0 S8 2.486071 1_546
Nb1 S4 2.485386 1_546
Nb1 S8 2.485388 1_656
Nb1 S11 2.485390 1_556
Nb1 S3 2.498236 1_545
Nb1 S2 2.498239 1_655
Nb1 S9 2.498241 1_555
Nb2 S6 2.480662 1_555
Nb2 S1 2.480662 1_555
Nb2 S7 2.480662 1_555
Nb2 S10 2.494820 1_455
Nb2 S0 2.494820 1_555
Nb2 S5 2.494820 1_565
Nb3 S7 2.481917 1_545
Nb3 S1 2.481919 1_445
Nb3 S6 2.481922 1_555
Nb3 S5 2.481976 1_555
Nb3 S0 2.481978 1_445
Nb3 S10 2.481981 1_455
Nb4 S10 2.480540 1_555
Nb4 S5 2.480544 1_555
Nb4 S0 2.480549 1_555
Nb4 S6 2.494160 1_655
Nb4 S7 2.494165 1_545
Nb4 S1 2.494169 1_555
S2 W0 2.426385 1_555
S3 W0 2.426387 1_555
S4 W0 2.438644 1_554
S8 W0 2.438642 1_554
S9 W0 2.426389 1_555
S11 W0 2.438647 1_554
