# generated using pymatgen
data_Li3Mn2(PO4)3
_symmetry_space_group_name_H-M   'P 1'
_cell_length_a   8.68141550
_cell_length_b   8.68141550
_cell_length_c   8.87412164
_cell_angle_alpha   60.29657719
_cell_angle_beta   60.29657719
_cell_angle_gamma   60.61466281
_symmetry_Int_Tables_number   1
_chemical_formula_structural   Li3Mn2(PO4)3
_chemical_formula_sum   'Li6 Mn4 P6 O24'
_cell_volume   477.22020419
_cell_formula_units_Z   2
loop_
 _symmetry_equiv_pos_site_id
 _symmetry_equiv_pos_as_xyz
  1  'x, y, z'
loop_
 _atom_site_type_symbol
 _atom_site_label
 _atom_site_symmetry_multiplicity
 _atom_site_fract_x
 _atom_site_fract_y
 _atom_site_fract_z
 _atom_site_occupancy
  Li  Li0  1  0.89012100  0.74625400  0.69739700  1
  Li  Li1  1  0.37293300  0.62831800  0.74466100  1
  Li  Li2  1  0.03536700  0.36149900  0.16944600  1
  Li  Li3  1  0.36149900  0.03536700  0.66944600  1
  Li  Li4  1  0.62831800  0.37293300  0.24466100  1
  Li  Li5  1  0.74625400  0.89012100  0.19739700  1
  Mn  Mn0  1  0.35993000  0.84940800  0.35292900  1
  Mn  Mn1  1  0.65244800  0.14861500  0.64237100  1
  Mn  Mn2  1  0.84940800  0.35993000  0.85292900  1
  Mn  Mn3  1  0.14861500  0.65244800  0.14237100  1
  P  P0  1  0.95104800  0.04821600  0.26730100  1
  P  P1  1  0.53347800  0.74428100  0.95348500  1
  P  P2  1  0.47554600  0.24274600  0.03256500  1
  P  P3  1  0.74428100  0.53347800  0.45348500  1
  P  P4  1  0.24274600  0.47554600  0.53256500  1
  P  P5  1  0.04821600  0.95104800  0.76730100  1
  O  O0  1  0.04352000  0.48719800  0.67582000  1
  O  O1  1  0.04414100  0.77168300  0.94563500  1
  O  O2  1  0.90151000  0.96885200  0.70639000  1
  O  O3  1  0.38616700  0.27891800  0.57579300  1
  O  O4  1  0.59111100  0.72965700  0.41122500  1
  O  O5  1  0.62366900  0.28841500  0.04266800  1
  O  O6  1  0.27891800  0.38616700  0.07579300  1
  O  O7  1  0.52785000  0.25188100  0.83541600  1
  O  O8  1  0.55126900  0.92977000  0.79242800  1
  O  O9  1  0.28841500  0.62366900  0.54266800  1
  O  O10  1  0.38169700  0.70593300  0.94362300  1
  O  O11  1  0.49183700  0.73931100  0.14195400  1
  O  O12  1  0.25188100  0.52785000  0.33541600  1
  O  O13  1  0.12367800  0.00772800  0.30829000  1
  O  O14  1  0.96885200  0.90151000  0.20639000  1
  O  O15  1  0.72965700  0.59111100  0.91122500  1
  O  O16  1  0.00772800  0.12367800  0.80829000  1
  O  O17  1  0.24895300  0.91604600  0.62505900  1
  O  O18  1  0.91604600  0.24895300  0.12505900  1
  O  O19  1  0.92977000  0.55126900  0.29242800  1
  O  O20  1  0.70593300  0.38169700  0.44362300  1
  O  O21  1  0.73931100  0.49183700  0.64195400  1
  O  O22  1  0.77168300  0.04414100  0.44563500  1
  O  O23  1  0.48719800  0.04352000  0.17582000  1
loop_
_geom_bond_atom_site_label_1
_geom_bond_atom_site_label_2
_geom_bond_distance
_geom_bond_site_symmetry_2
Li0 O15 2.011008 1_555
Li0 O2 2.024532 1_555
Li0 O0 2.025561 1_655
Li0 O8 2.485303 1_555
Li0 O22 2.584137 1_565
Li1 O17 2.095406 1_555
Li1 O10 2.222529 1_555
Li1 O9 2.270962 1_555
Li2 O6 1.932265 1_555
Li2 O18 1.990439 1_455
Li2 O19 2.013410 1_455
Li2 O13 2.532516 1_555
Li3 O3 1.932265 1_555
Li3 O17 1.990439 1_545
Li3 O8 2.013410 1_545
Li3 O16 2.532516 1_555
Li4 O18 2.095406 1_555
Li4 O20 2.222529 1_555
Li4 O5 2.270962 1_555
Li5 O4 2.011008 1_555
Li5 O14 2.024532 1_555
Li5 O23 2.025561 1_565
Li5 O19 2.485303 1_555
Li5 O1 2.584137 1_654
Mn0 O13 1.936951 1_565
Mn0 O4 1.955695 1_555
Mn0 O9 1.987214 1_555
Mn0 O23 2.003051 1_565
Mn0 O11 2.074769 1_555
Mn0 O17 2.372027 1_555
Mn1 O7 1.908513 1_555
Mn1 O22 1.949121 1_555
Mn1 O20 1.998605 1_555
Mn1 O8 2.031172 1_545
Mn1 O2 2.112022 1_545
Mn1 O3 2.257778 1_555
Mn2 O16 1.936951 1_655
Mn2 O15 1.955695 1_555
Mn2 O5 1.987214 1_556
Mn2 O0 2.003051 1_655
Mn2 O21 2.074769 1_555
Mn2 O18 2.372027 1_556
Mn3 O12 1.908513 1_555
Mn3 O1 1.949121 1_554
Mn3 O10 1.998605 1_554
Mn3 O19 2.031172 1_455
Mn3 O14 2.112022 1_455
Mn3 O6 2.257778 1_555
O0 P4 1.547414 1_555
O1 P5 1.576981 1_555
O2 P5 1.531152 1_655
O3 P4 1.532946 1_555
O4 P3 1.564665 1_555
O5 P2 1.571184 1_555
O6 P2 1.532946 1_555
O7 P2 1.543978 1_556
O8 P1 1.550527 1_555
O9 P4 1.571184 1_555
O10 P1 1.558336 1_555
O11 P1 1.508111 1_554
O12 P4 1.543978 1_555
O13 P0 1.548693 1_455
O14 P0 1.531152 1_565
O15 P1 1.564665 1_555
O16 P5 1.548693 1_545
O17 P5 1.550182 1_555
O18 P0 1.550182 1_555
O19 P3 1.550527 1_555
O20 P3 1.558336 1_555
O21 P3 1.508111 1_555
O22 P0 1.576981 1_555
O23 P2 1.547414 1_555
