# generated using pymatgen
data_CsBaAsO4
_symmetry_space_group_name_H-M   'P 1'
_cell_length_a   6.03151764
_cell_length_b   8.14282479
_cell_length_c   10.54278455
_cell_angle_alpha   90.00000000
_cell_angle_beta   90.00000000
_cell_angle_gamma   90.00000000
_symmetry_Int_Tables_number   1
_chemical_formula_structural   CsBaAsO4
_chemical_formula_sum   'Cs4 Ba4 As4 O16'
_cell_volume   517.79401151
_cell_formula_units_Z   4
loop_
 _symmetry_equiv_pos_site_id
 _symmetry_equiv_pos_as_xyz
  1  'x, y, z'
loop_
 _atom_site_type_symbol
 _atom_site_label
 _atom_site_symmetry_multiplicity
 _atom_site_fract_x
 _atom_site_fract_y
 _atom_site_fract_z
 _atom_site_occupancy
  Cs  Cs0  1  0.25000000  0.84988388  0.41400740  1
  Cs  Cs1  1  0.25000000  0.34988388  0.08599260  1
  Cs  Cs2  1  0.75000000  0.15011612  0.58599260  1
  Cs  Cs3  1  0.75000000  0.65011612  0.91400740  1
  Ba  Ba0  1  0.25000000  0.49954341  0.69594088  1
  Ba  Ba1  1  0.25000000  0.99954341  0.80405912  1
  Ba  Ba2  1  0.75000000  0.50045659  0.30405912  1
  Ba  Ba3  1  0.75000000  0.00045659  0.19594088  1
  As  As0  1  0.25000000  0.27715994  0.41570305  1
  As  As1  1  0.25000000  0.77715994  0.08429695  1
  As  As2  1  0.75000000  0.72284006  0.58429695  1
  As  As3  1  0.75000000  0.22284006  0.91570305  1
  O  O0  1  0.25000000  0.20125614  0.56725648  1
  O  O1  1  0.25000000  0.70125614  0.93274352  1
  O  O2  1  0.75000000  0.79874386  0.43274352  1
  O  O3  1  0.75000000  0.29874386  0.06725648  1
  O  O4  1  0.01666990  0.21436394  0.33777822  1
  O  O5  1  0.48333010  0.71436394  0.16222178  1
  O  O6  1  0.51666990  0.78563606  0.66222178  1
  O  O7  1  0.98333010  0.28563606  0.83777822  1
  O  O8  1  0.98333010  0.78563606  0.66222178  1
  O  O9  1  0.51666990  0.28563606  0.83777822  1
  O  O10  1  0.48333010  0.21436394  0.33777822  1
  O  O11  1  0.01666990  0.71436394  0.16222178  1
  O  O12  1  0.25000000  0.48580014  0.42314534  1
  O  O13  1  0.25000000  0.98580014  0.07685466  1
  O  O14  1  0.75000000  0.51419986  0.57685466  1
  O  O15  1  0.75000000  0.01419986  0.92314534  1
loop_
_geom_bond_atom_site_label_1
_geom_bond_atom_site_label_2
_geom_bond_distance
_geom_bond_site_symmetry_2
Cs0 O12 2.966235 1_555
Cs0 O2 3.050775 1_455
Cs0 O2 3.050775 1_555
Cs0 O6 3.115884 1_555
Cs0 O8 3.115884 1_455
Cs0 O5 3.200753 1_555
Cs0 O11 3.200753 1_555
Cs0 O0 3.285825 1_565
Cs0 O10 3.381551 1_565
Cs0 O4 3.381551 1_565
Cs1 O13 2.966235 1_545
Cs1 O3 3.050775 1_555
Cs1 O3 3.050775 1_455
Cs1 O9 3.115884 1_554
Cs1 O7 3.115884 1_454
Cs1 O10 3.200753 1_555
Cs1 O4 3.200753 1_555
Cs1 O1 3.285825 1_554
Cs1 O5 3.381551 1_555
Cs1 O11 3.381551 1_555
Cs2 O14 2.966235 1_555
Cs2 O0 3.050775 1_655
Cs2 O0 3.050775 1_555
Cs2 O4 3.115884 1_655
Cs2 O10 3.115884 1_555
Cs2 O7 3.200753 1_555
Cs2 O9 3.200753 1_555
Cs2 O2 3.285825 1_545
Cs2 O8 3.381551 1_545
Cs2 O6 3.381551 1_545
Cs3 O15 2.966235 1_565
Cs3 O1 3.050775 1_555
Cs3 O1 3.050775 1_655
Cs3 O11 3.115884 1_656
Cs3 O5 3.115884 1_556
Cs3 O8 3.200753 1_555
Cs3 O6 3.200753 1_555
Cs3 O3 3.285825 1_556
Cs3 O7 3.381551 1_555
Cs3 O9 3.381551 1_555
Ba0 O0 2.782117 1_555
Ba0 O9 2.803040 1_555
Ba0 O7 2.803040 1_455
Ba0 O6 2.853147 1_555
Ba0 O8 2.853147 1_455
Ba0 O12 2.878201 1_555
Ba0 O1 2.988420 1_555
Ba0 O14 3.268842 1_555
Ba0 O14 3.268842 1_455
Ba1 O1 2.782117 1_555
Ba1 O6 2.803040 1_555
Ba1 O8 2.803040 1_455
Ba1 O9 2.853147 1_565
Ba1 O7 2.853147 1_465
Ba1 O13 2.878201 1_556
Ba1 O0 2.988420 1_565
Ba1 O15 3.268842 1_565
Ba1 O15 3.268842 1_465
Ba2 O2 2.782117 1_555
Ba2 O11 2.803040 1_655
Ba2 O5 2.803040 1_555
Ba2 O4 2.853147 1_655
Ba2 O10 2.853147 1_555
Ba2 O14 2.878201 1_555
Ba2 O3 2.988420 1_555
Ba2 O12 3.268842 1_555
Ba2 O12 3.268842 1_655
Ba3 O3 2.782117 1_555
Ba3 O4 2.803040 1_655
Ba3 O10 2.803040 1_555
Ba3 O11 2.853147 1_645
Ba3 O5 2.853147 1_545
Ba3 O15 2.878201 1_554
Ba3 O2 2.988420 1_545
Ba3 O13 3.268842 1_645
Ba3 O13 3.268842 1_545
As0 O12 1.700731 1_555
As0 O10 1.707920 1_555
As0 O4 1.707920 1_555
As0 O0 1.713173 1_555
As1 O13 1.700731 1_555
As1 O5 1.707920 1_555
As1 O11 1.707920 1_555
As1 O1 1.713173 1_554
As2 O14 1.700731 1_555
As2 O8 1.707920 1_555
As2 O6 1.707920 1_555
As2 O2 1.713173 1_555
As3 O15 1.700731 1_555
As3 O7 1.707920 1_555
As3 O9 1.707920 1_555
As3 O3 1.713173 1_556
