# generated using pymatgen
data_V2Ga(TcS4)2
_symmetry_space_group_name_H-M   'P 1'
_cell_length_a   6.87421435
_cell_length_b   6.82901608
_cell_length_c   6.82901593
_cell_angle_alpha   59.45203615
_cell_angle_beta   59.78082041
_cell_angle_gamma   59.78082402
_symmetry_Int_Tables_number   1
_chemical_formula_structural   V2Ga(TcS4)2
_chemical_formula_sum   'V2 Ga1 Tc2 S8'
_cell_volume   224.98763119
_cell_formula_units_Z   1
loop_
 _symmetry_equiv_pos_site_id
 _symmetry_equiv_pos_as_xyz
  1  'x, y, z'
loop_
 _atom_site_type_symbol
 _atom_site_label
 _atom_site_symmetry_multiplicity
 _atom_site_fract_x
 _atom_site_fract_y
 _atom_site_fract_z
 _atom_site_occupancy
  V  V0  1  0.19142511  0.59868253  0.59868253  1
  V  V1  1  0.61121084  0.59868253  0.59868253  1
  Ga  Ga0  1  0.99981350  0.00018650  0.00018650  1
  Tc  Tc0  1  0.60339105  0.60139182  0.19182807  1
  Tc  Tc1  1  0.60339105  0.19182807  0.60139182  1
  S  S0  1  0.86306208  0.86620197  0.40767487  1
  S  S1  1  0.86306208  0.40767487  0.86620197  1
  S  S2  1  0.41028138  0.86447649  0.86447649  1
  S  S3  1  0.86076665  0.86447649  0.86447649  1
  S  S4  1  0.36580979  0.38013990  0.88824053  1
  S  S5  1  0.36609473  0.36900966  0.36900966  1
  S  S6  1  0.89588494  0.36900966  0.36900966  1
  S  S7  1  0.36580979  0.88824053  0.38013990  1
loop_
_geom_bond_atom_site_label_1
_geom_bond_atom_site_label_2
_geom_bond_distance
_geom_bond_site_symmetry_2
Ga0 S0 2.260292 1_545
Ga0 S1 2.260292 1_554
Ga0 S3 2.299543 1_544
Ga0 S2 2.299549 1_644
S0 Tc1 2.549292 1_565
S0 V1 2.554318 1_555
S0 V0 2.554318 1_655
S1 Tc0 2.549292 1_556
S1 V0 2.554318 1_655
S1 V1 2.554318 1_555
S2 Tc1 2.547788 1_565
S2 Tc0 2.547789 1_556
S2 V1 2.607441 1_555
S3 Tc0 2.547784 1_556
S3 Tc1 2.547784 1_565
S3 V0 2.607441 1_655
S4 V0 2.271518 1_555
S4 V1 2.271522 1_555
S4 Tc1 2.320447 1_555
S5 V0 2.251874 1_555
S5 Tc0 2.304437 1_555
S5 Tc1 2.304437 1_555
S6 V1 2.251871 1_555
S6 Tc1 2.304420 1_555
S6 Tc0 2.304420 1_555
S7 V0 2.271518 1_555
S7 V1 2.271522 1_555
S7 Tc0 2.320447 1_555
