# generated using pymatgen
data_Y20Cd6NiIr
_symmetry_space_group_name_H-M   'P 1'
_cell_length_a   9.73494713
_cell_length_b   9.73494779
_cell_length_c   9.70069594
_cell_angle_alpha   90.00000000
_cell_angle_beta   90.00000000
_cell_angle_gamma   119.99999433
_symmetry_Int_Tables_number   1
_chemical_formula_structural   Y20Cd6NiIr
_chemical_formula_sum   'Y20 Cd6 Ni1 Ir1'
_cell_volume   796.16076734
_cell_formula_units_Z   1
loop_
 _symmetry_equiv_pos_site_id
 _symmetry_equiv_pos_as_xyz
  1  'x, y, z'
loop_
 _atom_site_type_symbol
 _atom_site_label
 _atom_site_symmetry_multiplicity
 _atom_site_fract_x
 _atom_site_fract_y
 _atom_site_fract_z
 _atom_site_occupancy
  Y  Y0  1  0.00000000  0.00000000  0.49945858  1
  Y  Y1  1  0.00000000  0.00000000  0.00054142  1
  Y  Y2  1  0.54186025  0.45813975  0.25000000  1
  Y  Y3  1  0.54186025  0.08372050  0.25000000  1
  Y  Y4  1  0.91627950  0.45813975  0.25000000  1
  Y  Y5  1  0.45636589  0.54363411  0.75000000  1
  Y  Y6  1  0.45636589  0.91273177  0.75000000  1
  Y  Y7  1  0.08726823  0.54363411  0.75000000  1
  Y  Y8  1  0.20903505  0.79096495  0.43800275  1
  Y  Y9  1  0.20903505  0.41807110  0.43800275  1
  Y  Y10  1  0.58192890  0.79096495  0.43800275  1
  Y  Y11  1  0.79001057  0.20998943  0.56509780  1
  Y  Y12  1  0.79001057  0.58002013  0.56509780  1
  Y  Y13  1  0.41997987  0.20998943  0.56509780  1
  Y  Y14  1  0.79001057  0.20998943  0.93490220  1
  Y  Y15  1  0.79001057  0.58002013  0.93490220  1
  Y  Y16  1  0.41997987  0.20998943  0.93490220  1
  Y  Y17  1  0.20903505  0.79096495  0.06199725  1
  Y  Y18  1  0.20903505  0.41807110  0.06199725  1
  Y  Y19  1  0.58192890  0.79096495  0.06199725  1
  Cd  Cd0  1  0.88440575  0.11559425  0.25000000  1
  Cd  Cd1  1  0.88440575  0.76881151  0.25000000  1
  Cd  Cd2  1  0.23118849  0.11559425  0.25000000  1
  Cd  Cd3  1  0.11577138  0.88422862  0.75000000  1
  Cd  Cd4  1  0.11577138  0.23154376  0.75000000  1
  Cd  Cd5  1  0.76845624  0.88422862  0.75000000  1
  Ni  Ni0  1  0.66666700  0.33333300  0.75000000  1
  Ir  Ir0  1  0.33333300  0.66666700  0.25000000  1
loop_
_geom_bond_atom_site_label_1
_geom_bond_atom_site_label_2
_geom_bond_distance
_geom_bond_site_symmetry_2
Y0 Y8 3.574691 1_545
Y0 Y10 3.574700 1_445
Y0 Y9 3.574700 1_555
Y0 Y11 3.597520 1_455
Y0 Y13 3.597528 1_555
Y0 Y12 3.597529 1_445
Y1 Y17 3.574691 1_545
Y1 Y19 3.574700 1_445
Y1 Y18 3.574700 1_555
Y1 Y14 3.597520 1_454
Y1 Y16 3.597528 1_554
Y1 Y15 3.597529 1_444
Y2 Y9 3.565424 1_555
Y2 Y4 3.644952 1_555
Y2 Y3 3.644952 1_555
Y3 Y8 3.565421 1_545
Y3 Y4 3.644952 1_555
Y4 Y9 3.565415 1_655
Y4 Y8 3.565421 1_655
Y5 Y7 3.593146 1_555
Y5 Y6 3.593146 1_555
Y5 Y9 3.675397 1_555
Y6 Y7 3.593147 1_555
Y6 Y8 3.675397 1_555
Y7 Y9 3.675393 1_555
Y7 Y8 3.675398 1_555
Y10 Y3 3.565416 1_565
Y10 Y2 3.565424 1_555
Y10 Y6 3.675393 1_555
Y10 Y5 3.675398 1_555
Y11 Y6 3.569570 1_545
Y11 Y7 3.569570 1_655
Y11 Y3 3.704118 1_555
Y11 Y4 3.704118 1_555
Y12 Y7 3.569564 1_655
Y12 Y5 3.569573 1_555
Y12 Y4 3.704113 1_555
Y12 Y2 3.704118 1_555
Y13 Y6 3.569564 1_545
Y13 Y5 3.569573 1_555
Y13 Y3 3.704113 1_555
Y13 Y2 3.704118 1_555
Y14 Y6 3.569570 1_545
Y14 Y7 3.569570 1_655
Y14 Y3 3.704118 1_556
Y14 Y4 3.704118 1_556
Y15 Y7 3.569564 1_655
Y15 Y5 3.569573 1_555
Y15 Y4 3.704113 1_556
Y15 Y2 3.704118 1_556
Y16 Y6 3.569564 1_545
Y16 Y5 3.569573 1_555
Y16 Y3 3.704113 1_556
Y16 Y2 3.704118 1_556
Y17 Y3 3.565421 1_565
Y17 Y4 3.565421 1_455
Y17 Y6 3.675397 1_554
Y17 Y7 3.675398 1_554
Y18 Y4 3.565415 1_455
Y18 Y2 3.565424 1_555
Y18 Y7 3.675393 1_554
Y18 Y5 3.675397 1_554
Y19 Y3 3.565416 1_565
Y19 Y2 3.565424 1_555
Y19 Y6 3.675393 1_554
Y19 Y5 3.675398 1_554
Cd0 Y0 3.107241 1_655
Cd0 Y1 3.107241 1_655
Cd0 Y3 3.190853 1_555
Cd0 Y4 3.190853 1_555
Cd0 Cd2 3.375912 1_655
Cd0 Cd1 3.375912 1_545
Cd0 Y11 3.446234 1_555
Cd0 Y14 3.446234 1_554
Cd0 Y9 3.560654 1_655
Cd0 Y18 3.560654 1_655
Cd0 Y10 3.560654 1_545
Cd0 Y19 3.560654 1_545
Cd1 Y0 3.107241 1_665
Cd1 Y1 3.107241 1_665
Cd1 Y4 3.190853 1_555
Cd1 Y2 3.190853 1_555
Cd1 Cd2 3.375912 1_665
Cd1 Y12 3.446238 1_555
Cd1 Y15 3.446238 1_554
Cd1 Y8 3.560650 1_655
Cd1 Y17 3.560650 1_655
Cd1 Y10 3.560658 1_555
Cd1 Y19 3.560658 1_555
Cd2 Y0 3.107241 1_555
Cd2 Y1 3.107241 1_555
Cd2 Y3 3.190853 1_555
Cd2 Y2 3.190853 1_555
Cd2 Y13 3.446238 1_555
Cd2 Y16 3.446238 1_554
Cd2 Y8 3.560650 1_545
Cd2 Y17 3.560650 1_545
Cd2 Y9 3.560658 1_555
Cd2 Y18 3.560658 1_555
Cd3 Y1 3.117298 1_566
Cd3 Y0 3.117298 1_565
Cd3 Y6 3.186006 1_555
Cd3 Y7 3.186007 1_555
Cd3 Cd5 3.381095 1_455
Cd3 Cd4 3.381095 1_565
Cd3 Y17 3.410746 1_556
Cd3 Y8 3.410746 1_555
Cd3 Y15 3.557086 1_455
Cd3 Y12 3.557086 1_455
Cd3 Y16 3.557086 1_565
Cd3 Y13 3.557086 1_565
Cd4 Y1 3.117304 1_556
Cd4 Y0 3.117304 1_555
Cd4 Y7 3.185997 1_555
Cd4 Y5 3.186002 1_555
Cd4 Cd5 3.381095 1_445
Cd4 Y18 3.410746 1_556
Cd4 Y9 3.410746 1_555
Cd4 Y14 3.557078 1_455
Cd4 Y11 3.557078 1_455
Cd4 Y16 3.557095 1_555
Cd4 Y13 3.557095 1_555
Cd5 Y1 3.117304 1_666
Cd5 Y0 3.117304 1_665
Cd5 Y6 3.185997 1_555
Cd5 Y5 3.186003 1_555
Cd5 Y19 3.410746 1_556
Cd5 Y10 3.410746 1_555
Cd5 Y14 3.557079 1_565
Cd5 Y11 3.557079 1_565
Cd5 Y15 3.557095 1_555
Cd5 Y12 3.557095 1_555
Ni0 Y14 2.746387 1_555
Ni0 Y11 2.746387 1_555
Ni0 Y16 2.746387 1_555
Ni0 Y13 2.746387 1_555
Ni0 Y15 2.746387 1_555
Ni0 Y12 2.746387 1_555
Ni0 Y7 3.545968 1_655
Ni0 Y6 3.545968 1_545
Ni0 Y5 3.545976 1_555
Ir0 Y8 2.778244 1_555
Ir0 Y17 2.778244 1_555
Ir0 Y10 2.778244 1_555
Ir0 Y19 2.778244 1_555
Ir0 Y9 2.778244 1_555
Ir0 Y18 2.778244 1_555
Ir0 Y4 3.516058 1_455
Ir0 Y3 3.516058 1_565
Ir0 Y2 3.516066 1_555
