# generated using pymatgen
data_Rb5Ca(MoH9)3
_symmetry_space_group_name_H-M   'P 1'
_cell_length_a   10.00528066
_cell_length_b   9.57645003
_cell_length_c   5.65965367
_cell_angle_alpha   90.00000000
_cell_angle_beta   90.00000000
_cell_angle_gamma   118.59204752
_symmetry_Int_Tables_number   1
_chemical_formula_structural   Rb5Ca(MoH9)3
_chemical_formula_sum   'Rb5 Ca1 Mo3 H27'
_cell_volume   476.14873314
_cell_formula_units_Z   1
loop_
 _symmetry_equiv_pos_site_id
 _symmetry_equiv_pos_as_xyz
  1  'x, y, z'
loop_
 _atom_site_type_symbol
 _atom_site_label
 _atom_site_symmetry_multiplicity
 _atom_site_fract_x
 _atom_site_fract_y
 _atom_site_fract_z
 _atom_site_occupancy
  Rb  Rb0  1  0.75015192  0.76343312  0.50000000  1
  Rb  Rb1  1  0.24984808  0.01328120  0.50000000  1
  Rb  Rb2  1  0.00000000  0.59562631  0.00000000  1
  Rb  Rb3  1  0.37845421  0.38525739  0.00000000  1
  Rb  Rb4  1  0.62154579  0.00680319  0.00000000  1
  Ca  Ca0  1  0.00000000  0.25411372  0.50000000  1
  Mo  Mo0  1  0.68628140  0.31007412  0.50000000  1
  Mo  Mo1  1  0.31371860  0.62379372  0.50000000  1
  Mo  Mo2  1  1.00000000  0.03205090  0.00000000  1
  H  H0  1  0.82009460  0.30925133  0.70461673  1
  H  H1  1  0.63511852  0.43265171  0.68105714  1
  H  H2  1  0.55268695  0.19325157  0.71350138  1
  H  H3  1  0.17990540  0.48915774  0.29538327  1
  H  H4  1  0.55268695  0.19325157  0.28649862  1
  H  H5  1  0.82009460  0.30925133  0.29538327  1
  H  H6  1  0.63511852  0.43265171  0.31894286  1
  H  H7  1  0.36488148  0.79753420  0.68105714  1
  H  H8  1  0.44731305  0.64056562  0.71350138  1
  H  H9  1  0.17229792  0.03112802  0.00000000  1
  H  H10  1  0.82770208  0.85883010  0.00000000  1
  H  H11  1  1.00000000  0.21521019  0.00000000  1
  H  H12  1  0.88096943  0.03586180  0.22855309  1
  H  H13  1  0.11903057  0.15489237  0.77144691  1
  H  H14  1  1.00000000  0.89503943  0.79402476  1
  H  H15  1  1.00000000  0.89503943  0.20597524  1
  H  H16  1  0.11903057  0.15489237  0.22855309  1
  H  H17  1  0.88096943  0.03586180  0.77144691  1
  H  H18  1  0.16074095  0.66405209  0.50000000  1
  H  H19  1  0.39515645  0.83550152  0.50000000  1
  H  H20  1  0.32871580  0.44974574  0.50000000  1
  H  H21  1  0.60484355  0.44034606  0.50000000  1
  H  H22  1  0.83925905  0.50331114  0.50000000  1
  H  H23  1  0.67128420  0.12102994  0.50000000  1
  H  H24  1  0.17990540  0.48915774  0.70461673  1
  H  H25  1  0.36488148  0.79753420  0.31894286  1
  H  H26  1  0.44731305  0.64056562  0.28649862  1
loop_
_geom_bond_atom_site_label_1
_geom_bond_atom_site_label_2
_geom_bond_distance
_geom_bond_site_symmetry_2
Ca0 H17 2.400936 1_455
Ca0 H12 2.400936 1_455
Ca0 H13 2.400937 1_555
Ca0 H16 2.400937 1_555
Ca0 H0 2.402006 1_455
Ca0 H5 2.402006 1_455
Ca0 H24 2.402011 1_555
Ca0 H3 2.402011 1_555
H0 Mo0 1.773062 1_555
H0 Rb2 2.971704 1_656
H0 Rb4 3.102094 1_556
H1 H21 1.081018 1_555
H1 Mo0 1.806981 1_555
H1 Rb0 2.986558 1_555
H1 Rb3 2.990559 1_556
H2 Mo0 1.751297 1_555
H2 Rb4 2.733008 1_556
H2 Rb1 2.934791 1_555
H3 Mo1 1.773062 1_555
H3 Rb2 2.971699 1_555
H3 Rb3 3.102101 1_555
H4 Mo0 1.751297 1_555
H4 Rb4 2.733008 1_555
H4 Rb1 2.934791 1_555
H5 Mo0 1.773062 1_555
H5 Rb2 2.971704 1_655
H5 Rb4 3.102094 1_555
H6 Mo0 1.806981 1_555
H6 Rb0 2.986558 1_555
H6 Rb3 2.990559 1_555
H7 Mo1 1.806980 1_555
H7 Rb1 2.986550 1_565
H7 Rb4 2.990556 1_566
H8 Mo1 1.751297 1_555
H8 Rb3 2.733015 1_556
H8 Rb0 2.934792 1_555
H9 Mo2 1.728136 1_455
H9 Rb1 2.960759 1_554
H9 Rb1 2.960759 1_555
H9 Rb3 3.010016 1_555
H10 Mo2 1.728136 1_565
H10 Rb0 2.960759 1_555
H10 Rb0 2.960759 1_554
H10 Rb4 3.010017 1_565
H11 Mo2 1.754016 1_555
H12 Mo2 1.770446 1_555
H12 Rb0 2.758867 1_545
H12 Rb4 2.792220 1_555
H13 Mo2 1.770446 1_456
H13 Rb1 2.758867 1_555
H13 Rb3 2.792219 1_556
H14 Mo2 1.755145 1_566
H14 Rb0 2.755186 1_555
H14 Rb1 2.755186 1_665
H14 Rb2 3.095232 1_656
H15 Mo2 1.755145 1_565
H15 Rb0 2.755186 1_555
H15 Rb1 2.755186 1_665
H15 Rb2 3.095232 1_655
H16 Mo2 1.770446 1_455
H16 Rb1 2.758867 1_555
H16 Rb3 2.792219 1_555
H17 Mo2 1.770446 1_556
H17 Rb0 2.758867 1_545
H17 Rb4 2.792220 1_556
H18 Mo1 1.748177 1_555
H18 Rb1 3.020900 1_565
H18 Rb2 3.164667 1_556
H18 Rb2 3.164667 1_555
H19 H7 1.081014 1_555
H19 H25 1.081014 1_555
H19 Mo1 1.786940 1_555
H19 Rb1 2.716850 1_565
H20 Mo1 1.743557 1_555
H20 Rb3 2.988499 1_555
H20 Rb3 2.988499 1_556
H21 H6 1.081018 1_555
H21 Mo0 1.786957 1_555
H21 Rb0 2.716841 1_555
H22 Mo0 1.748182 1_555
H22 Rb0 3.020900 1_555
H22 Rb2 3.164667 1_655
H22 Rb2 3.164667 1_656
H23 Mo0 1.743547 1_555
H23 Rb4 2.988498 1_555
H23 Rb4 2.988498 1_556
H24 Mo1 1.773062 1_555
H24 Rb2 2.971699 1_556
H24 Rb3 3.102101 1_556
H25 Mo1 1.806980 1_555
H25 Rb1 2.986550 1_565
H25 Rb4 2.990556 1_565
H26 Mo1 1.751297 1_555
H26 Rb3 2.733015 1_555
H26 Rb0 2.934792 1_555
