# generated using pymatgen
data_LiGa(IO3)4
_symmetry_space_group_name_H-M   'P 1'
_cell_length_a   4.80396091
_cell_length_b   6.34650777
_cell_length_c   8.40277694
_cell_angle_alpha   84.99182617
_cell_angle_beta   90.33263784
_cell_angle_gamma   88.33910712
_symmetry_Int_Tables_number   1
_chemical_formula_structural   LiGa(IO3)4
_chemical_formula_sum   'Li1 Ga1 I4 O12'
_cell_volume   255.09280184
_cell_formula_units_Z   1
loop_
 _symmetry_equiv_pos_site_id
 _symmetry_equiv_pos_as_xyz
  1  'x, y, z'
loop_
 _atom_site_type_symbol
 _atom_site_label
 _atom_site_symmetry_multiplicity
 _atom_site_fract_x
 _atom_site_fract_y
 _atom_site_fract_z
 _atom_site_occupancy
  Li  Li0  1  0.50000000  0.00000000  0.50000000  1
  Ga  Ga0  1  0.50000000  0.50000000  0.50000000  1
  I  I0  1  0.50671757  0.79639722  0.16302304  1
  I  I1  1  0.00628071  0.28354452  0.24912173  1
  I  I2  1  0.99371929  0.71645548  0.75087827  1
  I  I3  1  0.49328243  0.20360278  0.83697696  1
  O  O0  1  0.74718794  0.61810251  0.07467984  1
  O  O1  1  0.69395440  0.04030062  0.11646507  1
  O  O2  1  0.23264870  0.48471859  0.32302157  1
  O  O3  1  0.20451846  0.05266652  0.32551302  1
  O  O4  1  0.63933398  0.74815086  0.37162506  1
  O  O5  1  0.74495570  0.28285019  0.40521126  1
  O  O6  1  0.25504430  0.71714981  0.59478874  1
  O  O7  1  0.36066602  0.25184914  0.62837494  1
  O  O8  1  0.79548154  0.94733348  0.67448698  1
  O  O9  1  0.76735130  0.51528141  0.67697843  1
  O  O10  1  0.30604560  0.95969938  0.88353493  1
  O  O11  1  0.25281206  0.38189749  0.92532016  1
loop_
_geom_bond_atom_site_label_1
_geom_bond_atom_site_label_2
_geom_bond_distance
_geom_bond_site_symmetry_2
Li0 O8 2.034475 1_545
Li0 O3 2.034475 1_555
Li0 O4 2.100905 1_545
Li0 O7 2.100905 1_555
Li0 O6 2.263907 1_545
Li0 O5 2.263907 1_555
Ga0 O7 1.965911 1_555
Ga0 O4 1.965911 1_555
Ga0 O9 1.969942 1_555
Ga0 O2 1.969942 1_555
Ga0 O6 2.006727 1_555
Ga0 O5 2.006727 1_555
I0 O0 1.801889 1_555
I0 O1 1.826822 1_565
I0 O4 1.858517 1_555
I0 O10 2.647572 1_554
I1 O3 1.792699 1_555
I1 O5 1.820638 1_455
I1 O2 1.846439 1_555
I1 O1 2.508423 1_455
I2 O8 1.792699 1_555
I2 O6 1.820638 1_655
I2 O9 1.846439 1_555
I2 O10 2.508423 1_655
I3 O11 1.801889 1_555
I3 O10 1.826822 1_545
I3 O7 1.858517 1_555
I3 O1 2.647572 1_556
