# generated using pymatgen
data_K4Cd7Ag
_symmetry_space_group_name_H-M   'P 1'
_cell_length_a   6.25449620
_cell_length_b   6.25449631
_cell_length_c   10.10165700
_cell_angle_alpha   90.00000000
_cell_angle_beta   90.00000000
_cell_angle_gamma   119.99999942
_symmetry_Int_Tables_number   1
_chemical_formula_structural   K4Cd7Ag
_chemical_formula_sum   'K4 Cd7 Ag1'
_cell_volume   342.22200064
_cell_formula_units_Z   1
loop_
 _symmetry_equiv_pos_site_id
 _symmetry_equiv_pos_as_xyz
  1  'x, y, z'
loop_
 _atom_site_type_symbol
 _atom_site_label
 _atom_site_symmetry_multiplicity
 _atom_site_fract_x
 _atom_site_fract_y
 _atom_site_fract_z
 _atom_site_occupancy
  K  K0  1  0.33333300  0.66666700  0.05825719  1
  K  K1  1  0.66666700  0.33333300  0.55988101  1
  K  K2  1  0.66666700  0.33333300  0.94174281  1
  K  K3  1  0.33333300  0.66666700  0.44011899  1
  Cd  Cd0  1  0.00000000  0.00000000  0.00000000  1
  Cd  Cd1  1  0.83548144  0.67096288  0.25594024  1
  Cd  Cd2  1  0.16451856  0.83548144  0.74405976  1
  Cd  Cd3  1  0.67096288  0.83548144  0.74405976  1
  Cd  Cd4  1  0.32903712  0.16451856  0.25594024  1
  Cd  Cd5  1  0.83548144  0.16451856  0.25594024  1
  Cd  Cd6  1  0.16451856  0.32903712  0.74405976  1
  Ag  Ag0  1  0.00000000  0.00000000  0.50000000  1
loop_
_geom_bond_atom_site_label_1
_geom_bond_atom_site_label_2
_geom_bond_distance
_geom_bond_site_symmetry_2
K0 K2 3.798006 1_454
K0 K2 3.798006 1_564
K0 K2 3.798016 1_554
K0 K3 3.857437 1_555
K1 K3 3.808300 1_655
K1 K3 3.808300 1_545
K1 K3 3.808311 1_555
K1 K2 3.857437 1_555
Cd0 Cd4 3.140192 1_555
Cd0 Cd5 3.140192 1_455
Cd0 Cd2 3.140192 1_544
Cd0 Cd3 3.140192 1_444
Cd0 Cd6 3.140192 1_554
Cd0 Cd1 3.140192 1_445
Cd0 K0 3.658671 1_545
Cd0 K2 3.658671 1_454
Cd0 K2 3.658676 1_554
Cd0 K0 3.658676 1_445
Cd0 K0 3.658676 1_555
Cd0 K2 3.658676 1_444
Cd1 Cd4 3.086942 1_665
Cd1 Cd5 3.086942 1_565
Cd1 Cd5 3.167554 1_555
Cd1 Cd4 3.167554 1_555
Cd1 K1 3.573688 1_555
Cd1 K3 3.638915 1_655
Cd1 K3 3.638920 1_555
Cd1 K2 3.663087 1_554
Cd1 K0 3.710514 1_655
Cd1 K0 3.710520 1_555
Cd2 Cd3 3.086942 1_455
Cd2 Cd6 3.086942 1_565
Cd2 Cd3 3.167554 1_555
Cd2 Cd6 3.167554 1_555
Cd2 K3 3.573686 1_555
Cd2 K1 3.638918 1_565
Cd2 K1 3.638918 1_455
Cd2 K0 3.663084 1_556
Cd2 K2 3.710517 1_565
Cd2 K2 3.710517 1_455
Cd3 Cd6 3.086942 1_665
Cd3 Cd6 3.167554 1_555
Cd3 K3 3.573688 1_555
Cd3 K1 3.638915 1_565
Cd3 K1 3.638920 1_555
Cd3 K0 3.663087 1_556
Cd3 K2 3.710515 1_565
Cd3 K2 3.710520 1_555
Cd4 Cd5 3.086942 1_455
Cd4 Cd5 3.167554 1_555
Cd4 K1 3.573688 1_555
Cd4 K3 3.638915 1_545
Cd4 K3 3.638920 1_555
Cd4 K2 3.663087 1_554
Cd4 K0 3.710515 1_545
Cd4 K0 3.710520 1_555
Cd5 K1 3.573686 1_555
Cd5 K3 3.638918 1_545
Cd5 K3 3.638918 1_655
Cd5 K2 3.663084 1_554
Cd5 K0 3.710517 1_545
Cd5 K0 3.710517 1_655
Cd6 K3 3.573688 1_555
Cd6 K1 3.638915 1_455
Cd6 K1 3.638920 1_555
Cd6 K0 3.663087 1_556
Cd6 K2 3.710514 1_455
Cd6 K2 3.710520 1_555
Ag0 Cd2 3.042144 1_545
Ag0 Cd3 3.042144 1_445
Ag0 Cd4 3.042144 1_555
Ag0 Cd5 3.042144 1_455
Ag0 Cd6 3.042144 1_555
Ag0 Cd1 3.042144 1_445
Ag0 K1 3.661345 1_455
Ag0 K3 3.661345 1_545
Ag0 K1 3.661351 1_555
Ag0 K3 3.661351 1_445
Ag0 K3 3.661351 1_555
Ag0 K1 3.661351 1_445
