# generated using pymatgen
data_ZrZn2Cu2Pd
_symmetry_space_group_name_H-M   'P 1'
_cell_length_a   4.93260667
_cell_length_b   4.91892802
_cell_length_c   4.91892880
_cell_angle_alpha   60.36601262
_cell_angle_beta   59.90795991
_cell_angle_gamma   59.90796328
_symmetry_Int_Tables_number   1
_chemical_formula_structural   ZrZn2Cu2Pd
_chemical_formula_sum   'Zr1 Zn2 Cu2 Pd1'
_cell_volume   84.50462359
_cell_formula_units_Z   1
loop_
 _symmetry_equiv_pos_site_id
 _symmetry_equiv_pos_as_xyz
  1  'x, y, z'
loop_
 _atom_site_type_symbol
 _atom_site_label
 _atom_site_symmetry_multiplicity
 _atom_site_fract_x
 _atom_site_fract_y
 _atom_site_fract_z
 _atom_site_occupancy
  Zr  Zr0  1  0.00341105  0.99658895  0.99658895  1
  Zn  Zn0  1  0.62260229  0.62454207  0.13025434  1
  Zn  Zn1  1  0.62260229  0.13025434  0.62454207  1
  Cu  Cu0  1  0.12348182  0.62580766  0.62580766  1
  Cu  Cu1  1  0.62490386  0.62580766  0.62580766  1
  Pd  Pd0  1  0.25299969  0.24700031  0.24700031  1
loop_
_geom_bond_atom_site_label_1
_geom_bond_atom_site_label_2
_geom_bond_distance
_geom_bond_site_symmetry_2
Zn0 Zn1 2.444805 1_555
Zn0 Zn1 2.501312 1_564
Zn0 Zr0 2.885919 1_654
Zn0 Zr0 2.885923 1_554
Zn0 Zr0 2.907471 1_644
Zn1 Zr0 2.885919 1_645
Zn1 Zr0 2.885923 1_545
Zn1 Zr0 2.907471 1_644
Cu0 Zn1 2.446394 1_555
Cu0 Zn0 2.446394 1_555
Cu0 Cu1 2.459289 1_455
Cu0 Zn1 2.472599 1_465
Cu0 Zn0 2.472599 1_456
Cu0 Cu1 2.473318 1_555
Cu0 Zr0 2.850746 1_555
Cu0 Pd0 2.889667 1_565
Cu0 Pd0 2.889668 1_556
Cu0 Pd0 2.897961 1_555
Cu0 Zr0 2.903332 1_545
Cu0 Zr0 2.903333 1_554
Cu1 Zn1 2.446394 1_555
Cu1 Zn0 2.446395 1_555
Cu1 Zn1 2.472599 1_565
Cu1 Zn0 2.472600 1_556
Cu1 Zr0 2.850748 1_555
Cu1 Pd0 2.889669 1_556
Cu1 Pd0 2.889669 1_565
Cu1 Pd0 2.897958 1_655
Cu1 Zr0 2.903330 1_654
Cu1 Zr0 2.903330 1_645
Pd0 Zn0 2.849504 1_545
Pd0 Zn1 2.849505 1_554
Pd0 Zn1 2.897048 1_455
Pd0 Zn0 2.897048 1_455
Pd0 Zn0 2.897053 1_555
Pd0 Zn1 2.897053 1_555
Pd0 Zr0 3.015265 1_644
Pd0 Zr0 3.015266 1_544
Pd0 Zr0 3.017524 1_554
Pd0 Zr0 3.017524 1_545
