# generated using pymatgen
data_Lu4Ga2Sb4Rh7
_symmetry_space_group_name_H-M   'P 1'
_cell_length_a   7.38916446
_cell_length_b   7.38916329
_cell_length_c   7.37225508
_cell_angle_alpha   109.29817178
_cell_angle_beta   109.29817853
_cell_angle_gamma   109.91000414
_symmetry_Int_Tables_number   1
_chemical_formula_structural   Lu4Ga2Sb4Rh7
_chemical_formula_sum   'Lu4 Ga2 Sb4 Rh7'
_cell_volume   309.49871796
_cell_formula_units_Z   1
loop_
 _symmetry_equiv_pos_site_id
 _symmetry_equiv_pos_as_xyz
  1  'x, y, z'
loop_
 _atom_site_type_symbol
 _atom_site_label
 _atom_site_symmetry_multiplicity
 _atom_site_fract_x
 _atom_site_fract_y
 _atom_site_fract_z
 _atom_site_occupancy
  Lu  Lu0  1  0.53158833  0.01043479  1.00000000  1
  Lu  Lu1  1  0.98956521  0.46841167  0.00000000  1
  Lu  Lu2  1  0.99029204  0.00970796  0.50000000  1
  Lu  Lu3  1  0.49029204  0.50970796  0.50000000  1
  Ga  Ga0  1  0.00261138  0.32383500  0.32644638  1
  Ga  Ga1  1  0.67616500  0.99738862  0.67355362  1
  Sb  Sb0  1  0.68901787  0.68515302  0.00000000  1
  Sb  Sb1  1  0.00166587  0.68552725  0.68719412  1
  Sb  Sb2  1  0.31447275  0.99833413  0.31280588  1
  Sb  Sb3  1  0.31484698  0.31098213  1.00000000  1
  Rh  Rh0  1  0.98858869  0.01141131  1.00000000  1
  Rh  Rh1  1  0.50219097  0.75131363  0.25350460  1
  Rh  Rh2  1  0.75264974  0.49673192  0.24938067  1
  Rh  Rh3  1  0.25204984  0.74795016  0.50000000  1
  Rh  Rh4  1  0.24868637  0.49780903  0.74649540  1
  Rh  Rh5  1  0.50326808  0.24735026  0.75061933  1
  Rh  Rh6  1  0.75204984  0.24795016  0.50000000  1
loop_
_geom_bond_atom_site_label_1
_geom_bond_atom_site_label_2
_geom_bond_distance
_geom_bond_site_symmetry_2
Lu0 Rh5 2.934454 1_555
Lu0 Rh2 2.934460 1_556
Lu0 Sb0 3.005765 1_546
Lu0 Rh6 3.021458 1_556
Lu0 Rh3 3.021458 1_545
Lu0 Rh1 3.091319 1_546
Lu0 Rh4 3.091319 1_545
Lu0 Sb3 3.149485 1_555
Lu0 Sb2 3.222384 1_546
Lu0 Sb1 3.222390 1_545
Lu0 Rh0 3.374400 1_555
Lu1 Rh2 2.934455 1_555
Lu1 Rh5 2.934461 1_554
Lu1 Sb3 3.005765 1_654
Lu1 Rh6 3.021458 1_554
Lu1 Rh3 3.021458 1_655
Lu1 Rh4 3.091319 1_654
Lu1 Rh1 3.091319 1_655
Lu1 Sb0 3.149486 1_555
Lu1 Sb1 3.222383 1_654
Lu1 Sb2 3.222390 1_655
Lu1 Rh0 3.374400 1_554
Lu2 Rh6 2.882501 1_555
Lu2 Rh4 2.939430 1_655
Lu2 Rh1 2.939430 1_545
Lu2 Sb0 3.064580 1_545
Lu2 Sb3 3.064580 1_655
Lu2 Rh2 3.091611 1_545
Lu2 Rh5 3.091611 1_655
Lu2 Sb1 3.145650 1_645
Lu2 Sb2 3.145651 1_645
Lu2 Rh3 3.167017 1_645
Lu3 Rh3 2.882501 1_555
Lu3 Rh1 2.939429 1_555
Lu3 Rh4 2.939430 1_555
Lu3 Sb0 3.064579 1_556
Lu3 Sb3 3.064579 1_554
Lu3 Rh5 3.091616 1_555
Lu3 Rh2 3.091617 1_555
Lu3 Sb2 3.145645 1_545
Lu3 Sb1 3.145645 1_655
Lu3 Rh6 3.167017 1_555
Ga0 Rh4 2.569703 1_555
Ga0 Rh3 2.590793 1_555
Ga0 Rh6 2.590793 1_455
Ga0 Rh2 2.599942 1_455
Ga0 Rh0 2.670598 1_454
Ga0 Lu1 2.925519 1_455
Ga0 Lu0 2.925520 1_454
Ga0 Lu2 2.988157 1_455
Ga0 Lu3 2.988158 1_555
Ga1 Rh1 2.569703 1_555
Ga1 Rh6 2.590793 1_565
Ga1 Rh3 2.590793 1_555
Ga1 Rh5 2.599942 1_565
Ga1 Rh0 2.670598 1_565
Ga1 Lu0 2.925520 1_565
Ga1 Lu1 2.925520 1_566
Ga1 Lu3 2.988158 1_555
Ga1 Lu2 2.988158 1_565
Rh0 Sb0 2.660298 1_546
Rh0 Sb3 2.660298 1_655
Rh0 Sb2 2.785899 1_646
Rh0 Sb1 2.785899 1_645
Rh1 Sb2 2.654149 1_555
Rh1 Sb3 2.683023 1_554
Rh1 Sb0 2.683023 1_555
Rh2 Sb1 2.664536 1_655
Rh2 Sb0 2.665698 1_555
Rh2 Sb3 2.665704 1_554
Rh3 Sb2 2.658455 1_555
Rh3 Sb1 2.658455 1_555
Rh4 Sb1 2.654149 1_555
Rh4 Sb3 2.683023 1_555
Rh4 Sb0 2.683024 1_556
Rh5 Sb2 2.664536 1_545
Rh5 Sb3 2.665699 1_555
Rh5 Sb0 2.665704 1_556
Rh6 Sb1 2.658448 1_655
Rh6 Sb2 2.658449 1_545
