# generated using pymatgen
data_Hf13Sn3(Rh2N)4
_symmetry_space_group_name_H-M   'P 1'
_cell_length_a   8.59984674
_cell_length_b   8.59984634
_cell_length_c   8.62123580
_cell_angle_alpha   60.08203661
_cell_angle_beta   60.08203910
_cell_angle_gamma   60.00000197
_symmetry_Int_Tables_number   1
_chemical_formula_structural   Hf13Sn3(Rh2N)4
_chemical_formula_sum   'Hf13 Sn3 Rh8 N4'
_cell_volume   451.41225952
_cell_formula_units_Z   1
loop_
 _symmetry_equiv_pos_site_id
 _symmetry_equiv_pos_as_xyz
  1  'x, y, z'
loop_
 _atom_site_type_symbol
 _atom_site_label
 _atom_site_symmetry_multiplicity
 _atom_site_fract_x
 _atom_site_fract_y
 _atom_site_fract_z
 _atom_site_occupancy
  Hf  Hf0  1  0.62500000  0.62500000  0.12500000  1
  Hf  Hf1  1  0.81375847  0.81375847  0.18866021  1
  Hf  Hf2  1  0.18440586  0.18440586  0.81820295  1
  Hf  Hf3  1  0.81298532  0.18440586  0.81820295  1
  Hf  Hf4  1  0.18382084  0.81375847  0.18866021  1
  Hf  Hf5  1  0.18440586  0.81298532  0.81820295  1
  Hf  Hf6  1  0.81375847  0.18382084  0.18866021  1
  Hf  Hf7  1  0.43624153  0.43624153  0.06133979  1
  Hf  Hf8  1  0.06559414  0.06559414  0.43179705  1
  Hf  Hf9  1  0.43701468  0.06559414  0.43179705  1
  Hf  Hf10  1  0.06617916  0.43624153  0.06133979  1
  Hf  Hf11  1  0.06559414  0.43701468  0.43179705  1
  Hf  Hf12  1  0.43624153  0.06617916  0.06133979  1
  Sn  Sn0  1  0.12500000  0.62500000  0.62500000  1
  Sn  Sn1  1  0.62500000  0.12500000  0.62500000  1
  Sn  Sn2  1  0.62500000  0.62500000  0.62500000  1
  Rh  Rh0  1  0.77329556  0.41372833  0.39924878  1
  Rh  Rh1  1  0.41372833  0.77329556  0.39924878  1
  Rh  Rh2  1  0.40815451  0.40815451  0.77553746  1
  Rh  Rh3  1  0.41372833  0.41372833  0.39924878  1
  Rh  Rh4  1  0.47670444  0.83627167  0.85075122  1
  Rh  Rh5  1  0.83627167  0.47670444  0.85075122  1
  Rh  Rh6  1  0.84184549  0.84184549  0.47446254  1
  Rh  Rh7  1  0.83627167  0.83627167  0.85075122  1
  N  N0  1  0.62500000  0.12500000  0.12500000  1
  N  N1  1  0.12500000  0.62500000  0.12500000  1
  N  N2  1  0.12500000  0.12500000  0.62500000  1
  N  N3  1  0.12500000  0.12500000  0.12500000  1
loop_
_geom_bond_atom_site_label_1
_geom_bond_atom_site_label_2
_geom_bond_distance
_geom_bond_site_symmetry_2
Hf0 Rh3 2.631218 1_555
Hf0 Rh7 2.631218 1_554
Hf0 Rh0 2.631223 1_555
Hf0 Rh4 2.631223 1_554
Hf0 Rh1 2.631223 1_555
Hf0 Rh5 2.631223 1_554
Hf1 N0 2.275746 1_565
Hf1 N1 2.275746 1_655
Hf1 Rh6 2.726451 1_555
Hf1 Rh7 2.733844 1_554
Hf1 Rh0 3.096582 1_555
Hf1 Rh1 3.096582 1_555
Hf1 Sn2 3.142232 1_555
Hf2 N3 2.254559 1_556
Hf2 N2 2.292391 1_555
Hf2 Rh4 2.775021 1_545
Hf2 Rh5 2.775021 1_455
Hf2 Rh2 3.135432 1_555
Hf2 Sn0 3.163820 1_555
Hf2 Sn1 3.163820 1_555
Hf2 Rh3 3.240807 1_555
Hf3 N0 2.254559 1_556
Hf3 N2 2.292391 1_655
Hf3 Rh5 2.775016 1_555
Hf3 Rh7 2.775024 1_545
Hf3 Rh2 3.135425 1_555
Hf3 Sn2 3.163820 1_555
Hf3 Sn1 3.163820 1_555
Hf3 Rh0 3.240804 1_555
Hf4 N1 2.275734 1_555
Hf4 N3 2.275750 1_565
Hf4 Rh6 2.726446 1_455
Hf4 Rh4 2.733847 1_554
Hf4 Rh3 3.096592 1_555
Hf4 Rh1 3.096605 1_555
Hf4 Sn0 3.142235 1_555
Hf5 N1 2.254559 1_556
Hf5 N2 2.292391 1_565
Hf5 Rh4 2.775016 1_555
Hf5 Rh7 2.775024 1_455
Hf5 Rh2 3.135425 1_555
Hf5 Sn0 3.163820 1_555
Hf5 Sn2 3.163820 1_555
Hf5 Rh1 3.240804 1_555
Hf6 N0 2.275734 1_555
Hf6 N3 2.275750 1_655
Hf6 Rh6 2.726446 1_545
Hf6 Rh5 2.733847 1_554
Hf6 Rh3 3.096592 1_555
Hf6 Rh0 3.096605 1_555
Hf6 Sn1 3.142235 1_555
Hf7 N0 2.275746 1_555
Hf7 N1 2.275746 1_555
Hf7 Rh2 2.726451 1_554
Hf7 Rh3 2.733844 1_555
Hf7 Rh4 3.096582 1_554
Hf7 Rh5 3.096582 1_554
Hf7 Sn2 3.142232 1_554
Hf8 N3 2.254559 1_555
Hf8 N2 2.292391 1_555
Hf8 Rh0 2.775021 1_455
Hf8 Rh1 2.775021 1_545
Hf8 Rh6 3.135432 1_445
Hf8 Sn0 3.163820 1_545
Hf8 Sn1 3.163820 1_455
Hf8 Rh7 3.240807 1_445
Hf9 N0 2.254559 1_555
Hf9 N2 2.292391 1_555
Hf9 Rh1 2.775016 1_545
Hf9 Rh3 2.775024 1_555
Hf9 Rh6 3.135425 1_545
Hf9 Sn2 3.163820 1_545
Hf9 Sn1 3.163820 1_555
Hf9 Rh4 3.240804 1_545
Hf10 N1 2.275734 1_555
Hf10 N3 2.275750 1_555
Hf10 Rh2 2.726446 1_554
Hf10 Rh0 2.733847 1_455
Hf10 Rh7 3.096592 1_454
Hf10 Rh5 3.096605 1_454
Hf10 Sn0 3.142235 1_554
Hf11 N1 2.254559 1_555
Hf11 N2 2.292391 1_555
Hf11 Rh0 2.775016 1_455
Hf11 Rh3 2.775024 1_555
Hf11 Rh6 3.135425 1_455
Hf11 Sn0 3.163820 1_555
Hf11 Sn2 3.163820 1_455
Hf11 Rh5 3.240804 1_455
Hf12 N0 2.275734 1_555
Hf12 N3 2.275750 1_555
Hf12 Rh2 2.726446 1_554
Hf12 Rh1 2.733847 1_545
Hf12 Rh7 3.096592 1_544
Hf12 Rh4 3.096605 1_544
Hf12 Sn1 3.142235 1_554
Rh0 Sn2 2.729432 1_555
Rh0 Sn1 2.729439 1_555
Rh1 Sn2 2.729432 1_555
Rh1 Sn0 2.729439 1_555
Rh2 Sn2 2.699770 1_555
Rh2 Sn1 2.699777 1_555
Rh2 Sn0 2.699777 1_555
Rh3 Sn1 2.729434 1_555
Rh3 Sn0 2.729434 1_555
Rh4 Sn2 2.729432 1_555
Rh4 Sn1 2.729439 1_565
Rh5 Sn2 2.729432 1_555
Rh5 Sn0 2.729439 1_655
Rh6 Sn2 2.699770 1_555
Rh6 Sn1 2.699777 1_565
Rh6 Sn0 2.699777 1_655
Rh7 Sn1 2.729434 1_565
Rh7 Sn0 2.729434 1_655
