# generated using pymatgen
data_Sr3ZnNiO6
_symmetry_space_group_name_H-M   'P 1'
_cell_length_a   6.57537464
_cell_length_b   6.57537458
_cell_length_c   6.57537516
_cell_angle_alpha   92.65198577
_cell_angle_beta   92.65199144
_cell_angle_gamma   92.65199304
_symmetry_Int_Tables_number   1
_chemical_formula_structural   Sr3ZnNiO6
_chemical_formula_sum   'Sr6 Zn2 Ni2 O12'
_cell_volume   283.34730882
_cell_formula_units_Z   2
loop_
 _symmetry_equiv_pos_site_id
 _symmetry_equiv_pos_as_xyz
  1  'x, y, z'
loop_
 _atom_site_type_symbol
 _atom_site_label
 _atom_site_symmetry_multiplicity
 _atom_site_fract_x
 _atom_site_fract_y
 _atom_site_fract_z
 _atom_site_occupancy
  Sr  Sr0  1  0.88473471  0.61526529  0.25000000  1
  Sr  Sr1  1  0.25000000  0.88473471  0.61526529  1
  Sr  Sr2  1  0.61526529  0.25000000  0.88473471  1
  Sr  Sr3  1  0.75000000  0.11526529  0.38473471  1
  Sr  Sr4  1  0.38473471  0.75000000  0.11526529  1
  Sr  Sr5  1  0.11526529  0.38473471  0.75000000  1
  Zn  Zn0  1  0.25000000  0.25000000  0.25000000  1
  Zn  Zn1  1  0.75000000  0.75000000  0.75000000  1
  Ni  Ni0  1  0.50000000  0.50000000  0.50000000  1
  Ni  Ni1  1  0.00000000  0.00000000  0.00000000  1
  O  O0  1  0.22486841  0.54036111  0.41269400  1
  O  O1  1  0.41269400  0.22486841  0.54036111  1
  O  O2  1  0.54036111  0.41269400  0.22486841  1
  O  O3  1  0.91269400  0.04036111  0.72486841  1
  O  O4  1  0.72486841  0.91269400  0.04036111  1
  O  O5  1  0.04036111  0.72486841  0.91269400  1
  O  O6  1  0.77513159  0.45963889  0.58730600  1
  O  O7  1  0.58730600  0.77513159  0.45963889  1
  O  O8  1  0.45963889  0.58730600  0.77513159  1
  O  O9  1  0.08730600  0.95963889  0.27513159  1
  O  O10  1  0.27513159  0.08730600  0.95963889  1
  O  O11  1  0.95963889  0.27513159  0.08730600  1
loop_
_geom_bond_atom_site_label_1
_geom_bond_atom_site_label_2
_geom_bond_distance
_geom_bond_site_symmetry_2
Ni0 O7 1.906627 1_555
Ni0 O1 1.906627 1_555
Ni0 O6 1.906627 1_555
Ni0 O0 1.906627 1_555
Ni0 O8 1.906628 1_555
Ni0 O2 1.906628 1_555
Ni1 O10 1.906627 1_554
Ni1 O4 1.906627 1_445
Ni1 O11 1.906627 1_455
Ni1 O5 1.906627 1_544
Ni1 O9 1.906627 1_545
Ni1 O3 1.906627 1_454
O0 Zn0 2.161815 1_555
O0 Sr0 2.513612 1_455
O0 Sr1 2.568038 1_555
O0 Sr5 2.602953 1_555
O0 Sr4 2.671240 1_555
O1 Zn0 2.161815 1_555
O1 Sr1 2.513612 1_545
O1 Sr2 2.568039 1_555
O1 Sr3 2.602953 1_555
O1 Sr5 2.671240 1_555
O2 Zn0 2.161815 1_555
O2 Sr2 2.513612 1_554
O2 Sr0 2.568038 1_555
O2 Sr4 2.602953 1_555
O2 Sr3 2.671240 1_555
O3 Zn1 2.161815 1_545
O3 Sr3 2.513612 1_555
O3 Sr5 2.568038 1_655
O3 Sr1 2.602953 1_645
O3 Sr2 2.671240 1_555
O4 Zn1 2.161815 1_554
O4 Sr4 2.513612 1_555
O4 Sr3 2.568039 1_565
O4 Sr2 2.602953 1_564
O4 Sr0 2.671240 1_555
O5 Zn1 2.161815 1_455
O5 Sr5 2.513612 1_555
O5 Sr4 2.568038 1_556
O5 Sr0 2.602953 1_456
O5 Sr1 2.671240 1_555
O6 Zn1 2.161815 1_555
O6 Sr5 2.513612 1_655
O6 Sr3 2.568038 1_555
O6 Sr0 2.602953 1_555
O6 Sr2 2.671240 1_555
O7 Zn1 2.161815 1_555
O7 Sr3 2.513612 1_565
O7 Sr4 2.568039 1_555
O7 Sr1 2.602953 1_555
O7 Sr0 2.671240 1_555
O8 Zn1 2.161815 1_555
O8 Sr4 2.513612 1_556
O8 Sr5 2.568038 1_555
O8 Sr2 2.602953 1_555
O8 Sr1 2.671240 1_555
O9 Zn0 2.161815 1_565
O9 Sr1 2.513612 1_555
O9 Sr0 2.568038 1_455
O9 Sr3 2.602953 1_465
O9 Sr4 2.671240 1_555
O10 Zn0 2.161815 1_556
O10 Sr2 2.513612 1_555
O10 Sr1 2.568039 1_545
O10 Sr4 2.602953 1_546
O10 Sr5 2.671240 1_555
O11 Zn0 2.161815 1_655
O11 Sr0 2.513612 1_555
O11 Sr2 2.568038 1_554
O11 Sr5 2.602953 1_654
O11 Sr3 2.671240 1_555
