# generated using pymatgen
data_Hf10PPdPb6
_symmetry_space_group_name_H-M   'P 1'
_cell_length_a   8.65678969
_cell_length_b   8.65678938
_cell_length_c   5.86894669
_cell_angle_alpha   90.00000000
_cell_angle_beta   90.00000000
_cell_angle_gamma   119.99999376
_symmetry_Int_Tables_number   1
_chemical_formula_structural   Hf10PPdPb6
_chemical_formula_sum   'Hf10 P1 Pd1 Pb6'
_cell_volume   380.89435930
_cell_formula_units_Z   1
loop_
 _symmetry_equiv_pos_site_id
 _symmetry_equiv_pos_as_xyz
  1  'x, y, z'
loop_
 _atom_site_type_symbol
 _atom_site_label
 _atom_site_symmetry_multiplicity
 _atom_site_fract_x
 _atom_site_fract_y
 _atom_site_fract_z
 _atom_site_occupancy
  Hf  Hf0  1  0.66666700  0.33333300  0.00000000  1
  Hf  Hf1  1  0.00000000  0.25853995  0.23782476  1
  Hf  Hf2  1  0.74146005  1.00000000  0.76217524  1
  Hf  Hf3  1  0.25853995  0.25853995  0.76217524  1
  Hf  Hf4  1  0.33333300  0.66666700  0.50000000  1
  Hf  Hf5  1  0.33333300  0.66666700  0.00000000  1
  Hf  Hf6  1  1.00000000  0.74146005  0.76217524  1
  Hf  Hf7  1  0.66666700  0.33333300  0.50000000  1
  Hf  Hf8  1  0.74146005  0.74146005  0.23782476  1
  Hf  Hf9  1  0.25853995  0.00000000  0.23782476  1
  P  P0  1  0.00000000  0.00000000  0.00000000  1
  Pd  Pd0  1  0.00000000  0.00000000  0.50000000  1
  Pb  Pb0  1  0.60920279  0.60920279  0.74416023  1
  Pb  Pb1  1  0.39079721  1.00000000  0.74416023  1
  Pb  Pb2  1  0.00000000  0.60920279  0.25583977  1
  Pb  Pb3  1  0.39079721  0.39079721  0.25583977  1
  Pb  Pb4  1  1.00000000  0.39079721  0.74416023  1
  Pb  Pb5  1  0.60920279  0.00000000  0.25583977  1
loop_
_geom_bond_atom_site_label_1
_geom_bond_atom_site_label_2
_geom_bond_distance
_geom_bond_site_symmetry_2
Hf0 Pb5 3.064831 1_555
Hf0 Pb4 3.064831 1_554
Hf0 Pb1 3.064834 1_544
Hf0 Pb2 3.064834 1_655
Hf0 Pb0 3.064839 1_554
Hf0 Pb3 3.064839 1_555
Hf1 P0 2.637691 1_555
Hf1 Pd0 2.716023 1_555
Hf1 Pb3 2.982234 1_555
Hf1 Pb5 2.982234 1_455
Hf1 Pb2 3.037455 1_555
Hf1 Pb4 3.115308 1_454
Hf1 Pb4 3.184586 1_455
Hf2 P0 2.637691 1_666
Hf2 Pd0 2.716023 1_665
Hf2 Pb0 2.982234 1_555
Hf2 Pb4 2.982234 1_565
Hf2 Pb1 3.037455 1_555
Hf2 Pb5 3.115308 1_566
Hf2 Pb5 3.184586 1_565
Hf3 P0 2.637691 1_556
Hf3 Pd0 2.716023 1_555
Hf3 Pb1 2.982234 1_545
Hf3 Pb4 2.982234 1_455
Hf3 Pb0 3.037455 1_555
Hf3 Pb3 3.115308 1_556
Hf3 Pb3 3.184586 1_555
Hf4 Pb1 3.031838 1_555
Hf4 Pb2 3.031838 1_555
Hf4 Pb5 3.031841 1_565
Hf4 Pb4 3.031841 1_455
Hf4 Pb3 3.031846 1_555
Hf4 Pb0 3.031846 1_555
Hf5 Pb1 3.064831 1_554
Hf5 Pb2 3.064831 1_555
Hf5 Pb5 3.064834 1_565
Hf5 Pb4 3.064834 1_454
Hf5 Pb3 3.064839 1_555
Hf5 Pb0 3.064839 1_554
Hf6 P0 2.637691 1_666
Hf6 Pd0 2.716023 1_665
Hf6 Pb0 2.982234 1_555
Hf6 Pb1 2.982234 1_655
Hf6 Pb4 3.037455 1_555
Hf6 Pb2 3.115308 1_656
Hf6 Pb2 3.184586 1_655
Hf7 Pb5 3.031838 1_555
Hf7 Pb4 3.031838 1_555
Hf7 Pb1 3.031841 1_545
Hf7 Pb2 3.031841 1_655
Hf7 Pb0 3.031846 1_555
Hf7 Pb3 3.031846 1_555
Hf8 P0 2.637691 1_665
Hf8 Pd0 2.716023 1_665
Hf8 Pb5 2.982234 1_565
Hf8 Pb2 2.982234 1_655
Hf8 Pb3 3.037455 1_555
Hf8 Pb0 3.115308 1_554
Hf8 Pb0 3.184586 1_555
Hf9 P0 2.637691 1_555
Hf9 Pd0 2.716023 1_555
Hf9 Pb3 2.982234 1_555
Hf9 Pb2 2.982234 1_545
Hf9 Pb5 3.037455 1_555
Hf9 Pb1 3.115308 1_544
Hf9 Pb1 3.184586 1_545
