# generated using pymatgen
data_VB3Mo4
_symmetry_space_group_name_H-M   'P 1'
_cell_length_a   5.81161079
_cell_length_b   5.81161058
_cell_length_c   6.77727755
_cell_angle_alpha   115.38869938
_cell_angle_beta   115.38869794
_cell_angle_gamma   89.99999620
_symmetry_Int_Tables_number   1
_chemical_formula_structural   VB3Mo4
_chemical_formula_sum   'V2 B6 Mo8'
_cell_volume   182.02117138
_cell_formula_units_Z   2
loop_
 _symmetry_equiv_pos_site_id
 _symmetry_equiv_pos_as_xyz
  1  'x, y, z'
loop_
 _atom_site_type_symbol
 _atom_site_label
 _atom_site_symmetry_multiplicity
 _atom_site_fract_x
 _atom_site_fract_y
 _atom_site_fract_z
 _atom_site_occupancy
  V  V0  1  0.50000000  0.50000000  0.00000000  1
  V  V1  1  0.00000000  0.00000000  0.00000000  1
  B  B0  1  0.25000000  0.25000000  0.50000000  1
  B  B1  1  0.75000000  0.75000000  0.50000000  1
  B  B2  1  0.61940384  0.11940384  1.00000000  1
  B  B3  1  0.38059616  0.88059616  0.00000000  1
  B  B4  1  0.88059616  0.61940384  0.00000000  1
  B  B5  1  0.11940384  0.38059616  1.00000000  1
  Mo  Mo0  1  0.02680085  0.52680085  0.71390912  1
  Mo  Mo1  1  0.68710828  0.18710828  0.71390912  1
  Mo  Mo2  1  0.18710828  0.02680085  0.71390912  1
  Mo  Mo3  1  0.52680085  0.68710828  0.71390912  1
  Mo  Mo4  1  0.97319915  0.47319915  0.28609088  1
  Mo  Mo5  1  0.31289172  0.81289172  0.28609088  1
  Mo  Mo6  1  0.81289172  0.97319915  0.28609088  1
  Mo  Mo7  1  0.47319915  0.31289172  0.28609088  1
loop_
_geom_bond_atom_site_label_1
_geom_bond_atom_site_label_2
_geom_bond_distance
_geom_bond_site_symmetry_2
B0 Mo2 2.446386 1_555
B0 Mo0 2.446386 1_555
B0 Mo7 2.446386 1_555
B0 Mo4 2.446386 1_455
B0 Mo5 2.446386 1_545
B0 Mo1 2.446387 1_555
B0 Mo3 2.446387 1_555
B0 Mo6 2.446387 1_445
B0 V0 2.694628 1_556
B0 V1 2.694628 1_555
B1 Mo6 2.446386 1_555
B1 Mo4 2.446386 1_555
B1 Mo3 2.446386 1_555
B1 Mo0 2.446386 1_655
B1 Mo1 2.446386 1_565
B1 Mo5 2.446387 1_555
B1 Mo7 2.446387 1_555
B1 Mo2 2.446387 1_665
B1 V1 2.694628 1_666
B1 V0 2.694628 1_555
B2 B3 1.962727 1_546
B2 Mo7 2.299767 1_556
B2 Mo6 2.299767 1_546
B2 Mo3 2.299767 1_545
B2 Mo2 2.299768 1_555
B2 V0 2.318175 1_556
B2 V1 2.318175 1_656
B2 Mo1 2.318933 1_555
B2 Mo4 2.318934 1_556
B3 Mo3 2.299767 1_554
B3 Mo2 2.299767 1_564
B3 Mo7 2.299767 1_565
B3 Mo6 2.299768 1_555
B3 V0 2.318175 1_555
B3 V1 2.318175 1_565
B3 Mo5 2.318933 1_555
B3 Mo0 2.318934 1_554
B4 B5 1.962726 1_654
B4 Mo0 2.299767 1_654
B4 Mo4 2.299767 1_555
B4 Mo1 2.299768 1_554
B4 Mo5 2.299768 1_655
B4 V1 2.318175 1_665
B4 V0 2.318175 1_555
B4 Mo6 2.318933 1_555
B4 Mo3 2.318933 1_554
B5 Mo4 2.299767 1_456
B5 Mo0 2.299767 1_555
B5 Mo5 2.299768 1_556
B5 Mo1 2.299768 1_455
B5 V1 2.318175 1_556
B5 V0 2.318175 1_556
B5 Mo2 2.318933 1_555
B5 Mo7 2.318933 1_556
Mo0 V1 2.651987 1_566
Mo0 V0 2.651987 1_556
Mo1 V0 2.651987 1_556
Mo1 V1 2.651987 1_656
Mo2 V1 2.651986 1_556
Mo2 V0 2.651987 1_556
Mo3 V0 2.651986 1_556
Mo3 V1 2.651987 1_666
Mo4 V1 2.651987 1_655
Mo4 V0 2.651987 1_555
Mo5 V0 2.651987 1_555
Mo5 V1 2.651987 1_565
Mo6 V1 2.651986 1_665
Mo6 V0 2.651987 1_555
Mo7 V0 2.651986 1_555
Mo7 V1 2.651987 1_555
