# generated using pymatgen
data_TiBe9VRe
_symmetry_space_group_name_H-M   'P 1'
_cell_length_a   7.35039294
_cell_length_b   7.35039284
_cell_length_c   7.35039292
_cell_angle_alpha   34.41017281
_cell_angle_beta   34.41017297
_cell_angle_gamma   34.41016670
_symmetry_Int_Tables_number   1
_chemical_formula_structural   TiBe9VRe
_chemical_formula_sum   'Ti1 Be9 V1 Re1'
_cell_volume   113.12590386
_cell_formula_units_Z   1
loop_
 _symmetry_equiv_pos_site_id
 _symmetry_equiv_pos_as_xyz
  1  'x, y, z'
loop_
 _atom_site_type_symbol
 _atom_site_label
 _atom_site_symmetry_multiplicity
 _atom_site_fract_x
 _atom_site_fract_y
 _atom_site_fract_z
 _atom_site_occupancy
  Ti  Ti0  1  0.99803837  0.99803837  0.99803837  1
  Be  Be0  1  0.41452430  0.91982594  0.41452430  1
  Be  Be1  1  0.41452430  0.41452430  0.91982594  1
  Be  Be2  1  0.91982594  0.41452430  0.41452430  1
  Be  Be3  1  0.58655047  0.07826678  0.58655047  1
  Be  Be4  1  0.58655047  0.58655047  0.07826678  1
  Be  Be5  1  0.07826678  0.58655047  0.58655047  1
  Be  Be6  1  0.66673614  0.66673614  0.66673614  1
  Be  Be7  1  0.33492168  0.33492168  0.33492168  1
  Be  Be8  1  0.49999526  0.49999526  0.49999526  1
  V  V0  1  0.14547831  0.14547831  0.14547831  1
  Re  Re0  1  0.85458897  0.85458897  0.85458897  1
loop_
_geom_bond_atom_site_label_1
_geom_bond_atom_site_label_2
_geom_bond_distance
_geom_bond_site_symmetry_2
Ti0 V0 3.055705 1_666
Be0 Be8 2.136745 1_555
Be0 Be6 2.150361 1_555
Be0 Be2 2.151140 1_465
Be0 Be1 2.151140 1_564
Be0 Be7 2.160446 1_565
Be0 Be2 2.197247 1_555
Be0 Be1 2.197247 1_555
Be0 V0 2.490252 1_565
Be0 Re0 2.522419 1_554
Be0 Re0 2.522420 1_455
Be0 Ti0 2.756382 1_455
Be0 Ti0 2.756383 1_554
Be1 Be8 2.136746 1_555
Be1 Be6 2.150362 1_555
Be1 Be2 2.151140 1_456
Be1 Be7 2.160446 1_556
Be1 Be2 2.197247 1_555
Be1 V0 2.490252 1_556
Be1 Re0 2.522419 1_545
Be1 Re0 2.522419 1_455
Be1 Ti0 2.756382 1_455
Be1 Ti0 2.756382 1_545
Be2 Be8 2.136745 1_555
Be2 Be6 2.150361 1_555
Be2 Be7 2.160446 1_655
Be2 V0 2.490252 1_655
Be2 Re0 2.522420 1_554
Be2 Re0 2.522420 1_545
Be2 Ti0 2.756382 1_545
Be2 Ti0 2.756382 1_554
Be3 Be7 2.128537 1_555
Be3 Be6 2.129436 1_545
Be3 Be5 2.138173 1_645
Be3 Be4 2.138173 1_546
Be3 Be8 2.139697 1_555
Be3 Be5 2.210214 1_555
Be3 Be4 2.210214 1_555
Be3 Re0 2.486284 1_545
Be3 V0 2.522329 1_556
Be3 V0 2.522329 1_655
Be3 Ti0 2.808197 1_544
Be3 Ti0 2.808197 1_445
Be4 Be7 2.128538 1_555
Be4 Be6 2.129436 1_554
Be4 Be5 2.138173 1_654
Be4 Be8 2.139697 1_555
Be4 Be5 2.210214 1_555
Be4 Re0 2.486284 1_554
Be4 V0 2.522328 1_565
Be4 V0 2.522328 1_655
Be4 Ti0 2.808196 1_544
Be4 Ti0 2.808196 1_454
Be5 Be7 2.128537 1_555
Be5 Be6 2.129436 1_455
Be5 Be8 2.139697 1_555
Be5 Re0 2.486284 1_455
Be5 V0 2.522329 1_556
Be5 V0 2.522329 1_565
Be5 Ti0 2.808197 1_454
Be5 Ti0 2.808197 1_445
Be6 Be7 2.510740 1_565
Be6 Be7 2.510740 1_655
Be6 Be7 2.510740 1_556
Be6 Ti0 2.510895 1_545
Be6 Ti0 2.510895 1_455
Be6 Ti0 2.510896 1_554
Be7 Ti0 2.511620 1_454
Be7 Ti0 2.511620 1_544
Be7 Ti0 2.511621 1_445
Be8 V0 2.548641 1_565
Be8 V0 2.548641 1_655
Be8 V0 2.548642 1_556
Be8 Re0 2.548916 1_545
Be8 Re0 2.548916 1_455
Be8 Re0 2.548916 1_554
Re0 V0 2.660191 1_656
Re0 V0 2.660191 1_566
Re0 V0 2.660191 1_665
Re0 Ti0 2.973001 1_555
