# generated using pymatgen
data_KTcP2Ir
_symmetry_space_group_name_H-M   'P 1'
_cell_length_a   6.97262343
_cell_length_b   6.97262310
_cell_length_c   6.97262318
_cell_angle_alpha   146.32933060
_cell_angle_beta   146.32933041
_cell_angle_gamma   48.35785769
_symmetry_Int_Tables_number   1
_chemical_formula_structural   KTcP2Ir
_chemical_formula_sum   'K1 Tc1 P2 Ir1'
_cell_volume   103.76140581
_cell_formula_units_Z   1
loop_
 _symmetry_equiv_pos_site_id
 _symmetry_equiv_pos_as_xyz
  1  'x, y, z'
loop_
 _atom_site_type_symbol
 _atom_site_label
 _atom_site_symmetry_multiplicity
 _atom_site_fract_x
 _atom_site_fract_y
 _atom_site_fract_z
 _atom_site_occupancy
  K  K0  1  0.00000000  0.00000000  0.00000000  1
  Tc  Tc0  1  0.75000000  0.25000000  0.50000000  1
  P  P0  1  0.34075857  0.34075857  1.00000000  1
  P  P1  1  0.65924143  0.65924143  0.00000000  1
  Ir  Ir0  1  0.25000000  0.75000000  0.50000000  1
loop_
_geom_bond_atom_site_label_1
_geom_bond_atom_site_label_2
_geom_bond_distance
_geom_bond_site_symmetry_2
K0 P1 3.501458 1_556
K0 P0 3.501458 1_443
K0 P1 3.501458 1_444
K0 P0 3.501458 1_555
K0 P1 3.501458 1_455
K0 P0 3.501458 1_544
K0 P0 3.501458 1_454
K0 P1 3.501458 1_545
P0 Tc0 2.326203 1_556
P0 Tc0 2.326203 1_455
P1 Tc0 2.326203 1_565
P1 Tc0 2.326203 1_554
Ir0 P0 2.326203 1_565
Ir0 P1 2.326203 1_556
Ir0 P0 2.326203 1_554
Ir0 P1 2.326203 1_455
Ir0 Tc0 2.855899 1_454
Ir0 Tc0 2.855899 1_566
Ir0 Tc0 2.855900 1_465
Ir0 Tc0 2.855900 1_555
Ir0 K0 3.767414 1_555
Ir0 K0 3.767414 1_565
Ir0 K0 3.767414 1_666
Ir0 K0 3.767414 1_566
