# generated using pymatgen
data_Li2AgPb
_symmetry_space_group_name_H-M   'P 1'
_cell_length_a   4.72518020
_cell_length_b   4.72517947
_cell_length_c   4.72518156
_cell_angle_alpha   60.00000696
_cell_angle_beta   60.00001201
_cell_angle_gamma   60.00000300
_symmetry_Int_Tables_number   1
_chemical_formula_structural   Li2AgPb
_chemical_formula_sum   'Li2 Ag1 Pb1'
_cell_volume   74.60024584
_cell_formula_units_Z   1
loop_
 _symmetry_equiv_pos_site_id
 _symmetry_equiv_pos_as_xyz
  1  'x, y, z'
loop_
 _atom_site_type_symbol
 _atom_site_label
 _atom_site_symmetry_multiplicity
 _atom_site_fract_x
 _atom_site_fract_y
 _atom_site_fract_z
 _atom_site_occupancy
  Li  Li0  1  0.25000000  0.25000000  0.25000000  1
  Li  Li1  1  0.50000000  0.50000000  0.50000000  1
  Ag  Ag0  1  0.75000000  0.75000000  0.75000000  1
  Pb  Pb0  1  -0.00000000  -0.00000000  0.00000000  1
loop_
_geom_bond_atom_site_label_1
_geom_bond_atom_site_label_2
_geom_bond_distance
_geom_bond_site_symmetry_2
Li0 Li1 2.893570 1_545
Li0 Pb0 2.893570 1_565
Li0 Pb0 2.893570 1_555
Li0 Li1 2.893570 1_555
Li0 Pb0 2.893570 1_655
Li0 Li1 2.893570 1_455
Li0 Pb0 2.893571 1_556
Li0 Li1 2.893571 1_554
Ag0 Pb0 2.893570 1_656
Ag0 Li1 2.893570 1_565
Ag0 Pb0 2.893570 1_666
Ag0 Li1 2.893570 1_555
Ag0 Pb0 2.893570 1_566
Ag0 Li1 2.893570 1_655
Ag0 Pb0 2.893571 1_665
Ag0 Li1 2.893571 1_556
