# generated using pymatgen
data_CsKSnTe5
_symmetry_space_group_name_H-M   'P 1'
_cell_length_a   10.01546957
_cell_length_b   10.01546939
_cell_length_c   10.01547045
_cell_angle_alpha   127.91111206
_cell_angle_beta   127.91110798
_cell_angle_gamma   76.76906858
_symmetry_Int_Tables_number   1
_chemical_formula_structural   CsKSnTe5
_chemical_formula_sum   'Cs2 K2 Sn2 Te10'
_cell_volume   607.26336931
_cell_formula_units_Z   2
loop_
 _symmetry_equiv_pos_site_id
 _symmetry_equiv_pos_as_xyz
  1  'x, y, z'
loop_
 _atom_site_type_symbol
 _atom_site_label
 _atom_site_symmetry_multiplicity
 _atom_site_fract_x
 _atom_site_fract_y
 _atom_site_fract_z
 _atom_site_occupancy
  Cs  Cs0  1  0.00000000  0.00000000  0.00000000  1
  Cs  Cs1  1  0.50000000  0.50000000  0.00000000  1
  K  K0  1  0.25000000  0.25000000  0.00000000  1
  K  K1  1  0.75000000  0.75000000  0.00000000  1
  Sn  Sn0  1  0.25000000  0.75000000  0.50000000  1
  Sn  Sn1  1  0.75000000  0.25000000  0.50000000  1
  Te  Te0  1  0.03457376  0.18566706  0.50000000  1
  Te  Te1  1  0.53457376  0.03457376  0.84890569  1
  Te  Te2  1  0.50000000  0.00000000  0.50000000  1
  Te  Te3  1  0.00000000  0.50000000  0.50000000  1
  Te  Te4  1  0.68566706  0.53457376  0.50000000  1
  Te  Te5  1  0.18566706  0.68566706  0.15109431  1
  Te  Te6  1  0.81433294  0.31433294  0.84890569  1
  Te  Te7  1  0.31433294  0.46542624  0.50000000  1
  Te  Te8  1  0.96542624  0.81433294  0.50000000  1
  Te  Te9  1  0.46542624  0.96542624  0.15109431  1
loop_
_geom_bond_atom_site_label_1
_geom_bond_atom_site_label_2
_geom_bond_distance
_geom_bond_site_symmetry_2
Cs0 Te9 3.921174 1_545
Cs0 Te1 3.921174 1_454
Cs0 Te7 3.921177 1_555
Cs0 Te4 3.921177 1_444
Cs0 Te0 3.921177 1_555
Cs0 Te8 3.921177 1_444
Cs0 Te6 3.921182 1_454
Cs0 Te5 3.921182 1_545
Cs0 Te3 4.397474 1_544
Cs0 Te3 4.397474 1_555
Cs0 Te2 4.397475 1_454
Cs0 Te2 4.397475 1_555
Cs1 Te9 3.921173 1_555
Cs1 Te1 3.921173 1_554
Cs1 Te8 3.921177 1_555
Cs1 Te0 3.921177 1_554
Cs1 Te7 3.921177 1_554
Cs1 Te4 3.921177 1_555
Cs1 Te6 3.921182 1_554
Cs1 Te5 3.921182 1_555
Cs1 Te2 4.397474 1_565
Cs1 Te2 4.397474 1_554
Cs1 Te3 4.397475 1_655
Cs1 Te3 4.397475 1_554
K0 Te5 3.679868 1_555
K0 Te6 3.679868 1_454
K0 Te8 3.679870 1_444
K0 Te4 3.679871 1_555
K0 Te7 3.679871 1_555
K0 Te0 3.679871 1_554
K0 Te1 3.679876 1_554
K0 Te9 3.679876 1_545
K1 Te6 3.679868 1_554
K1 Te5 3.679868 1_655
K1 Te0 3.679870 1_665
K1 Te7 3.679871 1_554
K1 Te4 3.679871 1_554
K1 Te8 3.679871 1_555
K1 Te9 3.679876 1_555
K1 Te1 3.679876 1_564
Sn0 Te5 2.774486 1_555
Sn0 Te7 2.774496 1_555
Sn0 Te8 2.774496 1_455
Sn0 Te1 2.774496 1_565
Sn1 Te6 2.774486 1_555
Sn1 Te4 2.774496 1_555
Sn1 Te0 2.774496 1_655
Sn1 Te9 2.774496 1_545
Te0 Te3 3.087395 1_555
Te1 Te2 3.087385 1_555
Te2 Te9 3.087385 1_545
Te2 Te6 3.087396 1_555
Te2 Te5 3.087396 1_545
Te3 Te8 3.087395 1_455
Te3 Te7 3.087395 1_555
Te3 Te4 3.087395 1_455
