# generated using pymatgen
data_Nb8Si2Sn4Au
_symmetry_space_group_name_H-M   'P 1'
_cell_length_a   5.00148064
_cell_length_b   7.89586608
_cell_length_c   7.89579127
_cell_angle_alpha   95.74884793
_cell_angle_beta   108.46366568
_cell_angle_gamma   71.53473214
_symmetry_Int_Tables_number   1
_chemical_formula_structural   Nb8Si2Sn4Au
_chemical_formula_sum   'Nb8 Si2 Sn4 Au1'
_cell_volume   280.53512080
_cell_formula_units_Z   1
loop_
 _symmetry_equiv_pos_site_id
 _symmetry_equiv_pos_as_xyz
  1  'x, y, z'
loop_
 _atom_site_type_symbol
 _atom_site_label
 _atom_site_symmetry_multiplicity
 _atom_site_fract_x
 _atom_site_fract_y
 _atom_site_fract_z
 _atom_site_occupancy
  Nb  Nb0  1  0.41259729  0.87614683  0.71610897  1
  Nb  Nb1  1  0.57262499  0.12384863  0.28388769  1
  Nb  Nb2  1  0.92736586  0.28389103  0.12385317  1
  Nb  Nb3  1  0.08741407  0.71611231  0.87615137  1
  Nb  Nb4  1  0.71131989  0.71607979  0.12387977  1
  Nb  Nb5  1  0.30350611  0.28392741  0.87612173  1
  Nb  Nb6  1  0.78868721  0.12387827  0.71607259  1
  Nb  Nb7  1  0.19648009  0.87612023  0.28392021  1
  Si  Si0  1  0.25000599  0.99999401  0.00000599  1
  Si  Si1  1  0.75000745  0.99999255  0.00000745  1
  Sn  Sn0  1  0.38101336  0.49999854  0.19695196  1
  Sn  Sn1  1  0.68406623  0.50000548  0.80303865  1
  Sn  Sn2  1  0.81593907  0.80304804  0.50000146  1
  Sn  Sn3  1  0.11896594  0.19696135  0.49999452  1
  Au  Au0  1  0.25000547  0.49999453  0.50000547  1
loop_
_geom_bond_atom_site_label_1
_geom_bond_atom_site_label_2
_geom_bond_distance
_geom_bond_site_symmetry_2
Nb0 Si0 2.618016 1_556
Nb0 Si1 2.653107 1_556
Nb0 Sn1 2.898097 1_555
Nb0 Sn3 2.899532 1_565
Nb0 Sn2 2.925697 1_555
Nb0 Sn2 3.133445 1_455
Nb1 Si0 2.617962 1_545
Nb1 Si1 2.653005 1_545
Nb1 Sn0 2.898173 1_555
Nb1 Sn2 2.899438 1_545
Nb1 Sn3 2.925760 1_655
Nb1 Sn3 3.133414 1_555
Nb2 Si0 2.618015 1_645
Nb2 Si1 2.653110 1_545
Nb2 Sn3 2.898097 1_655
Nb2 Sn1 2.899531 1_554
Nb2 Sn0 2.925706 1_555
Nb2 Sn0 3.133437 1_655
Nb3 Si0 2.617962 1_556
Nb3 Si1 2.653005 1_456
Nb3 Sn2 2.898173 1_455
Nb3 Sn0 2.899438 1_556
Nb3 Sn1 2.925763 1_455
Nb3 Sn1 3.133410 1_555
Nb4 Si1 2.617889 1_555
Nb4 Si0 2.653098 1_555
Nb4 Sn2 2.898224 1_555
Nb4 Sn1 2.899940 1_554
Nb4 Sn0 2.925647 1_555
Nb4 Sn0 3.133023 1_655
Nb5 Si1 2.618068 1_546
Nb5 Si0 2.653231 1_546
Nb5 Sn3 2.898269 1_555
Nb5 Sn0 2.899864 1_556
Nb5 Sn1 2.925526 1_455
Nb5 Sn1 3.133152 1_555
Nb6 Si1 2.618065 1_546
Nb6 Si0 2.653234 1_646
Nb6 Sn1 2.898269 1_555
Nb6 Sn2 2.899864 1_545
Nb6 Sn3 2.925525 1_655
Nb6 Sn3 3.133153 1_555
Nb7 Si1 2.617890 1_455
Nb7 Si0 2.653097 1_555
Nb7 Sn0 2.898224 1_555
Nb7 Sn3 2.899940 1_565
Nb7 Sn2 2.925644 1_555
Nb7 Sn2 3.133026 1_455
Si0 Si1 2.500740 1_455
Si0 Si1 2.500740 1_555
Au0 Sn1 2.673551 1_555
Au0 Sn3 2.673553 1_555
Au0 Sn0 2.673608 1_555
Au0 Sn2 2.673611 1_455
