# generated using pymatgen
data_KNa5(TcH9)3
_symmetry_space_group_name_H-M   'P 1'
_cell_length_a   8.73871612
_cell_length_b   8.73871612
_cell_length_c   5.16003551
_cell_angle_alpha   90.00000000
_cell_angle_beta   90.00000000
_cell_angle_gamma   120.26969592
_symmetry_Int_Tables_number   1
_chemical_formula_structural   KNa5(TcH9)3
_chemical_formula_sum   'K1 Na5 Tc3 H27'
_cell_volume   340.32347222
_cell_formula_units_Z   1
loop_
 _symmetry_equiv_pos_site_id
 _symmetry_equiv_pos_as_xyz
  1  'x, y, z'
loop_
 _atom_site_type_symbol
 _atom_site_label
 _atom_site_symmetry_multiplicity
 _atom_site_fract_x
 _atom_site_fract_y
 _atom_site_fract_z
 _atom_site_occupancy
  K  K0  1  0.40787626  0.40787626  0.00000000  1
  Na  Na0  1  0.26347185  0.00132037  0.50000000  1
  Na  Na1  1  0.00132037  0.26347185  0.50000000  1
  Na  Na2  1  0.73424080  0.73424080  0.50000000  1
  Na  Na3  1  0.59825528  0.00256618  0.00000000  1
  Na  Na4  1  0.00256618  0.59825528  0.00000000  1
  Tc  Tc0  1  0.99006173  0.99006173  0.00000000  1
  Tc  Tc1  1  0.33100052  0.67534037  0.50000000  1
  Tc  Tc2  1  0.67534037  0.33100052  0.50000000  1
  H  H0  1  0.85235369  0.99141008  0.22628927  1
  H  H1  1  0.99141008  0.85235369  0.22628927  1
  H  H2  1  0.85235369  0.99141008  0.77371073  1
  H  H3  1  0.99141008  0.85235369  0.77371073  1
  H  H4  1  0.12321037  0.12321037  0.23478678  1
  H  H5  1  0.12321037  0.12321037  0.76521322  1
  H  H6  1  0.18241998  0.99640322  0.00000000  1
  H  H7  1  0.99640322  0.18241998  0.00000000  1
  H  H8  1  0.80082619  0.80082619  0.00000000  1
  H  H9  1  0.20260847  0.53006487  0.26896087  1
  H  H10  1  0.47866133  0.70141598  0.27032831  1
  H  H11  1  0.20260847  0.53006487  0.73103913  1
  H  H12  1  0.53006487  0.20260847  0.73103913  1
  H  H13  1  0.31439950  0.79751583  0.26301627  1
  H  H14  1  0.47866133  0.70141598  0.72967169  1
  H  H15  1  0.70141598  0.47866133  0.72967169  1
  H  H16  1  0.53006487  0.20260847  0.26896087  1
  H  H17  1  0.31439950  0.79751583  0.73698373  1
  H  H18  1  0.70141598  0.47866133  0.27032831  1
  H  H19  1  0.79751583  0.31439950  0.73698373  1
  H  H20  1  0.79751583  0.31439950  0.26301627  1
  H  H21  1  0.35901684  0.50236961  0.50000000  1
  H  H22  1  0.50089183  0.87734095  0.50000000  1
  H  H23  1  0.50236961  0.35901684  0.50000000  1
  H  H24  1  0.13478780  0.65852899  0.50000000  1
  H  H25  1  0.87734095  0.50089183  0.50000000  1
  H  H26  1  0.65852899  0.13478780  0.50000000  1
loop_
_geom_bond_atom_site_label_1
_geom_bond_atom_site_label_2
_geom_bond_distance
_geom_bond_site_symmetry_2
H0 Tc0 1.681076 1_555
H0 Na2 2.402521 1_555
H0 Na1 2.494315 1_665
H0 Na3 2.553775 1_565
H1 Tc0 1.681076 1_555
H1 Na2 2.402521 1_555
H1 Na0 2.494315 1_665
H1 Na4 2.553775 1_655
H2 Tc0 1.681076 1_556
H2 Na2 2.402521 1_555
H2 Na1 2.494315 1_665
H2 Na3 2.553775 1_566
H3 Tc0 1.681076 1_556
H3 Na2 2.402521 1_555
H3 Na0 2.494315 1_665
H3 Na4 2.553775 1_656
H4 Tc0 1.676477 1_445
H4 Na0 2.413700 1_555
H4 Na1 2.413700 1_555
H4 K0 2.757824 1_555
H5 Tc0 1.676477 1_446
H5 Na0 2.413700 1_555
H5 Na1 2.413700 1_555
H5 K0 2.757824 1_556
H6 Tc0 1.653723 1_455
H7 Tc0 1.653723 1_545
H8 Tc0 1.646930 1_555
H9 Tc1 1.689917 1_555
H9 Na1 2.410703 1_555
H9 Na4 2.527308 1_555
H9 K0 2.866153 1_555
H10 Tc1 1.680785 1_555
H10 Na2 2.414362 1_555
H10 Na3 2.681587 1_565
H10 K0 2.703476 1_555
H11 Tc1 1.689917 1_555
H11 Na1 2.410703 1_555
H11 Na4 2.527308 1_556
H11 K0 2.866153 1_556
H12 Tc2 1.689917 1_555
H12 Na0 2.410703 1_555
H12 Na3 2.527308 1_556
H12 K0 2.866153 1_556
H13 Tc1 1.677031 1_555
H13 Na0 2.380001 1_565
H13 Na3 2.593221 1_565
H14 Tc1 1.680785 1_555
H14 Na2 2.414362 1_555
H14 Na3 2.681587 1_566
H14 K0 2.703476 1_556
H15 Tc2 1.680785 1_555
H15 Na2 2.414362 1_555
H15 Na4 2.681587 1_656
H15 K0 2.703476 1_556
H16 Tc2 1.689917 1_555
H16 Na0 2.410703 1_555
H16 Na3 2.527308 1_555
H16 K0 2.866153 1_555
H17 Tc1 1.677031 1_555
H17 Na0 2.380001 1_565
H17 Na3 2.593221 1_566
H18 Tc2 1.680785 1_555
H18 Na2 2.414362 1_555
H18 Na4 2.681587 1_655
H18 K0 2.703476 1_555
H19 Tc2 1.677031 1_555
H19 Na1 2.380001 1_655
H19 Na4 2.593221 1_656
H20 Tc2 1.677031 1_555
H20 Na1 2.380001 1_655
H20 Na4 2.593221 1_655
H21 Tc1 1.648569 1_555
H21 K0 2.806439 1_556
H21 K0 2.806439 1_555
H22 Tc1 1.636492 1_555
H23 Tc2 1.648569 1_555
H23 K0 2.806439 1_556
H23 K0 2.806439 1_555
H24 Tc1 1.645493 1_555
H25 Tc2 1.636492 1_555
H26 Tc2 1.645493 1_555
