# generated using pymatgen
data_LuAlSi2Rh
_symmetry_space_group_name_H-M   'P 1'
_cell_length_a   5.97618506
_cell_length_b   5.97618540
_cell_length_c   5.97618492
_cell_angle_alpha   142.18603607
_cell_angle_beta   142.18604030
_cell_angle_gamma   54.54865886
_symmetry_Int_Tables_number   1
_chemical_formula_structural   LuAlSi2Rh
_chemical_formula_sum   'Lu1 Al1 Si2 Rh1'
_cell_volume   79.67551288
_cell_formula_units_Z   1
loop_
 _symmetry_equiv_pos_site_id
 _symmetry_equiv_pos_as_xyz
  1  'x, y, z'
loop_
 _atom_site_type_symbol
 _atom_site_label
 _atom_site_symmetry_multiplicity
 _atom_site_fract_x
 _atom_site_fract_y
 _atom_site_fract_z
 _atom_site_occupancy
  Lu  Lu0  1  0.00000000  0.00000000  0.00000000  1
  Al  Al0  1  0.75000000  0.25000000  0.50000000  1
  Si  Si0  1  0.60819372  0.60819372  1.00000000  1
  Si  Si1  1  0.39180628  0.39180628  0.00000000  1
  Rh  Rh0  1  0.25000000  0.75000000  0.50000000  1
loop_
_geom_bond_atom_site_label_1
_geom_bond_atom_site_label_2
_geom_bond_distance
_geom_bond_site_symmetry_2
Lu0 Si0 2.970021 1_544
Lu0 Si1 2.970021 1_455
Lu0 Si0 2.970021 1_454
Lu0 Si1 2.970021 1_545
Lu0 Si0 2.970021 1_443
Lu0 Si1 2.970021 1_556
Lu0 Si0 2.970021 1_555
Lu0 Si1 2.970021 1_444
Lu0 Rh0 3.286894 1_544
Lu0 Rh0 3.286894 1_545
Lu0 Rh0 3.286894 1_444
Lu0 Rh0 3.286895 1_555
Al0 Si1 2.453456 1_555
Al0 Si0 2.453456 1_555
Al0 Si1 2.453456 1_656
Al0 Si0 2.453456 1_544
Al0 Rh0 2.738595 1_645
Al0 Rh0 2.738595 1_555
Al0 Rh0 2.738595 1_656
Al0 Rh0 2.738595 1_544
Al0 Lu0 3.286894 1_655
Al0 Lu0 3.286894 1_656
Al0 Lu0 3.286894 1_555
Al0 Lu0 3.286895 1_666
Si0 Si1 2.298800 1_556
Rh0 Si0 2.453456 1_555
Rh0 Si1 2.453456 1_555
Rh0 Si0 2.453456 1_454
Rh0 Si1 2.453456 1_566
