# generated using pymatgen
data_K4Sn(GeS3)2
_symmetry_space_group_name_H-M   'P 1'
_cell_length_a   7.36423600
_cell_length_b   7.36423550
_cell_length_c   8.03161647
_cell_angle_alpha   82.53400186
_cell_angle_beta   82.53400102
_cell_angle_gamma   118.45729931
_symmetry_Int_Tables_number   1
_chemical_formula_structural   K4Sn(GeS3)2
_chemical_formula_sum   'K4 Sn1 Ge2 S6'
_cell_volume   370.38496853
_cell_formula_units_Z   1
loop_
 _symmetry_equiv_pos_site_id
 _symmetry_equiv_pos_as_xyz
  1  'x, y, z'
loop_
 _atom_site_type_symbol
 _atom_site_label
 _atom_site_symmetry_multiplicity
 _atom_site_fract_x
 _atom_site_fract_y
 _atom_site_fract_z
 _atom_site_occupancy
  K  K0  1  0.51718755  0.48281245  0.00000000  1
  K  K1  1  0.67090970  0.32909030  0.50000000  1
  K  K2  1  0.33264978  0.66735022  0.50000000  1
  K  K3  1  0.18797530  0.81202470  0.00000000  1
  Sn  Sn0  1  0.84062279  0.15937721  1.00000000  1
  Ge  Ge0  1  0.05554403  0.06443570  0.34299763  1
  Ge  Ge1  1  0.93556430  0.94445597  0.65700237  1
  S  S0  1  0.08395808  0.37543707  0.24104141  1
  S  S1  1  0.35701971  0.07110395  0.27526530  1
  S  S2  1  0.92889605  0.64298029  0.72473470  1
  S  S3  1  0.62456293  0.91604192  0.75895859  1
  S  S4  1  0.79959193  0.83448315  0.22249409  1
  S  S5  1  0.16551685  0.20040807  0.77750591  1
loop_
_geom_bond_atom_site_label_1
_geom_bond_atom_site_label_2
_geom_bond_distance
_geom_bond_site_symmetry_2
K0 S1 3.105441 1_555
K0 S2 3.105441 1_554
K0 S3 3.185074 1_554
K0 S0 3.185074 1_555
K0 S4 3.355750 1_555
K0 S5 3.355750 1_554
K1 S2 3.162429 1_555
K1 S1 3.162429 1_555
K1 S3 3.297996 1_545
K1 S0 3.297996 1_655
K1 S4 3.694839 1_555
K1 S5 3.694839 1_555
K2 S1 3.184883 1_565
K2 S2 3.184884 1_455
K2 S0 3.271237 1_555
K2 S3 3.271237 1_555
K2 S5 3.401309 1_555
K2 S4 3.401309 1_555
K3 S1 3.102504 1_565
K3 S2 3.102504 1_454
K3 S0 3.212747 1_555
K3 S3 3.212747 1_554
K3 S5 3.255840 1_564
K3 S4 3.255840 1_455
Ge0 S1 2.191495 1_555
Ge0 S0 2.229602 1_555
Ge0 S4 2.283703 1_445
Ge1 S2 2.191495 1_555
Ge1 S3 2.229602 1_555
Ge1 S5 2.283703 1_665
S0 Sn0 2.911279 1_454
S3 Sn0 2.911279 1_565
S4 Sn0 2.658709 1_564
S5 Sn0 2.658710 1_455
