# generated using pymatgen
data_Sc12InNi4Ir
_symmetry_space_group_name_H-M   'P 1'
_cell_length_a   7.74116899
_cell_length_b   7.74116858
_cell_length_c   7.74116842
_cell_angle_alpha   111.08291771
_cell_angle_beta   110.87427564
_cell_angle_gamma   106.49686105
_symmetry_Int_Tables_number   1
_chemical_formula_structural   Sc12InNi4Ir
_chemical_formula_sum   'Sc12 In1 Ni4 Ir1'
_cell_volume   356.38819443
_cell_formula_units_Z   1
loop_
 _symmetry_equiv_pos_site_id
 _symmetry_equiv_pos_as_xyz
  1  'x, y, z'
loop_
 _atom_site_type_symbol
 _atom_site_label
 _atom_site_symmetry_multiplicity
 _atom_site_fract_x
 _atom_site_fract_y
 _atom_site_fract_z
 _atom_site_occupancy
  Sc  Sc0  1  0.42258312  0.22612312  0.19645900  1
  Sc  Sc1  1  0.57741688  0.77387688  0.80354100  1
  Sc  Sc2  1  0.02966512  0.22612312  0.80354100  1
  Sc  Sc3  1  0.97033488  0.77387688  0.19645900  1
  Sc  Sc4  1  0.32237367  0.62315000  0.30077433  1
  Sc  Sc5  1  0.67762633  0.37685000  0.69922567  1
  Sc  Sc6  1  0.32237367  0.02159834  0.69922567  1
  Sc  Sc7  1  0.67762633  0.97840166  0.30077433  1
  Sc  Sc8  1  0.18201864  0.27781371  0.45983235  1
  Sc  Sc9  1  0.81798136  0.72218529  0.54016765  1
  Sc  Sc10  1  0.18201864  0.72218529  0.90420593  1
  Sc  Sc11  1  0.81798136  0.27781371  0.09579407  1
  In  In0  1  0.50000000  0.50000000  0.00000000  1
  Ni  Ni0  1  0.35547838  1.00000000  0.35547838  1
  Ni  Ni1  1  0.64452162  0.00000000  0.64452162  1
  Ni  Ni2  1  0.12319010  0.62319010  0.50000000  1
  Ni  Ni3  1  0.87680990  0.37680990  0.50000000  1
  Ir  Ir0  1  0.00000000  0.00000000  0.00000000  1
loop_
_geom_bond_atom_site_label_1
_geom_bond_atom_site_label_2
_geom_bond_distance
_geom_bond_site_symmetry_2
In0 Sc3 3.068321 1_555
In0 Sc2 3.068321 1_554
In0 Sc1 3.068325 1_554
In0 Sc0 3.068325 1_555
In0 Sc4 3.106420 1_555
In0 Sc5 3.106420 1_554
In0 Sc7 3.106423 1_555
In0 Sc6 3.106423 1_554
In0 Sc10 3.404217 1_554
In0 Sc11 3.404224 1_555
In0 Sc8 3.404224 1_554
In0 Sc9 3.404226 1_555
Ni0 Sc0 2.517704 1_565
Ni0 Sc3 2.517709 1_455
Ni0 Ni1 2.538749 1_565
Ni0 Sc4 2.713799 1_555
Ni0 Sc5 2.713807 1_565
Ni0 Sc7 2.713812 1_555
Ni0 Sc6 2.713816 1_565
Ni0 Sc10 2.871217 1_554
Ni0 Sc8 2.871222 1_565
Ni1 Sc1 2.517704 1_545
Ni1 Sc2 2.517709 1_655
Ni1 Sc5 2.713799 1_555
Ni1 Sc4 2.713807 1_545
Ni1 Sc6 2.713812 1_555
Ni1 Sc7 2.713816 1_545
Ni1 Sc11 2.871216 1_556
Ni1 Sc9 2.871228 1_545
Ni2 Ni3 2.282418 1_455
Ni2 Sc6 2.539792 1_565
Ni2 Sc4 2.539799 1_555
Ni2 Sc9 2.765246 1_455
Ni2 Sc8 2.765249 1_555
Ni2 Sc11 2.765253 1_455
Ni2 Sc10 2.765258 1_555
Ni2 Sc1 3.009421 1_555
Ni2 Sc3 3.009429 1_455
Ni3 Sc7 2.539792 1_545
Ni3 Sc5 2.539799 1_555
Ni3 Sc9 2.765242 1_555
Ni3 Sc8 2.765250 1_655
Ni3 Sc10 2.765251 1_655
Ni3 Sc11 2.765257 1_555
Ni3 Sc0 3.009421 1_555
Ni3 Sc2 3.009429 1_655
Ir0 Sc2 2.713958 1_554
Ir0 Sc3 2.713958 1_445
Ir0 Sc0 2.713963 1_555
Ir0 Sc1 2.713963 1_444
Ir0 Sc11 2.911808 1_455
Ir0 Sc8 2.911809 1_555
Ir0 Sc9 2.911810 1_444
Ir0 Sc10 2.911814 1_544
Ir0 Ni0 3.122268 1_545
Ir0 Ni1 3.122268 1_454
