# generated using pymatgen
data_SrScIO6
_symmetry_space_group_name_H-M   'P 1'
_cell_length_a   5.34907201
_cell_length_b   5.34907176
_cell_length_c   5.26568828
_cell_angle_alpha   90.00000000
_cell_angle_beta   90.00000000
_cell_angle_gamma   119.99999552
_symmetry_Int_Tables_number   1
_chemical_formula_structural   SrScIO6
_chemical_formula_sum   'Sr1 Sc1 I1 O6'
_cell_volume   130.47961477
_cell_formula_units_Z   1
loop_
 _symmetry_equiv_pos_site_id
 _symmetry_equiv_pos_as_xyz
  1  'x, y, z'
loop_
 _atom_site_type_symbol
 _atom_site_label
 _atom_site_symmetry_multiplicity
 _atom_site_fract_x
 _atom_site_fract_y
 _atom_site_fract_z
 _atom_site_occupancy
  Sr  Sr0  1  0.66666700  0.33333300  0.00000000  1
  Sc  Sc0  1  0.33333300  0.66666600  0.50000000  1
  I  I0  1  0.00000000  0.00000000  0.50000000  1
  O  O0  1  0.02527644  0.30104353  0.29730141  1
  O  O1  1  0.69895547  0.72423291  0.29730141  1
  O  O2  1  0.27576709  0.97472256  0.29730141  1
  O  O3  1  0.27576609  0.30104353  0.70269859  1
  O  O4  1  0.02527644  0.72423291  0.70269859  1
  O  O5  1  0.69895647  0.97472256  0.70269859  1
loop_
_geom_bond_atom_site_label_1
_geom_bond_atom_site_label_2
_geom_bond_distance
_geom_bond_site_symmetry_2
I0 O5 1.879590 1_445
I0 O3 1.879590 1_555
I0 O4 1.879592 1_545
I0 O0 1.879592 1_555
I0 O2 1.879595 1_545
I0 O1 1.879595 1_445
O0 Sc0 2.111102 1_555
O0 Sr0 2.547847 1_455
O1 Sc0 2.111100 1_555
O1 Sr0 2.547853 1_555
O2 Sc0 2.111102 1_555
O2 Sr0 2.547851 1_565
O3 Sc0 2.111100 1_555
O3 Sr0 2.547855 1_556
O4 Sc0 2.111105 1_555
O4 Sr0 2.547849 1_456
O5 Sc0 2.111105 1_555
O5 Sr0 2.547851 1_566
