# generated using pymatgen
data_Sr3LuSb3
_symmetry_space_group_name_H-M   'P 1'
_cell_length_a   8.37719595
_cell_length_b   8.37719564
_cell_length_c   9.67631595
_cell_angle_alpha   55.57997180
_cell_angle_beta   55.57997267
_cell_angle_gamma   71.16356647
_symmetry_Int_Tables_number   1
_chemical_formula_structural   Sr3LuSb3
_chemical_formula_sum   'Sr6 Lu2 Sb6'
_cell_volume   462.08461946
_cell_formula_units_Z   2
loop_
 _symmetry_equiv_pos_site_id
 _symmetry_equiv_pos_as_xyz
  1  'x, y, z'
loop_
 _atom_site_type_symbol
 _atom_site_label
 _atom_site_symmetry_multiplicity
 _atom_site_fract_x
 _atom_site_fract_y
 _atom_site_fract_z
 _atom_site_occupancy
  Sr  Sr0  1  0.00202817  0.13740491  0.11090169  1
  Sr  Sr1  1  0.86259509  0.99797183  0.88909831  1
  Sr  Sr2  1  0.49896240  0.85246072  0.75222359  1
  Sr  Sr3  1  0.14753928  0.50103760  0.24777641  1
  Sr  Sr4  1  0.99677945  0.64655439  0.60407268  1
  Sr  Sr5  1  0.35344561  0.00322055  0.39592732  1
  Lu  Lu0  1  0.63247919  0.49817685  0.25478096  1
  Lu  Lu1  1  0.50182315  0.36752081  0.74521904  1
  Sb  Sb0  1  0.85101575  0.14898425  0.50000000  1
  Sb  Sb1  1  0.62514379  0.37485621  0.00000000  1
  Sb  Sb2  1  0.27694041  0.26791561  0.61364204  1
  Sb  Sb3  1  0.73208439  0.72305959  0.38635796  1
  Sb  Sb4  1  0.12965585  0.61049151  0.87811228  1
  Sb  Sb5  1  0.38950849  0.87034415  0.12188772  1
loop_
_geom_bond_atom_site_label_1
_geom_bond_atom_site_label_2
_geom_bond_distance
_geom_bond_site_symmetry_2
Lu0 Sb2 3.015799 1_555
Lu0 Sb5 3.137758 1_555
Lu0 Sb1 3.200077 1_555
Lu0 Sb3 3.285405 1_555
Lu0 Sb0 3.338371 1_555
Lu0 Sb4 3.606732 1_654
Lu1 Sb3 3.015799 1_555
Lu1 Sb4 3.137758 1_555
Lu1 Sb1 3.200077 1_556
Lu1 Sb2 3.285405 1_555
Lu1 Sb0 3.338371 1_555
Lu1 Sb5 3.606732 1_546
Sb0 Sr3 3.250303 1_655
Sb0 Sr2 3.250303 1_545
Sb0 Sr1 3.276327 1_545
Sb0 Sr0 3.276327 1_655
Sb0 Sr4 3.674251 1_545
Sb0 Sr5 3.674252 1_655
Sb1 Sr5 3.283931 1_555
Sb1 Sr4 3.283931 1_554
Sb1 Sr2 3.487567 1_554
Sb1 Sr3 3.487567 1_555
Sb1 Sr1 3.526781 1_544
Sb1 Sr0 3.526781 1_655
Sb2 Sr4 3.268713 1_455
Sb2 Sr2 3.276252 1_545
Sb2 Sr1 3.472989 1_445
Sb2 Sr5 3.550024 1_555
Sb2 Sr3 3.560567 1_555
Sb2 Sr0 3.578031 1_556
Sb3 Sr5 3.268713 1_565
Sb3 Sr3 3.276252 1_655
Sb3 Sr0 3.472989 1_665
Sb3 Sr4 3.550024 1_555
Sb3 Sr2 3.560567 1_555
Sb3 Sr1 3.578031 1_554
Sb4 Sr3 3.235318 1_556
Sb4 Sr4 3.252065 1_455
Sb4 Sr1 3.314341 1_455
Sb4 Sr0 3.441625 1_556
Sb4 Sr2 3.487342 1_555
Sb4 Sr5 3.584473 1_565
Sb5 Sr2 3.235318 1_554
Sb5 Sr5 3.252065 1_565
Sb5 Sr0 3.314341 1_565
Sb5 Sr1 3.441625 1_554
Sb5 Sr3 3.487342 1_555
Sb5 Sr4 3.584473 1_455
