# generated using pymatgen
data_BaSO4
_symmetry_space_group_name_H-M   'P 1'
_cell_length_a   5.46903188
_cell_length_b   7.18825422
_cell_length_c   8.91393949
_cell_angle_alpha   90.00000000
_cell_angle_beta   90.00000000
_cell_angle_gamma   90.00000000
_symmetry_Int_Tables_number   1
_chemical_formula_structural   BaSO4
_chemical_formula_sum   'Ba4 S4 O16'
_cell_volume   350.43184453
_cell_formula_units_Z   4
loop_
 _symmetry_equiv_pos_site_id
 _symmetry_equiv_pos_as_xyz
  1  'x, y, z'
loop_
 _atom_site_type_symbol
 _atom_site_label
 _atom_site_symmetry_multiplicity
 _atom_site_fract_x
 _atom_site_fract_y
 _atom_site_fract_z
 _atom_site_occupancy
  Ba  Ba0  1  0.25000000  0.84323851  0.68510564  1
  Ba  Ba1  1  0.75000000  0.15676149  0.31489436  1
  Ba  Ba2  1  0.75000000  0.34323851  0.81489436  1
  Ba  Ba3  1  0.25000000  0.65676149  0.18510564  1
  S  S0  1  0.25000000  0.30928493  0.56192277  1
  S  S1  1  0.75000000  0.69071507  0.43807723  1
  S  S2  1  0.75000000  0.80928493  0.93807723  1
  S  S3  1  0.25000000  0.19071507  0.06192277  1
  O  O0  1  0.53023403  0.81068088  0.41985536  1
  O  O1  1  0.03023403  0.18931912  0.58014464  1
  O  O2  1  0.46976597  0.31068088  0.08014464  1
  O  O3  1  0.96976597  0.68931912  0.91985536  1
  O  O4  1  0.46976597  0.18931912  0.58014464  1
  O  O5  1  0.96976597  0.81068088  0.41985536  1
  O  O6  1  0.53023403  0.68931912  0.91985536  1
  O  O7  1  0.03023403  0.31068088  0.08014464  1
  O  O8  1  0.25000000  0.39128857  0.41162364  1
  O  O9  1  0.75000000  0.60871143  0.58837636  1
  O  O10  1  0.75000000  0.89128857  0.08837636  1
  O  O11  1  0.25000000  0.10871143  0.91162364  1
  O  O12  1  0.25000000  0.04902758  0.18154347  1
  O  O13  1  0.75000000  0.95097242  0.81845653  1
  O  O14  1  0.75000000  0.54902758  0.31845653  1
  O  O15  1  0.25000000  0.45097242  0.68154347  1
loop_
_geom_bond_atom_site_label_1
_geom_bond_atom_site_label_2
_geom_bond_distance
_geom_bond_site_symmetry_2
Ba0 O11 2.778236 1_565
Ba0 O15 2.819887 1_555
Ba0 O3 2.819890 1_455
Ba0 O6 2.819890 1_555
Ba0 O0 2.827396 1_555
Ba0 O5 2.827396 1_455
Ba0 O4 2.916965 1_565
Ba0 O1 2.916965 1_565
Ba0 O13 3.080628 1_555
Ba0 O13 3.080628 1_455
Ba0 O9 3.326122 1_455
Ba0 O9 3.326122 1_555
Ba1 O10 2.778236 1_545
Ba1 O14 2.819887 1_555
Ba1 O7 2.819890 1_655
Ba1 O2 2.819890 1_555
Ba1 O1 2.827396 1_655
Ba1 O4 2.827396 1_555
Ba1 O5 2.916965 1_545
Ba1 O0 2.916965 1_545
Ba1 O12 3.080628 1_555
Ba1 O12 3.080628 1_655
Ba1 O8 3.326122 1_555
Ba1 O8 3.326122 1_655
Ba2 O9 2.778236 1_555
Ba2 O13 2.819887 1_545
Ba2 O1 2.819890 1_655
Ba2 O4 2.819890 1_555
Ba2 O7 2.827396 1_656
Ba2 O2 2.827396 1_556
Ba2 O3 2.916965 1_555
Ba2 O6 2.916965 1_555
Ba2 O15 3.080628 1_555
Ba2 O15 3.080628 1_655
Ba2 O11 3.326122 1_655
Ba2 O11 3.326122 1_555
Ba3 O8 2.778236 1_555
Ba3 O12 2.819887 1_565
Ba3 O0 2.819890 1_555
Ba3 O5 2.819890 1_455
Ba3 O6 2.827396 1_554
Ba3 O3 2.827396 1_454
Ba3 O7 2.916965 1_555
Ba3 O2 2.916965 1_555
Ba3 O14 3.080628 1_455
Ba3 O14 3.080628 1_555
Ba3 O10 3.326122 1_555
Ba3 O10 3.326122 1_455
O0 S1 1.488154 1_555
O1 S0 1.488154 1_555
O2 S3 1.488154 1_555
O3 S2 1.488154 1_555
O4 S0 1.488154 1_555
O5 S1 1.488154 1_555
O6 S2 1.488154 1_555
O7 S3 1.488154 1_555
O8 S0 1.463700 1_555
O9 S1 1.463700 1_555
O10 S2 1.463700 1_554
O11 S3 1.463700 1_556
O12 S3 1.474548 1_555
O13 S2 1.474548 1_555
O14 S1 1.474548 1_555
O15 S0 1.474548 1_555
