# generated using pymatgen
data_In6TcRh
_symmetry_space_group_name_H-M   'P 1'
_cell_length_a   7.06291676
_cell_length_b   7.06291676
_cell_length_c   7.32580477
_cell_angle_alpha   90.00000000
_cell_angle_beta   90.00000000
_cell_angle_gamma   89.53764082
_symmetry_Int_Tables_number   1
_chemical_formula_structural   In6TcRh
_chemical_formula_sum   'In12 Tc2 Rh2'
_cell_volume   365.43435683
_cell_formula_units_Z   2
loop_
 _symmetry_equiv_pos_site_id
 _symmetry_equiv_pos_as_xyz
  1  'x, y, z'
loop_
 _atom_site_type_symbol
 _atom_site_label
 _atom_site_symmetry_multiplicity
 _atom_site_fract_x
 _atom_site_fract_y
 _atom_site_fract_z
 _atom_site_occupancy
  In  In0  1  0.00000000  0.50000000  0.50000000  1
  In  In1  1  0.50000000  0.00000000  0.00000000  1
  In  In2  1  0.50000000  0.00000000  0.50000000  1
  In  In3  1  0.00000000  0.50000000  0.00000000  1
  In  In4  1  0.34598922  0.65401078  0.23854347  1
  In  In5  1  0.65401078  0.34598922  0.23854347  1
  In  In6  1  0.15716246  0.15716246  0.73483591  1
  In  In7  1  0.84283754  0.84283754  0.73483591  1
  In  In8  1  0.65401078  0.34598922  0.76145653  1
  In  In9  1  0.34598922  0.65401078  0.76145653  1
  In  In10  1  0.84283754  0.84283754  0.26516409  1
  In  In11  1  0.15716246  0.15716246  0.26516409  1
  Tc  Tc0  1  0.15714416  0.84285584  0.50000000  1
  Tc  Tc1  1  0.84285584  0.15714416  0.50000000  1
  Rh  Rh0  1  0.34577760  0.34577760  0.00000000  1
  Rh  Rh1  1  0.65422240  0.65422240  0.00000000  1
loop_
_geom_bond_atom_site_label_1
_geom_bond_atom_site_label_2
_geom_bond_distance
_geom_bond_site_symmetry_2
In0 Tc0 2.671930 1_555
In0 Tc1 2.671930 1_455
In0 In7 3.164137 1_455
In0 In6 3.164137 1_555
In0 In10 3.164137 1_455
In0 In11 3.164137 1_555
In0 In9 3.296430 1_555
In0 In4 3.296430 1_555
In0 In8 3.296430 1_455
In0 In5 3.296430 1_455
In1 Rh0 2.666062 1_555
In1 Rh1 2.666062 1_545
In1 In5 3.201813 1_555
In1 In8 3.201813 1_554
In1 In4 3.201813 1_545
In1 In9 3.201813 1_544
In1 In10 3.290225 1_545
In1 In11 3.290225 1_555
In1 In7 3.290225 1_544
In1 In6 3.290225 1_554
In2 Tc1 2.671930 1_555
In2 Tc0 2.671930 1_545
In2 In7 3.164137 1_545
In2 In6 3.164137 1_555
In2 In8 3.296430 1_555
In2 In5 3.296430 1_555
In2 In9 3.296430 1_545
In2 In4 3.296430 1_545
In3 Rh0 2.666062 1_555
In3 Rh1 2.666062 1_455
In3 In4 3.201813 1_555
In3 In9 3.201813 1_554
In3 In5 3.201813 1_455
In3 In8 3.201813 1_454
In3 In7 3.290225 1_454
In3 In6 3.290225 1_554
In4 Tc0 2.682908 1_555
In4 Rh1 2.791654 1_555
In4 Rh0 2.791654 1_555
In4 In5 3.064226 1_555
In5 Tc1 2.682908 1_555
In5 Rh1 2.791654 1_555
In5 Rh0 2.791654 1_555
In6 Rh0 2.711360 1_556
In6 Tc1 2.808505 1_455
In6 Tc0 2.808505 1_545
In6 In7 3.152268 1_445
In7 Rh1 2.711360 1_556
In7 Tc0 2.808505 1_655
In7 Tc1 2.808505 1_565
In8 Tc1 2.682908 1_555
In8 Rh0 2.791654 1_556
In8 Rh1 2.791654 1_556
In8 In9 3.064226 1_555
In9 Tc0 2.682908 1_555
In9 Rh0 2.791654 1_556
In9 Rh1 2.791654 1_556
In10 Rh1 2.711360 1_555
In10 Tc0 2.808505 1_655
In10 Tc1 2.808505 1_565
In10 In11 3.152268 1_665
In10 In2 3.164137 1_565
In10 In3 3.290225 1_655
In10 In7 3.440724 1_555
In11 Rh0 2.711360 1_555
In11 Tc0 2.808505 1_545
In11 Tc1 2.808505 1_455
In11 In2 3.164137 1_555
In11 In3 3.290225 1_555
In11 In6 3.440724 1_555
Rh0 Rh1 3.093298 1_555
