# generated using pymatgen
data_Mn2AlRh3S8
_symmetry_space_group_name_H-M   'P 1'
_cell_length_a   7.05671195
_cell_length_b   7.14691418
_cell_length_c   7.14691477
_cell_angle_alpha   60.00000188
_cell_angle_beta   59.57625251
_cell_angle_gamma   59.57625211
_symmetry_Int_Tables_number   1
_chemical_formula_structural   Mn2AlRh3S8
_chemical_formula_sum   'Mn2 Al1 Rh3 S8'
_cell_volume   253.22876565
_cell_formula_units_Z   1
loop_
 _symmetry_equiv_pos_site_id
 _symmetry_equiv_pos_as_xyz
  1  'x, y, z'
loop_
 _atom_site_type_symbol
 _atom_site_label
 _atom_site_symmetry_multiplicity
 _atom_site_fract_x
 _atom_site_fract_y
 _atom_site_fract_z
 _atom_site_occupancy
  Mn  Mn0  1  0.25579343  0.24806852  0.24806852  1
  Mn  Mn1  1  0.99420657  0.00193148  0.00193148  1
  Al  Al0  1  0.12500000  0.62500000  0.62500000  1
  Rh  Rh0  1  0.62500000  0.12500000  0.62500000  1
  Rh  Rh1  1  0.62500000  0.62500000  0.12500000  1
  Rh  Rh2  1  0.62500000  0.62500000  0.62500000  1
  S  S0  1  0.83332610  0.38889063  0.38889063  1
  S  S1  1  0.38969308  0.83672388  0.38679152  1
  S  S2  1  0.38969308  0.38679152  0.83672388  1
  S  S3  1  0.38969308  0.38679152  0.38679152  1
  S  S4  1  0.41667390  0.86110937  0.86110937  1
  S  S5  1  0.86030692  0.41327612  0.86320848  1
  S  S6  1  0.86030692  0.86320848  0.41327612  1
  S  S7  1  0.86030692  0.86320848  0.86320848  1
loop_
_geom_bond_atom_site_label_1
_geom_bond_atom_site_label_2
_geom_bond_distance
_geom_bond_site_symmetry_2
Mn0 S1 2.395666 1_545
Mn0 S2 2.395667 1_554
Mn0 S3 2.395672 1_555
Mn0 S0 2.418457 1_455
Mn1 S5 2.395666 1_554
Mn1 S6 2.395667 1_545
Mn1 S7 2.395672 1_544
Mn1 S4 2.418457 1_644
Al0 S1 2.396409 1_555
Al0 S5 2.396409 1_455
Al0 S2 2.396409 1_555
Al0 S6 2.396409 1_455
Al0 S7 2.396409 1_455
Al0 S3 2.396409 1_555
Rh0 S0 2.383017 1_555
Rh0 S4 2.383017 1_545
Rh0 S2 2.384847 1_555
Rh0 S6 2.384847 1_545
Rh0 S7 2.384847 1_545
Rh0 S3 2.384847 1_555
Rh1 S0 2.383017 1_555
Rh1 S4 2.383017 1_554
Rh1 S7 2.384847 1_554
Rh1 S3 2.384847 1_555
Rh1 S1 2.384847 1_555
Rh1 S5 2.384847 1_554
Rh2 S4 2.383028 1_555
Rh2 S0 2.383028 1_555
Rh2 S6 2.384847 1_555
Rh2 S2 2.384847 1_555
Rh2 S5 2.384847 1_555
Rh2 S1 2.384847 1_555
