# generated using pymatgen
data_Y16MgIn3Rh4
_symmetry_space_group_name_H-M   'P 1'
_cell_length_a   9.68921174
_cell_length_b   9.68921159
_cell_length_c   9.69468692
_cell_angle_alpha   60.01868117
_cell_angle_beta   60.01868277
_cell_angle_gamma   59.99999702
_symmetry_Int_Tables_number   1
_chemical_formula_structural   Y16MgIn3Rh4
_chemical_formula_sum   'Y16 Mg1 In3 Rh4'
_cell_volume   643.75148670
_cell_formula_units_Z   1
loop_
 _symmetry_equiv_pos_site_id
 _symmetry_equiv_pos_as_xyz
  1  'x, y, z'
loop_
 _atom_site_type_symbol
 _atom_site_label
 _atom_site_symmetry_multiplicity
 _atom_site_fract_x
 _atom_site_fract_y
 _atom_site_fract_z
 _atom_site_occupancy
  Y  Y0  1  0.68902961  0.31047514  0.31146464  1
  Y  Y1  1  0.68902961  0.68902961  0.31146464  1
  Y  Y2  1  0.31047514  0.68902961  0.31146464  1
  Y  Y3  1  0.93782216  0.93782216  0.56151771  1
  Y  Y4  1  0.15013567  0.15013567  0.54959399  1
  Y  Y5  1  0.56283796  0.93782216  0.56151771  1
  Y  Y6  1  0.15186557  0.15186557  0.15134818  1
  Y  Y7  1  0.30797184  0.30797184  0.69248623  1
  Y  Y8  1  0.93782216  0.56283796  0.56151771  1
  Y  Y9  1  0.56202070  0.56202070  0.93771501  1
  Y  Y10  1  0.56202070  0.93824260  0.93771501  1
  Y  Y11  1  0.93824260  0.56202070  0.93771501  1
  Y  Y12  1  0.15186557  0.54492169  0.15134818  1
  Y  Y13  1  0.30797184  0.69157009  0.69248623  1
  Y  Y14  1  0.69157009  0.30797184  0.69248623  1
  Y  Y15  1  0.54492169  0.15186557  0.15134818  1
  Mg  Mg0  1  0.92359918  0.92359918  0.22920146  1
  In  In0  1  0.24941753  0.91642799  0.91772649  1
  In  In1  1  0.91642799  0.24941753  0.91772649  1
  In  In2  1  0.91642799  0.91642799  0.91772649  1
  Rh  Rh0  1  0.35777567  0.35777567  0.35981954  1
  Rh  Rh1  1  0.92462912  0.35777567  0.35981954  1
  Rh  Rh2  1  0.35834395  0.35834395  0.92497015  1
  Rh  Rh3  1  0.35777567  0.92462912  0.35981954  1
loop_
_geom_bond_atom_site_label_1
_geom_bond_atom_site_label_2
_geom_bond_distance
_geom_bond_site_symmetry_2
Mg0 Y8 3.365080 1_555
Mg0 Y5 3.365080 1_555
Mg0 Y3 3.365085 1_555
Mg0 Y12 3.450785 1_655
Mg0 Y15 3.450786 1_565
Mg0 Y6 3.450802 1_665
Mg0 Y0 3.536903 1_565
Mg0 Y2 3.536903 1_655
Mg0 Y1 3.536903 1_555
In0 Mg0 3.090665 1_456
In0 In1 3.226406 1_465
In0 In2 3.226406 1_455
In0 Y10 3.244084 1_555
In0 Y9 3.244089 1_555
In0 Y5 3.259375 1_555
In0 Y4 3.459218 1_565
In0 Y12 3.477781 1_556
In0 Y6 3.477789 1_566
In0 Y13 3.481005 1_555
In0 Y7 3.481005 1_565
In0 Y2 3.510437 1_556
In1 Mg0 3.090665 1_546
In1 In2 3.226406 1_545
In1 Y11 3.244084 1_555
In1 Y9 3.244089 1_555
In1 Y8 3.259375 1_555
In1 Y4 3.459218 1_655
In1 Y15 3.477781 1_556
In1 Y6 3.477789 1_656
In1 Y14 3.481005 1_555
In1 Y7 3.481005 1_655
In1 Y0 3.510437 1_556
In2 Mg0 3.090660 1_556
In2 Y11 3.244094 1_555
In2 Y10 3.244094 1_555
In2 Y3 3.259375 1_555
In2 Y4 3.459222 1_665
In2 Y12 3.477785 1_656
In2 Y15 3.477785 1_566
In2 Y14 3.481004 1_565
In2 Y13 3.481005 1_655
In2 Y1 3.510441 1_556
Rh0 Y2 2.823343 1_555
Rh0 Y0 2.823343 1_555
Rh0 Y7 2.826484 1_555
Rh0 Y12 2.846527 1_555
Rh0 Y15 2.846527 1_555
Rh0 Y4 2.851142 1_555
Rh0 Y5 3.489190 1_545
Rh0 Y8 3.489190 1_455
Rh0 Y9 3.508194 1_554
Rh1 Y1 2.823346 1_555
Rh1 Y0 2.823352 1_555
Rh1 Y14 2.826484 1_555
Rh1 Y6 2.846528 1_655
Rh1 Y12 2.846535 1_655
Rh1 Y4 2.851149 1_655
Rh1 Y8 3.489190 1_555
Rh1 Y3 3.489190 1_545
Rh1 Y11 3.508196 1_554
Rh2 Y13 2.827234 1_555
Rh2 Y14 2.827234 1_555
Rh2 Y7 2.827247 1_555
Rh2 Y15 2.836808 1_556
Rh2 Y12 2.836808 1_556
Rh2 Y6 2.836815 1_556
Rh2 Y9 3.490900 1_555
Rh2 Y10 3.490925 1_545
Rh2 Y11 3.490925 1_455
Rh3 Y1 2.823346 1_555
Rh3 Y2 2.823352 1_555
Rh3 Y13 2.826484 1_555
Rh3 Y6 2.846528 1_565
Rh3 Y15 2.846535 1_565
Rh3 Y4 2.851149 1_565
Rh3 Y5 3.489190 1_555
Rh3 Y3 3.489191 1_455
Rh3 Y10 3.508196 1_554
