# generated using pymatgen
data_Hf2Si4Ru3
_symmetry_space_group_name_H-M   'P 1'
_cell_length_a   9.87355966
_cell_length_b   9.87355966
_cell_length_c   13.31602978
_cell_angle_alpha   54.05435619
_cell_angle_beta   54.05435619
_cell_angle_gamma   31.48427010
_symmetry_Int_Tables_number   1
_chemical_formula_structural   Hf2Si4Ru3
_chemical_formula_sum   'Hf8 Si16 Ru12'
_cell_volume   537.28299967
_cell_formula_units_Z   4
loop_
 _symmetry_equiv_pos_site_id
 _symmetry_equiv_pos_as_xyz
  1  'x, y, z'
loop_
 _atom_site_type_symbol
 _atom_site_label
 _atom_site_symmetry_multiplicity
 _atom_site_fract_x
 _atom_site_fract_y
 _atom_site_fract_z
 _atom_site_occupancy
  Hf  Hf0  1  0.29798900  0.55506100  0.64822300  1
  Hf  Hf1  1  0.44493900  0.70201100  0.85177700  1
  Hf  Hf2  1  0.70201100  0.44493900  0.35177700  1
  Hf  Hf3  1  0.55506100  0.29798900  0.14822300  1
  Hf  Hf4  1  0.03770000  0.29409800  0.63784800  1
  Hf  Hf5  1  0.70590200  0.96230000  0.86215200  1
  Hf  Hf6  1  0.96230000  0.70590200  0.36215200  1
  Hf  Hf7  1  0.29409800  0.03770000  0.13784800  1
  Si  Si0  1  0.87269900  0.12730100  0.25000000  1
  Si  Si1  1  0.12730100  0.87269900  0.75000000  1
  Si  Si2  1  0.38141100  0.61858900  0.25000000  1
  Si  Si3  1  0.61858900  0.38141100  0.75000000  1
  Si  Si4  1  0.97099800  0.25539200  0.89426800  1
  Si  Si5  1  0.74460800  0.02900200  0.60573200  1
  Si  Si6  1  0.02900200  0.74460800  0.10573200  1
  Si  Si7  1  0.25539200  0.97099800  0.39426800  1
  Si  Si8  1  0.57235500  0.08601600  0.06440800  1
  Si  Si9  1  0.91398400  0.42764500  0.43559200  1
  Si  Si10  1  0.42764500  0.91398400  0.93559200  1
  Si  Si11  1  0.08601600  0.57235500  0.56440800  1
  Si  Si12  1  0.38834200  0.14261800  0.39549900  1
  Si  Si13  1  0.85738200  0.61165800  0.10450100  1
  Si  Si14  1  0.61165800  0.85738200  0.60450100  1
  Si  Si15  1  0.14261800  0.38834200  0.89549900  1
  Ru  Ru0  1  0.65037200  0.82565500  0.28030600  1
  Ru  Ru1  1  0.17434500  0.34962800  0.21969400  1
  Ru  Ru2  1  0.76660200  0.47870900  0.06740500  1
  Ru  Ru3  1  0.82565500  0.65037200  0.78030600  1
  Ru  Ru4  1  0.90823900  0.13416900  0.58428600  1
  Ru  Ru5  1  0.86583100  0.09176100  0.91571400  1
  Ru  Ru6  1  0.09176100  0.86583100  0.41571400  1
  Ru  Ru7  1  0.13416900  0.90823900  0.08428600  1
  Ru  Ru8  1  0.23339800  0.52129100  0.93259500  1
  Ru  Ru9  1  0.47870900  0.76660200  0.56740500  1
  Ru  Ru10  1  0.52129100  0.23339800  0.43259500  1
  Ru  Ru11  1  0.34962800  0.17434500  0.71969400  1
loop_
_geom_bond_atom_site_label_1
_geom_bond_atom_site_label_2
_geom_bond_distance
_geom_bond_site_symmetry_2
Hf0 Si11 2.750324 1_555
Hf0 Si1 2.794052 1_555
Hf0 Si3 2.801517 1_555
Hf0 Si15 2.813934 1_555
Hf0 Si5 2.863599 1_555
Hf0 Ru11 2.897703 1_555
Hf0 Ru6 2.956157 1_555
Hf0 Ru4 2.971560 1_465
Hf0 Si5 2.997405 1_465
Hf0 Ru4 3.118341 1_555
Hf0 Ru9 3.188672 1_555
Hf1 Si10 2.750324 1_555
Hf1 Si1 2.794052 1_555
Hf1 Si3 2.801517 1_555
Hf1 Si14 2.813934 1_555
Hf1 Si4 2.863599 1_555
Hf1 Ru3 2.897703 1_555
Hf1 Ru7 2.956157 1_556
Hf1 Ru5 2.971560 1_465
Hf1 Si4 2.997405 1_465
Hf1 Ru5 3.118341 1_555
Hf1 Ru8 3.188672 1_555
Hf2 Si9 2.750324 1_555
Hf2 Si0 2.794052 1_555
Hf2 Si2 2.801517 1_555
Hf2 Si13 2.813934 1_555
Hf2 Si7 2.863599 1_555
Hf2 Ru0 2.897703 1_555
Hf2 Ru4 2.956157 1_555
Hf2 Ru6 2.971560 1_645
Hf2 Si7 2.997405 1_645
Hf2 Ru6 3.118341 1_555
Hf2 Ru10 3.188672 1_555
Hf3 Si8 2.750324 1_555
Hf3 Si0 2.794052 1_555
Hf3 Si2 2.801517 1_555
Hf3 Si12 2.813934 1_555
Hf3 Si6 2.863599 1_555
Hf3 Ru1 2.897703 1_555
Hf3 Ru5 2.956157 1_554
Hf3 Ru7 2.971560 1_645
Hf3 Si6 2.997405 1_645
Hf3 Ru7 3.118341 1_555
Hf3 Ru2 3.188672 1_555
Hf4 Si11 2.695440 1_555
Hf4 Si9 2.725860 1_455
Hf4 Si14 2.866230 1_455
Hf4 Si3 2.875601 1_455
Hf4 Ru11 2.878920 1_555
Hf4 Si1 2.881404 1_545
Hf4 Si12 2.890580 1_555
Hf4 Si4 2.914746 1_455
Hf4 Si14 2.919187 1_545
Hf4 Ru9 3.037564 1_545
Hf5 Si10 2.695440 1_555
Hf5 Si8 2.725860 1_566
Hf5 Si15 2.866230 1_565
Hf5 Si3 2.875601 1_565
Hf5 Ru3 2.878920 1_555
Hf5 Si1 2.881404 1_655
Hf5 Si13 2.890580 1_556
Hf5 Si5 2.914746 1_565
Hf5 Si15 2.919187 1_655
Hf5 Ru8 3.037564 1_655
Hf6 Si9 2.695440 1_555
Hf6 Si11 2.725860 1_655
Hf6 Si12 2.866230 1_655
Hf6 Si2 2.875601 1_655
Hf6 Ru0 2.878920 1_555
Hf6 Si0 2.881404 1_565
Hf6 Si14 2.890580 1_555
Hf6 Si6 2.914746 1_655
Hf6 Si12 2.919187 1_565
Hf6 Ru10 3.037564 1_565
Hf7 Si8 2.695440 1_555
Hf7 Si10 2.725860 1_544
Hf7 Si13 2.866230 1_545
Hf7 Si2 2.875601 1_545
Hf7 Ru1 2.878920 1_555
Hf7 Si0 2.881404 1_455
Hf7 Si15 2.890580 1_554
Hf7 Si7 2.914746 1_545
Hf7 Si13 2.919187 1_455
Hf7 Ru2 3.037564 1_455
Si6 Si8 2.609110 1_465
Si7 Si9 2.609110 1_465
Si10 Si15 2.547294 1_565
Si10 Si4 2.609110 1_465
Si11 Si14 2.547294 1_455
Si11 Si5 2.609110 1_465
Si12 Si9 2.547294 1_455
Si13 Si8 2.547294 1_565
Ru0 Si7 2.373727 1_555
Ru0 Si9 2.413868 1_555
Ru0 Si12 2.451074 1_565
Ru0 Si8 2.452096 1_565
Ru0 Si6 2.626562 1_655
Ru0 Si13 2.635585 1_555
Ru1 Si6 2.373727 1_555
Ru1 Si8 2.413868 1_555
Ru1 Si13 2.451074 1_455
Ru1 Si9 2.452096 1_455
Ru1 Si7 2.626562 1_545
Ru1 Si12 2.635585 1_555
Ru2 Si0 2.436083 1_555
Ru2 Si13 2.461373 1_555
Ru2 Si10 2.502076 1_554
Ru2 Si2 2.531975 1_555
Ru2 Si15 2.567121 1_654
Ru2 Si4 2.676949 1_554
Ru3 Si4 2.373727 1_555
Ru3 Si10 2.413868 1_555
Ru3 Si15 2.451074 1_655
Ru3 Si11 2.452096 1_655
Ru3 Si5 2.626562 1_565
Ru3 Si14 2.635585 1_555
Ru4 Si1 2.367267 1_645
Ru4 Si9 2.394293 1_555
Ru4 Si5 2.396136 1_555
Ru4 Si7 2.435528 1_645
Ru4 Si3 2.452637 1_555
Ru5 Si1 2.367267 1_645
Ru5 Si8 2.394293 1_556
Ru5 Si4 2.396136 1_555
Ru5 Si6 2.435528 1_646
Ru5 Si3 2.452637 1_555
Ru6 Si0 2.367267 1_465
Ru6 Si11 2.394293 1_555
Ru6 Si7 2.396136 1_555
Ru6 Si5 2.435528 1_465
Ru6 Si2 2.452637 1_555
Ru7 Si0 2.367267 1_465
Ru7 Si10 2.394293 1_554
Ru7 Si6 2.396136 1_555
Ru7 Si4 2.435528 1_464
Ru7 Si2 2.452637 1_555
Ru8 Si1 2.436083 1_555
Ru8 Si15 2.461373 1_555
Ru8 Si8 2.502076 1_556
Ru8 Si3 2.531975 1_555
Ru8 Si13 2.567121 1_456
Ru8 Si6 2.676949 1_556
Ru9 Si1 2.436083 1_555
Ru9 Si14 2.461373 1_555
Ru9 Si9 2.502076 1_555
Ru9 Si3 2.531975 1_555
Ru9 Si12 2.567121 1_565
Ru9 Si7 2.676949 1_555
Ru10 Si0 2.436083 1_555
Ru10 Si12 2.461373 1_555
Ru10 Si11 2.502076 1_555
Ru10 Si2 2.531975 1_555
Ru10 Si14 2.567121 1_545
Ru10 Si5 2.676949 1_555
Ru11 Si5 2.373727 1_555
Ru11 Si11 2.413868 1_555
Ru11 Si14 2.451074 1_545
Ru11 Si10 2.452096 1_545
Ru11 Si4 2.626562 1_455
Ru11 Si15 2.635585 1_555
