# generated using pymatgen
data_Ta2Zn(CoSb)3
_symmetry_space_group_name_H-M   'P 1'
_cell_length_a   7.23646415
_cell_length_b   7.23646381
_cell_length_c   7.20495600
_cell_angle_alpha   99.58488478
_cell_angle_beta   99.58488178
_cell_angle_gamma   119.96152740
_symmetry_Int_Tables_number   1
_chemical_formula_structural   Ta2Zn(CoSb)3
_chemical_formula_sum   'Ta4 Zn2 Co6 Sb6'
_cell_volume   308.24047934
_cell_formula_units_Z   2
loop_
 _symmetry_equiv_pos_site_id
 _symmetry_equiv_pos_as_xyz
  1  'x, y, z'
loop_
 _atom_site_type_symbol
 _atom_site_label
 _atom_site_symmetry_multiplicity
 _atom_site_fract_x
 _atom_site_fract_y
 _atom_site_fract_z
 _atom_site_occupancy
  Ta  Ta0  1  0.00166694  0.49915365  0.49864097  1
  Ta  Ta1  1  0.33017872  0.16434548  0.49845863  1
  Ta  Ta2  1  0.49915365  0.00166694  0.99863997  1
  Ta  Ta3  1  0.16434548  0.33017872  0.99845863  1
  Zn  Zn0  1  0.83872515  0.66785686  0.00430923  1
  Zn  Zn1  1  0.66785786  0.83872615  0.50430823  1
  Co  Co0  1  0.27630081  0.44263948  0.36837755  1
  Co  Co1  1  0.62182600  0.13722879  0.36900517  1
  Co  Co2  1  0.97581104  0.79370573  0.38541913  1
  Co  Co3  1  0.44263948  0.27630081  0.86837755  1
  Co  Co4  1  0.13722779  0.62182600  0.86900517  1
  Co  Co5  1  0.79370573  0.97581104  0.88542113  1
  Sb  Sb0  1  0.25383443  0.74963853  0.24861974  1
  Sb  Sb1  1  0.58928365  0.43158167  0.24858944  1
  Sb  Sb2  1  0.90759602  0.06862507  0.25358114  1
  Sb  Sb3  1  0.74963953  0.25383543  0.74861974  1
  Sb  Sb4  1  0.43158267  0.58928465  0.74858944  1
  Sb  Sb5  1  0.06862507  0.90759602  0.75358114  1
loop_
_geom_bond_atom_site_label_1
_geom_bond_atom_site_label_2
_geom_bond_distance
_geom_bond_site_symmetry_2
Co0 Ta0 2.510565 1_555
Co0 Ta3 2.514410 1_554
Co0 Ta1 2.525309 1_555
Co0 Sb2 2.536722 1_455
Co0 Sb0 2.580464 1_555
Co0 Sb1 2.586504 1_555
Co0 Sb4 2.590156 1_555
Co0 Zn1 2.689287 1_555
Co1 Ta2 2.518063 1_554
Co1 Ta1 2.524060 1_555
Co1 Sb1 2.528597 1_555
Co1 Ta0 2.535148 1_655
Co1 Sb3 2.580256 1_555
Co1 Sb0 2.582789 1_545
Co1 Sb2 2.583642 1_555
Co1 Zn1 2.653145 1_545
Co2 Ta1 2.477935 1_665
Co2 Ta0 2.484030 1_655
Co2 Sb5 2.508457 1_655
Co2 Sb0 2.513457 1_655
Co2 Sb2 2.560846 1_565
Co2 Sb1 2.561789 1_555
Co2 Zn0 2.590571 1_555
Co2 Zn1 2.659699 1_555
Co3 Ta2 2.510562 1_555
Co3 Ta1 2.514410 1_555
Co3 Ta3 2.525309 1_555
Co3 Sb5 2.536722 1_545
Co3 Sb3 2.580468 1_555
Co3 Sb4 2.586508 1_555
Co3 Sb1 2.590155 1_556
Co3 Zn0 2.689280 1_556
Co4 Ta0 2.518056 1_555
Co4 Ta3 2.524063 1_555
Co4 Sb4 2.528607 1_555
Co4 Ta2 2.535151 1_565
Co4 Sb0 2.580256 1_556
Co4 Sb3 2.582779 1_455
Co4 Sb5 2.583638 1_555
Co4 Zn0 2.653145 1_456
Co5 Ta3 2.477935 1_665
Co5 Ta2 2.484020 1_565
Co5 Sb2 2.508443 1_566
Co5 Sb3 2.513468 1_565
Co5 Sb5 2.560853 1_655
Co5 Sb4 2.561783 1_555
Co5 Zn1 2.590591 1_555
Co5 Zn0 2.659699 1_556
Sb0 Zn0 2.930663 1_455
Sb0 Zn1 2.936492 1_555
Sb0 Ta2 2.940480 1_564
Sb0 Ta3 2.950875 1_554
Sb0 Ta0 2.956139 1_555
Sb0 Ta1 2.960641 1_565
Sb1 Zn0 2.873467 1_555
Sb1 Zn1 2.927214 1_555
Sb1 Ta3 2.950000 1_554
Sb1 Ta0 2.974730 1_655
Sb1 Ta2 3.010579 1_554
Sb1 Ta1 3.026257 1_555
Sb2 Zn1 2.864000 1_545
Sb2 Zn0 2.899736 1_545
Sb2 Ta1 2.936765 1_655
Sb2 Ta2 2.968154 1_554
Sb2 Ta0 2.989438 1_655
Sb2 Ta3 3.032590 1_654
Sb3 Zn1 2.930666 1_545
Sb3 Zn0 2.936489 1_556
Sb3 Ta0 2.940469 1_655
Sb3 Ta1 2.950878 1_555
Sb3 Ta2 2.956139 1_555
Sb3 Ta3 2.960638 1_655
Sb4 Zn1 2.873473 1_555
Sb4 Zn0 2.927212 1_556
Sb4 Ta1 2.950003 1_555
Sb4 Ta2 2.974724 1_565
Sb4 Ta0 3.010579 1_555
Sb4 Ta3 3.026263 1_555
Sb5 Zn0 2.864012 1_456
Sb5 Zn1 2.899737 1_455
Sb5 Ta3 2.936765 1_565
Sb5 Ta0 2.968151 1_555
Sb5 Ta2 2.989436 1_565
Sb5 Ta1 3.032590 1_565
