# generated using pymatgen
data_Cs2CdGaBi2
_symmetry_space_group_name_H-M   'P 1'
_cell_length_a   10.15555624
_cell_length_b   10.15555587
_cell_length_c   10.15555580
_cell_angle_alpha   137.24799165
_cell_angle_beta   61.91790196
_cell_angle_gamma   137.42881548
_symmetry_Int_Tables_number   1
_chemical_formula_structural   Cs2CdGaBi2
_chemical_formula_sum   'Cs4 Cd2 Ga2 Bi4'
_cell_volume   475.37048719
_cell_formula_units_Z   2
loop_
 _symmetry_equiv_pos_site_id
 _symmetry_equiv_pos_as_xyz
  1  'x, y, z'
loop_
 _atom_site_type_symbol
 _atom_site_label
 _atom_site_symmetry_multiplicity
 _atom_site_fract_x
 _atom_site_fract_y
 _atom_site_fract_z
 _atom_site_occupancy
  Cs  Cs0  1  0.33561826  0.74705170  0.08266896  1
  Cs  Cs1  1  0.16438174  0.24705170  0.41143444  1
  Cs  Cs2  1  0.83561826  0.75294930  0.58856556  1
  Cs  Cs3  1  0.66438174  0.25294930  0.91733104  1
  Cd  Cd0  1  0.24999900  0.24999900  0.00000000  1
  Cd  Cd1  1  0.75000000  0.75000000  0.00000000  1
  Ga  Ga0  1  0.74999900  0.24999900  0.50000000  1
  Ga  Ga1  1  0.24999900  0.75000000  0.50000000  1
  Bi  Bi0  1  0.91150503  0.25895446  0.17045949  1
  Bi  Bi1  1  0.58849497  0.75895546  0.34745143  1
  Bi  Bi2  1  0.41150503  0.24104554  0.65254957  1
  Bi  Bi3  1  0.08849497  0.74104454  0.82953951  1
loop_
_geom_bond_atom_site_label_1
_geom_bond_atom_site_label_2
_geom_bond_distance
_geom_bond_site_symmetry_2
Cs0 Ga0 3.886127 1_565
Cs0 Ga1 3.886130 1_555
Cs0 Cs3 4.742206 1_564
Cs0 Cs3 4.742213 1_454
Cs0 Cs1 4.753612 1_554
Cs0 Cs1 4.753623 1_565
Cs1 Ga0 3.886130 1_455
Cs1 Ga1 3.886136 1_555
Cs1 Cs2 4.742189 1_445
Cs1 Cs2 4.742207 1_555
Cs2 Ga1 3.886123 1_655
Cs2 Ga0 3.886143 1_555
Cs2 Cs3 4.753612 1_554
Cs2 Cs3 4.753623 1_565
Cs3 Ga0 3.886123 1_555
Cs3 Ga1 3.886134 1_545
Cd0 Cs3 3.865277 1_554
Cd0 Cs1 3.865284 1_555
Cd0 Cs2 3.865284 1_444
Cd0 Cs0 3.865287 1_555
Cd1 Cs3 3.865274 1_554
Cd1 Cs0 3.865280 1_555
Cd1 Cs1 3.865284 1_665
Cd1 Cs2 3.865294 1_554
Bi0 Ga1 2.992994 1_655
Bi0 Ga0 2.993002 1_555
Bi0 Cd0 3.073885 1_655
Bi0 Cd1 3.073890 1_545
Bi0 Cs2 3.888635 1_555
Bi0 Cs0 3.917412 1_545
Bi0 Cs0 3.917418 1_655
Bi0 Cs2 3.972384 1_544
Bi0 Cs3 4.304502 1_554
Bi1 Ga0 2.992993 1_565
Bi1 Ga1 2.993002 1_555
Bi1 Cd1 3.073903 1_555
Bi1 Cd0 3.073904 1_555
Bi1 Cs3 3.888623 1_565
Bi1 Cs1 3.917412 1_555
Bi1 Cs1 3.917412 1_665
Bi1 Cs3 3.972379 1_554
Bi1 Cs2 4.304476 1_555
Bi2 Ga0 2.992993 1_555
Bi2 Ga1 2.992998 1_545
Bi2 Cd1 3.073894 1_556
Bi2 Cd0 3.073903 1_556
Bi2 Cs0 3.888630 1_545
Bi2 Cs2 3.917412 1_445
Bi2 Cs2 3.917418 1_555
Bi2 Cs0 3.972379 1_556
Bi2 Cs1 4.304485 1_555
Bi3 Ga1 2.992993 1_555
Bi3 Ga0 2.992998 1_455
Bi3 Cd0 3.073890 1_566
Bi3 Cd1 3.073894 1_456
Bi3 Cs1 3.888622 1_555
Bi3 Cs3 3.917412 1_455
Bi3 Cs3 3.917412 1_565
Bi3 Cs1 3.972392 1_566
Bi3 Cs0 4.304494 1_556
