# generated using pymatgen
data_Li12SbOsN8
_symmetry_space_group_name_H-M   'P 1'
_cell_length_a   6.72012302
_cell_length_b   6.72012302
_cell_length_c   4.85064552
_cell_angle_alpha   90.00000000
_cell_angle_beta   90.00000000
_cell_angle_gamma   90.00000000
_symmetry_Int_Tables_number   1
_chemical_formula_structural   Li12SbOsN8
_chemical_formula_sum   'Li12 Sb1 Os1 N8'
_cell_volume   219.05541056
_cell_formula_units_Z   1
loop_
 _symmetry_equiv_pos_site_id
 _symmetry_equiv_pos_as_xyz
  1  'x, y, z'
loop_
 _atom_site_type_symbol
 _atom_site_label
 _atom_site_symmetry_multiplicity
 _atom_site_fract_x
 _atom_site_fract_y
 _atom_site_fract_z
 _atom_site_occupancy
  Li  Li0  1  0.00000000  0.50000000  0.56878778  1
  Li  Li1  1  0.50000000  0.00000000  0.91274364  1
  Li  Li2  1  0.50000000  0.00000000  0.43121222  1
  Li  Li3  1  0.00000000  0.50000000  0.08725636  1
  Li  Li4  1  0.21571129  0.21571129  0.50000000  1
  Li  Li5  1  0.78428871  0.78428871  0.50000000  1
  Li  Li6  1  0.71274688  0.71274688  0.00000000  1
  Li  Li7  1  0.28725312  0.28725312  0.00000000  1
  Li  Li8  1  0.78428871  0.21571129  0.50000000  1
  Li  Li9  1  0.21571129  0.78428871  0.50000000  1
  Li  Li10  1  0.28725312  0.71274688  0.00000000  1
  Li  Li11  1  0.71274688  0.28725312  0.00000000  1
  Sb  Sb0  1  0.50000000  0.50000000  0.50000000  1
  Os  Os0  1  0.00000000  0.00000000  0.00000000  1
  N  N0  1  0.24074049  0.50000000  0.29762014  1
  N  N1  1  0.75925951  0.50000000  0.29762014  1
  N  N2  1  0.76237864  0.00000000  0.19165943  1
  N  N3  1  0.23762136  0.00000000  0.19165943  1
  N  N4  1  0.50000000  0.24074049  0.70237986  1
  N  N5  1  0.50000000  0.75925951  0.70237986  1
  N  N6  1  0.00000000  0.76237864  0.80834057  1
  N  N7  1  0.00000000  0.23762136  0.80834057  1
loop_
_geom_bond_atom_site_label_1
_geom_bond_atom_site_label_2
_geom_bond_distance
_geom_bond_site_symmetry_2
Li0 N0 2.085044 1_555
Li0 N1 2.085044 1_455
Li0 N6 2.111669 1_555
Li0 N7 2.111669 1_555
Li1 N4 1.912724 1_555
Li1 N5 1.912724 1_545
Li1 N2 2.222460 1_556
Li1 N3 2.222460 1_556
Li2 N4 2.085044 1_555
Li2 N5 2.085044 1_545
Li2 N2 2.111669 1_555
Li2 N3 2.111669 1_555
Li3 N0 1.912724 1_555
Li3 N1 1.912724 1_455
Li3 N6 2.222460 1_554
Li3 N7 2.222460 1_554
Li4 N7 2.088063 1_555
Li4 N3 2.088063 1_555
Li4 N4 2.154486 1_555
Li4 N0 2.154486 1_555
Li5 N6 2.088063 1_655
Li5 N2 2.088063 1_565
Li5 N5 2.154486 1_555
Li5 N1 2.154486 1_555
Li6 N1 2.055681 1_555
Li6 N5 2.055681 1_554
Li6 N2 2.168383 1_565
Li6 N6 2.168383 1_654
Li7 N0 2.055681 1_555
Li7 N4 2.055681 1_554
Li7 N3 2.168383 1_555
Li7 N7 2.168383 1_554
Li8 N2 2.088063 1_555
Li8 N7 2.088063 1_655
Li8 N4 2.154486 1_555
Li8 N1 2.154486 1_555
Li9 N6 2.088063 1_555
Li9 N3 2.088063 1_565
Li9 N0 2.154486 1_555
Li9 N5 2.154486 1_555
Li10 N0 2.055681 1_555
Li10 N5 2.055681 1_554
Li10 N6 2.168383 1_554
Li10 N3 2.168383 1_565
Li11 N4 2.055681 1_554
Li11 N1 2.055681 1_555
Li11 N2 2.168383 1_555
Li11 N7 2.168383 1_654
N0 Sb0 1.999784 1_555
N1 Sb0 1.999784 1_555
N2 Os0 1.847756 1_655
N3 Os0 1.847756 1_555
N4 Sb0 1.999784 1_555
N5 Sb0 1.999784 1_555
N6 Os0 1.847756 1_566
N7 Os0 1.847756 1_556
