# generated using pymatgen
data_Cs2LiPS4
_symmetry_space_group_name_H-M   'P 1'
_cell_length_a   14.00296090
_cell_length_b   12.56962436
_cell_length_c   7.46761555
_cell_angle_alpha   84.59667437
_cell_angle_beta   63.33577792
_cell_angle_gamma   32.06754365
_symmetry_Int_Tables_number   1
_chemical_formula_structural   Cs2LiPS4
_chemical_formula_sum   'Cs4 Li2 P2 S8'
_cell_volume   497.46091292
_cell_formula_units_Z   2
loop_
 _symmetry_equiv_pos_site_id
 _symmetry_equiv_pos_as_xyz
  1  'x, y, z'
loop_
 _atom_site_type_symbol
 _atom_site_label
 _atom_site_symmetry_multiplicity
 _atom_site_fract_x
 _atom_site_fract_y
 _atom_site_fract_z
 _atom_site_occupancy
  Cs  Cs0  1  0.82164216  0.82164216  0.17835784  1
  Cs  Cs1  1  0.42835784  0.42835784  0.07164216  1
  Cs  Cs2  1  0.17835784  0.17835784  0.82164216  1
  Cs  Cs3  1  0.07164216  0.07164216  0.42835784  1
  Li  Li0  1  0.50000000  0.50000000  0.50000000  1
  Li  Li1  1  0.75000000  0.75000000  0.75000000  1
  P  P0  1  0.00000000  0.00000000  0.00000000  1
  P  P1  1  0.25000000  0.25000000  0.25000000  1
  S  S0  1  0.49055247  0.91325097  0.17896974  1
  S  S1  1  0.91325097  0.49055247  0.41722682  1
  S  S2  1  0.83277318  0.07103026  0.33674903  1
  S  S3  1  0.07103026  0.83277318  0.75944753  1
  S  S4  1  0.17896974  0.41722682  0.49055247  1
  S  S5  1  0.41722682  0.17896974  0.91325097  1
  S  S6  1  0.33674903  0.75944753  0.83277318  1
  S  S7  1  0.75944753  0.33674903  0.07103026  1
loop_
_geom_bond_atom_site_label_1
_geom_bond_atom_site_label_2
_geom_bond_distance
_geom_bond_site_symmetry_2
Cs0 S4 3.569261 1_565
Cs0 S5 3.569261 1_654
Cs0 S3 3.597446 1_654
Cs0 S2 3.597446 1_565
Cs0 S0 3.708713 1_555
Cs0 S1 3.708713 1_555
Cs0 S5 4.000019 1_565
Cs0 S4 4.000019 1_654
Cs1 S3 3.569261 1_644
Cs1 S2 3.569261 1_465
Cs1 S4 3.597446 1_555
Cs1 S5 3.597446 1_554
Cs1 S7 3.708713 1_555
Cs1 S6 3.708713 1_554
Cs1 S2 4.000019 1_554
Cs1 S3 4.000019 1_555
Cs2 S0 3.569262 1_545
Cs2 S1 3.569262 1_456
Cs2 S7 3.597446 1_456
Cs2 S6 3.597446 1_545
Cs2 S4 3.708713 1_555
Cs2 S5 3.708713 1_555
Cs2 S1 4.000019 1_545
Cs2 S0 4.000019 1_456
Cs3 S7 3.569262 1_456
Cs3 S6 3.569262 1_544
Cs3 S0 3.597446 1_545
Cs3 S1 3.597446 1_455
Cs3 S3 3.708713 1_545
Cs3 S2 3.708713 1_455
Cs3 S6 4.000019 1_455
Cs3 S7 4.000019 1_545
Li0 S3 2.414301 1_555
Li0 S2 2.414301 1_555
Li0 S7 2.414301 1_555
Li0 S6 2.414301 1_555
Li1 S4 2.414301 1_655
Li1 S5 2.414301 1_565
Li1 S0 2.414301 1_556
Li1 S1 2.414301 1_555
P0 S6 2.049046 1_544
P0 S7 2.049046 1_455
P0 S2 2.049046 1_455
P0 S3 2.049046 1_544
P1 S1 2.049046 1_455
P1 S0 2.049046 1_545
P1 S5 2.049046 1_554
P1 S4 2.049046 1_555
