# generated using pymatgen
data_LuAg6NO11
_symmetry_space_group_name_H-M   'P 1'
_cell_length_a   6.89484434
_cell_length_b   6.89484443
_cell_length_c   6.89484403
_cell_angle_alpha   62.50681324
_cell_angle_beta   62.50681209
_cell_angle_gamma   62.50680301
_symmetry_Int_Tables_number   1
_chemical_formula_structural   LuAg6NO11
_chemical_formula_sum   'Lu1 Ag6 N1 O11'
_cell_volume   244.71780715
_cell_formula_units_Z   1
loop_
 _symmetry_equiv_pos_site_id
 _symmetry_equiv_pos_as_xyz
  1  'x, y, z'
loop_
 _atom_site_type_symbol
 _atom_site_label
 _atom_site_symmetry_multiplicity
 _atom_site_fract_x
 _atom_site_fract_y
 _atom_site_fract_z
 _atom_site_occupancy
  Lu  Lu0  1  0.99887792  0.99887792  0.99887792  1
  Ag  Ag0  1  0.49777702  0.00104949  0.00104949  1
  Ag  Ag1  1  0.50013587  0.50013587  0.99989228  1
  Ag  Ag2  1  0.50013587  0.99989228  0.50013587  1
  Ag  Ag3  1  0.00104949  0.00104949  0.49777702  1
  Ag  Ag4  1  0.99989228  0.50013587  0.50013587  1
  Ag  Ag5  1  0.00104949  0.49777702  0.00104949  1
  N  N0  1  0.50056314  0.50056314  0.50056314  1
  O  O0  1  0.59136592  0.14241601  0.14241601  1
  O  O1  1  0.14241601  0.59136592  0.14241601  1
  O  O2  1  0.13756178  0.13756178  0.13756178  1
  O  O3  1  0.14241601  0.14241601  0.59136592  1
  O  O4  1  0.60193248  0.60193248  0.29787873  1
  O  O5  1  0.60193248  0.29787873  0.60193248  1
  O  O6  1  0.29787873  0.60193248  0.60193248  1
  O  O7  1  0.85854661  0.85854661  0.40621886  1
  O  O8  1  0.85854661  0.40621886  0.85854661  1
  O  O9  1  0.86170141  0.86170141  0.86170141  1
  O  O10  1  0.40621886  0.85854661  0.85854661  1
loop_
_geom_bond_atom_site_label_1
_geom_bond_atom_site_label_2
_geom_bond_distance
_geom_bond_site_symmetry_2
Lu0 O9 2.271887 1_555
Lu0 O2 2.296852 1_666
Lu0 O10 2.367849 1_655
Lu0 O8 2.367850 1_565
Lu0 O7 2.367850 1_556
Lu0 O0 2.371291 1_566
Lu0 O1 2.371291 1_656
Lu0 O3 2.371291 1_665
Ag0 O0 2.086873 1_555
Ag0 O10 2.089480 1_544
Ag0 O2 2.107491 1_555
Ag0 O9 2.131403 1_544
Ag0 O4 2.570884 1_545
Ag0 O5 2.570884 1_554
Ag1 O1 2.084487 1_556
Ag1 O0 2.084487 1_556
Ag1 O8 2.087459 1_555
Ag1 O10 2.087459 1_555
Ag2 O3 2.084487 1_565
Ag2 O0 2.084487 1_565
Ag2 O7 2.087459 1_555
Ag2 O10 2.087459 1_555
Ag3 O3 2.086873 1_555
Ag3 O7 2.089480 1_445
Ag3 O2 2.107492 1_555
Ag3 O9 2.131403 1_445
Ag3 O5 2.570884 1_455
Ag3 O6 2.570884 1_545
Ag4 O3 2.084487 1_655
Ag4 O1 2.084487 1_655
Ag4 O7 2.087459 1_555
Ag4 O8 2.087459 1_555
Ag5 O1 2.086873 1_555
Ag5 O8 2.089480 1_454
Ag5 O2 2.107491 1_555
Ag5 O9 2.131403 1_454
Ag5 O4 2.570884 1_455
Ag5 O6 2.570884 1_554
N0 O6 1.255927 1_555
N0 O5 1.255927 1_555
N0 O4 1.255927 1_555
