# generated using pymatgen
data_Sr20Si4BiSb7
_symmetry_space_group_name_H-M   'P 1'
_cell_length_a   8.54538762
_cell_length_b   9.91485842
_cell_length_c   13.72574756
_cell_angle_alpha   89.98705765
_cell_angle_beta   90.00017763
_cell_angle_gamma   89.95378708
_symmetry_Int_Tables_number   1
_chemical_formula_structural   Sr20Si4BiSb7
_chemical_formula_sum   'Sr20 Si4 Bi1 Sb7'
_cell_volume   1162.93151282
_cell_formula_units_Z   1
loop_
 _symmetry_equiv_pos_site_id
 _symmetry_equiv_pos_as_xyz
  1  'x, y, z'
loop_
 _atom_site_type_symbol
 _atom_site_label
 _atom_site_symmetry_multiplicity
 _atom_site_fract_x
 _atom_site_fract_y
 _atom_site_fract_z
 _atom_site_occupancy
  Sr  Sr0  1  0.33639653  0.97601570  0.08545785  1
  Sr  Sr1  1  0.83083197  0.02439278  0.41774861  1
  Sr  Sr2  1  0.66545666  0.47561465  0.91334875  1
  Sr  Sr3  1  0.16598814  0.52415015  0.58626950  1
  Sr  Sr4  1  0.66817305  0.02432592  0.91520266  1
  Sr  Sr5  1  0.16759981  0.97550798  0.58465389  1
  Sr  Sr6  1  0.33338650  0.52471394  0.08463064  1
  Sr  Sr7  1  0.83373992  0.47557338  0.41541937  1
  Sr  Sr8  1  0.67893284  0.74771625  0.21382401  1
  Sr  Sr9  1  0.18047995  0.25139909  0.28695171  1
  Sr  Sr10  1  0.32029033  0.24909372  0.78576907  1
  Sr  Sr11  1  0.81988765  0.75069082  0.71371562  1
  Sr  Sr12  1  0.15899201  0.74853659  0.30838104  1
  Sr  Sr13  1  0.65698579  0.25291537  0.19233994  1
  Sr  Sr14  1  0.84172635  0.24952981  0.69260363  1
  Sr  Sr15  1  0.34165921  0.75086669  0.80751053  1
  Sr  Sr16  1  0.55197033  0.74915693  0.49977590  1
  Sr  Sr17  1  0.05357327  0.25192892  0.99919849  1
  Sr  Sr18  1  0.44716802  0.25030700  0.50051166  1
  Sr  Sr19  1  0.94776568  0.74751598  0.99867100  1
  Si  Si0  1  0.55306239  0.74958359  0.99320952  1
  Si  Si1  1  0.05314297  0.25010920  0.50681260  1
  Si  Si2  1  0.44758423  0.25052151  0.00539089  1
  Si  Si3  1  0.94753399  0.74967646  0.49430393  1
  Bi  Bi0  1  0.95324064  0.00458375  0.16925331  1
  Sb  Sb0  1  0.45555448  0.99586029  0.33021223  1
  Sb  Sb1  1  0.04351423  0.50388575  0.82946192  1
  Sb  Sb2  1  0.54340448  0.49623812  0.66993515  1
  Sb  Sb3  1  0.04409035  0.99600082  0.82960503  1
  Sb  Sb4  1  0.54445056  0.00368692  0.66958644  1
  Sb  Sb5  1  0.95680962  0.49637648  0.17045240  1
  Sb  Sb6  1  0.45661205  0.50352744  0.32979074  1
loop_
_geom_bond_atom_site_label_1
_geom_bond_atom_site_label_2
_geom_bond_distance
_geom_bond_site_symmetry_2
Si0 Sr2 3.082172 1_555
Si0 Sr4 3.088261 1_565
Si0 Sr15 3.124144 1_555
Si0 Sr0 3.172703 1_556
Si0 Sr6 3.174101 1_556
Si0 Sr8 3.213501 1_556
Si0 Sr19 3.373771 1_555
Si1 Sr5 3.083065 1_545
Si1 Sr3 3.083403 1_555
Si1 Sr14 3.125240 1_455
Si1 Sr7 3.174584 1_455
Si1 Sr1 3.181180 1_455
Si1 Sr9 3.207973 1_555
Si1 Sr18 3.368210 1_555
Si2 Sr0 3.085600 1_545
Si2 Sr6 3.085931 1_555
Si2 Sr13 3.128431 1_555
Si2 Sr2 3.169951 1_554
Si2 Sr4 3.179596 1_554
Si2 Sr10 3.204767 1_554
Si2 Sr17 3.368066 1_554
Si3 Sr7 3.083728 1_555
Si3 Sr1 3.084142 1_565
Si3 Sr12 3.126932 1_655
Si3 Sr3 3.173356 1_655
Si3 Sr5 3.177405 1_655
Si3 Sr11 3.203062 1_555
Si3 Sr16 3.381087 1_555
Bi0 Sr19 3.461708 1_544
Bi0 Sr0 3.481702 1_645
Bi0 Sr17 3.492608 1_654
Bi0 Sr8 3.516256 1_545
Bi0 Sr9 3.518314 1_655
Bi0 Sr13 3.544301 1_555
Bi0 Sr1 3.572981 1_555
Bi0 Sr12 3.629531 1_645
Sb0 Sr1 3.436478 1_565
Sb0 Sr18 3.440333 1_565
Sb0 Sr16 3.474592 1_555
Sb0 Sr8 3.499020 1_555
Sb0 Sr9 3.505278 1_565
Sb0 Sr0 3.515958 1_555
Sb0 Sr12 3.540580 1_555
Sb0 Sr13 3.611744 1_565
Sb1 Sr17 3.416546 1_555
Sb1 Sr2 3.441328 1_455
Sb1 Sr19 3.449327 1_455
Sb1 Sr11 3.486328 1_455
Sb1 Sr3 3.503998 1_555
Sb1 Sr10 3.510914 1_555
Sb1 Sr15 3.547978 1_555
Sb1 Sr14 3.587649 1_455
Sb2 Sr16 3.427272 1_555
Sb2 Sr3 3.434451 1_555
Sb2 Sr18 3.469226 1_555
Sb2 Sr10 3.489008 1_555
Sb2 Sr2 3.505917 1_555
Sb2 Sr11 3.509754 1_555
Sb2 Sr14 3.545209 1_555
Sb2 Sr15 3.592591 1_555
Sb3 Sr4 3.431794 1_465
Sb3 Sr17 3.444861 1_565
Sb3 Sr11 3.482213 1_455
Sb3 Sr19 3.483247 1_455
Sb3 Sr10 3.498372 1_565
Sb3 Sr15 3.529244 1_555
Sb3 Sr5 3.529757 1_555
Sb3 Sr14 3.582740 1_465
Sb4 Sr16 3.436240 1_545
Sb4 Sr5 3.436452 1_545
Sb4 Sr18 3.471282 1_555
Sb4 Sr10 3.482372 1_555
Sb4 Sr11 3.491249 1_545
Sb4 Sr14 3.536219 1_555
Sb4 Sr4 3.539172 1_555
Sb4 Sr15 3.588207 1_545
Sb5 Sr19 3.429654 1_554
Sb5 Sr6 3.438513 1_655
Sb5 Sr17 3.475988 1_654
Sb5 Sr9 3.478586 1_655
Sb5 Sr8 3.492011 1_555
Sb5 Sr7 3.529031 1_555
Sb5 Sr13 3.534282 1_555
Sb5 Sr12 3.581744 1_655
Sb6 Sr18 3.434886 1_555
Sb6 Sr7 3.441278 1_555
Sb6 Sr8 3.465591 1_555
Sb6 Sr16 3.470527 1_555
Sb6 Sr9 3.488979 1_555
Sb6 Sr12 3.527817 1_555
Sb6 Sr6 3.532070 1_555
Sb6 Sr13 3.558175 1_555
