# generated using pymatgen
data_Cs3Sb4AsSe9
_symmetry_space_group_name_H-M   'P 1'
_cell_length_a   13.98679506
_cell_length_b   13.98679461
_cell_length_c   9.70833814
_cell_angle_alpha   84.59998463
_cell_angle_beta   84.59998125
_cell_angle_gamma   139.70036015
_symmetry_Int_Tables_number   1
_chemical_formula_structural   Cs3Sb4AsSe9
_chemical_formula_sum   'Cs6 Sb8 As2 Se18'
_cell_volume   1181.67446705
_cell_formula_units_Z   2
loop_
 _symmetry_equiv_pos_site_id
 _symmetry_equiv_pos_as_xyz
  1  'x, y, z'
loop_
 _atom_site_type_symbol
 _atom_site_label
 _atom_site_symmetry_multiplicity
 _atom_site_fract_x
 _atom_site_fract_y
 _atom_site_fract_z
 _atom_site_occupancy
  Cs  Cs0  1  0.41075976  0.57530093  0.50680969  1
  Cs  Cs1  1  0.57530093  0.41075976  0.50680969  1
  Cs  Cs2  1  0.01220729  0.44456429  0.24563559  1
  Cs  Cs3  1  0.44456429  0.01220729  0.24563559  1
  Cs  Cs4  1  0.97446046  0.54499353  0.76620738  1
  Cs  Cs5  1  0.54499353  0.97446046  0.76620738  1
  Sb  Sb0  1  0.96185468  0.71915423  0.16110112  1
  Sb  Sb1  1  0.71915423  0.96185468  0.16110112  1
  Sb  Sb2  1  0.41756212  0.56952829  0.99782971  1
  Sb  Sb3  1  0.56952829  0.41756212  0.99782971  1
  Sb  Sb4  1  0.92720080  0.07612961  0.50738738  1
  Sb  Sb5  1  0.07612961  0.92720080  0.50738738  1
  Sb  Sb6  1  0.13536103  0.13536103  0.11220422  1
  Sb  Sb7  1  0.88134386  0.88134386  0.86975919  1
  As  As0  1  0.02741060  0.28671315  0.84148216  1
  As  As1  1  0.28671315  0.02741060  0.84148216  1
  Se  Se0  1  0.98823893  0.31098399  0.61526677  1
  Se  Se1  1  0.31098399  0.98823893  0.61526677  1
  Se  Se2  1  0.00042402  0.68370221  0.40413159  1
  Se  Se3  1  0.68370221  0.00042402  0.40413159  1
  Se  Se4  1  0.22821018  0.54639734  0.85186760  1
  Se  Se5  1  0.54639734  0.22821018  0.85186760  1
  Se  Se6  1  0.74971242  0.43661133  0.15688894  1
  Se  Se7  1  0.43661133  0.74971242  0.15688894  1
  Se  Se8  1  0.13610844  0.13610844  0.62534991  1
  Se  Se9  1  0.88334758  0.88334758  0.37263635  1
  Se  Se10  1  0.36802643  0.36802643  0.86750984  1
  Se  Se11  1  0.63602766  0.63602766  0.11210972  1
  Se  Se12  1  0.80685826  0.19137639  0.00122122  1
  Se  Se13  1  0.19137639  0.80685826  0.00122122  1
  Se  Se14  1  0.17894121  0.32899911  0.21738829  1
  Se  Se15  1  0.32899911  0.17894121  0.21738829  1
  Se  Se16  1  0.85564077  0.70585010  0.74699796  1
  Se  Se17  1  0.70585010  0.85564077  0.74699796  1
loop_
_geom_bond_atom_site_label_1
_geom_bond_atom_site_label_2
_geom_bond_distance
_geom_bond_site_symmetry_2
Cs0 Se4 3.803356 1_555
Cs0 Se3 3.803548 1_565
Cs0 Se0 3.804125 1_455
Cs0 Se7 3.806032 1_555
Cs0 Se8 3.957151 1_555
Cs0 Se10 4.009588 1_555
Cs0 Se17 4.085831 1_555
Cs0 Se14 4.095673 1_555
Cs0 Sb1 4.169997 1_555
Cs0 Se9 4.223072 1_555
Cs0 Se11 4.285443 1_555
Cs0 Cs1 4.321093 1_555
Cs1 Se5 3.803356 1_555
Cs1 Se2 3.803548 1_655
Cs1 Se1 3.804125 1_545
Cs1 Se6 3.806032 1_555
Cs1 Se8 3.957151 1_555
Cs1 Se10 4.009588 1_555
Cs1 Se16 4.085831 1_555
Cs1 Se15 4.095673 1_555
Cs1 Sb0 4.169997 1_555
Cs1 Se9 4.223072 1_555
Cs1 Se11 4.285443 1_555
Cs2 Se12 3.710836 1_455
Cs2 Se14 3.720130 1_555
Cs2 Se7 3.727651 1_555
Cs2 Se0 3.746568 1_455
Cs2 Se6 3.771578 1_455
Cs2 Se13 3.851758 1_555
Cs2 Se2 3.917166 1_555
Cs2 Se3 3.924512 1_455
Cs2 Se4 4.000988 1_554
Cs3 Se13 3.710837 1_545
Cs3 Se15 3.720130 1_555
Cs3 Se6 3.727651 1_555
Cs3 Se1 3.746567 1_545
Cs3 Se7 3.771578 1_545
Cs3 Se12 3.851758 1_555
Cs3 Se3 3.917166 1_555
Cs3 Se2 3.924512 1_545
Cs3 Se5 4.000988 1_554
Cs4 Se16 3.679858 1_555
Cs4 Se2 3.695081 1_655
Cs4 Se4 3.706847 1_655
Cs4 Se13 3.708261 1_656
Cs4 Se5 3.751687 1_555
Cs4 Se12 3.787807 1_556
Cs4 Se0 3.835235 1_555
Cs4 Se1 3.901046 1_655
Cs4 Se6 3.996308 1_556
Cs5 Se17 3.679858 1_555
Cs5 Se3 3.695081 1_565
Cs5 Se5 3.706847 1_565
Cs5 Se12 3.708261 1_566
Cs5 Se4 3.751686 1_555
Cs5 Se13 3.787807 1_556
Cs5 Se1 3.835235 1_555
Cs5 Se0 3.901046 1_565
Cs5 Se7 3.996308 1_556
Sb0 Se2 2.555613 1_655
Sb0 Se6 2.567159 1_555
Sb0 Se13 2.629975 1_655
Sb1 Se3 2.555613 1_565
Sb1 Se7 2.567159 1_555
Sb1 Se12 2.629975 1_565
Sb2 Se14 2.680495 1_556
Sb2 Se10 2.807404 1_555
Sb2 Se11 2.816039 1_556
Sb2 Se7 2.931320 1_556
Sb2 Se4 2.934714 1_555
Sb2 Se17 3.147654 1_555
Sb3 Se15 2.680495 1_556
Sb3 Se10 2.807404 1_555
Sb3 Se11 2.816038 1_556
Sb3 Se6 2.931320 1_556
Sb3 Se5 2.934714 1_555
Sb3 Se16 3.147654 1_555
Sb4 Se17 2.690276 1_545
Sb4 Se8 2.761291 1_655
Sb4 Se9 2.765941 1_545
Sb4 Se3 3.011127 1_555
Sb4 Se0 3.025597 1_555
Sb4 Se14 3.177702 1_655
Sb5 Se16 2.690276 1_455
Sb5 Se8 2.761291 1_565
Sb5 Se9 2.765941 1_455
Sb5 Se2 3.011127 1_555
Sb5 Se1 3.025597 1_555
Sb5 Se15 3.177702 1_565
Sb6 Se14 2.620909 1_555
Sb6 Se15 2.620909 1_555
Sb6 Se10 2.785660 1_554
Sb6 Se9 2.989182 1_445
Sb7 Se16 2.619145 1_555
Sb7 Se17 2.619145 1_555
Sb7 Se11 2.843406 1_556
Sb7 Se8 2.911065 1_665
As0 Se0 2.368218 1_455
As0 Se4 2.377541 1_555
As0 Se12 2.476914 1_456
As0 Cs0 4.103512 1_555
As1 Se1 2.368218 1_545
As1 Se5 2.377541 1_555
As1 Se13 2.476914 1_546
As1 Cs1 4.103512 1_555
