# generated using pymatgen
data_K4Sn2Se5S
_symmetry_space_group_name_H-M   'P 1'
_cell_length_a   6.91236621
_cell_length_b   7.63796808
_cell_length_c   8.62485794
_cell_angle_alpha   76.40438261
_cell_angle_beta   74.81255491
_cell_angle_gamma   67.65096246
_symmetry_Int_Tables_number   1
_chemical_formula_structural   K4Sn2Se5S
_chemical_formula_sum   'K4 Sn2 Se5 S1'
_cell_volume   401.74044867
_cell_formula_units_Z   1
loop_
 _symmetry_equiv_pos_site_id
 _symmetry_equiv_pos_as_xyz
  1  'x, y, z'
loop_
 _atom_site_type_symbol
 _atom_site_label
 _atom_site_symmetry_multiplicity
 _atom_site_fract_x
 _atom_site_fract_y
 _atom_site_fract_z
 _atom_site_occupancy
  K  K0  1  0.14417557  0.46360149  0.18676925  1
  K  K1  1  0.84769833  0.54453428  0.81368225  1
  K  K2  1  0.60952009  0.20231756  0.61332381  1
  K  K3  1  0.38743508  0.78921254  0.39343472  1
  Sn  Sn0  1  0.85270811  0.06149115  0.18548104  1
  Sn  Sn1  1  0.14894632  0.93833324  0.81101659  1
  Se  Se0  1  0.13229441  0.19363047  0.57178739  1
  Se  Se1  1  0.85871806  0.80740308  0.42545766  1
  Se  Se2  1  0.65166624  0.40187195  0.21362596  1
  Se  Se3  1  0.34233941  0.59638253  0.78509437  1
  Se  Se4  1  0.23943243  0.04327192  0.04317467  1
  S  S0  1  0.78506694  0.95794978  0.95715228  1
loop_
_geom_bond_atom_site_label_1
_geom_bond_atom_site_label_2
_geom_bond_distance
_geom_bond_site_symmetry_2
K0 Se1 3.391130 1_455
K0 Se2 3.420281 1_555
K0 Se3 3.438764 1_554
K0 Se0 3.471687 1_555
K0 Se4 3.479780 1_555
K0 Se2 3.552760 1_455
K1 Se3 3.431266 1_555
K1 Se2 3.439328 1_556
K1 Se0 3.445979 1_655
K1 Se1 3.474290 1_555
K1 S0 3.493713 1_555
K1 Se3 3.528492 1_655
K2 Se3 3.331710 1_555
K2 S0 3.363184 1_545
K2 Se1 3.402193 1_545
K2 Se2 3.410771 1_555
K2 Se0 3.436768 1_555
K2 Se0 3.513039 1_655
K3 Se2 3.325242 1_555
K3 Se3 3.337025 1_555
K3 Se4 3.360331 1_565
K3 Se1 3.397316 1_555
K3 Se0 3.418715 1_565
K3 Se1 3.543348 1_455
Se0 Sn1 2.476905 1_545
Se1 Sn0 2.479378 1_565
Se2 Sn0 2.474172 1_555
Se3 Sn1 2.474117 1_555
Se4 Sn0 2.598078 1_455
Se4 Sn1 2.614376 1_544
S0 Sn1 2.465510 1_655
S0 Sn0 2.493602 1_566
