# generated using pymatgen
data_Hf16ReNi4Os3
_symmetry_space_group_name_H-M   'P 1'
_cell_length_a   8.57336558
_cell_length_b   8.57336492
_cell_length_c   8.57336697
_cell_angle_alpha   59.95390881
_cell_angle_beta   59.95391276
_cell_angle_gamma   59.95391120
_symmetry_Int_Tables_number   1
_chemical_formula_structural   Hf16ReNi4Os3
_chemical_formula_sum   'Hf16 Re1 Ni4 Os3'
_cell_volume   445.12796691
_cell_formula_units_Z   1
loop_
 _symmetry_equiv_pos_site_id
 _symmetry_equiv_pos_as_xyz
  1  'x, y, z'
loop_
 _atom_site_type_symbol
 _atom_site_label
 _atom_site_symmetry_multiplicity
 _atom_site_fract_x
 _atom_site_fract_y
 _atom_site_fract_z
 _atom_site_occupancy
  Hf  Hf0  1  0.68630067  0.10458786  0.10458786  1
  Hf  Hf1  1  0.10458786  0.68630067  0.10458786  1
  Hf  Hf2  1  0.10458786  0.10458786  0.68630067  1
  Hf  Hf3  1  0.10569468  0.10569468  0.10569468  1
  Hf  Hf4  1  0.31473603  0.31473603  0.68323762  1
  Hf  Hf5  1  0.68483143  0.68483143  0.31488083  1
  Hf  Hf6  1  0.31473603  0.68323762  0.31473603  1
  Hf  Hf7  1  0.68483143  0.31488083  0.68483143  1
  Hf  Hf8  1  0.68323762  0.31473603  0.31473603  1
  Hf  Hf9  1  0.31488083  0.68483143  0.68483143  1
  Hf  Hf10  1  0.95354906  0.95354906  0.54647486  1
  Hf  Hf11  1  0.54668889  0.54668889  0.95381820  1
  Hf  Hf12  1  0.95354906  0.54647486  0.95354906  1
  Hf  Hf13  1  0.54668889  0.95381820  0.54668889  1
  Hf  Hf14  1  0.54647486  0.95354906  0.95354906  1
  Hf  Hf15  1  0.95381820  0.54668889  0.54668889  1
  Re  Re0  1  0.33319015  0.33319015  0.33319015  1
  Ni  Ni0  1  0.32323622  0.89283399  0.89283399  1
  Ni  Ni1  1  0.89283399  0.32323622  0.89283399  1
  Ni  Ni2  1  0.89283399  0.89283399  0.32323622  1
  Ni  Ni3  1  0.89180099  0.89180099  0.89180099  1
  Os  Os0  1  0.99797609  0.33446758  0.33446758  1
  Os  Os1  1  0.33446758  0.99797609  0.33446758  1
  Os  Os2  1  0.33446758  0.33446758  0.99797609  1
loop_
_geom_bond_atom_site_label_1
_geom_bond_atom_site_label_2
_geom_bond_distance
_geom_bond_site_symmetry_2
Hf0 Ni1 2.577214 1_554
Hf0 Ni2 2.577214 1_545
Hf0 Ni3 2.579869 1_544
Hf0 Re0 2.968270 1_555
Hf0 Os1 2.970212 1_545
Hf0 Os2 2.970212 1_554
Hf0 Hf11 3.093524 1_554
Hf0 Hf13 3.093525 1_545
Hf0 Hf14 3.094953 1_544
Hf0 Hf8 3.106216 1_555
Hf0 Hf5 3.118798 1_545
Hf0 Hf7 3.118799 1_554
Hf1 Ni0 2.577214 1_554
Hf1 Ni2 2.577215 1_455
Hf1 Ni3 2.579869 1_454
Hf1 Re0 2.968270 1_555
Hf1 Os0 2.970211 1_455
Hf1 Os2 2.970212 1_554
Hf1 Hf11 3.093525 1_554
Hf1 Hf15 3.093525 1_455
Hf1 Hf12 3.094953 1_454
Hf1 Hf6 3.106216 1_555
Hf1 Hf5 3.118799 1_455
Hf1 Hf9 3.118799 1_554
Hf2 Ni0 2.577214 1_545
Hf2 Ni1 2.577215 1_455
Hf2 Ni3 2.579869 1_445
Hf2 Re0 2.968270 1_555
Hf2 Os0 2.970212 1_455
Hf2 Os1 2.970212 1_545
Hf2 Hf4 3.106215 1_555
Hf2 Hf9 3.118798 1_545
Hf2 Hf7 3.118798 1_455
Hf3 Ni2 2.580218 1_445
Hf3 Ni1 2.580218 1_454
Hf3 Ni0 2.580218 1_544
Hf3 Os2 2.961629 1_554
Hf3 Os0 2.961629 1_455
Hf3 Os1 2.961629 1_545
Hf3 Hf6 3.123785 1_545
Hf3 Hf8 3.123785 1_455
Hf3 Hf4 3.123786 1_554
Hf4 Re0 2.851437 1_555
Hf4 Os2 2.877724 1_555
Hf4 Ni0 3.110664 1_545
Hf4 Ni1 3.110664 1_455
Hf4 Hf6 3.157098 1_555
Hf4 Hf8 3.157098 1_555
Hf4 Hf9 3.180450 1_555
Hf4 Hf7 3.180450 1_555
Hf5 Os0 2.851216 1_555
Hf5 Os1 2.851216 1_555
Hf5 Ni3 3.117125 1_554
Hf5 Ni2 3.131403 1_555
Hf5 Hf7 3.169512 1_555
Hf5 Hf9 3.169512 1_555
Hf5 Hf8 3.180450 1_555
Hf5 Hf6 3.180450 1_555
Hf6 Re0 2.851436 1_555
Hf6 Os1 2.877724 1_555
Hf6 Ni2 3.110664 1_455
Hf6 Ni0 3.110665 1_554
Hf6 Hf8 3.157098 1_555
Hf6 Hf9 3.180450 1_555
Hf7 Os2 2.851216 1_555
Hf7 Os0 2.851217 1_555
Hf7 Ni3 3.117125 1_545
Hf7 Ni1 3.131404 1_555
Hf7 Hf9 3.169512 1_555
Hf7 Hf8 3.180450 1_555
Hf8 Re0 2.851437 1_555
Hf8 Os0 2.877724 1_555
Hf8 Ni2 3.110664 1_545
Hf8 Ni1 3.110665 1_554
Hf9 Os2 2.851216 1_555
Hf9 Os1 2.851216 1_555
Hf9 Ni3 3.117125 1_455
Hf9 Ni0 3.131404 1_555
Hf10 Ni3 2.543099 1_555
Hf10 Ni2 2.543925 1_555
Hf10 Os0 2.953328 1_565
Hf10 Os1 2.953328 1_655
Hf10 Hf3 3.084648 1_665
Hf10 Hf2 3.094953 1_665
Hf10 Hf7 3.179234 1_565
Hf10 Hf9 3.179234 1_655
Hf10 Hf8 3.189125 1_565
Hf10 Hf6 3.189125 1_655
Hf11 Ni0 2.550761 1_555
Hf11 Ni1 2.550761 1_555
Hf11 Os2 2.949508 1_555
Hf11 Re0 2.951470 1_556
Hf11 Hf8 3.167640 1_556
Hf11 Hf6 3.167640 1_556
Hf11 Hf7 3.188727 1_555
Hf11 Hf9 3.188727 1_555
Hf12 Ni3 2.543099 1_555
Hf12 Ni1 2.543925 1_555
Hf12 Os2 2.953328 1_655
Hf12 Os0 2.953328 1_556
Hf12 Hf3 3.084647 1_656
Hf12 Hf9 3.179234 1_655
Hf12 Hf5 3.179234 1_556
Hf12 Hf8 3.189125 1_556
Hf12 Hf4 3.189125 1_655
Hf13 Ni2 2.550761 1_555
Hf13 Ni0 2.550762 1_555
Hf13 Os1 2.949509 1_555
Hf13 Re0 2.951470 1_565
Hf13 Hf2 3.093525 1_565
Hf13 Hf8 3.167639 1_565
Hf13 Hf4 3.167639 1_565
Hf13 Hf9 3.188726 1_555
Hf13 Hf5 3.188727 1_555
Hf14 Ni3 2.543099 1_555
Hf14 Ni0 2.543925 1_555
Hf14 Os2 2.953328 1_565
Hf14 Os1 2.953328 1_556
Hf14 Hf3 3.084648 1_566
Hf14 Hf7 3.179233 1_565
Hf14 Hf5 3.179234 1_556
Hf14 Hf6 3.189125 1_556
Hf14 Hf4 3.189125 1_565
Hf15 Ni2 2.550761 1_555
Hf15 Ni1 2.550762 1_555
Hf15 Os0 2.949509 1_555
Hf15 Re0 2.951470 1_655
Hf15 Hf2 3.093524 1_655
Hf15 Hf6 3.167639 1_655
Hf15 Hf4 3.167640 1_655
Hf15 Hf7 3.188726 1_555
Hf15 Hf5 3.188727 1_555
Os0 Re0 2.862987 1_655
Os0 Os1 2.882854 1_645
Os0 Os2 2.882855 1_654
Os1 Re0 2.862987 1_565
Os1 Os2 2.882855 1_564
Os2 Re0 2.862988 1_556
