# generated using pymatgen
data_RbCrPtSe4
_symmetry_space_group_name_H-M   'P 1'
_cell_length_a   6.39879483
_cell_length_b   7.46216677
_cell_length_c   16.33542723
_cell_angle_alpha   90.00000000
_cell_angle_beta   90.00000000
_cell_angle_gamma   90.00000000
_symmetry_Int_Tables_number   1
_chemical_formula_structural   RbCrPtSe4
_chemical_formula_sum   'Rb4 Cr4 Pt4 Se16'
_cell_volume   779.99825973
_cell_formula_units_Z   4
loop_
 _symmetry_equiv_pos_site_id
 _symmetry_equiv_pos_as_xyz
  1  'x, y, z'
loop_
 _atom_site_type_symbol
 _atom_site_label
 _atom_site_symmetry_multiplicity
 _atom_site_fract_x
 _atom_site_fract_y
 _atom_site_fract_z
 _atom_site_occupancy
  Rb  Rb0  1  0.35236997  0.00000000  0.00000000  1
  Rb  Rb1  1  0.64763003  0.50000000  0.50000000  1
  Rb  Rb2  1  0.00949964  0.00000000  0.50000000  1
  Rb  Rb3  1  0.99050036  0.50000000  0.00000000  1
  Cr  Cr0  1  0.00246709  0.00000000  0.25066977  1
  Cr  Cr1  1  0.00246709  0.00000000  0.74933023  1
  Cr  Cr2  1  0.99753291  0.50000000  0.24933023  1
  Cr  Cr3  1  0.99753291  0.50000000  0.75066977  1
  Pt  Pt0  1  0.50000000  0.25000000  0.25000000  1
  Pt  Pt1  1  0.50000000  0.75000000  0.75000000  1
  Pt  Pt2  1  0.50000000  0.75000000  0.25000000  1
  Pt  Pt3  1  0.50000000  0.25000000  0.75000000  1
  Se  Se0  1  0.83297166  0.25125242  0.33410898  1
  Se  Se1  1  0.83297166  0.74874758  0.66589102  1
  Se  Se2  1  0.16702834  0.75125242  0.16589102  1
  Se  Se3  1  0.16702834  0.24874758  0.83410898  1
  Se  Se4  1  0.16702834  0.24874758  0.16589102  1
  Se  Se5  1  0.16702834  0.75125242  0.83410898  1
  Se  Se6  1  0.83297166  0.74874758  0.33410898  1
  Se  Se7  1  0.83297166  0.25125242  0.66589102  1
  Se  Se8  1  0.66718629  0.00000000  0.16906337  1
  Se  Se9  1  0.66718629  0.00000000  0.83093663  1
  Se  Se10  1  0.33281371  0.50000000  0.33093663  1
  Se  Se11  1  0.33281371  0.50000000  0.66906337  1
  Se  Se12  1  0.34180875  0.00000000  0.33233977  1
  Se  Se13  1  0.34180875  0.00000000  0.66766023  1
  Se  Se14  1  0.65819125  0.50000000  0.16766023  1
  Se  Se15  1  0.65819125  0.50000000  0.83233977  1
loop_
_geom_bond_atom_site_label_1
_geom_bond_atom_site_label_2
_geom_bond_distance
_geom_bond_site_symmetry_2
Rb0 Se9 3.418347 1_554
Rb0 Se8 3.418347 1_555
Rb0 Se4 3.492210 1_555
Rb0 Se2 3.492210 1_545
Rb0 Se3 3.492210 1_554
Rb0 Se5 3.492210 1_544
Rb1 Se10 3.418347 1_555
Rb1 Se11 3.418347 1_555
Rb1 Se1 3.492210 1_555
Rb1 Se7 3.492210 1_555
Rb1 Se6 3.492210 1_555
Rb1 Se0 3.492210 1_555
Rb2 Se13 3.467350 1_555
Rb2 Se12 3.467350 1_555
Rb2 Se7 3.483487 1_455
Rb2 Se1 3.483487 1_445
Rb2 Se0 3.483487 1_455
Rb2 Se6 3.483487 1_445
Rb3 Se15 3.467350 1_554
Rb3 Se14 3.467350 1_555
Rb3 Se2 3.483487 1_655
Rb3 Se4 3.483487 1_655
Rb3 Se5 3.483487 1_654
Rb3 Se3 3.483487 1_654
Cr0 Se8 2.525827 1_455
Cr0 Se4 2.544052 1_555
Cr0 Se2 2.544052 1_545
Cr0 Se12 2.548478 1_555
Cr0 Se0 2.559160 1_455
Cr0 Se6 2.559160 1_445
Cr1 Se9 2.525827 1_455
Cr1 Se3 2.544052 1_555
Cr1 Se5 2.544052 1_545
Cr1 Se13 2.548478 1_555
Cr1 Se7 2.559160 1_455
Cr1 Se1 2.559160 1_445
Cr2 Se10 2.525827 1_655
Cr2 Se6 2.544052 1_555
Cr2 Se0 2.544052 1_555
Cr2 Se14 2.548478 1_555
Cr2 Se2 2.559160 1_655
Cr2 Se4 2.559160 1_655
Cr3 Se11 2.525827 1_655
Cr3 Se1 2.544052 1_555
Cr3 Se7 2.544052 1_555
Cr3 Se15 2.548478 1_555
Cr3 Se5 2.559160 1_655
Cr3 Se3 2.559160 1_655
Pt0 Se14 2.512775 1_555
Pt0 Se12 2.512775 1_555
Pt0 Se8 2.524428 1_555
Pt0 Se10 2.524428 1_555
Pt0 Se0 2.535226 1_555
Pt0 Se4 2.535226 1_555
Pt1 Se15 2.512775 1_555
Pt1 Se13 2.512775 1_565
Pt1 Se9 2.524428 1_565
Pt1 Se11 2.524428 1_555
Pt1 Se5 2.535226 1_555
Pt1 Se1 2.535226 1_555
Pt2 Se14 2.512775 1_555
Pt2 Se12 2.512775 1_565
Pt2 Se8 2.524428 1_565
Pt2 Se10 2.524428 1_555
Pt2 Se6 2.535226 1_555
Pt2 Se2 2.535226 1_555
Pt3 Se15 2.512775 1_555
Pt3 Se13 2.512775 1_555
Pt3 Se9 2.524428 1_555
Pt3 Se11 2.524428 1_555
Pt3 Se3 2.535226 1_555
Pt3 Se7 2.535226 1_555
