# generated using pymatgen
data_Ir7RhW
_symmetry_space_group_name_H-M   'P 1'
_cell_length_a   6.10800010
_cell_length_b   6.10799941
_cell_length_c   6.10001177
_cell_angle_alpha   95.71998495
_cell_angle_beta   95.71998196
_cell_angle_gamma   143.21871577
_symmetry_Int_Tables_number   1
_chemical_formula_structural   Ir7RhW
_chemical_formula_sum   'Ir7 Rh1 W1'
_cell_volume   129.28647492
_cell_formula_units_Z   1
loop_
 _symmetry_equiv_pos_site_id
 _symmetry_equiv_pos_as_xyz
  1  'x, y, z'
loop_
 _atom_site_type_symbol
 _atom_site_label
 _atom_site_symmetry_multiplicity
 _atom_site_fract_x
 _atom_site_fract_y
 _atom_site_fract_z
 _atom_site_occupancy
  Ir  Ir0  1  0.66237812  0.33746227  0.99984139  1
  Ir  Ir1  1  0.33746227  0.66237812  0.99984139  1
  Ir  Ir2  1  0.66239752  0.66239752  0.32479605  1
  Ir  Ir3  1  0.33182877  0.99970920  0.33153797  1
  Ir  Ir4  1  0.99970920  0.33182877  0.33153797  1
  Ir  Ir5  1  0.66704316  0.00105156  0.66809472  1
  Ir  Ir6  1  0.00105156  0.66704316  0.66809472  1
  Rh  Rh0  1  0.33718904  0.33718904  0.67437708  1
  W  W0  1  0.00093936  0.00093936  0.00187872  1
loop_
_geom_bond_atom_site_label_1
_geom_bond_atom_site_label_2
_geom_bond_distance
_geom_bond_site_symmetry_2
Ir0 Ir2 2.661512 1_556
Ir0 Rh0 2.663598 1_555
Ir0 W0 2.694468 1_556
Ir0 W0 2.694470 1_666
Ir0 Ir3 2.720404 1_546
Ir0 Ir3 2.720408 1_656
Ir0 Ir6 2.720800 1_545
Ir0 Ir6 2.720802 1_655
Ir0 Ir5 2.755831 1_555
Ir0 Ir4 2.763494 1_556
Ir0 Ir1 2.798700 1_545
Ir0 Ir1 2.798700 1_655
Ir1 Ir2 2.661512 1_556
Ir1 Rh0 2.663597 1_555
Ir1 W0 2.694467 1_556
Ir1 W0 2.694470 1_666
Ir1 Ir4 2.720404 1_456
Ir1 Ir4 2.720408 1_566
Ir1 Ir5 2.720800 1_455
Ir1 Ir5 2.720802 1_565
Ir1 Ir6 2.755831 1_555
Ir1 Ir3 2.763494 1_556
Ir2 W0 2.684465 1_555
Ir2 W0 2.684468 1_665
Ir2 Ir3 2.724067 1_545
Ir2 Ir4 2.724068 1_455
Ir2 Ir4 2.724070 1_565
Ir2 Ir3 2.724070 1_655
Ir2 Ir5 2.774083 1_565
Ir2 Ir6 2.774083 1_655
Ir2 Rh0 2.794098 1_555
Ir2 Rh0 2.794104 1_665
Ir3 W0 2.710316 1_565
Ir3 Ir4 2.738745 1_455
Ir3 Ir4 2.738746 1_565
Ir3 Ir6 2.740032 1_555
Ir3 Ir6 2.740033 1_665
Ir3 Ir5 2.745714 1_565
Ir3 Rh0 2.764545 1_565
Ir4 W0 2.710316 1_655
Ir4 Ir5 2.740032 1_555
Ir4 Ir5 2.740033 1_665
Ir4 Ir6 2.745714 1_655
Ir4 Rh0 2.764545 1_655
Ir5 Ir6 2.723230 1_655
Ir5 Ir6 2.723231 1_545
Ir5 Rh0 2.731778 1_545
Ir5 Rh0 2.731781 1_655
Ir5 W0 2.734912 1_656
Ir6 Rh0 2.731778 1_455
Ir6 Rh0 2.731780 1_565
Ir6 W0 2.734912 1_566
Rh0 W0 2.703004 1_666
Rh0 W0 2.703006 1_556
