# generated using pymatgen
data_Be(V11C3)2
_symmetry_space_group_name_H-M   'P 1'
_cell_length_a   7.73191917
_cell_length_b   7.73191813
_cell_length_c   7.73191814
_cell_angle_alpha   59.99999574
_cell_angle_beta   60.00000020
_cell_angle_gamma   59.99999322
_symmetry_Int_Tables_number   1
_chemical_formula_structural   Be(V11C3)2
_chemical_formula_sum   'Be1 V22 C6'
_cell_volume   326.84870309
_cell_formula_units_Z   1
loop_
 _symmetry_equiv_pos_site_id
 _symmetry_equiv_pos_as_xyz
  1  'x, y, z'
loop_
 _atom_site_type_symbol
 _atom_site_label
 _atom_site_symmetry_multiplicity
 _atom_site_fract_x
 _atom_site_fract_y
 _atom_site_fract_z
 _atom_site_occupancy
  Be  Be0  1  0.00000000  0.00000000  0.00000000  1
  V  V0  1  0.75000000  0.75000000  0.75000000  1
  V  V1  1  0.25000000  0.25000000  0.25000000  1
  V  V2  1  0.61518246  0.61518246  0.15445061  1
  V  V3  1  0.61518246  0.15445061  0.61518246  1
  V  V4  1  0.15445061  0.61518246  0.61518246  1
  V  V5  1  0.61518246  0.61518246  0.61518246  1
  V  V6  1  0.38481754  0.38481754  0.84554939  1
  V  V7  1  0.38481754  0.84554939  0.38481754  1
  V  V8  1  0.84554939  0.38481754  0.38481754  1
  V  V9  1  0.38481754  0.38481754  0.38481754  1
  V  V10  1  1.00000000  1.00000000  0.33671237  1
  V  V11  1  0.66328763  0.00000000  0.33671237  1
  V  V12  1  0.00000000  0.66328763  0.33671237  1
  V  V13  1  0.66328763  0.33671237  1.00000000  1
  V  V14  1  1.00000000  0.33671237  1.00000000  1
  V  V15  1  1.00000000  0.33671237  0.66328763  1
  V  V16  1  0.33671237  0.66328763  0.00000000  1
  V  V17  1  0.33671237  1.00000000  0.66328763  1
  V  V18  1  0.33671237  1.00000000  0.00000000  1
  V  V19  1  0.00000000  0.00000000  0.66328763  1
  V  V20  1  0.00000000  0.66328763  0.00000000  1
  V  V21  1  0.66328763  0.00000000  1.00000000  1
  C  C0  1  0.72471664  0.72471664  0.27528336  1
  C  C1  1  0.27528336  0.72471664  0.27528336  1
  C  C2  1  0.72471664  0.27528336  0.27528336  1
  C  C3  1  0.27528336  0.27528336  0.72471664  1
  C  C4  1  0.72471664  0.27528336  0.72471664  1
  C  C5  1  0.27528336  0.72471664  0.72471664  1
loop_
_geom_bond_atom_site_label_1
_geom_bond_atom_site_label_2
_geom_bond_distance
_geom_bond_site_symmetry_2
Be0 V12 2.603432 1_545
Be0 V15 2.603432 1_454
Be0 V16 2.603432 1_545
Be0 V13 2.603432 1_454
Be0 V14 2.603433 1_454
Be0 V20 2.603433 1_545
Be0 V10 2.603433 1_445
Be0 V19 2.603433 1_554
Be0 V17 2.603433 1_544
Be0 V11 2.603433 1_455
Be0 V18 2.603433 1_545
Be0 V21 2.603433 1_454
V0 V3 2.553331 1_565
V0 V2 2.553331 1_556
V0 V4 2.553331 1_655
V0 V5 2.553344 1_555
V1 V7 2.553331 1_545
V1 V6 2.553331 1_554
V1 V8 2.553331 1_455
V1 V9 2.553344 1_555
C0 V5 2.146404 1_555
C0 V8 2.146404 1_555
C0 V7 2.146405 1_555
C0 V2 2.146417 1_555
C0 V21 2.180818 1_564
C0 V11 2.180818 1_565
C0 V20 2.180818 1_655
C0 V12 2.180819 1_655
C1 V9 2.146404 1_555
C1 V4 2.146405 1_555
C1 V2 2.146405 1_555
C1 V7 2.146417 1_555
C1 V10 2.180818 1_455
C1 V18 2.180818 1_555
C1 V16 2.180818 1_555
C1 V12 2.180819 1_555
C2 V2 2.146404 1_555
C2 V9 2.146405 1_555
C2 V3 2.146405 1_555
C2 V8 2.146417 1_555
C2 V10 2.180818 1_545
C2 V13 2.180818 1_554
C2 V11 2.180818 1_555
C2 V14 2.180819 1_554
C3 V9 2.146404 1_555
C3 V4 2.146404 1_555
C3 V3 2.146405 1_555
C3 V6 2.146417 1_555
C3 V18 2.180818 1_546
C3 V17 2.180818 1_545
C3 V14 2.180818 1_455
C3 V15 2.180819 1_455
C4 V5 2.146404 1_555
C4 V8 2.146405 1_555
C4 V6 2.146405 1_555
C4 V3 2.146417 1_555
C4 V19 2.180818 1_655
C4 V21 2.180818 1_555
C4 V13 2.180818 1_555
C4 V15 2.180819 1_555
C5 V6 2.146404 1_555
C5 V5 2.146405 1_555
C5 V7 2.146405 1_555
C5 V4 2.146417 1_555
C5 V19 2.180818 1_565
C5 V16 2.180818 1_556
C5 V17 2.180818 1_555
C5 V20 2.180819 1_556
