# generated using pymatgen
data_Sc22IrOsRu6
_symmetry_space_group_name_H-M   'P 1'
_cell_length_a   9.45663275
_cell_length_b   9.44818753
_cell_length_c   9.45663231
_cell_angle_alpha   60.02953690
_cell_angle_beta   59.78827145
_cell_angle_gamma   60.02954125
_symmetry_Int_Tables_number   1
_chemical_formula_structural   Sc22IrOsRu6
_chemical_formula_sum   'Sc22 Ir1 Os1 Ru6'
_cell_volume   596.76030127
_cell_formula_units_Z   1
loop_
 _symmetry_equiv_pos_site_id
 _symmetry_equiv_pos_as_xyz
  1  'x, y, z'
loop_
 _atom_site_type_symbol
 _atom_site_label
 _atom_site_symmetry_multiplicity
 _atom_site_fract_x
 _atom_site_fract_y
 _atom_site_fract_z
 _atom_site_occupancy
  Sc  Sc0  1  0.80349366  0.80216635  0.19650634  1
  Sc  Sc1  1  0.19742939  0.80257061  0.19742939  1
  Sc  Sc2  1  0.80349366  0.19783365  0.19650634  1
  Sc  Sc3  1  0.19650634  0.19783365  0.80349366  1
  Sc  Sc4  1  0.80257061  0.19742939  0.80257061  1
  Sc  Sc5  1  0.19650634  0.80216635  0.80349366  1
  Sc  Sc6  1  0.61649078  0.61660877  0.15028969  1
  Sc  Sc7  1  0.61612603  0.15058968  0.61612603  1
  Sc  Sc8  1  0.15028969  0.61660877  0.61649078  1
  Sc  Sc9  1  0.61612603  0.61715927  0.61612603  1
  Sc  Sc10  1  0.38350922  0.38339123  0.84971031  1
  Sc  Sc11  1  0.38387397  0.84941032  0.38387397  1
  Sc  Sc12  1  0.84971031  0.38339123  0.38350922  1
  Sc  Sc13  1  0.38387397  0.38284073  0.38387397  1
  Sc  Sc14  1  0.84438768  0.84424948  0.46711336  1
  Sc  Sc15  1  0.84286478  0.46861577  0.84286478  1
  Sc  Sc16  1  0.46711336  0.84424948  0.84438768  1
  Sc  Sc17  1  0.84286478  0.84565367  0.84286478  1
  Sc  Sc18  1  0.15561232  0.15575052  0.53288664  1
  Sc  Sc19  1  0.15713522  0.53138423  0.15713522  1
  Sc  Sc20  1  0.53288664  0.15575052  0.15561232  1
  Sc  Sc21  1  0.15713522  0.15434633  0.15713522  1
  Ir  Ir0  1  0.00000000  0.50000000  0.00000000  1
  Os  Os0  1  0.50000000  0.50000000  0.50000000  1
  Ru  Ru0  1  0.00000000  0.00000000  0.00000000  1
  Ru  Ru1  1  0.00000000  0.00000000  0.50000000  1
  Ru  Ru2  1  0.50000000  0.00000000  0.50000000  1
  Ru  Ru3  1  0.00000000  0.50000000  0.50000000  1
  Ru  Ru4  1  0.50000000  0.50000000  0.00000000  1
  Ru  Ru5  1  0.50000000  0.00000000  0.00000000  1
loop_
_geom_bond_atom_site_label_1
_geom_bond_atom_site_label_2
_geom_bond_distance
_geom_bond_site_symmetry_2
Ir0 Sc17 2.758042 1_454
Ir0 Sc21 2.758042 1_555
Ir0 Sc19 2.758048 1_555
Ir0 Sc15 2.758048 1_454
Ir0 Sc12 2.961704 1_455
Ir0 Sc8 2.961704 1_554
Ir0 Sc10 2.961704 1_554
Ir0 Sc6 2.961704 1_455
Os0 Sc10 2.696307 1_555
Os0 Sc6 2.696307 1_555
Os0 Sc12 2.696307 1_555
Os0 Sc8 2.696307 1_555
Os0 Sc11 2.698129 1_555
Os0 Sc7 2.698129 1_555
Os0 Sc9 2.698136 1_555
Os0 Sc13 2.698136 1_555
Ru0 Sc3 2.631530 1_554
Ru0 Sc0 2.631530 1_445
Ru0 Sc2 2.631530 1_455
Ru0 Sc5 2.631530 1_544
Ru0 Sc1 2.645754 1_545
Ru0 Sc4 2.645754 1_454
Ru1 Sc17 2.727577 1_445
Ru1 Sc21 2.727577 1_555
Ru1 Sc18 2.740276 1_555
Ru1 Sc14 2.740276 1_445
Ru1 Sc11 2.965983 1_545
Ru1 Sc7 2.965983 1_455
Ru1 Sc8 2.966492 1_545
Ru1 Sc12 2.966492 1_455
Ru2 Sc16 2.741956 1_545
Ru2 Sc20 2.741956 1_555
Ru2 Sc14 2.741956 1_545
Ru2 Sc18 2.741956 1_555
Ru2 Sc13 2.961762 1_555
Ru2 Sc9 2.961762 1_545
Ru2 Sc7 2.961769 1_555
Ru2 Sc11 2.961769 1_545
Ru3 Sc15 2.727575 1_455
Ru3 Sc19 2.727575 1_555
Ru3 Sc14 2.740276 1_455
Ru3 Sc18 2.740276 1_555
Ru3 Sc13 2.965983 1_555
Ru3 Sc9 2.965983 1_455
Ru3 Sc8 2.966477 1_555
Ru3 Sc12 2.966477 1_455
Ru4 Sc15 2.727575 1_554
Ru4 Sc19 2.727575 1_555
Ru4 Sc16 2.740276 1_554
Ru4 Sc20 2.740276 1_555
Ru4 Sc13 2.965983 1_555
Ru4 Sc9 2.965983 1_554
Ru4 Sc6 2.966477 1_555
Ru4 Sc10 2.966477 1_554
Ru5 Sc17 2.727577 1_544
Ru5 Sc21 2.727577 1_555
Ru5 Sc20 2.740276 1_555
Ru5 Sc16 2.740276 1_544
Ru5 Sc11 2.965983 1_545
Ru5 Sc7 2.965983 1_554
Ru5 Sc10 2.966492 1_554
Ru5 Sc6 2.966492 1_545
