# generated using pymatgen
data_Ba3TcI2O5
_symmetry_space_group_name_H-M   'P 1'
_cell_length_a   8.20281590
_cell_length_b   8.20281502
_cell_length_c   11.80627722
_cell_angle_alpha   90.00000000
_cell_angle_beta   90.00000000
_cell_angle_gamma   137.08288140
_symmetry_Int_Tables_number   1
_chemical_formula_structural   Ba3TcI2O5
_chemical_formula_sum   'Ba6 Tc2 I4 O10'
_cell_volume   540.93803281
_cell_formula_units_Z   2
loop_
 _symmetry_equiv_pos_site_id
 _symmetry_equiv_pos_as_xyz
  1  'x, y, z'
loop_
 _atom_site_type_symbol
 _atom_site_label
 _atom_site_symmetry_multiplicity
 _atom_site_fract_x
 _atom_site_fract_y
 _atom_site_fract_z
 _atom_site_occupancy
  Ba  Ba0  1  0.34005828  0.65994172  0.96733016  1
  Ba  Ba1  1  0.65994172  0.34005828  0.46733016  1
  Ba  Ba2  1  0.34005828  0.65994172  0.53266984  1
  Ba  Ba3  1  0.12835553  0.87164447  0.75000000  1
  Ba  Ba4  1  0.65994172  0.34005828  0.03266984  1
  Ba  Ba5  1  0.87164447  0.12835553  0.25000000  1
  Tc  Tc0  1  0.23111813  0.76888187  0.25000000  1
  Tc  Tc1  1  0.76888187  0.23111813  0.75000000  1
  I  I0  1  0.50809127  0.49190873  0.75000000  1
  I  I1  1  0.00000000  0.00000000  0.00000000  1
  I  I2  1  0.00000000  0.00000000  0.50000000  1
  I  I3  1  0.49190873  0.50809127  0.25000000  1
  O  O0  1  0.48292994  0.94882799  0.13973605  1
  O  O1  1  0.87821222  0.12178778  0.75000000  1
  O  O2  1  0.94882799  0.48292994  0.63973605  1
  O  O3  1  0.51707006  0.05117201  0.86026395  1
  O  O4  1  0.12178778  0.87821222  0.25000000  1
  O  O5  1  0.51707006  0.05117201  0.63973605  1
  O  O6  1  0.94882799  0.48292994  0.86026395  1
  O  O7  1  0.05117201  0.51707006  0.13973605  1
  O  O8  1  0.48292994  0.94882799  0.36026395  1
  O  O9  1  0.05117201  0.51707006  0.36026395  1
loop_
_geom_bond_atom_site_label_1
_geom_bond_atom_site_label_2
_geom_bond_distance
_geom_bond_site_symmetry_2
Ba0 O0 2.657888 1_556
Ba0 O7 2.657888 1_556
Ba0 O3 2.679555 1_565
Ba0 O6 2.679555 1_455
Ba0 I0 3.628490 1_555
Ba0 I1 3.888104 1_556
Ba0 I1 3.888104 1_666
Ba0 I3 4.063613 1_556
Ba1 O5 2.657888 1_555
Ba1 O2 2.657888 1_555
Ba1 O8 2.679555 1_545
Ba1 O9 2.679555 1_655
Ba1 I3 3.628490 1_555
Ba1 I2 3.888104 1_665
Ba1 I2 3.888104 1_555
Ba1 I0 4.063613 1_555
Ba2 O8 2.657888 1_555
Ba2 O9 2.657888 1_555
Ba2 O5 2.679555 1_565
Ba2 O2 2.679555 1_455
Ba2 I0 3.628490 1_555
Ba2 I2 3.888104 1_555
Ba2 I2 3.888104 1_665
Ba2 I3 4.063613 1_555
Ba3 O6 2.674458 1_455
Ba3 O2 2.674458 1_455
Ba3 O3 2.674458 1_565
Ba3 O5 2.674458 1_565
Ba3 I0 3.518057 1_565
Ba3 I0 3.518058 1_455
Ba3 I2 3.542955 1_565
Ba3 I1 3.542955 1_566
Ba4 O3 2.657888 1_554
Ba4 O6 2.657888 1_554
Ba4 O0 2.679555 1_545
Ba4 O7 2.679555 1_655
Ba4 I3 3.628490 1_555
Ba4 I1 3.888104 1_665
Ba4 I1 3.888104 1_555
Ba4 I0 4.063613 1_554
Ba5 O9 2.674458 1_655
Ba5 O7 2.674458 1_655
Ba5 O8 2.674458 1_545
Ba5 O0 2.674458 1_545
Ba5 I3 3.518057 1_545
Ba5 I3 3.518058 1_655
Ba5 I2 3.542955 1_655
Ba5 I1 3.542955 1_655
O0 Tc0 1.916861 1_555
O1 Tc1 1.669303 1_555
O2 Tc1 1.916861 1_555
O3 Tc1 1.916861 1_555
O4 Tc0 1.669303 1_555
O5 Tc1 1.916861 1_555
O6 Tc1 1.916861 1_555
O7 Tc0 1.916861 1_555
O8 Tc0 1.916861 1_555
O9 Tc0 1.916861 1_555
