# generated using pymatgen
data_Be15Nb6(CoCu3)2
_symmetry_space_group_name_H-M   'P 1'
_cell_length_a   7.63028718
_cell_length_b   7.63028775
_cell_length_c   7.63028827
_cell_angle_alpha   59.65334774
_cell_angle_beta   59.65334322
_cell_angle_gamma   59.65334813
_symmetry_Int_Tables_number   1
_chemical_formula_structural   Be15Nb6(CoCu3)2
_chemical_formula_sum   'Be15 Nb6 Co2 Cu6'
_cell_volume   311.65457204
_cell_formula_units_Z   1
loop_
 _symmetry_equiv_pos_site_id
 _symmetry_equiv_pos_as_xyz
  1  'x, y, z'
loop_
 _atom_site_type_symbol
 _atom_site_label
 _atom_site_symmetry_multiplicity
 _atom_site_fract_x
 _atom_site_fract_y
 _atom_site_fract_z
 _atom_site_occupancy
  Be  Be0  1  0.32699953  0.32699953  0.32699953  1
  Be  Be1  1  0.67300047  0.67300047  0.67300047  1
  Be  Be2  1  0.32292843  0.32292843  0.02344903  1
  Be  Be3  1  0.32292843  0.02344903  0.32292843  1
  Be  Be4  1  0.67707157  0.67707157  0.97655097  1
  Be  Be5  1  0.67707157  0.97655097  0.67707157  1
  Be  Be6  1  0.02344903  0.32292843  0.32292843  1
  Be  Be7  1  0.97655097  0.67707157  0.67707157  1
  Be  Be8  1  0.50000000  0.00000000  0.00000000  1
  Be  Be9  1  0.00000000  0.50000000  0.50000000  1
  Be  Be10  1  0.00000000  0.50000000  0.00000000  1
  Be  Be11  1  0.50000000  0.00000000  0.50000000  1
  Be  Be12  1  0.00000000  0.00000000  0.50000000  1
  Be  Be13  1  0.50000000  0.50000000  0.00000000  1
  Be  Be14  1  0.00000000  0.00000000  0.00000000  1
  Nb  Nb0  1  0.70857585  0.29900280  0.29900280  1
  Nb  Nb1  1  0.29142415  0.70099720  0.70099720  1
  Nb  Nb2  1  0.29900280  0.70857585  0.29900280  1
  Nb  Nb3  1  0.70099720  0.29142415  0.70099720  1
  Nb  Nb4  1  0.29900280  0.29900280  0.70857585  1
  Nb  Nb5  1  0.70099720  0.70099720  0.29142415  1
  Co  Co0  1  0.12186491  0.12186491  0.12186491  1
  Co  Co1  1  0.87813509  0.87813509  0.87813509  1
  Cu  Cu0  1  0.12297584  0.12297584  0.63225305  1
  Cu  Cu1  1  0.12297584  0.63225305  0.12297584  1
  Cu  Cu2  1  0.87702416  0.87702416  0.36774695  1
  Cu  Cu3  1  0.87702416  0.36774695  0.87702416  1
  Cu  Cu4  1  0.63225305  0.12297584  0.12297584  1
  Cu  Cu5  1  0.36774695  0.87702416  0.87702416  1
loop_
_geom_bond_atom_site_label_1
_geom_bond_atom_site_label_2
_geom_bond_distance
_geom_bond_site_symmetry_2
Be0 Be9 2.194335 1_555
Be0 Be13 2.194335 1_555
Be0 Be11 2.194335 1_555
Be0 Cu0 2.322307 1_555
Be0 Cu4 2.322307 1_555
Be0 Cu1 2.322307 1_555
Be0 Be6 2.347975 1_555
Be0 Be3 2.347975 1_555
Be0 Be2 2.347975 1_555
Be0 Nb0 2.712466 1_555
Be0 Nb2 2.712466 1_555
Be0 Nb4 2.712467 1_555
Be1 Be9 2.194335 1_655
Be1 Be13 2.194335 1_556
Be1 Be11 2.194335 1_565
Be1 Cu2 2.322307 1_555
Be1 Cu5 2.322307 1_555
Be1 Cu3 2.322307 1_555
Be1 Be7 2.347975 1_555
Be1 Be5 2.347975 1_555
Be1 Be4 2.347975 1_555
Be1 Nb1 2.712466 1_555
Be1 Nb3 2.712466 1_555
Be1 Nb5 2.712467 1_555
Be2 Be8 2.183160 1_555
Be2 Be6 2.273130 1_555
Be2 Be3 2.273131 1_555
Be2 Co0 2.306803 1_555
Be2 Cu4 2.340278 1_555
Be2 Cu1 2.340278 1_555
Be2 Nb4 2.599825 1_554
Be2 Nb3 2.675490 1_554
Be2 Nb1 2.675490 1_554
Be3 Be8 2.183160 1_555
Be3 Be6 2.273130 1_555
Be3 Co0 2.306803 1_555
Be3 Cu4 2.340277 1_555
Be3 Cu0 2.340278 1_555
Be3 Nb2 2.599825 1_545
Be3 Nb5 2.675490 1_545
Be3 Nb1 2.675490 1_545
Be4 Be8 2.183160 1_566
Be4 Be7 2.273130 1_555
Be4 Be5 2.273131 1_555
Be4 Co1 2.306803 1_555
Be4 Cu5 2.340278 1_555
Be4 Cu3 2.340278 1_555
Be4 Nb5 2.599825 1_556
Be4 Nb2 2.675490 1_556
Be4 Nb0 2.675490 1_556
Be5 Be8 2.183160 1_566
Be5 Be7 2.273130 1_555
Be5 Co1 2.306803 1_555
Be5 Cu5 2.340277 1_555
Be5 Cu2 2.340278 1_555
Be5 Nb3 2.599825 1_565
Be5 Nb4 2.675490 1_565
Be5 Nb0 2.675490 1_565
Be6 Be9 2.244779 1_555
Be6 Co0 2.306803 1_555
Be6 Cu1 2.340278 1_555
Be6 Cu0 2.340278 1_555
Be6 Nb0 2.599825 1_455
Be6 Nb3 2.675490 1_455
Be6 Nb5 2.675490 1_455
Be7 Be9 2.244779 1_655
Be7 Co1 2.306803 1_555
Be7 Cu3 2.340278 1_555
Be7 Cu2 2.340278 1_555
Be7 Nb1 2.599825 1_655
Be7 Nb2 2.675490 1_655
Be7 Nb4 2.675490 1_655
Be8 Co0 2.346456 1_555
Be8 Co1 2.346456 1_544
Be8 Cu5 2.362759 1_544
Be8 Cu4 2.362759 1_555
Be8 Nb3 2.699259 1_554
Be8 Nb2 2.699259 1_545
Be8 Nb5 2.699259 1_545
Be8 Nb4 2.699259 1_554
Be9 Cu2 2.338918 1_455
Be9 Cu0 2.338918 1_555
Be9 Cu3 2.338918 1_455
Be9 Cu1 2.338918 1_555
Be9 Nb2 2.785154 1_555
Be9 Nb3 2.785154 1_455
Be9 Nb4 2.785154 1_555
Be9 Nb5 2.785154 1_455
Be10 Be2 2.183160 1_555
Be10 Be4 2.183160 1_454
Be10 Be6 2.183160 1_555
Be10 Be7 2.183160 1_454
Be10 Co0 2.346456 1_555
Be10 Co1 2.346456 1_454
Be10 Cu1 2.362759 1_555
Be10 Cu3 2.362759 1_454
Be10 Nb1 2.699259 1_554
Be10 Nb0 2.699259 1_455
Be10 Nb5 2.699259 1_455
Be10 Nb4 2.699259 1_554
Be11 Be5 2.244779 1_545
Be11 Be3 2.244779 1_555
Be11 Cu2 2.338918 1_545
Be11 Cu0 2.338918 1_555
Be11 Cu4 2.338918 1_555
Be11 Cu5 2.338918 1_545
Be11 Nb0 2.785154 1_555
Be11 Nb1 2.785154 1_545
Be11 Nb4 2.785154 1_555
Be11 Nb5 2.785154 1_545
Be12 Be3 2.183160 1_555
Be12 Be5 2.183160 1_445
Be12 Be6 2.183160 1_555
Be12 Be7 2.183160 1_445
Be12 Co1 2.346456 1_445
Be12 Co0 2.346456 1_555
Be12 Cu0 2.362759 1_555
Be12 Cu2 2.362759 1_445
Be12 Nb2 2.699259 1_545
Be12 Nb3 2.699259 1_455
Be12 Nb1 2.699259 1_545
Be12 Nb0 2.699259 1_455
Be13 Be4 2.244779 1_554
Be13 Be2 2.244779 1_555
Be13 Cu1 2.338918 1_555
Be13 Cu3 2.338918 1_554
Be13 Cu4 2.338918 1_555
Be13 Cu5 2.338918 1_554
Be13 Nb2 2.785154 1_555
Be13 Nb3 2.785154 1_554
Be13 Nb0 2.785154 1_555
Be13 Nb1 2.785154 1_554
Be14 Cu4 2.281074 1_455
Be14 Cu5 2.281074 1_544
Be14 Cu3 2.281074 1_454
Be14 Cu1 2.281074 1_545
Be14 Cu2 2.281074 1_445
Be14 Cu0 2.281074 1_554
Be14 Co0 2.283642 1_555
Be14 Co1 2.283642 1_444
Nb0 Nb5 3.010006 1_555
Nb0 Nb3 3.010006 1_555
Nb0 Nb4 3.108771 1_555
Nb0 Nb2 3.108771 1_555
Nb1 Nb4 3.010006 1_555
Nb1 Nb2 3.010006 1_555
Nb1 Nb5 3.108771 1_555
Nb1 Nb3 3.108771 1_555
Nb2 Nb5 3.010006 1_555
Nb2 Nb4 3.108771 1_555
Nb3 Nb4 3.010006 1_555
Nb3 Nb5 3.108771 1_555
Co0 Nb0 2.613522 1_455
Co0 Nb4 2.613522 1_554
Co0 Nb2 2.613522 1_545
Co0 Cu2 2.635076 1_445
Co0 Cu5 2.635076 1_544
Co0 Cu3 2.635076 1_454
Co1 Nb1 2.613522 1_655
Co1 Nb5 2.613522 1_556
Co1 Nb3 2.613522 1_565
Co1 Cu0 2.635076 1_665
Co1 Cu4 2.635076 1_566
Co1 Cu1 2.635076 1_656
Cu0 Cu3 2.634322 1_455
Cu0 Cu5 2.634322 1_545
Cu0 Nb3 2.662198 1_455
Cu0 Nb1 2.662198 1_545
Cu0 Nb4 2.711240 1_555
Cu1 Cu5 2.634322 1_554
Cu1 Cu2 2.634322 1_455
Cu1 Nb5 2.662198 1_455
Cu1 Nb1 2.662198 1_554
Cu1 Nb2 2.711240 1_555
Cu2 Cu4 2.634322 1_565
Cu2 Nb2 2.662198 1_655
Cu2 Nb0 2.662198 1_565
Cu2 Nb5 2.711240 1_555
Cu3 Cu4 2.634322 1_556
Cu3 Nb4 2.662198 1_655
Cu3 Nb0 2.662198 1_556
Cu3 Nb3 2.711240 1_555
Cu4 Nb5 2.662198 1_545
Cu4 Nb3 2.662198 1_554
Cu4 Nb0 2.711240 1_555
Cu5 Nb4 2.662198 1_565
Cu5 Nb2 2.662198 1_556
Cu5 Nb1 2.711240 1_555
