# generated using pymatgen
data_Ta9Ti(GaSi2)2
_symmetry_space_group_name_H-M   'P 1'
_cell_length_a   7.54484912
_cell_length_b   7.54484924
_cell_length_c   7.54484913
_cell_angle_alpha   128.45942823
_cell_angle_beta   128.45942486
_cell_angle_gamma   75.88195119
_symmetry_Int_Tables_number   1
_chemical_formula_structural   Ta9Ti(GaSi2)2
_chemical_formula_sum   'Ta9 Ti1 Ga2 Si4'
_cell_volume   256.09460381
_cell_formula_units_Z   1
loop_
 _symmetry_equiv_pos_site_id
 _symmetry_equiv_pos_as_xyz
  1  'x, y, z'
loop_
 _atom_site_type_symbol
 _atom_site_label
 _atom_site_symmetry_multiplicity
 _atom_site_fract_x
 _atom_site_fract_y
 _atom_site_fract_z
 _atom_site_occupancy
  Ta  Ta0  1  0.01671341  0.18870796  0.50222498  1
  Ta  Ta1  1  0.68648298  0.51448843  0.49777502  1
  Ta  Ta2  1  0.51448843  0.01671341  0.82800645  1
  Ta  Ta3  1  0.18870796  0.68648298  0.17199355  1
  Ta  Ta4  1  0.98328659  0.81129204  0.49777502  1
  Ta  Ta5  1  0.31351702  0.48551157  0.50222498  1
  Ta  Ta6  1  0.48551157  0.98328659  0.17199355  1
  Ta  Ta7  1  0.81129204  0.31351702  0.82800645  1
  Ta  Ta8  1  0.50000000  0.50000000  0.00000000  1
  Ti  Ti0  1  0.00000000  0.00000000  0.00000000  1
  Ga  Ga0  1  0.75159231  0.75159231  1.00000000  1
  Ga  Ga1  1  0.24840769  0.24840769  0.00000000  1
  Si  Si0  1  0.36603189  0.12748268  0.49351457  1
  Si  Si1  1  0.63396811  0.87251732  0.50648543  1
  Si  Si2  1  0.87251732  0.36603189  0.23855021  1
  Si  Si3  1  0.12748268  0.63396811  0.76144979  1
loop_
_geom_bond_atom_site_label_1
_geom_bond_atom_site_label_2
_geom_bond_distance
_geom_bond_site_symmetry_2
Ga0 Ta6 2.734368 1_556
Ga0 Ta5 2.734371 1_555
Ga0 Ta4 2.734372 1_556
Ga0 Ta7 2.734373 1_555
Ga0 Ta2 2.735121 1_565
Ga0 Ta0 2.735125 1_666
Ga0 Ta1 2.735125 1_555
Ga0 Ta3 2.735126 1_656
Ga0 Ti0 2.956153 1_666
Ga0 Ta8 2.994051 1_556
Ga1 Ta2 2.734368 1_554
Ga1 Ta1 2.734371 1_555
Ga1 Ta0 2.734372 1_554
Ga1 Ta3 2.734373 1_555
Ga1 Ta6 2.735121 1_545
Ga1 Ta4 2.735125 1_444
Ga1 Ta5 2.735125 1_555
Ga1 Ta7 2.735126 1_454
Ga1 Ti0 2.956153 1_555
Ga1 Ta8 2.994051 1_555
Si0 Si1 2.426458 1_545
Si0 Ti0 2.542812 1_555
Si0 Ta8 2.597118 1_556
Si0 Ta0 2.597618 1_555
Si0 Ta5 2.597618 1_555
Si0 Ta3 2.615277 1_545
Si0 Ta6 2.615285 1_545
Si0 Ta7 2.640590 1_555
Si0 Ta2 2.640598 1_555
Si1 Ti0 2.542812 1_666
Si1 Ta8 2.597118 1_555
Si1 Ta4 2.597618 1_555
Si1 Ta1 2.597618 1_555
Si1 Ta7 2.615277 1_565
Si1 Ta2 2.615285 1_565
Si1 Ta3 2.640590 1_555
Si1 Ta6 2.640598 1_555
Si2 Si3 2.426449 1_655
Si2 Ti0 2.542814 1_655
Si2 Ta8 2.597121 1_555
Si2 Ta2 2.597618 1_554
Si2 Ta7 2.597618 1_554
Si2 Ta0 2.615272 1_655
Si2 Ta5 2.615280 1_655
Si2 Ta1 2.640585 1_555
Si2 Ta4 2.640593 1_555
Si3 Ti0 2.542814 1_566
Si3 Ta8 2.597121 1_556
Si3 Ta6 2.597618 1_556
Si3 Ta3 2.597618 1_556
Si3 Ta4 2.615272 1_455
Si3 Ta1 2.615280 1_455
Si3 Ta5 2.640585 1_555
Si3 Ta0 2.640593 1_555
