# generated using pymatgen
data_Na2Si2O5
_symmetry_space_group_name_H-M   'P 1'
_cell_length_a   4.82951769
_cell_length_b   8.10648681
_cell_length_c   12.19171941
_cell_angle_alpha   75.94287544
_cell_angle_beta   90.00000000
_cell_angle_gamma   90.00000000
_symmetry_Int_Tables_number   1
_chemical_formula_structural   Na2Si2O5
_chemical_formula_sum   'Na8 Si8 O20'
_cell_volume   463.01742059
_cell_formula_units_Z   4
loop_
 _symmetry_equiv_pos_site_id
 _symmetry_equiv_pos_as_xyz
  1  'x, y, z'
loop_
 _atom_site_type_symbol
 _atom_site_label
 _atom_site_symmetry_multiplicity
 _atom_site_fract_x
 _atom_site_fract_y
 _atom_site_fract_z
 _atom_site_occupancy
  Na  Na0  1  0.75529377  0.62157668  0.44394287  1
  Na  Na1  1  0.25529377  0.37842332  0.05605713  1
  Na  Na2  1  0.24470623  0.37842332  0.55605713  1
  Na  Na3  1  0.74470623  0.62157668  0.94394287  1
  Na  Na4  1  0.22498923  0.86179923  0.47245730  1
  Na  Na5  1  0.72498923  0.13820077  0.02754270  1
  Na  Na6  1  0.77501077  0.13820077  0.52754270  1
  Na  Na7  1  0.27501077  0.86179923  0.97245730  1
  Si  Si0  1  0.18276402  0.97312708  0.18089638  1
  Si  Si1  1  0.68276402  0.02687292  0.31910362  1
  Si  Si2  1  0.81723598  0.02687292  0.81910362  1
  Si  Si3  1  0.31723598  0.97312708  0.68089638  1
  Si  Si4  1  0.29814472  0.59780155  0.27668072  1
  Si  Si5  1  0.79814472  0.40219845  0.22331928  1
  Si  Si6  1  0.70185528  0.40219845  0.72331928  1
  Si  Si7  1  0.20185528  0.59780155  0.77668072  1
  O  O0  1  0.25545496  0.09523691  0.56131116  1
  O  O1  1  0.75545496  0.90476309  0.93868884  1
  O  O2  1  0.74454504  0.90476309  0.43868884  1
  O  O3  1  0.24454504  0.09523691  0.06131116  1
  O  O4  1  0.26741825  0.61095555  0.90191235  1
  O  O5  1  0.76741825  0.38904445  0.59808765  1
  O  O6  1  0.73258175  0.38904445  0.09808765  1
  O  O7  1  0.23258175  0.61095555  0.40191235  1
  O  O8  1  0.25317436  0.77451751  0.67890317  1
  O  O9  1  0.75317436  0.22548249  0.82109683  1
  O  O10  1  0.74682564  0.22548249  0.32109683  1
  O  O11  1  0.24682564  0.77451751  0.17890317  1
  O  O12  1  0.87324321  0.54853071  0.76763808  1
  O  O13  1  0.37324321  0.45146929  0.73236192  1
  O  O14  1  0.12675679  0.45146929  0.23236192  1
  O  O15  1  0.62675679  0.54853071  0.26763808  1
  O  O16  1  0.85450148  0.98401888  0.21362204  1
  O  O17  1  0.35450148  0.01598112  0.28637796  1
  O  O18  1  0.14549852  0.01598112  0.78637796  1
  O  O19  1  0.64549852  0.98401888  0.71362204  1
loop_
_geom_bond_atom_site_label_1
_geom_bond_atom_site_label_2
_geom_bond_distance
_geom_bond_site_symmetry_2
Na0 O2 2.281526 1_555
Na0 O5 2.316806 1_555
Na0 O7 2.367441 1_655
Na0 O15 2.444271 1_555
Na0 O7 2.581522 1_555
Na1 O3 2.281526 1_555
Na1 O4 2.316806 1_554
Na1 O6 2.367441 1_555
Na1 O14 2.444271 1_555
Na1 O6 2.581522 1_455
Na2 O0 2.281526 1_555
Na2 O7 2.316806 1_555
Na2 O5 2.367441 1_455
Na2 O13 2.444271 1_555
Na2 O5 2.581522 1_555
Na3 O1 2.281526 1_555
Na3 O6 2.316806 1_556
Na3 O4 2.367441 1_555
Na3 O12 2.444271 1_555
Na3 O4 2.581522 1_655
Na4 O2 2.367488 1_455
Na4 O17 2.392208 1_565
Na4 O7 2.392823 1_555
Na4 O0 2.402498 1_565
Na4 O8 2.447242 1_555
Na4 O2 2.552890 1_555
Na5 O3 2.367488 1_555
Na5 O16 2.392208 1_545
Na5 O6 2.392823 1_555
Na5 O1 2.402498 1_544
Na5 O9 2.447242 1_554
Na5 O3 2.552890 1_655
Na6 O0 2.367488 1_655
Na6 O19 2.392208 1_545
Na6 O5 2.392823 1_555
Na6 O2 2.402498 1_545
Na6 O10 2.447242 1_555
Na6 O0 2.552890 1_555
Na7 O1 2.367488 1_555
Na7 O18 2.392208 1_565
Na7 O4 2.392823 1_555
Na7 O3 2.402498 1_566
Na7 O11 2.447242 1_556
Na7 O1 2.552890 1_455
O0 Si3 1.579061 1_545
O1 Si2 1.579061 1_565
O2 Si1 1.579061 1_565
O3 Si0 1.579061 1_545
O4 Si7 1.588018 1_555
O5 Si6 1.588018 1_555
O6 Si5 1.588018 1_555
O7 Si4 1.588018 1_555
O8 Si7 1.644717 1_555
O8 Si3 1.645448 1_555
O9 Si6 1.644717 1_555
O9 Si2 1.645448 1_555
O10 Si5 1.644717 1_555
O10 Si1 1.645448 1_555
O11 Si4 1.644717 1_555
O11 Si0 1.645448 1_555
O12 Si6 1.641828 1_555
O12 Si7 1.646744 1_655
O13 Si7 1.641828 1_555
O13 Si6 1.646744 1_555
O14 Si4 1.641828 1_555
O14 Si5 1.646744 1_455
O15 Si5 1.641828 1_555
O15 Si4 1.646744 1_555
O16 Si1 1.636895 1_565
O16 Si0 1.642385 1_655
O17 Si0 1.636895 1_545
O17 Si1 1.642385 1_555
O18 Si3 1.636895 1_545
O18 Si2 1.642385 1_455
O19 Si2 1.636895 1_565
O19 Si3 1.642385 1_555
