# generated using pymatgen
data_Cs2Hf(AgTe2)2
_symmetry_space_group_name_H-M   'P 1'
_cell_length_a   8.40943599
_cell_length_b   8.40943606
_cell_length_c   6.60259688
_cell_angle_alpha   90.00000000
_cell_angle_beta   90.00000000
_cell_angle_gamma   133.66665731
_symmetry_Int_Tables_number   1
_chemical_formula_structural   Cs2Hf(AgTe2)2
_chemical_formula_sum   'Cs2 Hf1 Ag2 Te4'
_cell_volume   337.76019192
_cell_formula_units_Z   1
loop_
 _symmetry_equiv_pos_site_id
 _symmetry_equiv_pos_as_xyz
  1  'x, y, z'
loop_
 _atom_site_type_symbol
 _atom_site_label
 _atom_site_symmetry_multiplicity
 _atom_site_fract_x
 _atom_site_fract_y
 _atom_site_fract_z
 _atom_site_occupancy
  Cs  Cs0  1  0.50000000  0.00000000  0.25935463  1
  Cs  Cs1  1  0.00000000  0.50000000  0.74064537  1
  Hf  Hf0  1  0.00000000  0.00000000  0.00000000  1
  Ag  Ag0  1  0.00000000  0.00000000  0.50000000  1
  Ag  Ag1  1  0.50000000  0.50000000  0.00000000  1
  Te  Te0  1  0.86566262  0.65815408  0.23682496  1
  Te  Te1  1  0.13433738  0.34184592  0.23682496  1
  Te  Te2  1  0.65815408  0.86566262  0.76317504  1
  Te  Te3  1  0.34184592  0.13433738  0.76317504  1
loop_
_geom_bond_atom_site_label_1
_geom_bond_atom_site_label_2
_geom_bond_distance
_geom_bond_site_symmetry_2
Cs0 Te1 3.945346 1_655
Cs0 Te0 3.945346 1_445
Cs0 Te3 3.981529 1_554
Cs0 Te2 3.981529 1_544
Cs0 Te3 4.023141 1_555
Cs0 Te2 4.023141 1_545
Cs0 Te0 4.075347 1_555
Cs0 Te1 4.075347 1_545
Cs1 Te3 3.945346 1_565
Cs1 Te2 3.945346 1_445
Cs1 Te0 3.981529 1_456
Cs1 Te1 3.981529 1_556
Cs1 Te1 4.023141 1_555
Cs1 Te0 4.023141 1_455
Cs1 Te2 4.075347 1_555
Cs1 Te3 4.075347 1_455
Hf0 Te3 2.738735 1_554
Hf0 Te2 2.738735 1_444
Hf0 Te1 2.738735 1_555
Hf0 Te0 2.738735 1_445
Ag0 Te3 2.841659 1_555
Ag0 Te2 2.841659 1_445
Ag0 Te1 2.841659 1_555
Ag0 Te0 2.841659 1_445
Ag0 Hf0 3.301298 1_556
Ag0 Hf0 3.301298 1_555
Ag1 Te0 2.832317 1_555
Ag1 Te1 2.832317 1_555
Ag1 Te2 2.832317 1_554
Ag1 Te3 2.832317 1_554
Ag1 Hf0 3.308333 1_555
Ag1 Hf0 3.308333 1_665
