# generated using pymatgen
data_K2Hf(AgTe2)2
_symmetry_space_group_name_H-M   'P 1'
_cell_length_a   8.05662971
_cell_length_b   8.05662974
_cell_length_c   6.44265992
_cell_angle_alpha   90.00000000
_cell_angle_beta   90.00000000
_cell_angle_gamma   132.73941099
_symmetry_Int_Tables_number   1
_chemical_formula_structural   K2Hf(AgTe2)2
_chemical_formula_sum   'K2 Hf1 Ag2 Te4'
_cell_volume   307.13763677
_cell_formula_units_Z   1
loop_
 _symmetry_equiv_pos_site_id
 _symmetry_equiv_pos_as_xyz
  1  'x, y, z'
loop_
 _atom_site_type_symbol
 _atom_site_label
 _atom_site_symmetry_multiplicity
 _atom_site_fract_x
 _atom_site_fract_y
 _atom_site_fract_z
 _atom_site_occupancy
  K  K0  1  0.50000000  0.00000000  0.25072356  1
  K  K1  1  0.00000000  0.50000000  0.74927644  1
  Hf  Hf0  1  0.00000000  0.00000000  0.00000000  1
  Ag  Ag0  1  0.00000000  0.00000000  0.50000000  1
  Ag  Ag1  1  0.50000000  0.50000000  0.00000000  1
  Te  Te0  1  0.87296275  0.64881392  0.23947164  1
  Te  Te1  1  0.12703725  0.35118608  0.23947164  1
  Te  Te2  1  0.64881392  0.87296275  0.76052836  1
  Te  Te3  1  0.35118608  0.12703725  0.76052836  1
loop_
_geom_bond_atom_site_label_1
_geom_bond_atom_site_label_2
_geom_bond_distance
_geom_bond_site_symmetry_2
K0 Te3 3.758265 1_554
K0 Te2 3.758265 1_544
K0 Te1 3.759047 1_655
K0 Te0 3.759047 1_445
K0 Te2 3.865037 1_545
K0 Te3 3.865037 1_555
K0 Te0 3.877996 1_555
K0 Te1 3.877996 1_545
K1 Te1 3.758265 1_556
K1 Te0 3.758265 1_456
K1 Te3 3.759047 1_565
K1 Te2 3.759047 1_445
K1 Te1 3.865037 1_555
K1 Te0 3.865037 1_455
K1 Te2 3.877996 1_555
K1 Te3 3.877996 1_455
Hf0 Te3 2.739092 1_554
Hf0 Te2 2.739092 1_444
Hf0 Te1 2.739092 1_555
Hf0 Te0 2.739092 1_445
Ag0 Te3 2.817736 1_555
Ag0 Te2 2.817736 1_445
Ag0 Te1 2.817736 1_555
Ag0 Te0 2.817736 1_445
Ag0 Hf0 3.221330 1_555
Ag0 Hf0 3.221330 1_556
Ag1 Te0 2.820787 1_555
Ag1 Te1 2.820787 1_555
Ag1 Te2 2.820787 1_554
Ag1 Te3 2.820787 1_554
Ag1 Hf0 3.229367 1_665
Ag1 Hf0 3.229367 1_555
