# generated using pymatgen
data_HfZrMn3Cr
_symmetry_space_group_name_H-M   'P 1'
_cell_length_a   5.04773866
_cell_length_b   5.04773936
_cell_length_c   5.04773940
_cell_angle_alpha   62.58233648
_cell_angle_beta   62.58233237
_cell_angle_gamma   62.58233754
_symmetry_Int_Tables_number   1
_chemical_formula_structural   HfZrMn3Cr
_chemical_formula_sum   'Hf1 Zr1 Mn3 Cr1'
_cell_volume   96.17477809
_cell_formula_units_Z   1
loop_
 _symmetry_equiv_pos_site_id
 _symmetry_equiv_pos_as_xyz
  1  'x, y, z'
loop_
 _atom_site_type_symbol
 _atom_site_label
 _atom_site_symmetry_multiplicity
 _atom_site_fract_x
 _atom_site_fract_y
 _atom_site_fract_z
 _atom_site_occupancy
  Hf  Hf0  1  0.62461522  0.62461522  0.62461522  1
  Zr  Zr0  1  0.37585483  0.37585483  0.37585483  1
  Mn  Mn0  1  0.99959209  0.50060979  0.99959209  1
  Mn  Mn1  1  0.50060979  0.99959209  0.99959209  1
  Mn  Mn2  1  0.99959209  0.99959209  0.50060979  1
  Cr  Cr0  1  0.99973499  0.99973499  0.99973499  1
loop_
_geom_bond_atom_site_label_1
_geom_bond_atom_site_label_2
_geom_bond_distance
_geom_bond_site_symmetry_2
Hf0 Mn2 2.945209 1_555
Hf0 Mn0 2.945209 1_555
Hf0 Mn1 2.945209 1_555
Hf0 Zr0 3.014369 1_555
Hf0 Mn0 3.025921 1_455
Hf0 Mn2 3.025921 1_455
Hf0 Mn0 3.025922 1_554
Hf0 Mn1 3.025922 1_545
Hf0 Mn2 3.025922 1_545
Hf0 Mn1 3.025922 1_554
Hf0 Zr0 3.196074 1_655
Hf0 Zr0 3.196074 1_556
Hf0 Zr0 3.196074 1_565
Mn0 Mn1 2.616396 1_555
Mn0 Mn2 2.616396 1_555
Mn0 Mn1 2.627068 1_645
Mn0 Mn2 2.627068 1_546
Mn0 Zr0 2.954688 1_656
Mn0 Zr0 3.022253 1_556
Mn0 Zr0 3.022253 1_655
Mn1 Mn2 2.616396 1_555
Mn1 Mn2 2.627068 1_456
Mn1 Zr0 2.954688 1_566
Mn1 Zr0 3.022253 1_556
Mn1 Zr0 3.022253 1_565
Mn2 Zr0 2.954688 1_665
Mn2 Zr0 3.022253 1_565
Mn2 Zr0 3.022253 1_655
Cr0 Mn1 2.520118 1_555
Cr0 Mn0 2.520118 1_555
Cr0 Mn2 2.520119 1_555
Cr0 Mn1 2.527621 1_655
Cr0 Mn0 2.527621 1_565
Cr0 Mn2 2.527621 1_556
Cr0 Hf0 3.069369 1_655
Cr0 Hf0 3.069369 1_556
Cr0 Hf0 3.069370 1_565
Cr0 Zr0 3.071392 1_566
Cr0 Zr0 3.071392 1_665
Cr0 Zr0 3.071392 1_656
