# generated using pymatgen
data_Y(PO3)3
_symmetry_space_group_name_H-M   'P 1'
_cell_length_a   9.80218200
_cell_length_b   7.09810300
_cell_length_c   11.14837098
_cell_angle_alpha   87.92317685
_cell_angle_beta   90.00000000
_cell_angle_gamma   90.00000000
_symmetry_Int_Tables_number   1
_chemical_formula_structural   Y(PO3)3
_chemical_formula_sum   'Y4 P12 O36'
_cell_volume   775.15955430
_cell_formula_units_Z   4
loop_
 _symmetry_equiv_pos_site_id
 _symmetry_equiv_pos_as_xyz
  1  'x, y, z'
loop_
 _atom_site_type_symbol
 _atom_site_label
 _atom_site_symmetry_multiplicity
 _atom_site_fract_x
 _atom_site_fract_y
 _atom_site_fract_z
 _atom_site_occupancy
  Y  Y0  1  0.75000000  0.32549700  0.46273300  1
  Y  Y1  1  0.25000000  0.67450300  0.53726700  1
  Y  Y2  1  0.25000000  0.81066400  0.01948100  1
  Y  Y3  1  0.75000000  0.18933600  0.98051900  1
  P  P0  1  0.75000000  0.67940700  0.89611100  1
  P  P1  1  0.25000000  0.32059300  0.10388900  1
  P  P2  1  0.25000000  0.18572500  0.62606200  1
  P  P3  1  0.75000000  0.81427500  0.37393800  1
  P  P4  1  0.46629700  0.82736400  0.28417500  1
  P  P5  1  0.96629700  0.17263600  0.71582500  1
  P  P6  1  0.53370300  0.17263600  0.71582500  1
  P  P7  1  0.03370300  0.82736400  0.28417500  1
  P  P8  1  0.51044700  0.23267300  0.23191400  1
  P  P9  1  0.01044700  0.76732700  0.76808600  1
  P  P10  1  0.48955300  0.76732700  0.76808600  1
  P  P11  1  0.98955300  0.23267300  0.23191400  1
  O  O0  1  0.37476200  0.34647500  0.19651500  1
  O  O1  1  0.87476200  0.65352500  0.80348500  1
  O  O2  1  0.62523800  0.65352500  0.80348500  1
  O  O3  1  0.12523800  0.34647500  0.19651500  1
  O  O4  1  0.62805700  0.79588800  0.27775800  1
  O  O5  1  0.12805700  0.20411200  0.72224200  1
  O  O6  1  0.37194300  0.20411200  0.72224200  1
  O  O7  1  0.87194300  0.79588800  0.27775800  1
  O  O8  1  0.25000000  0.12632900  0.05518600  1
  O  O9  1  0.75000000  0.87367100  0.94481400  1
  O  O10  1  0.75000000  0.00732500  0.42441400  1
  O  O11  1  0.25000000  0.99267500  0.57558600  1
  O  O12  1  0.25000000  0.48888500  0.01874500  1
  O  O13  1  0.75000000  0.51111500  0.98125500  1
  O  O14  1  0.75000000  0.64574200  0.45953700  1
  O  O15  1  0.25000000  0.35425800  0.54046300  1
  O  O16  1  0.08921100  0.78099400  0.16375800  1
  O  O17  1  0.58921100  0.21900600  0.83624200  1
  O  O18  1  0.91078900  0.21900600  0.83624200  1
  O  O19  1  0.41078900  0.78099400  0.16375800  1
  O  O20  1  0.91487000  0.17388100  0.12162300  1
  O  O21  1  0.41487000  0.82611900  0.87837700  1
  O  O22  1  0.08513000  0.82611900  0.87837700  1
  O  O23  1  0.58513000  0.17388100  0.12162300  1
  O  O24  1  0.09190700  0.73050800  0.39434300  1
  O  O25  1  0.59190700  0.26949200  0.60565700  1
  O  O26  1  0.90809300  0.26949200  0.60565700  1
  O  O27  1  0.40809300  0.73050800  0.39434300  1
  O  O28  1  0.05004200  0.05026900  0.30448600  1
  O  O29  1  0.55004200  0.94973100  0.69551400  1
  O  O30  1  0.94995800  0.94973100  0.69551400  1
  O  O31  1  0.44995800  0.05026900  0.30448600  1
  O  O32  1  0.91455400  0.34823200  0.32032100  1
  O  O33  1  0.41455400  0.65176800  0.67967900  1
  O  O34  1  0.08544600  0.65176800  0.67967900  1
  O  O35  1  0.58544600  0.34823200  0.32032100  1
loop_
_geom_bond_atom_site_label_1
_geom_bond_atom_site_label_2
_geom_bond_distance
_geom_bond_site_symmetry_2
O0 P8 1.598145 1_555
O0 P1 1.615365 1_555
O1 P9 1.598145 1_655
O1 P0 1.615365 1_555
O2 P10 1.598145 1_555
O2 P0 1.615365 1_555
O3 P11 1.598145 1_455
O3 P1 1.615365 1_555
O4 P4 1.603223 1_555
O4 P3 1.614205 1_555
O5 P5 1.603223 1_455
O5 P2 1.614205 1_555
O6 P6 1.603223 1_555
O6 P2 1.614205 1_555
O7 P7 1.603223 1_655
O7 P3 1.614205 1_555
O8 P1 1.500150 1_555
O8 Y2 2.289864 1_545
O9 P0 1.500150 1_555
O9 Y3 2.289864 1_565
O10 P3 1.500080 1_545
O10 Y0 2.313627 1_555
O11 P2 1.500080 1_565
O11 Y1 2.313627 1_555
O12 P1 1.498596 1_555
O12 Y2 2.284333 1_555
O13 P0 1.498596 1_555
O13 Y3 2.284333 1_555
O14 P3 1.502989 1_555
O14 Y0 2.272120 1_555
O15 P2 1.502989 1_555
O15 Y1 2.272120 1_555
O16 P7 1.496189 1_555
O16 Y2 2.256316 1_555
O17 P6 1.496189 1_555
O17 Y3 2.256316 1_555
O18 P5 1.496189 1_555
O18 Y3 2.256316 1_555
O19 P4 1.496189 1_555
O19 Y2 2.256316 1_555
O20 P11 1.503022 1_555
O20 Y3 2.255181 1_554
O21 P10 1.503022 1_555
O21 Y2 2.255181 1_556
O22 P9 1.503022 1_555
O22 Y2 2.255181 1_556
O23 P8 1.503022 1_555
O23 Y3 2.255181 1_554
O24 P7 1.498469 1_555
O24 Y1 2.247751 1_555
O25 P6 1.498469 1_555
O25 Y0 2.247751 1_555
O26 P5 1.498469 1_555
O26 Y0 2.247751 1_555
O27 P4 1.498469 1_555
O27 Y1 2.247751 1_555
O28 P7 1.614390 1_545
O28 P11 1.614472 1_455
O29 P6 1.614390 1_565
O29 P10 1.614472 1_555
O30 P5 1.614390 1_565
O30 P9 1.614472 1_655
O31 P4 1.614390 1_545
O31 P8 1.614472 1_555
O32 P11 1.497749 1_555
O32 Y0 2.264922 1_555
O33 P10 1.497749 1_555
O33 Y1 2.264922 1_555
O34 P9 1.497749 1_555
O34 Y1 2.264922 1_555
O35 P8 1.497749 1_555
O35 Y0 2.264922 1_555
