# generated using pymatgen
data_Sr9Ca11Sb12
_symmetry_space_group_name_H-M   'P 1'
_cell_length_a   8.54611060
_cell_length_b   9.76414154
_cell_length_c   13.00975769
_cell_angle_alpha   89.92780805
_cell_angle_beta   90.18919089
_cell_angle_gamma   89.99088663
_symmetry_Int_Tables_number   1
_chemical_formula_structural   Sr9Ca11Sb12
_chemical_formula_sum   'Sr9 Ca11 Sb12'
_cell_volume   1085.59807592
_cell_formula_units_Z   1
loop_
 _symmetry_equiv_pos_site_id
 _symmetry_equiv_pos_as_xyz
  1  'x, y, z'
loop_
 _atom_site_type_symbol
 _atom_site_label
 _atom_site_symmetry_multiplicity
 _atom_site_fract_x
 _atom_site_fract_y
 _atom_site_fract_z
 _atom_site_occupancy
  Sr  Sr0  1  0.30824336  0.95870699  0.07280202  1
  Sr  Sr1  1  0.68601290  0.74970046  0.22845175  1
  Sr  Sr2  1  0.18360480  0.25121796  0.27359989  1
  Sr  Sr3  1  0.31385689  0.24973510  0.77114207  1
  Sr  Sr4  1  0.81406894  0.75037507  0.72852588  1
  Sr  Sr5  1  0.15929285  0.74806947  0.29388335  1
  Sr  Sr6  1  0.65964053  0.25204564  0.20804092  1
  Sr  Sr7  1  0.83883355  0.24879515  0.70722631  1
  Sr  Sr8  1  0.33977609  0.74821458  0.79157972  1
  Ca  Ca0  1  0.80819880  0.04081935  0.42556434  1
  Ca  Ca1  1  0.69149708  0.45834424  0.92272563  1
  Ca  Ca2  1  0.19054792  0.54053645  0.57446318  1
  Ca  Ca3  1  0.69498717  0.04107153  0.92600688  1
  Ca  Ca4  1  0.19164079  0.95891832  0.57369472  1
  Ca  Ca5  1  0.31073580  0.54127343  0.07473697  1
  Ca  Ca6  1  0.80783615  0.45918968  0.42714949  1
  Ca  Ca7  1  0.53496295  0.75011003  0.50477760  1
  Ca  Ca8  1  0.03487809  0.25337069  0.99542353  1
  Ca  Ca9  1  0.46487427  0.24957583  0.49606597  1
  Ca  Ca10  1  0.96298311  0.74625180  0.00457366  1
  Sb  Sb0  1  0.94028884  0.01147179  0.16792960  1
  Sb  Sb1  1  0.44452580  0.99023225  0.33517759  1
  Sb  Sb2  1  0.05445769  0.50927767  0.83222197  1
  Sb  Sb3  1  0.55452199  0.48964626  0.66581099  1
  Sb  Sb4  1  0.05503158  0.99000370  0.83385422  1
  Sb  Sb5  1  0.55383501  0.00946923  0.66743265  1
  Sb  Sb6  1  0.94593431  0.49010946  0.16770902  1
  Sb  Sb7  1  0.44587185  0.50975842  0.33333286  1
  Sb  Sb8  1  0.58417512  0.74775306  0.98153860  1
  Sb  Sb9  1  0.07844247  0.24978603  0.51667158  1
  Sb  Sb10  1  0.42569800  0.25612850  0.01318663  1
  Sb  Sb11  1  0.92074432  0.75004388  0.48470040  1
loop_
_geom_bond_atom_site_label_1
_geom_bond_atom_site_label_2
_geom_bond_distance
_geom_bond_site_symmetry_2
Ca0 Sb11 3.093000 1_545
Ca0 Sb9 3.300228 1_655
Ca0 Sb1 3.356212 1_545
Ca0 Sb0 3.552192 1_555
Ca0 Sb5 3.842337 1_555
Ca1 Sb8 3.069404 1_555
Ca1 Sb10 3.233682 1_556
Ca1 Sb2 3.358363 1_655
Ca1 Sb3 3.550609 1_555
Ca2 Sb9 3.089365 1_555
Ca2 Sb11 3.292376 1_455
Ca2 Sb3 3.362803 1_555
Ca2 Sb2 3.565707 1_555
Ca2 Sb7 3.839269 1_555
Ca3 Sb8 3.101847 1_545
Ca3 Sb10 3.318699 1_556
Ca3 Sb4 3.343522 1_645
Ca3 Sb5 3.583676 1_555
Ca3 Sb0 3.786570 1_556
Ca4 Sb9 3.088903 1_565
Ca4 Sb11 3.293851 1_455
Ca4 Sb5 3.359926 1_565
Ca4 Sb4 3.597124 1_555
Ca4 Sb1 3.799372 1_555
Ca5 Sb10 3.060745 1_555
Ca5 Sb8 3.318080 1_554
Ca5 Sb6 3.384684 1_455
Ca5 Sb7 3.566285 1_555
Ca6 Sb11 3.091665 1_555
Ca6 Sb9 3.295450 1_655
Ca6 Sb7 3.357916 1_555
Ca6 Sb6 3.591691 1_555
Ca6 Sb3 3.802908 1_555
Ca7 Sb3 3.296818 1_555
Ca7 Sb5 3.305818 1_565
Ca7 Sb1 3.307266 1_555
Ca7 Sb11 3.308121 1_555
Ca7 Sb7 3.326375 1_555
Ca8 Sb2 3.281570 1_555
Ca8 Sb6 3.311894 1_456
Ca8 Sb4 3.328172 1_545
Ca8 Sb10 3.347329 1_556
Ca8 Sb0 3.356805 1_456
Ca9 Sb1 3.291635 1_545
Ca9 Sb7 3.308556 1_555
Ca9 Sb3 3.310726 1_555
Ca9 Sb9 3.314234 1_555
Ca9 Sb5 3.319616 1_555
Ca10 Sb8 3.250220 1_554
Ca10 Sb6 3.281682 1_555
Ca10 Sb2 3.319158 1_654
Ca10 Sb4 3.348895 1_654
Ca10 Sb0 3.358106 1_565
Sb0 Sr6 3.398858 1_555
Sb0 Sr2 3.418262 1_655
Sb0 Sr0 3.422314 1_645
Sb0 Sr1 3.447200 1_545
Sb0 Sr5 3.573564 1_645
Sb1 Sr1 3.424689 1_555
Sb1 Sr5 3.437727 1_555
Sb1 Sr2 3.476945 1_565
Sb1 Sr6 3.558298 1_565
Sb1 Sr0 3.616537 1_555
Sb2 Sr4 3.399186 1_455
Sb2 Sr8 3.416922 1_555
Sb2 Sr3 3.461651 1_555
Sb2 Sr7 3.535686 1_455
Sb3 Sr3 3.406981 1_555
Sb3 Sr7 3.422118 1_555
Sb3 Sr4 3.473023 1_555
Sb3 Sr8 3.528200 1_555
Sb4 Sr4 3.403512 1_455
Sb4 Sr8 3.436300 1_555
Sb4 Sr3 3.463874 1_565
Sb4 Sr7 3.532813 1_465
Sb4 Sr0 3.793793 1_556
Sb5 Sr3 3.399254 1_555
Sb5 Sr7 3.414313 1_555
Sb5 Sr4 3.458231 1_545
Sb5 Sr8 3.531723 1_545
Sb6 Sr2 3.381749 1_655
Sb6 Sr6 3.416448 1_555
Sb6 Sr1 3.463843 1_555
Sb6 Sr5 3.515040 1_655
Sb7 Sr1 3.402121 1_555
Sb7 Sr5 3.415117 1_555
Sb7 Sr2 3.463463 1_555
Sb7 Sr6 3.514970 1_555
Sb8 Sr8 3.230453 1_555
Sb8 Sr1 3.325395 1_556
Sb8 Sr0 3.352070 1_556
Sb8 Sr4 3.839018 1_555
Sb9 Sr7 3.220642 1_455
Sb9 Sr2 3.290400 1_555
Sb9 Sr3 3.868298 1_555
Sb10 Sr0 3.169084 1_545
Sb10 Sr6 3.223553 1_555
Sb10 Sr3 3.288454 1_554
Sb11 Sr5 3.217572 1_655
Sb11 Sr4 3.303414 1_555
Sb11 Sr1 3.885080 1_555
