# generated using pymatgen
data_NaCr2(Sb6Os)2
_symmetry_space_group_name_H-M   'P 1'
_cell_length_a   8.24334521
_cell_length_b   8.24334418
_cell_length_c   8.16393496
_cell_angle_alpha   109.46215870
_cell_angle_beta   109.06687700
_cell_angle_gamma   110.27344211
_symmetry_Int_Tables_number   1
_chemical_formula_structural   NaCr2(Sb6Os)2
_chemical_formula_sum   'Na1 Cr2 Sb12 Os2'
_cell_volume   424.95742269
_cell_formula_units_Z   1
loop_
 _symmetry_equiv_pos_site_id
 _symmetry_equiv_pos_as_xyz
  1  'x, y, z'
loop_
 _atom_site_type_symbol
 _atom_site_label
 _atom_site_symmetry_multiplicity
 _atom_site_fract_x
 _atom_site_fract_y
 _atom_site_fract_z
 _atom_site_occupancy
  Na  Na0  1  0.00000000  0.00000000  0.00000000  1
  Cr  Cr0  1  0.50000000  0.50000000  0.50000000  1
  Cr  Cr1  1  0.00000000  0.00000000  0.50000000  1
  Sb  Sb0  1  0.84960589  0.65041347  0.50002037  1
  Sb  Sb1  1  0.15039411  0.34958653  0.49997963  1
  Sb  Sb2  1  0.15445634  0.66356721  0.81802455  1
  Sb  Sb3  1  0.84554366  0.33643279  0.18197545  1
  Sb  Sb4  1  0.66411933  0.50290283  0.85338590  1
  Sb  Sb5  1  0.33588067  0.49709717  0.14661410  1
  Sb  Sb6  1  0.64951693  0.81073443  0.14661410  1
  Sb  Sb7  1  0.35048307  0.18926557  0.85338590  1
  Sb  Sb8  1  0.50153437  0.85157322  0.66131926  1
  Sb  Sb9  1  0.49846563  0.14842678  0.33868074  1
  Sb  Sb10  1  0.19025396  0.84021511  0.33868074  1
  Sb  Sb11  1  0.80974604  0.15978489  0.66131926  1
  Os  Os0  1  0.50000000  0.00000000  0.00000000  1
  Os  Os1  1  0.00000000  0.50000000  0.00000000  1
loop_
_geom_bond_atom_site_label_1
_geom_bond_atom_site_label_2
_geom_bond_distance
_geom_bond_site_symmetry_2
Na0 Sb3 3.529444 1_455
Na0 Sb2 3.529444 1_544
Na0 Sb7 3.548811 1_554
Na0 Sb6 3.548811 1_445
Na0 Sb5 3.548813 1_555
Na0 Sb4 3.548813 1_444
Na0 Sb9 3.586766 1_555
Na0 Sb8 3.586766 1_444
Na0 Sb10 3.586766 1_545
Na0 Sb11 3.586766 1_454
Na0 Sb1 3.589184 1_555
Na0 Sb0 3.589184 1_444
Cr0 Sb1 2.714053 1_555
Cr0 Sb0 2.714053 1_555
Cr0 Sb4 2.745125 1_555
Cr0 Sb5 2.745125 1_555
Cr0 Sb8 2.748480 1_555
Cr0 Sb9 2.748480 1_555
Cr1 Sb1 2.714060 1_555
Cr1 Sb0 2.714060 1_445
Cr1 Sb7 2.745126 1_555
Cr1 Sb6 2.745126 1_445
Cr1 Sb11 2.748481 1_455
Cr1 Sb10 2.748481 1_545
Sb0 Sb2 2.903106 1_655
Sb0 Sb3 2.974364 1_555
Sb1 Sb3 2.903106 1_455
Sb1 Sb2 2.974364 1_555
Sb4 Sb6 2.921717 1_556
Sb4 Sb7 2.955751 1_555
Sb5 Sb7 2.921717 1_554
Sb5 Sb6 2.955751 1_555
Sb10 Sb9 2.904625 1_565
Sb10 Sb8 2.963844 1_555
Sb11 Sb8 2.904625 1_545
Sb11 Sb9 2.963844 1_555
Os0 Sb9 2.630868 1_555
Os0 Sb8 2.630868 1_544
Os0 Sb6 2.645586 1_545
Os0 Sb7 2.645586 1_554
Os0 Sb3 2.650900 1_555
Os0 Sb2 2.650900 1_544
Os1 Sb10 2.630868 1_555
Os1 Sb11 2.630868 1_454
Os1 Sb5 2.645594 1_555
Os1 Sb4 2.645594 1_454
Os1 Sb2 2.650892 1_554
Os1 Sb3 2.650892 1_455
