# generated using pymatgen
data_CdPtCl6
_symmetry_space_group_name_H-M   'P 1'
_cell_length_a   6.43245191
_cell_length_b   6.43245125
_cell_length_c   11.74875698
_cell_angle_alpha   90.00000000
_cell_angle_beta   90.00000000
_cell_angle_gamma   120.00000341
_symmetry_Int_Tables_number   1
_chemical_formula_structural   CdPtCl6
_chemical_formula_sum   'Cd2 Pt2 Cl12'
_cell_volume   420.99369212
_cell_formula_units_Z   2
loop_
 _symmetry_equiv_pos_site_id
 _symmetry_equiv_pos_as_xyz
  1  'x, y, z'
loop_
 _atom_site_type_symbol
 _atom_site_label
 _atom_site_symmetry_multiplicity
 _atom_site_fract_x
 _atom_site_fract_y
 _atom_site_fract_z
 _atom_site_occupancy
  Cd  Cd0  1  0.00000000  0.00000000  0.25000000  1
  Cd  Cd1  1  0.00000000  0.00000000  0.75000000  1
  Pt  Pt0  1  0.33333300  0.66666700  0.25000000  1
  Pt  Pt1  1  0.66666700  0.33333300  0.75000000  1
  Cl  Cl0  1  0.62951620  0.95970715  0.13382731  1
  Cl  Cl1  1  0.04029285  0.66981005  0.13382731  1
  Cl  Cl2  1  0.33018995  0.37048380  0.13382731  1
  Cl  Cl3  1  0.04029285  0.37048380  0.36617269  1
  Cl  Cl4  1  0.37048380  0.33018995  0.63382731  1
  Cl  Cl5  1  0.66981005  0.04029285  0.63382731  1
  Cl  Cl6  1  0.95970715  0.62951620  0.63382731  1
  Cl  Cl7  1  0.66981005  0.62951620  0.86617269  1
  Cl  Cl8  1  0.95970715  0.33018995  0.86617269  1
  Cl  Cl9  1  0.37048380  0.04029285  0.86617269  1
  Cl  Cl10  1  0.62951620  0.66981005  0.36617269  1
  Cl  Cl11  1  0.33018995  0.95970715  0.36617269  1
loop_
_geom_bond_atom_site_label_1
_geom_bond_atom_site_label_2
_geom_bond_distance
_geom_bond_site_symmetry_2
Cd0 Cl1 2.644173 1_545
Cd0 Cl11 2.644173 1_545
Cd0 Cl2 2.644176 1_555
Cd0 Cl10 2.644176 1_445
Cd0 Cl3 2.644179 1_555
Cd0 Cl0 2.644179 1_445
Cd1 Cl8 2.644173 1_455
Cd1 Cl5 2.644173 1_455
Cd1 Cl7 2.644176 1_445
Cd1 Cl4 2.644176 1_555
Cd1 Cl6 2.644179 1_445
Cd1 Cl9 2.644179 1_555
Cl0 Pt0 2.335493 1_555
Cl1 Pt0 2.335493 1_555
Cl2 Pt0 2.335493 1_555
Cl3 Pt0 2.335493 1_555
Cl4 Pt1 2.335493 1_555
Cl5 Pt1 2.335493 1_555
Cl6 Pt1 2.335493 1_555
Cl7 Pt1 2.335493 1_555
Cl8 Pt1 2.335493 1_555
Cl9 Pt1 2.335493 1_555
Cl10 Pt0 2.335493 1_555
Cl11 Pt0 2.335493 1_555
