# generated using pymatgen
data_Rb6As(IrBr6)3
_symmetry_space_group_name_H-M   'P 1'
_cell_length_a   7.42252184
_cell_length_b   7.42252117
_cell_length_c   19.11609910
_cell_angle_alpha   90.00000000
_cell_angle_beta   90.00000000
_cell_angle_gamma   120.00000295
_symmetry_Int_Tables_number   1
_chemical_formula_structural   Rb6As(IrBr6)3
_chemical_formula_sum   'Rb6 As1 Ir3 Br18'
_cell_volume   912.07976532
_cell_formula_units_Z   1
loop_
 _symmetry_equiv_pos_site_id
 _symmetry_equiv_pos_as_xyz
  1  'x, y, z'
loop_
 _atom_site_type_symbol
 _atom_site_label
 _atom_site_symmetry_multiplicity
 _atom_site_fract_x
 _atom_site_fract_y
 _atom_site_fract_z
 _atom_site_occupancy
  Rb  Rb0  1  0.33333300  0.66666700  0.07259394  1
  Rb  Rb1  1  0.66666700  0.33333300  0.93908323  1
  Rb  Rb2  1  0.66666700  0.33333300  0.56976222  1
  Rb  Rb3  1  0.33333300  0.66666700  0.43931561  1
  Rb  Rb4  1  0.00000000  0.00000000  0.25568147  1
  Rb  Rb5  1  0.00000000  0.00000000  0.73302700  1
  As  As0  1  0.33333300  0.66666700  0.84454542  1
  Ir  Ir0  1  0.33333300  0.66666700  0.66273036  1
  Ir  Ir1  1  0.66666700  0.33333300  0.33593917  1
  Ir  Ir2  1  0.66666700  0.33333300  0.16489873  1
  Br  Br0  1  0.17468536  0.34937072  0.58826388  1
  Br  Br1  1  0.82515526  0.65030952  0.40880673  1
  Br  Br2  1  0.65062928  0.82531464  0.58826388  1
  Br  Br3  1  0.82561461  0.65122922  0.09190958  1
  Br  Br4  1  0.34969048  0.17484474  0.40880673  1
  Br  Br5  1  0.16913580  0.33827259  0.91462746  1
  Br  Br6  1  0.17468536  0.82531464  0.58826388  1
  Br  Br7  1  0.34877078  0.17438539  0.09190958  1
  Br  Br8  1  0.82515526  0.17484474  0.40880673  1
  Br  Br9  1  0.66172741  0.83086420  0.91462746  1
  Br  Br10  1  0.82561461  0.17438539  0.09190958  1
  Br  Br11  1  0.16913580  0.83086420  0.91462746  1
  Br  Br12  1  0.51435169  0.02870537  0.24995325  1
  Br  Br13  1  0.49331392  0.98662883  0.74057905  1
  Br  Br14  1  0.97129463  0.48564831  0.24995325  1
  Br  Br15  1  0.01337117  0.50668608  0.74057905  1
  Br  Br16  1  0.51435169  0.48564831  0.24995325  1
  Br  Br17  1  0.49331392  0.50668608  0.74057905  1
loop_
_geom_bond_atom_site_label_1
_geom_bond_atom_site_label_2
_geom_bond_distance
_geom_bond_site_symmetry_2
As0 Br5 2.500178 1_555
As0 Br11 2.500178 1_555
As0 Br9 2.500178 1_555
As0 Br13 2.860084 1_555
As0 Br17 2.860084 1_555
As0 Br15 2.860084 1_555
Br0 Ir0 2.487244 1_555
Br0 Rb3 3.502453 1_555
Br0 Rb5 3.563922 1_555
Br0 Rb2 3.729497 1_455
Br0 Rb2 3.729504 1_555
Br1 Ir1 2.468181 1_555
Br1 Rb2 3.690336 1_555
Br1 Rb4 3.690670 1_665
Br1 Rb3 3.758270 1_655
Br1 Rb3 3.758285 1_555
Br2 Ir0 2.487244 1_555
Br2 Rb3 3.502454 1_555
Br2 Rb5 3.563922 1_665
Br2 Rb2 3.729497 1_565
Br2 Rb2 3.729504 1_555
Br3 Ir2 2.474374 1_555
Br3 Rb1 3.565191 1_554
Br3 Rb0 3.730900 1_655
Br3 Rb0 3.730907 1_555
Br3 Rb4 3.850637 1_665
Br4 Ir1 2.468181 1_555
Br4 Rb2 3.690336 1_555
Br4 Rb4 3.690670 1_555
Br4 Rb3 3.758270 1_545
Br4 Rb3 3.758284 1_555
Br5 Rb0 3.684388 1_556
Br5 Rb1 3.740717 1_455
Br5 Rb1 3.740732 1_555
Br5 Rb5 4.096277 1_555
Br6 Ir0 2.487239 1_555
Br6 Rb3 3.502450 1_555
Br6 Rb5 3.563922 1_565
Br6 Rb2 3.729500 1_565
Br6 Rb2 3.729500 1_455
Br7 Ir2 2.474374 1_555
Br7 Rb1 3.565191 1_554
Br7 Rb0 3.730900 1_545
Br7 Rb0 3.730907 1_555
Br7 Rb4 3.850638 1_555
Br8 Ir1 2.468181 1_555
Br8 Rb2 3.690336 1_555
Br8 Rb4 3.690666 1_655
Br8 Rb3 3.758277 1_545
Br8 Rb3 3.758277 1_655
Br9 Rb0 3.684388 1_556
Br9 Rb1 3.740717 1_565
Br9 Rb1 3.740732 1_555
Br9 Rb5 4.096277 1_665
Br10 Ir2 2.474369 1_555
Br10 Rb1 3.565187 1_554
Br10 Rb0 3.730903 1_545
Br10 Rb0 3.730903 1_655
Br10 Rb4 3.850638 1_655
Br11 Rb0 3.684388 1_556
Br11 Rb1 3.740724 1_565
Br11 Rb1 3.740724 1_455
Br11 Rb5 4.096273 1_565
Br12 Ir2 2.545198 1_555
Br12 Ir1 2.556608 1_555
Br12 Rb4 3.717451 1_555
Br12 Rb4 3.717466 1_655
Br13 Ir0 2.538666 1_555
Br13 Rb5 3.715058 1_565
Br13 Rb5 3.715066 1_665
Br13 Rb2 3.953401 1_565
Br14 Ir2 2.545198 1_555
Br14 Ir1 2.556609 1_555
Br14 Rb4 3.717451 1_665
Br14 Rb4 3.717465 1_655
Br15 Ir0 2.538666 1_555
Br15 Rb5 3.715058 1_565
Br15 Rb5 3.715065 1_555
Br15 Rb2 3.953402 1_455
Br16 Ir2 2.545213 1_555
Br16 Ir1 2.556623 1_555
Br16 Rb4 3.717457 1_665
Br16 Rb4 3.717457 1_555
Br17 Ir0 2.538666 1_555
Br17 Rb5 3.715062 1_555
Br17 Rb5 3.715062 1_665
Br17 Rb2 3.953409 1_555
