# generated using pymatgen
data_Sc2H6OsRh
_symmetry_space_group_name_H-M   'P 1'
_cell_length_a   5.77047858
_cell_length_b   5.77047822
_cell_length_c   4.53601216
_cell_angle_alpha   90.00000000
_cell_angle_beta   90.00000000
_cell_angle_gamma   144.30425511
_symmetry_Int_Tables_number   1
_chemical_formula_structural   Sc2H6OsRh
_chemical_formula_sum   'Sc2 H6 Os1 Rh1'
_cell_volume   88.13014673
_cell_formula_units_Z   1
loop_
 _symmetry_equiv_pos_site_id
 _symmetry_equiv_pos_as_xyz
  1  'x, y, z'
loop_
 _atom_site_type_symbol
 _atom_site_label
 _atom_site_symmetry_multiplicity
 _atom_site_fract_x
 _atom_site_fract_y
 _atom_site_fract_z
 _atom_site_occupancy
  Sc  Sc0  1  0.12761179  0.87239021  0.25000100  1
  Sc  Sc1  1  0.87079278  0.12920922  0.75000000  1
  H  H0  1  0.69135734  0.30864466  0.00942413  1
  H  H1  1  0.91806272  0.08193928  0.25000100  1
  H  H2  1  0.69135734  0.30864466  0.49057487  1
  H  H3  1  0.30897949  0.69102251  0.50852333  1
  H  H4  1  0.07872498  0.92127702  0.75000000  1
  H  H5  1  0.30897949  0.69102251  0.99147567  1
  Os  Os0  1  0.41867097  0.58133103  0.25000100  1
  Rh  Rh0  1  0.58547311  0.41452889  0.75000000  1
loop_
_geom_bond_atom_site_label_1
_geom_bond_atom_site_label_2
_geom_bond_distance
_geom_bond_site_symmetry_2
H0 Rh0 1.654619 1_554
H0 Sc0 2.192984 1_655
H0 Sc0 2.192984 1_545
H0 Sc1 2.295724 1_554
H1 Os0 1.768611 1_545
H1 Os0 1.768611 1_655
H1 Sc0 2.302008 1_645
H1 Sc1 2.326690 1_555
H1 Sc1 2.326699 1_554
H2 Rh0 1.654622 1_555
H2 Sc0 2.192977 1_655
H2 Sc0 2.192977 1_545
H2 Sc1 2.295726 1_555
H3 Os0 1.681429 1_555
H3 Sc1 2.188338 1_455
H3 Sc1 2.188338 1_565
H3 Sc0 2.311898 1_555
H4 Rh0 1.770151 1_455
H4 Rh0 1.770151 1_565
H4 Sc1 2.284246 1_465
H4 Sc0 2.330719 1_555
H4 Sc0 2.330728 1_556
H5 Os0 1.681439 1_556
H5 Sc1 2.188336 1_455
H5 Sc1 2.188336 1_565
H5 Sc0 2.311905 1_556
