# generated using pymatgen
data_Ta2NiO6
_symmetry_space_group_name_H-M   'P 1'
_cell_length_a   4.73005294
_cell_length_b   4.73005294
_cell_length_c   9.09467584
_cell_angle_alpha   90.00000000
_cell_angle_beta   90.00000000
_cell_angle_gamma   90.00000000
_symmetry_Int_Tables_number   1
_chemical_formula_structural   Ta2NiO6
_chemical_formula_sum   'Ta4 Ni2 O12'
_cell_volume   203.47882785
_cell_formula_units_Z   2
loop_
 _symmetry_equiv_pos_site_id
 _symmetry_equiv_pos_as_xyz
  1  'x, y, z'
loop_
 _atom_site_type_symbol
 _atom_site_label
 _atom_site_symmetry_multiplicity
 _atom_site_fract_x
 _atom_site_fract_y
 _atom_site_fract_z
 _atom_site_occupancy
  Ta  Ta0  1  0.50000000  0.50000000  0.16878006  1
  Ta  Ta1  1  0.00000000  -0.00000000  0.66878006  1
  Ta  Ta2  1  0.50000000  0.50000000  0.83121994  1
  Ta  Ta3  1  0.00000000  -0.00000000  0.33121994  1
  Ni  Ni0  1  0.50000000  0.50000000  0.50000000  1
  Ni  Ni1  1  0.00000000  -0.00000000  0.00000000  1
  O  O0  1  0.19113405  0.80886595  0.50000000  1
  O  O1  1  0.80886595  0.19113405  0.50000000  1
  O  O2  1  0.30886595  0.30886595  0.00000000  1
  O  O3  1  0.69113405  0.69113405  0.00000000  1
  O  O4  1  0.20237395  0.79762605  0.17342499  1
  O  O5  1  0.79762605  0.20237395  0.17342499  1
  O  O6  1  0.29762605  0.29762605  0.67342499  1
  O  O7  1  0.70237395  0.70237395  0.67342499  1
  O  O8  1  0.79762605  0.20237395  0.82657501  1
  O  O9  1  0.20237395  0.79762605  0.82657501  1
  O  O10  1  0.70237395  0.70237395  0.32657501  1
  O  O11  1  0.29762605  0.29762605  0.32657501  1
loop_
_geom_bond_atom_site_label_1
_geom_bond_atom_site_label_2
_geom_bond_distance
_geom_bond_site_symmetry_2
Ni0 O1 2.066099 1_555
Ni0 O0 2.066099 1_555
Ni0 O11 2.078536 1_555
Ni0 O6 2.078536 1_555
Ni0 O10 2.078536 1_555
Ni0 O7 2.078536 1_555
Ni1 O3 2.066099 1_445
Ni1 O2 2.066099 1_555
Ni1 O4 2.078536 1_545
Ni1 O8 2.078536 1_454
Ni1 O5 2.078536 1_455
Ni1 O9 2.078536 1_544
O0 Ta1 1.997730 1_565
O0 Ta3 1.997730 1_565
O1 Ta3 1.997730 1_655
O1 Ta1 1.997730 1_655
O2 Ta0 1.997730 1_555
O2 Ta2 1.997730 1_554
O3 Ta0 1.997730 1_555
O3 Ta2 1.997730 1_554
O4 Ta3 1.972843 1_565
O4 Ta0 1.991360 1_555
O5 Ta3 1.972843 1_655
O5 Ta0 1.991360 1_555
O6 Ta2 1.972843 1_555
O6 Ta1 1.991360 1_555
O7 Ta2 1.972843 1_555
O7 Ta1 1.991360 1_665
O8 Ta1 1.972843 1_655
O8 Ta2 1.991360 1_555
O9 Ta1 1.972843 1_565
O9 Ta2 1.991360 1_555
O10 Ta0 1.972843 1_555
O10 Ta3 1.991360 1_665
O11 Ta0 1.972843 1_555
O11 Ta3 1.991360 1_555
