# generated using pymatgen
data_Rb2Bi(TeO4)3
_symmetry_space_group_name_H-M   'P 1'
_cell_length_a   7.40846596
_cell_length_b   7.40846526
_cell_length_c   7.40807714
_cell_angle_alpha   59.00761832
_cell_angle_beta   59.00762117
_cell_angle_gamma   59.00436255
_symmetry_Int_Tables_number   1
_chemical_formula_structural   Rb2Bi(TeO4)3
_chemical_formula_sum   'Rb2 Bi1 Te3 O12'
_cell_volume   280.99103234
_cell_formula_units_Z   1
loop_
 _symmetry_equiv_pos_site_id
 _symmetry_equiv_pos_as_xyz
  1  'x, y, z'
loop_
 _atom_site_type_symbol
 _atom_site_label
 _atom_site_symmetry_multiplicity
 _atom_site_fract_x
 _atom_site_fract_y
 _atom_site_fract_z
 _atom_site_occupancy
  Rb  Rb0  1  0.11453930  0.12538468  0.61895109  1
  Rb  Rb1  1  0.87461532  0.88546070  0.38104891  1
  Bi  Bi0  1  0.49739833  0.50260167  0.00000000  1
  Te  Te0  1  0.49763745  0.00244089  0.99991932  1
  Te  Te1  1  0.99755911  0.50236255  0.00008068  1
  Te  Te2  1  0.49755861  0.50244139  0.50000000  1
  O  O0  1  0.80909100  0.81367134  0.91851635  1
  O  O1  1  0.41464193  0.41855294  0.35935125  1
  O  O2  1  0.41489182  0.86182968  0.91582169  1
  O  O3  1  0.80894627  0.42033885  0.31137273  1
  O  O4  1  0.85659647  0.41932093  0.91662758  1
  O  O5  1  0.41579950  0.81355937  0.31111712  1
  O  O6  1  0.18632866  0.19090900  0.08148365  1
  O  O7  1  0.58144706  0.58535807  0.64064875  1
  O  O8  1  0.58067907  0.14340353  0.08337242  1
  O  O9  1  0.18644063  0.58420050  0.68888288  1
  O  O10  1  0.13817032  0.58510818  0.08417831  1
  O  O11  1  0.57966115  0.19105373  0.68862727  1
loop_
_geom_bond_atom_site_label_1
_geom_bond_atom_site_label_2
_geom_bond_distance
_geom_bond_site_symmetry_2
Bi0 O8 2.202818 1_555
Bi0 O4 2.202818 1_554
Bi0 O2 2.202984 1_554
Bi0 O10 2.202984 1_555
Bi0 O1 2.203554 1_555
Bi0 O7 2.203554 1_554
O0 Te1 1.936697 1_556
O0 Te0 1.937920 1_565
O0 Rb0 3.211113 1_665
O1 Te2 1.889034 1_555
O1 Rb0 3.102792 1_555
O2 Te0 1.889040 1_565
O2 Rb0 3.121378 1_565
O3 Te1 1.937171 1_555
O3 Te2 1.937711 1_555
O3 Rb0 3.190927 1_655
O4 Te1 1.889336 1_556
O4 Rb0 3.094571 1_655
O5 Te2 1.936726 1_555
O5 Te0 1.937151 1_564
O5 Rb0 3.223662 1_565
O6 Te0 1.936698 1_554
O6 Te1 1.937920 1_455
O6 Rb1 3.211113 1_445
O7 Te2 1.889034 1_555
O7 Rb1 3.102792 1_555
O8 Te0 1.889336 1_554
O8 Rb1 3.094571 1_545
O9 Te2 1.936727 1_555
O9 Te1 1.937151 1_456
O9 Rb1 3.223662 1_455
O10 Te1 1.889040 1_455
O10 Rb1 3.121378 1_455
O11 Te0 1.937171 1_555
O11 Te2 1.937711 1_555
O11 Rb1 3.190927 1_545
