# generated using pymatgen
data_SrCa(Si7Ir3)2
_symmetry_space_group_name_H-M   'P 1'
_cell_length_a   8.01883695
_cell_length_b   8.01883742
_cell_length_c   8.01883757
_cell_angle_alpha   56.97033142
_cell_angle_beta   56.97032902
_cell_angle_gamma   56.97032962
_symmetry_Int_Tables_number   1
_chemical_formula_structural   SrCa(Si7Ir3)2
_chemical_formula_sum   'Sr1 Ca1 Si14 Ir6'
_cell_volume   339.12830546
_cell_formula_units_Z   1
loop_
 _symmetry_equiv_pos_site_id
 _symmetry_equiv_pos_as_xyz
  1  'x, y, z'
loop_
 _atom_site_type_symbol
 _atom_site_label
 _atom_site_symmetry_multiplicity
 _atom_site_fract_x
 _atom_site_fract_y
 _atom_site_fract_z
 _atom_site_occupancy
  Sr  Sr0  1  0.50000000  0.50000000  0.50000000  1
  Ca  Ca0  1  0.00000000  0.00000000  0.00000000  1
  Si  Si0  1  0.06176819  0.85114154  0.67614173  1
  Si  Si1  1  0.67614173  0.06176819  0.85114154  1
  Si  Si2  1  0.85114154  0.67614173  0.06176819  1
  Si  Si3  1  0.17428517  0.34863532  0.56369244  1
  Si  Si4  1  0.56369244  0.17428517  0.34863532  1
  Si  Si5  1  0.34863532  0.56369244  0.17428517  1
  Si  Si6  1  0.93823181  0.14885846  0.32385827  1
  Si  Si7  1  0.32385827  0.93823181  0.14885846  1
  Si  Si8  1  0.14885846  0.32385827  0.93823181  1
  Si  Si9  1  0.82571483  0.65136468  0.43630756  1
  Si  Si10  1  0.43630756  0.82571483  0.65136468  1
  Si  Si11  1  0.65136468  0.43630756  0.82571483  1
  Si  Si12  1  0.74993788  0.74993788  0.74993788  1
  Si  Si13  1  0.25006212  0.25006212  0.25006212  1
  Ir  Ir0  1  0.06841804  0.75166970  0.42892207  1
  Ir  Ir1  1  0.42892207  0.06841804  0.75166970  1
  Ir  Ir2  1  0.75166970  0.42892207  0.06841804  1
  Ir  Ir3  1  0.93158196  0.24833030  0.57107793  1
  Ir  Ir4  1  0.57107793  0.93158196  0.24833030  1
  Ir  Ir5  1  0.24833030  0.57107793  0.93158196  1
loop_
_geom_bond_atom_site_label_1
_geom_bond_atom_site_label_2
_geom_bond_distance
_geom_bond_site_symmetry_2
Ca0 Ir1 3.081534 1_554
Ca0 Ir4 3.081534 1_445
Ca0 Ir2 3.081534 1_455
Ca0 Ir5 3.081534 1_544
Ca0 Ir0 3.081534 1_545
Ca0 Ir3 3.081534 1_454
Ca0 Si7 3.122019 1_545
Ca0 Si1 3.122019 1_454
Ca0 Si8 3.122019 1_554
Ca0 Si2 3.122019 1_445
Ca0 Si6 3.122019 1_455
Ca0 Si0 3.122019 1_544
Ca0 Si4 3.205571 1_455
Ca0 Si10 3.205571 1_544
Ca0 Si5 3.205571 1_545
Ca0 Si11 3.205571 1_454
Ca0 Si3 3.205572 1_554
Ca0 Si9 3.205572 1_445
Si0 Sr0 3.226494 1_555
Si1 Sr0 3.226494 1_555
Si2 Sr0 3.226494 1_555
Si3 Sr0 3.143534 1_555
Si4 Sr0 3.143534 1_555
Si5 Sr0 3.143534 1_555
Si6 Sr0 3.226494 1_555
Si7 Sr0 3.226494 1_555
Si8 Sr0 3.226494 1_555
Si9 Sr0 3.143534 1_555
Si10 Sr0 3.143534 1_555
Si11 Sr0 3.143534 1_555
Ir0 Si9 2.442756 1_455
Ir0 Si12 2.445752 1_455
Ir0 Si0 2.476138 1_555
Ir0 Si7 2.477993 1_555
Ir0 Si5 2.480261 1_555
Ir0 Si6 2.520452 1_465
Ir0 Si3 2.556406 1_555
Ir0 Sr0 3.107605 1_555
Ir1 Si10 2.442756 1_545
Ir1 Si12 2.445752 1_545
Ir1 Si1 2.476138 1_555
Ir1 Si8 2.477993 1_555
Ir1 Si3 2.480261 1_555
Ir1 Si7 2.520452 1_546
Ir1 Si4 2.556406 1_555
Ir1 Sr0 3.107605 1_555
Ir2 Si11 2.442756 1_554
Ir2 Si12 2.445752 1_554
Ir2 Si2 2.476138 1_555
Ir2 Si6 2.477993 1_555
Ir2 Si4 2.480261 1_555
Ir2 Si8 2.520452 1_654
Ir2 Si5 2.556406 1_555
Ir2 Sr0 3.107605 1_555
Ir3 Si3 2.442756 1_655
Ir3 Si13 2.445752 1_655
Ir3 Si6 2.476138 1_555
Ir3 Si1 2.477993 1_555
Ir3 Si11 2.480261 1_555
Ir3 Si0 2.520452 1_645
Ir3 Si9 2.556406 1_555
Ir3 Sr0 3.107605 1_555
Ir4 Si4 2.442756 1_565
Ir4 Si13 2.445752 1_565
Ir4 Si7 2.476138 1_555
Ir4 Si2 2.477993 1_555
Ir4 Si9 2.480261 1_555
Ir4 Si1 2.520452 1_564
Ir4 Si10 2.556406 1_555
Ir4 Sr0 3.107605 1_555
Ir5 Si5 2.442756 1_556
Ir5 Si13 2.445752 1_556
Ir5 Si8 2.476138 1_555
Ir5 Si0 2.477993 1_555
Ir5 Si10 2.480261 1_555
Ir5 Si2 2.520452 1_456
Ir5 Si11 2.556406 1_555
Ir5 Sr0 3.107605 1_555
