# generated using pymatgen
data_KZr2V3O12
_symmetry_space_group_name_H-M   'P 1'
_cell_length_a   9.81644428
_cell_length_b   9.81644469
_cell_length_c   9.81644441
_cell_angle_alpha   56.46096146
_cell_angle_beta   56.46096116
_cell_angle_gamma   56.46096035
_symmetry_Int_Tables_number   1
_chemical_formula_structural   KZr2V3O12
_chemical_formula_sum   'K2 Zr4 V6 O24'
_cell_volume   614.15484865
_cell_formula_units_Z   2
loop_
 _symmetry_equiv_pos_site_id
 _symmetry_equiv_pos_as_xyz
  1  'x, y, z'
loop_
 _atom_site_type_symbol
 _atom_site_label
 _atom_site_symmetry_multiplicity
 _atom_site_fract_x
 _atom_site_fract_y
 _atom_site_fract_z
 _atom_site_occupancy
  K  K0  1  0.50000000  0.50000000  0.50000000  1
  K  K1  1  0.00000000  0.00000000  0.00000000  1
  Zr  Zr0  1  0.64622464  0.64622464  0.64622464  1
  Zr  Zr1  1  0.85377536  0.85377536  0.85377536  1
  Zr  Zr2  1  0.35377536  0.35377536  0.35377536  1
  Zr  Zr3  1  0.14622464  0.14622464  0.14622464  1
  V  V0  1  0.46432587  0.03567413  0.75000000  1
  V  V1  1  0.03567413  0.75000000  0.46432587  1
  V  V2  1  0.75000000  0.46432587  0.03567413  1
  V  V3  1  0.53567413  0.96432587  0.25000000  1
  V  V4  1  0.96432587  0.25000000  0.53567413  1
  V  V5  1  0.25000000  0.53567413  0.96432587  1
  O  O0  1  0.49508569  0.85802598  0.72855924  1
  O  O1  1  0.85802598  0.72855924  0.49508569  1
  O  O2  1  0.72855924  0.49508569  0.85802598  1
  O  O3  1  0.64197402  0.00491431  0.77144076  1
  O  O4  1  0.00491431  0.77144076  0.64197402  1
  O  O5  1  0.77144076  0.64197402  0.00491431  1
  O  O6  1  0.50491431  0.14197402  0.27144076  1
  O  O7  1  0.14197402  0.27144076  0.50491431  1
  O  O8  1  0.27144076  0.50491431  0.14197402  1
  O  O9  1  0.35802598  0.99508569  0.22855924  1
  O  O10  1  0.99508569  0.22855924  0.35802598  1
  O  O11  1  0.22855924  0.35802598  0.99508569  1
  O  O12  1  0.56732695  0.78175555  0.43107728  1
  O  O13  1  0.78175555  0.43107728  0.56732695  1
  O  O14  1  0.43107728  0.56732695  0.78175555  1
  O  O15  1  0.71824445  0.93267305  0.06892272  1
  O  O16  1  0.93267305  0.06892272  0.71824445  1
  O  O17  1  0.06892272  0.71824445  0.93267305  1
  O  O18  1  0.43267305  0.21824445  0.56892272  1
  O  O19  1  0.21824445  0.56892272  0.43267305  1
  O  O20  1  0.56892272  0.43267305  0.21824445  1
  O  O21  1  0.28175555  0.06732695  0.93107728  1
  O  O22  1  0.06732695  0.93107728  0.28175555  1
  O  O23  1  0.93107728  0.28175555  0.06732695  1
loop_
_geom_bond_atom_site_label_1
_geom_bond_atom_site_label_2
_geom_bond_distance
_geom_bond_site_symmetry_2
K0 O13 2.828856 1_555
K0 O19 2.828856 1_555
K0 O14 2.828856 1_555
K0 O20 2.828856 1_555
K0 O12 2.828856 1_555
K0 O18 2.828856 1_555
K1 O21 2.828856 1_554
K1 O15 2.828856 1_445
K1 O22 2.828856 1_545
K1 O16 2.828856 1_454
K1 O23 2.828856 1_455
K1 O17 2.828856 1_544
O0 V0 1.711742 1_565
O0 Zr0 2.073755 1_555
O1 V1 1.711742 1_655
O1 Zr0 2.073755 1_555
O2 V2 1.711742 1_556
O2 Zr0 2.073755 1_555
O3 V0 1.711742 1_555
O3 Zr1 2.073755 1_545
O4 V1 1.711742 1_555
O4 Zr1 2.073755 1_455
O5 V2 1.711742 1_555
O5 Zr1 2.073755 1_554
O6 V3 1.711742 1_545
O6 Zr2 2.073755 1_555
O7 V4 1.711742 1_455
O7 Zr2 2.073755 1_555
O8 V5 1.711742 1_554
O8 Zr2 2.073755 1_555
O9 V3 1.711742 1_555
O9 Zr3 2.073755 1_565
O10 V4 1.711742 1_555
O10 Zr3 2.073755 1_655
O11 V5 1.711742 1_555
O11 Zr3 2.073755 1_556
O12 V3 1.715483 1_555
O12 Zr0 2.096263 1_555
O13 V4 1.715483 1_555
O13 Zr0 2.096263 1_555
O14 V5 1.715483 1_555
O14 Zr0 2.096263 1_555
O15 V3 1.715483 1_555
O15 Zr1 2.096263 1_554
O16 V4 1.715483 1_555
O16 Zr1 2.096263 1_545
O17 V5 1.715483 1_555
O17 Zr1 2.096263 1_455
O18 V0 1.715483 1_555
O18 Zr2 2.096263 1_555
O19 V1 1.715483 1_555
O19 Zr2 2.096263 1_555
O20 V2 1.715483 1_555
O20 Zr2 2.096263 1_555
O21 V0 1.715483 1_555
O21 Zr3 2.096263 1_556
O22 V1 1.715483 1_555
O22 Zr3 2.096263 1_565
O23 V2 1.715483 1_555
O23 Zr3 2.096263 1_655
