# generated using pymatgen
data_Ti6BBr12
_symmetry_space_group_name_H-M   'P 1'
_cell_length_a   8.27746346
_cell_length_b   8.27746273
_cell_length_c   8.27746331
_cell_angle_alpha   106.83926965
_cell_angle_beta   106.83926802
_cell_angle_gamma   106.83926545
_symmetry_Int_Tables_number   1
_chemical_formula_structural   Ti6BBr12
_chemical_formula_sum   'Ti6 B1 Br12'
_cell_volume   474.37694448
_cell_formula_units_Z   1
loop_
 _symmetry_equiv_pos_site_id
 _symmetry_equiv_pos_as_xyz
  1  'x, y, z'
loop_
 _atom_site_type_symbol
 _atom_site_label
 _atom_site_symmetry_multiplicity
 _atom_site_fract_x
 _atom_site_fract_y
 _atom_site_fract_z
 _atom_site_occupancy
  Ti  Ti0  1  0.97161692  0.71983699  0.90825960  1
  Ti  Ti1  1  0.28016301  0.09174040  0.02838308  1
  Ti  Ti2  1  0.09174040  0.02838308  0.28016301  1
  Ti  Ti3  1  0.90825960  0.97161692  0.71983699  1
  Ti  Ti4  1  0.71983699  0.90825960  0.97161692  1
  Ti  Ti5  1  0.02838308  0.28016301  0.09174040  1
  B  B0  1  0.00000000  0.00000000  0.00000000  1
  Br  Br0  1  0.92184856  0.30582498  0.77829910  1
  Br  Br1  1  0.69417502  0.22170090  0.07815144  1
  Br  Br2  1  0.43563010  0.13865543  0.36216378  1
  Br  Br3  1  0.86134457  0.63783622  0.56436990  1
  Br  Br4  1  0.22170090  0.07815144  0.69417502  1
  Br  Br5  1  0.63783622  0.56436990  0.86134457  1
  Br  Br6  1  0.36216378  0.43563010  0.13865543  1
  Br  Br7  1  0.77829910  0.92184856  0.30582498  1
  Br  Br8  1  0.13865543  0.36216378  0.43563010  1
  Br  Br9  1  0.56436990  0.86134457  0.63783622  1
  Br  Br10  1  0.30582498  0.77829910  0.92184856  1
  Br  Br11  1  0.07815144  0.69417502  0.22170090  1
loop_
_geom_bond_atom_site_label_1
_geom_bond_atom_site_label_2
_geom_bond_distance
_geom_bond_site_symmetry_2
B0 Ti5 2.137865 1_555
B0 Ti0 2.137865 1_444
B0 Ti2 2.137865 1_555
B0 Ti3 2.137865 1_444
B0 Ti4 2.137865 1_444
B0 Ti1 2.137865 1_555
Br0 Ti5 2.580008 1_656
Br0 Ti3 2.629132 1_545
Br0 Ti0 3.140137 1_555
Br1 Ti4 2.580008 1_544
Br1 Ti5 2.629132 1_655
Br1 Ti1 3.140138 1_555
Br2 Ti2 2.532370 1_555
Br2 Ti1 2.543448 1_555
Br3 Ti0 2.532370 1_555
Br3 Ti3 2.543448 1_555
Br4 Ti3 2.580008 1_445
Br4 Ti1 2.629132 1_556
Br4 Ti2 3.140138 1_555
Br5 Ti4 2.532370 1_555
Br5 Ti0 2.543448 1_555
Br6 Ti1 2.532370 1_555
Br6 Ti5 2.543448 1_555
Br7 Ti2 2.580008 1_665
Br7 Ti4 2.629132 1_554
Br7 Ti3 3.140138 1_555
Br8 Ti5 2.532370 1_555
Br8 Ti2 2.543448 1_555
Br9 Ti3 2.532370 1_555
Br9 Ti4 2.543448 1_555
Br10 Ti1 2.580008 1_566
Br10 Ti0 2.629132 1_455
Br10 Ti4 3.140138 1_555
Br11 Ti0 2.580008 1_454
Br11 Ti2 2.629132 1_565
Br11 Ti5 3.140137 1_555
