# generated using pymatgen
data_Sr(AlBr4)2
_symmetry_space_group_name_H-M   'P 1'
_cell_length_a   7.44129876
_cell_length_b   7.87188642
_cell_length_c   13.33945316
_cell_angle_alpha   84.95465074
_cell_angle_beta   90.00000000
_cell_angle_gamma   90.00000000
_symmetry_Int_Tables_number   1
_chemical_formula_structural   Sr(AlBr4)2
_chemical_formula_sum   'Sr2 Al4 Br16'
_cell_volume   778.35837349
_cell_formula_units_Z   2
loop_
 _symmetry_equiv_pos_site_id
 _symmetry_equiv_pos_as_xyz
  1  'x, y, z'
loop_
 _atom_site_type_symbol
 _atom_site_label
 _atom_site_symmetry_multiplicity
 _atom_site_fract_x
 _atom_site_fract_y
 _atom_site_fract_z
 _atom_site_occupancy
  Sr  Sr0  1  0.84977908  0.50000000  0.75000000  1
  Sr  Sr1  1  0.15022092  0.50000000  0.25000000  1
  Al  Al0  1  0.26101255  0.32192979  0.92407154  1
  Al  Al1  1  0.73898745  0.67807021  0.07592846  1
  Al  Al2  1  0.26101255  0.67807021  0.57592846  1
  Al  Al3  1  0.73898745  0.32192979  0.42407154  1
  Br  Br0  1  0.30233336  0.24937665  0.09437092  1
  Br  Br1  1  0.18261173  0.60417535  0.88947478  1
  Br  Br2  1  0.02775309  0.16474218  0.86335165  1
  Br  Br3  1  0.81738827  0.60417535  0.38947478  1
  Br  Br4  1  0.52938603  0.74058886  0.65148031  1
  Br  Br5  1  0.47061397  0.74058886  0.15148031  1
  Br  Br6  1  0.69766664  0.24937665  0.59437092  1
  Br  Br7  1  0.30233336  0.75062335  0.40562908  1
  Br  Br8  1  0.52938603  0.25941114  0.84851969  1
  Br  Br9  1  0.47061397  0.25941114  0.34851969  1
  Br  Br10  1  0.18261173  0.39582465  0.61052522  1
  Br  Br11  1  0.81738827  0.39582465  0.11052522  1
  Br  Br12  1  0.69766664  0.75062335  0.90562908  1
  Br  Br13  1  0.97224691  0.83525782  0.13664835  1
  Br  Br14  1  0.97224691  0.16474218  0.36335165  1
  Br  Br15  1  0.02775309  0.83525782  0.63664835  1
loop_
_geom_bond_atom_site_label_1
_geom_bond_atom_site_label_2
_geom_bond_distance
_geom_bond_site_symmetry_2
Al0 Br1 2.304216 1_555
Al0 Br8 2.309402 1_555
Al0 Br0 2.313688 1_556
Al0 Br2 2.318672 1_555
Al1 Br11 2.304216 1_555
Al1 Br5 2.309402 1_555
Al1 Br12 2.313688 1_554
Al1 Br13 2.318672 1_555
Al2 Br10 2.304216 1_555
Al2 Br4 2.309402 1_555
Al2 Br7 2.313688 1_555
Al2 Br15 2.318672 1_555
Al3 Br3 2.304216 1_555
Al3 Br9 2.309402 1_555
Al3 Br6 2.313688 1_555
Al3 Br14 2.318672 1_555
Br0 Sr1 3.194319 1_555
Br1 Sr0 3.245990 1_455
Br2 Sr0 3.209867 1_455
Br3 Sr1 3.245990 1_655
Br4 Sr0 3.249658 1_555
Br5 Sr1 3.249658 1_555
Br6 Sr0 3.194319 1_555
Br7 Sr1 3.194319 1_555
Br8 Sr0 3.249658 1_555
Br9 Sr1 3.249658 1_555
Br10 Sr0 3.245990 1_455
Br11 Sr1 3.245990 1_655
Br12 Sr0 3.194319 1_555
Br13 Sr1 3.209867 1_655
Br14 Sr1 3.209867 1_655
Br15 Sr0 3.209867 1_455
