# generated using pymatgen
data_Hf2Zr4BI12
_symmetry_space_group_name_H-M   'P 1'
_cell_length_a   9.25877357
_cell_length_b   9.20887336
_cell_length_c   9.18769753
_cell_angle_alpha   106.72337070
_cell_angle_beta   106.98830735
_cell_angle_gamma   106.87036835
_symmetry_Int_Tables_number   1
_chemical_formula_structural   Hf2Zr4BI12
_chemical_formula_sum   'Hf2 Zr4 B1 I12'
_cell_volume   654.85845932
_cell_formula_units_Z   1
loop_
 _symmetry_equiv_pos_site_id
 _symmetry_equiv_pos_as_xyz
  1  'x, y, z'
loop_
 _atom_site_type_symbol
 _atom_site_label
 _atom_site_symmetry_multiplicity
 _atom_site_fract_x
 _atom_site_fract_y
 _atom_site_fract_z
 _atom_site_occupancy
  Hf  Hf0  1  0.97194990  0.72934258  0.91150805  1
  Hf  Hf1  1  0.26882673  0.08829377  0.02658493  1
  Zr  Zr0  1  0.08830603  0.02670003  0.27289550  1
  Zr  Zr1  1  0.91054949  0.97443170  0.72620047  1
  Zr  Zr2  1  0.73070276  0.91305093  0.97445493  1
  Zr  Zr3  1  0.02568718  0.27159127  0.08806134  1
  B  B0  1  0.00214024  0.99857766  0.99881477  1
  I  I0  1  0.92266097  0.31154317  0.77315756  1
  I  I1  1  0.69116475  0.22590690  0.07905489  1
  I  I2  1  0.44131249  0.14045643  0.36373538  1
  I  I3  1  0.85982650  0.63184616  0.56037186  1
  I  I4  1  0.22828992  0.07786696  0.69512742  1
  I  I5  1  0.63672648  0.55801943  0.85907748  1
  I  I6  1  0.36710572  0.43841081  0.13879897  1
  I  I7  1  0.77508219  0.92102799  0.31137248  1
  I  I8  1  0.14174677  0.36793082  0.44368770  1
  I  I9  1  0.55802981  0.86025122  0.63229843  1
  I  I10  1  0.30294808  0.77570434  0.92255122  1
  I  I11  1  0.07694300  0.68904683  0.22224662  1
loop_
_geom_bond_atom_site_label_1
_geom_bond_atom_site_label_2
_geom_bond_distance
_geom_bond_site_symmetry_2
Hf0 I3 2.850741 1_555
Hf0 I5 2.863783 1_555
Hf0 I11 2.903592 1_656
Hf0 I10 2.935732 1_655
Hf0 I0 3.529073 1_555
Hf1 I6 2.849952 1_555
Hf1 I2 2.860799 1_555
Hf1 I10 2.901820 1_544
Hf1 I4 2.926948 1_554
Hf1 I1 3.577669 1_555
B0 Hf1 2.273999 1_566
B0 Hf0 2.278360 1_455
B0 Zr1 2.317529 1_455
B0 Zr0 2.318522 1_566
B0 Zr2 2.325399 1_455
B0 Zr3 2.330624 1_566
I0 Zr3 2.935930 1_656
I0 Zr1 2.972372 1_545
I1 Zr2 2.929563 1_544
I1 Zr3 2.975031 1_655
I2 Zr0 2.896894 1_555
I3 Zr1 2.906973 1_555
I4 Zr1 2.943525 1_445
I4 Zr0 3.550578 1_555
I5 Zr2 2.895747 1_555
I6 Zr3 2.911720 1_555
I7 Zr0 2.939627 1_665
I7 Zr2 2.977363 1_554
I7 Zr1 3.480085 1_555
I8 Zr3 2.888659 1_555
I8 Zr0 2.896140 1_555
I9 Zr1 2.888509 1_555
I9 Zr2 2.899496 1_555
I10 Zr2 3.626896 1_555
I11 Zr0 2.974023 1_565
I11 Zr3 3.520710 1_555
