# generated using pymatgen
data_Rb2NaFeO4
_symmetry_space_group_name_H-M   'P 1'
_cell_length_a   5.87528599
_cell_length_b   5.97817106
_cell_length_c   7.80142354
_cell_angle_alpha   90.12434070
_cell_angle_beta   90.00000000
_cell_angle_gamma   90.00000000
_symmetry_Int_Tables_number   1
_chemical_formula_structural   Rb2NaFeO4
_chemical_formula_sum   'Rb4 Na2 Fe2 O8'
_cell_volume   274.01237890
_cell_formula_units_Z   2
loop_
 _symmetry_equiv_pos_site_id
 _symmetry_equiv_pos_as_xyz
  1  'x, y, z'
loop_
 _atom_site_type_symbol
 _atom_site_label
 _atom_site_symmetry_multiplicity
 _atom_site_fract_x
 _atom_site_fract_y
 _atom_site_fract_z
 _atom_site_occupancy
  Rb  Rb0  1  0.75000000  0.13416317  0.82213354  1
  Rb  Rb1  1  0.25000000  0.86583683  0.17786646  1
  Rb  Rb2  1  0.25000000  0.30493487  0.50317511  1
  Rb  Rb3  1  0.75000000  0.69506513  0.49682489  1
  Na  Na0  1  0.75000000  0.62340057  0.02571071  1
  Na  Na1  1  0.25000000  0.37659943  0.97428929  1
  Fe  Fe0  1  0.25000000  0.78850427  0.74609112  1
  Fe  Fe1  1  0.75000000  0.21149573  0.25390888  1
  O  O0  1  0.52737268  0.37069501  0.18079327  1
  O  O1  1  0.02737268  0.62930499  0.81920573  1
  O  O2  1  0.47262732  0.62930499  0.81920573  1
  O  O3  1  0.97262732  0.37069501  0.18079327  1
  O  O4  1  0.75000000  0.18017639  0.46986924  1
  O  O5  1  0.75000000  0.93780708  0.18445829  1
  O  O6  1  0.25000000  0.81982361  0.53013076  1
  O  O7  1  0.25000000  0.06219292  0.81554171  1
loop_
_geom_bond_atom_site_label_1
_geom_bond_atom_site_label_2
_geom_bond_distance
_geom_bond_site_symmetry_2
Na0 O5 2.248661 1_555
Na0 O2 2.291868 1_554
Na0 O1 2.291868 1_654
Na0 O3 2.337698 1_555
Na0 O0 2.337698 1_555
Na1 O7 2.248661 1_555
Na1 O0 2.291862 1_556
Na1 O3 2.291862 1_456
Na1 O1 2.337702 1_555
Na1 O2 2.337702 1_555
Fe0 O6 1.695574 1_555
Fe0 O1 1.715909 1_555
Fe0 O2 1.715909 1_555
Fe0 O7 1.722419 1_565
Fe1 O4 1.695574 1_555
Fe1 O3 1.715912 1_555
Fe1 O0 1.715912 1_555
Fe1 O5 1.722419 1_545
O0 Rb2 3.023242 1_555
O0 Rb3 3.395445 1_555
O1 Rb3 3.023235 1_455
O1 Rb2 3.395440 1_555
O2 Rb3 3.023235 1_555
O2 Rb2 3.395440 1_555
O3 Rb2 3.023242 1_655
O3 Rb3 3.395445 1_555
O4 Rb0 2.762489 1_555
O4 Rb3 2.908148 1_545
O4 Rb2 3.041821 1_655
O4 Rb2 3.041821 1_555
O4 Rb3 3.084813 1_555
O5 Rb3 2.838960 1_555
O5 Rb1 2.969412 1_555
O5 Rb1 2.969412 1_655
O5 Rb0 3.063049 1_564
O6 Rb1 2.762489 1_555
O6 Rb2 2.908148 1_565
O6 Rb3 3.041821 1_555
O6 Rb3 3.041821 1_455
O6 Rb2 3.084813 1_555
O7 Rb2 2.838960 1_555
O7 Rb0 2.969412 1_455
O7 Rb0 2.969412 1_555
O7 Rb1 3.063049 1_546
