# generated using pymatgen
data_InBi3(Pt2O7)2
_symmetry_space_group_name_H-M   'P 1'
_cell_length_a   7.29743317
_cell_length_b   7.30058459
_cell_length_c   7.30058477
_cell_angle_alpha   59.99999920
_cell_angle_beta   59.98571259
_cell_angle_gamma   59.98571152
_symmetry_Int_Tables_number   1
_chemical_formula_structural   InBi3(Pt2O7)2
_chemical_formula_sum   'In1 Bi3 Pt4 O14'
_cell_volume   274.96447444
_cell_formula_units_Z   1
loop_
 _symmetry_equiv_pos_site_id
 _symmetry_equiv_pos_as_xyz
  1  'x, y, z'
loop_
 _atom_site_type_symbol
 _atom_site_label
 _atom_site_symmetry_multiplicity
 _atom_site_fract_x
 _atom_site_fract_y
 _atom_site_fract_z
 _atom_site_occupancy
  In  In0  1  0.62500000  0.12500000  0.12500000  1
  Bi  Bi0  1  0.12500000  0.12500000  0.62500000  1
  Bi  Bi1  1  0.12500000  0.62500000  0.12500000  1
  Bi  Bi2  1  0.12500000  0.12500000  0.12500000  1
  Pt  Pt0  1  0.62500000  0.62500000  0.12500000  1
  Pt  Pt1  1  0.62500000  0.12500000  0.62500000  1
  Pt  Pt2  1  0.12500000  0.62500000  0.62500000  1
  Pt  Pt3  1  0.62500000  0.62500000  0.62500000  1
  O  O0  1  0.27876907  0.24040998  0.24040998  1
  O  O1  1  0.97123093  0.00959002  0.00959002  1
  O  O2  1  0.54607271  0.96036998  0.53318733  1
  O  O3  1  0.29102185  0.70933347  0.29031022  1
  O  O4  1  0.54607271  0.53318733  0.96036998  1
  O  O5  1  0.95897815  0.54066653  0.54066653  1
  O  O6  1  0.54607271  0.96036998  0.96036998  1
  O  O7  1  0.95897815  0.95968978  0.54066653  1
  O  O8  1  0.95897815  0.54066653  0.95968978  1
  O  O9  1  0.70392729  0.28963002  0.28963002  1
  O  O10  1  0.29102185  0.70933347  0.70933347  1
  O  O11  1  0.70392729  0.28963002  0.71681267  1
  O  O12  1  0.29102185  0.29031022  0.70933347  1
  O  O13  1  0.70392729  0.71681267  0.28963002  1
loop_
_geom_bond_atom_site_label_1
_geom_bond_atom_site_label_2
_geom_bond_distance
_geom_bond_site_symmetry_2
In0 O1 2.062512 1_555
In0 O0 2.062512 1_555
In0 O4 2.459776 1_554
In0 O13 2.459776 1_545
In0 O9 2.459776 1_555
In0 O6 2.459776 1_544
In0 O2 2.459776 1_545
In0 O11 2.459776 1_554
Bi0 O0 2.297961 1_555
Bi0 O1 2.297961 1_456
Bi0 O12 2.501093 1_555
Bi0 O7 2.501093 1_445
Bi0 O5 2.501099 1_455
Bi0 O10 2.501099 1_545
Bi0 O2 2.527056 1_545
Bi0 O11 2.527056 1_455
Bi1 O1 2.297961 1_465
Bi1 O0 2.297961 1_555
Bi1 O3 2.501093 1_555
Bi1 O8 2.501093 1_454
Bi1 O5 2.501099 1_455
Bi1 O10 2.501099 1_554
Bi1 O4 2.527056 1_554
Bi1 O13 2.527056 1_455
Bi2 O0 2.297955 1_555
Bi2 O1 2.297955 1_455
Bi2 O8 2.501098 1_454
Bi2 O3 2.501098 1_545
Bi2 O7 2.501098 1_445
Bi2 O12 2.501098 1_554
Bi2 O6 2.527056 1_544
Bi2 O9 2.527056 1_455
O2 Pt3 2.027305 1_555
O2 Pt1 2.027305 1_565
O3 Pt0 2.018587 1_555
O3 Pt2 2.024233 1_555
O4 Pt3 2.027305 1_555
O4 Pt0 2.027305 1_556
O5 Pt3 2.018588 1_555
O5 Pt2 2.024228 1_655
O6 Pt0 2.027305 1_556
O6 Pt1 2.027305 1_565
O7 Pt1 2.018587 1_565
O7 Pt2 2.024233 1_655
O8 Pt0 2.018587 1_556
O8 Pt2 2.024233 1_655
O9 Pt0 2.027305 1_555
O9 Pt1 2.027305 1_555
O10 Pt3 2.018588 1_555
O10 Pt2 2.024228 1_555
O11 Pt3 2.027305 1_555
O11 Pt1 2.027305 1_555
O12 Pt1 2.018587 1_555
O12 Pt2 2.024233 1_555
O13 Pt3 2.027305 1_555
O13 Pt0 2.027305 1_555
