# generated using pymatgen
data_Hf10Zn2Sn5Sb
_symmetry_space_group_name_H-M   'P 1'
_cell_length_a   8.57722569
_cell_length_b   8.56621052
_cell_length_c   5.77658307
_cell_angle_alpha   90.00000000
_cell_angle_beta   90.00000000
_cell_angle_gamma   120.04254967
_symmetry_Int_Tables_number   1
_chemical_formula_structural   Hf10Zn2Sn5Sb
_chemical_formula_sum   'Hf10 Zn2 Sn5 Sb1'
_cell_volume   367.40991169
_cell_formula_units_Z   1
loop_
 _symmetry_equiv_pos_site_id
 _symmetry_equiv_pos_as_xyz
  1  'x, y, z'
loop_
 _atom_site_type_symbol
 _atom_site_label
 _atom_site_symmetry_multiplicity
 _atom_site_fract_x
 _atom_site_fract_y
 _atom_site_fract_z
 _atom_site_occupancy
  Hf  Hf0  1  0.73351598  0.73405439  0.25000000  1
  Hf  Hf1  1  0.73208448  0.00000000  0.75000000  1
  Hf  Hf2  1  0.99946259  0.26594561  0.25000000  1
  Hf  Hf3  1  0.00016085  0.73249839  0.75000000  1
  Hf  Hf4  1  0.26766347  0.26750161  0.75000000  1
  Hf  Hf5  1  0.26736879  1.00000000  0.25000000  1
  Hf  Hf6  1  0.33362135  0.66711846  0.50041152  1
  Hf  Hf7  1  0.66650289  0.33288154  0.99958848  1
  Hf  Hf8  1  0.66650289  0.33288154  0.50041152  1
  Hf  Hf9  1  0.33362135  0.66711846  0.99958848  1
  Zn  Zn0  1  0.00070718  0.00000000  0.99856027  1
  Zn  Zn1  1  0.00070718  0.00000000  0.50143973  1
  Sn  Sn0  1  0.38506772  0.00000000  0.75000000  1
  Sn  Sn1  1  0.38640797  0.38670533  0.25000000  1
  Sn  Sn2  1  0.99970264  0.61329467  0.25000000  1
  Sn  Sn3  1  0.00031050  0.38627652  0.75000000  1
  Sn  Sn4  1  0.61403398  0.61372348  0.75000000  1
  Sb  Sb0  1  0.61255918  1.00000000  0.25000000  1
loop_
_geom_bond_atom_site_label_1
_geom_bond_atom_site_label_2
_geom_bond_distance
_geom_bond_site_symmetry_2
Hf0 Zn1 2.706304 1_665
Hf0 Zn0 2.706304 1_664
Hf0 Sb0 2.938172 1_555
Hf0 Sn2 2.940693 1_555
Hf0 Sn1 2.974430 1_555
Hf0 Sn4 3.065497 1_554
Hf0 Sn4 3.065497 1_555
Hf1 Zn0 2.714810 1_655
Hf1 Zn1 2.714810 1_655
Hf1 Sn3 2.935897 1_655
Hf1 Sn4 2.935897 1_545
Hf1 Sn0 2.976441 1_555
Hf1 Sb0 3.064842 1_546
Hf1 Sb0 3.064842 1_545
Hf2 Zn1 2.706300 1_655
Hf2 Zn0 2.706300 1_654
Hf2 Sb0 2.938179 1_545
Hf2 Sn1 2.940685 1_655
Hf2 Sn2 2.974435 1_555
Hf2 Sn3 3.065499 1_655
Hf2 Sn3 3.065499 1_654
Hf3 Zn0 2.702172 1_565
Hf3 Zn1 2.702172 1_565
Hf3 Sn0 2.928385 1_565
Hf3 Sn4 2.937660 1_455
Hf3 Sn3 2.966452 1_555
Hf3 Sn2 3.062829 1_455
Hf3 Sn2 3.062829 1_456
Hf4 Zn0 2.702176 1_555
Hf4 Zn1 2.702176 1_555
Hf4 Sn0 2.928379 1_555
Hf4 Sn3 2.937668 1_555
Hf4 Sn4 2.966448 1_555
Hf4 Sn1 3.062827 1_556
Hf4 Sn1 3.062827 1_555
Hf5 Zn1 2.709429 1_565
Hf5 Zn0 2.709429 1_564
Hf5 Sn2 2.937551 1_455
Hf5 Sn1 2.937551 1_565
Hf5 Sb0 2.960776 1_555
Hf5 Sn0 3.059637 1_564
Hf5 Sn0 3.059637 1_565
Hf6 Sb0 3.019385 1_555
Hf6 Sn0 3.024029 1_565
Hf6 Sn3 3.025383 1_555
Hf6 Sn1 3.025950 1_555
Hf6 Sn4 3.028899 1_555
Hf6 Sn2 3.030812 1_455
Hf7 Sb0 3.019385 1_546
Hf7 Sn0 3.024029 1_555
Hf7 Sn4 3.025383 1_555
Hf7 Sn2 3.025949 1_556
Hf7 Sn3 3.028899 1_655
Hf7 Sn1 3.030812 1_556
Hf8 Sb0 3.019385 1_545
Hf8 Sn0 3.024029 1_555
Hf8 Sn4 3.025383 1_555
Hf8 Sn2 3.025949 1_555
Hf8 Sn3 3.028899 1_655
Hf8 Sn1 3.030812 1_555
Hf9 Sb0 3.019385 1_556
Hf9 Sn0 3.024029 1_565
Hf9 Sn3 3.025383 1_555
Hf9 Sn1 3.025950 1_556
Hf9 Sn4 3.028899 1_555
Hf9 Sn2 3.030812 1_456
