# generated using pymatgen
data_NdTaO4
_symmetry_space_group_name_H-M   'P 1'
_cell_length_a   5.24772794
_cell_length_b   5.44007400
_cell_length_c   5.60511773
_cell_angle_alpha   90.00000000
_cell_angle_beta   90.00000000
_cell_angle_gamma   96.67515279
_symmetry_Int_Tables_number   1
_chemical_formula_structural   NdTaO4
_chemical_formula_sum   'Nd2 Ta2 O8'
_cell_volume   158.93034197
_cell_formula_units_Z   2
loop_
 _symmetry_equiv_pos_site_id
 _symmetry_equiv_pos_as_xyz
  1  'x, y, z'
loop_
 _atom_site_type_symbol
 _atom_site_label
 _atom_site_symmetry_multiplicity
 _atom_site_fract_x
 _atom_site_fract_y
 _atom_site_fract_z
 _atom_site_occupancy
  Nd  Nd0  1  0.00000000  0.75000000  0.76431747  1
  Nd  Nd1  1  0.00000000  0.25000000  0.23568253  1
  Ta  Ta0  1  0.50000000  0.25000000  0.68803616  1
  Ta  Ta1  1  0.50000000  0.75000000  0.31196384  1
  O  O0  1  0.72538771  0.01006966  0.56121685  1
  O  O1  1  0.27461229  0.48993034  0.56121685  1
  O  O2  1  0.27461229  0.98993034  0.43878315  1
  O  O3  1  0.72538771  0.51006966  0.43878315  1
  O  O4  1  0.25698058  0.60951579  0.09222233  1
  O  O5  1  0.74301942  0.89048421  0.09222233  1
  O  O6  1  0.74301942  0.39048421  0.90777767  1
  O  O7  1  0.25698058  0.10951579  0.90777767  1
loop_
_geom_bond_atom_site_label_1
_geom_bond_atom_site_label_2
_geom_bond_distance
_geom_bond_site_symmetry_2
Nd0 O6 2.382682 1_455
Nd0 O7 2.382682 1_565
Nd0 O1 2.418336 1_555
Nd0 O0 2.418336 1_465
Nd0 O5 2.453638 1_456
Nd0 O4 2.453638 1_556
Nd0 O3 2.583115 1_455
Nd0 O2 2.583115 1_555
Nd1 O5 2.382682 1_445
Nd1 O4 2.382682 1_555
Nd1 O3 2.418336 1_455
Nd1 O2 2.418336 1_545
Nd1 O7 2.453638 1_554
Nd1 O6 2.453638 1_454
Nd1 O0 2.583115 1_455
Nd1 O1 2.583115 1_555
O0 Ta0 1.991681 1_555
O0 Ta1 2.227879 1_545
O1 Ta0 1.991681 1_555
O1 Ta1 2.227879 1_555
O2 Ta1 1.991681 1_555
O2 Ta0 2.227879 1_565
O3 Ta1 1.991681 1_555
O3 Ta0 2.227879 1_555
O4 Ta1 1.871070 1_555
O5 Ta1 1.871070 1_555
O6 Ta0 1.871070 1_555
O7 Ta0 1.871070 1_555
