# generated using pymatgen
data_LuInSbPt8
_symmetry_space_group_name_H-M   'P 1'
_cell_length_a   4.03183441
_cell_length_b   4.03183441
_cell_length_c   11.63453529
_cell_angle_alpha   90.00000000
_cell_angle_beta   90.00000000
_cell_angle_gamma   90.00000000
_symmetry_Int_Tables_number   1
_chemical_formula_structural   LuInSbPt8
_chemical_formula_sum   'Lu1 In1 Sb1 Pt8'
_cell_volume   189.12738381
_cell_formula_units_Z   1
loop_
 _symmetry_equiv_pos_site_id
 _symmetry_equiv_pos_as_xyz
  1  'x, y, z'
loop_
 _atom_site_type_symbol
 _atom_site_label
 _atom_site_symmetry_multiplicity
 _atom_site_fract_x
 _atom_site_fract_y
 _atom_site_fract_z
 _atom_site_occupancy
  Lu  Lu0  1  0.50000000  0.50000000  0.82653672  1
  In  In0  1  0.50000000  0.50000000  0.17502652  1
  Sb  Sb0  1  0.00000000  0.00000000  0.49866477  1
  Pt  Pt0  1  0.50000000  0.00000000  0.00104991  1
  Pt  Pt1  1  0.00000000  0.50000000  0.00104991  1
  Pt  Pt2  1  0.50000000  0.00000000  0.65118240  1
  Pt  Pt3  1  0.00000000  0.50000000  0.65118240  1
  Pt  Pt4  1  0.50000000  0.00000000  0.34722233  1
  Pt  Pt5  1  0.00000000  0.50000000  0.34722233  1
  Pt  Pt6  1  0.00000000  0.00000000  0.82733729  1
  Pt  Pt7  1  0.00000000  0.00000000  0.17352343  1
loop_
_geom_bond_atom_site_label_1
_geom_bond_atom_site_label_2
_geom_bond_distance
_geom_bond_site_symmetry_2
Lu0 Pt6 2.850953 1_555
Lu0 Pt6 2.850953 1_655
Lu0 Pt6 2.850953 1_565
Lu0 Pt6 2.850953 1_665
Lu0 Pt0 2.861182 1_566
Lu0 Pt1 2.861182 1_556
Lu0 Pt0 2.861182 1_556
Lu0 Pt1 2.861182 1_656
Lu0 Pt3 2.868135 1_655
Lu0 Pt2 2.868135 1_555
Lu0 Pt2 2.868135 1_565
Lu0 Pt3 2.868135 1_555
In0 Pt5 2.842113 1_655
In0 Pt4 2.842113 1_555
In0 Pt5 2.842113 1_555
In0 Pt4 2.842113 1_565
In0 Pt7 2.850991 1_565
In0 Pt7 2.850991 1_665
In0 Pt7 2.850991 1_555
In0 Pt7 2.850991 1_655
In0 Pt1 2.856756 1_555
In0 Pt0 2.856756 1_555
In0 Pt0 2.856756 1_565
In0 Pt1 2.856756 1_655
Pt0 Pt7 2.844392 1_555
Pt0 Pt7 2.844392 1_655
Pt0 Pt1 2.850937 1_555
Pt0 Pt1 2.850937 1_545
Pt0 Pt1 2.850937 1_645
Pt0 Pt1 2.850937 1_655
Pt0 Pt6 2.854580 1_554
Pt0 Pt6 2.854580 1_654
Pt1 Pt7 2.844392 1_565
Pt1 Pt7 2.844392 1_555
Pt1 Pt6 2.854580 1_554
Pt1 Pt6 2.854580 1_564
Pt2 Sb0 2.685642 1_555
Pt2 Sb0 2.685642 1_655
Pt3 Sb0 2.685642 1_555
Pt3 Sb0 2.685642 1_565
Pt4 Sb0 2.677393 1_655
Pt4 Sb0 2.677393 1_555
Pt4 Pt5 2.850937 1_545
Pt4 Pt5 2.850937 1_645
Pt4 Pt5 2.850937 1_555
Pt4 Pt5 2.850937 1_655
Pt4 Pt7 2.854467 1_555
Pt4 Pt7 2.854467 1_655
Pt5 Sb0 2.677393 1_555
Pt5 Sb0 2.677393 1_565
Pt5 Pt7 2.854467 1_555
Pt5 Pt7 2.854467 1_565
