# generated using pymatgen
data_K16HfSnSb8
_symmetry_space_group_name_H-M   'P 1'
_cell_length_a   11.55785555
_cell_length_b   11.55785560
_cell_length_c   11.55785577
_cell_angle_alpha   59.99999951
_cell_angle_beta   59.99999936
_cell_angle_gamma   60.00000135
_symmetry_Int_Tables_number   1
_chemical_formula_structural   K16HfSnSb8
_chemical_formula_sum   'K16 Hf1 Sn1 Sb8'
_cell_volume   1091.73391098
_cell_formula_units_Z   1
loop_
 _symmetry_equiv_pos_site_id
 _symmetry_equiv_pos_as_xyz
  1  'x, y, z'
loop_
 _atom_site_type_symbol
 _atom_site_label
 _atom_site_symmetry_multiplicity
 _atom_site_fract_x
 _atom_site_fract_y
 _atom_site_fract_z
 _atom_site_occupancy
  K  K0  1  0.62238313  0.13284962  0.62238313  1
  K  K1  1  0.62238313  0.62238313  0.13284962  1
  K  K2  1  0.13284962  0.62238313  0.62238313  1
  K  K3  1  0.62238313  0.62238313  0.62238313  1
  K  K4  1  0.02113292  0.02113292  0.47886708  1
  K  K5  1  0.77898154  0.22101846  0.22101846  1
  K  K6  1  0.22101846  0.77898154  0.77898154  1
  K  K7  1  0.77898154  0.77898154  0.22101846  1
  K  K8  1  0.77898154  0.22101846  0.77898154  1
  K  K9  1  0.22101846  0.77898154  0.22101846  1
  K  K10  1  0.47886708  0.02113292  0.47886708  1
  K  K11  1  0.47886708  0.02113292  0.02113292  1
  K  K12  1  0.02113292  0.47886708  0.47886708  1
  K  K13  1  0.02113292  0.47886708  0.02113292  1
  K  K14  1  0.22101846  0.22101846  0.77898154  1
  K  K15  1  0.47886708  0.47886708  0.02113292  1
  Hf  Hf0  1  0.75000000  0.75000000  0.75000000  1
  Sn  Sn0  1  0.50000000  0.50000000  0.50000000  1
  Sb  Sb0  1  0.39671362  0.80985914  0.39671362  1
  Sb  Sb1  1  0.85044071  0.85044071  0.44867687  1
  Sb  Sb2  1  0.44867687  0.85044071  0.85044071  1
  Sb  Sb3  1  0.85044071  0.85044071  0.85044071  1
  Sb  Sb4  1  0.80985914  0.39671362  0.39671362  1
  Sb  Sb5  1  0.39671362  0.39671362  0.39671362  1
  Sb  Sb6  1  0.39671362  0.39671362  0.80985914  1
  Sb  Sb7  1  0.85044071  0.44867687  0.85044071  1
loop_
_geom_bond_atom_site_label_1
_geom_bond_atom_site_label_2
_geom_bond_distance
_geom_bond_site_symmetry_2
K0 Sn0 3.464780 1_555
K0 Sb5 3.714952 1_555
K0 Sb4 3.714959 1_555
K0 Sb6 3.714960 1_555
K0 Sb2 3.780224 1_545
K0 Sb1 3.780224 1_545
K0 Sb3 3.780224 1_545
K1 Sn0 3.464780 1_555
K1 Sb5 3.714952 1_555
K1 Sb0 3.714960 1_555
K1 Sb4 3.714960 1_555
K1 Sb3 3.780224 1_554
K1 Sb7 3.780224 1_554
K1 Sb2 3.780224 1_554
K2 Sn0 3.464780 1_555
K2 Sb5 3.714952 1_555
K2 Sb0 3.714959 1_555
K2 Sb6 3.714960 1_555
K2 Sb7 3.780224 1_455
K2 Sb1 3.780224 1_455
K2 Sb3 3.780224 1_455
K3 Sn0 3.464770 1_555
K3 Sb6 3.714951 1_555
K3 Sb0 3.714951 1_555
K3 Sb4 3.714951 1_555
K3 Sb1 3.780224 1_555
K3 Sb7 3.780224 1_555
K3 Sb2 3.780224 1_555
K4 Sb3 3.629700 1_445
K4 Sb1 3.629708 1_445
K4 Sb0 3.647560 1_545
K4 Sb4 3.647560 1_455
K5 Sb7 3.649146 1_554
K5 Sb1 3.649146 1_545
K5 Sb5 3.734634 1_555
K5 Sb4 3.734634 1_555
K6 Sb2 3.649138 1_555
K6 Sb3 3.649149 1_455
K6 Sb0 3.734634 1_555
K6 Sb6 3.734634 1_555
K7 Sb1 3.649138 1_555
K7 Sb3 3.649149 1_554
K7 Sb0 3.734634 1_555
K7 Sb4 3.734634 1_555
K8 Sb7 3.649138 1_555
K8 Sb3 3.649149 1_545
K8 Sb6 3.734634 1_555
K8 Sb4 3.734634 1_555
K9 Sb1 3.649146 1_455
K9 Sb2 3.649146 1_554
K9 Sb0 3.734634 1_555
K9 Sb5 3.734634 1_555
K10 Sb1 3.629698 1_545
K10 Sb2 3.629698 1_545
K10 Sb0 3.647560 1_545
K10 Sb5 3.647560 1_555
K11 Sb3 3.629701 1_544
K11 Sb2 3.629708 1_544
K11 Sb0 3.647560 1_545
K11 Sb6 3.647560 1_554
K12 Sb7 3.629698 1_455
K12 Sb1 3.629698 1_455
K12 Sb5 3.647560 1_555
K12 Sb4 3.647560 1_455
K13 Sb3 3.629701 1_454
K13 Sb7 3.629708 1_454
K13 Sb6 3.647560 1_554
K13 Sb4 3.647560 1_455
K14 Sb7 3.649146 1_455
K14 Sb2 3.649146 1_545
K14 Sb5 3.734634 1_555
K14 Sb6 3.734634 1_555
K15 Sb7 3.629698 1_554
K15 Sb2 3.629698 1_554
K15 Sb6 3.647560 1_554
K15 Sb5 3.647560 1_555
Hf0 Sb3 2.843562 1_555
Hf0 Sb2 2.843571 1_555
Hf0 Sb1 2.843571 1_555
Hf0 Sb7 2.843571 1_555
Hf0 K2 3.612933 1_655
Hf0 K1 3.612933 1_556
Hf0 K0 3.612933 1_565
Hf0 K3 3.612942 1_555
Sb0 Sn0 2.924125 1_555
Sb4 Sn0 2.924125 1_555
Sb5 Sn0 2.924125 1_555
Sb6 Sn0 2.924125 1_555
