# generated using pymatgen
data_Ta2MnB6W
_symmetry_space_group_name_H-M   'P 1'
_cell_length_a   9.50115736
_cell_length_b   9.50115678
_cell_length_c   3.07676416
_cell_angle_alpha   90.00000000
_cell_angle_beta   90.00000000
_cell_angle_gamma   160.42008776
_symmetry_Int_Tables_number   1
_chemical_formula_structural   Ta2MnB6W
_chemical_formula_sum   'Ta2 Mn1 B6 W1'
_cell_volume   93.07846053
_cell_formula_units_Z   1
loop_
 _symmetry_equiv_pos_site_id
 _symmetry_equiv_pos_as_xyz
  1  'x, y, z'
loop_
 _atom_site_type_symbol
 _atom_site_label
 _atom_site_symmetry_multiplicity
 _atom_site_fract_x
 _atom_site_fract_y
 _atom_site_fract_z
 _atom_site_occupancy
  Ta  Ta0  1  0.92714093  0.07285907  0.25000000  1
  Ta  Ta1  1  0.07116066  0.92883934  0.75000000  1
  Mn  Mn0  1  0.79937301  0.20062699  0.75000000  1
  B  B0  1  0.61990417  0.38009583  0.25000000  1
  B  B1  1  0.37752869  0.62247131  0.75000000  1
  B  B2  1  0.52288556  0.47711444  0.25000000  1
  B  B3  1  0.47485594  0.52514406  0.75000000  1
  B  B4  1  0.67340401  0.32659599  0.75000000  1
  B  B5  1  0.32711180  0.67288820  0.25000000  1
  W  W0  1  0.20663523  0.79336477  0.25000000  1
loop_
_geom_bond_atom_site_label_1
_geom_bond_atom_site_label_2
_geom_bond_distance
_geom_bond_site_symmetry_2
B0 B2 1.816731 1_555
B0 B4 1.835826 1_555
B0 B4 1.835826 1_554
B0 W0 2.290777 1_545
B0 W0 2.290777 1_655
B0 Ta1 2.410337 1_655
B0 Ta1 2.410337 1_654
B0 Ta1 2.410337 1_544
B0 Ta1 2.410337 1_545
B1 B5 1.804970 1_555
B1 B5 1.804970 1_556
B1 B3 1.822511 1_555
B1 Mn0 2.179875 1_565
B1 Mn0 2.179875 1_455
B1 Ta0 2.416544 1_456
B1 Ta0 2.416544 1_455
B1 Ta0 2.416544 1_566
B1 Ta0 2.416544 1_565
B2 B3 1.781996 1_555
B2 B3 1.781996 1_554
B2 Ta1 2.407029 1_544
B2 Ta1 2.407029 1_545
B2 Ta1 2.407029 1_655
B2 Ta1 2.407029 1_654
B2 Ta0 2.413377 1_565
B2 Ta0 2.413378 1_455
B3 Ta0 2.403110 1_566
B3 Ta0 2.403110 1_565
B3 Ta0 2.403110 1_455
B3 Ta0 2.403110 1_456
B3 Ta1 2.421179 1_545
B3 Ta1 2.421179 1_655
B4 W0 2.315995 1_545
B4 W0 2.315995 1_546
B4 W0 2.315995 1_656
B4 W0 2.315995 1_655
B4 Mn0 2.358845 1_555
B4 Ta1 2.505106 1_655
B4 Ta1 2.505107 1_545
B5 W0 2.255996 1_555
B5 Mn0 2.290504 1_564
B5 Mn0 2.290504 1_565
B5 Mn0 2.290505 1_455
B5 Mn0 2.290505 1_454
B5 Ta0 2.473562 1_455
B5 Ta0 2.473563 1_565
