# generated using pymatgen
data_Y4Si(PtRh)6
_symmetry_space_group_name_H-M   'P 1'
_cell_length_a   7.17883822
_cell_length_b   7.17883922
_cell_length_c   7.17883905
_cell_angle_alpha   109.47121466
_cell_angle_beta   109.47121747
_cell_angle_gamma   109.47122488
_symmetry_Int_Tables_number   1
_chemical_formula_structural   Y4Si(PtRh)6
_chemical_formula_sum   'Y4 Si1 Pt6 Rh6'
_cell_volume   284.80049853
_cell_formula_units_Z   1
loop_
 _symmetry_equiv_pos_site_id
 _symmetry_equiv_pos_as_xyz
  1  'x, y, z'
loop_
 _atom_site_type_symbol
 _atom_site_label
 _atom_site_symmetry_multiplicity
 _atom_site_fract_x
 _atom_site_fract_y
 _atom_site_fract_z
 _atom_site_occupancy
  Y  Y0  1  0.00000000  0.00000000  0.50000000  1
  Y  Y1  1  0.00000000  0.50000000  0.00000000  1
  Y  Y2  1  0.50000000  0.00000000  0.00000000  1
  Y  Y3  1  0.50000000  0.50000000  0.50000000  1
  Si  Si0  1  0.00000000  0.00000000  0.00000000  1
  Pt  Pt0  1  0.75000000  0.25000000  0.50000000  1
  Pt  Pt1  1  0.75000000  0.50000000  0.25000000  1
  Pt  Pt2  1  0.50000000  0.25000000  0.75000000  1
  Pt  Pt3  1  0.25000000  0.50000000  0.75000000  1
  Pt  Pt4  1  0.25000000  0.75000000  0.50000000  1
  Pt  Pt5  1  0.50000000  0.75000000  0.25000000  1
  Rh  Rh0  1  0.72425077  0.72425077  0.00000000  1
  Rh  Rh1  1  0.27574923  1.00000000  0.27574923  1
  Rh  Rh2  1  1.00000000  0.27574923  0.27574923  1
  Rh  Rh3  1  0.27574923  0.27574923  1.00000000  1
  Rh  Rh4  1  0.72425077  0.00000000  0.72425077  1
  Rh  Rh5  1  0.00000000  0.72425077  0.72425077  1
loop_
_geom_bond_atom_site_label_1
_geom_bond_atom_site_label_2
_geom_bond_distance
_geom_bond_site_symmetry_2
Pt0 Rh1 2.783914 1_545
Pt0 Rh2 2.783914 1_555
Pt0 Rh4 2.783914 1_555
Pt0 Rh5 2.783914 1_655
Pt0 Pt3 2.930749 1_655
Pt0 Pt2 2.930749 1_555
Pt0 Pt1 2.930749 1_555
Pt0 Y3 2.930749 1_555
Pt0 Y0 2.930749 1_655
Pt0 Pt5 2.930749 1_545
Pt0 Y2 2.930749 1_555
Pt0 Y1 2.930749 1_656
Pt1 Rh3 2.783914 1_554
Pt1 Rh2 2.783914 1_555
Pt1 Rh0 2.783914 1_555
Pt1 Rh5 2.783914 1_655
Pt1 Pt4 2.930749 1_655
Pt1 Y1 2.930749 1_655
Pt1 Y3 2.930749 1_555
Pt1 Pt5 2.930749 1_555
Pt1 Y0 2.930749 1_665
Pt1 Y2 2.930749 1_555
Pt1 Pt2 2.930749 1_554
Pt2 Rh3 2.783914 1_555
Pt2 Rh4 2.783914 1_555
Pt2 Rh0 2.783914 1_556
Pt2 Rh1 2.783914 1_545
Pt2 Y1 2.930749 1_656
Pt2 Y0 2.930749 1_555
Pt2 Y2 2.930749 1_556
Pt2 Y3 2.930749 1_555
Pt2 Pt3 2.930749 1_555
Pt2 Pt4 2.930749 1_545
Pt3 Rh0 2.783914 1_556
Pt3 Rh5 2.783914 1_555
Pt3 Rh3 2.783914 1_555
Pt3 Rh2 2.783914 1_455
Pt3 Y1 2.930749 1_556
Pt3 Y3 2.930749 1_555
Pt3 Pt4 2.930749 1_555
Pt3 Y0 2.930749 1_555
Pt3 Y2 2.930749 1_566
Pt3 Pt5 2.930749 1_556
Pt4 Rh4 2.783914 1_565
Pt4 Rh5 2.783914 1_555
Pt4 Rh1 2.783914 1_555
Pt4 Rh2 2.783914 1_455
Pt4 Pt5 2.930749 1_555
Pt4 Y3 2.930749 1_555
Pt4 Y0 2.930749 1_565
Pt4 Y2 2.930749 1_566
Pt4 Y1 2.930749 1_555
Pt5 Rh0 2.783914 1_555
Pt5 Rh1 2.783914 1_555
Pt5 Rh3 2.783914 1_554
Pt5 Rh4 2.783914 1_565
Pt5 Y1 2.930749 1_555
Pt5 Y0 2.930749 1_665
Pt5 Y2 2.930749 1_565
Pt5 Y3 2.930749 1_555
Rh0 Si0 2.285798 1_665
Rh0 Y1 2.938511 1_655
Rh0 Y2 2.938511 1_565
Rh0 Y3 2.938511 1_554
Rh0 Y0 2.938511 1_665
Rh1 Si0 2.285798 1_565
Rh1 Y0 2.938511 1_565
Rh1 Y2 2.938511 1_565
Rh1 Y3 2.938511 1_565
Rh1 Y1 2.938511 1_555
Rh2 Si0 2.285798 1_655
Rh2 Y3 2.938511 1_655
Rh2 Y2 2.938511 1_555
Rh2 Y1 2.938511 1_655
Rh2 Y0 2.938511 1_655
Rh3 Si0 2.285798 1_556
Rh3 Y1 2.938511 1_556
Rh3 Y2 2.938511 1_556
Rh3 Y3 2.938511 1_556
Rh3 Y0 2.938511 1_555
Rh4 Si0 2.285798 1_656
Rh4 Y0 2.938511 1_655
Rh4 Y2 2.938511 1_556
Rh4 Y3 2.938511 1_545
Rh4 Y1 2.938511 1_656
Rh5 Si0 2.285798 1_566
Rh5 Y3 2.938511 1_455
Rh5 Y2 2.938511 1_566
Rh5 Y1 2.938511 1_556
Rh5 Y0 2.938511 1_565
