# generated using pymatgen
data_Ca2(Al3Ir)3
_symmetry_space_group_name_H-M   'P 1'
_cell_length_a   7.49461518
_cell_length_b   7.49461597
_cell_length_c   9.61622830
_cell_angle_alpha   90.00000000
_cell_angle_beta   90.00000000
_cell_angle_gamma   119.19551128
_symmetry_Int_Tables_number   1
_chemical_formula_structural   Ca2(Al3Ir)3
_chemical_formula_sum   'Ca4 Al18 Ir6'
_cell_volume   471.51767701
_cell_formula_units_Z   2
loop_
 _symmetry_equiv_pos_site_id
 _symmetry_equiv_pos_as_xyz
  1  'x, y, z'
loop_
 _atom_site_type_symbol
 _atom_site_label
 _atom_site_symmetry_multiplicity
 _atom_site_fract_x
 _atom_site_fract_y
 _atom_site_fract_z
 _atom_site_occupancy
  Ca  Ca0  1  0.99485105  0.67219388  0.25000000  1
  Ca  Ca1  1  0.00514895  0.32780612  0.75000000  1
  Ca  Ca2  1  0.67219388  0.99485105  0.25000000  1
  Ca  Ca3  1  0.32780612  0.00514895  0.75000000  1
  Al  Al0  1  0.13159001  0.13159001  0.25000000  1
  Al  Al1  1  0.86840999  0.86840999  0.75000000  1
  Al  Al2  1  0.00289102  0.33562614  0.07026138  1
  Al  Al3  1  0.99710898  0.66437386  0.92973862  1
  Al  Al4  1  0.99710898  0.66437386  0.57026138  1
  Al  Al5  1  0.33562614  0.00289102  0.42973862  1
  Al  Al6  1  0.00289102  0.33562614  0.42973862  1
  Al  Al7  1  0.66437386  0.99710898  0.57026138  1
  Al  Al8  1  0.66437386  0.99710898  0.92973862  1
  Al  Al9  1  0.33562614  0.00289102  0.07026138  1
  Al  Al10  1  0.33458392  0.33458392  0.54479240  1
  Al  Al11  1  0.66541608  0.66541608  0.45520760  1
  Al  Al12  1  0.66541608  0.66541608  0.04479240  1
  Al  Al13  1  0.33458392  0.33458392  0.95520760  1
  Al  Al14  1  0.33557950  0.54640315  0.25000000  1
  Al  Al15  1  0.66442050  0.45359685  0.75000000  1
  Al  Al16  1  0.54640315  0.33557950  0.25000000  1
  Al  Al17  1  0.45359685  0.66442050  0.75000000  1
  Ir  Ir0  1  0.67152084  0.32847916  0.00000000  1
  Ir  Ir1  1  0.32847916  0.67152084  0.00000000  1
  Ir  Ir2  1  0.32847916  0.67152084  0.50000000  1
  Ir  Ir3  1  0.67152084  0.32847916  0.50000000  1
  Ir  Ir4  1  0.00000000  0.00000000  0.00000000  1
  Ir  Ir5  1  0.00000000  0.00000000  0.50000000  1
loop_
_geom_bond_atom_site_label_1
_geom_bond_atom_site_label_2
_geom_bond_distance
_geom_bond_site_symmetry_2
Al0 Ir5 2.603049 1_555
Al0 Ir4 2.603049 1_555
Al0 Al16 2.713944 1_555
Al0 Al14 2.713944 1_555
Al0 Al5 2.773998 1_555
Al0 Al9 2.773998 1_555
Al0 Al6 2.773998 1_555
Al0 Al2 2.773998 1_555
Al0 Ca2 3.076070 1_445
Al0 Ca0 3.076071 1_445
Al1 Ir4 2.603049 1_666
Al1 Ir5 2.603049 1_665
Al1 Al17 2.713944 1_555
Al1 Al15 2.713944 1_555
Al1 Al8 2.773998 1_555
Al1 Al7 2.773998 1_555
Al1 Al3 2.773998 1_555
Al1 Al4 2.773998 1_555
Al1 Ca3 3.076070 1_665
Al1 Ca1 3.076071 1_665
Al2 Ir0 2.548985 1_455
Al2 Ir4 2.594414 1_555
Al2 Ir1 2.599100 1_555
Al2 Ca2 3.078565 1_445
Al2 Ca1 3.080468 1_554
Al2 Ca0 3.082538 1_455
Al3 Ir1 2.548985 1_656
Al3 Ir4 2.594414 1_666
Al3 Ir0 2.599100 1_556
Al3 Ca3 3.078565 1_665
Al3 Ca0 3.080468 1_556
Al3 Ca1 3.082538 1_655
Al4 Ir2 2.548985 1_655
Al4 Ir5 2.594414 1_665
Al4 Ir3 2.599100 1_555
Al4 Ca3 3.078565 1_665
Al4 Ca0 3.080468 1_555
Al4 Ca1 3.082538 1_655
Al5 Ir2 2.548986 1_545
Al5 Ir5 2.594414 1_555
Al5 Ir3 2.599100 1_555
Al5 Ca0 3.078565 1_445
Al5 Ca3 3.080468 1_555
Al5 Ca2 3.082538 1_545
Al6 Ir3 2.548985 1_455
Al6 Ir5 2.594414 1_555
Al6 Ir2 2.599100 1_555
Al6 Ca2 3.078565 1_445
Al6 Ca1 3.080468 1_555
Al6 Ca0 3.082538 1_455
Al7 Ir3 2.548986 1_565
Al7 Ir5 2.594414 1_665
Al7 Ir2 2.599100 1_555
Al7 Ca1 3.078565 1_665
Al7 Ca2 3.080468 1_555
Al7 Ca3 3.082538 1_565
Al8 Ir0 2.548986 1_566
Al8 Ir4 2.594414 1_666
Al8 Ir1 2.599100 1_556
Al8 Ca1 3.078565 1_665
Al8 Ca2 3.080468 1_556
Al8 Ca3 3.082538 1_565
Al9 Ir1 2.548986 1_545
Al9 Ir4 2.594414 1_555
Al9 Ir0 2.599100 1_555
Al9 Ca0 3.078565 1_445
Al9 Ca3 3.080468 1_554
Al9 Ca2 3.082538 1_545
Al10 Ir5 2.574299 1_555
Al10 Ir3 2.583996 1_555
Al10 Ir2 2.583997 1_555
Al10 Ca1 3.141677 1_555
Al10 Ca3 3.141677 1_555
Al11 Ir5 2.574299 1_665
Al11 Ir2 2.583996 1_555
Al11 Ir3 2.583997 1_555
Al11 Ca0 3.141677 1_555
Al11 Ca2 3.141677 1_555
Al12 Ir4 2.574299 1_665
Al12 Ir1 2.583996 1_555
Al12 Ir0 2.583997 1_555
Al12 Ca0 3.141677 1_555
Al12 Ca2 3.141677 1_555
Al13 Ir4 2.574299 1_556
Al13 Ir0 2.583996 1_556
Al13 Ir1 2.583997 1_556
Al13 Ca1 3.141677 1_555
Al13 Ca3 3.141677 1_555
Al14 Ir1 2.590425 1_555
Al14 Ir2 2.590425 1_555
Al14 Ca2 3.064067 1_555
Al14 Ca0 3.123853 1_455
Al15 Ir0 2.590425 1_556
Al15 Ir3 2.590425 1_555
Al15 Ca3 3.064067 1_555
Al15 Ca1 3.123853 1_655
Al16 Ir3 2.590425 1_555
Al16 Ir0 2.590425 1_555
Al16 Ca0 3.064067 1_555
Al16 Ca2 3.123854 1_545
Al17 Ir2 2.590425 1_555
Al17 Ir1 2.590425 1_556
Al17 Ca1 3.064067 1_555
Al17 Ca3 3.123854 1_565
