# generated using pymatgen
data_Ca5Si2Sn
_symmetry_space_group_name_H-M   'P 1'
_cell_length_a   9.36440290
_cell_length_b   9.36440239
_cell_length_c   9.36440350
_cell_angle_alpha   130.98122063
_cell_angle_beta   130.98121822
_cell_angle_gamma   71.84292239
_symmetry_Int_Tables_number   1
_chemical_formula_structural   Ca5Si2Sn
_chemical_formula_sum   'Ca10 Si4 Sn2'
_cell_volume   457.77917019
_cell_formula_units_Z   2
loop_
 _symmetry_equiv_pos_site_id
 _symmetry_equiv_pos_as_xyz
  1  'x, y, z'
loop_
 _atom_site_type_symbol
 _atom_site_label
 _atom_site_symmetry_multiplicity
 _atom_site_fract_x
 _atom_site_fract_y
 _atom_site_fract_z
 _atom_site_occupancy
  Ca  Ca0  1  0.81404563  0.31404563  0.85898577  1
  Ca  Ca1  1  0.18595437  0.68595437  0.14101423  1
  Ca  Ca2  1  0.45505985  0.95505985  0.14101423  1
  Ca  Ca3  1  0.31404563  0.45505985  0.50000000  1
  Ca  Ca4  1  0.04494015  0.18595437  0.50000000  1
  Ca  Ca5  1  0.54494015  0.04494015  0.85898577  1
  Ca  Ca6  1  0.68595437  0.54494015  0.50000000  1
  Ca  Ca7  1  0.95505985  0.81404563  0.50000000  1
  Ca  Ca8  1  0.00000000  0.00000000  0.00000000  1
  Ca  Ca9  1  0.50000000  0.50000000  0.00000000  1
  Si  Si0  1  0.11181109  0.61181109  0.72362318  1
  Si  Si1  1  0.88818891  0.38818891  0.27637682  1
  Si  Si2  1  0.61181109  0.88818891  0.50000000  1
  Si  Si3  1  0.38818891  0.11181109  0.50000000  1
  Sn  Sn0  1  0.25000000  0.25000000  0.00000000  1
  Sn  Sn1  1  0.75000000  0.75000000  0.00000000  1
loop_
_geom_bond_atom_site_label_1
_geom_bond_atom_site_label_2
_geom_bond_distance
_geom_bond_site_symmetry_2
Ca0 Si1 3.069681 1_556
Ca0 Si2 3.092522 1_545
Ca0 Si3 3.092522 1_555
Ca0 Sn1 3.348400 1_556
Ca0 Sn0 3.348401 1_656
Ca1 Si0 3.069681 1_554
Ca1 Si3 3.092522 1_565
Ca1 Si2 3.092522 1_555
Ca1 Sn0 3.348400 1_555
Ca1 Sn1 3.348401 1_455
Ca2 Si0 3.069691 1_554
Ca2 Si3 3.092523 1_565
Ca2 Si2 3.092523 1_555
Ca2 Sn0 3.348401 1_565
Ca2 Sn1 3.348401 1_555
Ca3 Si3 3.069690 1_555
Ca3 Si1 3.092520 1_455
Ca3 Si0 3.092530 1_555
Ca3 Sn1 3.348400 1_556
Ca3 Sn0 3.348401 1_555
Ca4 Si3 3.069690 1_555
Ca4 Si0 3.092519 1_555
Ca4 Si1 3.092530 1_455
Ca4 Sn1 3.348400 1_445
Ca4 Sn0 3.348401 1_556
Ca5 Si1 3.069691 1_556
Ca5 Si2 3.092523 1_545
Ca5 Si3 3.092523 1_555
Ca5 Sn1 3.348401 1_546
Ca5 Sn0 3.348401 1_556
Ca6 Si2 3.069690 1_555
Ca6 Si0 3.092520 1_655
Ca6 Si1 3.092530 1_555
Ca6 Sn0 3.348400 1_555
Ca6 Sn1 3.348401 1_556
Ca7 Si2 3.069690 1_555
Ca7 Si1 3.092519 1_555
Ca7 Si0 3.092530 1_655
Ca7 Sn0 3.348400 1_666
Ca7 Sn1 3.348401 1_555
Ca8 Si1 3.138649 1_455
Ca8 Si0 3.138649 1_544
Ca8 Si3 3.138652 1_555
Ca8 Si2 3.138652 1_444
Ca9 Si0 3.138649 1_554
Ca9 Si1 3.138649 1_555
Ca9 Si2 3.138651 1_555
Ca9 Si3 3.138651 1_554
Si0 Si1 2.457112 1_455
Si2 Si3 2.457101 1_565
