# generated using pymatgen
data_Rb4ScTaBr12
_symmetry_space_group_name_H-M   'P 1'
_cell_length_a   7.55222752
_cell_length_b   7.55222752
_cell_length_c   10.83030473
_cell_angle_alpha   90.00000000
_cell_angle_beta   90.00000000
_cell_angle_gamma   90.00000000
_symmetry_Int_Tables_number   1
_chemical_formula_structural   Rb4ScTaBr12
_chemical_formula_sum   'Rb4 Sc1 Ta1 Br12'
_cell_volume   617.71878166
_cell_formula_units_Z   1
loop_
 _symmetry_equiv_pos_site_id
 _symmetry_equiv_pos_as_xyz
  1  'x, y, z'
loop_
 _atom_site_type_symbol
 _atom_site_label
 _atom_site_symmetry_multiplicity
 _atom_site_fract_x
 _atom_site_fract_y
 _atom_site_fract_z
 _atom_site_occupancy
  Rb  Rb0  1  0.50000000  0.00000000  0.78224452  1
  Rb  Rb1  1  0.00000000  0.50000000  0.21775548  1
  Rb  Rb2  1  0.50000000  0.00000000  0.21775548  1
  Rb  Rb3  1  0.00000000  0.50000000  0.78224452  1
  Sc  Sc0  1  0.00000000  0.00000000  0.00000000  1
  Ta  Ta0  1  0.50000000  0.50000000  0.50000000  1
  Br  Br0  1  0.00000000  0.00000000  0.75407494  1
  Br  Br1  1  0.50000000  0.50000000  0.26619188  1
  Br  Br2  1  0.73606504  0.73606504  0.50000000  1
  Br  Br3  1  0.24834812  0.24834812  0.00000000  1
  Br  Br4  1  0.73606504  0.26393496  0.50000000  1
  Br  Br5  1  0.24834812  0.75165188  0.00000000  1
  Br  Br6  1  0.00000000  0.00000000  0.24592506  1
  Br  Br7  1  0.50000000  0.50000000  0.73380812  1
  Br  Br8  1  0.26393496  0.26393496  0.50000000  1
  Br  Br9  1  0.75165188  0.75165188  0.00000000  1
  Br  Br10  1  0.26393496  0.73606504  0.50000000  1
  Br  Br11  1  0.75165188  0.24834812  0.00000000  1
loop_
_geom_bond_atom_site_label_1
_geom_bond_atom_site_label_2
_geom_bond_distance
_geom_bond_site_symmetry_2
Br0 Sc0 2.663443 1_556
Br0 Rb3 3.788418 1_555
Br0 Rb0 3.788418 1_455
Br0 Rb0 3.788418 1_555
Br0 Rb3 3.788418 1_545
Br1 Ta0 2.532213 1_555
Br1 Rb2 3.812377 1_565
Br1 Rb1 3.812377 1_555
Br1 Rb2 3.812377 1_555
Br1 Rb1 3.812377 1_655
Br2 Ta0 2.521284 1_555
Br2 Rb0 4.061485 1_565
Br2 Rb3 4.061485 1_655
Br2 Rb1 4.061485 1_655
Br2 Rb2 4.061485 1_565
Br3 Sc0 2.652473 1_555
Br3 Rb2 3.562539 1_555
Br3 Rb1 3.562539 1_555
Br3 Rb3 3.562539 1_554
Br3 Rb0 3.562539 1_554
Br4 Ta0 2.521284 1_555
Br4 Rb0 4.061485 1_555
Br4 Rb3 4.061485 1_655
Br4 Rb2 4.061485 1_555
Br4 Rb1 4.061485 1_655
Br5 Sc0 2.652473 1_565
Br5 Rb1 3.562539 1_555
Br5 Rb3 3.562539 1_554
Br5 Rb2 3.562539 1_565
Br5 Rb0 3.562539 1_564
Br6 Sc0 2.663443 1_555
Br6 Rb2 3.788418 1_455
Br6 Rb1 3.788418 1_545
Br6 Rb1 3.788418 1_555
Br6 Rb2 3.788418 1_555
Br7 Ta0 2.532213 1_555
Br7 Rb0 3.812377 1_555
Br7 Rb0 3.812377 1_565
Br7 Rb3 3.812377 1_555
Br7 Rb3 3.812377 1_655
Br8 Ta0 2.521284 1_555
Br8 Rb0 4.061485 1_555
Br8 Rb3 4.061485 1_555
Br8 Rb1 4.061485 1_555
Br8 Rb2 4.061485 1_555
Br9 Sc0 2.652473 1_665
Br9 Rb1 3.562539 1_655
Br9 Rb2 3.562539 1_565
Br9 Rb3 3.562539 1_654
Br9 Rb0 3.562539 1_564
Br10 Ta0 2.521284 1_555
Br10 Rb3 4.061485 1_555
Br10 Rb0 4.061485 1_565
Br10 Rb1 4.061485 1_555
Br10 Rb2 4.061485 1_565
Br11 Sc0 2.652473 1_655
Br11 Rb2 3.562539 1_555
Br11 Rb0 3.562539 1_554
Br11 Rb1 3.562539 1_655
Br11 Rb3 3.562539 1_654
