# generated using pymatgen
data_Mn(CuCl2)2
_symmetry_space_group_name_H-M   'P 1'
_cell_length_a   6.47263758
_cell_length_b   6.47263758
_cell_length_c   3.84713100
_cell_angle_alpha   90.00000000
_cell_angle_beta   90.00000000
_cell_angle_gamma   108.57660123
_symmetry_Int_Tables_number   1
_chemical_formula_structural   Mn(CuCl2)2
_chemical_formula_sum   'Mn1 Cu2 Cl4'
_cell_volume   152.77821548
_cell_formula_units_Z   1
loop_
 _symmetry_equiv_pos_site_id
 _symmetry_equiv_pos_as_xyz
  1  'x, y, z'
loop_
 _atom_site_type_symbol
 _atom_site_label
 _atom_site_symmetry_multiplicity
 _atom_site_fract_x
 _atom_site_fract_y
 _atom_site_fract_z
 _atom_site_occupancy
  Mn  Mn0  1  0.22202600  0.22202600  0.00000000  1
  Cu  Cu0  1  0.83817900  0.49578900  0.50000000  1
  Cu  Cu1  1  0.49578900  0.83817900  0.50000000  1
  Cl  Cl0  1  0.01838800  0.49360300  0.00000000  1
  Cl  Cl1  1  0.48448500  0.48448500  0.50000000  1
  Cl  Cl2  1  0.01753000  0.01753000  0.50000000  1
  Cl  Cl3  1  0.49360300  0.01838800  0.00000000  1
loop_
_geom_bond_atom_site_label_1
_geom_bond_atom_site_label_2
_geom_bond_distance
_geom_bond_site_symmetry_2
Cl0 Cu0 2.251971 1_454
Cl0 Cu0 2.251971 1_455
Cl0 Mn0 2.510672 1_555
Cl1 Cu0 2.267085 1_555
Cl1 Cu1 2.267085 1_555
Cl1 Mn0 2.762826 1_556
Cl1 Mn0 2.762826 1_555
Cl2 Mn0 2.467350 1_555
Cl2 Mn0 2.467350 1_556
Cl3 Cu1 2.251971 1_544
Cl3 Cu1 2.251971 1_545
Cl3 Mn0 2.510672 1_555
