# generated using pymatgen
data_SrTi(GaPt)2
_symmetry_space_group_name_H-M   'P 1'
_cell_length_a   4.35334967
_cell_length_b   4.35334987
_cell_length_c   7.24708523
_cell_angle_alpha   90.00000000
_cell_angle_beta   90.00000000
_cell_angle_gamma   119.99999846
_symmetry_Int_Tables_number   1
_chemical_formula_structural   SrTi(GaPt)2
_chemical_formula_sum   'Sr1 Ti1 Ga2 Pt2'
_cell_volume   118.94361438
_cell_formula_units_Z   1
loop_
 _symmetry_equiv_pos_site_id
 _symmetry_equiv_pos_as_xyz
  1  'x, y, z'
loop_
 _atom_site_type_symbol
 _atom_site_label
 _atom_site_symmetry_multiplicity
 _atom_site_fract_x
 _atom_site_fract_y
 _atom_site_fract_z
 _atom_site_occupancy
  Sr  Sr0  1  0.00000000  0.00000000  0.00000000  1
  Ti  Ti0  1  0.00000000  0.00000000  0.50000000  1
  Ga  Ga0  1  0.33333300  0.66666700  0.31095000  1
  Ga  Ga1  1  0.66666700  0.33333300  0.68905000  1
  Pt  Pt0  1  0.33333300  0.66666700  0.67912492  1
  Pt  Pt1  1  0.66666700  0.33333300  0.32087508  1
loop_
_geom_bond_atom_site_label_1
_geom_bond_atom_site_label_2
_geom_bond_distance
_geom_bond_site_symmetry_2
Sr0 Ti0 3.623543 1_554
Sr0 Ti0 3.623543 1_555
Ga0 Pt1 2.514434 1_455
Ga0 Pt1 2.514434 1_565
Ga0 Pt1 2.514442 1_555
Ga0 Pt0 2.668195 1_555
Ga0 Ti0 2.862564 1_565
Ga0 Ti0 2.862568 1_665
Ga0 Ti0 2.862568 1_555
Ga0 Sr0 3.375705 1_565
Ga0 Sr0 3.375708 1_665
Ga0 Sr0 3.375708 1_555
Ga1 Pt0 2.514434 1_655
Ga1 Pt0 2.514434 1_545
Ga1 Pt0 2.514442 1_555
Ga1 Pt1 2.668195 1_555
Ga1 Ti0 2.862564 1_655
Ga1 Ti0 2.862568 1_555
Ga1 Ti0 2.862568 1_665
Ga1 Sr0 3.375705 1_656
Ga1 Sr0 3.375708 1_556
Ga1 Sr0 3.375708 1_666
Pt0 Ti0 2.828844 1_565
Pt0 Ti0 2.828847 1_665
Pt0 Ti0 2.828847 1_555
Pt0 Sr0 3.424140 1_566
Pt0 Sr0 3.424142 1_666
Pt0 Sr0 3.424143 1_556
Pt1 Ti0 2.828844 1_655
Pt1 Ti0 2.828847 1_555
Pt1 Ti0 2.828847 1_665
Pt1 Sr0 3.424140 1_655
Pt1 Sr0 3.424142 1_555
Pt1 Sr0 3.424143 1_665
