# generated using pymatgen
data_Be8VTc2W
_symmetry_space_group_name_H-M   'P 1'
_cell_length_a   4.35293935
_cell_length_b   4.35293972
_cell_length_c   7.16785186
_cell_angle_alpha   90.00000000
_cell_angle_beta   90.00000000
_cell_angle_gamma   120.00000472
_symmetry_Int_Tables_number   1
_chemical_formula_structural   Be8VTc2W
_chemical_formula_sum   'Be8 V1 Tc2 W1'
_cell_volume   117.62100939
_cell_formula_units_Z   1
loop_
 _symmetry_equiv_pos_site_id
 _symmetry_equiv_pos_as_xyz
  1  'x, y, z'
loop_
 _atom_site_type_symbol
 _atom_site_label
 _atom_site_symmetry_multiplicity
 _atom_site_fract_x
 _atom_site_fract_y
 _atom_site_fract_z
 _atom_site_occupancy
  Be  Be0  1  0.00000000  0.00000000  0.00087669  1
  Be  Be1  1  0.00000000  0.00000000  0.49755699  1
  Be  Be2  1  0.83031378  0.66062556  0.25149164  1
  Be  Be3  1  0.16913912  0.83086088  0.74839462  1
  Be  Be4  1  0.66172177  0.83086088  0.74839462  1
  Be  Be5  1  0.33937444  0.16968622  0.25149164  1
  Be  Be6  1  0.83031378  0.16968622  0.25149164  1
  Be  Be7  1  0.16913912  0.33827823  0.74839462  1
  V  V0  1  0.33333300  0.66666700  0.43771071  1
  Tc  Tc0  1  0.33333300  0.66666700  0.06365422  1
  Tc  Tc1  1  0.66666700  0.33333300  0.56161055  1
  W  W0  1  0.66666700  0.33333300  0.93892904  1
loop_
_geom_bond_atom_site_label_1
_geom_bond_atom_site_label_2
_geom_bond_distance
_geom_bond_site_symmetry_2
Be0 Be6 2.205377 1_455
Be0 Be5 2.205381 1_555
Be0 Be2 2.205381 1_445
Be0 Be4 2.213913 1_444
Be0 Be7 2.213913 1_554
Be0 Be3 2.213913 1_544
Be0 W0 2.552093 1_454
Be0 W0 2.552097 1_554
Be0 W0 2.552097 1_444
Be0 Tc0 2.553135 1_545
Be0 Tc0 2.553138 1_445
Be0 Tc0 2.553138 1_555
Be1 Be6 2.178896 1_455
Be1 Be5 2.178901 1_555
Be1 Be2 2.178901 1_445
Be1 Be4 2.204288 1_445
Be1 Be7 2.204289 1_555
Be1 Be3 2.204289 1_545
Be1 V0 2.549516 1_545
Be1 V0 2.549519 1_445
Be1 V0 2.549519 1_555
Be1 Tc1 2.554763 1_455
Be1 Tc1 2.554766 1_555
Be1 Tc1 2.554766 1_445
Be2 Be5 2.137029 1_555
Be2 Be6 2.137029 1_555
Be2 Be5 2.215910 1_665
Be2 Be6 2.215910 1_565
Be2 Tc1 2.542345 1_555
Be2 V0 2.553268 1_655
Be2 V0 2.553279 1_555
Be2 W0 2.557674 1_554
Be2 Tc0 2.559351 1_655
Be2 Tc0 2.559362 1_555
Be3 Be4 2.144182 1_555
Be3 Be7 2.144183 1_555
Be3 Be4 2.208757 1_455
Be3 Be7 2.208757 1_565
Be3 V0 2.547890 1_555
Be3 Tc1 2.555359 1_455
Be3 Tc1 2.555359 1_565
Be3 W0 2.569546 1_455
Be3 W0 2.569546 1_565
Be3 Tc0 2.576606 1_556
Be4 Be7 2.144182 1_555
Be4 Be7 2.208757 1_665
Be4 V0 2.547892 1_555
Be4 Tc1 2.555358 1_565
Be4 Tc1 2.555361 1_555
Be4 W0 2.569544 1_565
Be4 W0 2.569548 1_555
Be4 Tc0 2.576608 1_556
Be5 Be6 2.137029 1_555
Be5 Be6 2.215910 1_455
Be5 Tc1 2.542345 1_555
Be5 V0 2.553268 1_545
Be5 V0 2.553279 1_555
Be5 W0 2.557674 1_554
Be5 Tc0 2.559351 1_545
Be5 Tc0 2.559363 1_555
Be6 Tc1 2.542347 1_555
Be6 V0 2.553273 1_655
Be6 V0 2.553273 1_545
Be6 W0 2.557676 1_554
Be6 Tc0 2.559357 1_655
Be6 Tc0 2.559357 1_545
Be7 V0 2.547892 1_555
Be7 Tc1 2.555358 1_455
Be7 Tc1 2.555361 1_555
Be7 W0 2.569544 1_455
Be7 W0 2.569548 1_555
Be7 Tc0 2.576608 1_556
Tc0 W0 2.667446 1_454
Tc0 W0 2.667447 1_564
Tc0 W0 2.667454 1_554
Tc0 V0 2.681182 1_555
Tc1 V0 2.665470 1_655
Tc1 V0 2.665470 1_545
Tc1 V0 2.665477 1_555
Tc1 W0 2.704563 1_555
