# generated using pymatgen
data_K4Al7(InTe4)5
_symmetry_space_group_name_H-M   'P 1'
_cell_length_a   10.93835606
_cell_length_b   11.00366120
_cell_length_c   10.99527525
_cell_angle_alpha   91.25833821
_cell_angle_beta   90.90642497
_cell_angle_gamma   90.74120896
_symmetry_Int_Tables_number   1
_chemical_formula_structural   K4Al7(InTe4)5
_chemical_formula_sum   'K4 Al7 In5 Te20'
_cell_volume   1322.81140054
_cell_formula_units_Z   1
loop_
 _symmetry_equiv_pos_site_id
 _symmetry_equiv_pos_as_xyz
  1  'x, y, z'
loop_
 _atom_site_type_symbol
 _atom_site_label
 _atom_site_symmetry_multiplicity
 _atom_site_fract_x
 _atom_site_fract_y
 _atom_site_fract_z
 _atom_site_occupancy
  K  K0  1  0.24864979  0.00178901  0.75326005  1
  K  K1  1  0.74759714  0.24784499  0.99959424  1
  K  K2  1  0.99877175  0.74973013  0.24847331  1
  K  K3  1  0.50105103  0.49951252  0.49820230  1
  Al  Al0  1  0.42441242  0.11213115  0.16754672  1
  Al  Al1  1  0.73326672  0.16160054  0.35484042  1
  Al  Al2  1  0.35428838  0.73833878  0.16298096  1
  Al  Al3  1  0.16573556  0.35599966  0.73486812  1
  Al  Al4  1  0.26490529  0.64474547  0.83347062  1
  Al  Al5  1  0.83488128  0.26509151  0.64328579  1
  Al  Al6  1  0.64461969  0.83718701  0.26210133  1
  In  In0  1  0.83773284  0.88590318  0.57644503  1
  In  In1  1  0.57415067  0.83872760  0.88879706  1
  In  In2  1  0.88595453  0.57578165  0.83818632  1
  In  In3  1  0.16926939  0.42438694  0.11458924  1
  In  In4  1  0.11679367  0.16203113  0.42222627  1
  Te  Te0  1  0.19448536  0.80002745  0.99863128  1
  Te  Te1  1  0.80471966  0.99902684  0.19692410  1
  Te  Te2  1  0.18359824  0.16842051  0.16896629  1
  Te  Te3  1  0.83094094  0.83204931  0.83230023  1
  Te  Te4  1  0.99992743  0.19994636  0.80074310  1
  Te  Te5  1  0.92663667  0.49618954  0.07573708  1
  Te  Te6  1  0.07784626  0.92372043  0.49916537  1
  Te  Te7  1  0.49133271  0.07466101  0.94146509  1
  Te  Te8  1  0.73505741  0.70022501  0.42890415  1
  Te  Te9  1  0.43050941  0.74063440  0.69776888  1
  Te  Te10  1  0.69661612  0.43045174  0.73781931  1
  Te  Te11  1  0.26366365  0.57462038  0.30331159  1
  Te  Te12  1  0.30420281  0.26200243  0.56986983  1
  Te  Te13  1  0.55825335  0.28985432  0.26272560  1
  Te  Te14  1  0.67615003  0.08604476  0.57774085  1
  Te  Te15  1  0.57655086  0.67591326  0.08580746  1
  Te  Te16  1  0.08544867  0.57667770  0.67530510  1
  Te  Te17  1  0.32703368  0.42440507  0.91181640  1
  Te  Te18  1  0.91267954  0.32098257  0.42043579  1
  Te  Te19  1  0.42226705  0.92334467  0.31569471  1
loop_
_geom_bond_atom_site_label_1
_geom_bond_atom_site_label_2
_geom_bond_distance
_geom_bond_site_symmetry_2
K0 Te7 3.416160 1_555
K0 Te6 3.423740 1_545
K0 Te4 3.546424 1_455
K0 Te9 3.563224 1_545
K0 Te0 3.583063 1_545
K0 Te12 3.589017 1_555
K1 Te7 3.413076 1_555
K1 Te5 3.422436 1_556
K1 Te4 3.585279 1_555
K1 Te1 3.585585 1_546
K1 Te10 3.586808 1_555
K1 Te13 3.609627 1_556
K2 Te6 3.414879 1_655
K2 Te5 3.417040 1_555
K2 Te1 3.540145 1_555
K2 Te11 3.551325 1_655
K2 Te0 3.557797 1_654
K2 Te8 3.569502 1_555
K3 Te11 3.460447 1_555
K3 Te8 3.464030 1_555
K3 Te10 3.470817 1_555
K3 Te12 3.476496 1_555
K3 Te13 3.499092 1_555
K3 Te9 3.507237 1_555
Al0 Te13 2.617337 1_555
Al0 Te7 2.627838 1_554
Al0 Te19 2.667935 1_545
Al0 Te2 2.713948 1_555
Al1 Te13 2.598765 1_555
Al1 Te1 2.601651 1_545
Al1 Te14 2.685649 1_555
Al1 Te18 2.694049 1_555
Al2 Te11 2.594822 1_555
Al2 Te0 2.601221 1_554
Al2 Te15 2.680562 1_555
Al2 Te19 2.699597 1_555
Al3 Te12 2.588477 1_555
Al3 Te4 2.603511 1_455
Al3 Te16 2.683926 1_555
Al3 Te17 2.693976 1_555
Al4 Te9 2.593474 1_555
Al4 Te0 2.598599 1_555
Al4 Te17 2.682944 1_555
Al4 Te16 2.689857 1_555
Al5 Te10 2.591607 1_555
Al5 Te4 2.599911 1_555
Al5 Te18 2.687933 1_555
Al5 Te14 2.687954 1_555
Al6 Te8 2.591559 1_555
Al6 Te1 2.601310 1_555
Al6 Te15 2.688874 1_555
Al6 Te19 2.691091 1_555
In0 Te8 2.793723 1_555
In0 Te6 2.802009 1_655
In0 Te14 2.841530 1_565
In0 Te3 2.889543 1_555
In1 Te9 2.792415 1_555
In1 Te7 2.811994 1_565
In1 Te15 2.841227 1_556
In1 Te3 2.887826 1_555
In2 Te10 2.798019 1_555
In2 Te5 2.803755 1_556
In2 Te16 2.844837 1_655
In2 Te3 2.892875 1_555
In3 Te11 2.800381 1_555
In3 Te5 2.807788 1_455
In3 Te17 2.840877 1_554
In3 Te2 2.897846 1_555
In4 Te12 2.793868 1_555
In4 Te6 2.802408 1_545
In4 Te18 2.854039 1_455
In4 Te2 2.892216 1_555
