# generated using pymatgen
data_Y12Ga2Ni3Os
_symmetry_space_group_name_H-M   'P 1'
_cell_length_a   8.36121401
_cell_length_b   8.36121488
_cell_length_c   8.36121427
_cell_angle_alpha   112.01132833
_cell_angle_beta   109.29942958
_cell_angle_gamma   107.13985378
_symmetry_Int_Tables_number   1
_chemical_formula_structural   Y12Ga2Ni3Os
_chemical_formula_sum   'Y12 Ga2 Ni3 Os1'
_cell_volume   449.15383541
_cell_formula_units_Z   1
loop_
 _symmetry_equiv_pos_site_id
 _symmetry_equiv_pos_as_xyz
  1  'x, y, z'
loop_
 _atom_site_type_symbol
 _atom_site_label
 _atom_site_symmetry_multiplicity
 _atom_site_fract_x
 _atom_site_fract_y
 _atom_site_fract_z
 _atom_site_occupancy
  Y  Y0  1  0.05473798  0.74727697  0.30746201  1
  Y  Y1  1  0.96386095  0.26914997  0.69470998  1
  Y  Y2  1  0.56018304  0.25272303  0.30746201  1
  Y  Y3  1  0.42556101  0.73085003  0.69470998  1
  Y  Y4  1  0.67454442  0.86150776  0.19176958  1
  Y  Y5  1  0.33026182  0.51722516  0.19176958  1
  Y  Y6  1  0.33026182  0.13849224  0.81303666  1
  Y  Y7  1  0.67454442  0.48277484  0.81303666  1
  Y  Y8  1  0.17330358  0.22334412  0.39664771  1
  Y  Y9  1  0.81525274  0.22351773  0.03877047  1
  Y  Y10  1  0.17330358  0.77665588  0.94995946  1
  Y  Y11  1  0.81525274  0.77648227  0.59173500  1
  Ga  Ga0  1  0.98354743  0.50000000  0.48354743  1
  Ga  Ga1  1  0.50701329  1.00000000  0.50701329  1
  Ni  Ni0  1  0.35338759  0.50000000  0.85338759  1
  Ni  Ni1  1  0.88372698  0.88547914  0.99824683  1
  Ni  Ni2  1  0.11276769  0.11452086  0.99824683  1
  Os  Os0  1  0.66848795  0.50000000  0.16848795  1
loop_
_geom_bond_atom_site_label_1
_geom_bond_atom_site_label_2
_geom_bond_distance
_geom_bond_site_symmetry_2
Y0 Y8 3.513370 1_565
Y0 Y10 3.513375 1_554
Y0 Y4 3.521747 1_455
Y0 Y7 3.521752 1_454
Y0 Y6 3.554263 1_565
Y0 Y5 3.554270 1_555
Y0 Y11 3.566208 1_455
Y0 Y9 3.566215 1_455
Y0 Y3 3.750244 1_555
Y1 Y8 3.462501 1_655
Y1 Y10 3.462509 1_655
Y1 Y6 3.512404 1_655
Y1 Y5 3.512409 1_656
Y1 Y4 3.581198 1_545
Y1 Y7 3.581205 1_555
Y1 Y11 3.587662 1_545
Y1 Y9 3.587667 1_556
Y1 Y2 3.750250 1_555
Y2 Y8 3.513354 1_555
Y2 Y5 3.521744 1_555
Y2 Y6 3.521754 1_554
Y2 Y7 3.554258 1_555
Y2 Y4 3.554274 1_545
Y2 Y9 3.566228 1_555
Y3 Y8 3.462508 1_555
Y3 Y7 3.512406 1_555
Y3 Y4 3.512411 1_556
Y3 Y5 3.581195 1_555
Y3 Y6 3.581203 1_565
Y3 Y9 3.587660 1_566
Y10 Y3 3.462515 1_555
Y10 Y2 3.513366 1_566
Y11 Y2 3.566215 1_555
Y11 Y3 3.587655 1_555
Ga0 Y0 2.988693 1_655
Ga0 Y2 2.988708 1_555
Ga0 Os0 3.048250 1_555
Ga0 Y9 3.055100 1_555
Ga0 Y11 3.055100 1_555
Ga0 Y1 3.070716 1_555
Ga0 Y3 3.070723 1_655
Ga0 Y10 3.171963 1_655
Ga0 Y8 3.171963 1_655
Ga1 Y2 3.166376 1_565
Ga1 Y0 3.166384 1_555
Ga1 Y3 3.231348 1_555
Ga1 Y1 3.231356 1_565
Ga1 Y6 3.370357 1_565
Ga1 Y4 3.370357 1_555
Ga1 Y5 3.370358 1_555
Ga1 Y7 3.370358 1_565
Ga1 Y9 3.641601 1_566
Ga1 Y11 3.641602 1_555
Ni0 Y1 2.759025 1_455
Ni0 Y3 2.759033 1_555
Ni0 Y7 2.852292 1_555
Ni0 Y5 2.852292 1_556
Ni0 Y4 2.852292 1_556
Ni0 Y6 2.852293 1_555
Ni0 Os0 3.048645 1_556
Ni0 Y8 3.118733 1_555
Ni0 Y10 3.118733 1_555
Ni1 Ni2 2.274487 1_665
Ni1 Y7 2.761266 1_555
Ni1 Y4 2.761271 1_556
Ni1 Y10 2.919329 1_655
Ni1 Y8 2.919336 1_666
Ni1 Y11 2.965692 1_555
Ni1 Y9 2.965699 1_566
Ni1 Y0 3.291472 1_656
Ni1 Y3 3.313982 1_555
Ni2 Y6 2.761265 1_555
Ni2 Y5 2.761265 1_556
Ni2 Y8 2.919337 1_556
Ni2 Y10 2.919337 1_545
Ni2 Y9 2.965694 1_456
Ni2 Y11 2.965694 1_445
Ni2 Y2 3.291463 1_556
Ni2 Y1 3.313981 1_455
Os0 Y0 2.799599 1_655
Os0 Y2 2.799610 1_555
Os0 Y5 2.939226 1_555
Os0 Y7 2.939226 1_554
Os0 Y6 2.939226 1_554
Os0 Y4 2.939226 1_555
Os0 Y11 2.949351 1_555
Os0 Y9 2.949351 1_555
