# generated using pymatgen
data_TiBe9NbW
_symmetry_space_group_name_H-M   'P 1'
_cell_length_a   7.39460396
_cell_length_b   7.39460307
_cell_length_c   7.39460423
_cell_angle_alpha   35.29778433
_cell_angle_beta   35.29779657
_cell_angle_gamma   35.29777705
_symmetry_Int_Tables_number   1
_chemical_formula_structural   TiBe9NbW
_chemical_formula_sum   'Ti1 Be9 Nb1 W1'
_cell_volume   120.60192838
_cell_formula_units_Z   1
loop_
 _symmetry_equiv_pos_site_id
 _symmetry_equiv_pos_as_xyz
  1  'x, y, z'
loop_
 _atom_site_type_symbol
 _atom_site_label
 _atom_site_symmetry_multiplicity
 _atom_site_fract_x
 _atom_site_fract_y
 _atom_site_fract_z
 _atom_site_occupancy
  Ti  Ti0  1  0.14093050  0.14093050  0.14093050  1
  Be  Be0  1  0.41478283  0.92166454  0.41478283  1
  Be  Be1  1  0.41478283  0.41478283  0.92166454  1
  Be  Be2  1  0.92166454  0.41478283  0.41478283  1
  Be  Be3  1  0.58642720  0.07603463  0.58642720  1
  Be  Be4  1  0.58642720  0.58642720  0.07603463  1
  Be  Be5  1  0.07603463  0.58642720  0.58642720  1
  Be  Be6  1  0.66711113  0.66711113  0.66711113  1
  Be  Be7  1  0.33606515  0.33606515  0.33606515  1
  Be  Be8  1  0.49984957  0.49984957  0.49984957  1
  Nb  Nb0  1  0.99690698  0.99690698  0.99690698  1
  W  W0  1  0.85901745  0.85901745  0.85901745  1
loop_
_geom_bond_atom_site_label_1
_geom_bond_atom_site_label_2
_geom_bond_distance
_geom_bond_site_symmetry_2
Ti0 W0 2.800592 1_454
Ti0 W0 2.800593 1_544
Ti0 W0 2.800594 1_445
Be0 Be6 2.173240 1_555
Be0 Be8 2.181964 1_555
Be0 Be7 2.190360 1_565
Be0 Be2 2.211062 1_465
Be0 Be1 2.211063 1_564
Be0 Be2 2.272775 1_555
Be0 Be1 2.272776 1_555
Be0 W0 2.545996 1_455
Be0 W0 2.545996 1_554
Be0 Ti0 2.608667 1_565
Be0 Nb0 2.788974 1_554
Be0 Nb0 2.788974 1_455
Be1 Be6 2.173240 1_555
Be1 Be8 2.181965 1_555
Be1 Be7 2.190361 1_556
Be1 Be2 2.211064 1_456
Be1 Be2 2.272777 1_555
Be1 W0 2.545994 1_545
Be1 W0 2.545994 1_455
Be1 Ti0 2.608667 1_556
Be1 Nb0 2.788972 1_455
Be1 Nb0 2.788973 1_545
Be2 Be6 2.173240 1_555
Be2 Be8 2.181965 1_555
Be2 Be7 2.190361 1_655
Be2 W0 2.545995 1_545
Be2 W0 2.545995 1_554
Be2 Ti0 2.608667 1_655
Be2 Nb0 2.788973 1_554
Be2 Nb0 2.788973 1_545
Be3 Be7 2.127283 1_555
Be3 Be6 2.132319 1_545
Be3 Be8 2.181806 1_555
Be3 Be5 2.195320 1_645
Be3 Be4 2.195321 1_546
Be3 Be5 2.288517 1_555
Be3 Be4 2.288518 1_555
Be3 Ti0 2.545172 1_655
Be3 Ti0 2.545172 1_556
Be3 W0 2.602565 1_545
Be3 Nb0 2.867880 1_445
Be3 Nb0 2.867880 1_544
Be4 Be7 2.127283 1_555
Be4 Be6 2.132320 1_554
Be4 Be8 2.181806 1_555
Be4 Be5 2.195322 1_654
Be4 Be5 2.288519 1_555
Be4 Ti0 2.545171 1_565
Be4 Ti0 2.545171 1_655
Be4 W0 2.602565 1_554
Be4 Nb0 2.867879 1_544
Be4 Nb0 2.867879 1_454
Be5 Be7 2.127283 1_555
Be5 Be6 2.132320 1_455
Be5 Be8 2.181806 1_555
Be5 Ti0 2.545171 1_565
Be5 Ti0 2.545171 1_556
Be5 W0 2.602565 1_455
Be5 Nb0 2.867879 1_445
Be5 Nb0 2.867880 1_454
Be6 Nb0 2.589788 1_545
Be6 Nb0 2.589789 1_455
Be6 Nb0 2.589790 1_554
Be7 Nb0 2.591573 1_454
Be7 Nb0 2.591574 1_544
Be7 Nb0 2.591574 1_445
Be8 Ti0 2.642778 1_565
Be8 Ti0 2.642779 1_655
Be8 Ti0 2.642779 1_556
Be8 W0 2.643823 1_545
Be8 W0 2.643824 1_455
Be8 W0 2.643824 1_554
Nb0 W0 2.865340 1_555
Nb0 Ti0 2.992804 1_666
