# generated using pymatgen
data_Sr(CuGe)2
_symmetry_space_group_name_H-M   'P 1'
_cell_length_a   4.24251300
_cell_length_b   4.24251242
_cell_length_c   5.93126129
_cell_angle_alpha   110.95533586
_cell_angle_beta   110.95532084
_cell_angle_gamma   89.99998978
_symmetry_Int_Tables_number   1
_chemical_formula_structural   Sr(CuGe)2
_chemical_formula_sum   'Sr1 Cu2 Ge2'
_cell_volume   92.09467239
_cell_formula_units_Z   1
loop_
 _symmetry_equiv_pos_site_id
 _symmetry_equiv_pos_as_xyz
  1  'x, y, z'
loop_
 _atom_site_type_symbol
 _atom_site_label
 _atom_site_symmetry_multiplicity
 _atom_site_fract_x
 _atom_site_fract_y
 _atom_site_fract_z
 _atom_site_occupancy
  Sr  Sr0  1  -0.00000000  -0.00000000  -0.00000000  1
  Cu  Cu0  1  0.75000000  0.25000000  0.50000000  1
  Cu  Cu1  1  0.25000000  0.75000000  0.50000000  1
  Ge  Ge0  1  0.62697790  0.62697790  0.25395579  1
  Ge  Ge1  1  0.37302210  0.37302210  0.74604421  1
loop_
_geom_bond_atom_site_label_1
_geom_bond_atom_site_label_2
_geom_bond_distance
_geom_bond_site_symmetry_2
Cu0 Ge1 2.466704 1_555
Cu0 Ge0 2.466704 1_545
Cu0 Ge0 2.466705 1_555
Cu0 Ge1 2.466705 1_655
Cu0 Sr0 3.323376 1_655
Cu0 Sr0 3.323376 1_666
Cu0 Sr0 3.323376 1_656
Cu0 Sr0 3.323377 1_555
Cu1 Ge0 2.466704 1_555
Cu1 Ge1 2.466704 1_565
Cu1 Ge1 2.466705 1_555
Cu1 Ge0 2.466705 1_455
Cu1 Sr0 3.323376 1_566
Cu1 Sr0 3.323376 1_555
Cu1 Sr0 3.323376 1_565
Cu1 Sr0 3.323377 1_666
Ge0 Ge1 2.598821 1_554
Ge0 Sr0 3.269239 1_655
Ge0 Sr0 3.269239 1_665
Ge0 Sr0 3.269239 1_565
Ge0 Sr0 3.269240 1_555
Ge1 Sr0 3.269239 1_566
Ge1 Sr0 3.269239 1_556
Ge1 Sr0 3.269239 1_656
Ge1 Sr0 3.269240 1_666
