# generated using pymatgen
data_AgGeF5
_symmetry_space_group_name_H-M   'P 1'
_cell_length_a   5.63132887
_cell_length_b   10.29024044
_cell_length_c   7.58935938
_cell_angle_alpha   89.97791428
_cell_angle_beta   108.29133314
_cell_angle_gamma   89.76929405
_symmetry_Int_Tables_number   1
_chemical_formula_structural   AgGeF5
_chemical_formula_sum   'Ag4 Ge4 F20'
_cell_volume   417.56102807
_cell_formula_units_Z   4
loop_
 _symmetry_equiv_pos_site_id
 _symmetry_equiv_pos_as_xyz
  1  'x, y, z'
loop_
 _atom_site_type_symbol
 _atom_site_label
 _atom_site_symmetry_multiplicity
 _atom_site_fract_x
 _atom_site_fract_y
 _atom_site_fract_z
 _atom_site_occupancy
  Ag  Ag0  1  0.50000083  0.00000304  0.99999714  1
  Ag  Ag1  1  0.50000659  0.50000423  0.99999756  1
  Ag  Ag2  1  0.49999881  0.99999926  0.49999594  1
  Ag  Ag3  1  0.49999373  0.49999785  0.49999982  1
  Ge  Ge0  1  0.09725010  0.25143955  0.15605970  1
  Ge  Ge1  1  0.90316868  0.74766656  0.34420395  1
  Ge  Ge2  1  0.09682478  0.25233556  0.65579566  1
  Ge  Ge3  1  0.90275277  0.74856016  0.84394204  1
  F  F0  1  0.89347874  0.74627484  0.09184357  1
  F  F1  1  0.87236373  0.37690696  0.10674383  1
  F  F2  1  0.64889808  0.63496011  0.28517782  1
  F  F3  1  0.33314232  0.12733790  0.20957200  1
  F  F4  1  0.67851839  0.87726294  0.29011518  1
  F  F5  1  0.34157335  0.36994421  0.21343870  1
  F  F6  1  0.11688476  0.61694237  0.39721060  1
  F  F7  1  0.86402856  0.13113812  0.10055536  1
  F  F8  1  0.11061438  0.24930057  0.40911654  1
  F  F9  1  0.14765538  0.86188199  0.39980177  1
  F  F10  1  0.85235584  0.13810711  0.60018845  1
  F  F11  1  0.88939577  0.75070976  0.59088685  1
  F  F12  1  0.13597842  0.86886136  0.89946262  1
  F  F13  1  0.88309615  0.38304757  0.60279263  1
  F  F14  1  0.65842835  0.63006007  0.78655173  1
  F  F15  1  0.32149305  0.12273980  0.70988239  1
  F  F16  1  0.66686493  0.87266549  0.79043404  1
  F  F17  1  0.35108838  0.36504470  0.71482892  1
  F  F18  1  0.12763759  0.62309380  0.89325253  1
  F  F19  1  0.10651456  0.25371413  0.90815466  1
loop_
_geom_bond_atom_site_label_1
_geom_bond_atom_site_label_2
_geom_bond_distance
_geom_bond_site_symmetry_2
Ag0 F7 2.376286 1_556
Ag0 F12 2.376293 1_545
Ag0 F15 2.460049 1_555
Ag0 F4 2.460093 1_546
Ag0 F16 2.461556 1_545
Ag0 F3 2.461592 1_556
Ag1 F1 2.359918 1_556
Ag1 F18 2.359928 1_555
Ag1 F14 2.475107 1_555
Ag1 F5 2.475140 1_556
Ag1 F17 2.487640 1_555
Ag1 F2 2.487677 1_556
Ag2 F10 2.368877 1_565
Ag2 F9 2.368879 1_555
Ag2 F4 2.477788 1_555
Ag2 F15 2.477796 1_565
Ag2 F3 2.479104 1_565
Ag2 F16 2.479165 1_555
Ag3 F6 2.373411 1_555
Ag3 F13 2.373413 1_555
Ag3 F5 2.471984 1_555
Ag3 F14 2.471985 1_555
Ag3 F17 2.481064 1_555
Ag3 F2 2.481073 1_555
F0 Ge3 1.898591 1_554
F0 Ge1 1.898896 1_555
F1 Ge0 1.760604 1_655
F2 Ge1 1.790862 1_555
F3 Ge0 1.790997 1_555
F4 Ge1 1.790918 1_555
F5 Ge0 1.790953 1_555
F6 Ge1 1.761369 1_455
F7 Ge0 1.760973 1_655
F8 Ge2 1.898204 1_555
F8 Ge0 1.898380 1_555
F9 Ge1 1.761727 1_455
F10 Ge2 1.761745 1_655
F11 Ge1 1.898202 1_555
F11 Ge3 1.898380 1_555
F12 Ge3 1.760988 1_455
F13 Ge2 1.761316 1_655
F14 Ge3 1.790925 1_555
F15 Ge2 1.790977 1_555
F16 Ge3 1.791008 1_555
F17 Ge2 1.790851 1_555
F18 Ge3 1.760591 1_455
F19 Ge0 1.898599 1_556
F19 Ge2 1.898885 1_555
