# generated using pymatgen
data_LiNi2IO6
_symmetry_space_group_name_H-M   'P 1'
_cell_length_a   5.10484951
_cell_length_b   4.94539951
_cell_length_c   8.34272256
_cell_angle_alpha   90.00000000
_cell_angle_beta   90.07980251
_cell_angle_gamma   90.00000000
_symmetry_Int_Tables_number   1
_chemical_formula_structural   LiNi2IO6
_chemical_formula_sum   'Li2 Ni4 I2 O12'
_cell_volume   210.61616717
_cell_formula_units_Z   2
loop_
 _symmetry_equiv_pos_site_id
 _symmetry_equiv_pos_as_xyz
  1  'x, y, z'
loop_
 _atom_site_type_symbol
 _atom_site_label
 _atom_site_symmetry_multiplicity
 _atom_site_fract_x
 _atom_site_fract_y
 _atom_site_fract_z
 _atom_site_occupancy
  Li  Li0  1  0.50000000  0.50000000  0.00000000  1
  Li  Li1  1  0.00000000  0.00000000  0.50000000  1
  Ni  Ni0  1  0.49916222  0.99845489  0.80507774  1
  Ni  Ni1  1  0.00083778  0.49845489  0.69492226  1
  Ni  Ni2  1  0.50083778  0.00154511  0.19492226  1
  Ni  Ni3  1  0.99916222  0.50154511  0.30507774  1
  I  I0  1  0.50000000  0.50000000  0.50000000  1
  I  I1  1  0.00000000  0.00000000  0.00000000  1
  O  O0  1  0.33879511  0.27714410  0.65649214  1
  O  O1  1  0.16120489  0.77714410  0.84350786  1
  O  O2  1  0.66120489  0.72285590  0.34350786  1
  O  O3  1  0.83879511  0.22285590  0.15649214  1
  O  O4  1  0.66019848  0.71720071  0.65926055  1
  O  O5  1  0.83980152  0.21720071  0.84073945  1
  O  O6  1  0.33980152  0.28279929  0.34073945  1
  O  O7  1  0.16019848  0.78279929  0.15926055  1
  O  O8  1  0.18652758  0.69441201  0.50087085  1
  O  O9  1  0.31347242  0.19441201  0.99912915  1
  O  O10  1  0.81347242  0.30558799  0.49912915  1
  O  O11  1  0.68652758  0.80558799  0.00087085  1
loop_
_geom_bond_atom_site_label_1
_geom_bond_atom_site_label_2
_geom_bond_distance
_geom_bond_site_symmetry_2
Li0 O11 1.786225 1_555
Li0 O9 1.786225 1_554
Li0 O3 2.562791 1_555
Li0 O1 2.562791 1_554
Li0 O7 2.595514 1_555
Li0 O5 2.595514 1_554
Li1 O10 1.786225 1_455
Li1 O8 1.786225 1_545
Li1 O0 2.562791 1_555
Li1 O2 2.562791 1_445
Li1 O6 2.595514 1_555
Li1 O4 2.595514 1_445
Ni0 O4 2.023147 1_555
Ni0 O0 2.025711 1_565
Ni0 O1 2.068474 1_555
Ni0 O5 2.069094 1_565
Ni0 O9 2.112545 1_565
Ni0 O11 2.118580 1_556
Ni1 O5 2.023147 1_455
Ni1 O1 2.025711 1_555
Ni1 O0 2.068474 1_555
Ni1 O4 2.069094 1_455
Ni1 O8 2.112545 1_555
Ni1 O10 2.118580 1_455
Ni2 O6 2.023147 1_555
Ni2 O2 2.025711 1_545
Ni2 O3 2.068474 1_555
Ni2 O7 2.069094 1_545
Ni2 O11 2.112545 1_545
Ni2 O9 2.118580 1_554
Ni3 O7 2.023147 1_655
Ni3 O3 2.025711 1_555
Ni3 O2 2.068474 1_555
Ni3 O6 2.069094 1_655
Ni3 O10 2.112545 1_555
Ni3 O8 2.118580 1_655
I0 O10 1.866868 1_555
I0 O8 1.866868 1_555
I0 O4 1.893381 1_555
I0 O6 1.893381 1_555
I0 O2 1.897199 1_555
I0 O0 1.897199 1_555
I1 O9 1.866868 1_554
I1 O11 1.866868 1_445
I1 O7 1.893381 1_545
I1 O5 1.893381 1_454
I1 O3 1.897199 1_455
I1 O1 1.897199 1_544
