# generated using pymatgen
data_Rb6BiTe4Br
_symmetry_space_group_name_H-M   'P 1'
_cell_length_a   11.98226812
_cell_length_b   11.98226836
_cell_length_c   8.68224110
_cell_angle_alpha   90.00000000
_cell_angle_beta   90.00000000
_cell_angle_gamma   120.00000201
_symmetry_Int_Tables_number   1
_chemical_formula_structural   Rb6BiTe4Br
_chemical_formula_sum   'Rb12 Bi2 Te8 Br2'
_cell_volume   1079.54447706
_cell_formula_units_Z   2
loop_
 _symmetry_equiv_pos_site_id
 _symmetry_equiv_pos_as_xyz
  1  'x, y, z'
loop_
 _atom_site_type_symbol
 _atom_site_label
 _atom_site_symmetry_multiplicity
 _atom_site_fract_x
 _atom_site_fract_y
 _atom_site_fract_z
 _atom_site_occupancy
  Rb  Rb0  1  0.12796605  0.87203395  0.50734860  1
  Rb  Rb1  1  0.74406690  0.87203395  0.50734860  1
  Rb  Rb2  1  0.95181828  0.47590914  0.32576835  1
  Rb  Rb3  1  0.52409086  0.47590914  0.32576835  1
  Rb  Rb4  1  0.87203395  0.74406690  0.00734860  1
  Rb  Rb5  1  0.25593310  0.12796605  0.00734860  1
  Rb  Rb6  1  0.52409086  0.04818172  0.32576835  1
  Rb  Rb7  1  0.12796605  0.25593310  0.50734860  1
  Rb  Rb8  1  0.87203395  0.12796605  0.00734860  1
  Rb  Rb9  1  0.04818172  0.52409086  0.82576835  1
  Rb  Rb10  1  0.47590914  0.95181828  0.82576835  1
  Rb  Rb11  1  0.47590914  0.52409086  0.82576835  1
  Bi  Bi0  1  0.66666700  0.33333300  0.71385478  1
  Bi  Bi1  1  0.33333300  0.66666700  0.21385478  1
  Te  Te0  1  0.39396321  0.19698160  0.59938117  1
  Te  Te1  1  0.60603679  0.80301840  0.09938117  1
  Te  Te2  1  0.66666700  0.33333300  0.06487499  1
  Te  Te3  1  0.80301840  0.60603679  0.59938117  1
  Te  Te4  1  0.19698160  0.39396321  0.09938117  1
  Te  Te5  1  0.33333300  0.66666700  0.56487499  1
  Te  Te6  1  0.19698160  0.80301840  0.09938117  1
  Te  Te7  1  0.80301840  0.19698160  0.59938117  1
  Br  Br0  1  0.00000000  0.00000000  0.26437385  1
  Br  Br1  1  0.00000000  0.00000000  0.76437385  1
loop_
_geom_bond_atom_site_label_1
_geom_bond_atom_site_label_2
_geom_bond_distance
_geom_bond_site_symmetry_2
Rb0 Te3 3.680670 1_455
Rb0 Te0 3.680670 1_565
Rb0 Te6 3.820716 1_555
Rb1 Te7 3.680666 1_565
Rb1 Te3 3.680677 1_555
Rb1 Te1 3.820713 1_555
Rb2 Te2 3.726464 1_555
Rb2 Te7 3.746132 1_555
Rb2 Te3 3.746132 1_555
Rb2 Te6 4.042463 1_655
Rb2 Te4 4.042463 1_655
Rb3 Te2 3.726473 1_555
Rb3 Te3 3.746132 1_555
Rb3 Te0 3.746132 1_555
Rb3 Te4 4.042463 1_555
Rb3 Te1 4.042463 1_555
Rb4 Te6 3.680666 1_655
Rb4 Te1 3.680677 1_555
Rb4 Te3 3.820713 1_554
Rb5 Te6 3.680666 1_545
Rb5 Te4 3.680677 1_555
Rb5 Te0 3.820713 1_554
Rb6 Te2 3.726464 1_555
Rb6 Te7 3.746132 1_555
Rb6 Te0 3.746132 1_555
Rb6 Te6 4.042463 1_545
Rb6 Te1 4.042463 1_545
Rb7 Te7 3.680666 1_455
Rb7 Te0 3.680677 1_555
Rb7 Te4 3.820713 1_555
Rb8 Te4 3.680670 1_655
Rb8 Te1 3.680670 1_545
Rb8 Te7 3.820716 1_554
Rb9 Te5 3.726464 1_555
Rb9 Te6 3.746132 1_556
Rb9 Te4 3.746132 1_556
Rb9 Te7 4.042463 1_455
Rb9 Te3 4.042463 1_455
Rb10 Te5 3.726464 1_555
Rb10 Te6 3.746132 1_556
Rb10 Te1 3.746132 1_556
Rb10 Te7 4.042463 1_565
Rb10 Te0 4.042463 1_565
Rb11 Te5 3.726473 1_555
Rb11 Te4 3.746132 1_556
Rb11 Te1 3.746132 1_556
Rb11 Te3 4.042463 1_555
Rb11 Te0 4.042463 1_555
Bi0 Te7 2.999285 1_555
Bi0 Te0 2.999295 1_555
Bi0 Te3 2.999295 1_555
Bi0 Te2 3.047642 1_556
Bi0 Rb9 4.076454 1_655
Bi0 Rb10 4.076454 1_545
Bi0 Rb11 4.076464 1_555
Bi1 Te6 2.999285 1_555
Bi1 Te1 2.999295 1_555
Bi1 Te4 2.999295 1_555
Bi1 Te5 3.047642 1_555
Bi1 Rb2 4.076454 1_455
Bi1 Rb6 4.076454 1_565
Bi1 Rb3 4.076464 1_555
Br0 Rb0 3.391682 1_545
Br0 Rb1 3.391690 1_445
Br0 Rb7 3.391690 1_555
Br0 Rb8 3.468873 1_455
Br0 Rb5 3.468881 1_555
Br0 Rb4 3.468881 1_445
Br1 Rb8 3.391682 1_456
Br1 Rb5 3.391690 1_556
Br1 Rb4 3.391690 1_446
Br1 Rb0 3.468873 1_545
Br1 Rb1 3.468881 1_445
Br1 Rb7 3.468881 1_555
