# generated using pymatgen
data_Mn2GaCo4Sb
_symmetry_space_group_name_H-M   'P 1'
_cell_length_a   7.14354576
_cell_length_b   7.14354543
_cell_length_c   7.14354591
_cell_angle_alpha   33.48603900
_cell_angle_beta   33.48604271
_cell_angle_gamma   33.48605115
_symmetry_Int_Tables_number   1
_chemical_formula_structural   Mn2GaCo4Sb
_chemical_formula_sum   'Mn2 Ga1 Co4 Sb1'
_cell_volume   98.83091947
_cell_formula_units_Z   1
loop_
 _symmetry_equiv_pos_site_id
 _symmetry_equiv_pos_as_xyz
  1  'x, y, z'
loop_
 _atom_site_type_symbol
 _atom_site_label
 _atom_site_symmetry_multiplicity
 _atom_site_fract_x
 _atom_site_fract_y
 _atom_site_fract_z
 _atom_site_occupancy
  Mn  Mn0  1  0.25382091  0.25382091  0.25382091  1
  Mn  Mn1  1  0.74617909  0.74617909  0.74617909  1
  Ga  Ga0  1  0.00000000  0.00000000  0.00000000  1
  Co  Co0  1  0.37363337  0.37363337  0.37363337  1
  Co  Co1  1  0.87670311  0.87670311  0.87670311  1
  Co  Co2  1  0.62636663  0.62636663  0.62636663  1
  Co  Co3  1  0.12329689  0.12329689  0.12329689  1
  Sb  Sb0  1  0.50000000  0.50000000  0.50000000  1
loop_
_geom_bond_atom_site_label_1
_geom_bond_atom_site_label_2
_geom_bond_distance
_geom_bond_site_symmetry_2
Mn0 Sb0 2.957905 1_545
Mn0 Sb0 2.957905 1_554
Mn0 Sb0 2.957906 1_455
Mn1 Sb0 2.957905 1_565
Mn1 Sb0 2.957905 1_556
Mn1 Sb0 2.957906 1_655
Ga0 Mn1 2.868621 1_445
Ga0 Mn0 2.868621 1_554
Ga0 Mn1 2.868621 1_454
Ga0 Mn0 2.868621 1_545
Ga0 Mn1 2.868621 1_544
Ga0 Mn0 2.868621 1_455
Co0 Mn0 2.421434 1_555
Co0 Mn1 2.504935 1_554
Co0 Mn1 2.504935 1_545
Co0 Mn1 2.504935 1_455
Co0 Ga0 2.511975 1_556
Co0 Ga0 2.511976 1_565
Co0 Ga0 2.511976 1_655
Co0 Sb0 2.553895 1_555
Co1 Ga0 2.491855 1_666
Co1 Sb0 2.532771 1_556
Co1 Sb0 2.532772 1_565
Co1 Sb0 2.532772 1_655
Co1 Mn0 2.535684 1_665
Co1 Mn0 2.535684 1_656
Co1 Mn0 2.535685 1_566
Co1 Mn1 2.637917 1_555
Co2 Mn1 2.421434 1_555
Co2 Mn0 2.504935 1_556
Co2 Mn0 2.504935 1_565
Co2 Mn0 2.504935 1_655
Co2 Ga0 2.511975 1_665
Co2 Ga0 2.511976 1_656
Co2 Ga0 2.511976 1_566
Co2 Sb0 2.553895 1_555
Co3 Ga0 2.491855 1_555
Co3 Sb0 2.532771 1_554
Co3 Sb0 2.532772 1_545
Co3 Sb0 2.532772 1_455
Co3 Mn1 2.535684 1_445
Co3 Mn1 2.535684 1_454
Co3 Mn1 2.535685 1_544
Co3 Mn0 2.637917 1_555
