# generated using pymatgen
data_Ca4GeSbPd28
_symmetry_space_group_name_H-M   'P 1'
_cell_length_a   8.90382901
_cell_length_b   8.90382901
_cell_length_c   7.14035718
_cell_angle_alpha   90.00000000
_cell_angle_beta   90.00000000
_cell_angle_gamma   90.00000000
_symmetry_Int_Tables_number   1
_chemical_formula_structural   Ca4GeSbPd28
_chemical_formula_sum   'Ca4 Ge1 Sb1 Pd28'
_cell_volume   566.07445723
_cell_formula_units_Z   1
loop_
 _symmetry_equiv_pos_site_id
 _symmetry_equiv_pos_as_xyz
  1  'x, y, z'
loop_
 _atom_site_type_symbol
 _atom_site_label
 _atom_site_symmetry_multiplicity
 _atom_site_fract_x
 _atom_site_fract_y
 _atom_site_fract_z
 _atom_site_occupancy
  Ca  Ca0  1  0.50000000  0.00000000  0.93808183  1
  Ca  Ca1  1  0.00000000  0.50000000  0.05901551  1
  Ca  Ca2  1  0.00000000  0.00000000  0.50037537  1
  Ca  Ca3  1  0.50000000  0.50000000  0.50037537  1
  Ge  Ge0  1  0.00000000  0.50000000  0.54908310  1
  Sb  Sb0  1  0.50000000  0.00000000  0.45828387  1
  Pd  Pd0  1  0.32016308  0.82016308  0.63097932  1
  Pd  Pd1  1  0.32016308  0.17983692  0.63097932  1
  Pd  Pd2  1  0.67983692  0.82016308  0.63097932  1
  Pd  Pd3  1  0.67983692  0.17983692  0.63097932  1
  Pd  Pd4  1  0.16864174  0.66864174  0.37515972  1
  Pd  Pd5  1  0.16864174  0.33135826  0.37515972  1
  Pd  Pd6  1  0.83135826  0.66864174  0.37515972  1
  Pd  Pd7  1  0.83135826  0.33135826  0.37515972  1
  Pd  Pd8  1  0.50000000  0.76205806  0.24566973  1
  Pd  Pd9  1  0.50000000  0.23794194  0.24566973  1
  Pd  Pd10  1  0.26205806  0.00000000  0.24566973  1
  Pd  Pd11  1  0.73794194  0.00000000  0.24566973  1
  Pd  Pd12  1  0.00000000  0.73307476  0.74427349  1
  Pd  Pd13  1  0.00000000  0.26692524  0.74427349  1
  Pd  Pd14  1  0.23307476  0.50000000  0.74427349  1
  Pd  Pd15  1  0.76692524  0.50000000  0.74427349  1
  Pd  Pd16  1  0.50000000  0.34913373  0.85984171  1
  Pd  Pd17  1  0.50000000  0.65086627  0.85984171  1
  Pd  Pd18  1  0.84913373  0.00000000  0.85984171  1
  Pd  Pd19  1  0.15086627  0.00000000  0.85984171  1
  Pd  Pd20  1  0.00000000  0.15191676  0.14237797  1
  Pd  Pd21  1  0.00000000  0.84808324  0.14237797  1
  Pd  Pd22  1  0.65191676  0.50000000  0.14237797  1
  Pd  Pd23  1  0.34808324  0.50000000  0.14237797  1
  Pd  Pd24  1  0.24815085  0.74815085  0.00039480  1
  Pd  Pd25  1  0.24815085  0.25184915  0.00039480  1
  Pd  Pd26  1  0.75184915  0.74815085  0.00039480  1
  Pd  Pd27  1  0.75184915  0.25184915  0.00039480  1
loop_
_geom_bond_atom_site_label_1
_geom_bond_atom_site_label_2
_geom_bond_distance
_geom_bond_site_symmetry_2
Ca0 Pd9 3.051577 1_556
Ca0 Pd11 3.051577 1_556
Ca0 Pd8 3.051577 1_546
Ca0 Pd10 3.051577 1_556
Ca0 Pd3 3.152204 1_555
Ca0 Pd2 3.152204 1_545
Ca0 Pd1 3.152204 1_555
Ca0 Pd0 3.152204 1_545
Ca0 Pd16 3.158428 1_555
Ca0 Pd18 3.158428 1_555
Ca0 Pd17 3.158428 1_545
Ca0 Pd19 3.158428 1_555
Ca0 Pd26 3.202324 1_546
Ca0 Pd27 3.202324 1_556
Ca0 Pd24 3.202324 1_546
Ca0 Pd25 3.202324 1_556
Ca1 Pd14 3.058982 1_554
Ca1 Pd12 3.058982 1_554
Ca1 Pd15 3.058982 1_454
Ca1 Pd13 3.058982 1_554
Ca1 Pd5 3.099213 1_555
Ca1 Pd4 3.099213 1_555
Ca1 Pd7 3.099213 1_455
Ca1 Pd6 3.099213 1_455
Ca1 Pd25 3.152605 1_555
Ca1 Pd24 3.152605 1_555
Ca1 Pd27 3.152605 1_455
Ca1 Pd26 3.152605 1_455
Ca1 Pd22 3.155916 1_455
Ca1 Pd20 3.155916 1_555
Ca1 Pd23 3.155916 1_555
Ca1 Pd21 3.155916 1_555
Ca2 Pd21 2.892049 1_545
Ca2 Pd20 2.892049 1_555
Ca2 Pd19 2.896975 1_555
Ca2 Pd18 2.896975 1_455
Ca2 Pd13 2.946419 1_555
Ca2 Pd12 2.946419 1_545
Ca2 Pd10 2.958380 1_555
Ca2 Pd11 2.958380 1_455
Ca2 Pd1 3.399998 1_555
Ca2 Pd0 3.399998 1_545
Ca2 Pd3 3.399998 1_455
Ca2 Pd2 3.399998 1_445
Ca2 Pd4 3.429092 1_545
Ca2 Pd6 3.429092 1_445
Ca2 Pd5 3.429092 1_555
Ca2 Pd7 3.429092 1_455
Ca3 Pd23 2.892049 1_555
Ca3 Pd22 2.892049 1_555
Ca3 Pd17 2.896975 1_555
Ca3 Pd16 2.896975 1_555
Ca3 Pd15 2.946419 1_555
Ca3 Pd14 2.946419 1_555
Ca3 Pd8 2.958380 1_555
Ca3 Pd9 2.958380 1_555
Ca3 Pd2 3.399998 1_555
Ca3 Pd0 3.399998 1_555
Ca3 Pd3 3.399998 1_555
Ca3 Pd1 3.399998 1_555
Ca3 Pd7 3.429092 1_555
Ca3 Pd6 3.429092 1_555
Ca3 Pd5 3.429092 1_555
Ca3 Pd4 3.429092 1_555
Ge0 Pd5 2.460000 1_555
Ge0 Pd4 2.460000 1_555
Ge0 Pd7 2.460000 1_455
Ge0 Pd6 2.460000 1_455
Ge0 Pd14 2.499835 1_555
Ge0 Pd12 2.499835 1_555
Ge0 Pd15 2.499835 1_455
Ge0 Pd13 2.499835 1_555
Pd0 Sb0 2.578464 1_565
Pd0 Pd4 2.641378 1_555
Pd0 Pd19 2.739829 1_565
Pd0 Pd17 2.739829 1_555
Pd0 Pd24 2.789266 1_556
Pd0 Pd12 3.063014 1_555
Pd0 Pd14 3.063014 1_555
Pd0 Pd1 3.202474 1_565
Pd0 Pd2 3.202474 1_555
Pd0 Pd8 3.225056 1_555
Pd0 Pd10 3.225056 1_565
Pd1 Sb0 2.578464 1_555
Pd1 Pd5 2.641378 1_555
Pd1 Pd19 2.739829 1_555
Pd1 Pd16 2.739829 1_555
Pd1 Pd25 2.789266 1_556
Pd1 Pd13 3.063014 1_555
Pd1 Pd14 3.063014 1_555
Pd1 Pd3 3.202474 1_555
Pd1 Pd10 3.225056 1_555
Pd1 Pd9 3.225056 1_555
Pd2 Sb0 2.578464 1_565
Pd2 Pd6 2.641378 1_555
Pd2 Pd26 2.789266 1_556
Pd2 Pd3 3.202474 1_565
Pd2 Pd8 3.225056 1_555
Pd3 Sb0 2.578464 1_555
Pd3 Pd7 2.641378 1_555
Pd3 Pd9 3.225056 1_555
Pd4 Pd6 3.003114 1_455
Pd4 Pd5 3.003114 1_555
Pd4 Pd8 3.201770 1_555
Pd5 Pd7 3.003114 1_455
Pd5 Pd9 3.201770 1_555
Pd6 Pd7 3.003114 1_555
Pd6 Pd8 3.201770 1_555
Pd7 Pd9 3.201770 1_555
Pd8 Sb0 2.606376 1_565
Pd9 Sb0 2.606376 1_555
Pd10 Sb0 2.606376 1_555
Pd10 Pd21 2.796066 1_545
Pd10 Pd20 2.796066 1_555
Pd10 Pd24 2.847985 1_545
Pd10 Pd25 2.847985 1_555
Pd10 Pd19 2.927442 1_554
Pd10 Pd4 3.201770 1_545
Pd10 Pd5 3.201770 1_555
Pd11 Sb0 2.606376 1_555
Pd11 Pd21 2.796066 1_645
Pd11 Pd20 2.796066 1_655
Pd11 Pd26 2.847985 1_545
Pd11 Pd27 2.847985 1_555
Pd11 Pd18 2.927442 1_554
Pd11 Pd6 3.201770 1_545
Pd11 Pd7 3.201770 1_555
Pd11 Pd3 3.225056 1_555
Pd11 Pd2 3.225056 1_545
Pd12 Pd19 2.851994 1_565
Pd12 Pd18 2.851994 1_465
Pd12 Pd24 2.871302 1_556
Pd12 Pd26 2.871302 1_456
Pd12 Pd21 3.021428 1_556
Pd12 Pd2 3.063014 1_455
Pd12 Pd4 3.087105 1_555
Pd12 Pd6 3.087105 1_455
Pd13 Pd19 2.851994 1_555
Pd13 Pd18 2.851994 1_455
Pd13 Pd25 2.871302 1_556
Pd13 Pd27 2.871302 1_456
Pd13 Pd20 3.021428 1_556
Pd13 Pd3 3.063014 1_455
Pd13 Pd5 3.087105 1_555
Pd13 Pd7 3.087105 1_455
Pd14 Pd17 2.851994 1_555
Pd14 Pd16 2.851994 1_555
Pd14 Pd25 2.871302 1_556
Pd14 Pd24 2.871302 1_556
Pd14 Pd23 3.021428 1_556
Pd14 Pd5 3.087105 1_555
Pd14 Pd4 3.087105 1_555
Pd15 Pd17 2.851994 1_555
Pd15 Pd16 2.851994 1_555
Pd15 Pd27 2.871302 1_556
Pd15 Pd26 2.871302 1_556
Pd15 Pd22 3.021428 1_556
Pd15 Pd2 3.063014 1_555
Pd15 Pd3 3.063014 1_555
Pd15 Pd7 3.087105 1_555
Pd15 Pd6 3.087105 1_555
Pd16 Pd27 2.604991 1_556
Pd16 Pd25 2.604991 1_556
Pd16 Pd17 2.686575 1_555
Pd16 Pd3 2.739829 1_555
Pd16 Pd23 2.775608 1_556
Pd16 Pd22 2.775608 1_556
Pd16 Pd9 2.927442 1_556
Pd17 Pd26 2.604991 1_556
Pd17 Pd24 2.604991 1_556
Pd17 Pd2 2.739829 1_555
Pd17 Pd23 2.775608 1_556
Pd17 Pd22 2.775608 1_556
Pd17 Pd8 2.927442 1_556
Pd18 Pd26 2.604991 1_546
Pd18 Pd27 2.604991 1_556
Pd18 Pd19 2.686575 1_655
Pd18 Pd3 2.739829 1_555
Pd18 Pd2 2.739829 1_545
Pd18 Pd21 2.775608 1_646
Pd18 Pd20 2.775608 1_656
Pd19 Pd24 2.604991 1_546
Pd19 Pd25 2.604991 1_556
Pd19 Pd21 2.775608 1_546
Pd19 Pd20 2.775608 1_556
Pd20 Pd25 2.588702 1_555
Pd20 Pd27 2.588702 1_455
Pd20 Pd21 2.705282 1_545
Pd20 Pd5 2.751381 1_555
Pd20 Pd7 2.751381 1_455
Pd21 Pd24 2.588702 1_555
Pd21 Pd26 2.588702 1_455
Pd21 Pd4 2.751381 1_555
Pd21 Pd6 2.751381 1_455
Pd22 Pd27 2.588702 1_555
Pd22 Pd26 2.588702 1_555
Pd22 Pd23 2.705282 1_555
Pd22 Pd7 2.751381 1_555
Pd22 Pd6 2.751381 1_555
Pd22 Pd8 2.796066 1_555
Pd22 Pd9 2.796066 1_555
Pd23 Pd25 2.588702 1_555
Pd23 Pd24 2.588702 1_555
Pd23 Pd5 2.751381 1_555
Pd23 Pd4 2.751381 1_555
Pd23 Pd8 2.796066 1_555
Pd23 Pd9 2.796066 1_555
Pd24 Pd8 2.847985 1_555
Pd24 Pd4 2.857111 1_555
Pd25 Pd9 2.847985 1_555
Pd25 Pd5 2.857111 1_555
Pd26 Pd8 2.847985 1_555
Pd26 Pd6 2.857111 1_555
Pd27 Pd3 2.789266 1_554
Pd27 Pd9 2.847985 1_555
Pd27 Pd7 2.857111 1_555
