# generated using pymatgen
data_Lu12InGa4Ag
_symmetry_space_group_name_H-M   'P 1'
_cell_length_a   8.36497498
_cell_length_b   8.36497594
_cell_length_c   8.36497466
_cell_angle_alpha   112.13127553
_cell_angle_beta   112.35702708
_cell_angle_gamma   104.05736148
_symmetry_Int_Tables_number   1
_chemical_formula_structural   Lu12InGa4Ag
_chemical_formula_sum   'Lu12 In1 Ga4 Ag1'
_cell_volume   447.59939737
_cell_formula_units_Z   1
loop_
 _symmetry_equiv_pos_site_id
 _symmetry_equiv_pos_as_xyz
  1  'x, y, z'
loop_
 _atom_site_type_symbol
 _atom_site_label
 _atom_site_symmetry_multiplicity
 _atom_site_fract_x
 _atom_site_fract_y
 _atom_site_fract_z
 _atom_site_occupancy
  Lu  Lu0  1  0.43545736  0.23786907  0.19758829  1
  Lu  Lu1  1  0.56454264  0.76213093  0.80241171  1
  Lu  Lu2  1  0.04028078  0.23786907  0.80241171  1
  Lu  Lu3  1  0.95971922  0.76213093  0.19758829  1
  Lu  Lu4  1  0.18051003  0.27350264  0.45401267  1
  Lu  Lu5  1  0.81948997  0.72649736  0.54598733  1
  Lu  Lu6  1  0.18051003  0.72649736  0.90701039  1
  Lu  Lu7  1  0.81948997  0.27350264  0.09298961  1
  Lu  Lu8  1  0.32014804  0.61938533  0.29923729  1
  Lu  Lu9  1  0.67985196  0.38061467  0.70076271  1
  Lu  Lu10  1  0.32014804  0.02091075  0.70076271  1
  Lu  Lu11  1  0.67985196  0.97908925  0.29923729  1
  In  In0  1  0.50000000  0.50000000  0.00000000  1
  Ga  Ga0  1  0.35244581  0.00000000  0.35244581  1
  Ga  Ga1  1  0.64755419  1.00000000  0.64755419  1
  Ga  Ga2  1  0.12084230  0.62084230  0.50000000  1
  Ga  Ga3  1  0.87915770  0.37915770  0.50000000  1
  Ag  Ag0  1  0.00000000  0.00000000  0.00000000  1
loop_
_geom_bond_atom_site_label_1
_geom_bond_atom_site_label_2
_geom_bond_distance
_geom_bond_site_symmetry_2
Lu0 Lu9 3.435470 1_555
Lu0 Lu11 3.435471 1_545
Lu0 Lu10 3.451517 1_554
Lu0 Lu8 3.451517 1_555
Lu0 Lu4 3.541893 1_555
Lu0 Lu6 3.541893 1_544
Lu0 Lu5 3.611594 1_555
Lu0 Lu7 3.611609 1_555
Lu0 Lu2 3.679888 1_554
Lu1 Lu8 3.435470 1_555
Lu1 Lu10 3.435471 1_565
Lu1 Lu11 3.451517 1_556
Lu1 Lu9 3.451517 1_555
Lu1 Lu5 3.541893 1_555
Lu1 Lu7 3.541893 1_566
Lu1 Lu4 3.611594 1_555
Lu1 Lu6 3.611609 1_555
Lu1 Lu3 3.679888 1_556
Lu2 Lu9 3.435470 1_455
Lu2 Lu8 3.451517 1_556
Lu2 Lu7 3.541872 1_456
Lu2 Lu5 3.541893 1_445
Lu2 Lu6 3.611586 1_555
Lu2 Lu4 3.611593 1_555
Lu3 Lu8 3.435470 1_655
Lu3 Lu9 3.451517 1_554
Lu3 Lu6 3.541872 1_654
Lu3 Lu4 3.541893 1_665
Lu3 Lu7 3.611586 1_555
Lu3 Lu5 3.611593 1_555
Lu4 Lu7 3.361837 1_455
Lu4 Lu9 3.569307 1_555
Lu4 Lu8 3.707147 1_555
Lu5 Lu6 3.361837 1_655
Lu5 Lu8 3.569307 1_555
Lu5 Lu9 3.707147 1_555
Lu6 Lu8 3.569285 1_556
Lu6 Lu9 3.707140 1_455
Lu7 Lu9 3.569285 1_554
Lu7 Lu8 3.707140 1_655
Lu10 Lu3 3.435470 1_445
Lu10 Lu2 3.451517 1_555
Lu10 Lu7 3.569301 1_556
Lu10 Lu4 3.569307 1_555
Lu10 Lu5 3.707147 1_445
Lu10 Lu6 3.707168 1_545
Lu11 Lu2 3.435470 1_665
Lu11 Lu3 3.451517 1_555
Lu11 Lu6 3.569301 1_554
Lu11 Lu5 3.569307 1_555
Lu11 Lu4 3.707147 1_665
Lu11 Lu7 3.707168 1_565
In0 Lu3 3.265847 1_555
In0 Lu2 3.265847 1_554
In0 Lu1 3.265847 1_554
In0 Lu0 3.265847 1_555
In0 Lu8 3.352245 1_555
In0 Lu9 3.352245 1_554
In0 Lu11 3.352245 1_555
In0 Lu10 3.352245 1_554
In0 Lu7 3.650457 1_555
In0 Lu6 3.650457 1_554
In0 Lu5 3.650460 1_555
In0 Lu4 3.650460 1_554
Ga0 Ga1 2.748052 1_545
Ga0 Lu3 2.841568 1_445
Ga0 Lu0 2.841568 1_555
Ga0 Lu10 2.971670 1_555
Ga0 Lu11 2.971670 1_545
Ga0 Lu9 2.971670 1_555
Ga0 Lu8 2.971671 1_545
Ga0 Lu6 3.014626 1_544
Ga0 Lu4 3.014646 1_555
Ga1 Lu2 2.841568 1_665
Ga1 Lu1 2.841568 1_555
Ga1 Lu11 2.971670 1_555
Ga1 Lu10 2.971670 1_565
Ga1 Lu8 2.971670 1_555
Ga1 Lu9 2.971671 1_565
Ga1 Lu7 3.014626 1_566
Ga1 Lu5 3.014646 1_555
Ga2 Ga3 2.487753 1_455
Ga2 Lu8 2.779280 1_555
Ga2 Lu10 2.779280 1_565
Ga2 Lu5 2.974453 1_455
Ga2 Lu4 2.974453 1_555
Ga2 Lu7 2.974464 1_455
Ga2 Lu6 2.974477 1_555
Ga2 Lu1 3.169432 1_555
Ga2 Lu3 3.169432 1_455
Ga3 Lu9 2.779280 1_555
Ga3 Lu11 2.779280 1_545
Ga3 Lu4 2.974453 1_655
Ga3 Lu5 2.974453 1_555
Ga3 Lu6 2.974464 1_655
Ga3 Lu7 2.974477 1_555
Ga3 Lu0 3.169432 1_555
Ga3 Lu2 3.169432 1_655
Ag0 Lu6 3.057795 1_544
Ag0 Lu7 3.057795 1_455
Ag0 Lu4 3.057799 1_555
Ag0 Lu5 3.057799 1_444
Ag0 Lu0 3.062750 1_555
Ag0 Lu1 3.062750 1_444
Ag0 Lu2 3.062750 1_554
Ag0 Lu3 3.062750 1_445
Ag0 Ga0 3.281979 1_555
Ag0 Ga1 3.281979 1_444
