# generated using pymatgen
data_K3Sc(IO3)6
_symmetry_space_group_name_H-M   'P 1'
_cell_length_a   6.89391230
_cell_length_b   7.03401845
_cell_length_c   10.58071935
_cell_angle_alpha   98.38918068
_cell_angle_beta   108.62036955
_cell_angle_gamma   102.53749858
_symmetry_Int_Tables_number   1
_chemical_formula_structural   K3Sc(IO3)6
_chemical_formula_sum   'K3 Sc1 I6 O18'
_cell_volume   461.60491537
_cell_formula_units_Z   1
loop_
 _symmetry_equiv_pos_site_id
 _symmetry_equiv_pos_as_xyz
  1  'x, y, z'
loop_
 _atom_site_type_symbol
 _atom_site_label
 _atom_site_symmetry_multiplicity
 _atom_site_fract_x
 _atom_site_fract_y
 _atom_site_fract_z
 _atom_site_occupancy
  K  K0  1  0.37386287  0.53775466  0.29323080  1
  K  K1  1  0.62613713  0.46224534  0.70676920  1
  K  K2  1  0.00000000  0.50000000  0.50000000  1
  Sc  Sc0  1  0.00000000  0.00000000  0.00000000  1
  I  I0  1  0.56513020  0.03451666  0.19400515  1
  I  I1  1  0.43486980  0.96548334  0.80599485  1
  I  I2  1  0.78401906  0.53268732  0.10147758  1
  I  I3  1  0.21598094  0.46731268  0.89852242  1
  I  I4  1  0.14223742  0.05460991  0.38085847  1
  I  I5  1  0.85776258  0.94539009  0.61914153  1
  O  O0  1  0.58545641  0.65154657  0.12381116  1
  O  O1  1  0.41454359  0.34845343  0.87618884  1
  O  O2  1  0.00366962  0.35562436  0.73444012  1
  O  O3  1  0.99633038  0.64437564  0.26555988  1
  O  O4  1  0.61738182  0.30471134  0.23673497  1
  O  O5  1  0.38261818  0.69528866  0.76326503  1
  O  O6  1  0.05609297  0.09739275  0.20663872  1
  O  O7  1  0.94390703  0.90260725  0.79336128  1
  O  O8  1  0.31133179  0.96861526  0.04384769  1
  O  O9  1  0.68866821  0.03138474  0.95615231  1
  O  O10  1  0.29786125  0.30661467  0.46806662  1
  O  O11  1  0.70213875  0.69338533  0.53193338  1
  O  O12  1  0.89036753  0.07606702  0.39923602  1
  O  O13  1  0.10963247  0.92393298  0.60076398  1
  O  O14  1  0.55216303  0.03466600  0.68313674  1
  O  O15  1  0.44783697  0.96533400  0.31686326  1
  O  O16  1  0.11346647  0.31272638  0.00225592  1
  O  O17  1  0.88653353  0.68727362  0.99774408  1
loop_
_geom_bond_atom_site_label_1
_geom_bond_atom_site_label_2
_geom_bond_distance
_geom_bond_site_symmetry_2
K0 O11 2.677030 1_555
K0 O4 2.722584 1_555
K0 O10 2.732525 1_555
K0 O0 2.750167 1_555
K0 O3 2.801251 1_455
K0 O15 2.898531 1_555
K0 O16 3.003594 1_555
K0 O6 3.190177 1_555
K1 O10 2.677030 1_555
K1 O5 2.722584 1_555
K1 O11 2.732525 1_555
K1 O1 2.750167 1_555
K1 O2 2.801251 1_655
K1 O14 2.898531 1_555
K1 O17 3.003594 1_555
K1 O7 3.190177 1_555
K2 O11 2.775380 1_455
K2 O10 2.775380 1_555
K2 O2 2.809128 1_555
K2 O3 2.809128 1_455
K2 O13 2.859935 1_555
K2 O12 2.859935 1_455
K2 O5 3.036795 1_555
K2 O4 3.036795 1_455
I0 O15 1.807059 1_545
I0 O4 1.815024 1_555
I0 O8 1.859626 1_545
I0 O12 2.499835 1_555
I1 O14 1.807059 1_565
I1 O5 1.815024 1_555
I1 O9 1.859626 1_565
I1 O13 2.499835 1_555
I2 O3 1.803786 1_555
I2 O0 1.809542 1_555
I2 O17 1.842945 1_554
I2 O4 2.618974 1_555
I3 O2 1.803786 1_555
I3 O1 1.809542 1_555
I3 O16 1.842945 1_556
I3 O5 2.618974 1_555
I4 O10 1.791501 1_555
I4 O6 1.838922 1_555
I4 O12 1.842930 1_455
I4 O15 2.579268 1_545
I4 O13 2.679099 1_545
I5 O11 1.791501 1_555
I5 O7 1.838922 1_555
I5 O13 1.842930 1_655
I5 O14 2.579268 1_565
I5 O12 2.679099 1_565
O6 Sc0 2.075368 1_555
O7 Sc0 2.075368 1_666
O8 Sc0 2.114302 1_565
O9 Sc0 2.114302 1_656
O16 Sc0 2.162624 1_555
O17 Sc0 2.162624 1_666
