# generated using pymatgen
data_Nb6GaSiC2
_symmetry_space_group_name_H-M   'P 1'
_cell_length_a   5.55934078
_cell_length_b   5.55934022
_cell_length_c   8.37296355
_cell_angle_alpha   90.00000000
_cell_angle_beta   90.00000000
_cell_angle_gamma   145.16240299
_symmetry_Int_Tables_number   1
_chemical_formula_structural   Nb6GaSiC2
_chemical_formula_sum   'Nb6 Ga1 Si1 C2'
_cell_volume   147.82697594
_cell_formula_units_Z   1
loop_
 _symmetry_equiv_pos_site_id
 _symmetry_equiv_pos_as_xyz
  1  'x, y, z'
loop_
 _atom_site_type_symbol
 _atom_site_label
 _atom_site_symmetry_multiplicity
 _atom_site_fract_x
 _atom_site_fract_y
 _atom_site_fract_z
 _atom_site_occupancy
  Nb  Nb0  1  0.63285107  0.36715093  0.04811353  1
  Nb  Nb1  1  0.94938857  0.05061343  0.25000000  1
  Nb  Nb2  1  0.63285107  0.36715093  0.45188647  1
  Nb  Nb3  1  0.36443943  0.63556257  0.55923149  1
  Nb  Nb4  1  0.05850620  0.94149580  0.75000000  1
  Nb  Nb5  1  0.36443943  0.63556257  0.94076951  1
  Ga  Ga0  1  0.25415819  0.74584381  0.25000000  1
  Si  Si0  1  0.74417920  0.25582280  0.75000000  1
  C  C0  1  0.99959743  0.00040257  0.99851621  1
  C  C1  1  0.99959743  0.00040257  0.50148379  1
loop_
_geom_bond_atom_site_label_1
_geom_bond_atom_site_label_2
_geom_bond_distance
_geom_bond_site_symmetry_2
Nb0 Si0 2.761409 1_554
Nb2 Si0 2.761409 1_555
Nb3 Si0 2.636032 1_565
Nb3 Si0 2.636032 1_455
Nb4 Si0 2.578678 1_455
Nb4 Si0 2.578678 1_565
Nb5 Si0 2.636037 1_565
Nb5 Si0 2.636037 1_455
Ga0 Nb1 2.656934 1_455
Ga0 Nb1 2.656935 1_565
Ga0 Nb2 2.698736 1_565
Ga0 Nb0 2.698736 1_565
Ga0 Nb2 2.698737 1_455
Ga0 Nb0 2.698737 1_455
Ga0 Nb5 2.841235 1_554
Ga0 Nb3 2.841243 1_555
C0 Nb1 2.171994 1_556
C0 Nb4 2.172637 1_645
C0 Nb0 2.222712 1_546
C0 Nb0 2.222717 1_656
C0 Nb5 2.249303 1_545
C0 Nb5 2.249308 1_655
C1 Nb1 2.171994 1_555
C1 Nb4 2.172637 1_645
C1 Nb2 2.222712 1_545
C1 Nb2 2.222717 1_655
C1 Nb3 2.249305 1_545
C1 Nb3 2.249310 1_655
