# generated using pymatgen
data_Ba3Se2(IO3)2
_symmetry_space_group_name_H-M   'P 1'
_cell_length_a   7.60004806
_cell_length_b   7.60004804
_cell_length_c   7.72776635
_cell_angle_alpha   86.90961085
_cell_angle_beta   86.90961308
_cell_angle_gamma   46.12153636
_symmetry_Int_Tables_number   1
_chemical_formula_structural   Ba3Se2(IO3)2
_chemical_formula_sum   'Ba3 Se2 I2 O6'
_cell_volume   321.18976064
_cell_formula_units_Z   1
loop_
 _symmetry_equiv_pos_site_id
 _symmetry_equiv_pos_as_xyz
  1  'x, y, z'
loop_
 _atom_site_type_symbol
 _atom_site_label
 _atom_site_symmetry_multiplicity
 _atom_site_fract_x
 _atom_site_fract_y
 _atom_site_fract_z
 _atom_site_occupancy
  Ba  Ba0  1  0.28903338  0.29352050  0.19766598  1
  Ba  Ba1  1  0.70647950  0.71096662  0.80233402  1
  Ba  Ba2  1  0.96246207  0.03753793  0.00000000  1
  Se  Se0  1  0.39657373  0.40502896  0.76573338  1
  Se  Se1  1  0.59497104  0.60342627  0.23426662  1
  I  I0  1  0.14486130  0.13701352  0.59490921  1
  I  I1  1  0.86298648  0.85513870  0.40509079  1
  O  O0  1  0.86308292  0.44051457  0.11026263  1
  O  O1  1  0.40452089  0.86801974  0.10821340  1
  O  O2  1  0.13198026  0.59547911  0.89178660  1
  O  O3  1  0.55948543  0.13691708  0.88973737  1
  O  O4  1  0.51350698  0.45294398  0.19269588  1
  O  O5  1  0.54705602  0.48649302  0.80730412  1
loop_
_geom_bond_atom_site_label_1
_geom_bond_atom_site_label_2
_geom_bond_distance
_geom_bond_site_symmetry_2
Ba0 O4 2.689492 1_555
Ba0 O0 2.706466 1_455
Ba0 O3 2.773193 1_554
Ba0 O1 2.818999 1_545
Ba0 O2 2.863686 1_554
Ba0 I1 3.505909 1_455
Ba0 I1 3.567726 1_545
Ba0 I0 3.617934 1_555
Ba1 O5 2.689492 1_555
Ba1 O3 2.706466 1_565
Ba1 O0 2.773193 1_556
Ba1 O2 2.818999 1_655
Ba1 O1 2.863686 1_556
Ba1 I0 3.505909 1_565
Ba1 I0 3.567726 1_655
Ba1 I1 3.617934 1_555
Ba2 O3 2.771571 1_554
Ba2 O0 2.771571 1_555
Ba2 O1 2.798743 1_645
Ba2 O2 2.798743 1_644
Ba2 O5 2.975380 1_554
Ba2 O4 2.975380 1_555
Ba2 I1 3.608696 1_545
Ba2 I0 3.608696 1_654
O0 Se1 1.738771 1_555
O1 Se1 1.730208 1_555
O2 Se0 1.730208 1_555
O3 Se0 1.738771 1_555
O4 Se1 1.684387 1_555
O5 Se0 1.684387 1_555
