# generated using pymatgen
data_RbZnPtO4
_symmetry_space_group_name_H-M   'P 1'
_cell_length_a   6.19001903
_cell_length_b   8.03722821
_cell_length_c   6.19002000
_cell_angle_alpha   125.50422532
_cell_angle_beta   120.29794343
_cell_angle_gamma   78.51321569
_symmetry_Int_Tables_number   1
_chemical_formula_structural   RbZnPtO4
_chemical_formula_sum   'Rb2 Zn2 Pt2 O8'
_cell_volume   214.51916903
_cell_formula_units_Z   2
loop_
 _symmetry_equiv_pos_site_id
 _symmetry_equiv_pos_as_xyz
  1  'x, y, z'
loop_
 _atom_site_type_symbol
 _atom_site_label
 _atom_site_symmetry_multiplicity
 _atom_site_fract_x
 _atom_site_fract_y
 _atom_site_fract_z
 _atom_site_occupancy
  Rb  Rb0  1  0.58094049  0.95906008  0.87811960  1
  Rb  Rb1  1  0.92099566  0.96952108  0.54852542  1
  Zn  Zn0  1  0.49503729  0.44907165  0.45403436  1
  Zn  Zn1  1  0.00438491  0.47872139  0.97433648  1
  Pt  Pt0  1  0.00062676  0.46440457  0.46536007  1
  Pt  Pt1  1  0.49904450  0.46440457  0.96377781  1
  O  O0  1  0.81674998  0.31580525  0.50264972  1
  O  O1  1  0.31315553  0.31580525  0.99905427  1
  O  O2  1  0.29368883  0.30016761  0.50647879  1
  O  O3  1  0.20541437  0.62826391  0.92285054  1
  O  O4  1  0.79635638  0.30221244  0.00585506  1
  O  O5  1  0.68234236  0.61278177  0.92554255  1
  O  O6  1  0.70402373  0.62699866  0.42297592  1
  O  O7  1  0.18724122  0.61278177  0.43043941  1
loop_
_geom_bond_atom_site_label_1
_geom_bond_atom_site_label_2
_geom_bond_distance
_geom_bond_site_symmetry_2
O0 Pt0 1.975326 1_655
O0 Zn0 2.030688 1_555
O0 Zn1 2.081310 1_655
O0 Rb1 2.874171 1_545
O0 Rb0 2.897427 1_544
O1 Pt1 1.975321 1_555
O1 Zn0 2.030693 1_556
O1 Zn1 2.081310 1_555
O1 Rb1 2.874171 1_445
O1 Rb0 2.897427 1_545
O2 Pt0 2.017094 1_555
O2 Pt1 2.017094 1_555
O2 Zn0 2.131816 1_555
O3 Pt1 2.017856 1_555
O3 Pt0 2.017861 1_555
O3 Zn1 2.129641 1_555
O4 Pt1 2.027143 1_554
O4 Pt0 2.027148 1_655
O4 Zn1 2.238602 1_654
O4 Rb0 2.806727 1_544
O4 Rb1 2.889430 1_544
O5 Pt1 1.975659 1_555
O5 Zn1 2.034955 1_655
O5 Zn0 2.080060 1_555
O5 Rb0 2.879786 1_555
O5 Rb1 2.893155 1_556
O6 Pt0 2.025837 1_655
O6 Pt1 2.025842 1_554
O6 Zn0 2.250007 1_555
O6 Rb1 2.814396 1_555
O6 Rb0 2.874550 1_555
O7 Pt0 1.975668 1_555
O7 Zn1 2.034955 1_554
O7 Zn0 2.080051 1_555
O7 Rb0 2.879779 1_555
O7 Rb1 2.893161 1_455
