# generated using pymatgen
data_Li2Zr6MnBr15
_symmetry_space_group_name_H-M   'P 1'
_cell_length_a   9.46453227
_cell_length_b   9.46453204
_cell_length_c   9.46453264
_cell_angle_alpha   108.50965337
_cell_angle_beta   108.50965145
_cell_angle_gamma   111.41196221
_symmetry_Int_Tables_number   1
_chemical_formula_structural   Li2Zr6MnBr15
_chemical_formula_sum   'Li2 Zr6 Mn1 Br15'
_cell_volume   652.07912846
_cell_formula_units_Z   1
loop_
 _symmetry_equiv_pos_site_id
 _symmetry_equiv_pos_as_xyz
  1  'x, y, z'
loop_
 _atom_site_type_symbol
 _atom_site_label
 _atom_site_symmetry_multiplicity
 _atom_site_fract_x
 _atom_site_fract_y
 _atom_site_fract_z
 _atom_site_occupancy
  Li  Li0  1  0.25000000  0.75000000  0.50000000  1
  Li  Li1  1  0.75000000  0.25000000  0.50000000  1
  Zr  Zr0  1  0.76932614  0.76932614  1.00000000  1
  Zr  Zr1  1  0.00000000  0.21967896  0.21967896  1
  Zr  Zr2  1  0.21967896  0.00000000  0.21967896  1
  Zr  Zr3  1  0.23067386  0.23067386  0.00000000  1
  Zr  Zr4  1  1.00000000  0.78032104  0.78032104  1
  Zr  Zr5  1  0.78032104  1.00000000  0.78032104  1
  Mn  Mn0  1  0.00000000  0.00000000  0.00000000  1
  Br  Br0  1  0.50000000  0.50000000  0.00000000  1
  Br  Br1  1  0.00000000  0.50000000  0.50000000  1
  Br  Br2  1  0.50000000  0.00000000  0.50000000  1
  Br  Br3  1  0.24325457  0.24325457  0.48650814  1
  Br  Br4  1  0.99415597  0.74688040  0.24727557  1
  Br  Br5  1  0.74688040  0.99415597  0.24727557  1
  Br  Br6  1  0.24325457  0.75674543  0.00000000  1
  Br  Br7  1  0.50039517  0.25311960  0.24727557  1
  Br  Br8  1  0.25311960  0.00584403  0.75272443  1
  Br  Br9  1  0.75674543  0.24325457  1.00000000  1
  Br  Br10  1  0.00584403  0.25311960  0.75272443  1
  Br  Br11  1  0.25311960  0.50039517  0.24727557  1
  Br  Br12  1  0.75674543  0.75674543  0.51349186  1
  Br  Br13  1  0.49960483  0.74688040  0.75272443  1
  Br  Br14  1  0.74688040  0.49960483  0.75272443  1
loop_
_geom_bond_atom_site_label_1
_geom_bond_atom_site_label_2
_geom_bond_distance
_geom_bond_site_symmetry_2
Mn0 Zr1 2.429211 1_555
Mn0 Zr4 2.429211 1_444
Mn0 Zr2 2.429211 1_555
Mn0 Zr5 2.429211 1_444
Mn0 Zr3 2.460226 1_555
Mn0 Zr0 2.460226 1_444
Br0 Zr0 2.872468 1_554
Br0 Zr3 2.872468 1_555
Br1 Li0 2.666347 1_555
Br1 Li1 2.666347 1_455
Br1 Zr4 3.099792 1_455
Br1 Zr1 3.099792 1_555
Br2 Li0 2.666347 1_545
Br2 Li1 2.666347 1_555
Br2 Zr5 3.099792 1_545
Br2 Zr2 3.099792 1_555
Br3 Zr2 2.702508 1_555
Br3 Zr1 2.702508 1_555
Br4 Zr2 2.716812 1_665
Br4 Zr0 2.744834 1_554
Br4 Li0 2.794826 1_655
Br5 Zr1 2.716812 1_665
Br5 Zr0 2.744834 1_554
Br5 Li1 2.794826 1_565
Br6 Zr2 2.702514 1_565
Br6 Zr4 2.702514 1_454
Br7 Zr2 2.716812 1_555
Br7 Zr3 2.744834 1_555
Br7 Li1 2.794826 1_555
Br8 Zr4 2.716812 1_445
Br8 Zr3 2.744834 1_556
Br8 Li0 2.794826 1_545
Br9 Zr5 2.702514 1_545
Br9 Zr1 2.702514 1_656
Br10 Zr5 2.716812 1_445
Br10 Zr3 2.744834 1_556
Br10 Li1 2.794826 1_455
Br11 Zr1 2.716812 1_555
Br11 Zr3 2.744834 1_555
Br11 Li0 2.794826 1_555
Br12 Zr5 2.702508 1_555
Br12 Zr4 2.702508 1_555
Br13 Zr5 2.716812 1_555
Br13 Zr0 2.744834 1_555
Br13 Li0 2.794826 1_555
Br14 Zr4 2.716812 1_555
Br14 Zr0 2.744834 1_555
Br14 Li1 2.794826 1_555
