# generated using pymatgen
data_Ga2HgPd7
_symmetry_space_group_name_H-M   'P 1'
_cell_length_a   7.41021233
_cell_length_b   7.41021258
_cell_length_c   5.60314118
_cell_angle_alpha   71.62108605
_cell_angle_beta   71.62108800
_cell_angle_gamma   31.85478280
_symmetry_Int_Tables_number   1
_chemical_formula_structural   Ga2HgPd7
_chemical_formula_sum   'Ga2 Hg1 Pd7'
_cell_volume   153.40437221
_cell_formula_units_Z   1
loop_
 _symmetry_equiv_pos_site_id
 _symmetry_equiv_pos_as_xyz
  1  'x, y, z'
loop_
 _atom_site_type_symbol
 _atom_site_label
 _atom_site_symmetry_multiplicity
 _atom_site_fract_x
 _atom_site_fract_y
 _atom_site_fract_z
 _atom_site_occupancy
  Ga  Ga0  1  0.18925943  0.18925943  0.34611585  1
  Ga  Ga1  1  0.81074057  0.81074057  0.65388415  1
  Hg  Hg0  1  0.00000000  0.00000000  0.00000000  1
  Pd  Pd0  1  0.00000000  0.00000000  0.50000000  1
  Pd  Pd1  1  0.21002550  0.21002550  0.85945696  1
  Pd  Pd2  1  0.78997450  0.78997450  0.14054304  1
  Pd  Pd3  1  0.37582517  0.37582517  0.36130545  1
  Pd  Pd4  1  0.62417483  0.62417483  0.63869455  1
  Pd  Pd5  1  0.40483779  0.40483779  0.82894805  1
  Pd  Pd6  1  0.59516221  0.59516221  0.17105195  1
loop_
_geom_bond_atom_site_label_1
_geom_bond_atom_site_label_2
_geom_bond_distance
_geom_bond_site_symmetry_2
Ga0 Pd2 2.537302 1_545
Ga0 Pd2 2.537302 1_455
Ga0 Pd0 2.548211 1_555
Ga0 Pd4 2.585695 1_545
Ga0 Pd4 2.585696 1_455
Ga0 Pd1 2.644602 1_554
Ga0 Pd3 2.687946 1_555
Ga0 Pd6 2.785369 1_455
Ga0 Pd6 2.785369 1_545
Ga0 Pd1 2.986476 1_555
Ga1 Pd1 2.537302 1_565
Ga1 Pd1 2.537302 1_655
Ga1 Pd0 2.548211 1_665
Ga1 Pd3 2.585695 1_565
Ga1 Pd3 2.585696 1_655
Ga1 Pd2 2.644602 1_556
Ga1 Pd4 2.687946 1_555
Ga1 Pd5 2.785369 1_655
Ga1 Pd5 2.785369 1_565
Ga1 Pd2 2.986476 1_555
Hg0 Pd6 2.783054 1_545
Hg0 Pd5 2.783054 1_454
Hg0 Pd6 2.783054 1_455
Hg0 Pd5 2.783054 1_544
Hg0 Pd0 2.801571 1_554
Hg0 Pd0 2.801571 1_555
Hg0 Pd1 2.834344 1_554
Hg0 Pd2 2.834344 1_445
Hg0 Pd4 3.002645 1_454
Hg0 Pd3 3.002645 1_545
Hg0 Pd4 3.002645 1_544
Hg0 Pd3 3.002645 1_455
Pd0 Pd6 2.780714 1_455
Pd0 Pd5 2.780714 1_545
Pd0 Pd6 2.780714 1_545
Pd0 Pd5 2.780714 1_455
Pd0 Pd4 2.961868 1_545
Pd0 Pd3 2.961868 1_455
Pd0 Pd4 2.961868 1_455
Pd0 Pd3 2.961868 1_545
Pd1 Pd5 2.725101 1_555
Pd1 Pd6 2.826447 1_546
Pd1 Pd6 2.826447 1_456
Pd1 Pd4 2.855630 1_455
Pd1 Pd4 2.855630 1_545
Pd1 Pd3 3.008167 1_555
Pd1 Pd2 3.015070 1_546
Pd1 Pd2 3.015070 1_456
Pd2 Pd6 2.725101 1_555
Pd2 Pd5 2.826447 1_564
Pd2 Pd5 2.826447 1_654
Pd2 Pd3 2.855630 1_655
Pd2 Pd3 2.855630 1_565
Pd2 Pd4 3.008167 1_555
Pd3 Pd5 2.783385 1_555
Pd3 Pd5 2.873970 1_554
Pd3 Pd6 2.953353 1_555
Pd4 Pd6 2.783385 1_555
Pd4 Pd6 2.873970 1_556
Pd4 Pd5 2.953353 1_555
