# generated using pymatgen
data_Ag4Te3PtO14
_symmetry_space_group_name_H-M   'P 1'
_cell_length_a   7.23317228
_cell_length_b   7.23317190
_cell_length_c   7.29604956
_cell_angle_alpha   121.19618599
_cell_angle_beta   119.07189749
_cell_angle_gamma   89.27785899
_symmetry_Int_Tables_number   1
_chemical_formula_structural   Ag4Te3PtO14
_chemical_formula_sum   'Ag4 Te3 Pt1 O14'
_cell_volume   270.39898694
_cell_formula_units_Z   1
loop_
 _symmetry_equiv_pos_site_id
 _symmetry_equiv_pos_as_xyz
  1  'x, y, z'
loop_
 _atom_site_type_symbol
 _atom_site_label
 _atom_site_symmetry_multiplicity
 _atom_site_fract_x
 _atom_site_fract_y
 _atom_site_fract_z
 _atom_site_occupancy
  Ag  Ag0  1  0.00000000  0.50000000  0.50000000  1
  Ag  Ag1  1  0.50000000  0.00000000  0.50000000  1
  Ag  Ag2  1  0.00000000  0.50000000  0.00000000  1
  Ag  Ag3  1  0.00000000  0.00000000  0.50000000  1
  Te  Te0  1  0.50000000  0.50000000  0.00000000  1
  Te  Te1  1  0.00000000  0.00000000  0.00000000  1
  Te  Te2  1  0.50000000  0.50000000  0.50000000  1
  Pt  Pt0  1  0.50000000  0.00000000  0.00000000  1
  O  O0  1  0.54935983  0.42588940  0.73325862  1
  O  O1  1  0.44108014  0.17467665  0.84638387  1
  O  O2  1  0.82829277  0.09469627  0.15361613  1
  O  O3  1  0.19263078  0.31610121  0.26674138  1
  O  O4  1  0.45064017  0.57411060  0.26674138  1
  O  O5  1  0.55891986  0.82532335  0.15361613  1
  O  O6  1  0.17170723  0.90530373  0.84638387  1
  O  O7  1  0.80736922  0.68389879  0.73325862  1
  O  O8  1  0.60705012  0.25583380  0.36288392  1
  O  O9  1  0.39294988  0.74416620  0.63711608  1
  O  O10  1  0.18443918  0.42634416  0.77783468  1
  O  O11  1  0.81556082  0.57365584  0.22216532  1
  O  O12  1  0.85149052  0.09339550  0.77783468  1
  O  O13  1  0.14850948  0.90660450  0.22216532  1
loop_
_geom_bond_atom_site_label_1
_geom_bond_atom_site_label_2
_geom_bond_distance
_geom_bond_site_symmetry_2
Ag0 O11 2.155344 1_455
Ag0 O10 2.155344 1_555
Ag0 O6 2.426967 1_555
Ag0 O2 2.426967 1_455
Ag0 O3 2.553361 1_555
Ag0 O7 2.553361 1_455
Ag0 O9 2.780534 1_555
Ag0 O8 2.780534 1_455
Ag1 O12 2.155344 1_555
Ag1 O13 2.155344 1_545
Ag1 O1 2.426967 1_555
Ag1 O5 2.426967 1_545
Ag1 O0 2.553361 1_555
Ag1 O4 2.553361 1_545
Ag1 O8 2.780534 1_555
Ag1 O9 2.780534 1_545
Ag2 O13 2.424869 1_555
Ag2 O12 2.424869 1_454
Ag2 O10 2.424869 1_554
Ag2 O11 2.424869 1_455
Ag2 O7 2.738265 1_454
Ag2 O3 2.738265 1_555
Ag2 O0 2.738265 1_454
Ag2 O4 2.738265 1_555
Ag3 O10 2.529543 1_555
Ag3 O11 2.529543 1_445
Ag3 O13 2.529543 1_545
Ag3 O12 2.529543 1_455
Ag3 O1 2.668351 1_555
Ag3 O5 2.668351 1_445
Ag3 O6 2.668351 1_545
Ag3 O2 2.668351 1_455
O0 Te2 1.913359 1_555
O0 Te0 1.947316 1_556
O1 Te0 1.950363 1_556
O1 Pt0 2.005831 1_556
O2 Te1 1.950363 1_655
O2 Pt0 2.005831 1_555
O3 Te2 1.913359 1_555
O3 Te1 1.947316 1_555
O4 Te2 1.913359 1_555
O4 Te0 1.947316 1_555
O5 Te0 1.950363 1_555
O5 Pt0 2.005831 1_565
O6 Te1 1.950363 1_566
O6 Pt0 2.005831 1_566
O7 Te2 1.913359 1_555
O7 Te1 1.947316 1_666
O8 Te2 1.899336 1_555
O8 Pt0 2.000525 1_555
O9 Te2 1.899336 1_555
O9 Pt0 2.000525 1_566
O10 Te0 1.913538 1_556
O11 Te0 1.913538 1_555
O12 Te1 1.913538 1_656
O13 Te1 1.913538 1_565
