# generated using pymatgen
data_Ti3Ga2CuN
_symmetry_space_group_name_H-M   'P 1'
_cell_length_a   8.03429682
_cell_length_b   8.03429745
_cell_length_c   8.03429682
_cell_angle_alpha   119.99999742
_cell_angle_beta   90.00000000
_cell_angle_gamma   119.99999742
_symmetry_Int_Tables_number   1
_chemical_formula_structural   Ti3Ga2CuN
_chemical_formula_sum   'Ti12 Ga8 Cu4 N4'
_cell_volume   366.71501071
_cell_formula_units_Z   4
loop_
 _symmetry_equiv_pos_site_id
 _symmetry_equiv_pos_as_xyz
  1  'x, y, z'
loop_
 _atom_site_type_symbol
 _atom_site_label
 _atom_site_symmetry_multiplicity
 _atom_site_fract_x
 _atom_site_fract_y
 _atom_site_fract_z
 _atom_site_occupancy
  Ti  Ti0  1  0.94316952  0.38634004  0.19316952  1
  Ti  Ti1  1  0.30683048  0.75000000  0.19316952  1
  Ti  Ti2  1  0.94316952  0.75000000  0.19316952  1
  Ti  Ti3  1  0.69316952  0.25000000  0.44316952  1
  Ti  Ti4  1  0.69316952  0.88634004  0.44316952  1
  Ti  Ti5  1  0.05683048  0.25000000  0.44316952  1
  Ti  Ti6  1  0.30683048  0.11365996  0.55683048  1
  Ti  Ti7  1  0.30683048  0.75000000  0.55683048  1
  Ti  Ti8  1  0.94316952  0.75000000  0.55683048  1
  Ti  Ti9  1  0.05683048  0.25000000  0.80683048  1
  Ti  Ti10  1  0.69316952  0.25000000  0.80683048  1
  Ti  Ti11  1  0.05683048  0.61365996  0.80683048  1
  Ga  Ga0  1  0.71020577  0.92041153  0.13061830  1
  Ga  Ga1  1  0.28979423  0.07958847  0.21020577  1
  Ga  Ga2  1  0.28979423  0.42041153  0.21020577  1
  Ga  Ga3  1  0.63061830  0.42041153  0.21020577  1
  Ga  Ga4  1  0.36938170  0.57958847  0.78979423  1
  Ga  Ga5  1  0.71020577  0.57958847  0.78979423  1
  Ga  Ga6  1  0.71020577  0.92041153  0.78979423  1
  Ga  Ga7  1  0.28979423  0.07958847  0.86938170  1
  Cu  Cu0  1  0.00000000  0.00000000  0.00000000  1
  Cu  Cu1  1  0.50000000  0.00000000  0.00000000  1
  Cu  Cu2  1  0.50000000  0.50000000  0.00000000  1
  Cu  Cu3  1  0.50000000  0.50000000  0.50000000  1
  N  N0  1  0.00000000  0.50000000  0.00000000  1
  N  N1  1  0.00000000  0.00000000  0.50000000  1
  N  N2  1  0.50000000  0.00000000  0.50000000  1
  N  N3  1  0.00000000  0.50000000  0.50000000  1
loop_
_geom_bond_atom_site_label_1
_geom_bond_atom_site_label_2
_geom_bond_distance
_geom_bond_site_symmetry_2
Ga0 Ti4 2.655065 1_555
Ga0 Ti3 2.655074 1_565
Ga0 Ti5 2.655074 1_665
Ga0 Ga5 2.738278 1_554
Ga0 Ga6 2.738282 1_554
Ga0 Ga4 2.738282 1_554
Ga0 Ti1 2.980107 1_555
Ga0 Ti2 2.980107 1_555
Ga0 Ti0 2.980121 1_565
Ga1 Ti1 2.655077 1_545
Ga1 Ti2 2.655077 1_445
Ga1 Ti6 2.655081 1_555
Ga1 Ga2 2.738274 1_555
Ga1 Ga3 2.738278 1_555
Ga1 Ga7 2.738282 1_554
Ga1 Ti3 2.980110 1_555
Ga1 Ti5 2.980110 1_555
Ga1 Ti11 2.980114 1_544
Ga2 Ti1 2.655077 1_555
Ga2 Ti7 2.655077 1_555
Ga2 Ti0 2.655081 1_455
Ga2 Ga7 2.738278 1_554
Ga2 Ga3 2.738282 1_555
Ga2 Ti9 2.980110 1_554
Ga2 Ti5 2.980110 1_555
Ga2 Ti4 2.980114 1_555
Ga3 Ti0 2.655065 1_555
Ga3 Ti2 2.655074 1_555
Ga3 Ti8 2.655074 1_555
Ga3 Ga7 2.738282 1_554
Ga3 Ti10 2.980107 1_554
Ga3 Ti3 2.980107 1_555
Ga3 Ti4 2.980121 1_555
Ga4 Ti11 2.655065 1_555
Ga4 Ti9 2.655074 1_555
Ga4 Ti5 2.655074 1_555
Ga4 Ga6 2.738278 1_555
Ga4 Ga5 2.738282 1_555
Ga4 Ti1 2.980107 1_556
Ga4 Ti7 2.980107 1_555
Ga4 Ti6 2.980121 1_555
Ga5 Ti10 2.655077 1_555
Ga5 Ti3 2.655077 1_555
Ga5 Ti11 2.655081 1_655
Ga5 Ga6 2.738274 1_555
Ga5 Ti2 2.980110 1_556
Ga5 Ti8 2.980110 1_555
Ga5 Ti6 2.980114 1_555
Ga6 Ti10 2.655077 1_565
Ga6 Ti9 2.655077 1_665
Ga6 Ti4 2.655081 1_555
Ga6 Ti7 2.980110 1_555
Ga6 Ti8 2.980110 1_555
Ga6 Ti0 2.980114 1_566
Ga7 Ti6 2.655065 1_555
Ga7 Ti7 2.655074 1_545
Ga7 Ti8 2.655074 1_445
Ga7 Ti10 2.980107 1_555
Ga7 Ti9 2.980107 1_555
Ga7 Ti11 2.980121 1_545
Cu0 Ga1 2.472518 1_555
Cu0 Ga6 2.472518 1_444
Cu0 Ga2 2.472519 1_555
Cu0 Ga5 2.472519 1_444
Cu0 Ga7 2.472523 1_554
Cu0 Ga0 2.472523 1_445
Cu0 Ti2 2.975174 1_445
Cu0 Ti5 2.975174 1_555
Cu0 Ti8 2.975174 1_444
Cu0 Ti9 2.975174 1_554
Cu0 Ti0 2.975181 1_455
Cu0 Ti11 2.975181 1_544
Cu1 Ga3 2.472516 1_555
Cu1 Ga4 2.472516 1_544
Cu1 Ga6 2.472518 1_544
Cu1 Ga1 2.472518 1_555
Cu1 Ga0 2.472523 1_545
Cu1 Ga7 2.472523 1_554
Cu1 Ti3 2.975174 1_555
Cu1 Ti1 2.975174 1_545
Cu1 Ti10 2.975174 1_554
Cu1 Ti7 2.975174 1_544
Cu1 Ti0 2.975176 1_555
Cu1 Ti11 2.975176 1_544
Cu2 Ga0 2.472516 1_555
Cu2 Ga7 2.472516 1_554
Cu2 Ga2 2.472518 1_555
Cu2 Ga5 2.472518 1_554
Cu2 Ga3 2.472523 1_555
Cu2 Ga4 2.472523 1_554
Cu2 Ti2 2.975174 1_555
Cu2 Ti10 2.975174 1_554
Cu2 Ti1 2.975174 1_555
Cu2 Ti9 2.975174 1_554
Cu2 Ti4 2.975176 1_555
Cu2 Ti6 2.975176 1_554
Cu3 Ga5 2.472518 1_555
Cu3 Ga2 2.472518 1_555
Cu3 Ga6 2.472519 1_555
Cu3 Ga1 2.472519 1_555
Cu3 Ga4 2.472523 1_555
Cu3 Ga3 2.472523 1_555
Cu3 Ti3 2.975174 1_555
Cu3 Ti8 2.975174 1_555
Cu3 Ti5 2.975174 1_555
Cu3 Ti7 2.975174 1_555
Cu3 Ti4 2.975181 1_555
Cu3 Ti6 2.975181 1_555
N0 Ti0 2.109811 1_455
N0 Ti11 2.109811 1_554
N0 Ti1 2.109816 1_555
N0 Ti9 2.109816 1_554
N0 Ti2 2.109816 1_455
N0 Ti10 2.109816 1_454
N1 Ti8 2.109816 1_445
N1 Ti9 2.109816 1_555
N1 Ti2 2.109816 1_445
N1 Ti5 2.109816 1_555
N1 Ti6 2.109818 1_555
N1 Ti4 2.109818 1_445
N2 Ti4 2.109811 1_545
N2 Ti6 2.109811 1_555
N2 Ti10 2.109816 1_555
N2 Ti7 2.109816 1_545
N2 Ti3 2.109816 1_555
N2 Ti1 2.109816 1_545
N3 Ti5 2.109816 1_555
N3 Ti7 2.109816 1_555
N3 Ti3 2.109816 1_455
N3 Ti8 2.109816 1_455
N3 Ti11 2.109818 1_555
N3 Ti0 2.109818 1_455
