# generated using pymatgen
data_Bi3Pd6PbSe4
_symmetry_space_group_name_H-M   'P 1'
_cell_length_a   7.30860780
_cell_length_b   7.30860798
_cell_length_c   8.51139500
_cell_angle_alpha   56.01850518
_cell_angle_beta   56.01850026
_cell_angle_gamma   71.84376598
_symmetry_Int_Tables_number   1
_chemical_formula_structural   Bi3Pd6PbSe4
_chemical_formula_sum   'Bi3 Pd6 Pb1 Se4'
_cell_volume   312.61322281
_cell_formula_units_Z   1
loop_
 _symmetry_equiv_pos_site_id
 _symmetry_equiv_pos_as_xyz
  1  'x, y, z'
loop_
 _atom_site_type_symbol
 _atom_site_label
 _atom_site_symmetry_multiplicity
 _atom_site_fract_x
 _atom_site_fract_y
 _atom_site_fract_z
 _atom_site_occupancy
  Bi  Bi0  1  0.74819653  0.74819653  0.26198570  1
  Bi  Bi1  1  0.20975183  0.20975183  0.31234158  1
  Bi  Bi2  1  0.79091892  0.79091892  0.69087269  1
  Pd  Pd0  1  0.99754678  0.50444533  0.49649925  1
  Pd  Pd1  1  0.50444533  0.99754678  0.49649925  1
  Pd  Pd2  1  0.02285827  0.02285827  0.20463814  1
  Pd  Pd3  1  0.96947701  0.96947701  0.80884761  1
  Pd  Pd4  1  0.72575746  0.27953374  0.49493418  1
  Pd  Pd5  1  0.27953374  0.72575746  0.49493418  1
  Pb  Pb0  1  0.25006672  0.25006672  0.74594737  1
  Se  Se0  1  0.74502853  0.31847033  0.18091338  1
  Se  Se1  1  0.31847033  0.74502853  0.18091338  1
  Se  Se2  1  0.25508686  0.68286370  0.81533764  1
  Se  Se3  1  0.68286370  0.25508686  0.81533764  1
loop_
_geom_bond_atom_site_label_1
_geom_bond_atom_site_label_2
_geom_bond_distance
_geom_bond_site_symmetry_2
Bi0 Pd3 2.791254 1_554
Bi0 Pd5 2.843492 1_555
Bi0 Pd4 2.843493 1_555
Bi0 Pd1 2.923521 1_555
Bi0 Pd0 2.923521 1_555
Bi0 Pd2 2.935688 1_665
Bi1 Pd0 2.911293 1_455
Bi1 Pd1 2.911294 1_545
Bi1 Pd2 2.921322 1_555
Bi1 Pd4 2.967231 1_455
Bi1 Pd5 2.967232 1_545
Bi1 Pd3 3.058897 1_445
Bi2 Pd3 2.899212 1_555
Bi2 Pd0 2.917182 1_555
Bi2 Pd1 2.917183 1_555
Bi2 Pd5 2.988526 1_655
Bi2 Pd4 2.988526 1_565
Bi2 Pd2 2.996824 1_665
Pd0 Se1 2.460909 1_655
Pd0 Se3 2.466190 1_555
Pd1 Se0 2.460909 1_565
Pd1 Se2 2.466190 1_555
Pd2 Se1 2.463393 1_545
Pd2 Se0 2.463393 1_455
Pd3 Se3 2.454130 1_565
Pd3 Se2 2.454130 1_655
Pd4 Se0 2.449159 1_555
Pd4 Se3 2.470167 1_555
Pd5 Se1 2.449159 1_555
Pd5 Se2 2.470167 1_555
Pb0 Pd2 2.825133 1_556
Pb0 Pd4 2.889132 1_555
Pb0 Pd5 2.889133 1_555
Pb0 Pd3 2.977228 1_445
Pb0 Pd1 3.033105 1_545
Pb0 Pd0 3.033105 1_455
