# generated using pymatgen
data_Cs4Bi3Sb9Te20
_symmetry_space_group_name_H-M   'P 1'
_cell_length_a   4.37390992
_cell_length_b   13.12407143
_cell_length_c   24.31478777
_cell_angle_alpha   90.07440954
_cell_angle_beta   90.00000000
_cell_angle_gamma   90.00000000
_symmetry_Int_Tables_number   1
_chemical_formula_structural   Cs4Bi3Sb9Te20
_chemical_formula_sum   'Cs4 Bi3 Sb9 Te20'
_cell_volume   1395.75289401
_cell_formula_units_Z   1
loop_
 _symmetry_equiv_pos_site_id
 _symmetry_equiv_pos_as_xyz
  1  'x, y, z'
loop_
 _atom_site_type_symbol
 _atom_site_label
 _atom_site_symmetry_multiplicity
 _atom_site_fract_x
 _atom_site_fract_y
 _atom_site_fract_z
 _atom_site_occupancy
  Cs  Cs0  1  0.25000000  0.49579978  0.21194500  1
  Cs  Cs1  1  0.75000000  0.50773138  0.78925570  1
  Cs  Cs2  1  0.75000000  0.99440503  0.28906847  1
  Cs  Cs3  1  0.25000000  0.00641086  0.70999423  1
  Bi  Bi0  1  0.75000000  0.40540840  0.56789844  1
  Bi  Bi1  1  0.75000000  0.09476002  0.06792934  1
  Bi  Bi2  1  0.25000000  0.90660921  0.93205266  1
  Sb  Sb0  1  0.25000000  0.37014474  0.02557196  1
  Sb  Sb1  1  0.75000000  0.63077121  0.97550642  1
  Sb  Sb2  1  0.75000000  0.86700593  0.47596723  1
  Sb  Sb3  1  0.25000000  0.13118592  0.52335262  1
  Sb  Sb4  1  0.25000000  0.81357618  0.12380593  1
  Sb  Sb5  1  0.75000000  0.18748967  0.87604373  1
  Sb  Sb6  1  0.75000000  0.31461590  0.37689918  1
  Sb  Sb7  1  0.25000000  0.68708294  0.62204656  1
  Sb  Sb8  1  0.25000000  0.59403905  0.43295180  1
  Te  Te0  1  0.25000000  0.80195086  0.39070937  1
  Te  Te1  1  0.75000000  0.18758129  0.60872697  1
  Te  Te2  1  0.75000000  0.31198723  0.11057210  1
  Te  Te3  1  0.25000000  0.68916330  0.89039436  1
  Te  Te4  1  0.25000000  0.25596781  0.30241817  1
  Te  Te5  1  0.75000000  0.74593551  0.69632604  1
  Te  Te6  1  0.75000000  0.75483862  0.19802584  1
  Te  Te7  1  0.25000000  0.24609773  0.80194626  1
  Te  Te8  1  0.25000000  0.35701268  0.47776040  1
  Te  Te9  1  0.75000000  0.63907293  0.52064094  1
  Te  Te10  1  0.75000000  0.86015187  0.02229818  1
  Te  Te11  1  0.25000000  0.14242904  0.97785843  1
  Te  Te12  1  0.25000000  0.02724505  0.15420588  1
  Te  Te13  1  0.75000000  0.97381722  0.84573433  1
  Te  Te14  1  0.75000000  0.52992788  0.34901535  1
  Te  Te15  1  0.25000000  0.47304714  0.65390778  1
  Te  Te16  1  0.25000000  0.58319402  0.06121014  1
  Te  Te17  1  0.75000000  0.41817760  0.93962707  1
  Te  Te18  1  0.75000000  0.07958210  0.43818971  1
  Te  Te19  1  0.25000000  0.91578591  0.56014337  1
loop_
_geom_bond_atom_site_label_1
_geom_bond_atom_site_label_2
_geom_bond_distance
_geom_bond_site_symmetry_2
Cs0 Te16 3.841785 1_555
Cs0 Te4 3.842456 1_555
Cs0 Te14 4.010899 1_455
Cs0 Te14 4.010899 1_555
Cs0 Te6 4.056832 1_455
Cs0 Te6 4.056832 1_555
Cs0 Te2 4.081959 1_455
Cs0 Te2 4.081959 1_555
Cs1 Te17 3.841961 1_555
Cs1 Te5 3.859684 1_555
Cs1 Te15 3.976994 1_555
Cs1 Te15 3.976994 1_655
Cs1 Te3 4.060150 1_555
Cs1 Te3 4.060150 1_655
Cs1 Te7 4.083017 1_555
Cs1 Te7 4.083017 1_655
Cs2 Te18 3.792875 1_565
Cs2 Te6 3.842862 1_555
Cs2 Te12 3.965483 1_565
Cs2 Te12 3.965483 1_665
Cs2 Te4 4.082786 1_565
Cs2 Te4 4.082786 1_665
Cs2 Te0 4.157676 1_655
Cs2 Te0 4.157676 1_555
Cs3 Te19 3.831332 1_545
Cs3 Te7 3.856907 1_555
Cs3 Te13 3.982796 1_545
Cs3 Te13 3.982796 1_445
Cs3 Te1 4.063777 1_555
Cs3 Te1 4.063777 1_455
Cs3 Te5 4.071412 1_545
Cs3 Te5 4.071412 1_445
Bi0 Te1 3.027460 1_555
Bi0 Te15 3.152695 1_655
Bi0 Te15 3.152695 1_555
Bi0 Te8 3.160073 1_555
Bi0 Te8 3.160073 1_655
Bi0 Te9 3.276233 1_555
Bi1 Te2 3.032333 1_555
Bi1 Te12 3.158080 1_655
Bi1 Te12 3.158080 1_555
Bi1 Te11 3.158174 1_654
Bi1 Te11 3.158174 1_554
Bi1 Te10 3.271463 1_545
Bi2 Te3 3.026965 1_555
Bi2 Te13 3.157624 1_555
Bi2 Te13 3.157624 1_455
Bi2 Te10 3.157997 1_456
Bi2 Te10 3.157997 1_556
Bi2 Te11 3.287858 1_565
Sb0 Te16 2.926195 1_555
Sb0 Te17 3.090398 1_454
Sb0 Te17 3.090398 1_554
Sb0 Te2 3.104986 1_455
Sb0 Te2 3.104986 1_555
Sb0 Te11 3.204435 1_554
Sb1 Te17 2.922222 1_555
Sb1 Te16 3.085213 1_656
Sb1 Te16 3.085213 1_556
Sb1 Te3 3.107560 1_555
Sb1 Te3 3.107560 1_655
Sb1 Te10 3.216845 1_556
Sb2 Te18 2.938323 1_565
Sb2 Te19 3.062401 1_555
Sb2 Te19 3.062401 1_655
Sb2 Te0 3.131225 1_655
Sb2 Te0 3.131225 1_555
Sb2 Te9 3.183845 1_555
Sb3 Te19 2.966195 1_545
Sb3 Te18 3.086369 1_555
Sb3 Te18 3.086369 1_455
Sb3 Te1 3.104155 1_555
Sb3 Te1 3.104155 1_455
Sb3 Te8 3.165653 1_555
Sb4 Te12 2.899061 1_565
Sb4 Te6 2.938939 1_555
Sb4 Te6 2.938939 1_455
Sb4 Te10 3.354407 1_455
Sb4 Te10 3.354407 1_555
Sb4 Te16 3.383254 1_555
Sb5 Te13 2.898549 1_545
Sb5 Te7 2.936664 1_655
Sb5 Te7 2.936664 1_555
Sb5 Te11 3.356324 1_555
Sb5 Te11 3.356324 1_655
Sb5 Te17 3.397669 1_555
Sb6 Te14 2.906823 1_555
Sb6 Te4 2.941305 1_655
Sb6 Te4 2.941305 1_555
Sb6 Te8 3.332145 1_655
Sb6 Te8 3.332145 1_555
Sb6 Te18 3.427476 1_555
Sb7 Te15 2.914860 1_555
Sb7 Te5 2.938994 1_455
Sb7 Te5 2.938994 1_555
Sb7 Te9 3.354878 1_555
Sb7 Te9 3.354878 1_455
Sb7 Te19 3.359514 1_555
Sb8 Te0 2.916809 1_555
Sb8 Te14 3.106691 1_555
Sb8 Te14 3.106691 1_455
Sb8 Te9 3.110441 1_555
Sb8 Te9 3.110441 1_455
Sb8 Te8 3.297364 1_555
