# generated using pymatgen
data_Cd4FeOs3O14
_symmetry_space_group_name_H-M   'P 1'
_cell_length_a   7.15775732
_cell_length_b   7.15775664
_cell_length_c   7.15775611
_cell_angle_alpha   60.61941601
_cell_angle_beta   60.61941825
_cell_angle_gamma   60.61941563
_symmetry_Int_Tables_number   1
_chemical_formula_structural   Cd4FeOs3O14
_chemical_formula_sum   'Cd4 Fe1 Os3 O14'
_cell_volume   262.93507309
_cell_formula_units_Z   1
loop_
 _symmetry_equiv_pos_site_id
 _symmetry_equiv_pos_as_xyz
  1  'x, y, z'
loop_
 _atom_site_type_symbol
 _atom_site_label
 _atom_site_symmetry_multiplicity
 _atom_site_fract_x
 _atom_site_fract_y
 _atom_site_fract_z
 _atom_site_occupancy
  Cd  Cd0  1  0.12500000  0.12500000  0.12500000  1
  Cd  Cd1  1  0.62500000  0.12500000  0.12500000  1
  Cd  Cd2  1  0.12500000  0.62500000  0.12500000  1
  Cd  Cd3  1  0.12500000  0.12500000  0.62500000  1
  Fe  Fe0  1  0.62500000  0.62500000  0.62500000  1
  Os  Os0  1  0.12500000  0.62500000  0.62500000  1
  Os  Os1  1  0.62500000  0.12500000  0.62500000  1
  Os  Os2  1  0.62500000  0.62500000  0.12500000  1
  O  O0  1  0.25069346  0.25069346  0.25069346  1
  O  O1  1  0.99930654  0.99930654  0.99930654  1
  O  O2  1  0.55381403  0.95177773  0.55381403  1
  O  O3  1  0.30558187  0.69986384  0.30558187  1
  O  O4  1  0.55381403  0.55381403  0.95177773  1
  O  O5  1  0.95177773  0.55381403  0.55381403  1
  O  O6  1  0.55013616  0.94441813  0.94441813  1
  O  O7  1  0.94441813  0.94441813  0.55013616  1
  O  O8  1  0.94441813  0.55013616  0.94441813  1
  O  O9  1  0.69986384  0.30558187  0.30558187  1
  O  O10  1  0.29822227  0.69618597  0.69618597  1
  O  O11  1  0.69618597  0.29822227  0.69618597  1
  O  O12  1  0.30558187  0.30558187  0.69986384  1
  O  O13  1  0.69618597  0.69618597  0.29822227  1
loop_
_geom_bond_atom_site_label_1
_geom_bond_atom_site_label_2
_geom_bond_distance
_geom_bond_site_symmetry_2
Cd0 O0 2.193392 1_555
Cd0 O1 2.193392 1_444
Cd0 O7 2.553804 1_445
Cd0 O12 2.553804 1_554
Cd0 O8 2.553804 1_454
Cd0 O3 2.553804 1_545
Cd0 O6 2.553804 1_544
Cd0 O9 2.553804 1_455
Cd1 O1 2.204738 1_544
Cd1 O0 2.204738 1_555
Cd1 O11 2.563008 1_554
Cd1 O2 2.563008 1_545
Cd1 O4 2.563008 1_554
Cd1 O13 2.563008 1_545
Cd1 O9 2.574323 1_555
Cd1 O6 2.574323 1_544
Cd2 O1 2.204738 1_454
Cd2 O0 2.204738 1_555
Cd2 O5 2.563008 1_455
Cd2 O10 2.563008 1_554
Cd2 O4 2.563008 1_554
Cd2 O13 2.563008 1_455
Cd2 O8 2.574323 1_454
Cd2 O3 2.574323 1_555
Cd3 O1 2.204738 1_445
Cd3 O0 2.204738 1_555
Cd3 O5 2.563008 1_455
Cd3 O10 2.563008 1_545
Cd3 O11 2.563008 1_455
Cd3 O2 2.563008 1_545
Cd3 O12 2.574324 1_555
Cd3 O7 2.574324 1_445
Fe0 O4 1.976380 1_555
Fe0 O13 1.976380 1_555
Fe0 O2 1.976380 1_555
Fe0 O11 1.976380 1_555
Fe0 O5 1.976380 1_555
Fe0 O10 1.976380 1_555
O2 Os1 1.884433 1_565
O3 Os0 1.939819 1_555
O3 Os2 1.939819 1_555
O4 Os2 1.884433 1_556
O5 Os0 1.884433 1_655
O6 Os1 1.939819 1_565
O6 Os2 1.939819 1_556
O7 Os0 1.939819 1_655
O7 Os1 1.939819 1_565
O8 Os0 1.939819 1_655
O8 Os2 1.939819 1_556
O9 Os1 1.939819 1_555
O9 Os2 1.939819 1_555
O10 Os0 1.884433 1_555
O11 Os1 1.884433 1_555
O12 Os0 1.939819 1_555
O12 Os1 1.939819 1_555
O13 Os2 1.884433 1_555
