# generated using pymatgen
data_TiGaTcPt
_symmetry_space_group_name_H-M   'P 1'
_cell_length_a   4.34546188
_cell_length_b   4.34546090
_cell_length_c   4.34546065
_cell_angle_alpha   59.99999445
_cell_angle_beta   60.00000194
_cell_angle_gamma   59.99999809
_symmetry_Int_Tables_number   1
_chemical_formula_structural   TiGaTcPt
_chemical_formula_sum   'Ti1 Ga1 Tc1 Pt1'
_cell_volume   58.02198697
_cell_formula_units_Z   1
loop_
 _symmetry_equiv_pos_site_id
 _symmetry_equiv_pos_as_xyz
  1  'x, y, z'
loop_
 _atom_site_type_symbol
 _atom_site_label
 _atom_site_symmetry_multiplicity
 _atom_site_fract_x
 _atom_site_fract_y
 _atom_site_fract_z
 _atom_site_occupancy
  Ti  Ti0  1  0.75000000  0.75000000  0.75000000  1
  Ga  Ga0  1  0.25000000  0.25000000  0.25000000  1
  Tc  Tc0  1  0.00000000  0.00000000  0.00000000  1
  Pt  Pt0  1  0.50000000  0.50000000  0.50000000  1
loop_
_geom_bond_atom_site_label_1
_geom_bond_atom_site_label_2
_geom_bond_distance
_geom_bond_site_symmetry_2
Ga0 Tc0 2.661040 1_556
Ga0 Pt0 2.661040 1_554
Ga0 Tc0 2.661040 1_565
Ga0 Pt0 2.661040 1_545
Ga0 Tc0 2.661041 1_555
Ga0 Pt0 2.661041 1_555
Ga0 Tc0 2.661041 1_655
Ga0 Pt0 2.661041 1_455
Tc0 Ti0 2.661040 1_445
Tc0 Ti0 2.661040 1_454
Tc0 Ti0 2.661041 1_444
Tc0 Ti0 2.661041 1_544
Pt0 Ti0 2.661040 1_554
Pt0 Ti0 2.661040 1_545
Pt0 Ti0 2.661041 1_555
Pt0 Ti0 2.661041 1_455
