# generated using pymatgen
data_Zn3GeP7N12
_symmetry_space_group_name_H-M   'P 1'
_cell_length_a   7.11555060
_cell_length_b   7.14386284
_cell_length_c   7.11555132
_cell_angle_alpha   109.55184296
_cell_angle_beta   109.39047803
_cell_angle_gamma   109.55184550
_symmetry_Int_Tables_number   1
_chemical_formula_structural   Zn3GeP7N12
_chemical_formula_sum   'Zn3 Ge1 P7 N12'
_cell_volume   278.16032522
_cell_formula_units_Z   1
loop_
 _symmetry_equiv_pos_site_id
 _symmetry_equiv_pos_as_xyz
  1  'x, y, z'
loop_
 _atom_site_type_symbol
 _atom_site_label
 _atom_site_symmetry_multiplicity
 _atom_site_fract_x
 _atom_site_fract_y
 _atom_site_fract_z
 _atom_site_occupancy
  Zn  Zn0  1  0.66962284  0.67065500  0.66962284  1
  Zn  Zn1  1  0.33037716  0.00103316  0.00000000  1
  Zn  Zn2  1  1.00000000  0.00103316  0.33037716  1
  Ge  Ge0  1  0.00000000  0.32947040  0.00000000  1
  P  P0  1  0.75008978  0.25153096  0.49754439  1
  P  P1  1  0.25254539  0.75398658  0.50245561  1
  P  P2  1  0.50245561  0.75398658  0.25254539  1
  P  P3  1  0.49754439  0.25153096  0.75008978  1
  P  P4  1  0.74745461  0.50144118  0.24991022  1
  P  P5  1  0.24991022  0.50144118  0.74745461  1
  P  P6  1  1.00000000  0.96926265  1.00000000  1
  N  N0  1  0.55744349  0.27217278  0.00000000  1
  N  N1  1  0.44468342  0.44609556  0.71828915  1
  N  N2  1  0.00000000  0.27217278  0.55744349  1
  N  N3  1  0.27360574  0.00141214  0.55531658  1
  N  N4  1  0.71828915  0.44609556  0.44468342  1
  N  N5  1  1.00000000  0.55863274  0.27097411  1
  N  N6  1  0.55531658  0.00141214  0.27360574  1
  N  N7  1  0.44255651  0.71472930  0.44255651  1
  N  N8  1  0.27097411  0.55863274  0.00000000  1
  N  N9  1  0.72902589  0.28765863  0.72902589  1
  N  N10  1  0.72639426  0.72780641  0.28171085  1
  N  N11  1  0.28171085  0.72780641  0.72639426  1
loop_
_geom_bond_atom_site_label_1
_geom_bond_atom_site_label_2
_geom_bond_distance
_geom_bond_site_symmetry_2
Ge0 N8 2.070038 1_555
Ge0 N5 2.070038 1_455
Ge0 N9 2.070038 1_454
Ge0 P6 2.573275 1_444
P6 Zn1 2.284892 1_666
P6 Zn2 2.284892 1_566
P6 Zn0 2.284893 1_555
N0 P4 1.626263 1_555
N0 P3 1.626263 1_554
N0 Zn1 2.065843 1_555
N1 P5 1.619565 1_555
N1 P3 1.621278 1_555
N1 Zn0 2.067976 1_555
N2 P5 1.626263 1_555
N2 P0 1.626263 1_455
N2 Zn2 2.065843 1_455
N3 P3 1.619565 1_555
N3 P1 1.621278 1_545
N3 Zn2 2.067980 1_455
N4 P4 1.619565 1_555
N4 P0 1.621278 1_555
N4 Zn0 2.067976 1_555
N5 P4 1.645405 1_555
N5 P1 1.645405 1_655
N6 P0 1.619565 1_555
N6 P2 1.621278 1_545
N6 Zn1 2.067980 1_555
N7 P1 1.626263 1_555
N7 P2 1.626263 1_555
N7 Zn0 2.065848 1_555
N8 P2 1.645405 1_555
N8 P5 1.645406 1_554
N9 P3 1.645405 1_555
N9 P0 1.645405 1_555
N10 P2 1.619565 1_555
N10 P4 1.621278 1_555
N10 Zn2 2.067980 1_565
N11 P1 1.619565 1_555
N11 P5 1.621278 1_555
N11 Zn1 2.067980 1_566
