# generated using pymatgen
data_Rb6As4W
_symmetry_space_group_name_H-M   'P 1'
_cell_length_a   10.65049263
_cell_length_b   10.65049169
_cell_length_c   8.54220173
_cell_angle_alpha   90.00000000
_cell_angle_beta   90.00000000
_cell_angle_gamma   119.99999079
_symmetry_Int_Tables_number   1
_chemical_formula_structural   Rb6As4W
_chemical_formula_sum   'Rb12 As8 W2'
_cell_volume   839.15048374
_cell_formula_units_Z   2
loop_
 _symmetry_equiv_pos_site_id
 _symmetry_equiv_pos_as_xyz
  1  'x, y, z'
loop_
 _atom_site_type_symbol
 _atom_site_label
 _atom_site_symmetry_multiplicity
 _atom_site_fract_x
 _atom_site_fract_y
 _atom_site_fract_z
 _atom_site_occupancy
  Rb  Rb0  1  0.14659427  0.29319054  0.28757092  1
  Rb  Rb1  1  0.85340573  0.14659427  0.78757092  1
  Rb  Rb2  1  0.53272803  0.46727197  0.10463063  1
  Rb  Rb3  1  0.06545506  0.53272803  0.60463063  1
  Rb  Rb4  1  0.46727197  0.93454494  0.60463063  1
  Rb  Rb5  1  0.53272803  0.06545506  0.10463063  1
  Rb  Rb6  1  0.93454494  0.46727197  0.10463063  1
  Rb  Rb7  1  0.46727197  0.53272803  0.60463063  1
  Rb  Rb8  1  0.14659427  0.85340573  0.28757092  1
  Rb  Rb9  1  0.70680946  0.85340573  0.28757092  1
  Rb  Rb10  1  0.85340573  0.70680946  0.78757092  1
  Rb  Rb11  1  0.29319054  0.14659427  0.78757092  1
  As  As0  1  0.79112785  0.58225670  0.40751172  1
  As  As1  1  0.41774330  0.20887215  0.40751172  1
  As  As2  1  0.33333300  0.66666700  0.27855629  1
  As  As3  1  0.66666700  0.33333300  0.77855629  1
  As  As4  1  0.79112785  0.20887215  0.40751172  1
  As  As5  1  0.20887215  0.79112785  0.90751172  1
  As  As6  1  0.20887215  0.41774330  0.90751172  1
  As  As7  1  0.58225670  0.79112785  0.90751172  1
  W  W0  1  0.66666700  0.33333300  0.49720187  1
  W  W1  1  0.33333300  0.66666700  0.99720187  1
loop_
_geom_bond_atom_site_label_1
_geom_bond_atom_site_label_2
_geom_bond_distance
_geom_bond_site_symmetry_2
As0 W0 2.420429 1_555
As0 Rb10 3.443811 1_555
As0 Rb2 3.520991 1_555
As0 Rb6 3.521003 1_555
As0 Rb8 3.576218 1_655
As0 Rb9 3.576224 1_555
As0 Rb3 3.631971 1_655
As0 Rb7 3.631971 1_555
As1 W0 2.420429 1_555
As1 Rb11 3.443811 1_555
As1 Rb2 3.520991 1_555
As1 Rb5 3.521003 1_555
As1 Rb8 3.576218 1_545
As1 Rb0 3.576224 1_555
As1 Rb4 3.631970 1_545
As1 Rb7 3.631971 1_555
As2 W1 2.403386 1_554
As2 Rb0 3.445657 1_555
As2 Rb9 3.445657 1_555
As2 Rb8 3.445666 1_555
As2 Rb7 3.723339 1_555
As2 Rb4 3.723339 1_555
As2 Rb3 3.723340 1_555
As2 Rb5 3.966980 1_565
As2 Rb6 3.966980 1_455
As2 Rb2 3.966997 1_555
As3 W0 2.403386 1_555
As3 Rb10 3.445657 1_555
As3 Rb11 3.445657 1_555
As3 Rb1 3.445666 1_555
As3 Rb2 3.723339 1_556
As3 Rb5 3.723339 1_556
As3 Rb6 3.723340 1_556
As3 Rb4 3.966980 1_545
As3 Rb3 3.966980 1_655
As3 Rb7 3.966997 1_555
As4 W0 2.420411 1_555
As4 Rb1 3.443820 1_555
As4 Rb6 3.520992 1_555
As4 Rb5 3.520992 1_555
As4 Rb9 3.576214 1_545
As4 Rb0 3.576215 1_655
As4 Rb3 3.631971 1_655
As4 Rb4 3.631971 1_545
As5 W1 2.420411 1_555
As5 Rb8 3.443820 1_556
As5 Rb3 3.520992 1_555
As5 Rb4 3.520992 1_555
As5 Rb11 3.576214 1_565
As5 Rb10 3.576215 1_455
As5 Rb6 3.631971 1_456
As5 Rb5 3.631971 1_566
As6 W1 2.420429 1_555
As6 Rb0 3.443811 1_556
As6 Rb7 3.520991 1_555
As6 Rb3 3.521003 1_555
As6 Rb1 3.576218 1_455
As6 Rb11 3.576224 1_555
As6 Rb6 3.631971 1_456
As6 Rb2 3.631971 1_556
As7 W1 2.420429 1_555
As7 Rb9 3.443811 1_556
As7 Rb7 3.520991 1_555
As7 Rb4 3.521003 1_555
As7 Rb1 3.576218 1_565
As7 Rb10 3.576224 1_555
As7 Rb5 3.631970 1_566
As7 Rb2 3.631971 1_556
