# generated using pymatgen
data_Sr4Ga8AsP7
_symmetry_space_group_name_H-M   'P 1'
_cell_length_a   3.93236981
_cell_length_b   9.44680909
_cell_length_c   12.25576526
_cell_angle_alpha   83.82932885
_cell_angle_beta   90.00000000
_cell_angle_gamma   90.00000000
_symmetry_Int_Tables_number   1
_chemical_formula_structural   Sr4Ga8AsP7
_chemical_formula_sum   'Sr4 Ga8 As1 P7'
_cell_volume   452.64357203
_cell_formula_units_Z   1
loop_
 _symmetry_equiv_pos_site_id
 _symmetry_equiv_pos_as_xyz
  1  'x, y, z'
loop_
 _atom_site_type_symbol
 _atom_site_label
 _atom_site_symmetry_multiplicity
 _atom_site_fract_x
 _atom_site_fract_y
 _atom_site_fract_z
 _atom_site_occupancy
  Sr  Sr0  1  0.00000000  0.49889921  0.00053773  1
  Sr  Sr1  1  0.00000000  0.00305842  0.49879789  1
  Sr  Sr2  1  0.50000000  0.80436112  0.78099852  1
  Sr  Sr3  1  0.50000000  0.19916731  0.22191740  1
  Ga  Ga0  1  0.50000000  0.19850401  0.67370603  1
  Ga  Ga1  1  0.00000000  0.59483768  0.55763551  1
  Ga  Ga2  1  0.50000000  0.80602295  0.32188032  1
  Ga  Ga3  1  0.50000000  0.39789355  0.78018916  1
  Ga  Ga4  1  0.50000000  0.60206364  0.22123065  1
  Ga  Ga5  1  0.00000000  0.11035021  0.93317110  1
  Ga  Ga6  1  0.00000000  0.88868471  0.06390505  1
  Ga  Ga7  1  0.00000000  0.39554087  0.44516700  1
  As  As0  1  0.50000000  0.75574436  0.52605807  1
  P  P0  1  0.00000000  0.05904356  0.74053295  1
  P  P1  1  0.00000000  0.55059759  0.75547967  1
  P  P2  1  0.00000000  0.94469328  0.25565854  1
  P  P3  1  0.00000000  0.44956401  0.24706737  1
  P  P4  1  0.50000000  0.24364780  0.47570721  1
  P  P5  1  0.50000000  0.25906035  0.96113641  1
  P  P6  1  0.50000000  0.73826338  0.03922442  1
loop_
_geom_bond_atom_site_label_1
_geom_bond_atom_site_label_2
_geom_bond_distance
_geom_bond_site_symmetry_2
Ga0 Ga3 2.404058 1_555
Ga0 P4 2.418246 1_555
Ga0 P0 2.457721 1_555
Ga0 P0 2.457721 1_655
Ga1 P1 2.415809 1_555
Ga1 Ga7 2.449997 1_555
Ga2 Ga4 2.396872 1_555
Ga2 P2 2.451956 1_555
Ga2 P2 2.451956 1_655
Ga3 P1 2.438170 1_655
Ga3 P1 2.438170 1_555
Ga3 P5 2.452100 1_555
Ga4 P3 2.437931 1_555
Ga4 P3 2.437931 1_655
Ga4 P6 2.452379 1_555
Ga5 P0 2.460671 1_555
Ga5 P5 2.461793 1_455
Ga5 P5 2.461793 1_555
Ga5 Ga6 2.496170 1_546
Ga6 P6 2.463540 1_455
Ga6 P6 2.463540 1_555
Ga6 P2 2.463771 1_555
Ga7 P3 2.426643 1_555
Ga7 P4 2.439153 1_555
Ga7 P4 2.439153 1_455
As0 Ga1 2.489931 1_655
As0 Ga1 2.489931 1_555
As0 Ga2 2.496370 1_555
As0 Sr1 3.044360 1_565
As0 Sr1 3.044360 1_665
As0 Sr2 3.206535 1_555
P0 Sr1 3.064939 1_555
P0 Sr2 3.105455 1_545
P0 Sr2 3.105455 1_445
P1 Sr0 2.990559 1_556
P1 Sr2 3.141928 1_455
P1 Sr2 3.141928 1_555
P2 Sr1 3.088167 1_565
P2 Sr3 3.098747 1_565
P2 Sr3 3.098747 1_465
P3 Sr0 3.007225 1_555
P3 Sr3 3.116567 1_555
P3 Sr3 3.116567 1_455
P4 Sr1 2.995551 1_655
P4 Sr1 2.995551 1_555
P4 Sr3 3.183089 1_555
P5 Sr0 3.076968 1_656
P5 Sr0 3.076968 1_556
P5 Sr3 3.185316 1_556
P6 Sr0 3.071534 1_655
P6 Sr0 3.071534 1_555
P6 Sr2 3.159232 1_554
