# generated using pymatgen
data_CaHg(AuO2)4
_symmetry_space_group_name_H-M   'P 1'
_cell_length_a   6.62243893
_cell_length_b   6.62243908
_cell_length_c   6.62243966
_cell_angle_alpha   125.76309917
_cell_angle_beta   125.76309084
_cell_angle_gamma   80.27786013
_symmetry_Int_Tables_number   1
_chemical_formula_structural   CaHg(AuO2)4
_chemical_formula_sum   'Ca1 Hg1 Au4 O8'
_cell_volume   184.54016977
_cell_formula_units_Z   1
loop_
 _symmetry_equiv_pos_site_id
 _symmetry_equiv_pos_as_xyz
  1  'x, y, z'
loop_
 _atom_site_type_symbol
 _atom_site_label
 _atom_site_symmetry_multiplicity
 _atom_site_fract_x
 _atom_site_fract_y
 _atom_site_fract_z
 _atom_site_occupancy
  Ca  Ca0  1  0.00000000  0.00000000  0.00000000  1
  Hg  Hg0  1  0.75000000  0.25000000  0.50000000  1
  Au  Au0  1  0.37562513  0.62706692  0.75238511  1
  Au  Au1  1  0.37293308  0.12531818  0.74855820  1
  Au  Au2  1  0.87468182  0.62324002  0.24761489  1
  Au  Au3  1  0.37675998  0.62437487  0.25144180  1
  O  O0  1  0.04724955  0.40684375  0.05114137  1
  O  O1  1  0.74315120  0.29137532  0.12913941  1
  O  O2  1  0.16223591  0.61400980  0.87086059  1
  O  O3  1  0.35570238  0.99610818  0.94885863  1
  O  O4  1  0.70862468  0.83776409  0.45177488  1
  O  O5  1  0.00389182  0.95275045  0.35959520  1
  O  O6  1  0.38599020  0.25684880  0.54822512  1
  O  O7  1  0.59315625  0.64429762  0.64040480  1
loop_
_geom_bond_atom_site_label_1
_geom_bond_atom_site_label_2
_geom_bond_distance
_geom_bond_site_symmetry_2
Ca0 O1 2.451733 1_455
Ca0 O4 2.451738 1_444
Ca0 O6 2.451740 1_555
Ca0 O2 2.451743 1_544
Ca0 O7 2.562443 1_444
Ca0 O3 2.562444 1_544
Ca0 O0 2.562444 1_555
Ca0 O5 2.562451 1_545
Hg0 O5 2.477245 1_645
Hg0 O7 2.477247 1_555
Hg0 O3 2.477248 1_544
Hg0 O0 2.477248 1_656
Hg0 O6 2.600237 1_555
Hg0 O2 2.600239 1_655
Hg0 O4 2.600242 1_545
Hg0 O1 2.600246 1_555
Au0 O6 2.005190 1_555
Au0 O2 2.009141 1_555
Au0 O7 2.010325 1_555
Au0 O3 2.014476 1_555
Au1 O1 2.005187 1_556
Au1 O6 2.009137 1_555
Au1 O3 2.010320 1_545
Au1 O5 2.014475 1_545
Au2 O4 2.005183 1_555
Au2 O1 2.009136 1_555
Au2 O5 2.010316 1_655
Au2 O0 2.014476 1_655
Au3 O2 2.005179 1_554
Au3 O4 2.009138 1_555
Au3 O0 2.010320 1_555
Au3 O7 2.014471 1_555
