# generated using pymatgen
data_Hf3Sc(Ta3Si4)2
_symmetry_space_group_name_H-M   'P 1'
_cell_length_a   6.83078974
_cell_length_b   6.83463267
_cell_length_c   12.57801125
_cell_angle_alpha   90.00000000
_cell_angle_beta   90.00000000
_cell_angle_gamma   89.94696831
_symmetry_Int_Tables_number   1
_chemical_formula_structural   Hf3Sc(Ta3Si4)2
_chemical_formula_sum   'Hf6 Sc2 Ta12 Si16'
_cell_volume   587.21601017
_cell_formula_units_Z   2
loop_
 _symmetry_equiv_pos_site_id
 _symmetry_equiv_pos_as_xyz
  1  'x, y, z'
loop_
 _atom_site_type_symbol
 _atom_site_label
 _atom_site_symmetry_multiplicity
 _atom_site_fract_x
 _atom_site_fract_y
 _atom_site_fract_z
 _atom_site_occupancy
  Hf  Hf0  1  0.00249134  0.65934036  0.03076874  1
  Hf  Hf1  1  0.83869545  0.50165307  0.28037762  1
  Hf  Hf2  1  0.16130455  0.49834693  0.78037762  1
  Hf  Hf3  1  0.50121400  0.83854070  0.71887687  1
  Hf  Hf4  1  0.49878600  0.16145930  0.21887687  1
  Hf  Hf5  1  0.99750866  0.34065964  0.53076874  1
  Sc  Sc0  1  0.66177355  0.99963448  0.97027463  1
  Sc  Sc1  1  0.33822645  0.00036552  0.47027463  1
  Ta  Ta0  1  0.32819545  0.33112254  0.99977082  1
  Ta  Ta1  1  0.16976008  0.83001440  0.24965048  1
  Ta  Ta2  1  0.83023992  0.16998560  0.74965048  1
  Ta  Ta3  1  0.67180455  0.66887746  0.49977082  1
  Ta  Ta4  1  0.00336309  0.15335563  0.12702576  1
  Ta  Ta5  1  0.34905565  0.50400744  0.37561136  1
  Ta  Ta6  1  0.65094435  0.49599256  0.87561136  1
  Ta  Ta7  1  0.50435882  0.34837253  0.62437757  1
  Ta  Ta8  1  0.49564118  0.65162747  0.12437757  1
  Ta  Ta9  1  0.99663691  0.84664437  0.62702576  1
  Ta  Ta10  1  0.15150298  0.00391083  0.87328586  1
  Ta  Ta11  1  0.84849702  0.99608917  0.37328586  1
  Si  Si0  1  0.30038597  0.95675469  0.06327728  1
  Si  Si1  1  0.54309691  0.80183390  0.31419577  1
  Si  Si2  1  0.45690309  0.19816610  0.81419577  1
  Si  Si3  1  0.80068813  0.54400223  0.68637960  1
  Si  Si4  1  0.19931187  0.45599777  0.18637960  1
  Si  Si5  1  0.69961403  0.04324531  0.56327728  1
  Si  Si6  1  0.95482481  0.29951847  0.93619612  1
  Si  Si7  1  0.04517519  0.70048153  0.43619612  1
  Si  Si8  1  0.70703945  0.36383451  0.07260342  1
  Si  Si9  1  0.13686472  0.20817945  0.32306005  1
  Si  Si10  1  0.86313528  0.79182055  0.82306005  1
  Si  Si11  1  0.20807544  0.13625001  0.67713029  1
  Si  Si12  1  0.79192456  0.86374999  0.17713029  1
  Si  Si13  1  0.29296055  0.63616549  0.57260342  1
  Si  Si14  1  0.36356652  0.70797958  0.92713976  1
  Si  Si15  1  0.63643348  0.29202042  0.42713976  1
loop_
_geom_bond_atom_site_label_1
_geom_bond_atom_site_label_2
_geom_bond_distance
_geom_bond_site_symmetry_2
Hf0 Si12 2.721385 1_455
Hf0 Si4 2.750718 1_555
Hf0 Si6 2.751437 1_454
Hf0 Si14 2.809675 1_554
Hf0 Si8 2.904569 1_455
Hf0 Si0 2.906446 1_555
Hf0 Si10 2.924016 1_454
Hf1 Si15 2.715316 1_555
Hf1 Si4 2.749840 1_655
Hf1 Si7 2.771399 1_655
Hf1 Si12 2.812778 1_555
Hf1 Si9 2.907250 1_655
Hf1 Si1 2.908520 1_555
Hf1 Si8 2.920166 1_555
Hf2 Si14 2.715316 1_555
Hf2 Si3 2.749840 1_455
Hf2 Si6 2.771399 1_455
Hf2 Si11 2.812778 1_555
Hf2 Si10 2.907250 1_455
Hf2 Si2 2.908520 1_555
Hf2 Si13 2.920166 1_555
Hf3 Si13 2.706539 1_555
Hf3 Si2 2.751174 1_565
Hf3 Si5 2.761875 1_565
Hf3 Si10 2.815938 1_555
Hf3 Si3 2.897678 1_555
Hf3 Si11 2.901344 1_565
Hf3 Si14 2.922982 1_555
Hf4 Si8 2.706539 1_555
Hf4 Si1 2.751174 1_545
Hf4 Si0 2.761875 1_545
Hf4 Si9 2.815938 1_555
Hf4 Si4 2.897678 1_555
Hf4 Si12 2.901344 1_545
Hf4 Si15 2.922982 1_555
Hf5 Si11 2.721385 1_655
Hf5 Si3 2.750718 1_555
Hf5 Si7 2.751437 1_655
Hf5 Si15 2.809675 1_555
Hf5 Si13 2.904569 1_655
Hf5 Si5 2.906446 1_555
Hf5 Si9 2.924016 1_655
Sc0 Si10 2.708188 1_555
Sc0 Si0 2.747623 1_556
Sc0 Si2 2.765870 1_565
Sc0 Si8 2.819508 1_566
Sc0 Si6 2.898148 1_565
Sc0 Si12 2.901880 1_556
Sc0 Si14 2.902527 1_555
Sc1 Si9 2.708188 1_555
Sc1 Si5 2.747623 1_555
Sc1 Si1 2.765870 1_545
Sc1 Si13 2.819508 1_545
Sc1 Si7 2.898148 1_545
Sc1 Si11 2.901880 1_555
Sc1 Si15 2.902527 1_555
Si0 Si14 2.451117 1_554
Si0 Ta4 2.561218 1_565
Si0 Ta8 2.591020 1_555
Si0 Ta10 2.616919 1_564
Si0 Ta1 2.653908 1_555
Si0 Ta0 2.687344 1_564
Si1 Si12 2.457960 1_555
Si1 Ta5 2.549894 1_555
Si1 Ta11 2.583047 1_555
Si1 Ta8 2.619149 1_555
Si1 Ta3 2.654345 1_555
Si1 Ta1 2.683046 1_555
Si2 Ta6 2.549894 1_555
Si2 Ta10 2.583047 1_555
Si2 Ta7 2.619149 1_555
Si2 Ta0 2.654345 1_555
Si2 Ta2 2.683046 1_555
Si3 Ta7 2.549148 1_555
Si3 Ta9 2.575361 1_555
Si3 Ta6 2.611457 1_555
Si3 Ta3 2.647884 1_555
Si3 Ta2 2.684702 1_555
Si4 Si9 2.451043 1_555
Si4 Ta8 2.549148 1_555
Si4 Ta4 2.575361 1_555
Si4 Ta5 2.611457 1_555
Si4 Ta0 2.647884 1_554
Si4 Ta1 2.684702 1_555
Si5 Ta9 2.561218 1_545
Si5 Ta7 2.591020 1_555
Si5 Ta11 2.616919 1_545
Si5 Ta2 2.653908 1_555
Si5 Ta3 2.687344 1_545
Si6 Si8 2.449567 1_556
Si6 Ta10 2.551060 1_655
Si6 Ta6 2.586008 1_555
Si6 Ta4 2.620780 1_656
Si6 Ta2 2.648558 1_555
Si6 Ta0 2.681740 1_655
Si7 Ta11 2.551060 1_455
Si7 Ta5 2.586008 1_555
Si7 Ta9 2.620780 1_455
Si7 Ta1 2.648558 1_555
Si7 Ta3 2.681740 1_455
Si8 Ta8 2.524468 1_555
Si8 Ta4 2.574816 1_655
Si8 Ta6 2.664842 1_554
Si8 Ta0 2.754452 1_554
Si9 Ta11 2.526981 1_445
Si9 Ta5 2.575105 1_555
Si9 Ta4 2.655639 1_555
Si9 Ta1 2.753587 1_545
Si10 Si3 2.451043 1_555
Si10 Ta10 2.526981 1_665
Si10 Ta6 2.575105 1_555
Si10 Ta9 2.655639 1_555
Si10 Ta2 2.753587 1_565
Si11 Si2 2.457960 1_555
Si11 Ta9 2.531060 1_445
Si11 Ta7 2.577503 1_555
Si11 Ta10 2.656198 1_555
Si11 Ta2 2.746856 1_455
Si12 Ta4 2.531060 1_665
Si12 Ta8 2.577503 1_555
Si12 Ta11 2.656198 1_555
Si12 Ta1 2.746856 1_655
Si13 Si7 2.449567 1_555
Si13 Ta7 2.524468 1_555
Si13 Ta9 2.574816 1_455
Si13 Ta5 2.664842 1_555
Si13 Ta3 2.754452 1_555
Si14 Ta6 2.523374 1_555
Si14 Ta10 2.577320 1_565
Si14 Ta8 2.667635 1_556
Si14 Ta0 2.743763 1_555
Si15 Si5 2.451117 1_555
Si15 Ta5 2.523374 1_555
Si15 Ta11 2.577320 1_545
Si15 Ta7 2.667635 1_555
Si15 Ta3 2.743763 1_555
