# generated using pymatgen
data_Rb3CaIr2O9
_symmetry_space_group_name_H-M   'P 1'
_cell_length_a   6.10045303
_cell_length_b   6.10045247
_cell_length_c   14.54417979
_cell_angle_alpha   90.00000000
_cell_angle_beta   90.00000000
_cell_angle_gamma   119.99999261
_symmetry_Int_Tables_number   1
_chemical_formula_structural   Rb3CaIr2O9
_chemical_formula_sum   'Rb6 Ca2 Ir4 O18'
_cell_volume   468.75297175
_cell_formula_units_Z   2
loop_
 _symmetry_equiv_pos_site_id
 _symmetry_equiv_pos_as_xyz
  1  'x, y, z'
loop_
 _atom_site_type_symbol
 _atom_site_label
 _atom_site_symmetry_multiplicity
 _atom_site_fract_x
 _atom_site_fract_y
 _atom_site_fract_z
 _atom_site_occupancy
  Rb  Rb0  1  0.33333300  0.66666700  0.39864872  1
  Rb  Rb1  1  0.66666700  0.33333300  0.89864872  1
  Rb  Rb2  1  0.66666700  0.33333300  0.60135128  1
  Rb  Rb3  1  0.33333300  0.66666700  0.10135128  1
  Rb  Rb4  1  0.00000000  0.00000000  0.75000000  1
  Rb  Rb5  1  0.00000000  0.00000000  0.25000000  1
  Ca  Ca0  1  0.00000000  0.00000000  0.00000000  1
  Ca  Ca1  1  0.00000000  0.00000000  0.50000000  1
  Ir  Ir0  1  0.66666700  0.33333300  0.34632704  1
  Ir  Ir1  1  0.33333300  0.66666700  0.84632704  1
  Ir  Ir2  1  0.66666700  0.33333300  0.15367296  1
  Ir  Ir3  1  0.33333300  0.66666700  0.65367296  1
  O  O0  1  0.81779486  0.63558972  0.41137900  1
  O  O1  1  0.36441028  0.18220514  0.41137900  1
  O  O2  1  0.81779486  0.18220514  0.41137900  1
  O  O3  1  0.18220514  0.81779486  0.91137900  1
  O  O4  1  0.18220514  0.81779486  0.58862100  1
  O  O5  1  0.18220514  0.36441028  0.91137900  1
  O  O6  1  0.63558972  0.81779486  0.91137900  1
  O  O7  1  0.36441028  0.18220514  0.08862100  1
  O  O8  1  0.81779486  0.63558972  0.08862100  1
  O  O9  1  0.18220514  0.36441028  0.58862100  1
  O  O10  1  0.63558972  0.81779486  0.58862100  1
  O  O11  1  0.81779486  0.18220514  0.08862100  1
  O  O12  1  0.52950763  0.47049237  0.25000000  1
  O  O13  1  0.05901525  0.52950763  0.75000000  1
  O  O14  1  0.47049237  0.94098475  0.75000000  1
  O  O15  1  0.52950763  0.05901525  0.25000000  1
  O  O16  1  0.94098475  0.47049237  0.25000000  1
  O  O17  1  0.47049237  0.52950763  0.75000000  1
loop_
_geom_bond_atom_site_label_1
_geom_bond_atom_site_label_2
_geom_bond_distance
_geom_bond_site_symmetry_2
Ca0 O11 2.316859 1_455
Ca0 O3 2.316859 1_544
Ca0 O5 2.316859 1_554
Ca0 O8 2.316859 1_445
Ca0 O7 2.316859 1_555
Ca0 O6 2.316859 1_444
Ca1 O4 2.316859 1_545
Ca1 O2 2.316859 1_455
Ca1 O9 2.316859 1_555
Ca1 O0 2.316859 1_445
Ca1 O1 2.316859 1_555
Ca1 O10 2.316859 1_445
Ir0 O2 1.856104 1_555
Ir0 O0 1.856109 1_555
Ir0 O1 1.856109 1_555
Ir0 O15 2.015726 1_555
Ir0 O16 2.015726 1_555
Ir0 O12 2.015730 1_555
Ir1 O3 1.856104 1_555
Ir1 O5 1.856109 1_555
Ir1 O6 1.856109 1_555
Ir1 O14 2.015726 1_555
Ir1 O13 2.015726 1_555
Ir1 O17 2.015730 1_555
Ir2 O11 1.856104 1_555
Ir2 O8 1.856109 1_555
Ir2 O7 1.856109 1_555
Ir2 O15 2.015726 1_555
Ir2 O16 2.015726 1_555
Ir2 O12 2.015730 1_555
Ir3 O4 1.856104 1_555
Ir3 O9 1.856109 1_555
Ir3 O10 1.856109 1_555
Ir3 O14 2.015726 1_555
Ir3 O13 2.015726 1_555
Ir3 O17 2.015730 1_555
O0 Rb5 3.035707 1_665
O0 Rb0 3.060245 1_655
O0 Rb0 3.060251 1_555
O0 Rb2 3.191254 1_555
O1 Rb5 3.035708 1_555
O1 Rb0 3.060245 1_545
O1 Rb0 3.060251 1_555
O1 Rb2 3.191254 1_555
O2 Rb5 3.035707 1_655
O2 Rb0 3.060248 1_545
O2 Rb0 3.060248 1_655
O2 Rb2 3.191251 1_555
O3 Rb4 3.035707 1_565
O3 Rb1 3.060248 1_565
O3 Rb1 3.060248 1_455
O3 Rb3 3.191251 1_556
O4 Rb4 3.035707 1_565
O4 Rb2 3.060248 1_565
O4 Rb2 3.060248 1_455
O4 Rb0 3.191251 1_555
O5 Rb4 3.035707 1_555
O5 Rb1 3.060245 1_455
O5 Rb1 3.060251 1_555
O5 Rb3 3.191254 1_556
O6 Rb4 3.035708 1_665
O6 Rb1 3.060245 1_565
O6 Rb1 3.060251 1_555
O6 Rb3 3.191254 1_556
O7 Rb5 3.035708 1_555
O7 Rb3 3.060245 1_545
O7 Rb3 3.060251 1_555
O7 Rb1 3.191254 1_554
O8 Rb5 3.035707 1_665
O8 Rb3 3.060245 1_655
O8 Rb3 3.060251 1_555
O8 Rb1 3.191254 1_554
O9 Rb4 3.035707 1_555
O9 Rb2 3.060245 1_455
O9 Rb2 3.060251 1_555
O9 Rb0 3.191254 1_555
O10 Rb4 3.035708 1_665
O10 Rb2 3.060245 1_565
O10 Rb2 3.060251 1_555
O10 Rb0 3.191254 1_555
O11 Rb5 3.035707 1_655
O11 Rb3 3.060248 1_545
O11 Rb3 3.060248 1_655
O11 Rb1 3.191251 1_554
O12 Rb0 2.995128 1_555
O12 Rb3 2.995128 1_555
O12 Rb5 3.066120 1_665
O12 Rb5 3.066120 1_555
O13 Rb1 2.995124 1_455
O13 Rb2 2.995124 1_455
O13 Rb4 3.066120 1_565
O13 Rb4 3.066120 1_555
O14 Rb1 2.995124 1_565
O14 Rb2 2.995124 1_565
O14 Rb4 3.066120 1_565
O14 Rb4 3.066120 1_665
O15 Rb0 2.995124 1_545
O15 Rb3 2.995124 1_545
O15 Rb5 3.066120 1_655
O15 Rb5 3.066120 1_555
O16 Rb0 2.995124 1_655
O16 Rb3 2.995124 1_655
O16 Rb5 3.066120 1_655
O16 Rb5 3.066120 1_665
O17 Rb1 2.995128 1_555
O17 Rb2 2.995128 1_555
O17 Rb4 3.066120 1_555
O17 Rb4 3.066120 1_665
