# generated using pymatgen
data_Sr10CrPN10
_symmetry_space_group_name_H-M   'P 1'
_cell_length_a   7.50191848
_cell_length_b   7.50191815
_cell_length_c   8.87540574
_cell_angle_alpha   76.73674492
_cell_angle_beta   76.73674002
_cell_angle_gamma   95.99808628
_symmetry_Int_Tables_number   1
_chemical_formula_structural   Sr10CrPN10
_chemical_formula_sum   'Sr10 Cr1 P1 N10'
_cell_volume   466.65105873
_cell_formula_units_Z   1
loop_
 _symmetry_equiv_pos_site_id
 _symmetry_equiv_pos_as_xyz
  1  'x, y, z'
loop_
 _atom_site_type_symbol
 _atom_site_label
 _atom_site_symmetry_multiplicity
 _atom_site_fract_x
 _atom_site_fract_y
 _atom_site_fract_z
 _atom_site_occupancy
  Sr  Sr0  1  0.40376910  0.39331911  0.37650783  1
  Sr  Sr1  1  0.60668089  0.59623090  0.62349217  1
  Sr  Sr2  1  0.66419020  0.66813766  0.00756420  1
  Sr  Sr3  1  0.33186234  0.33580980  0.99243580  1
  Sr  Sr4  1  0.92335542  0.93038343  0.19442606  1
  Sr  Sr5  1  0.06961657  0.07664458  0.80557394  1
  Sr  Sr6  1  0.55637886  0.09545110  0.76324854  1
  Sr  Sr7  1  0.90454890  0.44362114  0.23675146  1
  Sr  Sr8  1  0.45165969  0.91247505  0.23726642  1
  Sr  Sr9  1  0.08752495  0.54834031  0.76273358  1
  Cr  Cr0  1  0.24196157  0.75803843  0.00000000  1
  P  P0  1  0.75849418  0.24150582  1.00000000  1
  N  N0  1  0.66085997  0.66030458  0.32003984  1
  N  N1  1  0.33969542  0.33914003  0.67996016  1
  N  N2  1  0.72210962  0.02286186  0.98680089  1
  N  N3  1  0.97713814  0.27789038  0.01319911  1
  N  N4  1  0.28011201  0.98377611  0.01687767  1
  N  N5  1  0.01622389  0.71988799  0.98312233  1
  N  N6  1  0.39899332  0.73368775  0.82991408  1
  N  N7  1  0.26631225  0.60100668  0.17008492  1
  N  N8  1  0.60925027  0.27073756  0.16155386  1
  N  N9  1  0.72926244  0.39074973  0.83844514  1
loop_
_geom_bond_atom_site_label_1
_geom_bond_atom_site_label_2
_geom_bond_distance
_geom_bond_site_symmetry_2
Cr0 N4 1.734057 1_555
Cr0 N5 1.734057 1_554
Cr0 N7 1.747992 1_555
Cr0 N6 1.747998 1_554
N0 Sr0 2.504224 1_555
N0 Sr4 2.519562 1_555
N0 Sr1 2.552013 1_555
N0 Sr7 2.661437 1_555
N0 Sr8 2.663328 1_555
N0 Sr2 2.754752 1_555
N1 Sr1 2.504224 1_555
N1 Sr5 2.519562 1_555
N1 Sr0 2.552013 1_555
N1 Sr6 2.661437 1_555
N1 Sr9 2.663327 1_555
N1 Sr3 2.754752 1_555
N2 P0 1.669706 1_555
N2 Sr8 2.545289 1_546
N2 Sr6 2.560605 1_555
N2 Sr2 2.607846 1_546
N2 Sr4 2.658042 1_546
N2 Sr5 2.665438 1_655
N3 P0 1.669706 1_554
N3 Sr9 2.545289 1_654
N3 Sr7 2.560605 1_555
N3 Sr3 2.607846 1_654
N3 Sr5 2.658042 1_654
N3 Sr4 2.665438 1_545
N4 Sr8 2.566565 1_555
N4 Sr3 2.580017 1_564
N4 Sr6 2.587585 1_564
N4 Sr4 2.712505 1_455
N4 Sr5 2.735951 1_564
N5 Sr9 2.566565 1_555
N5 Sr2 2.580017 1_456
N5 Sr7 2.587585 1_456
N5 Sr5 2.712505 1_565
N5 Sr4 2.735951 1_456
N6 Sr1 2.596202 1_555
N6 Sr6 2.717066 1_565
N6 Sr2 2.823818 1_556
N6 Sr9 2.844177 1_555
N6 Sr3 2.936075 1_555
N7 Sr0 2.596208 1_555
N7 Sr7 2.717065 1_455
N7 Sr3 2.823812 1_554
N7 Sr8 2.844181 1_555
N7 Sr2 2.936073 1_555
N8 P0 1.678255 1_554
N8 Sr0 2.571662 1_555
N8 Sr8 2.686156 1_545
N8 Sr7 2.740485 1_555
N8 Sr3 2.851473 1_554
N8 Sr2 2.922473 1_555
N9 P0 1.678261 1_555
N9 Sr1 2.571656 1_555
N9 Sr9 2.686157 1_655
N9 Sr6 2.740480 1_555
N9 Sr2 2.851478 1_556
N9 Sr3 2.922474 1_555
