# generated using pymatgen
data_Ti3CuRhS8
_symmetry_space_group_name_H-M   'P 1'
_cell_length_a   6.92497271
_cell_length_b   6.92497200
_cell_length_c   6.92497246
_cell_angle_alpha   60.23917200
_cell_angle_beta   60.23917664
_cell_angle_gamma   60.23916588
_symmetry_Int_Tables_number   1
_chemical_formula_structural   Ti3CuRhS8
_chemical_formula_sum   'Ti3 Cu1 Rh1 S8'
_cell_volume   236.09361006
_cell_formula_units_Z   1
loop_
 _symmetry_equiv_pos_site_id
 _symmetry_equiv_pos_as_xyz
  1  'x, y, z'
loop_
 _atom_site_type_symbol
 _atom_site_label
 _atom_site_symmetry_multiplicity
 _atom_site_fract_x
 _atom_site_fract_y
 _atom_site_fract_z
 _atom_site_occupancy
  Ti  Ti0  1  0.12432189  0.64574197  0.12432189  1
  Ti  Ti1  1  0.64574197  0.12432189  0.12432189  1
  Ti  Ti2  1  0.12432189  0.12432189  0.64574197  1
  Cu  Cu0  1  0.50587224  0.50587224  0.50587224  1
  Rh  Rh0  1  0.11164977  0.11164977  0.11164977  1
  S  S0  1  0.35625361  0.90480459  0.35625361  1
  S  S1  1  0.35625361  0.35625361  0.90480459  1
  S  S2  1  0.90480459  0.35625361  0.35625361  1
  S  S3  1  0.88053039  0.88053039  0.88053039  1
  S  S4  1  0.37402959  0.37402959  0.37402959  1
  S  S5  1  0.86682050  0.38257945  0.86682050  1
  S  S6  1  0.38257945  0.86682050  0.86682050  1
  S  S7  1  0.86682050  0.86682050  0.38257945  1
loop_
_geom_bond_atom_site_label_1
_geom_bond_atom_site_label_2
_geom_bond_distance
_geom_bond_site_symmetry_2
Cu0 S4 2.232350 1_555
Cu0 S0 2.271886 1_555
Cu0 S2 2.271886 1_555
Cu0 S1 2.271886 1_555
Rh0 S5 2.409755 1_454
Rh0 S6 2.409755 1_544
Rh0 S7 2.409755 1_445
Rh0 S0 2.412706 1_545
Rh0 S2 2.412706 1_455
Rh0 S1 2.412706 1_554
S0 Ti2 2.512834 1_565
S0 Ti1 2.512834 1_565
S1 Ti0 2.512834 1_556
S1 Ti1 2.512834 1_556
S2 Ti2 2.512834 1_655
S2 Ti0 2.512834 1_655
S3 Ti0 2.392356 1_656
S3 Ti1 2.392356 1_566
S3 Ti2 2.392356 1_665
S4 Ti0 2.455418 1_555
S4 Ti1 2.455418 1_555
S4 Ti2 2.455418 1_555
S5 Ti2 2.358818 1_655
S5 Ti1 2.358818 1_556
S6 Ti2 2.358818 1_565
S6 Ti0 2.358818 1_556
S7 Ti1 2.358818 1_565
S7 Ti0 2.358818 1_655
