# generated using pymatgen
data_Ca10Cd2CuPd3
_symmetry_space_group_name_H-M   'P 1'
_cell_length_a   9.24843602
_cell_length_b   9.24843539
_cell_length_c   9.22003994
_cell_angle_alpha   129.49720693
_cell_angle_beta   129.49720618
_cell_angle_gamma   74.44426869
_symmetry_Int_Tables_number   1
_chemical_formula_structural   Ca10Cd2CuPd3
_chemical_formula_sum   'Ca10 Cd2 Cu1 Pd3'
_cell_volume   457.10622654
_cell_formula_units_Z   1
loop_
 _symmetry_equiv_pos_site_id
 _symmetry_equiv_pos_as_xyz
  1  'x, y, z'
loop_
 _atom_site_type_symbol
 _atom_site_label
 _atom_site_symmetry_multiplicity
 _atom_site_fract_x
 _atom_site_fract_y
 _atom_site_fract_z
 _atom_site_occupancy
  Ca  Ca0  1  0.52959870  0.02959870  0.83079277  1
  Ca  Ca1  1  0.19624305  0.69624305  0.16343656  1
  Ca  Ca2  1  0.03429231  0.19553927  0.50319279  1
  Ca  Ca3  1  0.69553927  0.53429231  0.50319279  1
  Ca  Ca4  1  0.46719351  0.96719351  0.16343656  1
  Ca  Ca5  1  0.80119407  0.30119407  0.83079277  1
  Ca  Ca6  1  0.96890048  0.80765451  0.50319279  1
  Ca  Ca7  1  0.30765451  0.46890048  0.50319279  1
  Ca  Ca8  1  0.49757246  0.50090871  0.99848117  1
  Ca  Ca9  1  0.00090871  0.99757246  0.99848117  1
  Cd  Cd0  1  0.25106848  0.25106848  0.00213596  1
  Cd  Cd1  1  0.75106848  0.75106848  0.00213596  1
  Cu  Cu0  1  0.88211841  0.38211841  0.26423681  1
  Pd  Pd0  1  0.62551713  0.87405299  0.49957012  1
  Pd  Pd1  1  0.37405299  0.12551713  0.49957012  1
  Pd  Pd2  1  0.11707943  0.61707943  0.73415785  1
loop_
_geom_bond_atom_site_label_1
_geom_bond_atom_site_label_2
_geom_bond_distance
_geom_bond_site_symmetry_2
Ca0 Pd1 3.058731 1_555
Ca0 Pd0 3.058731 1_545
Ca0 Cu0 3.127644 1_556
Ca0 Cd1 3.399601 1_546
Ca0 Cd0 3.399601 1_556
Ca1 Pd1 3.072087 1_565
Ca1 Pd0 3.072087 1_555
Ca1 Pd2 3.106867 1_554
Ca1 Cd0 3.386811 1_555
Ca1 Cd1 3.386811 1_455
Ca2 Pd2 3.047295 1_555
Ca2 Pd1 3.051038 1_555
Ca2 Cu0 3.066192 1_455
Ca2 Cd0 3.355654 1_556
Ca2 Cd1 3.365332 1_445
Ca3 Pd2 3.047295 1_655
Ca3 Pd0 3.051037 1_555
Ca3 Cu0 3.066192 1_555
Ca3 Cd1 3.355654 1_556
Ca3 Cd0 3.365332 1_555
Ca4 Pd0 3.072086 1_555
Ca4 Pd1 3.072086 1_565
Ca4 Pd2 3.106858 1_554
Ca4 Cd0 3.386818 1_565
Ca4 Cd1 3.386818 1_555
Ca5 Pd0 3.058731 1_545
Ca5 Pd1 3.058732 1_555
Ca5 Cu0 3.127644 1_556
Ca5 Cd1 3.399608 1_556
Ca5 Cd0 3.399609 1_656
Ca6 Pd2 3.047293 1_655
Ca6 Pd0 3.051038 1_555
Ca6 Cu0 3.066200 1_555
Ca6 Cd0 3.355657 1_666
Ca6 Cd1 3.365334 1_555
Ca7 Pd2 3.047293 1_555
Ca7 Pd1 3.051038 1_555
Ca7 Cu0 3.066200 1_455
Ca7 Cd1 3.355657 1_556
Ca7 Cd0 3.365334 1_555
Ca8 Pd0 3.099774 1_556
Ca8 Pd1 3.105701 1_555
Ca8 Pd2 3.141721 1_555
Ca8 Cu0 3.178460 1_556
Ca8 Cd0 3.682343 1_556
Ca8 Cd1 3.682358 1_556
Ca9 Pd1 3.099774 1_566
Ca9 Pd0 3.105702 1_455
Ca9 Pd2 3.141721 1_555
Ca9 Cu0 3.178460 1_466
Ca9 Cd1 3.682343 1_456
Ca9 Cd0 3.682358 1_566
Cu0 Pd2 2.606828 1_655
Pd0 Pd1 2.813603 1_565
