# generated using pymatgen
data_KScSn3O8
_symmetry_space_group_name_H-M   'P 1'
_cell_length_a   3.20139269
_cell_length_b   7.55265747
_cell_length_c   7.72776527
_cell_angle_alpha   92.17989561
_cell_angle_beta   101.95456629
_cell_angle_gamma   77.76403849
_symmetry_Int_Tables_number   1
_chemical_formula_structural   KScSn3O8
_chemical_formula_sum   'K1 Sc1 Sn3 O8'
_cell_volume   178.64148478
_cell_formula_units_Z   1
loop_
 _symmetry_equiv_pos_site_id
 _symmetry_equiv_pos_as_xyz
  1  'x, y, z'
loop_
 _atom_site_type_symbol
 _atom_site_label
 _atom_site_symmetry_multiplicity
 _atom_site_fract_x
 _atom_site_fract_y
 _atom_site_fract_z
 _atom_site_occupancy
  K  K0  1  0.99492161  0.01010822  0.99995144  1
  Sc  Sc0  1  0.66598355  0.48363482  0.81560292  1
  Sn  Sn0  1  0.32907159  0.51754814  0.17569031  1
  Sn  Sn1  1  0.85405872  0.80825347  0.51636990  1
  Sn  Sn2  1  0.14978442  0.18560390  0.48517373  1
  O  O0  1  0.95754712  0.37978880  0.29488303  1
  O  O1  1  0.04175070  0.62250875  0.70601116  1
  O  O2  1  0.66599030  0.28800793  0.61998752  1
  O  O3  1  0.33654414  0.70378502  0.37687429  1
  O  O4  1  0.70223588  0.65182272  0.05629348  1
  O  O5  1  0.30174109  0.35403305  0.95751423  1
  O  O6  1  0.65538415  0.04529114  0.35605945  1
  O  O7  1  0.34498774  0.94961504  0.63959053  1
loop_
_geom_bond_atom_site_label_1
_geom_bond_atom_site_label_2
_geom_bond_distance
_geom_bond_site_symmetry_2
K0 O5 3.016512 1_555
K0 O5 3.016514 1_655
K0 O4 3.118239 1_546
K0 O4 3.118240 1_646
K0 O6 3.144260 1_656
K0 O6 3.144261 1_556
K0 O7 3.193557 1_545
K0 O7 3.193558 1_645
O0 Sn2 2.024525 1_655
O0 Sn0 2.096880 1_555
O0 Sn0 2.096883 1_655
O1 Sn1 1.977645 1_455
O1 Sc0 2.070986 1_555
O1 Sc0 2.070987 1_455
O2 Sn2 2.044940 1_655
O2 Sn2 2.044945 1_555
O2 Sc0 2.073222 1_555
O3 Sn0 2.056367 1_555
O3 Sn1 2.068568 1_455
O3 Sn1 2.068573 1_555
O4 Sn0 2.085261 1_655
O4 Sn0 2.085262 1_555
O4 Sc0 2.209065 1_554
O5 Sn0 2.049816 1_556
O5 Sc0 2.148436 1_555
O5 Sc0 2.148440 1_455
O6 Sn1 2.122253 1_545
O6 Sn2 2.144769 1_655
O6 Sn2 2.144772 1_555
O7 Sn2 2.090927 1_565
O7 Sn1 2.128533 1_455
O7 Sn1 2.128535 1_555
