# generated using pymatgen
data_Ti8Al14Co7Se
_symmetry_space_group_name_H-M   'P 1'
_cell_length_a   8.35785628
_cell_length_b   8.35785566
_cell_length_c   8.35785572
_cell_angle_alpha   120.05269518
_cell_angle_beta   119.94019422
_cell_angle_gamma   90.00618588
_symmetry_Int_Tables_number   1
_chemical_formula_structural   Ti8Al14Co7Se
_chemical_formula_sum   'Ti8 Al14 Co7 Se1'
_cell_volume   412.85015134
_cell_formula_units_Z   1
loop_
 _symmetry_equiv_pos_site_id
 _symmetry_equiv_pos_as_xyz
  1  'x, y, z'
loop_
 _atom_site_type_symbol
 _atom_site_label
 _atom_site_symmetry_multiplicity
 _atom_site_fract_x
 _atom_site_fract_y
 _atom_site_fract_z
 _atom_site_occupancy
  Ti  Ti0  1  0.79508753  0.29221106  0.08278584  1
  Ti  Ti1  1  0.20942522  0.29221106  0.49712353  1
  Ti  Ti2  1  0.20744934  0.70744934  0.50000000  1
  Ti  Ti3  1  0.20942522  0.71230170  0.91721416  1
  Ti  Ti4  1  0.79508753  0.71230170  0.50287647  1
  Ti  Ti5  1  0.79031893  0.29031893  0.50000000  1
  Ti  Ti6  1  0.38076194  0.12038440  0.73962246  1
  Ti  Ti7  1  0.38076194  0.64113948  0.26037754  1
  Al  Al0  1  0.16305390  0.33404393  0.17098802  1
  Al  Al1  1  0.16305390  0.99206588  0.82901198  1
  Al  Al2  1  0.15988929  0.33559258  0.82429671  1
  Al  Al3  1  0.51129487  0.33559258  0.17570329  1
  Al  Al4  1  0.83557442  0.66330680  0.82773338  1
  Al  Al5  1  0.83557442  0.00784104  0.17226662  1
  Al  Al6  1  0.83521706  0.66389423  0.17132183  1
  Al  Al7  1  0.49257240  0.66389423  0.82867817  1
  Al  Al8  1  0.38143928  0.11841325  0.26302603  1
  Al  Al9  1  0.85538823  0.11841325  0.73697397  1
  Al  Al10  1  0.61962932  0.88112049  0.26149217  1
  Al  Al11  1  0.61962932  0.35813816  0.73850783  1
  Al  Al12  1  0.62070386  0.88056545  0.74013740  1
  Al  Al13  1  0.14042705  0.88056545  0.25986260  1
  Co  Co0  1  0.00369482  0.00029599  0.50229934  1
  Co  Co1  1  0.49799665  0.00029599  0.99660018  1
  Co  Co2  1  0.49781607  0.49781607  0.00000000  1
  Co  Co3  1  0.49799665  0.50139547  0.49770066  1
  Co  Co4  1  0.00369482  0.50139547  0.00339982  1
  Co  Co5  1  0.00070154  0.00070154  1.00000000  1
  Co  Co6  1  0.49737047  0.99737047  0.50000000  1
  Se  Se0  1  0.99896098  0.49896098  0.50000000  1
loop_
_geom_bond_atom_site_label_1
_geom_bond_atom_site_label_2
_geom_bond_distance
_geom_bond_site_symmetry_2
Ti0 Ti6 2.870447 1_554
Ti1 Ti6 2.870447 1_555
Ti2 Ti6 2.863654 1_565
Ti2 Ti7 2.863655 1_555
Ti3 Ti7 2.870447 1_556
Ti4 Ti7 2.870447 1_555
Al0 Co5 2.391898 1_554
Al0 Co4 2.406799 1_555
Al0 Co3 2.406818 1_555
Al0 Al9 2.675599 1_454
Al0 Al8 2.675615 1_555
Al0 Ti7 2.679212 1_555
Al1 Co5 2.391884 1_565
Al1 Co0 2.406818 1_565
Al1 Co1 2.406819 1_565
Al1 Al9 2.675595 1_465
Al1 Al8 2.675601 1_566
Al1 Ti6 2.679225 1_565
Al2 Co0 2.395538 1_555
Al2 Co4 2.395544 1_556
Al2 Co2 2.415908 1_556
Al2 Al9 2.668789 1_455
Al2 Ti7 2.678377 1_556
Al2 Ti6 2.678378 1_555
Al3 Co3 2.395533 1_555
Al3 Co1 2.395541 1_554
Al3 Co2 2.415910 1_555
Al3 Al8 2.668791 1_555
Al3 Ti7 2.678373 1_555
Al3 Ti6 2.678380 1_554
Al4 Co5 2.424600 1_665
Al4 Co4 2.427411 1_656
Al4 Co3 2.427414 1_555
Al5 Co5 2.424593 1_654
Al5 Co0 2.427413 1_655
Al5 Co1 2.427414 1_554
Al6 Co4 2.420948 1_655
Al6 Co0 2.420960 1_665
Al6 Co2 2.430437 1_555
Al7 Co3 2.420960 1_555
Al7 Co1 2.420960 1_565
Al7 Co2 2.430429 1_556
Al8 Co6 2.444695 1_545
Al8 Co5 2.603266 1_554
Al8 Co3 2.616431 1_555
Al8 Co1 2.616438 1_554
Al8 Ti3 2.822524 1_544
Al8 Ti1 2.822524 1_555
Al8 Ti5 2.838658 1_555
Al9 Co6 2.444702 1_545
Al9 Co5 2.603266 1_655
Al9 Co0 2.616424 1_655
Al9 Co4 2.616430 1_656
Al9 Ti4 2.822522 1_545
Al9 Ti0 2.822530 1_556
Al9 Ti5 2.838656 1_555
Al10 Co6 2.460769 1_555
Al10 Co2 2.615655 1_555
Al10 Co0 2.624750 1_665
Al10 Co1 2.624764 1_564
Al10 Al5 2.658841 1_565
Al10 Al7 2.663939 1_554
Al10 Al6 2.663942 1_555
Al10 Al9 2.810236 1_565
Al10 Al8 2.810242 1_565
Al10 Ti7 2.823220 1_555
Al10 Ti5 2.835021 1_565
Al10 Ti4 2.847773 1_555
Al10 Ti3 2.847780 1_554
Al11 Co6 2.460776 1_545
Al11 Co2 2.615661 1_556
Al11 Co3 2.624743 1_555
Al11 Co4 2.624750 1_656
Al11 Al4 2.658823 1_555
Al11 Al7 2.663932 1_555
Al11 Al6 2.663937 1_556
Al11 Al8 2.810236 1_555
Al11 Al9 2.810248 1_555
Al11 Ti6 2.823232 1_555
Al11 Ti5 2.835012 1_555
Al11 Ti1 2.847779 1_555
Al11 Ti0 2.847786 1_556
Al12 Co6 2.437489 1_555
Al12 Co1 2.587244 1_565
Al12 Co3 2.587244 1_555
Al12 Co5 2.596489 1_665
Al12 Al9 2.811285 1_565
Al12 Ti7 2.835492 1_555
Al12 Ti6 2.835498 1_565
Al13 Co6 2.437496 1_555
Al13 Co0 2.587237 1_565
Al13 Co4 2.587244 1_555
Al13 Co5 2.596496 1_564
Al13 Al8 2.811291 1_565
Al13 Ti6 2.835492 1_565
Al13 Ti7 2.835498 1_555
Co0 Ti6 2.576651 1_555
Co0 Ti4 2.975347 1_445
Co0 Ti2 2.979508 1_545
Co0 Ti5 3.011606 1_455
Co0 Ti1 3.014968 1_555
Co1 Ti6 2.576644 1_555
Co1 Ti3 2.975351 1_545
Co1 Ti2 2.979503 1_545
Co1 Ti5 3.011611 1_556
Co1 Ti0 3.014963 1_556
Co2 Ti6 2.577269 1_554
Co2 Ti7 2.577269 1_555
Co2 Ti1 3.013391 1_554
Co2 Ti4 3.013391 1_555
Co2 Ti3 3.013391 1_554
Co2 Ti0 3.013391 1_555
Co3 Ti7 2.576651 1_555
Co3 Ti1 2.975347 1_555
Co3 Ti2 2.979508 1_555
Co3 Ti5 3.011606 1_555
Co3 Ti4 3.014968 1_555
Co4 Ti7 2.576651 1_555
Co4 Ti0 2.975340 1_455
Co4 Ti2 2.979501 1_555
Co4 Ti5 3.011613 1_454
Co4 Ti3 3.014974 1_554
Co5 Ti4 2.977804 1_445
Co5 Ti1 2.977804 1_556
Co5 Ti0 2.977805 1_456
Co5 Ti3 2.977805 1_545
Co6 Ti7 2.429818 1_555
Co6 Ti6 2.429818 1_565
Se0 Ti2 2.464156 1_655
Se0 Ti5 2.465973 1_555
Se0 Ti0 2.466163 1_555
Se0 Ti3 2.466163 1_655
Se0 Ti4 2.466163 1_555
Se0 Ti1 2.466163 1_655
