# generated using pymatgen
data_Ba3P2
_symmetry_space_group_name_H-M   'P 1'
_cell_length_a   25.70242894
_cell_length_b   9.89745896
_cell_length_c   9.89745931
_cell_angle_alpha   89.99690071
_cell_angle_beta   54.71364663
_cell_angle_gamma   54.71364766
_symmetry_Int_Tables_number   1
_chemical_formula_structural   Ba3P2
_chemical_formula_sum   'Ba24 P16'
_cell_volume   1452.15539939
_cell_formula_units_Z   8
loop_
 _symmetry_equiv_pos_site_id
 _symmetry_equiv_pos_as_xyz
  1  'x, y, z'
loop_
 _atom_site_type_symbol
 _atom_site_label
 _atom_site_symmetry_multiplicity
 _atom_site_fract_x
 _atom_site_fract_y
 _atom_site_fract_z
 _atom_site_occupancy
  Ba  Ba0  1  0.04613421  0.99176210  0.37046176  1
  Ba  Ba1  1  0.13639331  0.47800051  0.98544188  1
  Ba  Ba2  1  0.04617001  0.36981037  0.49108702  1
  Ba  Ba3  1  0.28719938  0.13010369  0.12951576  1
  Ba  Ba4  1  0.28717464  0.50827737  0.00893885  1
  Ba  Ba5  1  0.13639681  0.61282853  0.60538459  1
  Ba  Ba6  1  0.19693728  0.02203621  0.89459494  1
  Ba  Ba7  1  0.37889984  0.01854633  0.34706660  1
  Ba  Ba8  1  0.19694262  0.88711199  0.51460997  1
  Ba  Ba9  1  0.45440061  0.48386327  0.98148774  1
  Ba  Ba10  1  0.37891903  0.34475764  0.51622399  1
  Ba  Ba11  1  0.63639681  0.10538459  0.11282853  1
  Ba  Ba12  1  0.63639331  0.48544188  0.97800051  1
  Ba  Ba13  1  0.45443062  0.65290727  0.65519977  1
  Ba  Ba14  1  0.54617001  0.99108702  0.86981037  1
  Ba  Ba15  1  0.69694262  0.01460997  0.38711199  1
  Ba  Ba16  1  0.54613421  0.87046176  0.49176210  1
  Ba  Ba17  1  0.78717464  0.50893885  0.00827737  1
  Ba  Ba18  1  0.69693728  0.39459494  0.52203621  1
  Ba  Ba19  1  0.95443062  0.15519977  0.15290727  1
  Ba  Ba20  1  0.95440061  0.48148774  0.98386327  1
  Ba  Ba21  1  0.78719938  0.62951576  0.63010369  1
  Ba  Ba22  1  0.87891903  0.01622399  0.84475764  1
  Ba  Ba23  1  0.87889984  0.84706660  0.51854633  1
  P  P0  1  0.08722167  0.61919388  0.36919761  1
  P  P1  1  0.16666862  0.24990162  0.62821115  1
  P  P2  1  0.24610563  0.88080529  0.13082189  1
  P  P3  1  0.34023002  0.37871572  0.25075703  1
  P  P4  1  0.16667618  0.75005632  0.87178825  1
  P  P5  1  0.34022090  0.10066259  0.72854143  1
  P  P6  1  0.49310148  0.27152209  0.62125153  1
  P  P7  1  0.66667618  0.37178825  0.25005632  1
  P  P8  1  0.58722167  0.86919761  0.11919388  1
  P  P9  1  0.49310715  0.74922193  0.89932950  1
  P  P10  1  0.66666862  0.12821115  0.74990162  1
  P  P11  1  0.74610563  0.63082189  0.38080529  1
  P  P12  1  0.84022090  0.22854143  0.60066259  1
  P  P13  1  0.99310715  0.39932950  0.24922193  1
  P  P14  1  0.84023002  0.75075703  0.87871572  1
  P  P15  1  0.99310148  0.12125153  0.77152209  1
loop_
_geom_bond_atom_site_label_1
_geom_bond_atom_site_label_2
_geom_bond_distance
_geom_bond_site_symmetry_2
Ba0 P0 3.193527 1_555
Ba0 P12 3.230039 1_465
Ba0 P15 3.314881 1_465
Ba0 P2 3.555789 1_555
Ba0 P4 3.667911 1_554
Ba0 P13 3.886748 1_465
Ba1 P5 3.140935 1_555
Ba1 P0 3.223464 1_556
Ba1 P4 3.245163 1_555
Ba1 P1 3.604982 1_555
Ba1 P13 3.631776 1_456
Ba2 P0 3.193575 1_555
Ba2 P14 3.230346 1_455
Ba2 P13 3.314735 1_455
Ba2 P2 3.555849 1_545
Ba2 P1 3.667696 1_555
Ba2 P15 3.888262 1_455
Ba3 P2 3.193594 1_545
Ba3 P9 3.229771 1_544
Ba3 P5 3.314361 1_554
Ba3 P0 3.556346 1_555
Ba3 P1 3.668288 1_555
Ba3 P3 3.888089 1_555
Ba4 P2 3.193249 1_555
Ba4 P6 3.230577 1_554
Ba4 P3 3.313957 1_555
Ba4 P0 3.555589 1_555
Ba4 P4 3.668160 1_554
Ba4 P5 3.887361 1_554
Ba5 P3 3.141172 1_555
Ba5 P0 3.222980 1_555
Ba5 P1 3.245509 1_555
Ba5 P4 3.604867 1_555
Ba5 P15 3.630776 1_465
Ba6 P13 3.140914 1_456
Ba6 P2 3.223328 1_546
Ba6 P4 3.244090 1_545
Ba6 P1 3.603449 1_555
Ba6 P5 3.631454 1_555
Ba7 P5 3.261070 1_555
Ba7 P1 3.282555 1_555
Ba7 P9 3.360442 1_544
Ba7 P3 3.406587 1_555
Ba7 P8 3.584065 1_545
Ba8 P15 3.141243 1_465
Ba8 P2 3.223804 1_555
Ba8 P1 3.244142 1_565
Ba8 P4 3.603333 1_555
Ba8 P3 3.630771 1_555
Ba9 P9 3.260775 1_555
Ba9 P10 3.282648 1_555
Ba9 P3 3.359966 1_556
Ba9 P6 3.406865 1_555
Ba9 P2 3.583277 1_556
Ba10 P3 3.261537 1_555
Ba10 P4 3.282512 1_555
Ba10 P6 3.359410 1_555
Ba10 P5 3.406280 1_555
Ba10 P8 3.583516 1_545
Ba11 P14 3.141172 1_544
Ba11 P8 3.222980 1_545
Ba11 P10 3.245509 1_554
Ba11 P7 3.604867 1_555
Ba11 P6 3.630776 1_555
Ba12 P12 3.140935 1_555
Ba12 P8 3.223464 1_556
Ba12 P7 3.245163 1_556
Ba12 P10 3.604982 1_555
Ba12 P9 3.631776 1_555
Ba13 P6 3.260243 1_555
Ba13 P7 3.282199 1_555
Ba13 P5 3.360400 1_565
Ba13 P9 3.406666 1_555
Ba13 P2 3.583953 1_556
Ba14 P8 3.193575 1_556
Ba14 P3 3.230346 1_566
Ba14 P9 3.314735 1_555
Ba14 P11 3.555849 1_555
Ba14 P10 3.667695 1_565
Ba14 P6 3.888262 1_565
Ba15 P6 3.141243 1_555
Ba15 P11 3.223804 1_545
Ba15 P10 3.244142 1_555
Ba15 P7 3.603333 1_555
Ba15 P14 3.630771 1_544
Ba16 P8 3.193527 1_555
Ba16 P5 3.230039 1_565
Ba16 P6 3.314880 1_565
Ba16 P11 3.555789 1_555
Ba16 P7 3.667911 1_555
Ba16 P9 3.886748 1_555
Ba17 P11 3.193249 1_555
Ba17 P15 3.230577 1_554
Ba17 P14 3.313957 1_554
Ba17 P8 3.555589 1_555
Ba17 P7 3.668160 1_555
Ba17 P12 3.887361 1_554
Ba18 P9 3.140914 1_555
Ba18 P11 3.223327 1_555
Ba18 P7 3.244090 1_555
Ba18 P10 3.603449 1_555
Ba18 P12 3.631454 1_555
Ba19 P15 3.260243 1_554
Ba19 P4 3.282199 1_644
Ba19 P12 3.360400 1_555
Ba19 P13 3.406666 1_555
Ba19 P11 3.583953 1_555
Ba20 P13 3.260775 1_556
Ba20 P1 3.282648 1_655
Ba20 P14 3.359966 1_555
Ba20 P15 3.406865 1_555
Ba20 P11 3.583277 1_556
Ba21 P11 3.193594 1_555
Ba21 P13 3.229772 1_555
Ba21 P12 3.314361 1_555
Ba21 P8 3.556346 1_556
Ba21 P10 3.668288 1_565
Ba21 P14 3.888089 1_555
Ba22 P14 3.261537 1_545
Ba22 P7 3.282512 1_556
Ba22 P15 3.359410 1_555
Ba22 P12 3.406280 1_555
Ba22 P0 3.583516 1_645
Ba23 P12 3.261070 1_565
Ba23 P10 3.282555 1_565
Ba23 P13 3.360442 1_555
Ba23 P14 3.406587 1_555
Ba23 P0 3.584065 1_655
