# generated using pymatgen
data_Sn7OsRuRh
_symmetry_space_group_name_H-M   'P 1'
_cell_length_a   9.40011439
_cell_length_b   8.15470073
_cell_length_c   8.15869825
_cell_angle_alpha   70.59088235
_cell_angle_beta   54.82311402
_cell_angle_gamma   54.74911806
_symmetry_Int_Tables_number   1
_chemical_formula_structural   Sn7OsRuRh
_chemical_formula_sum   'Sn14 Os2 Ru2 Rh2'
_cell_volume   417.45664838
_cell_formula_units_Z   2
loop_
 _symmetry_equiv_pos_site_id
 _symmetry_equiv_pos_as_xyz
  1  'x, y, z'
loop_
 _atom_site_type_symbol
 _atom_site_label
 _atom_site_symmetry_multiplicity
 _atom_site_fract_x
 _atom_site_fract_y
 _atom_site_fract_z
 _atom_site_occupancy
  Sn  Sn0  1  0.67538031  0.32477828  0.00079359  1
  Sn  Sn1  1  0.00046903  0.00191135  0.32271037  1
  Sn  Sn2  1  0.32424367  0.00142112  0.67707186  1
  Sn  Sn3  1  0.99880972  0.67622280  0.00045973  1
  Sn  Sn4  1  0.32421131  0.67798465  0.00042948  1
  Sn  Sn5  1  0.99840836  0.00157985  0.67574963  1
  Sn  Sn6  1  0.67465896  0.00217546  0.32402413  1
  Sn  Sn7  1  0.00005827  0.32357060  0.00069290  1
  Sn  Sn8  1  0.25255255  0.49505840  0.49984677  1
  Sn  Sn9  1  0.50301747  0.24646474  0.74716400  1
  Sn  Sn10  1  0.74889530  0.74835201  0.75366360  1
  Sn  Sn11  1  0.50260804  0.74843146  0.24628978  1
  Sn  Sn12  1  0.75186207  0.49506892  0.49952073  1
  Sn  Sn13  1  0.25095794  0.24569631  0.25203941  1
  Os  Os0  1  0.65595968  0.00099446  0.99965353  1
  Os  Os1  1  0.99933339  0.34629491  0.65436683  1
  Ru  Ru0  1  0.65311032  0.34731359  0.34586155  1
  Ru  Ru1  1  0.34394989  0.00107119  0.99964976  1
  Rh  Rh0  1  0.99924888  0.65745189  0.34336318  1
  Rh  Rh1  1  0.34226285  0.65815602  0.65664818  1
loop_
_geom_bond_atom_site_label_1
_geom_bond_atom_site_label_2
_geom_bond_distance
_geom_bond_site_symmetry_2
Sn0 Sn4 2.867638 1_555
Sn0 Sn6 3.043747 1_555
Sn0 Sn7 3.045863 1_655
Sn0 Sn5 3.054265 1_554
Sn1 Sn5 2.868335 1_455
Sn1 Sn7 3.033576 1_555
Sn1 Sn4 3.044630 1_545
Sn1 Sn6 3.055247 1_455
Sn2 Sn6 2.868181 1_555
Sn2 Sn7 3.042603 1_556
Sn2 Sn4 3.048264 1_546
Sn2 Sn5 3.068370 1_455
Sn3 Sn7 2.868387 1_655
Os0 Sn5 2.748391 1_555
Os0 Sn3 2.749744 1_546
Os0 Sn0 2.753106 1_556
Os0 Sn6 2.754908 1_556
Os0 Sn13 2.764948 1_556
Os0 Sn9 2.768973 1_555
Os0 Sn10 2.772353 1_545
Os0 Sn11 2.774778 1_546
Os1 Sn8 2.754263 1_655
Os1 Sn12 2.754840 1_555
Os1 Sn10 2.757947 1_555
Os1 Sn5 2.762795 1_555
Os1 Sn13 2.765202 1_655
Os1 Sn2 2.768104 1_655
Os1 Sn0 2.768163 1_556
Os1 Sn7 2.773258 1_656
Os1 Rh0 2.932168 1_555
Ru0 Sn12 2.742450 1_555
Ru0 Sn8 2.743427 1_555
Ru0 Sn11 2.752686 1_555
Ru0 Sn9 2.759348 1_555
Ru0 Sn0 2.761145 1_555
Ru0 Sn6 2.761844 1_555
Ru0 Sn7 2.766888 1_655
Ru0 Sn1 2.767235 1_655
Ru1 Sn2 2.741696 1_555
Ru1 Sn4 2.743677 1_546
Ru1 Sn7 2.745189 1_556
Ru1 Sn1 2.748288 1_556
Ru1 Sn13 2.761698 1_556
Ru1 Sn9 2.765659 1_555
Ru1 Sn10 2.766942 1_545
Ru1 Sn11 2.770153 1_546
Rh0 Sn3 2.752859 1_555
Rh0 Sn6 2.756096 1_565
Rh0 Sn4 2.760226 1_655
Rh0 Sn1 2.763909 1_665
Rh0 Sn8 2.791485 1_655
Rh0 Sn12 2.793568 1_555
Rh0 Sn10 2.802179 1_555
Rh0 Sn13 2.808691 1_655
Rh1 Sn5 2.752369 1_465
Rh1 Sn3 2.757599 1_456
Rh1 Sn2 2.760850 1_565
Rh1 Sn4 2.764645 1_556
Rh1 Sn12 2.787823 1_555
Rh1 Sn8 2.790193 1_555
Rh1 Sn11 2.801998 1_555
Rh1 Sn9 2.807448 1_555
Rh1 Ru0 2.928826 1_555
