# generated using pymatgen
data_RbBi
_symmetry_space_group_name_H-M   'P 1'
_cell_length_a   7.54076765
_cell_length_b   14.12094090
_cell_length_c   14.99076701
_cell_angle_alpha   113.39362696
_cell_angle_beta   90.00000000
_cell_angle_gamma   90.00000000
_symmetry_Int_Tables_number   1
_chemical_formula_structural   RbBi
_chemical_formula_sum   'Rb16 Bi16'
_cell_volume   1465.04354171
_cell_formula_units_Z   16
loop_
 _symmetry_equiv_pos_site_id
 _symmetry_equiv_pos_as_xyz
  1  'x, y, z'
loop_
 _atom_site_type_symbol
 _atom_site_label
 _atom_site_symmetry_multiplicity
 _atom_site_fract_x
 _atom_site_fract_y
 _atom_site_fract_z
 _atom_site_occupancy
  Rb  Rb0  1  0.14114140  0.54929027  0.85143851  1
  Rb  Rb1  1  0.64114140  0.95070973  0.14856149  1
  Rb  Rb2  1  0.85885860  0.45070973  0.14856149  1
  Rb  Rb3  1  0.35885860  0.04929027  0.85143851  1
  Rb  Rb4  1  0.42363993  0.68864041  0.65597476  1
  Rb  Rb5  1  0.92363993  0.81135959  0.34402524  1
  Rb  Rb6  1  0.57636007  0.31135959  0.34402524  1
  Rb  Rb7  1  0.07636007  0.18864041  0.65597476  1
  Rb  Rb8  1  0.19636340  0.53330895  0.39481308  1
  Rb  Rb9  1  0.69636340  0.96669105  0.60518692  1
  Rb  Rb10  1  0.80363660  0.46669105  0.60518692  1
  Rb  Rb11  1  0.30363660  0.03330895  0.39481308  1
  Rb  Rb12  1  0.38190455  0.64505819  0.12394814  1
  Rb  Rb13  1  0.88190355  0.85494181  0.87605186  1
  Rb  Rb14  1  0.61809645  0.35494181  0.87605186  1
  Rb  Rb15  1  0.11809545  0.14505819  0.12394814  1
  Bi  Bi0  1  0.20091124  0.88088773  0.57465312  1
  Bi  Bi1  1  0.70091124  0.61911227  0.42534688  1
  Bi  Bi2  1  0.79908876  0.11911227  0.42534688  1
  Bi  Bi3  1  0.29908876  0.38088773  0.57465312  1
  Bi  Bi4  1  0.43337471  0.76980194  0.39815694  1
  Bi  Bi5  1  0.93337471  0.73019806  0.60184306  1
  Bi  Bi6  1  0.56662529  0.23019806  0.60184306  1
  Bi  Bi7  1  0.06662529  0.26980194  0.39815694  1
  Bi  Bi8  1  0.12648320  0.86354676  0.10450044  1
  Bi  Bi9  1  0.62648320  0.63645324  0.89549956  1
  Bi  Bi10  1  0.87351680  0.13645324  0.89549956  1
  Bi  Bi11  1  0.37351680  0.36354676  0.10450044  1
  Bi  Bi12  1  0.86599129  0.68721693  0.07159494  1
  Bi  Bi13  1  0.36599129  0.81278307  0.92840506  1
  Bi  Bi14  1  0.13400871  0.31278307  0.92840506  1
  Bi  Bi15  1  0.63400871  0.18721693  0.07159494  1
loop_
_geom_bond_atom_site_label_1
_geom_bond_atom_site_label_2
_geom_bond_distance
_geom_bond_site_symmetry_2
Bi0 Bi4 3.039417 1_555
Bi0 Bi5 3.074535 1_455
Bi0 Rb4 3.782152 1_555
Bi0 Rb5 3.820071 1_455
Bi0 Rb9 3.898142 1_555
Bi0 Rb9 3.963928 1_455
Bi0 Rb3 4.056397 1_565
Bi0 Rb7 4.128793 1_565
Bi0 Rb11 4.136234 1_565
Bi1 Bi5 3.039417 1_555
Bi1 Bi4 3.074535 1_555
Bi1 Rb5 3.782152 1_555
Bi1 Rb4 3.820071 1_555
Bi1 Rb8 3.898142 1_655
Bi1 Rb8 3.963928 1_555
Bi1 Rb2 4.056397 1_555
Bi1 Rb6 4.128793 1_555
Bi1 Rb10 4.136234 1_555
Bi2 Bi6 3.039417 1_555
Bi2 Bi7 3.074535 1_655
Bi2 Rb6 3.782152 1_555
Bi2 Rb7 3.820071 1_655
Bi2 Rb11 3.898142 1_555
Bi2 Rb11 3.963928 1_655
Bi2 Rb1 4.056397 1_545
Bi2 Rb5 4.128793 1_545
Bi2 Rb9 4.136234 1_545
Bi3 Bi7 3.039417 1_555
Bi3 Bi6 3.074535 1_555
Bi3 Rb7 3.782152 1_555
Bi3 Rb6 3.820071 1_555
Bi3 Rb10 3.898142 1_455
Bi3 Rb10 3.963928 1_555
Bi3 Rb0 4.056397 1_555
Bi3 Rb4 4.128793 1_555
Bi3 Rb8 4.136234 1_555
Bi4 Rb8 3.770427 1_555
Bi4 Rb12 3.794823 1_555
Bi4 Rb9 3.800354 1_555
Bi4 Rb11 3.866955 1_565
Bi4 Rb5 3.879258 1_555
Bi4 Rb5 4.019421 1_455
Bi5 Rb9 3.770427 1_555
Bi5 Rb13 3.794824 1_555
Bi5 Rb8 3.800354 1_655
Bi5 Rb10 3.866955 1_555
Bi5 Rb4 3.879258 1_655
Bi5 Rb4 4.019421 1_555
Bi6 Rb10 3.770427 1_555
Bi6 Rb14 3.794824 1_555
Bi6 Rb11 3.800354 1_555
Bi6 Rb9 3.866955 1_545
Bi6 Rb7 3.879258 1_555
Bi6 Rb7 4.019421 1_655
Bi7 Rb11 3.770427 1_555
Bi7 Rb15 3.794823 1_555
Bi7 Rb10 3.800354 1_455
Bi7 Rb8 3.866955 1_555
Bi7 Rb6 3.879258 1_455
Bi7 Rb6 4.019421 1_555
Bi8 Rb12 3.745379 1_555
Bi8 Rb1 3.834074 1_455
Bi8 Rb13 3.848877 1_454
Bi8 Rb15 3.869234 1_565
Bi8 Rb1 4.045633 1_555
Bi8 Rb5 4.228096 1_455
Bi8 Rb11 4.264580 1_565
Bi9 Rb13 3.745375 1_555
Bi9 Rb0 3.834074 1_555
Bi9 Rb12 3.848873 1_556
Bi9 Rb14 3.869234 1_555
Bi9 Rb0 4.045633 1_655
Bi9 Rb4 4.228096 1_555
Bi9 Rb10 4.264580 1_555
Bi10 Bi15 3.040011 1_556
Bi10 Bi14 3.053902 1_655
Bi10 Rb14 3.745375 1_555
Bi10 Rb3 3.834074 1_655
Bi10 Rb15 3.848873 1_656
Bi10 Rb13 3.869234 1_545
Bi10 Rb3 4.045633 1_555
Bi10 Rb7 4.228096 1_655
Bi10 Rb9 4.264580 1_545
Bi11 Bi14 3.040011 1_554
Bi11 Bi15 3.053902 1_555
Bi11 Rb15 3.745379 1_555
Bi11 Rb2 3.834074 1_555
Bi11 Rb14 3.848877 1_554
Bi11 Rb12 3.869234 1_555
Bi11 Rb2 4.045633 1_455
Bi11 Rb6 4.228096 1_555
Bi11 Rb8 4.264580 1_555
Bi12 Bi9 3.040011 1_554
Bi12 Bi8 3.053902 1_655
Bi12 Rb0 3.726404 1_654
Bi12 Rb5 3.775650 1_555
Bi12 Rb1 3.826378 1_555
Bi12 Rb12 3.829709 1_555
Bi12 Rb2 3.943047 1_555
Bi12 Rb12 4.059116 1_655
Bi13 Bi8 3.040011 1_556
Bi13 Bi9 3.053902 1_555
Bi13 Rb1 3.726404 1_556
Bi13 Rb4 3.775650 1_555
Bi13 Rb0 3.826378 1_555
Bi13 Rb13 3.829716 1_455
Bi13 Rb3 3.943047 1_565
Bi13 Rb13 4.059109 1_555
Bi14 Rb2 3.726404 1_456
Bi14 Rb7 3.775650 1_555
Bi14 Rb3 3.826378 1_555
Bi14 Rb14 3.829716 1_555
Bi14 Rb0 3.943047 1_555
Bi14 Rb14 4.059109 1_455
Bi15 Rb3 3.726404 1_554
Bi15 Rb6 3.775650 1_555
Bi15 Rb2 3.826378 1_555
Bi15 Rb15 3.829709 1_655
Bi15 Rb1 3.943047 1_545
Bi15 Rb15 4.059116 1_555
