# generated using pymatgen
data_Nb8Si2Sn4Pd
_symmetry_space_group_name_H-M   'P 1'
_cell_length_a   4.99868093
_cell_length_b   7.85612665
_cell_length_c   7.85612668
_cell_angle_alpha   95.80898976
_cell_angle_beta   108.55042159
_cell_angle_gamma   71.44959021
_symmetry_Int_Tables_number   1
_chemical_formula_structural   Nb8Si2Sn4Pd
_chemical_formula_sum   'Nb8 Si2 Sn4 Pd1'
_cell_volume   277.28695363
_cell_formula_units_Z   1
loop_
 _symmetry_equiv_pos_site_id
 _symmetry_equiv_pos_as_xyz
  1  'x, y, z'
loop_
 _atom_site_type_symbol
 _atom_site_label
 _atom_site_symmetry_multiplicity
 _atom_site_fract_x
 _atom_site_fract_y
 _atom_site_fract_z
 _atom_site_occupancy
  Nb  Nb0  1  0.40948158  0.87654851  0.71377150  1
  Nb  Nb1  1  0.57225859  0.12345149  0.28622850  1
  Nb  Nb2  1  0.92774141  0.28622850  0.12345149  1
  Nb  Nb3  1  0.09051842  0.71377150  0.87654851  1
  Nb  Nb4  1  0.71396991  0.71377150  0.12345149  1
  Nb  Nb5  1  0.30428892  0.28622850  0.87654851  1
  Nb  Nb6  1  0.78603009  0.12345149  0.71377150  1
  Nb  Nb7  1  0.19571108  0.87654851  0.28622850  1
  Si  Si0  1  0.25000000  0.00000000  0.00000000  1
  Si  Si1  1  0.75000000  0.00000000  0.00000000  1
  Sn  Sn0  1  0.38405893  0.50000000  0.20577721  1
  Sn  Sn1  1  0.67828172  0.50000000  0.79422279  1
  Sn  Sn2  1  0.82171828  0.79422279  0.50000000  1
  Sn  Sn3  1  0.11594107  0.20577721  0.50000000  1
  Pd  Pd0  1  0.25000000  0.50000000  0.50000000  1
loop_
_geom_bond_atom_site_label_1
_geom_bond_atom_site_label_2
_geom_bond_distance
_geom_bond_site_symmetry_2
Nb0 Si0 2.615291 1_566
Nb0 Si1 2.658547 1_566
Nb0 Sn1 2.874879 1_555
Nb0 Sn3 2.925715 1_565
Nb0 Sn2 2.935824 1_555
Nb0 Sn2 3.117771 1_455
Nb1 Si0 2.615291 1_555
Nb1 Si1 2.658547 1_555
Nb1 Sn0 2.874879 1_555
Nb1 Sn2 2.925715 1_545
Nb1 Sn3 2.935823 1_655
Nb1 Sn3 3.117771 1_555
Nb2 Si0 2.615291 1_655
Nb2 Si1 2.658547 1_555
Nb2 Sn3 2.874879 1_655
Nb2 Sn1 2.925715 1_554
Nb2 Sn0 2.935824 1_555
Nb2 Sn0 3.117771 1_655
Nb3 Si0 2.615291 1_566
Nb3 Si1 2.658548 1_466
Nb3 Sn2 2.874879 1_455
Nb3 Sn0 2.925715 1_556
Nb3 Sn1 2.935823 1_455
Nb3 Sn1 3.117772 1_555
Nb4 Si1 2.615291 1_565
Nb4 Si0 2.658547 1_565
Nb4 Sn2 2.874879 1_555
Nb4 Sn1 2.925715 1_554
Nb4 Sn0 2.935823 1_555
Nb4 Sn0 3.117772 1_655
Nb5 Si1 2.615293 1_556
Nb5 Si0 2.658545 1_556
Nb5 Sn3 2.874879 1_555
Nb5 Sn0 2.925716 1_556
Nb5 Sn1 2.935819 1_455
Nb5 Sn1 3.117775 1_555
Nb6 Si1 2.615291 1_556
Nb6 Si0 2.658547 1_656
Nb6 Sn1 2.874879 1_555
Nb6 Sn2 2.925715 1_545
Nb6 Sn3 2.935823 1_655
Nb6 Sn3 3.117771 1_555
Nb7 Si1 2.615293 1_465
Nb7 Si0 2.658545 1_565
Nb7 Sn0 2.874879 1_555
Nb7 Sn3 2.925716 1_565
Nb7 Sn2 2.935819 1_555
Nb7 Sn2 3.117775 1_455
Si0 Si1 2.499340 1_555
Si0 Si1 2.499340 1_455
Pd0 Sn1 2.603349 1_555
Pd0 Sn3 2.603349 1_555
Pd0 Sn0 2.603349 1_555
Pd0 Sn2 2.603349 1_455
