# generated using pymatgen
data_K2AuClF6
_symmetry_space_group_name_H-M   'P 1'
_cell_length_a   6.73056019
_cell_length_b   6.11233962
_cell_length_c   9.23777892
_cell_angle_alpha   90.00215709
_cell_angle_beta   104.92252945
_cell_angle_gamma   90.01275055
_symmetry_Int_Tables_number   1
_chemical_formula_structural   K2AuClF6
_chemical_formula_sum   'K4 Au2 Cl2 F12'
_cell_volume   367.22051712
_cell_formula_units_Z   2
loop_
 _symmetry_equiv_pos_site_id
 _symmetry_equiv_pos_as_xyz
  1  'x, y, z'
loop_
 _atom_site_type_symbol
 _atom_site_label
 _atom_site_symmetry_multiplicity
 _atom_site_fract_x
 _atom_site_fract_y
 _atom_site_fract_z
 _atom_site_occupancy
  K  K0  1  0.04398919  0.44870263  0.22660075  1
  K  K1  1  0.45610844  0.94866815  0.27341324  1
  K  K2  1  0.54389056  0.05133185  0.72658676  1
  K  K3  1  0.95601181  0.55129637  0.77339925  1
  Au  Au0  1  0.50000100  0.50000000  0.00000000  1
  Au  Au1  1  0.00000000  0.00000000  0.50000000  1
  Cl  Cl0  1  0.00000000  0.00000000  0.00000000  1
  Cl  Cl1  1  0.50000100  0.50000000  0.50000000  1
  F  F0  1  0.38149419  0.33245871  0.13520469  1
  F  F1  1  0.15842855  0.74407222  0.04436953  1
  F  F2  1  0.82344217  0.15172648  0.33051763  1
  F  F3  1  0.67674161  0.65208042  0.16928052  1
  F  F4  1  0.34165748  0.24396756  0.45555366  1
  F  F5  1  0.11886266  0.83222519  0.36513361  1
  F  F6  1  0.88113734  0.16777481  0.63486639  1
  F  F7  1  0.65834452  0.75603244  0.54444634  1
  F  F8  1  0.32325839  0.34792058  0.83071948  1
  F  F9  1  0.17655683  0.84827252  0.66948237  1
  F  F10  1  0.84157145  0.25592678  0.95563047  1
  F  F11  1  0.61850681  0.66754029  0.86479531  1
loop_
_geom_bond_atom_site_label_1
_geom_bond_atom_site_label_2
_geom_bond_distance
_geom_bond_site_symmetry_2
Au0 F11 1.938472 1_554
Au0 F0 1.938479 1_555
Au0 F3 1.940591 1_555
Au0 F8 1.940594 1_554
Au1 F5 1.938413 1_545
Au1 F6 1.938413 1_455
Au1 F2 1.940577 1_455
Au1 F9 1.940577 1_545
Cl0 F10 1.878240 1_454
Cl0 F1 1.878246 1_545
Cl1 F7 1.878116 1_555
Cl1 F4 1.878116 1_555
F0 K1 2.656284 1_545
F0 K0 2.714089 1_555
F1 K0 2.711830 1_555
F1 K3 2.784424 1_454
F1 K1 2.805413 1_555
F2 K0 2.674478 1_655
F2 K1 2.694107 1_545
F3 K1 2.674644 1_555
F3 K0 2.694950 1_655
F4 K1 2.711141 1_545
F4 K2 2.784528 1_555
F4 K0 2.805742 1_555
F5 K0 2.655965 1_555
F5 K1 2.714139 1_555
F6 K3 2.655960 1_555
F6 K2 2.714145 1_555
F7 K2 2.711150 1_565
F7 K1 2.784533 1_555
F7 K3 2.805741 1_555
F8 K2 2.674644 1_555
F8 K3 2.694938 1_455
F9 K3 2.674469 1_455
F9 K2 2.694109 1_565
F10 K3 2.711833 1_555
F10 K0 2.784425 1_656
F10 K2 2.805414 1_555
F11 K2 2.656290 1_565
F11 K3 2.714089 1_555
