# generated using pymatgen
data_Sr2BC11
_symmetry_space_group_name_H-M   'P 1'
_cell_length_a   4.37965651
_cell_length_b   4.38166024
_cell_length_c   9.71964742
_cell_angle_alpha   91.27237561
_cell_angle_beta   90.00000003
_cell_angle_gamma   119.98488131
_symmetry_Int_Tables_number   1
_chemical_formula_structural   Sr2BC11
_chemical_formula_sum   'Sr2 B1 C11'
_cell_volume   161.50399562
_cell_formula_units_Z   1
loop_
 _symmetry_equiv_pos_site_id
 _symmetry_equiv_pos_as_xyz
  1  'x, y, z'
loop_
 _atom_site_type_symbol
 _atom_site_label
 _atom_site_symmetry_multiplicity
 _atom_site_fract_x
 _atom_site_fract_y
 _atom_site_fract_z
 _atom_site_occupancy
  Sr  Sr0  1  0.33417474  0.64720219  0.25440579  1
  Sr  Sr1  1  0.68697455  0.35279781  0.74559421  1
  B  B0  1  0.32803587  0.00000000  1.00000000  1
  C  C0  1  0.67373309  0.00000000  1.00000000  1
  C  C1  1  0.99518043  0.33293754  0.99997644  1
  C  C2  1  0.66763084  0.00000000  0.50000000  1
  C  C3  1  0.98407781  0.65495477  0.00254340  1
  C  C4  1  0.33461980  1.00000000  0.50000000  1
  C  C5  1  0.66224289  0.66706246  0.00002356  1
  C  C6  1  0.00088189  0.66622064  0.49875005  1
  C  C7  1  0.32912304  0.34504523  0.99745660  1
  C  C8  1  0.00110396  0.33354113  0.49936304  1
  C  C9  1  0.33466025  0.33377936  0.50124995  1
  C  C10  1  0.66756183  0.66645887  0.50063696  1
loop_
_geom_bond_atom_site_label_1
_geom_bond_atom_site_label_2
_geom_bond_distance
_geom_bond_site_symmetry_2
B0 C3 1.510249 1_446
B0 C7 1.510249 1_555
B0 C0 1.514035 1_555
B0 Sr0 2.952298 1_546
B0 Sr1 2.952300 1_555
C0 C1 1.434337 1_555
C0 C5 1.434337 1_546
C0 Sr1 2.930453 1_555
C0 Sr0 2.930455 1_546
C1 C3 1.435562 1_556
C1 C7 1.437004 1_655
C1 Sr0 2.832181 1_656
C1 Sr1 2.840753 1_555
C2 C4 1.458474 1_545
C2 C8 1.461465 1_655
C2 Sr1 2.792886 1_555
C2 Sr0 2.792888 1_545
C3 C5 1.437004 1_555
C3 Sr1 2.795439 1_554
C3 Sr0 2.898396 1_655
C4 C6 1.462198 1_555
C4 C9 1.462200 1_565
C4 Sr0 2.814415 1_555
C4 Sr1 2.814417 1_565
C5 C7 1.435562 1_554
C5 Sr1 2.832184 1_554
C5 Sr0 2.840758 1_555
C6 C8 1.458319 1_555
C6 Sr1 2.791340 1_455
C6 Sr0 2.809062 1_555
C7 Sr0 2.795441 1_556
C7 Sr1 2.898401 1_555
C8 C9 1.460455 1_555
C8 Sr1 2.781140 1_455
C8 Sr0 2.797652 1_555
C9 Sr0 2.791341 1_555
C9 Sr1 2.809069 1_555
C10 C9 1.458319 1_555
C10 C6 1.460464 1_655
C10 C2 1.461463 1_565
C10 Sr0 2.781142 1_555
C10 Sr1 2.797655 1_555
