# generated using pymatgen
data_BiPtF7
_symmetry_space_group_name_H-M   'P 1'
_cell_length_a   5.46629432
_cell_length_b   9.07488632
_cell_length_c   12.14860498
_cell_angle_alpha   61.47542790
_cell_angle_beta   90.00000000
_cell_angle_gamma   90.00000000
_symmetry_Int_Tables_number   1
_chemical_formula_structural   BiPtF7
_chemical_formula_sum   'Bi4 Pt4 F28'
_cell_volume   529.49021879
_cell_formula_units_Z   4
loop_
 _symmetry_equiv_pos_site_id
 _symmetry_equiv_pos_as_xyz
  1  'x, y, z'
loop_
 _atom_site_type_symbol
 _atom_site_label
 _atom_site_symmetry_multiplicity
 _atom_site_fract_x
 _atom_site_fract_y
 _atom_site_fract_z
 _atom_site_occupancy
  Bi  Bi0  1  0.76317507  0.81329703  0.76285765  1
  Bi  Bi1  1  0.26317507  0.18670297  0.73714235  1
  Bi  Bi2  1  0.23682493  0.18670297  0.23714235  1
  Bi  Bi3  1  0.73682493  0.81329703  0.26285765  1
  Pt  Pt0  1  0.75675171  0.26991090  0.95951088  1
  Pt  Pt1  1  0.25675171  0.73008910  0.54048912  1
  Pt  Pt2  1  0.24324829  0.73008910  0.04048912  1
  Pt  Pt3  1  0.74324829  0.26991090  0.45951088  1
  F  F0  1  0.42559644  0.70967663  0.91030539  1
  F  F1  1  0.92559644  0.29032337  0.58969461  1
  F  F2  1  0.57440356  0.29032337  0.08969461  1
  F  F3  1  0.07440356  0.70967663  0.41030539  1
  F  F4  1  0.43431177  0.27409570  0.53955860  1
  F  F5  1  0.93431177  0.72590430  0.96044140  1
  F  F6  1  0.56568823  0.72590430  0.46044140  1
  F  F7  1  0.06568823  0.27409570  0.03955860  1
  F  F8  1  0.76853932  0.51269263  0.86298939  1
  F  F9  1  0.26853932  0.48730737  0.63701061  1
  F  F10  1  0.23146068  0.48730737  0.13701061  1
  F  F11  1  0.73146068  0.51269263  0.36298939  1
  F  F12  1  0.75642403  0.02416758  0.05249834  1
  F  F13  1  0.25642403  0.97583242  0.44750166  1
  F  F14  1  0.24357597  0.97583242  0.94750166  1
  F  F15  1  0.74357597  0.02416758  0.55249834  1
  F  F16  1  0.95485902  0.72717887  0.62629862  1
  F  F17  1  0.45485902  0.27282113  0.87370138  1
  F  F18  1  0.04514098  0.27282113  0.37370138  1
  F  F19  1  0.54514098  0.72717887  0.12629862  1
  F  F20  1  0.06831838  0.74421839  0.17506988  1
  F  F21  1  0.56831838  0.25578161  0.32493012  1
  F  F22  1  0.93168162  0.25578161  0.82493012  1
  F  F23  1  0.43168162  0.74421839  0.67506988  1
  F  F24  1  0.39306648  0.96605196  0.22936373  1
  F  F25  1  0.89306648  0.03394804  0.27063627  1
  F  F26  1  0.60693352  0.03394804  0.77063627  1
  F  F27  1  0.10693352  0.96605196  0.72936373  1
loop_
_geom_bond_atom_site_label_1
_geom_bond_atom_site_label_2
_geom_bond_distance
_geom_bond_site_symmetry_2
Bi0 F26 2.220048 1_565
Bi0 F27 2.253764 1_655
Bi0 F5 2.334034 1_555
Bi0 F23 2.335042 1_555
Bi0 F15 2.352382 1_565
Bi0 F16 2.387303 1_555
Bi0 F8 2.398541 1_555
Bi0 F0 2.426798 1_555
Bi1 F27 2.220048 1_545
Bi1 F26 2.253764 1_555
Bi1 F4 2.334034 1_555
Bi1 F22 2.335042 1_455
Bi1 F14 2.352382 1_545
Bi1 F17 2.387303 1_555
Bi1 F9 2.398541 1_555
Bi1 F1 2.426798 1_455
Bi2 F24 2.220048 1_545
Bi2 F25 2.253764 1_455
Bi2 F7 2.334034 1_555
Bi2 F21 2.335042 1_555
Bi2 F13 2.352382 1_545
Bi2 F18 2.387303 1_555
Bi2 F10 2.398541 1_555
Bi2 F2 2.426798 1_555
Bi3 F25 2.220048 1_565
Bi3 F24 2.253764 1_555
Bi3 F6 2.334034 1_555
Bi3 F20 2.335042 1_655
Bi3 F12 2.352382 1_565
Bi3 F19 2.387303 1_555
Bi3 F11 2.398541 1_555
Bi3 F3 2.426798 1_655
F0 Pt2 1.951658 1_556
F1 Pt3 1.951658 1_555
F2 Pt0 1.951658 1_554
F3 Pt1 1.951658 1_555
F4 Pt3 1.958123 1_555
F5 Pt2 1.958123 1_656
F6 Pt1 1.958123 1_555
F7 Pt0 1.958123 1_454
F8 Pt0 1.940590 1_555
F9 Pt1 1.940590 1_555
F10 Pt2 1.940590 1_555
F11 Pt3 1.940590 1_555
F12 Pt0 1.960456 1_554
F13 Pt1 1.960456 1_555
F14 Pt2 1.960456 1_556
F15 Pt3 1.960456 1_555
F16 Pt1 1.945356 1_655
F17 Pt0 1.945356 1_555
F18 Pt3 1.945356 1_455
F19 Pt2 1.945356 1_555
F20 Pt2 1.950419 1_555
F21 Pt3 1.950419 1_555
F22 Pt0 1.950419 1_555
F23 Pt1 1.950419 1_555
