# generated using pymatgen
data_K4Re2NCl10
_symmetry_space_group_name_H-M   'P 1'
_cell_length_a   7.02437483
_cell_length_b   7.05210464
_cell_length_c   10.24098739
_cell_angle_alpha   109.94458303
_cell_angle_beta   109.85647533
_cell_angle_gamma   90.51216810
_symmetry_Int_Tables_number   1
_chemical_formula_structural   K4Re2NCl10
_chemical_formula_sum   'K4 Re2 N1 Cl10'
_cell_volume   444.03429635
_cell_formula_units_Z   1
loop_
 _symmetry_equiv_pos_site_id
 _symmetry_equiv_pos_as_xyz
  1  'x, y, z'
loop_
 _atom_site_type_symbol
 _atom_site_label
 _atom_site_symmetry_multiplicity
 _atom_site_fract_x
 _atom_site_fract_y
 _atom_site_fract_z
 _atom_site_occupancy
  K  K0  1  0.50000000  0.00000000  0.00000000  1
  K  K1  1  0.00000000  0.50000000  0.00000000  1
  K  K2  1  0.75004932  0.24997963  0.50001565  1
  K  K3  1  0.24995068  0.75002037  0.49998435  1
  Re  Re0  1  0.10091173  0.10092361  0.20189686  1
  Re  Re1  1  0.89908827  0.89907639  0.79810414  1
  N  N0  1  0.00000000  0.00000000  0.00000000  1
  Cl  Cl0  1  0.35051181  0.35057520  0.22097295  1
  Cl  Cl1  1  0.87176926  0.34984092  0.22179111  1
  Cl  Cl2  1  0.34990619  0.87184225  0.22184221  1
  Cl  Cl3  1  0.87025936  0.87029687  0.22082277  1
  Cl  Cl4  1  0.23946634  0.23947301  0.47908554  1
  Cl  Cl5  1  0.76053466  0.76052799  0.52091446  1
  Cl  Cl6  1  0.12974064  0.12970313  0.77917723  1
  Cl  Cl7  1  0.65009381  0.12815775  0.77815779  1
  Cl  Cl8  1  0.12823074  0.65015908  0.77820889  1
  Cl  Cl9  1  0.64948819  0.64942480  0.77902705  1
loop_
_geom_bond_atom_site_label_1
_geom_bond_atom_site_label_2
_geom_bond_distance
_geom_bond_site_symmetry_2
N0 Re1 1.809818 1_444
N0 Re0 1.809827 1_555
Cl0 Re0 2.385218 1_555
Cl0 K0 3.190574 1_555
Cl0 K1 3.190884 1_555
Cl0 K3 3.537522 1_555
Cl0 K2 3.537849 1_555
Cl1 Re0 2.396447 1_655
Cl1 K0 3.177697 1_555
Cl1 K1 3.178907 1_655
Cl1 K2 3.515476 1_555
Cl1 K3 3.518146 1_655
Cl2 Re0 2.396587 1_565
Cl2 K0 3.178176 1_565
Cl2 K1 3.178986 1_555
Cl2 K3 3.515967 1_555
Cl2 K2 3.517209 1_565
Cl3 Re0 2.385171 1_665
Cl3 K0 3.189554 1_565
Cl3 K1 3.190254 1_655
Cl3 K2 3.537666 1_565
Cl3 K3 3.538506 1_655
Cl4 Re0 2.484751 1_555
Cl4 K2 3.516325 1_455
Cl4 K2 3.518065 1_555
Cl4 K3 3.530310 1_545
Cl4 K3 3.531741 1_555
Cl5 Re1 2.484760 1_555
Cl5 K3 3.516318 1_655
Cl5 K3 3.518072 1_555
Cl5 K2 3.530303 1_565
Cl5 K2 3.531748 1_555
Cl6 Re1 2.385177 1_445
Cl6 K0 3.189554 1_556
Cl6 K1 3.190254 1_556
Cl6 K3 3.537666 1_545
Cl6 K2 3.538506 1_455
Cl7 Re1 2.396588 1_545
Cl7 K0 3.178176 1_556
Cl7 K1 3.178986 1_656
Cl7 K2 3.515967 1_555
Cl7 K3 3.517209 1_545
Cl8 Re1 2.396448 1_455
Cl8 K0 3.177697 1_566
Cl8 K1 3.178907 1_556
Cl8 K3 3.515476 1_555
Cl8 K2 3.518146 1_455
Cl9 Re1 2.385213 1_555
Cl9 K0 3.190574 1_566
Cl9 K1 3.190884 1_656
Cl9 K2 3.537522 1_555
Cl9 K3 3.537849 1_555
