# generated using pymatgen
data_Na20Hf(ZrAs4)3
_symmetry_space_group_name_H-M   'P 1'
_cell_length_a   13.84407394
_cell_length_b   7.51435958
_cell_length_c   8.42731890
_cell_angle_alpha   89.99260105
_cell_angle_beta   89.29872779
_cell_angle_gamma   89.92559439
_symmetry_Int_Tables_number   1
_chemical_formula_structural   Na20Hf(ZrAs4)3
_chemical_formula_sum   'Na20 Hf1 Zr3 As12'
_cell_volume   876.62209355
_cell_formula_units_Z   1
loop_
 _symmetry_equiv_pos_site_id
 _symmetry_equiv_pos_as_xyz
  1  'x, y, z'
loop_
 _atom_site_type_symbol
 _atom_site_label
 _atom_site_symmetry_multiplicity
 _atom_site_fract_x
 _atom_site_fract_y
 _atom_site_fract_z
 _atom_site_occupancy
  Na  Na0  1  0.24360939  0.84765420  0.07872979  1
  Na  Na1  1  0.91869591  0.83875115  0.07913392  1
  Na  Na2  1  0.09291358  0.51172528  0.16637228  1
  Na  Na3  1  0.73711375  0.50504938  0.17725745  1
  Na  Na4  1  0.41412823  0.52824646  0.17990561  1
  Na  Na5  1  0.08509512  0.02788386  0.31682636  1
  Na  Na6  1  0.76312402  0.00401183  0.32310128  1
  Na  Na7  1  0.40738307  0.01164986  0.33392647  1
  Na  Na8  1  0.57997924  0.33728142  0.42031961  1
  Na  Na9  1  0.25741295  0.34654249  0.42150294  1
  Na  Na10  1  0.74297463  0.65265131  0.57882314  1
  Na  Na11  1  0.41857620  0.66081584  0.57917395  1
  Na  Na12  1  0.59192655  0.98765558  0.66604845  1
  Na  Na13  1  0.23838645  0.99445308  0.67910158  1
  Na  Na14  1  0.91502530  0.97201393  0.68360798  1
  Na  Na15  1  0.58408630  0.47140613  0.81655340  1
  Na  Na16  1  0.26294692  0.49460363  0.82282030  1
  Na  Na17  1  0.90779415  0.48781309  0.83395752  1
  Na  Na18  1  0.08208695  0.16103849  0.92076733  1
  Na  Na19  1  0.75631746  0.15307170  0.92148747  1
  Hf  Hf0  1  0.41286836  0.14355753  0.92484649  1
  Zr  Zr0  1  0.58701039  0.85762653  0.07567265  1
  Zr  Zr1  1  0.91260264  0.35592459  0.42371082  1
  Zr  Zr2  1  0.08779150  0.64395326  0.57634197  1
  As  As0  1  0.56843147  0.21019487  0.08634820  1
  As  As1  1  0.26433305  0.23883723  0.08820374  1
  As  As2  1  0.91671292  0.24027674  0.13455723  1
  As  As3  1  0.58311064  0.74110054  0.36446365  1
  As  As4  1  0.23751391  0.73895666  0.41126917  1
  As  As5  1  0.93023658  0.70810652  0.41321956  1
  As  As6  1  0.07021517  0.29169914  0.58682586  1
  As  As7  1  0.76258169  0.26097822  0.58833701  1
  As  As8  1  0.41633887  0.25855940  0.63853777  1
  As  As9  1  0.08407171  0.75914019  0.86554488  1
  As  As10  1  0.73697002  0.76143649  0.91122092  1
  As  As11  1  0.42963191  0.79533138  0.91147723  1
loop_
_geom_bond_atom_site_label_1
_geom_bond_atom_site_label_2
_geom_bond_distance
_geom_bond_site_symmetry_2
As0 Hf0 2.610741 1_554
As0 Zr0 2.662874 1_545
As0 Na19 2.964634 1_554
As0 Na8 2.978415 1_555
As0 Na15 3.009494 1_554
As0 Na4 3.292841 1_555
As0 Na3 3.317692 1_555
As0 Na7 3.382893 1_555
As1 Hf0 2.561924 1_554
As1 Na9 2.923605 1_555
As1 Na16 2.948863 1_554
As1 Na0 2.955012 1_545
As1 Na18 2.964736 1_554
As1 Na4 3.111040 1_555
As1 Na2 3.196886 1_555
As1 Na7 3.348914 1_555
As1 Na5 3.503503 1_555
As2 Zr1 2.587161 1_555
As2 Na19 2.947207 1_554
As2 Na18 2.955997 1_654
As2 Na1 3.053242 1_545
As2 Na17 3.146161 1_554
As2 Na6 3.181847 1_555
As2 Na2 3.195613 1_655
As2 Na3 3.199301 1_555
As2 Na5 3.227690 1_655
As3 Zr0 2.586318 1_555
As3 Na10 2.949060 1_555
As3 Na11 2.954470 1_555
As3 Na8 3.070955 1_555
As3 Na12 3.149013 1_555
As3 Na3 3.176375 1_555
As3 Na7 3.181215 1_565
As3 Na6 3.197896 1_565
As3 Na4 3.248010 1_555
As4 Zr2 2.583453 1_555
As4 Na0 2.919178 1_555
As4 Na11 2.951778 1_555
As4 Na9 2.962568 1_555
As4 Na13 2.963532 1_555
As4 Na5 3.135031 1_565
As4 Na7 3.182571 1_565
As4 Na2 3.360547 1_555
As4 Na4 3.487262 1_555
As5 Zr2 2.636340 1_655
As5 Zr1 2.659333 1_555
As5 Na10 2.959107 1_555
As5 Na1 2.987626 1_555
As5 Na14 3.026151 1_555
As5 Na6 3.301890 1_565
As5 Na5 3.316679 1_665
As5 Na2 3.384465 1_655
As6 Zr1 2.637070 1_455
As6 Zr2 2.659797 1_555
As6 Na9 2.956595 1_555
As6 Na18 2.986820 1_555
As6 Na5 3.022963 1_555
As6 Na14 3.319912 1_445
As6 Na13 3.323329 1_545
As6 Na17 3.382718 1_455
As7 Zr1 2.584641 1_555
As7 Na19 2.922508 1_555
As7 Na6 2.953892 1_555
As7 Na10 2.956479 1_555
As7 Na8 2.967804 1_555
As7 Na14 3.137291 1_545
As7 Na12 3.194253 1_545
As7 Na17 3.367947 1_555
As7 Na15 3.489963 1_555
As8 Hf0 2.562713 1_555
As8 Na9 2.952565 1_555
As8 Na8 2.960626 1_555
As8 Na11 3.063890 1_555
As8 Na16 3.158745 1_555
As8 Na7 3.171302 1_555
As8 Na12 3.179237 1_545
As8 Na13 3.180664 1_545
As8 Na15 3.208948 1_555
As9 Zr2 2.586342 1_555
As9 Na0 2.941000 1_556
As9 Na1 2.955563 1_456
As9 Na18 3.055751 1_565
As9 Na2 3.147117 1_556
As9 Na13 3.175884 1_555
As9 Na16 3.190458 1_555
As9 Na17 3.195666 1_455
As9 Na14 3.234813 1_455
As10 Zr0 2.584387 1_556
As10 Na10 2.918338 1_555
As10 Na3 2.955870 1_556
As10 Na19 2.956771 1_565
As10 Na1 2.959805 1_556
As10 Na15 3.149556 1_555
As10 Na17 3.192853 1_555
As10 Na12 3.358930 1_555
As10 Na14 3.486128 1_555
As11 Hf0 2.628976 1_565
As11 Zr0 2.637694 1_556
As11 Na0 2.946545 1_556
As11 Na11 2.983144 1_555
As11 Na4 3.029737 1_556
As11 Na16 3.323553 1_555
As11 Na15 3.328974 1_555
As11 Na12 3.362823 1_555
