# generated using pymatgen
data_LiCa3Ag2Bi3
_symmetry_space_group_name_H-M   'P 1'
_cell_length_a   7.67801460
_cell_length_b   7.71140615
_cell_length_c   4.64405352
_cell_angle_alpha   90.00000000
_cell_angle_beta   90.00000000
_cell_angle_gamma   120.14396044
_symmetry_Int_Tables_number   1
_chemical_formula_structural   LiCa3Ag2Bi3
_chemical_formula_sum   'Li1 Ca3 Ag2 Bi3'
_cell_volume   237.78175260
_cell_formula_units_Z   1
loop_
 _symmetry_equiv_pos_site_id
 _symmetry_equiv_pos_as_xyz
  1  'x, y, z'
loop_
 _atom_site_type_symbol
 _atom_site_label
 _atom_site_symmetry_multiplicity
 _atom_site_fract_x
 _atom_site_fract_y
 _atom_site_fract_z
 _atom_site_occupancy
  Li  Li0  1  1.00000000  0.23237673  0.00000000  1
  Ca  Ca0  1  0.00000000  0.59138077  0.50000000  1
  Ca  Ca1  1  0.43125242  0.42638751  0.50000000  1
  Ca  Ca2  1  0.56874758  0.99513509  0.50000000  1
  Ag  Ag0  1  0.75645186  0.75498394  0.00000000  1
  Ag  Ag1  1  0.24354814  0.99853208  0.00000000  1
  Bi  Bi0  1  1.00000000  0.00916938  0.50000000  1
  Bi  Bi1  1  0.32731307  0.65967479  0.00000000  1
  Bi  Bi2  1  0.67268693  0.33236172  0.00000000  1
loop_
_geom_bond_atom_site_label_1
_geom_bond_atom_site_label_2
_geom_bond_distance
_geom_bond_site_symmetry_2
Ca0 Li0 3.613307 1_456
Ca0 Li0 3.613307 1_455
Ca1 Li0 3.690332 1_456
Ca1 Li0 3.690332 1_455
Ca2 Li0 3.690332 1_565
Ca2 Li0 3.690332 1_566
Ag0 Bi2 2.988253 1_555
Ag0 Bi1 2.994088 1_555
Ag0 Bi0 3.008217 1_565
Ag0 Bi0 3.008217 1_564
Ag0 Li0 3.183596 1_565
Ag0 Ag1 3.234168 1_655
Ag0 Ca1 3.419448 1_555
Ag0 Ca1 3.419448 1_554
Ag0 Ca0 3.584644 1_654
Ag0 Ca0 3.584644 1_655
Ag0 Ca2 3.684964 1_554
Ag0 Ca2 3.684964 1_555
Ag1 Bi1 2.988252 1_555
Ag1 Bi2 2.994089 1_565
Ag1 Bi0 3.008217 1_464
Ag1 Bi0 3.008217 1_465
Ag1 Li0 3.183595 1_465
Ag1 Ca2 3.419448 1_555
Ag1 Ca2 3.419448 1_554
Ag1 Ca0 3.584644 1_554
Ag1 Ca0 3.584644 1_555
Ag1 Ca1 3.684965 1_565
Ag1 Ca1 3.684965 1_564
Bi0 Li0 2.890412 1_556
Bi0 Li0 2.890412 1_555
Bi0 Ca0 3.221738 1_645
Bi0 Ca2 3.258159 1_545
Bi0 Ca1 3.258160 1_655
Bi1 Li0 2.975958 1_455
Bi1 Ca0 3.264297 1_555
Bi1 Ca0 3.264297 1_554
Bi1 Ca2 3.271669 1_555
Bi1 Ca2 3.271669 1_554
Bi1 Ca1 3.272140 1_554
Bi1 Ca1 3.272140 1_555
Bi2 Li0 2.975958 1_555
Bi2 Ca0 3.264297 1_654
Bi2 Ca0 3.264297 1_655
Bi2 Ca1 3.271669 1_555
Bi2 Ca1 3.271669 1_554
Bi2 Ca2 3.272140 1_544
Bi2 Ca2 3.272140 1_545
