# generated using pymatgen
data_Nb3SeI6Cl
_symmetry_space_group_name_H-M   'P 1'
_cell_length_a   7.62228199
_cell_length_b   7.62228142
_cell_length_c   7.07258152
_cell_angle_alpha   89.87230613
_cell_angle_beta   90.12769221
_cell_angle_gamma   120.22486615
_symmetry_Int_Tables_number   1
_chemical_formula_structural   Nb3SeI6Cl
_chemical_formula_sum   'Nb3 Se1 I6 Cl1'
_cell_volume   355.04926264
_cell_formula_units_Z   1
loop_
 _symmetry_equiv_pos_site_id
 _symmetry_equiv_pos_as_xyz
  1  'x, y, z'
loop_
 _atom_site_type_symbol
 _atom_site_label
 _atom_site_symmetry_multiplicity
 _atom_site_fract_x
 _atom_site_fract_y
 _atom_site_fract_z
 _atom_site_occupancy
  Nb  Nb0  1  0.59308700  0.79374742  0.21963872  1
  Nb  Nb1  1  0.20625258  0.40691300  0.21963872  1
  Nb  Nb2  1  0.20340647  0.79659353  0.21909374  1
  Se  Se0  1  0.33315497  0.66684503  0.48490506  1
  I  I0  1  0.99756417  0.49650424  0.95390881  1
  I  I1  1  0.50349576  0.00243583  0.95390881  1
  I  I2  1  0.00187530  0.99812470  0.00742142  1
  I  I3  1  0.33772685  0.16823200  0.44236403  1
  I  I4  1  0.83260662  0.16739338  0.43682479  1
  I  I5  1  0.83176800  0.66227315  0.44236403  1
  Cl  Cl0  1  0.49239628  0.50760372  0.00483486  1
loop_
_geom_bond_atom_site_label_1
_geom_bond_atom_site_label_2
_geom_bond_distance
_geom_bond_site_symmetry_2
Nb0 Se0 2.541637 1_555
Nb1 Se0 2.541637 1_555
Nb2 Se0 2.541378 1_555
I0 Nb1 2.757413 1_656
I0 Nb2 2.757573 1_656
I1 Nb0 2.757413 1_546
I1 Nb2 2.757573 1_546
I2 Nb2 3.052180 1_555
I2 Nb1 3.084130 1_565
I2 Nb0 3.084131 1_455
I3 Nb1 2.934491 1_555
I3 Nb2 2.942611 1_545
I4 Nb0 2.928482 1_545
I4 Nb1 2.928482 1_655
I5 Nb0 2.934491 1_555
I5 Nb2 2.942611 1_655
Cl0 Nb0 2.445072 1_555
Cl0 Nb1 2.445072 1_555
