# generated using pymatgen
data_MnAg2TeO6
_symmetry_space_group_name_H-M   'P 1'
_cell_length_a   5.11661850
_cell_length_b   6.32728652
_cell_length_c   5.11673380
_cell_angle_alpha   113.85831856
_cell_angle_beta   59.98491803
_cell_angle_gamma   113.85257293
_symmetry_Int_Tables_number   1
_chemical_formula_structural   MnAg2TeO6
_chemical_formula_sum   'Mn1 Ag2 Te1 O6'
_cell_volume   126.83725446
_cell_formula_units_Z   1
loop_
 _symmetry_equiv_pos_site_id
 _symmetry_equiv_pos_as_xyz
  1  'x, y, z'
loop_
 _atom_site_type_symbol
 _atom_site_label
 _atom_site_symmetry_multiplicity
 _atom_site_fract_x
 _atom_site_fract_y
 _atom_site_fract_z
 _atom_site_occupancy
  Mn  Mn0  1  0.66395423  0.99179896  0.66394586  1
  Ag  Ag0  1  0.14336487  0.43045171  0.14353523  1
  Ag  Ag1  1  0.85650002  0.56904706  0.85625400  1
  Te  Te0  1  0.33611391  0.00814279  0.33607392  1
  O  O0  1  0.05582550  0.19250731  0.44924131  1
  O  O1  1  0.55263005  0.80769919  0.31785033  1
  O  O2  1  0.31797013  0.80759354  0.93710174  1
  O  O3  1  0.68733512  0.19254261  0.05588186  1
  O  O4  1  0.44919971  0.19255870  0.68747365  1
  O  O5  1  0.93710547  0.80765812  0.55264309  1
loop_
_geom_bond_atom_site_label_1
_geom_bond_atom_site_label_2
_geom_bond_distance
_geom_bond_site_symmetry_2
Mn0 O5 1.902376 1_555
Mn0 O2 1.902487 1_555
Mn0 O1 1.902934 1_555
Mn0 O0 1.924938 1_665
Mn0 O3 1.925078 1_566
Mn0 O4 1.925691 1_565
Ag0 O4 2.360106 1_554
Ag0 O3 2.360437 1_455
Ag0 O0 2.360679 1_555
Ag0 O5 2.641466 1_455
Ag0 O2 2.641763 1_554
Ag0 O1 2.642332 1_555
Ag1 O2 2.369424 1_655
Ag1 O5 2.369717 1_555
Ag1 O1 2.369758 1_556
Ag1 O0 2.622959 1_655
Ag1 O3 2.623725 1_556
Ag1 O4 2.623894 1_555
O0 Te0 1.930959 1_555
O1 Te0 1.944686 1_565
O2 Te0 1.945519 1_566
O3 Te0 1.930279 1_555
O4 Te0 1.930493 1_555
O5 Te0 1.945344 1_665
