# generated using pymatgen
data_In2HgTe4
_symmetry_space_group_name_H-M   'P 1'
_cell_length_a   7.40319661
_cell_length_b   7.40319661
_cell_length_c   7.40319661
_cell_angle_alpha   130.76934758
_cell_angle_beta   130.76934758
_cell_angle_gamma   72.17979442
_symmetry_Int_Tables_number   1
_chemical_formula_structural   In2HgTe4
_chemical_formula_sum   'In2 Hg1 Te4'
_cell_volume   227.54098725
_cell_formula_units_Z   1
loop_
 _symmetry_equiv_pos_site_id
 _symmetry_equiv_pos_as_xyz
  1  'x, y, z'
loop_
 _atom_site_type_symbol
 _atom_site_label
 _atom_site_symmetry_multiplicity
 _atom_site_fract_x
 _atom_site_fract_y
 _atom_site_fract_z
 _atom_site_occupancy
  In  In0  1  0.25000000  0.75000000  0.50000000  1
  In  In1  1  0.50000000  0.50000000  0.00000000  1
  Hg  Hg0  1  0.75000000  0.25000000  0.50000000  1
  Te  Te0  1  0.49154200  0.99154200  0.50000000  1
  Te  Te1  1  0.74416900  0.74416900  0.00000000  1
  Te  Te2  1  0.00845800  0.50845800  0.50000000  1
  Te  Te3  1  0.25583100  0.25583100  0.00000000  1
loop_
_geom_bond_atom_site_label_1
_geom_bond_atom_site_label_2
_geom_bond_distance
_geom_bond_site_symmetry_2
In0 Te2 2.890039 1_555
In0 Te0 2.890039 1_555
In0 Te1 3.084398 1_556
In0 Te3 3.084398 1_555
In0 Te3 3.084398 1_566
In0 Te1 3.084398 1_455
In1 Te1 2.921471 1_555
In1 Te3 2.921471 1_555
In1 Te0 3.085269 1_555
In1 Te2 3.085269 1_554
In1 Te0 3.085269 1_544
In1 Te2 3.085269 1_655
Hg0 Te1 3.084398 1_545
Hg0 Te1 3.084398 1_556
Hg0 Te3 3.084398 1_555
Hg0 Te3 3.084398 1_656
Hg0 Te0 3.092438 1_545
Hg0 Te2 3.092438 1_655
