# generated using pymatgen
data_Zr4Sc6SnSb5
_symmetry_space_group_name_H-M   'P 1'
_cell_length_a   8.50518824
_cell_length_b   8.50518825
_cell_length_c   5.86955663
_cell_angle_alpha   90.00000000
_cell_angle_beta   90.00000000
_cell_angle_gamma   120.08909782
_symmetry_Int_Tables_number   1
_chemical_formula_structural   Zr4Sc6SnSb5
_chemical_formula_sum   'Zr4 Sc6 Sn1 Sb5'
_cell_volume   367.37802550
_cell_formula_units_Z   1
loop_
 _symmetry_equiv_pos_site_id
 _symmetry_equiv_pos_as_xyz
  1  'x, y, z'
loop_
 _atom_site_type_symbol
 _atom_site_label
 _atom_site_symmetry_multiplicity
 _atom_site_fract_x
 _atom_site_fract_y
 _atom_site_fract_z
 _atom_site_occupancy
  Zr  Zr0  1  0.66754587  0.33291756  0.99977001  1
  Zr  Zr1  1  0.33291756  0.66754587  0.99977001  1
  Zr  Zr2  1  0.33291756  0.66754587  0.50022999  1
  Zr  Zr3  1  0.66754587  0.33291756  0.50022999  1
  Sc  Sc0  1  0.74755933  0.74755933  0.75000000  1
  Sc  Sc1  1  0.25393205  0.00203429  0.75000000  1
  Sc  Sc2  1  0.00203429  0.25393205  0.75000000  1
  Sc  Sc3  1  0.25072183  0.25072183  0.25000000  1
  Sc  Sc4  1  0.74535143  0.99824526  0.25000000  1
  Sc  Sc5  1  0.99824526  0.74535143  0.25000000  1
  Sn  Sn0  1  0.38744195  0.38744195  0.75000000  1
  Sb  Sb0  1  0.61699286  0.00030548  0.75000000  1
  Sb  Sb1  1  0.00030548  0.61699286  0.75000000  1
  Sb  Sb2  1  0.61281051  0.61281051  0.25000000  1
  Sb  Sb3  1  0.38345309  0.00022506  0.25000000  1
  Sb  Sb4  1  0.00022506  0.38345309  0.25000000  1
loop_
_geom_bond_atom_site_label_1
_geom_bond_atom_site_label_2
_geom_bond_distance
_geom_bond_site_symmetry_2
Sc0 Sn0 3.058740 1_555
Sc1 Sn0 2.881360 1_555
Sc2 Sn0 2.881360 1_555
Sc3 Sn0 3.156178 1_554
Sc3 Sn0 3.156178 1_555
Sn0 Zr0 3.024502 1_555
Sn0 Zr3 3.024502 1_555
Sn0 Zr1 3.024502 1_555
Sn0 Zr2 3.024502 1_555
Sb0 Sc0 2.871899 1_545
Sb0 Sc2 2.880029 1_655
Sb0 Zr0 3.019498 1_555
Sb0 Zr3 3.019498 1_555
Sb0 Zr1 3.023303 1_545
Sb0 Zr2 3.023303 1_545
Sb0 Sc1 3.095298 1_555
Sb0 Sc4 3.134366 1_546
Sb0 Sc4 3.134366 1_545
Sb1 Sc0 2.871899 1_455
Sb1 Sc1 2.880029 1_565
Sb1 Zr1 3.019498 1_555
Sb1 Zr2 3.019498 1_555
Sb1 Zr0 3.023303 1_455
Sb1 Zr3 3.023303 1_455
Sb1 Sc2 3.095298 1_555
Sb1 Sc5 3.134366 1_456
Sb1 Sc5 3.134366 1_455
Sb2 Sc5 2.883041 1_555
Sb2 Sc4 2.883041 1_555
Sb2 Zr2 3.025245 1_555
Sb2 Zr1 3.025245 1_554
Sb2 Zr3 3.025245 1_555
Sb2 Zr0 3.025245 1_554
Sb2 Sc3 3.075484 1_555
Sb2 Sc0 3.150056 1_555
Sb2 Sc0 3.150056 1_554
Sb3 Sc3 2.867958 1_555
Sb3 Sc5 2.883020 1_445
Sb3 Zr2 3.021352 1_545
Sb3 Zr1 3.021352 1_544
Sb3 Zr3 3.024357 1_555
Sb3 Zr0 3.024357 1_554
Sb3 Sc4 3.086490 1_545
Sb3 Sc1 3.137464 1_555
Sb3 Sc1 3.137464 1_554
Sb4 Sc3 2.867958 1_555
Sb4 Sc4 2.883020 1_445
Sb4 Zr3 3.021352 1_455
Sb4 Zr0 3.021352 1_454
Sb4 Zr2 3.024357 1_555
Sb4 Zr1 3.024357 1_554
Sb4 Sc5 3.086490 1_455
Sb4 Sc2 3.137464 1_554
Sb4 Sc2 3.137464 1_555
