# generated using pymatgen
data_K4CrReP4
_symmetry_space_group_name_H-M   'P 1'
_cell_length_a   7.98392965
_cell_length_b   7.98392986
_cell_length_c   7.98393048
_cell_angle_alpha   137.16149073
_cell_angle_beta   127.25837838
_cell_angle_gamma   70.20331639
_symmetry_Int_Tables_number   1
_chemical_formula_structural   K4CrReP4
_chemical_formula_sum   'K4 Cr1 Re1 P4'
_cell_volume   270.15337351
_cell_formula_units_Z   1
loop_
 _symmetry_equiv_pos_site_id
 _symmetry_equiv_pos_as_xyz
  1  'x, y, z'
loop_
 _atom_site_type_symbol
 _atom_site_label
 _atom_site_symmetry_multiplicity
 _atom_site_fract_x
 _atom_site_fract_y
 _atom_site_fract_z
 _atom_site_occupancy
  K  K0  1  0.30878696  0.15053507  0.15729608  1
  K  K1  1  0.69121304  0.84850812  0.84174711  1
  K  K2  1  0.00676201  0.34946493  0.65825289  1
  K  K3  1  0.99323799  0.65149188  0.34270392  1
  Cr  Cr0  1  0.50000000  0.25000000  0.75000000  1
  Re  Re0  1  0.50000000  0.75000000  0.25000000  1
  P  P0  1  0.42134210  0.58705261  0.82015713  1
  P  P1  1  0.23310453  0.91294739  0.33428849  1
  P  P2  1  0.76689547  0.10118397  0.67984287  1
  P  P3  1  0.57865790  0.39881603  0.16571151  1
loop_
_geom_bond_atom_site_label_1
_geom_bond_atom_site_label_2
_geom_bond_distance
_geom_bond_site_symmetry_2
K0 P0 3.205509 1_555
K0 P0 3.274652 1_544
K0 P3 3.331478 1_555
K0 P1 3.420731 1_545
K0 P2 3.519539 1_454
K1 P3 3.205520 1_566
K1 P3 3.274642 1_555
K1 P0 3.331478 1_555
K1 P2 3.420731 1_565
K1 P1 3.519539 1_656
K2 P1 3.205509 1_545
K2 P1 3.274647 1_556
K2 P2 3.331484 1_455
K2 P0 3.420736 1_555
K2 P3 3.519548 1_455
K3 P2 3.205515 1_554
K3 P2 3.274641 1_565
K3 P1 3.331484 1_655
K3 P3 3.420736 1_555
K3 P0 3.519548 1_655
Cr0 P0 2.240602 1_555
Cr0 P2 2.240602 1_555
Cr0 P1 2.240602 1_545
Cr0 P3 2.240606 1_556
P0 Re0 2.293594 1_556
P1 Re0 2.293591 1_555
P2 Re0 2.293591 1_545
P3 Re0 2.293590 1_555
