# generated using pymatgen
data_Be7V3GeMo
_symmetry_space_group_name_H-M   'P 1'
_cell_length_a   4.41967599
_cell_length_b   4.41967573
_cell_length_c   7.28858584
_cell_angle_alpha   90.00000000
_cell_angle_beta   90.00000000
_cell_angle_gamma   120.00001674
_symmetry_Int_Tables_number   1
_chemical_formula_structural   Be7V3GeMo
_chemical_formula_sum   'Be7 V3 Ge1 Mo1'
_cell_volume   123.29761342
_cell_formula_units_Z   1
loop_
 _symmetry_equiv_pos_site_id
 _symmetry_equiv_pos_as_xyz
  1  'x, y, z'
loop_
 _atom_site_type_symbol
 _atom_site_label
 _atom_site_symmetry_multiplicity
 _atom_site_fract_x
 _atom_site_fract_y
 _atom_site_fract_z
 _atom_site_occupancy
  Be  Be0  1  0.00000000  0.00000000  0.99924571  1
  Be  Be1  1  0.82682943  0.17317057  0.24033764  1
  Be  Be2  1  0.82682943  0.65365787  0.24033764  1
  Be  Be3  1  0.34634213  0.17317057  0.24033764  1
  Be  Be4  1  0.17309111  0.82690889  0.75963057  1
  Be  Be5  1  0.17309111  0.34618222  0.75963057  1
  Be  Be6  1  0.65381778  0.82690889  0.75963057  1
  V  V0  1  0.33333300  0.66666700  0.43475128  1
  V  V1  1  0.66666700  0.33333300  0.56486922  1
  V  V2  1  0.66666700  0.33333300  0.93431327  1
  Ge  Ge0  1  0.00000000  0.00000000  0.50210243  1
  Mo  Mo0  1  0.33333300  0.66666700  0.06481348  1
loop_
_geom_bond_atom_site_label_1
_geom_bond_atom_site_label_2
_geom_bond_distance
_geom_bond_site_symmetry_2
Be0 Be5 2.192216 1_555
Be0 Be6 2.192216 1_445
Be0 Be4 2.192216 1_545
Be0 Be1 2.201167 1_456
Be0 Be2 2.201169 1_446
Be0 Be3 2.201169 1_556
Be0 V2 2.595216 1_455
Be0 V2 2.595219 1_445
Be0 V2 2.595219 1_555
Be0 Mo0 2.596065 1_546
Be0 Mo0 2.596068 1_556
Be0 Mo0 2.596068 1_446
Be1 Be2 2.123598 1_555
Be1 Be3 2.123598 1_555
Be1 Be2 2.296078 1_545
Be1 Be3 2.296078 1_655
Be1 Ge0 2.323227 1_655
Be1 V2 2.545248 1_554
Be1 Mo0 2.553924 1_545
Be1 Mo0 2.553924 1_655
Be1 V0 2.625595 1_545
Be1 V0 2.625595 1_655
Be1 V1 2.664250 1_555
Be2 Be3 2.123598 1_555
Be2 Be3 2.296077 1_665
Be2 Ge0 2.323229 1_665
Be2 V2 2.545248 1_554
Be2 Mo0 2.553921 1_655
Be2 Mo0 2.553928 1_555
Be2 V0 2.625592 1_655
Be2 V0 2.625600 1_555
Be2 V1 2.664250 1_555
Be3 Ge0 2.323229 1_555
Be3 V2 2.545248 1_554
Be3 Mo0 2.553921 1_545
Be3 Mo0 2.553928 1_555
Be3 V0 2.625592 1_545
Be3 V0 2.625600 1_555
Be3 V1 2.664250 1_555
Be4 Be5 2.124656 1_555
Be4 Be6 2.124656 1_555
Be4 Be5 2.295020 1_565
Be4 Be6 2.295020 1_455
Be4 Ge0 2.297584 1_565
Be4 Mo0 2.540169 1_556
Be4 V2 2.550845 1_565
Be4 V2 2.550845 1_455
Be4 V1 2.626952 1_565
Be4 V1 2.626952 1_455
Be4 V0 2.666780 1_555
Be5 Be6 2.124656 1_555
Be5 Be6 2.295019 1_445
Be5 Ge0 2.297584 1_555
Be5 Mo0 2.540170 1_556
Be5 V2 2.550844 1_455
Be5 V2 2.550848 1_555
Be5 V1 2.626951 1_455
Be5 V1 2.626955 1_555
Be5 V0 2.666782 1_555
Be6 Ge0 2.297584 1_665
Be6 Mo0 2.540170 1_556
Be6 V2 2.550844 1_565
Be6 V2 2.550848 1_555
Be6 V1 2.626951 1_565
Be6 V1 2.626955 1_555
Be6 V0 2.666782 1_555
V0 V1 2.722238 1_565
V0 V1 2.722238 1_455
V0 V1 2.722246 1_555
V1 V2 2.692725 1_555
Ge0 V1 2.592384 1_455
Ge0 V1 2.592387 1_445
Ge0 V1 2.592387 1_555
Ge0 V0 2.598489 1_545
Ge0 V0 2.598492 1_555
Ge0 V0 2.598492 1_445
Mo0 V0 2.696323 1_555
Mo0 V2 2.723210 1_564
Mo0 V2 2.723210 1_454
Mo0 V2 2.723218 1_554
