# generated using pymatgen
data_Hf16TaNi4Rh3
_symmetry_space_group_name_H-M   'P 1'
_cell_length_a   8.64287289
_cell_length_b   8.57059317
_cell_length_c   8.57059382
_cell_angle_alpha   60.00000127
_cell_angle_beta   60.27626123
_cell_angle_gamma   60.27626685
_symmetry_Int_Tables_number   1
_chemical_formula_structural   Hf16TaNi4Rh3
_chemical_formula_sum   'Hf16 Ta1 Ni4 Rh3'
_cell_volume   450.78126459
_cell_formula_units_Z   1
loop_
 _symmetry_equiv_pos_site_id
 _symmetry_equiv_pos_as_xyz
  1  'x, y, z'
loop_
 _atom_site_type_symbol
 _atom_site_label
 _atom_site_symmetry_multiplicity
 _atom_site_fract_x
 _atom_site_fract_y
 _atom_site_fract_z
 _atom_site_occupancy
  Hf  Hf0  1  0.66798474  0.11067142  0.11067142  1
  Hf  Hf1  1  0.10273733  0.69316569  0.10204699  1
  Hf  Hf2  1  0.10273733  0.10204699  0.69316569  1
  Hf  Hf3  1  0.10273733  0.10204699  0.10204699  1
  Hf  Hf4  1  0.31685494  0.31480079  0.68417264  1
  Hf  Hf5  1  0.69576897  0.67710945  0.31356129  1
  Hf  Hf6  1  0.31685494  0.68417264  0.31480079  1
  Hf  Hf7  1  0.69576897  0.31356129  0.67710945  1
  Hf  Hf8  1  0.69576897  0.31356129  0.31356129  1
  Hf  Hf9  1  0.31685494  0.68417264  0.68417264  1
  Hf  Hf10  1  0.94373837  0.94951460  0.55337451  1
  Hf  Hf11  1  0.55107187  0.55078011  0.94907401  1
  Hf  Hf12  1  0.94373837  0.55337451  0.94951460  1
  Hf  Hf13  1  0.55107187  0.94907401  0.55078011  1
  Hf  Hf14  1  0.55107187  0.94907401  0.94907401  1
  Hf  Hf15  1  0.94373837  0.55337451  0.55337451  1
  Ta  Ta0  1  0.01322998  0.32892267  0.32892267  1
  Ni  Ni0  1  0.32621489  0.89126204  0.89126204  1
  Ni  Ni1  1  0.88610272  0.31855686  0.89767071  1
  Ni  Ni2  1  0.88610272  0.89767071  0.31855686  1
  Ni  Ni3  1  0.88610272  0.89767071  0.89767071  1
  Rh  Rh0  1  0.33458193  0.98917018  0.33812345  1
  Rh  Rh1  1  0.33458193  0.33812345  0.98917018  1
  Rh  Rh2  1  0.33458193  0.33812345  0.33812345  1
loop_
_geom_bond_atom_site_label_1
_geom_bond_atom_site_label_2
_geom_bond_distance
_geom_bond_site_symmetry_2
Hf0 Ni3 2.593516 1_544
Hf0 Ni1 2.593528 1_554
Hf0 Ni2 2.593528 1_545
Hf0 Rh0 2.926292 1_545
Hf0 Rh1 2.926293 1_554
Hf0 Rh2 2.926293 1_555
Hf0 Hf14 3.090492 1_544
Hf0 Hf11 3.090499 1_554
Hf0 Hf13 3.090499 1_545
Hf0 Hf5 3.155456 1_545
Hf0 Hf7 3.155456 1_554
Hf0 Hf8 3.155471 1_555
Hf1 Ni3 2.563934 1_454
Hf1 Ni2 2.563958 1_455
Hf1 Ni0 2.569310 1_554
Hf1 Ta0 2.992970 1_555
Hf1 Rh1 3.030769 1_554
Hf1 Rh2 3.030778 1_555
Hf1 Hf5 3.095910 1_455
Hf1 Hf9 3.133615 1_554
Hf1 Hf6 3.133644 1_555
Hf2 Ni3 2.563934 1_445
Hf2 Ni1 2.563958 1_455
Hf2 Ni0 2.569310 1_545
Hf2 Ta0 2.992970 1_555
Hf2 Rh0 3.030769 1_545
Hf2 Rh2 3.030778 1_555
Hf2 Hf7 3.095910 1_455
Hf2 Hf9 3.133614 1_545
Hf2 Hf4 3.133644 1_555
Hf3 Ni2 2.563934 1_445
Hf3 Ni1 2.563935 1_454
Hf3 Ni0 2.569286 1_544
Hf3 Ta0 2.992977 1_555
Hf3 Rh1 3.030783 1_554
Hf3 Rh0 3.030784 1_545
Hf3 Hf8 3.095921 1_455
Hf3 Hf4 3.133625 1_554
Hf3 Hf6 3.133625 1_545
Hf4 Rh1 2.801162 1_555
Hf4 Rh2 2.801179 1_555
Hf4 Ni0 3.121201 1_545
Hf4 Hf9 3.165736 1_555
Hf4 Hf6 3.165736 1_555
Hf4 Ni1 3.224013 1_455
Hf4 Hf7 3.240114 1_555
Hf4 Hf8 3.240114 1_555
Hf5 Ta0 2.880419 1_655
Hf5 Rh0 2.928235 1_555
Hf5 Ni2 3.084767 1_555
Hf5 Ni3 3.084767 1_554
Hf5 Hf8 3.115823 1_555
Hf5 Hf7 3.115824 1_555
Hf5 Hf6 3.240114 1_555
Hf5 Hf9 3.240114 1_555
Hf6 Rh0 2.801162 1_555
Hf6 Rh2 2.801179 1_555
Hf6 Ni0 3.121201 1_554
Hf6 Hf9 3.165736 1_555
Hf6 Ni2 3.224013 1_455
Hf6 Hf8 3.240114 1_555
Hf7 Ta0 2.880419 1_655
Hf7 Rh1 2.928235 1_555
Hf7 Ni1 3.084767 1_555
Hf7 Ni3 3.084767 1_545
Hf7 Hf8 3.115824 1_555
Hf7 Hf9 3.240114 1_555
Hf8 Ta0 2.880404 1_655
Hf8 Rh2 2.928242 1_555
Hf8 Ni2 3.084767 1_545
Hf8 Ni1 3.084767 1_554
Hf9 Rh1 2.801172 1_555
Hf9 Rh0 2.801172 1_555
Hf9 Ni0 3.121201 1_555
Hf9 Ni3 3.224013 1_455
Hf10 Ni3 2.569756 1_555
Hf10 Ni2 2.569764 1_555
Hf10 Ta0 3.028335 1_665
Hf10 Rh0 3.043290 1_655
Hf10 Hf7 3.142745 1_565
Hf10 Hf8 3.142749 1_565
Hf10 Hf9 3.254364 1_655
Hf10 Hf6 3.254368 1_655
Hf11 Ni0 2.534390 1_555
Hf11 Ni1 2.537102 1_555
Hf11 Rh2 3.009766 1_556
Hf11 Rh1 3.009770 1_555
Hf11 Hf9 3.197863 1_555
Hf11 Hf6 3.197870 1_556
Hf11 Hf7 3.233820 1_555
Hf11 Hf8 3.233827 1_556
Hf12 Ni3 2.569756 1_555
Hf12 Ni1 2.569764 1_555
Hf12 Ta0 3.028336 1_656
Hf12 Rh1 3.043290 1_655
Hf12 Hf5 3.142745 1_556
Hf12 Hf8 3.142749 1_556
Hf12 Hf9 3.254363 1_655
Hf12 Hf4 3.254368 1_655
Hf13 Ni0 2.534390 1_555
Hf13 Ni2 2.537102 1_555
Hf13 Rh2 3.009766 1_565
Hf13 Rh0 3.009770 1_555
Hf13 Hf9 3.197863 1_555
Hf13 Hf4 3.197870 1_565
Hf13 Hf5 3.233819 1_555
Hf13 Hf8 3.233826 1_565
Hf14 Ni0 2.534384 1_555
Hf14 Ni3 2.537104 1_555
Hf14 Rh1 3.009763 1_565
Hf14 Rh0 3.009763 1_556
Hf14 Hf6 3.197865 1_556
Hf14 Hf4 3.197866 1_565
Hf14 Hf7 3.233826 1_565
Hf14 Hf5 3.233826 1_556
Hf15 Ni2 2.569758 1_555
Hf15 Ni1 2.569758 1_555
Hf15 Ta0 3.028365 1_655
Hf15 Rh2 3.043300 1_655
Hf15 Hf7 3.142752 1_555
Hf15 Hf5 3.142752 1_555
Hf15 Hf6 3.254363 1_655
Hf15 Hf4 3.254363 1_655
Rh0 Ta0 2.857791 1_565
Rh0 Rh2 2.990736 1_565
Rh0 Rh1 2.990737 1_564
Rh1 Ta0 2.857791 1_556
Rh1 Rh2 2.990737 1_556
Rh2 Ta0 2.857795 1_555
