# generated using pymatgen
data_Cs2TiS3
_symmetry_space_group_name_H-M   'P 1'
_cell_length_a   6.56259322
_cell_length_b   7.79983975
_cell_length_c   7.79983864
_cell_angle_alpha   108.49992977
_cell_angle_beta   90.00000000
_cell_angle_gamma   90.00000000
_symmetry_Int_Tables_number   1
_chemical_formula_structural   Cs2TiS3
_chemical_formula_sum   'Cs4 Ti2 S6'
_cell_volume   378.61999565
_cell_formula_units_Z   2
loop_
 _symmetry_equiv_pos_site_id
 _symmetry_equiv_pos_as_xyz
  1  'x, y, z'
loop_
 _atom_site_type_symbol
 _atom_site_label
 _atom_site_symmetry_multiplicity
 _atom_site_fract_x
 _atom_site_fract_y
 _atom_site_fract_z
 _atom_site_occupancy
  Cs  Cs0  1  0.25618094  0.00534654  0.31676754  1
  Cs  Cs1  1  0.75618094  0.99465346  0.68323246  1
  Cs  Cs2  1  0.75618094  0.68323246  0.99465346  1
  Cs  Cs3  1  0.25618094  0.31676754  0.00534654  1
  Ti  Ti0  1  0.75627152  0.42192403  0.42192403  1
  Ti  Ti1  1  0.25627152  0.57807597  0.57807597  1
  S  S0  1  0.50597887  0.37285987  0.62688045  1
  S  S1  1  0.00597887  0.62714013  0.37311955  1
  S  S2  1  0.75640786  0.17671986  0.17671986  1
  S  S3  1  0.25640786  0.82328014  0.82328014  1
  S  S4  1  0.00597887  0.37311955  0.62714013  1
  S  S5  1  0.50597887  0.62688045  0.37285987  1
loop_
_geom_bond_atom_site_label_1
_geom_bond_atom_site_label_2
_geom_bond_distance
_geom_bond_site_symmetry_2
Cs0 S0 3.514973 1_555
Cs0 S4 3.518289 1_555
Cs0 S5 3.523146 1_545
Cs0 S1 3.523395 1_545
Cs0 S3 3.655622 1_544
Cs0 S2 3.829320 1_455
Cs0 S2 3.831872 1_555
Cs1 S1 3.514973 1_655
Cs1 S5 3.518289 1_555
Cs1 S4 3.523146 1_665
Cs1 S0 3.523395 1_565
Cs1 S2 3.655622 1_566
Cs1 S3 3.829320 1_555
Cs1 S3 3.831872 1_655
Cs2 S4 3.514973 1_655
Cs2 S0 3.518289 1_555
Cs2 S1 3.523146 1_656
Cs2 S5 3.523395 1_556
Cs2 S2 3.655623 1_566
Cs2 S3 3.829320 1_555
Cs2 S3 3.831872 1_655
Cs3 S5 3.514973 1_555
Cs3 S1 3.518289 1_555
Cs3 S0 3.523146 1_554
Cs3 S4 3.523395 1_554
Cs3 S3 3.655623 1_544
Cs3 S2 3.829320 1_455
Cs3 S2 3.831872 1_555
S0 Ti1 2.403976 1_555
S0 Ti0 2.405896 1_555
S1 Ti0 2.403976 1_455
S1 Ti1 2.405896 1_555
S2 Ti0 2.234819 1_555
S3 Ti1 2.234819 1_555
S4 Ti0 2.403976 1_455
S4 Ti1 2.405896 1_555
S5 Ti1 2.403976 1_555
S5 Ti0 2.405896 1_555
