# generated using pymatgen
data_Sm2Zn17
_symmetry_space_group_name_H-M   'P 1'
_cell_length_a   6.73136444
_cell_length_b   6.73136423
_cell_length_c   6.73136482
_cell_angle_alpha   82.95588991
_cell_angle_beta   82.95590197
_cell_angle_gamma   82.95590412
_symmetry_Int_Tables_number   1
_chemical_formula_structural   Sm2Zn17
_chemical_formula_sum   'Sm2 Zn17'
_cell_volume   298.62189197
_cell_formula_units_Z   1
loop_
 _symmetry_equiv_pos_site_id
 _symmetry_equiv_pos_as_xyz
  1  'x, y, z'
loop_
 _atom_site_type_symbol
 _atom_site_label
 _atom_site_symmetry_multiplicity
 _atom_site_fract_x
 _atom_site_fract_y
 _atom_site_fract_z
 _atom_site_occupancy
  Sm  Sm0  1  0.66377609  0.66377609  0.66377609  1
  Sm  Sm1  1  0.33622391  0.33622391  0.33622391  1
  Zn  Zn0  1  0.35016010  0.35016010  0.83943089  1
  Zn  Zn1  1  0.35016010  0.83943089  0.35016010  1
  Zn  Zn2  1  0.09921248  0.09921248  0.09921248  1
  Zn  Zn3  1  0.90078752  0.90078752  0.90078752  1
  Zn  Zn4  1  -0.00000000  0.00000000  0.50000000  1
  Zn  Zn5  1  0.50000000  0.00000000  0.00000000  1
  Zn  Zn6  1  -0.00000000  0.50000000  0.00000000  1
  Zn  Zn7  1  0.70664387  0.29335613  1.00000000  1
  Zn  Zn8  1  1.00000000  0.70664387  0.29335613  1
  Zn  Zn9  1  0.29335613  0.00000000  0.70664387  1
  Zn  Zn10  1  0.29335613  0.70664387  0.00000000  1
  Zn  Zn11  1  0.00000000  0.29335613  0.70664387  1
  Zn  Zn12  1  0.70664387  1.00000000  0.29335613  1
  Zn  Zn13  1  0.64983990  0.16056911  0.64983990  1
  Zn  Zn14  1  0.64983990  0.64983990  0.16056911  1
  Zn  Zn15  1  0.16056911  0.64983990  0.64983990  1
  Zn  Zn16  1  0.83943089  0.35016010  0.35016010  1
loop_
_geom_bond_atom_site_label_1
_geom_bond_atom_site_label_2
_geom_bond_distance
_geom_bond_site_symmetry_2
Sm0 Zn3 3.083644 1_555
Sm0 Zn7 3.165810 1_555
Sm0 Zn12 3.165811 1_555
Sm0 Zn11 3.165811 1_655
Sm0 Zn8 3.165811 1_555
Sm0 Zn9 3.165811 1_565
Sm0 Zn10 3.165811 1_556
Sm0 Zn0 3.190590 1_555
Sm0 Zn1 3.190590 1_555
Sm0 Zn16 3.190591 1_555
Sm0 Zn13 3.323980 1_565
Sm0 Zn15 3.323980 1_655
Sm0 Zn14 3.323980 1_556
Sm0 Zn4 3.390034 1_665
Sm0 Zn6 3.390034 1_656
Sm0 Zn5 3.390034 1_566
Sm0 Zn13 3.413096 1_555
Sm0 Zn15 3.413096 1_555
Sm0 Zn14 3.413096 1_555
Sm1 Zn2 3.083644 1_555
Sm1 Zn10 3.165810 1_555
Sm1 Zn9 3.165811 1_555
Sm1 Zn8 3.165811 1_455
Sm1 Zn11 3.165811 1_555
Sm1 Zn12 3.165811 1_545
Sm1 Zn7 3.165811 1_554
Sm1 Zn14 3.190590 1_555
Sm1 Zn13 3.190590 1_555
Sm1 Zn15 3.190591 1_555
Sm1 Zn1 3.323980 1_545
Sm1 Zn16 3.323980 1_455
Sm1 Zn0 3.323980 1_554
Sm1 Zn4 3.390034 1_555
Sm1 Zn6 3.390034 1_555
Sm1 Zn5 3.390034 1_555
Sm1 Zn1 3.413096 1_555
Sm1 Zn16 3.413096 1_555
Sm1 Zn0 3.413096 1_555
Zn0 Zn15 2.542310 1_555
Zn0 Zn13 2.542310 1_555
Zn0 Zn5 2.607818 1_556
Zn0 Zn6 2.607818 1_556
Zn0 Zn11 2.706006 1_555
Zn0 Zn9 2.706006 1_555
Zn0 Zn7 2.717048 1_555
Zn0 Zn10 2.717048 1_556
Zn0 Zn2 2.831200 1_556
Zn1 Zn15 2.542310 1_555
Zn1 Zn14 2.542310 1_555
Zn1 Zn5 2.607818 1_565
Zn1 Zn4 2.607818 1_565
Zn1 Zn8 2.706006 1_455
Zn1 Zn10 2.706007 1_555
Zn1 Zn12 2.717048 1_555
Zn1 Zn9 2.717049 1_565
Zn1 Zn2 2.831200 1_565
Zn2 Zn3 2.581613 1_444
Zn2 Zn6 2.719554 1_555
Zn2 Zn4 2.719554 1_555
Zn2 Zn5 2.719554 1_555
Zn2 Zn8 2.916945 1_445
Zn2 Zn7 2.916945 1_454
Zn2 Zn9 2.916946 1_554
Zn3 Zn6 2.719554 1_656
Zn3 Zn4 2.719554 1_665
Zn3 Zn5 2.719554 1_566
Zn3 Zn8 2.916945 1_556
Zn3 Zn9 2.916945 1_665
Zn3 Zn7 2.916945 1_565
Zn4 Zn9 2.551068 1_555
Zn4 Zn8 2.551069 1_445
Zn5 Zn7 2.551068 1_554
Zn5 Zn9 2.551068 1_554
Zn6 Zn7 2.551068 1_454
Zn6 Zn8 2.551069 1_455
Zn10 Zn5 2.551068 1_565
Zn10 Zn6 2.551068 1_555
Zn10 Zn9 2.615796 1_564
Zn10 Zn8 2.615796 1_455
Zn10 Zn15 2.706006 1_554
Zn10 Zn14 2.717048 1_555
Zn10 Zn3 2.916945 1_454
Zn10 Zn2 2.916945 1_565
Zn11 Zn4 2.551069 1_555
Zn11 Zn6 2.551069 1_556
Zn11 Zn9 2.615796 1_555
Zn11 Zn7 2.615796 1_455
Zn11 Zn13 2.706006 1_455
Zn11 Zn15 2.717048 1_555
Zn11 Zn16 2.717048 1_455
Zn11 Zn3 2.916945 1_445
Zn11 Zn2 2.916945 1_556
Zn12 Zn4 2.551068 1_665
Zn12 Zn5 2.551068 1_565
Zn12 Zn7 2.615796 1_564
Zn12 Zn8 2.615796 1_555
Zn12 Zn16 2.706006 1_565
Zn12 Zn14 2.706006 1_555
Zn12 Zn13 2.717049 1_565
Zn12 Zn2 2.916945 1_665
Zn12 Zn3 2.916946 1_554
Zn13 Zn16 2.542310 1_555
Zn13 Zn5 2.607818 1_556
Zn13 Zn4 2.607818 1_655
Zn13 Zn7 2.706007 1_555
Zn13 Zn9 2.717048 1_555
Zn13 Zn3 2.831200 1_545
Zn14 Zn16 2.542310 1_555
Zn14 Zn5 2.607818 1_565
Zn14 Zn6 2.607818 1_655
Zn14 Zn8 2.706006 1_555
Zn14 Zn7 2.717048 1_554
Zn14 Zn3 2.831200 1_554
Zn15 Zn4 2.607818 1_565
Zn15 Zn6 2.607818 1_556
Zn15 Zn9 2.706006 1_565
Zn15 Zn8 2.717048 1_455
Zn15 Zn3 2.831200 1_455
Zn16 Zn4 2.607818 1_655
Zn16 Zn6 2.607818 1_655
Zn16 Zn7 2.706006 1_554
Zn16 Zn8 2.717048 1_555
Zn16 Zn2 2.831200 1_655
