# generated using pymatgen
data_Nb10Ga2Si4C
_symmetry_space_group_name_H-M   'P 1'
_cell_length_a   7.62961462
_cell_length_b   7.64276143
_cell_length_c   5.29182110
_cell_angle_alpha   89.97321603
_cell_angle_beta   90.05366026
_cell_angle_gamma   119.94311371
_symmetry_Int_Tables_number   1
_chemical_formula_structural   Nb10Ga2Si4C
_chemical_formula_sum   'Nb10 Ga2 Si4 C1'
_cell_volume   267.38507523
_cell_formula_units_Z   1
loop_
 _symmetry_equiv_pos_site_id
 _symmetry_equiv_pos_as_xyz
  1  'x, y, z'
loop_
 _atom_site_type_symbol
 _atom_site_label
 _atom_site_symmetry_multiplicity
 _atom_site_fract_x
 _atom_site_fract_y
 _atom_site_fract_z
 _atom_site_occupancy
  Nb  Nb0  1  0.00352535  0.76285222  0.25561309  1
  Nb  Nb1  1  0.24067313  0.23714778  0.25561309  1
  Nb  Nb2  1  0.75775949  0.00000000  0.25584480  1
  Nb  Nb3  1  0.00024893  0.23848015  0.74331281  1
  Nb  Nb4  1  0.76176778  0.76151985  0.74331281  1
  Nb  Nb5  1  0.24085208  0.00000000  0.74432697  1
  Nb  Nb6  1  0.33402265  0.67066359  0.99832084  1
  Nb  Nb7  1  0.66336005  0.32933641  0.99832084  1
  Nb  Nb8  1  0.66366252  0.32957388  0.50112333  1
  Nb  Nb9  1  0.33408864  0.67042612  0.50112333  1
  Ga  Ga0  1  0.00061003  0.40058362  0.24375486  1
  Ga  Ga1  1  0.60002642  0.59941638  0.24375486  1
  Si  Si0  1  0.40032109  0.00000000  0.24042097  1
  Si  Si1  1  0.99836738  0.59875840  0.75854489  1
  Si  Si2  1  0.39960998  0.40124160  0.75854489  1
  Si  Si3  1  0.60196877  0.00000000  0.75933330  1
  C  C0  1  0.99913670  0.00000000  0.49873629  1
loop_
_geom_bond_atom_site_label_1
_geom_bond_atom_site_label_2
_geom_bond_distance
_geom_bond_site_symmetry_2
Nb0 Si0 2.641844 1_565
Nb0 Si1 2.906371 1_454
Nb0 Si1 2.933493 1_455
Nb1 Si0 2.641844 1_555
Nb1 Si2 2.906373 1_554
Nb1 Si2 2.933494 1_555
Nb2 Si0 2.728262 1_555
Nb2 Si3 2.882788 1_554
Nb2 Si3 2.918498 1_555
Nb3 Si3 2.652248 1_455
Nb3 Si2 2.655902 1_555
Nb3 Si1 2.761929 1_455
Nb4 Si3 2.652241 1_565
Nb4 Si1 2.655902 1_555
Nb4 Si2 2.761921 1_555
Nb5 Si2 2.677462 1_555
Nb5 Si1 2.677462 1_445
Nb5 Si3 2.756251 1_555
Nb5 Si0 2.892444 1_556
Nb5 Si0 2.932074 1_555
Nb6 Nb9 2.631082 1_555
Nb6 Si0 2.638843 1_566
Nb6 Si3 2.641825 1_565
Nb6 Si1 2.657053 1_455
Nb6 Nb9 2.660740 1_556
Nb6 Si2 2.670704 1_555
Nb7 Nb8 2.631082 1_555
Nb7 Si0 2.638845 1_556
Nb7 Si3 2.641823 1_555
Nb7 Si2 2.657053 1_555
Nb7 Nb8 2.660740 1_556
Nb7 Si1 2.670695 1_555
Nb8 Si0 2.688987 1_555
Nb8 Si3 2.692144 1_555
Nb8 Si2 2.705883 1_555
Nb8 Si1 2.713093 1_555
Nb9 Si0 2.688987 1_565
Nb9 Si3 2.692144 1_565
Nb9 Si1 2.705889 1_455
Nb9 Si2 2.713098 1_555
Ga0 Nb2 2.673482 1_455
Ga0 Nb6 2.679639 1_554
Ga0 Nb7 2.683254 1_454
Ga0 Nb1 2.683752 1_555
Ga0 Nb9 2.709170 1_555
Ga0 Nb8 2.715036 1_455
Ga0 Nb0 2.758440 1_555
Ga0 Nb3 2.918380 1_555
Ga0 Nb3 2.923662 1_554
Ga1 Nb2 2.673482 1_565
Ga1 Nb7 2.679644 1_554
Ga1 Nb6 2.683260 1_554
Ga1 Nb0 2.683752 1_655
Ga1 Nb8 2.709170 1_555
Ga1 Nb9 2.715036 1_555
Ga1 Nb1 2.758440 1_555
Ga1 Nb4 2.918378 1_555
Ga1 Nb4 2.923660 1_554
C0 Nb3 2.232477 1_655
C0 Nb4 2.232480 1_545
C0 Nb0 2.237016 1_645
C0 Nb1 2.237016 1_655
C0 Nb2 2.244818 1_555
C0 Nb5 2.255124 1_655
