# generated using pymatgen
data_Zr6Zn22GaAg
_symmetry_space_group_name_H-M   'P 1'
_cell_length_a   8.72697724
_cell_length_b   8.72697702
_cell_length_c   8.72697702
_cell_angle_alpha   60.00000367
_cell_angle_beta   60.00000448
_cell_angle_gamma   60.00000007
_symmetry_Int_Tables_number   1
_chemical_formula_structural   Zr6Zn22GaAg
_chemical_formula_sum   'Zr6 Zn22 Ga1 Ag1'
_cell_volume   469.97692698
_cell_formula_units_Z   1
loop_
 _symmetry_equiv_pos_site_id
 _symmetry_equiv_pos_as_xyz
  1  'x, y, z'
loop_
 _atom_site_type_symbol
 _atom_site_label
 _atom_site_symmetry_multiplicity
 _atom_site_fract_x
 _atom_site_fract_y
 _atom_site_fract_z
 _atom_site_occupancy
  Zr  Zr0  1  0.71908191  0.28091809  0.28091809  1
  Zr  Zr1  1  0.28091809  0.71908191  0.71908191  1
  Zr  Zr2  1  0.28091809  0.71908191  0.28091809  1
  Zr  Zr3  1  0.71908191  0.28091809  0.71908191  1
  Zr  Zr4  1  0.28091809  0.28091809  0.71908191  1
  Zr  Zr5  1  0.71908191  0.71908191  0.28091809  1
  Zn  Zn0  1  0.12753211  0.12753211  0.12753211  1
  Zn  Zn1  1  0.87246789  0.87246789  0.87246789  1
  Zn  Zn2  1  0.12753211  0.12753211  0.61740267  1
  Zn  Zn3  1  0.12753211  0.61740267  0.12753211  1
  Zn  Zn4  1  0.87246789  0.87246789  0.38259733  1
  Zn  Zn5  1  0.87246789  0.38259733  0.87246789  1
  Zn  Zn6  1  0.61740267  0.12753211  0.12753211  1
  Zn  Zn7  1  0.38259733  0.87246789  0.87246789  1
  Zn  Zn8  1  0.50000000  0.00000000  0.00000000  1
  Zn  Zn9  1  0.00000000  0.50000000  0.50000000  1
  Zn  Zn10  1  0.00000000  0.50000000  0.00000000  1
  Zn  Zn11  1  0.50000000  0.00000000  0.50000000  1
  Zn  Zn12  1  0.00000000  0.00000000  0.50000000  1
  Zn  Zn13  1  0.50000000  0.50000000  0.00000000  1
  Zn  Zn14  1  0.34129775  0.34129775  0.34129775  1
  Zn  Zn15  1  0.65870225  0.65870225  0.65870225  1
  Zn  Zn16  1  0.34129775  0.34129775  0.97610774  1
  Zn  Zn17  1  0.34129775  0.97610774  0.34129775  1
  Zn  Zn18  1  0.65870225  0.65870225  0.02389226  1
  Zn  Zn19  1  0.65870225  0.02389226  0.65870225  1
  Zn  Zn20  1  0.97610774  0.34129775  0.34129775  1
  Zn  Zn21  1  0.02389226  0.65870225  0.65870225  1
  Ga  Ga0  1  0.50000000  0.50000000  0.50000000  1
  Ag  Ag0  1  0.00000000  0.00000000  0.00000000  1
loop_
_geom_bond_atom_site_label_1
_geom_bond_atom_site_label_2
_geom_bond_distance
_geom_bond_site_symmetry_2
Zn0 Zn10 2.654528 1_555
Zn0 Zn8 2.654528 1_555
Zn0 Zn12 2.654528 1_555
Zn0 Zn20 2.693767 1_455
Zn0 Zn17 2.693767 1_545
Zn0 Zn16 2.693767 1_554
Zn0 Zr2 2.922069 1_545
Zn0 Zr0 2.922069 1_455
Zn0 Zr4 2.922069 1_554
Zn1 Zn10 2.654528 1_656
Zn1 Zn8 2.654528 1_566
Zn1 Zn12 2.654528 1_665
Zn1 Zn21 2.693767 1_655
Zn1 Zn19 2.693767 1_565
Zn1 Zn18 2.693767 1_556
Zn1 Zr3 2.922069 1_565
Zn1 Zr1 2.922069 1_655
Zn1 Zr5 2.922069 1_556
Zn2 Zn9 2.654528 1_555
Zn2 Zn20 2.693753 1_455
Zn2 Zr1 2.922068 1_545
Zn2 Zr3 2.922068 1_455
Zn2 Zr4 2.922075 1_555
Zn3 Zn9 2.654528 1_555
Zn3 Zr5 2.922068 1_455
Zn3 Zr1 2.922068 1_554
Zn3 Zr2 2.922075 1_555
Zn4 Zn9 2.654528 1_655
Zn4 Zr0 2.922068 1_565
Zn4 Zr2 2.922068 1_655
Zn4 Zr5 2.922075 1_555
Zn5 Zn9 2.654528 1_655
Zn5 Zr4 2.922068 1_655
Zn5 Zr0 2.922068 1_556
Zn5 Zr3 2.922075 1_555
Zn6 Zn8 2.654521 1_555
Zn6 Zr5 2.922068 1_545
Zn6 Zr3 2.922068 1_554
Zn6 Zr0 2.922075 1_555
Zn7 Zn8 2.654521 1_566
Zn7 Zr4 2.922068 1_565
Zn7 Zr2 2.922068 1_556
Zn7 Zr1 2.922075 1_555
Zn10 Zn16 2.525010 1_554
Zn10 Zn18 2.525010 1_455
Zn10 Zn20 2.525010 1_455
Zn10 Zn21 2.525010 1_554
Zn10 Zn3 2.654521 1_555
Zn10 Zn5 2.654521 1_454
Zn11 Zn19 2.525002 1_555
Zn11 Zn17 2.525002 1_545
Zn11 Zn14 2.525008 1_555
Zn11 Zn15 2.525008 1_545
Zn11 Zn4 2.654528 1_545
Zn11 Zn2 2.654528 1_555
Zn11 Zn7 2.654528 1_545
Zn11 Zn6 2.654528 1_555
Zn12 Zn20 2.525010 1_455
Zn12 Zn21 2.525010 1_545
Zn12 Zn17 2.525010 1_545
Zn12 Zn19 2.525010 1_455
Zn12 Zn2 2.654521 1_555
Zn12 Zn4 2.654521 1_445
Zn13 Zn18 2.525002 1_555
Zn13 Zn16 2.525002 1_554
Zn13 Zn14 2.525008 1_555
Zn13 Zn15 2.525008 1_554
Zn13 Zn7 2.654528 1_554
Zn13 Zn6 2.654528 1_555
Zn13 Zn5 2.654528 1_554
Zn13 Zn3 2.654528 1_555
Zn14 Zn9 2.525008 1_555
Zn14 Zn3 2.693763 1_555
Zn14 Zn6 2.693763 1_555
Zn14 Zn2 2.693764 1_555
Zn14 Zr2 2.868469 1_555
Zn14 Zr4 2.868469 1_555
Zn14 Zr0 2.868469 1_555
Zn15 Zn9 2.525008 1_655
Zn15 Zn5 2.693763 1_555
Zn15 Zn7 2.693763 1_555
Zn15 Zn4 2.693764 1_555
Zn15 Zr3 2.868469 1_555
Zn15 Zr5 2.868469 1_555
Zn15 Zr1 2.868469 1_555
Zn16 Zn8 2.525010 1_556
Zn16 Zn3 2.693753 1_556
Zn16 Zn6 2.693753 1_556
Zn16 Zr1 2.868472 1_555
Zn16 Zr3 2.868472 1_555
Zn16 Zr4 2.868477 1_555
Zn17 Zn8 2.525010 1_565
Zn17 Zn2 2.693753 1_565
Zn17 Zn6 2.693753 1_565
Zn17 Zr5 2.868472 1_555
Zn17 Zr1 2.868472 1_555
Zn17 Zr2 2.868477 1_555
Zn18 Zn8 2.525010 1_565
Zn18 Zn5 2.693753 1_554
Zn18 Zn7 2.693753 1_554
Zn18 Zr0 2.868472 1_555
Zn18 Zr2 2.868472 1_555
Zn18 Zr5 2.868477 1_555
Zn19 Zn8 2.525010 1_556
Zn19 Zn4 2.693753 1_545
Zn19 Zn7 2.693753 1_545
Zn19 Zr4 2.868472 1_555
Zn19 Zr0 2.868472 1_555
Zn19 Zr3 2.868477 1_555
Zn20 Zn9 2.525002 1_655
Zn20 Zn3 2.693753 1_655
Zn20 Zr5 2.868471 1_555
Zn20 Zr3 2.868472 1_555
Zn20 Zr0 2.868477 1_555
Zn21 Zn9 2.525002 1_555
Zn21 Zn4 2.693753 1_455
Zn21 Zn5 2.693753 1_455
Zn21 Zr4 2.868471 1_555
Zn21 Zr2 2.868472 1_555
Zn21 Zr1 2.868477 1_555
Ga0 Zr1 2.703867 1_555
Ga0 Zr3 2.703867 1_555
Ga0 Zr0 2.703867 1_555
Ga0 Zr2 2.703867 1_555
Ga0 Zr5 2.703867 1_555
Ga0 Zr4 2.703867 1_555
Ag0 Zn0 2.726208 1_555
Ag0 Zn1 2.726208 1_444
Ag0 Zn5 2.726215 1_454
Ag0 Zn3 2.726215 1_545
Ag0 Zn7 2.726215 1_544
Ag0 Zn6 2.726215 1_455
Ag0 Zn4 2.726215 1_445
Ag0 Zn2 2.726215 1_554
