# generated using pymatgen
data_Mg2GaSnPd3
_symmetry_space_group_name_H-M   'P 1'
_cell_length_a   7.62558751
_cell_length_b   7.62558755
_cell_length_c   7.62558748
_cell_angle_alpha   33.58735105
_cell_angle_beta   33.58735272
_cell_angle_gamma   33.58735140
_symmetry_Int_Tables_number   1
_chemical_formula_structural   Mg2GaSnPd3
_chemical_formula_sum   'Mg2 Ga1 Sn1 Pd3'
_cell_volume   120.88173975
_cell_formula_units_Z   1
loop_
 _symmetry_equiv_pos_site_id
 _symmetry_equiv_pos_as_xyz
  1  'x, y, z'
loop_
 _atom_site_type_symbol
 _atom_site_label
 _atom_site_symmetry_multiplicity
 _atom_site_fract_x
 _atom_site_fract_y
 _atom_site_fract_z
 _atom_site_occupancy
  Mg  Mg0  1  0.24544699  0.24544699  0.24544699  1
  Mg  Mg1  1  0.75336461  0.75336461  0.75336461  1
  Ga  Ga0  1  0.00154730  0.00154730  0.00154730  1
  Sn  Sn0  1  0.49685086  0.49685086  0.49685086  1
  Pd  Pd0  1  0.36904435  0.36904435  0.36904435  1
  Pd  Pd1  1  0.62851536  0.62851536  0.62851536  1
  Pd  Pd2  1  0.88023352  0.88023352  0.88023352  1
loop_
_geom_bond_atom_site_label_1
_geom_bond_atom_site_label_2
_geom_bond_distance
_geom_bond_site_symmetry_2
Mg0 Pd2 2.635337 1_454
Mg0 Pd2 2.635337 1_445
Mg0 Pd2 2.635337 1_544
Mg0 Pd0 2.665510 1_555
Mg0 Pd1 2.760933 1_545
Mg0 Pd1 2.760933 1_554
Mg0 Pd1 2.760933 1_455
Mg0 Sn0 3.097455 1_545
Mg0 Sn0 3.097455 1_554
Mg0 Sn0 3.097455 1_455
Mg1 Pd1 2.692508 1_555
Mg1 Pd2 2.736064 1_555
Mg1 Pd0 2.771534 1_565
Mg1 Pd0 2.771534 1_556
Mg1 Pd0 2.771534 1_655
Mg1 Sn0 3.035943 1_565
Mg1 Sn0 3.035943 1_556
Mg1 Sn0 3.035943 1_655
Ga0 Pd2 2.616262 1_444
Ga0 Pd0 2.648612 1_545
Ga0 Pd0 2.648612 1_554
Ga0 Pd0 2.648612 1_455
Ga0 Pd1 2.684266 1_454
Ga0 Pd1 2.684266 1_445
Ga0 Pd1 2.684266 1_544
Ga0 Mg1 3.137601 1_454
Ga0 Mg1 3.137601 1_445
Ga0 Mg1 3.137601 1_544
Pd0 Sn0 2.756285 1_555
Pd0 Pd1 3.001616 1_545
Pd0 Pd1 3.001616 1_554
Pd0 Pd1 3.001616 1_455
Pd1 Sn0 2.839486 1_555
Pd1 Pd2 3.093594 1_545
Pd1 Pd2 3.093594 1_554
Pd1 Pd2 3.093594 1_455
Pd2 Sn0 2.763574 1_565
Pd2 Sn0 2.763574 1_556
Pd2 Sn0 2.763574 1_655
