# generated using pymatgen
data_Mn2FePd8Au5
_symmetry_space_group_name_H-M   'P 1'
_cell_length_a   6.88200561
_cell_length_b   6.88200643
_cell_length_c   6.88200547
_cell_angle_alpha   108.08086180
_cell_angle_beta   107.30104948
_cell_angle_gamma   113.09448966
_symmetry_Int_Tables_number   1
_chemical_formula_structural   Mn2FePd8Au5
_chemical_formula_sum   'Mn2 Fe1 Pd8 Au5'
_cell_volume   250.14456373
_cell_formula_units_Z   1
loop_
 _symmetry_equiv_pos_site_id
 _symmetry_equiv_pos_as_xyz
  1  'x, y, z'
loop_
 _atom_site_type_symbol
 _atom_site_label
 _atom_site_symmetry_multiplicity
 _atom_site_fract_x
 _atom_site_fract_y
 _atom_site_fract_z
 _atom_site_occupancy
  Mn  Mn0  1  0.00000000  0.50000000  0.50000000  1
  Mn  Mn1  1  0.50000000  0.50000000  0.00000000  1
  Fe  Fe0  1  0.00000000  0.00000000  0.00000000  1
  Pd  Pd0  1  0.48986664  0.24601422  0.24385142  1
  Pd  Pd1  1  0.51013336  0.75398578  0.75614858  1
  Pd  Pd2  1  0.00216280  0.24601422  0.75614858  1
  Pd  Pd3  1  0.24236278  0.99768144  0.75531867  1
  Pd  Pd4  1  0.99783720  0.75398578  0.24385142  1
  Pd  Pd5  1  0.75763722  0.00231856  0.24468133  1
  Pd  Pd6  1  0.24236278  0.48704511  0.24468133  1
  Pd  Pd7  1  0.75763722  0.51295489  0.75531867  1
  Au  Au0  1  0.50000000  0.00000000  0.50000000  1
  Au  Au1  1  0.25071278  0.25529589  0.50600967  1
  Au  Au2  1  0.74928722  0.74470411  0.49399033  1
  Au  Au3  1  0.25071278  0.74470411  0.99541689  1
  Au  Au4  1  0.74928722  0.25529589  0.00458311  1
loop_
_geom_bond_atom_site_label_1
_geom_bond_atom_site_label_2
_geom_bond_distance
_geom_bond_site_symmetry_2
Mn0 Pd6 2.764051 1_555
Mn0 Pd7 2.764051 1_455
Mn0 Pd3 2.764052 1_555
Mn0 Pd5 2.764052 1_455
Mn0 Pd1 2.842602 1_555
Mn0 Pd0 2.842602 1_455
Mn0 Pd4 2.842608 1_455
Mn0 Pd2 2.842608 1_555
Mn1 Pd2 2.769694 1_554
Mn1 Pd4 2.769694 1_555
Mn1 Pd0 2.769695 1_555
Mn1 Pd1 2.769695 1_554
Mn1 Pd7 2.780684 1_554
Mn1 Pd6 2.780684 1_555
Mn1 Pd5 2.780684 1_565
Mn1 Pd3 2.780684 1_544
Fe0 Pd5 2.700470 1_455
Fe0 Pd3 2.700470 1_544
Fe0 Pd7 2.700476 1_444
Fe0 Pd6 2.700476 1_555
Fe0 Pd2 2.727957 1_554
Fe0 Pd4 2.727957 1_445
Fe0 Pd0 2.727963 1_555
Fe0 Pd1 2.727963 1_444
Au0 Pd1 2.801956 1_545
Au0 Pd0 2.801956 1_555
Au0 Pd4 2.801957 1_445
Au0 Pd2 2.801957 1_655
Au0 Pd6 2.842467 1_545
Au0 Pd7 2.842467 1_555
Au0 Pd3 2.842472 1_545
Au0 Pd5 2.842472 1_555
Au0 Au4 2.897169 1_556
Au0 Au3 2.897169 1_544
Au0 Au1 2.897169 1_555
Au0 Au2 2.897169 1_545
Au1 Pd5 2.751780 1_455
Au1 Pd6 2.751791 1_555
Au1 Pd2 2.761760 1_555
Au1 Pd1 2.761766 1_555
Au1 Pd4 2.782988 1_445
Au1 Pd0 2.782998 1_555
Au1 Pd3 2.820838 1_545
Au1 Pd7 2.820843 1_555
Au1 Mn1 2.836829 1_556
Au1 Mn0 2.845183 1_555
Au1 Fe0 2.905350 1_555
Au2 Pd3 2.751780 1_655
Au2 Pd7 2.751791 1_555
Au2 Pd4 2.761760 1_555
Au2 Pd0 2.761766 1_555
Au2 Pd2 2.782988 1_665
Au2 Pd1 2.782998 1_555
Au2 Pd5 2.820838 1_565
Au2 Pd6 2.820843 1_555
Au2 Mn1 2.836829 1_555
Au2 Mn0 2.845183 1_655
Au2 Fe0 2.905350 1_666
Au3 Pd7 2.751779 1_455
Au3 Pd3 2.751780 1_555
Au3 Pd1 2.761760 1_555
Au3 Pd2 2.761766 1_555
Au3 Pd0 2.782987 1_566
Au3 Pd4 2.782987 1_456
Au3 Pd6 2.820838 1_556
Au3 Pd5 2.820843 1_566
Au3 Mn1 2.836834 1_556
Au3 Mn0 2.845183 1_555
Au3 Fe0 2.905344 1_566
Au4 Pd6 2.751779 1_655
Au4 Pd5 2.751780 1_555
Au4 Pd0 2.761760 1_555
Au4 Pd4 2.761766 1_555
Au4 Pd1 2.782987 1_544
Au4 Pd2 2.782987 1_654
Au4 Pd7 2.820838 1_554
Au4 Pd3 2.820843 1_544
Au4 Mn1 2.836834 1_555
Au4 Mn0 2.845183 1_655
Au4 Fe0 2.905344 1_655
