# generated using pymatgen
data_Hf2Nb4Al16Ir7
_symmetry_space_group_name_H-M   'P 1'
_cell_length_a   8.56515326
_cell_length_b   8.56515333
_cell_length_c   8.60852923
_cell_angle_alpha   59.83233475
_cell_angle_beta   59.83233448
_cell_angle_gamma   60.33533041
_symmetry_Int_Tables_number   1
_chemical_formula_structural   Hf2Nb4Al16Ir7
_chemical_formula_sum   'Hf2 Nb4 Al16 Ir7'
_cell_volume   446.54152294
_cell_formula_units_Z   1
loop_
 _symmetry_equiv_pos_site_id
 _symmetry_equiv_pos_as_xyz
  1  'x, y, z'
loop_
 _atom_site_type_symbol
 _atom_site_label
 _atom_site_symmetry_multiplicity
 _atom_site_fract_x
 _atom_site_fract_y
 _atom_site_fract_z
 _atom_site_occupancy
  Hf  Hf0  1  0.31402214  0.31402214  0.68597786  1
  Hf  Hf1  1  0.68597786  0.68597786  0.31402214  1
  Nb  Nb0  1  0.67909166  0.32090834  0.32090834  1
  Nb  Nb1  1  0.32090834  0.67909166  0.67909166  1
  Nb  Nb2  1  0.32090834  0.67909166  0.32090834  1
  Nb  Nb3  1  0.67909166  0.32090834  0.67909166  1
  Al  Al0  1  0.33755664  0.33755664  0.33571787  1
  Al  Al1  1  0.66244336  0.66244336  0.66428213  1
  Al  Al2  1  0.33755664  0.33755664  0.98916884  1
  Al  Al3  1  0.33571787  0.98916884  0.33755664  1
  Al  Al4  1  0.66244336  0.66244336  0.01083116  1
  Al  Al5  1  0.66428213  0.01083116  0.66244336  1
  Al  Al6  1  0.98916884  0.33571787  0.33755664  1
  Al  Al7  1  0.01083116  0.66428213  0.66244336  1
  Al  Al8  1  0.11874057  0.11874057  0.12191158  1
  Al  Al9  1  0.88125943  0.88125943  0.87808842  1
  Al  Al10  1  0.11874057  0.11874057  0.64060728  1
  Al  Al11  1  0.12191158  0.64060728  0.11874057  1
  Al  Al12  1  0.88125943  0.88125943  0.35939272  1
  Al  Al13  1  0.87808842  0.35939272  0.88125943  1
  Al  Al14  1  0.64060728  0.12191158  0.11874057  1
  Al  Al15  1  0.35939272  0.87808842  0.88125943  1
  Ir  Ir0  1  0.50000000  0.00000000  0.00000000  1
  Ir  Ir1  1  0.00000000  0.50000000  0.50000000  1
  Ir  Ir2  1  0.00000000  0.50000000  0.00000000  1
  Ir  Ir3  1  0.50000000  0.00000000  0.50000000  1
  Ir  Ir4  1  0.00000000  0.00000000  0.50000000  1
  Ir  Ir5  1  0.50000000  0.50000000  0.00000000  1
  Ir  Ir6  1  0.00000000  0.00000000  0.00000000  1
loop_
_geom_bond_atom_site_label_1
_geom_bond_atom_site_label_2
_geom_bond_distance
_geom_bond_site_symmetry_2
Hf0 Nb3 3.126834 1_555
Hf0 Nb0 3.126834 1_555
Hf0 Nb2 3.126834 1_555
Hf0 Nb1 3.126834 1_555
Hf0 Ir1 3.139847 1_555
Hf0 Ir2 3.139847 1_556
Hf0 Ir3 3.139847 1_555
Hf0 Ir0 3.139847 1_556
Hf1 Nb2 3.126834 1_555
Hf1 Nb1 3.126834 1_555
Hf1 Nb3 3.126834 1_555
Hf1 Nb0 3.126834 1_555
Hf1 Ir2 3.139847 1_655
Hf1 Ir1 3.139847 1_655
Hf1 Ir0 3.139847 1_565
Hf1 Ir3 3.139847 1_565
Nb0 Nb2 3.083432 1_555
Nb0 Nb3 3.083432 1_555
Nb1 Nb3 3.083432 1_555
Nb1 Nb2 3.083432 1_555
Al0 Ir5 2.461177 1_555
Al0 Ir1 2.486224 1_555
Al0 Ir3 2.486224 1_555
Al0 Nb0 2.797232 1_555
Al0 Nb2 2.797232 1_555
Al0 Hf0 2.826890 1_555
Al1 Ir5 2.461177 1_556
Al1 Ir1 2.486224 1_655
Al1 Ir3 2.486224 1_565
Al1 Nb1 2.797232 1_555
Al1 Nb3 2.797232 1_555
Al1 Hf1 2.826890 1_555
Al2 Ir5 2.461177 1_556
Al2 Ir2 2.486224 1_556
Al2 Ir0 2.486224 1_556
Al2 Nb3 2.797232 1_555
Al2 Nb1 2.797232 1_555
Al2 Hf0 2.826890 1_555
Al3 Ir4 2.461177 1_565
Al3 Ir3 2.486224 1_565
Al3 Ir0 2.486224 1_565
Al3 Nb2 2.797232 1_555
Al3 Nb1 2.797232 1_555
Al3 Hf1 2.826890 1_555
Al4 Ir5 2.461177 1_555
Al4 Ir2 2.486224 1_655
Al4 Ir0 2.486224 1_565
Al4 Nb2 2.797232 1_555
Al4 Nb0 2.797232 1_555
Al4 Hf1 2.826890 1_555
Al5 Ir4 2.461177 1_655
Al5 Ir3 2.486224 1_555
Al5 Ir0 2.486224 1_556
Al5 Nb3 2.797232 1_555
Al5 Nb0 2.797232 1_555
Al5 Hf0 2.826890 1_555
Al6 Ir4 2.461177 1_655
Al6 Ir2 2.486224 1_655
Al6 Ir1 2.486224 1_655
Al6 Nb3 2.797232 1_555
Al6 Nb0 2.797232 1_555
Al6 Hf1 2.826890 1_555
Al7 Ir4 2.461177 1_565
Al7 Ir2 2.486224 1_556
Al7 Ir1 2.486224 1_555
Al7 Nb2 2.797232 1_555
Al7 Nb1 2.797232 1_555
Al7 Hf0 2.826890 1_555
Al8 Ir6 2.517832 1_555
Al8 Ir4 2.651833 1_555
Al8 Ir0 2.672151 1_555
Al8 Ir2 2.672151 1_555
Al8 Hf0 3.135324 1_554
Al8 Nb0 3.186958 1_455
Al8 Nb2 3.186958 1_545
Al9 Ir6 2.517832 1_666
Al9 Ir4 2.651833 1_665
Al9 Ir0 2.672151 1_566
Al9 Ir2 2.672151 1_656
Al9 Hf1 3.135324 1_556
Al9 Nb1 3.186958 1_655
Al9 Nb3 3.186958 1_565
Al10 Ir6 2.517832 1_556
Al10 Ir4 2.651833 1_555
Al10 Ir3 2.672151 1_555
Al10 Ir1 2.672151 1_555
Al10 Hf0 3.135324 1_555
Al10 Nb3 3.186958 1_455
Al10 Nb1 3.186958 1_545
Al11 Ir6 2.517832 1_565
Al11 Ir5 2.651833 1_555
Al11 Ir1 2.672151 1_555
Al11 Ir2 2.672151 1_555
Al11 Hf1 3.135324 1_455
Al11 Nb2 3.186958 1_555
Al11 Nb1 3.186958 1_554
Al12 Ir6 2.517832 1_665
Al12 Ir4 2.651833 1_665
Al12 Ir3 2.672151 1_565
Al12 Ir1 2.672151 1_655
Al12 Hf1 3.135324 1_555
Al12 Nb2 3.186958 1_655
Al12 Nb0 3.186958 1_565
Al13 Ir6 2.517832 1_656
Al13 Ir5 2.651833 1_556
Al13 Ir1 2.672151 1_655
Al13 Ir2 2.672151 1_656
Al13 Hf0 3.135324 1_655
Al13 Nb3 3.186958 1_555
Al13 Nb0 3.186958 1_556
Al14 Ir6 2.517832 1_655
Al14 Ir5 2.651833 1_555
Al14 Ir0 2.672151 1_555
Al14 Ir3 2.672151 1_555
Al14 Hf1 3.135324 1_545
Al14 Nb0 3.186958 1_555
Al14 Nb3 3.186958 1_554
Al15 Ir6 2.517832 1_566
Al15 Ir5 2.651833 1_556
Al15 Ir3 2.672151 1_565
Al15 Ir0 2.672151 1_566
Al15 Hf0 3.135324 1_565
Al15 Nb1 3.186958 1_555
Al15 Nb2 3.186958 1_556
Ir0 Nb3 3.134060 1_554
Ir0 Nb2 3.134060 1_545
Ir1 Nb2 3.134060 1_555
Ir1 Nb3 3.134060 1_455
Ir2 Nb1 3.134060 1_554
Ir2 Nb0 3.134060 1_455
Ir3 Nb0 3.134060 1_555
Ir3 Nb1 3.134060 1_545
Ir4 Nb3 3.163631 1_455
Ir4 Nb2 3.163631 1_545
Ir4 Nb1 3.163631 1_545
Ir4 Nb0 3.163631 1_455
Ir5 Nb0 3.163631 1_555
Ir5 Nb1 3.163631 1_554
Ir5 Nb2 3.163631 1_555
Ir5 Nb3 3.163631 1_554
