# generated using pymatgen
data_Al5CuSe8
_symmetry_space_group_name_H-M   'P 1'
_cell_length_a   7.45305028
_cell_length_b   7.45292306
_cell_length_c   7.45298840
_cell_angle_alpha   60.00053250
_cell_angle_beta   60.00013957
_cell_angle_gamma   59.99976430
_symmetry_Int_Tables_number   1
_chemical_formula_structural   Al5CuSe8
_chemical_formula_sum   'Al5 Cu1 Se8'
_cell_volume   292.73696700
_cell_formula_units_Z   1
loop_
 _symmetry_equiv_pos_site_id
 _symmetry_equiv_pos_as_xyz
  1  'x, y, z'
loop_
 _atom_site_type_symbol
 _atom_site_label
 _atom_site_symmetry_multiplicity
 _atom_site_fract_x
 _atom_site_fract_y
 _atom_site_fract_z
 _atom_site_occupancy
  Al  Al0  1  0.25000302  0.24999507  0.24999817  1
  Al  Al1  1  0.63207347  0.10378429  0.63206943  1
  Al  Al2  1  0.10379248  0.63206737  0.63206821  1
  Al  Al3  1  0.63207345  0.63206639  0.10378737  1
  Al  Al4  1  0.63207275  0.63206753  0.63206839  1
  Cu  Cu0  1  0.00000228  -0.00000165  -0.00000161  1
  Se  Se0  1  0.38363438  0.38366437  0.38365861  1
  Se  Se1  1  0.38364530  0.38365476  0.84905347  1
  Se  Se2  1  0.84904599  0.38366538  0.38365138  1
  Se  Se3  1  0.38364798  0.84905898  0.38364392  1
  Se  Se4  1  0.86888948  0.39332682  0.86889427  1
  Se  Se5  1  0.39333887  0.86888370  0.86888685  1
  Se  Se6  1  0.86889074  0.86888418  0.39333451  1
  Se  Se7  1  0.86889080  0.86888381  0.86888702  1
loop_
_geom_bond_atom_site_label_1
_geom_bond_atom_site_label_2
_geom_bond_distance
_geom_bond_site_symmetry_2
Al0 Se3 2.439815 1_545
Al0 Se1 2.439898 1_554
Al0 Se2 2.439975 1_455
Al0 Se0 2.439981 1_555
Al1 Se6 2.496103 1_545
Al1 Se7 2.496138 1_545
Al1 Se5 2.496143 1_545
Al1 Se1 2.628891 1_555
Al1 Se0 2.628914 1_555
Al1 Se2 2.628935 1_555
Al2 Se7 2.496103 1_455
Al2 Se6 2.496141 1_455
Al2 Se4 2.496187 1_455
Al2 Se0 2.628671 1_555
Al2 Se1 2.628840 1_555
Al2 Se3 2.628892 1_555
Al3 Se4 2.496090 1_554
Al3 Se5 2.496139 1_554
Al3 Se7 2.496140 1_554
Al3 Se2 2.628840 1_555
Al3 Se3 2.628862 1_555
Al3 Se0 2.628872 1_555
Al4 Se5 2.496100 1_555
Al4 Se6 2.496140 1_555
Al4 Se4 2.496179 1_555
Al4 Se2 2.628703 1_555
Al4 Se1 2.628853 1_555
Al4 Se3 2.628899 1_555
Cu0 Se4 2.393521 1_454
Cu0 Se7 2.393589 1_444
Cu0 Se6 2.393597 1_445
Cu0 Se5 2.393602 1_544
