# generated using pymatgen
data_K2Ge(TeO4)3
_symmetry_space_group_name_H-M   'P 1'
_cell_length_a   6.96205589
_cell_length_b   7.12610767
_cell_length_c   6.96135012
_cell_angle_alpha   90.00000016
_cell_angle_beta   61.56144162
_cell_angle_gamma   120.78258627
_symmetry_Int_Tables_number   1
_chemical_formula_structural   K2Ge(TeO4)3
_chemical_formula_sum   'K2 Ge1 Te3 O12'
_cell_volume   246.95638725
_cell_formula_units_Z   1
loop_
 _symmetry_equiv_pos_site_id
 _symmetry_equiv_pos_as_xyz
  1  'x, y, z'
loop_
 _atom_site_type_symbol
 _atom_site_label
 _atom_site_symmetry_multiplicity
 _atom_site_fract_x
 _atom_site_fract_y
 _atom_site_fract_z
 _atom_site_occupancy
  K  K0  1  0.26536468  0.12997698  0.63260785  1
  K  K1  1  0.73463532  0.86461230  0.36739215  1
  Ge  Ge0  1  1.00000000  0.49742318  0.00000000  1
  Te  Te0  1  0.49998733  0.49727965  0.99996837  1
  Te  Te1  1  0.50001267  0.99729232  0.00003163  1
  Te  Te2  1  0.00000000  0.49726429  0.50000000  1
  O  O0  1  0.65330133  0.82391920  0.93132448  1
  O  O1  1  0.85996205  0.42739296  0.31750757  1
  O  O2  1  0.24753723  0.42741260  0.92997194  1
  O  O3  1  0.25794663  0.82393498  0.32669075  1
  O  O4  1  0.24744331  0.81485292  0.93000325  1
  O  O5  1  0.25804879  0.42868465  0.32664006  1
  O  O6  1  0.34669867  0.17061687  0.06867552  1
  O  O7  1  0.14003795  0.56743191  0.68249243  1
  O  O8  1  0.75255669  0.56740861  0.06999675  1
  O  O9  1  0.74195121  0.17063587  0.67335994  1
  O  O10  1  0.75246277  0.17987437  0.07002806  1
  O  O11  1  0.74205337  0.56598935  0.67330925  1
loop_
_geom_bond_atom_site_label_1
_geom_bond_atom_site_label_2
_geom_bond_distance
_geom_bond_site_symmetry_2
K0 O1 2.968365 1_555
K0 O4 2.968425 1_545
K0 O2 2.969449 1_555
K0 O3 3.046898 1_545
K0 O5 3.047066 1_555
K0 O0 3.047402 1_445
K1 O7 2.968365 1_555
K1 O8 2.968431 1_555
K1 O10 2.969444 1_565
K1 O11 3.046893 1_555
K1 O9 3.047066 1_565
K1 O6 3.047402 1_665
Ge0 O8 1.879842 1_555
Ge0 O4 1.879847 1_654
Ge0 O7 1.880026 1_654
Ge0 O1 1.880026 1_555
Ge0 O2 1.880542 1_654
Ge0 O10 1.880548 1_555
O0 Te0 1.938258 1_555
O0 Te1 1.938429 1_556
O1 Te2 1.869525 1_655
O2 Te0 1.869323 1_555
O3 Te1 1.938121 1_555
O3 Te2 1.938322 1_555
O4 Te1 1.869849 1_556
O5 Te2 1.938178 1_555
O5 Te0 1.938182 1_554
O6 Te1 1.938251 1_545
O6 Te0 1.938435 1_554
O7 Te2 1.869525 1_555
O8 Te0 1.869851 1_554
O9 Te2 1.938178 1_655
O9 Te1 1.938182 1_546
O10 Te1 1.869322 1_545
O11 Te0 1.938119 1_555
O11 Te2 1.938327 1_655
