# generated using pymatgen
data_ScUS2
_symmetry_space_group_name_H-M   'P 1'
_cell_length_a   6.63064800
_cell_length_b   6.63064800
_cell_length_c   6.63064800
_cell_angle_alpha   131.54783203
_cell_angle_beta   131.54783203
_cell_angle_gamma   70.94412145
_symmetry_Int_Tables_number   1
_chemical_formula_structural   ScUS2
_chemical_formula_sum   'Sc2 U2 S4'
_cell_volume   159.90015979
_cell_formula_units_Z   2
loop_
 _symmetry_equiv_pos_site_id
 _symmetry_equiv_pos_as_xyz
  1  'x, y, z'
loop_
 _atom_site_type_symbol
 _atom_site_label
 _atom_site_symmetry_multiplicity
 _atom_site_fract_x
 _atom_site_fract_y
 _atom_site_fract_z
 _atom_site_occupancy
  Sc  Sc0  1  0.50000000  0.50000000  0.00000000  1
  Sc  Sc1  1  0.25000000  0.75000000  0.50000000  1
  U  U0  1  -0.00000000  -0.00000000  0.00000000  1
  U  U1  1  0.75000000  0.25000000  0.50000000  1
  S  S0  1  0.49122659  0.99122659  0.50000000  1
  S  S1  1  0.00877341  0.50877341  0.50000000  1
  S  S2  1  0.74122659  0.74122659  0.00000000  1
  S  S3  1  0.25877341  0.25877341  -0.00000000  1
loop_
_geom_bond_atom_site_label_1
_geom_bond_atom_site_label_2
_geom_bond_distance
_geom_bond_site_symmetry_2
S0 Sc1 2.605243 1_555
S0 Sc0 2.722458 1_555
S0 U0 2.722458 1_666
S0 Sc0 2.722458 1_566
S0 U0 2.722458 1_565
S0 U1 2.794748 1_565
S1 Sc1 2.605243 1_555
S1 Sc0 2.722458 1_455
S1 Sc0 2.722458 1_556
S1 U0 2.722458 1_555
S1 U0 2.722458 1_566
S1 U1 2.794748 1_455
S2 Sc0 2.605243 1_555
S2 U1 2.722458 1_565
S2 Sc1 2.722458 1_655
S2 Sc1 2.722458 1_554
S2 U1 2.722458 1_554
S2 U0 2.794748 1_665
S3 Sc0 2.605243 1_555
S3 Sc1 2.722458 1_544
S3 Sc1 2.722458 1_555
S3 U1 2.722458 1_454
S3 U1 2.722458 1_555
S3 U0 2.794748 1_555
