# generated using pymatgen
data_SrCo2(Sb6Ru)2
_symmetry_space_group_name_H-M   'P 1'
_cell_length_a   8.03565406
_cell_length_b   7.97841840
_cell_length_c   7.97841782
_cell_angle_alpha   109.12615010
_cell_angle_beta   109.46116720
_cell_angle_gamma   109.53568026
_symmetry_Int_Tables_number   1
_chemical_formula_structural   SrCo2(Sb6Ru)2
_chemical_formula_sum   'Sr1 Co2 Sb12 Ru2'
_cell_volume   395.16309086
_cell_formula_units_Z   1
loop_
 _symmetry_equiv_pos_site_id
 _symmetry_equiv_pos_as_xyz
  1  'x, y, z'
loop_
 _atom_site_type_symbol
 _atom_site_label
 _atom_site_symmetry_multiplicity
 _atom_site_fract_x
 _atom_site_fract_y
 _atom_site_fract_z
 _atom_site_occupancy
  Sr  Sr0  1  0.00000000  0.00000000  0.00000000  1
  Co  Co0  1  0.50000000  0.50000000  0.50000000  1
  Co  Co1  1  0.50000000  0.00000000  0.00000000  1
  Sb  Sb0  1  0.16422106  0.49899160  0.34431586  1
  Sb  Sb1  1  0.50231269  0.66265191  0.83966078  1
  Sb  Sb2  1  0.34319651  0.84446278  0.17988387  1
  Sb  Sb3  1  0.81620732  0.65815067  0.15805665  1
  Sb  Sb4  1  0.65680349  0.83668636  0.50126627  1
  Sb  Sb5  1  0.18379268  0.34184933  0.84194335  1
  Sb  Sb6  1  0.65680349  0.15553722  0.82011613  1
  Sb  Sb7  1  0.34319651  0.16331364  0.49873373  1
  Sb  Sb8  1  0.49768731  0.33734809  0.16033922  1
  Sb  Sb9  1  0.83577894  0.50100840  0.65568414  1
  Sb  Sb10  1  0.83577894  0.18009679  0.33477054  1
  Sb  Sb11  1  0.16422106  0.81990321  0.66522946  1
  Ru  Ru0  1  0.00000000  0.50000000  0.00000000  1
  Ru  Ru1  1  0.00000000  0.00000000  0.50000000  1
loop_
_geom_bond_atom_site_label_1
_geom_bond_atom_site_label_2
_geom_bond_distance
_geom_bond_site_symmetry_2
Co0 Sb4 2.552184 1_555
Co0 Sb7 2.552184 1_555
Co0 Sb9 2.562994 1_555
Co0 Sb0 2.562994 1_555
Co0 Sb1 2.583419 1_555
Co0 Sb8 2.583419 1_555
Co1 Sb6 2.552191 1_554
Co1 Sb2 2.552191 1_545
Co1 Sb10 2.562992 1_555
Co1 Sb11 2.562992 1_544
Co1 Sb8 2.583419 1_555
Co1 Sb1 2.583419 1_544
Sb0 Sb10 2.948385 1_455
Sb0 Sb11 2.969043 1_555
Sb0 Sr0 3.470119 1_555
Sb1 Sb3 2.944052 1_556
Sb1 Sb5 2.963580 1_555
Sb1 Sr0 3.465623 1_666
Sb2 Sb7 2.949964 1_565
Sb2 Sb4 2.971923 1_555
Sb2 Sr0 3.467524 1_565
Sb3 Sb8 2.963580 1_555
Sb3 Sr0 3.465707 1_665
Sb4 Sb6 2.949964 1_565
Sb4 Sr0 3.467522 1_666
Sb5 Sb8 2.944052 1_556
Sb5 Sr0 3.465707 1_556
Sb6 Sb7 2.971923 1_555
Sb6 Sr0 3.467524 1_656
Sb7 Sr0 3.467522 1_555
Sb8 Sr0 3.465623 1_555
Sb9 Sr0 3.470119 1_666
Sb10 Sb9 2.969043 1_555
Sb10 Sr0 3.470123 1_655
Sb11 Sb9 2.948385 1_455
Sb11 Sr0 3.470123 1_566
Ru0 Sb3 2.609249 1_455
Ru0 Sb5 2.609249 1_554
Ru0 Sb0 2.625649 1_555
Ru0 Sb9 2.625649 1_454
Ru0 Sb2 2.631987 1_555
Ru0 Sb6 2.631987 1_454
Ru1 Sb5 2.609249 1_555
Ru1 Sb3 2.609249 1_445
Ru1 Sb11 2.625663 1_545
Ru1 Sb10 2.625663 1_455
Ru1 Sb7 2.631988 1_555
Ru1 Sb4 2.631988 1_445
