# generated using pymatgen
data_Zr10ZnIn6P
_symmetry_space_group_name_H-M   'P 1'
_cell_length_a   8.71295715
_cell_length_b   8.71295759
_cell_length_c   5.88312461
_cell_angle_alpha   90.00000000
_cell_angle_beta   90.00000000
_cell_angle_gamma   119.99999834
_symmetry_Int_Tables_number   1
_chemical_formula_structural   Zr10ZnIn6P
_chemical_formula_sum   'Zr10 Zn1 In6 P1'
_cell_volume   386.78521446
_cell_formula_units_Z   1
loop_
 _symmetry_equiv_pos_site_id
 _symmetry_equiv_pos_as_xyz
  1  'x, y, z'
loop_
 _atom_site_type_symbol
 _atom_site_label
 _atom_site_symmetry_multiplicity
 _atom_site_fract_x
 _atom_site_fract_y
 _atom_site_fract_z
 _atom_site_occupancy
  Zr  Zr0  1  0.33333300  0.66666700  0.00000000  1
  Zr  Zr1  1  0.66666700  0.33333300  0.50000000  1
  Zr  Zr2  1  0.66666700  0.33333300  0.00000000  1
  Zr  Zr3  1  0.33333300  0.66666700  0.50000000  1
  Zr  Zr4  1  0.25442575  0.00000000  0.23774256  1
  Zr  Zr5  1  0.25442575  0.25442575  0.76225744  1
  Zr  Zr6  1  1.00000000  0.74557425  0.76225744  1
  Zr  Zr7  1  0.00000000  0.25442575  0.23774256  1
  Zr  Zr8  1  0.74557425  0.74557425  0.23774256  1
  Zr  Zr9  1  0.74557425  0.00000000  0.76225744  1
  Zn  Zn0  1  0.00000000  0.00000000  0.50000000  1
  In  In0  1  0.61033649  0.00000000  0.25829074  1
  In  In1  1  0.61033649  0.61033649  0.74170926  1
  In  In2  1  1.00000000  0.38966351  0.74170926  1
  In  In3  1  0.00000000  0.61033649  0.25829074  1
  In  In4  1  0.38966351  0.38966351  0.25829074  1
  In  In5  1  0.38966351  0.00000000  0.74170926  1
  P  P0  1  0.00000000  0.00000000  0.00000000  1
loop_
_geom_bond_atom_site_label_1
_geom_bond_atom_site_label_2
_geom_bond_distance
_geom_bond_site_symmetry_2
Zr0 Zr3 2.941562 1_555
Zr0 Zr3 2.941562 1_554
Zr1 Zr2 2.941562 1_555
Zr1 Zr2 2.941562 1_556
Zn0 Zr4 2.700875 1_555
Zn0 Zr9 2.700875 1_455
Zn0 Zr5 2.700875 1_555
Zn0 Zr7 2.700875 1_555
Zn0 Zr6 2.700875 1_445
Zn0 Zr8 2.700875 1_445
In0 Zr8 2.988204 1_545
In0 Zr7 2.988204 1_655
In0 Zr1 3.045093 1_555
In0 Zr3 3.045095 1_545
In0 Zr2 3.091851 1_555
In0 Zr0 3.091853 1_545
In0 Zr4 3.103390 1_555
In0 Zr9 3.147139 1_554
In0 Zr9 3.190465 1_555
In1 Zr6 2.988204 1_555
In1 Zr9 2.988204 1_565
In1 Zr3 3.045100 1_555
In1 Zr1 3.045100 1_555
In1 Zr0 3.091858 1_556
In1 Zr2 3.091858 1_556
In1 Zr5 3.103391 1_555
In1 Zr8 3.147139 1_556
In1 Zr8 3.190465 1_555
In2 Zr5 2.988204 1_655
In2 Zr9 2.988204 1_555
In2 Zr1 3.045093 1_555
In2 Zr3 3.045095 1_655
In2 Zr2 3.091851 1_556
In2 Zr0 3.091853 1_656
In2 Zr6 3.103391 1_555
In2 Zr7 3.147139 1_656
In2 Zr7 3.190465 1_655
In3 Zr8 2.988204 1_455
In3 Zr4 2.988204 1_565
In3 Zr3 3.045093 1_555
In3 Zr1 3.045095 1_455
In3 Zr0 3.091851 1_555
In3 Zr2 3.091853 1_455
In3 Zr7 3.103391 1_555
In3 Zr6 3.147139 1_454
In3 Zr6 3.190465 1_455
In4 Zr7 2.988204 1_555
In4 Zr4 2.988204 1_555
In4 Zr1 3.045100 1_555
In4 Zr3 3.045100 1_555
In4 Zr2 3.091858 1_555
In4 Zr0 3.091858 1_555
In4 Zr8 3.103391 1_555
In4 Zr5 3.147139 1_554
In4 Zr5 3.190465 1_555
In5 Zr5 2.988204 1_555
In5 Zr6 2.988204 1_445
In5 Zr3 3.045093 1_545
In5 Zr1 3.045095 1_555
In5 Zr0 3.091851 1_546
In5 Zr2 3.091853 1_556
In5 Zr9 3.103390 1_555
In5 Zr4 3.147139 1_556
In5 Zr4 3.190465 1_555
P0 Zr4 2.621160 1_555
P0 Zr9 2.621160 1_454
P0 Zr7 2.621160 1_555
P0 Zr5 2.621160 1_554
P0 Zr6 2.621160 1_444
P0 Zr8 2.621160 1_445
P0 Zn0 2.941562 1_554
P0 Zn0 2.941562 1_555
