# generated using pymatgen
data_Sr3AgP2H
_symmetry_space_group_name_H-M   'P 1'
_cell_length_a   4.39738576
_cell_length_b   11.95131736
_cell_length_c   12.65832430
_cell_angle_alpha   90.00000000
_cell_angle_beta   90.00000000
_cell_angle_gamma   90.00000000
_symmetry_Int_Tables_number   1
_chemical_formula_structural   Sr3AgP2H
_chemical_formula_sum   'Sr12 Ag4 P8 H4'
_cell_volume   665.25257202
_cell_formula_units_Z   4
loop_
 _symmetry_equiv_pos_site_id
 _symmetry_equiv_pos_as_xyz
  1  'x, y, z'
loop_
 _atom_site_type_symbol
 _atom_site_label
 _atom_site_symmetry_multiplicity
 _atom_site_fract_x
 _atom_site_fract_y
 _atom_site_fract_z
 _atom_site_occupancy
  Sr  Sr0  1  0.25000000  0.06718159  0.62108932  1
  Sr  Sr1  1  0.25000000  0.56718159  0.87891068  1
  Sr  Sr2  1  0.75000000  0.93281841  0.37891068  1
  Sr  Sr3  1  0.75000000  0.43281841  0.12108932  1
  Sr  Sr4  1  0.25000000  0.20278599  0.30000274  1
  Sr  Sr5  1  0.25000000  0.70278599  0.19999726  1
  Sr  Sr6  1  0.75000000  0.79721401  0.69999726  1
  Sr  Sr7  1  0.75000000  0.29721401  0.80000274  1
  Sr  Sr8  1  0.25000000  0.36936129  0.55632532  1
  Sr  Sr9  1  0.25000000  0.86936129  0.94367468  1
  Sr  Sr10  1  0.75000000  0.63063871  0.44367468  1
  Sr  Sr11  1  0.75000000  0.13063871  0.05632532  1
  Ag  Ag0  1  0.25000000  0.12568858  0.86909259  1
  Ag  Ag1  1  0.25000000  0.62568858  0.63090741  1
  Ag  Ag2  1  0.75000000  0.87431142  0.13090741  1
  Ag  Ag3  1  0.75000000  0.37431142  0.36909259  1
  P  P0  1  0.25000000  0.31491005  0.98248408  1
  P  P1  1  0.25000000  0.81491005  0.51751592  1
  P  P2  1  0.75000000  0.68508995  0.01751592  1
  P  P3  1  0.75000000  0.18508995  0.48248408  1
  P  P4  1  0.25000000  0.47602271  0.32072490  1
  P  P5  1  0.25000000  0.97602271  0.17927510  1
  P  P6  1  0.75000000  0.52397729  0.67927510  1
  P  P7  1  0.75000000  0.02397729  0.82072490  1
  H  H0  1  0.25000000  0.25097823  0.71357399  1
  H  H1  1  0.25000000  0.75097823  0.78642601  1
  H  H2  1  0.75000000  0.74902177  0.28642601  1
  H  H3  1  0.75000000  0.24902177  0.21357399  1
loop_
_geom_bond_atom_site_label_1
_geom_bond_atom_site_label_2
_geom_bond_distance
_geom_bond_site_symmetry_2
Ag0 H0 2.473366 1_555
Ag0 P7 2.585875 1_555
Ag0 P7 2.585875 1_455
Ag0 P0 2.678499 1_555
Ag0 Sr7 3.130723 1_455
Ag0 Sr7 3.130723 1_555
Ag0 Sr9 3.205622 1_545
Ag0 Sr0 3.216236 1_555
Ag0 Sr11 3.233404 1_556
Ag0 Sr11 3.233404 1_456
Ag1 H1 2.473366 1_555
Ag1 P6 2.585875 1_455
Ag1 P6 2.585875 1_555
Ag1 P1 2.678499 1_555
Ag1 Sr6 3.130723 1_455
Ag1 Sr6 3.130723 1_555
Ag1 Sr8 3.205622 1_555
Ag1 Sr1 3.216236 1_555
Ag1 Sr10 3.233404 1_455
Ag1 Sr10 3.233404 1_555
Ag2 H2 2.473366 1_555
Ag2 P5 2.585875 1_655
Ag2 P5 2.585875 1_555
Ag2 P2 2.678499 1_555
Ag2 Sr5 3.130723 1_555
Ag2 Sr5 3.130723 1_655
Ag2 Sr11 3.205622 1_565
Ag2 Sr2 3.216236 1_555
Ag2 Sr9 3.233404 1_554
Ag2 Sr9 3.233404 1_654
Ag3 H3 2.473366 1_555
Ag3 P4 2.585875 1_555
Ag3 P4 2.585875 1_655
Ag3 P3 2.678499 1_555
Ag3 Sr4 3.130723 1_655
Ag3 Sr4 3.130723 1_555
Ag3 Sr10 3.205622 1_555
Ag3 Sr3 3.216236 1_555
Ag3 Sr8 3.233404 1_555
Ag3 Sr8 3.233404 1_655
P0 Sr3 3.146155 1_456
P0 Sr3 3.146155 1_556
P0 Sr7 3.196037 1_455
P0 Sr7 3.196037 1_555
P0 Sr11 3.249306 1_456
P0 Sr11 3.249306 1_556
P0 Sr1 3.287701 1_555
P1 Sr2 3.146155 1_455
P1 Sr2 3.146155 1_555
P1 Sr6 3.196037 1_455
P1 Sr6 3.196037 1_555
P1 Sr10 3.249306 1_455
P1 Sr10 3.249306 1_555
P1 Sr0 3.287701 1_565
P2 Sr1 3.146155 1_654
P2 Sr1 3.146155 1_554
P2 Sr5 3.196037 1_555
P2 Sr5 3.196037 1_655
P2 Sr9 3.249306 1_654
P2 Sr9 3.249306 1_554
P2 Sr3 3.287701 1_555
P3 Sr0 3.146155 1_555
P3 Sr0 3.146155 1_655
P3 Sr4 3.196037 1_555
P3 Sr4 3.196037 1_655
P3 Sr8 3.249306 1_555
P3 Sr8 3.249306 1_655
P3 Sr2 3.287701 1_545
P4 Sr5 3.111298 1_555
P4 Sr8 3.243320 1_555
P4 Sr10 3.266656 1_455
P4 Sr10 3.266656 1_555
P4 Sr4 3.276057 1_555
P4 Sr3 3.389227 1_555
P4 Sr3 3.389227 1_455
P5 Sr4 3.111298 1_565
P5 Sr9 3.243320 1_554
P5 Sr11 3.266656 1_465
P5 Sr11 3.266656 1_565
P5 Sr5 3.276057 1_555
P5 Sr2 3.389227 1_455
P5 Sr2 3.389227 1_555
P6 Sr7 3.111298 1_555
P6 Sr10 3.243320 1_555
P6 Sr8 3.266656 1_555
P6 Sr8 3.266656 1_655
P6 Sr6 3.276057 1_555
P6 Sr1 3.389227 1_555
P6 Sr1 3.389227 1_655
P7 Sr6 3.111298 1_545
P7 Sr11 3.243320 1_556
P7 Sr9 3.266656 1_645
P7 Sr9 3.266656 1_545
P7 Sr7 3.276057 1_555
P7 Sr0 3.389227 1_655
P7 Sr0 3.389227 1_555
H0 Sr8 2.442102 1_555
H0 Sr0 2.489105 1_555
H0 Sr7 2.517245 1_455
H0 Sr7 2.517245 1_555
H1 Sr9 2.442102 1_555
H1 Sr1 2.489105 1_555
H1 Sr6 2.517245 1_455
H1 Sr6 2.517245 1_555
H2 Sr10 2.442102 1_555
H2 Sr2 2.489105 1_555
H2 Sr5 2.517245 1_655
H2 Sr5 2.517245 1_555
H3 Sr11 2.442102 1_555
H3 Sr3 2.489105 1_555
H3 Sr4 2.517245 1_555
H3 Sr4 2.517245 1_655
