# generated using pymatgen
data_Ba2GeAs3Ir4
_symmetry_space_group_name_H-M   'P 1'
_cell_length_a   7.10155774
_cell_length_b   7.10149265
_cell_length_c   5.79522230
_cell_angle_alpha   90.00000000
_cell_angle_beta   90.00000000
_cell_angle_gamma   131.87623008
_symmetry_Int_Tables_number   1
_chemical_formula_structural   Ba2GeAs3Ir4
_chemical_formula_sum   'Ba2 Ge1 As3 Ir4'
_cell_volume   217.61544361
_cell_formula_units_Z   1
loop_
 _symmetry_equiv_pos_site_id
 _symmetry_equiv_pos_as_xyz
  1  'x, y, z'
loop_
 _atom_site_type_symbol
 _atom_site_label
 _atom_site_symmetry_multiplicity
 _atom_site_fract_x
 _atom_site_fract_y
 _atom_site_fract_z
 _atom_site_occupancy
  Ba  Ba0  1  0.49822600  0.50177557  0.50000000  1
  Ba  Ba1  1  0.99750825  0.00249416  0.00000000  1
  Ge  Ge0  1  0.14296270  0.85703311  0.50000000  1
  As  As0  1  0.64389468  0.35610131  0.00000000  1
  As  As1  1  0.35411190  0.64589602  0.00000000  1
  As  As2  1  0.85248995  0.14751045  0.50000000  1
  Ir  Ir0  1  0.49929897  0.00094538  0.24888248  1
  Ir  Ir1  1  0.99905529  0.50069831  0.75111478  1
  Ir  Ir2  1  0.99905529  0.50069831  0.24888522  1
  Ir  Ir3  1  0.49929897  0.00094538  0.75111752  1
loop_
_geom_bond_atom_site_label_1
_geom_bond_atom_site_label_2
_geom_bond_distance
_geom_bond_site_symmetry_2
Ba0 Ge0 3.450677 1_545
Ba0 Ge0 3.450688 1_655
Ba1 Ge0 3.457564 1_644
Ba1 Ge0 3.457564 1_645
Ge0 Ir1 2.472474 1_455
Ge0 Ir2 2.472474 1_455
Ge0 Ir3 2.472502 1_565
Ge0 Ir0 2.472502 1_565
As0 Ir0 2.457300 1_555
As0 Ir3 2.457300 1_554
As0 Ir2 2.457352 1_555
As0 Ir1 2.457352 1_554
As0 Ba0 3.459077 1_554
As0 Ba0 3.459077 1_555
As0 Ba1 3.462366 1_565
As0 Ba1 3.462374 1_455
As1 Ir0 2.455616 1_565
As1 Ir3 2.455616 1_564
As1 Ir2 2.455663 1_455
As1 Ir1 2.455663 1_454
As1 Ba1 3.441251 1_455
As1 Ba1 3.441263 1_565
As1 Ba0 3.448110 1_555
As1 Ba0 3.448110 1_554
As2 Ir1 2.450867 1_555
As2 Ir2 2.450867 1_555
As2 Ir3 2.450913 1_555
As2 Ir0 2.450913 1_555
As2 Ba1 3.454451 1_556
As2 Ba1 3.454451 1_555
As2 Ba0 3.457703 1_545
As2 Ba0 3.457748 1_655
