# generated using pymatgen
data_Hf16Tc3Ni4Rh
_symmetry_space_group_name_H-M   'P 1'
_cell_length_a   8.57430626
_cell_length_b   8.57430602
_cell_length_c   8.57430725
_cell_angle_alpha   60.07128349
_cell_angle_beta   60.07128458
_cell_angle_gamma   60.07128483
_symmetry_Int_Tables_number   1
_chemical_formula_structural   Hf16Tc3Ni4Rh
_chemical_formula_sum   'Hf16 Tc3 Ni4 Rh1'
_cell_volume   446.46049549
_cell_formula_units_Z   1
loop_
 _symmetry_equiv_pos_site_id
 _symmetry_equiv_pos_as_xyz
  1  'x, y, z'
loop_
 _atom_site_type_symbol
 _atom_site_label
 _atom_site_symmetry_multiplicity
 _atom_site_fract_x
 _atom_site_fract_y
 _atom_site_fract_z
 _atom_site_occupancy
  Hf  Hf0  1  0.68162308  0.10607468  0.10607468  1
  Hf  Hf1  1  0.10607468  0.68162308  0.10607468  1
  Hf  Hf2  1  0.10607468  0.10607468  0.68162308  1
  Hf  Hf3  1  0.10431867  0.10431867  0.10431867  1
  Hf  Hf4  1  0.31555446  0.31555446  0.68926893  1
  Hf  Hf5  1  0.68544475  0.68544475  0.31522450  1
  Hf  Hf6  1  0.31555446  0.68926893  0.31555446  1
  Hf  Hf7  1  0.68544475  0.31522450  0.68544475  1
  Hf  Hf8  1  0.68926893  0.31555446  0.31555446  1
  Hf  Hf9  1  0.31522450  0.68544475  0.68544475  1
  Hf  Hf10  1  0.95102961  0.95102961  0.54886074  1
  Hf  Hf11  1  0.55086262  0.55086262  0.94796333  1
  Hf  Hf12  1  0.95102961  0.54886074  0.95102961  1
  Hf  Hf13  1  0.55086262  0.94796333  0.55086262  1
  Hf  Hf14  1  0.54886074  0.95102961  0.95102961  1
  Hf  Hf15  1  0.94796333  0.55086262  0.55086262  1
  Tc  Tc0  1  0.99626117  0.33330477  0.33330477  1
  Tc  Tc1  1  0.33330477  0.99626117  0.33330477  1
  Tc  Tc2  1  0.33330477  0.33330477  0.99626117  1
  Ni  Ni0  1  0.32092107  0.89191456  0.89191456  1
  Ni  Ni1  1  0.89191456  0.32092107  0.89191456  1
  Ni  Ni2  1  0.89191456  0.89191456  0.32092107  1
  Ni  Ni3  1  0.89358713  0.89358713  0.89358713  1
  Rh  Rh0  1  0.33359846  0.33359846  0.33359846  1
loop_
_geom_bond_atom_site_label_1
_geom_bond_atom_site_label_2
_geom_bond_distance
_geom_bond_site_symmetry_2
Hf0 Ni3 2.577988 1_544
Hf0 Ni1 2.579109 1_554
Hf0 Ni2 2.579110 1_545
Hf0 Rh0 2.948918 1_555
Hf0 Tc1 2.961661 1_545
Hf0 Tc2 2.961661 1_554
Hf0 Hf5 3.116336 1_545
Hf0 Hf7 3.116337 1_554
Hf1 Ni3 2.577988 1_454
Hf1 Ni0 2.579109 1_554
Hf1 Ni2 2.579110 1_455
Hf1 Rh0 2.948918 1_555
Hf1 Tc0 2.961661 1_455
Hf1 Tc2 2.961661 1_554
Hf1 Hf5 3.116336 1_455
Hf1 Hf9 3.116337 1_554
Hf2 Ni3 2.577988 1_445
Hf2 Ni0 2.579110 1_545
Hf2 Ni1 2.579110 1_455
Hf2 Rh0 2.948918 1_555
Hf2 Tc0 2.961661 1_455
Hf2 Tc1 2.961661 1_545
Hf2 Hf9 3.116336 1_545
Hf2 Hf7 3.116336 1_455
Hf3 Ni2 2.577285 1_445
Hf3 Ni1 2.577285 1_454
Hf3 Ni0 2.577285 1_544
Hf3 Tc2 2.963867 1_554
Hf3 Tc0 2.963867 1_455
Hf3 Tc1 2.963867 1_545
Hf4 Tc2 2.792431 1_555
Hf4 Rh0 2.903511 1_555
Hf4 Hf9 3.153918 1_555
Hf4 Hf7 3.153918 1_555
Hf5 Tc0 2.856362 1_555
Hf5 Tc1 2.856362 1_555
Hf5 Ni2 3.093616 1_555
Hf5 Ni3 3.121231 1_554
Hf5 Hf8 3.153918 1_555
Hf5 Hf6 3.153918 1_555
Hf5 Hf7 3.177802 1_555
Hf5 Hf9 3.177802 1_555
Hf6 Tc1 2.792430 1_555
Hf6 Rh0 2.903511 1_555
Hf6 Hf9 3.153918 1_555
Hf7 Tc2 2.856362 1_555
Hf7 Tc0 2.856362 1_555
Hf7 Ni1 3.093616 1_555
Hf7 Ni3 3.121231 1_545
Hf7 Hf8 3.153918 1_555
Hf7 Hf9 3.177801 1_555
Hf8 Tc0 2.792430 1_555
Hf8 Rh0 2.903511 1_555
Hf9 Tc2 2.856362 1_555
Hf9 Tc1 2.856362 1_555
Hf9 Ni0 3.093616 1_555
Hf9 Ni3 3.121231 1_455
Hf10 Ni3 2.560972 1_555
Hf10 Ni2 2.562613 1_555
Hf10 Tc0 2.969549 1_565
Hf10 Tc1 2.969549 1_655
Hf10 Hf7 3.193878 1_565
Hf10 Hf9 3.193878 1_655
Hf11 Ni0 2.541582 1_555
Hf11 Ni1 2.541582 1_555
Hf11 Rh0 3.007317 1_556
Hf11 Tc2 3.010242 1_555
Hf11 Hf7 3.178065 1_555
Hf11 Hf9 3.178065 1_555
Hf12 Ni3 2.560971 1_555
Hf12 Ni1 2.562613 1_555
Hf12 Tc2 2.969549 1_655
Hf12 Tc0 2.969549 1_556
Hf12 Hf9 3.193878 1_655
Hf12 Hf5 3.193878 1_556
Hf13 Ni2 2.541582 1_555
Hf13 Ni0 2.541582 1_555
Hf13 Rh0 3.007317 1_565
Hf13 Tc1 3.010242 1_555
Hf13 Hf9 3.178065 1_555
Hf13 Hf5 3.178065 1_555
Hf14 Ni3 2.560972 1_555
Hf14 Ni0 2.562613 1_555
Hf14 Tc2 2.969549 1_565
Hf14 Tc1 2.969549 1_556
Hf14 Hf7 3.193878 1_565
Hf14 Hf5 3.193878 1_556
Hf15 Ni2 2.541582 1_555
Hf15 Ni1 2.541582 1_555
Hf15 Rh0 3.007317 1_655
Hf15 Tc0 3.010242 1_555
Hf15 Hf7 3.178065 1_555
Hf15 Hf5 3.178065 1_555
Tc0 Tc1 2.893028 1_645
Tc0 Tc2 2.893028 1_654
Tc1 Tc2 2.893028 1_564
Rh0 Tc1 2.894948 1_545
Rh0 Tc0 2.894948 1_455
Rh0 Tc2 2.894949 1_554
