# generated using pymatgen
data_Y2MgAl8Ru5
_symmetry_space_group_name_H-M   'P 1'
_cell_length_a   8.00631778
_cell_length_b   8.00631758
_cell_length_c   8.00631662
_cell_angle_alpha   134.87428820
_cell_angle_beta   134.87429042
_cell_angle_gamma   65.72558804
_symmetry_Int_Tables_number   1
_chemical_formula_structural   Y2MgAl8Ru5
_chemical_formula_sum   'Y2 Mg1 Al8 Ru5'
_cell_volume   253.86311211
_cell_formula_units_Z   1
loop_
 _symmetry_equiv_pos_site_id
 _symmetry_equiv_pos_as_xyz
  1  'x, y, z'
loop_
 _atom_site_type_symbol
 _atom_site_label
 _atom_site_symmetry_multiplicity
 _atom_site_fract_x
 _atom_site_fract_y
 _atom_site_fract_z
 _atom_site_occupancy
  Y  Y0  1  0.00000000  0.50000000  0.50000000  1
  Y  Y1  1  0.50000000  0.00000000  0.50000000  1
  Mg  Mg0  1  0.00000000  0.00000000  0.00000000  1
  Al  Al0  1  0.43903121  0.86424507  1.00000000  1
  Al  Al1  1  0.13575493  0.13575493  0.57478614  1
  Al  Al2  1  0.86424507  0.43903121  1.00000000  1
  Al  Al3  1  0.86424507  0.86424507  0.42521386  1
  Al  Al4  1  0.56096879  0.13575493  0.00000000  1
  Al  Al5  1  0.13575493  0.56096879  0.00000000  1
  Al  Al6  1  0.56096879  0.56096879  0.42521386  1
  Al  Al7  1  0.43903121  0.43903121  0.57478614  1
  Ru  Ru0  1  0.19536742  0.19536742  1.00000000  1
  Ru  Ru1  1  0.80463258  0.80463258  0.00000000  1
  Ru  Ru2  1  0.25000000  0.75000000  0.50000000  1
  Ru  Ru3  1  0.75000000  0.25000000  0.50000000  1
  Ru  Ru4  1  0.50000000  0.50000000  0.00000000  1
loop_
_geom_bond_atom_site_label_1
_geom_bond_atom_site_label_2
_geom_bond_distance
_geom_bond_site_symmetry_2
Mg0 Ru0 2.627725 1_554
Mg0 Ru1 2.627725 1_445
Mg0 Y1 3.071998 1_454
Mg0 Y1 3.071998 1_555
Mg0 Y0 3.071998 1_544
Mg0 Y0 3.071998 1_555
Al0 Ru2 2.564066 1_555
Al0 Ru3 2.564066 1_566
Al0 Ru0 2.565468 1_565
Al0 Al3 2.612512 1_556
Al0 Al7 2.612512 1_555
Al0 Al4 2.724592 1_566
Al0 Ru4 2.751801 1_556
Al0 Ru1 2.765349 1_556
Al0 Y1 2.997323 1_566
Al0 Y0 2.997324 1_555
Al0 Mg0 3.224204 1_566
Al1 Ru2 2.564066 1_545
Al1 Ru3 2.564066 1_455
Al1 Ru1 2.565468 1_445
Al1 Al4 2.612512 1_556
Al1 Al5 2.612512 1_556
Al1 Al3 2.724592 1_445
Al1 Ru4 2.751802 1_556
Al1 Ru0 2.765349 1_555
Al1 Y0 2.997324 1_555
Al1 Y1 2.997324 1_555
Al1 Mg0 3.224203 1_555
Al2 Ru3 2.564066 1_555
Al2 Ru2 2.564066 1_656
Al2 Ru0 2.565468 1_655
Al2 Al7 2.612512 1_555
Al2 Al3 2.612512 1_556
Al2 Al5 2.724592 1_656
Al2 Ru4 2.751801 1_556
Al2 Ru1 2.765349 1_556
Al2 Y0 2.997323 1_656
Al2 Y1 2.997324 1_555
Al2 Mg0 3.224204 1_656
Al3 Ru3 2.564066 1_565
Al3 Ru2 2.564066 1_655
Al3 Ru0 2.565468 1_665
Al3 Ru4 2.751802 1_555
Al3 Ru1 2.765349 1_555
Al3 Y0 2.997324 1_655
Al3 Y1 2.997324 1_565
Al3 Mg0 3.224203 1_666
Al4 Ru3 2.564066 1_555
Al4 Ru2 2.564066 1_544
Al4 Ru1 2.565468 1_545
Al4 Al6 2.612512 1_555
Al4 Ru4 2.751801 1_555
Al4 Ru0 2.765349 1_554
Al4 Y1 2.997323 1_554
Al4 Y0 2.997324 1_655
Al4 Mg0 3.224204 1_655
Al5 Ru2 2.564066 1_555
Al5 Ru3 2.564066 1_454
Al5 Ru1 2.565468 1_455
Al5 Al6 2.612512 1_555
Al5 Ru4 2.751801 1_555
Al5 Ru0 2.765349 1_554
Al5 Y0 2.997323 1_554
Al5 Y1 2.997324 1_565
Al5 Mg0 3.224204 1_565
Al6 Ru3 2.564066 1_555
Al6 Ru2 2.564066 1_555
Al6 Ru1 2.565468 1_556
Al6 Al7 2.724592 1_555
Al6 Ru4 2.751801 1_555
Al6 Ru0 2.765349 1_554
Al6 Y1 2.997324 1_565
Al6 Y0 2.997324 1_655
Al6 Mg0 3.224204 1_666
Al7 Ru2 2.564066 1_555
Al7 Ru3 2.564066 1_555
Al7 Ru0 2.565468 1_554
Al7 Ru4 2.751801 1_556
Al7 Ru1 2.765349 1_556
Al7 Y1 2.997324 1_555
Al7 Y0 2.997324 1_555
Al7 Mg0 3.224204 1_555
Ru4 Y0 3.071998 1_655
Ru4 Y0 3.071998 1_554
Ru4 Y1 3.071998 1_554
Ru4 Y1 3.071998 1_565
