# generated using pymatgen
data_Al2TeSeBr14
_symmetry_space_group_name_H-M   'P 1'
_cell_length_a   6.70732137
_cell_length_b   6.86816041
_cell_length_c   14.87081679
_cell_angle_alpha   77.45557938
_cell_angle_beta   89.75855153
_cell_angle_gamma   89.50019288
_symmetry_Int_Tables_number   1
_chemical_formula_structural   Al2TeSeBr14
_chemical_formula_sum   'Al2 Te1 Se1 Br14'
_cell_volume   668.67232458
_cell_formula_units_Z   1
loop_
 _symmetry_equiv_pos_site_id
 _symmetry_equiv_pos_as_xyz
  1  'x, y, z'
loop_
 _atom_site_type_symbol
 _atom_site_label
 _atom_site_symmetry_multiplicity
 _atom_site_fract_x
 _atom_site_fract_y
 _atom_site_fract_z
 _atom_site_occupancy
  Al  Al0  1  0.99224452  0.68981045  0.67017327  1
  Al  Al1  1  0.01368402  0.70683275  0.15656097  1
  Te  Te0  1  0.57831945  0.97781454  0.50950117  1
  Se  Se0  1  0.41760465  0.00638975  0.00423236  1
  Br  Br0  1  0.37254649  0.86069520  0.39322219  1
  Br  Br1  1  0.36413146  0.26215335  0.53322681  1
  Br  Br2  1  0.19126531  0.19887689  0.90095966  1
  Br  Br3  1  0.81277595  0.18300332  0.39823046  1
  Br  Br4  1  0.11375733  0.02921650  0.15886854  1
  Br  Br5  1  0.60144080  0.26394912  0.04328097  1
  Br  Br6  1  0.13605525  0.64364850  0.01889378  1
  Br  Br7  1  0.88468837  0.61582485  0.53259221  1
  Br  Br8  1  0.67097790  0.67797618  0.16153694  1
  Br  Br9  1  0.33550304  0.67405945  0.67879136  1
  Br  Br10  1  0.15368859  0.49070205  0.27977457  1
  Br  Br11  1  0.85215230  0.47219655  0.79265184  1
  Br  Br12  1  0.62882330  0.90614421  0.89673156  1
  Br  Br13  1  0.88034128  0.01130232  0.67056633  1
loop_
_geom_bond_atom_site_label_1
_geom_bond_atom_site_label_2
_geom_bond_distance
_geom_bond_site_symmetry_2
Al0 Br11 2.293837 1_555
Al0 Br9 2.306738 1_655
Al0 Br13 2.327137 1_565
Al0 Br7 2.331304 1_555
Al1 Br10 2.291569 1_555
Al1 Br8 2.308386 1_455
Al1 Br4 2.326683 1_565
Al1 Br6 2.327805 1_555
Br0 Te0 2.487099 1_555
Br1 Te0 2.499645 1_545
Br2 Se0 2.348127 1_556
Br3 Te0 2.490139 1_545
Br5 Se0 2.340325 1_555
Br7 Te0 3.172973 1_555
Br12 Se0 2.340667 1_566
