# generated using pymatgen
data_P2Ru2Rh
_symmetry_space_group_name_H-M   'P 1'
_cell_length_a   3.82589823
_cell_length_b   3.82589762
_cell_length_c   5.46899537
_cell_angle_alpha   90.00000000
_cell_angle_beta   90.00000000
_cell_angle_gamma   119.99998855
_symmetry_Int_Tables_number   1
_chemical_formula_structural   P2Ru2Rh
_chemical_formula_sum   'P2 Ru2 Rh1'
_cell_volume   69.32741315
_cell_formula_units_Z   1
loop_
 _symmetry_equiv_pos_site_id
 _symmetry_equiv_pos_as_xyz
  1  'x, y, z'
loop_
 _atom_site_type_symbol
 _atom_site_label
 _atom_site_symmetry_multiplicity
 _atom_site_fract_x
 _atom_site_fract_y
 _atom_site_fract_z
 _atom_site_occupancy
  P  P0  1  0.66666700  0.33333400  0.23950723  1
  P  P1  1  0.33333300  0.66666700  0.76049477  1
  Ru  Ru0  1  0.33333300  0.66666700  0.33226804  1
  Ru  Ru1  1  0.66666700  0.33333400  0.66772996  1
  Rh  Rh0  1  0.00000000  0.00000000  0.00000000  1
loop_
_geom_bond_atom_site_label_1
_geom_bond_atom_site_label_2
_geom_bond_distance
_geom_bond_site_symmetry_2
P0 Ru0 2.266389 1_655
P0 Ru0 2.266392 1_555
P0 Ru0 2.266392 1_545
P0 Ru1 2.341948 1_555
P0 Rh0 2.568054 1_665
P0 Rh0 2.568056 1_655
P0 Rh0 2.568057 1_555
P1 Ru1 2.266394 1_455
P1 Ru1 2.266397 1_555
P1 Ru1 2.266397 1_565
P1 Ru0 2.341970 1_555
P1 Rh0 2.568048 1_566
P1 Rh0 2.568051 1_556
P1 Rh0 2.568051 1_666
Rh0 Ru0 2.860292 1_545
Rh0 Ru0 2.860295 1_555
Rh0 Ru0 2.860295 1_445
Rh0 Ru1 2.860299 1_444
Rh0 Ru1 2.860301 1_454
Rh0 Ru1 2.860302 1_554
