# generated using pymatgen
data_Ta8VGaTe8
_symmetry_space_group_name_H-M   'P 1'
_cell_length_a   4.85700177
_cell_length_b   10.99553695
_cell_length_c   19.16697394
_cell_angle_alpha   90.00000000
_cell_angle_beta   90.00000000
_cell_angle_gamma   90.00000000
_symmetry_Int_Tables_number   1
_chemical_formula_structural   Ta8VGaTe8
_chemical_formula_sum   'Ta16 V2 Ga2 Te16'
_cell_volume   1023.61880576
_cell_formula_units_Z   2
loop_
 _symmetry_equiv_pos_site_id
 _symmetry_equiv_pos_as_xyz
  1  'x, y, z'
loop_
 _atom_site_type_symbol
 _atom_site_label
 _atom_site_symmetry_multiplicity
 _atom_site_fract_x
 _atom_site_fract_y
 _atom_site_fract_z
 _atom_site_occupancy
  Ta  Ta0  1  0.49730052  0.56434394  0.38230734  1
  Ta  Ta1  1  0.49730052  0.43565606  0.61769266  1
  Ta  Ta2  1  0.50269948  0.06434394  0.11769266  1
  Ta  Ta3  1  0.50269948  0.93565606  0.88230734  1
  Ta  Ta4  1  0.49729395  0.70594308  0.53656577  1
  Ta  Ta5  1  0.49729395  0.29405692  0.46343423  1
  Ta  Ta6  1  0.50270605  0.20594308  0.96343423  1
  Ta  Ta7  1  0.50270605  0.79405692  0.03656577  1
  Ta  Ta8  1  0.00117093  0.69092297  0.44250187  1
  Ta  Ta9  1  0.00117093  0.30907703  0.55749813  1
  Ta  Ta10  1  0.99882907  0.19092297  0.05749813  1
  Ta  Ta11  1  0.99882907  0.80907703  0.94250187  1
  Ta  Ta12  1  0.00067533  0.40008848  0.39089680  1
  Ta  Ta13  1  0.00067533  0.59991152  0.60910320  1
  Ta  Ta14  1  0.99932467  0.90008848  0.10910320  1
  Ta  Ta15  1  0.99932467  0.09991152  0.89089680  1
  V  V0  1  0.74919798  0.50000000  0.50000000  1
  V  V1  1  0.25080202  0.00000000  0.00000000  1
  Ga  Ga0  1  0.24941704  0.50000000  0.50000000  1
  Ga  Ga1  1  0.75058296  0.00000000  0.00000000  1
  Te  Te0  1  0.99570342  0.84656462  0.56229732  1
  Te  Te1  1  0.99570342  0.15343538  0.43770268  1
  Te  Te2  1  0.00429658  0.34656462  0.93770268  1
  Te  Te3  1  0.00429658  0.65343538  0.06229732  1
  Te  Te4  1  0.50198275  0.33188517  0.31613387  1
  Te  Te5  1  0.50198275  0.66811483  0.68386613  1
  Te  Te6  1  0.49801725  0.83188517  0.18386613  1
  Te  Te7  1  0.49801725  0.16811483  0.81613387  1
  Te  Te8  1  0.50191960  0.82229171  0.40313887  1
  Te  Te9  1  0.50191960  0.17770829  0.59686113  1
  Te  Te10  1  0.49808040  0.32229171  0.09686113  1
  Te  Te11  1  0.49808040  0.67770829  0.90313887  1
  Te  Te12  1  0.99603521  0.60745694  0.30122193  1
  Te  Te13  1  0.99603521  0.39254306  0.69877807  1
  Te  Te14  1  0.00396479  0.10745694  0.19877807  1
  Te  Te15  1  0.00396479  0.89254306  0.80122193  1
loop_
_geom_bond_atom_site_label_1
_geom_bond_atom_site_label_2
_geom_bond_distance
_geom_bond_site_symmetry_2
Ta0 V0 2.661975 1_555
Ta0 Te4 2.853489 1_555
Ta0 Te8 2.864328 1_555
Ta0 Te12 2.916839 1_555
Ta0 Te12 2.927054 1_455
Ta1 V0 2.661975 1_555
Ta1 Te5 2.853489 1_555
Ta1 Te9 2.864328 1_555
Ta1 Te13 2.916839 1_555
Ta1 Te13 2.927054 1_455
Ta2 V1 2.661975 1_555
Ta2 Te6 2.853489 1_545
Ta2 Te10 2.864328 1_555
Ta2 Te14 2.916839 1_555
Ta2 Te14 2.927054 1_655
Ta3 V1 2.661975 1_566
Ta3 Te7 2.853489 1_565
Ta3 Te11 2.864328 1_555
Ta3 Te15 2.916839 1_555
Ta3 Te15 2.927054 1_655
Ta4 V0 2.667565 1_555
Ta4 Te5 2.853868 1_555
Ta4 Te8 2.859615 1_555
Ta4 Te0 2.914474 1_555
Ta4 Te0 2.927320 1_455
Ta5 V0 2.667565 1_555
Ta5 Te4 2.853868 1_555
Ta5 Te9 2.859615 1_555
Ta5 Te1 2.914474 1_555
Ta5 Te1 2.927320 1_455
Ta6 V1 2.667565 1_556
Ta6 Te7 2.853868 1_555
Ta6 Te10 2.859615 1_556
Ta6 Te2 2.914474 1_555
Ta6 Te2 2.927320 1_655
Ta7 V1 2.667565 1_565
Ta7 Te6 2.853868 1_555
Ta7 Te11 2.859615 1_554
Ta7 Te3 2.914474 1_555
Ta7 Te3 2.927320 1_655
Ta8 V0 2.668216 1_455
Ta8 Te12 2.859312 1_455
Ta8 Te0 2.863847 1_455
Ta8 Te8 2.921590 1_455
Ta8 Te8 2.927629 1_555
Ta9 V0 2.668216 1_455
Ta9 Te13 2.859312 1_455
Ta9 Te1 2.863847 1_455
Ta9 Te9 2.921590 1_455
Ta9 Te9 2.927629 1_555
Ta10 V1 2.668216 1_655
Ta10 Te14 2.859312 1_655
Ta10 Te2 2.863847 1_654
Ta10 Te10 2.921590 1_655
Ta10 Te10 2.927629 1_555
Ta11 V1 2.668216 1_666
Ta11 Te15 2.859312 1_655
Ta11 Te3 2.863847 1_656
Ta11 Te11 2.921590 1_655
Ta11 Te11 2.927629 1_555
Ta12 V0 2.659283 1_455
Ta12 Te12 2.855477 1_455
Ta12 Te1 2.856714 1_455
Ta12 Te4 2.912498 1_455
Ta12 Te4 2.923068 1_555
Ta13 V0 2.659283 1_455
Ta13 Te13 2.855477 1_455
Ta13 Te0 2.856714 1_455
Ta13 Te5 2.912498 1_455
Ta13 Te5 2.923068 1_555
Ta14 V1 2.659283 1_665
Ta14 Te14 2.855477 1_665
Ta14 Te3 2.856714 1_655
Ta14 Te6 2.912498 1_655
Ta14 Te6 2.923068 1_555
Ta15 V1 2.659283 1_656
Ta15 Te15 2.855477 1_645
Ta15 Te2 2.856714 1_655
Ta15 Te7 2.912498 1_655
Ta15 Te7 2.923068 1_555
Ga0 V0 2.427437 1_555
Ga0 V0 2.429565 1_455
Ga0 Ta1 2.653071 1_555
Ga0 Ta0 2.653071 1_555
Ga0 Ta13 2.653207 1_555
Ga0 Ta12 2.653207 1_555
Ga0 Ta5 2.658650 1_555
Ga0 Ta4 2.658650 1_555
Ga0 Ta8 2.659962 1_555
Ga0 Ta9 2.659962 1_555
Ga1 V1 2.427437 1_555
Ga1 V1 2.429565 1_655
Ga1 Ta2 2.653071 1_555
Ga1 Ta3 2.653071 1_544
Ga1 Ta14 2.653207 1_545
Ga1 Ta15 2.653207 1_554
Ga1 Ta7 2.658650 1_545
Ga1 Ta6 2.658650 1_554
Ga1 Ta10 2.659962 1_555
Ga1 Ta11 2.659962 1_544
