# generated using pymatgen
data_Ba2Si3GeRh6
_symmetry_space_group_name_H-M   'P 1'
_cell_length_a   5.84308025
_cell_length_b   6.85031915
_cell_length_c   6.85031934
_cell_angle_alpha   62.47104347
_cell_angle_beta   64.66131212
_cell_angle_gamma   64.66130822
_symmetry_Int_Tables_number   1
_chemical_formula_structural   Ba2Si3GeRh6
_chemical_formula_sum   'Ba2 Si3 Ge1 Rh6'
_cell_volume   210.50251006
_cell_formula_units_Z   1
loop_
 _symmetry_equiv_pos_site_id
 _symmetry_equiv_pos_as_xyz
  1  'x, y, z'
loop_
 _atom_site_type_symbol
 _atom_site_label
 _atom_site_symmetry_multiplicity
 _atom_site_fract_x
 _atom_site_fract_y
 _atom_site_fract_z
 _atom_site_occupancy
  Ba  Ba0  1  0.52304217  0.74933191  0.74933191  1
  Ba  Ba1  1  0.48273897  0.25099254  0.25099254  1
  Si  Si0  1  0.78247463  0.42824348  0.42824348  1
  Si  Si1  1  0.13821540  0.07436623  0.07436623  1
  Si  Si2  1  0.87052593  0.91119809  0.91119809  1
  Ge  Ge0  1  0.19690328  0.58723822  0.58723822  1
  Rh  Rh0  1  0.50419011  0.21751774  0.78173773  1
  Rh  Rh1  1  0.99992814  0.72781370  0.26799939  1
  Rh  Rh2  1  0.50419011  0.78173773  0.21751774  1
  Rh  Rh3  1  0.99992814  0.26799939  0.72781370  1
  Rh  Rh4  1  0.99893206  0.47975091  0.02381006  1
  Rh  Rh5  1  0.99893206  0.02381006  0.47975091  1
loop_
_geom_bond_atom_site_label_1
_geom_bond_atom_site_label_2
_geom_bond_distance
_geom_bond_site_symmetry_2
Ba0 Rh0 3.268411 1_565
Ba0 Rh2 3.268411 1_556
Ba0 Si0 3.276954 1_555
Ba0 Ge0 3.295390 1_555
Ba0 Rh3 3.300274 1_555
Ba0 Rh1 3.300275 1_555
Ba0 Si2 3.300770 1_455
Ba0 Si1 3.314151 1_566
Ba0 Rh4 3.398219 1_556
Ba0 Rh5 3.398220 1_565
Ba0 Si2 3.401770 1_555
Ba0 Ge0 3.409479 1_655
Ba0 Rh3 3.548867 1_465
Ba0 Rh1 3.548867 1_456
Ba0 Ba1 3.559489 1_565
Ba0 Ba1 3.559489 1_556
Ba0 Rh0 3.592846 1_555
Ba0 Rh2 3.592846 1_555
Ba0 Rh5 3.609215 1_465
Ba0 Rh4 3.609215 1_456
Ba1 Rh4 3.254022 1_455
Ba1 Rh5 3.254022 1_455
Ba1 Rh2 3.273153 1_545
Ba1 Rh0 3.273153 1_554
Ba1 Rh1 3.290075 1_455
Ba1 Rh3 3.290075 1_455
Ba1 Si1 3.319209 1_655
Ba1 Si0 3.319534 1_555
Ba1 Ge0 3.423374 1_555
Ba1 Rh5 3.427589 1_555
Ba1 Rh4 3.427589 1_555
Ba1 Si2 3.456908 1_544
Ba1 Si1 3.536008 1_555
Ba1 Si0 3.542396 1_455
Ba1 Rh1 3.554665 1_545
Ba1 Rh3 3.554665 1_554
Ba1 Rh2 3.589138 1_555
Ba1 Rh0 3.589138 1_555
Ge0 Rh1 2.508679 1_455
Ge0 Rh3 2.508679 1_455
Ge0 Rh0 2.539600 1_555
Ge0 Rh2 2.539600 1_555
Ge0 Rh5 2.560596 1_465
Ge0 Rh4 2.560596 1_456
Rh0 Si2 2.414872 1_545
Rh0 Si1 2.421060 1_556
Rh0 Si0 2.449329 1_555
Rh1 Si1 2.421120 1_665
Rh1 Si0 2.446703 1_555
Rh1 Si2 2.460576 1_554
Rh2 Si2 2.414872 1_554
Rh2 Si1 2.421059 1_565
Rh2 Si0 2.449329 1_555
Rh3 Si1 2.421120 1_656
Rh3 Si0 2.446703 1_555
Rh3 Si2 2.460576 1_545
Rh4 Si0 2.424644 1_555
Rh4 Si1 2.431428 1_655
Rh4 Si2 2.526472 1_554
Rh5 Si0 2.424644 1_555
Rh5 Si1 2.431428 1_655
Rh5 Si2 2.526472 1_545
