# generated using pymatgen
data_CaAs12(IrRu)2
_symmetry_space_group_name_H-M   'P 1'
_cell_length_a   7.39280777
_cell_length_b   7.40914280
_cell_length_c   7.40914247
_cell_angle_alpha   109.56409431
_cell_angle_beta   109.46109893
_cell_angle_gamma   109.47781324
_symmetry_Int_Tables_number   1
_chemical_formula_structural   CaAs12(IrRu)2
_chemical_formula_sum   'Ca1 As12 Ir2 Ru2'
_cell_volume   312.06376111
_cell_formula_units_Z   1
loop_
 _symmetry_equiv_pos_site_id
 _symmetry_equiv_pos_as_xyz
  1  'x, y, z'
loop_
 _atom_site_type_symbol
 _atom_site_label
 _atom_site_symmetry_multiplicity
 _atom_site_fract_x
 _atom_site_fract_y
 _atom_site_fract_z
 _atom_site_occupancy
  Ca  Ca0  1  0.00000000  0.00000000  0.00000000  1
  As  As0  1  0.85070315  0.64951211  0.50375968  1
  As  As1  1  0.14929685  0.35048789  0.49624032  1
  As  As2  1  0.14929685  0.65305653  0.79880996  1
  As  As3  1  0.85070315  0.34694347  0.20119004  1
  As  As4  1  0.64902708  0.50373935  0.85029509  1
  As  As5  1  0.35097292  0.49626065  0.14970491  1
  As  As6  1  0.64902708  0.79873399  0.14528773  1
  As  As7  1  0.35097292  0.20126601  0.85471227  1
  As  As8  1  0.50430358  0.85089633  0.65340725  1
  As  As9  1  0.49569642  0.14910367  0.34659275  1
  As  As10  1  0.20474508  0.85413180  0.35061328  1
  As  As11  1  0.79525492  0.14586820  0.64938672  1
  Ir  Ir0  1  0.00000000  0.50000000  0.00000000  1
  Ir  Ir1  1  0.00000000  0.00000000  0.50000000  1
  Ru  Ru0  1  0.50000000  0.50000000  0.50000000  1
  Ru  Ru1  1  0.50000000  0.00000000  0.00000000  1
loop_
_geom_bond_atom_site_label_1
_geom_bond_atom_site_label_2
_geom_bond_distance
_geom_bond_site_symmetry_2
As0 Ru0 2.442494 1_555
As0 Ir1 2.473856 1_665
As0 As2 2.521868 1_655
As0 As3 2.585614 1_555
As0 Ca0 3.235756 1_666
As1 Ru0 2.442494 1_555
As1 Ir1 2.473856 1_555
As1 As3 2.521868 1_455
As1 As2 2.585614 1_555
As1 Ca0 3.235756 1_555
As2 Ru1 2.442494 1_566
As2 Ir0 2.473849 1_556
As2 Ca0 3.235754 1_566
As3 Ru1 2.442494 1_555
As3 Ir0 2.473849 1_655
As3 Ca0 3.235754 1_655
As4 Ru0 2.444743 1_555
As4 Ir0 2.472697 1_656
As4 As6 2.520878 1_556
As4 As7 2.585095 1_555
As4 Ca0 3.235844 1_666
As5 Ru0 2.444743 1_555
As5 Ir0 2.472697 1_555
As5 As7 2.520878 1_554
As5 As6 2.585095 1_555
As5 Ca0 3.235844 1_555
As6 Ru1 2.444730 1_565
As6 Ir1 2.472698 1_665
As6 Ca0 3.235840 1_665
As7 Ru1 2.444730 1_556
As7 Ir1 2.472698 1_555
As7 Ca0 3.235840 1_556
As8 Ru1 2.448220 1_566
As8 Ru0 2.448220 1_555
As8 Ca0 3.220833 1_666
As9 Ru1 2.448220 1_555
As9 Ru0 2.448220 1_555
As9 Ca0 3.220833 1_555
As10 Ir0 2.467865 1_555
As10 Ir1 2.467866 1_565
As10 As9 2.520949 1_565
As10 As8 2.588216 1_555
As10 Ca0 3.249396 1_565
As11 Ir0 2.467865 1_656
As11 Ir1 2.467866 1_655
As11 As8 2.520949 1_545
As11 As9 2.588216 1_555
As11 Ca0 3.249396 1_656
