# generated using pymatgen
data_RbBa3BiO6
_symmetry_space_group_name_H-M   'P 1'
_cell_length_a   7.45948555
_cell_length_b   7.45948612
_cell_length_c   7.45948571
_cell_angle_alpha   88.45141603
_cell_angle_beta   88.45141350
_cell_angle_gamma   88.45141290
_symmetry_Int_Tables_number   1
_chemical_formula_structural   RbBa3BiO6
_chemical_formula_sum   'Rb2 Ba6 Bi2 O12'
_cell_volume   414.62833121
_cell_formula_units_Z   2
loop_
 _symmetry_equiv_pos_site_id
 _symmetry_equiv_pos_as_xyz
  1  'x, y, z'
loop_
 _atom_site_type_symbol
 _atom_site_label
 _atom_site_symmetry_multiplicity
 _atom_site_fract_x
 _atom_site_fract_y
 _atom_site_fract_z
 _atom_site_occupancy
  Rb  Rb0  1  0.75000000  0.75000000  0.75000000  1
  Rb  Rb1  1  0.25000000  0.25000000  0.25000000  1
  Ba  Ba0  1  0.25000000  0.89474928  0.60525072  1
  Ba  Ba1  1  0.75000000  0.10525072  0.39474928  1
  Ba  Ba2  1  0.89474928  0.60525072  0.25000000  1
  Ba  Ba3  1  0.39474928  0.75000000  0.10525072  1
  Ba  Ba4  1  0.10525072  0.39474928  0.75000000  1
  Ba  Ba5  1  0.60525072  0.25000000  0.89474928  1
  Bi  Bi0  1  0.00000000  0.00000000  0.00000000  1
  Bi  Bi1  1  0.50000000  0.50000000  0.50000000  1
  O  O0  1  0.72595042  0.93192994  0.06832665  1
  O  O1  1  0.06832665  0.72595042  0.93192994  1
  O  O2  1  0.06807006  0.93167335  0.27404958  1
  O  O3  1  0.93192994  0.06832665  0.72595042  1
  O  O4  1  0.43167335  0.56807006  0.77404958  1
  O  O5  1  0.56807006  0.77404958  0.43167335  1
  O  O6  1  0.27404958  0.06807006  0.93167335  1
  O  O7  1  0.93167335  0.27404958  0.06807006  1
  O  O8  1  0.22595042  0.56832665  0.43192994  1
  O  O9  1  0.56832665  0.43192994  0.22595042  1
  O  O10  1  0.43192994  0.22595042  0.56832665  1
  O  O11  1  0.77404958  0.43167335  0.56807006  1
loop_
_geom_bond_atom_site_label_1
_geom_bond_atom_site_label_2
_geom_bond_distance
_geom_bond_site_symmetry_2
Ba0 O6 2.799819 1_565
Ba0 O8 2.799819 1_555
Ba0 O5 2.810350 1_555
Ba0 O3 2.810350 1_465
Ba0 O2 2.854058 1_555
Ba0 O10 2.854058 1_565
Ba0 O1 3.017976 1_555
Ba0 O4 3.017976 1_555
Ba1 O0 2.799819 1_545
Ba1 O11 2.799819 1_555
Ba1 O10 2.810350 1_555
Ba1 O2 2.810350 1_645
Ba1 O3 2.854058 1_555
Ba1 O5 2.854058 1_545
Ba1 O7 3.017976 1_555
Ba1 O9 3.017976 1_555
Ba2 O9 2.799819 1_555
Ba2 O2 2.799819 1_655
Ba2 O1 2.810350 1_654
Ba2 O11 2.810350 1_555
Ba2 O8 2.854058 1_655
Ba2 O7 2.854058 1_555
Ba2 O5 3.017976 1_555
Ba2 O0 3.017976 1_555
Ba3 O1 2.799819 1_554
Ba3 O5 2.799819 1_555
Ba3 O9 2.810350 1_555
Ba3 O6 2.810350 1_564
Ba3 O4 2.854058 1_554
Ba3 O0 2.854058 1_555
Ba3 O2 3.017976 1_555
Ba3 O8 3.017976 1_555
Ba4 O4 2.799819 1_555
Ba4 O3 2.799819 1_455
Ba4 O7 2.810350 1_456
Ba4 O8 2.810350 1_555
Ba4 O11 2.854058 1_455
Ba4 O1 2.854058 1_555
Ba4 O10 3.017976 1_555
Ba4 O6 3.017976 1_555
Ba5 O7 2.799819 1_556
Ba5 O10 2.799819 1_555
Ba5 O4 2.810350 1_555
Ba5 O0 2.810350 1_546
Ba5 O9 2.854058 1_556
Ba5 O6 2.854058 1_555
Ba5 O3 3.017976 1_555
Ba5 O11 3.017976 1_555
Bi0 O6 2.163894 1_554
Bi0 O0 2.163894 1_445
Bi0 O2 2.163895 1_545
Bi0 O3 2.163895 1_454
Bi0 O7 2.163895 1_455
Bi0 O1 2.163895 1_544
Bi1 O11 2.163894 1_555
Bi1 O8 2.163894 1_555
Bi1 O4 2.163894 1_555
Bi1 O9 2.163894 1_555
Bi1 O5 2.163895 1_555
Bi1 O10 2.163895 1_555
O0 Rb0 2.765937 1_554
O1 Rb0 2.765937 1_455
O2 Rb1 2.765937 1_565
O3 Rb0 2.765937 1_545
O4 Rb0 2.765937 1_555
O5 Rb0 2.765937 1_555
O6 Rb1 2.765937 1_556
O7 Rb1 2.765937 1_655
O8 Rb1 2.765937 1_555
O9 Rb1 2.765937 1_555
O10 Rb1 2.765937 1_555
O11 Rb0 2.765937 1_555
