# generated using pymatgen
data_Cs3K(SiTe3)4
_symmetry_space_group_name_H-M   'P 1'
_cell_length_a   8.21132498
_cell_length_b   8.25882915
_cell_length_c   13.54877474
_cell_angle_alpha   84.03523744
_cell_angle_beta   82.30104109
_cell_angle_gamma   116.10149218
_symmetry_Int_Tables_number   1
_chemical_formula_structural   Cs3K(SiTe3)4
_chemical_formula_sum   'Cs3 K1 Si4 Te12'
_cell_volume   803.87112653
_cell_formula_units_Z   1
loop_
 _symmetry_equiv_pos_site_id
 _symmetry_equiv_pos_as_xyz
  1  'x, y, z'
loop_
 _atom_site_type_symbol
 _atom_site_label
 _atom_site_symmetry_multiplicity
 _atom_site_fract_x
 _atom_site_fract_y
 _atom_site_fract_z
 _atom_site_occupancy
  Cs  Cs0  1  0.46697077  0.63955648  0.41997636  1
  Cs  Cs1  1  0.23324083  0.73468257  0.69087346  1
  Cs  Cs2  1  0.63989024  0.46999948  0.92834092  1
  K  K0  1  0.77483081  0.22847638  0.20062877  1
  Si  Si0  1  0.17613440  0.05105216  0.38307399  1
  Si  Si1  1  0.04696099  0.89841029  0.13061772  1
  Si  Si2  1  0.90007701  0.05675796  0.63188584  1
  Si  Si3  1  0.04577668  0.16686952  0.88667280  1
  Te  Te0  1  0.22360004  0.19247537  0.19722998  1
  Te  Te1  1  0.12979592  0.67110968  0.22050098  1
  Te  Te2  1  0.46780995  0.13871043  0.44037829  1
  Te  Te3  1  0.96717416  0.70213924  0.41651119  1
  Te  Te4  1  0.12753833  0.44645141  0.95700028  1
  Te  Te5  1  0.71161955  0.79491440  0.14013789  1
  Te  Te6  1  0.19655039  0.21456074  0.69936145  1
  Te  Te7  1  0.77001597  0.72131638  0.64047222  1
  Te  Te8  1  0.68195978  0.15418193  0.72403351  1
  Te  Te9  1  0.19395597  0.96871914  0.94491838  1
  Te  Te10  1  0.98087367  0.20403763  0.44712967  1
  Te  Te11  1  0.69322256  0.97357480  0.91605528  1
loop_
_geom_bond_atom_site_label_1
_geom_bond_atom_site_label_2
_geom_bond_distance
_geom_bond_site_symmetry_2
Cs0 Te5 3.838915 1_555
Cs0 Te3 3.900617 1_555
Cs0 Te10 3.962757 1_455
Cs0 Te7 4.062698 1_555
Cs0 Te2 4.119980 1_555
Cs0 Te2 4.157308 1_565
Cs0 Te1 4.187005 1_555
Cs0 Te3 4.361786 1_455
Cs0 Te6 4.439336 1_555
Cs1 Te4 3.870462 1_555
Cs1 Te7 3.910078 1_455
Cs1 Te8 3.913515 1_565
Cs1 Te2 4.074580 1_565
Cs1 Te6 4.116710 1_565
Cs1 Te6 4.159979 1_555
Cs1 Te9 4.161878 1_555
Cs1 Te7 4.420758 1_555
Cs2 Te11 3.968659 1_555
Cs2 Te7 3.988894 1_555
Cs2 Te5 4.055205 1_556
Cs2 Te8 4.077024 1_555
Cs2 Te4 4.088379 1_555
Cs2 Te9 4.104302 1_545
Cs2 Te4 4.160367 1_655
Cs2 Te0 4.271329 1_556
Cs2 Te11 4.327902 1_545
K0 Te5 3.584849 1_545
K0 Te1 3.601510 1_655
K0 Te2 3.621819 1_555
K0 Te4 3.760353 1_654
K0 Te0 3.819835 1_655
K0 Te10 3.966326 1_555
Si0 Te2 2.439772 1_555
Si0 Te10 2.560847 1_455
Si0 Te0 2.565439 1_555
Si0 Te3 2.573471 1_445
Si1 Te5 2.477989 1_455
Si1 Te1 2.517952 1_555
Si1 Te9 2.527901 1_554
Si1 Te0 2.554064 1_565
Si2 Te7 2.474933 1_545
Si2 Te8 2.508306 1_555
Si2 Te10 2.529410 1_555
Si2 Te6 2.552051 1_655
Si3 Te4 2.440253 1_555
Si3 Te9 2.553883 1_545
Si3 Te11 2.565190 1_445
Si3 Te6 2.578732 1_555
Te1 Te3 2.897227 1_455
Te3 Te7 3.295885 1_555
Te11 Te8 2.895063 1_565
Te11 Te5 3.287178 1_556
