# generated using pymatgen
data_K2BeSe2
_symmetry_space_group_name_H-M   'P 1'
_cell_length_a   7.92846611
_cell_length_b   7.92846694
_cell_length_c   7.92846661
_cell_angle_alpha   134.88837123
_cell_angle_beta   129.19691019
_cell_angle_gamma   70.26226283
_symmetry_Int_Tables_number   1
_chemical_formula_structural   K2BeSe2
_chemical_formula_sum   'K4 Be2 Se4'
_cell_volume   268.26890642
_cell_formula_units_Z   2
loop_
 _symmetry_equiv_pos_site_id
 _symmetry_equiv_pos_as_xyz
  1  'x, y, z'
loop_
 _atom_site_type_symbol
 _atom_site_label
 _atom_site_symmetry_multiplicity
 _atom_site_fract_x
 _atom_site_fract_y
 _atom_site_fract_z
 _atom_site_occupancy
  K  K0  1  0.81680858  0.14442058  0.67238900  1
  K  K1  1  0.18319142  0.85557942  0.32761100  1
  K  K2  1  0.52796843  0.35557942  0.17238900  1
  K  K3  1  0.47203157  0.64442058  0.82761100  1
  Be  Be0  1  0.00000000  0.75000000  0.75000000  1
  Be  Be1  1  0.00000000  0.25000000  0.25000000  1
  Se  Se0  1  0.72938827  0.90302063  0.82636765  1
  Se  Se1  1  0.27061173  0.09697937  0.17363235  1
  Se  Se2  1  0.92334802  0.59697937  0.32636765  1
  Se  Se3  1  0.07665198  0.40302063  0.67363235  1
loop_
_geom_bond_atom_site_label_1
_geom_bond_atom_site_label_2
_geom_bond_distance
_geom_bond_site_symmetry_2
K0 Se2 3.274828 1_556
K0 Se2 3.274840 1_545
K0 Se0 3.301119 1_545
K0 Se3 3.353637 1_655
K0 Se1 3.447864 1_555
K0 Se1 3.464515 1_656
K1 Se3 3.274828 1_554
K1 Se3 3.274840 1_565
K1 Se1 3.301119 1_565
K1 Se2 3.353637 1_455
K1 Se0 3.447864 1_555
K1 Se0 3.464515 1_454
K2 Se0 3.274834 1_555
K2 Se0 3.274834 1_544
K2 Se2 3.301131 1_555
K2 Se1 3.353637 1_555
K2 Se3 3.447871 1_554
K2 Se3 3.464509 1_655
K3 Se1 3.274834 1_555
K3 Se1 3.274834 1_566
K3 Se3 3.301131 1_555
K3 Se0 3.353637 1_555
K3 Se2 3.447871 1_556
K3 Se2 3.464509 1_455
Be0 Se0 2.299751 1_455
Be0 Se3 2.299751 1_555
Be0 Se1 2.299751 1_566
Be0 Se2 2.299755 1_455
Be0 K1 3.284173 1_556
Be0 K3 3.284176 1_555
Be0 K2 3.284176 1_455
Be0 K0 3.284176 1_465
Be1 Se1 2.299751 1_555
Be1 Se2 2.299751 1_455
Be1 Se0 2.299751 1_444
Be1 Se3 2.299755 1_555
Be1 K0 3.284173 1_454
Be1 K2 3.284176 1_455
Be1 K3 3.284176 1_555
Be1 K1 3.284176 1_545
