# generated using pymatgen
data_CaSc2(AlNi2)3
_symmetry_space_group_name_H-M   'P 1'
_cell_length_a   5.10038214
_cell_length_b   5.10038204
_cell_length_c   15.33860176
_cell_angle_alpha   90.00000000
_cell_angle_beta   90.00000000
_cell_angle_gamma   120.00000068
_symmetry_Int_Tables_number   1
_chemical_formula_structural   CaSc2(AlNi2)3
_chemical_formula_sum   'Ca2 Sc4 Al6 Ni12'
_cell_volume   345.55869500
_cell_formula_units_Z   2
loop_
 _symmetry_equiv_pos_site_id
 _symmetry_equiv_pos_as_xyz
  1  'x, y, z'
loop_
 _atom_site_type_symbol
 _atom_site_label
 _atom_site_symmetry_multiplicity
 _atom_site_fract_x
 _atom_site_fract_y
 _atom_site_fract_z
 _atom_site_occupancy
  Ca  Ca0  1  0.33333300  0.66666700  0.75000000  1
  Ca  Ca1  1  0.66666700  0.33333300  0.25000000  1
  Sc  Sc0  1  0.33333300  0.66666700  0.54083395  1
  Sc  Sc1  1  0.66666700  0.33333300  0.45916605  1
  Sc  Sc2  1  0.66666700  0.33333300  0.04083395  1
  Sc  Sc3  1  0.33333300  0.66666700  0.95916605  1
  Al  Al0  1  0.00000000  0.00000000  0.25000000  1
  Al  Al1  1  0.00000000  0.00000000  0.75000000  1
  Al  Al2  1  0.33333300  0.66666700  0.25000000  1
  Al  Al3  1  0.66666700  0.33333300  0.75000000  1
  Al  Al4  1  0.00000000  0.00000000  0.00000000  1
  Al  Al5  1  0.00000000  0.00000000  0.50000000  1
  Ni  Ni0  1  0.17009817  0.34019433  0.12240935  1
  Ni  Ni1  1  0.82990183  0.65980567  0.87759065  1
  Ni  Ni2  1  0.65980567  0.82990183  0.12240935  1
  Ni  Ni3  1  0.82990183  0.65980567  0.62240935  1
  Ni  Ni4  1  0.34019433  0.17009817  0.87759065  1
  Ni  Ni5  1  0.17009817  0.34019433  0.37759065  1
  Ni  Ni6  1  0.17009817  0.82990183  0.12240935  1
  Ni  Ni7  1  0.34019433  0.17009817  0.62240935  1
  Ni  Ni8  1  0.82990183  0.17009817  0.87759065  1
  Ni  Ni9  1  0.65980567  0.82990183  0.37759065  1
  Ni  Ni10  1  0.82990183  0.17009817  0.62240935  1
  Ni  Ni11  1  0.17009817  0.82990183  0.37759065  1
loop_
_geom_bond_atom_site_label_1
_geom_bond_atom_site_label_2
_geom_bond_distance
_geom_bond_site_symmetry_2
Ca0 Sc3 3.208315 1_555
Ca0 Sc0 3.208315 1_555
Ca0 Ni4 3.214727 1_555
Ca0 Ni7 3.214727 1_555
Ca0 Ni1 3.214727 1_555
Ca0 Ni3 3.214727 1_555
Ca0 Ni8 3.214729 1_565
Ca0 Ni10 3.214729 1_565
Ca0 Ni8 3.214729 1_455
Ca0 Ni10 3.214729 1_455
Ca0 Ni4 3.214731 1_565
Ca0 Ni7 3.214731 1_565
Ca0 Ni1 3.214731 1_455
Ca0 Ni3 3.214731 1_455
Ca1 Sc1 3.208315 1_555
Ca1 Sc2 3.208315 1_555
Ca1 Ni9 3.214727 1_555
Ca1 Ni2 3.214727 1_555
Ca1 Ni5 3.214727 1_555
Ca1 Ni0 3.214727 1_555
Ca1 Ni11 3.214729 1_545
Ca1 Ni6 3.214729 1_545
Ca1 Ni11 3.214729 1_655
Ca1 Ni6 3.214729 1_655
Ca1 Ni9 3.214731 1_545
Ca1 Ni2 3.214731 1_545
Ca1 Ni5 3.214731 1_655
Ca1 Ni0 3.214731 1_655
Al0 Ni5 2.467403 1_555
Al0 Ni0 2.467403 1_555
Al0 Ni9 2.467403 1_445
Al0 Ni2 2.467403 1_445
Al0 Ni11 2.467408 1_545
Al0 Ni6 2.467408 1_545
Al0 Ca1 2.944704 1_455
Al0 Ca1 2.944708 1_445
Al0 Ca1 2.944708 1_555
Al1 Ni1 2.467403 1_445
Al1 Ni3 2.467403 1_445
Al1 Ni4 2.467403 1_555
Al1 Ni7 2.467403 1_555
Al1 Ni8 2.467408 1_455
Al1 Ni10 2.467408 1_455
Al1 Ca0 2.944704 1_545
Al1 Ca0 2.944708 1_555
Al1 Ca0 2.944708 1_445
Al2 Ni11 2.430959 1_555
Al2 Ni6 2.430959 1_555
Al2 Ni5 2.430967 1_555
Al2 Ni0 2.430967 1_555
Al2 Ni9 2.430967 1_555
Al2 Ni2 2.430967 1_555
Al2 Ca1 2.944704 1_565
Al2 Ca1 2.944704 1_455
Al2 Ca1 2.944713 1_555
Al3 Ni8 2.430959 1_555
Al3 Ni10 2.430959 1_555
Al3 Ni1 2.430967 1_555
Al3 Ni3 2.430967 1_555
Al3 Ni4 2.430967 1_555
Al3 Ni7 2.430967 1_555
Al3 Ca0 2.944704 1_545
Al3 Ca0 2.944704 1_655
Al3 Ca0 2.944713 1_555
Al4 Ni0 2.404854 1_555
Al4 Ni1 2.404854 1_444
Al4 Ni2 2.404854 1_445
Al4 Ni4 2.404854 1_554
Al4 Ni6 2.404859 1_545
Al4 Ni8 2.404859 1_454
Al4 Sc2 3.010578 1_455
Al4 Sc3 3.010578 1_544
Al4 Sc3 3.010582 1_554
Al4 Sc2 3.010582 1_445
Al4 Sc2 3.010582 1_555
Al4 Sc3 3.010582 1_444
Al5 Ni3 2.404854 1_445
Al5 Ni5 2.404854 1_555
Al5 Ni7 2.404854 1_555
Al5 Ni9 2.404854 1_445
Al5 Ni10 2.404859 1_455
Al5 Ni11 2.404859 1_545
Al5 Sc0 3.010578 1_545
Al5 Sc1 3.010578 1_455
Al5 Sc0 3.010582 1_555
Al5 Sc1 3.010582 1_445
Al5 Sc1 3.010582 1_555
Al5 Sc0 3.010582 1_445
Ni0 Ni6 2.497695 1_555
Ni0 Ni2 2.497695 1_555
Ni0 Ni6 2.602687 1_545
Ni0 Ni2 2.602687 1_445
Ni0 Sc2 2.840777 1_555
Ni0 Sc2 2.840781 1_455
Ni0 Sc3 2.889488 1_554
Ni1 Ni8 2.497695 1_555
Ni1 Ni4 2.497695 1_555
Ni1 Ni8 2.602687 1_565
Ni1 Ni4 2.602687 1_665
Ni1 Sc3 2.840777 1_555
Ni1 Sc3 2.840781 1_655
Ni1 Sc2 2.889488 1_556
Ni2 Ni6 2.497695 1_555
Ni2 Ni6 2.602687 1_655
Ni2 Sc2 2.840777 1_555
Ni2 Sc2 2.840781 1_565
Ni2 Sc3 2.889488 1_554
Ni3 Ni7 2.497695 1_555
Ni3 Ni7 2.602687 1_665
Ni3 Sc0 2.840777 1_555
Ni3 Sc0 2.840781 1_655
Ni3 Sc1 2.889488 1_555
Ni4 Ni8 2.497695 1_555
Ni4 Ni8 2.602687 1_455
Ni4 Sc3 2.840777 1_555
Ni4 Sc3 2.840781 1_545
Ni4 Sc2 2.889488 1_556
Ni5 Ni9 2.497695 1_555
Ni5 Ni9 2.602687 1_445
Ni5 Sc1 2.840777 1_555
Ni5 Sc1 2.840781 1_455
Ni5 Sc0 2.889488 1_555
Ni6 Sc2 2.840779 1_565
Ni6 Sc2 2.840779 1_455
Ni6 Sc3 2.889482 1_554
Ni7 Sc0 2.840777 1_555
Ni7 Sc0 2.840781 1_545
Ni7 Sc1 2.889488 1_555
Ni8 Sc3 2.840779 1_545
Ni8 Sc3 2.840779 1_655
Ni8 Sc2 2.889482 1_556
Ni9 Sc1 2.840777 1_555
Ni9 Sc1 2.840781 1_565
Ni9 Sc0 2.889488 1_555
Ni10 Ni3 2.497695 1_555
Ni10 Ni7 2.497695 1_555
Ni10 Ni3 2.602687 1_545
Ni10 Ni7 2.602687 1_655
Ni10 Sc0 2.840779 1_545
Ni10 Sc0 2.840779 1_655
Ni10 Sc1 2.889482 1_555
Ni11 Ni5 2.497695 1_555
Ni11 Ni9 2.497695 1_555
Ni11 Ni5 2.602687 1_565
Ni11 Ni9 2.602687 1_455
Ni11 Sc1 2.840779 1_565
Ni11 Sc1 2.840779 1_455
Ni11 Sc0 2.889482 1_555
