# generated using pymatgen
data_CsK2SbTe3
_symmetry_space_group_name_H-M   'P 1'
_cell_length_a   10.75471807
_cell_length_b   10.75471807
_cell_length_c   10.75471807
_cell_angle_alpha   90.00000000
_cell_angle_beta   90.00000000
_cell_angle_gamma   90.00000000
_symmetry_Int_Tables_number   1
_chemical_formula_structural   CsK2SbTe3
_chemical_formula_sum   'Cs4 K8 Sb4 Te12'
_cell_volume   1243.93329004
_cell_formula_units_Z   4
loop_
 _symmetry_equiv_pos_site_id
 _symmetry_equiv_pos_as_xyz
  1  'x, y, z'
loop_
 _atom_site_type_symbol
 _atom_site_label
 _atom_site_symmetry_multiplicity
 _atom_site_fract_x
 _atom_site_fract_y
 _atom_site_fract_z
 _atom_site_occupancy
  Cs  Cs0  1  0.57737974  0.57737974  0.57737974  1
  Cs  Cs1  1  0.92262026  0.42262026  0.07737974  1
  Cs  Cs2  1  0.07737974  0.92262026  0.42262026  1
  Cs  Cs3  1  0.42262026  0.07737974  0.92262026  1
  K  K0  1  0.31773060  0.31773060  0.31773060  1
  K  K1  1  0.18226940  0.68226940  0.81773060  1
  K  K2  1  0.81773060  0.18226940  0.68226940  1
  K  K3  1  0.68226940  0.81773060  0.18226940  1
  K  K4  1  0.81441504  0.81441504  0.81441504  1
  K  K5  1  0.68558496  0.18558496  0.31441504  1
  K  K6  1  0.31441504  0.68558496  0.18558496  1
  K  K7  1  0.18558496  0.31441504  0.68558496  1
  Sb  Sb0  1  0.02447474  0.02447474  0.02447474  1
  Sb  Sb1  1  0.47552526  0.97552526  0.52447474  1
  Sb  Sb2  1  0.52447474  0.47552526  0.97552526  1
  Sb  Sb3  1  0.97552526  0.52447474  0.47552526  1
  Te  Te0  1  0.22531405  0.59407008  0.49658972  1
  Te  Te1  1  0.49658972  0.22531405  0.59407008  1
  Te  Te2  1  0.59407008  0.49658972  0.22531405  1
  Te  Te3  1  0.90592992  0.50341028  0.72531405  1
  Te  Te4  1  0.99658972  0.27468595  0.40592992  1
  Te  Te5  1  0.40592992  0.99658972  0.27468595  1
  Te  Te6  1  0.00341028  0.77468595  0.09407008  1
  Te  Te7  1  0.50341028  0.72531405  0.90592992  1
  Te  Te8  1  0.09407008  0.00341028  0.77468595  1
  Te  Te9  1  0.72531405  0.90592992  0.50341028  1
  Te  Te10  1  0.77468595  0.09407008  0.00341028  1
  Te  Te11  1  0.27468595  0.40592992  0.99658972  1
loop_
_geom_bond_atom_site_label_1
_geom_bond_atom_site_label_2
_geom_bond_distance
_geom_bond_site_symmetry_2
Cs0 Te0 3.888925 1_555
Cs0 Te1 3.888925 1_555
Cs0 Te2 3.888925 1_555
Cs0 Te7 3.955942 1_555
Cs0 Te9 3.955942 1_555
Cs0 Te3 3.955942 1_555
Cs1 Te11 3.888925 1_654
Cs1 Te3 3.888925 1_554
Cs1 Te6 3.888925 1_655
Cs1 Te10 3.955942 1_555
Cs1 Te2 3.955942 1_555
Cs1 Te4 3.955942 1_555
Cs2 Te4 3.888925 1_465
Cs2 Te9 3.888925 1_455
Cs2 Te8 3.888925 1_565
Cs2 Te6 3.955942 1_555
Cs2 Te0 3.955942 1_555
Cs2 Te5 3.955942 1_555
Cs3 Te5 3.888925 1_546
Cs3 Te7 3.888925 1_545
Cs3 Te10 3.888925 1_556
Cs3 Te8 3.955942 1_555
Cs3 Te1 3.955942 1_555
Cs3 Te11 3.955942 1_555
K0 Te5 3.611463 1_545
K0 Te4 3.611463 1_455
K0 Te11 3.611463 1_554
K0 Te0 3.677027 1_555
K0 Te1 3.677027 1_555
K0 Te2 3.677027 1_555
K1 Te0 3.611463 1_555
K1 Te7 3.611463 1_555
K1 Te8 3.611463 1_565
K1 Te6 3.677027 1_556
K1 Te3 3.677027 1_455
K1 Te11 3.677027 1_555
K2 Te1 3.611463 1_555
K2 Te10 3.611463 1_556
K2 Te3 3.611463 1_555
K2 Te9 3.677027 1_545
K2 Te8 3.677027 1_655
K2 Te4 3.677027 1_555
K3 Te2 3.611463 1_555
K3 Te6 3.611463 1_655
K3 Te9 3.611463 1_555
K3 Te10 3.677027 1_565
K3 Te7 3.677027 1_554
K3 Te5 3.677027 1_555
K4 Te3 3.615856 1_555
K4 Te7 3.615856 1_555
K4 Te9 3.615856 1_555
K4 Te10 3.655094 1_566
K4 Te6 3.655094 1_656
K4 Te8 3.655094 1_665
K5 Te10 3.615856 1_555
K5 Te2 3.615856 1_555
K5 Te4 3.615856 1_555
K5 Te5 3.655094 1_545
K5 Te1 3.655094 1_555
K5 Te9 3.655094 1_545
K6 Te6 3.615856 1_555
K6 Te5 3.615856 1_555
K6 Te0 3.615856 1_555
K6 Te11 3.655094 1_554
K6 Te2 3.655094 1_555
K6 Te7 3.655094 1_554
K7 Te8 3.615856 1_555
K7 Te1 3.615856 1_555
K7 Te11 3.615856 1_555
K7 Te4 3.655094 1_455
K7 Te0 3.655094 1_555
K7 Te3 3.655094 1_455
Sb0 Te6 2.797915 1_545
Sb0 Te10 2.797915 1_455
Sb0 Te8 2.797915 1_554
Sb1 Te1 2.797915 1_565
Sb1 Te9 2.797915 1_555
Sb1 Te5 2.797915 1_555
Sb2 Te2 2.797915 1_556
Sb2 Te7 2.797915 1_555
Sb2 Te11 2.797915 1_555
Sb3 Te0 2.797915 1_655
Sb3 Te3 2.797915 1_555
Sb3 Te4 2.797915 1_555
