# generated using pymatgen
data_ZrSc6Al15Os7
_symmetry_space_group_name_H-M   'P 1'
_cell_length_a   8.78526492
_cell_length_b   8.78526526
_cell_length_c   8.78371008
_cell_angle_alpha   59.99414334
_cell_angle_beta   59.99414020
_cell_angle_gamma   60.00000114
_symmetry_Int_Tables_number   1
_chemical_formula_structural   ZrSc6Al15Os7
_chemical_formula_sum   'Zr1 Sc6 Al15 Os7'
_cell_volume   479.32963286
_cell_formula_units_Z   1
loop_
 _symmetry_equiv_pos_site_id
 _symmetry_equiv_pos_as_xyz
  1  'x, y, z'
loop_
 _atom_site_type_symbol
 _atom_site_label
 _atom_site_symmetry_multiplicity
 _atom_site_fract_x
 _atom_site_fract_y
 _atom_site_fract_z
 _atom_site_occupancy
  Zr  Zr0  1  0.88051164  0.88051164  0.35846309  1
  Sc  Sc0  1  0.70988731  0.70988731  0.28166834  1
  Sc  Sc1  1  0.29855703  0.70988731  0.28166834  1
  Sc  Sc2  1  0.70988731  0.29855703  0.28166834  1
  Sc  Sc3  1  0.28343292  0.28343292  0.71836455  1
  Sc  Sc4  1  0.71476961  0.28343292  0.71836455  1
  Sc  Sc5  1  0.28343292  0.71476961  0.71836455  1
  Al  Al0  1  0.87772164  0.36495385  0.87960186  1
  Al  Al1  1  0.36495385  0.87772164  0.87960186  1
  Al  Al2  1  0.87772164  0.87772164  0.87960186  1
  Al  Al3  1  0.12401432  0.12401432  0.62795803  1
  Al  Al4  1  0.12193642  0.63466723  0.12146193  1
  Al  Al5  1  0.63466723  0.12193642  0.12146193  1
  Al  Al6  1  0.12193642  0.12193642  0.12146193  1
  Al  Al7  1  0.66692419  0.66692419  0.99922743  1
  Al  Al8  1  0.65974469  0.01328376  0.66722786  1
  Al  Al9  1  0.01328376  0.65974469  0.66722786  1
  Al  Al10  1  0.65974469  0.65974469  0.66722786  1
  Al  Al11  1  0.33520403  0.33520403  0.99438791  1
  Al  Al12  1  0.33666302  0.98959017  0.33708379  1
  Al  Al13  1  0.98959017  0.33666302  0.33708379  1
  Al  Al14  1  0.33666302  0.33666302  0.33708379  1
  Os  Os0  1  0.00408595  0.00408595  0.98774114  1
  Os  Os1  1  0.00008093  0.00008093  0.50367919  1
  Os  Os2  1  0.49615795  0.00008093  0.50367919  1
  Os  Os3  1  0.00008093  0.49615795  0.50367919  1
  Os  Os4  1  0.49929954  0.49929954  0.00165261  1
  Os  Os5  1  0.99974931  0.49929954  0.00165261  1
  Os  Os6  1  0.49929954  0.99974931  0.00165261  1
loop_
_geom_bond_atom_site_label_1
_geom_bond_atom_site_label_2
_geom_bond_distance
_geom_bond_site_symmetry_2
Sc0 Zr0 3.036189 1_555
Sc1 Zr0 3.036203 1_455
Sc2 Zr0 3.036204 1_545
Al0 Os0 2.590144 1_655
Al0 Os3 2.696203 1_655
Al0 Os4 2.715117 1_556
Al0 Os5 2.715131 1_556
Al0 Sc2 2.928859 1_556
Al0 Sc4 2.938661 1_555
Al0 Sc3 2.938668 1_655
Al1 Os0 2.590144 1_565
Al1 Os2 2.696203 1_565
Al1 Os4 2.715117 1_556
Al1 Os6 2.715131 1_556
Al1 Sc1 2.928859 1_556
Al1 Sc5 2.938661 1_555
Al1 Sc3 2.938668 1_565
Al2 Os0 2.590144 1_665
Al2 Os1 2.696203 1_665
Al2 Os6 2.715117 1_556
Al2 Os5 2.715117 1_556
Al2 Sc0 2.928858 1_556
Al2 Sc5 2.938667 1_655
Al2 Sc4 2.938667 1_565
Al3 Os0 2.580089 1_555
Al3 Os2 2.669359 1_555
Al3 Os3 2.669360 1_555
Al3 Os1 2.669374 1_555
Al3 Sc3 2.956320 1_555
Al3 Sc4 2.956328 1_455
Al3 Sc5 2.956328 1_545
Al4 Os0 2.651022 1_564
Al4 Os4 2.707807 1_555
Al4 Os5 2.707814 1_455
Al4 Os3 2.742271 1_555
Al4 Sc5 2.920038 1_554
Al4 Sc1 2.993982 1_555
Al4 Sc0 2.993997 1_455
Al4 Zr0 2.999491 1_455
Al5 Os0 2.651022 1_654
Al5 Os4 2.707807 1_555
Al5 Os6 2.707814 1_545
Al5 Os2 2.742271 1_555
Al5 Sc4 2.920039 1_554
Al5 Sc2 2.993982 1_555
Al5 Sc0 2.993997 1_545
Al5 Zr0 2.999491 1_545
Al6 Os0 2.651044 1_554
Al6 Os6 2.707807 1_545
Al6 Os5 2.707807 1_455
Al6 Os1 2.742270 1_555
Al6 Sc3 2.920036 1_554
Al6 Sc2 2.993994 1_455
Al6 Sc1 2.993995 1_545
Al6 Zr0 2.999516 1_445
Al7 Os4 2.538423 1_556
Al7 Os5 2.538431 1_556
Al7 Os6 2.538431 1_556
Al7 Sc1 2.907793 1_556
Al7 Sc0 2.907793 1_556
Al7 Sc2 2.907793 1_556
Al8 Os6 2.511335 1_546
Al8 Os1 2.557495 1_655
Al8 Os2 2.557510 1_555
Al8 Zr0 2.849285 1_545
Al8 Sc4 2.915274 1_555
Al8 Sc3 2.915279 1_555
Al8 Sc2 3.011183 1_555
Al9 Os5 2.511335 1_456
Al9 Os1 2.557495 1_565
Al9 Os3 2.557510 1_555
Al9 Zr0 2.849285 1_455
Al9 Sc5 2.915274 1_555
Al9 Sc3 2.915279 1_555
Al9 Sc1 3.011183 1_555
Al10 Os4 2.511335 1_556
Al10 Os3 2.557500 1_655
Al10 Os2 2.557500 1_565
Al10 Zr0 2.849271 1_555
Al10 Sc5 2.915282 1_555
Al10 Sc4 2.915282 1_555
Al10 Sc0 3.011187 1_555
Al11 Os5 2.534339 1_456
Al11 Os6 2.534339 1_546
Al11 Os4 2.534347 1_556
Al11 Sc4 2.950368 1_555
Al11 Sc3 2.950368 1_555
Al11 Sc5 2.950368 1_555
Al12 Os6 2.526727 1_555
Al12 Os2 2.535351 1_565
Al12 Os1 2.535359 1_565
Al12 Sc0 2.927292 1_555
Al12 Sc1 2.927292 1_555
Al12 Sc5 2.956247 1_555
Al13 Os5 2.526727 1_555
Al13 Os3 2.535351 1_655
Al13 Os1 2.535359 1_655
Al13 Sc2 2.927292 1_555
Al13 Sc0 2.927292 1_555
Al13 Sc4 2.956247 1_555
Al14 Os4 2.526729 1_555
Al14 Os3 2.535356 1_555
Al14 Os2 2.535357 1_555
Al14 Sc2 2.927292 1_555
Al14 Sc1 2.927292 1_555
Al14 Sc3 2.956247 1_555
Os0 Zr0 2.658534 1_446
Os1 Zr0 2.759992 1_445
Os1 Sc4 3.124644 1_455
Os1 Sc5 3.124644 1_545
Os1 Sc1 3.217339 1_545
Os1 Sc2 3.217339 1_455
Os2 Zr0 2.759985 1_545
Os2 Sc5 3.124638 1_545
Os2 Sc3 3.124645 1_555
Os2 Sc0 3.217338 1_545
Os2 Sc2 3.217345 1_555
Os3 Zr0 2.759985 1_455
Os3 Sc4 3.124638 1_455
Os3 Sc3 3.124645 1_555
Os3 Sc0 3.217338 1_455
Os3 Sc1 3.217345 1_555
Os4 Sc1 3.087477 1_555
Os4 Sc2 3.087477 1_555
Os4 Sc4 3.128948 1_554
Os4 Sc5 3.128948 1_554
Os5 Sc0 3.087478 1_555
Os5 Sc2 3.087483 1_555
Os5 Sc5 3.128942 1_654
Os5 Sc3 3.128948 1_654
Os6 Sc0 3.087478 1_555
Os6 Sc1 3.087483 1_555
Os6 Sc4 3.128942 1_564
Os6 Sc3 3.128948 1_564
