# generated using pymatgen
data_Ti8MnBi4P
_symmetry_space_group_name_H-M   'P 1'
_cell_length_a   7.82744624
_cell_length_b   7.82744643
_cell_length_c   7.82744537
_cell_angle_alpha   95.62122873
_cell_angle_beta   95.62122656
_cell_angle_gamma   143.52311841
_symmetry_Int_Tables_number   1
_chemical_formula_structural   Ti8MnBi4P
_chemical_formula_sum   'Ti8 Mn1 Bi4 P1'
_cell_volume   270.78576862
_cell_formula_units_Z   1
loop_
 _symmetry_equiv_pos_site_id
 _symmetry_equiv_pos_as_xyz
  1  'x, y, z'
loop_
 _atom_site_type_symbol
 _atom_site_label
 _atom_site_symmetry_multiplicity
 _atom_site_fract_x
 _atom_site_fract_y
 _atom_site_fract_z
 _atom_site_occupancy
  Ti  Ti0  1  0.69155366  0.57780233  0.27202527  1
  Ti  Ti1  1  0.30577706  0.41952739  0.72797473  1
  Ti  Ti2  1  0.57780233  0.30577706  0.88624967  1
  Ti  Ti3  1  0.08047261  0.19422294  0.27202527  1
  Ti  Ti4  1  0.80844634  0.08047261  0.88624967  1
  Ti  Ti5  1  0.41952739  0.69155366  0.11375033  1
  Ti  Ti6  1  0.92219767  0.80844634  0.72797473  1
  Ti  Ti7  1  0.19422294  0.92219767  0.11375033  1
  Mn  Mn0  1  0.75000000  0.75000000  0.00000000  1
  Bi  Bi0  1  0.14150865  0.64150865  0.78301829  1
  Bi  Bi1  1  0.35849135  0.14150865  0.50000000  1
  Bi  Bi2  1  0.85849135  0.35849135  0.21698171  1
  Bi  Bi3  1  0.64150865  0.85849135  0.50000000  1
  P  P0  1  0.25000000  0.25000000  0.00000000  1
loop_
_geom_bond_atom_site_label_1
_geom_bond_atom_site_label_2
_geom_bond_distance
_geom_bond_site_symmetry_2
Mn0 P0 2.449773 1_665
Mn0 P0 2.449773 1_555
Mn0 Ti1 2.514200 1_554
Mn0 Ti3 2.514200 1_665
Mn0 Ti7 2.514200 1_655
Mn0 Ti2 2.514200 1_554
Mn0 Ti6 2.514201 1_554
Mn0 Ti0 2.514201 1_555
Mn0 Ti5 2.514205 1_555
Mn0 Ti4 2.514205 1_564
Bi0 Ti6 2.900473 1_455
Bi0 Ti1 2.900481 1_555
Bi0 Ti5 2.986264 1_556
Bi0 Ti7 2.986268 1_556
Bi0 Ti4 3.070947 1_455
Bi0 Ti2 3.070953 1_565
Bi0 Ti4 3.081366 1_565
Bi0 Ti2 3.081368 1_455
Bi1 Ti7 2.900479 1_545
Bi1 Ti2 2.900479 1_555
Bi1 Ti1 2.986274 1_555
Bi1 Ti3 2.986274 1_555
Bi1 Ti6 3.070953 1_445
Bi1 Ti0 3.070953 1_555
Bi1 Ti0 3.081368 1_445
Bi1 Ti6 3.081368 1_555
Bi2 Ti0 2.900473 1_555
Bi2 Ti3 2.900481 1_655
Bi2 Ti4 2.986264 1_554
Bi2 Ti2 2.986268 1_554
Bi2 Ti5 3.070947 1_655
Bi2 Ti7 3.070953 1_545
Bi2 Ti5 3.081366 1_545
Bi2 Ti7 3.081368 1_655
Bi3 Ti4 2.900480 1_565
Bi3 Ti5 2.900480 1_555
Bi3 Ti0 2.986280 1_555
Bi3 Ti6 2.986280 1_555
Bi3 Ti1 3.070953 1_665
Bi3 Ti3 3.070953 1_555
Bi3 Ti3 3.081372 1_665
Bi3 Ti1 3.081372 1_555
P0 Ti3 2.507818 1_555
P0 Ti1 2.507818 1_554
P0 Ti2 2.507818 1_554
P0 Ti7 2.507818 1_545
P0 Ti0 2.507821 1_555
P0 Ti6 2.507821 1_444
P0 Ti4 2.507825 1_454
P0 Ti5 2.507825 1_555
