# generated using pymatgen
data_LiTa5VH16
_symmetry_space_group_name_H-M   'P 1'
_cell_length_a   6.36038198
_cell_length_b   6.03555740
_cell_length_c   6.36038114
_cell_angle_alpha   61.67547252
_cell_angle_beta   57.30936313
_cell_angle_gamma   61.67547478
_symmetry_Int_Tables_number   1
_chemical_formula_structural   LiTa5VH16
_chemical_formula_sum   'Li1 Ta5 V1 H16'
_cell_volume   172.86265456
_cell_formula_units_Z   1
loop_
 _symmetry_equiv_pos_site_id
 _symmetry_equiv_pos_as_xyz
  1  'x, y, z'
loop_
 _atom_site_type_symbol
 _atom_site_label
 _atom_site_symmetry_multiplicity
 _atom_site_fract_x
 _atom_site_fract_y
 _atom_site_fract_z
 _atom_site_occupancy
  Li  Li0  1  0.50000000  0.00000000  0.50000000  1
  Ta  Ta0  1  0.00000000  0.00000000  0.50000000  1
  Ta  Ta1  1  0.00000000  0.50000000  0.50000000  1
  Ta  Ta2  1  0.50000000  0.50000000  0.00000000  1
  Ta  Ta3  1  0.00000000  0.50000000  0.00000000  1
  Ta  Ta4  1  0.50000000  0.00000000  0.00000000  1
  V  V0  1  0.00000000  0.00000000  0.00000000  1
  H  H0  1  0.87429637  0.87954800  0.36660764  1
  H  H1  1  0.88061927  0.36299846  0.88061927  1
  H  H2  1  0.36660764  0.87954800  0.87429637  1
  H  H3  1  0.88061927  0.87576200  0.88061927  1
  H  H4  1  0.12570363  0.12045200  0.63339236  1
  H  H5  1  0.11938073  0.63700154  0.11938073  1
  H  H6  1  0.63339236  0.12045200  0.12570363  1
  H  H7  1  0.11938073  0.12423800  0.11938073  1
  H  H8  1  0.61800620  0.61614655  0.14970171  1
  H  H9  1  0.62836302  0.12127732  0.62836302  1
  H  H10  1  0.14970171  0.61614655  0.61800620  1
  H  H11  1  0.62836302  0.62199664  0.62836302  1
  H  H12  1  0.38199380  0.38385345  0.85029829  1
  H  H13  1  0.37163698  0.87872268  0.37163698  1
  H  H14  1  0.85029829  0.38385345  0.38199380  1
  H  H15  1  0.37163698  0.37800336  0.37163698  1
loop_
_geom_bond_atom_site_label_1
_geom_bond_atom_site_label_2
_geom_bond_distance
_geom_bond_site_symmetry_2
H0 V0 1.879897 1_665
H0 Li0 1.917567 1_565
H0 Ta1 1.938349 1_655
H0 Ta0 1.938349 1_665
H1 V0 1.848974 1_656
H1 Ta3 1.910811 1_656
H1 Ta1 1.957440 1_655
H1 Ta2 1.957440 1_556
H2 V0 1.879898 1_566
H2 Li0 1.917567 1_565
H2 Ta2 1.938349 1_556
H2 Ta4 1.938349 1_566
H3 V0 1.848979 1_666
H3 Ta3 1.910806 1_656
H3 Ta0 1.957439 1_665
H3 Ta4 1.957440 1_566
H4 V0 1.879897 1_556
H4 Li0 1.917567 1_555
H4 Ta1 1.938349 1_555
H4 Ta0 1.938349 1_555
H5 V0 1.848974 1_565
H5 Ta3 1.910811 1_555
H5 Ta1 1.957440 1_555
H5 Ta2 1.957440 1_555
H6 V0 1.879898 1_655
H6 Li0 1.917567 1_555
H6 Ta2 1.938349 1_555
H6 Ta4 1.938349 1_555
H7 V0 1.848979 1_555
H7 Ta3 1.910806 1_555
H7 Ta0 1.957439 1_555
H7 Ta4 1.957440 1_555
H8 Ta3 1.954314 1_655
H8 Ta4 1.966213 1_565
H8 Ta2 1.966218 1_555
H9 Ta4 1.905332 1_556
H9 Ta0 1.905332 1_655
H9 Li0 1.929547 1_555
H10 Ta3 1.954314 1_556
H10 Ta0 1.966213 1_565
H10 Ta1 1.966218 1_555
H11 Ta2 1.905332 1_556
H11 Ta1 1.905332 1_655
H11 Li0 1.929546 1_565
H12 Ta3 1.954314 1_556
H12 Ta4 1.966213 1_556
H12 Ta2 1.966218 1_556
H13 Ta4 1.905332 1_565
H13 Ta0 1.905332 1_565
H13 Li0 1.929547 1_565
H14 Ta3 1.954314 1_655
H14 Ta0 1.966213 1_655
H14 Ta1 1.966218 1_655
H15 Ta2 1.905332 1_555
H15 Ta1 1.905332 1_555
H15 Li0 1.929546 1_555
