# generated using pymatgen
data_Zn3InP6N13
_symmetry_space_group_name_H-M   'P 1'
_cell_length_a   6.98031700
_cell_length_b   7.02631383
_cell_length_c   6.98031700
_cell_angle_alpha   109.60475094
_cell_angle_beta   109.33734484
_cell_angle_gamma   109.60476548
_symmetry_Int_Tables_number   1
_chemical_formula_structural   Zn3InP6N13
_chemical_formula_sum   'Zn3 In1 P6 N13'
_cell_volume   263.11015143
_cell_formula_units_Z   1
loop_
 _symmetry_equiv_pos_site_id
 _symmetry_equiv_pos_as_xyz
  1  'x, y, z'
loop_
 _atom_site_type_symbol
 _atom_site_label
 _atom_site_symmetry_multiplicity
 _atom_site_fract_x
 _atom_site_fract_y
 _atom_site_fract_z
 _atom_site_occupancy
  Zn  Zn0  1  0.70899517  0.00467936  0.00000000  1
  Zn  Zn1  1  0.00000000  0.00467936  0.70899517  1
  Zn  Zn2  1  0.29100483  0.29568319  0.29100483  1
  In  In0  1  1.00000000  0.72049280  0.00000000  1
  P  P0  1  0.49623695  0.24451514  0.74711326  1
  P  P1  1  0.50376305  0.74827919  0.25087631  1
  P  P2  1  0.74912369  0.49740188  0.25288674  1
  P  P3  1  0.25087631  0.74827919  0.50376305  1
  P  P4  1  0.74711326  0.24451514  0.49623695  1
  P  P5  1  0.25288674  0.49740188  0.74912369  1
  N  N0  1  0.00000000  0.73249715  0.45641537  1
  N  N1  1  0.27910287  0.54287224  0.54397999  1
  N  N2  1  0.73021921  0.45157620  0.00000000  1
  N  N3  1  0.26978079  0.72135799  0.26978079  1
  N  N4  1  0.45602001  0.99889225  0.73512388  1
  N  N5  1  0.72089713  0.26376837  0.26487612  1
  N  N6  1  0.54358463  0.27608078  0.54358463  1
  N  N7  1  0.73512388  0.99889225  0.45602001  1
  N  N8  1  0.26487612  0.26376837  0.72089713  1
  N  N9  1  0.45641537  0.73249715  0.00000000  1
  N  N10  1  0.54397999  0.54287224  0.27910287  1
  N  N11  1  0.00000000  0.45157620  0.73021921  1
  N  N12  1  1.00000000  0.01741870  0.00000000  1
loop_
_geom_bond_atom_site_label_1
_geom_bond_atom_site_label_2
_geom_bond_distance
_geom_bond_site_symmetry_2
In0 N12 2.086295 1_565
In0 N3 2.174550 1_655
In0 N2 2.174554 1_555
In0 N11 2.174554 1_654
N0 P3 1.627886 1_555
N0 P2 1.627888 1_455
N0 Zn1 2.122079 1_565
N1 P3 1.620707 1_555
N1 P5 1.620929 1_555
N1 Zn2 2.068225 1_555
N2 P2 1.634910 1_555
N2 P0 1.634910 1_554
N3 P1 1.634910 1_555
N3 P3 1.634910 1_555
N4 P0 1.620703 1_565
N4 P3 1.620928 1_555
N4 Zn0 2.068217 1_566
N5 P2 1.620704 1_555
N5 P4 1.620933 1_555
N5 Zn0 2.068213 1_555
N6 P0 1.627886 1_555
N6 P4 1.627886 1_555
N6 Zn2 2.122079 1_555
N7 P4 1.620703 1_565
N7 P1 1.620928 1_555
N7 Zn1 2.068217 1_665
N8 P5 1.620704 1_555
N8 P0 1.620933 1_555
N8 Zn1 2.068213 1_555
N9 P1 1.627886 1_555
N9 P5 1.627888 1_554
N9 Zn0 2.122079 1_565
N10 P1 1.620707 1_555
N10 P2 1.620929 1_555
N10 Zn2 2.068225 1_555
N11 P5 1.634910 1_555
N11 P4 1.634910 1_455
N12 Zn2 2.003046 1_655
N12 Zn0 2.003048 1_555
N12 Zn1 2.003048 1_654
