# generated using pymatgen
data_Y6Si4Ir3Os
_symmetry_space_group_name_H-M   'P 1'
_cell_length_a   5.56692607
_cell_length_b   5.56692705
_cell_length_c   13.16803076
_cell_angle_alpha   90.28027592
_cell_angle_beta   89.71972444
_cell_angle_gamma   136.75729074
_symmetry_Int_Tables_number   1
_chemical_formula_structural   Y6Si4Ir3Os
_chemical_formula_sum   'Y6 Si4 Ir3 Os1'
_cell_volume   279.57196792
_cell_formula_units_Z   1
loop_
 _symmetry_equiv_pos_site_id
 _symmetry_equiv_pos_as_xyz
  1  'x, y, z'
loop_
 _atom_site_type_symbol
 _atom_site_label
 _atom_site_symmetry_multiplicity
 _atom_site_fract_x
 _atom_site_fract_y
 _atom_site_fract_z
 _atom_site_occupancy
  Y  Y0  1  0.77406182  0.22593818  0.60417228  1
  Y  Y1  1  0.51751682  0.48248318  0.24813616  1
  Y  Y2  1  0.22593818  0.77406182  0.39582772  1
  Y  Y3  1  0.77365670  0.22634330  0.89648728  1
  Y  Y4  1  0.48248318  0.51751682  0.75186384  1
  Y  Y5  1  0.22634330  0.77365670  0.10351272  1
  Si  Si0  1  0.06119341  0.93880659  0.58932207  1
  Si  Si1  1  0.06187653  0.93812347  0.91122118  1
  Si  Si2  1  0.93880659  0.06119341  0.41067793  1
  Si  Si3  1  0.93812347  0.06187653  0.08877882  1
  Ir  Ir0  1  0.81394122  0.18605878  0.25182219  1
  Ir  Ir1  1  0.18605878  0.81394122  0.74817781  1
  Ir  Ir2  1  0.50000000  0.50000000  0.50000000  1
  Os  Os0  1  0.50000000  0.50000000  0.00000000  1
loop_
_geom_bond_atom_site_label_1
_geom_bond_atom_site_label_2
_geom_bond_distance
_geom_bond_site_symmetry_2
Si0 Si2 2.677646 1_465
Si0 Y0 2.977345 1_465
Si0 Y0 3.017429 1_565
Si0 Y0 3.017430 1_455
Si0 Y2 3.058419 1_555
Si0 Y4 3.071501 1_455
Si0 Y4 3.071501 1_565
Si1 Si3 2.660043 1_466
Si1 Y3 2.990531 1_465
Si1 Y3 3.007618 1_565
Si1 Y3 3.007618 1_455
Si1 Y4 3.050318 1_455
Si1 Y4 3.050319 1_565
Si1 Y5 3.058553 1_556
Si2 Y2 2.977345 1_645
Si2 Y2 3.017429 1_545
Si2 Y2 3.017430 1_655
Si2 Y0 3.058419 1_555
Si2 Y1 3.071501 1_655
Si2 Y1 3.071501 1_545
Si3 Y5 2.990531 1_645
Si3 Y5 3.007618 1_545
Si3 Y5 3.007618 1_655
Si3 Y1 3.050318 1_655
Si3 Y1 3.050319 1_545
Si3 Y3 3.058553 1_554
Ir0 Si2 2.464647 1_555
Ir0 Si3 2.496499 1_555
Ir0 Y2 2.935129 1_545
Ir0 Y2 2.935129 1_655
Ir0 Y1 2.940883 1_655
Ir0 Y1 2.940883 1_545
Ir0 Y5 2.976965 1_545
Ir0 Y5 2.976966 1_655
Ir0 Y1 3.068770 1_555
Ir1 Si0 2.464647 1_555
Ir1 Si1 2.496499 1_555
Ir1 Y0 2.935129 1_565
Ir1 Y0 2.935129 1_455
Ir1 Y4 2.940883 1_455
Ir1 Y4 2.940883 1_565
Ir1 Y3 2.976965 1_565
Ir1 Y3 2.976966 1_455
Ir1 Y4 3.068770 1_555
Ir2 Si0 2.449506 1_655
Ir2 Si2 2.449506 1_455
Ir2 Si0 2.449506 1_545
Ir2 Si2 2.449506 1_565
Ir2 Y0 3.157422 1_555
Ir2 Y2 3.157422 1_555
Ir2 Y4 3.320550 1_555
Ir2 Y1 3.320550 1_555
Ir2 Y0 3.394767 1_455
Ir2 Y2 3.394767 1_655
Ir2 Y0 3.394767 1_565
Ir2 Y2 3.394767 1_545
Os0 Si3 2.444706 1_455
Os0 Si1 2.444706 1_654
Os0 Si3 2.444707 1_565
Os0 Si1 2.444707 1_544
Os0 Y5 3.136911 1_555
Os0 Y3 3.136911 1_554
Os0 Y1 3.273443 1_555
Os0 Y4 3.273443 1_554
Os0 Y5 3.404069 1_655
Os0 Y3 3.404069 1_454
Os0 Y5 3.404069 1_545
Os0 Y3 3.404069 1_564
