# generated using pymatgen
data_TcBiS
_symmetry_space_group_name_H-M   'P 1'
_cell_length_a   7.35516931
_cell_length_b   7.35517009
_cell_length_c   7.35516928
_cell_angle_alpha   60.00000363
_cell_angle_beta   60.00000015
_cell_angle_gamma   59.99999849
_symmetry_Int_Tables_number   1
_chemical_formula_structural   TcBiS
_chemical_formula_sum   'Tc4 Bi4 S4'
_cell_volume   281.36046737
_cell_formula_units_Z   4
loop_
 _symmetry_equiv_pos_site_id
 _symmetry_equiv_pos_as_xyz
  1  'x, y, z'
loop_
 _atom_site_type_symbol
 _atom_site_label
 _atom_site_symmetry_multiplicity
 _atom_site_fract_x
 _atom_site_fract_y
 _atom_site_fract_z
 _atom_site_occupancy
  Tc  Tc0  1  0.15819439  0.15819439  0.15819439  1
  Tc  Tc1  1  0.52541682  0.15819439  0.15819439  1
  Tc  Tc2  1  0.15819439  0.15819439  0.52541682  1
  Tc  Tc3  1  0.15819439  0.52541682  0.15819439  1
  Bi  Bi0  1  0.88453470  0.34639390  0.88453470  1
  Bi  Bi1  1  0.88453470  0.88453470  0.34639390  1
  Bi  Bi2  1  0.34639390  0.88453470  0.88453470  1
  Bi  Bi3  1  0.88453470  0.88453470  0.88453470  1
  S  S0  1  0.37451705  0.37451705  0.37451705  1
  S  S1  1  0.87645185  0.37451705  0.37451705  1
  S  S2  1  0.37451705  0.37451705  0.87645185  1
  S  S3  1  0.37451705  0.87645185  0.37451705  1
loop_
_geom_bond_atom_site_label_1
_geom_bond_atom_site_label_2
_geom_bond_distance
_geom_bond_site_symmetry_2
Bi0 Tc2 2.915111 1_655
Bi0 Tc1 2.915111 1_556
Bi0 Tc0 2.915123 1_656
Bi1 Tc1 2.915111 1_565
Bi1 Tc3 2.915111 1_655
Bi1 Tc0 2.915123 1_665
Bi2 Tc2 2.915111 1_565
Bi2 Tc3 2.915111 1_556
Bi2 Tc0 2.915123 1_566
Bi3 Tc1 2.915120 1_566
Bi3 Tc3 2.915120 1_656
Bi3 Tc2 2.915120 1_665
S0 Tc3 2.301018 1_555
S0 Tc1 2.301018 1_555
S0 Tc2 2.301018 1_555
S1 Tc2 2.301000 1_655
S1 Tc3 2.301000 1_655
S1 Tc0 2.301013 1_655
S2 Tc3 2.301000 1_556
S2 Tc1 2.301000 1_556
S2 Tc0 2.301013 1_556
S3 Tc2 2.301000 1_565
S3 Tc1 2.301001 1_565
S3 Tc0 2.301013 1_565
