# generated using pymatgen
data_ZrGaNi3Pt
_symmetry_space_group_name_H-M   'P 1'
_cell_length_a   4.79580334
_cell_length_b   4.79580321
_cell_length_c   4.79580405
_cell_angle_alpha   60.78084735
_cell_angle_beta   60.78086291
_cell_angle_gamma   60.78085426
_symmetry_Int_Tables_number   1
_chemical_formula_structural   ZrGaNi3Pt
_chemical_formula_sum   'Zr1 Ga1 Ni3 Pt1'
_cell_volume   79.36928481
_cell_formula_units_Z   1
loop_
 _symmetry_equiv_pos_site_id
 _symmetry_equiv_pos_as_xyz
  1  'x, y, z'
loop_
 _atom_site_type_symbol
 _atom_site_label
 _atom_site_symmetry_multiplicity
 _atom_site_fract_x
 _atom_site_fract_y
 _atom_site_fract_z
 _atom_site_occupancy
  Zr  Zr0  1  0.00462578  0.00462578  0.00462578  1
  Ga  Ga0  1  0.62180232  0.62180232  0.62180232  1
  Ni  Ni0  1  0.62345789  0.12480977  0.62345789  1
  Ni  Ni1  1  0.12480977  0.62345789  0.62345789  1
  Ni  Ni2  1  0.62345789  0.62345789  0.12480977  1
  Pt  Pt0  1  0.25184834  0.25184834  0.25184834  1
loop_
_geom_bond_atom_site_label_1
_geom_bond_atom_site_label_2
_geom_bond_distance
_geom_bond_site_symmetry_2
Ga0 Ni0 2.375754 1_555
Ga0 Ni1 2.375754 1_555
Ga0 Ni2 2.375754 1_555
Ga0 Ni0 2.420103 1_565
Ga0 Ni1 2.420103 1_655
Ga0 Ni2 2.420103 1_556
Ga0 Pt0 2.833924 1_565
Ga0 Pt0 2.833925 1_556
Ga0 Pt0 2.833925 1_655
Ga0 Zr0 2.860462 1_656
Ga0 Zr0 2.860463 1_665
Ga0 Zr0 2.860463 1_566
Ni0 Ni2 2.419587 1_555
Ni0 Ni1 2.419588 1_555
Ni0 Ni2 2.432707 1_546
Ni0 Ni1 2.432707 1_645
Ni0 Pt0 2.775636 1_555
Ni0 Zr0 2.797576 1_556
Ni0 Zr0 2.797577 1_655
Ni0 Pt0 2.849260 1_655
Ni0 Pt0 2.849260 1_556
Ni0 Zr0 2.867147 1_656
Ni1 Ni2 2.419588 1_555
Ni1 Ni2 2.432707 1_456
Ni1 Pt0 2.775637 1_555
Ni1 Zr0 2.797576 1_556
Ni1 Zr0 2.797576 1_565
Ni1 Pt0 2.849259 1_565
Ni1 Pt0 2.849260 1_556
Ni1 Zr0 2.867148 1_566
Ni2 Pt0 2.775636 1_555
Ni2 Zr0 2.797576 1_565
Ni2 Zr0 2.797576 1_655
Ni2 Pt0 2.849260 1_655
Ni2 Pt0 2.849260 1_565
Ni2 Zr0 2.867147 1_665
Pt0 Zr0 2.886934 1_555
Pt0 Zr0 2.976474 1_565
Pt0 Zr0 2.976474 1_655
Pt0 Zr0 2.976474 1_556
