# generated using pymatgen
data_Ca3Sc(NbN3)2
_symmetry_space_group_name_H-M   'P 1'
_cell_length_a   5.58215035
_cell_length_b   5.58215121
_cell_length_c   5.85315104
_cell_angle_alpha   99.15214964
_cell_angle_beta   99.15216034
_cell_angle_gamma   119.98610614
_symmetry_Int_Tables_number   1
_chemical_formula_structural   Ca3Sc(NbN3)2
_chemical_formula_sum   'Ca3 Sc1 Nb2 N6'
_cell_volume   149.77073714
_cell_formula_units_Z   1
loop_
 _symmetry_equiv_pos_site_id
 _symmetry_equiv_pos_as_xyz
  1  'x, y, z'
loop_
 _atom_site_type_symbol
 _atom_site_label
 _atom_site_symmetry_multiplicity
 _atom_site_fract_x
 _atom_site_fract_y
 _atom_site_fract_z
 _atom_site_occupancy
  Ca  Ca0  1  0.83431379  0.16568621  0.50000000  1
  Ca  Ca1  1  0.16568621  0.83431379  0.50000000  1
  Ca  Ca2  1  0.50000000  0.50000000  0.50000000  1
  Sc  Sc0  1  0.00000000  0.00000000  0.00000000  1
  Nb  Nb0  1  0.33296927  0.66703073  0.00000000  1
  Nb  Nb1  1  0.66703073  0.33296927  1.00000000  1
  N  N0  1  0.41392984  0.07069839  0.21338282  1
  N  N1  1  0.92930161  0.58607016  0.78661718  1
  N  N2  1  0.58607016  0.92930161  0.78661718  1
  N  N3  1  0.07069839  0.41392984  0.21338282  1
  N  N4  1  0.72774764  0.72774764  0.21267099  1
  N  N5  1  0.27225236  0.27225236  0.78732901  1
loop_
_geom_bond_atom_site_label_1
_geom_bond_atom_site_label_2
_geom_bond_distance
_geom_bond_site_symmetry_2
Ca0 N0 2.413135 1_555
Ca0 N1 2.413136 1_555
Ca0 N5 2.465513 1_655
Ca0 N4 2.465514 1_545
Ca0 N2 2.468154 1_545
Ca0 N3 2.468154 1_655
Ca1 N2 2.413135 1_555
Ca1 N3 2.413136 1_555
Ca1 N4 2.465513 1_455
Ca1 N5 2.465514 1_565
Ca1 N0 2.468154 1_565
Ca1 N1 2.468154 1_455
Ca2 N5 2.409487 1_555
Ca2 N4 2.409487 1_555
Ca2 N1 2.470198 1_555
Ca2 N3 2.470198 1_555
Ca2 N2 2.470198 1_555
Ca2 N0 2.470198 1_555
N0 Nb0 2.179197 1_545
N0 Nb1 2.185148 1_554
N0 Sc0 2.251283 1_555
N1 Nb0 2.179196 1_656
N1 Nb1 2.185148 1_555
N1 Sc0 2.251284 1_666
N2 Nb1 2.179197 1_565
N2 Nb0 2.185148 1_556
N2 Sc0 2.251283 1_666
N3 Nb1 2.179196 1_454
N3 Nb0 2.185148 1_555
N3 Sc0 2.251284 1_555
N4 Nb0 2.183413 1_555
N4 Nb1 2.183413 1_554
N4 Sc0 2.250276 1_665
N5 Nb1 2.183413 1_555
N5 Nb0 2.183413 1_556
N5 Sc0 2.250276 1_556
