# generated using pymatgen
data_Ca10InSi4Ge
_symmetry_space_group_name_H-M   'P 1'
_cell_length_a   7.73265832
_cell_length_b   9.28110372
_cell_length_c   7.73265832
_cell_angle_alpha   114.61890344
_cell_angle_beta   90.00000000
_cell_angle_gamma   114.61890344
_symmetry_Int_Tables_number   1
_chemical_formula_structural   Ca10InSi4Ge
_chemical_formula_sum   'Ca10 In1 Si4 Ge1'
_cell_volume   448.42268165
_cell_formula_units_Z   1
loop_
 _symmetry_equiv_pos_site_id
 _symmetry_equiv_pos_as_xyz
  1  'x, y, z'
loop_
 _atom_site_type_symbol
 _atom_site_label
 _atom_site_symmetry_multiplicity
 _atom_site_fract_x
 _atom_site_fract_y
 _atom_site_fract_z
 _atom_site_occupancy
  Ca  Ca0  1  0.98938788  0.97877677  0.98938788  1
  Ca  Ca1  1  0.51061212  0.02122323  0.51061212  1
  Ca  Ca2  1  0.52982358  0.72286534  0.67291516  1
  Ca  Ca3  1  0.19304376  0.72286534  0.04995118  1
  Ca  Ca4  1  0.67291516  0.72286534  0.19304376  1
  Ca  Ca5  1  0.04995118  0.72286534  0.52982358  1
  Ca  Ca6  1  0.45004882  0.27713466  0.30695624  1
  Ca  Ca7  1  0.82708484  0.27713466  0.97017642  1
  Ca  Ca8  1  0.30695624  0.27713466  0.82708484  1
  Ca  Ca9  1  0.97017642  0.27713466  0.45004882  1
  In  In0  1  0.75000000  0.50000000  0.75000000  1
  Si  Si0  1  0.88890523  0.00000000  0.61109477  1
  Si  Si1  1  0.11109477  0.00000000  0.38890523  1
  Si  Si2  1  0.61109477  0.00000000  0.11109477  1
  Si  Si3  1  0.38890523  0.00000000  0.88890523  1
  Ge  Ge0  1  0.25000000  0.50000000  0.25000000  1
loop_
_geom_bond_atom_site_label_1
_geom_bond_atom_site_label_2
_geom_bond_distance
_geom_bond_site_symmetry_2
Ca0 Si0 3.131607 1_565
Ca0 Si2 3.131609 1_566
Ca0 Si3 3.131615 1_665
Ca0 Si1 3.131617 1_666
Ca0 In0 3.590567 1_555
Ca1 Si0 3.131607 1_555
Ca1 Si3 3.131609 1_555
Ca1 Si2 3.131615 1_555
Ca1 Si1 3.131617 1_555
Ca1 In0 3.590567 1_555
Ca2 Si3 3.057556 1_565
Ca2 Si0 3.102934 1_565
Ca2 Si2 3.143793 1_566
Ca2 Ge0 3.207843 1_555
Ca2 In0 3.390237 1_555
Ca3 Si2 3.057546 1_565
Ca3 Si1 3.102939 1_565
Ca3 Si3 3.143796 1_564
Ca3 Ge0 3.207831 1_555
Ca3 In0 3.390252 1_454
Ca4 Si0 3.057545 1_565
Ca4 Si2 3.102943 1_565
Ca4 Si1 3.143791 1_665
Ca4 Ge0 3.207837 1_555
Ca4 In0 3.390249 1_554
Ca5 Si1 3.057557 1_565
Ca5 Si3 3.102930 1_565
Ca5 Si0 3.143799 1_465
Ca5 Ge0 3.207838 1_555
Ca5 In0 3.390241 1_455
Ca6 Si3 3.057546 1_554
Ca6 Si1 3.102939 1_555
Ca6 Si2 3.143796 1_555
Ca6 Ge0 3.207831 1_555
Ca6 In0 3.390252 1_555
Ca7 Si2 3.057556 1_556
Ca7 Si0 3.102934 1_555
Ca7 Si3 3.143793 1_555
Ca7 Ge0 3.207843 1_656
Ca7 In0 3.390237 1_555
Ca8 Si0 3.057545 1_455
Ca8 Si3 3.102943 1_555
Ca8 Si1 3.143791 1_555
Ca8 Ge0 3.207837 1_556
Ca8 In0 3.390249 1_555
Ca9 Si1 3.057557 1_655
Ca9 Si2 3.102930 1_555
Ca9 Si0 3.143799 1_555
Ca9 Ge0 3.207838 1_655
Ca9 In0 3.390241 1_555
Si0 Si1 2.429783 1_655
Si2 Si3 2.429783 1_554
