# generated using pymatgen
data_Ca3Al2GePd6
_symmetry_space_group_name_H-M   'P 1'
_cell_length_a   8.68260928
_cell_length_b   8.68260775
_cell_length_c   8.68260882
_cell_angle_alpha   37.60768717
_cell_angle_beta   37.60770454
_cell_angle_gamma   37.60769292
_symmetry_Int_Tables_number   1
_chemical_formula_structural   Ca3Al2GePd6
_chemical_formula_sum   'Ca3 Al2 Ge1 Pd6'
_cell_volume   218.65594950
_cell_formula_units_Z   1
loop_
 _symmetry_equiv_pos_site_id
 _symmetry_equiv_pos_as_xyz
  1  'x, y, z'
loop_
 _atom_site_type_symbol
 _atom_site_label
 _atom_site_symmetry_multiplicity
 _atom_site_fract_x
 _atom_site_fract_y
 _atom_site_fract_z
 _atom_site_occupancy
  Ca  Ca0  1  0.35982936  0.35982936  0.35982936  1
  Ca  Ca1  1  0.50000000  0.50000000  0.50000000  1
  Ca  Ca2  1  0.64017064  0.64017064  0.64017064  1
  Al  Al0  1  0.16740230  0.16740230  0.16740230  1
  Al  Al1  1  0.83259770  0.83259770  0.83259770  1
  Ge  Ge0  1  0.00000000  0.00000000  0.00000000  1
  Pd  Pd0  1  0.58035238  0.08039327  0.08039327  1
  Pd  Pd1  1  0.08039327  0.58035238  0.08039327  1
  Pd  Pd2  1  0.91960673  0.91960673  0.41964762  1
  Pd  Pd3  1  0.08039327  0.08039327  0.58035238  1
  Pd  Pd4  1  0.91960673  0.41964762  0.91960673  1
  Pd  Pd5  1  0.41964762  0.91960673  0.91960673  1
loop_
_geom_bond_atom_site_label_1
_geom_bond_atom_site_label_2
_geom_bond_distance
_geom_bond_site_symmetry_2
Ca0 Pd5 3.149929 1_554
Ca0 Pd5 3.149929 1_545
Ca0 Pd2 3.149929 1_455
Ca0 Pd2 3.149929 1_545
Ca0 Pd4 3.149930 1_455
Ca0 Pd4 3.149930 1_554
Ca0 Pd1 3.169424 1_555
Ca0 Pd3 3.169424 1_555
Ca0 Pd0 3.169424 1_555
Ca0 Ge0 3.294489 1_565
Ca0 Ge0 3.294490 1_556
Ca0 Ge0 3.294491 1_655
Ca0 Ca1 3.388824 1_555
Ca1 Ca2 3.388824 1_555
Ca1 Pd0 3.407179 1_565
Ca1 Pd5 3.407179 1_545
Ca1 Pd3 3.407180 1_565
Ca1 Pd2 3.407180 1_545
Ca1 Pd0 3.407180 1_556
Ca1 Pd5 3.407180 1_554
Ca1 Pd3 3.407180 1_655
Ca1 Pd2 3.407180 1_455
Ca1 Pd1 3.407181 1_556
Ca1 Pd4 3.407181 1_554
Ca1 Pd1 3.407181 1_655
Ca1 Pd4 3.407181 1_455
Ca2 Pd0 3.149929 1_556
Ca2 Pd0 3.149929 1_565
Ca2 Pd3 3.149929 1_655
Ca2 Pd3 3.149929 1_565
Ca2 Pd1 3.149930 1_655
Ca2 Pd1 3.149930 1_556
Ca2 Pd4 3.169424 1_555
Ca2 Pd2 3.169424 1_555
Ca2 Pd5 3.169424 1_555
Ca2 Ge0 3.294489 1_656
Ca2 Ge0 3.294490 1_665
Ca2 Ge0 3.294491 1_566
Al0 Pd1 2.513559 1_555
Al0 Pd3 2.513559 1_555
Al0 Pd0 2.513560 1_555
Al0 Pd4 2.541079 1_454
Al0 Pd2 2.541079 1_445
Al0 Pd5 2.541079 1_544
Al0 Ca1 3.231661 1_545
Al0 Ca1 3.231662 1_554
Al0 Ca1 3.231663 1_455
Al1 Pd4 2.513559 1_555
Al1 Pd2 2.513559 1_555
Al1 Pd5 2.513560 1_555
Al1 Pd1 2.541079 1_656
Al1 Pd3 2.541079 1_665
Al1 Pd0 2.541079 1_566
Al1 Ca1 3.231661 1_565
Al1 Ca1 3.231662 1_556
Al1 Ca1 3.231663 1_655
Ge0 Pd4 2.638772 1_454
Ge0 Pd1 2.638772 1_545
Ge0 Pd2 2.638772 1_445
Ge0 Pd3 2.638772 1_554
Ge0 Pd5 2.638773 1_544
Ge0 Pd0 2.638773 1_455
Pd0 Pd1 2.798430 1_555
Pd0 Pd3 2.798431 1_555
Pd0 Pd1 2.798888 1_645
Pd0 Pd3 2.798889 1_654
Pd1 Pd3 2.798429 1_555
Pd1 Pd3 2.798887 1_564
Pd2 Pd4 2.798429 1_555
Pd2 Pd5 2.798431 1_555
Pd2 Pd4 2.798887 1_564
Pd2 Pd5 2.798889 1_654
Pd4 Pd5 2.798430 1_555
Pd4 Pd5 2.798888 1_645
