# generated using pymatgen
data_SmAlGe
_symmetry_space_group_name_H-M   'P 1'
_cell_length_a   4.21462609
_cell_length_b   4.21462586
_cell_length_c   7.88463007
_cell_angle_alpha   105.50178718
_cell_angle_beta   105.50177949
_cell_angle_gamma   89.99999981
_symmetry_Int_Tables_number   1
_chemical_formula_structural   SmAlGe
_chemical_formula_sum   'Sm2 Al2 Ge2'
_cell_volume   129.66539138
_cell_formula_units_Z   2
loop_
 _symmetry_equiv_pos_site_id
 _symmetry_equiv_pos_as_xyz
  1  'x, y, z'
loop_
 _atom_site_type_symbol
 _atom_site_label
 _atom_site_symmetry_multiplicity
 _atom_site_fract_x
 _atom_site_fract_y
 _atom_site_fract_z
 _atom_site_occupancy
  Sm  Sm0  1  0.33493693  0.83493693  0.66987386  1
  Sm  Sm1  1  0.58493693  0.58493693  0.16987386  1
  Al  Al0  1  0.91920039  0.41920039  0.83840178  1
  Al  Al1  1  0.16920039  0.16920039  0.33840178  1
  Ge  Ge0  1  0.00346268  0.00346268  0.00692437  1
  Ge  Ge1  1  0.75346268  0.25346268  0.50692537  1
loop_
_geom_bond_atom_site_label_1
_geom_bond_atom_site_label_2
_geom_bond_distance
_geom_bond_site_symmetry_2
Al0 Ge1 2.419684 1_555
Al0 Ge0 2.440094 1_656
Al0 Ge0 2.440102 1_666
Al0 Sm1 3.208656 1_556
Al0 Sm1 3.208660 1_656
Al0 Sm0 3.224116 1_545
Al0 Sm0 3.224119 1_645
Al0 Sm0 3.224119 1_555
Al0 Sm0 3.224122 1_655
Al1 Ge0 2.419691 1_555
Al1 Ge1 2.440100 1_455
Al1 Ge1 2.440104 1_555
Al1 Sm0 3.208656 1_545
Al1 Sm0 3.208659 1_555
Al1 Sm1 3.224116 1_445
Al1 Sm1 3.224119 1_545
Al1 Sm1 3.224119 1_455
Al1 Sm1 3.224122 1_555
Ge0 Sm1 3.208800 1_555
Ge0 Sm1 3.208802 1_455
Ge0 Sm1 3.208802 1_545
Ge0 Sm1 3.208805 1_445
Ge0 Sm0 3.239474 1_544
Ge0 Sm0 3.239478 1_444
Ge1 Sm0 3.208799 1_545
Ge1 Sm0 3.208799 1_555
Ge1 Sm0 3.208799 1_645
Ge1 Sm0 3.208800 1_655
Ge1 Sm1 3.239481 1_555
Ge1 Sm1 3.239481 1_545
