# generated using pymatgen
data_Ba3(SbO3)2
_symmetry_space_group_name_H-M   'P 1'
_cell_length_a   6.19150769
_cell_length_b   9.84516855
_cell_length_c   12.20855871
_cell_angle_alpha   105.11075295
_cell_angle_beta   90.39150416
_cell_angle_gamma   107.98795792
_symmetry_Int_Tables_number   1
_chemical_formula_structural   Ba3(SbO3)2
_chemical_formula_sum   'Ba9 Sb6 O18'
_cell_volume   680.24365644
_cell_formula_units_Z   3
loop_
 _symmetry_equiv_pos_site_id
 _symmetry_equiv_pos_as_xyz
  1  'x, y, z'
loop_
 _atom_site_type_symbol
 _atom_site_label
 _atom_site_symmetry_multiplicity
 _atom_site_fract_x
 _atom_site_fract_y
 _atom_site_fract_z
 _atom_site_occupancy
  Ba  Ba0  1  0.61017256  0.21017368  0.05880822  1
  Ba  Ba1  1  0.21914223  0.39658099  0.70466653  1
  Ba  Ba2  1  0.38982122  0.78983451  0.94119719  1
  Ba  Ba3  1  0.78086151  0.60341967  0.29533113  1
  Ba  Ba4  1  0.51261877  0.03318298  0.70013218  1
  Ba  Ba5  1  0.48737795  0.96681861  0.29986662  1
  Ba  Ba6  1  0.85057351  0.72466998  0.71170992  1
  Ba  Ba7  1  0.14942222  0.27533127  0.28828542  1
  Ba  Ba8  1  0.00000282  0.00000156  0.50000257  1
  Sb  Sb0  1  0.76259427  0.50567606  0.91825361  1
  Sb  Sb1  1  0.23740413  0.49433067  0.08174495  1
  Sb  Sb2  1  0.04477340  0.09883023  0.87829274  1
  Sb  Sb3  1  0.95520921  0.90115875  0.12171739  1
  Sb  Sb4  1  0.68417280  0.33633188  0.50699442  1
  Sb  Sb5  1  0.31585161  0.66366100  0.49299911  1
  O  O0  1  0.43759063  0.16281880  0.52070032  1
  O  O1  1  0.56242519  0.83717935  0.47929214  1
  O  O2  1  0.61013702  0.32100934  0.34929685  1
  O  O3  1  0.38986972  0.67898042  0.65070221  1
  O  O4  1  0.93253365  0.25110320  0.48778206  1
  O  O5  1  0.06748240  0.74888895  0.51220757  1
  O  O6  1  0.62626612  0.29335862  0.84551343  1
  O  O7  1  0.37372663  0.70664841  0.15448375  1
  O  O8  1  0.56561557  0.58132334  0.84243952  1
  O  O9  1  0.43438470  0.41868832  0.15756336  1
  O  O10  1  0.01036384  0.56669209  0.82382948  1
  O  O11  1  0.79334606  0.04693782  0.15306905  1
  O  O12  1  0.20664932  0.95305590  0.84693421  1
  O  O13  1  0.26539208  0.03851315  0.13871937  1
  O  O14  1  0.73459444  0.96148470  0.86127584  1
  O  O15  1  0.97152365  0.88977757  0.27934604  1
  O  O16  1  0.02846897  0.11022521  0.72067323  1
  O  O17  1  0.98963280  0.43331397  0.17616758  1
loop_
_geom_bond_atom_site_label_1
_geom_bond_atom_site_label_2
_geom_bond_distance
_geom_bond_site_symmetry_2
Ba0 O9 2.638172 1_555
Ba0 O13 2.650438 1_555
Ba0 O11 2.695436 1_555
Ba0 O17 2.742984 1_555
Ba0 O6 2.920034 1_554
Ba0 O14 3.242790 1_544
Ba1 O10 2.585496 1_555
Ba1 O8 2.585527 1_555
Ba1 O16 2.759467 1_555
Ba1 O3 2.903563 1_555
Ba1 O4 2.932610 1_455
Ba1 O0 3.382213 1_555
Ba2 O8 2.638180 1_555
Ba2 O14 2.650428 1_555
Ba2 O12 2.695326 1_555
Ba2 O10 2.743013 1_555
Ba2 O7 2.919943 1_556
Ba2 O13 3.242678 1_566
Ba3 O17 2.585433 1_555
Ba3 O9 2.585481 1_555
Ba3 O15 2.759388 1_555
Ba3 O2 2.903667 1_555
Ba3 O5 2.932563 1_655
Ba3 O1 3.382120 1_555
Ba4 O6 2.589577 1_555
Ba4 O12 2.698843 1_545
Ba4 O14 2.746600 1_545
Ba4 O0 2.907473 1_555
Ba4 O1 2.958769 1_545
Ba4 O16 3.038548 1_655
Ba4 O3 3.218989 1_545
Ba4 O16 3.307463 1_555
Ba5 O7 2.589545 1_555
Ba5 O11 2.698778 1_565
Ba5 O13 2.746648 1_565
Ba5 O1 2.907463 1_555
Ba5 O0 2.958660 1_565
Ba5 O15 3.038571 1_455
Ba5 O2 3.218870 1_565
Ba5 O15 3.307427 1_555
Ba6 O10 2.704316 1_655
Ba6 O8 2.706797 1_555
Ba6 O12 2.755879 1_655
Ba6 O3 2.810227 1_555
Ba6 O5 2.818247 1_655
Ba6 O14 2.849215 1_555
Ba7 O17 2.704338 1_455
Ba7 O9 2.706792 1_555
Ba7 O11 2.755874 1_455
Ba7 O2 2.810327 1_555
Ba7 O4 2.818142 1_455
Ba7 O13 2.849211 1_555
Ba8 O15 2.610930 1_445
Ba8 O16 2.611095 1_555
Ba8 O1 2.659068 1_445
Ba8 O0 2.659118 1_555
Ba8 O4 2.671611 1_455
Ba8 O5 2.671690 1_545
O0 Sb4 1.954160 1_555
O1 Sb5 1.954171 1_555
O2 Sb4 1.932179 1_555
O3 Sb5 1.932230 1_555
O4 Sb4 1.955235 1_555
O5 Sb5 1.955277 1_555
O6 Sb0 1.950041 1_555
O7 Sb1 1.950037 1_555
O8 Sb0 1.950322 1_555
O9 Sb1 1.950326 1_555
O10 Sb0 1.964476 1_455
O11 Sb3 1.953950 1_545
O12 Sb2 1.953970 1_565
O13 Sb3 1.950446 1_445
O14 Sb2 1.950381 1_665
O15 Sb3 1.960332 1_555
O16 Sb2 1.960262 1_555
O17 Sb1 1.964473 1_655
