# generated using pymatgen
data_Sr6Zr2TcH27
_symmetry_space_group_name_H-M   'P 1'
_cell_length_a   9.30428954
_cell_length_b   9.30428964
_cell_length_c   5.37798827
_cell_angle_alpha   90.00000000
_cell_angle_beta   90.00000000
_cell_angle_gamma   119.99999966
_symmetry_Int_Tables_number   1
_chemical_formula_structural   Sr6Zr2TcH27
_chemical_formula_sum   'Sr6 Zr2 Tc1 H27'
_cell_volume   403.19665659
_cell_formula_units_Z   1
loop_
 _symmetry_equiv_pos_site_id
 _symmetry_equiv_pos_as_xyz
  1  'x, y, z'
loop_
 _atom_site_type_symbol
 _atom_site_label
 _atom_site_symmetry_multiplicity
 _atom_site_fract_x
 _atom_site_fract_y
 _atom_site_fract_z
 _atom_site_occupancy
  Sr  Sr0  1  0.25874066  0.99995067  0.50000000  1
  Sr  Sr1  1  0.00004933  0.25878999  0.50000000  1
  Sr  Sr2  1  0.74121001  0.74125934  0.50000000  1
  Sr  Sr3  1  0.59000042  0.94102333  0.00000000  1
  Sr  Sr4  1  0.05897667  0.64897709  0.00000000  1
  Sr  Sr5  1  0.35102291  0.40999958  0.00000000  1
  Zr  Zr0  1  0.00000000  0.00000000  0.00000000  1
  Zr  Zr1  1  0.33333300  0.66666700  0.50000000  1
  Tc  Tc0  1  0.66666700  0.33333300  0.50000000  1
  H  H0  1  0.84502837  0.00081629  0.25632872  1
  H  H1  1  0.99918371  0.84421108  0.25632872  1
  H  H2  1  0.84502837  0.00081629  0.74367128  1
  H  H3  1  0.99918371  0.84421108  0.74367128  1
  H  H4  1  0.15578892  0.15497163  0.25632872  1
  H  H5  1  0.15578892  0.15497163  0.74367128  1
  H  H6  1  0.21222427  0.99207493  0.00000000  1
  H  H7  1  0.00792507  0.22014933  0.00000000  1
  H  H8  1  0.77985067  0.78777573  0.00000000  1
  H  H9  1  0.18084710  0.51199878  0.23864007  1
  H  H10  1  0.48800122  0.66884833  0.23864007  1
  H  H11  1  0.18084710  0.51199878  0.76135993  1
  H  H12  1  0.53516722  0.21404178  0.72619628  1
  H  H13  1  0.33115167  0.81915290  0.23864007  1
  H  H14  1  0.48800122  0.66884833  0.76135993  1
  H  H15  1  0.67887456  0.46483278  0.72619628  1
  H  H16  1  0.53516722  0.21404178  0.27380372  1
  H  H17  1  0.33115167  0.81915290  0.76135993  1
  H  H18  1  0.67887456  0.46483278  0.27380372  1
  H  H19  1  0.78595822  0.32112544  0.72619628  1
  H  H20  1  0.78595822  0.32112544  0.27380372  1
  H  H21  1  0.32231216  0.44799462  0.50000000  1
  H  H22  1  0.55200538  0.87431754  0.50000000  1
  H  H23  1  0.49940440  0.35266992  0.50000000  1
  H  H24  1  0.12568246  0.67768784  0.50000000  1
  H  H25  1  0.85326452  0.50059560  0.50000000  1
  H  H26  1  0.64733008  0.14673548  0.50000000  1
loop_
_geom_bond_atom_site_label_1
_geom_bond_atom_site_label_2
_geom_bond_distance
_geom_bond_site_symmetry_2
H0 Zr0 1.997609 1_655
H0 Sr1 2.469196 1_655
H0 Sr2 2.479878 1_545
H0 Sr3 2.553468 1_545
H1 Zr0 1.997615 1_665
H1 Sr2 2.469197 1_555
H1 Sr0 2.479879 1_655
H1 Sr4 2.553461 1_655
H2 Zr0 1.997609 1_656
H2 Sr1 2.469196 1_655
H2 Sr2 2.479878 1_545
H2 Sr3 2.553468 1_546
H3 Zr0 1.997615 1_666
H3 Sr2 2.469197 1_555
H3 Sr0 2.479879 1_655
H3 Sr4 2.553461 1_656
H4 Zr0 1.997612 1_555
H4 Sr0 2.469189 1_545
H4 Sr1 2.479885 1_555
H4 Sr5 2.553466 1_555
H5 Zr0 1.997612 1_556
H5 Sr0 2.469189 1_545
H5 Sr1 2.479885 1_555
H5 Sr5 2.553466 1_556
H6 Zr0 2.012478 1_565
H6 Sr0 2.718761 1_555
H6 Sr0 2.718761 1_554
H6 Sr4 2.769836 1_555
H7 Zr0 2.012478 1_555
H7 Sr1 2.718761 1_554
H7 Sr1 2.718761 1_555
H7 Sr5 2.769836 1_555
H8 Zr0 2.012478 1_665
H8 Sr2 2.718761 1_555
H8 Sr2 2.718761 1_554
H8 Sr3 2.769836 1_555
H9 Zr1 2.004451 1_555
H9 Sr4 2.449974 1_555
H9 Sr1 2.528385 1_555
H9 Sr5 2.560759 1_555
H10 Zr1 2.004454 1_555
H10 Sr5 2.449974 1_555
H10 Sr2 2.528385 1_555
H10 Sr3 2.560759 1_555
H11 Zr1 2.004451 1_555
H11 Sr4 2.449974 1_556
H11 Sr1 2.528385 1_555
H11 Sr5 2.560759 1_556
H12 Tc0 1.688410 1_555
H12 Sr0 2.634284 1_545
H13 Zr1 2.004447 1_555
H13 Sr3 2.449974 1_555
H13 Sr0 2.528385 1_555
H13 Sr4 2.560759 1_555
H14 Zr1 2.004454 1_555
H14 Sr5 2.449974 1_556
H14 Sr2 2.528385 1_555
H14 Sr3 2.560759 1_556
H15 Tc0 1.688413 1_555
H15 Sr2 2.634284 1_555
H16 Tc0 1.688410 1_555
H16 Sr0 2.634284 1_545
H17 Zr1 2.004447 1_555
H17 Sr3 2.449974 1_556
H17 Sr0 2.528385 1_555
H17 Sr4 2.560759 1_556
H18 Tc0 1.688413 1_555
H18 Sr2 2.634284 1_555
H19 Tc0 1.688407 1_555
H19 Sr1 2.634284 1_655
H20 Tc0 1.688407 1_555
H20 Sr1 2.634284 1_655
H21 Zr1 1.985308 1_555
H21 Sr1 2.609818 1_555
H21 Sr5 2.742528 1_556
H21 Sr5 2.742528 1_555
H22 Zr1 1.985303 1_555
H22 Sr2 2.609818 1_555
H22 Sr3 2.742528 1_555
H22 Sr3 2.742528 1_556
H23 Tc0 1.653575 1_555
H24 Zr1 1.985298 1_555
H24 Sr0 2.609818 1_555
H24 Sr4 2.742528 1_556
H24 Sr4 2.742528 1_555
H25 Tc0 1.653564 1_555
H26 Tc0 1.653557 1_555
