# generated using pymatgen
data_Cs2InP2Se7
_symmetry_space_group_name_H-M   'P 1'
_cell_length_a   9.95523708
_cell_length_b   9.95523691
_cell_length_c   9.35953761
_cell_angle_alpha   73.22624073
_cell_angle_beta   73.22623869
_cell_angle_gamma   70.19924916
_symmetry_Int_Tables_number   1
_chemical_formula_structural   Cs2InP2Se7
_chemical_formula_sum   'Cs4 In2 P4 Se14'
_cell_volume   816.65221901
_cell_formula_units_Z   2
loop_
 _symmetry_equiv_pos_site_id
 _symmetry_equiv_pos_as_xyz
  1  'x, y, z'
loop_
 _atom_site_type_symbol
 _atom_site_label
 _atom_site_symmetry_multiplicity
 _atom_site_fract_x
 _atom_site_fract_y
 _atom_site_fract_z
 _atom_site_occupancy
  Cs  Cs0  1  0.61509122  0.04263486  0.16575726  1
  Cs  Cs1  1  0.95736514  0.38490878  0.83424274  1
  Cs  Cs2  1  0.38490878  0.95736514  0.83424274  1
  Cs  Cs3  1  0.04263486  0.61509122  0.16575726  1
  In  In0  1  0.68878690  0.31121310  0.50000000  1
  In  In1  1  0.31121310  0.68878690  0.50000000  1
  P  P0  1  0.94850080  0.94850080  0.44141945  1
  P  P1  1  0.05149920  0.05149920  0.55858055  1
  P  P2  1  0.39173516  0.39173516  0.80998608  1
  P  P3  1  0.60826484  0.60826484  0.19001392  1
  Se  Se0  1  0.69256016  0.36905480  0.20195323  1
  Se  Se1  1  0.63094520  0.30743984  0.79804677  1
  Se  Se2  1  0.30743984  0.63094520  0.79804677  1
  Se  Se3  1  0.36905480  0.69256016  0.20195323  1
  Se  Se4  1  0.00810897  0.00810897  0.19812427  1
  Se  Se5  1  0.99189103  0.99189103  0.80187573  1
  Se  Se6  1  0.71197665  0.02239790  0.53766352  1
  Se  Se7  1  0.97760210  0.28802335  0.46233648  1
  Se  Se8  1  0.28802335  0.97760210  0.46233648  1
  Se  Se9  1  0.02239790  0.71197665  0.53766352  1
  Se  Se10  1  0.27607412  0.27607412  0.01354290  1
  Se  Se11  1  0.72392588  0.72392588  0.98645710  1
  Se  Se12  1  0.36703052  0.36703052  0.58721007  1
  Se  Se13  1  0.63296948  0.63296948  0.41278993  1
loop_
_geom_bond_atom_site_label_1
_geom_bond_atom_site_label_2
_geom_bond_distance
_geom_bond_site_symmetry_2
Cs0 Se1 3.681136 1_554
Cs0 Se11 3.708331 1_544
Cs0 Se0 3.708573 1_555
Cs0 Se8 3.728322 1_545
Cs0 Se10 3.790961 1_555
Cs0 Se6 3.806410 1_555
Cs0 Se4 3.902711 1_655
Cs0 Se13 4.038979 1_545
Cs0 Se5 4.273264 1_544
Cs1 Se0 3.681136 1_556
Cs1 Se10 3.708331 1_656
Cs1 Se1 3.708573 1_555
Cs1 Se9 3.728322 1_655
Cs1 Se11 3.790961 1_555
Cs1 Se7 3.806409 1_555
Cs1 Se5 3.902711 1_545
Cs1 Se12 4.038979 1_655
Cs1 Se4 4.273264 1_656
Cs2 Se3 3.681136 1_556
Cs2 Se10 3.708331 1_566
Cs2 Se2 3.708573 1_555
Cs2 Se6 3.728322 1_565
Cs2 Se11 3.790961 1_555
Cs2 Se8 3.806410 1_555
Cs2 Se5 3.902711 1_455
Cs2 Se12 4.038979 1_565
Cs2 Se4 4.273264 1_566
Cs3 Se2 3.681136 1_554
Cs3 Se11 3.708331 1_454
Cs3 Se3 3.708573 1_555
Cs3 Se7 3.728322 1_455
Cs3 Se10 3.790961 1_555
Cs3 Se9 3.806409 1_555
Cs3 Se4 3.902711 1_565
Cs3 Se13 4.038979 1_455
Cs3 Se5 4.273264 1_454
In0 Se1 2.672410 1_555
In0 Se0 2.672410 1_555
In0 Se6 2.730701 1_555
In0 Se7 2.730701 1_555
In0 Se13 2.963457 1_555
In0 Se12 2.963457 1_555
In1 Se3 2.672410 1_555
In1 Se2 2.672410 1_555
In1 Se8 2.730701 1_555
In1 Se9 2.730701 1_555
In1 Se12 2.963457 1_555
In1 Se13 2.963457 1_555
P0 Se4 2.137357 1_665
P0 Se6 2.209454 1_565
P0 Se9 2.209454 1_655
P0 P1 2.305547 1_665
P1 Se5 2.137357 1_445
P1 Se8 2.209454 1_545
P1 Se7 2.209454 1_455
P2 Se10 2.155747 1_556
P2 Se2 2.221338 1_555
P2 Se1 2.221338 1_555
P2 Se12 2.258646 1_555
P3 Se11 2.155747 1_554
P3 Se0 2.221338 1_555
P3 Se3 2.221338 1_555
P3 Se13 2.258646 1_555
