# generated using pymatgen
data_Zr6IrBr15
_symmetry_space_group_name_H-M   'P 1'
_cell_length_a   9.43481088
_cell_length_b   9.43481013
_cell_length_c   9.43481084
_cell_angle_alpha   109.47122423
_cell_angle_beta   109.47122261
_cell_angle_gamma   109.47121736
_symmetry_Int_Tables_number   1
_chemical_formula_structural   Zr6IrBr15
_chemical_formula_sum   'Zr6 Ir1 Br15'
_cell_volume   646.51358951
_cell_formula_units_Z   1
loop_
 _symmetry_equiv_pos_site_id
 _symmetry_equiv_pos_as_xyz
  1  'x, y, z'
loop_
 _atom_site_type_symbol
 _atom_site_label
 _atom_site_symmetry_multiplicity
 _atom_site_fract_x
 _atom_site_fract_y
 _atom_site_fract_z
 _atom_site_occupancy
  Zr  Zr0  1  0.76259436  0.76259436  0.00000000  1
  Zr  Zr1  1  0.23740564  0.00000000  0.23740564  1
  Zr  Zr2  1  0.76259436  1.00000000  0.76259436  1
  Zr  Zr3  1  0.00000000  0.76259436  0.76259436  1
  Zr  Zr4  1  1.00000000  0.23740564  0.23740564  1
  Zr  Zr5  1  0.23740564  0.23740564  1.00000000  1
  Ir  Ir0  1  0.00000000  0.00000000  0.00000000  1
  Br  Br0  1  0.50000000  0.00000000  0.50000000  1
  Br  Br1  1  0.00000000  0.50000000  0.50000000  1
  Br  Br2  1  0.50000000  0.50000000  0.00000000  1
  Br  Br3  1  0.50438329  0.75219115  0.75219115  1
  Br  Br4  1  0.75219115  1.00000000  0.24780885  1
  Br  Br5  1  0.49561671  0.24780885  0.24780885  1
  Br  Br6  1  0.24780885  0.24780885  0.49561671  1
  Br  Br7  1  0.24780885  0.75219115  0.00000000  1
  Br  Br8  1  0.00000000  0.24780885  0.75219115  1
  Br  Br9  1  1.00000000  0.75219115  0.24780885  1
  Br  Br10  1  0.24780885  0.00000000  0.75219115  1
  Br  Br11  1  0.24780885  0.49561671  0.24780885  1
  Br  Br12  1  0.75219115  0.24780885  1.00000000  1
  Br  Br13  1  0.75219115  0.50438329  0.75219115  1
  Br  Br14  1  0.75219115  0.75219115  0.50438329  1
loop_
_geom_bond_atom_site_label_1
_geom_bond_atom_site_label_2
_geom_bond_distance
_geom_bond_site_symmetry_2
Ir0 Zr4 2.586387 1_455
Ir0 Zr3 2.586387 1_544
Ir0 Zr1 2.586387 1_555
Ir0 Zr2 2.586387 1_444
Ir0 Zr5 2.586388 1_554
Ir0 Zr0 2.586388 1_445
Br0 Zr2 2.860803 1_545
Br0 Zr1 2.860803 1_555
Br1 Zr3 2.860803 1_555
Br1 Zr4 2.860803 1_455
Br2 Zr0 2.860803 1_555
Br2 Zr5 2.860803 1_554
Br3 Zr0 2.702096 1_556
Br3 Zr2 2.702096 1_555
Br4 Zr0 2.702102 1_555
Br4 Zr4 2.702102 1_565
Br5 Zr5 2.702096 1_554
Br5 Zr1 2.702096 1_555
Br6 Zr1 2.702096 1_555
Br6 Zr4 2.702096 1_455
Br7 Zr1 2.702102 1_565
Br7 Zr3 2.702102 1_554
Br8 Zr5 2.702102 1_555
Br8 Zr2 2.702102 1_445
Br9 Zr0 2.702102 1_555
Br9 Zr1 2.702102 1_665
Br10 Zr5 2.702102 1_555
Br10 Zr3 2.702102 1_545
Br11 Zr5 2.702096 1_554
Br11 Zr4 2.702096 1_455
Br12 Zr2 2.702102 1_545
Br12 Zr4 2.702102 1_556
Br13 Zr0 2.702096 1_556
Br13 Zr3 2.702096 1_655
Br14 Zr2 2.702096 1_555
Br14 Zr3 2.702096 1_655
