# generated using pymatgen
data_YNb6Sn5Bi
_symmetry_space_group_name_H-M   'P 1'
_cell_length_a   5.81339103
_cell_length_b   5.81339204
_cell_length_c   9.62052700
_cell_angle_alpha   90.00000000
_cell_angle_beta   90.00000000
_cell_angle_gamma   119.99999429
_symmetry_Int_Tables_number   1
_chemical_formula_structural   YNb6Sn5Bi
_chemical_formula_sum   'Y1 Nb6 Sn5 Bi1'
_cell_volume   281.57148237
_cell_formula_units_Z   1
loop_
 _symmetry_equiv_pos_site_id
 _symmetry_equiv_pos_as_xyz
  1  'x, y, z'
loop_
 _atom_site_type_symbol
 _atom_site_label
 _atom_site_symmetry_multiplicity
 _atom_site_fract_x
 _atom_site_fract_y
 _atom_site_fract_z
 _atom_site_occupancy
  Y  Y0  1  0.00000000  0.00000000  0.99209699  1
  Nb  Nb0  1  0.00000000  0.50000000  0.75488390  1
  Nb  Nb1  1  0.50000000  0.50000000  0.75488390  1
  Nb  Nb2  1  0.50000000  0.00000000  0.75488390  1
  Nb  Nb3  1  0.00000000  0.50000000  0.25226784  1
  Nb  Nb4  1  0.50000000  0.50000000  0.25226784  1
  Nb  Nb5  1  0.50000000  0.00000000  0.25226784  1
  Sn  Sn0  1  0.66666700  0.33333300  0.50200551  1
  Sn  Sn1  1  0.33333300  0.66666700  0.50200551  1
  Sn  Sn2  1  0.66666700  0.33333300  0.00313435  1
  Sn  Sn3  1  0.33333300  0.66666700  0.00313435  1
  Sn  Sn4  1  0.00000000  0.00000000  0.32325295  1
  Bi  Bi0  1  0.00000000  0.00000000  0.65291409  1
loop_
_geom_bond_atom_site_label_1
_geom_bond_atom_site_label_2
_geom_bond_distance
_geom_bond_site_symmetry_2
Nb0 Sn3 2.918949 1_556
Nb0 Sn2 2.918949 1_456
Nb0 Sn1 2.955489 1_555
Nb0 Sn0 2.955489 1_455
Nb1 Sn3 2.918952 1_556
Nb1 Sn2 2.918952 1_556
Nb1 Sn0 2.955492 1_555
Nb1 Sn1 2.955492 1_555
Nb2 Sn2 2.918950 1_556
Nb2 Sn3 2.918950 1_546
Nb2 Sn0 2.955489 1_555
Nb2 Sn1 2.955489 1_545
Nb3 Sn3 2.925904 1_555
Nb3 Sn2 2.925904 1_455
Nb3 Sn1 2.930668 1_555
Nb3 Sn0 2.930668 1_455
Nb3 Sn4 2.985842 1_565
Nb3 Sn4 2.985842 1_555
Nb4 Sn3 2.925907 1_555
Nb4 Sn2 2.925907 1_555
Nb4 Sn1 2.930671 1_555
Nb4 Sn0 2.930671 1_555
Nb4 Sn4 2.985842 1_665
Nb4 Sn4 2.985842 1_555
Nb5 Sn2 2.925905 1_555
Nb5 Sn3 2.925905 1_545
Nb5 Sn0 2.930668 1_555
Nb5 Sn1 2.930668 1_545
Nb5 Sn4 2.985842 1_555
Nb5 Sn4 2.985842 1_655
Sn2 Y0 3.358039 1_654
Sn2 Y0 3.358044 1_554
Sn2 Y0 3.358045 1_664
Sn3 Y0 3.358039 1_564
Sn3 Y0 3.358044 1_664
Sn3 Y0 3.358045 1_554
Sn4 Y0 3.185895 1_554
Bi0 Nb2 3.067775 1_455
Bi0 Nb2 3.067775 1_555
Bi0 Nb0 3.067776 1_545
Bi0 Nb0 3.067776 1_555
Bi0 Nb1 3.067776 1_555
Bi0 Nb1 3.067776 1_445
Bi0 Sn4 3.171514 1_555
Bi0 Y0 3.263118 1_555
