# generated using pymatgen
data_In2Bi4(TeO6)3
_symmetry_space_group_name_H-M   'P 1'
_cell_length_a   9.08566004
_cell_length_b   9.07081909
_cell_length_c   5.29646837
_cell_angle_alpha   90.98266046
_cell_angle_beta   90.00084685
_cell_angle_gamma   120.05356835
_symmetry_Int_Tables_number   1
_chemical_formula_structural   In2Bi4(TeO6)3
_chemical_formula_sum   'In2 Bi4 Te3 O18'
_cell_volume   377.74609498
_cell_formula_units_Z   1
loop_
 _symmetry_equiv_pos_site_id
 _symmetry_equiv_pos_as_xyz
  1  'x, y, z'
loop_
 _atom_site_type_symbol
 _atom_site_label
 _atom_site_symmetry_multiplicity
 _atom_site_fract_x
 _atom_site_fract_y
 _atom_site_fract_z
 _atom_site_occupancy
  In  In0  1  0.99988822  0.28751109  0.50361275  1
  In  In1  1  0.71238156  0.71249160  0.49638127  1
  Bi  Bi0  1  0.61911447  0.99999884  0.00000326  1
  Bi  Bi1  1  0.99631266  0.61289936  0.00096035  1
  Bi  Bi2  1  0.38342166  0.38710583  0.99903704  1
  Bi  Bi3  1  0.27294771  0.99999774  0.49999776  1
  Te  Te0  1  0.99450818  0.00000517  0.99999642  1
  Te  Te1  1  0.33564966  0.66501836  0.49025343  1
  Te  Te2  1  0.67059984  0.33497354  0.50975348  1
  O  O0  1  0.07365920  0.86871279  0.82156741  1
  O  O1  1  0.10548274  0.18507581  0.76042389  1
  O  O2  1  0.78941036  0.90180603  0.79926667  1
  O  O3  1  0.20494365  0.13128600  0.17842982  1
  O  O4  1  0.92041535  0.81492868  0.23957083  1
  O  O5  1  0.88760729  0.09820429  0.20073250  1
  O  O6  1  0.46794305  0.60359883  0.69567837  1
  O  O7  1  0.40320346  0.86660499  0.69354417  1
  O  O8  1  0.13863424  0.54008715  0.70364944  1
  O  O9  1  0.86434514  0.39640575  0.30431955  1
  O  O10  1  0.53659327  0.13339050  0.30645565  1
  O  O11  1  0.59854589  0.45990892  0.29635850  1
  O  O12  1  0.23403308  0.75906791  0.27153815  1
  O  O13  1  0.23019892  0.45573013  0.29259760  1
  O  O14  1  0.53824288  0.76576407  0.27941384  1
  O  O15  1  0.47496386  0.24092793  0.72845740  1
  O  O16  1  0.77447079  0.54426536  0.70740577  1
  O  O17  1  0.77248087  0.23423333  0.72059467  1
loop_
_geom_bond_atom_site_label_1
_geom_bond_atom_site_label_2
_geom_bond_distance
_geom_bond_site_symmetry_2
In0 O1 2.137784 1_655
In0 O5 2.171100 1_555
In0 O13 2.194660 1_655
In0 O17 2.200511 1_555
In0 O9 2.204671 1_555
In0 O8 2.232608 1_655
In1 O4 2.137843 1_555
In1 O2 2.171162 1_555
In1 O16 2.194691 1_555
In1 O14 2.200476 1_555
In1 O6 2.204725 1_555
In1 O11 2.232619 1_555
Bi0 O10 2.345635 1_565
Bi0 O7 2.345636 1_554
Bi0 O5 2.380239 1_565
Bi0 O2 2.380255 1_554
Bi0 O14 2.405930 1_555
Bi0 O17 2.405937 1_564
Bi1 O0 2.285474 1_654
Bi1 O8 2.325461 1_654
Bi1 O12 2.354376 1_655
Bi1 O16 2.361653 1_554
Bi1 O9 2.371816 1_555
Bi1 O4 2.572419 1_555
Bi2 O3 2.285546 1_556
Bi2 O11 2.325426 1_556
Bi2 O15 2.354401 1_555
Bi2 O13 2.361748 1_556
Bi2 O6 2.371806 1_555
Bi2 O1 2.572493 1_555
Bi3 O7 2.322128 1_555
Bi3 O10 2.322136 1_565
Bi3 O12 2.345342 1_555
Bi3 O15 2.345347 1_565
Bi3 O3 2.346767 1_565
Bi3 O0 2.346789 1_555
O0 Te0 1.909929 1_465
O1 Te0 1.955147 1_455
O2 Te0 1.923822 1_565
O3 Te0 1.909874 1_454
O4 Te0 1.955187 1_564
O5 Te0 1.923867 1_554
O6 Te1 1.905365 1_555
O7 Te1 1.920412 1_555
O8 Te1 1.943715 1_555
O9 Te2 1.905635 1_555
O10 Te2 1.920374 1_555
O11 Te2 1.943534 1_555
O12 Te1 1.935173 1_555
O13 Te1 1.930771 1_555
O14 Te1 1.954617 1_555
O15 Te2 1.934980 1_555
O16 Te2 1.930784 1_555
O17 Te2 1.954767 1_555
