# generated using pymatgen
data_Sr2NbTcO8
_symmetry_space_group_name_H-M   'P 1'
_cell_length_a   7.07218999
_cell_length_b   7.07218964
_cell_length_c   7.07218906
_cell_angle_alpha   134.67615317
_cell_angle_beta   134.67615857
_cell_angle_gamma   66.03379077
_symmetry_Int_Tables_number   1
_chemical_formula_structural   Sr2NbTcO8
_chemical_formula_sum   'Sr2 Nb1 Tc1 O8'
_cell_volume   176.12125974
_cell_formula_units_Z   1
loop_
 _symmetry_equiv_pos_site_id
 _symmetry_equiv_pos_as_xyz
  1  'x, y, z'
loop_
 _atom_site_type_symbol
 _atom_site_label
 _atom_site_symmetry_multiplicity
 _atom_site_fract_x
 _atom_site_fract_y
 _atom_site_fract_z
 _atom_site_occupancy
  Sr  Sr0  1  0.50000000  0.50000000  0.00000000  1
  Sr  Sr1  1  0.25000000  0.75000000  0.50000000  1
  Nb  Nb0  1  0.00000000  0.00000000  0.00000000  1
  Tc  Tc0  1  0.75000000  0.25000000  0.50000000  1
  O  O0  1  0.53135620  0.94728774  0.13863885  1
  O  O1  1  0.93377132  0.84638612  0.60349271  1
  O  O2  1  0.60728266  0.46864380  0.41593254  1
  O  O3  1  0.05271226  0.19135011  0.58406746  1
  O  O4  1  0.66972039  0.06622868  0.91261381  1
  O  O5  1  0.24289342  0.33027961  0.39650729  1
  O  O6  1  0.80864989  0.39271734  0.86136115  1
  O  O7  1  0.15361388  0.75710658  0.08738619  1
loop_
_geom_bond_atom_site_label_1
_geom_bond_atom_site_label_2
_geom_bond_distance
_geom_bond_site_symmetry_2
Nb0 O1 1.882975 1_444
Nb0 O7 1.882979 1_545
Nb0 O4 1.882979 1_454
Nb0 O5 1.882980 1_555
O0 Tc0 1.715884 1_565
O0 Sr0 2.630540 1_555
O0 Sr1 2.657398 1_554
O1 Sr1 2.522638 1_655
O1 Sr0 2.572797 1_555
O2 Tc0 1.715879 1_555
O2 Sr0 2.630547 1_555
O2 Sr1 2.657396 1_555
O3 Tc0 1.715886 1_455
O3 Sr0 2.630542 1_556
O3 Sr1 2.657394 1_545
O4 Sr1 2.522636 1_545
O4 Sr0 2.572793 1_556
O5 Sr1 2.522631 1_555
O5 Sr0 2.572799 1_556
O6 Tc0 1.715879 1_555
O6 Sr0 2.630547 1_556
O6 Sr1 2.657396 1_656
O7 Sr1 2.522631 1_555
O7 Sr0 2.572799 1_555
