# generated using pymatgen
data_Y4MnSi4Ir
_symmetry_space_group_name_H-M   'P 1'
_cell_length_a   5.73099087
_cell_length_b   5.73099078
_cell_length_c   10.07558721
_cell_angle_alpha   63.68346114
_cell_angle_beta   63.68346062
_cell_angle_gamma   43.04249916
_symmetry_Int_Tables_number   1
_chemical_formula_structural   Y4MnSi4Ir
_chemical_formula_sum   'Y4 Mn1 Si4 Ir1'
_cell_volume   198.57234738
_cell_formula_units_Z   1
loop_
 _symmetry_equiv_pos_site_id
 _symmetry_equiv_pos_as_xyz
  1  'x, y, z'
loop_
 _atom_site_type_symbol
 _atom_site_label
 _atom_site_symmetry_multiplicity
 _atom_site_fract_x
 _atom_site_fract_y
 _atom_site_fract_z
 _atom_site_occupancy
  Y  Y0  1  0.00386679  0.00386679  0.32158911  1
  Y  Y1  1  0.18559899  0.18559899  0.89373584  1
  Y  Y2  1  0.99745651  0.99745651  0.67476781  1
  Y  Y3  1  0.81036254  0.81036254  0.11093249  1
  Mn  Mn0  1  0.72610468  0.72610468  0.63359843  1
  Si  Si0  1  0.36732877  0.36732877  0.55688324  1
  Si  Si1  1  0.48823069  0.48823069  0.88371677  1
  Si  Si2  1  0.64325735  0.64325735  0.43459356  1
  Si  Si3  1  0.50374961  0.50374961  0.12232963  1
  Ir  Ir0  1  0.27404407  0.27404407  0.36785212  1
loop_
_geom_bond_atom_site_label_1
_geom_bond_atom_site_label_2
_geom_bond_distance
_geom_bond_site_symmetry_2
Mn0 Si0 2.485102 1_565
Mn0 Si0 2.485102 1_655
Mn0 Si2 2.547350 1_555
Mn0 Si1 2.586889 1_555
Mn0 Y2 3.093912 1_545
Mn0 Y2 3.093912 1_455
Mn0 Y2 3.112504 1_555
Mn0 Y0 3.127371 1_665
Mn0 Y1 3.224511 1_565
Mn0 Y1 3.224511 1_655
Si0 Si2 2.592191 1_555
Si0 Y0 2.978312 1_655
Si0 Y0 2.978312 1_565
Si0 Y1 3.000954 1_555
Si0 Y2 3.053989 1_455
Si0 Y2 3.053989 1_545
Si1 Si3 2.487281 1_556
Si1 Y2 2.943562 1_545
Si1 Y2 2.943562 1_455
Si1 Y1 3.010266 1_565
Si1 Y1 3.010266 1_655
Si1 Y3 3.019903 1_456
Si1 Y3 3.019903 1_546
Si1 Y1 3.180054 1_555
Si2 Y3 2.875989 1_555
Si2 Y2 3.017816 1_455
Si2 Y2 3.017816 1_545
Si2 Y0 3.088440 1_655
Si2 Y0 3.088440 1_565
Si3 Y0 2.907427 1_565
Si3 Y0 2.907427 1_655
Si3 Y3 2.985134 1_545
Si3 Y3 2.985134 1_455
Si3 Y1 3.037782 1_654
Si3 Y1 3.037782 1_564
Si3 Y3 3.216235 1_555
Ir0 Si2 2.433772 1_545
Ir0 Si2 2.433772 1_455
Ir0 Si3 2.518691 1_555
Ir0 Si0 2.534271 1_555
Ir0 Y0 3.090939 1_565
Ir0 Y0 3.090940 1_655
Ir0 Y2 3.093245 1_445
Ir0 Y0 3.129943 1_555
Ir0 Y3 3.211775 1_545
Ir0 Y3 3.211775 1_455
