# generated using pymatgen
data_Sr3ZnPdO6
_symmetry_space_group_name_H-M   'P 1'
_cell_length_a   6.68168175
_cell_length_b   6.68168145
_cell_length_c   6.68168160
_cell_angle_alpha   92.09937795
_cell_angle_beta   92.09938176
_cell_angle_gamma   92.09939133
_symmetry_Int_Tables_number   1
_chemical_formula_structural   Sr3ZnPdO6
_chemical_formula_sum   'Sr6 Zn2 Pd2 O12'
_cell_volume   297.68702745
_cell_formula_units_Z   2
loop_
 _symmetry_equiv_pos_site_id
 _symmetry_equiv_pos_as_xyz
  1  'x, y, z'
loop_
 _atom_site_type_symbol
 _atom_site_label
 _atom_site_symmetry_multiplicity
 _atom_site_fract_x
 _atom_site_fract_y
 _atom_site_fract_z
 _atom_site_occupancy
  Sr  Sr0  1  0.61554199  0.25000000  0.88445801  1
  Sr  Sr1  1  0.88445801  0.61554199  0.25000000  1
  Sr  Sr2  1  0.75000000  0.11554199  0.38445801  1
  Sr  Sr3  1  0.38445801  0.75000000  0.11554199  1
  Sr  Sr4  1  0.11554199  0.38445801  0.75000000  1
  Sr  Sr5  1  0.25000000  0.88445801  0.61554199  1
  Zn  Zn0  1  0.25000000  0.25000000  0.25000000  1
  Zn  Zn1  1  0.75000000  0.75000000  0.75000000  1
  Pd  Pd0  1  0.00000000  0.00000000  0.00000000  1
  Pd  Pd1  1  0.50000000  0.50000000  0.50000000  1
  O  O0  1  0.59242281  0.78589976  0.46071678  1
  O  O1  1  0.46071678  0.59242281  0.78589976  1
  O  O2  1  0.78589976  0.46071678  0.59242281  1
  O  O3  1  0.90757719  0.03928322  0.71410024  1
  O  O4  1  0.71410024  0.90757719  0.03928322  1
  O  O5  1  0.03928322  0.71410024  0.90757719  1
  O  O6  1  0.40757719  0.21410024  0.53928322  1
  O  O7  1  0.53928322  0.40757719  0.21410024  1
  O  O8  1  0.21410024  0.53928322  0.40757719  1
  O  O9  1  0.09242281  0.96071678  0.28589976  1
  O  O10  1  0.96071678  0.28589976  0.09242281  1
  O  O11  1  0.28589976  0.09242281  0.96071678  1
loop_
_geom_bond_atom_site_label_1
_geom_bond_atom_site_label_2
_geom_bond_distance
_geom_bond_site_symmetry_2
O0 Pd1 2.015352 1_555
O0 Zn1 2.192159 1_555
O0 Sr2 2.484170 1_565
O0 Sr5 2.640548 1_555
O0 Sr3 2.647241 1_555
O0 Sr1 2.707783 1_555
O1 Pd1 2.015352 1_555
O1 Zn1 2.192159 1_555
O1 Sr3 2.484170 1_556
O1 Sr0 2.640548 1_555
O1 Sr4 2.647241 1_555
O1 Sr5 2.707783 1_555
O2 Pd1 2.015352 1_555
O2 Zn1 2.192159 1_555
O2 Sr4 2.484170 1_655
O2 Sr1 2.640548 1_555
O2 Sr2 2.647241 1_555
O2 Sr0 2.707783 1_555
O3 Pd0 2.015352 1_656
O3 Zn1 2.192159 1_545
O3 Sr2 2.484170 1_555
O3 Sr5 2.640548 1_645
O3 Sr4 2.647241 1_655
O3 Sr0 2.707783 1_555
O4 Pd0 2.015352 1_665
O4 Zn1 2.192159 1_554
O4 Sr3 2.484170 1_555
O4 Sr0 2.640548 1_564
O4 Sr2 2.647241 1_565
O4 Sr1 2.707783 1_555
O5 Pd0 2.015352 1_566
O5 Zn1 2.192159 1_455
O5 Sr4 2.484170 1_555
O5 Sr1 2.640548 1_456
O5 Sr3 2.647241 1_556
O5 Sr5 2.707783 1_555
O6 Pd1 2.015352 1_555
O6 Zn0 2.192159 1_555
O6 Sr5 2.484170 1_545
O6 Sr2 2.640548 1_555
O6 Sr0 2.647241 1_555
O6 Sr4 2.707783 1_555
O7 Pd1 2.015352 1_555
O7 Zn0 2.192159 1_555
O7 Sr0 2.484170 1_554
O7 Sr3 2.640548 1_555
O7 Sr1 2.647241 1_555
O7 Sr2 2.707783 1_555
O8 Pd1 2.015352 1_555
O8 Zn0 2.192159 1_555
O8 Sr1 2.484170 1_455
O8 Sr4 2.640548 1_555
O8 Sr5 2.647241 1_555
O8 Sr3 2.707783 1_555
O9 Pd0 2.015352 1_565
O9 Zn0 2.192159 1_565
O9 Sr5 2.484170 1_555
O9 Sr2 2.640548 1_465
O9 Sr1 2.647241 1_455
O9 Sr3 2.707783 1_555
O10 Pd0 2.015352 1_655
O10 Zn0 2.192159 1_655
O10 Sr1 2.484170 1_555
O10 Sr4 2.640548 1_654
O10 Sr0 2.647241 1_554
O10 Sr2 2.707783 1_555
O11 Pd0 2.015352 1_556
O11 Zn0 2.192159 1_556
O11 Sr0 2.484170 1_555
O11 Sr3 2.640548 1_546
O11 Sr5 2.647241 1_545
O11 Sr4 2.707783 1_555
