# generated using pymatgen
data_Hf12Zn11CuC4
_symmetry_space_group_name_H-M   'P 1'
_cell_length_a   8.48855593
_cell_length_b   8.48855556
_cell_length_c   8.48855649
_cell_angle_alpha   59.92988579
_cell_angle_beta   59.92989075
_cell_angle_gamma   59.92988459
_symmetry_Int_Tables_number   1
_chemical_formula_structural   Hf12Zn11CuC4
_chemical_formula_sum   'Hf12 Zn11 Cu1 C4'
_cell_volume   431.81252156
_cell_formula_units_Z   1
loop_
 _symmetry_equiv_pos_site_id
 _symmetry_equiv_pos_as_xyz
  1  'x, y, z'
loop_
 _atom_site_type_symbol
 _atom_site_label
 _atom_site_symmetry_multiplicity
 _atom_site_fract_x
 _atom_site_fract_y
 _atom_site_fract_z
 _atom_site_occupancy
  Hf  Hf0  1  0.44079201  0.44079201  0.05771215  1
  Hf  Hf1  1  0.05975298  0.44030909  0.05975298  1
  Hf  Hf2  1  0.44030909  0.05975298  0.05975298  1
  Hf  Hf3  1  0.05975298  0.05975298  0.44030909  1
  Hf  Hf4  1  0.44079201  0.05771215  0.44079201  1
  Hf  Hf5  1  0.05771215  0.44079201  0.44079201  1
  Hf  Hf6  1  0.80920799  0.80920799  0.19228785  1
  Hf  Hf7  1  0.19024702  0.80969091  0.19024702  1
  Hf  Hf8  1  0.80969091  0.19024702  0.19024702  1
  Hf  Hf9  1  0.19024702  0.19024702  0.80969091  1
  Hf  Hf10  1  0.80920799  0.19228785  0.80920799  1
  Hf  Hf11  1  0.19228785  0.80920799  0.80920799  1
  Zn  Zn0  1  0.82834457  0.82834457  0.50802272  1
  Zn  Zn1  1  0.82834457  0.50802272  0.82834457  1
  Zn  Zn2  1  0.50802272  0.82834457  0.82834457  1
  Zn  Zn3  1  0.83140957  0.83140957  0.83140957  1
  Zn  Zn4  1  0.42165543  0.42165543  0.74197728  1
  Zn  Zn5  1  0.42165543  0.74197728  0.42165543  1
  Zn  Zn6  1  0.74197728  0.42165543  0.42165543  1
  Zn  Zn7  1  0.41859043  0.41859043  0.41859043  1
  Zn  Zn8  1  0.62500000  0.62500000  0.12500000  1
  Zn  Zn9  1  0.62500000  0.12500000  0.62500000  1
  Zn  Zn10  1  0.12500000  0.62500000  0.62500000  1
  Cu  Cu0  1  0.62500000  0.62500000  0.62500000  1
  C  C0  1  0.12500000  0.12500000  0.62500000  1
  C  C1  1  0.12500000  0.62500000  0.12500000  1
  C  C2  1  0.62500000  0.12500000  0.12500000  1
  C  C3  1  0.12500000  0.12500000  0.12500000  1
loop_
_geom_bond_atom_site_label_1
_geom_bond_atom_site_label_2
_geom_bond_distance
_geom_bond_site_symmetry_2
Hf0 Zn4 2.852176 1_554
Hf0 Zn7 2.886793 1_555
Hf0 Zn2 3.047658 1_554
Hf0 Zn1 3.047658 1_554
Hf0 Zn8 3.075151 1_555
Hf1 Zn4 2.893968 1_554
Hf1 Zn6 2.893968 1_455
Hf1 Zn3 3.066511 1_454
Hf1 Zn8 3.067208 1_455
Hf1 Zn10 3.067208 1_554
Hf1 Zn1 3.106658 1_454
Hf2 Zn4 2.893968 1_554
Hf2 Zn5 2.893968 1_545
Hf2 Zn3 3.066512 1_544
Hf2 Zn8 3.067208 1_545
Hf2 Zn9 3.067209 1_554
Hf2 Zn2 3.106658 1_544
Hf3 Zn6 2.893967 1_455
Hf3 Zn5 2.893968 1_545
Hf3 Zn3 3.066512 1_445
Hf3 Zn10 3.067208 1_545
Hf3 Zn9 3.067208 1_455
Hf3 Zn0 3.106658 1_445
Hf4 Zn5 2.852176 1_545
Hf4 Zn7 2.886793 1_555
Hf4 Zn0 3.047658 1_545
Hf4 Zn2 3.047658 1_545
Hf4 Zn9 3.075151 1_555
Hf5 Zn6 2.852176 1_455
Hf5 Zn7 2.886793 1_555
Hf5 Zn0 3.047658 1_455
Hf5 Zn1 3.047658 1_455
Hf5 Zn10 3.075151 1_555
Hf6 Zn0 2.852176 1_555
Hf6 Zn3 2.886793 1_554
Hf6 Zn6 3.047658 1_555
Hf6 Zn5 3.047658 1_555
Hf6 Zn8 3.075151 1_555
Hf7 Zn0 2.893968 1_455
Hf7 Zn2 2.893968 1_554
Hf7 Zn7 3.066511 1_555
Hf7 Zn8 3.067208 1_555
Hf7 Zn10 3.067208 1_555
Hf7 Zn5 3.106658 1_555
Hf8 Zn0 2.893968 1_545
Hf8 Zn1 2.893968 1_554
Hf8 Zn7 3.066512 1_555
Hf8 Zn8 3.067208 1_555
Hf8 Zn9 3.067209 1_555
Hf8 Zn6 3.106658 1_555
Hf9 Zn2 2.893967 1_545
Hf9 Zn1 2.893968 1_455
Hf9 Zn7 3.066512 1_555
Hf9 Zn10 3.067208 1_555
Hf9 Zn9 3.067208 1_555
Hf9 Zn4 3.106658 1_555
Hf10 Zn1 2.852176 1_555
Hf10 Zn3 2.886793 1_545
Hf10 Zn4 3.047658 1_555
Hf10 Zn6 3.047658 1_555
Hf10 Zn9 3.075151 1_555
Hf11 Zn2 2.852176 1_555
Hf11 Zn3 2.886793 1_455
Hf11 Zn4 3.047658 1_555
Hf11 Zn5 3.047658 1_555
Hf11 Zn10 3.075151 1_555
Zn0 Zn10 2.595950 1_655
Zn0 Zn9 2.595950 1_565
Zn0 Zn1 2.716188 1_555
Zn0 Zn2 2.716188 1_555
Zn0 Zn3 2.771404 1_555
Zn1 Zn10 2.595950 1_655
Zn1 Zn8 2.595950 1_556
Zn1 Zn2 2.716188 1_555
Zn1 Zn3 2.771404 1_555
Zn2 Zn9 2.595950 1_565
Zn2 Zn8 2.595950 1_556
Zn2 Zn3 2.771404 1_555
Zn3 Zn9 2.583699 1_565
Zn3 Zn8 2.583700 1_556
Zn4 Zn9 2.595950 1_555
Zn4 Zn5 2.716188 1_555
Zn4 Zn6 2.716188 1_555
Zn4 Zn7 2.771404 1_555
Zn5 Zn8 2.595950 1_555
Zn5 Zn6 2.716188 1_555
Zn5 Zn7 2.771404 1_555
Zn6 Zn9 2.595950 1_555
Zn6 Zn8 2.595950 1_555
Zn6 Zn7 2.771404 1_555
Zn7 Zn9 2.583699 1_555
Zn7 Zn8 2.583700 1_555
Zn10 Zn3 2.583700 1_455
Zn10 Zn7 2.583700 1_555
Zn10 Zn4 2.595950 1_555
Zn10 Zn5 2.595950 1_555
Cu0 Zn0 2.548605 1_555
Cu0 Zn4 2.548605 1_555
Cu0 Zn1 2.548605 1_555
Cu0 Zn5 2.548605 1_555
Cu0 Zn2 2.548605 1_555
Cu0 Zn6 2.548605 1_555
Cu0 Hf4 3.052974 1_565
Cu0 Hf10 3.052974 1_555
Cu0 Hf5 3.052974 1_655
Cu0 Hf11 3.052974 1_555
Cu0 Hf0 3.052974 1_556
Cu0 Hf6 3.052974 1_555
C0 Hf5 2.262123 1_555
C0 Hf11 2.262123 1_545
C0 Hf4 2.262123 1_555
C0 Hf10 2.262123 1_455
C0 Hf9 2.262537 1_555
C0 Hf3 2.262537 1_555
C1 Hf0 2.262123 1_555
C1 Hf6 2.262123 1_455
C1 Hf5 2.262123 1_555
C1 Hf11 2.262123 1_554
C1 Hf7 2.262537 1_555
C1 Hf1 2.262537 1_555
C2 Hf0 2.262123 1_555
C2 Hf6 2.262123 1_545
C2 Hf4 2.262123 1_555
C2 Hf10 2.262123 1_554
C2 Hf8 2.262537 1_555
C2 Hf2 2.262537 1_555
C3 Hf1 2.261323 1_555
C3 Hf7 2.261323 1_545
C3 Hf2 2.261324 1_555
C3 Hf8 2.261324 1_455
C3 Hf3 2.261324 1_555
C3 Hf9 2.261324 1_554
