# generated using pymatgen
data_SrReF6
_symmetry_space_group_name_H-M   'P 1'
_cell_length_a   6.10645950
_cell_length_b   6.10645904
_cell_length_c   6.10645968
_cell_angle_alpha   57.83751211
_cell_angle_beta   57.83751690
_cell_angle_gamma   57.83750882
_symmetry_Int_Tables_number   1
_chemical_formula_structural   SrReF6
_chemical_formula_sum   'Sr1 Re1 F6'
_cell_volume   153.01635410
_cell_formula_units_Z   1
loop_
 _symmetry_equiv_pos_site_id
 _symmetry_equiv_pos_as_xyz
  1  'x, y, z'
loop_
 _atom_site_type_symbol
 _atom_site_label
 _atom_site_symmetry_multiplicity
 _atom_site_fract_x
 _atom_site_fract_y
 _atom_site_fract_z
 _atom_site_occupancy
  Sr  Sr0  1  0.50000000  0.50000000  0.50000000  1
  Re  Re0  1  0.00000000  0.00000000  0.00000000  1
  F  F0  1  0.68607438  0.86806891  0.22060744  1
  F  F1  1  0.86806891  0.22060744  0.68607438  1
  F  F2  1  0.77939256  0.31392562  0.13193109  1
  F  F3  1  0.13193109  0.77939256  0.31392562  1
  F  F4  1  0.31392562  0.13193109  0.77939256  1
  F  F5  1  0.22060744  0.68607438  0.86806891  1
loop_
_geom_bond_atom_site_label_1
_geom_bond_atom_site_label_2
_geom_bond_distance
_geom_bond_site_symmetry_2
F0 Re0 1.969264 1_665
F0 Sr0 2.413730 1_555
F1 Re0 1.969264 1_656
F1 Sr0 2.413730 1_555
F2 Re0 1.969264 1_655
F2 Sr0 2.413730 1_555
F3 Re0 1.969264 1_565
F3 Sr0 2.413730 1_555
F4 Re0 1.969264 1_556
F4 Sr0 2.413730 1_555
F5 Re0 1.969264 1_566
F5 Sr0 2.413730 1_555
