# generated using pymatgen
data_Zr8FeBi4Os
_symmetry_space_group_name_H-M   'P 1'
_cell_length_a   8.35357845
_cell_length_b   8.35357837
_cell_length_c   8.35357897
_cell_angle_alpha   95.84639746
_cell_angle_beta   95.84639739
_cell_angle_gamma   142.77596105
_symmetry_Int_Tables_number   1
_chemical_formula_structural   Zr8FeBi4Os
_chemical_formula_sum   'Zr8 Fe1 Bi4 Os1'
_cell_volume   334.19250545
_cell_formula_units_Z   1
loop_
 _symmetry_equiv_pos_site_id
 _symmetry_equiv_pos_as_xyz
  1  'x, y, z'
loop_
 _atom_site_type_symbol
 _atom_site_label
 _atom_site_symmetry_multiplicity
 _atom_site_fract_x
 _atom_site_fract_y
 _atom_site_fract_z
 _atom_site_occupancy
  Zr  Zr0  1  0.58104484  0.69861762  0.28355445  1
  Zr  Zr1  1  0.91895516  0.20251061  0.11757377  1
  Zr  Zr2  1  0.29748939  0.58104484  0.88242623  1
  Zr  Zr3  1  0.80138238  0.91895516  0.71644555  1
  Zr  Zr4  1  0.69861762  0.41506316  0.11757377  1
  Zr  Zr5  1  0.08493684  0.80138238  0.88242623  1
  Zr  Zr6  1  0.41506316  0.29748939  0.71644555  1
  Zr  Zr7  1  0.20251061  0.08493684  0.28355445  1
  Fe  Fe0  1  0.25000000  0.25000000  0.00000000  1
  Bi  Bi0  1  0.35913676  0.85913676  0.21827252  1
  Bi  Bi1  1  0.14086324  0.35913676  0.50000000  1
  Bi  Bi2  1  0.64086324  0.14086324  0.78172748  1
  Bi  Bi3  1  0.85913676  0.64086324  0.50000000  1
  Os  Os0  1  0.75000000  0.75000000  0.00000000  1
loop_
_geom_bond_atom_site_label_1
_geom_bond_atom_site_label_2
_geom_bond_distance
_geom_bond_site_symmetry_2
Fe0 Os0 2.666112 1_445
Fe0 Os0 2.666112 1_555
Fe0 Zr0 2.766775 1_555
Fe0 Zr3 2.766775 1_444
Fe0 Zr5 2.766776 1_544
Fe0 Zr4 2.766776 1_555
Fe0 Zr7 2.766776 1_555
Fe0 Zr6 2.766776 1_554
Fe0 Zr2 2.766784 1_554
Fe0 Zr1 2.766784 1_455
Bi0 Zr7 3.071366 1_565
Bi0 Zr0 3.071373 1_555
Bi0 Zr2 3.163142 1_554
Bi0 Zr5 3.163146 1_554
Bi0 Zr4 3.259545 1_565
Bi0 Zr1 3.259548 1_455
Bi0 Zr1 3.276474 1_565
Bi0 Zr4 3.276485 1_455
Bi1 Zr2 3.071366 1_555
Bi1 Zr1 3.071366 1_455
Bi1 Zr7 3.163153 1_555
Bi1 Zr6 3.163153 1_555
Bi1 Zr3 3.259553 1_445
Bi1 Zr0 3.259553 1_555
Bi1 Zr0 3.276484 1_445
Bi1 Zr3 3.276484 1_555
Bi2 Zr6 3.071366 1_555
Bi2 Zr3 3.071373 1_545
Bi2 Zr1 3.163142 1_556
Bi2 Zr4 3.163146 1_556
Bi2 Zr5 3.259545 1_545
Bi2 Zr2 3.259548 1_655
Bi2 Zr2 3.276474 1_545
Bi2 Zr5 3.276485 1_655
Bi3 Zr4 3.071364 1_555
Bi3 Zr5 3.071364 1_655
Bi3 Zr3 3.163146 1_555
Bi3 Zr0 3.163146 1_555
Bi3 Zr6 3.259549 1_665
Bi3 Zr7 3.259549 1_555
Bi3 Zr7 3.276484 1_665
Bi3 Zr6 3.276484 1_555
Os0 Zr3 2.776756 1_554
Os0 Zr0 2.776756 1_555
Os0 Zr4 2.776760 1_555
Os0 Zr5 2.776760 1_654
Os0 Zr6 2.776760 1_554
Os0 Zr7 2.776760 1_665
Os0 Zr1 2.776765 1_565
Os0 Zr2 2.776765 1_554
