# generated using pymatgen
data_CaRu4Pb3O14
_symmetry_space_group_name_H-M   'P 1'
_cell_length_a   7.25199106
_cell_length_b   7.27464010
_cell_length_c   7.27464054
_cell_angle_alpha   59.99999357
_cell_angle_beta   59.89662681
_cell_angle_gamma   59.89663126
_symmetry_Int_Tables_number   1
_chemical_formula_structural   CaRu4Pb3O14
_chemical_formula_sum   'Ca1 Ru4 Pb3 O14'
_cell_volume   270.94738142
_cell_formula_units_Z   1
loop_
 _symmetry_equiv_pos_site_id
 _symmetry_equiv_pos_as_xyz
  1  'x, y, z'
loop_
 _atom_site_type_symbol
 _atom_site_label
 _atom_site_symmetry_multiplicity
 _atom_site_fract_x
 _atom_site_fract_y
 _atom_site_fract_z
 _atom_site_occupancy
  Ca  Ca0  1  0.12500000  0.62500000  0.62500000  1
  Ru  Ru0  1  0.62500000  0.12500000  0.12500000  1
  Ru  Ru1  1  0.12500000  0.62500000  0.12500000  1
  Ru  Ru2  1  0.12500000  0.12500000  0.62500000  1
  Ru  Ru3  1  0.12500000  0.12500000  0.12500000  1
  Pb  Pb0  1  0.62500000  0.12500000  0.62500000  1
  Pb  Pb1  1  0.62500000  0.62500000  0.12500000  1
  Pb  Pb2  1  0.62500000  0.62500000  0.62500000  1
  O  O0  1  0.20182447  0.19634000  0.80091827  1
  O  O1  1  0.20182447  0.80091827  0.19634000  1
  O  O2  1  0.45000391  0.05075717  0.05075717  1
  O  O3  1  0.20182447  0.80091827  0.80091827  1
  O  O4  1  0.04817553  0.44908173  0.44908173  1
  O  O5  1  0.79999609  0.80151825  0.19924283  1
  O  O6  1  0.45000391  0.44848175  0.05075717  1
  O  O7  1  0.49780352  0.50073249  0.50073249  1
  O  O8  1  0.04817553  0.05366000  0.44908173  1
  O  O9  1  0.45000391  0.05075717  0.44848175  1
  O  O10  1  0.04817553  0.44908173  0.05366000  1
  O  O11  1  0.75219648  0.74926751  0.74926751  1
  O  O12  1  0.79999609  0.19924283  0.80151825  1
  O  O13  1  0.79999609  0.19924283  0.19924283  1
loop_
_geom_bond_atom_site_label_1
_geom_bond_atom_site_label_2
_geom_bond_distance
_geom_bond_site_symmetry_2
Ca0 O7 2.203999 1_555
Ca0 O11 2.203999 1_455
Ca0 O8 2.579535 1_565
Ca0 O0 2.579535 1_555
Ca0 O10 2.579535 1_556
Ca0 O1 2.579535 1_555
Ca0 O3 2.579541 1_555
Ca0 O4 2.579541 1_555
O0 Ru3 1.971507 1_556
O0 Ru2 1.971514 1_555
O0 Pb0 2.540060 1_555
O1 Ru3 1.971507 1_565
O1 Ru1 1.971514 1_555
O1 Pb1 2.540060 1_555
O2 Ru0 1.964875 1_555
O2 Ru3 1.968841 1_555
O2 Pb1 2.562609 1_545
O2 Pb0 2.562609 1_554
O3 Ru2 1.971508 1_565
O3 Ru1 1.971508 1_556
O3 Pb2 2.540061 1_555
O4 Ru2 1.971508 1_555
O4 Ru1 1.971508 1_555
O4 Pb2 2.540061 1_455
O5 Ru0 1.964875 1_565
O5 Ru1 1.968841 1_655
O5 Pb2 2.562608 1_555
O5 Pb1 2.562609 1_555
O6 Ru0 1.964875 1_555
O6 Ru1 1.968841 1_555
O6 Pb2 2.562608 1_554
O6 Pb1 2.562609 1_555
O7 Pb2 2.230581 1_555
O7 Pb0 2.230586 1_555
O7 Pb1 2.230586 1_555
O8 Ru3 1.971507 1_555
O8 Ru2 1.971514 1_555
O8 Pb0 2.540060 1_455
O9 Ru0 1.964875 1_555
O9 Ru2 1.968841 1_555
O9 Pb2 2.562608 1_545
O9 Pb0 2.562609 1_555
O10 Ru3 1.971507 1_555
O10 Ru1 1.971514 1_555
O10 Pb1 2.540060 1_455
O11 Pb2 2.230581 1_555
O11 Pb0 2.230586 1_565
O11 Pb1 2.230586 1_556
O12 Ru0 1.964875 1_556
O12 Ru2 1.968841 1_655
O12 Pb2 2.562608 1_555
O12 Pb0 2.562609 1_555
O13 Ru0 1.964875 1_555
O13 Ru3 1.968841 1_655
O13 Pb1 2.562609 1_555
O13 Pb0 2.562609 1_555
