# generated using pymatgen
data_Zr3Zn2PdN
_symmetry_space_group_name_H-M   'P 1'
_cell_length_a   8.55705958
_cell_length_b   8.55706007
_cell_length_c   8.55705949
_cell_angle_alpha   59.99999844
_cell_angle_beta   59.99999657
_cell_angle_gamma   59.99999522
_symmetry_Int_Tables_number   1
_chemical_formula_structural   Zr3Zn2PdN
_chemical_formula_sum   'Zr12 Zn8 Pd4 N4'
_cell_volume   443.05603685
_cell_formula_units_Z   4
loop_
 _symmetry_equiv_pos_site_id
 _symmetry_equiv_pos_as_xyz
  1  'x, y, z'
loop_
 _atom_site_type_symbol
 _atom_site_label
 _atom_site_symmetry_multiplicity
 _atom_site_fract_x
 _atom_site_fract_y
 _atom_site_fract_z
 _atom_site_occupancy
  Zr  Zr0  1  0.81163181  0.18836819  0.18836819  1
  Zr  Zr1  1  0.18836819  0.81163181  0.18836819  1
  Zr  Zr2  1  0.81163181  0.81163181  0.18836819  1
  Zr  Zr3  1  0.18836819  0.81163181  0.81163181  1
  Zr  Zr4  1  0.81163181  0.18836819  0.81163181  1
  Zr  Zr5  1  0.18836819  0.18836819  0.81163181  1
  Zr  Zr6  1  0.43836819  0.06163181  0.06163181  1
  Zr  Zr7  1  0.06163181  0.43836819  0.06163181  1
  Zr  Zr8  1  0.43836819  0.43836819  0.06163181  1
  Zr  Zr9  1  0.06163181  0.43836819  0.43836819  1
  Zr  Zr10  1  0.43836819  0.06163181  0.43836819  1
  Zr  Zr11  1  0.06163181  0.06163181  0.43836819  1
  Zn  Zn0  1  0.41842092  0.41842092  0.74473723  1
  Zn  Zn1  1  0.41842092  0.41842092  0.41842092  1
  Zn  Zn2  1  0.74473723  0.41842092  0.41842092  1
  Zn  Zn3  1  0.41842092  0.74473723  0.41842092  1
  Zn  Zn4  1  0.83157908  0.83157908  0.50526277  1
  Zn  Zn5  1  0.83157908  0.83157908  0.83157908  1
  Zn  Zn6  1  0.50526277  0.83157908  0.83157908  1
  Zn  Zn7  1  0.83157908  0.50526277  0.83157908  1
  Pd  Pd0  1  0.62500000  0.62500000  0.12500000  1
  Pd  Pd1  1  0.62500000  0.62500000  0.62500000  1
  Pd  Pd2  1  0.12500000  0.62500000  0.62500000  1
  Pd  Pd3  1  0.62500000  0.12500000  0.62500000  1
  N  N0  1  0.12500000  0.12500000  0.62500000  1
  N  N1  1  0.12500000  0.12500000  0.12500000  1
  N  N2  1  0.62500000  0.12500000  0.12500000  1
  N  N3  1  0.12500000  0.62500000  0.12500000  1
loop_
_geom_bond_atom_site_label_1
_geom_bond_atom_site_label_2
_geom_bond_distance
_geom_bond_site_symmetry_2
Zn0 Zn2 2.792308 1_555
Zn0 Zn1 2.792308 1_555
Zn0 Zn3 2.792308 1_555
Zn0 Zr7 2.892466 1_556
Zn0 Zr8 2.892466 1_556
Zn0 Zr6 2.892466 1_556
Zn0 Zr4 3.114453 1_555
Zn0 Zr3 3.114454 1_555
Zn0 Zr5 3.114454 1_555
Zn1 Zn2 2.792308 1_555
Zn1 Zn3 2.792308 1_555
Zn1 Zr8 2.892466 1_555
Zn1 Zr9 2.892466 1_555
Zn1 Zr10 2.892466 1_555
Zn1 Zr0 3.114453 1_555
Zn1 Zr1 3.114453 1_555
Zn1 Zr5 3.114454 1_555
Zn2 Zn3 2.792308 1_555
Zn2 Zr7 2.892466 1_655
Zn2 Zr11 2.892466 1_655
Zn2 Zr9 2.892466 1_655
Zn2 Zr4 3.114453 1_555
Zn2 Zr0 3.114454 1_555
Zn2 Zr2 3.114454 1_555
Zn3 Zr11 2.892466 1_565
Zn3 Zr6 2.892466 1_565
Zn3 Zr10 2.892466 1_565
Zn3 Zr3 3.114453 1_555
Zn3 Zr2 3.114453 1_555
Zn3 Zr1 3.114454 1_555
Zn4 Zn6 2.792308 1_555
Zn4 Zn5 2.792308 1_555
Zn4 Zn7 2.792308 1_555
Zn4 Zr1 2.892466 1_655
Zn4 Zr2 2.892466 1_555
Zn4 Zr0 2.892466 1_565
Zn4 Zr10 3.114453 1_565
Zn4 Zr9 3.114454 1_655
Zn4 Zr11 3.114454 1_665
Zn5 Zn6 2.792308 1_555
Zn5 Zn7 2.792308 1_555
Zn5 Zr2 2.892466 1_556
Zn5 Zr3 2.892466 1_655
Zn5 Zr4 2.892466 1_565
Zn5 Zr6 3.114453 1_566
Zn5 Zr7 3.114453 1_656
Zn5 Zr11 3.114454 1_665
Zn6 Zn7 2.792308 1_555
Zn6 Zr1 2.892466 1_556
Zn6 Zr5 2.892466 1_565
Zn6 Zr3 2.892466 1_555
Zn6 Zr10 3.114453 1_565
Zn6 Zr6 3.114454 1_566
Zn6 Zr8 3.114454 1_556
Zn7 Zr5 2.892466 1_655
Zn7 Zr0 2.892466 1_556
Zn7 Zr4 2.892466 1_555
Zn7 Zr9 3.114453 1_655
Zn7 Zr8 3.114453 1_556
Zn7 Zr7 3.114454 1_656
Pd0 Zn3 2.608027 1_555
Pd0 Zn7 2.608027 1_554
Pd0 Zn2 2.608027 1_555
Pd0 Zn6 2.608027 1_554
Pd0 Zn1 2.608027 1_555
Pd0 Zn5 2.608027 1_554
Pd0 Zr7 3.110851 1_655
Pd0 Zr1 3.110851 1_555
Pd0 Zr6 3.110852 1_565
Pd0 Zr0 3.110852 1_555
Pd0 Zr2 3.110852 1_555
Pd0 Zr8 3.110852 1_555
Pd1 Zn7 2.608027 1_555
Pd1 Zn3 2.608027 1_555
Pd1 Zn6 2.608027 1_555
Pd1 Zn2 2.608027 1_555
Pd1 Zn4 2.608028 1_555
Pd1 Zn0 2.608028 1_555
Pd1 Zr9 3.110851 1_655
Pd1 Zr3 3.110851 1_555
Pd1 Zr8 3.110851 1_556
Pd1 Zr2 3.110851 1_555
Pd1 Zr10 3.110852 1_565
Pd1 Zr4 3.110852 1_555
Pd2 Zn5 2.608027 1_455
Pd2 Zn1 2.608027 1_555
Pd2 Zn0 2.608027 1_555
Pd2 Zn4 2.608027 1_455
Pd2 Zn3 2.608027 1_555
Pd2 Zn7 2.608027 1_455
Pd2 Zr7 3.110851 1_556
Pd2 Zr1 3.110851 1_555
Pd2 Zr11 3.110852 1_565
Pd2 Zr5 3.110852 1_555
Pd2 Zr3 3.110852 1_555
Pd2 Zr9 3.110852 1_555
Pd3 Zn5 2.608027 1_545
Pd3 Zn1 2.608027 1_555
Pd3 Zn0 2.608027 1_555
Pd3 Zn4 2.608027 1_545
Pd3 Zn2 2.608028 1_555
Pd3 Zn6 2.608028 1_545
Pd3 Zr11 3.110851 1_655
Pd3 Zr5 3.110851 1_555
Pd3 Zr6 3.110851 1_556
Pd3 Zr0 3.110851 1_555
Pd3 Zr4 3.110852 1_555
Pd3 Zr10 3.110852 1_555
N0 Zr4 2.272557 1_455
N0 Zr10 2.272557 1_555
N0 Zr9 2.272557 1_555
N0 Zr3 2.272557 1_545
N0 Zr5 2.272557 1_555
N0 Zr11 2.272557 1_555
N1 Zr6 2.272557 1_555
N1 Zr0 2.272557 1_455
N1 Zr11 2.272557 1_555
N1 Zr5 2.272557 1_554
N1 Zr7 2.272557 1_555
N1 Zr1 2.272557 1_545
N2 Zr10 2.272557 1_555
N2 Zr4 2.272557 1_554
N2 Zr8 2.272557 1_555
N2 Zr2 2.272557 1_545
N2 Zr0 2.272557 1_555
N2 Zr6 2.272557 1_555
N3 Zr8 2.272557 1_555
N3 Zr2 2.272557 1_455
N3 Zr9 2.272557 1_555
N3 Zr3 2.272557 1_554
N3 Zr1 2.272557 1_555
N3 Zr7 2.272557 1_555
