# generated using pymatgen
data_NaAg2
_symmetry_space_group_name_H-M   'P 1'
_cell_length_a   5.59507683
_cell_length_b   5.59507633
_cell_length_c   5.59507539
_cell_angle_alpha   59.99999956
_cell_angle_beta   60.00000252
_cell_angle_gamma   59.99999520
_symmetry_Int_Tables_number   1
_chemical_formula_structural   NaAg2
_chemical_formula_sum   'Na2 Ag4'
_cell_volume   123.85199470
_cell_formula_units_Z   2
loop_
 _symmetry_equiv_pos_site_id
 _symmetry_equiv_pos_as_xyz
  1  'x, y, z'
loop_
 _atom_site_type_symbol
 _atom_site_label
 _atom_site_symmetry_multiplicity
 _atom_site_fract_x
 _atom_site_fract_y
 _atom_site_fract_z
 _atom_site_occupancy
  Na  Na0  1  0.12500000  0.12500000  0.12500000  1
  Na  Na1  1  0.87500000  0.87500000  0.87500000  1
  Ag  Ag0  1  -0.00000000  0.50000000  0.50000000  1
  Ag  Ag1  1  0.50000000  0.00000000  0.50000000  1
  Ag  Ag2  1  0.50000000  0.50000000  0.00000000  1
  Ag  Ag3  1  0.50000000  0.50000000  0.50000000  1
loop_
_geom_bond_atom_site_label_1
_geom_bond_atom_site_label_2
_geom_bond_distance
_geom_bond_site_symmetry_2
Ag0 Ag1 2.797538 1_555
Ag0 Ag1 2.797538 1_465
Ag0 Ag2 2.797538 1_456
Ag0 Ag2 2.797538 1_555
Ag0 Ag3 2.797538 1_555
Ag0 Ag3 2.797538 1_455
Ag0 Na0 3.280404 1_556
Ag0 Na1 3.280404 1_454
Ag0 Na1 3.280404 1_455
Ag0 Na0 3.280404 1_555
Ag0 Na0 3.280404 1_565
Ag0 Na1 3.280404 1_445
Ag1 Ag2 2.797538 1_555
Ag1 Ag2 2.797538 1_546
Ag1 Ag3 2.797538 1_555
Ag1 Ag3 2.797538 1_545
Ag1 Na1 3.280404 1_544
Ag1 Na0 3.280404 1_556
Ag1 Na0 3.280404 1_555
Ag1 Na1 3.280404 1_545
Ag1 Na1 3.280405 1_445
Ag1 Na0 3.280405 1_655
Ag2 Ag3 2.797538 1_555
Ag2 Ag3 2.797538 1_554
Ag2 Na1 3.280404 1_544
Ag2 Na0 3.280404 1_565
Ag2 Na1 3.280404 1_454
Ag2 Na0 3.280404 1_655
Ag2 Na1 3.280405 1_554
Ag2 Na0 3.280405 1_555
Ag3 Na0 3.280404 1_565
Ag3 Na1 3.280404 1_545
Ag3 Na1 3.280404 1_455
Ag3 Na0 3.280404 1_655
Ag3 Na0 3.280404 1_556
Ag3 Na1 3.280404 1_554
