# generated using pymatgen
data_MgZr3Ir2N
_symmetry_space_group_name_H-M   'P 1'
_cell_length_a   8.59244315
_cell_length_b   8.59244371
_cell_length_c   8.59244266
_cell_angle_alpha   60.00000028
_cell_angle_beta   59.99999811
_cell_angle_gamma   60.00000091
_symmetry_Int_Tables_number   1
_chemical_formula_structural   MgZr3Ir2N
_chemical_formula_sum   'Mg4 Zr12 Ir8 N4'
_cell_volume   448.57493778
_cell_formula_units_Z   4
loop_
 _symmetry_equiv_pos_site_id
 _symmetry_equiv_pos_as_xyz
  1  'x, y, z'
loop_
 _atom_site_type_symbol
 _atom_site_label
 _atom_site_symmetry_multiplicity
 _atom_site_fract_x
 _atom_site_fract_y
 _atom_site_fract_z
 _atom_site_occupancy
  Mg  Mg0  1  0.12500000  0.62500000  0.62500000  1
  Mg  Mg1  1  0.62500000  0.12500000  0.62500000  1
  Mg  Mg2  1  0.62500000  0.62500000  0.12500000  1
  Mg  Mg3  1  0.62500000  0.62500000  0.62500000  1
  Zr  Zr0  1  0.80994923  0.80994923  0.19005077  1
  Zr  Zr1  1  0.19005077  0.19005077  0.80994923  1
  Zr  Zr2  1  0.80994923  0.19005077  0.80994923  1
  Zr  Zr3  1  0.19005077  0.80994923  0.19005077  1
  Zr  Zr4  1  0.19005077  0.80994923  0.80994923  1
  Zr  Zr5  1  0.80994923  0.19005077  0.19005077  1
  Zr  Zr6  1  0.44005077  0.44005077  0.05994923  1
  Zr  Zr7  1  0.05994923  0.05994923  0.44005077  1
  Zr  Zr8  1  0.44005077  0.05994923  0.44005077  1
  Zr  Zr9  1  0.05994923  0.44005077  0.05994923  1
  Zr  Zr10  1  0.05994923  0.44005077  0.44005077  1
  Zr  Zr11  1  0.44005077  0.05994923  0.05994923  1
  Ir  Ir0  1  0.75743713  0.41418796  0.41418796  1
  Ir  Ir1  1  0.41418796  0.75743713  0.41418796  1
  Ir  Ir2  1  0.41418796  0.41418796  0.75743713  1
  Ir  Ir3  1  0.41418796  0.41418796  0.41418796  1
  Ir  Ir4  1  0.49256287  0.83581204  0.83581204  1
  Ir  Ir5  1  0.83581204  0.49256287  0.83581204  1
  Ir  Ir6  1  0.83581204  0.83581204  0.49256287  1
  Ir  Ir7  1  0.83581204  0.83581204  0.83581204  1
  N  N0  1  0.62500000  0.12500000  0.12500000  1
  N  N1  1  0.12500000  0.62500000  0.12500000  1
  N  N2  1  0.12500000  0.12500000  0.62500000  1
  N  N3  1  0.12500000  0.12500000  0.12500000  1
loop_
_geom_bond_atom_site_label_1
_geom_bond_atom_site_label_2
_geom_bond_distance
_geom_bond_site_symmetry_2
Ir0 Mg3 2.648732 1_555
Ir0 Mg2 2.648739 1_555
Ir0 Mg1 2.648739 1_555
Ir0 Zr10 2.838991 1_655
Ir0 Zr9 2.838996 1_655
Ir0 Zr7 2.838996 1_655
Ir0 Zr2 3.097209 1_555
Ir0 Zr0 3.097210 1_555
Ir0 Zr5 3.097217 1_555
Ir1 Mg3 2.648732 1_555
Ir1 Mg2 2.648739 1_555
Ir1 Mg0 2.648739 1_555
Ir1 Zr8 2.838991 1_565
Ir1 Zr11 2.838996 1_565
Ir1 Zr7 2.838996 1_565
Ir1 Zr4 3.097209 1_555
Ir1 Zr0 3.097209 1_555
Ir1 Zr3 3.097217 1_555
Ir2 Mg3 2.648732 1_555
Ir2 Mg0 2.648739 1_555
Ir2 Mg1 2.648739 1_555
Ir2 Zr6 2.838991 1_556
Ir2 Zr9 2.838996 1_556
Ir2 Zr11 2.838996 1_556
Ir2 Zr2 3.097209 1_555
Ir2 Zr4 3.097210 1_555
Ir2 Zr1 3.097217 1_555
Ir3 Mg2 2.648734 1_555
Ir3 Mg0 2.648734 1_555
Ir3 Mg1 2.648734 1_555
Ir3 Zr6 2.839000 1_555
Ir3 Zr10 2.839000 1_555
Ir3 Zr8 2.839000 1_555
Ir3 Zr1 3.097213 1_555
Ir3 Zr5 3.097213 1_555
Ir3 Zr3 3.097213 1_555
Ir4 Mg3 2.648732 1_555
Ir4 Mg2 2.648739 1_556
Ir4 Mg1 2.648739 1_565
Ir4 Zr4 2.838991 1_555
Ir4 Zr3 2.838996 1_556
Ir4 Zr1 2.838996 1_565
Ir4 Zr8 3.097209 1_565
Ir4 Zr6 3.097210 1_556
Ir4 Zr11 3.097217 1_566
Ir5 Mg3 2.648732 1_555
Ir5 Mg2 2.648739 1_556
Ir5 Mg0 2.648739 1_655
Ir5 Zr2 2.838991 1_555
Ir5 Zr5 2.838996 1_556
Ir5 Zr1 2.838996 1_655
Ir5 Zr10 3.097209 1_655
Ir5 Zr6 3.097209 1_556
Ir5 Zr9 3.097217 1_656
Ir6 Mg3 2.648732 1_555
Ir6 Mg0 2.648739 1_655
Ir6 Mg1 2.648739 1_565
Ir6 Zr0 2.838991 1_555
Ir6 Zr3 2.838996 1_655
Ir6 Zr5 2.838996 1_565
Ir6 Zr8 3.097209 1_565
Ir6 Zr10 3.097210 1_655
Ir6 Zr7 3.097217 1_665
Ir7 Mg2 2.648734 1_556
Ir7 Mg0 2.648734 1_655
Ir7 Mg1 2.648734 1_565
Ir7 Zr0 2.839000 1_556
Ir7 Zr4 2.839000 1_655
Ir7 Zr2 2.839000 1_565
Ir7 Zr7 3.097213 1_665
Ir7 Zr11 3.097213 1_566
Ir7 Zr9 3.097213 1_656
N0 Zr8 2.288934 1_555
N0 Zr2 2.288934 1_554
N0 Zr5 2.288934 1_555
N0 Zr11 2.288934 1_555
N0 Zr6 2.288934 1_555
N0 Zr0 2.288934 1_545
N1 Zr10 2.288934 1_555
N1 Zr4 2.288934 1_554
N1 Zr0 2.288934 1_455
N1 Zr6 2.288934 1_555
N1 Zr3 2.288934 1_555
N1 Zr9 2.288934 1_555
N2 Zr8 2.288934 1_555
N2 Zr2 2.288934 1_455
N2 Zr1 2.288934 1_555
N2 Zr7 2.288934 1_555
N2 Zr10 2.288934 1_555
N2 Zr4 2.288934 1_545
N3 Zr7 2.288934 1_555
N3 Zr1 2.288934 1_554
N3 Zr11 2.288934 1_555
N3 Zr5 2.288934 1_455
N3 Zr9 2.288934 1_555
N3 Zr3 2.288934 1_545
