# generated using pymatgen
data_Ba6Mn(TcO6)2
_symmetry_space_group_name_H-M   'P 1'
_cell_length_a   9.12569392
_cell_length_b   9.12569334
_cell_length_c   7.22094629
_cell_angle_alpha   67.73013159
_cell_angle_beta   67.73013341
_cell_angle_gamma   36.86573370
_symmetry_Int_Tables_number   1
_chemical_formula_structural   Ba6Mn(TcO6)2
_chemical_formula_sum   'Ba6 Mn1 Tc2 O12'
_cell_volume   330.73900259
_cell_formula_units_Z   1
loop_
 _symmetry_equiv_pos_site_id
 _symmetry_equiv_pos_as_xyz
  1  'x, y, z'
loop_
 _atom_site_type_symbol
 _atom_site_label
 _atom_site_symmetry_multiplicity
 _atom_site_fract_x
 _atom_site_fract_y
 _atom_site_fract_z
 _atom_site_occupancy
  Ba  Ba0  1  0.21276673  0.21276673  0.71233452  1
  Ba  Ba1  1  0.88329453  0.88329453  0.70942959  1
  Ba  Ba2  1  0.54775734  0.54775734  0.71537472  1
  Ba  Ba3  1  0.78723327  0.78723327  0.28766548  1
  Ba  Ba4  1  0.45224266  0.45224266  0.28462528  1
  Ba  Ba5  1  0.11670547  0.11670547  0.29057041  1
  Mn  Mn0  1  0.00000000  0.00000000  0.00000000  1
  Tc  Tc0  1  0.66650939  0.66650939  0.00064193  1
  Tc  Tc1  1  0.33349061  0.33349061  0.99935807  1
  O  O0  1  0.28140724  0.28140724  0.30316263  1
  O  O1  1  0.95178824  0.95178824  0.29105063  1
  O  O2  1  0.61689736  0.61689736  0.30463187  1
  O  O3  1  0.71859276  0.71859276  0.69683737  1
  O  O4  1  0.38310264  0.38310264  0.69536813  1
  O  O5  1  0.04821176  0.04821176  0.70894937  1
  O  O6  1  0.00000000  0.50000000  0.00000000  1
  O  O7  1  0.65597080  0.17068970  0.99944296  1
  O  O8  1  0.34402920  0.82931030  0.00055704  1
  O  O9  1  0.50000000  0.00000000  0.00000000  1
  O  O10  1  0.17068970  0.65597080  0.99944296  1
  O  O11  1  0.82931030  0.34402920  0.00055704  1
loop_
_geom_bond_atom_site_label_1
_geom_bond_atom_site_label_2
_geom_bond_distance
_geom_bond_site_symmetry_2
Ba0 O0 2.708646 1_555
Ba0 O8 2.770215 1_546
Ba0 O11 2.770215 1_456
Ba0 O6 2.807466 1_556
Ba0 O9 2.807466 1_556
Ba0 O5 2.859121 1_555
Ba0 O3 2.887853 1_455
Ba0 O3 2.887853 1_545
Ba0 O4 2.902600 1_555
Ba1 O1 2.769661 1_555
Ba1 O7 2.780648 1_565
Ba1 O10 2.780648 1_655
Ba1 O6 2.818129 1_656
Ba1 O9 2.818129 1_566
Ba1 O5 2.854158 1_665
Ba1 O4 2.887318 1_565
Ba1 O4 2.887318 1_655
Ba1 O3 2.889336 1_555
Ba2 O2 2.719061 1_555
Ba2 O8 2.786374 1_556
Ba2 O11 2.786374 1_556
Ba2 O7 2.787763 1_555
Ba2 O10 2.787764 1_555
Ba2 O5 2.885816 1_565
Ba2 O5 2.885816 1_655
Ba2 O3 2.907134 1_555
Ba2 O4 2.911718 1_555
Ba3 O3 2.708646 1_555
Ba3 O7 2.770215 1_564
Ba3 O10 2.770215 1_654
Ba3 O6 2.807466 1_655
Ba3 O9 2.807466 1_565
Ba3 O1 2.859121 1_555
Ba3 O0 2.887853 1_655
Ba3 O0 2.887853 1_565
Ba3 O2 2.902600 1_555
Ba4 O4 2.719061 1_555
Ba4 O7 2.786374 1_554
Ba4 O10 2.786374 1_554
Ba4 O8 2.787763 1_555
Ba4 O11 2.787764 1_555
Ba4 O1 2.885816 1_545
Ba4 O1 2.885816 1_455
Ba4 O0 2.907134 1_555
Ba4 O2 2.911718 1_555
Ba5 O5 2.769661 1_555
Ba5 O8 2.780648 1_545
Ba5 O11 2.780648 1_455
Ba5 O6 2.818129 1_555
Ba5 O9 2.818129 1_555
Ba5 O1 2.854158 1_445
Ba5 O2 2.887318 1_545
Ba5 O2 2.887318 1_455
Ba5 O0 2.889336 1_555
Mn0 O1 1.926701 1_445
Mn0 O5 1.926701 1_554
Mn0 O11 2.112523 1_455
Mn0 O10 2.112523 1_544
Mn0 O8 2.112523 1_545
Mn0 O7 2.112523 1_454
O0 Tc1 2.011285 1_554
O2 Tc0 2.012430 1_555
O3 Tc0 2.011285 1_556
O4 Tc1 2.012430 1_555
O6 Tc1 2.041089 1_554
O6 Tc0 2.041089 1_455
O7 Tc1 1.967874 1_555
O8 Tc0 1.967874 1_555
O9 Tc1 2.041089 1_554
O9 Tc0 2.041089 1_545
O10 Tc1 1.967874 1_555
O11 Tc0 1.967874 1_555
