# generated using pymatgen
data_TaGaBr8
_symmetry_space_group_name_H-M   'P 1'
_cell_length_a   10.11416301
_cell_length_b   10.11416298
_cell_length_c   8.85244492
_cell_angle_alpha   90.00000000
_cell_angle_beta   90.00000000
_cell_angle_gamma   129.21025769
_symmetry_Int_Tables_number   1
_chemical_formula_structural   TaGaBr8
_chemical_formula_sum   'Ta2 Ga2 Br16'
_cell_volume   701.66578339
_cell_formula_units_Z   2
loop_
 _symmetry_equiv_pos_site_id
 _symmetry_equiv_pos_as_xyz
  1  'x, y, z'
loop_
 _atom_site_type_symbol
 _atom_site_label
 _atom_site_symmetry_multiplicity
 _atom_site_fract_x
 _atom_site_fract_y
 _atom_site_fract_z
 _atom_site_occupancy
  Ta  Ta0  1  0.61194408  0.38805592  0.25000000  1
  Ta  Ta1  1  0.38805592  0.61194408  0.75000000  1
  Ga  Ga0  1  0.81670845  0.18329155  0.25000000  1
  Ga  Ga1  1  0.18329155  0.81670845  0.75000000  1
  Br  Br0  1  0.52092745  0.06313022  0.25000000  1
  Br  Br1  1  0.06313022  0.52092745  0.75000000  1
  Br  Br2  1  0.47907255  0.93686978  0.75000000  1
  Br  Br3  1  0.93686978  0.47907255  0.25000000  1
  Br  Br4  1  0.63184928  0.36815072  0.97446647  1
  Br  Br5  1  0.36815072  0.63184928  0.02553353  1
  Br  Br6  1  0.63184928  0.36815072  0.52553353  1
  Br  Br7  1  0.36815072  0.63184928  0.47446647  1
  Br  Br8  1  0.31496008  0.25785191  0.25000000  1
  Br  Br9  1  0.25785191  0.31496008  0.75000000  1
  Br  Br10  1  0.68503992  0.74214809  0.75000000  1
  Br  Br11  1  0.74214809  0.68503992  0.25000000  1
  Br  Br12  1  0.88343553  0.11656447  0.46832295  1
  Br  Br13  1  0.11656447  0.88343553  0.53167705  1
  Br  Br14  1  0.88343553  0.11656447  0.03167705  1
  Br  Br15  1  0.11656447  0.88343553  0.96832295  1
loop_
_geom_bond_atom_site_label_1
_geom_bond_atom_site_label_2
_geom_bond_distance
_geom_bond_site_symmetry_2
Br0 Ga0 2.414487 1_555
Br0 Ta0 2.796885 1_555
Br1 Ga1 2.414487 1_555
Br1 Ta1 2.796885 1_555
Br2 Ga1 2.414487 1_555
Br2 Ta1 2.796885 1_555
Br3 Ga0 2.414487 1_555
Br3 Ta0 2.796885 1_555
Br4 Ta0 2.466118 1_556
Br5 Ta1 2.466118 1_554
Br6 Ta0 2.466118 1_555
Br7 Ta1 2.466118 1_555
Br8 Ta0 2.399053 1_555
Br9 Ta1 2.399053 1_555
Br10 Ta1 2.399053 1_555
Br11 Ta0 2.399053 1_555
Br12 Ga0 2.285196 1_555
Br13 Ga1 2.285196 1_555
Br14 Ga0 2.285196 1_555
Br15 Ga1 2.285196 1_555
