# generated using pymatgen
data_KSb12(OsPd)2
_symmetry_space_group_name_H-M   'P 1'
_cell_length_a   8.16243512
_cell_length_b   8.16243650
_cell_length_c   8.19719191
_cell_angle_alpha   109.32405201
_cell_angle_beta   109.51687547
_cell_angle_gamma   109.40074394
_symmetry_Int_Tables_number   1
_chemical_formula_structural   KSb12(OsPd)2
_chemical_formula_sum   'K1 Sb12 Os2 Pd2'
_cell_volume   421.30853007
_cell_formula_units_Z   1
loop_
 _symmetry_equiv_pos_site_id
 _symmetry_equiv_pos_as_xyz
  1  'x, y, z'
loop_
 _atom_site_type_symbol
 _atom_site_label
 _atom_site_symmetry_multiplicity
 _atom_site_fract_x
 _atom_site_fract_y
 _atom_site_fract_z
 _atom_site_occupancy
  K  K0  1  0.00000000  0.00000000  0.00000000  1
  Sb  Sb0  1  0.33855003  0.18763003  0.84035359  1
  Sb  Sb1  1  0.66144997  0.81236997  0.15964641  1
  Sb  Sb2  1  0.65272357  0.50180356  0.84035359  1
  Sb  Sb3  1  0.34727643  0.49819644  0.15964641  1
  Sb  Sb4  1  0.18735491  0.84825995  0.34744565  1
  Sb  Sb5  1  0.81264509  0.15174005  0.65255435  1
  Sb  Sb6  1  0.50081630  0.83990926  0.65255435  1
  Sb  Sb7  1  0.49918370  0.16009074  0.34744565  1
  Sb  Sb8  1  0.84577618  0.34900453  0.19477971  1
  Sb  Sb9  1  0.15422382  0.65099547  0.80522029  1
  Sb  Sb10  1  0.84404813  0.66237362  0.50642274  1
  Sb  Sb11  1  0.15595187  0.33762638  0.49357726  1
  Os  Os0  1  0.00000000  0.00000000  0.50000000  1
  Os  Os1  1  0.50000000  0.50000000  0.50000000  1
  Pd  Pd0  1  0.50000000  0.00000000  0.00000000  1
  Pd  Pd1  1  0.00000000  0.50000000  0.00000000  1
loop_
_geom_bond_atom_site_label_1
_geom_bond_atom_site_label_2
_geom_bond_distance
_geom_bond_site_symmetry_2
K0 Sb10 3.526140 1_444
K0 Sb11 3.526140 1_555
K0 Sb0 3.553248 1_554
K0 Sb1 3.553248 1_445
K0 Sb2 3.553248 1_444
K0 Sb3 3.553248 1_555
K0 Sb7 3.559063 1_555
K0 Sb6 3.559063 1_444
K0 Sb4 3.559076 1_545
K0 Sb5 3.559076 1_454
K0 Sb8 3.600605 1_455
K0 Sb9 3.600605 1_544
Sb0 Sb3 2.940390 1_556
Sb0 Sb2 2.963714 1_555
Sb1 Sb2 2.940390 1_554
Sb1 Sb3 2.963714 1_555
Sb4 Sb7 2.941604 1_565
Sb4 Sb6 2.959604 1_555
Sb5 Sb6 2.941604 1_545
Sb5 Sb7 2.959604 1_555
Sb10 Sb9 2.929338 1_655
Sb10 Sb8 2.965182 1_555
Sb11 Sb8 2.929338 1_455
Sb11 Sb9 2.965182 1_555
Os0 Sb4 2.635829 1_545
Os0 Sb5 2.635829 1_455
Os0 Sb0 2.640981 1_555
Os0 Sb1 2.640981 1_445
Os0 Sb11 2.651063 1_555
Os0 Sb10 2.651063 1_445
Os1 Sb6 2.635821 1_555
Os1 Sb7 2.635821 1_555
Os1 Sb2 2.640982 1_555
Os1 Sb3 2.640982 1_555
Os1 Sb10 2.651054 1_555
Os1 Sb11 2.651054 1_555
Pd0 Sb8 2.695855 1_555
Pd0 Sb9 2.695855 1_544
Pd0 Sb1 2.703654 1_545
Pd0 Sb0 2.703654 1_554
Pd0 Sb7 2.715608 1_555
Pd0 Sb6 2.715608 1_544
Pd1 Sb9 2.695847 1_554
Pd1 Sb8 2.695847 1_455
Pd1 Sb3 2.703654 1_555
Pd1 Sb2 2.703654 1_454
Pd1 Sb4 2.715599 1_555
Pd1 Sb5 2.715599 1_454
