# generated using pymatgen
data_HfZr3Pt2C
_symmetry_space_group_name_H-M   'P 1'
_cell_length_a   8.86080459
_cell_length_b   8.86080415
_cell_length_c   8.86080493
_cell_angle_alpha   59.99999709
_cell_angle_beta   59.99999874
_cell_angle_gamma   60.00000388
_symmetry_Int_Tables_number   1
_chemical_formula_structural   HfZr3Pt2C
_chemical_formula_sum   'Hf4 Zr12 Pt8 C4'
_cell_volume   491.93131901
_cell_formula_units_Z   4
loop_
 _symmetry_equiv_pos_site_id
 _symmetry_equiv_pos_as_xyz
  1  'x, y, z'
loop_
 _atom_site_type_symbol
 _atom_site_label
 _atom_site_symmetry_multiplicity
 _atom_site_fract_x
 _atom_site_fract_y
 _atom_site_fract_z
 _atom_site_occupancy
  Hf  Hf0  1  0.12500000  0.62500000  0.62500000  1
  Hf  Hf1  1  0.62500000  0.12500000  0.62500000  1
  Hf  Hf2  1  0.62500000  0.62500000  0.12500000  1
  Hf  Hf3  1  0.62500000  0.62500000  0.62500000  1
  Zr  Zr0  1  0.81647949  0.81647949  0.18352051  1
  Zr  Zr1  1  0.18352051  0.18352051  0.81647949  1
  Zr  Zr2  1  0.81647949  0.18352051  0.81647949  1
  Zr  Zr3  1  0.18352051  0.81647949  0.18352051  1
  Zr  Zr4  1  0.18352051  0.81647949  0.81647949  1
  Zr  Zr5  1  0.81647949  0.18352051  0.18352051  1
  Zr  Zr6  1  0.43352051  0.43352051  0.06647949  1
  Zr  Zr7  1  0.06647949  0.06647949  0.43352051  1
  Zr  Zr8  1  0.43352051  0.06647949  0.43352051  1
  Zr  Zr9  1  0.06647949  0.43352051  0.06647949  1
  Zr  Zr10  1  0.06647949  0.43352051  0.43352051  1
  Zr  Zr11  1  0.43352051  0.06647949  0.06647949  1
  Pt  Pt0  1  0.77029527  0.40990224  0.40990224  1
  Pt  Pt1  1  0.40990224  0.77029527  0.40990224  1
  Pt  Pt2  1  0.40990224  0.40990224  0.77029527  1
  Pt  Pt3  1  0.40990224  0.40990224  0.40990224  1
  Pt  Pt4  1  0.47970473  0.84009776  0.84009776  1
  Pt  Pt5  1  0.84009776  0.47970473  0.84009776  1
  Pt  Pt6  1  0.84009776  0.84009776  0.47970473  1
  Pt  Pt7  1  0.84009776  0.84009776  0.84009776  1
  C  C0  1  0.62500000  0.12500000  0.12500000  1
  C  C1  1  0.12500000  0.62500000  0.12500000  1
  C  C2  1  0.12500000  0.12500000  0.62500000  1
  C  C3  1  0.12500000  0.12500000  0.12500000  1
loop_
_geom_bond_atom_site_label_1
_geom_bond_atom_site_label_2
_geom_bond_distance
_geom_bond_site_symmetry_2
Hf0 Pt7 2.765462 1_455
Hf0 Pt3 2.765462 1_555
Hf0 Pt1 2.765472 1_555
Hf0 Pt5 2.765472 1_455
Hf0 Pt2 2.765472 1_555
Hf0 Pt6 2.765472 1_455
Hf1 Pt7 2.765462 1_545
Hf1 Pt3 2.765462 1_555
Hf1 Pt0 2.765472 1_555
Hf1 Pt4 2.765472 1_545
Hf1 Pt2 2.765472 1_555
Hf1 Pt6 2.765472 1_545
Hf2 Pt7 2.765462 1_554
Hf2 Pt3 2.765462 1_555
Hf2 Pt0 2.765472 1_555
Hf2 Pt4 2.765472 1_554
Hf2 Pt1 2.765472 1_555
Hf2 Pt5 2.765472 1_554
Hf3 Pt6 2.765458 1_555
Hf3 Pt2 2.765458 1_555
Hf3 Pt4 2.765458 1_555
Hf3 Pt0 2.765458 1_555
Hf3 Pt5 2.765458 1_555
Hf3 Pt1 2.765458 1_555
Pt0 Zr10 2.849121 1_655
Pt0 Zr9 2.849131 1_655
Pt0 Zr7 2.849131 1_655
Pt1 Zr8 2.849121 1_565
Pt1 Zr11 2.849131 1_565
Pt1 Zr7 2.849131 1_565
Pt2 Zr6 2.849121 1_556
Pt2 Zr11 2.849131 1_556
Pt2 Zr9 2.849131 1_556
Pt3 Zr8 2.849139 1_555
Pt3 Zr10 2.849139 1_555
Pt3 Zr6 2.849139 1_555
Pt4 Zr4 2.849121 1_555
Pt4 Zr3 2.849131 1_556
Pt4 Zr1 2.849131 1_565
Pt5 Zr2 2.849121 1_555
Pt5 Zr5 2.849131 1_556
Pt5 Zr1 2.849131 1_655
Pt6 Zr0 2.849121 1_555
Pt6 Zr5 2.849131 1_565
Pt6 Zr3 2.849131 1_655
Pt7 Zr2 2.849139 1_565
Pt7 Zr4 2.849139 1_655
Pt7 Zr0 2.849139 1_556
C0 Zr5 2.333427 1_555
C0 Zr8 2.333427 1_555
C0 Zr2 2.333427 1_554
C0 Zr11 2.333427 1_555
C0 Zr6 2.333427 1_555
C0 Zr0 2.333427 1_545
C1 Zr3 2.333427 1_555
C1 Zr10 2.333427 1_555
C1 Zr4 2.333427 1_554
C1 Zr9 2.333427 1_555
C1 Zr6 2.333427 1_555
C1 Zr0 2.333427 1_455
C2 Zr4 2.333427 1_545
C2 Zr10 2.333427 1_555
C2 Zr8 2.333427 1_555
C2 Zr2 2.333427 1_455
C2 Zr1 2.333427 1_555
C2 Zr7 2.333427 1_555
C3 Zr9 2.333427 1_555
C3 Zr3 2.333427 1_545
C3 Zr11 2.333427 1_555
C3 Zr5 2.333427 1_455
C3 Zr7 2.333427 1_555
C3 Zr1 2.333427 1_554
