# generated using pymatgen
data_Li2Mn(PO3)4
_symmetry_space_group_name_H-M   'P 1'
_cell_length_a   9.54242800
_cell_length_b   7.61311100
_cell_length_c   8.75133901
_cell_angle_alpha   56.60854430
_cell_angle_beta   90.00000000
_cell_angle_gamma   90.00000000
_symmetry_Int_Tables_number   1
_chemical_formula_structural   Li2Mn(PO3)4
_chemical_formula_sum   'Li4 Mn2 P8 O24'
_cell_volume   530.81794838
_cell_formula_units_Z   2
loop_
 _symmetry_equiv_pos_site_id
 _symmetry_equiv_pos_as_xyz
  1  'x, y, z'
loop_
 _atom_site_type_symbol
 _atom_site_label
 _atom_site_symmetry_multiplicity
 _atom_site_fract_x
 _atom_site_fract_y
 _atom_site_fract_z
 _atom_site_occupancy
  Li  Li0  1  0.65292300  0.78246000  0.33487400  1
  Li  Li1  1  0.15292300  0.21754000  0.16512600  1
  Li  Li2  1  0.34707700  0.21754000  0.66512600  1
  Li  Li3  1  0.84707700  0.78246000  0.83487400  1
  Mn  Mn0  1  0.50000000  0.00000000  0.50000000  1
  Mn  Mn1  1  0.00000000  0.00000000  0.00000000  1
  P  P0  1  0.39796800  0.54639300  0.27141700  1
  P  P1  1  0.78828900  0.21413300  0.61673700  1
  P  P2  1  0.28828900  0.78586700  0.88326300  1
  P  P3  1  0.10203200  0.54639300  0.77141700  1
  P  P4  1  0.21171100  0.78586700  0.38326300  1
  P  P5  1  0.89796800  0.45360700  0.22858300  1
  P  P6  1  0.71171100  0.21413300  0.11673700  1
  P  P7  1  0.60203200  0.45360700  0.72858300  1
  O  O0  1  0.32508300  0.89673500  0.41591400  1
  O  O1  1  0.35895300  0.60004000  0.07041300  1
  O  O2  1  0.96911300  0.65287800  0.76383800  1
  O  O3  1  0.76430800  0.35488200  0.18884300  1
  O  O4  1  0.88394600  0.68903200  0.10004300  1
  O  O5  1  0.26430800  0.64511800  0.31115700  1
  O  O6  1  0.17491700  0.89673500  0.91591400  1
  O  O7  1  0.59987900  0.07101200  0.24877600  1
  O  O8  1  0.53088700  0.65287800  0.26383800  1
  O  O9  1  0.09987900  0.92898800  0.25122400  1
  O  O10  1  0.90012100  0.07101200  0.74877600  1
  O  O11  1  0.14104700  0.60004000  0.57041300  1
  O  O12  1  0.82508300  0.10326500  0.08408600  1
  O  O13  1  0.40012100  0.92898800  0.75122400  1
  O  O14  1  0.23569200  0.64511800  0.81115700  1
  O  O15  1  0.46911300  0.34712200  0.73616200  1
  O  O16  1  0.73569200  0.35488200  0.68884300  1
  O  O17  1  0.67491700  0.10326500  0.58408600  1
  O  O18  1  0.85895300  0.39996000  0.42958700  1
  O  O19  1  0.64104700  0.39996000  0.92958700  1
  O  O20  1  0.03088700  0.34712200  0.23616200  1
  O  O21  1  0.11605400  0.31096800  0.89995700  1
  O  O22  1  0.38394600  0.31096800  0.39995700  1
  O  O23  1  0.61605400  0.68903200  0.60004300  1
loop_
_geom_bond_atom_site_label_1
_geom_bond_atom_site_label_2
_geom_bond_distance
_geom_bond_site_symmetry_2
Li0 O8 1.841423 1_555
Li0 O7 1.956489 1_565
Li0 O23 2.048899 1_555
Li1 O20 1.841423 1_555
Li1 O9 1.956489 1_545
Li1 O21 2.048899 1_554
Li2 O15 1.841423 1_555
Li2 O13 1.956489 1_545
Li2 O22 2.048899 1_555
Li3 O2 1.841423 1_555
Li3 O10 1.956489 1_565
Li3 O4 2.048899 1_556
Mn0 O17 2.140640 1_555
Mn0 O0 2.140640 1_545
Mn0 O13 2.173929 1_545
Mn0 O7 2.173929 1_555
Mn0 O22 2.305692 1_555
Mn0 O23 2.305692 1_545
Mn1 O12 2.140640 1_455
Mn1 O6 2.140640 1_544
Mn1 O9 2.173929 1_545
Mn1 O10 2.173929 1_454
Mn1 O21 2.305692 1_554
Mn1 O4 2.305692 1_445
O0 P4 1.493293 1_555
O1 P2 1.608774 1_554
O1 P0 1.615208 1_555
O2 P3 1.487004 1_655
O3 P6 1.594539 1_555
O3 P5 1.612552 1_555
O4 P5 1.508798 1_555
O5 P4 1.594539 1_555
O5 P0 1.612552 1_555
O6 P2 1.493293 1_555
O7 P6 1.508442 1_555
O8 P0 1.487004 1_555
O9 P4 1.508442 1_555
O10 P1 1.508442 1_555
O11 P4 1.608774 1_555
O11 P3 1.615208 1_555
O12 P6 1.493293 1_555
O13 P2 1.508442 1_555
O14 P2 1.594539 1_555
O14 P3 1.612552 1_555
O15 P7 1.487004 1_555
O16 P1 1.594539 1_555
O16 P7 1.612552 1_555
O17 P1 1.493293 1_555
O18 P1 1.608774 1_555
O18 P5 1.615208 1_555
O19 P6 1.608774 1_556
O19 P7 1.615208 1_555
O20 P5 1.487004 1_455
O21 P3 1.508798 1_555
O22 P0 1.508798 1_555
O23 P7 1.508798 1_555
