# generated using pymatgen
data_ScZn3P7N12
_symmetry_space_group_name_H-M   'P 1'
_cell_length_a   7.14490366
_cell_length_b   7.14123756
_cell_length_c   7.14490468
_cell_angle_alpha   109.46083331
_cell_angle_beta   109.48161306
_cell_angle_gamma   109.46082977
_symmetry_Int_Tables_number   1
_chemical_formula_structural   ScZn3P7N12
_chemical_formula_sum   'Sc1 Zn3 P7 N12'
_cell_volume   280.67261748
_cell_formula_units_Z   1
loop_
 _symmetry_equiv_pos_site_id
 _symmetry_equiv_pos_as_xyz
  1  'x, y, z'
loop_
 _atom_site_type_symbol
 _atom_site_label
 _atom_site_symmetry_multiplicity
 _atom_site_fract_x
 _atom_site_fract_y
 _atom_site_fract_z
 _atom_site_occupancy
  Sc  Sc0  1  0.00000000  0.33563839  0.00000000  1
  Zn  Zn0  1  0.67297366  0.67197885  0.67297366  1
  Zn  Zn1  1  0.32702634  0.99900419  0.00000000  1
  Zn  Zn2  1  1.00000000  0.99900419  0.32702634  1
  P  P0  1  0.74806890  0.25012780  0.49584901  1
  P  P1  1  0.25221989  0.75427879  0.50415099  1
  P  P2  1  0.50415099  0.75427879  0.25221989  1
  P  P3  1  0.49584901  0.25012780  0.74806890  1
  P  P4  1  0.74778011  0.50205890  0.25193110  1
  P  P5  1  0.25193110  0.50205890  0.74778011  1
  P  P6  1  1.00000000  0.98237522  1.00000000  1
  N  N0  1  0.56390882  0.27264569  0.00000000  1
  N  N1  1  0.44307986  0.44391578  0.71477067  1
  N  N2  1  0.00000000  0.27264569  0.56390882  1
  N  N3  1  0.27168980  0.00083592  0.55692014  1
  N  N4  1  0.71477067  0.44391578  0.44307986  1
  N  N5  1  0.00000000  0.55922818  0.28044022  1
  N  N6  1  0.55692014  0.00083592  0.27168980  1
  N  N7  1  0.43609118  0.70873688  0.43609118  1
  N  N8  1  0.28044022  0.55922818  0.00000000  1
  N  N9  1  0.71955978  0.27878796  0.71955978  1
  N  N10  1  0.72831020  0.72914511  0.28522933  1
  N  N11  1  0.28522933  0.72914511  0.72831020  1
loop_
_geom_bond_atom_site_label_1
_geom_bond_atom_site_label_2
_geom_bond_distance
_geom_bond_site_symmetry_2
P6 Zn0 2.299733 1_555
P6 Zn1 2.299735 1_656
P6 Zn2 2.299736 1_556
P6 Sc0 2.522736 1_666
N0 P4 1.635112 1_555
N0 P3 1.635113 1_554
N0 Zn1 2.116467 1_545
N1 P5 1.618865 1_555
N1 P3 1.618985 1_555
N1 Zn0 2.075683 1_555
N2 P5 1.635112 1_555
N2 P0 1.635113 1_455
N2 Zn2 2.116467 1_445
N3 P3 1.618867 1_555
N3 P1 1.618988 1_545
N3 Zn2 2.075675 1_445
N4 P4 1.618865 1_555
N4 P0 1.618985 1_555
N4 Zn0 2.075683 1_555
N5 P1 1.632545 1_555
N5 P4 1.632545 1_455
N5 Sc0 2.105364 1_555
N6 P0 1.618867 1_555
N6 P2 1.618988 1_545
N6 Zn1 2.075675 1_545
N7 P1 1.635113 1_555
N7 P2 1.635113 1_555
N7 Zn0 2.116462 1_555
N8 P2 1.632545 1_555
N8 P5 1.632545 1_554
N8 Sc0 2.105363 1_555
N9 P3 1.632545 1_555
N9 P0 1.632545 1_555
N9 Sc0 2.105364 1_656
N10 P2 1.618872 1_555
N10 P4 1.618982 1_555
N10 Zn2 2.075675 1_555
N11 P1 1.618872 1_555
N11 P5 1.618982 1_555
N11 Zn1 2.075675 1_556
