# generated using pymatgen
data_Ba2Ca3(InSb3)2
_symmetry_space_group_name_H-M   'P 1'
_cell_length_a   4.78785296
_cell_length_b   12.64681675
_cell_length_c   14.43815676
_cell_angle_alpha   90.00000000
_cell_angle_beta   90.00000000
_cell_angle_gamma   90.00000000
_symmetry_Int_Tables_number   1
_chemical_formula_structural   Ba2Ca3(InSb3)2
_chemical_formula_sum   'Ba4 Ca6 In4 Sb12'
_cell_volume   874.24625959
_cell_formula_units_Z   2
loop_
 _symmetry_equiv_pos_site_id
 _symmetry_equiv_pos_as_xyz
  1  'x, y, z'
loop_
 _atom_site_type_symbol
 _atom_site_label
 _atom_site_symmetry_multiplicity
 _atom_site_fract_x
 _atom_site_fract_y
 _atom_site_fract_z
 _atom_site_occupancy
  Ba  Ba0  1  0.50000000  0.67784504  0.47434859  1
  Ba  Ba1  1  0.50000000  0.32215496  0.52565141  1
  Ba  Ba2  1  0.50000000  0.82215496  0.97434859  1
  Ba  Ba3  1  0.50000000  0.17784504  0.02565141  1
  Ca  Ca0  1  0.50000000  0.00000000  0.50000000  1
  Ca  Ca1  1  0.50000000  0.50000000  0.00000000  1
  Ca  Ca2  1  0.50000000  0.91775804  0.24649699  1
  Ca  Ca3  1  0.50000000  0.08224196  0.75350301  1
  Ca  Ca4  1  0.50000000  0.41775804  0.25350301  1
  Ca  Ca5  1  0.50000000  0.58224196  0.74649699  1
  In  In0  1  0.00000000  0.32123974  0.71736023  1
  In  In1  1  0.00000000  0.67876026  0.28263977  1
  In  In2  1  0.00000000  0.82123974  0.78263977  1
  In  In3  1  0.00000000  0.17876026  0.21736023  1
  Sb  Sb0  1  0.00000000  0.97895843  0.09949975  1
  Sb  Sb1  1  0.00000000  0.02104157  0.90050025  1
  Sb  Sb2  1  0.00000000  0.47895843  0.40050025  1
  Sb  Sb3  1  0.00000000  0.52104157  0.59949975  1
  Sb  Sb4  1  0.50000000  0.16402241  0.32395726  1
  Sb  Sb5  1  0.50000000  0.83597759  0.67604274  1
  Sb  Sb6  1  0.50000000  0.66402241  0.17604274  1
  Sb  Sb7  1  0.50000000  0.33597759  0.82395726  1
  Sb  Sb8  1  0.00000000  0.36892159  0.10735472  1
  Sb  Sb9  1  0.00000000  0.63107841  0.89264528  1
  Sb  Sb10  1  0.00000000  0.86892159  0.39264528  1
  Sb  Sb11  1  0.00000000  0.13107841  0.60735472  1
loop_
_geom_bond_atom_site_label_1
_geom_bond_atom_site_label_2
_geom_bond_distance
_geom_bond_site_symmetry_2
Ba0 Sb5 3.532672 1_555
Ba0 Sb3 3.595623 1_555
Ba0 Sb3 3.595623 1_655
Ba0 Sb10 3.600273 1_555
Ba0 Sb10 3.600273 1_655
Ba0 Sb2 3.632408 1_555
Ba0 Sb2 3.632408 1_655
Ba0 In1 3.659564 1_555
Ba0 In1 3.659564 1_655
Ba1 Sb4 3.532672 1_555
Ba1 Sb2 3.595623 1_555
Ba1 Sb2 3.595623 1_655
Ba1 Sb11 3.600273 1_655
Ba1 Sb11 3.600273 1_555
Ba1 Sb3 3.632408 1_655
Ba1 Sb3 3.632408 1_555
Ba1 In0 3.659564 1_555
Ba1 In0 3.659564 1_655
Ba2 Sb6 3.532672 1_556
Ba2 Sb0 3.595623 1_556
Ba2 Sb0 3.595623 1_656
Ba2 Sb9 3.600273 1_655
Ba2 Sb9 3.600273 1_555
Ba2 Sb1 3.632408 1_665
Ba2 Sb1 3.632408 1_565
Ba2 In2 3.659564 1_655
Ba2 In2 3.659564 1_555
Ba3 Sb7 3.532672 1_554
Ba3 Sb1 3.595623 1_654
Ba3 Sb1 3.595623 1_554
Ba3 Sb8 3.600273 1_555
Ba3 Sb8 3.600273 1_655
Ba3 Sb0 3.632408 1_545
Ba3 Sb0 3.632408 1_645
Ba3 In3 3.659564 1_655
Ba3 In3 3.659564 1_555
Ca0 Sb5 3.280759 1_545
Ca0 Sb4 3.280759 1_555
Ca0 Sb11 3.298704 1_655
Ca0 Sb11 3.298704 1_555
Ca0 Sb10 3.298704 1_645
Ca0 Sb10 3.298704 1_545
Ca1 Sb6 3.280759 1_555
Ca1 Sb7 3.280759 1_554
Ca1 Sb8 3.298704 1_655
Ca1 Sb8 3.298704 1_555
Ca1 Sb9 3.298704 1_654
Ca1 Sb9 3.298704 1_554
Ca2 Sb10 3.250372 1_655
Ca2 Sb10 3.250372 1_555
Ca2 Sb0 3.291564 1_555
Ca2 Sb0 3.291564 1_655
Ca2 Sb4 3.309176 1_565
Ca2 Sb6 3.366319 1_555
Ca3 Sb11 3.250372 1_555
Ca3 Sb11 3.250372 1_655
Ca3 Sb1 3.291564 1_555
Ca3 Sb1 3.291564 1_655
Ca3 Sb5 3.309176 1_545
Ca3 Sb7 3.366319 1_555
Ca4 Sb8 3.250372 1_555
Ca4 Sb8 3.250372 1_655
Ca4 Sb2 3.291564 1_555
Ca4 Sb2 3.291564 1_655
Ca4 Sb6 3.309176 1_555
Ca4 Sb4 3.366319 1_555
Ca5 Sb9 3.250372 1_555
Ca5 Sb9 3.250372 1_655
Ca5 Sb3 3.291564 1_655
Ca5 Sb3 3.291564 1_555
Ca5 Sb7 3.309176 1_555
Ca5 Sb5 3.366319 1_555
In0 Sb7 2.852077 1_455
In0 Sb7 2.852077 1_555
In0 Sb11 2.882072 1_555
In0 Sb3 3.046432 1_555
In1 Sb6 2.852077 1_455
In1 Sb6 2.852077 1_555
In1 Sb10 2.882072 1_555
In1 Sb2 3.046432 1_555
In2 Sb5 2.852077 1_455
In2 Sb5 2.852077 1_555
In2 Sb9 2.882072 1_555
In2 Sb1 3.046432 1_565
In3 Sb4 2.852077 1_455
In3 Sb4 2.852077 1_555
In3 Sb8 2.882072 1_555
In3 Sb0 3.046432 1_545
Sb0 Sb1 2.922063 1_564
Sb2 Sb3 2.922063 1_555
