# generated using pymatgen
data_Sc13Al3(Pt2O)4
_symmetry_space_group_name_H-M   'P 1'
_cell_length_a   8.56606912
_cell_length_b   8.52082467
_cell_length_c   8.56607064
_cell_angle_alpha   59.82419289
_cell_angle_beta   59.99999795
_cell_angle_gamma   59.82418695
_symmetry_Int_Tables_number   1
_chemical_formula_structural   Sc13Al3(Pt2O)4
_chemical_formula_sum   'Sc13 Al3 Pt8 O4'
_cell_volume   440.93101110
_cell_formula_units_Z   1
loop_
 _symmetry_equiv_pos_site_id
 _symmetry_equiv_pos_as_xyz
  1  'x, y, z'
loop_
 _atom_site_type_symbol
 _atom_site_label
 _atom_site_symmetry_multiplicity
 _atom_site_fract_x
 _atom_site_fract_y
 _atom_site_fract_z
 _atom_site_occupancy
  Sc  Sc0  1  0.62500000  0.12500000  0.62500000  1
  Sc  Sc1  1  0.81141024  0.81523817  0.18667629  1
  Sc  Sc2  1  0.18259433  0.19160190  0.81290138  1
  Sc  Sc3  1  0.81290138  0.19160190  0.81290138  1
  Sc  Sc4  1  0.18667629  0.81523817  0.18667629  1
  Sc  Sc5  1  0.18667629  0.81523817  0.81141024  1
  Sc  Sc6  1  0.81290138  0.19160190  0.18259433  1
  Sc  Sc7  1  0.43858976  0.43476183  0.06332371  1
  Sc  Sc8  1  0.06740567  0.05839810  0.43709862  1
  Sc  Sc9  1  0.43709862  0.05839810  0.43709862  1
  Sc  Sc10  1  0.06332371  0.43476183  0.06332371  1
  Sc  Sc11  1  0.06332371  0.43476183  0.43858976  1
  Sc  Sc12  1  0.43709862  0.05839810  0.06740567  1
  Al  Al0  1  0.12500000  0.62500000  0.62500000  1
  Al  Al1  1  0.62500000  0.62500000  0.12500000  1
  Al  Al2  1  0.62500000  0.62500000  0.62500000  1
  Pt  Pt0  1  0.76336677  0.41845605  0.40908909  1
  Pt  Pt1  1  0.41493685  0.75518745  0.41493685  1
  Pt  Pt2  1  0.40908909  0.41845605  0.76336677  1
  Pt  Pt3  1  0.40908909  0.41845605  0.40908909  1
  Pt  Pt4  1  0.48663323  0.83154395  0.84091091  1
  Pt  Pt5  1  0.83506315  0.49481255  0.83506315  1
  Pt  Pt6  1  0.84091091  0.83154395  0.48663323  1
  Pt  Pt7  1  0.84091091  0.83154395  0.84091091  1
  O  O0  1  0.62500000  0.12500000  0.12500000  1
  O  O1  1  0.12500000  0.62500000  0.12500000  1
  O  O2  1  0.12500000  0.12500000  0.62500000  1
  O  O3  1  0.12500000  0.12500000  0.12500000  1
loop_
_geom_bond_atom_site_label_1
_geom_bond_atom_site_label_2
_geom_bond_distance
_geom_bond_site_symmetry_2
Al0 Pt7 2.627918 1_455
Al0 Pt3 2.627918 1_555
Al0 Pt2 2.627923 1_555
Al0 Pt6 2.627923 1_455
Al0 Pt1 2.632636 1_555
Al0 Pt5 2.632636 1_455
Al1 Pt7 2.627918 1_554
Al1 Pt3 2.627918 1_555
Al1 Pt0 2.627923 1_555
Al1 Pt4 2.627923 1_554
Al1 Pt1 2.632637 1_555
Al1 Pt5 2.632637 1_554
Al2 Pt6 2.627916 1_555
Al2 Pt2 2.627916 1_555
Al2 Pt4 2.627916 1_555
Al2 Pt0 2.627916 1_555
Al2 Pt5 2.632650 1_555
Al2 Pt1 2.632650 1_555
Pt0 Sc0 2.686270 1_555
Pt0 Sc11 2.780063 1_655
Pt0 Sc10 2.780073 1_655
Pt0 Sc8 2.846969 1_655
Pt0 Sc1 3.060867 1_555
Pt0 Sc3 3.130986 1_555
Pt0 Sc6 3.131001 1_555
Pt1 Sc8 2.787328 1_565
Pt1 Sc12 2.787328 1_565
Pt1 Sc9 2.787343 1_565
Pt2 Sc0 2.686270 1_555
Pt2 Sc7 2.780063 1_556
Pt2 Sc10 2.780073 1_556
Pt2 Sc12 2.846970 1_556
Pt2 Sc5 3.060867 1_555
Pt2 Sc3 3.130985 1_555
Pt2 Sc2 3.131001 1_555
Pt3 Sc0 2.686265 1_555
Pt3 Sc11 2.780080 1_555
Pt3 Sc7 2.780080 1_555
Pt3 Sc9 2.846969 1_555
Pt3 Sc4 3.060867 1_555
Pt3 Sc6 3.130992 1_555
Pt3 Sc2 3.130992 1_555
Pt4 Sc0 2.686270 1_565
Pt4 Sc5 2.780063 1_555
Pt4 Sc4 2.780073 1_556
Pt4 Sc2 2.846969 1_565
Pt4 Sc7 3.060867 1_556
Pt4 Sc9 3.130986 1_565
Pt4 Sc12 3.131001 1_566
Pt5 Sc2 2.787328 1_655
Pt5 Sc6 2.787328 1_556
Pt5 Sc3 2.787343 1_555
Pt6 Sc0 2.686270 1_565
Pt6 Sc1 2.780063 1_555
Pt6 Sc4 2.780073 1_655
Pt6 Sc6 2.846970 1_565
Pt6 Sc11 3.060867 1_655
Pt6 Sc9 3.130985 1_565
Pt6 Sc8 3.131001 1_665
Pt7 Sc0 2.686265 1_565
Pt7 Sc5 2.780080 1_655
Pt7 Sc1 2.780080 1_556
Pt7 Sc3 2.846969 1_565
Pt7 Sc10 3.060867 1_656
Pt7 Sc12 3.130992 1_566
Pt7 Sc8 3.130992 1_665
O0 Sc7 2.236114 1_555
O0 Sc1 2.236114 1_545
O0 Sc6 2.269372 1_555
O0 Sc12 2.269372 1_555
O0 Sc9 2.269379 1_555
O0 Sc3 2.269379 1_554
O1 Sc7 2.277465 1_555
O1 Sc1 2.277465 1_455
O1 Sc11 2.277466 1_555
O1 Sc5 2.277466 1_554
O1 Sc4 2.277472 1_555
O1 Sc10 2.277472 1_555
O2 Sc11 2.236114 1_555
O2 Sc5 2.236114 1_545
O2 Sc2 2.269373 1_555
O2 Sc8 2.269373 1_555
O2 Sc9 2.269378 1_555
O2 Sc3 2.269378 1_455
O3 Sc10 2.236112 1_555
O3 Sc4 2.236112 1_545
O3 Sc12 2.269380 1_555
O3 Sc6 2.269380 1_455
O3 Sc8 2.269381 1_555
O3 Sc2 2.269381 1_554
