# generated using pymatgen
data_Ce2SmS4
_symmetry_space_group_name_H-M   'P 1'
_cell_length_a   7.38780885
_cell_length_b   7.38780885
_cell_length_c   7.38780885
_cell_angle_alpha   109.69740010
_cell_angle_beta   109.69740010
_cell_angle_gamma   109.01980260
_symmetry_Int_Tables_number   1
_chemical_formula_structural   Ce2SmS4
_chemical_formula_sum   'Ce4 Sm2 S8'
_cell_volume   310.38795497
_cell_formula_units_Z   2
loop_
 _symmetry_equiv_pos_site_id
 _symmetry_equiv_pos_as_xyz
  1  'x, y, z'
loop_
 _atom_site_type_symbol
 _atom_site_label
 _atom_site_symmetry_multiplicity
 _atom_site_fract_x
 _atom_site_fract_y
 _atom_site_fract_z
 _atom_site_occupancy
  Ce  Ce0  1  0.87500000  0.49907300  0.12407300  1
  Ce  Ce1  1  0.24907300  0.12500000  0.62407300  1
  Ce  Ce2  1  0.37500000  0.75092700  0.87592700  1
  Ce  Ce3  1  0.50092700  0.62500000  0.37592700  1
  Sm  Sm0  1  0.75000000  0.25000000  0.50000000  1
  Sm  Sm1  1  0.00000000  0.00000000  0.00000000  1
  S  S0  1  0.62865400  0.02773700  0.75047400  1
  S  S1  1  0.62818000  0.52726300  0.74952600  1
  S  S2  1  0.77773700  0.87865400  0.25047400  1
  S  S3  1  0.97226300  0.72273700  0.60091800  1
  S  S4  1  0.27726300  0.87818000  0.24952600  1
  S  S5  1  0.12134600  0.37182000  0.89908200  1
  S  S6  1  0.12182000  0.37134600  0.39908200  1
  S  S7  1  0.47273700  0.22226300  0.10091800  1
loop_
_geom_bond_atom_site_label_1
_geom_bond_atom_site_label_2
_geom_bond_distance
_geom_bond_site_symmetry_2
Ce0 S6 2.873983 1_655
Ce0 S1 2.873988 1_554
Ce0 S4 2.916064 1_655
Ce0 S7 2.916068 1_555
Ce0 S0 3.009978 1_554
Ce0 S5 3.009983 1_654
Ce0 S2 3.041831 1_555
Ce0 S3 3.041837 1_555
Ce1 S5 2.873983 1_555
Ce1 S4 2.873988 1_545
Ce1 S1 2.916064 1_555
Ce1 S3 2.916068 1_445
Ce1 S2 3.009978 1_445
Ce1 S6 3.009983 1_555
Ce1 S0 3.041831 1_555
Ce1 S7 3.041837 1_556
Ce2 S3 2.873985 1_455
Ce2 S2 2.873988 1_556
Ce2 S5 2.916060 1_555
Ce2 S0 2.916064 1_565
Ce2 S4 3.009978 1_556
Ce2 S7 3.009979 1_566
Ce2 S1 3.041831 1_555
Ce2 S6 3.041835 1_555
Ce3 S7 2.873985 1_555
Ce3 S0 2.873988 1_565
Ce3 S6 2.916060 1_555
Ce3 S2 2.916064 1_555
Ce3 S1 3.009978 1_555
Ce3 S3 3.009979 1_555
Ce3 S4 3.041831 1_555
Ce3 S5 3.041835 1_554
S0 Sm1 2.859822 1_656
S0 Sm0 3.021791 1_555
S1 Sm0 2.859822 1_555
S1 Sm1 3.021791 1_666
S2 Sm0 2.859822 1_565
S2 Sm1 3.021791 1_665
S3 Sm1 2.859816 1_666
S3 Sm0 3.021788 1_555
S4 Sm1 2.859822 1_565
S4 Sm0 3.021791 1_565
S5 Sm0 2.859817 1_455
S5 Sm1 3.021796 1_556
S6 Sm1 2.859817 1_555
S6 Sm0 3.021796 1_455
S7 Sm0 2.859816 1_555
S7 Sm1 3.021788 1_555
