# generated using pymatgen
data_BaSi23
_symmetry_space_group_name_H-M   'P 1'
_cell_length_a   10.27346600
_cell_length_b   10.27346600
_cell_length_c   10.27346600
_cell_angle_alpha   90.00000000
_cell_angle_beta   90.00000000
_cell_angle_gamma   90.00000000
_symmetry_Int_Tables_number   1
_chemical_formula_structural   BaSi23
_chemical_formula_sum   'Ba2 Si46'
_cell_volume   1084.30376038
_cell_formula_units_Z   2
loop_
 _symmetry_equiv_pos_site_id
 _symmetry_equiv_pos_as_xyz
  1  'x, y, z'
loop_
 _atom_site_type_symbol
 _atom_site_label
 _atom_site_symmetry_multiplicity
 _atom_site_fract_x
 _atom_site_fract_y
 _atom_site_fract_z
 _atom_site_occupancy
  Ba  Ba0  1  0.50000000  0.50000000  0.50000000  1
  Ba  Ba1  1  0.00000000  0.00000000  0.00000000  1
  Si  Si0  1  0.00000000  0.50000000  0.75000000  1
  Si  Si1  1  0.50000000  0.25000000  0.00000000  1
  Si  Si2  1  0.75000000  0.00000000  0.50000000  1
  Si  Si3  1  0.00000000  0.50000000  0.25000000  1
  Si  Si4  1  0.50000000  0.75000000  0.00000000  1
  Si  Si5  1  0.25000000  0.00000000  0.50000000  1
  Si  Si6  1  0.68485400  0.31514600  0.68485400  1
  Si  Si7  1  0.31514600  0.68485400  0.31514600  1
  Si  Si8  1  0.68485400  0.68485400  0.31514600  1
  Si  Si9  1  0.31514600  0.31514600  0.68485400  1
  Si  Si10  1  0.31514600  0.68485400  0.68485400  1
  Si  Si11  1  0.68485400  0.31514600  0.31514600  1
  Si  Si12  1  0.31514600  0.31514600  0.31514600  1
  Si  Si13  1  0.68485400  0.68485400  0.68485400  1
  Si  Si14  1  0.18485400  0.18485400  0.81514600  1
  Si  Si15  1  0.81514600  0.81514600  0.18485400  1
  Si  Si16  1  0.18485400  0.81514600  0.18485400  1
  Si  Si17  1  0.81514600  0.18485400  0.81514600  1
  Si  Si18  1  0.81514600  0.18485400  0.18485400  1
  Si  Si19  1  0.18485400  0.81514600  0.81514600  1
  Si  Si20  1  0.81514600  0.81514600  0.81514600  1
  Si  Si21  1  0.18485400  0.18485400  0.18485400  1
  Si  Si22  1  0.61669800  0.19026500  0.50000000  1
  Si  Si23  1  0.80973500  0.50000000  0.61669800  1
  Si  Si24  1  0.50000000  0.38330200  0.80973500  1
  Si  Si25  1  0.38330200  0.80973500  0.50000000  1
  Si  Si26  1  0.19026500  0.50000000  0.38330200  1
  Si  Si27  1  0.50000000  0.61669800  0.19026500  1
  Si  Si28  1  0.61669800  0.80973500  0.50000000  1
  Si  Si29  1  0.80973500  0.50000000  0.38330200  1
  Si  Si30  1  0.38330200  0.19026500  0.50000000  1
  Si  Si31  1  0.19026500  0.50000000  0.61669800  1
  Si  Si32  1  0.50000000  0.61669800  0.80973500  1
  Si  Si33  1  0.50000000  0.38330200  0.19026500  1
  Si  Si34  1  0.11669800  0.00000000  0.69026500  1
  Si  Si35  1  0.30973500  0.11669800  0.00000000  1
  Si  Si36  1  0.00000000  0.30973500  0.88330200  1
  Si  Si37  1  0.88330200  0.00000000  0.30973500  1
  Si  Si38  1  0.69026500  0.88330200  0.00000000  1
  Si  Si39  1  0.00000000  0.69026500  0.11669800  1
  Si  Si40  1  0.11669800  0.00000000  0.30973500  1
  Si  Si41  1  0.30973500  0.88330200  0.00000000  1
  Si  Si42  1  0.88330200  0.00000000  0.69026500  1
  Si  Si43  1  0.69026500  0.11669800  0.00000000  1
  Si  Si44  1  0.00000000  0.30973500  0.11669800  1
  Si  Si45  1  0.00000000  0.69026500  0.88330200  1
loop_
_geom_bond_atom_site_label_1
_geom_bond_atom_site_label_2
_geom_bond_distance
_geom_bond_site_symmetry_2
Ba0 Si13 3.289323 1_555
Ba0 Si8 3.289323 1_555
Ba0 Si10 3.289323 1_555
Ba0 Si6 3.289323 1_555
Ba0 Si7 3.289323 1_555
Ba0 Si12 3.289323 1_555
Ba0 Si11 3.289323 1_555
Ba0 Si9 3.289323 1_555
Ba0 Si22 3.400412 1_555
Ba0 Si28 3.400412 1_555
Ba0 Si27 3.400412 1_555
Ba0 Si32 3.400412 1_555
Ba0 Si33 3.400412 1_555
Ba0 Si23 3.400412 1_555
Ba0 Si24 3.400412 1_555
Ba0 Si25 3.400412 1_555
Ba0 Si26 3.400412 1_555
Ba0 Si30 3.400412 1_555
Ba0 Si31 3.400412 1_555
Ba0 Si29 3.400412 1_555
Ba1 Si21 3.289323 1_555
Ba1 Si16 3.289323 1_545
Ba1 Si18 3.289323 1_455
Ba1 Si14 3.289323 1_554
Ba1 Si15 3.289323 1_445
Ba1 Si17 3.289323 1_454
Ba1 Si19 3.289323 1_544
Ba1 Si20 3.289323 1_444
Ba1 Si43 3.400412 1_455
Ba1 Si35 3.400412 1_555
Ba1 Si34 3.400412 1_554
Ba1 Si44 3.400412 1_555
Ba1 Si40 3.400412 1_555
Ba1 Si39 3.400412 1_545
Ba1 Si37 3.400412 1_455
Ba1 Si42 3.400412 1_454
Ba1 Si41 3.400412 1_545
Ba1 Si45 3.400412 1_544
Ba1 Si36 3.400412 1_554
Ba1 Si38 3.400412 1_445
Si0 Si36 2.386679 1_555
Si0 Si45 2.386679 1_555
Si0 Si31 2.386679 1_555
Si0 Si23 2.386679 1_455
Si1 Si33 2.386679 1_555
Si1 Si24 2.386679 1_554
Si1 Si43 2.386679 1_555
Si1 Si35 2.386679 1_555
Si2 Si37 2.386679 1_555
Si2 Si42 2.386679 1_555
Si2 Si28 2.386679 1_545
Si2 Si22 2.386679 1_555
Si3 Si44 2.386679 1_555
Si3 Si39 2.386679 1_555
Si4 Si41 2.386679 1_555
Si10 Si19 2.318437 1_555
Si10 Si31 2.396417 1_555
Si10 Si25 2.396417 1_555
Si10 Si32 2.396417 1_555
Si11 Si18 2.318437 1_555
Si11 Si33 2.396417 1_555
Si11 Si29 2.396417 1_555
Si11 Si22 2.396417 1_555
Si12 Si21 2.318437 1_555
Si12 Si26 2.396417 1_555
Si12 Si33 2.396417 1_555
Si12 Si30 2.396417 1_555
Si13 Si20 2.318437 1_555
Si13 Si28 2.396417 1_555
Si13 Si23 2.396417 1_555
Si13 Si32 2.396417 1_555
Si14 Si9 2.318437 1_555
Si14 Si34 2.396417 1_555
Si14 Si36 2.396417 1_555
Si14 Si35 2.396417 1_556
Si15 Si8 2.318437 1_555
Si15 Si38 2.396417 1_555
Si15 Si39 2.396417 1_655
Si15 Si37 2.396417 1_565
Si16 Si7 2.318437 1_555
Si16 Si39 2.396417 1_555
Si16 Si41 2.396417 1_555
Si16 Si40 2.396417 1_565
Si17 Si6 2.318437 1_555
Si17 Si42 2.396417 1_555
Si17 Si43 2.396417 1_556
Si17 Si36 2.396417 1_655
Si18 Si43 2.396417 1_555
Si18 Si37 2.396417 1_555
Si18 Si44 2.396417 1_655
Si19 Si45 2.396417 1_555
Si19 Si34 2.396417 1_565
Si19 Si41 2.396417 1_556
Si20 Si42 2.396417 1_565
Si20 Si45 2.396417 1_655
Si20 Si38 2.396417 1_556
Si21 Si40 2.396417 1_555
Si21 Si44 2.396417 1_555
Si21 Si35 2.396417 1_555
Si22 Si6 2.396417 1_555
Si22 Si30 2.397786 1_555
Si23 Si6 2.396417 1_555
Si23 Si29 2.397786 1_555
Si24 Si6 2.396417 1_555
Si24 Si9 2.396417 1_555
Si24 Si32 2.397786 1_555
Si25 Si5 2.386679 1_565
Si25 Si7 2.396417 1_555
Si25 Si28 2.397786 1_555
Si26 Si3 2.386679 1_555
Si26 Si7 2.396417 1_555
Si26 Si31 2.397786 1_555
Si27 Si4 2.386679 1_555
Si27 Si8 2.396417 1_555
Si27 Si7 2.396417 1_555
Si27 Si33 2.397786 1_555
Si28 Si8 2.396417 1_555
Si29 Si3 2.386679 1_655
Si29 Si8 2.396417 1_555
Si30 Si5 2.386679 1_555
Si30 Si9 2.396417 1_555
Si31 Si9 2.396417 1_555
Si32 Si4 2.386679 1_556
Si34 Si5 2.386679 1_555
Si34 Si42 2.397786 1_455
Si35 Si41 2.397786 1_545
Si36 Si44 2.397786 1_556
Si37 Si40 2.397786 1_655
Si38 Si4 2.386679 1_555
Si38 Si43 2.397786 1_565
Si39 Si45 2.397786 1_554
Si40 Si5 2.386679 1_555
