# generated using pymatgen
data_Hf12Al4OsRh7
_symmetry_space_group_name_H-M   'P 1'
_cell_length_a   8.43669779
_cell_length_b   8.43669714
_cell_length_c   8.43669776
_cell_angle_alpha   60.01573967
_cell_angle_beta   60.01573982
_cell_angle_gamma   60.01574715
_symmetry_Int_Tables_number   1
_chemical_formula_structural   Hf12Al4OsRh7
_chemical_formula_sum   'Hf12 Al4 Os1 Rh7'
_cell_volume   424.77349363
_cell_formula_units_Z   1
loop_
 _symmetry_equiv_pos_site_id
 _symmetry_equiv_pos_as_xyz
  1  'x, y, z'
loop_
 _atom_site_type_symbol
 _atom_site_label
 _atom_site_symmetry_multiplicity
 _atom_site_fract_x
 _atom_site_fract_y
 _atom_site_fract_z
 _atom_site_occupancy
  Hf  Hf0  1  0.80712172  0.80712172  0.18935564  1
  Hf  Hf1  1  0.19232355  0.19232355  0.80735961  1
  Hf  Hf2  1  0.80712172  0.18935564  0.80712172  1
  Hf  Hf3  1  0.19232355  0.80735961  0.19232355  1
  Hf  Hf4  1  0.18935564  0.80712172  0.80712172  1
  Hf  Hf5  1  0.80735961  0.19232355  0.19232355  1
  Hf  Hf6  1  0.44322352  0.44322352  0.05646410  1
  Hf  Hf7  1  0.05552293  0.05552293  0.44505999  1
  Hf  Hf8  1  0.44322352  0.05646410  0.44322352  1
  Hf  Hf9  1  0.05552293  0.44505999  0.05552293  1
  Hf  Hf10  1  0.05646410  0.44322352  0.44322352  1
  Hf  Hf11  1  0.44505999  0.05552293  0.05552293  1
  Al  Al0  1  0.12827000  0.62380557  0.62380557  1
  Al  Al1  1  0.62380557  0.12827000  0.62380557  1
  Al  Al2  1  0.62380557  0.62380557  0.12827000  1
  Al  Al3  1  0.62556610  0.62556610  0.62556610  1
  Os  Os0  1  0.83792797  0.83792797  0.83792797  1
  Rh  Rh0  1  0.76676233  0.41191711  0.41191711  1
  Rh  Rh1  1  0.41191711  0.76676233  0.41191711  1
  Rh  Rh2  1  0.41191711  0.41191711  0.76676233  1
  Rh  Rh3  1  0.41089072  0.41089072  0.41089072  1
  Rh  Rh4  1  0.48473889  0.83988793  0.83988793  1
  Rh  Rh5  1  0.83988793  0.48473889  0.83988793  1
  Rh  Rh6  1  0.83988793  0.83988793  0.48473889  1
loop_
_geom_bond_atom_site_label_1
_geom_bond_atom_site_label_2
_geom_bond_distance
_geom_bond_site_symmetry_2
Hf0 Os0 2.729973 1_554
Hf0 Rh6 2.795840 1_555
Hf0 Rh0 2.999458 1_555
Hf0 Rh1 2.999459 1_555
Hf0 Hf9 3.111455 1_655
Hf0 Hf11 3.111455 1_565
Hf0 Hf8 3.148620 1_565
Hf0 Hf10 3.148620 1_655
Hf0 Hf2 3.225559 1_564
Hf0 Hf4 3.225559 1_654
Hf0 Hf5 3.263424 1_565
Hf0 Hf3 3.263425 1_655
Hf1 Rh4 2.744401 1_545
Hf1 Rh5 2.744401 1_455
Hf1 Rh3 3.009572 1_555
Hf1 Rh2 3.023916 1_555
Hf1 Hf8 3.134802 1_555
Hf1 Hf10 3.134802 1_555
Hf1 Hf9 3.138343 1_556
Hf1 Hf11 3.138343 1_556
Hf1 Hf3 3.248597 1_546
Hf1 Hf5 3.248597 1_456
Hf1 Hf4 3.263424 1_545
Hf1 Hf2 3.263425 1_455
Hf2 Os0 2.729972 1_545
Hf2 Rh5 2.795840 1_555
Hf2 Rh0 2.999459 1_555
Hf2 Rh2 2.999459 1_555
Hf2 Hf7 3.111455 1_655
Hf2 Hf6 3.148620 1_556
Hf2 Hf4 3.225559 1_645
Hf2 Hf5 3.263425 1_556
Hf3 Rh4 2.744401 1_554
Hf3 Rh6 2.744401 1_455
Hf3 Rh3 3.009572 1_555
Hf3 Rh1 3.023916 1_555
Hf3 Hf6 3.134802 1_555
Hf3 Hf7 3.138343 1_565
Hf3 Hf5 3.248597 1_465
Hf3 Hf4 3.263425 1_554
Hf4 Os0 2.729973 1_455
Hf4 Rh4 2.795840 1_555
Hf4 Rh1 2.999459 1_555
Hf4 Rh2 2.999459 1_555
Hf4 Hf9 3.111455 1_556
Hf4 Hf7 3.111455 1_565
Hf4 Hf8 3.148620 1_565
Hf4 Hf6 3.148620 1_556
Hf5 Rh5 2.744401 1_554
Hf5 Rh6 2.744401 1_545
Hf5 Rh3 3.009572 1_555
Hf5 Rh0 3.023916 1_555
Hf5 Hf8 3.134801 1_555
Hf5 Hf6 3.134802 1_555
Hf5 Hf9 3.138343 1_655
Hf5 Hf7 3.138343 1_655
Hf6 Rh2 2.733768 1_554
Hf6 Rh3 2.744789 1_555
Hf6 Rh4 3.013414 1_554
Hf6 Rh5 3.013414 1_554
Hf6 Hf8 3.263748 1_555
Hf6 Hf9 3.267163 1_555
Hf7 Rh0 2.751888 1_455
Hf7 Rh1 2.751888 1_545
Hf7 Rh6 2.970190 1_445
Hf7 Os0 2.988480 1_445
Hf7 Hf8 3.267163 1_555
Hf7 Hf9 3.287188 1_555
Hf8 Rh1 2.733768 1_545
Hf8 Rh3 2.744789 1_555
Hf8 Rh4 3.013415 1_545
Hf8 Rh6 3.013415 1_545
Hf9 Rh0 2.751888 1_455
Hf9 Rh2 2.751888 1_554
Hf9 Rh5 2.970191 1_454
Hf9 Os0 2.988480 1_454
Hf10 Rh0 2.733768 1_455
Hf10 Rh3 2.744789 1_555
Hf10 Rh6 3.013415 1_455
Hf10 Rh5 3.013415 1_455
Hf10 Hf3 3.134801 1_555
Hf10 Hf2 3.148620 1_455
Hf10 Hf6 3.263749 1_555
Hf10 Hf8 3.263749 1_555
Hf10 Hf7 3.267163 1_555
Hf10 Hf9 3.267163 1_555
Hf11 Rh2 2.751887 1_554
Hf11 Rh1 2.751887 1_545
Hf11 Rh4 2.970191 1_544
Hf11 Os0 2.988480 1_544
Hf11 Hf2 3.111455 1_554
Hf11 Hf3 3.138343 1_545
Hf11 Hf6 3.267163 1_555
Hf11 Hf8 3.267163 1_555
Hf11 Hf7 3.287188 1_555
Hf11 Hf9 3.287189 1_555
Al0 Rh3 2.608019 1_555
Al0 Rh1 2.613601 1_555
Al0 Rh2 2.613601 1_555
Al0 Rh5 2.627058 1_455
Al0 Rh6 2.627059 1_455
Al0 Os0 2.634947 1_455
Al0 Hf4 3.005587 1_555
Al0 Hf7 3.019547 1_565
Al0 Hf9 3.019548 1_556
Al0 Hf10 3.028899 1_555
Al0 Hf1 3.029420 1_555
Al0 Hf3 3.029420 1_555
Al1 Rh3 2.608019 1_555
Al1 Rh0 2.613601 1_555
Al1 Rh2 2.613601 1_555
Al1 Rh4 2.627058 1_545
Al1 Rh6 2.627058 1_545
Al1 Os0 2.634947 1_545
Al1 Hf2 3.005587 1_555
Al1 Hf11 3.019548 1_556
Al1 Hf7 3.019548 1_655
Al1 Hf8 3.028899 1_555
Al1 Hf5 3.029420 1_555
Al1 Hf1 3.029421 1_555
Al2 Rh3 2.608019 1_555
Al2 Rh1 2.613601 1_555
Al2 Rh0 2.613601 1_555
Al2 Rh5 2.627058 1_554
Al2 Rh4 2.627059 1_554
Al2 Os0 2.634947 1_554
Al2 Hf0 3.005587 1_555
Al2 Hf11 3.019548 1_565
Al2 Hf9 3.019548 1_655
Al2 Hf6 3.028899 1_555
Al2 Hf5 3.029420 1_555
Al2 Hf3 3.029421 1_555
Al3 Rh2 2.621467 1_555
Al3 Rh0 2.621468 1_555
Al3 Rh1 2.621468 1_555
Al3 Rh6 2.631330 1_555
Al3 Rh4 2.631330 1_555
Al3 Rh5 2.631331 1_555
Al3 Hf6 3.022368 1_556
Al3 Hf8 3.022368 1_565
Al3 Hf10 3.022369 1_655
Al3 Hf0 3.051632 1_555
Al3 Hf2 3.051633 1_555
Al3 Hf4 3.051633 1_555
Os0 Rh5 2.963314 1_555
Os0 Rh6 2.963314 1_555
Os0 Rh4 2.963314 1_555
Rh0 Rh2 2.994434 1_555
Rh0 Rh1 2.994434 1_555
Rh0 Rh3 3.011061 1_555
Rh1 Rh2 2.994434 1_555
Rh1 Rh3 3.011061 1_555
Rh2 Rh3 3.011061 1_555
Rh4 Rh6 2.996998 1_555
Rh4 Rh5 2.996998 1_555
Rh5 Rh6 2.996998 1_555
