# generated using pymatgen
data_LiAlBr4
_symmetry_space_group_name_H-M   'P 1'
_cell_length_a   7.00512520
_cell_length_b   7.42673471
_cell_length_c   13.66588062
_cell_angle_alpha   87.11354481
_cell_angle_beta   90.00000000
_cell_angle_gamma   90.00000000
_symmetry_Int_Tables_number   1
_chemical_formula_structural   LiAlBr4
_chemical_formula_sum   'Li4 Al4 Br16'
_cell_volume   710.06824543
_cell_formula_units_Z   4
loop_
 _symmetry_equiv_pos_site_id
 _symmetry_equiv_pos_as_xyz
  1  'x, y, z'
loop_
 _atom_site_type_symbol
 _atom_site_label
 _atom_site_symmetry_multiplicity
 _atom_site_fract_x
 _atom_site_fract_y
 _atom_site_fract_z
 _atom_site_occupancy
  Li  Li0  1  0.51826743  0.84523064  0.87535230  1
  Li  Li1  1  0.01826743  0.15476936  0.62464770  1
  Li  Li2  1  0.48173257  0.15476936  0.12464770  1
  Li  Li3  1  0.98173257  0.84523064  0.37535230  1
  Al  Al0  1  0.17204246  0.29447723  0.39794092  1
  Al  Al1  1  0.67204246  0.70552277  0.10205908  1
  Al  Al2  1  0.82795754  0.70552277  0.60205908  1
  Al  Al3  1  0.32795754  0.29447723  0.89794092  1
  Br  Br0  1  0.17793749  0.30839463  0.04710838  1
  Br  Br1  1  0.67793749  0.69160537  0.45289162  1
  Br  Br2  1  0.82206251  0.69160537  0.95289162  1
  Br  Br3  1  0.32206251  0.30839463  0.54710838  1
  Br  Br4  1  0.63553792  0.19036777  0.93304157  1
  Br  Br5  1  0.13553792  0.80963223  0.56695843  1
  Br  Br6  1  0.36446208  0.80963223  0.06695843  1
  Br  Br7  1  0.86446208  0.19036777  0.43304157  1
  Br  Br8  1  0.18910620  0.06862496  0.80954154  1
  Br  Br9  1  0.68910620  0.93137504  0.69045846  1
  Br  Br10  1  0.81089380  0.93137504  0.19045846  1
  Br  Br11  1  0.31089380  0.06862496  0.30954154  1
  Br  Br12  1  0.32750247  0.56410010  0.80834547  1
  Br  Br13  1  0.82750247  0.43589990  0.69165453  1
  Br  Br14  1  0.67249753  0.43589990  0.19165453  1
  Br  Br15  1  0.17249753  0.56410010  0.30834547  1
loop_
_geom_bond_atom_site_label_1
_geom_bond_atom_site_label_2
_geom_bond_distance
_geom_bond_site_symmetry_2
Al0 Br15 2.293887 1_555
Al0 Br3 2.300395 1_555
Al0 Br11 2.328745 1_555
Al0 Br7 2.330888 1_455
Al1 Br14 2.293887 1_555
Al1 Br2 2.300395 1_554
Al1 Br10 2.328745 1_555
Al1 Br6 2.330888 1_555
Al2 Br13 2.293887 1_555
Al2 Br1 2.300395 1_555
Al2 Br9 2.328745 1_555
Al2 Br5 2.330888 1_655
Al3 Br12 2.293887 1_555
Al3 Br0 2.300395 1_556
Al3 Br8 2.328745 1_555
Al3 Br4 2.330888 1_555
Br0 Li2 2.613756 1_555
Br1 Li3 2.613756 1_555
Br2 Li0 2.613756 1_555
Br3 Li1 2.613756 1_555
Br4 Li2 2.831499 1_556
Br4 Li0 2.840795 1_545
Br5 Li3 2.831499 1_455
Br5 Li1 2.840795 1_565
Br6 Li0 2.831499 1_554
Br6 Li2 2.840795 1_565
Br7 Li1 2.831499 1_655
Br7 Li3 2.840795 1_545
Br8 Li1 2.839561 1_555
Br8 Li0 2.954309 1_545
Br9 Li0 2.839561 1_555
Br9 Li1 2.954309 1_665
Br10 Li3 2.839561 1_555
Br10 Li2 2.954309 1_565
Br11 Li2 2.839561 1_555
Br11 Li3 2.954309 1_445
Br12 Li0 2.678826 1_555
Br13 Li1 2.678826 1_655
Br14 Li2 2.678826 1_555
Br15 Li3 2.678826 1_455
