# generated using pymatgen
data_Ta4VSi2Ge
_symmetry_space_group_name_H-M   'P 1'
_cell_length_a   7.50542362
_cell_length_b   7.50542346
_cell_length_c   7.50542394
_cell_angle_alpha   129.28173826
_cell_angle_beta   129.28173422
_cell_angle_gamma   74.55766660
_symmetry_Int_Tables_number   1
_chemical_formula_structural   Ta4VSi2Ge
_chemical_formula_sum   'Ta8 V2 Si4 Ge2'
_cell_volume   246.83729629
_cell_formula_units_Z   2
loop_
 _symmetry_equiv_pos_site_id
 _symmetry_equiv_pos_as_xyz
  1  'x, y, z'
loop_
 _atom_site_type_symbol
 _atom_site_label
 _atom_site_symmetry_multiplicity
 _atom_site_fract_x
 _atom_site_fract_y
 _atom_site_fract_z
 _atom_site_occupancy
  Ta  Ta0  1  0.01567435  0.51567435  0.82800818  1
  Ta  Ta1  1  0.68766717  0.18766717  0.17199182  1
  Ta  Ta2  1  0.51567435  0.68766717  0.50000000  1
  Ta  Ta3  1  0.18766717  0.01567435  0.50000000  1
  Ta  Ta4  1  0.98432565  0.48432565  0.17199182  1
  Ta  Ta5  1  0.31233283  0.81233283  0.82800818  1
  Ta  Ta6  1  0.48432565  0.31233283  0.50000000  1
  Ta  Ta7  1  0.81233283  0.98432565  0.50000000  1
  V  V0  1  0.00000000  0.00000000  0.00000000  1
  V  V1  1  0.50000000  0.50000000  0.00000000  1
  Si  Si0  1  0.63347731  0.13347731  0.76695361  1
  Si  Si1  1  0.36652269  0.86652269  0.23304639  1
  Si  Si2  1  0.13347731  0.36652269  0.50000000  1
  Si  Si3  1  0.86652269  0.63347731  0.50000000  1
  Ge  Ge0  1  0.75000000  0.75000000  0.00000000  1
  Ge  Ge1  1  0.25000000  0.25000000  0.00000000  1
loop_
_geom_bond_atom_site_label_1
_geom_bond_atom_site_label_2
_geom_bond_distance
_geom_bond_site_symmetry_2
Ta0 V0 2.986073 1_566
Ta0 V1 2.986073 1_556
Ta1 V0 2.986066 1_655
Ta1 V1 2.986066 1_555
Ta2 V1 2.986071 1_555
Ta2 V0 2.986071 1_666
Ta3 V1 2.986071 1_556
Ta3 V0 2.986071 1_555
Ta4 V0 2.986073 1_655
Ta4 V1 2.986073 1_555
Ta5 V0 2.986066 1_566
Ta5 V1 2.986066 1_556
Ta6 V1 2.986071 1_556
Ta6 V0 2.986071 1_555
Ta7 V1 2.986071 1_555
Ta7 V0 2.986071 1_666
Si0 Si1 2.427139 1_545
Si0 V1 2.507768 1_556
Si0 V0 2.507768 1_656
Si0 Ta4 2.555222 1_556
Si0 Ta1 2.555223 1_556
Si0 Ta7 2.614371 1_545
Si0 Ta6 2.614371 1_555
Si0 Ta2 2.614379 1_545
Si0 Ta3 2.614379 1_555
Si1 V1 2.507768 1_555
Si1 V0 2.507768 1_565
Si1 Ta0 2.555222 1_554
Si1 Ta5 2.555223 1_554
Si1 Ta3 2.614371 1_565
Si1 Ta2 2.614371 1_555
Si1 Ta6 2.614379 1_565
Si1 Ta7 2.614379 1_555
Si2 Si3 2.427148 1_455
Si2 V0 2.507766 1_555
Si2 V1 2.507767 1_556
Si2 Ta3 2.555222 1_555
Si2 Ta6 2.555222 1_555
Si2 Ta5 2.614376 1_555
Si2 Ta1 2.614376 1_455
Si2 Ta0 2.614384 1_555
Si2 Ta4 2.614384 1_455
Si3 V0 2.507766 1_666
Si3 V1 2.507767 1_555
Si3 Ta7 2.555222 1_555
Si3 Ta2 2.555222 1_555
Si3 Ta1 2.614376 1_555
Si3 Ta5 2.614376 1_655
Si3 Ta4 2.614384 1_555
Si3 Ta0 2.614384 1_655
Ge0 Ta0 2.693048 1_654
Ge0 Ta4 2.693048 1_555
Ge0 Ta6 2.693052 1_554
Ge0 Ta7 2.693052 1_555
Ge0 Ta3 2.693052 1_665
Ge0 Ta2 2.693052 1_554
Ge0 Ta1 2.693053 1_565
Ge0 Ta5 2.693054 1_554
Ge0 V0 2.986023 1_665
Ge0 V1 2.986023 1_555
Ge1 Ta4 2.693048 1_455
Ge1 Ta0 2.693048 1_554
Ge1 Ta2 2.693052 1_555
Ge1 Ta3 2.693052 1_554
Ge1 Ta7 2.693052 1_444
Ge1 Ta6 2.693052 1_555
Ge1 Ta5 2.693053 1_544
Ge1 Ta1 2.693054 1_555
Ge1 V0 2.986023 1_555
Ge1 V1 2.986023 1_555
