# generated using pymatgen
data_Rb2AlSn11
_symmetry_space_group_name_H-M   'P 1'
_cell_length_a   13.80189337
_cell_length_b   13.80189475
_cell_length_c   30.13336085
_cell_angle_alpha   89.96793706
_cell_angle_beta   90.03206400
_cell_angle_gamma   139.25359042
_symmetry_Int_Tables_number   1
_chemical_formula_structural   Rb2AlSn11
_chemical_formula_sum   'Rb16 Al8 Sn88'
_cell_volume   3746.68047081
_cell_formula_units_Z   8
loop_
 _symmetry_equiv_pos_site_id
 _symmetry_equiv_pos_as_xyz
  1  'x, y, z'
loop_
 _atom_site_type_symbol
 _atom_site_label
 _atom_site_symmetry_multiplicity
 _atom_site_fract_x
 _atom_site_fract_y
 _atom_site_fract_z
 _atom_site_occupancy
  Rb  Rb0_0  1  0.35489665  0.14510335  0.12087278  1
  Rb  Rb0_1  1  0.35489665  0.14510335  0.62087278  1
  Rb  Rb0_2  1  0.35489665  0.64510335  0.12087278  1
  Rb  Rb0_3  1  0.35489665  0.64510335  0.62087278  1
  Rb  Rb0_4  1  0.85489665  0.14510335  0.12087278  1
  Rb  Rb0_5  1  0.85489665  0.14510335  0.62087278  1
  Rb  Rb0_6  1  0.85489665  0.64510335  0.12087278  1
  Rb  Rb0_7  1  0.85489665  0.64510335  0.62087278  1
  Rb  Rb1_0  1  0.14503855  0.35496145  0.37922151  1
  Rb  Rb1_1  1  0.14503855  0.35496145  0.87922151  1
  Rb  Rb1_2  1  0.14503855  0.85496145  0.37922151  1
  Rb  Rb1_3  1  0.14503855  0.85496145  0.87922151  1
  Rb  Rb1_4  1  0.64503855  0.35496145  0.37922151  1
  Rb  Rb1_5  1  0.64503855  0.35496145  0.87922151  1
  Rb  Rb1_6  1  0.64503855  0.85496145  0.37922151  1
  Rb  Rb1_7  1  0.64503855  0.85496145  0.87922151  1
  Al  Al0_0  1  0.37840600  0.12159400  0.47647763  1
  Al  Al0_1  1  0.37840600  0.12159400  0.97647763  1
  Al  Al0_2  1  0.37840600  0.62159400  0.47647763  1
  Al  Al0_3  1  0.37840600  0.62159400  0.97647763  1
  Al  Al0_4  1  0.87840600  0.12159400  0.47647763  1
  Al  Al0_5  1  0.87840600  0.12159400  0.97647763  1
  Al  Al0_6  1  0.87840600  0.62159400  0.47647763  1
  Al  Al0_7  1  0.87840600  0.62159400  0.97647763  1
  Sn  Sn0_0  1  0.12335538  0.37664462  0.01956244  1
  Sn  Sn0_1  1  0.12335538  0.37664462  0.51956244  1
  Sn  Sn0_2  1  0.12335538  0.87664462  0.01956244  1
  Sn  Sn0_3  1  0.12335538  0.87664462  0.51956244  1
  Sn  Sn0_4  1  0.62335538  0.37664462  0.01956244  1
  Sn  Sn0_5  1  0.62335538  0.37664462  0.51956244  1
  Sn  Sn0_6  1  0.62335538  0.87664462  0.01956244  1
  Sn  Sn0_7  1  0.62335538  0.87664462  0.51956244  1
  Sn  Sn1_0  1  0.37733519  0.12266481  0.27752050  1
  Sn  Sn1_1  1  0.37733519  0.12266481  0.77752050  1
  Sn  Sn1_2  1  0.37733519  0.62266481  0.27752050  1
  Sn  Sn1_3  1  0.37733519  0.62266481  0.77752050  1
  Sn  Sn1_4  1  0.87733519  0.12266481  0.27752050  1
  Sn  Sn1_5  1  0.87733519  0.12266481  0.77752050  1
  Sn  Sn1_6  1  0.87733519  0.62266481  0.27752050  1
  Sn  Sn1_7  1  0.87733519  0.62266481  0.77752050  1
  Sn  Sn2_0  1  0.12230499  0.37769501  0.22423801  1
  Sn  Sn2_1  1  0.12230499  0.37769501  0.72423801  1
  Sn  Sn2_2  1  0.12230499  0.87769501  0.22423801  1
  Sn  Sn2_3  1  0.12230499  0.87769501  0.72423801  1
  Sn  Sn2_4  1  0.62230499  0.37769501  0.22423801  1
  Sn  Sn2_5  1  0.62230499  0.37769501  0.72423801  1
  Sn  Sn2_6  1  0.62230499  0.87769501  0.22423801  1
  Sn  Sn2_7  1  0.62230499  0.87769501  0.72423801  1
  Sn  Sn3_0  1  0.28779024  0.21220976  0.42756852  1
  Sn  Sn3_1  1  0.28779024  0.21220976  0.92756852  1
  Sn  Sn3_2  1  0.28779024  0.71220976  0.42756852  1
  Sn  Sn3_3  1  0.28779024  0.71220976  0.92756852  1
  Sn  Sn3_4  1  0.78779024  0.21220976  0.42756852  1
  Sn  Sn3_5  1  0.78779024  0.21220976  0.92756852  1
  Sn  Sn3_6  1  0.78779024  0.71220976  0.42756852  1
  Sn  Sn3_7  1  0.78779024  0.71220976  0.92756852  1
  Sn  Sn4_0  1  0.21500544  0.28499456  0.07525597  1
  Sn  Sn4_1  1  0.21500544  0.28499456  0.57525597  1
  Sn  Sn4_2  1  0.21500544  0.78499456  0.07525597  1
  Sn  Sn4_3  1  0.21500544  0.78499456  0.57525597  1
  Sn  Sn4_4  1  0.71500544  0.28499456  0.07525597  1
  Sn  Sn4_5  1  0.71500544  0.28499456  0.57525597  1
  Sn  Sn4_6  1  0.71500544  0.78499456  0.07525597  1
  Sn  Sn4_7  1  0.71500544  0.78499456  0.57525597  1
  Sn  Sn5_0  1  0.28420137  0.21579863  0.33129230  1
  Sn  Sn5_1  1  0.28420137  0.21579863  0.83129230  1
  Sn  Sn5_2  1  0.28420137  0.71579863  0.33129230  1
  Sn  Sn5_3  1  0.28420137  0.71579863  0.83129230  1
  Sn  Sn5_4  1  0.78420137  0.21579863  0.33129230  1
  Sn  Sn5_5  1  0.78420137  0.21579863  0.83129230  1
  Sn  Sn5_6  1  0.78420137  0.71579863  0.33129230  1
  Sn  Sn5_7  1  0.78420137  0.71579863  0.83129230  1
  Sn  Sn6_0  1  0.21562925  0.28437075  0.17123938  1
  Sn  Sn6_1  1  0.21562925  0.28437075  0.67123938  1
  Sn  Sn6_2  1  0.21562925  0.78437075  0.17123938  1
  Sn  Sn6_3  1  0.21562925  0.78437075  0.67123938  1
  Sn  Sn6_4  1  0.71562925  0.28437075  0.17123938  1
  Sn  Sn6_5  1  0.71562925  0.28437075  0.67123938  1
  Sn  Sn6_6  1  0.71562925  0.78437075  0.17123938  1
  Sn  Sn6_7  1  0.71562925  0.78437075  0.67123938  1
  Sn  Sn7_0  1  0.48126338  0.01873662  0.45184652  1
  Sn  Sn7_1  1  0.48126338  0.01873662  0.95184652  1
  Sn  Sn7_2  1  0.48126338  0.51873662  0.45184652  1
  Sn  Sn7_3  1  0.48126338  0.51873662  0.95184652  1
  Sn  Sn7_4  1  0.98126338  0.01873662  0.45184652  1
  Sn  Sn7_5  1  0.98126338  0.01873662  0.95184652  1
  Sn  Sn7_6  1  0.98126338  0.51873662  0.45184652  1
  Sn  Sn7_7  1  0.98126338  0.51873662  0.95184652  1
  Sn  Sn8_0  1  0.01467965  0.48532035  0.04329220  1
  Sn  Sn8_1  1  0.01467965  0.48532035  0.54329220  1
  Sn  Sn8_2  1  0.01467965  0.98532035  0.04329220  1
  Sn  Sn8_3  1  0.01467965  0.98532035  0.54329220  1
  Sn  Sn8_4  1  0.51467965  0.48532035  0.04329220  1
  Sn  Sn8_5  1  0.51467965  0.48532035  0.54329220  1
  Sn  Sn8_6  1  0.51467965  0.98532035  0.04329220  1
  Sn  Sn8_7  1  0.51467965  0.98532035  0.54329220  1
  Sn  Sn9_0  1  0.48671402  0.01328598  0.29731649  1
  Sn  Sn9_1  1  0.48671402  0.01328598  0.79731649  1
  Sn  Sn9_2  1  0.48671402  0.51328598  0.29731649  1
  Sn  Sn9_3  1  0.48671402  0.51328598  0.79731649  1
  Sn  Sn9_4  1  0.98671402  0.01328598  0.29731649  1
  Sn  Sn9_5  1  0.98671402  0.01328598  0.79731649  1
  Sn  Sn9_6  1  0.98671402  0.51328598  0.29731649  1
  Sn  Sn9_7  1  0.98671402  0.51328598  0.79731649  1
  Sn  Sn10_0  1  0.01337988  0.48662012  0.20429526  1
  Sn  Sn10_1  1  0.01337988  0.48662012  0.70429526  1
  Sn  Sn10_2  1  0.01337988  0.98662012  0.20429526  1
  Sn  Sn10_3  1  0.01337988  0.98662012  0.70429526  1
  Sn  Sn10_4  1  0.51337988  0.48662012  0.20429526  1
  Sn  Sn10_5  1  0.51337988  0.48662012  0.70429526  1
  Sn  Sn10_6  1  0.51337988  0.98662012  0.20429526  1
  Sn  Sn10_7  1  0.51337988  0.98662012  0.70429526  1
loop_
_geom_bond_atom_site_label_1
_geom_bond_atom_site_label_2
_geom_bond_distance
_geom_bond_site_symmetry_2
Rb0_0 Sn4_0 3.871399 1_555
Rb0_0 Sn6_0 3.911209 1_555
Rb0_0 Sn0_2 3.914255 1_545
Rb0_0 Sn0_4 3.914255 1_555
Rb0_0 Sn2_4 3.959122 1_555
Rb0_0 Sn2_2 3.959122 1_545
Rb0_0 Sn4_4 3.972957 1_555
Rb0_0 Sn4_2 3.972957 1_545
Rb0_0 Sn6_4 4.034939 1_555
Rb0_0 Sn6_2 4.034940 1_545
Rb0_0 Sn8_2 4.084178 1_545
Rb0_0 Sn8_4 4.084179 1_555
Rb0_0 Sn10_2 4.207892 1_545
Rb0_0 Sn10_4 4.207893 1_555
Rb0_0 Rb0_6 4.804904 1_555
Rb0_0 Rb0_6 4.804904 1_445
Rb0_1 Sn4_1 3.871399 1_555
Rb0_1 Sn6_1 3.911209 1_555
Rb0_1 Sn0_3 3.914255 1_545
Rb0_1 Sn0_5 3.914255 1_555
Rb0_1 Sn2_5 3.959122 1_555
Rb0_1 Sn2_3 3.959122 1_545
Rb0_1 Sn4_5 3.972957 1_555
Rb0_1 Sn4_3 3.972957 1_545
Rb0_1 Sn6_5 4.034939 1_555
Rb0_1 Sn6_3 4.034940 1_545
Rb0_1 Sn8_3 4.084178 1_545
Rb0_1 Sn8_5 4.084179 1_555
Rb0_1 Sn10_3 4.207892 1_545
Rb0_1 Sn10_5 4.207893 1_555
Rb0_1 Rb0_7 4.804904 1_555
Rb0_1 Rb0_7 4.804904 1_445
Rb0_2 Sn4_2 3.871399 1_555
Rb0_2 Sn6_2 3.911209 1_555
Rb0_2 Sn0_0 3.914255 1_555
Rb0_2 Sn0_6 3.914255 1_555
Rb0_2 Sn2_6 3.959122 1_555
Rb0_2 Sn2_0 3.959122 1_555
Rb0_2 Sn4_6 3.972957 1_555
Rb0_2 Sn4_0 3.972957 1_555
Rb0_2 Sn6_6 4.034939 1_555
Rb0_2 Sn6_0 4.034940 1_555
Rb0_2 Sn8_0 4.084178 1_555
Rb0_2 Sn8_6 4.084179 1_555
Rb0_2 Sn10_0 4.207892 1_555
Rb0_2 Sn10_6 4.207893 1_555
Rb0_2 Rb0_4 4.804904 1_455
Rb0_2 Rb0_4 4.804904 1_565
Rb0_3 Sn4_3 3.871399 1_555
Rb0_3 Sn6_3 3.911209 1_555
Rb0_3 Sn0_1 3.914255 1_555
Rb0_3 Sn0_7 3.914255 1_555
Rb0_3 Sn2_7 3.959122 1_555
Rb0_3 Sn2_1 3.959122 1_555
Rb0_3 Sn4_7 3.972957 1_555
Rb0_3 Sn4_1 3.972957 1_555
Rb0_3 Sn6_7 4.034939 1_555
Rb0_3 Sn6_1 4.034940 1_555
Rb0_3 Sn8_1 4.084178 1_555
Rb0_3 Sn8_7 4.084179 1_555
Rb0_3 Sn10_1 4.207892 1_555
Rb0_3 Sn10_7 4.207893 1_555
Rb0_3 Rb0_5 4.804904 1_455
Rb0_3 Rb0_5 4.804904 1_565
Rb0_4 Sn4_4 3.871399 1_555
Rb0_4 Sn6_4 3.911209 1_555
Rb0_4 Sn0_6 3.914255 1_545
Rb0_4 Sn0_0 3.914255 1_655
Rb0_4 Sn2_0 3.959122 1_655
Rb0_4 Sn2_6 3.959122 1_545
Rb0_4 Sn4_0 3.972957 1_655
Rb0_4 Sn4_6 3.972957 1_545
Rb0_4 Sn6_0 4.034939 1_655
Rb0_4 Sn6_6 4.034940 1_545
Rb0_4 Sn8_6 4.084178 1_545
Rb0_4 Sn8_0 4.084179 1_655
Rb0_4 Sn10_6 4.207892 1_545
Rb0_4 Sn10_0 4.207893 1_655
Rb0_5 Sn4_5 3.871399 1_555
Rb0_5 Sn6_5 3.911209 1_555
Rb0_5 Sn0_7 3.914255 1_545
Rb0_5 Sn0_1 3.914255 1_655
Rb0_5 Sn2_1 3.959122 1_655
Rb0_5 Sn2_7 3.959122 1_545
Rb0_5 Sn4_1 3.972957 1_655
Rb0_5 Sn4_7 3.972957 1_545
Rb0_5 Sn6_1 4.034939 1_655
Rb0_5 Sn6_7 4.034940 1_545
Rb0_5 Sn8_7 4.084178 1_545
Rb0_5 Sn8_1 4.084179 1_655
Rb0_5 Sn10_7 4.207892 1_545
Rb0_5 Sn10_1 4.207893 1_655
Rb0_6 Sn4_6 3.871399 1_555
Rb0_6 Sn6_6 3.911209 1_555
Rb0_6 Sn0_4 3.914255 1_555
Rb0_6 Sn0_2 3.914255 1_655
Rb0_6 Sn2_2 3.959122 1_655
Rb0_6 Sn2_4 3.959122 1_555
Rb0_6 Sn4_2 3.972957 1_655
Rb0_6 Sn4_4 3.972957 1_555
Rb0_6 Sn6_2 4.034939 1_655
Rb0_6 Sn6_4 4.034940 1_555
Rb0_6 Sn8_4 4.084178 1_555
Rb0_6 Sn8_2 4.084179 1_655
Rb0_6 Sn10_4 4.207892 1_555
Rb0_6 Sn10_2 4.207893 1_655
Rb0_7 Sn4_7 3.871399 1_555
Rb0_7 Sn6_7 3.911209 1_555
Rb0_7 Sn0_5 3.914255 1_555
Rb0_7 Sn0_3 3.914255 1_655
Rb0_7 Sn2_3 3.959122 1_655
Rb0_7 Sn2_5 3.959122 1_555
Rb0_7 Sn4_3 3.972957 1_655
Rb0_7 Sn4_5 3.972957 1_555
Rb0_7 Sn6_3 4.034939 1_655
Rb0_7 Sn6_5 4.034940 1_555
Rb0_7 Sn8_5 4.084178 1_555
Rb0_7 Sn8_3 4.084179 1_655
Rb0_7 Sn10_5 4.207892 1_555
Rb0_7 Sn10_3 4.207893 1_655
Rb1_0 Sn5_0 3.880746 1_555
Rb1_0 Sn1_4 3.920675 1_455
Rb1_0 Sn1_2 3.920675 1_555
Rb1_0 Sn7_2 3.941274 1_555
Rb1_0 Sn7_4 3.941274 1_455
Rb1_0 Sn3_4 3.949829 1_455
Rb1_0 Sn3_2 3.949829 1_555
Rb1_0 Sn3_0 3.970084 1_555
Rb1_0 Sn5_4 4.009856 1_455
Rb1_0 Sn5_2 4.009857 1_555
Rb1_0 Sn9_2 4.183050 1_555
Rb1_0 Sn9_4 4.183050 1_455
Rb1_1 Sn5_1 3.880746 1_555
Rb1_1 Sn1_5 3.920675 1_455
Rb1_1 Sn1_3 3.920675 1_555
Rb1_1 Sn7_3 3.941274 1_555
Rb1_1 Sn7_5 3.941274 1_455
Rb1_1 Sn3_5 3.949829 1_455
Rb1_1 Sn3_3 3.949829 1_555
Rb1_1 Sn3_1 3.970084 1_555
Rb1_1 Sn5_5 4.009856 1_455
Rb1_1 Sn5_3 4.009857 1_555
Rb1_1 Sn9_3 4.183050 1_555
Rb1_1 Sn9_5 4.183050 1_455
Rb1_2 Sn5_2 3.880746 1_555
Rb1_2 Sn1_6 3.920675 1_455
Rb1_2 Sn1_0 3.920675 1_565
Rb1_2 Sn7_0 3.941274 1_565
Rb1_2 Sn7_6 3.941274 1_455
Rb1_2 Sn3_6 3.949829 1_455
Rb1_2 Sn3_0 3.949829 1_565
Rb1_2 Sn3_2 3.970084 1_555
Rb1_2 Sn5_6 4.009856 1_455
Rb1_2 Sn5_0 4.009857 1_565
Rb1_2 Sn9_0 4.183050 1_565
Rb1_2 Sn9_6 4.183050 1_455
Rb1_3 Sn5_3 3.880746 1_555
Rb1_3 Sn1_7 3.920675 1_455
Rb1_3 Sn1_1 3.920675 1_565
Rb1_3 Sn7_1 3.941274 1_565
Rb1_3 Sn7_7 3.941274 1_455
Rb1_3 Sn3_7 3.949829 1_455
Rb1_3 Sn3_1 3.949829 1_565
Rb1_3 Sn3_3 3.970084 1_555
Rb1_3 Sn5_7 4.009856 1_455
Rb1_3 Sn5_1 4.009857 1_565
Rb1_3 Sn9_1 4.183050 1_565
Rb1_3 Sn9_7 4.183050 1_455
Rb1_4 Sn5_4 3.880746 1_555
Rb1_4 Sn1_0 3.920675 1_555
Rb1_4 Sn1_6 3.920675 1_555
Rb1_4 Sn7_6 3.941274 1_555
Rb1_4 Sn7_0 3.941274 1_555
Rb1_4 Sn3_0 3.949829 1_555
Rb1_4 Sn3_6 3.949829 1_555
Rb1_4 Sn3_4 3.970084 1_555
Rb1_4 Sn5_0 4.009856 1_555
Rb1_4 Sn5_6 4.009857 1_555
Rb1_4 Sn9_6 4.183050 1_555
Rb1_4 Sn9_0 4.183050 1_555
Rb1_5 Sn5_5 3.880746 1_555
Rb1_5 Sn1_1 3.920675 1_555
Rb1_5 Sn1_7 3.920675 1_555
Rb1_5 Sn7_7 3.941274 1_555
Rb1_5 Sn7_1 3.941274 1_555
Rb1_5 Sn3_1 3.949829 1_555
Rb1_5 Sn3_7 3.949829 1_555
Rb1_5 Sn3_5 3.970084 1_555
Rb1_5 Sn5_1 4.009856 1_555
Rb1_5 Sn5_7 4.009857 1_555
Rb1_5 Sn9_7 4.183050 1_555
Rb1_5 Sn9_1 4.183050 1_555
Rb1_6 Sn5_6 3.880746 1_555
Rb1_6 Sn1_2 3.920675 1_555
Rb1_6 Sn1_4 3.920675 1_565
Rb1_6 Sn7_4 3.941274 1_565
Rb1_6 Sn7_2 3.941274 1_555
Rb1_6 Sn3_2 3.949829 1_555
Rb1_6 Sn3_4 3.949829 1_565
Rb1_6 Sn3_6 3.970084 1_555
Rb1_6 Sn5_2 4.009856 1_555
Rb1_6 Sn5_4 4.009857 1_565
Rb1_6 Sn9_4 4.183050 1_565
Rb1_6 Sn9_2 4.183050 1_555
Rb1_7 Sn5_7 3.880746 1_555
Rb1_7 Sn1_3 3.920675 1_555
Rb1_7 Sn1_5 3.920675 1_565
Rb1_7 Sn7_5 3.941274 1_565
Rb1_7 Sn7_3 3.941274 1_555
Rb1_7 Sn3_3 3.949829 1_555
Rb1_7 Sn3_5 3.949829 1_565
Rb1_7 Sn3_7 3.970084 1_555
Rb1_7 Sn5_3 4.009856 1_555
Rb1_7 Sn5_5 4.009857 1_565
Rb1_7 Sn9_5 4.183050 1_565
Rb1_7 Sn9_3 4.183050 1_555
Al0_0 Sn0_5 2.733975 1_555
Al0_0 Sn0_3 2.733975 1_545
Al0_0 Sn7_0 2.763619 1_555
Al0_0 Sn3_0 2.768817 1_555
Al0_0 Rb1_2 3.814087 1_545
Al0_0 Rb1_4 3.814087 1_555
Al0_1 Sn0_4 2.733975 1_556
Al0_1 Sn0_2 2.733975 1_546
Al0_1 Sn7_1 2.763619 1_555
Al0_1 Sn3_1 2.768817 1_555
Al0_1 Rb1_3 3.814087 1_545
Al0_1 Rb1_5 3.814087 1_555
Al0_2 Sn0_7 2.733975 1_555
Al0_2 Sn0_1 2.733975 1_555
Al0_2 Sn7_2 2.763619 1_555
Al0_2 Sn3_2 2.768817 1_555
Al0_2 Rb1_0 3.814087 1_555
Al0_2 Rb1_6 3.814087 1_555
Al0_3 Sn0_6 2.733975 1_556
Al0_3 Sn0_0 2.733975 1_556
Al0_3 Sn7_3 2.763619 1_555
Al0_3 Sn3_3 2.768817 1_555
Al0_3 Rb1_1 3.814087 1_555
Al0_3 Rb1_7 3.814087 1_555
Al0_4 Sn0_1 2.733975 1_655
Al0_4 Sn0_7 2.733975 1_545
Al0_4 Sn7_4 2.763619 1_555
Al0_4 Sn3_4 2.768817 1_555
Al0_4 Rb1_6 3.814087 1_545
Al0_4 Rb1_0 3.814087 1_655
Al0_5 Sn0_0 2.733975 1_656
Al0_5 Sn0_6 2.733975 1_546
Al0_5 Sn7_5 2.763619 1_555
Al0_5 Sn3_5 2.768817 1_555
Al0_5 Rb1_7 3.814087 1_545
Al0_5 Rb1_1 3.814087 1_655
Al0_6 Sn0_3 2.733975 1_655
Al0_6 Sn0_5 2.733975 1_555
Al0_6 Sn7_6 2.763619 1_555
Al0_6 Sn3_6 2.768817 1_555
Al0_6 Rb1_4 3.814087 1_555
Al0_6 Rb1_2 3.814087 1_655
Al0_7 Sn0_2 2.733975 1_656
Al0_7 Sn0_4 2.733975 1_556
Al0_7 Sn7_7 2.763619 1_555
Al0_7 Sn3_7 2.768817 1_555
Al0_7 Rb1_5 3.814087 1_555
Al0_7 Rb1_3 3.814087 1_655
Sn0_0 Sn8_0 2.902104 1_555
Sn0_0 Sn4_0 2.904539 1_555
Sn0_1 Sn8_1 2.902104 1_555
Sn0_1 Sn4_1 2.904539 1_555
Sn0_2 Sn8_2 2.902104 1_555
Sn0_2 Sn4_2 2.904539 1_555
Sn0_3 Sn8_3 2.902104 1_555
Sn0_3 Sn4_3 2.904539 1_555
Sn0_4 Sn8_4 2.902104 1_555
Sn0_4 Sn4_4 2.904539 1_555
Sn0_5 Sn8_5 2.902104 1_555
Sn0_5 Sn4_5 2.904539 1_555
Sn0_6 Sn8_6 2.902104 1_555
Sn0_6 Sn4_6 2.904539 1_555
Sn0_7 Sn8_7 2.902104 1_555
Sn0_7 Sn4_7 2.904539 1_555
Sn1_0 Sn9_0 2.892228 1_555
Sn1_0 Sn2_2 2.892466 1_545
Sn1_0 Sn2_4 2.892466 1_555
Sn1_0 Sn5_0 2.904883 1_555
Sn1_1 Sn9_1 2.892228 1_555
Sn1_1 Sn2_3 2.892466 1_545
Sn1_1 Sn2_5 2.892466 1_555
Sn1_1 Sn5_1 2.904883 1_555
Sn1_2 Sn9_2 2.892228 1_555
Sn1_2 Sn2_0 2.892466 1_555
Sn1_2 Sn2_6 2.892466 1_555
Sn1_2 Sn5_2 2.904883 1_555
Sn1_3 Sn9_3 2.892228 1_555
Sn1_3 Sn2_1 2.892466 1_555
Sn1_3 Sn2_7 2.892466 1_555
Sn1_3 Sn5_3 2.904883 1_555
Sn1_4 Sn9_4 2.892228 1_555
Sn1_4 Sn2_6 2.892466 1_545
Sn1_4 Sn2_0 2.892466 1_655
Sn1_4 Sn5_4 2.904883 1_555
Sn1_5 Sn9_5 2.892228 1_555
Sn1_5 Sn2_7 2.892466 1_545
Sn1_5 Sn2_1 2.892466 1_655
Sn1_5 Sn5_5 2.904883 1_555
Sn1_6 Sn9_6 2.892228 1_555
Sn1_6 Sn2_4 2.892466 1_555
Sn1_6 Sn2_2 2.892466 1_655
Sn1_6 Sn5_6 2.904883 1_555
Sn1_7 Sn9_7 2.892228 1_555
Sn1_7 Sn2_5 2.892466 1_555
Sn1_7 Sn2_3 2.892466 1_655
Sn1_7 Sn5_7 2.904883 1_555
Sn2_0 Sn6_0 2.896050 1_555
Sn2_1 Sn6_1 2.896050 1_555
Sn2_2 Sn6_2 2.896050 1_555
Sn2_3 Sn6_3 2.896050 1_555
Sn2_4 Sn6_4 2.896050 1_555
Sn2_5 Sn6_5 2.896050 1_555
Sn2_6 Sn6_6 2.896050 1_555
Sn2_7 Sn6_7 2.896050 1_555
Sn3_0 Sn5_0 2.902557 1_555
Sn3_0 Sn7_4 2.906525 1_455
Sn3_0 Sn7_2 2.906525 1_555
Sn3_1 Sn5_1 2.902557 1_555
Sn3_1 Sn7_5 2.906525 1_455
Sn3_1 Sn7_3 2.906525 1_555
Sn3_2 Sn5_2 2.902557 1_555
Sn3_2 Sn7_6 2.906525 1_455
Sn3_2 Sn7_0 2.906525 1_565
Sn3_3 Sn5_3 2.902557 1_555
Sn3_3 Sn7_7 2.906525 1_455
Sn3_3 Sn7_1 2.906525 1_565
Sn3_4 Sn5_4 2.902557 1_555
Sn3_4 Sn7_0 2.906525 1_555
Sn3_4 Sn7_6 2.906525 1_555
Sn3_5 Sn5_5 2.902557 1_555
Sn3_5 Sn7_1 2.906525 1_555
Sn3_5 Sn7_7 2.906525 1_555
Sn3_6 Sn5_6 2.902557 1_555
Sn3_6 Sn7_2 2.906525 1_555
Sn3_6 Sn7_4 2.906525 1_565
Sn3_7 Sn5_7 2.902557 1_555
Sn3_7 Sn7_3 2.906525 1_555
Sn3_7 Sn7_5 2.906525 1_565
Sn4_0 Sn8_4 2.890202 1_555
Sn4_0 Sn8_2 2.890202 1_545
Sn4_0 Sn6_0 2.892338 1_555
Sn4_1 Sn8_5 2.890202 1_555
Sn4_1 Sn8_3 2.890202 1_545
Sn4_1 Sn6_1 2.892338 1_555
Sn4_2 Sn8_6 2.890202 1_555
Sn4_2 Sn8_0 2.890202 1_555
Sn4_2 Sn6_2 2.892338 1_555
Sn4_3 Sn8_7 2.890202 1_555
Sn4_3 Sn8_1 2.890202 1_555
Sn4_3 Sn6_3 2.892338 1_555
Sn4_4 Sn8_0 2.890202 1_655
Sn4_4 Sn8_6 2.890202 1_545
Sn4_4 Sn6_4 2.892338 1_555
Sn4_5 Sn8_1 2.890202 1_655
Sn4_5 Sn8_7 2.890202 1_545
Sn4_5 Sn6_5 2.892338 1_555
Sn4_6 Sn8_2 2.890202 1_655
Sn4_6 Sn8_4 2.890202 1_555
Sn4_6 Sn6_6 2.892338 1_555
Sn4_7 Sn8_3 2.890202 1_655
Sn4_7 Sn8_5 2.890202 1_555
Sn4_7 Sn6_7 2.892338 1_555
Sn5_0 Sn9_4 2.885910 1_455
Sn5_0 Sn9_2 2.885911 1_555
Sn5_1 Sn9_5 2.885910 1_455
Sn5_1 Sn9_3 2.885911 1_555
Sn5_2 Sn9_6 2.885910 1_455
Sn5_2 Sn9_0 2.885911 1_565
Sn5_3 Sn9_7 2.885910 1_455
Sn5_3 Sn9_1 2.885911 1_565
Sn5_4 Sn9_0 2.885910 1_555
Sn5_4 Sn9_6 2.885911 1_555
Sn5_5 Sn9_1 2.885910 1_555
Sn5_5 Sn9_7 2.885911 1_555
Sn5_6 Sn9_2 2.885910 1_555
Sn5_6 Sn9_4 2.885911 1_565
Sn5_7 Sn9_3 2.885910 1_555
Sn5_7 Sn9_5 2.885911 1_565
Sn7_0 Sn8_7 2.887564 1_545
Sn7_1 Sn8_6 2.887564 1_546
Sn7_2 Sn8_5 2.887564 1_555
Sn7_3 Sn8_4 2.887564 1_556
Sn7_4 Sn8_3 2.887564 1_645
Sn7_5 Sn8_2 2.887564 1_646
Sn7_6 Sn8_1 2.887564 1_655
Sn7_7 Sn8_0 2.887564 1_656
Sn10_0 Sn6_4 2.879116 1_455
Sn10_0 Sn6_2 2.879116 1_555
Sn10_0 Sn2_0 2.881656 1_555
Sn10_0 Sn9_6 2.887127 1_455
Sn10_1 Sn6_5 2.879116 1_455
Sn10_1 Sn6_3 2.879116 1_555
Sn10_1 Sn2_1 2.881656 1_555
Sn10_1 Sn9_7 2.887127 1_455
Sn10_2 Sn6_6 2.879116 1_455
Sn10_2 Sn6_0 2.879116 1_565
Sn10_2 Sn2_2 2.881656 1_555
Sn10_2 Sn9_4 2.887127 1_465
Sn10_3 Sn6_7 2.879116 1_455
Sn10_3 Sn6_1 2.879116 1_565
Sn10_3 Sn2_3 2.881656 1_555
Sn10_3 Sn9_5 2.887127 1_465
Sn10_4 Sn6_0 2.879116 1_555
Sn10_4 Sn6_6 2.879116 1_555
Sn10_4 Sn2_4 2.881656 1_555
Sn10_4 Sn9_2 2.887127 1_555
Sn10_5 Sn6_1 2.879116 1_555
Sn10_5 Sn6_7 2.879116 1_555
Sn10_5 Sn2_5 2.881656 1_555
Sn10_5 Sn9_3 2.887127 1_555
Sn10_6 Sn6_2 2.879116 1_555
Sn10_6 Sn6_4 2.879116 1_565
Sn10_6 Sn2_6 2.881656 1_555
Sn10_6 Sn9_0 2.887127 1_565
Sn10_7 Sn6_3 2.879116 1_555
Sn10_7 Sn6_5 2.879116 1_565
Sn10_7 Sn2_7 2.881656 1_555
Sn10_7 Sn9_1 2.887127 1_565
