# generated using pymatgen
data_Cs2Hf(SeO4)3
_symmetry_space_group_name_H-M   'P 1'
_cell_length_a   7.33218338
_cell_length_b   10.37544386
_cell_length_c   9.89136619
_cell_angle_alpha   102.94358672
_cell_angle_beta   89.98456624
_cell_angle_gamma   110.67460081
_symmetry_Int_Tables_number   1
_chemical_formula_structural   Cs2Hf(SeO4)3
_chemical_formula_sum   'Cs4 Hf2 Se6 O24'
_cell_volume   683.56662957
_cell_formula_units_Z   2
loop_
 _symmetry_equiv_pos_site_id
 _symmetry_equiv_pos_as_xyz
  1  'x, y, z'
loop_
 _atom_site_type_symbol
 _atom_site_label
 _atom_site_symmetry_multiplicity
 _atom_site_fract_x
 _atom_site_fract_y
 _atom_site_fract_z
 _atom_site_occupancy
  Cs  Cs0  1  0.69547790  0.33690052  0.06281636  1
  Cs  Cs1  1  0.35869382  0.66376352  0.43810787  1
  Cs  Cs2  1  0.64127659  0.33635610  0.56217535  1
  Cs  Cs3  1  0.30458166  0.66314133  0.93751770  1
  Hf  Hf0  1  0.00018335  0.99997135  0.00013639  1
  Hf  Hf1  1  0.99977366  0.00004444  0.50010883  1
  Se  Se0  1  0.78724983  0.73751189  0.18083168  1
  Se  Se1  1  0.36777946  0.99959462  0.25000133  1
  Se  Se2  1  0.05044418  0.26308351  0.31991349  1
  Se  Se3  1  0.94950859  0.73700225  0.68019651  1
  Se  Se4  1  0.63227664  0.00048980  0.75055294  1
  Se  Se5  1  0.21285754  0.26245098  0.81953937  1
  O  O0  1  0.78965397  0.84558160  0.07593314  1
  O  O1  1  0.21735581  0.97935569  0.11133410  1
  O  O2  1  0.96471039  0.67819116  0.15346092  1
  O  O3  1  0.97828751  0.15813268  0.15837086  1
  O  O4  1  0.57184352  0.61421290  0.16172595  1
  O  O5  1  0.41159953  0.85551242  0.23595093  1
  O  O6  1  0.55576426  0.14359753  0.26425491  1
  O  O7  1  0.95774472  0.38605067  0.33840208  1
  O  O8  1  0.81878767  0.84229804  0.34232001  1
  O  O9  1  0.28707277  0.32289865  0.34784561  1
  O  O10  1  0.23678265  0.01987977  0.38824756  1
  O  O11  1  0.94450982  0.15504688  0.42483018  1
  O  O12  1  0.05537330  0.84511663  0.57537248  1
  O  O13  1  0.76284349  0.98016210  0.61200740  1
  O  O14  1  0.71282953  0.67728840  0.65244205  1
  O  O15  1  0.18090357  0.15763108  0.65801738  1
  O  O16  1  0.04209385  0.61395945  0.66150960  1
  O  O17  1  0.44413809  0.85661627  0.73635230  1
  O  O18  1  0.58861485  0.14462186  0.76476520  1
  O  O19  1  0.42827030  0.38571862  0.83849970  1
  O  O20  1  0.02184676  0.84182171  0.84179288  1
  O  O21  1  0.03552754  0.32182926  0.84731146  1
  O  O22  1  0.78301370  0.02051578  0.88893077  1
  O  O23  1  0.21072722  0.15436053  0.92437473  1
loop_
_geom_bond_atom_site_label_1
_geom_bond_atom_site_label_2
_geom_bond_distance
_geom_bond_site_symmetry_2
Cs0 O6 3.062724 1_555
Cs0 O18 3.089990 1_554
Cs0 O7 3.174305 1_555
Cs0 O19 3.197604 1_554
Cs0 O4 3.261540 1_555
Cs0 O2 3.298863 1_555
Cs0 O21 3.302730 1_654
Cs0 O3 3.483634 1_555
Cs0 O23 3.490353 1_554
Cs0 O22 3.619904 1_554
Cs1 O5 3.056752 1_555
Cs1 O17 3.093613 1_555
Cs1 O4 3.180546 1_555
Cs1 O16 3.193824 1_555
Cs1 O7 3.265700 1_455
Cs1 O9 3.294678 1_555
Cs1 O14 3.296818 1_555
Cs1 O8 3.475837 1_555
Cs1 O12 3.484096 1_555
Cs1 O13 3.622237 1_555
Cs2 O18 3.060249 1_555
Cs2 O6 3.090655 1_555
Cs2 O19 3.179223 1_555
Cs2 O7 3.195785 1_555
Cs2 O16 3.264184 1_655
Cs2 O14 3.295458 1_555
Cs2 O9 3.297441 1_555
Cs2 O15 3.478145 1_555
Cs2 O11 3.483471 1_555
Cs2 O10 3.623983 1_555
Cs3 O17 3.061671 1_555
Cs3 O5 3.093408 1_556
Cs3 O16 3.178552 1_555
Cs3 O4 3.197695 1_556
Cs3 O19 3.262929 1_555
Cs3 O21 3.298620 1_555
Cs3 O2 3.304437 1_456
Cs3 O20 3.483135 1_555
Cs3 O0 3.492135 1_556
Cs3 O1 3.617062 1_556
Hf0 O22 2.033849 1_464
Hf0 O1 2.034193 1_555
Hf0 O20 2.050213 1_554
Hf0 O3 2.050277 1_465
Hf0 O23 2.074049 1_564
Hf0 O0 2.074188 1_455
Hf1 O13 2.033161 1_545
Hf1 O10 2.033464 1_655
Hf1 O8 2.049096 1_545
Hf1 O15 2.049512 1_655
Hf1 O11 2.074071 1_555
Hf1 O12 2.074432 1_645
O0 Se0 1.685639 1_555
O1 Se1 1.688228 1_555
O2 Se0 1.623520 1_555
O3 Se2 1.683163 1_655
O4 Se0 1.622319 1_555
O5 Se1 1.613500 1_555
O6 Se1 1.613564 1_545
O7 Se2 1.622013 1_655
O8 Se0 1.682757 1_555
O9 Se2 1.623223 1_555
O10 Se1 1.688150 1_545
O11 Se2 1.686017 1_655
O12 Se3 1.685718 1_455
O13 Se4 1.688602 1_565
O14 Se3 1.623455 1_555
O15 Se5 1.682887 1_555
O16 Se3 1.622019 1_455
O17 Se4 1.613411 1_565
O18 Se4 1.613202 1_555
O19 Se5 1.622302 1_555
O20 Se3 1.683267 1_455
O21 Se5 1.623327 1_555
O22 Se4 1.688025 1_555
O23 Se5 1.685785 1_555
