# generated using pymatgen
data_Mg2InSnRh4
_symmetry_space_group_name_H-M   'P 1'
_cell_length_a   7.70457048
_cell_length_b   7.70457041
_cell_length_c   7.70457144
_cell_angle_alpha   33.55107807
_cell_angle_beta   33.55107875
_cell_angle_gamma   33.55107357
_symmetry_Int_Tables_number   1
_chemical_formula_structural   Mg2InSnRh4
_chemical_formula_sum   'Mg2 In1 Sn1 Rh4'
_cell_volume   124.43184646
_cell_formula_units_Z   1
loop_
 _symmetry_equiv_pos_site_id
 _symmetry_equiv_pos_as_xyz
  1  'x, y, z'
loop_
 _atom_site_type_symbol
 _atom_site_label
 _atom_site_symmetry_multiplicity
 _atom_site_fract_x
 _atom_site_fract_y
 _atom_site_fract_z
 _atom_site_occupancy
  Mg  Mg0  1  0.25153253  0.25153253  0.25153253  1
  Mg  Mg1  1  0.74846747  0.74846747  0.74846747  1
  In  In0  1  0.00000000  0.00000000  0.00000000  1
  Sn  Sn0  1  0.50000000  0.50000000  0.50000000  1
  Rh  Rh0  1  0.62330056  0.62330056  0.62330056  1
  Rh  Rh1  1  0.12659612  0.12659612  0.12659612  1
  Rh  Rh2  1  0.87340388  0.87340388  0.87340388  1
  Rh  Rh3  1  0.37669944  0.37669944  0.37669944  1
loop_
_geom_bond_atom_site_label_1
_geom_bond_atom_site_label_2
_geom_bond_distance
_geom_bond_site_symmetry_2
Mg0 Rh0 2.700882 1_545
Mg0 Rh0 2.700882 1_455
Mg0 Rh0 2.700882 1_554
Mg0 Rh1 2.722653 1_555
Mg0 Rh3 2.727676 1_555
Mg0 Rh2 2.747030 1_454
Mg0 Rh2 2.747030 1_544
Mg0 Rh2 2.747030 1_445
Mg1 Rh3 2.700882 1_565
Mg1 Rh3 2.700882 1_655
Mg1 Rh3 2.700882 1_556
Mg1 Rh2 2.722653 1_555
Mg1 Rh0 2.727676 1_555
Mg1 Rh1 2.747030 1_656
Mg1 Rh1 2.747030 1_566
Mg1 Rh1 2.747030 1_665
In0 Rh3 2.736117 1_545
In0 Rh0 2.736117 1_454
In0 Rh3 2.736117 1_455
In0 Rh0 2.736117 1_544
In0 Rh3 2.736117 1_554
In0 Rh0 2.736117 1_445
In0 Rh1 2.758822 1_555
In0 Rh2 2.758822 1_444
Rh0 Sn0 2.687004 1_555
Rh1 Sn0 2.712149 1_545
Rh1 Sn0 2.712149 1_455
Rh1 Sn0 2.712149 1_554
Rh2 Sn0 2.712149 1_565
Rh2 Sn0 2.712149 1_655
Rh2 Sn0 2.712149 1_556
Rh3 Sn0 2.687004 1_555
