# generated using pymatgen
data_NiSb12OsRh2
_symmetry_space_group_name_H-M   'P 1'
_cell_length_a   8.03008297
_cell_length_b   8.02481352
_cell_length_c   9.27746006
_cell_angle_alpha   54.59633055
_cell_angle_beta   55.04201558
_cell_angle_gamma   70.57723497
_symmetry_Int_Tables_number   1
_chemical_formula_structural   NiSb12OsRh2
_chemical_formula_sum   'Ni1 Sb12 Os1 Rh2'
_cell_volume   399.37160393
_cell_formula_units_Z   1
loop_
 _symmetry_equiv_pos_site_id
 _symmetry_equiv_pos_as_xyz
  1  'x, y, z'
loop_
 _atom_site_type_symbol
 _atom_site_label
 _atom_site_symmetry_multiplicity
 _atom_site_fract_x
 _atom_site_fract_y
 _atom_site_fract_z
 _atom_site_occupancy
  Ni  Ni0  1  0.50000000  0.00000000  0.50000000  1
  Sb  Sb0  1  0.15556509  0.15391009  0.18537162  1
  Sb  Sb1  1  0.84443491  0.84608991  0.81462838  1
  Sb  Sb2  1  0.84227094  0.84652249  0.49306621  1
  Sb  Sb3  1  0.15772906  0.15347751  0.50693379  1
  Sb  Sb4  1  0.81719318  0.50827110  0.33710442  1
  Sb  Sb5  1  0.18280682  0.49172890  0.66289558  1
  Sb  Sb6  1  0.50396736  0.81593777  0.34310314  1
  Sb  Sb7  1  0.49603264  0.18406223  0.65689686  1
  Sb  Sb8  1  0.66379962  0.33835177  0.84437543  1
  Sb  Sb9  1  0.33620038  0.66164823  0.15562457  1
  Sb  Sb10  1  0.65752241  0.33724836  0.15864222  1
  Sb  Sb11  1  0.34247759  0.66275164  0.84135778  1
  Os  Os0  1  0.00000000  0.50000000  0.50000000  1
  Rh  Rh0  1  0.00000000  0.50000000  0.00000000  1
  Rh  Rh1  1  0.50000000  0.00000000  0.00000000  1
loop_
_geom_bond_atom_site_label_1
_geom_bond_atom_site_label_2
_geom_bond_distance
_geom_bond_site_symmetry_2
Ni0 Sb7 2.590027 1_555
Ni0 Sb6 2.590027 1_545
Ni0 Sb10 2.590224 1_555
Ni0 Sb11 2.590224 1_545
Ni0 Sb2 2.590939 1_545
Ni0 Sb3 2.590939 1_555
Sb0 Sb2 2.881218 1_445
Sb0 Sb3 2.991261 1_555
Sb1 Sb3 2.881218 1_665
Sb1 Sb2 2.991261 1_555
Sb4 Sb6 2.879925 1_555
Sb4 Sb7 2.995464 1_555
Sb5 Sb7 2.879925 1_555
Sb5 Sb6 2.995464 1_555
Sb10 Sb8 2.881891 1_554
Sb10 Sb9 2.994391 1_555
Sb11 Sb9 2.881891 1_556
Sb11 Sb8 2.994391 1_555
Os0 Sb5 2.608526 1_555
Os0 Sb4 2.608526 1_455
Os0 Sb9 2.611811 1_555
Os0 Sb8 2.611811 1_455
Os0 Sb2 2.623882 1_455
Os0 Sb3 2.623882 1_555
Rh0 Sb0 2.617607 1_555
Rh0 Sb1 2.617607 1_454
Rh0 Sb4 2.618216 1_455
Rh0 Sb5 2.618216 1_554
Rh0 Sb11 2.637864 1_554
Rh0 Sb10 2.637864 1_455
Rh1 Sb8 2.616058 1_554
Rh1 Sb9 2.616058 1_545
Rh1 Sb0 2.621315 1_555
Rh1 Sb1 2.621315 1_544
Rh1 Sb6 2.636713 1_545
Rh1 Sb7 2.636713 1_554
