# generated using pymatgen
data_Y3SnSe2
_symmetry_space_group_name_H-M   'P 1'
_cell_length_a   7.26505057
_cell_length_b   7.26505123
_cell_length_c   7.26505152
_cell_angle_alpha   146.32400151
_cell_angle_beta   131.74576620
_cell_angle_gamma   60.13137567
_symmetry_Int_Tables_number   1
_chemical_formula_structural   Y3SnSe2
_chemical_formula_sum   'Y3 Sn1 Se2'
_cell_volume   157.17673408
_cell_formula_units_Z   1
loop_
 _symmetry_equiv_pos_site_id
 _symmetry_equiv_pos_as_xyz
  1  'x, y, z'
loop_
 _atom_site_type_symbol
 _atom_site_label
 _atom_site_symmetry_multiplicity
 _atom_site_fract_x
 _atom_site_fract_y
 _atom_site_fract_z
 _atom_site_occupancy
  Y  Y0  1  0.83041551  0.33041551  0.50000000  1
  Y  Y1  1  0.50000000  0.00000000  0.50000000  1
  Y  Y2  1  0.16958449  0.66958449  0.50000000  1
  Sn  Sn0  1  0.00000000  0.00000000  0.00000000  1
  Se  Se0  1  0.66591790  0.66591790  0.00000000  1
  Se  Se1  1  0.33408210  0.33408210  1.00000000  1
loop_
_geom_bond_atom_site_label_1
_geom_bond_atom_site_label_2
_geom_bond_distance
_geom_bond_site_symmetry_2
Sn0 Y1 2.969680 1_555
Sn0 Y1 2.969680 1_454
Sn0 Y2 2.996066 1_555
Sn0 Y0 2.996066 1_444
Sn0 Y2 2.996067 1_544
Sn0 Y0 2.996067 1_455
Se0 Y0 2.950877 1_565
Se0 Y0 2.950878 1_554
Se0 Y1 2.963425 1_554
Se0 Y1 2.963425 1_565
Se0 Y2 2.970038 1_655
Se0 Y2 2.970038 1_554
Se1 Y2 2.950877 1_545
Se1 Y2 2.950878 1_556
Se1 Y1 2.963425 1_566
Se1 Y1 2.963425 1_555
Se1 Y0 2.970038 1_455
Se1 Y0 2.970038 1_556
