# generated using pymatgen
data_Li3ScAs6Rh7
_symmetry_space_group_name_H-M   'P 1'
_cell_length_a   6.95914463
_cell_length_b   6.95914527
_cell_length_c   6.88276287
_cell_angle_alpha   109.24902805
_cell_angle_beta   109.24902989
_cell_angle_gamma   109.69249265
_symmetry_Int_Tables_number   1
_chemical_formula_structural   Li3ScAs6Rh7
_chemical_formula_sum   'Li3 Sc1 As6 Rh7'
_cell_volume   257.29790643
_cell_formula_units_Z   1
loop_
 _symmetry_equiv_pos_site_id
 _symmetry_equiv_pos_as_xyz
  1  'x, y, z'
loop_
 _atom_site_type_symbol
 _atom_site_label
 _atom_site_symmetry_multiplicity
 _atom_site_fract_x
 _atom_site_fract_y
 _atom_site_fract_z
 _atom_site_occupancy
  Li  Li0  1  0.50000000  0.00000000  0.00000000  1
  Li  Li1  1  0.00000000  0.50000000  0.00000000  1
  Li  Li2  1  0.50000000  0.50000000  0.50000000  1
  Sc  Sc0  1  0.00000000  0.00000000  0.50000000  1
  As  As0  1  0.68195034  0.68195034  0.99053668  1
  As  As1  1  0.31804966  0.31804966  0.00946332  1
  As  As2  1  0.00000000  0.68195034  0.69141466  1
  As  As3  1  1.00000000  0.31804966  0.30858534  1
  As  As4  1  0.68195034  0.00000000  0.69141466  1
  As  As5  1  0.31804966  1.00000000  0.30858534  1
  Rh  Rh0  1  0.00000000  0.00000000  0.00000000  1
  Rh  Rh1  1  0.24905247  0.49810395  0.74905247  1
  Rh  Rh2  1  0.75094753  0.24905247  0.50000000  1
  Rh  Rh3  1  0.49810395  0.24905247  0.74905247  1
  Rh  Rh4  1  0.50189605  0.75094753  0.25094753  1
  Rh  Rh5  1  0.75094753  0.50189605  0.25094753  1
  Rh  Rh6  1  0.24905247  0.75094753  0.50000000  1
loop_
_geom_bond_atom_site_label_1
_geom_bond_atom_site_label_2
_geom_bond_distance
_geom_bond_site_symmetry_2
Li0 Rh3 2.821631 1_554
Li0 Rh4 2.821631 1_545
Li0 Rh2 2.821631 1_555
Li0 Rh6 2.821631 1_544
Li0 Rh5 2.855721 1_555
Li0 Rh1 2.855721 1_544
Li1 Rh5 2.821631 1_455
Li1 Rh1 2.821631 1_554
Li1 Rh6 2.821631 1_555
Li1 Rh2 2.821631 1_454
Li1 Rh4 2.855721 1_555
Li1 Rh3 2.855721 1_454
Li2 Rh5 2.821631 1_555
Li2 Rh1 2.821631 1_555
Li2 Rh4 2.821631 1_555
Li2 Rh3 2.821631 1_555
Li2 Rh6 2.855716 1_555
Li2 Rh2 2.855716 1_555
As0 Rh1 2.484745 1_555
As0 Rh3 2.484746 1_555
As0 Rh0 2.512050 1_666
As0 Rh4 2.516339 1_556
As0 Rh5 2.516339 1_556
As0 Li2 2.808487 1_555
As0 Li1 2.890432 1_656
As0 Li0 2.890432 1_566
As0 Sc0 2.925283 1_666
As1 Rh5 2.484745 1_555
As1 Rh4 2.484746 1_555
As1 Rh0 2.512050 1_555
As1 Rh3 2.516339 1_554
As1 Rh1 2.516339 1_554
As1 Li2 2.808487 1_555
As1 Li1 2.890432 1_555
As1 Li0 2.890432 1_555
As1 Sc0 2.925283 1_554
As2 Rh2 2.484746 1_455
As2 Rh1 2.484751 1_555
As2 Rh0 2.512047 1_566
As2 Rh6 2.516350 1_555
As2 Rh5 2.516352 1_455
As2 Li1 2.808481 1_556
As2 Li2 2.890432 1_455
As2 Li0 2.890432 1_566
As2 Sc0 2.925288 1_565
As3 Rh6 2.484746 1_655
As3 Rh5 2.484751 1_555
As3 Rh0 2.512047 1_655
As3 Rh2 2.516350 1_555
As3 Rh1 2.516352 1_655
As3 Li1 2.808481 1_655
As3 Li2 2.890432 1_655
As3 Li0 2.890432 1_555
As3 Sc0 2.925288 1_655
As4 Rh6 2.484745 1_545
As4 Rh3 2.484751 1_555
As4 Rh0 2.512046 1_656
As4 Rh2 2.516351 1_555
As4 Rh4 2.516352 1_545
As4 Li0 2.808481 1_556
As4 Li2 2.890432 1_545
As4 Li1 2.890432 1_656
As4 Sc0 2.925288 1_655
As5 Rh2 2.484745 1_565
As5 Rh4 2.484751 1_555
As5 Rh0 2.512046 1_565
As5 Rh6 2.516351 1_555
As5 Rh3 2.516352 1_565
As5 Li0 2.808481 1_565
As5 Li2 2.890432 1_565
As5 Li1 2.890432 1_555
As5 Sc0 2.925288 1_565
Rh1 Sc0 2.834145 1_555
Rh2 Sc0 2.834150 1_655
Rh3 Sc0 2.834145 1_555
Rh4 Sc0 2.834145 1_665
Rh5 Sc0 2.834145 1_665
Rh6 Sc0 2.834150 1_565
