# generated using pymatgen
data_Ti3Co2GeN
_symmetry_space_group_name_H-M   'P 1'
_cell_length_a   7.81271340
_cell_length_b   7.81271416
_cell_length_c   7.81271411
_cell_angle_alpha   60.00000435
_cell_angle_beta   60.00000113
_cell_angle_gamma   60.00000397
_symmetry_Int_Tables_number   1
_chemical_formula_structural   Ti3Co2GeN
_chemical_formula_sum   'Ti12 Co8 Ge4 N4'
_cell_volume   337.20250632
_cell_formula_units_Z   4
loop_
 _symmetry_equiv_pos_site_id
 _symmetry_equiv_pos_as_xyz
  1  'x, y, z'
loop_
 _atom_site_type_symbol
 _atom_site_label
 _atom_site_symmetry_multiplicity
 _atom_site_fract_x
 _atom_site_fract_y
 _atom_site_fract_z
 _atom_site_occupancy
  Ti  Ti0  1  0.81020785  0.81020785  0.18979215  1
  Ti  Ti1  1  0.18979215  0.18979215  0.81020785  1
  Ti  Ti2  1  0.81020785  0.18979215  0.81020785  1
  Ti  Ti3  1  0.18979215  0.81020785  0.18979215  1
  Ti  Ti4  1  0.18979215  0.81020785  0.81020785  1
  Ti  Ti5  1  0.81020785  0.18979215  0.18979215  1
  Ti  Ti6  1  0.43979215  0.43979215  0.06020785  1
  Ti  Ti7  1  0.06020785  0.06020785  0.43979215  1
  Ti  Ti8  1  0.43979215  0.06020785  0.43979215  1
  Ti  Ti9  1  0.06020785  0.43979215  0.06020785  1
  Ti  Ti10  1  0.06020785  0.43979215  0.43979215  1
  Ti  Ti11  1  0.43979215  0.06020785  0.06020785  1
  Co  Co0  1  0.75402838  0.41532354  0.41532354  1
  Co  Co1  1  0.41532354  0.75402838  0.41532354  1
  Co  Co2  1  0.41532354  0.41532354  0.75402838  1
  Co  Co3  1  0.41532354  0.41532354  0.41532354  1
  Co  Co4  1  0.49597162  0.83467646  0.83467646  1
  Co  Co5  1  0.83467646  0.49597162  0.83467646  1
  Co  Co6  1  0.83467646  0.83467646  0.49597162  1
  Co  Co7  1  0.83467646  0.83467646  0.83467646  1
  Ge  Ge0  1  0.12500000  0.62500000  0.62500000  1
  Ge  Ge1  1  0.62500000  0.12500000  0.62500000  1
  Ge  Ge2  1  0.62500000  0.62500000  0.12500000  1
  Ge  Ge3  1  0.62500000  0.62500000  0.62500000  1
  N  N0  1  0.62500000  0.12500000  0.12500000  1
  N  N1  1  0.12500000  0.62500000  0.12500000  1
  N  N2  1  0.12500000  0.12500000  0.62500000  1
  N  N3  1  0.12500000  0.12500000  0.12500000  1
loop_
_geom_bond_atom_site_label_1
_geom_bond_atom_site_label_2
_geom_bond_distance
_geom_bond_site_symmetry_2
Co0 Ge1 2.400831 1_555
Co0 Ge2 2.400831 1_555
Co0 Ge3 2.400838 1_555
Co0 Ti9 2.597363 1_655
Co0 Ti7 2.597363 1_655
Co0 Ti10 2.597367 1_655
Co0 Co3 2.646204 1_555
Co0 Co2 2.646204 1_555
Co0 Co1 2.646204 1_555
Co0 Ti5 2.821341 1_555
Co0 Ti0 2.821348 1_555
Co0 Ti2 2.821348 1_555
Co1 Ge0 2.400831 1_555
Co1 Ge2 2.400831 1_555
Co1 Ge3 2.400838 1_555
Co1 Ti7 2.597363 1_565
Co1 Ti11 2.597363 1_565
Co1 Ti8 2.597367 1_565
Co1 Co3 2.646204 1_555
Co1 Co2 2.646204 1_555
Co1 Ti3 2.821341 1_555
Co1 Ti0 2.821347 1_555
Co1 Ti4 2.821347 1_555
Co2 Ge0 2.400831 1_555
Co2 Ge1 2.400831 1_555
Co2 Ge3 2.400837 1_555
Co2 Ti9 2.597363 1_556
Co2 Ti11 2.597363 1_556
Co2 Ti6 2.597367 1_556
Co2 Co3 2.646204 1_555
Co2 Ti1 2.821341 1_555
Co2 Ti2 2.821347 1_555
Co2 Ti4 2.821348 1_555
Co3 Ge2 2.400836 1_555
Co3 Ge0 2.400836 1_555
Co3 Ge1 2.400836 1_555
Co3 Ti10 2.597359 1_555
Co3 Ti6 2.597359 1_555
Co3 Ti8 2.597359 1_555
Co3 Ti5 2.821344 1_555
Co3 Ti1 2.821344 1_555
Co3 Ti3 2.821345 1_555
Co4 Ge1 2.400831 1_565
Co4 Ge2 2.400831 1_556
Co4 Ge3 2.400838 1_555
Co4 Ti3 2.597363 1_556
Co4 Ti1 2.597363 1_565
Co4 Ti4 2.597367 1_555
Co4 Co7 2.646204 1_555
Co4 Co6 2.646204 1_555
Co4 Co5 2.646204 1_555
Co4 Ti11 2.821341 1_566
Co4 Ti6 2.821348 1_556
Co4 Ti8 2.821348 1_565
Co5 Ge0 2.400831 1_655
Co5 Ge2 2.400831 1_556
Co5 Ge3 2.400838 1_555
Co5 Ti1 2.597363 1_655
Co5 Ti5 2.597363 1_556
Co5 Ti2 2.597367 1_555
Co5 Co7 2.646204 1_555
Co5 Co6 2.646204 1_555
Co5 Ti9 2.821341 1_656
Co5 Ti6 2.821347 1_556
Co5 Ti10 2.821347 1_655
Co6 Ge0 2.400831 1_655
Co6 Ge1 2.400831 1_565
Co6 Ge3 2.400837 1_555
Co6 Ti3 2.597363 1_655
Co6 Ti5 2.597363 1_565
Co6 Ti0 2.597367 1_555
Co6 Co7 2.646204 1_555
Co6 Ti7 2.821341 1_665
Co6 Ti8 2.821347 1_565
Co6 Ti10 2.821348 1_655
Co7 Ge2 2.400836 1_556
Co7 Ge0 2.400836 1_655
Co7 Ge1 2.400836 1_565
Co7 Ti4 2.597359 1_655
Co7 Ti0 2.597359 1_556
Co7 Ti2 2.597359 1_565
Co7 Ti11 2.821344 1_566
Co7 Ti7 2.821344 1_665
Co7 Ti9 2.821345 1_656
Ge0 Ti10 2.828849 1_555
Ge0 Ti4 2.828849 1_555
Ge0 Ti9 2.828849 1_556
Ge0 Ti3 2.828849 1_555
Ge0 Ti7 2.828849 1_565
Ge0 Ti1 2.828849 1_555
Ge1 Ti7 2.828849 1_655
Ge1 Ti1 2.828849 1_555
Ge1 Ti2 2.828849 1_555
Ge1 Ti8 2.828849 1_555
Ge1 Ti11 2.828849 1_556
Ge1 Ti5 2.828849 1_555
Ge2 Ti0 2.828849 1_555
Ge2 Ti6 2.828849 1_555
Ge2 Ti9 2.828849 1_655
Ge2 Ti3 2.828849 1_555
Ge2 Ti11 2.828849 1_565
Ge2 Ti5 2.828849 1_555
Ge3 Ti10 2.828849 1_655
Ge3 Ti4 2.828849 1_555
Ge3 Ti6 2.828849 1_556
Ge3 Ti0 2.828849 1_555
Ge3 Ti8 2.828849 1_565
Ge3 Ti2 2.828849 1_555
N0 Ti5 2.080237 1_555
N0 Ti11 2.080237 1_555
N0 Ti8 2.080238 1_555
N0 Ti2 2.080238 1_554
N0 Ti6 2.080238 1_555
N0 Ti0 2.080238 1_545
N1 Ti3 2.080237 1_555
N1 Ti9 2.080237 1_555
N1 Ti6 2.080237 1_555
N1 Ti0 2.080237 1_455
N1 Ti10 2.080238 1_555
N1 Ti4 2.080238 1_554
N2 Ti8 2.080237 1_555
N2 Ti2 2.080237 1_455
N2 Ti1 2.080238 1_555
N2 Ti7 2.080238 1_555
N2 Ti4 2.080238 1_545
N2 Ti10 2.080238 1_555
N3 Ti11 2.080237 1_555
N3 Ti5 2.080237 1_455
N3 Ti7 2.080238 1_555
N3 Ti1 2.080238 1_554
N3 Ti9 2.080238 1_555
N3 Ti3 2.080238 1_545
