# generated using pymatgen
data_SrTm2O4
_symmetry_space_group_name_H-M   'P 1'
_cell_length_a   3.34610249
_cell_length_b   9.97145227
_cell_length_c   11.74718298
_cell_angle_alpha   90.00000000
_cell_angle_beta   90.00000000
_cell_angle_gamma   90.00000000
_symmetry_Int_Tables_number   1
_chemical_formula_structural   SrTm2O4
_chemical_formula_sum   'Sr4 Tm8 O16'
_cell_volume   391.95064863
_cell_formula_units_Z   4
loop_
 _symmetry_equiv_pos_site_id
 _symmetry_equiv_pos_as_xyz
  1  'x, y, z'
loop_
 _atom_site_type_symbol
 _atom_site_label
 _atom_site_symmetry_multiplicity
 _atom_site_fract_x
 _atom_site_fract_y
 _atom_site_fract_z
 _atom_site_occupancy
  Sr  Sr0  1  0.75000000  0.25352310  0.84963369  1
  Sr  Sr1  1  0.25000000  0.74647690  0.15036631  1
  Sr  Sr2  1  0.75000000  0.75352310  0.65036631  1
  Sr  Sr3  1  0.25000000  0.24647690  0.34963369  1
  Tm  Tm0  1  0.25000000  0.57822566  0.89063250  1
  Tm  Tm1  1  0.75000000  0.42177434  0.10936750  1
  Tm  Tm2  1  0.25000000  0.07822566  0.60936750  1
  Tm  Tm3  1  0.75000000  0.92177434  0.39063250  1
  Tm  Tm4  1  0.75000000  0.92558540  0.88796537  1
  Tm  Tm5  1  0.25000000  0.07441460  0.11203463  1
  Tm  Tm6  1  0.75000000  0.42558540  0.61203463  1
  Tm  Tm7  1  0.25000000  0.57441460  0.38796537  1
  O  O0  1  0.25000000  0.57476142  0.57618830  1
  O  O1  1  0.75000000  0.42523858  0.42381170  1
  O  O2  1  0.25000000  0.07476142  0.92381170  1
  O  O3  1  0.75000000  0.92523858  0.07618830  1
  O  O4  1  0.25000000  0.48238428  0.21655882  1
  O  O5  1  0.75000000  0.51761572  0.78344118  1
  O  O6  1  0.25000000  0.98238428  0.28344118  1
  O  O7  1  0.75000000  0.01761572  0.71655882  1
  O  O8  1  0.25000000  0.87735577  0.52005867  1
  O  O9  1  0.75000000  0.12264423  0.47994133  1
  O  O10  1  0.25000000  0.37735577  0.97994133  1
  O  O11  1  0.75000000  0.62264423  0.02005867  1
  O  O12  1  0.75000000  0.70992854  0.32972974  1
  O  O13  1  0.25000000  0.29007146  0.67027026  1
  O  O14  1  0.75000000  0.20992854  0.17027026  1
  O  O15  1  0.25000000  0.79007146  0.82972974  1
loop_
_geom_bond_atom_site_label_1
_geom_bond_atom_site_label_2
_geom_bond_distance
_geom_bond_site_symmetry_2
O0 Tm7 2.211092 1_555
O0 Tm6 2.277955 1_555
O0 Tm6 2.277955 1_455
O0 Sr2 2.595335 1_555
O0 Sr2 2.595335 1_455
O1 Tm6 2.211092 1_555
O1 Tm7 2.277955 1_555
O1 Tm7 2.277955 1_655
O1 Sr3 2.595335 1_555
O1 Sr3 2.595335 1_655
O2 Tm5 2.211092 1_556
O2 Tm4 2.277955 1_445
O2 Tm4 2.277955 1_545
O2 Sr0 2.595335 1_455
O2 Sr0 2.595335 1_555
O3 Tm4 2.211092 1_554
O3 Tm5 2.277955 1_565
O3 Tm5 2.277955 1_665
O3 Sr1 2.595335 1_555
O3 Sr1 2.595335 1_655
O4 Tm1 2.179435 1_455
O4 Tm1 2.179435 1_555
O4 Tm7 2.212801 1_555
O4 Sr1 2.745788 1_555
O4 Sr3 2.824405 1_555
O5 Tm0 2.179435 1_555
O5 Tm0 2.179435 1_655
O5 Tm6 2.212801 1_555
O5 Sr0 2.745788 1_555
O5 Sr2 2.824405 1_555
O6 Tm3 2.179435 1_455
O6 Tm3 2.179435 1_555
O6 Tm5 2.212801 1_565
O6 Sr3 2.745788 1_565
O6 Sr1 2.824405 1_555
O7 Tm2 2.179435 1_655
O7 Tm2 2.179435 1_555
O7 Tm4 2.212801 1_545
O7 Sr2 2.745788 1_545
O7 Sr0 2.824405 1_555
O8 Tm2 2.261091 1_565
O8 Tm3 2.303665 1_555
O8 Tm3 2.303665 1_455
O8 Sr2 2.582053 1_555
O8 Sr2 2.582053 1_455
O9 Tm3 2.261091 1_545
O9 Tm2 2.303665 1_555
O9 Tm2 2.303665 1_655
O9 Sr3 2.582053 1_655
O9 Sr3 2.582053 1_555
O10 Tm0 2.261091 1_555
O10 Tm1 2.303665 1_456
O10 Tm1 2.303665 1_556
O10 Sr0 2.582053 1_455
O10 Sr0 2.582053 1_555
O11 Tm1 2.261091 1_555
O11 Tm0 2.303665 1_554
O11 Tm0 2.303665 1_654
O11 Sr1 2.582053 1_655
O11 Sr1 2.582053 1_555
O12 Tm3 2.230275 1_555
O12 Tm7 2.256775 1_555
O12 Tm7 2.256775 1_655
O12 Sr1 2.715038 1_655
O12 Sr1 2.715038 1_555
O13 Tm2 2.230275 1_555
O13 Tm6 2.256775 1_455
O13 Tm6 2.256775 1_555
O13 Sr0 2.715038 1_455
O13 Sr0 2.715038 1_555
O14 Tm1 2.230275 1_555
O14 Tm5 2.256775 1_555
O14 Tm5 2.256775 1_655
O14 Sr3 2.715038 1_655
O14 Sr3 2.715038 1_555
O15 Tm0 2.230275 1_555
O15 Tm4 2.256775 1_555
O15 Tm4 2.256775 1_455
O15 Sr2 2.715038 1_555
O15 Sr2 2.715038 1_455
