# generated using pymatgen
data_Lu6ScCrO12
_symmetry_space_group_name_H-M   'P 1'
_cell_length_a   6.34997666
_cell_length_b   6.34997765
_cell_length_c   6.34997728
_cell_angle_alpha   92.88021763
_cell_angle_beta   92.88022033
_cell_angle_gamma   92.88021301
_symmetry_Int_Tables_number   1
_chemical_formula_structural   Lu6ScCrO12
_chemical_formula_sum   'Lu6 Sc1 Cr1 O12'
_cell_volume   255.04094151
_cell_formula_units_Z   1
loop_
 _symmetry_equiv_pos_site_id
 _symmetry_equiv_pos_as_xyz
  1  'x, y, z'
loop_
 _atom_site_type_symbol
 _atom_site_label
 _atom_site_symmetry_multiplicity
 _atom_site_fract_x
 _atom_site_fract_y
 _atom_site_fract_z
 _atom_site_occupancy
  Lu  Lu0  1  0.74196604  0.92476158  0.43486203  1
  Lu  Lu1  1  0.92476158  0.43486203  0.74196604  1
  Lu  Lu2  1  0.43486203  0.74196604  0.92476158  1
  Lu  Lu3  1  0.25803396  0.07523842  0.56513797  1
  Lu  Lu4  1  0.07523842  0.56513797  0.25803396  1
  Lu  Lu5  1  0.56513797  0.25803396  0.07523842  1
  Sc  Sc0  1  0.00000000  0.00000000  0.00000000  1
  Cr  Cr0  1  0.50000000  0.50000000  0.50000000  1
  O  O0  1  0.58888150  0.46084160  0.80193357  1
  O  O1  1  0.46084160  0.80193357  0.58888150  1
  O  O2  1  0.80193357  0.58888150  0.46084160  1
  O  O3  1  0.41111850  0.53915840  0.19806643  1
  O  O4  1  0.53915840  0.19806643  0.41111850  1
  O  O5  1  0.19806643  0.41111850  0.53915840  1
  O  O6  1  0.07052731  0.91272219  0.31275486  1
  O  O7  1  0.91272219  0.31275486  0.07052731  1
  O  O8  1  0.68724514  0.92947269  0.08727781  1
  O  O9  1  0.08727781  0.68724514  0.92947269  1
  O  O10  1  0.92947269  0.08727781  0.68724514  1
  O  O11  1  0.31275486  0.07052731  0.91272219  1
loop_
_geom_bond_atom_site_label_1
_geom_bond_atom_site_label_2
_geom_bond_distance
_geom_bond_site_symmetry_2
Lu0 O10 2.137664 1_565
Lu0 O2 2.198147 1_555
Lu0 O1 2.205391 1_555
Lu0 O8 2.218955 1_555
Lu0 O4 2.219122 1_565
Lu0 O6 2.265521 1_655
Lu1 O9 2.137664 1_655
Lu1 O0 2.198147 1_555
Lu1 O2 2.205391 1_555
Lu1 O10 2.218955 1_555
Lu1 O5 2.219122 1_655
Lu1 O7 2.265521 1_556
Lu2 O8 2.137664 1_556
Lu2 O1 2.198147 1_555
Lu2 O0 2.205391 1_555
Lu2 O9 2.218955 1_555
Lu2 O3 2.219122 1_556
Lu2 O11 2.265521 1_565
Lu3 O6 2.137664 1_545
Lu3 O5 2.198147 1_555
Lu3 O4 2.205391 1_555
Lu3 O11 2.218955 1_555
Lu3 O1 2.219122 1_545
Lu3 O10 2.265521 1_455
Lu4 O7 2.137664 1_455
Lu4 O3 2.198147 1_555
Lu4 O5 2.205391 1_555
Lu4 O6 2.218955 1_555
Lu4 O2 2.219122 1_455
Lu4 O9 2.265521 1_554
Lu5 O11 2.137664 1_554
Lu5 O4 2.198147 1_555
Lu5 O3 2.205391 1_555
Lu5 O7 2.218955 1_555
Lu5 O0 2.219122 1_554
Lu5 O8 2.265521 1_545
Cr0 O2 2.002390 1_555
Cr0 O5 2.002390 1_555
Cr0 O0 2.002391 1_555
Cr0 O3 2.002391 1_555
Cr0 O1 2.002391 1_555
Cr0 O4 2.002391 1_555
O6 Sc0 2.120856 1_565
O7 Sc0 2.120856 1_655
O8 Sc0 2.120856 1_665
O9 Sc0 2.120856 1_566
O10 Sc0 2.120856 1_656
O11 Sc0 2.120856 1_556
