# generated using pymatgen
data_Rb4Ba(VSe4)2
_symmetry_space_group_name_H-M   'P 1'
_cell_length_a   12.06390816
_cell_length_b   12.06390896
_cell_length_c   12.06390788
_cell_angle_alpha   133.01861064
_cell_angle_beta   127.80675953
_cell_angle_gamma   72.82830276
_symmetry_Int_Tables_number   1
_chemical_formula_structural   Rb4Ba(VSe4)2
_chemical_formula_sum   'Rb8 Ba2 V4 Se16'
_cell_volume   990.97185282
_cell_formula_units_Z   2
loop_
 _symmetry_equiv_pos_site_id
 _symmetry_equiv_pos_as_xyz
  1  'x, y, z'
loop_
 _atom_site_type_symbol
 _atom_site_label
 _atom_site_symmetry_multiplicity
 _atom_site_fract_x
 _atom_site_fract_y
 _atom_site_fract_z
 _atom_site_occupancy
  Rb  Rb0  1  0.49736298  0.24736298  0.25000000  1
  Rb  Rb1  1  0.00263702  0.75263702  0.25000000  1
  Rb  Rb2  1  0.57657307  0.70062283  0.12404976  1
  Rb  Rb3  1  0.42342693  0.29937717  0.87595024  1
  Rb  Rb4  1  0.50263702  0.75263702  0.75000000  1
  Rb  Rb5  1  0.07657307  0.45252230  0.37595024  1
  Rb  Rb6  1  0.92342693  0.54747770  0.62404976  1
  Rb  Rb7  1  0.99736298  0.24736298  0.75000000  1
  Ba  Ba0  1  0.25000000  0.00000000  0.25000000  1
  Ba  Ba1  1  0.75000000  0.00000000  0.75000000  1
  V  V0  1  0.13162140  0.92567734  0.79405593  1
  V  V1  1  0.86837860  0.07432266  0.20594407  1
  V  V2  1  0.36837860  0.66243353  0.29405593  1
  V  V3  1  0.63162140  0.33756647  0.70594407  1
  Se  Se0  1  0.59049230  0.61056018  0.37197646  1
  Se  Se1  1  0.75281463  0.98933694  0.23652331  1
  Se  Se2  1  0.89314978  0.86667582  0.97352604  1
  Se  Se3  1  0.76141629  0.38943982  0.97993212  1
  Se  Se4  1  0.73858371  0.21851583  0.12802354  1
  Se  Se5  1  0.74718537  0.48370868  0.73652331  1
  Se  Se6  1  0.24718537  0.01066306  0.76347669  1
  Se  Se7  1  0.23858371  0.61056018  0.02006788  1
  Se  Se8  1  0.25281463  0.51629132  0.26347669  1
  Se  Se9  1  0.26141629  0.78148417  0.87197646  1
  Se  Se10  1  0.10685022  0.13332418  0.02647396  1
  Se  Se11  1  0.90950770  0.78148417  0.52006788  1
  Se  Se12  1  0.09049230  0.21851583  0.47993212  1
  Se  Se13  1  0.60685022  0.08037626  0.47352604  1
  Se  Se14  1  0.40950770  0.38943982  0.62802354  1
  Se  Se15  1  0.39314978  0.91962374  0.52647396  1
loop_
_geom_bond_atom_site_label_1
_geom_bond_atom_site_label_2
_geom_bond_distance
_geom_bond_site_symmetry_2
Rb0 Se5 3.494966 1_555
Rb0 Se6 3.494967 1_554
Rb0 Se8 3.670489 1_555
Rb0 Se1 3.670496 1_545
Rb0 Se10 3.814299 1_555
Rb0 Se13 3.814299 1_555
Rb0 Se4 3.835124 1_555
Rb0 Se0 3.835125 1_555
Rb1 Se1 3.494959 1_455
Rb1 Se8 3.494966 1_555
Rb1 Se6 3.670488 1_565
Rb1 Se5 3.670488 1_454
Rb1 Se15 3.814299 1_555
Rb1 Se2 3.814299 1_454
Rb1 Se11 3.835124 1_455
Rb1 Se3 3.835125 1_454
Rb2 Se13 3.412063 1_565
Rb2 Se11 3.512463 1_555
Rb2 Se9 3.512463 1_554
Rb2 Se1 3.588926 1_555
Rb2 Se14 3.604565 1_554
Rb2 Se3 3.604566 1_554
Rb2 Se0 3.723603 1_555
Rb2 Se7 3.723603 1_555
Rb3 Se15 3.412063 1_545
Rb3 Se12 3.512463 1_555
Rb3 Se4 3.512463 1_556
Rb3 Se6 3.588926 1_555
Rb3 Se0 3.604565 1_556
Rb3 Se7 3.604566 1_556
Rb3 Se14 3.723603 1_555
Rb3 Se3 3.723603 1_555
Rb4 Se8 3.494966 1_555
Rb4 Se1 3.494967 1_556
Rb4 Se5 3.670489 1_555
Rb4 Se6 3.670496 1_565
Rb4 Se2 3.814299 1_555
Rb4 Se15 3.814299 1_555
Rb4 Se9 3.835124 1_555
Rb4 Se14 3.835125 1_555
Rb5 Se10 3.412060 1_555
Rb5 Se14 3.512457 1_555
Rb5 Se3 3.512468 1_454
Rb5 Se8 3.588945 1_555
Rb5 Se9 3.604567 1_555
Rb5 Se11 3.604573 1_455
Rb5 Se12 3.723591 1_555
Rb5 Se4 3.723597 1_455
Rb6 Se2 3.412060 1_555
Rb6 Se0 3.512457 1_555
Rb6 Se7 3.512468 1_656
Rb6 Se5 3.588945 1_555
Rb6 Se4 3.604567 1_555
Rb6 Se12 3.604573 1_655
Rb6 Se11 3.723591 1_555
Rb6 Se9 3.723597 1_655
Rb7 Se6 3.494959 1_655
Rb7 Se5 3.494966 1_555
Rb7 Se1 3.670488 1_545
Rb7 Se8 3.670488 1_656
Rb7 Se13 3.814299 1_555
Rb7 Se10 3.814299 1_656
Rb7 Se12 3.835124 1_655
Rb7 Se7 3.835125 1_656
Ba0 Se2 3.377802 1_444
Ba0 Se15 3.377802 1_545
Ba0 Se13 3.377802 1_555
Ba0 Se10 3.377802 1_555
Ba0 Se9 3.452222 1_544
Ba0 Se12 3.452223 1_555
Ba0 Se14 3.452223 1_555
Ba0 Se7 3.452223 1_545
Ba1 Se10 3.377802 1_656
Ba1 Se13 3.377802 1_555
Ba1 Se15 3.377802 1_545
Ba1 Se2 3.377802 1_545
Ba1 Se4 3.452222 1_556
Ba1 Se11 3.452223 1_545
Ba1 Se0 3.452223 1_545
Ba1 Se3 3.452223 1_555
Se0 V2 2.275900 1_555
Se1 V1 2.263081 1_565
Se2 V1 2.286408 1_566
Se3 V3 2.275909 1_555
Se4 V1 2.275903 1_555
Se5 V3 2.263062 1_555
Se6 V0 2.263081 1_545
Se7 V2 2.275909 1_555
Se8 V2 2.263062 1_555
Se9 V0 2.275903 1_555
Se10 V0 2.286408 1_544
Se11 V0 2.275903 1_655
Se12 V1 2.275903 1_455
Se13 V3 2.286415 1_555
Se14 V3 2.275900 1_555
Se15 V2 2.286415 1_555
