# generated using pymatgen
data_Rb6GaSe4Br
_symmetry_space_group_name_H-M   'P 1'
_cell_length_a   10.87281974
_cell_length_b   10.87281853
_cell_length_c   8.20132892
_cell_angle_alpha   90.00000000
_cell_angle_beta   90.00000000
_cell_angle_gamma   119.99999786
_symmetry_Int_Tables_number   1
_chemical_formula_structural   Rb6GaSe4Br
_chemical_formula_sum   'Rb12 Ga2 Se8 Br2'
_cell_volume   839.65175225
_cell_formula_units_Z   2
loop_
 _symmetry_equiv_pos_site_id
 _symmetry_equiv_pos_as_xyz
  1  'x, y, z'
loop_
 _atom_site_type_symbol
 _atom_site_label
 _atom_site_symmetry_multiplicity
 _atom_site_fract_x
 _atom_site_fract_y
 _atom_site_fract_z
 _atom_site_occupancy
  Rb  Rb0  1  0.13879334  0.86120666  0.51218803  1
  Rb  Rb1  1  0.72241232  0.86120666  0.51218803  1
  Rb  Rb2  1  0.94701805  0.47350902  0.32093394  1
  Rb  Rb3  1  0.52649098  0.47350902  0.32093394  1
  Rb  Rb4  1  0.86120666  0.72241232  0.01218803  1
  Rb  Rb5  1  0.27758768  0.13879334  0.01218803  1
  Rb  Rb6  1  0.52649098  0.05298195  0.32093394  1
  Rb  Rb7  1  0.13879334  0.27758768  0.51218803  1
  Rb  Rb8  1  0.86120666  0.13879334  0.01218803  1
  Rb  Rb9  1  0.05298195  0.52649098  0.82093394  1
  Rb  Rb10  1  0.47350902  0.94701805  0.82093394  1
  Rb  Rb11  1  0.47350902  0.52649098  0.82093394  1
  Ga  Ga0  1  0.66666700  0.33333300  0.70975348  1
  Ga  Ga1  1  0.33333300  0.66666700  0.20975348  1
  Se  Se0  1  0.42078321  0.21039111  0.61628396  1
  Se  Se1  1  0.57921679  0.78960889  0.11628396  1
  Se  Se2  1  0.66666700  0.33333300  0.01438071  1
  Se  Se3  1  0.78960889  0.57921679  0.61628396  1
  Se  Se4  1  0.21039111  0.42078321  0.11628396  1
  Se  Se5  1  0.33333300  0.66666700  0.51438071  1
  Se  Se6  1  0.21039111  0.78960889  0.11628396  1
  Se  Se7  1  0.78960889  0.21039111  0.61628396  1
  Br  Br0  1  0.00000000  0.00000000  0.26824804  1
  Br  Br1  1  0.00000000  0.00000000  0.76824804  1
loop_
_geom_bond_atom_site_label_1
_geom_bond_atom_site_label_2
_geom_bond_distance
_geom_bond_site_symmetry_2
Rb0 Se6 3.515773 1_555
Rb0 Se0 3.592095 1_565
Rb0 Se3 3.592095 1_455
Rb0 Se5 3.663668 1_555
Rb1 Se1 3.515773 1_555
Rb1 Se7 3.592087 1_565
Rb1 Se3 3.592108 1_555
Rb1 Se5 3.663669 1_555
Rb2 Se3 3.476289 1_555
Rb2 Se7 3.476295 1_555
Rb2 Se4 3.603828 1_655
Rb2 Se6 3.603834 1_655
Rb2 Se2 3.645489 1_555
Rb3 Se0 3.476296 1_555
Rb3 Se3 3.476296 1_555
Rb3 Se1 3.603837 1_555
Rb3 Se4 3.603837 1_555
Rb3 Se2 3.645496 1_555
Rb4 Se3 3.515773 1_554
Rb4 Se6 3.592088 1_655
Rb4 Se1 3.592108 1_555
Rb4 Se2 3.663668 1_555
Rb5 Se0 3.515773 1_554
Rb5 Se6 3.592087 1_545
Rb5 Se4 3.592108 1_555
Rb5 Se2 3.663669 1_555
Rb6 Se0 3.476289 1_555
Rb6 Se7 3.476296 1_555
Rb6 Se1 3.603827 1_545
Rb6 Se6 3.603834 1_545
Rb6 Se2 3.645489 1_555
Rb7 Se4 3.515773 1_555
Rb7 Se7 3.592088 1_455
Rb7 Se0 3.592108 1_555
Rb7 Se5 3.663668 1_555
Rb8 Se7 3.515773 1_554
Rb8 Se1 3.592095 1_545
Rb8 Se4 3.592095 1_655
Rb8 Se2 3.663668 1_555
Rb9 Se4 3.476289 1_556
Rb9 Se6 3.476295 1_556
Rb9 Se3 3.603828 1_455
Rb9 Se7 3.603834 1_455
Rb9 Se5 3.645489 1_555
Rb10 Se1 3.476289 1_556
Rb10 Se6 3.476296 1_556
Rb10 Se0 3.603827 1_565
Rb10 Se7 3.603834 1_565
Rb10 Se5 3.645489 1_555
Rb11 Se1 3.476296 1_556
Rb11 Se4 3.476296 1_556
Rb11 Se0 3.603837 1_555
Rb11 Se3 3.603837 1_555
Rb11 Se5 3.645496 1_555
Ga0 Se3 2.438880 1_555
Ga0 Se7 2.438880 1_555
Ga0 Se0 2.438880 1_555
Ga0 Se2 2.498348 1_556
Ga1 Se4 2.438880 1_555
Ga1 Se6 2.438880 1_555
Ga1 Se1 2.438880 1_555
Ga1 Se5 2.498348 1_555
Br0 Rb0 3.291573 1_545
Br0 Rb7 3.291580 1_555
Br0 Rb1 3.291580 1_445
Br0 Rb8 3.352918 1_455
Br0 Rb4 3.352925 1_445
Br0 Rb5 3.352925 1_555
Br1 Rb8 3.291573 1_456
Br1 Rb4 3.291580 1_446
Br1 Rb5 3.291580 1_556
Br1 Rb0 3.352918 1_545
Br1 Rb7 3.352925 1_555
Br1 Rb1 3.352925 1_445
