# generated using pymatgen
data_Zr2V3Os
_symmetry_space_group_name_H-M   'P 1'
_cell_length_a   5.16173271
_cell_length_b   5.16173276
_cell_length_c   5.16173328
_cell_angle_alpha   60.91651304
_cell_angle_beta   60.91651023
_cell_angle_gamma   60.91651730
_symmetry_Int_Tables_number   1
_chemical_formula_structural   Zr2V3Os
_chemical_formula_sum   'Zr2 V3 Os1'
_cell_volume   99.25467626
_cell_formula_units_Z   1
loop_
 _symmetry_equiv_pos_site_id
 _symmetry_equiv_pos_as_xyz
  1  'x, y, z'
loop_
 _atom_site_type_symbol
 _atom_site_label
 _atom_site_symmetry_multiplicity
 _atom_site_fract_x
 _atom_site_fract_y
 _atom_site_fract_z
 _atom_site_occupancy
  Zr  Zr0  1  0.62531593  0.62531593  0.62531593  1
  Zr  Zr1  1  0.37468407  0.37468407  0.37468407  1
  V  V0  1  0.00000000  0.50000000  0.00000000  1
  V  V1  1  0.50000000  0.00000000  0.00000000  1
  V  V2  1  0.00000000  0.00000000  0.50000000  1
  Os  Os0  1  0.00000000  0.00000000  0.00000000  1
loop_
_geom_bond_atom_site_label_1
_geom_bond_atom_site_label_2
_geom_bond_distance
_geom_bond_site_symmetry_2
Zr0 Zr1 3.146765 1_555
Zr0 Zr1 3.194763 1_655
Zr0 Zr1 3.194763 1_565
Zr0 Zr1 3.194763 1_556
V0 V2 2.616537 1_555
V0 V2 2.616537 1_564
V0 V1 2.616537 1_465
V0 V1 2.616537 1_555
V0 Zr1 3.017152 1_555
V0 Zr0 3.017152 1_454
V0 Zr0 3.053161 1_554
V0 Zr1 3.053161 1_455
V0 Zr0 3.053162 1_455
V0 Zr1 3.053162 1_554
V1 V2 2.616536 1_555
V1 V2 2.616536 1_654
V1 Zr1 3.017151 1_555
V1 Zr0 3.017151 1_544
V1 Zr0 3.053161 1_554
V1 Zr1 3.053161 1_545
V1 Zr0 3.053162 1_545
V1 Zr1 3.053162 1_554
V2 Zr1 3.017151 1_555
V2 Zr0 3.017151 1_445
V2 Zr0 3.053162 1_455
V2 Zr1 3.053162 1_545
V2 Zr0 3.053162 1_545
V2 Zr1 3.053162 1_455
Os0 V1 2.580866 1_555
Os0 V1 2.580866 1_455
Os0 V0 2.580866 1_555
Os0 V0 2.580866 1_545
Os0 V2 2.580867 1_554
Os0 V2 2.580867 1_555
Os0 Zr1 3.065598 1_554
Os0 Zr0 3.065598 1_445
Os0 Zr1 3.065598 1_455
Os0 Zr0 3.065598 1_544
Os0 Zr1 3.065598 1_545
Os0 Zr0 3.065598 1_454
