# generated using pymatgen
data_ZrTi3(Nb8Al5)2
_symmetry_space_group_name_H-M   'P 1'
_cell_length_a   9.98342269
_cell_length_b   9.98342269
_cell_length_c   5.20919597
_cell_angle_alpha   90.00000000
_cell_angle_beta   90.00000000
_cell_angle_gamma   90.08955048
_symmetry_Int_Tables_number   1
_chemical_formula_structural   ZrTi3(Nb8Al5)2
_chemical_formula_sum   'Zr1 Ti3 Nb16 Al10'
_cell_volume   519.19330456
_cell_formula_units_Z   1
loop_
 _symmetry_equiv_pos_site_id
 _symmetry_equiv_pos_as_xyz
  1  'x, y, z'
loop_
 _atom_site_type_symbol
 _atom_site_label
 _atom_site_symmetry_multiplicity
 _atom_site_fract_x
 _atom_site_fract_y
 _atom_site_fract_z
 _atom_site_occupancy
  Zr  Zr0  1  0.60372378  0.60372378  0.00000000  1
  Ti  Ti0  1  0.39230068  0.39230068  0.00000000  1
  Ti  Ti1  1  0.89745761  0.10268403  0.50000000  1
  Ti  Ti2  1  0.10268403  0.89745761  0.50000000  1
  Nb  Nb0  1  0.12878921  0.46469675  0.00000000  1
  Nb  Nb1  1  0.96420559  0.37049353  0.50000000  1
  Nb  Nb2  1  0.03745190  0.62905698  0.50000000  1
  Nb  Nb3  1  0.87579994  0.53402733  0.00000000  1
  Nb  Nb4  1  0.37049353  0.96420559  0.50000000  1
  Nb  Nb5  1  0.62905698  0.03745190  0.50000000  1
  Nb  Nb6  1  0.46469675  0.12878921  0.00000000  1
  Nb  Nb7  1  0.53402733  0.87579994  0.00000000  1
  Nb  Nb8  1  0.17970855  0.17970855  0.25435693  1
  Nb  Nb9  1  0.68111336  0.31731048  0.75285487  1
  Nb  Nb10  1  0.31731048  0.68111336  0.75285487  1
  Nb  Nb11  1  0.82188951  0.82188951  0.25499170  1
  Nb  Nb12  1  0.31731048  0.68111336  0.24714513  1
  Nb  Nb13  1  0.68111336  0.31731048  0.24714513  1
  Nb  Nb14  1  0.17970855  0.17970855  0.74564307  1
  Nb  Nb15  1  0.82188951  0.82188951  0.74500830  1
  Al  Al0  1  0.00039359  0.00039359  0.00000000  1
  Al  Al1  1  0.49839535  0.49839535  0.50000000  1
  Al  Al2  1  0.26185507  0.93336437  0.00000000  1
  Al  Al3  1  0.43199513  0.23639037  0.50000000  1
  Al  Al4  1  0.56725212  0.76444103  0.50000000  1
  Al  Al5  1  0.73816337  0.06701649  0.00000000  1
  Al  Al6  1  0.23639037  0.43199513  0.50000000  1
  Al  Al7  1  0.76444103  0.56725212  0.50000000  1
  Al  Al8  1  0.93336437  0.26185507  0.00000000  1
  Al  Al9  1  0.06701649  0.73816337  0.00000000  1
loop_
_geom_bond_atom_site_label_1
_geom_bond_atom_site_label_2
_geom_bond_distance
_geom_bond_site_symmetry_2
Ti0 Zr0 2.982684 1_555
Ti1 Ti2 2.899792 1_645
Nb0 Nb3 2.619866 1_455
Nb0 Ti0 2.729314 1_555
Nb0 Nb12 3.139285 1_555
Nb0 Nb10 3.139285 1_554
Nb0 Nb8 3.180169 1_555
Nb0 Nb14 3.180169 1_554
Nb0 Nb2 3.211320 1_555
Nb0 Nb2 3.211320 1_554
Nb0 Nb1 3.219222 1_455
Nb0 Nb1 3.219222 1_454
Nb1 Nb2 2.681825 1_655
Nb1 Ti1 2.754436 1_555
Nb1 Nb14 3.147506 1_655
Nb1 Nb8 3.147506 1_655
Nb1 Nb9 3.162234 1_555
Nb1 Nb13 3.162234 1_555
Nb1 Nb3 3.198886 1_555
Nb1 Nb3 3.198886 1_556
Nb2 Ti2 2.756571 1_555
Nb2 Nb3 3.206820 1_455
Nb2 Nb3 3.206820 1_456
Nb3 Zr0 2.805010 1_555
Nb3 Nb9 3.178540 1_554
Nb4 Nb5 2.681825 1_565
Nb4 Ti2 2.754436 1_555
Nb4 Nb8 3.147506 1_565
Nb4 Nb7 3.198886 1_555
Nb4 Nb7 3.198886 1_556
Nb4 Nb6 3.219222 1_565
Nb4 Nb6 3.219222 1_566
Nb5 Ti1 2.756571 1_555
Nb5 Nb9 3.131553 1_555
Nb5 Nb7 3.206820 1_546
Nb5 Nb7 3.206820 1_545
Nb5 Nb6 3.211320 1_555
Nb5 Nb6 3.211320 1_556
Nb6 Nb7 2.619866 1_545
Nb6 Ti0 2.729314 1_555
Nb6 Nb9 3.139285 1_554
Nb6 Nb8 3.180169 1_555
Nb7 Zr0 2.805010 1_555
Nb8 Ti2 3.187803 1_545
Nb8 Ti1 3.187803 1_455
Nb8 Ti0 3.278821 1_555
Nb9 Zr0 3.230695 1_556
Nb9 Ti0 3.246283 1_556
Nb9 Ti1 3.317465 1_555
Nb10 Nb12 2.574855 1_556
Nb10 Nb12 2.634341 1_555
Nb10 Nb2 3.131553 1_555
Nb10 Nb4 3.162234 1_555
Nb10 Nb7 3.178540 1_556
Nb10 Zr0 3.230695 1_556
Nb10 Ti0 3.246283 1_556
Nb10 Ti2 3.317465 1_555
Nb11 Nb15 2.552592 1_555
Nb11 Nb15 2.656604 1_554
Nb11 Nb2 3.159007 1_655
Nb11 Nb5 3.159007 1_565
Nb11 Ti2 3.170161 1_655
Nb11 Ti1 3.170161 1_565
Nb11 Nb3 3.212149 1_555
Nb11 Nb7 3.212149 1_555
Nb11 Zr0 3.352205 1_555
Nb12 Nb2 3.131553 1_555
Nb12 Nb4 3.162234 1_555
Nb12 Nb7 3.178540 1_555
Nb12 Zr0 3.230695 1_555
Nb12 Ti0 3.246283 1_555
Nb12 Ti2 3.317465 1_555
Nb13 Nb9 2.574855 1_554
Nb13 Nb9 2.634341 1_555
Nb13 Nb5 3.131553 1_555
Nb13 Nb6 3.139285 1_555
Nb13 Nb3 3.178540 1_555
Nb13 Zr0 3.230695 1_555
Nb13 Ti0 3.246283 1_555
Nb13 Ti1 3.317465 1_555
Nb14 Nb8 2.559206 1_555
Nb14 Nb8 2.649990 1_556
Nb14 Nb4 3.147506 1_545
Nb14 Nb6 3.180169 1_556
Nb14 Ti2 3.187803 1_545
Nb14 Ti1 3.187803 1_455
Nb14 Ti0 3.278821 1_556
Nb15 Nb5 3.159007 1_565
Nb15 Nb2 3.159007 1_655
Nb15 Ti2 3.170161 1_655
Nb15 Ti1 3.170161 1_565
Nb15 Nb3 3.212149 1_556
Nb15 Nb7 3.212149 1_556
Nb15 Zr0 3.352205 1_556
Al0 Al2 2.695705 1_545
Al0 Al8 2.695705 1_455
Al0 Al5 2.702133 1_455
Al0 Al9 2.702133 1_545
Al0 Nb11 2.847119 1_445
Al0 Nb15 2.847119 1_444
Al0 Nb8 2.855707 1_555
Al0 Nb14 2.855707 1_554
Al0 Ti1 2.980965 1_454
Al0 Ti2 2.980965 1_544
Al0 Ti2 2.980965 1_545
Al0 Ti1 2.980965 1_455
Al1 Al3 2.697395 1_555
Al1 Al6 2.697395 1_555
Al1 Al7 2.742523 1_555
Al1 Al4 2.742523 1_555
Al1 Nb10 2.888093 1_555
Al1 Nb9 2.888093 1_555
Al1 Nb13 2.888093 1_555
Al1 Nb12 2.888093 1_555
Al1 Zr0 2.998656 1_555
Al1 Zr0 2.998656 1_556
Al1 Ti0 3.004028 1_555
Al1 Ti0 3.004028 1_556
Al2 Al9 2.751273 1_555
Al2 Nb7 2.778198 1_555
Al2 Nb6 2.809792 1_565
Al2 Nb4 2.837959 1_554
Al2 Nb4 2.837959 1_555
Al2 Nb12 2.882762 1_555
Al2 Nb10 2.882762 1_554
Al2 Nb8 2.912547 1_565
Al2 Nb14 2.912547 1_564
Al2 Ti2 3.071775 1_555
Al2 Ti2 3.071775 1_554
Al3 Al6 2.763841 1_555
Al3 Nb4 2.784904 1_545
Al3 Nb5 2.797718 1_555
Al3 Nb6 2.836473 1_556
Al3 Nb6 2.836473 1_555
Al3 Nb14 2.880436 1_555
Al3 Nb8 2.880436 1_555
Al3 Nb9 2.926897 1_555
Al3 Nb13 2.926897 1_555
Al3 Ti0 3.060335 1_556
Al3 Ti0 3.060335 1_555
Al4 Al7 2.786224 1_555
Al4 Nb5 2.793611 1_565
Al4 Nb4 2.801461 1_555
Al4 Nb7 2.851505 1_556
Al4 Nb7 2.851505 1_555
Al4 Nb15 2.901009 1_555
Al4 Nb11 2.901009 1_555
Al4 Nb10 2.940559 1_555
Al4 Nb12 2.940559 1_555
Al4 Zr0 3.081036 1_555
Al4 Zr0 3.081036 1_556
Al5 Al8 2.751273 1_555
Al5 Nb7 2.790242 1_545
Al5 Nb6 2.799859 1_555
Al5 Nb5 2.838401 1_554
Al5 Nb5 2.838401 1_555
Al5 Nb13 2.868844 1_555
Al5 Nb9 2.868844 1_554
Al5 Nb11 2.908313 1_545
Al5 Nb15 2.908313 1_544
Al5 Ti1 3.072135 1_555
Al5 Ti1 3.072135 1_554
Al6 Nb1 2.784904 1_455
Al6 Nb2 2.797718 1_555
Al6 Nb0 2.836473 1_556
Al6 Nb0 2.836473 1_555
Al6 Nb14 2.880436 1_555
Al6 Nb8 2.880436 1_555
Al6 Nb10 2.926897 1_555
Al6 Nb12 2.926897 1_555
Al6 Ti0 3.060335 1_556
Al6 Ti0 3.060335 1_555
Al7 Nb2 2.793611 1_655
Al7 Nb1 2.801461 1_555
Al7 Nb3 2.851505 1_555
Al7 Nb3 2.851505 1_556
Al7 Nb15 2.901009 1_555
Al7 Nb11 2.901009 1_555
Al7 Nb9 2.940559 1_555
Al7 Nb13 2.940559 1_555
Al7 Zr0 3.081036 1_555
Al7 Zr0 3.081036 1_556
Al8 Nb3 2.778198 1_555
Al8 Nb0 2.809792 1_655
Al8 Nb1 2.837959 1_555
Al8 Nb1 2.837959 1_554
Al8 Nb13 2.882762 1_555
Al8 Nb9 2.882762 1_554
Al8 Nb8 2.912547 1_655
Al8 Nb14 2.912547 1_654
Al8 Ti1 3.071775 1_554
Al8 Ti1 3.071775 1_555
Al9 Nb3 2.790242 1_455
Al9 Nb0 2.799859 1_555
Al9 Nb2 2.838401 1_555
Al9 Nb2 2.838401 1_554
Al9 Nb12 2.868844 1_555
Al9 Nb10 2.868844 1_554
Al9 Nb11 2.908313 1_455
Al9 Nb15 2.908313 1_454
Al9 Ti2 3.072135 1_554
Al9 Ti2 3.072135 1_555
