# generated using pymatgen
data_Ca5InSi2
_symmetry_space_group_name_H-M   'P 1'
_cell_length_a   9.42402361
_cell_length_b   9.42402225
_cell_length_c   9.42402378
_cell_angle_alpha   131.14742555
_cell_angle_beta   131.14742742
_cell_angle_gamma   71.57895959
_symmetry_Int_Tables_number   1
_chemical_formula_structural   Ca5InSi2
_chemical_formula_sum   'Ca10 In2 Si4'
_cell_volume   464.38610801
_cell_formula_units_Z   2
loop_
 _symmetry_equiv_pos_site_id
 _symmetry_equiv_pos_as_xyz
  1  'x, y, z'
loop_
 _atom_site_type_symbol
 _atom_site_label
 _atom_site_symmetry_multiplicity
 _atom_site_fract_x
 _atom_site_fract_y
 _atom_site_fract_z
 _atom_site_occupancy
  Ca  Ca0  1  0.81275914  0.31275914  0.85397800  1
  Ca  Ca1  1  0.18724086  0.68724086  0.14602200  1
  Ca  Ca2  1  0.45878014  0.95878014  0.14602200  1
  Ca  Ca3  1  0.31275914  0.45878014  0.50000000  1
  Ca  Ca4  1  0.04121986  0.18724086  0.50000000  1
  Ca  Ca5  1  0.54121986  0.04121986  0.85397800  1
  Ca  Ca6  1  0.68724086  0.54121986  0.50000000  1
  Ca  Ca7  1  0.95878014  0.81275914  0.50000000  1
  Ca  Ca8  1  0.00000000  0.00000000  0.00000000  1
  Ca  Ca9  1  0.50000000  0.50000000  0.00000000  1
  In  In0  1  0.25000000  0.25000000  0.00000000  1
  In  In1  1  0.75000000  0.75000000  0.00000000  1
  Si  Si0  1  0.11045931  0.61045931  0.72092062  1
  Si  Si1  1  0.88954069  0.38954069  0.27907938  1
  Si  Si2  1  0.61045931  0.88954069  0.50000000  1
  Si  Si3  1  0.38954069  0.11045931  0.50000000  1
loop_
_geom_bond_atom_site_label_1
_geom_bond_atom_site_label_2
_geom_bond_distance
_geom_bond_site_symmetry_2
Ca0 Si2 3.097928 1_545
Ca0 Si3 3.097928 1_555
Ca0 Si1 3.130134 1_556
Ca0 In1 3.360243 1_556
Ca0 In0 3.360244 1_656
Ca1 Si3 3.097928 1_565
Ca1 Si2 3.097928 1_555
Ca1 Si0 3.130134 1_554
Ca1 In0 3.360243 1_555
Ca1 In1 3.360244 1_455
Ca2 Si2 3.097918 1_555
Ca2 Si3 3.097918 1_565
Ca2 Si0 3.130143 1_554
Ca2 In0 3.360251 1_565
Ca2 In1 3.360252 1_555
Ca3 Si1 3.097920 1_455
Ca3 Si0 3.097941 1_555
Ca3 Si3 3.130143 1_555
Ca3 In1 3.360246 1_556
Ca3 In0 3.360247 1_555
Ca4 Si0 3.097920 1_555
Ca4 Si1 3.097941 1_455
Ca4 Si3 3.130143 1_555
Ca4 In1 3.360246 1_445
Ca4 In0 3.360246 1_556
Ca5 Si3 3.097918 1_555
Ca5 Si2 3.097918 1_545
Ca5 Si1 3.130143 1_556
Ca5 In1 3.360251 1_546
Ca5 In0 3.360252 1_556
Ca6 Si0 3.097920 1_655
Ca6 Si1 3.097941 1_555
Ca6 Si2 3.130143 1_555
Ca6 In0 3.360246 1_555
Ca6 In1 3.360247 1_556
Ca7 Si1 3.097920 1_555
Ca7 Si0 3.097941 1_655
Ca7 Si2 3.130143 1_555
Ca7 In0 3.360246 1_666
Ca7 In1 3.360246 1_555
Ca8 Si0 3.155812 1_544
Ca8 Si1 3.155812 1_455
Ca8 Si3 3.155818 1_555
Ca8 Si2 3.155818 1_444
Ca9 Si1 3.155812 1_555
Ca9 Si0 3.155812 1_554
Ca9 Si2 3.155818 1_555
Ca9 Si3 3.155818 1_554
Si0 Si1 2.435098 1_455
Si2 Si3 2.435076 1_565
