# generated using pymatgen
data_Y16Al4RuPt3
_symmetry_space_group_name_H-M   'P 1'
_cell_length_a   9.62683643
_cell_length_b   9.62683703
_cell_length_c   9.62683782
_cell_angle_alpha   59.74101239
_cell_angle_beta   59.74101042
_cell_angle_gamma   59.74101213
_symmetry_Int_Tables_number   1
_chemical_formula_structural   Y16Al4RuPt3
_chemical_formula_sum   'Y16 Al4 Ru1 Pt3'
_cell_volume   627.15381374
_cell_formula_units_Z   1
loop_
 _symmetry_equiv_pos_site_id
 _symmetry_equiv_pos_as_xyz
  1  'x, y, z'
loop_
 _atom_site_type_symbol
 _atom_site_label
 _atom_site_symmetry_multiplicity
 _atom_site_fract_x
 _atom_site_fract_y
 _atom_site_fract_z
 _atom_site_occupancy
  Y  Y0  1  0.80532149  0.19286918  0.80532149  1
  Y  Y1  1  0.93785108  0.56147633  0.56147633  1
  Y  Y2  1  0.56147633  0.93785108  0.56147633  1
  Y  Y3  1  0.81168380  0.19227399  0.19227399  1
  Y  Y4  1  0.19227399  0.81168380  0.19227399  1
  Y  Y5  1  0.34957026  0.94559575  0.34957026  1
  Y  Y6  1  0.93752778  0.93752778  0.55967530  1
  Y  Y7  1  0.55967530  0.93752778  0.93752778  1
  Y  Y8  1  0.19286918  0.80532149  0.80532149  1
  Y  Y9  1  0.34957026  0.34957026  0.94559575  1
  Y  Y10  1  0.56147633  0.56147633  0.93785108  1
  Y  Y11  1  0.35559919  0.35559919  0.35559919  1
  Y  Y12  1  0.19227399  0.19227399  0.81168380  1
  Y  Y13  1  0.80532149  0.80532149  0.19286918  1
  Y  Y14  1  0.93752778  0.55967530  0.93752778  1
  Y  Y15  1  0.94559575  0.34957026  0.34957026  1
  Al  Al0  1  0.57770709  0.57770709  0.57770709  1
  Al  Al1  1  0.57869211  0.26681723  0.57869211  1
  Al  Al2  1  0.57869211  0.57869211  0.26681723  1
  Al  Al3  1  0.26681723  0.57869211  0.57869211  1
  Ru  Ru0  1  0.14113514  0.14113514  0.14113514  1
  Pt  Pt0  1  0.14434812  0.14434812  0.57265306  1
  Pt  Pt1  1  0.57265306  0.14434812  0.14434812  1
  Pt  Pt2  1  0.14434812  0.57265306  0.14434812  1
loop_
_geom_bond_atom_site_label_1
_geom_bond_atom_site_label_2
_geom_bond_distance
_geom_bond_site_symmetry_2
Y0 Y1 3.588808 1_555
Y0 Y10 3.588808 1_555
Y0 Y7 3.595366 1_545
Y0 Y6 3.595366 1_545
Y1 Y11 3.452890 1_655
Y1 Y15 3.495161 1_555
Y1 Y13 3.588808 1_555
Y1 Y4 3.602469 1_655
Y1 Y12 3.602469 1_655
Y1 Y2 3.609105 1_555
Y1 Y10 3.609105 1_555
Y1 Y6 3.609917 1_555
Y1 Y14 3.609917 1_555
Y2 Y5 3.495161 1_555
Y2 Y8 3.588807 1_555
Y2 Y3 3.602469 1_565
Y2 Y6 3.609916 1_555
Y2 Y7 3.609917 1_555
Y3 Y6 3.545997 1_545
Y4 Y7 3.545996 1_554
Y4 Y6 3.545997 1_455
Y5 Y6 3.449325 1_455
Y5 Y7 3.449325 1_554
Y6 Y8 3.595366 1_655
Y6 Y7 3.623275 1_555
Y7 Y9 3.449325 1_565
Y10 Y11 3.452890 1_556
Y10 Y9 3.495161 1_555
Y10 Y8 3.588808 1_555
Y10 Y4 3.602469 1_556
Y10 Y3 3.602469 1_556
Y10 Y2 3.609106 1_555
Y10 Y14 3.609916 1_555
Y10 Y7 3.609917 1_555
Y11 Y2 3.452890 1_545
Y11 Y3 3.577533 1_555
Y11 Y4 3.577533 1_555
Y11 Y12 3.577533 1_555
Y12 Y7 3.545996 1_545
Y12 Y14 3.545997 1_455
Y12 Y2 3.602469 1_545
Y13 Y2 3.588808 1_555
Y13 Y7 3.595366 1_554
Y13 Y14 3.595366 1_554
Y14 Y9 3.449325 1_655
Y14 Y15 3.449325 1_556
Y14 Y3 3.545996 1_556
Y14 Y8 3.595366 1_655
Y14 Y7 3.623275 1_555
Y14 Y6 3.623276 1_555
Y15 Y6 3.449325 1_545
Al0 Al3 2.983359 1_555
Al0 Al1 2.983359 1_555
Al0 Al2 2.983360 1_555
Al0 Y1 3.316914 1_555
Al0 Y2 3.316914 1_555
Al0 Y10 3.316915 1_555
Al0 Y15 3.372388 1_555
Al0 Y9 3.372388 1_555
Al0 Y5 3.372388 1_555
Al0 Y8 3.435731 1_555
Al0 Y13 3.435731 1_555
Al0 Y0 3.435731 1_555
Al1 Al3 2.990608 1_555
Al1 Al2 2.990608 1_555
Al1 Y11 3.302156 1_555
Al1 Y6 3.305599 1_545
Al1 Y7 3.305599 1_545
Al1 Y2 3.342129 1_545
Al1 Y15 3.344979 1_555
Al1 Y9 3.344979 1_555
Al1 Y0 3.419531 1_555
Al1 Y12 3.470350 1_555
Al1 Y3 3.470351 1_555
Al2 Al3 2.990608 1_555
Al2 Y11 3.302156 1_555
Al2 Y14 3.305599 1_554
Al2 Y7 3.305599 1_554
Al2 Y10 3.342130 1_554
Al2 Y15 3.344979 1_555
Al2 Y5 3.344979 1_555
Al2 Y13 3.419531 1_555
Al2 Y4 3.470350 1_555
Al2 Y3 3.470351 1_555
Al3 Y11 3.302156 1_555
Al3 Y6 3.305599 1_455
Al3 Y14 3.305599 1_455
Al3 Y1 3.342129 1_455
Al3 Y5 3.344979 1_555
Al3 Y9 3.344980 1_555
Al3 Y8 3.419532 1_555
Al3 Y12 3.470351 1_555
Al3 Y4 3.470351 1_555
Ru0 Y3 2.764179 1_455
Ru0 Y4 2.764180 1_545
Ru0 Y12 2.764180 1_554
Ru0 Y9 2.835574 1_554
Ru0 Y5 2.835574 1_545
Ru0 Y15 2.835574 1_455
Ru0 Y7 3.445541 1_544
Ru0 Y14 3.445541 1_454
Ru0 Y6 3.445541 1_445
Pt0 Y0 2.835090 1_455
Pt0 Y8 2.835090 1_545
Pt0 Y12 2.841711 1_555
Pt0 Y5 2.869099 1_545
Pt0 Y15 2.869099 1_455
Pt0 Y11 2.870664 1_555
Pt0 Y2 3.438547 1_545
Pt0 Y1 3.438548 1_455
Pt0 Y6 3.527115 1_445
Pt1 Y13 2.835090 1_545
Pt1 Y0 2.835090 1_554
Pt1 Y3 2.841711 1_555
Pt1 Y5 2.869099 1_545
Pt1 Y9 2.869099 1_554
Pt1 Y11 2.870664 1_555
Pt1 Y10 3.438548 1_554
Pt1 Y2 3.438548 1_545
Pt1 Y7 3.527115 1_544
Pt2 Y13 2.835090 1_455
Pt2 Y8 2.835090 1_554
Pt2 Y4 2.841711 1_555
Pt2 Y15 2.869099 1_455
Pt2 Y9 2.869099 1_554
Pt2 Y11 2.870664 1_555
Pt2 Y10 3.438547 1_554
Pt2 Y1 3.438548 1_455
Pt2 Y14 3.527115 1_454
