# generated using pymatgen
data_CaPb2(BrO)2
_symmetry_space_group_name_H-M   'P 1'
_cell_length_a   5.89294053
_cell_length_b   10.13744130
_cell_length_c   12.04520760
_cell_angle_alpha   90.00000000
_cell_angle_beta   90.00000000
_cell_angle_gamma   90.00000000
_symmetry_Int_Tables_number   1
_chemical_formula_structural   CaPb2(BrO)2
_chemical_formula_sum   'Ca4 Pb8 Br8 O8'
_cell_volume   719.57273649
_cell_formula_units_Z   4
loop_
 _symmetry_equiv_pos_site_id
 _symmetry_equiv_pos_as_xyz
  1  'x, y, z'
loop_
 _atom_site_type_symbol
 _atom_site_label
 _atom_site_symmetry_multiplicity
 _atom_site_fract_x
 _atom_site_fract_y
 _atom_site_fract_z
 _atom_site_occupancy
  Ca  Ca0  1  0.25000000  0.05489372  0.06931188  1
  Ca  Ca1  1  0.75000000  0.94510628  0.93068812  1
  Ca  Ca2  1  0.75000000  0.55489372  0.43068812  1
  Ca  Ca3  1  0.25000000  0.44510628  0.56931188  1
  Pb  Pb0  1  0.25000000  0.36652699  0.28809326  1
  Pb  Pb1  1  0.75000000  0.63347301  0.71190674  1
  Pb  Pb2  1  0.75000000  0.86652699  0.21190674  1
  Pb  Pb3  1  0.25000000  0.13347301  0.78809326  1
  Pb  Pb4  1  0.25000000  0.78623804  0.56198058  1
  Pb  Pb5  1  0.75000000  0.21376196  0.43801942  1
  Pb  Pb6  1  0.75000000  0.28623804  0.93801942  1
  Pb  Pb7  1  0.25000000  0.71376196  0.06198058  1
  Br  Br0  1  0.25000000  0.06645982  0.32619525  1
  Br  Br1  1  0.75000000  0.93354018  0.67380475  1
  Br  Br2  1  0.75000000  0.56645982  0.17380475  1
  Br  Br3  1  0.25000000  0.43354018  0.82619525  1
  Br  Br4  1  0.25000000  0.81267815  0.82523094  1
  Br  Br5  1  0.75000000  0.18732185  0.17476906  1
  Br  Br6  1  0.75000000  0.31267815  0.67476906  1
  Br  Br7  1  0.25000000  0.68732185  0.32523094  1
  O  O0  1  0.00164768  0.37910007  0.42549921  1
  O  O1  1  0.50164768  0.62089993  0.57450079  1
  O  O2  1  0.99835232  0.87910007  0.07450079  1
  O  O3  1  0.49835232  0.12089993  0.92549921  1
  O  O4  1  0.99835232  0.62089993  0.57450079  1
  O  O5  1  0.49835232  0.37910007  0.42549921  1
  O  O6  1  0.00164768  0.12089993  0.92549921  1
  O  O7  1  0.50164768  0.87910007  0.07450079  1
loop_
_geom_bond_atom_site_label_1
_geom_bond_atom_site_label_2
_geom_bond_distance
_geom_bond_site_symmetry_2
Ca0 O7 2.319246 1_545
Ca0 O2 2.319246 1_445
Ca0 O3 2.364392 1_554
Ca0 O6 2.364392 1_554
Ca1 O6 2.319246 1_665
Ca1 O3 2.319246 1_565
Ca1 O2 2.364392 1_556
Ca1 O7 2.364392 1_556
Ca2 O0 2.319246 1_655
Ca2 O5 2.319246 1_555
Ca2 O4 2.364392 1_555
Ca2 O1 2.364392 1_555
Ca3 O1 2.319246 1_555
Ca3 O4 2.319246 1_455
Ca3 O5 2.364392 1_555
Ca3 O0 2.364392 1_555
Br0 Pb0 3.076340 1_555
Br0 Ca0 3.096434 1_555
Br1 Pb1 3.076340 1_555
Br1 Ca1 3.096434 1_555
Br2 Pb2 3.076340 1_555
Br2 Ca2 3.096434 1_555
Br3 Pb3 3.076340 1_555
Br3 Ca3 3.096434 1_555
Br4 Pb7 3.022864 1_556
Br4 Pb4 3.182213 1_555
Br4 Pb3 3.282661 1_565
Br4 Ca1 3.478145 1_555
Br4 Ca1 3.478145 1_455
Br5 Pb6 3.022864 1_554
Br5 Pb5 3.182213 1_555
Br5 Pb2 3.282661 1_545
Br5 Ca0 3.478145 1_555
Br5 Ca0 3.478145 1_655
Br6 Pb5 3.022864 1_555
Br6 Pb6 3.182213 1_555
Br6 Pb1 3.282661 1_555
Br6 Ca3 3.478145 1_555
Br6 Ca3 3.478145 1_655
Br7 Pb4 3.022864 1_555
Br7 Pb7 3.182213 1_555
Br7 Pb0 3.282661 1_555
Br7 Ca2 3.478145 1_555
Br7 Ca2 3.478145 1_455
O0 Pb0 2.213019 1_555
O0 Pb5 2.243033 1_455
O1 Pb1 2.213019 1_555
O1 Pb4 2.243033 1_555
O2 Pb2 2.213019 1_555
O2 Pb7 2.243033 1_655
O3 Pb3 2.213019 1_555
O3 Pb6 2.243033 1_555
O4 Pb1 2.213019 1_555
O4 Pb4 2.243033 1_655
O5 Pb0 2.213019 1_555
O5 Pb5 2.243033 1_555
O6 Pb3 2.213019 1_555
O6 Pb6 2.243033 1_455
O7 Pb2 2.213019 1_555
O7 Pb7 2.243033 1_555
