# generated using pymatgen
data_Be3NbNiRu
_symmetry_space_group_name_H-M   'P 1'
_cell_length_a   4.46464104
_cell_length_b   4.46464006
_cell_length_c   4.46464013
_cell_angle_alpha   61.19109350
_cell_angle_beta   61.19109752
_cell_angle_gamma   61.19109272
_symmetry_Int_Tables_number   1
_chemical_formula_structural   Be3NbNiRu
_chemical_formula_sum   'Be3 Nb1 Ni1 Ru1'
_cell_volume   64.61419338
_cell_formula_units_Z   1
loop_
 _symmetry_equiv_pos_site_id
 _symmetry_equiv_pos_as_xyz
  1  'x, y, z'
loop_
 _atom_site_type_symbol
 _atom_site_label
 _atom_site_symmetry_multiplicity
 _atom_site_fract_x
 _atom_site_fract_y
 _atom_site_fract_z
 _atom_site_occupancy
  Be  Be0  1  0.61962872  0.12581440  0.12581440  1
  Be  Be1  1  0.12581440  0.61962872  0.12581440  1
  Be  Be2  1  0.12581440  0.12581440  0.61962872  1
  Nb  Nb0  1  0.74867814  0.74867814  0.74867814  1
  Ni  Ni0  1  0.12247429  0.12247429  0.12247429  1
  Ru  Ru0  1  0.50759005  0.50759005  0.50759005  1
loop_
_geom_bond_atom_site_label_1
_geom_bond_atom_site_label_2
_geom_bond_distance
_geom_bond_site_symmetry_2
Be0 Ni0 2.230754 1_655
Be0 Ni0 2.234090 1_555
Be0 Be1 2.244276 1_555
Be0 Be2 2.244276 1_555
Be0 Be1 2.300501 1_645
Be0 Be2 2.300501 1_654
Be0 Ru0 2.597808 1_554
Be0 Ru0 2.597808 1_545
Be0 Nb0 2.620042 1_544
Be0 Nb0 2.645129 1_545
Be0 Nb0 2.645129 1_554
Be0 Ru0 2.686522 1_555
Be1 Ni0 2.230754 1_565
Be1 Ni0 2.234089 1_555
Be1 Be2 2.244276 1_555
Be1 Be2 2.300501 1_564
Be1 Ru0 2.597808 1_554
Be1 Ru0 2.597809 1_455
Be1 Nb0 2.620042 1_454
Be1 Nb0 2.645129 1_455
Be1 Nb0 2.645129 1_554
Be1 Ru0 2.686522 1_555
Be2 Ni0 2.230754 1_556
Be2 Ni0 2.234089 1_555
Be2 Ru0 2.597808 1_545
Be2 Ru0 2.597808 1_455
Be2 Nb0 2.620042 1_445
Be2 Nb0 2.645129 1_455
Be2 Nb0 2.645129 1_545
Be2 Ru0 2.686522 1_555
Nb0 Ru0 2.612578 1_555
Nb0 Ni0 2.660312 1_656
Nb0 Ni0 2.660312 1_665
Nb0 Ni0 2.660313 1_566
Nb0 Ru0 2.807890 1_565
Nb0 Ru0 2.807890 1_556
Nb0 Ru0 2.807891 1_655
Ni0 Ru0 2.683260 1_545
Ni0 Ru0 2.683260 1_554
Ni0 Ru0 2.683260 1_455
