# generated using pymatgen
data_ScTi2(AsRu)3
_symmetry_space_group_name_H-M   'P 1'
_cell_length_a   7.48577582
_cell_length_b   7.48577667
_cell_length_c   7.48577689
_cell_angle_alpha   127.70651037
_cell_angle_beta   120.70067737
_cell_angle_gamma   82.98264325
_symmetry_Int_Tables_number   1
_chemical_formula_structural   ScTi2(AsRu)3
_chemical_formula_sum   'Sc2 Ti4 As6 Ru6'
_cell_volume   273.99196452
_cell_formula_units_Z   2
loop_
 _symmetry_equiv_pos_site_id
 _symmetry_equiv_pos_as_xyz
  1  'x, y, z'
loop_
 _atom_site_type_symbol
 _atom_site_label
 _atom_site_symmetry_multiplicity
 _atom_site_fract_x
 _atom_site_fract_y
 _atom_site_fract_z
 _atom_site_occupancy
  Sc  Sc0  1  0.47177198  0.23755772  0.26578474  1
  Sc  Sc1  1  0.52822802  0.79401276  0.76578474  1
  Ti  Ti0  1  0.74770434  0.66828117  0.42057583  1
  Ti  Ti1  1  0.25229566  0.67287149  0.92057583  1
  Ti  Ti2  1  0.05717492  0.84948892  0.29231401  1
  Ti  Ti3  1  0.94282508  0.23513809  0.79231401  1
  As  As0  1  0.84609691  0.57985534  0.75340069  1
  As  As1  1  0.15390309  0.90730278  0.73375843  1
  As  As2  1  0.67354435  0.90730278  0.25340069  1
  As  As3  1  0.32645565  0.57985534  0.23375843  1
  As  As4  1  0.28310762  0.29517927  0.51207064  1
  As  As5  1  0.71689238  0.22896302  0.01207064  1
  Ru  Ru0  1  0.66546682  0.49402403  0.90979275  1
  Ru  Ru1  1  0.33453318  0.24432494  0.82855721  1
  Ru  Ru2  1  0.91576872  0.24432494  0.40979275  1
  Ru  Ru3  1  0.08423128  0.49402403  0.32855721  1
  Ru  Ru4  1  1.00000000  0.00394570  0.00394570  1
  Ru  Ru5  1  0.50000000  0.00394570  0.50394570  1
loop_
_geom_bond_atom_site_label_1
_geom_bond_atom_site_label_2
_geom_bond_distance
_geom_bond_site_symmetry_2
As0 Ru4 2.515407 1_566
As0 Ru2 2.518679 1_555
As0 Ru0 2.522008 1_555
As0 Ti1 2.619679 1_655
As0 Ti2 2.674941 1_656
As0 Ti0 2.685592 1_555
As0 Sc1 2.711459 1_555
As0 Ti3 2.741455 1_555
As0 Sc0 2.758736 1_555
As1 Ru4 2.515405 1_466
As1 Ru3 2.518672 1_555
As1 Ru1 2.522008 1_565
As1 Ti0 2.619675 1_455
As1 Ti3 2.674941 1_465
As1 Ti1 2.685579 1_555
As1 Sc0 2.711461 1_566
As1 Ti2 2.741452 1_555
As1 Sc1 2.758736 1_555
As2 Ru5 2.515399 1_565
As2 Ru0 2.518674 1_554
As2 Ru2 2.522013 1_565
As2 Ti0 2.619665 1_555
As2 Ti3 2.674942 1_565
As2 Ti1 2.685578 1_554
As2 Sc0 2.711468 1_565
As2 Ti2 2.741454 1_655
As2 Sc1 2.758743 1_554
As3 Ru5 2.515405 1_565
As3 Ru1 2.518674 1_554
As3 Ru3 2.522015 1_555
As3 Ti1 2.619678 1_554
As3 Ti2 2.674947 1_555
As3 Ti0 2.685579 1_555
As3 Sc1 2.711461 1_555
As3 Ti3 2.741454 1_454
As3 Sc0 2.758729 1_555
As4 Ru2 2.458063 1_455
As4 Ru1 2.458073 1_555
As4 Ru3 2.488112 1_555
As4 Ru0 2.488118 1_555
As4 Ru4 2.542914 1_455
As4 Ru5 2.542919 1_555
As4 Sc0 2.667728 1_555
As4 Ti1 2.717187 1_555
As4 Ti2 2.919229 1_545
As4 Sc1 3.218442 1_555
As5 Ru3 2.458062 1_655
As5 Ru0 2.458062 1_554
As5 Ru1 2.488116 1_554
As5 Ru2 2.488123 1_555
As5 Ru4 2.542914 1_555
As5 Ru5 2.542914 1_554
As5 Sc1 2.667728 1_544
As5 Ti0 2.717194 1_555
As5 Ti3 2.919219 1_554
As5 Sc0 3.218446 1_555
Ru0 Ti3 2.763404 1_555
Ru0 Ru5 2.803050 1_555
Ru0 Ti2 2.809000 1_656
Ru0 Ti0 2.896911 1_556
Ru0 Sc1 2.920130 1_555
Ru1 Ti2 2.763399 1_545
Ru1 Ru5 2.803049 1_555
Ru1 Ti3 2.809000 1_455
Ru1 Ti1 2.896920 1_555
Ru1 Sc0 2.920120 1_556
Ru2 Ti2 2.763395 1_645
Ru2 Ru4 2.803050 1_555
Ru2 Ti3 2.809000 1_555
Ru2 Ti1 2.896916 1_655
Ru2 Sc0 2.920131 1_555
Ru3 Ti3 2.763400 1_454
Ru3 Ru4 2.803050 1_455
Ru3 Ti2 2.809000 1_555
Ru3 Ti0 2.896914 1_455
Ru3 Sc1 2.920130 1_555
Ru4 Ti3 2.858073 1_554
Ru4 Ti2 2.858080 1_645
Ru4 Ti0 2.875152 1_544
Ru4 Ti1 2.875152 1_644
Ru4 Sc1 3.101612 1_544
Ru4 Sc0 3.101614 1_655
Ru5 Ti3 2.858078 1_555
Ru5 Ti2 2.858080 1_545
Ru5 Ti0 2.875147 1_545
Ru5 Ti1 2.875152 1_544
Ru5 Sc1 3.101612 1_545
Ru5 Sc0 3.101619 1_555
