# generated using pymatgen
data_Ba2InBiTe5
_symmetry_space_group_name_H-M   'P 1'
_cell_length_a   10.65693240
_cell_length_b   10.65693241
_cell_length_c   14.21044651
_cell_angle_alpha   90.00000000
_cell_angle_beta   90.00000000
_cell_angle_gamma   154.90243451
_symmetry_Int_Tables_number   1
_chemical_formula_structural   Ba2InBiTe5
_chemical_formula_sum   'Ba4 In2 Bi2 Te10'
_cell_volume   684.54629398
_cell_formula_units_Z   2
loop_
 _symmetry_equiv_pos_site_id
 _symmetry_equiv_pos_as_xyz
  1  'x, y, z'
loop_
 _atom_site_type_symbol
 _atom_site_label
 _atom_site_symmetry_multiplicity
 _atom_site_fract_x
 _atom_site_fract_y
 _atom_site_fract_z
 _atom_site_occupancy
  Ba  Ba0  1  0.38691302  0.61308698  0.14642153  1
  Ba  Ba1  1  0.61308698  0.38691302  0.64642153  1
  Ba  Ba2  1  0.62780869  0.37219131  0.01947260  1
  Ba  Ba3  1  0.37219131  0.62780869  0.51947260  1
  In  In0  1  0.93708691  0.06291309  0.88928404  1
  In  In1  1  0.06291309  0.93708691  0.38928404  1
  Bi  Bi0  1  0.28518718  0.71481282  0.80825532  1
  Bi  Bi1  1  0.71481282  0.28518718  0.30825532  1
  Te  Te0  1  0.78256518  0.21743482  0.66191510  1
  Te  Te1  1  0.21743482  0.78256518  0.16191510  1
  Te  Te2  1  0.00301567  0.99698433  0.05834944  1
  Te  Te3  1  0.99698433  0.00301567  0.55834944  1
  Te  Te4  1  0.45119853  0.54880147  0.77445869  1
  Te  Te5  1  0.54880147  0.45119853  0.27445869  1
  Te  Te6  1  0.14362872  0.85637128  0.83069116  1
  Te  Te7  1  0.85637128  0.14362872  0.33069116  1
  Te  Te8  1  0.80985582  0.19014418  0.96557012  1
  Te  Te9  1  0.19014418  0.80985582  0.46557012  1
loop_
_geom_bond_atom_site_label_1
_geom_bond_atom_site_label_2
_geom_bond_distance
_geom_bond_site_symmetry_2
Ba0 Te1 3.532811 1_555
Ba0 Te7 3.552722 1_455
Ba0 Te7 3.552722 1_565
Ba0 Te2 3.572418 1_655
Ba0 Te2 3.572418 1_545
Ba0 Te8 3.812631 1_454
Ba0 Te8 3.812631 1_564
Ba0 Te5 3.828075 1_555
Ba1 Te0 3.532811 1_555
Ba1 Te6 3.552722 1_655
Ba1 Te6 3.552722 1_545
Ba1 Te3 3.572418 1_455
Ba1 Te3 3.572418 1_565
Ba1 Te9 3.812631 1_655
Ba1 Te9 3.812631 1_545
Ba1 Te4 3.828075 1_555
Ba2 Te2 3.522379 1_545
Ba2 Te2 3.522379 1_655
Ba2 Te6 3.558975 1_654
Ba2 Te6 3.558975 1_544
Ba2 Te1 3.596587 1_655
Ba2 Te1 3.596587 1_545
Ba2 Te8 3.864117 1_554
Ba2 Te5 3.978860 1_555
Ba3 Te3 3.522379 1_565
Ba3 Te3 3.522379 1_455
Ba3 Te7 3.558975 1_455
Ba3 Te7 3.558975 1_565
Ba3 Te0 3.596587 1_455
Ba3 Te0 3.596587 1_565
Ba3 Te9 3.864117 1_555
Ba3 Te4 3.978860 1_555
In0 Te2 2.766468 1_646
In0 Te4 2.847800 1_655
In0 Te4 2.847800 1_545
In0 Te8 2.860388 1_555
In1 Te3 2.766468 1_465
In1 Te5 2.847800 1_455
In1 Te5 2.847800 1_565
In1 Te9 2.860388 1_555
Bi0 Te6 2.962289 1_555
Bi0 Te0 3.112685 1_455
Bi0 Te0 3.112685 1_565
Bi0 Te8 3.259169 1_565
Bi0 Te8 3.259169 1_455
Bi0 Te4 3.487049 1_555
Bi1 Te7 2.962289 1_555
Bi1 Te1 3.112685 1_655
Bi1 Te1 3.112685 1_545
Bi1 Te9 3.259169 1_545
Bi1 Te9 3.259169 1_655
Bi1 Te5 3.487049 1_555
