# generated using pymatgen
data_Hf3Ta2Si3C
_symmetry_space_group_name_H-M   'P 1'
_cell_length_a   7.72097981
_cell_length_b   7.72098001
_cell_length_c   5.40935032
_cell_angle_alpha   90.00000000
_cell_angle_beta   90.00000000
_cell_angle_gamma   120.00000339
_symmetry_Int_Tables_number   1
_chemical_formula_structural   Hf3Ta2Si3C
_chemical_formula_sum   'Hf6 Ta4 Si6 C2'
_cell_volume   279.26761120
_cell_formula_units_Z   2
loop_
 _symmetry_equiv_pos_site_id
 _symmetry_equiv_pos_as_xyz
  1  'x, y, z'
loop_
 _atom_site_type_symbol
 _atom_site_label
 _atom_site_symmetry_multiplicity
 _atom_site_fract_x
 _atom_site_fract_y
 _atom_site_fract_z
 _atom_site_occupancy
  Hf  Hf0  1  0.23701558  0.00000000  0.25000000  1
  Hf  Hf1  1  0.76298442  1.00000000  0.75000000  1
  Hf  Hf2  1  0.00000000  0.23701558  0.25000000  1
  Hf  Hf3  1  1.00000000  0.76298442  0.75000000  1
  Hf  Hf4  1  0.76298442  0.76298442  0.25000000  1
  Hf  Hf5  1  0.23701558  0.23701558  0.75000000  1
  Ta  Ta0  1  0.33333300  0.66666700  0.00000000  1
  Ta  Ta1  1  0.66666700  0.33333300  0.00000000  1
  Ta  Ta2  1  0.66666700  0.33333300  0.50000000  1
  Ta  Ta3  1  0.33333300  0.66666700  0.50000000  1
  Si  Si0  1  0.59297035  0.00000000  0.25000000  1
  Si  Si1  1  0.40702965  1.00000000  0.75000000  1
  Si  Si2  1  0.00000000  0.59297035  0.25000000  1
  Si  Si3  1  1.00000000  0.40702965  0.75000000  1
  Si  Si4  1  0.40702965  0.40702965  0.25000000  1
  Si  Si5  1  0.59297035  0.59297035  0.75000000  1
  C  C0  1  0.00000000  0.00000000  0.00000000  1
  C  C1  1  0.00000000  0.00000000  0.50000000  1
loop_
_geom_bond_atom_site_label_1
_geom_bond_atom_site_label_2
_geom_bond_distance
_geom_bond_site_symmetry_2
Hf0 Si2 2.733894 1_545
Hf0 Si4 2.733894 1_555
Hf0 Si0 2.748320 1_555
Hf0 Si1 3.006391 1_545
Hf0 Si1 3.006391 1_544
Hf1 Si3 2.733894 1_565
Hf1 Si5 2.733894 1_555
Hf1 Si1 2.748320 1_555
Hf1 Si0 3.006391 1_565
Hf1 Si0 3.006391 1_566
Hf2 Si0 2.733894 1_455
Hf2 Si4 2.733894 1_555
Hf2 Si2 2.748320 1_555
Hf2 Si3 3.006391 1_455
Hf2 Si3 3.006391 1_454
Hf3 Si1 2.733894 1_655
Hf3 Si5 2.733894 1_555
Hf3 Si3 2.748320 1_555
Hf3 Si2 3.006391 1_655
Hf3 Si2 3.006391 1_656
Hf4 Si2 2.733894 1_655
Hf4 Si0 2.733894 1_565
Hf4 Si4 2.748319 1_555
Hf4 Si5 3.006391 1_554
Hf4 Si5 3.006391 1_555
Hf5 Si3 2.733894 1_455
Hf5 Si1 2.733894 1_545
Hf5 Si5 2.748319 1_555
Hf5 Si4 3.006391 1_556
Hf5 Si4 3.006391 1_555
Si0 Ta2 2.704046 1_555
Si0 Ta1 2.704046 1_555
Si0 Ta3 2.704048 1_545
Si0 Ta0 2.704048 1_545
Si1 Ta3 2.704046 1_555
Si1 Ta0 2.704046 1_556
Si1 Ta1 2.704048 1_566
Si1 Ta2 2.704048 1_565
Si2 Ta3 2.704046 1_555
Si2 Ta0 2.704046 1_555
Si2 Ta1 2.704048 1_455
Si2 Ta2 2.704048 1_455
Si3 Ta1 2.704046 1_556
Si3 Ta2 2.704046 1_555
Si3 Ta3 2.704048 1_655
Si3 Ta0 2.704048 1_656
Si4 Ta1 2.704052 1_555
Si4 Ta2 2.704052 1_555
Si4 Ta3 2.704053 1_555
Si4 Ta0 2.704053 1_555
Si5 Ta3 2.704052 1_555
Si5 Ta0 2.704052 1_556
Si5 Ta2 2.704053 1_555
Si5 Ta1 2.704053 1_556
C0 Hf5 2.275454 1_554
C0 Hf4 2.275454 1_445
C0 Hf0 2.275454 1_555
C0 Hf1 2.275454 1_444
C0 Hf3 2.275454 1_444
C0 Hf2 2.275454 1_555
C1 Hf5 2.275454 1_555
C1 Hf4 2.275454 1_445
C1 Hf0 2.275454 1_555
C1 Hf1 2.275454 1_445
C1 Hf3 2.275454 1_445
C1 Hf2 2.275454 1_555
