# generated using pymatgen
data_Nb5B2P
_symmetry_space_group_name_H-M   'P 1'
_cell_length_a   7.27420987
_cell_length_b   7.27420958
_cell_length_c   7.27421014
_cell_angle_alpha   129.31480885
_cell_angle_beta   129.31480930
_cell_angle_gamma   74.50455874
_symmetry_Int_Tables_number   1
_chemical_formula_structural   Nb5B2P
_chemical_formula_sum   'Nb10 B4 P2'
_cell_volume   224.52600208
_cell_formula_units_Z   2
loop_
 _symmetry_equiv_pos_site_id
 _symmetry_equiv_pos_as_xyz
  1  'x, y, z'
loop_
 _atom_site_type_symbol
 _atom_site_label
 _atom_site_symmetry_multiplicity
 _atom_site_fract_x
 _atom_site_fract_y
 _atom_site_fract_z
 _atom_site_occupancy
  Nb  Nb0  1  0.00000000  0.00000000  0.00000000  1
  Nb  Nb1  1  0.50000000  0.50000000  0.00000000  1
  Nb  Nb2  1  0.80864695  0.30864695  0.83672259  1
  Nb  Nb3  1  0.19135305  0.69135305  0.16327741  1
  Nb  Nb4  1  0.47192336  0.97192336  0.16327741  1
  Nb  Nb5  1  0.30864695  0.47192336  0.50000000  1
  Nb  Nb6  1  0.02807664  0.19135305  0.50000000  1
  Nb  Nb7  1  0.52807664  0.02807664  0.83672259  1
  Nb  Nb8  1  0.69135305  0.52807664  0.50000000  1
  Nb  Nb9  1  0.97192336  0.80864695  0.50000000  1
  B  B0  1  0.11273029  0.61273029  0.72545958  1
  B  B1  1  0.88726971  0.38726971  0.27454042  1
  B  B2  1  0.61273029  0.88726971  0.50000000  1
  B  B3  1  0.38726971  0.11273029  0.50000000  1
  P  P0  1  0.25000000  0.25000000  0.00000000  1
  P  P1  1  0.75000000  0.75000000  0.00000000  1
loop_
_geom_bond_atom_site_label_1
_geom_bond_atom_site_label_2
_geom_bond_distance
_geom_bond_site_symmetry_2
Nb0 P1 2.895055 1_445
Nb0 P0 2.895055 1_555
Nb1 P1 2.895055 1_555
Nb1 P0 2.895055 1_555
Nb2 P1 2.641646 1_556
Nb2 P0 2.641646 1_656
Nb3 P0 2.641646 1_555
Nb3 P1 2.641646 1_455
Nb4 P0 2.641652 1_565
Nb4 P1 2.641652 1_555
Nb5 P1 2.641648 1_556
Nb5 P0 2.641648 1_555
Nb6 P1 2.641648 1_445
Nb6 P0 2.641648 1_556
Nb7 P1 2.641652 1_546
Nb7 P0 2.641652 1_556
Nb8 P0 2.641648 1_555
Nb8 P1 2.641648 1_556
Nb9 P0 2.641648 1_666
Nb9 P1 2.641648 1_555
B0 B1 1.985517 1_455
B0 Nb9 2.413091 1_455
B0 Nb5 2.413091 1_555
B0 Nb6 2.413099 1_555
B0 Nb8 2.413099 1_455
B0 Nb0 2.511686 1_566
B0 Nb1 2.511686 1_556
B0 Nb4 2.521030 1_556
B0 Nb3 2.521045 1_556
B1 Nb6 2.413091 1_655
B1 Nb8 2.413091 1_555
B1 Nb9 2.413099 1_555
B1 Nb5 2.413099 1_655
B1 Nb0 2.511686 1_655
B1 Nb1 2.511686 1_555
B1 Nb7 2.521030 1_554
B1 Nb2 2.521045 1_554
B2 B3 1.985526 1_565
B2 Nb4 2.413090 1_555
B2 Nb7 2.413090 1_565
B2 Nb2 2.413098 1_565
B2 Nb3 2.413098 1_555
B2 Nb1 2.511684 1_555
B2 Nb0 2.511684 1_666
B2 Nb8 2.521031 1_555
B2 Nb9 2.521031 1_555
B3 Nb7 2.413090 1_555
B3 Nb4 2.413090 1_545
B3 Nb3 2.413098 1_545
B3 Nb2 2.413098 1_555
B3 Nb1 2.511684 1_556
B3 Nb0 2.511684 1_555
B3 Nb5 2.521031 1_555
B3 Nb6 2.521031 1_555
