# generated using pymatgen
data_Rb2Te
_symmetry_space_group_name_H-M   'P 1'
_cell_length_a   6.10970365
_cell_length_b   7.95255714
_cell_length_c   10.57119858
_cell_angle_alpha   90.00000000
_cell_angle_beta   90.00000000
_cell_angle_gamma   90.00000000
_symmetry_Int_Tables_number   1
_chemical_formula_structural   Rb2Te
_chemical_formula_sum   'Rb8 Te4'
_cell_volume   513.63093759
_cell_formula_units_Z   4
loop_
 _symmetry_equiv_pos_site_id
 _symmetry_equiv_pos_as_xyz
  1  'x, y, z'
loop_
 _atom_site_type_symbol
 _atom_site_label
 _atom_site_symmetry_multiplicity
 _atom_site_fract_x
 _atom_site_fract_y
 _atom_site_fract_z
 _atom_site_occupancy
  Rb  Rb0  1  0.75000000  0.99966804  0.75122974  1
  Rb  Rb1  1  0.25000000  0.00033196  0.24877026  1
  Rb  Rb2  1  0.75000000  0.49966804  0.74877026  1
  Rb  Rb3  1  0.25000000  0.50033196  0.25122974  1
  Rb  Rb4  1  0.75000000  0.75172641  0.41674714  1
  Rb  Rb5  1  0.25000000  0.24827359  0.58325286  1
  Rb  Rb6  1  0.75000000  0.25172641  0.08325286  1
  Rb  Rb7  1  0.25000000  0.74827359  0.91674714  1
  Te  Te0  1  0.75000000  0.75003541  0.08333207  1
  Te  Te1  1  0.25000000  0.24996459  0.91666793  1
  Te  Te2  1  0.75000000  0.25003541  0.41666793  1
  Te  Te3  1  0.25000000  0.74996459  0.58333207  1
loop_
_geom_bond_atom_site_label_1
_geom_bond_atom_site_label_2
_geom_bond_distance
_geom_bond_site_symmetry_2
Rb0 Te0 4.033143 1_556
Rb0 Te1 4.043857 1_565
Rb0 Te1 4.043857 1_665
Rb0 Te3 4.052856 1_555
Rb0 Te3 4.052856 1_655
Rb0 Te2 4.058658 1_565
Rb1 Te1 4.033143 1_554
Rb1 Te0 4.043857 1_445
Rb1 Te0 4.043857 1_545
Rb1 Te2 4.052856 1_555
Rb1 Te2 4.052856 1_455
Rb1 Te3 4.058658 1_545
Rb2 Te2 4.033143 1_555
Rb2 Te3 4.043857 1_555
Rb2 Te3 4.043857 1_655
Rb2 Te1 4.052856 1_655
Rb2 Te1 4.052856 1_555
Rb2 Te0 4.058658 1_556
Rb3 Te3 4.033143 1_555
Rb3 Te2 4.043857 1_555
Rb3 Te2 4.043857 1_455
Rb3 Te0 4.052856 1_455
Rb3 Te0 4.052856 1_555
Rb3 Te1 4.058658 1_554
Rb4 Te0 3.524623 1_555
Rb4 Te3 3.526109 1_555
Rb4 Te3 3.526109 1_655
Rb4 Te2 3.962831 1_565
Rb4 Te2 3.989726 1_555
Rb5 Te1 3.524623 1_555
Rb5 Te2 3.526109 1_455
Rb5 Te2 3.526109 1_555
Rb5 Te3 3.962831 1_545
Rb5 Te3 3.989726 1_555
Rb6 Te2 3.524623 1_555
Rb6 Te1 3.526109 1_554
Rb6 Te1 3.526109 1_654
Rb6 Te0 3.962831 1_555
Rb6 Te0 3.989726 1_545
Rb7 Te3 3.524623 1_555
Rb7 Te0 3.526109 1_456
Rb7 Te0 3.526109 1_556
Rb7 Te1 3.962831 1_555
Rb7 Te1 3.989726 1_565
