# generated using pymatgen
data_NaSr2Cd2Bi3
_symmetry_space_group_name_H-M   'P 1'
_cell_length_a   4.90128506
_cell_length_b   12.96927546
_cell_length_c   16.54839527
_cell_angle_alpha   90.00000000
_cell_angle_beta   90.00000000
_cell_angle_gamma   90.00000000
_symmetry_Int_Tables_number   1
_chemical_formula_structural   NaSr2Cd2Bi3
_chemical_formula_sum   'Na4 Sr8 Cd8 Bi12'
_cell_volume   1051.91721518
_cell_formula_units_Z   4
loop_
 _symmetry_equiv_pos_site_id
 _symmetry_equiv_pos_as_xyz
  1  'x, y, z'
loop_
 _atom_site_type_symbol
 _atom_site_label
 _atom_site_symmetry_multiplicity
 _atom_site_fract_x
 _atom_site_fract_y
 _atom_site_fract_z
 _atom_site_occupancy
  Na  Na0  1  0.25000000  0.39731026  0.55282340  1
  Na  Na1  1  0.75000000  0.10268974  0.05282340  1
  Na  Na2  1  0.25000000  0.89731026  0.94717660  1
  Na  Na3  1  0.75000000  0.60268974  0.44717660  1
  Sr  Sr0  1  0.25000000  0.37318934  0.28628226  1
  Sr  Sr1  1  0.75000000  0.12681066  0.78628226  1
  Sr  Sr2  1  0.25000000  0.87318934  0.21371774  1
  Sr  Sr3  1  0.75000000  0.62681066  0.71371774  1
  Sr  Sr4  1  0.25000000  0.10859254  0.42794862  1
  Sr  Sr5  1  0.75000000  0.39140746  0.92794862  1
  Sr  Sr6  1  0.25000000  0.60859254  0.07205138  1
  Sr  Sr7  1  0.75000000  0.89140746  0.57205138  1
  Cd  Cd0  1  0.25000000  0.30935831  0.08040225  1
  Cd  Cd1  1  0.75000000  0.19064169  0.58040225  1
  Cd  Cd2  1  0.25000000  0.80935831  0.41959775  1
  Cd  Cd3  1  0.75000000  0.69064169  0.91959775  1
  Cd  Cd4  1  0.25000000  0.34828167  0.78643963  1
  Cd  Cd5  1  0.75000000  0.15171833  0.28643963  1
  Cd  Cd6  1  0.25000000  0.84828167  0.71356037  1
  Cd  Cd7  1  0.75000000  0.65171833  0.21356037  1
  Bi  Bi0  1  0.25000000  0.13075238  0.19228047  1
  Bi  Bi1  1  0.75000000  0.36924762  0.69228047  1
  Bi  Bi2  1  0.25000000  0.63075238  0.30771953  1
  Bi  Bi3  1  0.75000000  0.86924762  0.80771953  1
  Bi  Bi4  1  0.25000000  0.69215573  0.57362006  1
  Bi  Bi5  1  0.75000000  0.80784427  0.07362006  1
  Bi  Bi6  1  0.25000000  0.19215573  0.92637994  1
  Bi  Bi7  1  0.75000000  0.30784427  0.42637994  1
  Bi  Bi8  1  0.25000000  0.06877713  0.63363401  1
  Bi  Bi9  1  0.75000000  0.43122287  0.13363401  1
  Bi  Bi10  1  0.25000000  0.56877713  0.86636599  1
  Bi  Bi11  1  0.75000000  0.93122287  0.36636599  1
loop_
_geom_bond_atom_site_label_1
_geom_bond_atom_site_label_2
_geom_bond_distance
_geom_bond_site_symmetry_2
Cd0 Sr0 3.506118 1_555
Cd0 Sr5 3.674620 1_554
Cd0 Sr5 3.674620 1_454
Cd1 Sr1 3.506118 1_555
Cd1 Sr4 3.674620 1_555
Cd1 Sr4 3.674620 1_655
Cd2 Sr2 3.506118 1_555
Cd2 Sr7 3.674620 1_455
Cd2 Sr7 3.674620 1_555
Cd3 Sr3 3.506118 1_555
Cd3 Sr6 3.674620 1_556
Cd3 Sr6 3.674620 1_656
Cd4 Sr5 3.435441 1_455
Cd4 Sr5 3.435441 1_555
Cd4 Sr1 3.775695 1_555
Cd4 Sr1 3.775695 1_455
Cd5 Sr4 3.435441 1_555
Cd5 Sr4 3.435441 1_655
Cd5 Sr0 3.775695 1_655
Cd5 Sr0 3.775695 1_555
Cd6 Sr7 3.435441 1_555
Cd6 Sr7 3.435441 1_455
Cd6 Sr3 3.775695 1_455
Cd6 Sr3 3.775695 1_555
Cd7 Sr6 3.435441 1_655
Cd7 Sr6 3.435441 1_555
Cd7 Sr2 3.775695 1_655
Cd7 Sr2 3.775695 1_555
Bi0 Cd5 2.916765 1_455
Bi0 Cd5 2.916765 1_555
Bi0 Cd0 2.965360 1_555
Bi0 Sr2 3.359191 1_545
Bi0 Na1 3.385854 1_555
Bi0 Na1 3.385854 1_455
Bi0 Sr0 3.507993 1_555
Bi1 Cd4 2.916765 1_655
Bi1 Cd4 2.916765 1_555
Bi1 Cd1 2.965360 1_555
Bi1 Sr3 3.359191 1_555
Bi1 Na0 3.385854 1_555
Bi1 Na0 3.385854 1_655
Bi1 Sr1 3.507993 1_555
Bi2 Cd7 2.916765 1_555
Bi2 Cd7 2.916765 1_455
Bi2 Cd2 2.965360 1_555
Bi2 Sr0 3.359191 1_555
Bi2 Na3 3.385854 1_555
Bi2 Na3 3.385854 1_455
Bi2 Sr2 3.507993 1_555
Bi3 Cd6 2.916765 1_655
Bi3 Cd6 2.916765 1_555
Bi3 Cd3 2.965360 1_555
Bi3 Sr1 3.359191 1_565
Bi3 Na2 3.385854 1_555
Bi3 Na2 3.385854 1_655
Bi3 Sr3 3.507993 1_555
Bi4 Cd2 2.967658 1_555
Bi4 Cd6 3.076175 1_555
Bi4 Na3 3.424946 1_555
Bi4 Na3 3.424946 1_455
Bi4 Sr3 3.478334 1_455
Bi4 Sr3 3.478334 1_555
Bi4 Sr7 3.561482 1_555
Bi4 Sr7 3.561482 1_455
Bi4 Na0 3.839388 1_555
Bi5 Cd3 2.967658 1_554
Bi5 Cd7 3.076175 1_555
Bi5 Na2 3.424946 1_554
Bi5 Na2 3.424946 1_654
Bi5 Sr2 3.478334 1_555
Bi5 Sr2 3.478334 1_655
Bi5 Sr6 3.561482 1_655
Bi5 Sr6 3.561482 1_555
Bi5 Na1 3.839388 1_565
Bi6 Cd0 2.967658 1_556
Bi6 Cd4 3.076175 1_555
Bi6 Na1 3.424946 1_556
Bi6 Na1 3.424946 1_456
Bi6 Sr1 3.478334 1_455
Bi6 Sr1 3.478334 1_555
Bi6 Sr5 3.561482 1_555
Bi6 Sr5 3.561482 1_455
Bi6 Na2 3.839388 1_545
Bi7 Cd1 2.967658 1_555
Bi7 Cd5 3.076175 1_555
Bi7 Na0 3.424946 1_555
Bi7 Na0 3.424946 1_655
Bi7 Sr0 3.478334 1_555
Bi7 Sr0 3.478334 1_655
Bi7 Sr4 3.561482 1_555
Bi7 Sr4 3.561482 1_655
Bi7 Na3 3.839388 1_555
Bi8 Cd1 3.046243 1_555
Bi8 Cd1 3.046243 1_455
Bi8 Cd6 3.150730 1_545
Bi8 Sr4 3.442709 1_555
Bi8 Sr7 3.512241 1_445
Bi8 Sr7 3.512241 1_545
Bi8 Sr1 3.599060 1_455
Bi8 Sr1 3.599060 1_555
Bi9 Cd0 3.046243 1_655
Bi9 Cd0 3.046243 1_555
Bi9 Cd7 3.150730 1_555
Bi9 Sr5 3.442709 1_554
Bi9 Sr6 3.512241 1_655
Bi9 Sr6 3.512241 1_555
Bi9 Sr0 3.599060 1_555
Bi9 Sr0 3.599060 1_655
Bi10 Cd3 3.046243 1_455
Bi10 Cd3 3.046243 1_555
Bi10 Cd4 3.150730 1_555
Bi10 Sr6 3.442709 1_556
Bi10 Sr5 3.512241 1_455
Bi10 Sr5 3.512241 1_555
Bi10 Sr3 3.599060 1_455
Bi10 Sr3 3.599060 1_555
Bi11 Cd2 3.046243 1_555
Bi11 Cd2 3.046243 1_655
Bi11 Cd5 3.150730 1_565
Bi11 Sr7 3.442709 1_555
Bi11 Sr4 3.512241 1_565
Bi11 Sr4 3.512241 1_665
Bi11 Sr2 3.599060 1_655
Bi11 Sr2 3.599060 1_555
