# generated using pymatgen
data_Be8ReW3
_symmetry_space_group_name_H-M   'P 1'
_cell_length_a   4.41456487
_cell_length_b   4.41456572
_cell_length_c   7.27297105
_cell_angle_alpha   90.00000000
_cell_angle_beta   90.00000000
_cell_angle_gamma   120.00000840
_symmetry_Int_Tables_number   1
_chemical_formula_structural   Be8ReW3
_chemical_formula_sum   'Be8 Re1 W3'
_cell_volume   122.74910765
_cell_formula_units_Z   1
loop_
 _symmetry_equiv_pos_site_id
 _symmetry_equiv_pos_as_xyz
  1  'x, y, z'
loop_
 _atom_site_type_symbol
 _atom_site_label
 _atom_site_symmetry_multiplicity
 _atom_site_fract_x
 _atom_site_fract_y
 _atom_site_fract_z
 _atom_site_occupancy
  Be  Be0  1  0.00000000  0.00000000  0.00192300  1
  Be  Be1  1  0.00000000  0.00000000  0.49958960  1
  Be  Be2  1  0.83013631  0.66027263  0.25091175  1
  Be  Be3  1  0.16999952  0.83000048  0.74909133  1
  Be  Be4  1  0.66000096  0.83000048  0.74909133  1
  Be  Be5  1  0.33972737  0.16986369  0.25091175  1
  Be  Be6  1  0.83013631  0.16986369  0.25091175  1
  Be  Be7  1  0.16999952  0.33999904  0.74909133  1
  Re  Re0  1  0.33333300  0.66666700  0.43735217  1
  W  W0  1  0.33333300  0.66666700  0.06380438  1
  W  W1  1  0.66666700  0.33333300  0.56081121  1
  W  W2  1  0.66666700  0.33333300  0.93650939  1
loop_
_geom_bond_atom_site_label_1
_geom_bond_atom_site_label_2
_geom_bond_distance
_geom_bond_site_symmetry_2
Be0 Be5 2.228508 1_555
Be0 Be2 2.228508 1_445
Be0 Be6 2.228509 1_455
Be0 Be4 2.251878 1_444
Be0 Be7 2.251878 1_554
Be0 Be3 2.251879 1_544
Be0 W0 2.588179 1_545
Be0 W0 2.588182 1_445
Be0 W0 2.588183 1_555
Be0 W2 2.592770 1_454
Be0 W2 2.592773 1_554
Be0 W2 2.592774 1_444
Be1 Be5 2.226671 1_555
Be1 Be2 2.226671 1_445
Be1 Be6 2.226671 1_455
Be1 Be4 2.232146 1_445
Be1 Be7 2.232146 1_555
Be1 Be3 2.232146 1_545
Be1 W1 2.587349 1_455
Be1 W1 2.587352 1_555
Be1 W1 2.587353 1_445
Be1 Re0 2.588631 1_545
Be1 Re0 2.588634 1_445
Be1 Re0 2.588634 1_555
Be2 Be5 2.164942 1_555
Be2 Be6 2.164942 1_555
Be2 Be5 2.249623 1_665
Be2 Be6 2.249623 1_565
Be2 W1 2.577275 1_555
Be2 Re0 2.590628 1_655
Be2 Re0 2.590632 1_555
Be2 W0 2.593170 1_655
Be2 W0 2.593174 1_555
Be2 W2 2.605964 1_554
Be3 Be4 2.163143 1_555
Be3 Be7 2.163144 1_555
Be3 Be4 2.251422 1_455
Be3 Be7 2.251422 1_565
Be3 Re0 2.588481 1_555
Be3 W2 2.594369 1_455
Be3 W2 2.594369 1_565
Be3 W1 2.597668 1_455
Be3 W1 2.597668 1_565
Be3 W0 2.607447 1_556
Be4 Be7 2.163143 1_555
Be4 Be7 2.251422 1_665
Be4 Re0 2.588483 1_555
Be4 W2 2.594367 1_565
Be4 W2 2.594371 1_555
Be4 W1 2.597667 1_565
Be4 W1 2.597671 1_555
Be4 W0 2.607449 1_556
Be5 Be6 2.164942 1_555
Be5 Be6 2.249623 1_455
Be5 W1 2.577275 1_555
Be5 Re0 2.590628 1_545
Be5 Re0 2.590632 1_555
Be5 W0 2.593171 1_545
Be5 W0 2.593174 1_555
Be5 W2 2.605964 1_554
Be6 W1 2.577273 1_555
Be6 Re0 2.590630 1_655
Be6 Re0 2.590630 1_545
Be6 W0 2.593172 1_655
Be6 W0 2.593172 1_545
Be6 W2 2.605962 1_554
Be7 Re0 2.588483 1_555
Be7 W2 2.594367 1_455
Be7 W2 2.594371 1_555
Be7 W1 2.597666 1_455
Be7 W1 2.597670 1_555
Be7 W0 2.607449 1_556
Re0 W1 2.702289 1_455
Re0 W1 2.702289 1_565
Re0 W1 2.702296 1_555
Re0 W0 2.716802 1_555
W0 W2 2.711686 1_454
W0 W2 2.711687 1_564
W0 W2 2.711694 1_554
W1 W2 2.732442 1_555
