# generated using pymatgen
data_Rb3Li2GeAs3
_symmetry_space_group_name_H-M   'P 1'
_cell_length_a   10.22117657
_cell_length_b   10.22117761
_cell_length_c   15.70765881
_cell_angle_alpha   90.00000000
_cell_angle_beta   90.00000000
_cell_angle_gamma   143.09153321
_symmetry_Int_Tables_number   1
_chemical_formula_structural   Rb3Li2GeAs3
_chemical_formula_sum   'Rb12 Li8 Ge4 As12'
_cell_volume   985.49417299
_cell_formula_units_Z   4
loop_
 _symmetry_equiv_pos_site_id
 _symmetry_equiv_pos_as_xyz
  1  'x, y, z'
loop_
 _atom_site_type_symbol
 _atom_site_label
 _atom_site_symmetry_multiplicity
 _atom_site_fract_x
 _atom_site_fract_y
 _atom_site_fract_z
 _atom_site_occupancy
  Rb  Rb0  1  0.60245895  0.93788084  0.83042061  1
  Rb  Rb1  1  0.27405474  0.27405474  0.32557987  1
  Rb  Rb2  1  0.22594526  0.22594526  0.82557987  1
  Rb  Rb3  1  0.72594526  0.72594526  0.67442013  1
  Rb  Rb4  1  0.43788084  0.10245895  0.66957939  1
  Rb  Rb5  1  0.89754105  0.56211916  0.33042061  1
  Rb  Rb6  1  0.06211916  0.39754105  0.16957939  1
  Rb  Rb7  1  0.39754105  0.06211916  0.16957939  1
  Rb  Rb8  1  0.56211916  0.89754105  0.33042061  1
  Rb  Rb9  1  0.10245895  0.43788084  0.66957939  1
  Rb  Rb10  1  0.93788084  0.60245895  0.83042061  1
  Rb  Rb11  1  0.77405474  0.77405474  0.17442013  1
  Li  Li0  1  0.08233962  0.91766038  0.00000000  1
  Li  Li1  1  0.58233962  0.41766038  0.50000000  1
  Li  Li2  1  0.91766038  0.08233962  0.00000000  1
  Li  Li3  1  0.75222074  0.24777926  0.00000000  1
  Li  Li4  1  0.74777926  0.25222074  0.50000000  1
  Li  Li5  1  0.24777926  0.75222074  0.00000000  1
  Li  Li6  1  0.25222074  0.74777926  0.50000000  1
  Li  Li7  1  0.41766038  0.58233962  0.50000000  1
  Ge  Ge0  1  0.08922837  0.91077163  0.50000000  1
  Ge  Ge1  1  0.41077163  0.58922837  0.00000000  1
  Ge  Ge2  1  0.91077163  0.08922837  0.50000000  1
  Ge  Ge3  1  0.58922837  0.41077163  0.00000000  1
  As  As0  1  0.06830523  0.39021173  0.41195943  1
  As  As1  1  0.89021173  0.56830523  0.08804057  1
  As  As2  1  0.43169477  0.10978827  0.91195943  1
  As  As3  1  0.60978827  0.93169477  0.58804057  1
  As  As4  1  0.93169477  0.60978827  0.58804057  1
  As  As5  1  0.10978827  0.43169477  0.91195943  1
  As  As6  1  0.56830523  0.89021173  0.08804057  1
  As  As7  1  0.39021173  0.06830523  0.41195943  1
  As  As8  1  0.20986380  0.20986380  0.58183025  1
  As  As9  1  0.70986380  0.70986380  0.91816975  1
  As  As10  1  0.29013620  0.29013620  0.08183025  1
  As  As11  1  0.79013620  0.79013620  0.41816975  1
loop_
_geom_bond_atom_site_label_1
_geom_bond_atom_site_label_2
_geom_bond_distance
_geom_bond_site_symmetry_2
Li0 Rb7 3.470967 1_565
Li0 Rb10 3.470967 1_454
Li1 Rb5 3.470967 1_555
Li1 Rb4 3.470967 1_555
Li2 Rb0 3.470967 1_544
Li2 Rb6 3.470967 1_655
Li3 Rb6 3.423116 1_655
Li3 Rb0 3.423116 1_544
Li3 Rb7 3.582898 1_555
Li3 Rb10 3.582898 1_554
Li4 Rb4 3.423116 1_555
Li4 Rb5 3.423116 1_555
Li4 Rb9 3.582898 1_655
Li4 Rb8 3.582898 1_545
Li5 Rb10 3.423116 1_454
Li5 Rb7 3.423116 1_565
Li5 Rb0 3.582898 1_554
Li5 Rb6 3.582898 1_555
Li6 Rb8 3.423116 1_555
Li6 Rb9 3.423116 1_555
Li6 Rb5 3.582898 1_455
Li6 Rb4 3.582898 1_565
Li7 Rb9 3.470967 1_555
Li7 Rb8 3.470967 1_555
Ge0 Rb4 3.530972 1_565
Ge0 Rb5 3.530972 1_455
Ge1 Rb6 3.530972 1_555
Ge1 Rb0 3.530972 1_554
Ge2 Rb8 3.530972 1_545
Ge2 Rb9 3.530972 1_655
Ge3 Rb10 3.530972 1_554
Ge3 Rb7 3.530972 1_555
As0 Ge2 2.459205 1_455
As0 Li4 2.691730 1_455
As0 Li7 2.702892 1_555
As0 Li6 2.795801 1_555
As0 Rb1 3.415560 1_555
As0 Rb8 3.478794 1_445
As0 Rb8 3.485668 1_555
As0 Rb5 3.560722 1_455
As0 Rb6 3.809479 1_555
As1 Ge3 2.459205 1_555
As1 Li3 2.691730 1_555
As1 Li0 2.702892 1_655
As1 Li5 2.795801 1_655
As1 Rb11 3.415560 1_555
As1 Rb7 3.478794 1_555
As1 Rb7 3.485668 1_665
As1 Rb6 3.560722 1_655
As1 Rb5 3.809479 1_555
As2 Ge3 2.459205 1_556
As2 Li3 2.691730 1_556
As2 Li0 2.702892 1_546
As2 Li5 2.795801 1_546
As2 Rb2 3.415560 1_555
As2 Rb10 3.478794 1_555
As2 Rb10 3.485668 1_445
As2 Rb0 3.560722 1_545
As2 Rb4 3.809479 1_555
As3 Ge2 2.459205 1_565
As3 Li4 2.691730 1_565
As3 Li7 2.702892 1_555
As3 Li6 2.795801 1_555
As3 Rb3 3.415560 1_555
As3 Rb9 3.478794 1_665
As3 Rb9 3.485668 1_555
As3 Rb4 3.560722 1_565
As3 Rb0 3.809479 1_555
As4 Ge0 2.459205 1_655
As4 Li6 2.691730 1_655
As4 Li1 2.702892 1_555
As4 Li4 2.795801 1_555
As4 Rb3 3.415560 1_555
As4 Rb4 3.478794 1_665
As4 Rb4 3.485668 1_555
As4 Rb9 3.560722 1_655
As4 Rb10 3.809479 1_555
As5 Ge1 2.459205 1_556
As5 Li5 2.691730 1_556
As5 Li2 2.702892 1_456
As5 Li3 2.795801 1_456
As5 Rb2 3.415560 1_555
As5 Rb0 3.478794 1_555
As5 Rb0 3.485668 1_445
As5 Rb10 3.560722 1_455
As5 Rb9 3.809479 1_555
As6 Ge1 2.459205 1_555
As6 Li5 2.691730 1_555
As6 Li2 2.702892 1_565
As6 Li3 2.795801 1_565
As6 Rb11 3.415560 1_555
As6 Rb6 3.478794 1_555
As6 Rb6 3.485668 1_665
As6 Rb7 3.560722 1_565
As6 Rb8 3.809479 1_555
As7 Ge0 2.459205 1_545
As7 Li6 2.691730 1_545
As7 Li1 2.702892 1_555
As7 Li4 2.795801 1_555
As7 Rb1 3.415560 1_555
As7 Rb5 3.478794 1_445
As7 Rb5 3.485668 1_555
As7 Rb8 3.560722 1_545
As7 Rb7 3.809479 1_555
As8 Ge2 2.547569 1_455
As8 Ge0 2.547569 1_545
As8 Li1 2.779629 1_555
As8 Li7 2.779629 1_555
As8 Rb3 3.452679 1_445
As8 Rb4 3.553630 1_555
As8 Rb9 3.553630 1_555
As8 Rb3 3.642494 1_555
As8 Rb2 3.830150 1_555
As9 Ge1 2.547569 1_556
As9 Ge3 2.547569 1_556
As9 Li0 2.779629 1_656
As9 Li2 2.779629 1_566
As9 Rb2 3.452679 1_555
As9 Rb10 3.553630 1_555
As9 Rb0 3.553630 1_555
As9 Rb2 3.642494 1_665
As9 Rb3 3.830150 1_555
As10 Ge3 2.547569 1_555
As10 Ge1 2.547569 1_555
As10 Li2 2.779629 1_455
As10 Li0 2.779629 1_545
As10 Rb11 3.452679 1_555
As10 Rb6 3.553630 1_555
As10 Rb7 3.553630 1_555
As10 Rb11 3.642494 1_445
As10 Rb1 3.830150 1_555
As11 Ge0 2.547569 1_655
As11 Ge2 2.547569 1_565
As11 Li7 2.779629 1_555
As11 Li1 2.779629 1_555
As11 Rb1 3.452679 1_665
As11 Rb8 3.553630 1_555
As11 Rb5 3.553630 1_555
As11 Rb1 3.642494 1_555
As11 Rb11 3.830150 1_555
