# generated using pymatgen
data_Cs2Mg(PSe3)2
_symmetry_space_group_name_H-M   'P 1'
_cell_length_a   13.16292054
_cell_length_b   6.48931245
_cell_length_c   10.09456450
_cell_angle_alpha   53.43911477
_cell_angle_beta   90.00000000
_cell_angle_gamma   90.00000000
_symmetry_Int_Tables_number   1
_chemical_formula_structural   Cs2Mg(PSe3)2
_chemical_formula_sum   'Cs4 Mg2 P4 Se12'
_cell_volume   692.58866888
_cell_formula_units_Z   2
loop_
 _symmetry_equiv_pos_site_id
 _symmetry_equiv_pos_as_xyz
  1  'x, y, z'
loop_
 _atom_site_type_symbol
 _atom_site_label
 _atom_site_symmetry_multiplicity
 _atom_site_fract_x
 _atom_site_fract_y
 _atom_site_fract_z
 _atom_site_occupancy
  Cs  Cs0  1  0.67049220  0.22442903  0.52387440  1
  Cs  Cs1  1  0.17049220  0.77557097  0.97612560  1
  Cs  Cs2  1  0.32950780  0.77557097  0.47612560  1
  Cs  Cs3  1  0.82950780  0.22442903  0.02387440  1
  Mg  Mg0  1  0.00000000  0.50000000  0.50000000  1
  Mg  Mg1  1  0.50000000  0.50000000  0.00000000  1
  P  P0  1  0.03854576  0.15955292  0.38307490  1
  P  P1  1  0.53854576  0.84044708  0.11692510  1
  P  P2  1  0.96145424  0.84044708  0.61692510  1
  P  P3  1  0.46145424  0.15955292  0.88307490  1
  Se  Se0  1  0.16644855  0.27317330  0.46379446  1
  Se  Se1  1  0.66644855  0.72682670  0.03620554  1
  Se  Se2  1  0.83355145  0.72682670  0.53620554  1
  Se  Se3  1  0.33355145  0.27317330  0.96379446  1
  Se  Se4  1  0.92696622  0.46914547  0.25781593  1
  Se  Se5  1  0.42696622  0.53085453  0.24218407  1
  Se  Se6  1  0.07303378  0.53085453  0.74218407  1
  Se  Se7  1  0.57303378  0.46914547  0.75781593  1
  Se  Se8  1  0.07818809  0.99099390  0.25783510  1
  Se  Se9  1  0.57818809  0.00900610  0.24216490  1
  Se  Se10  1  0.92181191  0.00900610  0.74216490  1
  Se  Se11  1  0.42181191  0.99099390  0.75783510  1
loop_
_geom_bond_atom_site_label_1
_geom_bond_atom_site_label_2
_geom_bond_distance
_geom_bond_site_symmetry_2
Cs0 Se10 3.752801 1_555
Cs0 Se7 3.769913 1_555
Cs0 Se11 3.784858 1_545
Cs0 Se2 3.817127 1_545
Cs0 Se5 3.946999 1_555
Cs0 Se2 3.966704 1_555
Cs0 Se1 3.968039 1_555
Cs0 Se4 4.006359 1_555
Cs0 Se9 4.031548 1_555
Cs0 P1 4.038327 1_555
Cs0 Se1 4.157074 1_546
Cs0 Se7 4.177993 1_545
Cs0 Se9 4.270367 1_565
Cs1 Se11 3.752801 1_555
Cs1 Se6 3.769913 1_555
Cs1 Se10 3.784858 1_465
Cs1 Se3 3.817127 1_565
Cs1 Se4 3.946999 1_456
Cs1 Se3 3.966704 1_555
Cs1 Se0 3.968039 1_556
Cs1 Se5 4.006359 1_556
Cs1 Se8 4.031548 1_556
Cs1 P0 4.038327 1_556
Cs1 Se0 4.157074 1_565
Cs1 Se6 4.177993 1_565
Cs1 Se8 4.270367 1_546
Cs2 Se8 3.752801 1_555
Cs2 Se5 3.769913 1_555
Cs2 Se9 3.784858 1_565
Cs2 Se0 3.817127 1_565
Cs2 Se7 3.946999 1_555
Cs2 Se0 3.966704 1_555
Cs2 Se3 3.968039 1_555
Cs2 Se6 4.006359 1_555
Cs2 Se11 4.031548 1_555
Cs2 P3 4.038327 1_555
Cs2 Se3 4.157074 1_564
Cs2 Se5 4.177993 1_565
Cs2 Se11 4.270367 1_545
Cs3 Se9 3.752801 1_555
Cs3 Se4 3.769913 1_555
Cs3 Se8 3.784858 1_645
Cs3 Se1 3.817127 1_545
Cs3 Se6 3.946999 1_654
Cs3 Se1 3.966704 1_555
Cs3 Se2 3.968039 1_554
Cs3 Se7 4.006359 1_554
Cs3 Se10 4.031548 1_554
Cs3 P2 4.038327 1_554
Cs3 Se2 4.157074 1_545
Cs3 Se4 4.177993 1_545
Cs3 Se10 4.270367 1_564
Mg0 Se6 2.743026 1_555
Mg0 Se4 2.743026 1_455
Mg0 Se0 2.782333 1_555
Mg0 Se2 2.782333 1_455
Mg0 Se8 2.812066 1_555
Mg0 Se10 2.812066 1_455
Mg1 Se5 2.743026 1_555
Mg1 Se7 2.743026 1_554
Mg1 Se3 2.782333 1_554
Mg1 Se1 2.782333 1_555
Mg1 Se9 2.812066 1_555
Mg1 Se11 2.812066 1_554
P0 Se8 2.171300 1_545
P0 Se0 2.181228 1_555
P0 Se4 2.183063 1_455
P1 Se9 2.171300 1_565
P1 Se1 2.181228 1_555
P1 Se5 2.183063 1_555
P2 Se10 2.171300 1_565
P2 Se2 2.181228 1_555
P2 Se6 2.183063 1_655
P3 Se11 2.171300 1_545
P3 Se3 2.181228 1_555
P3 Se7 2.183063 1_555
