# generated using pymatgen
data_Rb4Hf6BBr18
_symmetry_space_group_name_H-M   'P 1'
_cell_length_a   10.34356200
_cell_length_b   10.60891716
_cell_length_c   10.70548694
_cell_angle_alpha   117.49870647
_cell_angle_beta   100.70607068
_cell_angle_gamma   104.60315761
_symmetry_Int_Tables_number   1
_chemical_formula_structural   Rb4Hf6BBr18
_chemical_formula_sum   'Rb4 Hf6 B1 Br18'
_cell_volume   943.81824765
_cell_formula_units_Z   1
loop_
 _symmetry_equiv_pos_site_id
 _symmetry_equiv_pos_as_xyz
  1  'x, y, z'
loop_
 _atom_site_type_symbol
 _atom_site_label
 _atom_site_symmetry_multiplicity
 _atom_site_fract_x
 _atom_site_fract_y
 _atom_site_fract_z
 _atom_site_occupancy
  Rb  Rb0  1  0.19997238  0.73113853  0.57217238  1
  Rb  Rb1  1  0.83402560  0.95494171  0.76413905  1
  Rb  Rb2  1  0.16597440  0.04505829  0.23586095  1
  Rb  Rb3  1  0.80002762  0.26886147  0.42782762  1
  Hf  Hf0  1  0.34742763  0.44172824  0.77454297  1
  Hf  Hf1  1  0.36340689  0.61929997  0.12722161  1
  Hf  Hf2  1  0.64674958  0.73473953  0.04716057  1
  Hf  Hf3  1  0.65257237  0.55827176  0.22545703  1
  Hf  Hf4  1  0.35325042  0.26526047  0.95283943  1
  Hf  Hf5  1  0.63659311  0.38070003  0.87277839  1
  B  B0  1  0.50000000  0.50000000  0.00000000  1
  Br  Br0  1  0.82197826  0.42589605  0.11159528  1
  Br  Br1  1  0.51728430  0.69800442  0.40218842  1
  Br  Br2  1  0.17894770  0.98370046  0.90084270  1
  Br  Br3  1  0.17802174  0.57410395  0.88840472  1
  Br  Br4  1  0.83686429  0.83441785  0.31093395  1
  Br  Br5  1  0.50508037  0.29777397  0.20587164  1
  Br  Br6  1  0.79512554  0.23777490  0.72269892  1
  Br  Br7  1  0.16313571  0.16558215  0.68906605  1
  Br  Br8  1  0.50805506  0.90171454  0.19070268  1
  Br  Br9  1  0.81766652  0.63169557  0.90545270  1
  Br  Br10  1  0.20487446  0.76222510  0.27730108  1
  Br  Br11  1  0.16429947  0.37775656  0.50478817  1
  Br  Br12  1  0.49491963  0.70222603  0.79412836  1
  Br  Br13  1  0.82105230  0.01629954  0.09915730  1
  Br  Br14  1  0.48271570  0.30199558  0.59781158  1
  Br  Br15  1  0.18233348  0.36830443  0.09454730  1
  Br  Br16  1  0.83570053  0.62224344  0.49521183  1
  Br  Br17  1  0.49194494  0.09828546  0.80929732  1
loop_
_geom_bond_atom_site_label_1
_geom_bond_atom_site_label_2
_geom_bond_distance
_geom_bond_site_symmetry_2
B0 Hf2 2.325684 1_555
B0 Hf4 2.325684 1_554
B0 Hf3 2.326637 1_555
B0 Hf0 2.326637 1_554
B0 Hf5 2.340467 1_554
B0 Hf1 2.340467 1_555
Br0 Hf3 2.642366 1_555
Br0 Hf5 2.650700 1_554
Br1 Hf3 2.678633 1_555
Br1 Hf1 2.686070 1_555
Br1 Rb1 3.768925 1_555
Br1 Rb0 4.051871 1_555
Br2 Hf4 2.803373 1_565
Br2 Rb2 3.372224 1_566
Br2 Rb0 3.388058 1_555
Br2 Rb1 3.473093 1_455
Br3 Hf0 2.642366 1_555
Br3 Hf1 2.650700 1_556
Br4 Hf2 2.662691 1_555
Br4 Hf3 2.667214 1_555
Br4 Rb2 4.008387 1_665
Br5 Hf4 2.684498 1_554
Br5 Hf3 2.688675 1_555
Br5 Rb3 3.674114 1_555
Br5 Rb2 4.008170 1_555
Br6 Hf5 2.748151 1_555
Br6 Rb3 3.329981 1_555
Br6 Rb1 3.336729 1_545
Br7 Hf4 2.662691 1_555
Br7 Hf0 2.667214 1_555
Br7 Rb1 4.008387 1_445
Br8 Hf2 2.672854 1_555
Br8 Hf1 2.675561 1_555
Br8 Rb3 3.581241 1_565
Br9 Hf2 2.657338 1_556
Br9 Hf5 2.665029 1_555
Br10 Hf1 2.748151 1_555
Br10 Rb0 3.329981 1_555
Br10 Rb2 3.336729 1_565
Br11 Hf0 2.810300 1_555
Br11 Rb2 3.378213 1_555
Br11 Rb0 3.379003 1_555
Br11 Rb3 3.461647 1_455
Br12 Hf2 2.684498 1_556
Br12 Hf0 2.688675 1_555
Br12 Rb0 3.674114 1_555
Br12 Rb1 4.008170 1_555
Br13 Hf2 2.803373 1_545
Br13 Rb1 3.372224 1_544
Br13 Rb3 3.388058 1_555
Br13 Rb2 3.473093 1_655
Br14 Hf0 2.678633 1_555
Br14 Hf5 2.686070 1_555
Br14 Rb2 3.768925 1_555
Br14 Rb3 4.051871 1_555
Br15 Hf4 2.657338 1_554
Br15 Hf1 2.665029 1_555
Br16 Hf3 2.810300 1_555
Br16 Rb1 3.378213 1_555
Br16 Rb3 3.379003 1_555
Br16 Rb0 3.461647 1_655
Br17 Hf4 2.672854 1_555
Br17 Hf5 2.675561 1_555
Br17 Rb0 3.581241 1_545
