# generated using pymatgen
data_Na2LiGaP2
_symmetry_space_group_name_H-M   'P 1'
_cell_length_a   8.93177653
_cell_length_b   8.93177689
_cell_length_c   5.71021246
_cell_angle_alpha   90.00000000
_cell_angle_beta   90.00000000
_cell_angle_gamma   98.76262146
_symmetry_Int_Tables_number   1
_chemical_formula_structural   Na2LiGaP2
_chemical_formula_sum   'Na8 Li4 Ga4 P8'
_cell_volume   450.22444454
_cell_formula_units_Z   4
loop_
 _symmetry_equiv_pos_site_id
 _symmetry_equiv_pos_as_xyz
  1  'x, y, z'
loop_
 _atom_site_type_symbol
 _atom_site_label
 _atom_site_symmetry_multiplicity
 _atom_site_fract_x
 _atom_site_fract_y
 _atom_site_fract_z
 _atom_site_occupancy
  Na  Na0  1  0.42906928  0.07093072  0.25000000  1
  Na  Na1  1  0.07093072  0.42906928  0.75000000  1
  Na  Na2  1  0.57093072  0.92906928  0.75000000  1
  Na  Na3  1  0.32294298  0.67705702  0.28042226  1
  Na  Na4  1  0.82294298  0.17705702  0.21957774  1
  Na  Na5  1  0.67705702  0.32294298  0.71957774  1
  Na  Na6  1  0.17705702  0.82294298  0.78042226  1
  Na  Na7  1  0.92906928  0.57093072  0.25000000  1
  Li  Li0  1  0.38110307  0.38110307  0.50000000  1
  Li  Li1  1  0.11889693  0.11889693  0.00000000  1
  Li  Li2  1  0.61889693  0.61889693  0.50000000  1
  Li  Li3  1  0.88110307  0.88110307  0.00000000  1
  Ga  Ga0  1  0.86790174  0.86790174  0.50000000  1
  Ga  Ga1  1  0.13209826  0.13209826  0.50000000  1
  Ga  Ga2  1  0.63209826  0.63209826  0.00000000  1
  Ga  Ga3  1  0.36790174  0.36790174  0.00000000  1
  P  P0  1  0.10416421  0.89583579  0.28467063  1
  P  P1  1  0.60416421  0.39583579  0.21532937  1
  P  P2  1  0.89583579  0.10416421  0.71532937  1
  P  P3  1  0.39583579  0.60416421  0.78467063  1
  P  P4  1  0.14565736  0.35434264  0.25000000  1
  P  P5  1  0.35434264  0.14565736  0.75000000  1
  P  P6  1  0.85434264  0.64565736  0.75000000  1
  P  P7  1  0.64565736  0.85434264  0.25000000  1
loop_
_geom_bond_atom_site_label_1
_geom_bond_atom_site_label_2
_geom_bond_distance
_geom_bond_site_symmetry_2
Na0 P7 2.936824 1_545
Na0 P5 3.029574 1_555
Na0 P5 3.029574 1_554
Na0 P0 3.086051 1_545
Na0 P1 3.086051 1_555
Na1 P6 2.936824 1_455
Na1 P4 3.029574 1_555
Na1 P4 3.029574 1_556
Na1 P3 3.086051 1_555
Na1 P2 3.086051 1_455
Na2 P5 2.936824 1_565
Na2 P7 3.029574 1_556
Na2 P7 3.029574 1_555
Na2 P2 3.086051 1_565
Na2 P3 3.086051 1_555
Na3 P0 2.966628 1_555
Na3 P3 2.998434 1_554
Na3 P3 3.044283 1_555
Na3 P7 3.074937 1_555
Na3 P4 3.074937 1_555
Na4 P1 2.966628 1_555
Na4 P2 2.998434 1_555
Na4 P2 3.044283 1_554
Na4 P4 3.074937 1_655
Na4 P7 3.074937 1_545
Na5 P2 2.966628 1_555
Na5 P1 2.998434 1_556
Na5 P1 3.044283 1_555
Na5 P5 3.074937 1_555
Na5 P6 3.074937 1_555
Na6 P3 2.966628 1_555
Na6 P0 2.998434 1_555
Na6 P0 3.044283 1_556
Na6 P6 3.074937 1_455
Na6 P5 3.074937 1_565
Na7 P4 2.936824 1_655
Na7 P6 3.029574 1_555
Na7 P6 3.029574 1_554
Na7 P1 3.086051 1_555
Na7 P0 3.086051 1_655
Li0 P4 2.522753 1_555
Li0 P5 2.522753 1_555
Li0 P1 2.559135 1_555
Li0 P3 2.559135 1_555
Li1 P5 2.522753 1_554
Li1 P4 2.522753 1_555
Li1 P2 2.559135 1_454
Li1 P0 2.559135 1_545
Li2 P6 2.522753 1_555
Li2 P7 2.522753 1_555
Li2 P3 2.559135 1_555
Li2 P1 2.559135 1_555
Li3 P7 2.522753 1_555
Li3 P6 2.522753 1_554
Li3 P0 2.559135 1_655
Li3 P2 2.559135 1_564
Ga0 P0 2.422152 1_655
Ga0 P2 2.422152 1_565
Ga0 P7 2.433044 1_555
Ga0 P6 2.433044 1_555
Ga0 Na2 3.132660 1_555
Ga0 Na7 3.132661 1_555
Ga1 P2 2.422152 1_455
Ga1 P0 2.422152 1_545
Ga1 P5 2.433044 1_555
Ga1 P4 2.433044 1_555
Ga1 Na0 3.132660 1_555
Ga1 Na1 3.132661 1_555
Ga2 P3 2.422152 1_554
Ga2 P1 2.422152 1_555
Ga2 P6 2.433044 1_554
Ga2 P7 2.433044 1_555
Ga2 Na7 3.132660 1_555
Ga2 Na2 3.132661 1_554
Ga3 P1 2.422152 1_555
Ga3 P3 2.422152 1_554
Ga3 P4 2.433044 1_555
Ga3 P5 2.433044 1_554
Ga3 Na1 3.132660 1_554
Ga3 Na0 3.132661 1_555
