# generated using pymatgen
data_Ba6BiPb8S
_symmetry_space_group_name_H-M   'P 1'
_cell_length_a   9.41906483
_cell_length_b   9.41906447
_cell_length_c   9.41906555
_cell_angle_alpha   120.07284676
_cell_angle_beta   120.07284588
_cell_angle_gamma   89.87387464
_symmetry_Int_Tables_number   1
_chemical_formula_structural   Ba6BiPb8S
_chemical_formula_sum   'Ba6 Bi1 Pb8 S1'
_cell_volume   590.24018890
_cell_formula_units_Z   1
loop_
 _symmetry_equiv_pos_site_id
 _symmetry_equiv_pos_as_xyz
  1  'x, y, z'
loop_
 _atom_site_type_symbol
 _atom_site_label
 _atom_site_symmetry_multiplicity
 _atom_site_fract_x
 _atom_site_fract_y
 _atom_site_fract_z
 _atom_site_occupancy
  Ba  Ba0  1  0.26478676  0.26478676  0.00000000  1
  Ba  Ba1  1  0.73521324  0.73521324  1.00000000  1
  Ba  Ba2  1  0.18180056  0.65841169  0.84021425  1
  Ba  Ba3  1  0.81819944  0.34158831  0.15978575  1
  Ba  Ba4  1  0.65841169  0.81819944  0.47661012  1
  Ba  Ba5  1  0.34158831  0.18180056  0.52338988  1
  Bi  Bi0  1  0.00000000  0.00000000  0.00000000  1
  Pb  Pb0  1  0.83666479  0.32591160  0.78168567  1
  Pb  Pb1  1  0.16333521  0.67408840  0.21831433  1
  Pb  Pb2  1  0.54422593  0.05497812  0.21831433  1
  Pb  Pb3  1  0.32591160  0.54422593  0.48924781  1
  Pb  Pb4  1  0.94502188  0.16333521  0.48924781  1
  Pb  Pb5  1  0.45577407  0.94502188  0.78168567  1
  Pb  Pb6  1  0.67408840  0.45577407  0.51075219  1
  Pb  Pb7  1  0.05497812  0.83666479  0.51075219  1
  S  S0  1  0.50000000  0.50000000  0.00000000  1
loop_
_geom_bond_atom_site_label_1
_geom_bond_atom_site_label_2
_geom_bond_distance
_geom_bond_site_symmetry_2
Ba0 S0 3.136621 1_555
Ba0 Bi0 3.530990 1_555
Ba0 Pb0 3.699589 1_454
Ba0 Pb7 3.699592 1_544
Ba0 Pb2 3.699596 1_555
Ba0 Pb3 3.699597 1_555
Ba0 Pb4 3.743315 1_454
Ba0 Pb5 3.743318 1_544
Ba0 Pb6 3.743319 1_555
Ba0 Pb1 3.743323 1_555
Ba1 S0 3.136621 1_556
Ba1 Bi0 3.530990 1_666
Ba1 Pb1 3.699589 1_656
Ba1 Pb4 3.699592 1_566
Ba1 Pb5 3.699596 1_555
Ba1 Pb6 3.699597 1_555
Ba1 Pb7 3.743315 1_656
Ba1 Pb2 3.743318 1_566
Ba1 Pb3 3.743319 1_555
Ba1 Pb0 3.743323 1_555
Ba2 S0 3.344321 1_556
Ba2 Pb1 3.581745 1_556
Ba2 Pb2 3.581759 1_566
Ba2 Bi0 3.640735 1_566
Ba2 Pb4 3.854186 1_455
Ba2 Pb3 3.854197 1_555
Ba2 Pb6 3.920904 1_455
Ba2 Pb7 3.920929 1_555
Ba2 Pb0 4.147143 1_455
Ba2 Pb5 4.147177 1_555
Ba3 S0 3.344321 1_555
Ba3 Pb0 3.581745 1_554
Ba3 Pb5 3.581759 1_544
Ba3 Bi0 3.640735 1_655
Ba3 Pb7 3.854186 1_655
Ba3 Pb6 3.854197 1_555
Ba3 Pb3 3.920904 1_655
Ba3 Pb4 3.920929 1_555
Ba3 Pb1 4.147143 1_655
Ba3 Pb2 4.147177 1_555
Ba4 S0 3.344319 1_555
Ba4 Pb7 3.581755 1_655
Ba4 Pb6 3.581764 1_555
Ba4 Bi0 3.640745 1_666
Ba4 Pb2 3.854172 1_565
Ba4 Pb1 3.854189 1_555
Ba4 Pb0 3.920905 1_565
Ba4 Pb5 3.920913 1_555
Ba4 Pb4 4.147148 1_565
Ba4 Pb3 4.147169 1_555
Ba5 S0 3.344319 1_556
Ba5 Pb4 3.581755 1_455
Ba5 Pb3 3.581764 1_555
Ba5 Bi0 3.640745 1_555
Ba5 Pb5 3.854172 1_545
Ba5 Pb0 3.854189 1_555
Ba5 Pb1 3.920905 1_545
Ba5 Pb2 3.920913 1_555
Ba5 Pb7 4.147148 1_545
Ba5 Pb6 4.147169 1_555
Pb0 Pb4 3.091463 1_555
Pb0 Pb6 3.091471 1_555
Pb0 Pb1 3.313847 1_656
Pb1 Pb7 3.091463 1_555
Pb1 Pb3 3.091471 1_555
Pb2 Pb6 3.091470 1_555
Pb2 Pb4 3.091470 1_555
Pb2 Pb5 3.313854 1_544
Pb3 Pb5 3.091470 1_555
Pb3 Pb6 3.313853 1_555
Pb4 Pb7 3.313835 1_645
Pb5 Pb7 3.091470 1_555
