# generated using pymatgen
data_Hf3ZrF16
_symmetry_space_group_name_H-M   'P 1'
_cell_length_a   5.53895028
_cell_length_b   5.53814857
_cell_length_c   7.90867342
_cell_angle_alpha   74.22577429
_cell_angle_beta   89.98144641
_cell_angle_gamma   90.01080747
_symmetry_Int_Tables_number   1
_chemical_formula_structural   Hf3ZrF16
_chemical_formula_sum   'Hf3 Zr1 F16'
_cell_volume   233.46639609
_cell_formula_units_Z   1
loop_
 _symmetry_equiv_pos_site_id
 _symmetry_equiv_pos_as_xyz
  1  'x, y, z'
loop_
 _atom_site_type_symbol
 _atom_site_label
 _atom_site_symmetry_multiplicity
 _atom_site_fract_x
 _atom_site_fract_y
 _atom_site_fract_z
 _atom_site_occupancy
  Hf  Hf0  1  0.66619338  0.21138892  0.32931017  1
  Hf  Hf1  1  0.16700196  0.78695055  0.17130369  1
  Hf  Hf2  1  0.33355857  0.78915150  0.66948806  1
  Zr  Zr0  1  0.83362742  0.21239382  0.82995628  1
  F  F0  1  0.65773955  0.85892397  0.52077061  1
  F  F1  1  0.15969944  0.14075398  0.98074791  1
  F  F2  1  0.34235371  0.14146512  0.47828655  1
  F  F3  1  0.84286248  0.85614418  0.02230841  1
  F  F4  1  0.46134404  0.99244897  0.20952724  1
  F  F5  1  0.95983531  0.00566743  0.29030674  1
  F  F6  1  0.53725552  0.00487835  0.79051169  1
  F  F7  1  0.03983886  0.99238120  0.70742931  1
  F  F8  1  0.45555201  0.51634705  0.23585176  1
  F  F9  1  0.95699174  0.48197131  0.26499931  1
  F  F10  1  0.54201009  0.48486750  0.76464464  1
  F  F11  1  0.04755839  0.51903231  0.73437476  1
  F  F12  1  0.75989543  0.31374411  0.54618967  1
  F  F13  1  0.26054224  0.68853784  0.95257929  1
  F  F14  1  0.23897717  0.68838090  0.45152232  1
  F  F15  1  0.73716367  0.31457202  0.04989358  1
loop_
_geom_bond_atom_site_label_1
_geom_bond_atom_site_label_2
_geom_bond_distance
_geom_bond_site_symmetry_2
F0 Hf0 2.120900 1_565
F0 Hf2 2.123250 1_555
F1 Hf1 2.122901 1_546
F1 Zr0 2.141499 1_455
F2 Hf2 2.119384 1_545
F2 Hf0 2.122712 1_555
F3 Hf1 2.124835 1_655
F3 Zr0 2.139547 1_564
F4 Hf1 2.057015 1_555
F4 Hf0 2.068757 1_565
F5 Hf0 2.056706 1_555
F5 Hf1 2.071076 1_645
F6 Hf2 2.058734 1_545
F6 Zr0 2.075440 1_555
F7 Hf2 2.046368 1_555
F7 Zr0 2.090462 1_465
F8 Hf0 2.020537 1_555
F8 Hf1 2.155565 1_555
F9 Hf1 2.018223 1_655
F9 Hf0 2.163989 1_555
F10 Hf2 2.012720 1_555
F10 Zr0 2.174996 1_555
F11 Zr0 2.039647 1_455
F11 Hf2 2.142880 1_555
F12 Hf0 2.015393 1_555
F12 Zr0 2.198672 1_555
F13 Hf1 2.017397 1_556
F13 Hf2 2.192640 1_555
F14 Hf2 2.020146 1_555
F14 Hf1 2.170528 1_555
F15 Zr0 2.041060 1_554
F15 Hf0 2.162670 1_555
