# generated using pymatgen
data_Sc11Os2RuPt
_symmetry_space_group_name_H-M   'P 1'
_cell_length_a   9.52721713
_cell_length_b   9.47921521
_cell_length_c   9.45338976
_cell_angle_alpha   60.02153457
_cell_angle_beta   59.92120577
_cell_angle_gamma   59.65278727
_symmetry_Int_Tables_number   1
_chemical_formula_structural   Sc11Os2RuPt
_chemical_formula_sum   'Sc22 Os4 Ru2 Pt2'
_cell_volume   601.82560494
_cell_formula_units_Z   2
loop_
 _symmetry_equiv_pos_site_id
 _symmetry_equiv_pos_as_xyz
  1  'x, y, z'
loop_
 _atom_site_type_symbol
 _atom_site_label
 _atom_site_symmetry_multiplicity
 _atom_site_fract_x
 _atom_site_fract_y
 _atom_site_fract_z
 _atom_site_occupancy
  Sc  Sc0  1  0.80251977  0.80633299  0.19366701  1
  Sc  Sc1  1  0.19831315  0.80542565  0.19457435  1
  Sc  Sc2  1  0.80412085  0.19587915  0.19587915  1
  Sc  Sc3  1  0.19748023  0.19366701  0.80633299  1
  Sc  Sc4  1  0.80168685  0.19457435  0.80542565  1
  Sc  Sc5  1  0.19587915  0.80412085  0.80412085  1
  Sc  Sc6  1  0.61877725  0.61867529  0.14967023  1
  Sc  Sc7  1  0.61288023  0.14967023  0.61867529  1
  Sc  Sc8  1  0.15240601  0.61295107  0.61936436  1
  Sc  Sc9  1  0.61528055  0.61936436  0.61295107  1
  Sc  Sc10  1  0.38122275  0.38132471  0.85032977  1
  Sc  Sc11  1  0.38711977  0.85032977  0.38132471  1
  Sc  Sc12  1  0.84759399  0.38704893  0.38063564  1
  Sc  Sc13  1  0.38471945  0.38063564  0.38704893  1
  Sc  Sc14  1  0.84347933  0.83897267  0.46817853  1
  Sc  Sc15  1  0.84936648  0.46817853  0.83897267  1
  Sc  Sc16  1  0.47071717  0.84635922  0.84043351  1
  Sc  Sc17  1  0.84248709  0.84043351  0.84635922  1
  Sc  Sc18  1  0.15652067  0.16102733  0.53182147  1
  Sc  Sc19  1  0.15063352  0.53182147  0.16102733  1
  Sc  Sc20  1  0.52928283  0.15364078  0.15956649  1
  Sc  Sc21  1  0.15751291  0.15956649  0.15364078  1
  Os  Os0  1  0.50000000  0.50000000  0.50000000  1
  Os  Os1  1  0.50000000  0.00000000  0.50000000  1
  Os  Os2  1  0.00000000  0.50000000  0.00000000  1
  Os  Os3  1  0.50000000  0.00000000  0.00000000  1
  Ru  Ru0  1  0.00000000  0.00000000  0.00000000  1
  Ru  Ru1  1  0.00000000  0.50000000  0.50000000  1
  Pt  Pt0  1  0.00000000  0.00000000  0.50000000  1
  Pt  Pt1  1  0.50000000  0.50000000  0.00000000  1
loop_
_geom_bond_atom_site_label_1
_geom_bond_atom_site_label_2
_geom_bond_distance
_geom_bond_site_symmetry_2
Sc0 Sc20 2.973158 1_565
Sc0 Sc17 2.973168 1_554
Sc0 Sc14 2.986945 1_555
Sc0 Sc19 2.986963 1_655
Sc0 Sc6 3.319266 1_555
Sc0 Sc11 3.319290 1_555
Sc0 Sc9 3.334788 1_555
Sc0 Sc12 3.334792 1_555
Sc1 Sc16 3.017299 1_554
Sc1 Sc21 3.017310 1_565
Sc1 Sc19 3.031548 1_555
Sc1 Sc14 3.031566 1_455
Sc1 Sc11 3.352830 1_555
Sc1 Sc6 3.352854 1_555
Sc1 Sc13 3.371927 1_555
Sc1 Sc8 3.371930 1_555
Sc2 Sc20 3.038438 1_555
Sc2 Sc21 3.038466 1_655
Sc2 Sc7 3.353157 1_555
Sc2 Sc6 3.353158 1_555
Sc3 Sc7 3.319290 1_555
Sc3 Sc8 3.334792 1_555
Sc4 Sc7 3.352830 1_555
Sc4 Sc9 3.371927 1_555
Sc5 Sc8 3.339524 1_555
Sc5 Sc9 3.339537 1_555
Sc10 Sc8 3.079626 1_555
Sc10 Sc7 3.090714 1_555
Sc10 Sc21 3.092068 1_556
Sc10 Sc20 3.153679 1_556
Sc10 Sc19 3.168728 1_556
Sc10 Sc9 3.179299 1_555
Sc10 Sc3 3.319266 1_555
Sc10 Sc4 3.352854 1_555
Sc10 Sc5 3.353158 1_555
Sc11 Sc9 3.079660 1_555
Sc11 Sc6 3.090714 1_555
Sc11 Sc20 3.092101 1_565
Sc11 Sc21 3.153647 1_565
Sc11 Sc18 3.168728 1_565
Sc11 Sc8 3.179265 1_555
Sc11 Sc5 3.353157 1_555
Sc12 Sc6 3.079626 1_555
Sc12 Sc9 3.099532 1_555
Sc12 Sc19 3.110804 1_655
Sc12 Sc21 3.132455 1_655
Sc12 Sc18 3.174896 1_655
Sc12 Sc7 3.179265 1_555
Sc12 Sc2 3.339524 1_555
Sc12 Sc4 3.371930 1_555
Sc13 Sc7 3.079660 1_555
Sc13 Sc8 3.099532 1_555
Sc13 Sc18 3.110765 1_555
Sc13 Sc20 3.132443 1_555
Sc13 Sc19 3.174857 1_555
Sc13 Sc6 3.179299 1_555
Sc13 Sc3 3.334788 1_555
Sc13 Sc2 3.339537 1_555
Sc14 Sc2 3.032378 1_565
Sc14 Sc9 3.110765 1_555
Sc14 Sc7 3.168728 1_565
Sc14 Sc8 3.174896 1_655
Sc15 Sc3 2.986963 1_655
Sc15 Sc4 3.031548 1_555
Sc15 Sc2 3.032377 1_556
Sc15 Sc8 3.110804 1_655
Sc15 Sc6 3.168728 1_556
Sc15 Sc9 3.174857 1_555
Sc16 Sc3 2.973158 1_565
Sc16 Sc5 3.038438 1_555
Sc16 Sc7 3.092101 1_565
Sc16 Sc9 3.132443 1_555
Sc16 Sc6 3.153679 1_556
Sc17 Sc4 3.017310 1_565
Sc17 Sc5 3.038466 1_655
Sc17 Sc6 3.092068 1_556
Sc17 Sc8 3.132455 1_655
Sc17 Sc7 3.153647 1_565
Sc18 Sc3 2.986945 1_555
Sc18 Sc4 3.031566 1_455
Sc18 Sc5 3.032378 1_545
Sc19 Sc5 3.032377 1_554
Sc20 Sc4 3.017299 1_554
Sc21 Sc3 2.973168 1_554
Os0 Sc12 2.695403 1_555
Os0 Sc8 2.695403 1_555
Os0 Sc9 2.695419 1_555
Os0 Sc13 2.695419 1_555
Os0 Sc11 2.705672 1_555
Os0 Sc7 2.705672 1_555
Os0 Sc10 2.705672 1_555
Os0 Sc6 2.705672 1_555
Os1 Sc16 2.717104 1_545
Os1 Sc20 2.717104 1_555
Os1 Sc14 2.748417 1_545
Os1 Sc18 2.748417 1_555
Os1 Sc13 2.947207 1_555
Os1 Sc9 2.947207 1_545
Os1 Sc7 2.961393 1_555
Os1 Sc11 2.961393 1_545
Os2 Sc17 2.717110 1_454
Os2 Sc21 2.717110 1_555
Os2 Sc19 2.748442 1_555
Os2 Sc15 2.748442 1_454
Os2 Sc8 2.947208 1_554
Os2 Sc12 2.947208 1_455
Os2 Sc10 2.961370 1_554
Os2 Sc6 2.961370 1_455
Os3 Sc21 2.738992 1_555
Os3 Sc17 2.738992 1_544
Os3 Sc20 2.739011 1_555
Os3 Sc16 2.739011 1_544
Os3 Sc11 2.951080 1_545
Os3 Sc7 2.951080 1_554
Os3 Sc6 2.951080 1_545
Os3 Sc10 2.951080 1_554
Ru0 Sc2 2.613402 1_455
Ru0 Sc5 2.613402 1_544
Ru0 Sc1 2.631885 1_545
Ru0 Sc4 2.631885 1_454
Ru0 Sc3 2.634471 1_554
Ru0 Sc0 2.634471 1_445
Ru1 Sc15 2.698287 1_455
Ru1 Sc19 2.698287 1_555
Ru1 Sc14 2.698288 1_455
Ru1 Sc18 2.698288 1_555
Ru1 Sc13 2.991408 1_555
Ru1 Sc9 2.991408 1_455
Ru1 Sc8 2.991425 1_555
Ru1 Sc12 2.991425 1_455
Pt0 Sc21 2.771230 1_555
Pt0 Sc17 2.771230 1_445
Pt0 Sc18 2.802268 1_555
Pt0 Sc14 2.802268 1_445
Pt0 Sc12 2.994078 1_455
Pt0 Sc8 2.994078 1_545
Pt0 Sc7 3.004956 1_455
Pt0 Sc11 3.004956 1_545
Pt1 Sc16 2.771224 1_554
Pt1 Sc20 2.771224 1_555
Pt1 Sc15 2.802243 1_554
Pt1 Sc19 2.802243 1_555
Pt1 Sc13 2.994076 1_555
Pt1 Sc9 2.994076 1_554
Pt1 Sc6 3.004979 1_555
Pt1 Sc10 3.004979 1_554
