# generated using pymatgen
data_HfTaBe9W
_symmetry_space_group_name_H-M   'P 1'
_cell_length_a   7.52443959
_cell_length_b   7.52444023
_cell_length_c   7.52443995
_cell_angle_alpha   35.06288197
_cell_angle_beta   35.06287467
_cell_angle_gamma   35.06286959
_symmetry_Int_Tables_number   1
_chemical_formula_structural   HfTaBe9W
_chemical_formula_sum   'Hf1 Ta1 Be9 W1'
_cell_volume   125.54659708
_cell_formula_units_Z   1
loop_
 _symmetry_equiv_pos_site_id
 _symmetry_equiv_pos_as_xyz
  1  'x, y, z'
loop_
 _atom_site_type_symbol
 _atom_site_label
 _atom_site_symmetry_multiplicity
 _atom_site_fract_x
 _atom_site_fract_y
 _atom_site_fract_z
 _atom_site_occupancy
  Hf  Hf0  1  0.99838548  0.99838548  0.99838548  1
  Ta  Ta0  1  0.14328205  0.14328205  0.14328205  1
  Be  Be0  1  0.41419332  0.92104881  0.41419332  1
  Be  Be1  1  0.41419332  0.41419332  0.92104881  1
  Be  Be2  1  0.92104881  0.41419332  0.41419332  1
  Be  Be3  1  0.58710459  0.07621445  0.58710459  1
  Be  Be4  1  0.58710459  0.58710459  0.07621445  1
  Be  Be5  1  0.07621445  0.58710459  0.58710459  1
  Be  Be6  1  0.66590277  0.66590277  0.66590277  1
  Be  Be7  1  0.33568945  0.33568945  0.33568945  1
  Be  Be8  1  0.50010012  0.50010012  0.50010012  1
  W  W0  1  0.85678204  0.85678204  0.85678204  1
loop_
_geom_bond_atom_site_label_1
_geom_bond_atom_site_label_2
_geom_bond_distance
_geom_bond_site_symmetry_2
Hf0 W0 2.996866 1_555
Hf0 Ta0 3.066561 1_666
Ta0 W0 2.798618 1_544
Ta0 W0 2.798619 1_454
Ta0 W0 2.798619 1_445
Be0 Be6 2.197128 1_555
Be0 Be8 2.201980 1_555
Be0 Be7 2.229152 1_565
Be0 Be2 2.235503 1_465
Be0 Be1 2.235503 1_564
Be0 Be2 2.297657 1_555
Be0 Be1 2.297657 1_555
Be0 W0 2.594975 1_455
Be0 W0 2.594975 1_554
Be0 Ta0 2.597870 1_565
Be0 Hf0 2.853524 1_554
Be0 Hf0 2.853524 1_455
Be1 Be6 2.197128 1_555
Be1 Be8 2.201980 1_555
Be1 Be7 2.229152 1_556
Be1 Be2 2.235503 1_456
Be1 Be2 2.297657 1_555
Be1 W0 2.594974 1_455
Be1 W0 2.594975 1_545
Be1 Ta0 2.597870 1_556
Be1 Hf0 2.853524 1_545
Be1 Hf0 2.853524 1_455
Be2 Be6 2.197128 1_555
Be2 Be8 2.201980 1_555
Be2 Be7 2.229152 1_655
Be2 W0 2.594975 1_554
Be2 W0 2.594975 1_545
Be2 Ta0 2.597870 1_655
Be2 Hf0 2.853524 1_545
Be2 Hf0 2.853525 1_554
Be3 Be7 2.176047 1_555
Be3 Be6 2.194783 1_545
Be3 Be8 2.212524 1_555
Be3 Be5 2.217213 1_645
Be3 Be4 2.217214 1_546
Be3 Be5 2.315946 1_555
Be3 Be4 2.315947 1_555
Be3 W0 2.594684 1_545
Be3 Ta0 2.596214 1_556
Be3 Ta0 2.596214 1_655
Be3 Hf0 2.895014 1_445
Be3 Hf0 2.895014 1_544
Be4 Be7 2.176047 1_555
Be4 Be6 2.194783 1_554
Be4 Be8 2.212524 1_555
Be4 Be5 2.217213 1_654
Be4 Be5 2.315947 1_555
Be4 W0 2.594684 1_554
Be4 Ta0 2.596214 1_655
Be4 Ta0 2.596214 1_565
Be4 Hf0 2.895013 1_454
Be4 Hf0 2.895013 1_544
Be5 Be7 2.176047 1_555
Be5 Be6 2.194783 1_455
Be5 Be8 2.212524 1_555
Be5 W0 2.594684 1_455
Be5 Ta0 2.596215 1_556
Be5 Ta0 2.596215 1_565
Be5 Hf0 2.895014 1_454
Be5 Hf0 2.895014 1_445
Be6 Hf0 2.617282 1_455
Be6 Hf0 2.617283 1_545
Be6 Hf0 2.617283 1_554
Be7 Hf0 2.618569 1_544
Be7 Hf0 2.618570 1_454
Be7 Hf0 2.618570 1_445
Be8 W0 2.663461 1_455
Be8 W0 2.663461 1_545
Be8 W0 2.663461 1_554
Be8 Ta0 2.663997 1_655
Be8 Ta0 2.663997 1_565
Be8 Ta0 2.663998 1_556
