# generated using pymatgen
data_Ba5Al4ZnPb
_symmetry_space_group_name_H-M   'P 1'
_cell_length_a   6.24319669
_cell_length_b   6.24319750
_cell_length_c   10.86766172
_cell_angle_alpha   90.00000000
_cell_angle_beta   90.00000000
_cell_angle_gamma   119.99999020
_symmetry_Int_Tables_number   1
_chemical_formula_structural   Ba5Al4ZnPb
_chemical_formula_sum   'Ba5 Al4 Zn1 Pb1'
_cell_volume   366.84354189
_cell_formula_units_Z   1
loop_
 _symmetry_equiv_pos_site_id
 _symmetry_equiv_pos_as_xyz
  1  'x, y, z'
loop_
 _atom_site_type_symbol
 _atom_site_label
 _atom_site_symmetry_multiplicity
 _atom_site_fract_x
 _atom_site_fract_y
 _atom_site_fract_z
 _atom_site_occupancy
  Ba  Ba0  1  0.66666700  0.33333300  0.20385012  1
  Ba  Ba1  1  0.66666700  0.33333300  0.79822549  1
  Ba  Ba2  1  0.00000000  0.00000000  0.32969824  1
  Ba  Ba3  1  0.00000000  0.00000000  0.66571024  1
  Ba  Ba4  1  0.33333300  0.66666700  0.00365573  1
  Al  Al0  1  0.52237813  0.04475626  0.49808168  1
  Al  Al1  1  0.52237813  0.47762187  0.49808168  1
  Al  Al2  1  0.33333300  0.66666700  0.65804122  1
  Al  Al3  1  0.95524374  0.47762187  0.49808168  1
  Zn  Zn0  1  0.33333300  0.66666700  0.34755560  1
  Pb  Pb0  1  0.00000000  0.00000000  0.99902033  1
loop_
_geom_bond_atom_site_label_1
_geom_bond_atom_site_label_2
_geom_bond_distance
_geom_bond_site_symmetry_2
Ba0 Ba2 3.855258 1_655
Ba0 Ba2 3.855263 1_555
Ba0 Ba2 3.855263 1_665
Ba0 Zn0 3.928297 1_655
Ba0 Zn0 3.928298 1_545
Ba0 Zn0 3.928307 1_555
Ba0 Ba4 4.210215 1_655
Ba0 Ba4 4.210215 1_545
Ba0 Ba4 4.210224 1_555
Ba0 Pb0 4.236466 1_654
Ba0 Pb0 4.236471 1_554
Ba0 Pb0 4.236471 1_664
Ba0 Ba1 4.408191 1_554
Ba1 Pb0 4.213590 1_655
Ba1 Pb0 4.213595 1_555
Ba1 Pb0 4.213596 1_665
Ba2 Pb0 3.593696 1_554
Ba2 Zn0 3.609728 1_545
Ba2 Zn0 3.609734 1_445
Ba2 Zn0 3.609734 1_555
Ba3 Pb0 3.622301 1_555
Ba4 Pb0 3.604860 1_564
Ba4 Pb0 3.604865 1_664
Ba4 Pb0 3.604866 1_554
Ba4 Zn0 3.737388 1_555
Al0 Zn0 2.618202 1_545
Al0 Al2 2.683451 1_545
Al0 Al1 2.702465 1_555
Al0 Al3 2.702466 1_555
Al0 Ba0 3.557968 1_555
Al0 Ba1 3.615823 1_555
Al0 Ba3 3.622380 1_655
Al0 Ba3 3.622380 1_555
Al0 Ba2 3.626512 1_655
Al0 Ba2 3.626513 1_555
Al1 Zn0 2.618206 1_555
Al1 Al2 2.683455 1_555
Al1 Al3 2.702465 1_555
Al1 Ba0 3.557970 1_555
Al1 Ba1 3.615825 1_555
Al1 Ba3 3.622380 1_555
Al1 Ba3 3.622380 1_665
Al1 Ba2 3.626513 1_555
Al1 Ba2 3.626513 1_665
Al2 Al3 2.683451 1_455
Al2 Ba3 3.605471 1_565
Al2 Ba3 3.605477 1_665
Al2 Ba3 3.605477 1_555
Al2 Ba4 3.756022 1_556
Al2 Ba1 3.913241 1_455
Al2 Ba1 3.913241 1_565
Al2 Ba1 3.913251 1_555
Al3 Zn0 2.618202 1_655
Al3 Ba0 3.557968 1_555
Al3 Ba1 3.615823 1_555
Al3 Ba3 3.622380 1_655
Al3 Ba3 3.622380 1_665
Al3 Ba2 3.626513 1_655
Al3 Ba2 3.626513 1_665
