# generated using pymatgen
data_RbGePRh2
_symmetry_space_group_name_H-M   'P 1'
_cell_length_a   7.60886516
_cell_length_b   7.60886481
_cell_length_c   7.60886560
_cell_angle_alpha   149.65426143
_cell_angle_beta   149.65425973
_cell_angle_gamma   43.44915010
_symmetry_Int_Tables_number   1
_chemical_formula_structural   RbGePRh2
_chemical_formula_sum   'Rb1 Ge1 P1 Rh2'
_cell_volume   112.13404456
_cell_formula_units_Z   1
loop_
 _symmetry_equiv_pos_site_id
 _symmetry_equiv_pos_as_xyz
  1  'x, y, z'
loop_
 _atom_site_type_symbol
 _atom_site_label
 _atom_site_symmetry_multiplicity
 _atom_site_fract_x
 _atom_site_fract_y
 _atom_site_fract_z
 _atom_site_occupancy
  Rb  Rb0  1  0.00771185  0.00771185  0.00000000  1
  Ge  Ge0  1  0.34405508  0.34405508  1.00000000  1
  P  P0  1  0.66223317  0.66223317  0.00000000  1
  Rh  Rh0  1  0.74299995  0.24299995  0.50000000  1
  Rh  Rh1  1  0.24299995  0.74299995  0.50000000  1
loop_
_geom_bond_atom_site_label_1
_geom_bond_atom_site_label_2
_geom_bond_distance
_geom_bond_site_symmetry_2
Ge0 Rh1 2.450902 1_545
Ge0 Rh0 2.450902 1_455
Ge0 Rh1 2.450902 1_556
Ge0 Rh0 2.450902 1_556
Ge0 Rb0 3.644824 1_667
Ge0 Rb0 3.644825 1_566
Ge0 Rb0 3.644825 1_656
Ge0 Rb0 3.644825 1_555
P0 Rh0 2.295582 1_565
P0 Rh1 2.295582 1_655
P0 Rh0 2.295582 1_554
P0 Rh1 2.295582 1_554
P0 Rb0 3.564244 1_554
P0 Rb0 3.564245 1_655
P0 Rb0 3.564245 1_565
P0 Rb0 3.564245 1_666
