# generated using pymatgen
data_RbYZrS4
_symmetry_space_group_name_H-M   'P 1'
_cell_length_a   3.88619283
_cell_length_b   6.62900898
_cell_length_c   8.17192317
_cell_angle_alpha   74.42072729
_cell_angle_beta   90.00000000
_cell_angle_gamma   90.00000000
_symmetry_Int_Tables_number   1
_chemical_formula_structural   RbYZrS4
_chemical_formula_sum   'Rb1 Y1 Zr1 S4'
_cell_volume   202.78725629
_cell_formula_units_Z   1
loop_
 _symmetry_equiv_pos_site_id
 _symmetry_equiv_pos_as_xyz
  1  'x, y, z'
loop_
 _atom_site_type_symbol
 _atom_site_label
 _atom_site_symmetry_multiplicity
 _atom_site_fract_x
 _atom_site_fract_y
 _atom_site_fract_z
 _atom_site_occupancy
  Rb  Rb0  1  0.00000000  0.50000000  0.50000000  1
  Y  Y0  1  0.50000000  0.50000000  0.00000000  1
  Zr  Zr0  1  0.00000000  0.00000000  0.00000000  1
  S  S0  1  0.50000000  0.78878949  0.18409890  1
  S  S1  1  0.00000000  0.25491897  0.18404327  1
  S  S2  1  0.50000000  0.21121051  0.81590110  1
  S  S3  1  0.00000000  0.74508103  0.81595673  1
loop_
_geom_bond_atom_site_label_1
_geom_bond_atom_site_label_2
_geom_bond_distance
_geom_bond_site_symmetry_2
Rb0 S0 3.383810 1_455
Rb0 S0 3.383810 1_555
Rb0 S2 3.383810 1_455
Rb0 S2 3.383810 1_555
Rb0 S3 3.399891 1_555
Rb0 S1 3.399891 1_555
S0 Zr0 2.620660 1_565
S0 Zr0 2.620660 1_665
S0 Y0 2.734089 1_555
S1 Zr0 2.546128 1_555
S1 Y0 2.713778 1_555
S1 Y0 2.713778 1_455
S2 Zr0 2.620660 1_656
S2 Zr0 2.620660 1_556
S2 Y0 2.734089 1_556
S3 Zr0 2.546128 1_566
S3 Y0 2.713778 1_456
S3 Y0 2.713778 1_556
