# generated using pymatgen
data_Ta8Hg2Pb4O25
_symmetry_space_group_name_H-M   'P 1'
_cell_length_a   7.47722806
_cell_length_b   7.47722834
_cell_length_c   10.52672490
_cell_angle_alpha   89.67767468
_cell_angle_beta   89.67767839
_cell_angle_gamma   89.63422517
_symmetry_Int_Tables_number   1
_chemical_formula_structural   Ta8Hg2Pb4O25
_chemical_formula_sum   'Ta8 Hg2 Pb4 O25'
_cell_volume   588.50754681
_cell_formula_units_Z   1
loop_
 _symmetry_equiv_pos_site_id
 _symmetry_equiv_pos_as_xyz
  1  'x, y, z'
loop_
 _atom_site_type_symbol
 _atom_site_label
 _atom_site_symmetry_multiplicity
 _atom_site_fract_x
 _atom_site_fract_y
 _atom_site_fract_z
 _atom_site_occupancy
  Ta  Ta0  1  0.74407871  0.00295150  0.12492032  1
  Ta  Ta1  1  0.50355115  0.25134657  0.38037166  1
  Ta  Ta2  1  0.24404526  0.00405708  0.12555540  1
  Ta  Ta3  1  0.24242737  0.50609356  0.62098383  1
  Ta  Ta4  1  0.99704850  0.25592129  0.87507968  1
  Ta  Ta5  1  0.99594292  0.75595474  0.87444460  1
  Ta  Ta6  1  0.74865343  0.49644885  0.61962834  1
  Ta  Ta7  1  0.49390644  0.75757263  0.37901617  1
  Hg  Hg0  1  0.08978986  0.09161531  0.41922941  1
  Hg  Hg1  1  0.90838469  0.91021014  0.58077059  1
  Pb  Pb0  1  0.74263550  0.50590004  0.13068558  1
  Pb  Pb1  1  0.49409996  0.25736450  0.86931442  1
  Pb  Pb2  1  0.48806840  0.75400365  0.85872662  1
  Pb  Pb3  1  0.24599635  0.51193160  0.14127338  1
  O  O0  1  0.31593590  0.32039126  0.50389285  1
  O  O1  1  0.98974342  0.00480874  0.17720415  1
  O  O2  1  0.99519126  0.01025658  0.82279585  1
  O  O3  1  0.80480032  0.32803887  0.75615883  1
  O  O4  1  0.79641751  0.20358249  0.00000000  1
  O  O5  1  0.79360115  0.81388666  0.99522295  1
  O  O6  1  0.68318038  0.31681962  0.50000000  1
  O  O7  1  0.49875603  0.51031368  0.69937521  1
  O  O8  1  0.48815753  0.01467315  0.05762963  1
  O  O9  1  0.48968632  0.50124397  0.30062479  1
  O  O10  1  0.49054520  0.50945480  1.00000000  1
  O  O11  1  0.28608690  0.18831458  0.26265048  1
  O  O12  1  0.30674212  0.81378153  0.24571216  1
  O  O13  1  0.31148143  0.68851857  0.50000000  1
  O  O14  1  0.18611334  0.20639885  0.00477705  1
  O  O15  1  0.18655840  0.32618995  0.75791326  1
  O  O16  1  0.18582678  0.81417322  1.00000000  1
  O  O17  1  0.99675870  0.50472588  0.56844863  1
  O  O18  1  0.98532685  0.51184247  0.94237037  1
  O  O19  1  0.81168542  0.71391310  0.73734952  1
  O  O20  1  0.67196113  0.19519968  0.24384117  1
  O  O21  1  0.67381005  0.81344160  0.24208674  1
  O  O22  1  0.67960874  0.68406410  0.49610715  1
  O  O23  1  0.49527412  0.00324130  0.43155137  1
  O  O24  1  0.18621847  0.69325788  0.75428784  1
loop_
_geom_bond_atom_site_label_1
_geom_bond_atom_site_label_2
_geom_bond_distance
_geom_bond_site_symmetry_2
Hg0 O11 2.316635 1_555
Hg0 O0 2.578917 1_555
Hg1 O19 2.316635 1_555
Hg1 O22 2.578917 1_555
O0 Ta3 1.936827 1_555
O0 Ta1 1.975598 1_555
O1 Ta0 1.920693 1_555
O1 Ta2 1.974715 1_655
O2 Ta4 1.920694 1_555
O2 Ta5 1.974715 1_545
O3 Ta6 1.951208 1_555
O3 Ta4 1.981669 1_555
O3 Pb1 2.659460 1_555
O4 Ta0 2.027902 1_555
O4 Ta4 2.027902 1_554
O4 Pb1 2.679785 1_554
O4 Pb0 2.679785 1_555
O5 Ta0 2.002240 1_566
O5 Ta5 2.017255 1_555
O5 Pb0 2.729481 1_556
O5 Pb2 2.746161 1_555
O6 Ta1 1.914117 1_555
O6 Ta6 1.914117 1_555
O7 Ta6 2.046402 1_555
O7 Ta3 2.091478 1_555
O7 Pb2 2.484227 1_555
O7 Pb1 2.596285 1_555
O8 Ta2 1.958510 1_555
O8 Ta0 2.045396 1_555
O8 Pb1 2.680337 1_554
O8 Pb2 2.868601 1_544
O9 Ta1 2.046402 1_555
O9 Ta7 2.091478 1_555
O9 Pb3 2.484227 1_555
O9 Pb0 2.596285 1_555
O10 Pb0 2.339731 1_556
O10 Pb1 2.339732 1_555
O10 Pb2 2.350492 1_555
O10 Pb3 2.350492 1_556
O11 Ta2 2.027978 1_555
O11 Ta1 2.107318 1_555
O11 Pb3 2.745520 1_555
O12 Ta2 1.954921 1_565
O12 Ta7 2.027864 1_555
O12 Pb3 2.560403 1_555
O13 Ta3 1.931631 1_555
O13 Ta7 1.931631 1_555
O14 Ta4 2.002240 1_454
O14 Ta2 2.017255 1_555
O14 Pb1 2.729481 1_554
O14 Pb3 2.746161 1_555
O15 Ta4 1.946214 1_455
O15 Ta3 2.010048 1_555
O15 Pb1 2.633714 1_555
O16 Ta5 1.996917 1_455
O16 Ta2 1.996917 1_566
O16 Pb3 2.734598 1_556
O16 Pb2 2.734598 1_555
O17 Ta3 1.921445 1_655
O17 Ta6 1.930149 1_555
O18 Ta5 1.958510 1_555
O18 Ta4 2.045396 1_555
O18 Pb0 2.680337 1_556
O18 Pb3 2.868601 1_656
O19 Ta5 2.027978 1_555
O19 Ta6 2.107318 1_555
O19 Pb2 2.745520 1_555
O20 Ta1 1.951208 1_555
O20 Ta0 1.981670 1_555
O20 Pb0 2.659460 1_555
O21 Ta0 1.946214 1_565
O21 Ta7 2.010048 1_555
O21 Pb0 2.633714 1_555
O22 Ta7 1.936827 1_555
O22 Ta6 1.975598 1_555
O23 Ta7 1.921445 1_545
O23 Ta1 1.930149 1_555
O24 Ta5 1.954921 1_455
O24 Ta3 2.027864 1_555
O24 Pb2 2.560402 1_555
