# generated using pymatgen
data_AgSCl7
_symmetry_space_group_name_H-M   'P 1'
_cell_length_a   10.34499750
_cell_length_b   8.64183620
_cell_length_c   11.74485639
_cell_angle_alpha   73.06081706
_cell_angle_beta   90.00000000
_cell_angle_gamma   90.00000000
_symmetry_Int_Tables_number   1
_chemical_formula_structural   AgSCl7
_chemical_formula_sum   'Ag4 S4 Cl28'
_cell_volume   1004.43333188
_cell_formula_units_Z   4
loop_
 _symmetry_equiv_pos_site_id
 _symmetry_equiv_pos_as_xyz
  1  'x, y, z'
loop_
 _atom_site_type_symbol
 _atom_site_label
 _atom_site_symmetry_multiplicity
 _atom_site_fract_x
 _atom_site_fract_y
 _atom_site_fract_z
 _atom_site_occupancy
  Ag  Ag0  1  0.09684588  0.79016197  0.03467983  1
  Ag  Ag1  1  0.40315412  0.79016197  0.53467983  1
  Ag  Ag2  1  0.59684588  0.20983803  0.46532017  1
  Ag  Ag3  1  0.90315412  0.20983803  0.96532017  1
  S  S0  1  0.29700714  0.23548220  0.01215463  1
  S  S1  1  0.79700714  0.76451780  0.48784537  1
  S  S2  1  0.20299286  0.23548220  0.51215463  1
  S  S3  1  0.70299286  0.76451780  0.98784537  1
  Cl  Cl0  1  0.28135269  0.43192249  0.07187867  1
  Cl  Cl1  1  0.71864731  0.56807751  0.92812133  1
  Cl  Cl2  1  0.23550244  0.69236324  0.19247753  1
  Cl  Cl3  1  0.23637528  0.93992193  0.42476255  1
  Cl  Cl4  1  0.54103544  0.88794903  0.37281719  1
  Cl  Cl5  1  0.43594257  0.37579601  0.35801544  1
  Cl  Cl6  1  0.07119304  0.31051327  0.38263930  1
  Cl  Cl7  1  0.78135269  0.56807751  0.42812133  1
  Cl  Cl8  1  0.04103544  0.11205097  0.12718281  1
  Cl  Cl9  1  0.89922872  0.90767104  0.35353233  1
  Cl  Cl10  1  0.21864731  0.43192249  0.57187867  1
  Cl  Cl11  1  0.39922872  0.09232896  0.14646767  1
  Cl  Cl12  1  0.56405743  0.62420399  0.64198456  1
  Cl  Cl13  1  0.76362472  0.06007807  0.57523745  1
  Cl  Cl14  1  0.45896456  0.11205097  0.62718281  1
  Cl  Cl15  1  0.60077128  0.90767104  0.85353233  1
  Cl  Cl16  1  0.93594257  0.62420399  0.14198456  1
  Cl  Cl17  1  0.73637528  0.06007807  0.07523745  1
  Cl  Cl18  1  0.73550244  0.30763676  0.30752247  1
  Cl  Cl19  1  0.26362472  0.93992193  0.92476255  1
  Cl  Cl20  1  0.57119304  0.68948673  0.11736070  1
  Cl  Cl21  1  0.06405743  0.37579601  0.85801544  1
  Cl  Cl22  1  0.42880696  0.31051327  0.88263930  1
  Cl  Cl23  1  0.26449756  0.69236324  0.69247753  1
  Cl  Cl24  1  0.95896456  0.88794903  0.87281719  1
  Cl  Cl25  1  0.10077128  0.09232896  0.64646767  1
  Cl  Cl26  1  0.76449756  0.30763676  0.80752247  1
  Cl  Cl27  1  0.92880696  0.68948673  0.61736070  1
loop_
_geom_bond_atom_site_label_1
_geom_bond_atom_site_label_2
_geom_bond_distance
_geom_bond_site_symmetry_2
Ag0 Cl2 2.300834 1_555
Ag0 Cl19 2.311864 1_554
Ag0 Cl16 2.315740 1_455
Ag0 Cl24 2.329499 1_454
Ag1 Cl23 2.300834 1_555
Ag1 Cl3 2.311864 1_555
Ag1 Cl12 2.315740 1_555
Ag1 Cl4 2.329499 1_555
Ag2 Cl18 2.300834 1_555
Ag2 Cl13 2.311864 1_555
Ag2 Cl5 2.315740 1_555
Ag2 Cl14 2.329499 1_555
Ag3 Cl26 2.300834 1_555
Ag3 Cl17 2.311864 1_556
Ag3 Cl21 2.315740 1_655
Ag3 Cl8 2.329499 1_656
Cl0 S0 2.023365 1_555
Cl1 S3 2.023365 1_555
Cl6 S2 2.004645 1_555
Cl7 S1 2.023365 1_555
Cl9 S1 1.999998 1_555
Cl10 S2 2.023365 1_555
Cl11 S0 1.999998 1_555
Cl15 S3 1.999998 1_555
Cl20 S3 2.004645 1_554
Cl22 S0 2.004645 1_556
Cl25 S2 1.999998 1_555
Cl27 S1 2.004645 1_555
