# generated using pymatgen
data_KYPPt8
_symmetry_space_group_name_H-M   'P 1'
_cell_length_a   9.23484921
_cell_length_b   9.16453517
_cell_length_c   4.21471485
_cell_angle_alpha   90.00000000
_cell_angle_beta   90.00000000
_cell_angle_gamma   145.50221221
_symmetry_Int_Tables_number   1
_chemical_formula_structural   KYPPt8
_chemical_formula_sum   'K1 Y1 P1 Pt8'
_cell_volume   202.02823826
_cell_formula_units_Z   1
loop_
 _symmetry_equiv_pos_site_id
 _symmetry_equiv_pos_as_xyz
  1  'x, y, z'
loop_
 _atom_site_type_symbol
 _atom_site_label
 _atom_site_symmetry_multiplicity
 _atom_site_fract_x
 _atom_site_fract_y
 _atom_site_fract_z
 _atom_site_occupancy
  K  K0  1  0.37998320  0.61578505  0.50000000  1
  Y  Y0  1  0.63366576  0.37613000  0.50000000  1
  P  P0  1  0.20941392  0.21613568  0.00000000  1
  Pt  Pt0  1  0.10498968  0.89112074  0.00000000  1
  Pt  Pt1  1  0.88456262  0.10802996  0.00000000  1
  Pt  Pt2  1  0.49346422  0.00363614  0.00000000  1
  Pt  Pt3  1  0.98588276  0.49867679  0.00000000  1
  Pt  Pt4  1  0.19904591  0.80249093  0.50000000  1
  Pt  Pt5  1  0.79428403  0.20067217  0.50000000  1
  Pt  Pt6  1  0.00139969  0.00161454  0.50000000  1
  Pt  Pt7  1  0.62690521  0.59930600  0.00000000  1
loop_
_geom_bond_atom_site_label_1
_geom_bond_atom_site_label_2
_geom_bond_distance
_geom_bond_site_symmetry_2
K0 Pt5 3.092997 1_565
K0 Pt5 3.132332 1_455
K0 Pt7 3.198610 1_556
K0 Pt7 3.198610 1_555
K0 Pt4 3.229920 1_555
K0 P0 3.290493 1_556
K0 P0 3.290493 1_555
K0 Pt6 3.386477 1_555
K0 Pt1 3.443275 1_566
K0 Pt1 3.443275 1_565
K0 Pt1 3.454667 1_455
K0 Pt1 3.454667 1_456
K0 Pt6 3.462475 1_665
K0 Pt2 3.468944 1_566
K0 Pt2 3.468944 1_565
K0 Pt3 3.521389 1_455
K0 Pt3 3.521389 1_456
P0 Pt7 2.209050 1_555
P0 Pt0 2.251114 1_545
P0 Pt1 2.254388 1_455
P0 Pt6 2.402339 1_554
P0 Pt6 2.402339 1_555
Pt0 Pt4 2.649163 1_555
Pt0 Pt4 2.649163 1_554
Pt0 Pt7 2.680055 1_455
Pt0 Pt3 2.761251 1_455
Pt0 Pt2 2.799282 1_565
Pt1 Pt5 2.650206 1_554
Pt1 Pt5 2.650206 1_555
Pt1 Pt3 2.858514 1_555
Pt1 Pt2 2.874784 1_555
Pt1 Pt7 3.018730 1_545
Pt2 Pt4 2.640118 1_545
Pt2 Pt4 2.640118 1_544
Pt2 Pt5 2.674056 1_555
Pt2 Pt5 2.674056 1_554
Pt2 Pt3 2.693703 1_555
Pt2 Pt3 2.762748 1_445
Pt2 Y0 3.238145 1_555
Pt2 Y0 3.238145 1_554
Pt3 Pt4 2.652198 1_654
Pt3 Pt4 2.652198 1_655
Pt3 Pt5 2.658072 1_555
Pt3 Pt5 2.658072 1_554
Pt3 Y0 3.203260 1_554
Pt3 Y0 3.203260 1_555
Pt4 Y0 2.983504 1_455
Pt4 Y0 2.994548 1_565
Pt5 Y0 2.952479 1_555
Pt6 Pt7 2.996295 1_446
Pt6 Pt7 2.996295 1_445
Pt7 Y0 2.972978 1_555
Pt7 Y0 2.972978 1_554
