# generated using pymatgen
data_Ti3Al2CuC
_symmetry_space_group_name_H-M   'P 1'
_cell_length_a   8.12458730
_cell_length_b   8.12458767
_cell_length_c   8.12458749
_cell_angle_alpha   60.00000476
_cell_angle_beta   60.00000327
_cell_angle_gamma   59.99999903
_symmetry_Int_Tables_number   1
_chemical_formula_structural   Ti3Al2CuC
_chemical_formula_sum   'Ti12 Al8 Cu4 C4'
_cell_volume   379.21803518
_cell_formula_units_Z   4
loop_
 _symmetry_equiv_pos_site_id
 _symmetry_equiv_pos_as_xyz
  1  'x, y, z'
loop_
 _atom_site_type_symbol
 _atom_site_label
 _atom_site_symmetry_multiplicity
 _atom_site_fract_x
 _atom_site_fract_y
 _atom_site_fract_z
 _atom_site_occupancy
  Ti  Ti0  1  0.93488504  0.93488504  0.56511496  1
  Ti  Ti1  1  0.68488504  0.31511496  0.31511496  1
  Ti  Ti2  1  0.31511496  0.68488504  0.68488504  1
  Ti  Ti3  1  0.68488504  0.68488504  0.31511496  1
  Ti  Ti4  1  0.68488504  0.31511496  0.68488504  1
  Ti  Ti5  1  0.31511496  0.68488504  0.31511496  1
  Ti  Ti6  1  0.56511496  0.93488504  0.56511496  1
  Ti  Ti7  1  0.56511496  0.93488504  0.93488504  1
  Ti  Ti8  1  0.93488504  0.56511496  0.56511496  1
  Ti  Ti9  1  0.93488504  0.56511496  0.93488504  1
  Ti  Ti10  1  0.31511496  0.31511496  0.68488504  1
  Ti  Ti11  1  0.56511496  0.56511496  0.93488504  1
  Al  Al0  1  0.91679393  0.24961822  0.91679393  1
  Al  Al1  1  0.33320607  0.33320607  0.00038178  1
  Al  Al2  1  0.00038178  0.33320607  0.33320607  1
  Al  Al3  1  0.33320607  0.33320607  0.33320607  1
  Al  Al4  1  0.24961822  0.91679393  0.91679393  1
  Al  Al5  1  0.91679393  0.91679393  0.91679393  1
  Al  Al6  1  0.91679393  0.91679393  0.24961822  1
  Al  Al7  1  0.33320607  0.00038178  0.33320607  1
  Cu  Cu0  1  0.12500000  0.62500000  0.12500000  1
  Cu  Cu1  1  0.12500000  0.12500000  0.62500000  1
  Cu  Cu2  1  0.62500000  0.12500000  0.12500000  1
  Cu  Cu3  1  0.12500000  0.12500000  0.12500000  1
  C  C0  1  0.62500000  0.12500000  0.62500000  1
  C  C1  1  0.62500000  0.62500000  0.12500000  1
  C  C2  1  0.12500000  0.62500000  0.62500000  1
  C  C3  1  0.62500000  0.62500000  0.62500000  1
loop_
_geom_bond_atom_site_label_1
_geom_bond_atom_site_label_2
_geom_bond_distance
_geom_bond_site_symmetry_2
Al0 Cu3 2.486794 1_656
Al0 Cu1 2.486794 1_655
Al0 Cu2 2.486794 1_556
Al0 Al4 2.704060 1_645
Al0 Al5 2.704060 1_545
Al0 Al6 2.704060 1_546
Al0 Ti11 2.718223 1_555
Al0 Ti9 2.718223 1_555
Al0 Ti8 2.718223 1_555
Al0 Ti4 2.987998 1_555
Al0 Ti1 2.987998 1_556
Al0 Ti10 2.987998 1_655
Al1 Cu2 2.486794 1_555
Al1 Cu0 2.486794 1_555
Al1 Cu3 2.486794 1_555
Al1 Al3 2.704060 1_555
Al1 Al2 2.704060 1_555
Al1 Al7 2.704060 1_555
Al1 Ti10 2.718223 1_554
Al1 Ti4 2.718223 1_554
Al1 Ti2 2.718223 1_554
Al1 Ti9 2.987998 1_454
Al1 Ti7 2.987998 1_544
Al1 Ti11 2.987998 1_554
Al2 Cu3 2.486794 1_555
Al2 Cu1 2.486794 1_555
Al2 Cu0 2.486794 1_555
Al2 Al3 2.704060 1_555
Al2 Al7 2.704060 1_555
Al2 Ti1 2.718223 1_455
Al2 Ti3 2.718223 1_455
Al2 Ti4 2.718223 1_455
Al2 Ti8 2.987998 1_455
Al2 Ti9 2.987998 1_454
Al2 Ti0 2.987998 1_445
Al3 Cu2 2.486794 1_555
Al3 Cu0 2.486794 1_555
Al3 Cu1 2.486794 1_555
Al3 Al7 2.704060 1_555
Al3 Ti1 2.718223 1_555
Al3 Ti10 2.718223 1_555
Al3 Ti5 2.718223 1_555
Al3 Ti8 2.987998 1_455
Al3 Ti6 2.987998 1_545
Al3 Ti11 2.987999 1_554
Al4 Cu3 2.486794 1_566
Al4 Cu1 2.486794 1_565
Al4 Cu0 2.486794 1_556
Al4 Al5 2.704060 1_455
Al4 Al6 2.704060 1_456
Al4 Ti7 2.718223 1_555
Al4 Ti11 2.718223 1_555
Al4 Ti6 2.718223 1_555
Al4 Ti2 2.987998 1_555
Al4 Ti5 2.987998 1_556
Al4 Ti10 2.987998 1_565
Al5 Cu2 2.486794 1_566
Al5 Cu0 2.486794 1_656
Al5 Cu1 2.486794 1_665
Al5 Al6 2.704060 1_556
Al5 Ti7 2.718223 1_555
Al5 Ti0 2.718223 1_555
Al5 Ti9 2.718223 1_555
Al5 Ti2 2.987998 1_655
Al5 Ti4 2.987998 1_565
Al5 Ti3 2.987999 1_556
Al6 Cu2 2.486794 1_565
Al6 Cu0 2.486794 1_655
Al6 Cu3 2.486794 1_665
Al6 Ti0 2.718223 1_555
Al6 Ti6 2.718223 1_555
Al6 Ti8 2.718223 1_555
Al6 Ti5 2.987998 1_655
Al6 Ti1 2.987998 1_565
Al6 Ti3 2.987998 1_555
Al7 Cu3 2.486794 1_555
Al7 Cu1 2.486794 1_555
Al7 Cu2 2.486794 1_555
Al7 Ti3 2.718223 1_545
Al7 Ti5 2.718223 1_545
Al7 Ti2 2.718223 1_545
Al7 Ti6 2.987998 1_545
Al7 Ti7 2.987998 1_544
Al7 Ti0 2.987998 1_445
Cu0 Ti5 2.982812 1_555
Cu0 Ti9 2.982812 1_454
Cu0 Ti11 2.982813 1_554
Cu0 Ti3 2.982813 1_455
Cu0 Ti8 2.982813 1_455
Cu0 Ti2 2.982813 1_554
Cu1 Ti6 2.982812 1_545
Cu1 Ti4 2.982812 1_455
Cu1 Ti10 2.982813 1_555
Cu1 Ti0 2.982813 1_445
Cu1 Ti8 2.982813 1_455
Cu1 Ti2 2.982813 1_545
Cu2 Ti1 2.982813 1_555
Cu2 Ti7 2.982813 1_544
Cu2 Ti6 2.982813 1_545
Cu2 Ti4 2.982813 1_554
Cu2 Ti11 2.982813 1_554
Cu2 Ti3 2.982813 1_545
Cu3 Ti7 2.982813 1_544
Cu3 Ti1 2.982813 1_455
Cu3 Ti9 2.982813 1_454
Cu3 Ti5 2.982813 1_545
Cu3 Ti0 2.982813 1_445
Cu3 Ti10 2.982813 1_554
C0 Ti0 2.144528 1_545
C0 Ti10 2.144528 1_555
C0 Ti4 2.144528 1_555
C0 Ti6 2.144528 1_545
C0 Ti7 2.144529 1_545
C0 Ti1 2.144529 1_555
C1 Ti3 2.144528 1_555
C1 Ti11 2.144528 1_554
C1 Ti9 2.144528 1_554
C1 Ti5 2.144528 1_555
C1 Ti7 2.144529 1_554
C1 Ti1 2.144529 1_555
C2 Ti2 2.144528 1_555
C2 Ti8 2.144528 1_455
C2 Ti0 2.144528 1_455
C2 Ti10 2.144528 1_555
C2 Ti9 2.144529 1_455
C2 Ti5 2.144529 1_555
C3 Ti8 2.144528 1_555
C3 Ti2 2.144528 1_555
C3 Ti11 2.144529 1_555
C3 Ti3 2.144529 1_555
C3 Ti6 2.144529 1_555
C3 Ti4 2.144529 1_555
