# generated using pymatgen
data_SrCa3(H6Pt)2
_symmetry_space_group_name_H-M   'P 1'
_cell_length_a   7.17969265
_cell_length_b   7.17969279
_cell_length_c   5.36547971
_cell_angle_alpha   89.98823421
_cell_angle_beta   89.98822956
_cell_angle_gamma   136.12092244
_symmetry_Int_Tables_number   1
_chemical_formula_structural   SrCa3(H6Pt)2
_chemical_formula_sum   'Sr1 Ca3 H12 Pt2'
_cell_volume   191.70804117
_cell_formula_units_Z   1
loop_
 _symmetry_equiv_pos_site_id
 _symmetry_equiv_pos_as_xyz
  1  'x, y, z'
loop_
 _atom_site_type_symbol
 _atom_site_label
 _atom_site_symmetry_multiplicity
 _atom_site_fract_x
 _atom_site_fract_y
 _atom_site_fract_z
 _atom_site_occupancy
  Sr  Sr0  1  0.14717329  0.85282671  0.50000000  1
  Ca  Ca0  1  0.65246215  0.34753785  0.00000000  1
  Ca  Ca1  1  0.35313949  0.64686051  0.00000000  1
  Ca  Ca2  1  0.85195968  0.14804032  0.50000000  1
  H  H0  1  0.87523760  0.12476240  0.00000000  1
  H  H1  1  0.12336418  0.87663582  1.00000000  1
  H  H2  1  0.62194690  0.37805310  0.50000000  1
  H  H3  1  0.37348584  0.62651416  0.50000000  1
  H  H4  1  0.99797981  0.48975048  0.24351221  1
  H  H5  1  0.99669433  0.48843619  0.75684175  1
  H  H6  1  0.51024952  0.00202019  0.75648779  1
  H  H7  1  0.51156381  0.00330567  0.24315825  1
  H  H8  1  0.22651474  0.23187458  0.22687417  1
  H  H9  1  0.76812542  0.77348526  0.77312583  1
  H  H10  1  0.27249663  0.27827201  0.73241443  1
  H  H11  1  0.72172799  0.72750337  0.26758557  1
  Pt  Pt0  1  0.99861012  0.00138988  1.00000000  1
  Pt  Pt1  1  0.49726651  0.50273349  0.50000000  1
loop_
_geom_bond_atom_site_label_1
_geom_bond_atom_site_label_2
_geom_bond_distance
_geom_bond_site_symmetry_2
Ca0 H5 2.286390 1_554
Ca0 H7 2.286390 1_555
Ca0 H6 2.292153 1_554
Ca0 H4 2.292153 1_555
Ca0 H11 2.792295 1_555
Ca0 H10 2.792295 1_554
Ca0 H8 2.803708 1_555
Ca0 H9 2.803708 1_554
Ca1 H4 2.309360 1_455
Ca1 H6 2.309361 1_564
Ca1 H7 2.313191 1_565
Ca1 H5 2.313191 1_454
Ca1 H10 2.681933 1_554
Ca1 H11 2.681933 1_555
Ca1 H3 2.696393 1_554
Ca1 H3 2.696393 1_555
Ca1 H9 2.697906 1_554
Ca1 H8 2.697907 1_555
Ca1 H0 2.698633 1_565
Ca1 H0 2.698633 1_455
Ca2 H5 2.300566 1_555
Ca2 H7 2.300566 1_555
Ca2 H6 2.302633 1_555
Ca2 H4 2.302634 1_555
Ca2 H8 2.721426 1_655
Ca2 H9 2.721426 1_545
Ca2 H11 2.734558 1_545
Ca2 H10 2.734558 1_655
H0 Pt0 1.643255 1_554
H1 Pt0 1.661657 1_465
H1 Sr0 2.701418 1_555
H1 Sr0 2.701418 1_556
H2 Pt1 1.660675 1_555
H2 Sr0 2.703495 1_655
H2 Sr0 2.703495 1_545
H3 Pt1 1.648692 1_555
H4 Sr0 2.411067 1_655
H5 Sr0 2.415381 1_655
H6 Sr0 2.411067 1_545
H7 Sr0 2.415381 1_545
H8 Pt0 1.730826 1_454
H8 Pt1 2.064165 1_555
H8 Sr0 2.764320 1_545
H9 Pt0 1.730826 1_565
H9 Pt1 2.064165 1_555
H9 Sr0 2.764320 1_655
H10 Pt1 1.733670 1_555
H10 Pt0 2.059672 1_455
H10 Sr0 2.781164 1_545
H11 Pt1 1.733670 1_555
H11 Pt0 2.059672 1_564
H11 Sr0 2.781164 1_655
