# generated using pymatgen
data_HfSc(ZnPt)2
_symmetry_space_group_name_H-M   'P 1'
_cell_length_a   5.05619501
_cell_length_b   5.05619476
_cell_length_c   5.19870923
_cell_angle_alpha   90.00000000
_cell_angle_beta   90.00000000
_cell_angle_gamma   129.72897979
_symmetry_Int_Tables_number   1
_chemical_formula_structural   HfSc(ZnPt)2
_chemical_formula_sum   'Hf1 Sc1 Zn2 Pt2'
_cell_volume   102.21452296
_cell_formula_units_Z   1
loop_
 _symmetry_equiv_pos_site_id
 _symmetry_equiv_pos_as_xyz
  1  'x, y, z'
loop_
 _atom_site_type_symbol
 _atom_site_label
 _atom_site_symmetry_multiplicity
 _atom_site_fract_x
 _atom_site_fract_y
 _atom_site_fract_z
 _atom_site_occupancy
  Hf  Hf0  1  0.70825371  0.29174629  0.25000000  1
  Sc  Sc0  1  0.29143982  0.70856018  0.75000000  1
  Zn  Zn0  1  0.00351102  0.99648898  0.49829435  1
  Zn  Zn1  1  0.00351102  0.99648898  0.00170565  1
  Pt  Pt0  1  0.39341269  0.60658731  0.25000000  1
  Pt  Pt1  1  0.59987174  0.40012826  0.75000000  1
loop_
_geom_bond_atom_site_label_1
_geom_bond_atom_site_label_2
_geom_bond_distance
_geom_bond_site_symmetry_2
Hf0 Pt0 2.736026 1_545
Hf0 Pt0 2.736027 1_655
Hf0 Pt1 2.782290 1_554
Hf0 Pt1 2.782290 1_555
Hf0 Pt0 2.882308 1_555
Hf0 Zn0 2.995417 1_645
Hf0 Zn1 2.995417 1_645
Hf0 Zn0 3.129215 1_655
Hf0 Zn1 3.129215 1_655
Hf0 Zn0 3.129215 1_545
Hf0 Zn1 3.129215 1_545
Sc0 Zn1 2.942860 1_556
Sc0 Zn0 2.942860 1_555
Sc0 Zn1 3.177120 1_546
Sc0 Zn0 3.177120 1_545
Sc0 Zn1 3.177120 1_656
Sc0 Zn0 3.177120 1_655
Zn0 Zn1 2.581620 1_555
Zn0 Zn1 2.617089 1_556
Pt0 Zn0 2.700853 1_545
Pt0 Zn1 2.700853 1_545
Pt0 Zn0 2.700853 1_655
Pt0 Zn1 2.700853 1_655
Pt0 Sc0 2.761910 1_555
Pt0 Sc0 2.761910 1_554
Pt1 Zn1 2.665145 1_656
Pt1 Zn0 2.665145 1_655
Pt1 Zn1 2.665145 1_546
Pt1 Zn0 2.665145 1_545
Pt1 Sc0 2.772760 1_545
Pt1 Sc0 2.772760 1_655
Pt1 Sc0 2.823634 1_555
