# generated using pymatgen
data_FeNi7RhSe8
_symmetry_space_group_name_H-M   'P 1'
_cell_length_a   7.45476867
_cell_length_b   7.45476741
_cell_length_c   7.45476820
_cell_angle_alpha   60.01535873
_cell_angle_beta   60.01536289
_cell_angle_gamma   60.01536208
_symmetry_Int_Tables_number   1
_chemical_formula_structural   FeNi7RhSe8
_chemical_formula_sum   'Fe1 Ni7 Rh1 Se8'
_cell_volume   293.04791046
_cell_formula_units_Z   1
loop_
 _symmetry_equiv_pos_site_id
 _symmetry_equiv_pos_as_xyz
  1  'x, y, z'
loop_
 _atom_site_type_symbol
 _atom_site_label
 _atom_site_symmetry_multiplicity
 _atom_site_fract_x
 _atom_site_fract_y
 _atom_site_fract_z
 _atom_site_occupancy
  Fe  Fe0  1  0.87588410  0.87588410  0.87588410  1
  Ni  Ni0  1  0.62849990  0.12355721  0.12355721  1
  Ni  Ni1  1  0.12355721  0.62849990  0.12355721  1
  Ni  Ni2  1  0.12355721  0.12355721  0.62849990  1
  Ni  Ni3  1  0.12438117  0.12438117  0.12438117  1
  Ni  Ni4  1  0.36899207  0.87749355  0.87749355  1
  Ni  Ni5  1  0.87749355  0.36899207  0.87749355  1
  Ni  Ni6  1  0.87749355  0.87749355  0.36899207  1
  Rh  Rh0  1  0.49832500  0.49832500  0.49832500  1
  Se  Se0  1  0.25055876  0.25055876  0.25055876  1
  Se  Se1  1  0.74974037  0.74974037  0.74974037  1
  Se  Se2  1  0.74022198  0.25953714  0.25953714  1
  Se  Se3  1  0.73991515  0.26239156  0.73991515  1
  Se  Se4  1  0.73991515  0.73991515  0.26239156  1
  Se  Se5  1  0.26239156  0.73991515  0.73991515  1
  Se  Se6  1  0.25953714  0.74022198  0.25953714  1
  Se  Se7  1  0.25953714  0.25953714  0.74022198  1
loop_
_geom_bond_atom_site_label_1
_geom_bond_atom_site_label_2
_geom_bond_distance
_geom_bond_site_symmetry_2
Fe0 Se1 2.303165 1_555
Fe0 Se3 2.354867 1_565
Fe0 Se4 2.354868 1_556
Fe0 Se5 2.354868 1_655
Ni0 Se0 2.300935 1_555
Ni0 Se2 2.337455 1_555
Ni0 Se4 2.338100 1_545
Ni0 Se3 2.338101 1_554
Ni1 Se0 2.300935 1_555
Ni1 Se6 2.337455 1_555
Ni1 Se5 2.338101 1_554
Ni1 Se4 2.338101 1_455
Ni2 Se0 2.300935 1_555
Ni2 Se7 2.337455 1_555
Ni2 Se5 2.338100 1_545
Ni2 Se3 2.338101 1_455
Ni3 Se0 2.303783 1_555
Ni3 Se6 2.340567 1_545
Ni3 Se7 2.340567 1_554
Ni3 Se2 2.340567 1_455
Ni4 Se1 2.318012 1_555
Ni4 Se5 2.327232 1_555
Ni4 Se7 2.328738 1_565
Ni4 Se6 2.328738 1_556
Ni5 Se1 2.318012 1_555
Ni5 Se3 2.327232 1_555
Ni5 Se2 2.328738 1_556
Ni5 Se7 2.328738 1_655
Ni6 Se1 2.318012 1_555
Ni6 Se4 2.327232 1_555
Ni6 Se2 2.328738 1_565
Ni6 Se6 2.328738 1_655
Rh0 Se7 2.517860 1_555
Rh0 Se2 2.517860 1_555
Rh0 Se6 2.517860 1_555
Rh0 Se4 2.547627 1_555
Rh0 Se5 2.547627 1_555
Rh0 Se3 2.547627 1_555
