# generated using pymatgen
data_Na2CaCdSb2
_symmetry_space_group_name_H-M   'P 1'
_cell_length_a   4.68741053
_cell_length_b   7.84719335
_cell_length_c   9.14315953
_cell_angle_alpha   90.00000000
_cell_angle_beta   90.00000000
_cell_angle_gamma   90.00000000
_symmetry_Int_Tables_number   1
_chemical_formula_structural   Na2CaCdSb2
_chemical_formula_sum   'Na4 Ca2 Cd2 Sb4'
_cell_volume   336.31299029
_cell_formula_units_Z   2
loop_
 _symmetry_equiv_pos_site_id
 _symmetry_equiv_pos_as_xyz
  1  'x, y, z'
loop_
 _atom_site_type_symbol
 _atom_site_label
 _atom_site_symmetry_multiplicity
 _atom_site_fract_x
 _atom_site_fract_y
 _atom_site_fract_z
 _atom_site_occupancy
  Na  Na0  1  0.50000000  0.03571180  0.41715556  1
  Na  Na1  1  0.00000000  0.35739774  0.33043690  1
  Na  Na2  1  0.50000000  0.53571180  0.58284444  1
  Na  Na3  1  0.00000000  0.85739774  0.66956310  1
  Ca  Ca0  1  0.00000000  0.48358296  0.94279754  1
  Ca  Ca1  1  0.00000000  0.98358296  0.05720246  1
  Cd  Cd0  1  0.50000000  0.14425905  0.81167690  1
  Cd  Cd1  1  0.50000000  0.64425905  0.18832310  1
  Sb  Sb0  1  0.00000000  0.25496162  0.65638334  1
  Sb  Sb1  1  0.50000000  0.26960782  0.11897304  1
  Sb  Sb2  1  0.00000000  0.75496162  0.34361666  1
  Sb  Sb3  1  0.50000000  0.76960782  0.88102696  1
loop_
_geom_bond_atom_site_label_1
_geom_bond_atom_site_label_2
_geom_bond_distance
_geom_bond_site_symmetry_2
Na0 Sb2 3.286138 1_545
Na0 Sb2 3.286138 1_645
Na0 Sb1 3.286590 1_555
Na0 Sb0 3.638314 1_555
Na0 Sb0 3.638314 1_655
Na1 Sb0 3.086685 1_555
Na1 Sb1 3.115408 1_455
Na1 Sb1 3.115408 1_555
Na1 Sb2 3.122087 1_555
Na2 Sb0 3.286138 1_655
Na2 Sb0 3.286138 1_555
Na2 Sb3 3.286590 1_555
Na2 Sb2 3.638314 1_555
Na2 Sb2 3.638314 1_655
Na3 Sb2 3.086685 1_555
Na3 Sb3 3.115408 1_455
Na3 Sb3 3.115408 1_555
Na3 Sb0 3.122087 1_565
Ca0 Sb0 3.174321 1_555
Ca0 Sb3 3.293884 1_455
Ca0 Sb3 3.293884 1_555
Ca0 Sb1 3.302578 1_556
Ca0 Sb1 3.302578 1_456
Ca0 Cd1 3.481694 1_556
Ca0 Cd1 3.481694 1_456
Ca0 Cd0 3.744382 1_455
Ca0 Cd0 3.744382 1_555
Ca1 Sb2 3.174321 1_555
Ca1 Sb1 3.293884 1_465
Ca1 Sb1 3.293884 1_565
Ca1 Sb3 3.302578 1_454
Ca1 Sb3 3.302578 1_554
Ca1 Cd0 3.481694 1_464
Ca1 Cd0 3.481694 1_564
Ca1 Cd1 3.744382 1_455
Ca1 Cd1 3.744382 1_555
Cd0 Sb0 2.874655 1_555
Cd0 Sb0 2.874655 1_655
Cd0 Sb1 2.976863 1_556
Cd0 Sb3 3.007561 1_545
Cd0 Na3 3.499795 1_545
Cd0 Na3 3.499795 1_645
Cd0 Na0 3.706378 1_555
Cd0 Na2 3.716653 1_555
Cd1 Sb2 2.874655 1_655
Cd1 Sb2 2.874655 1_555
Cd1 Sb3 2.976863 1_554
Cd1 Sb1 3.007561 1_555
Cd1 Na1 3.499795 1_555
Cd1 Na1 3.499795 1_655
Cd1 Na2 3.706378 1_555
Cd1 Na0 3.716653 1_565
