# generated using pymatgen
data_KGe6(Sb3Pt2)2
_symmetry_space_group_name_H-M   'P 1'
_cell_length_a   7.85015669
_cell_length_b   7.85997750
_cell_length_c   7.85015841
_cell_angle_alpha   109.47101347
_cell_angle_beta   109.48183866
_cell_angle_gamma   109.41021367
_symmetry_Int_Tables_number   1
_chemical_formula_structural   KGe6(Sb3Pt2)2
_chemical_formula_sum   'K1 Ge6 Sb6 Pt4'
_cell_volume   373.10141674
_cell_formula_units_Z   1
loop_
 _symmetry_equiv_pos_site_id
 _symmetry_equiv_pos_as_xyz
  1  'x, y, z'
loop_
 _atom_site_type_symbol
 _atom_site_label
 _atom_site_symmetry_multiplicity
 _atom_site_fract_x
 _atom_site_fract_y
 _atom_site_fract_z
 _atom_site_occupancy
  K  K0  1  0.00746707  0.99994511  0.99247904  1
  Ge  Ge0  1  0.14619668  0.34244779  0.49273201  1
  Ge  Ge1  1  0.51848131  0.16396693  0.36122657  1
  Ge  Ge2  1  0.84971678  0.34244779  0.19625111  1
  Ge  Ge3  1  0.63516978  0.47486097  0.83969319  1
  Ge  Ge4  1  0.35593194  0.20209602  0.84616508  1
  Ge  Ge5  1  0.80274036  0.16396693  0.64548662  1
  Sb  Sb0  1  0.84181878  0.64287231  0.48860690  1
  Sb  Sb1  1  0.33919536  0.48604509  0.14684973  1
  Sb  Sb2  1  0.19971812  0.85948032  0.34695734  1
  Sb  Sb3  1  0.15426441  0.64287231  0.80105353  1
  Sb  Sb4  1  0.65550934  0.80496287  0.14945353  1
  Sb  Sb5  1  0.51252098  0.85948032  0.65976120  1
  Pt  Pt0  1  0.00662559  0.01850064  0.51729566  1
  Pt  Pt1  1  0.49335891  0.48877597  0.50869738  1
  Pt  Pt2  1  0.98007760  0.48877597  0.99541607  1
  Pt  Pt3  1  0.50120598  0.01850064  0.01187705  1
loop_
_geom_bond_atom_site_label_1
_geom_bond_atom_site_label_2
_geom_bond_distance
_geom_bond_site_symmetry_2
K0 Sb1 3.323136 1_566
K0 Sb2 3.405065 1_556
K0 Sb5 3.405088 1_455
K0 Sb3 3.457770 1_555
K0 Sb0 3.457781 1_455
K0 Sb4 3.495221 1_456
Ge0 Pt0 2.516915 1_555
Ge0 Pt1 2.521588 1_555
Ge0 Ge2 2.687118 1_455
Ge0 Sb3 2.725122 1_555
Ge0 K0 3.464952 1_544
Ge1 Pt3 2.530845 1_555
Ge1 Pt1 2.532482 1_555
Ge1 Ge5 2.576356 1_555
Ge1 Sb2 2.766909 1_545
Ge1 K0 3.530302 1_544
Ge2 Pt3 2.516916 1_555
Ge2 Pt2 2.521588 1_554
Ge2 Sb0 2.725122 1_555
Ge2 K0 3.464949 1_644
Ge3 Pt2 2.518657 1_555
Ge3 Pt1 2.518681 1_555
Ge3 Ge4 2.535230 1_555
Ge3 Sb4 2.816027 1_556
Ge3 K0 3.654891 1_655
Ge4 Pt0 2.535933 1_555
Ge4 Pt3 2.535937 1_556
Ge4 Sb1 2.731241 1_556
Ge4 K0 3.427876 1_545
Ge5 Pt0 2.530859 1_655
Ge5 Pt2 2.532475 1_555
Ge5 Sb5 2.766908 1_545
Ge5 K0 3.530305 1_645
Sb0 Sb3 2.831822 1_655
Sb1 Sb4 2.871349 1_555
Sb2 Sb5 2.835060 1_555
Pt0 Sb4 2.671681 1_445
Pt0 Sb2 2.673013 1_545
Pt0 Sb0 2.695354 1_445
Pt1 Sb1 2.680104 1_555
Pt1 Sb0 2.680972 1_555
Pt1 Sb5 2.684197 1_555
Pt2 Sb1 2.680112 1_656
Pt2 Sb3 2.680965 1_655
Pt2 Sb2 2.684193 1_656
Pt3 Sb4 2.671669 1_545
Pt3 Sb5 2.673022 1_544
Pt3 Sb3 2.695360 1_544
