# generated using pymatgen
data_Li4AgAu3S4
_symmetry_space_group_name_H-M   'P 1'
_cell_length_a   7.14678830
_cell_length_b   7.14260365
_cell_length_c   6.45865611
_cell_angle_alpha   64.25440940
_cell_angle_beta   65.23498006
_cell_angle_gamma   51.50383251
_symmetry_Int_Tables_number   1
_chemical_formula_structural   Li4AgAu3S4
_chemical_formula_sum   'Li4 Ag1 Au3 S4'
_cell_volume   227.20322700
_cell_formula_units_Z   1
loop_
 _symmetry_equiv_pos_site_id
 _symmetry_equiv_pos_as_xyz
  1  'x, y, z'
loop_
 _atom_site_type_symbol
 _atom_site_label
 _atom_site_symmetry_multiplicity
 _atom_site_fract_x
 _atom_site_fract_y
 _atom_site_fract_z
 _atom_site_occupancy
  Li  Li0  1  0.13018948  0.15580662  0.86208909  1
  Li  Li1  1  0.84844650  0.85337554  0.14711143  1
  Li  Li2  1  0.11981052  0.09419338  0.38791091  1
  Li  Li3  1  0.40155350  0.39662446  0.10288857  1
  Ag  Ag0  1  0.62500000  0.12500000  0.62500000  1
  Au  Au0  1  0.62500000  0.62500000  0.62500000  1
  Au  Au1  1  0.12500000  0.62500000  0.62500000  1
  Au  Au2  1  0.62500000  0.62500000  0.12500000  1
  S  S0  1  0.03899791  0.46327435  0.45976631  1
  S  S1  1  0.79485234  0.20469914  0.21418454  1
  S  S2  1  0.45514766  0.04530086  0.03581546  1
  S  S3  1  0.21100209  0.78672565  0.79023369  1
loop_
_geom_bond_atom_site_label_1
_geom_bond_atom_site_label_2
_geom_bond_distance
_geom_bond_site_symmetry_2
Li0 S1 2.473653 1_456
Li0 S2 2.531258 1_556
Li0 S3 2.537980 1_545
Li0 S0 2.584399 1_555
Li1 S1 2.498019 1_565
Li1 S2 2.517219 1_565
Li1 S0 2.527435 1_655
Li1 S3 2.582107 1_654
Li2 S2 2.473653 1_555
Li2 S1 2.531258 1_455
Li2 S0 2.537980 1_555
Li2 S3 2.584399 1_545
Li3 S2 2.498019 1_555
Li3 S1 2.517219 1_555
Li3 S3 2.527435 1_554
Li3 S0 2.582107 1_555
Ag0 S2 2.384818 1_556
Ag0 S1 2.384818 1_555
Ag0 Au1 3.104195 1_645
Ag0 Au1 3.104195 1_555
Au0 S0 2.323397 1_655
Au0 S3 2.323397 1_555
Au0 Li1 3.078490 1_555
Au0 Li3 3.078490 1_556
Au1 S3 2.314176 1_555
Au1 S0 2.314176 1_555
Au1 Li2 3.001967 1_565
Au1 Li0 3.001967 1_555
Au2 S2 2.316122 1_565
Au2 S1 2.316122 1_555
Au2 Li1 2.977870 1_555
Au2 Li3 2.977870 1_555
