# generated using pymatgen
data_Rb5Zr(MoH9)3
_symmetry_space_group_name_H-M   'P 1'
_cell_length_a   9.80109359
_cell_length_b   9.34544022
_cell_length_c   5.34276341
_cell_angle_alpha   90.00000000
_cell_angle_beta   90.00000000
_cell_angle_gamma   118.47369466
_symmetry_Int_Tables_number   1
_chemical_formula_structural   Rb5Zr(MoH9)3
_chemical_formula_sum   'Rb5 Zr1 Mo3 H27'
_cell_volume   430.17676540
_cell_formula_units_Z   1
loop_
 _symmetry_equiv_pos_site_id
 _symmetry_equiv_pos_as_xyz
  1  'x, y, z'
loop_
 _atom_site_type_symbol
 _atom_site_label
 _atom_site_symmetry_multiplicity
 _atom_site_fract_x
 _atom_site_fract_y
 _atom_site_fract_z
 _atom_site_occupancy
  Rb  Rb0  1  0.72474812  0.74436997  0.50000000  1
  Rb  Rb1  1  0.27525188  0.01962286  0.50000000  1
  Rb  Rb2  1  0.00000000  0.62914098  0.00000000  1
  Rb  Rb3  1  0.43046524  0.38402946  0.00000000  1
  Rb  Rb4  1  0.56953476  0.95356522  0.00000000  1
  Zr  Zr0  1  0.00000000  0.26960104  0.50000000  1
  Mo  Mo0  1  0.71749260  0.32428958  0.50000000  1
  Mo  Mo1  1  0.28250740  0.60679797  0.50000000  1
  Mo  Mo2  1  0.00000000  0.06374149  0.00000000  1
  H  H0  1  0.87455917  0.34871960  0.70317502  1
  H  H1  1  0.70827842  0.41198324  0.77247603  1
  H  H2  1  0.57065776  0.19098204  0.69826920  1
  H  H3  1  0.12544083  0.47416043  0.29682498  1
  H  H4  1  0.57065776  0.19098204  0.30173080  1
  H  H5  1  0.87455917  0.34871960  0.29682498  1
  H  H6  1  0.70827842  0.41198324  0.22752397  1
  H  H7  1  0.29172158  0.70370582  0.77247603  1
  H  H8  1  0.42934224  0.62032528  0.69826920  1
  H  H9  1  0.17143638  0.05723729  0.00000000  1
  H  H10  1  0.82856362  0.88580091  0.00000000  1
  H  H11  1  0.00000000  0.25280742  0.00000000  1
  H  H12  1  0.87787449  0.06356991  0.24614407  1
  H  H13  1  0.12212551  0.18569542  0.75385593  1
  H  H14  1  0.00000000  0.92477774  0.78405100  1
  H  H15  1  0.00000000  0.92477774  0.21594900  1
  H  H16  1  0.12212551  0.18569542  0.24614407  1
  H  H17  1  0.87787449  0.06356991  0.75385593  1
  H  H18  1  0.16386866  0.69635377  0.50000000  1
  H  H19  1  0.43074833  0.80858167  0.50000000  1
  H  H20  1  0.25408743  0.39999520  0.50000000  1
  H  H21  1  0.56925167  0.37783334  0.50000000  1
  H  H22  1  0.83613134  0.53248511  0.50000000  1
  H  H23  1  0.74591257  0.14590777  0.50000000  1
  H  H24  1  0.12544083  0.47416043  0.70317502  1
  H  H25  1  0.29172158  0.70370582  0.22752397  1
  H  H26  1  0.42934224  0.62032528  0.30173080  1
loop_
_geom_bond_atom_site_label_1
_geom_bond_atom_site_label_2
_geom_bond_distance
_geom_bond_site_symmetry_2
H0 Mo0 1.806979 1_555
H0 Zr0 2.025689 1_655
H0 Rb2 2.796819 1_656
H1 Mo0 1.694003 1_555
H1 Rb2 2.870277 1_656
H1 Rb3 2.877799 1_556
H2 Mo0 1.742344 1_555
H2 Rb4 2.738347 1_546
H2 Rb1 2.765575 1_555
H3 Mo1 1.806981 1_555
H3 Zr0 2.025689 1_555
H3 Rb2 2.796820 1_555
H4 Mo0 1.742344 1_555
H4 Rb4 2.738347 1_545
H4 Rb1 2.765575 1_555
H5 Mo0 1.806979 1_555
H5 Zr0 2.025689 1_655
H5 Rb2 2.796819 1_655
H6 Mo0 1.694003 1_555
H6 Rb2 2.870277 1_655
H6 Rb3 2.877799 1_555
H7 Mo1 1.694003 1_555
H7 Rb2 2.870276 1_556
H7 Rb4 2.877799 1_556
H8 Mo1 1.742344 1_555
H8 Rb3 2.738362 1_556
H8 Rb0 2.765576 1_555
H9 Mo2 1.710078 1_555
H9 Rb3 2.894714 1_555
H9 Rb1 2.938744 1_554
H9 Rb1 2.938744 1_555
H10 Mo2 1.710078 1_665
H10 Rb4 2.894721 1_555
H10 Rb0 2.938746 1_554
H10 Rb0 2.938746 1_555
H11 Mo2 1.766904 1_555
H12 Mo2 1.777739 1_655
H12 Zr0 2.186793 1_655
H12 Rb0 2.953261 1_545
H12 Rb4 2.992798 1_545
H13 Mo2 1.777738 1_556
H13 Zr0 2.186793 1_555
H13 Rb1 2.953254 1_555
H13 Rb3 2.992796 1_556
H14 Mo2 1.737163 1_566
H14 Rb1 2.843716 1_565
H14 Rb0 2.843717 1_455
H14 Rb2 2.994085 1_556
H15 Mo2 1.737163 1_565
H15 Rb1 2.843716 1_565
H15 Rb0 2.843717 1_455
H15 Rb2 2.994085 1_555
H16 Mo2 1.777738 1_555
H16 Zr0 2.186793 1_555
H16 Rb1 2.953254 1_555
H16 Rb3 2.992796 1_555
H17 Mo2 1.777739 1_656
H17 Zr0 2.186793 1_655
H17 Rb0 2.953261 1_545
H17 Rb4 2.992798 1_546
H18 Mo1 1.726408 1_555
H18 Rb1 2.678437 1_565
H18 Rb2 3.024636 1_555
H18 Rb2 3.024636 1_556
H19 Mo1 1.747736 1_555
H19 Rb4 3.010823 1_555
H19 Rb4 3.010823 1_556
H19 Rb1 3.013074 1_565
H20 Mo1 1.816443 1_555
H20 Zr0 2.189318 1_555
H21 Mo0 1.747743 1_555
H21 Rb3 3.010821 1_555
H21 Rb3 3.010821 1_556
H21 Rb0 3.013065 1_555
H22 Mo0 1.726415 1_555
H22 Rb0 2.678429 1_555
H22 Rb2 3.024636 1_656
H22 Rb2 3.024636 1_655
H23 Mo0 1.816434 1_555
H23 Zr0 2.189318 1_655
H24 Mo1 1.806981 1_555
H24 Zr0 2.025689 1_555
H24 Rb2 2.796820 1_556
H25 Mo1 1.694003 1_555
H25 Rb2 2.870276 1_555
H25 Rb4 2.877799 1_555
H26 Mo1 1.742344 1_555
H26 Rb3 2.738362 1_555
H26 Rb0 2.765576 1_555
