# generated using pymatgen
data_TiInRh3Se8
_symmetry_space_group_name_H-M   'P 1'
_cell_length_a   7.29628284
_cell_length_b   7.29628275
_cell_length_c   7.29628404
_cell_angle_alpha   62.39003574
_cell_angle_beta   62.39001456
_cell_angle_gamma   62.39003844
_symmetry_Int_Tables_number   1
_chemical_formula_structural   TiInRh3Se8
_chemical_formula_sum   'Ti1 In1 Rh3 Se8'
_cell_volume   289.29750967
_cell_formula_units_Z   1
loop_
 _symmetry_equiv_pos_site_id
 _symmetry_equiv_pos_as_xyz
  1  'x, y, z'
loop_
 _atom_site_type_symbol
 _atom_site_label
 _atom_site_symmetry_multiplicity
 _atom_site_fract_x
 _atom_site_fract_y
 _atom_site_fract_z
 _atom_site_occupancy
  Ti  Ti0  1  0.59429284  0.59429284  0.59429284  1
  In  In0  1  0.01385227  0.01385227  0.01385227  1
  Rh  Rh0  1  0.62490523  0.62490523  0.13959797  1
  Rh  Rh1  1  0.62490523  0.13959797  0.62490523  1
  Rh  Rh2  1  0.13959797  0.62490523  0.62490523  1
  Se  Se0  1  0.36839977  0.36839977  0.86856725  1
  Se  Se1  1  0.36839977  0.86856725  0.36839977  1
  Se  Se2  1  0.86856725  0.36839977  0.36839977  1
  Se  Se3  1  0.38903991  0.38903991  0.38903991  1
  Se  Se4  1  0.85601612  0.85601612  0.43043154  1
  Se  Se5  1  0.85601612  0.43043154  0.85601612  1
  Se  Se6  1  0.43043154  0.85601612  0.85601612  1
  Se  Se7  1  0.86557398  0.86557398  0.86557398  1
loop_
_geom_bond_atom_site_label_1
_geom_bond_atom_site_label_2
_geom_bond_distance
_geom_bond_site_symmetry_2
In0 Se6 2.575125 1_544
In0 Se4 2.575125 1_445
In0 Se5 2.575125 1_454
In0 Se7 2.601175 1_444
Rh0 Se3 2.484854 1_555
Rh0 Se1 2.494228 1_555
Rh0 Se2 2.494229 1_555
Rh0 Se5 2.531308 1_554
Rh0 Se6 2.531309 1_554
Rh0 Se7 2.552272 1_554
Rh1 Se3 2.484855 1_555
Rh1 Se2 2.494228 1_555
Rh1 Se0 2.494228 1_555
Rh1 Se6 2.531308 1_545
Rh1 Se4 2.531308 1_545
Rh1 Se7 2.552273 1_545
Rh2 Se3 2.484854 1_555
Rh2 Se1 2.494228 1_555
Rh2 Se0 2.494229 1_555
Rh2 Se5 2.531307 1_455
Rh2 Se4 2.531309 1_455
Rh2 Se7 2.552272 1_455
Se0 Ti0 2.416865 1_555
Se1 Ti0 2.416866 1_555
Se2 Ti0 2.416866 1_555
Se4 Ti0 2.805397 1_555
Se5 Ti0 2.805398 1_555
Se6 Ti0 2.805398 1_555
