# generated using pymatgen
data_KSn2(Sb5Pd2)2
_symmetry_space_group_name_H-M   'P 1'
_cell_length_a   8.24085379
_cell_length_b   8.24085548
_cell_length_c   8.27120297
_cell_angle_alpha   109.21252005
_cell_angle_beta   109.59740789
_cell_angle_gamma   109.45528010
_symmetry_Int_Tables_number   1
_chemical_formula_structural   KSn2(Sb5Pd2)2
_chemical_formula_sum   'K1 Sn2 Sb10 Pd4'
_cell_volume   433.19224262
_cell_formula_units_Z   1
loop_
 _symmetry_equiv_pos_site_id
 _symmetry_equiv_pos_as_xyz
  1  'x, y, z'
loop_
 _atom_site_type_symbol
 _atom_site_label
 _atom_site_symmetry_multiplicity
 _atom_site_fract_x
 _atom_site_fract_y
 _atom_site_fract_z
 _atom_site_occupancy
  K  K0  1  0.00000000  0.00000000  0.00000000  1
  Sn  Sn0  1  0.84530239  0.65200184  0.49730424  1
  Sn  Sn1  1  0.15469761  0.34799816  0.50269576  1
  Sb  Sb0  1  0.15384758  0.65295676  0.80680734  1
  Sb  Sb1  1  0.84615242  0.34704324  0.19319266  1
  Sb  Sb2  1  0.65239601  0.49814801  0.84299268  1
  Sb  Sb3  1  0.34760399  0.50185199  0.15700732  1
  Sb  Sb4  1  0.65515433  0.80940433  0.15700732  1
  Sb  Sb5  1  0.34484567  0.19059567  0.84299268  1
  Sb  Sb6  1  0.49700455  0.84191541  0.65279190  1
  Sb  Sb7  1  0.50299545  0.15808459  0.34720810  1
  Sb  Sb8  1  0.18912151  0.84421265  0.34720810  1
  Sb  Sb9  1  0.81087849  0.15578735  0.65279190  1
  Pd  Pd0  1  0.50000000  0.50000000  0.50000000  1
  Pd  Pd1  1  0.50000000  0.00000000  0.00000000  1
  Pd  Pd2  1  0.00000000  0.50000000  0.00000000  1
  Pd  Pd3  1  0.00000000  0.00000000  0.50000000  1
loop_
_geom_bond_atom_site_label_1
_geom_bond_atom_site_label_2
_geom_bond_distance
_geom_bond_site_symmetry_2
K0 Sb3 3.615817 1_555
K0 Sb2 3.615817 1_444
K0 Sb5 3.615820 1_554
K0 Sb4 3.615820 1_445
K0 Sb8 3.616839 1_545
K0 Sb9 3.616839 1_454
K0 Sb7 3.616843 1_555
K0 Sb6 3.616843 1_444
K0 Sb1 3.620319 1_455
K0 Sb0 3.620319 1_544
K0 Sn1 3.646737 1_555
K0 Sn0 3.646737 1_444
Sb0 Sn1 2.916509 1_555
Sb0 Sn0 2.936942 1_455
Sb1 Sn0 2.916509 1_555
Sb1 Sn1 2.936942 1_655
Sb2 Sb5 2.927148 1_555
Sb2 Sb4 2.977018 1_556
Sb3 Sb4 2.927148 1_555
Sb3 Sb5 2.977018 1_554
Sb6 Sb8 2.930512 1_555
Sb6 Sb9 2.987314 1_565
Sb7 Sb9 2.930512 1_555
Sb7 Sb8 2.987314 1_545
Pd0 Sb7 2.694567 1_555
Pd0 Sb6 2.694567 1_555
Pd0 Sb2 2.697598 1_555
Pd0 Sb3 2.697598 1_555
Pd0 Sn1 2.711723 1_555
Pd0 Sn0 2.711723 1_555
Pd1 Sb4 2.711951 1_545
Pd1 Sb5 2.711951 1_554
Pd1 Sb1 2.714752 1_555
Pd1 Sb0 2.714752 1_544
Pd1 Sb7 2.722845 1_555
Pd1 Sb6 2.722845 1_544
Pd2 Sb3 2.711962 1_555
Pd2 Sb2 2.711962 1_454
Pd2 Sb0 2.714727 1_554
Pd2 Sb1 2.714727 1_455
Pd2 Sb8 2.722847 1_555
Pd2 Sb9 2.722847 1_454
Pd3 Sb9 2.694552 1_455
Pd3 Sb8 2.694552 1_545
Pd3 Sb5 2.697603 1_555
Pd3 Sb4 2.697603 1_445
Pd3 Sn1 2.711724 1_555
Pd3 Sn0 2.711724 1_445
