# generated using pymatgen
data_Zr5SiPtRh9
_symmetry_space_group_name_H-M   'P 1'
_cell_length_a   5.56034417
_cell_length_b   5.58086624
_cell_length_c   8.34348443
_cell_angle_alpha   90.00000000
_cell_angle_beta   90.00000000
_cell_angle_gamma   99.99445899
_symmetry_Int_Tables_number   1
_chemical_formula_structural   Zr5SiPtRh9
_chemical_formula_sum   'Zr5 Si1 Pt1 Rh9'
_cell_volume   254.98205069
_cell_formula_units_Z   1
loop_
 _symmetry_equiv_pos_site_id
 _symmetry_equiv_pos_as_xyz
  1  'x, y, z'
loop_
 _atom_site_type_symbol
 _atom_site_label
 _atom_site_symmetry_multiplicity
 _atom_site_fract_x
 _atom_site_fract_y
 _atom_site_fract_z
 _atom_site_occupancy
  Zr  Zr0  1  0.42029822  0.42228945  0.25000000  1
  Zr  Zr1  1  0.79484440  0.21860654  0.50439650  1
  Zr  Zr2  1  0.21436770  0.79259923  0.99413030  1
  Zr  Zr3  1  0.21436770  0.79259923  0.50586970  1
  Zr  Zr4  1  0.79484440  0.21860654  0.99560350  1
  Si  Si0  1  0.53829790  0.54100697  0.75000000  1
  Pt  Pt0  1  0.52343491  0.95954323  0.25000000  1
  Rh  Rh0  1  0.71185928  0.71134499  0.99769533  1
  Rh  Rh1  1  0.71185928  0.71134499  0.50230467  1
  Rh  Rh2  1  0.29939468  0.30262973  0.95581276  1
  Rh  Rh3  1  0.29939468  0.30262973  0.54418724  1
  Rh  Rh4  1  0.50627282  0.98887629  0.75000000  1
  Rh  Rh5  1  0.02010750  0.01449124  0.25000000  1
  Rh  Rh6  1  0.99826746  0.00005478  0.75000000  1
  Rh  Rh7  1  0.98546733  0.50711379  0.75000000  1
  Rh  Rh8  1  0.96692373  0.51626628  0.25000000  1
loop_
_geom_bond_atom_site_label_1
_geom_bond_atom_site_label_2
_geom_bond_distance
_geom_bond_site_symmetry_2
Pt0 Zr0 2.740872 1_565
Pt0 Zr3 2.796992 1_555
Pt0 Zr2 2.796992 1_554
Pt0 Zr1 2.848805 1_565
Pt0 Zr4 2.848805 1_564
Pt0 Zr0 2.953318 1_555
Rh0 Si0 2.405746 1_555
Rh0 Zr2 2.752058 1_655
Rh0 Zr4 2.788213 1_565
Rh0 Zr4 2.866294 1_555
Rh0 Zr2 2.879918 1_555
Rh0 Zr0 2.958758 1_556
Rh1 Si0 2.405746 1_555
Rh1 Zr3 2.752058 1_655
Rh1 Zr1 2.788213 1_565
Rh1 Zr1 2.866294 1_555
Rh1 Zr3 2.879918 1_555
Rh1 Zr0 2.958758 1_555
Rh2 Si0 2.422765 1_555
Rh2 Zr0 2.601321 1_556
Rh2 Zr4 2.782832 1_455
Rh2 Zr2 2.821468 1_545
Rh2 Zr2 2.872578 1_555
Rh2 Zr4 2.892718 1_555
Rh3 Si0 2.422765 1_555
Rh3 Zr0 2.601321 1_555
Rh3 Zr1 2.782832 1_455
Rh3 Zr3 2.821468 1_545
Rh3 Zr3 2.872578 1_555
Rh3 Zr1 2.892718 1_555
Rh4 Si0 2.536473 1_555
Rh4 Zr2 2.714064 1_555
Rh4 Zr3 2.714064 1_555
Rh4 Zr4 2.775514 1_565
Rh4 Zr1 2.775514 1_565
Rh5 Zr3 2.778866 1_545
Rh5 Zr2 2.778866 1_544
Rh5 Zr1 2.804815 1_455
Rh5 Zr4 2.804815 1_454
Rh5 Zr0 2.893656 1_555
Rh6 Zr2 2.723255 1_645
Rh6 Zr3 2.723255 1_645
Rh6 Zr4 2.728576 1_555
Rh6 Zr1 2.728576 1_555
Rh7 Si0 2.526122 1_555
Rh7 Zr4 2.706056 1_555
Rh7 Zr1 2.706056 1_555
Rh7 Zr2 2.757439 1_655
Rh7 Zr3 2.757439 1_655
Rh8 Zr0 2.662523 1_655
Rh8 Zr1 2.761993 1_555
Rh8 Zr4 2.761993 1_554
Rh8 Zr3 2.844714 1_655
Rh8 Zr2 2.844714 1_654
Rh8 Zr0 2.993303 1_555
