# generated using pymatgen
data_Ta3TiNbN6
_symmetry_space_group_name_H-M   'P 1'
_cell_length_a   5.18917746
_cell_length_b   5.19900668
_cell_length_c   10.28616233
_cell_angle_alpha   90.08072713
_cell_angle_beta   89.95956067
_cell_angle_gamma   120.06268237
_symmetry_Int_Tables_number   1
_chemical_formula_structural   Ta3TiNbN6
_chemical_formula_sum   'Ta6 Ti2 Nb2 N12'
_cell_volume   240.17500753
_cell_formula_units_Z   2
loop_
 _symmetry_equiv_pos_site_id
 _symmetry_equiv_pos_as_xyz
  1  'x, y, z'
loop_
 _atom_site_type_symbol
 _atom_site_label
 _atom_site_symmetry_multiplicity
 _atom_site_fract_x
 _atom_site_fract_y
 _atom_site_fract_z
 _atom_site_occupancy
  Ta  Ta0  1  0.66377046  0.33188523  0.50000000  1
  Ta  Ta1  1  0.33408518  0.66704309  0.00000000  1
  Ta  Ta2  1  0.67795383  0.00025673  0.74991250  1
  Ta  Ta3  1  0.67795383  0.67769710  0.25008750  1
  Ta  Ta4  1  0.99980623  0.32200882  0.24998536  1
  Ta  Ta5  1  0.99980623  0.67779841  0.75001464  1
  Ti  Ti0  1  0.33354153  0.66677177  0.50000000  1
  Ti  Ti1  1  0.66529406  0.33264653  0.00000000  1
  Nb  Nb0  1  0.32325169  0.32357795  0.74997313  1
  Nb  Nb1  1  0.32325169  0.99967375  0.25002687  1
  N  N0  1  0.34427695  0.35047738  0.38031557  1
  N  N1  1  0.65875133  0.99845503  0.38082084  1
  N  N2  1  0.99691049  0.64950694  0.37995296  1
  N  N3  1  0.99407806  0.34629257  0.88000710  1
  N  N4  1  0.66043297  0.00119046  0.11923346  1
  N  N5  1  0.66043297  0.65924051  0.88076654  1
  N  N6  1  0.34619385  0.99758543  0.88013647  1
  N  N7  1  0.65875133  0.66029730  0.61917916  1
  N  N8  1  0.99691049  0.34740454  0.62004704  1
  N  N9  1  0.99407806  0.64778448  0.11999290  1
  N  N10  1  0.34427695  0.99380057  0.61968443  1
  N  N11  1  0.34619385  0.34860842  0.11986353  1
loop_
_geom_bond_atom_site_label_1
_geom_bond_atom_site_label_2
_geom_bond_distance
_geom_bond_site_symmetry_2
N0 Ti0 2.075760 1_555
N0 Ta0 2.106506 1_555
N0 Ta3 2.176820 1_555
N0 Ta4 2.179929 1_455
N0 Nb1 2.219972 1_545
N1 Ti0 2.100426 1_555
N1 Ta0 2.111247 1_565
N1 Ta3 2.181561 1_555
N1 Ta4 2.189360 1_565
N1 Nb1 2.203498 1_555
N2 Ta0 2.093508 1_555
N2 Ti0 2.104740 1_655
N2 Ta4 2.169263 1_555
N2 Ta3 2.189070 1_555
N2 Nb1 2.209749 1_655
N3 Ti1 2.077328 1_556
N3 Ta1 2.113455 1_656
N3 Ta5 2.171255 1_555
N3 Ta2 2.181235 1_555
N3 Nb0 2.217919 1_655
N4 Ti1 2.106360 1_555
N4 Ta1 2.106995 1_545
N4 Ta4 2.178608 1_555
N4 Ta3 2.192783 1_545
N4 Nb1 2.203264 1_545
N5 Ti1 2.106356 1_556
N5 Ta1 2.107001 1_556
N5 Ta5 2.178602 1_555
N5 Ta2 2.192791 1_565
N5 Nb0 2.203260 1_555
N6 Ta1 2.091643 1_556
N6 Ti1 2.098430 1_566
N6 Ta2 2.175105 1_565
N6 Ta5 2.188502 1_455
N6 Nb0 2.210887 1_565
N7 Ti0 2.100429 1_555
N7 Ta0 2.111251 1_555
N7 Ta2 2.181557 1_565
N7 Ta5 2.189360 1_555
N7 Nb0 2.203500 1_555
N8 Ta0 2.093506 1_555
N8 Ti0 2.104741 1_655
N8 Ta5 2.169263 1_555
N8 Ta2 2.189072 1_555
N8 Nb0 2.209751 1_655
N9 Ti1 2.077328 1_555
N9 Ta1 2.113452 1_655
N9 Ta4 2.171247 1_555
N9 Ta3 2.181238 1_555
N9 Nb1 2.217921 1_655
N10 Ti0 2.075756 1_555
N10 Ta0 2.106504 1_565
N10 Ta2 2.176822 1_565
N10 Ta5 2.179929 1_455
N10 Nb0 2.219967 1_565
N11 Ta1 2.091647 1_555
N11 Ti1 2.098432 1_555
N11 Ta3 2.175105 1_555
N11 Ta4 2.188504 1_455
N11 Nb1 2.210887 1_545
