# generated using pymatgen
data_K3Rb(MnN2)4
_symmetry_space_group_name_H-M   'P 1'
_cell_length_a   6.47700969
_cell_length_b   6.47700874
_cell_length_c   7.76131462
_cell_angle_alpha   89.00323044
_cell_angle_beta   90.99676870
_cell_angle_gamma   128.18523343
_symmetry_Int_Tables_number   1
_chemical_formula_structural   K3Rb(MnN2)4
_chemical_formula_sum   'K3 Rb1 Mn4 N8'
_cell_volume   255.87897839
_cell_formula_units_Z   1
loop_
 _symmetry_equiv_pos_site_id
 _symmetry_equiv_pos_as_xyz
  1  'x, y, z'
loop_
 _atom_site_type_symbol
 _atom_site_label
 _atom_site_symmetry_multiplicity
 _atom_site_fract_x
 _atom_site_fract_y
 _atom_site_fract_z
 _atom_site_occupancy
  K  K0  1  0.84072989  0.15927011  0.55562594  1
  K  K1  1  0.16079784  0.83920216  0.44316914  1
  K  K2  1  0.66062381  0.33937619  0.06328170  1
  Rb  Rb0  1  0.33252453  0.66747547  0.93318738  1
  Mn  Mn0  1  0.54402121  0.45597879  0.63645706  1
  Mn  Mn1  1  0.45882217  0.54117783  0.36341351  1
  Mn  Mn2  1  0.95709870  0.04290130  0.13509642  1
  Mn  Mn3  1  0.04214642  0.95785358  0.86630346  1
  N  N0  1  0.89731062  0.10268938  0.91958092  1
  N  N1  1  0.10153578  0.89846422  0.08234953  1
  N  N2  1  0.60400881  0.39599119  0.42401990  1
  N  N3  1  0.39889800  0.60110200  0.57380911  1
  N  N4  1  0.32873263  0.17099701  0.75273468  1
  N  N5  1  0.17154967  0.32780207  0.24911928  1
  N  N6  1  0.67219793  0.82845033  0.24911928  1
  N  N7  1  0.82900299  0.67126737  0.75273468  1
loop_
_geom_bond_atom_site_label_1
_geom_bond_atom_site_label_2
_geom_bond_distance
_geom_bond_site_symmetry_2
K0 N0 2.888243 1_555
K0 N3 2.912740 1_545
K0 N3 2.912740 1_655
K0 N2 2.922779 1_555
K0 N6 2.938883 1_545
K0 N5 2.938884 1_655
K1 N1 2.871318 1_555
K1 N2 2.909398 1_565
K1 N2 2.909398 1_455
K1 N3 2.935379 1_555
K1 N4 2.961875 1_565
K1 N7 2.961875 1_455
K2 N2 2.888862 1_555
K2 N1 2.916903 1_655
K2 N1 2.916904 1_545
K2 N7 2.938077 1_554
K2 N4 2.938077 1_554
K2 N0 2.994823 1_554
Mn0 N4 1.723200 1_555
Mn0 N7 1.723200 1_555
Mn0 N3 1.750455 1_555
Mn0 N2 1.803239 1_555
Mn1 N6 1.721856 1_555
Mn1 N5 1.721856 1_555
Mn1 N2 1.747129 1_555
Mn1 N3 1.788341 1_555
Mn2 N5 1.721222 1_655
Mn2 N6 1.721222 1_545
Mn2 N1 1.739755 1_645
Mn2 N0 1.799481 1_554
Mn3 N7 1.724692 1_455
Mn3 N4 1.724692 1_565
Mn3 N0 1.745319 1_465
Mn3 N1 1.801573 1_556
N0 Rb0 2.931306 1_655
N0 Rb0 2.931306 1_545
N1 Rb0 2.950432 1_554
N3 Rb0 2.908862 1_555
N5 Rb0 3.000835 1_554
N6 Rb0 3.000835 1_554
