# generated using pymatgen
data_MnBiF7
_symmetry_space_group_name_H-M   'P 1'
_cell_length_a   5.36292654
_cell_length_b   8.89714267
_cell_length_c   11.83176999
_cell_angle_alpha   61.25862778
_cell_angle_beta   90.00000000
_cell_angle_gamma   90.00000000
_symmetry_Int_Tables_number   1
_chemical_formula_structural   MnBiF7
_chemical_formula_sum   'Mn4 Bi4 F28'
_cell_volume   494.99664326
_cell_formula_units_Z   4
loop_
 _symmetry_equiv_pos_site_id
 _symmetry_equiv_pos_as_xyz
  1  'x, y, z'
loop_
 _atom_site_type_symbol
 _atom_site_label
 _atom_site_symmetry_multiplicity
 _atom_site_fract_x
 _atom_site_fract_y
 _atom_site_fract_z
 _atom_site_occupancy
  Mn  Mn0  1  0.74201565  0.27410497  0.45848639  1
  Mn  Mn1  1  0.24201565  0.72589503  0.04151361  1
  Mn  Mn2  1  0.25798435  0.72589503  0.54151361  1
  Mn  Mn3  1  0.75798435  0.27410497  0.95848639  1
  Bi  Bi0  1  0.73494327  0.81296956  0.26147566  1
  Bi  Bi1  1  0.23494327  0.18703044  0.23852434  1
  Bi  Bi2  1  0.26505673  0.18703044  0.73852434  1
  Bi  Bi3  1  0.76505673  0.81296956  0.76147566  1
  F  F0  1  0.42437642  0.71104205  0.91875853  1
  F  F1  1  0.92437642  0.28895795  0.58124147  1
  F  F2  1  0.57562358  0.28895795  0.08124147  1
  F  F3  1  0.07562358  0.71104205  0.41875853  1
  F  F4  1  0.45319270  0.27986609  0.53819289  1
  F  F5  1  0.95319270  0.72013391  0.96180711  1
  F  F6  1  0.54680730  0.72013391  0.46180711  1
  F  F7  1  0.04680730  0.27986609  0.03819289  1
  F  F8  1  0.76754631  0.50410866  0.86509244  1
  F  F9  1  0.26754631  0.49589134  0.63490756  1
  F  F10  1  0.23245369  0.49589134  0.13490756  1
  F  F11  1  0.73245369  0.50410866  0.36509244  1
  F  F12  1  0.76358052  0.04010408  0.05012772  1
  F  F13  1  0.26358052  0.95989592  0.44987228  1
  F  F14  1  0.23641948  0.95989592  0.94987228  1
  F  F15  1  0.73641948  0.04010408  0.55012772  1
  F  F16  1  0.97546167  0.73135680  0.62305898  1
  F  F17  1  0.47546167  0.26864320  0.87694102  1
  F  F18  1  0.02453833  0.26864320  0.37694102  1
  F  F19  1  0.52453833  0.73135680  0.12305898  1
  F  F20  1  0.06252098  0.73916362  0.16665641  1
  F  F21  1  0.56252098  0.26083638  0.33334359  1
  F  F22  1  0.93747902  0.26083638  0.83334359  1
  F  F23  1  0.43747902  0.73916362  0.66665641  1
  F  F24  1  0.37923538  0.96415985  0.22221068  1
  F  F25  1  0.87923538  0.03584015  0.27778932  1
  F  F26  1  0.62076462  0.03584015  0.77778932  1
  F  F27  1  0.12076462  0.96415985  0.72221068  1
loop_
_geom_bond_atom_site_label_1
_geom_bond_atom_site_label_2
_geom_bond_distance
_geom_bond_site_symmetry_2
Bi0 F25 2.221731 1_565
Bi0 F24 2.250191 1_555
Bi0 F6 2.331440 1_555
Bi0 F20 2.341915 1_655
Bi0 F12 2.345340 1_565
Bi0 F19 2.371975 1_555
Bi0 F11 2.411352 1_555
Bi0 F3 2.449605 1_655
Bi1 F24 2.221731 1_545
Bi1 F25 2.250191 1_455
Bi1 F7 2.331440 1_555
Bi1 F21 2.341915 1_555
Bi1 F13 2.345340 1_545
Bi1 F18 2.371975 1_555
Bi1 F10 2.411352 1_555
Bi1 F2 2.449605 1_555
Bi2 F27 2.221731 1_545
Bi2 F26 2.250191 1_555
Bi2 F4 2.331440 1_555
Bi2 F22 2.341915 1_455
Bi2 F14 2.345340 1_545
Bi2 F17 2.371975 1_555
Bi2 F9 2.411352 1_555
Bi2 F1 2.449605 1_455
Bi3 F26 2.221731 1_565
Bi3 F27 2.250191 1_655
Bi3 F5 2.331440 1_555
Bi3 F23 2.341915 1_555
Bi3 F15 2.345340 1_565
Bi3 F16 2.371975 1_555
Bi3 F8 2.411352 1_555
Bi3 F0 2.449605 1_555
F0 Mn1 1.807762 1_556
F1 Mn0 1.807762 1_555
F2 Mn3 1.807762 1_554
F3 Mn2 1.807762 1_555
F4 Mn0 1.826937 1_555
F5 Mn1 1.826937 1_656
F6 Mn2 1.826937 1_555
F7 Mn3 1.826937 1_454
F8 Mn3 1.799067 1_555
F9 Mn2 1.799067 1_555
F10 Mn1 1.799067 1_555
F11 Mn0 1.799067 1_555
F12 Mn3 1.827583 1_554
F13 Mn2 1.827583 1_555
F14 Mn1 1.827583 1_556
F15 Mn0 1.827583 1_555
F16 Mn2 1.809424 1_655
F17 Mn3 1.809424 1_555
F18 Mn0 1.809424 1_455
F19 Mn1 1.809424 1_555
F20 Mn1 1.816873 1_555
F21 Mn0 1.816873 1_555
F22 Mn3 1.816873 1_555
F23 Mn2 1.816873 1_555
