# generated using pymatgen
data_BaSr(TiH5)2
_symmetry_space_group_name_H-M   'P 1'
_cell_length_a   12.64889744
_cell_length_b   5.32565532
_cell_length_c   4.76564246
_cell_angle_alpha   90.00000000
_cell_angle_beta   89.87557690
_cell_angle_gamma   90.00000000
_symmetry_Int_Tables_number   1
_chemical_formula_structural   BaSr(TiH5)2
_chemical_formula_sum   'Ba2 Sr2 Ti4 H20'
_cell_volume   321.03039944
_cell_formula_units_Z   2
loop_
 _symmetry_equiv_pos_site_id
 _symmetry_equiv_pos_as_xyz
  1  'x, y, z'
loop_
 _atom_site_type_symbol
 _atom_site_label
 _atom_site_symmetry_multiplicity
 _atom_site_fract_x
 _atom_site_fract_y
 _atom_site_fract_z
 _atom_site_occupancy
  Ba  Ba0  1  0.89773761  0.99999304  0.01347298  1
  Ba  Ba1  1  0.10226239  0.49999304  0.48652802  1
  Sr  Sr0  1  0.59681852  0.00000251  0.52219764  1
  Sr  Sr1  1  0.40318148  0.50000151  0.97780036  1
  Ti  Ti0  1  0.20687084  0.00000370  0.00889147  1
  Ti  Ti1  1  0.79312916  0.50000470  0.49110753  1
  Ti  Ti2  1  0.31188463  0.99999692  0.50969593  1
  Ti  Ti3  1  0.68811537  0.49999592  0.99030507  1
  H  H0  1  0.57549809  0.72844225  0.99914561  1
  H  H1  1  0.57550140  0.27154491  0.99910762  1
  H  H2  1  0.83649443  0.50000788  0.09799414  1
  H  H3  1  0.27011310  0.24393932  0.23819751  1
  H  H4  1  0.72989621  0.25605673  0.26179796  1
  H  H5  1  0.27010479  0.75605573  0.23820304  1
  H  H6  1  0.72988690  0.74393832  0.26180349  1
  H  H7  1  0.16350657  0.00000888  0.40200686  1
  H  H8  1  0.42449860  0.77154591  0.50089338  1
  H  H9  1  0.42450191  0.22844125  0.50085539  1
  H  H10  1  0.90846963  0.27677173  0.50634830  1
  H  H11  1  0.90846918  0.72323720  0.50634533  1
  H  H12  1  0.64505627  0.49999181  0.59751738  1
  H  H13  1  0.25013396  0.75568959  0.74197973  1
  H  H14  1  0.74985619  0.74432142  0.75801480  1
  H  H15  1  0.25014381  0.24432142  0.74198320  1
  H  H16  1  0.74986604  0.25568859  0.75802027  1
  H  H17  1  0.35494373  0.99998881  0.90248362  1
  H  H18  1  0.09153082  0.22323620  0.99365267  1
  H  H19  1  0.09153037  0.77677273  0.99365170  1
loop_
_geom_bond_atom_site_label_1
_geom_bond_atom_site_label_2
_geom_bond_distance
_geom_bond_site_symmetry_2
Ba0 H16 2.616245 1_564
Ba0 H14 2.616280 1_554
Ba0 H19 2.725775 1_654
Ba0 H18 2.725833 1_664
Ba0 H11 2.776567 1_555
Ba0 H10 2.776644 1_565
Ba0 H4 2.785041 1_565
Ba0 H6 2.785118 1_555
Ba0 H2 2.802002 1_555
Ba0 H2 2.802153 1_565
Ba0 H11 2.833773 1_554
Ba0 H10 2.833825 1_564
Ba1 H13 2.616246 1_555
Ba1 H15 2.616273 1_555
Ba1 H10 2.725777 1_455
Ba1 H11 2.725835 1_455
Ba1 H18 2.776582 1_554
Ba1 H19 2.776650 1_554
Ba1 H5 2.785048 1_555
Ba1 H3 2.785116 1_555
Ba1 H7 2.802001 1_555
Ba1 H7 2.802161 1_565
Ba1 H18 2.833764 1_555
Ba1 H19 2.833823 1_555
H0 Ti3 1.873726 1_555
H0 Sr1 2.498428 1_555
H0 Sr0 2.707033 1_565
H0 Sr0 2.894943 1_566
H1 Ti3 1.873707 1_555
H1 Sr1 2.498498 1_555
H1 Sr0 2.706826 1_555
H1 Sr0 2.895047 1_556
H2 Ti3 1.946808 1_554
H2 Ti1 1.950944 1_555
H3 Ti0 1.877659 1_555
H3 Ti2 1.908932 1_545
H3 Sr1 2.494722 1_554
H4 Ti1 1.877664 1_555
H4 Ti3 1.908935 1_554
H4 Sr0 2.494784 1_555
H5 Ti0 1.877675 1_565
H5 Ti2 1.908939 1_555
H5 Sr1 2.494783 1_554
H6 Ti1 1.877646 1_555
H6 Ti3 1.908932 1_554
H6 Sr0 2.494721 1_565
H7 Ti2 1.946796 1_545
H7 Ti0 1.950950 1_555
H8 Ti2 1.873707 1_555
H8 Sr0 2.498497 1_565
H8 Sr1 2.706820 1_555
H8 Sr1 2.895065 1_554
H9 Ti2 1.873719 1_545
H9 Sr0 2.498422 1_555
H9 Sr1 2.707021 1_555
H9 Sr1 2.894955 1_554
H10 Ti1 1.883509 1_555
H11 Ti1 1.883502 1_555
H12 Ti1 1.939333 1_555
H12 Ti3 1.950648 1_555
H12 Sr0 2.755436 1_555
H12 Sr0 2.755547 1_565
H13 Ti2 1.877389 1_555
H13 Ti0 1.899311 1_566
H13 Sr1 2.621897 1_555
H14 Ti3 1.877422 1_555
H14 Ti1 1.899342 1_555
H14 Sr0 2.621778 1_565
H15 Ti2 1.877410 1_545
H15 Ti0 1.899349 1_556
H15 Sr1 2.621776 1_555
H16 Ti3 1.877391 1_555
H16 Ti1 1.899322 1_555
H16 Sr0 2.621896 1_555
H17 Ti0 1.939330 1_566
H17 Ti2 1.950648 1_555
H17 Sr1 2.755424 1_555
H17 Sr1 2.755555 1_565
H18 Ti0 1.883502 1_556
H19 Ti0 1.883502 1_566
