# generated using pymatgen
data_Dy2Pd2Pb
_symmetry_space_group_name_H-M   'P 1'
_cell_length_a   15.64115226
_cell_length_b   15.64115226
_cell_length_c   7.27687350
_cell_angle_alpha   90.00000000
_cell_angle_beta   90.00000000
_cell_angle_gamma   89.99997055
_symmetry_Int_Tables_number   1
_chemical_formula_structural   Dy2Pd2Pb
_chemical_formula_sum   'Dy32 Pd32 Pb16'
_cell_volume   1780.25540386
_cell_formula_units_Z   16
loop_
 _symmetry_equiv_pos_site_id
 _symmetry_equiv_pos_as_xyz
  1  'x, y, z'
loop_
 _atom_site_type_symbol
 _atom_site_label
 _atom_site_symmetry_multiplicity
 _atom_site_fract_x
 _atom_site_fract_y
 _atom_site_fract_z
 _atom_site_occupancy
  Dy  Dy0_0  1  0.33596688  0.08596689  0.25000000  1
  Dy  Dy0_1  1  0.33596688  0.08596689  0.75000000  1
  Dy  Dy0_2  1  0.33596688  0.58596688  0.25000000  1
  Dy  Dy0_3  1  0.33596688  0.58596688  0.75000000  1
  Dy  Dy0_4  1  0.83596688  0.08596689  0.25000000  1
  Dy  Dy0_5  1  0.83596688  0.08596689  0.75000000  1
  Dy  Dy0_6  1  0.83596689  0.58596689  0.25000000  1
  Dy  Dy0_7  1  0.83596689  0.58596689  0.75000000  1
  Dy  Dy1_0  1  0.08595183  0.16404817  0.25000000  1
  Dy  Dy1_1  1  0.08595183  0.16404817  0.75000000  1
  Dy  Dy1_2  1  0.08595183  0.66404817  0.25000000  1
  Dy  Dy1_3  1  0.08595183  0.66404817  0.75000000  1
  Dy  Dy1_4  1  0.58595183  0.16404817  0.25000000  1
  Dy  Dy1_5  1  0.58595183  0.16404817  0.75000000  1
  Dy  Dy1_6  1  0.58595183  0.66404817  0.25000000  1
  Dy  Dy1_7  1  0.58595183  0.66404817  0.75000000  1
  Dy  Dy2_0  1  0.41404817  0.33595183  0.25000000  1
  Dy  Dy2_1  1  0.41404817  0.33595183  0.75000000  1
  Dy  Dy2_2  1  0.41404817  0.83595183  0.25000000  1
  Dy  Dy2_3  1  0.41404817  0.83595183  0.75000000  1
  Dy  Dy2_4  1  0.91404817  0.33595183  0.25000000  1
  Dy  Dy2_5  1  0.91404817  0.33595183  0.75000000  1
  Dy  Dy2_6  1  0.91404817  0.83595183  0.25000000  1
  Dy  Dy2_7  1  0.91404817  0.83595183  0.75000000  1
  Dy  Dy3_0  1  0.16403312  0.41403311  0.25000000  1
  Dy  Dy3_1  1  0.16403312  0.41403311  0.75000000  1
  Dy  Dy3_2  1  0.16403312  0.91403311  0.25000000  1
  Dy  Dy3_3  1  0.16403312  0.91403311  0.75000000  1
  Dy  Dy3_4  1  0.66403312  0.41403311  0.25000000  1
  Dy  Dy3_5  1  0.66403312  0.41403311  0.75000000  1
  Dy  Dy3_6  1  0.66403311  0.91403311  0.25000000  1
  Dy  Dy3_7  1  0.66403311  0.91403311  0.75000000  1
  Pd  Pd0_0  1  0.18757288  0.06242712  0.00000000  1
  Pd  Pd0_1  1  0.18757288  0.06242712  0.50000000  1
  Pd  Pd0_2  1  0.18757288  0.56242713  0.00000000  1
  Pd  Pd0_3  1  0.18757288  0.56242713  0.50000000  1
  Pd  Pd0_4  1  0.68757288  0.06242712  0.00000000  1
  Pd  Pd0_5  1  0.68757288  0.06242712  0.50000000  1
  Pd  Pd0_6  1  0.68757288  0.56242712  0.00000000  1
  Pd  Pd0_7  1  0.68757288  0.56242712  0.50000000  1
  Pd  Pd1_0  1  0.06241640  0.31241640  0.00000000  1
  Pd  Pd1_1  1  0.06241640  0.31241640  0.50000000  1
  Pd  Pd1_2  1  0.06241640  0.81241640  0.00000000  1
  Pd  Pd1_3  1  0.06241640  0.81241640  0.50000000  1
  Pd  Pd1_4  1  0.56241640  0.31241640  0.00000000  1
  Pd  Pd1_5  1  0.56241640  0.31241640  0.50000000  1
  Pd  Pd1_6  1  0.56241640  0.81241640  0.00000000  1
  Pd  Pd1_7  1  0.56241640  0.81241640  0.50000000  1
  Pd  Pd2_0  1  0.31242713  0.43757288  0.00000000  1
  Pd  Pd2_1  1  0.31242713  0.43757288  0.50000000  1
  Pd  Pd2_2  1  0.31242713  0.93757287  0.00000000  1
  Pd  Pd2_3  1  0.31242713  0.93757287  0.50000000  1
  Pd  Pd2_4  1  0.81242713  0.43757288  0.00000000  1
  Pd  Pd2_5  1  0.81242713  0.43757288  0.50000000  1
  Pd  Pd2_6  1  0.81242713  0.93757287  0.00000000  1
  Pd  Pd2_7  1  0.81242713  0.93757287  0.50000000  1
  Pd  Pd3_0  1  0.43758360  0.18758360  0.00000000  1
  Pd  Pd3_1  1  0.43758360  0.18758360  0.50000000  1
  Pd  Pd3_2  1  0.43758360  0.68758360  0.00000000  1
  Pd  Pd3_3  1  0.43758360  0.68758360  0.50000000  1
  Pd  Pd3_4  1  0.93758360  0.18758360  0.00000000  1
  Pd  Pd3_5  1  0.93758360  0.18758360  0.50000000  1
  Pd  Pd3_6  1  0.93758360  0.68758360  0.00000000  1
  Pd  Pd3_7  1  0.93758360  0.68758360  0.50000000  1
  Pb  Pb0_0  1  0.00000000  0.00000000  0.00000000  1
  Pb  Pb0_1  1  0.00000000  0.00000000  0.50000000  1
  Pb  Pb0_2  1  0.00000000  0.50000000  0.00000000  1
  Pb  Pb0_3  1  0.00000000  0.50000000  0.50000000  1
  Pb  Pb0_4  1  0.50000000  0.00000000  0.00000000  1
  Pb  Pb0_5  1  0.50000000  0.00000000  0.50000000  1
  Pb  Pb0_6  1  0.50000000  0.50000000  0.00000000  1
  Pb  Pb0_7  1  0.50000000  0.50000000  0.50000000  1
  Pb  Pb1_0  1  0.25000000  0.25000000  0.00000000  1
  Pb  Pb1_1  1  0.25000000  0.25000000  0.50000000  1
  Pb  Pb1_2  1  0.25000000  0.75000000  0.00000000  1
  Pb  Pb1_3  1  0.25000000  0.75000000  0.50000000  1
  Pb  Pb1_4  1  0.75000000  0.25000000  0.00000000  1
  Pb  Pb1_5  1  0.75000000  0.25000000  0.50000000  1
  Pb  Pb1_6  1  0.75000000  0.75000000  0.00000000  1
  Pb  Pb1_7  1  0.75000000  0.75000000  0.50000000  1
loop_
_geom_bond_atom_site_label_1
_geom_bond_atom_site_label_2
_geom_bond_distance
_geom_bond_site_symmetry_2
Dy0_0 Pd3_0 2.891705 1_555
Dy0_0 Pd3_1 2.891705 1_555
Dy0_0 Pd0_0 2.971937 1_555
Dy0_0 Pd0_1 2.971937 1_555
Dy0_0 Pd2_2 2.971937 1_545
Dy0_0 Pd2_3 2.971937 1_545
Dy0_0 Pb1_1 3.420556 1_555
Dy0_0 Pb1_0 3.420556 1_555
Dy0_0 Pb0_4 3.420556 1_555
Dy0_0 Pb0_5 3.420556 1_555
Dy0_1 Pd3_1 2.891705 1_555
Dy0_1 Pd3_0 2.891705 1_556
Dy0_1 Pd0_1 2.971937 1_555
Dy0_1 Pd0_0 2.971937 1_556
Dy0_1 Pd2_3 2.971937 1_545
Dy0_1 Pd2_2 2.971937 1_546
Dy0_1 Pb1_1 3.420556 1_555
Dy0_1 Pb1_0 3.420556 1_556
Dy0_1 Pb0_5 3.420556 1_555
Dy0_1 Pb0_4 3.420556 1_556
Dy0_2 Pd3_2 2.891705 1_555
Dy0_2 Pd3_3 2.891705 1_555
Dy0_2 Pd0_3 2.971937 1_555
Dy0_2 Pd0_2 2.971937 1_555
Dy0_2 Pd2_1 2.971937 1_555
Dy0_2 Pd2_0 2.971937 1_555
Dy0_2 Pb0_6 3.420556 1_555
Dy0_2 Pb1_3 3.420556 1_555
Dy0_2 Pb1_2 3.420556 1_555
Dy0_2 Pb0_7 3.420556 1_555
Dy0_3 Pd3_3 2.891705 1_555
Dy0_3 Pd3_2 2.891705 1_556
Dy0_3 Pd0_3 2.971937 1_555
Dy0_3 Pd2_1 2.971937 1_555
Dy0_3 Pd0_2 2.971937 1_556
Dy0_3 Pd2_0 2.971937 1_556
Dy0_3 Pb1_3 3.420556 1_555
Dy0_3 Pb0_7 3.420556 1_555
Dy0_3 Pb0_6 3.420556 1_556
Dy0_3 Pb1_2 3.420556 1_556
Dy0_4 Pd3_4 2.891705 1_555
Dy0_4 Pd3_5 2.891705 1_555
Dy0_4 Pd0_5 2.971937 1_555
Dy0_4 Pd0_4 2.971937 1_555
Dy0_4 Pd2_6 2.971937 1_545
Dy0_4 Pd2_7 2.971937 1_545
Dy0_4 Pb1_5 3.420556 1_555
Dy0_4 Pb1_4 3.420556 1_555
Dy0_4 Pb0_1 3.420556 1_655
Dy0_4 Pb0_0 3.420556 1_655
Dy0_5 Pd3_5 2.891705 1_555
Dy0_5 Pd3_4 2.891705 1_556
Dy0_5 Pd0_5 2.971937 1_555
Dy0_5 Pd0_4 2.971937 1_556
Dy0_5 Pd2_7 2.971937 1_545
Dy0_5 Pd2_6 2.971937 1_546
Dy0_5 Pb1_5 3.420556 1_555
Dy0_5 Pb1_4 3.420556 1_556
Dy0_5 Pb0_1 3.420556 1_655
Dy0_5 Pb0_0 3.420556 1_656
Dy0_6 Pd3_6 2.891705 1_555
Dy0_6 Pd3_7 2.891705 1_555
Dy0_6 Pd0_7 2.971937 1_555
Dy0_6 Pd0_6 2.971937 1_555
Dy0_6 Pd2_4 2.971937 1_555
Dy0_6 Pd2_5 2.971937 1_555
Dy0_6 Pb1_7 3.420556 1_555
Dy0_6 Pb1_6 3.420556 1_555
Dy0_6 Pb0_3 3.420556 1_655
Dy0_6 Pb0_2 3.420556 1_655
Dy0_7 Pd3_7 2.891705 1_555
Dy0_7 Pd3_6 2.891705 1_556
Dy0_7 Pd0_7 2.971937 1_555
Dy0_7 Pd2_5 2.971937 1_555
Dy0_7 Pd0_6 2.971937 1_556
Dy0_7 Pd2_4 2.971937 1_556
Dy0_7 Pb1_7 3.420556 1_555
Dy0_7 Pb1_6 3.420556 1_556
Dy0_7 Pb0_3 3.420556 1_655
Dy0_7 Pb0_2 3.420556 1_656
Dy1_0 Pd0_0 2.891779 1_555
Dy1_0 Pd0_1 2.891779 1_555
Dy1_0 Pd1_0 2.971613 1_555
Dy1_0 Pd1_1 2.971613 1_555
Dy1_0 Pd3_4 2.971613 1_455
Dy1_0 Pd3_5 2.971613 1_455
Dy1_0 Pb0_1 3.420641 1_555
Dy1_0 Pb0_0 3.420641 1_555
Dy1_0 Pb1_0 3.420641 1_555
Dy1_0 Pb1_1 3.420641 1_555
Dy1_1 Pd0_1 2.891779 1_555
Dy1_1 Pd0_0 2.891779 1_556
Dy1_1 Pd1_1 2.971613 1_555
Dy1_1 Pd1_0 2.971613 1_556
Dy1_1 Pd3_5 2.971613 1_455
Dy1_1 Pd3_4 2.971613 1_456
Dy1_1 Pb0_1 3.420641 1_555
Dy1_1 Pb1_1 3.420641 1_555
Dy1_1 Pb0_0 3.420641 1_556
Dy1_1 Pb1_0 3.420641 1_556
Dy1_2 Pd0_3 2.891779 1_555
Dy1_2 Pd0_2 2.891779 1_555
Dy1_2 Pd1_3 2.971613 1_555
Dy1_2 Pd1_2 2.971613 1_555
Dy1_2 Pd3_7 2.971613 1_455
Dy1_2 Pd3_6 2.971613 1_455
Dy1_2 Pb0_3 3.420641 1_555
Dy1_2 Pb0_2 3.420641 1_555
Dy1_2 Pb1_2 3.420641 1_555
Dy1_2 Pb1_3 3.420641 1_555
Dy1_3 Pd0_3 2.891779 1_555
Dy1_3 Pd0_2 2.891779 1_556
Dy1_3 Pd1_3 2.971613 1_555
Dy1_3 Pd1_2 2.971613 1_556
Dy1_3 Pd3_7 2.971613 1_455
Dy1_3 Pd3_6 2.971613 1_456
Dy1_3 Pb0_3 3.420641 1_555
Dy1_3 Pb0_2 3.420641 1_556
Dy1_3 Pb1_3 3.420641 1_555
Dy1_3 Pb1_2 3.420641 1_556
Dy1_4 Pd0_4 2.891779 1_555
Dy1_4 Pd0_5 2.891779 1_555
Dy1_4 Pd1_5 2.971613 1_555
Dy1_4 Pd1_4 2.971613 1_555
Dy1_4 Pd3_0 2.971613 1_555
Dy1_4 Pd3_1 2.971613 1_555
Dy1_4 Pb0_4 3.420641 1_555
Dy1_4 Pb0_5 3.420641 1_555
Dy1_4 Pb1_5 3.420641 1_555
Dy1_4 Pb1_4 3.420641 1_555
Dy1_5 Pd0_5 2.891779 1_555
Dy1_5 Pd0_4 2.891779 1_556
Dy1_5 Pd1_5 2.971613 1_555
Dy1_5 Pd1_4 2.971613 1_556
Dy1_5 Pd3_1 2.971613 1_555
Dy1_5 Pd3_0 2.971613 1_556
Dy1_5 Pb0_5 3.420641 1_555
Dy1_5 Pb0_4 3.420641 1_556
Dy1_5 Pb1_5 3.420641 1_555
Dy1_5 Pb1_4 3.420641 1_556
Dy1_6 Pd0_6 2.891779 1_555
Dy1_6 Pd0_7 2.891779 1_555
Dy1_6 Pd1_6 2.971613 1_555
Dy1_6 Pd1_7 2.971613 1_555
Dy1_6 Pd3_3 2.971613 1_555
Dy1_6 Pd3_2 2.971613 1_555
Dy1_6 Pb1_6 3.420641 1_555
Dy1_6 Pb1_7 3.420641 1_555
Dy1_6 Pb0_7 3.420641 1_555
Dy1_6 Pb0_6 3.420641 1_555
Dy1_7 Pd0_7 2.891779 1_555
Dy1_7 Pd0_6 2.891779 1_556
Dy1_7 Pd1_7 2.971613 1_555
Dy1_7 Pd1_6 2.971613 1_556
Dy1_7 Pd3_3 2.971613 1_555
Dy1_7 Pd3_2 2.971613 1_556
Dy1_7 Pb1_7 3.420641 1_555
Dy1_7 Pb0_7 3.420641 1_555
Dy1_7 Pb1_6 3.420641 1_556
Dy1_7 Pb0_6 3.420641 1_556
Dy2_0 Pd2_0 2.891779 1_555
Dy2_0 Pd2_1 2.891779 1_555
Dy2_0 Pd1_4 2.971613 1_555
Dy2_0 Pd1_5 2.971613 1_555
Dy2_0 Pd3_0 2.971613 1_555
Dy2_0 Pd3_1 2.971613 1_555
Dy2_0 Pb1_1 3.420641 1_555
Dy2_0 Pb0_7 3.420641 1_555
Dy2_0 Pb0_6 3.420641 1_555
Dy2_0 Pb1_0 3.420641 1_555
Dy2_1 Pd2_1 2.891779 1_555
Dy2_1 Pd2_0 2.891779 1_556
Dy2_1 Pd1_5 2.971613 1_555
Dy2_1 Pd3_1 2.971613 1_555
Dy2_1 Pd1_4 2.971613 1_556
Dy2_1 Pd3_0 2.971613 1_556
Dy2_1 Pb1_1 3.420641 1_555
Dy2_1 Pb0_7 3.420641 1_555
Dy2_1 Pb1_0 3.420641 1_556
Dy2_1 Pb0_6 3.420641 1_556
Dy2_2 Pd2_3 2.891779 1_555
Dy2_2 Pd2_2 2.891779 1_555
Dy2_2 Pd3_3 2.971613 1_555
Dy2_2 Pd3_2 2.971613 1_555
Dy2_2 Pd1_6 2.971613 1_555
Dy2_2 Pd1_7 2.971613 1_555
Dy2_2 Pb1_3 3.420641 1_555
Dy2_2 Pb1_2 3.420641 1_555
Dy2_2 Pb0_5 3.420641 1_565
Dy2_2 Pb0_4 3.420641 1_565
Dy2_3 Pd2_3 2.891779 1_555
Dy2_3 Pd2_2 2.891779 1_556
Dy2_3 Pd3_3 2.971613 1_555
Dy2_3 Pd3_2 2.971613 1_556
Dy2_3 Pd1_7 2.971613 1_555
Dy2_3 Pd1_6 2.971613 1_556
Dy2_3 Pb1_3 3.420641 1_555
Dy2_3 Pb0_5 3.420641 1_565
Dy2_3 Pb1_2 3.420641 1_556
Dy2_3 Pb0_4 3.420641 1_566
Dy2_4 Pd2_4 2.891779 1_555
Dy2_4 Pd2_5 2.891779 1_555
Dy2_4 Pd3_4 2.971613 1_555
Dy2_4 Pd3_5 2.971613 1_555
Dy2_4 Pd1_1 2.971613 1_655
Dy2_4 Pd1_0 2.971613 1_655
Dy2_4 Pb1_5 3.420641 1_555
Dy2_4 Pb1_4 3.420641 1_555
Dy2_4 Pb0_2 3.420641 1_655
Dy2_4 Pb0_3 3.420641 1_655
Dy2_5 Pd2_5 2.891779 1_555
Dy2_5 Pd2_4 2.891779 1_556
Dy2_5 Pd3_5 2.971613 1_555
Dy2_5 Pd3_4 2.971613 1_556
Dy2_5 Pd1_1 2.971613 1_655
Dy2_5 Pd1_0 2.971613 1_656
Dy2_5 Pb1_5 3.420641 1_555
Dy2_5 Pb1_4 3.420641 1_556
Dy2_5 Pb0_3 3.420641 1_655
Dy2_5 Pb0_2 3.420641 1_656
Dy2_6 Pd2_7 2.891779 1_555
Dy2_6 Pd2_6 2.891779 1_555
Dy2_6 Pd1_3 2.971613 1_655
Dy2_6 Pd1_2 2.971613 1_655
Dy2_6 Pd3_6 2.971613 1_555
Dy2_6 Pd3_7 2.971613 1_555
Dy2_6 Pb0_0 3.420641 1_665
Dy2_6 Pb0_1 3.420641 1_665
Dy2_6 Pb1_6 3.420641 1_555
Dy2_6 Pb1_7 3.420641 1_555
Dy2_7 Pd2_7 2.891779 1_555
Dy2_7 Pd2_6 2.891779 1_556
Dy2_7 Pd3_7 2.971613 1_555
Dy2_7 Pd1_3 2.971613 1_655
Dy2_7 Pd1_2 2.971613 1_656
Dy2_7 Pd3_6 2.971613 1_556
Dy2_7 Pb0_1 3.420641 1_665
Dy2_7 Pb0_0 3.420641 1_666
Dy2_7 Pb1_7 3.420641 1_555
Dy2_7 Pb1_6 3.420641 1_556
Dy3_0 Pd1_0 2.891705 1_555
Dy3_0 Pd1_1 2.891705 1_555
Dy3_0 Pd2_1 2.971937 1_555
Dy3_0 Pd2_0 2.971937 1_555
Dy3_0 Pd0_2 2.971937 1_555
Dy3_0 Pd0_3 2.971937 1_555
Dy3_0 Pb1_0 3.420556 1_555
Dy3_0 Pb1_1 3.420556 1_555
Dy3_0 Pb0_2 3.420556 1_555
Dy3_0 Pb0_3 3.420556 1_555
Dy3_1 Pd1_1 2.891705 1_555
Dy3_1 Pd1_0 2.891705 1_556
Dy3_1 Pd2_1 2.971937 1_555
Dy3_1 Pd2_0 2.971937 1_556
Dy3_1 Pd0_3 2.971937 1_555
Dy3_1 Pd0_2 2.971937 1_556
Dy3_1 Pb1_1 3.420556 1_555
Dy3_1 Pb1_0 3.420556 1_556
Dy3_1 Pb0_3 3.420556 1_555
Dy3_1 Pb0_2 3.420556 1_556
Dy3_2 Pd1_2 2.891705 1_555
Dy3_2 Pd1_3 2.891705 1_555
Dy3_2 Pd0_0 2.971937 1_565
Dy3_2 Pd0_1 2.971937 1_565
Dy3_2 Pd2_2 2.971937 1_555
Dy3_2 Pd2_3 2.971937 1_555
Dy3_2 Pb1_3 3.420556 1_555
Dy3_2 Pb1_2 3.420556 1_555
Dy3_2 Pb0_1 3.420556 1_565
Dy3_2 Pb0_0 3.420556 1_565
Dy3_3 Pd1_3 2.891705 1_555
Dy3_3 Pd1_2 2.891705 1_556
Dy3_3 Pd2_3 2.971937 1_555
Dy3_3 Pd0_1 2.971937 1_565
Dy3_3 Pd0_0 2.971937 1_566
Dy3_3 Pd2_2 2.971937 1_556
Dy3_3 Pb1_3 3.420556 1_555
Dy3_3 Pb0_1 3.420556 1_565
Dy3_3 Pb1_2 3.420556 1_556
Dy3_3 Pb0_0 3.420556 1_566
Dy3_4 Pd1_4 2.891705 1_555
Dy3_4 Pd1_5 2.891705 1_555
Dy3_4 Pd0_7 2.971937 1_555
Dy3_4 Pd2_4 2.971937 1_555
Dy3_4 Pd2_5 2.971937 1_555
Dy3_4 Pd0_6 2.971937 1_555
Dy3_4 Pb1_4 3.420556 1_555
Dy3_4 Pb1_5 3.420556 1_555
Dy3_4 Pb0_7 3.420556 1_555
Dy3_4 Pb0_6 3.420556 1_555
Dy3_5 Pd1_5 2.891705 1_555
Dy3_5 Pd1_4 2.891705 1_556
Dy3_5 Pd2_5 2.971937 1_555
Dy3_5 Pd0_7 2.971937 1_555
Dy3_5 Pd2_4 2.971937 1_556
Dy3_5 Pd0_6 2.971937 1_556
Dy3_5 Pb1_5 3.420556 1_555
Dy3_5 Pb1_4 3.420556 1_556
Dy3_5 Pb0_7 3.420556 1_555
Dy3_5 Pb0_6 3.420556 1_556
Dy3_6 Pd1_7 2.891705 1_555
Dy3_6 Pd1_6 2.891705 1_555
Dy3_6 Pd0_4 2.971937 1_565
Dy3_6 Pd0_5 2.971937 1_565
Dy3_6 Pd2_7 2.971937 1_555
Dy3_6 Pd2_6 2.971937 1_555
Dy3_6 Pb0_4 3.420556 1_565
Dy3_6 Pb0_5 3.420556 1_565
Dy3_6 Pb1_7 3.420556 1_555
Dy3_6 Pb1_6 3.420556 1_555
Dy3_7 Pd1_7 2.891705 1_555
Dy3_7 Pd1_6 2.891705 1_556
Dy3_7 Pd0_5 2.971937 1_565
Dy3_7 Pd2_7 2.971937 1_555
Dy3_7 Pd0_4 2.971937 1_566
Dy3_7 Pd2_6 2.971937 1_556
Dy3_7 Pb0_5 3.420556 1_565
Dy3_7 Pb0_4 3.420556 1_566
Dy3_7 Pb1_7 3.420556 1_555
Dy3_7 Pb1_6 3.420556 1_556
Pd0_0 Pd2_2 2.761767 1_545
Pd0_1 Pd2_3 2.761767 1_545
Pd0_2 Pd2_0 2.761767 1_555
Pd0_3 Pd2_1 2.761767 1_555
Pd0_4 Pd2_6 2.761767 1_545
Pd0_5 Pd2_7 2.761767 1_545
Pd0_6 Pd2_4 2.761767 1_555
Pd0_7 Pd2_5 2.761767 1_555
Pd1_0 Pd3_4 2.761293 1_455
Pd1_1 Pd3_5 2.761293 1_455
Pd1_2 Pd3_6 2.761293 1_455
Pd1_3 Pd3_7 2.761293 1_455
Pd1_4 Pd3_0 2.761293 1_555
Pd1_5 Pd3_1 2.761293 1_555
Pd1_6 Pd3_2 2.761293 1_555
Pd1_7 Pd3_3 2.761293 1_555
Pb0_0 Pd2_6 3.092076 1_445
Pb0_0 Pd0_0 3.092076 1_555
Pb0_0 Pd1_2 3.092181 1_545
Pb0_0 Pd3_4 3.092181 1_455
Pb0_0 Pb0_1 3.638437 1_555
Pb0_0 Pb0_1 3.638437 1_554
Pb0_1 Pd0_1 3.092076 1_555
Pb0_1 Pd2_7 3.092076 1_445
Pb0_1 Pd1_3 3.092181 1_545
Pb0_1 Pd3_5 3.092181 1_455
Pb0_2 Pd2_4 3.092076 1_455
Pb0_2 Pd0_2 3.092076 1_555
Pb0_2 Pd1_0 3.092181 1_555
Pb0_2 Pd3_6 3.092181 1_455
Pb0_2 Pb0_3 3.638437 1_555
Pb0_2 Pb0_3 3.638437 1_554
Pb0_3 Pd2_5 3.092076 1_455
Pb0_3 Pd0_3 3.092076 1_555
Pb0_3 Pd1_1 3.092181 1_555
Pb0_3 Pd3_7 3.092181 1_455
Pb0_4 Pd2_2 3.092076 1_545
Pb0_4 Pd0_4 3.092076 1_555
Pb0_4 Pd1_6 3.092181 1_545
Pb0_4 Pd3_0 3.092181 1_555
Pb0_4 Pb0_5 3.638437 1_555
Pb0_4 Pb0_5 3.638437 1_554
Pb0_5 Pd2_3 3.092076 1_545
Pb0_5 Pd0_5 3.092076 1_555
Pb0_5 Pd1_7 3.092181 1_545
Pb0_5 Pd3_1 3.092181 1_555
Pb0_6 Pd2_0 3.092076 1_555
Pb0_6 Pd0_6 3.092076 1_555
Pb0_6 Pd1_4 3.092181 1_555
Pb0_6 Pd3_2 3.092181 1_555
Pb0_6 Pb0_7 3.638437 1_555
Pb0_6 Pb0_7 3.638437 1_554
Pb0_7 Pd2_1 3.092076 1_555
Pb0_7 Pd0_7 3.092076 1_555
Pb0_7 Pd1_5 3.092181 1_555
Pb0_7 Pd3_3 3.092181 1_555
Pb1_0 Pd0_0 3.092076 1_555
Pb1_0 Pd2_0 3.092076 1_555
Pb1_0 Pd3_0 3.092181 1_555
Pb1_0 Pd1_0 3.092181 1_555
Pb1_0 Pb1_1 3.638437 1_555
Pb1_0 Pb1_1 3.638437 1_554
Pb1_1 Pd0_1 3.092076 1_555
Pb1_1 Pd2_1 3.092076 1_555
Pb1_1 Pd3_1 3.092181 1_555
Pb1_1 Pd1_1 3.092181 1_555
Pb1_2 Pd0_2 3.092076 1_555
Pb1_2 Pd2_2 3.092076 1_555
Pb1_2 Pd3_2 3.092181 1_555
Pb1_2 Pd1_2 3.092181 1_555
Pb1_2 Pb1_3 3.638437 1_555
Pb1_2 Pb1_3 3.638437 1_554
Pb1_3 Pd0_3 3.092076 1_555
Pb1_3 Pd2_3 3.092076 1_555
Pb1_3 Pd3_3 3.092181 1_555
Pb1_3 Pd1_3 3.092181 1_555
Pb1_4 Pd0_4 3.092076 1_555
Pb1_4 Pd2_4 3.092076 1_555
Pb1_4 Pd3_4 3.092181 1_555
Pb1_4 Pd1_4 3.092181 1_555
Pb1_4 Pb1_5 3.638437 1_555
Pb1_4 Pb1_5 3.638437 1_554
Pb1_5 Pd0_5 3.092076 1_555
Pb1_5 Pd2_5 3.092076 1_555
Pb1_5 Pd3_5 3.092181 1_555
Pb1_5 Pd1_5 3.092181 1_555
Pb1_6 Pd0_6 3.092076 1_555
Pb1_6 Pd2_6 3.092076 1_555
Pb1_6 Pd3_6 3.092181 1_555
Pb1_6 Pd1_6 3.092181 1_555
Pb1_6 Pb1_7 3.638437 1_555
Pb1_6 Pb1_7 3.638437 1_554
Pb1_7 Pd0_7 3.092076 1_555
Pb1_7 Pd2_7 3.092076 1_555
Pb1_7 Pd3_7 3.092181 1_555
Pb1_7 Pd1_7 3.092181 1_555
