# generated using pymatgen
data_CoNi(BW)6
_symmetry_space_group_name_H-M   'P 1'
_cell_length_a   4.49938240
_cell_length_b   4.49938337
_cell_length_c   10.73979368
_cell_angle_alpha   89.93996910
_cell_angle_beta   90.06002954
_cell_angle_gamma   138.60637710
_symmetry_Int_Tables_number   1
_chemical_formula_structural   CoNi(BW)6
_chemical_formula_sum   'Co1 Ni1 B6 W6'
_cell_volume   143.76496094
_cell_formula_units_Z   1
loop_
 _symmetry_equiv_pos_site_id
 _symmetry_equiv_pos_as_xyz
  1  'x, y, z'
loop_
 _atom_site_type_symbol
 _atom_site_label
 _atom_site_symmetry_multiplicity
 _atom_site_fract_x
 _atom_site_fract_y
 _atom_site_fract_z
 _atom_site_occupancy
  Co  Co0  1  0.50000000  0.50000000  0.50000000  1
  Ni  Ni0  1  0.50000000  0.50000000  0.00000000  1
  B  B0  1  0.79125062  0.20874938  0.25075704  1
  B  B1  1  0.20874938  0.79125062  0.74924296  1
  B  B2  1  0.08518474  0.91481526  0.60155505  1
  B  B3  1  0.91481526  0.08518474  0.39844495  1
  B  B4  1  0.91255624  0.08744376  0.10432075  1
  B  B5  1  0.08744376  0.91255624  0.89567925  1
  W  W0  1  0.49823599  0.50176401  0.25110115  1
  W  W1  1  0.50176401  0.49823599  0.74889885  1
  W  W2  1  0.78814988  0.21185012  0.60686759  1
  W  W3  1  0.21185012  0.78814988  0.39313241  1
  W  W4  1  0.21167950  0.78832050  0.10782271  1
  W  W5  1  0.78832050  0.21167950  0.89217729  1
loop_
_geom_bond_atom_site_label_1
_geom_bond_atom_site_label_2
_geom_bond_distance
_geom_bond_site_symmetry_2
Co0 W2 2.651591 1_455
Co0 W3 2.651591 1_655
Co0 W2 2.651592 1_565
Co0 W3 2.651592 1_545
Co0 W2 2.682321 1_555
Co0 W3 2.682321 1_555
Ni0 W4 2.653348 1_655
Ni0 W5 2.653348 1_454
Ni0 W4 2.653349 1_545
Ni0 W5 2.653349 1_564
Ni0 W4 2.690353 1_555
Ni0 W5 2.690353 1_554
Ni0 W1 2.696832 1_554
Ni0 W0 2.696832 1_555
B0 B4 1.876092 1_555
B0 B3 1.895808 1_555
B0 W3 2.305606 1_545
B0 W3 2.305606 1_655
B0 W4 2.309013 1_545
B0 W4 2.309014 1_655
B0 W0 2.358954 1_655
B0 W0 2.358955 1_545
B0 W0 2.466610 1_555
B1 B5 1.876092 1_555
B1 B2 1.895808 1_555
B1 W2 2.305606 1_565
B1 W2 2.305606 1_455
B1 W5 2.309013 1_565
B1 W5 2.309014 1_455
B1 W1 2.358954 1_455
B1 W1 2.358955 1_565
B1 W1 2.466610 1_555
B2 Co0 2.056874 1_455
B2 Co0 2.056874 1_565
B2 W2 2.334719 1_565
B2 W2 2.334720 1_455
B2 W1 2.351262 1_455
B2 W1 2.351263 1_565
B2 W3 2.480481 1_555
B2 W2 2.501160 1_465
B3 Co0 2.056874 1_655
B3 Co0 2.056874 1_545
B3 W3 2.334719 1_545
B3 W3 2.334720 1_655
B3 W0 2.351262 1_655
B3 W0 2.351263 1_545
B3 W2 2.480481 1_555
B3 W3 2.501160 1_645
B4 Ni0 2.080298 1_655
B4 Ni0 2.080298 1_545
B4 W4 2.321566 1_545
B4 W4 2.321567 1_655
B4 W0 2.351883 1_655
B4 W0 2.351884 1_545
B4 W5 2.505873 1_554
B4 W4 2.518264 1_645
B5 Ni0 2.080298 1_456
B5 Ni0 2.080298 1_566
B5 W5 2.321566 1_565
B5 W5 2.321567 1_455
B5 W1 2.351883 1_455
B5 W1 2.351884 1_565
B5 W4 2.505873 1_556
B5 W5 2.518264 1_465
