# generated using pymatgen
data_Sc22Os3Ru4Pt
_symmetry_space_group_name_H-M   'P 1'
_cell_length_a   9.44723984
_cell_length_b   9.44989404
_cell_length_c   9.44723908
_cell_angle_alpha   60.23765307
_cell_angle_beta   59.99523420
_cell_angle_gamma   60.23765996
_symmetry_Int_Tables_number   1
_chemical_formula_structural   Sc22Os3Ru4Pt
_chemical_formula_sum   'Sc22 Os3 Ru4 Pt1'
_cell_volume   598.48985119
_cell_formula_units_Z   1
loop_
 _symmetry_equiv_pos_site_id
 _symmetry_equiv_pos_as_xyz
  1  'x, y, z'
loop_
 _atom_site_type_symbol
 _atom_site_label
 _atom_site_symmetry_multiplicity
 _atom_site_fract_x
 _atom_site_fract_y
 _atom_site_fract_z
 _atom_site_occupancy
  Sc  Sc0  1  0.84679715  0.84580356  0.84679715  1
  Sc  Sc1  1  0.52794580  0.15756441  0.15066523  1
  Sc  Sc2  1  0.15066523  0.15756441  0.52794580  1
  Sc  Sc3  1  0.15353686  0.53265587  0.15353686  1
  Sc  Sc4  1  0.84933477  0.84243559  0.47205420  1
  Sc  Sc5  1  0.84646314  0.46734413  0.84646314  1
  Sc  Sc6  1  0.47205420  0.84243559  0.84933477  1
  Sc  Sc7  1  0.15320285  0.15419644  0.15320285  1
  Sc  Sc8  1  0.19659808  0.79875988  0.19659808  1
  Sc  Sc9  1  0.20223149  0.80337120  0.80237277  1
  Sc  Sc10  1  0.79776851  0.19662880  0.19762723  1
  Sc  Sc11  1  0.80237277  0.80337120  0.20223149  1
  Sc  Sc12  1  0.19762723  0.19662880  0.79776851  1
  Sc  Sc13  1  0.80340192  0.20124012  0.80340192  1
  Sc  Sc14  1  0.37940860  0.38903242  0.37940860  1
  Sc  Sc15  1  0.15042117  0.61400541  0.61862197  1
  Sc  Sc16  1  0.61857854  0.15250435  0.61857854  1
  Sc  Sc17  1  0.61862197  0.61400541  0.15042117  1
  Sc  Sc18  1  0.38142146  0.84749565  0.38142146  1
  Sc  Sc19  1  0.38137803  0.38599459  0.84957883  1
  Sc  Sc20  1  0.84957883  0.38599459  0.38137803  1
  Sc  Sc21  1  0.62059140  0.61096758  0.62059140  1
  Os  Os0  1  0.50000000  0.50000000  0.00000000  1
  Os  Os1  1  0.00000000  0.50000000  0.50000000  1
  Os  Os2  1  0.50000000  0.50000000  0.50000000  1
  Ru  Ru0  1  0.00000000  0.00000000  0.50000000  1
  Ru  Ru1  1  0.50000000  0.00000000  0.00000000  1
  Ru  Ru2  1  0.00000000  0.50000000  0.00000000  1
  Ru  Ru3  1  0.00000000  0.00000000  0.00000000  1
  Pt  Pt0  1  0.50000000  0.00000000  0.50000000  1
loop_
_geom_bond_atom_site_label_1
_geom_bond_atom_site_label_2
_geom_bond_distance
_geom_bond_site_symmetry_2
Sc0 Sc11 3.005510 1_556
Sc0 Sc9 3.005510 1_655
Sc0 Sc13 3.008625 1_565
Sc0 Sc17 3.152528 1_556
Sc0 Sc15 3.152529 1_655
Sc0 Sc16 3.152537 1_565
Sc1 Sc13 2.981385 1_554
Sc1 Sc10 3.009792 1_555
Sc1 Sc11 3.031659 1_545
Sc1 Sc19 3.089262 1_554
Sc1 Sc18 3.149788 1_545
Sc1 Sc14 3.167988 1_555
Sc2 Sc9 3.031659 1_545
Sc2 Sc20 3.089262 1_455
Sc3 Sc8 2.975105 1_555
Sc3 Sc9 2.996370 1_554
Sc4 Sc8 2.981385 1_655
Sc6 Sc8 2.981385 1_556
Sc6 Sc9 3.009792 1_555
Sc7 Sc8 3.008625 1_545
Sc10 Sc5 2.996370 1_554
Sc10 Sc7 3.005510 1_655
Sc10 Sc4 3.031659 1_545
Sc10 Sc17 3.316775 1_555
Sc10 Sc14 3.324631 1_555
Sc10 Sc16 3.343070 1_555
Sc10 Sc20 3.355414 1_555
Sc11 Sc3 2.996371 1_655
Sc11 Sc4 3.009792 1_555
Sc11 Sc20 3.316774 1_555
Sc11 Sc21 3.324631 1_555
Sc11 Sc18 3.343071 1_555
Sc11 Sc17 3.355414 1_555
Sc12 Sc5 2.996371 1_455
Sc12 Sc7 3.005510 1_556
Sc12 Sc2 3.009792 1_555
Sc12 Sc6 3.031659 1_545
Sc12 Sc15 3.316774 1_555
Sc12 Sc14 3.324631 1_555
Sc12 Sc16 3.343071 1_555
Sc12 Sc19 3.355414 1_555
Sc13 Sc5 2.975105 1_555
Sc13 Sc2 2.981385 1_655
Sc13 Sc21 3.265324 1_555
Sc13 Sc16 3.309919 1_555
Sc13 Sc20 3.352639 1_555
Sc13 Sc19 3.352639 1_555
Sc14 Sc17 3.101796 1_555
Sc14 Sc15 3.101796 1_555
Sc14 Sc3 3.122858 1_555
Sc14 Sc2 3.167988 1_555
Sc14 Sc16 3.206965 1_555
Sc14 Sc8 3.265324 1_555
Sc15 Sc4 3.089262 1_455
Sc15 Sc19 3.096849 1_555
Sc15 Sc5 3.099584 1_455
Sc15 Sc18 3.103739 1_555
Sc15 Sc8 3.352639 1_555
Sc15 Sc9 3.355414 1_555
Sc16 Sc20 3.103739 1_555
Sc16 Sc19 3.103739 1_555
Sc16 Sc6 3.149788 1_545
Sc16 Sc4 3.149789 1_545
Sc17 Sc6 3.089262 1_554
Sc17 Sc20 3.096849 1_555
Sc17 Sc5 3.099584 1_554
Sc17 Sc18 3.103739 1_555
Sc17 Sc8 3.352639 1_555
Sc18 Sc2 3.149789 1_565
Sc18 Sc7 3.152537 1_565
Sc18 Sc21 3.206965 1_555
Sc18 Sc8 3.309919 1_555
Sc18 Sc9 3.343070 1_555
Sc19 Sc3 3.099584 1_556
Sc19 Sc21 3.101796 1_555
Sc19 Sc7 3.152528 1_556
Sc19 Sc9 3.316775 1_555
Sc20 Sc3 3.099584 1_655
Sc20 Sc21 3.101796 1_555
Sc20 Sc7 3.152529 1_655
Sc21 Sc5 3.122858 1_555
Sc21 Sc4 3.167988 1_555
Sc21 Sc6 3.167988 1_555
Sc21 Sc9 3.324631 1_555
Os0 Sc6 2.742633 1_554
Os0 Sc1 2.742633 1_555
Os0 Sc5 2.757852 1_554
Os0 Sc3 2.757852 1_555
Os0 Sc14 2.935221 1_555
Os0 Sc21 2.935221 1_554
Os0 Sc17 2.957580 1_555
Os0 Sc19 2.957580 1_554
Os1 Sc4 2.742633 1_455
Os1 Sc2 2.742633 1_555
Os1 Sc5 2.757852 1_455
Os1 Sc3 2.757852 1_555
Os1 Sc14 2.935222 1_555
Os1 Sc21 2.935222 1_455
Os1 Sc15 2.957580 1_555
Os1 Sc20 2.957580 1_455
Os2 Sc18 2.691460 1_555
Os2 Sc16 2.691460 1_555
Os2 Sc19 2.699648 1_555
Os2 Sc17 2.699648 1_555
Os2 Sc20 2.699648 1_555
Os2 Sc15 2.699648 1_555
Os2 Sc21 2.713975 1_555
Os2 Sc14 2.713975 1_555
Ru0 Sc2 2.680099 1_555
Ru0 Sc4 2.680099 1_445
Ru0 Sc0 2.750204 1_445
Ru0 Sc7 2.750204 1_555
Ru0 Sc18 2.954002 1_545
Ru0 Sc16 2.954002 1_455
Ru0 Sc20 2.994759 1_455
Ru0 Sc15 2.994759 1_545
Ru1 Sc1 2.680099 1_555
Ru1 Sc6 2.680099 1_544
Ru1 Sc0 2.750204 1_544
Ru1 Sc7 2.750204 1_555
Ru1 Sc18 2.954002 1_545
Ru1 Sc16 2.954002 1_554
Ru1 Sc17 2.994759 1_545
Ru1 Sc19 2.994759 1_554
Ru2 Sc3 2.701143 1_555
Ru2 Sc5 2.701143 1_454
Ru2 Sc0 2.751733 1_454
Ru2 Sc7 2.751733 1_555
Ru2 Sc20 2.950752 1_455
Ru2 Sc15 2.950752 1_554
Ru2 Sc17 2.950753 1_455
Ru2 Sc19 2.950753 1_554
Ru3 Sc12 2.634534 1_554
Ru3 Sc11 2.634534 1_445
Ru3 Sc10 2.634534 1_455
Ru3 Sc9 2.634534 1_544
Ru3 Sc8 2.636754 1_545
Ru3 Sc13 2.636754 1_454
Pt0 Sc6 2.796176 1_545
Pt0 Sc1 2.796176 1_555
Pt0 Sc4 2.796176 1_545
Pt0 Sc2 2.796176 1_555
Pt0 Sc16 3.007914 1_555
Pt0 Sc18 3.007914 1_545
Pt0 Sc14 3.015446 1_555
Pt0 Sc21 3.015446 1_545
Pt0 Sc10 3.377713 1_555
Pt0 Sc9 3.377713 1_545
Pt0 Sc12 3.377713 1_555
Pt0 Sc11 3.377713 1_545
