# generated using pymatgen
data_TiV11GaPt3
_symmetry_space_group_name_H-M   'P 1'
_cell_length_a   4.79725267
_cell_length_b   4.79471304
_cell_length_c   9.61087592
_cell_angle_alpha   90.00000000
_cell_angle_beta   90.00000000
_cell_angle_gamma   90.00000000
_symmetry_Int_Tables_number   1
_chemical_formula_structural   TiV11GaPt3
_chemical_formula_sum   'Ti1 V11 Ga1 Pt3'
_cell_volume   221.06408157
_cell_formula_units_Z   1
loop_
 _symmetry_equiv_pos_site_id
 _symmetry_equiv_pos_as_xyz
  1  'x, y, z'
loop_
 _atom_site_type_symbol
 _atom_site_label
 _atom_site_symmetry_multiplicity
 _atom_site_fract_x
 _atom_site_fract_y
 _atom_site_fract_z
 _atom_site_occupancy
  Ti  Ti0  1  0.00000000  0.74861669  0.00000000  1
  V  V0  1  0.50000000  0.00096917  0.62860397  1
  V  V1  1  0.50000000  0.00191445  0.12271454  1
  V  V2  1  0.74946169  0.49904745  0.25419575  1
  V  V3  1  0.74946169  0.49904745  0.74580425  1
  V  V4  1  0.00000000  0.74960512  0.50000000  1
  V  V5  1  0.50000000  0.00096917  0.37139603  1
  V  V6  1  0.50000000  0.00191445  0.87728546  1
  V  V7  1  0.25053831  0.49904745  0.25419575  1
  V  V8  1  0.25053831  0.49904745  0.74580425  1
  V  V9  1  0.00000000  0.25285862  0.50000000  1
  V  V10  1  0.00000000  0.24785806  0.00000000  1
  Ga  Ga0  1  0.50000000  0.50056907  0.50000000  1
  Pt  Pt0  1  0.50000000  0.49903089  0.00000000  1
  Pt  Pt1  1  0.00000000  0.99975374  0.25042302  1
  Pt  Pt2  1  0.00000000  0.99975374  0.74957698  1
loop_
_geom_bond_atom_site_label_1
_geom_bond_atom_site_label_2
_geom_bond_distance
_geom_bond_site_symmetry_2
Ti0 V10 2.393719 1_565
Ti0 V10 2.400994 1_555
V0 V6 2.390051 1_555
V0 V5 2.471994 1_555
V1 V6 2.358788 1_554
V1 V5 2.390051 1_555
V2 V7 2.393461 1_555
V2 V7 2.403791 1_655
V3 V8 2.393461 1_555
V3 V8 2.403791 1_655
V4 V9 2.381757 1_555
V4 V9 2.412956 1_565
Ga0 V3 2.648230 1_555
Ga0 V8 2.648230 1_555
Ga0 V2 2.648230 1_555
Ga0 V7 2.648230 1_555
Ga0 V9 2.676573 1_655
Ga0 V9 2.676573 1_555
Ga0 V4 2.679399 1_555
Ga0 V4 2.679399 1_655
Ga0 V0 2.695517 1_555
Ga0 V5 2.695517 1_555
Ga0 V0 2.698927 1_565
Ga0 V5 2.698927 1_565
Pt0 V1 2.659359 1_555
Pt0 V6 2.659359 1_554
Pt0 Ti0 2.680575 1_655
Pt0 Ti0 2.680575 1_555
Pt0 V10 2.683980 1_655
Pt0 V10 2.683980 1_555
Pt0 V1 2.684170 1_565
Pt0 V6 2.684170 1_564
Pt0 V2 2.720409 1_555
Pt0 V7 2.720409 1_555
Pt0 V3 2.720409 1_554
Pt0 V8 2.720409 1_554
Pt1 V5 2.665560 1_465
Pt1 V5 2.665560 1_565
Pt1 V7 2.678985 1_565
Pt1 V2 2.678985 1_465
Pt1 V4 2.681805 1_555
Pt1 V10 2.684722 1_565
Pt1 V7 2.685039 1_555
Pt1 V2 2.685039 1_455
Pt1 V9 2.688174 1_565
Pt1 Ti0 2.691197 1_555
Pt1 V1 2.694439 1_565
Pt1 V1 2.694439 1_465
Pt2 V0 2.665560 1_465
Pt2 V0 2.665560 1_565
Pt2 V8 2.678985 1_565
Pt2 V3 2.678985 1_465
Pt2 V4 2.681805 1_555
Pt2 V10 2.684722 1_566
Pt2 V8 2.685039 1_555
Pt2 V3 2.685039 1_455
Pt2 V9 2.688174 1_565
Pt2 Ti0 2.691197 1_556
Pt2 V6 2.694439 1_565
Pt2 V6 2.694439 1_465
