# generated using pymatgen
data_Ba2NaTcH6
_symmetry_space_group_name_H-M   'P 1'
_cell_length_a   5.79487506
_cell_length_b   5.79487493
_cell_length_c   5.79487610
_cell_angle_alpha   120.00000110
_cell_angle_beta   120.00000035
_cell_angle_gamma   59.99999901
_symmetry_Int_Tables_number   1
_chemical_formula_structural   Ba2NaTcH6
_chemical_formula_sum   'Ba2 Na1 Tc1 H6'
_cell_volume   137.59963845
_cell_formula_units_Z   1
loop_
 _symmetry_equiv_pos_site_id
 _symmetry_equiv_pos_as_xyz
  1  'x, y, z'
loop_
 _atom_site_type_symbol
 _atom_site_label
 _atom_site_symmetry_multiplicity
 _atom_site_fract_x
 _atom_site_fract_y
 _atom_site_fract_z
 _atom_site_occupancy
  Ba  Ba0  1  0.24999900  0.25000300  0.25000000  1
  Ba  Ba1  1  0.74999800  0.75000100  0.75000000  1
  Na  Na0  1  0.49999900  0.49999900  0.00000000  1
  Tc  Tc0  1  0.00000000  0.00000000  0.50000000  1
  H  H0  1  0.77739166  0.77739166  0.27739166  1
  H  H1  1  0.77739166  0.22260734  0.27739166  1
  H  H2  1  0.22260634  0.77739366  0.27739366  1
  H  H3  1  0.22260634  0.77739366  0.72260734  1
  H  H4  1  0.77739166  0.22260734  0.72260734  1
  H  H5  1  0.22260834  0.22260834  0.72260934  1
loop_
_geom_bond_atom_site_label_1
_geom_bond_atom_site_label_2
_geom_bond_distance
_geom_bond_site_symmetry_2
Ba0 H2 2.906107 1_555
Ba0 H0 2.906108 1_455
Ba0 H5 2.906110 1_554
Ba0 H3 2.906115 1_555
Ba0 H1 2.906116 1_555
Ba0 H4 2.906121 1_555
Ba0 H4 2.906121 1_454
Ba0 H3 2.906126 1_544
Ba0 H1 2.906127 1_455
Ba0 H0 2.906131 1_545
Ba0 H5 2.906133 1_555
Ba0 H2 2.906136 1_545
Ba1 H5 2.906111 1_565
Ba1 H3 2.906115 1_555
Ba1 H2 2.906115 1_555
Ba1 H1 2.906115 1_566
Ba1 H0 2.906118 1_556
Ba1 H4 2.906118 1_565
Ba1 H0 2.906124 1_555
Ba1 H4 2.906124 1_555
Ba1 H3 2.906127 1_655
Ba1 H1 2.906127 1_555
Ba1 H2 2.906127 1_656
Ba1 H5 2.906129 1_655
H0 Tc0 1.824318 1_665
H0 Na0 2.273286 1_555
H1 Tc0 1.824314 1_655
H1 Na0 2.273278 1_555
H2 Tc0 1.824302 1_565
H2 Na0 2.273290 1_555
H3 Tc0 1.824306 1_565
H3 Na0 2.273294 1_556
H4 Tc0 1.824314 1_655
H4 Na0 2.273286 1_556
H5 Tc0 1.824318 1_555
H5 Na0 2.273269 1_556
