# generated using pymatgen
data_InAg(RhS2)4
_symmetry_space_group_name_H-M   'P 1'
_cell_length_a   7.18751187
_cell_length_b   7.18751242
_cell_length_c   7.18751197
_cell_angle_alpha   59.99999757
_cell_angle_beta   59.99999504
_cell_angle_gamma   59.99999922
_symmetry_Int_Tables_number   1
_chemical_formula_structural   InAg(RhS2)4
_chemical_formula_sum   'In1 Ag1 Rh4 S8'
_cell_volume   262.55526962
_cell_formula_units_Z   1
loop_
 _symmetry_equiv_pos_site_id
 _symmetry_equiv_pos_as_xyz
  1  'x, y, z'
loop_
 _atom_site_type_symbol
 _atom_site_label
 _atom_site_symmetry_multiplicity
 _atom_site_fract_x
 _atom_site_fract_y
 _atom_site_fract_z
 _atom_site_occupancy
  In  In0  1  0.00000000  0.00000000  0.00000000  1
  Ag  Ag0  1  0.75000000  0.75000000  0.75000000  1
  Rh  Rh0  1  0.37765620  0.37765620  0.37765620  1
  Rh  Rh1  1  0.37765620  0.86703139  0.37765620  1
  Rh  Rh2  1  0.86703139  0.37765620  0.37765620  1
  Rh  Rh3  1  0.37765620  0.37765620  0.86703139  1
  S  S0  1  0.14147797  0.14147797  0.14147797  1
  S  S1  1  0.14147797  0.57556408  0.14147797  1
  S  S2  1  0.57556408  0.14147797  0.14147797  1
  S  S3  1  0.14147797  0.14147797  0.57556408  1
  S  S4  1  0.60774193  0.60774193  0.60774193  1
  S  S5  1  0.60774193  0.17677622  0.60774193  1
  S  S6  1  0.17677622  0.60774193  0.60774193  1
  S  S7  1  0.60774193  0.60774193  0.17677622  1
loop_
_geom_bond_atom_site_label_1
_geom_bond_atom_site_label_2
_geom_bond_distance
_geom_bond_site_symmetry_2
In0 S0 2.490824 1_555
In0 S3 2.490836 1_554
In0 S2 2.490836 1_455
In0 S1 2.490836 1_545
Ag0 S4 2.504558 1_555
Ag0 S7 2.504570 1_556
Ag0 S6 2.504570 1_655
Ag0 S5 2.504570 1_565
Rh0 S7 2.348149 1_555
Rh0 S5 2.348149 1_555
Rh0 S6 2.348149 1_555
Rh0 S3 2.416383 1_555
Rh0 S1 2.416383 1_555
Rh0 S2 2.416383 1_555
Rh1 S6 2.348138 1_555
Rh1 S7 2.348138 1_555
Rh1 S4 2.348148 1_555
Rh1 S2 2.416372 1_565
Rh1 S3 2.416372 1_565
Rh1 S0 2.416381 1_565
Rh2 S5 2.348138 1_555
Rh2 S7 2.348138 1_555
Rh2 S4 2.348147 1_555
Rh2 S1 2.416372 1_655
Rh2 S3 2.416372 1_655
Rh2 S0 2.416381 1_655
Rh3 S5 2.348138 1_555
Rh3 S6 2.348138 1_555
Rh3 S4 2.348147 1_555
Rh3 S1 2.416372 1_556
Rh3 S2 2.416372 1_556
Rh3 S0 2.416381 1_556
