# generated using pymatgen
data_Hf3Zr3(Zn3N)2
_symmetry_space_group_name_H-M   'P 1'
_cell_length_a   8.49181807
_cell_length_b   8.49181813
_cell_length_c   8.49243940
_cell_angle_alpha   60.00334845
_cell_angle_beta   60.00334824
_cell_angle_gamma   60.00016101
_symmetry_Int_Tables_number   1
_chemical_formula_structural   Hf3Zr3(Zn3N)2
_chemical_formula_sum   'Hf6 Zr6 Zn12 N4'
_cell_volume   433.05327836
_cell_formula_units_Z   2
loop_
 _symmetry_equiv_pos_site_id
 _symmetry_equiv_pos_as_xyz
  1  'x, y, z'
loop_
 _atom_site_type_symbol
 _atom_site_label
 _atom_site_symmetry_multiplicity
 _atom_site_fract_x
 _atom_site_fract_y
 _atom_site_fract_z
 _atom_site_occupancy
  Hf  Hf0  1  0.43560934  0.06458464  0.06417807  1
  Hf  Hf1  1  0.06458464  0.43560934  0.06417807  1
  Hf  Hf2  1  0.43561377  0.43561377  0.06427222  1
  Hf  Hf3  1  0.06445291  0.43561561  0.43565554  1
  Hf  Hf4  1  0.43561561  0.06445291  0.43565554  1
  Hf  Hf5  1  0.06436506  0.06436506  0.43564958  1
  Zr  Zr0  1  0.81233738  0.18747634  0.18783576  1
  Zr  Zr1  1  0.18747634  0.81233738  0.18783576  1
  Zr  Zr2  1  0.81234935  0.81234935  0.18775010  1
  Zr  Zr3  1  0.18758724  0.81233135  0.81233255  1
  Zr  Zr4  1  0.81233135  0.18758724  0.81233255  1
  Zr  Zr5  1  0.18769974  0.18769974  0.81228931  1
  Zn  Zn0  1  0.41822960  0.41822960  0.74531591  1
  Zn  Zn1  1  0.41825836  0.41825836  0.41823106  1
  Zn  Zn2  1  0.74521843  0.41825920  0.41825243  1
  Zn  Zn3  1  0.41825920  0.74521843  0.41825243  1
  Zn  Zn4  1  0.83050740  0.83050740  0.50847859  1
  Zn  Zn5  1  0.83048531  0.83048531  0.83050792  1
  Zn  Zn6  1  0.50853495  0.83048093  0.83050250  1
  Zn  Zn7  1  0.83048093  0.50853495  0.83050250  1
  Zn  Zn8  1  0.62460553  0.62460553  0.12619248  1
  Zn  Zn9  1  0.62460681  0.62460681  0.62458599  1
  Zn  Zn10  1  0.12620368  0.62461420  0.62458552  1
  Zn  Zn11  1  0.62461420  0.12620368  0.62458552  1
  N  N0  1  0.12712242  0.12712242  0.61862841  1
  N  N1  1  0.12712742  0.12712742  0.12713604  1
  N  N2  1  0.61860638  0.12711865  0.12713982  1
  N  N3  1  0.12711865  0.61860638  0.12713982  1
loop_
_geom_bond_atom_site_label_1
_geom_bond_atom_site_label_2
_geom_bond_distance
_geom_bond_site_symmetry_2
Hf0 N1 2.218631 1_555
Hf0 N2 2.218711 1_555
Hf0 Zn0 2.863258 1_554
Hf0 Zn3 2.867225 1_545
Hf0 Zn11 3.111606 1_554
Hf0 Zn8 3.113493 1_545
Hf0 Zn6 3.123849 1_544
Hf0 Zn5 3.123926 1_544
Hf1 N1 2.218631 1_555
Hf1 N3 2.218711 1_555
Hf1 Zn0 2.863258 1_554
Hf1 Zn2 2.867225 1_455
Hf1 Zn10 3.111606 1_554
Hf1 Zn8 3.113493 1_455
Hf1 Zn7 3.123849 1_454
Hf1 Zn5 3.123926 1_454
Hf2 N3 2.218731 1_555
Hf2 N2 2.218731 1_555
Hf2 Zn0 2.863946 1_554
Hf2 Zn1 2.866199 1_555
Hf2 Zn9 3.112186 1_554
Hf2 Zn8 3.113063 1_555
Hf2 Zn7 3.123976 1_554
Hf2 Zn6 3.123976 1_554
Hf3 N0 2.218765 1_555
Hf3 N3 2.219095 1_555
Hf3 Zn1 2.864399 1_555
Hf3 Zn2 2.866075 1_455
Hf3 Zn10 3.111726 1_555
Hf3 Zn9 3.112721 1_455
Hf3 Zn4 3.123691 1_455
Hf3 Zn7 3.123982 1_455
Hf4 N0 2.218765 1_555
Hf4 N2 2.219095 1_555
Hf4 Zn1 2.864399 1_555
Hf4 Zn3 2.866075 1_545
Hf4 Zn11 3.111726 1_555
Hf4 Zn9 3.112721 1_545
Hf4 Zn4 3.123691 1_545
Hf4 Zn6 3.123982 1_545
Hf5 N0 2.218746 1_555
Hf5 N1 2.219061 1_555
Hf5 Zn3 2.865284 1_545
Hf5 Zn2 2.865284 1_455
Hf5 Zn11 3.112158 1_455
Hf5 Zn10 3.112158 1_545
Hf5 Zn4 3.123679 1_445
Hf5 Zn5 3.124035 1_445
Zn0 Zn10 2.582987 1_555
Zn0 Zn11 2.582987 1_555
Zn0 Zn9 2.582991 1_555
Zn0 Zn2 2.777289 1_555
Zn0 Zn3 2.777289 1_555
Zn0 Zn1 2.777504 1_555
Zn0 Zr5 3.097361 1_555
Zn0 Zr4 3.097618 1_555
Zn0 Zr3 3.097618 1_555
Zn1 Zn10 2.582914 1_555
Zn1 Zn11 2.582914 1_555
Zn1 Zn8 2.582923 1_555
Zn1 Zn2 2.776580 1_555
Zn1 Zn3 2.776580 1_555
Zn1 Zr5 3.097760 1_555
Zn1 Zr0 3.097834 1_555
Zn1 Zr1 3.097834 1_555
Zn2 Zn9 2.582800 1_555
Zn2 Zn8 2.582843 1_555
Zn2 Zn3 2.776485 1_555
Zn2 Zr0 3.097888 1_555
Zn2 Zr2 3.098044 1_555
Zn2 Zr4 3.098071 1_555
Zn3 Zn9 2.582800 1_555
Zn3 Zn8 2.582843 1_555
Zn3 Zr1 3.097888 1_555
Zn3 Zr2 3.098044 1_555
Zn3 Zr3 3.098071 1_555
Zn4 Zn9 2.587651 1_555
Zn4 Zn6 2.734588 1_555
Zn4 Zn7 2.734588 1_555
Zn4 Zn5 2.734627 1_555
Zn4 Zr1 2.885561 1_655
Zn4 Zr0 2.885561 1_565
Zn4 Zr2 2.886197 1_555
Zn5 Zn8 2.587621 1_556
Zn5 Zn6 2.733985 1_555
Zn5 Zn7 2.733985 1_555
Zn5 Zr3 2.886452 1_655
Zn5 Zr4 2.886452 1_565
Zn5 Zr2 2.888091 1_556
Zn6 Zn8 2.587606 1_556
Zn6 Zn9 2.587704 1_555
Zn6 Zn7 2.733913 1_555
Zn6 Zr5 2.887241 1_565
Zn6 Zr3 2.887883 1_555
Zn6 Zr1 2.888889 1_556
Zn7 Zn8 2.587606 1_556
Zn7 Zn9 2.587704 1_555
Zn7 Zr5 2.887241 1_655
Zn7 Zr4 2.887883 1_555
Zn7 Zr0 2.888889 1_556
Zn8 Zr2 3.092776 1_555
Zn8 Zr1 3.093281 1_555
Zn8 Zr0 3.093281 1_555
Zn9 Zr2 3.091936 1_555
Zn9 Zr3 3.092685 1_555
Zn9 Zr4 3.092685 1_555
Zn10 Zn3 2.582705 1_555
Zn10 Zn4 2.587651 1_455
Zn10 Zn5 2.587733 1_455
Zn10 Zn7 2.587801 1_455
Zn10 Zr1 3.091407 1_555
Zn10 Zr3 3.091641 1_555
Zn10 Zr5 3.092002 1_555
Zn11 Zn2 2.582705 1_555
Zn11 Zn4 2.587651 1_545
Zn11 Zn5 2.587733 1_545
Zn11 Zn6 2.587801 1_545
Zn11 Zr0 3.091407 1_555
Zn11 Zr4 3.091641 1_555
Zn11 Zr5 3.092002 1_555
N0 Zr4 2.278275 1_455
N0 Zr3 2.278275 1_545
N0 Zr5 2.278295 1_555
N1 Zr0 2.278254 1_455
N1 Zr1 2.278254 1_545
N1 Zr5 2.278737 1_554
N2 Zr2 2.278134 1_545
N2 Zr0 2.278184 1_555
N2 Zr4 2.278569 1_554
N3 Zr2 2.278134 1_455
N3 Zr1 2.278184 1_555
N3 Zr3 2.278569 1_554
