# generated using pymatgen
data_LiAs2PdRh2
_symmetry_space_group_name_H-M   'P 1'
_cell_length_a   3.91823338
_cell_length_b   3.91823338
_cell_length_c   6.09565232
_cell_angle_alpha   90.00000000
_cell_angle_beta   90.00000000
_cell_angle_gamma   90.00000000
_symmetry_Int_Tables_number   1
_chemical_formula_structural   LiAs2PdRh2
_chemical_formula_sum   'Li1 As2 Pd1 Rh2'
_cell_volume   93.58382409
_cell_formula_units_Z   1
loop_
 _symmetry_equiv_pos_site_id
 _symmetry_equiv_pos_as_xyz
  1  'x, y, z'
loop_
 _atom_site_type_symbol
 _atom_site_label
 _atom_site_symmetry_multiplicity
 _atom_site_fract_x
 _atom_site_fract_y
 _atom_site_fract_z
 _atom_site_occupancy
  Li  Li0  1  0.50000000  0.00000000  0.34180954  1
  As  As0  1  0.50000000  0.00000000  0.75587949  1
  As  As1  1  0.00000000  0.50000000  0.24622361  1
  Pd  Pd0  1  0.00000000  0.50000000  0.64820896  1
  Rh  Rh0  1  0.50000000  0.50000000  0.00393970  1
  Rh  Rh1  1  0.00000000  0.00000000  0.00393970  1
loop_
_geom_bond_atom_site_label_1
_geom_bond_atom_site_label_2
_geom_bond_distance
_geom_bond_site_symmetry_2
Li0 Rh1 2.842504 1_555
Li0 Rh1 2.842504 1_655
Li0 Rh0 2.842504 1_555
Li0 Rh0 2.842504 1_545
Li0 Pd0 3.341346 1_655
Li0 Pd0 3.341346 1_545
Li0 Pd0 3.341346 1_645
Li0 Pd0 3.341346 1_555
As0 Rh1 2.474783 1_556
As0 Rh1 2.474783 1_656
As0 Rh0 2.474783 1_556
As0 Rh0 2.474783 1_546
As0 Li0 2.524026 1_555
As0 Pd0 2.847286 1_555
As0 Pd0 2.847286 1_655
As0 Pd0 2.847286 1_545
As0 Pd0 2.847286 1_645
As1 Pd0 2.450363 1_555
As1 Rh1 2.453428 1_565
As1 Rh0 2.453428 1_555
As1 Rh1 2.453428 1_555
As1 Rh0 2.453428 1_455
As1 Li0 2.831213 1_555
As1 Li0 2.831213 1_455
As1 Li0 2.831213 1_465
As1 Li0 2.831213 1_565
Pd0 Rh0 2.922352 1_556
Pd0 Rh1 2.922352 1_566
Pd0 Rh1 2.922352 1_556
Pd0 Rh0 2.922352 1_456
