# generated using pymatgen
data_LiY4CrC8
_symmetry_space_group_name_H-M   'P 1'
_cell_length_a   6.63814827
_cell_length_b   6.63814811
_cell_length_c   6.63814710
_cell_angle_alpha   134.07337579
_cell_angle_beta   109.18074885
_cell_angle_gamma   88.61741610
_symmetry_Int_Tables_number   1
_chemical_formula_structural   LiY4CrC8
_chemical_formula_sum   'Li1 Y4 Cr1 C8'
_cell_volume   189.26804084
_cell_formula_units_Z   1
loop_
 _symmetry_equiv_pos_site_id
 _symmetry_equiv_pos_as_xyz
  1  'x, y, z'
loop_
 _atom_site_type_symbol
 _atom_site_label
 _atom_site_symmetry_multiplicity
 _atom_site_fract_x
 _atom_site_fract_y
 _atom_site_fract_z
 _atom_site_occupancy
  Li  Li0  1  0.00000000  0.25000000  0.25000000  1
  Y  Y0  1  0.20106163  0.35182904  0.84390249  1
  Y  Y1  1  0.79893837  0.64284086  0.15076742  1
  Y  Y2  1  0.50792456  0.85715914  0.65609751  1
  Y  Y3  1  0.49207544  0.14817096  0.34923258  1
  Cr  Cr0  1  0.00000000  0.75000000  0.75000000  1
  C  C0  1  0.78592256  0.12883668  0.65854513  1
  C  C1  1  0.21407744  0.87262057  0.34291212  1
  C  C2  1  0.47029056  0.62737943  0.84145487  1
  C  C3  1  0.52970944  0.37116332  0.15708788  1
  C  C4  1  0.90148090  0.02251770  0.75771226  1
  C  C5  1  0.09851910  0.85623036  0.12103680  1
  C  C6  1  0.26480644  0.64376964  0.74228774  1
  C  C7  1  0.73519356  0.47748230  0.37896320  1
loop_
_geom_bond_atom_site_label_1
_geom_bond_atom_site_label_2
_geom_bond_distance
_geom_bond_site_symmetry_2
C0 C4 1.344714 1_555
C0 Y3 2.399996 1_555
C0 Y1 2.577761 1_556
C0 Y0 2.595052 1_655
C0 Y2 2.599664 1_545
C0 Y1 2.612853 1_545
C1 C5 1.344707 1_555
C1 Y2 2.399996 1_555
C1 Y0 2.577771 1_565
C1 Y1 2.595052 1_455
C1 Y3 2.599664 1_565
C1 Y0 2.612842 1_554
C2 C6 1.344700 1_555
C2 Y1 2.400014 1_556
C2 Y3 2.577774 1_555
C2 Y2 2.595038 1_555
C2 Y0 2.599659 1_555
C2 Y3 2.612840 1_566
C3 C7 1.344700 1_555
C3 Y0 2.400014 1_554
C3 Y2 2.577759 1_544
C3 Y3 2.595038 1_555
C3 Y1 2.599659 1_555
C3 Y2 2.612856 1_555
C4 Cr0 1.881200 1_645
C4 Li0 2.272754 1_656
C4 Y2 2.536802 1_545
C4 Y0 2.604417 1_655
C4 Y1 2.683746 1_545
C5 Cr0 1.881203 1_554
C5 Li0 2.272760 1_565
C5 Y3 2.536803 1_565
C5 Y1 2.604413 1_455
C5 Y0 2.683741 1_554
C6 Cr0 1.881204 1_555
C6 Li0 2.272757 1_555
C6 Y0 2.536797 1_555
C6 Y2 2.604398 1_555
C6 Y3 2.683745 1_566
C7 Cr0 1.881204 1_655
C7 Li0 2.272760 1_655
C7 Y1 2.536791 1_555
C7 Y3 2.604405 1_555
C7 Y2 2.683751 1_555
