# generated using pymatgen
data_Ta2ZnF12
_symmetry_space_group_name_H-M   'P 1'
_cell_length_a   5.40456344
_cell_length_b   10.95702014
_cell_length_c   5.46337266
_cell_angle_alpha   55.26593480
_cell_angle_beta   55.33426851
_cell_angle_gamma   56.00083677
_symmetry_Int_Tables_number   1
_chemical_formula_structural   Ta2ZnF12
_chemical_formula_sum   'Ta2 Zn1 F12'
_cell_volume   205.02609333
_cell_formula_units_Z   1
loop_
 _symmetry_equiv_pos_site_id
 _symmetry_equiv_pos_as_xyz
  1  'x, y, z'
loop_
 _atom_site_type_symbol
 _atom_site_label
 _atom_site_symmetry_multiplicity
 _atom_site_fract_x
 _atom_site_fract_y
 _atom_site_fract_z
 _atom_site_occupancy
  Ta  Ta0  1  0.48685996  0.23279163  0.53533870  1
  Ta  Ta1  1  0.51314004  0.76720837  0.46466130  1
  Zn  Zn0  1  0.00000000  0.50000000  0.00000000  1
  F  F0  1  0.09230363  0.20792652  0.74272940  1
  F  F1  1  0.15172152  0.68872866  0.73231831  1
  F  F2  1  0.37474971  0.37022297  0.14730896  1
  F  F3  1  0.42999215  0.86918028  0.09336774  1
  F  F4  1  0.73485218  0.05758800  0.41898302  1
  F  F5  1  0.74134787  0.56950029  0.37413365  1
  F  F6  1  0.25865213  0.43049971  0.62586635  1
  F  F7  1  0.26514782  0.94241200  0.58101698  1
  F  F8  1  0.57000785  0.13081972  0.90663226  1
  F  F9  1  0.62525029  0.62977703  0.85269104  1
  F  F10  1  0.84827848  0.31127134  0.26768169  1
  F  F11  1  0.90769637  0.79207348  0.25727060  1
loop_
_geom_bond_atom_site_label_1
_geom_bond_atom_site_label_2
_geom_bond_distance
_geom_bond_site_symmetry_2
F0 Ta0 1.858661 1_555
F1 Ta1 1.972170 1_555
F1 Zn0 2.042881 1_556
F2 Ta0 1.982911 1_555
F2 Zn0 2.025112 1_555
F3 Ta1 1.859547 1_555
F4 Ta0 1.851935 1_555
F5 Ta1 1.999387 1_555
F5 Zn0 2.011189 1_655
F6 Ta0 1.999387 1_555
F6 Zn0 2.011189 1_556
F7 Ta1 1.851935 1_555
F8 Ta0 1.859547 1_555
F9 Ta1 1.982911 1_555
F9 Zn0 2.025112 1_656
F10 Ta0 1.972170 1_555
F10 Zn0 2.042881 1_655
F11 Ta1 1.858661 1_555
