# generated using pymatgen
data_Nb3GaPtO
_symmetry_space_group_name_H-M   'P 1'
_cell_length_a   7.03685616
_cell_length_b   7.03685616
_cell_length_c   7.03685616
_cell_angle_alpha   90.00000000
_cell_angle_beta   90.00000000
_cell_angle_gamma   90.00000000
_symmetry_Int_Tables_number   1
_chemical_formula_structural   Nb3GaPtO
_chemical_formula_sum   'Nb12 Ga4 Pt4 O4'
_cell_volume   348.44643172
_cell_formula_units_Z   4
loop_
 _symmetry_equiv_pos_site_id
 _symmetry_equiv_pos_as_xyz
  1  'x, y, z'
loop_
 _atom_site_type_symbol
 _atom_site_label
 _atom_site_symmetry_multiplicity
 _atom_site_fract_x
 _atom_site_fract_y
 _atom_site_fract_z
 _atom_site_occupancy
  Nb  Nb0  1  0.79038040  0.94801875  0.37709138  1
  Nb  Nb1  1  0.70961960  0.05198125  0.87709138  1
  Nb  Nb2  1  0.20961960  0.44801875  0.12290862  1
  Nb  Nb3  1  0.29038040  0.55198125  0.62290862  1
  Nb  Nb4  1  0.94801875  0.37709138  0.79038040  1
  Nb  Nb5  1  0.05198125  0.87709138  0.70961960  1
  Nb  Nb6  1  0.44801875  0.12290862  0.20961960  1
  Nb  Nb7  1  0.55198125  0.62290862  0.29038040  1
  Nb  Nb8  1  0.37709138  0.79038040  0.94801875  1
  Nb  Nb9  1  0.87709138  0.70961960  0.05198125  1
  Nb  Nb10  1  0.12290862  0.20961960  0.44801875  1
  Nb  Nb11  1  0.62290862  0.29038040  0.55198125  1
  Ga  Ga0  1  0.56848651  0.43151349  0.93151349  1
  Ga  Ga1  1  0.43151349  0.93151349  0.56848651  1
  Ga  Ga2  1  0.93151349  0.56848651  0.43151349  1
  Ga  Ga3  1  0.06848651  0.06848651  0.06848651  1
  Pt  Pt0  1  0.18477446  0.81522554  0.31522554  1
  Pt  Pt1  1  0.31522554  0.18477446  0.81522554  1
  Pt  Pt2  1  0.81522554  0.31522554  0.18477446  1
  Pt  Pt3  1  0.68477446  0.68477446  0.68477446  1
  O  O0  1  0.87709306  0.12290694  0.62290694  1
  O  O1  1  0.62290694  0.87709306  0.12290694  1
  O  O2  1  0.12290694  0.62290694  0.87709306  1
  O  O3  1  0.37709306  0.37709306  0.37709306  1
loop_
_geom_bond_atom_site_label_1
_geom_bond_atom_site_label_2
_geom_bond_distance
_geom_bond_site_symmetry_2
Nb0 O1 2.199370 1_555
Nb0 O0 2.208836 1_565
Nb0 Pt2 2.922151 1_565
Nb0 Pt3 2.944729 1_555
Nb0 Pt0 2.960569 1_655
Nb1 O0 2.199370 1_555
Nb1 O1 2.208836 1_546
Nb1 Pt3 2.922151 1_545
Nb1 Pt2 2.944729 1_556
Nb1 Pt1 2.960569 1_555
Nb2 O3 2.199370 1_555
Nb2 O2 2.208836 1_554
Nb2 Pt0 2.922151 1_555
Nb2 Pt1 2.944729 1_554
Nb2 Pt2 2.960569 1_455
Nb3 O2 2.199370 1_555
Nb3 O3 2.208836 1_555
Nb3 Pt1 2.922151 1_555
Nb3 Pt0 2.944729 1_555
Nb3 Pt3 2.960569 1_555
Nb4 O0 2.199370 1_555
Nb4 O2 2.208836 1_655
Nb4 Pt1 2.922151 1_655
Nb4 Pt3 2.944729 1_555
Nb4 Pt2 2.960569 1_556
Nb5 O2 2.199370 1_555
Nb5 O0 2.208836 1_465
Nb5 Pt3 2.922151 1_455
Nb5 Pt1 2.944729 1_565
Nb5 Pt0 2.960569 1_555
Nb6 O3 2.199370 1_555
Nb6 O1 2.208836 1_545
Nb6 Pt2 2.922151 1_555
Nb6 Pt0 2.944729 1_545
Nb6 Pt1 2.960569 1_554
Nb7 O1 2.199370 1_555
Nb7 O3 2.208836 1_555
Nb7 Pt0 2.922151 1_555
Nb7 Pt2 2.944729 1_555
Nb7 Pt3 2.960569 1_555
Nb8 O2 2.199370 1_555
Nb8 O1 2.208836 1_556
Nb8 Pt0 2.922151 1_556
Nb8 Pt3 2.944729 1_555
Nb8 Pt1 2.960569 1_565
Nb9 O1 2.199370 1_555
Nb9 O2 2.208836 1_654
Nb9 Pt3 2.922151 1_554
Nb9 Pt0 2.944729 1_655
Nb9 Pt2 2.960569 1_555
Nb10 O3 2.199370 1_555
Nb10 O0 2.208836 1_455
Nb10 Pt1 2.922151 1_555
Nb10 Pt2 2.944729 1_455
Nb10 Pt0 2.960569 1_545
Nb11 O0 2.199370 1_555
Nb11 O3 2.208836 1_555
Nb11 Pt2 2.922151 1_555
Nb11 Pt1 2.944729 1_555
Nb11 Pt3 2.960569 1_555
Ga0 Pt1 2.619225 1_555
Ga0 Pt2 2.619225 1_556
Ga0 Pt3 2.619225 1_555
Ga0 Nb7 2.864355 1_556
Ga0 Nb8 2.864355 1_555
Ga0 Nb2 2.864355 1_556
Ga0 Nb1 2.875010 1_555
Ga0 Nb4 2.875010 1_555
Ga0 Nb11 2.875010 1_555
Ga0 Nb6 3.043735 1_556
Ga0 Nb3 3.043735 1_555
Ga0 Nb9 3.043735 1_556
Ga1 Pt0 2.619225 1_555
Ga1 Pt3 2.619225 1_555
Ga1 Pt1 2.619225 1_565
Ga1 Nb11 2.864355 1_565
Ga1 Nb0 2.864355 1_555
Ga1 Nb6 2.864355 1_565
Ga1 Nb8 2.875010 1_555
Ga1 Nb5 2.875010 1_555
Ga1 Nb3 2.875010 1_555
Ga1 Nb10 3.043735 1_565
Ga1 Nb7 3.043735 1_555
Ga1 Nb1 3.043735 1_565
Ga2 Pt3 2.619225 1_555
Ga2 Pt2 2.619225 1_555
Ga2 Pt0 2.619225 1_655
Ga2 Nb3 2.864355 1_655
Ga2 Nb4 2.864355 1_555
Ga2 Nb10 2.864355 1_655
Ga2 Nb9 2.875010 1_555
Ga2 Nb0 2.875010 1_555
Ga2 Nb7 2.875010 1_555
Ga2 Nb2 3.043735 1_655
Ga2 Nb11 3.043735 1_555
Ga2 Nb5 3.043735 1_655
Ga3 Pt2 2.619225 1_455
Ga3 Pt0 2.619225 1_545
Ga3 Pt1 2.619225 1_554
Ga3 Nb5 2.864355 1_544
Ga3 Nb9 2.864355 1_445
Ga3 Nb1 2.864355 1_454
Ga3 Nb2 2.875010 1_555
Ga3 Nb6 2.875010 1_555
Ga3 Nb10 2.875010 1_555
Ga3 Nb4 3.043735 1_454
Ga3 Nb0 3.043735 1_445
Ga3 Nb8 3.043735 1_544
