# generated using pymatgen
data_Sr4CuH12Rh
_symmetry_space_group_name_H-M   'P 1'
_cell_length_a   7.54292183
_cell_length_b   7.54292051
_cell_length_c   5.47681537
_cell_angle_alpha   90.02055558
_cell_angle_beta   90.02056401
_cell_angle_gamma   137.44474621
_symmetry_Int_Tables_number   1
_chemical_formula_structural   Sr4CuH12Rh
_chemical_formula_sum   'Sr4 Cu1 H12 Rh1'
_cell_volume   210.74000610
_cell_formula_units_Z   1
loop_
 _symmetry_equiv_pos_site_id
 _symmetry_equiv_pos_as_xyz
  1  'x, y, z'
loop_
 _atom_site_type_symbol
 _atom_site_label
 _atom_site_symmetry_multiplicity
 _atom_site_fract_x
 _atom_site_fract_y
 _atom_site_fract_z
 _atom_site_occupancy
  Sr  Sr0  1  0.14679820  0.85320180  0.50000000  1
  Sr  Sr1  1  0.64600444  0.35399556  0.00000000  1
  Sr  Sr2  1  0.85320180  0.14679820  0.50000000  1
  Sr  Sr3  1  0.35399556  0.64600444  1.00000000  1
  Cu  Cu0  1  0.00000000  0.00000000  0.00000000  1
  H  H0  1  0.99981039  0.50018765  0.75198884  1
  H  H1  1  0.49981235  0.00018961  0.24801116  1
  H  H2  1  0.00018961  0.49981235  0.24801116  1
  H  H3  1  0.50018765  0.99981039  0.75198884  1
  H  H4  1  0.38190822  0.61809178  0.50000000  1
  H  H5  1  0.88897246  0.11102754  1.00000000  1
  H  H6  1  0.61809178  0.38190822  0.50000000  1
  H  H7  1  0.11102754  0.88897246  0.00000000  1
  H  H8  1  0.28128356  0.28128356  0.71860145  1
  H  H9  1  0.71871644  0.71871644  0.28139855  1
  H  H10  1  0.28078664  0.28078664  0.28122260  1
  H  H11  1  0.71921336  0.71921336  0.71877740  1
  Rh  Rh0  1  0.50000000  0.50000000  0.50000000  1
loop_
_geom_bond_atom_site_label_1
_geom_bond_atom_site_label_2
_geom_bond_distance
_geom_bond_site_symmetry_2
Cu0 H5 1.560768 1_454
Cu0 H7 1.560768 1_545
Cu0 H10 2.174947 1_555
Cu0 H11 2.174947 1_444
Cu0 H9 2.179704 1_445
Cu0 H8 2.179704 1_554
H0 Sr1 2.418932 1_556
H0 Sr3 2.420623 1_655
H0 Sr0 2.424569 1_655
H0 Sr2 2.426195 1_555
H1 Sr1 2.418932 1_555
H1 Sr3 2.420623 1_544
H1 Sr0 2.424570 1_545
H1 Sr2 2.426195 1_555
H2 Sr3 2.418932 1_554
H2 Sr1 2.420623 1_455
H2 Sr2 2.424569 1_455
H2 Sr0 2.426195 1_555
H3 Sr3 2.418932 1_555
H3 Sr1 2.420623 1_566
H3 Sr2 2.424570 1_565
H3 Sr0 2.426195 1_555
H4 Rh0 1.660074 1_555
H4 Sr3 2.766377 1_554
H4 Sr3 2.766377 1_555
H4 Sr2 2.766817 1_565
H4 Sr2 2.766817 1_455
H5 Sr3 2.781041 1_655
H5 Sr3 2.781041 1_545
H5 Sr2 2.784193 1_555
H5 Sr2 2.784193 1_556
H6 Rh0 1.660074 1_555
H6 Sr1 2.766377 1_556
H6 Sr1 2.766377 1_555
H6 Sr0 2.766817 1_545
H6 Sr0 2.766817 1_655
H7 Sr1 2.781041 1_455
H7 Sr1 2.781041 1_565
H7 Sr0 2.784193 1_555
H7 Sr0 2.784193 1_554
H8 Rh0 1.694071 1_555
H8 Sr3 2.831568 1_555
H8 Sr1 2.831569 1_556
H8 Sr0 2.838918 1_545
H8 Sr2 2.838918 1_455
H9 Rh0 1.694071 1_555
H9 Sr1 2.831568 1_555
H9 Sr3 2.831569 1_554
H9 Sr2 2.838918 1_565
H9 Sr0 2.838918 1_655
H10 Rh0 1.695001 1_555
H10 Sr3 2.833485 1_554
H10 Sr1 2.833485 1_555
H10 Sr0 2.839134 1_545
H10 Sr2 2.839135 1_455
H11 Rh0 1.695001 1_555
H11 Sr1 2.833485 1_556
H11 Sr3 2.833485 1_555
H11 Sr2 2.839134 1_565
H11 Sr0 2.839135 1_655
