# generated using pymatgen
data_Ti10Sn3BSb3
_symmetry_space_group_name_H-M   'P 1'
_cell_length_a   8.02511631
_cell_length_b   8.02511508
_cell_length_c   5.44211594
_cell_angle_alpha   90.00000000
_cell_angle_beta   90.00000000
_cell_angle_gamma   120.00000507
_symmetry_Int_Tables_number   1
_chemical_formula_structural   Ti10Sn3BSb3
_chemical_formula_sum   'Ti10 Sn3 B1 Sb3'
_cell_volume   303.52956793
_cell_formula_units_Z   1
loop_
 _symmetry_equiv_pos_site_id
 _symmetry_equiv_pos_as_xyz
  1  'x, y, z'
loop_
 _atom_site_type_symbol
 _atom_site_label
 _atom_site_symmetry_multiplicity
 _atom_site_fract_x
 _atom_site_fract_y
 _atom_site_fract_z
 _atom_site_occupancy
  Ti  Ti0  1  0.66666700  0.33333300  0.49931447  1
  Ti  Ti1  1  0.33333300  0.66666700  0.49931447  1
  Ti  Ti2  1  0.33333300  0.66666700  0.99947336  1
  Ti  Ti3  1  0.66666700  0.33333300  0.99947336  1
  Ti  Ti4  1  0.76847355  0.76847355  0.25918739  1
  Ti  Ti5  1  0.23152645  0.00000000  0.25918739  1
  Ti  Ti6  1  0.00000000  0.23152645  0.25918739  1
  Ti  Ti7  1  0.23490806  0.23490806  0.74135049  1
  Ti  Ti8  1  0.76509194  0.00000000  0.74135049  1
  Ti  Ti9  1  1.00000000  0.76509194  0.74135049  1
  Sn  Sn0  1  0.60533932  0.60533932  0.75256334  1
  Sn  Sn1  1  0.39466068  0.00000000  0.75256334  1
  Sn  Sn2  1  0.00000000  0.39466068  0.75256334  1
  B  B0  1  0.00000000  0.00000000  0.50220705  1
  Sb  Sb0  1  0.39596939  0.39596939  0.24697088  1
  Sb  Sb1  1  0.60403061  0.00000000  0.24697088  1
  Sb  Sb2  1  1.00000000  0.60403061  0.24697088  1
loop_
_geom_bond_atom_site_label_1
_geom_bond_atom_site_label_2
_geom_bond_distance
_geom_bond_site_symmetry_2
Ti0 Ti3 2.720193 1_554
Ti0 Ti3 2.721923 1_555
Ti1 Ti2 2.720193 1_554
Ti1 Ti2 2.721923 1_555
Sn0 Ti8 2.760076 1_565
Sn0 Ti9 2.760076 1_555
Sn0 Ti3 2.808397 1_555
Sn0 Ti2 2.808397 1_555
Sn0 Ti0 2.825065 1_555
Sn0 Ti1 2.825065 1_555
Sn0 Ti7 2.973380 1_555
Sn0 Ti4 2.987173 1_555
Sn0 Ti4 3.052141 1_556
Sn1 Ti7 2.760076 1_555
Sn1 Ti9 2.760076 1_445
Sn1 Ti2 2.808390 1_545
Sn1 Ti3 2.808392 1_555
Sn1 Ti1 2.825058 1_545
Sn1 Ti0 2.825060 1_555
Sn1 Ti8 2.973380 1_555
Sn1 Ti5 2.987173 1_555
Sn1 Ti5 3.052141 1_556
Sn2 Ti8 2.760076 1_455
Sn2 Ti7 2.760076 1_555
Sn2 Ti3 2.808390 1_455
Sn2 Ti2 2.808392 1_555
Sn2 Ti0 2.825058 1_455
Sn2 Ti1 2.825060 1_555
Sn2 Ti9 2.973380 1_455
Sn2 Ti6 2.987173 1_555
Sn2 Ti6 3.052141 1_556
B0 Ti4 2.280653 1_445
B0 Ti6 2.280653 1_555
B0 Ti5 2.280653 1_555
B0 Ti7 2.290766 1_555
B0 Ti9 2.290766 1_445
B0 Ti8 2.290766 1_455
Sb0 Ti5 2.765901 1_555
Sb0 Ti6 2.765901 1_555
Sb0 Ti2 2.806786 1_554
Sb0 Ti3 2.806786 1_554
Sb0 Ti1 2.819537 1_555
Sb0 Ti0 2.819537 1_555
Sb0 Ti7 2.984842 1_555
Sb0 Ti4 2.990128 1_555
Sb0 Ti7 3.040098 1_554
Sb1 Ti6 2.765901 1_655
Sb1 Ti4 2.765901 1_545
Sb1 Ti3 2.806779 1_554
Sb1 Ti2 2.806782 1_544
Sb1 Ti0 2.819530 1_555
Sb1 Ti1 2.819532 1_545
Sb1 Ti8 2.984842 1_555
Sb1 Ti5 2.990128 1_555
Sb1 Ti8 3.040098 1_554
Sb2 Ti5 2.765901 1_665
Sb2 Ti4 2.765901 1_555
Sb2 Ti2 2.806780 1_654
Sb2 Ti3 2.806782 1_554
Sb2 Ti1 2.819530 1_655
Sb2 Ti0 2.819532 1_555
Sb2 Ti9 2.984842 1_555
Sb2 Ti6 2.990128 1_655
Sb2 Ti9 3.040098 1_554
