# generated using pymatgen
data_SrInIO6
_symmetry_space_group_name_H-M   'P 1'
_cell_length_a   5.39854107
_cell_length_b   5.39854147
_cell_length_c   5.28353528
_cell_angle_alpha   90.00000000
_cell_angle_beta   90.00000000
_cell_angle_gamma   119.99999170
_symmetry_Int_Tables_number   1
_chemical_formula_structural   SrInIO6
_chemical_formula_sum   'Sr1 In1 I1 O6'
_cell_volume   133.35463992
_cell_formula_units_Z   1
loop_
 _symmetry_equiv_pos_site_id
 _symmetry_equiv_pos_as_xyz
  1  'x, y, z'
loop_
 _atom_site_type_symbol
 _atom_site_label
 _atom_site_symmetry_multiplicity
 _atom_site_fract_x
 _atom_site_fract_y
 _atom_site_fract_z
 _atom_site_occupancy
  Sr  Sr0  1  0.66666700  0.33333300  0.00000000  1
  In  In0  1  0.33333300  0.66666600  0.50000000  1
  I  I0  1  0.00000000  0.00000000  0.50000000  1
  O  O0  1  0.01885126  0.29474522  0.29490350  1
  O  O1  1  0.70525378  0.72410504  0.29490350  1
  O  O2  1  0.27589496  0.98114774  0.29490350  1
  O  O3  1  0.27589396  0.29474522  0.70509650  1
  O  O4  1  0.01885126  0.72410504  0.70509650  1
  O  O5  1  0.70525478  0.98114774  0.70509650  1
loop_
_geom_bond_atom_site_label_1
_geom_bond_atom_site_label_2
_geom_bond_distance
_geom_bond_site_symmetry_2
In0 O2 2.163142 1_555
In0 O4 2.163145 1_555
In0 O1 2.163145 1_555
In0 O3 2.163145 1_555
In0 O0 2.163145 1_555
In0 O5 2.163148 1_555
I0 O5 1.885359 1_445
I0 O0 1.885361 1_555
I0 O3 1.885361 1_555
I0 O4 1.885365 1_545
I0 O1 1.885365 1_445
I0 O2 1.885368 1_545
O0 Sr0 2.546000 1_455
O1 Sr0 2.546002 1_555
O2 Sr0 2.546002 1_565
O3 Sr0 2.546004 1_556
O4 Sr0 2.546000 1_456
O5 Sr0 2.546004 1_566
