# generated using pymatgen
data_YTeClO3
_symmetry_space_group_name_H-M   'P 1'
_cell_length_a   7.09687299
_cell_length_b   7.76922267
_cell_length_c   7.99704977
_cell_angle_alpha   75.60396349
_cell_angle_beta   90.00000000
_cell_angle_gamma   90.00000000
_symmetry_Int_Tables_number   1
_chemical_formula_structural   YTeClO3
_chemical_formula_sum   'Y4 Te4 Cl4 O12'
_cell_volume   427.08963058
_cell_formula_units_Z   4
loop_
 _symmetry_equiv_pos_site_id
 _symmetry_equiv_pos_as_xyz
  1  'x, y, z'
loop_
 _atom_site_type_symbol
 _atom_site_label
 _atom_site_symmetry_multiplicity
 _atom_site_fract_x
 _atom_site_fract_y
 _atom_site_fract_z
 _atom_site_occupancy
  Y  Y0  1  0.75516974  0.28111279  0.37773207  1
  Y  Y1  1  0.25516974  0.21888721  0.62226793  1
  Y  Y2  1  0.24483026  0.71888721  0.62226793  1
  Y  Y3  1  0.74483026  0.78111279  0.37773207  1
  Te  Te0  1  0.20703454  0.56602148  0.25938486  1
  Te  Te1  1  0.70703454  0.93397852  0.74061514  1
  Te  Te2  1  0.79296546  0.43397852  0.74061514  1
  Te  Te3  1  0.29296546  0.06602148  0.25938486  1
  Cl  Cl0  1  0.70017149  0.59732936  0.12001300  1
  Cl  Cl1  1  0.20017149  0.90267064  0.87998700  1
  Cl  Cl2  1  0.29982851  0.40267064  0.87998700  1
  Cl  Cl3  1  0.79982851  0.09732936  0.12001300  1
  O  O0  1  0.30618938  0.50437582  0.48652716  1
  O  O1  1  0.80618938  0.99562418  0.51347284  1
  O  O2  1  0.69381062  0.49562418  0.51347284  1
  O  O3  1  0.19381062  0.00437582  0.48652716  1
  O  O4  1  0.05211466  0.73280305  0.32786383  1
  O  O5  1  0.55211466  0.76719695  0.67213617  1
  O  O6  1  0.94788534  0.26719695  0.67213617  1
  O  O7  1  0.44788534  0.23280305  0.32786383  1
  O  O8  1  0.05790794  0.35925000  0.31416018  1
  O  O9  1  0.55790794  0.14075000  0.68583982  1
  O  O10  1  0.94209206  0.64075000  0.68583982  1
  O  O11  1  0.44209206  0.85925000  0.31416018  1
loop_
_geom_bond_atom_site_label_1
_geom_bond_atom_site_label_2
_geom_bond_distance
_geom_bond_site_symmetry_2
Cl0 Y3 2.801821 1_555
Cl0 Y0 2.813886 1_555
Cl1 Y2 2.801821 1_555
Cl1 Y1 2.813886 1_565
Cl2 Y1 2.801821 1_555
Cl2 Y2 2.813886 1_555
Cl3 Y0 2.801821 1_555
Cl3 Y3 2.813886 1_545
O0 Te0 1.895132 1_555
O0 Y1 2.243183 1_555
O0 Y2 2.246126 1_555
O1 Te1 1.895132 1_555
O1 Y0 2.243183 1_565
O1 Y3 2.246126 1_555
O2 Te2 1.895132 1_555
O2 Y3 2.243183 1_555
O2 Y0 2.246126 1_555
O3 Te3 1.895132 1_555
O3 Y2 2.243183 1_545
O3 Y1 2.246126 1_555
O4 Te0 1.881629 1_555
O4 Y3 2.264961 1_455
O4 Y2 2.701609 1_555
O5 Te1 1.881629 1_555
O5 Y2 2.264961 1_555
O5 Y3 2.701609 1_555
O6 Te2 1.881629 1_555
O6 Y1 2.264961 1_655
O6 Y0 2.701609 1_555
O7 Te3 1.881629 1_555
O7 Y0 2.264961 1_555
O7 Y1 2.701609 1_555
O8 Te0 1.882215 1_555
O8 Y0 2.256004 1_455
O8 Y1 2.807852 1_555
O9 Te1 1.882215 1_545
O9 Y1 2.256004 1_555
O9 Y0 2.807852 1_555
O10 Te2 1.882215 1_555
O10 Y2 2.256004 1_655
O10 Y3 2.807852 1_555
O11 Te3 1.882215 1_565
O11 Y3 2.256004 1_555
O11 Y2 2.807852 1_555
