# generated using pymatgen
data_Lu12Cd2Fe2Re
_symmetry_space_group_name_H-M   'P 1'
_cell_length_a   8.15274621
_cell_length_b   8.15274590
_cell_length_c   8.15274504
_cell_angle_alpha   108.44661317
_cell_angle_beta   108.44662206
_cell_angle_gamma   111.54045075
_symmetry_Int_Tables_number   1
_chemical_formula_structural   Lu12Cd2Fe2Re
_chemical_formula_sum   'Lu12 Cd2 Fe2 Re1'
_cell_volume   416.73796445
_cell_formula_units_Z   1
loop_
 _symmetry_equiv_pos_site_id
 _symmetry_equiv_pos_as_xyz
  1  'x, y, z'
loop_
 _atom_site_type_symbol
 _atom_site_label
 _atom_site_symmetry_multiplicity
 _atom_site_fract_x
 _atom_site_fract_y
 _atom_site_fract_z
 _atom_site_occupancy
  Lu  Lu0  1  0.31003014  0.31003014  0.62006028  1
  Lu  Lu1  1  0.68996986  0.68996986  0.37993972  1
  Lu  Lu2  1  0.68996986  0.31003014  1.00000000  1
  Lu  Lu3  1  0.31003014  0.68996986  0.00000000  1
  Lu  Lu4  1  0.19035631  0.43067037  0.24031406  1
  Lu  Lu5  1  0.80964369  0.56932963  0.75968594  1
  Lu  Lu6  1  0.19035631  0.95004224  0.75968594  1
  Lu  Lu7  1  0.95004224  0.19035631  0.75968594  1
  Lu  Lu8  1  0.80964369  0.04995776  0.24031406  1
  Lu  Lu9  1  0.04995776  0.80964369  0.24031406  1
  Lu  Lu10  1  0.43067037  0.19035631  0.24031406  1
  Lu  Lu11  1  0.56932963  0.80964369  0.75968594  1
  Cd  Cd0  1  0.00000000  0.50000000  0.50000000  1
  Cd  Cd1  1  0.50000000  0.00000000  0.50000000  1
  Fe  Fe0  1  0.37702089  0.37702089  1.00000000  1
  Fe  Fe1  1  0.62297911  0.62297911  0.00000000  1
  Re  Re0  1  0.00000000  0.00000000  0.00000000  1
loop_
_geom_bond_atom_site_label_1
_geom_bond_atom_site_label_2
_geom_bond_distance
_geom_bond_site_symmetry_2
Lu4 Re0 2.880323 1_555
Lu5 Re0 2.880323 1_666
Lu6 Re0 2.880323 1_566
Lu7 Re0 2.880323 1_656
Lu8 Re0 2.880323 1_655
Lu9 Re0 2.880323 1_565
Lu10 Re0 2.880323 1_555
Lu11 Re0 2.880323 1_666
Cd0 Lu5 3.029263 1_455
Cd0 Lu4 3.029263 1_555
Cd0 Lu6 3.029263 1_555
Cd0 Lu8 3.029263 1_455
Cd0 Lu2 3.466098 1_454
Cd0 Lu3 3.466098 1_556
Cd0 Lu0 3.466098 1_555
Cd0 Lu1 3.466098 1_455
Cd0 Lu9 3.767499 1_555
Cd0 Lu7 3.767499 1_455
Cd0 Lu11 3.767500 1_555
Cd0 Lu10 3.767500 1_455
Cd1 Lu11 3.029263 1_545
Cd1 Lu10 3.029263 1_555
Cd1 Lu9 3.029263 1_545
Cd1 Lu7 3.029263 1_555
Cd1 Lu2 3.466098 1_555
Cd1 Lu3 3.466098 1_545
Cd1 Lu0 3.466098 1_555
Cd1 Lu1 3.466098 1_545
Cd1 Lu8 3.767500 1_555
Cd1 Lu6 3.767500 1_545
Cd1 Lu5 3.767500 1_555
Cd1 Lu4 3.767500 1_545
Fe0 Fe1 2.255942 1_556
Fe0 Lu0 2.798417 1_555
Fe0 Lu1 2.798418 1_556
Fe0 Lu3 2.798418 1_556
Fe0 Lu2 2.798418 1_555
Fe0 Lu10 2.859925 1_556
Fe0 Lu4 2.859925 1_556
Fe0 Lu7 2.859925 1_455
Fe0 Lu6 2.859925 1_545
Fe1 Lu1 2.798417 1_555
Fe1 Lu0 2.798418 1_554
Fe1 Lu2 2.798418 1_554
Fe1 Lu3 2.798418 1_555
Fe1 Lu11 2.859925 1_554
Fe1 Lu5 2.859925 1_554
Fe1 Lu9 2.859925 1_655
Fe1 Lu8 2.859925 1_565
