# generated using pymatgen
data_Ti2AlInPt12
_symmetry_space_group_name_H-M   'P 1'
_cell_length_a   5.57827924
_cell_length_b   5.57827987
_cell_length_c   7.85596780
_cell_angle_alpha   90.00000000
_cell_angle_beta   90.00000000
_cell_angle_gamma   90.00090889
_symmetry_Int_Tables_number   1
_chemical_formula_structural   Ti2AlInPt12
_chemical_formula_sum   'Ti2 Al1 In1 Pt12'
_cell_volume   244.45574333
_cell_formula_units_Z   1
loop_
 _symmetry_equiv_pos_site_id
 _symmetry_equiv_pos_as_xyz
  1  'x, y, z'
loop_
 _atom_site_type_symbol
 _atom_site_label
 _atom_site_symmetry_multiplicity
 _atom_site_fract_x
 _atom_site_fract_y
 _atom_site_fract_z
 _atom_site_occupancy
  Ti  Ti0  1  0.50000000  0.00000000  0.25004908  1
  Ti  Ti1  1  0.00000000  0.50000000  0.24999336  1
  Al  Al0  1  0.00000000  0.50000000  0.75007162  1
  In  In0  1  0.50000000  0.00000000  0.74995779  1
  Pt  Pt0  1  0.24678036  0.25321964  0.00694594  1
  Pt  Pt1  1  0.75251996  0.25251996  0.00706761  1
  Pt  Pt2  1  0.24748004  0.74748004  0.00706761  1
  Pt  Pt3  1  0.75321964  0.74678036  0.00694594  1
  Pt  Pt4  1  0.00000000  0.00000000  0.25000618  1
  Pt  Pt5  1  0.50000000  0.50000000  0.25000618  1
  Pt  Pt6  1  0.75325040  0.25325040  0.49303701  1
  Pt  Pt7  1  0.24746014  0.25253986  0.49292656  1
  Pt  Pt8  1  0.75253986  0.74746014  0.49292656  1
  Pt  Pt9  1  0.24674960  0.74674960  0.49303701  1
  Pt  Pt10  1  0.00000000  0.00000000  0.74998178  1
  Pt  Pt11  1  0.50000000  0.50000000  0.74998178  1
loop_
_geom_bond_atom_site_label_1
_geom_bond_atom_site_label_2
_geom_bond_distance
_geom_bond_site_symmetry_2
Al0 Pt11 2.789140 1_455
Al0 Pt11 2.789140 1_555
Al0 Pt10 2.789140 1_555
Al0 Pt10 2.789140 1_565
Al0 Pt0 2.804011 1_556
Al0 Pt3 2.804011 1_456
Al0 Pt9 2.804728 1_555
Al0 Pt6 2.804728 1_455
Al0 Pt2 2.808512 1_556
Al0 Pt1 2.808512 1_456
Al0 Pt7 2.809266 1_555
Al0 Pt8 2.809266 1_455
In0 Pt10 2.789140 1_555
In0 Pt10 2.789140 1_655
In0 Pt11 2.789140 1_545
In0 Pt11 2.789140 1_555
In0 Pt7 2.836624 1_555
In0 Pt8 2.836624 1_545
In0 Pt1 2.836931 1_556
In0 Pt2 2.836931 1_546
In0 Pt6 2.839924 1_555
In0 Pt9 2.839924 1_545
In0 Pt0 2.840152 1_556
In0 Pt3 2.840152 1_546
Pt0 Ti1 2.726880 1_555
Pt0 Pt5 2.745236 1_555
Pt0 Pt4 2.745236 1_555
Pt0 Pt1 2.757125 1_455
Pt0 Pt2 2.757126 1_555
Pt0 Ti0 2.763679 1_555
Pt0 Pt1 2.821160 1_555
Pt0 Pt2 2.821160 1_545
Pt0 Pt11 2.822303 1_554
Pt0 Pt10 2.822303 1_554
Pt1 Ti1 2.730133 1_655
Pt1 Pt5 2.744549 1_555
Pt1 Pt4 2.744549 1_655
Pt1 Pt3 2.757126 1_555
Pt1 Ti0 2.759008 1_555
Pt1 Pt3 2.821160 1_545
Pt1 Pt11 2.822964 1_554
Pt1 Pt10 2.822964 1_654
Pt2 Ti1 2.730133 1_555
Pt2 Pt5 2.744549 1_555
Pt2 Pt4 2.744549 1_565
Pt2 Pt3 2.757125 1_455
Pt2 Ti0 2.759008 1_565
Pt2 Pt3 2.821160 1_555
Pt3 Ti1 2.726880 1_655
Pt3 Pt5 2.745236 1_555
Pt3 Pt4 2.745236 1_665
Pt3 Ti0 2.763679 1_565
Pt4 Pt7 2.744428 1_555
Pt4 Pt8 2.744428 1_445
Pt4 Pt6 2.745100 1_455
Pt4 Pt9 2.745100 1_545
Pt4 Ti0 2.789140 1_455
Pt4 Ti0 2.789140 1_555
Pt4 Ti1 2.789140 1_545
Pt4 Ti1 2.789140 1_555
Pt5 Pt8 2.744428 1_555
Pt5 Pt7 2.744428 1_555
Pt5 Pt6 2.745100 1_555
Pt5 Pt9 2.745100 1_555
Pt5 Ti1 2.789140 1_555
Pt5 Ti1 2.789140 1_655
Pt5 Ti0 2.789140 1_555
Pt5 Ti0 2.789140 1_565
Pt6 Ti1 2.726664 1_655
Pt6 Pt7 2.756843 1_655
Pt6 Pt8 2.756843 1_555
Pt6 Ti0 2.763206 1_555
Pt6 Pt7 2.821442 1_555
Pt6 Pt8 2.821442 1_545
Pt7 Ti1 2.730084 1_555
Pt7 Pt9 2.756843 1_555
Pt7 Ti0 2.758579 1_555
Pt7 Pt9 2.821442 1_545
Pt8 Ti1 2.730084 1_655
Pt8 Pt9 2.756843 1_655
Pt8 Ti0 2.758579 1_565
Pt8 Pt9 2.821442 1_555
Pt9 Ti1 2.726664 1_555
Pt9 Ti0 2.763206 1_565
Pt10 Pt6 2.822218 1_455
Pt10 Pt9 2.822218 1_545
Pt10 Pt3 2.822303 1_446
Pt10 Pt7 2.822771 1_555
Pt10 Pt8 2.822771 1_445
Pt10 Pt2 2.822964 1_546
Pt11 Pt6 2.822218 1_555
Pt11 Pt9 2.822218 1_555
Pt11 Pt3 2.822303 1_556
Pt11 Pt8 2.822771 1_555
Pt11 Pt7 2.822771 1_555
Pt11 Pt2 2.822964 1_556
