# generated using pymatgen
data_Nb2Ni20B6W
_symmetry_space_group_name_H-M   'P 1'
_cell_length_a   7.41930229
_cell_length_b   7.41930171
_cell_length_c   7.41930264
_cell_angle_alpha   59.99999583
_cell_angle_beta   59.99999843
_cell_angle_gamma   59.99999384
_symmetry_Int_Tables_number   1
_chemical_formula_structural   Nb2Ni20B6W
_chemical_formula_sum   'Nb2 Ni20 B6 W1'
_cell_volume   288.78467862
_cell_formula_units_Z   1
loop_
 _symmetry_equiv_pos_site_id
 _symmetry_equiv_pos_as_xyz
  1  'x, y, z'
loop_
 _atom_site_type_symbol
 _atom_site_label
 _atom_site_symmetry_multiplicity
 _atom_site_fract_x
 _atom_site_fract_y
 _atom_site_fract_z
 _atom_site_occupancy
  Nb  Nb0  1  0.25000000  0.25000000  0.25000000  1
  Nb  Nb1  1  0.75000000  0.75000000  0.75000000  1
  Ni  Ni0  1  0.34199521  0.00000000  0.00000000  1
  Ni  Ni1  1  0.65800479  1.00000000  1.00000000  1
  Ni  Ni2  1  0.00000000  0.34199521  0.65800479  1
  Ni  Ni3  1  1.00000000  0.65800479  0.34199521  1
  Ni  Ni4  1  0.00000000  0.34199521  0.00000000  1
  Ni  Ni5  1  0.65800479  1.00000000  0.34199521  1
  Ni  Ni6  1  1.00000000  0.65800479  1.00000000  1
  Ni  Ni7  1  0.34199521  0.00000000  0.65800479  1
  Ni  Ni8  1  0.00000000  0.00000000  0.34199521  1
  Ni  Ni9  1  0.00000000  0.00000000  0.65800479  1
  Ni  Ni10  1  0.65800479  0.34199521  0.00000000  1
  Ni  Ni11  1  0.34199521  0.65800479  1.00000000  1
  Ni  Ni12  1  0.38458435  0.38458435  0.38458435  1
  Ni  Ni13  1  0.61541565  0.61541565  0.61541565  1
  Ni  Ni14  1  0.38458435  0.38458435  0.84624896  1
  Ni  Ni15  1  0.38458435  0.84624896  0.38458435  1
  Ni  Ni16  1  0.61541565  0.61541565  0.15375104  1
  Ni  Ni17  1  0.61541565  0.15375104  0.61541565  1
  Ni  Ni18  1  0.84624896  0.38458435  0.38458435  1
  Ni  Ni19  1  0.15375104  0.61541565  0.61541565  1
  B  B0  1  0.73209001  0.26790999  0.26790999  1
  B  B1  1  0.26790999  0.73209001  0.73209001  1
  B  B2  1  0.26790999  0.73209001  0.26790999  1
  B  B3  1  0.73209001  0.26790999  0.73209001  1
  B  B4  1  0.26790999  0.26790999  0.73209001  1
  B  B5  1  0.73209001  0.73209001  0.26790999  1
  W  W0  1  0.00000000  0.00000000  0.00000000  1
loop_
_geom_bond_atom_site_label_1
_geom_bond_atom_site_label_2
_geom_bond_distance
_geom_bond_site_symmetry_2
Nb0 Ni15 2.445857 1_545
Nb0 Ni18 2.445857 1_455
Nb0 Ni14 2.445857 1_554
Nb0 Ni12 2.445869 1_555
Nb1 Ni17 2.445857 1_565
Nb1 Ni19 2.445857 1_655
Nb1 Ni16 2.445857 1_556
Nb1 Ni13 2.445869 1_555
Ni0 W0 2.537366 1_555
Ni1 W0 2.537366 1_666
Ni2 W0 2.537366 1_556
Ni3 W0 2.537366 1_665
Ni4 W0 2.537366 1_555
Ni5 W0 2.537366 1_665
Ni6 W0 2.537366 1_666
Ni7 W0 2.537366 1_556
Ni8 W0 2.537366 1_555
Ni9 W0 2.537366 1_556
Ni10 W0 2.537365 1_655
Ni11 W0 2.537365 1_566
B0 Ni8 2.062304 1_655
B0 Ni5 2.062304 1_545
B0 Ni4 2.062304 1_655
B0 Ni10 2.062304 1_555
B0 Ni16 2.105159 1_555
B0 Ni12 2.105159 1_555
B0 Ni17 2.105160 1_555
B0 Ni18 2.105172 1_555
B1 Ni9 2.062304 1_565
B1 Ni7 2.062304 1_565
B1 Ni6 2.062304 1_455
B1 Ni11 2.062304 1_555
B1 Ni14 2.105159 1_555
B1 Ni13 2.105159 1_555
B1 Ni15 2.105160 1_555
B1 Ni19 2.105172 1_555
B2 Ni8 2.062304 1_565
B2 Ni0 2.062304 1_565
B2 Ni3 2.062304 1_455
B2 Ni11 2.062304 1_554
B2 Ni12 2.105159 1_555
B2 Ni16 2.105159 1_555
B2 Ni19 2.105160 1_555
B2 Ni15 2.105172 1_555
B3 Ni9 2.062304 1_655
B3 Ni1 2.062304 1_545
B3 Ni2 2.062304 1_655
B3 Ni10 2.062304 1_556
B3 Ni13 2.105159 1_555
B3 Ni14 2.105159 1_555
B3 Ni18 2.105160 1_555
B3 Ni17 2.105172 1_555
B4 Ni0 2.062304 1_556
B4 Ni7 2.062304 1_555
B4 Ni2 2.062304 1_555
B4 Ni4 2.062304 1_556
B4 Ni19 2.105159 1_555
B4 Ni17 2.105159 1_555
B4 Ni12 2.105160 1_555
B4 Ni14 2.105172 1_555
B5 Ni1 2.062304 1_554
B5 Ni5 2.062304 1_555
B5 Ni3 2.062304 1_555
B5 Ni6 2.062304 1_554
B5 Ni18 2.105159 1_555
B5 Ni15 2.105159 1_555
B5 Ni13 2.105160 1_555
B5 Ni16 2.105172 1_555
