# generated using pymatgen
data_YCuPdO4
_symmetry_space_group_name_H-M   'P 1'
_cell_length_a   6.31844557
_cell_length_b   6.31844563
_cell_length_c   6.35354004
_cell_angle_alpha   125.36221590
_cell_angle_beta   127.74971520
_cell_angle_gamma   78.60500455
_symmetry_Int_Tables_number   1
_chemical_formula_structural   YCuPdO4
_chemical_formula_sum   'Y2 Cu2 Pd2 O8'
_cell_volume   158.65270558
_cell_formula_units_Z   2
loop_
 _symmetry_equiv_pos_site_id
 _symmetry_equiv_pos_as_xyz
  1  'x, y, z'
loop_
 _atom_site_type_symbol
 _atom_site_label
 _atom_site_symmetry_multiplicity
 _atom_site_fract_x
 _atom_site_fract_y
 _atom_site_fract_z
 _atom_site_occupancy
  Y  Y0  1  0.74962638  0.24962638  0.50000000  1
  Y  Y1  1  0.00037362  0.00037362  1.00000000  1
  Cu  Cu0  1  0.37500000  0.62500000  0.25000000  1
  Cu  Cu1  1  0.37500000  0.12500000  0.75000000  1
  Pd  Pd0  1  0.87500000  0.62500000  0.25000000  1
  Pd  Pd1  1  0.37500000  0.62500000  0.75000000  1
  O  O0  1  0.01290583  0.96280829  0.36384408  1
  O  O1  1  0.69358035  0.85338309  0.45158529  1
  O  O2  1  0.40179880  0.24199606  0.54841471  1
  O  O3  1  0.59896521  0.64906275  0.63615592  1
  O  O4  1  0.73709417  0.28719171  0.13615592  1
  O  O5  1  0.05641965  0.39661691  0.04841471  1
  O  O6  1  0.15103479  0.60093725  0.86384408  1
  O  O7  1  0.34820120  0.00800394  0.95158529  1
loop_
_geom_bond_atom_site_label_1
_geom_bond_atom_site_label_2
_geom_bond_distance
_geom_bond_site_symmetry_2
Cu0 O3 1.856677 1_555
Cu0 O6 1.856677 1_554
Cu0 O1 1.904313 1_555
Cu0 O5 1.904313 1_555
Cu1 O4 1.856681 1_556
Cu1 O0 1.856681 1_545
Cu1 O2 1.904322 1_555
Cu1 O7 1.904322 1_555
O0 Pd0 2.003596 1_455
O0 Y0 2.357125 1_465
O0 Y1 2.410415 1_564
O1 Pd0 2.010337 1_555
O1 Y1 2.335922 1_665
O1 Y0 2.411179 1_565
O2 Pd1 2.010334 1_555
O2 Y1 2.335924 1_554
O2 Y0 2.411171 1_555
O3 Pd1 2.003605 1_555
O3 Y0 2.357127 1_555
O3 Y1 2.410407 1_665
O4 Pd0 2.003596 1_555
O4 Y1 2.357125 1_654
O4 Y0 2.410415 1_555
O5 Pd0 2.010337 1_455
O5 Y0 2.335922 1_454
O5 Y1 2.411179 1_554
O6 Pd1 2.003605 1_555
O6 Y1 2.357127 1_565
O6 Y0 2.410407 1_455
O7 Pd1 2.010334 1_545
O7 Y0 2.335924 1_556
O7 Y1 2.411171 1_555
