# generated using pymatgen
data_Zr6Zn17SiPt6
_symmetry_space_group_name_H-M   'P 1'
_cell_length_a   8.75300163
_cell_length_b   8.75300128
_cell_length_c   8.75300244
_cell_angle_alpha   60.00000296
_cell_angle_beta   60.00000427
_cell_angle_gamma   59.99999942
_symmetry_Int_Tables_number   1
_chemical_formula_structural   Zr6Zn17SiPt6
_chemical_formula_sum   'Zr6 Zn17 Si1 Pt6'
_cell_volume   474.19402191
_cell_formula_units_Z   1
loop_
 _symmetry_equiv_pos_site_id
 _symmetry_equiv_pos_as_xyz
  1  'x, y, z'
loop_
 _atom_site_type_symbol
 _atom_site_label
 _atom_site_symmetry_multiplicity
 _atom_site_fract_x
 _atom_site_fract_y
 _atom_site_fract_z
 _atom_site_occupancy
  Zr  Zr0  1  0.71371753  0.28628247  0.28628247  1
  Zr  Zr1  1  0.28628247  0.71371753  0.71371753  1
  Zr  Zr2  1  0.28628247  0.71371753  0.28628247  1
  Zr  Zr3  1  0.71371753  0.28628247  0.71371753  1
  Zr  Zr4  1  0.28628247  0.28628247  0.71371753  1
  Zr  Zr5  1  0.71371753  0.71371753  0.28628247  1
  Zn  Zn0  1  0.12422805  0.12422805  0.12422805  1
  Zn  Zn1  1  0.87577195  0.87577195  0.87577195  1
  Zn  Zn2  1  0.12422805  0.12422805  0.62731686  1
  Zn  Zn3  1  0.12422805  0.62731686  0.12422805  1
  Zn  Zn4  1  0.87577195  0.87577195  0.37268314  1
  Zn  Zn5  1  0.87577195  0.37268314  0.87577195  1
  Zn  Zn6  1  0.62731686  0.12422805  0.12422805  1
  Zn  Zn7  1  0.37268314  0.87577195  0.87577195  1
  Zn  Zn8  1  0.34102023  0.34102023  0.34102023  1
  Zn  Zn9  1  0.65897977  0.65897977  0.65897977  1
  Zn  Zn10  1  0.34102023  0.34102023  0.97694132  1
  Zn  Zn11  1  0.34102023  0.97694132  0.34102023  1
  Zn  Zn12  1  0.65897977  0.65897977  0.02305868  1
  Zn  Zn13  1  0.65897977  0.02305868  0.65897977  1
  Zn  Zn14  1  0.97694132  0.34102023  0.34102023  1
  Zn  Zn15  1  0.02305868  0.65897977  0.65897977  1
  Zn  Zn16  1  0.00000000  0.00000000  0.00000000  1
  Si  Si0  1  0.50000000  0.50000000  0.50000000  1
  Pt  Pt0  1  0.50000000  0.00000000  0.00000000  1
  Pt  Pt1  1  0.00000000  0.50000000  0.50000000  1
  Pt  Pt2  1  0.00000000  0.50000000  0.00000000  1
  Pt  Pt3  1  0.50000000  0.00000000  0.50000000  1
  Pt  Pt4  1  0.00000000  0.00000000  0.50000000  1
  Pt  Pt5  1  0.50000000  0.50000000  0.00000000  1
loop_
_geom_bond_atom_site_label_1
_geom_bond_atom_site_label_2
_geom_bond_distance
_geom_bond_site_symmetry_2
Zn0 Zn16 2.663497 1_555
Zn0 Zr2 2.958640 1_545
Zn0 Zr0 2.958640 1_455
Zn0 Zr4 2.958641 1_554
Zn1 Zn16 2.663497 1_666
Zn1 Zr3 2.958640 1_565
Zn1 Zr1 2.958640 1_655
Zn1 Zr5 2.958641 1_556
Zn2 Zr4 2.958634 1_555
Zn2 Zr1 2.958641 1_545
Zn2 Zr3 2.958641 1_455
Zn3 Zr2 2.958634 1_555
Zn3 Zr5 2.958641 1_455
Zn3 Zr1 2.958642 1_554
Zn4 Zr5 2.958634 1_555
Zn4 Zr0 2.958641 1_565
Zn4 Zr2 2.958641 1_655
Zn5 Zr3 2.958634 1_555
Zn5 Zr4 2.958641 1_655
Zn5 Zr0 2.958642 1_556
Zn6 Zr0 2.958634 1_555
Zn6 Zr5 2.958641 1_545
Zn6 Zr3 2.958642 1_554
Zn7 Zr1 2.958634 1_555
Zn7 Zr4 2.958641 1_565
Zn7 Zr2 2.958642 1_556
Zn8 Zr2 2.864395 1_555
Zn8 Zr0 2.864395 1_555
Zn8 Zr4 2.864395 1_555
Zn9 Zr3 2.864395 1_555
Zn9 Zr1 2.864395 1_555
Zn9 Zr5 2.864395 1_555
Zn10 Zr1 2.864401 1_555
Zn10 Zr3 2.864401 1_555
Zn10 Zr4 2.864412 1_555
Zn11 Zr5 2.864401 1_555
Zn11 Zr1 2.864401 1_555
Zn11 Zr2 2.864412 1_555
Zn12 Zr0 2.864401 1_555
Zn12 Zr2 2.864401 1_555
Zn12 Zr5 2.864412 1_555
Zn13 Zr4 2.864401 1_555
Zn13 Zr0 2.864401 1_555
Zn13 Zr3 2.864412 1_555
Zn14 Zr5 2.864401 1_555
Zn14 Zr3 2.864401 1_555
Zn14 Zr0 2.864412 1_555
Zn15 Zr4 2.864401 1_555
Zn15 Zr2 2.864401 1_555
Zn15 Zr1 2.864412 1_555
Zn16 Zn5 2.663490 1_454
Zn16 Zn3 2.663490 1_545
Zn16 Zn7 2.663490 1_544
Zn16 Zn6 2.663490 1_455
Zn16 Zn4 2.663491 1_445
Zn16 Zn2 2.663491 1_554
Si0 Zr3 2.645527 1_555
Si0 Zr2 2.645527 1_555
Si0 Zr1 2.645527 1_555
Si0 Zr0 2.645527 1_555
Si0 Zr5 2.645527 1_555
Si0 Zr4 2.645527 1_555
Pt0 Zn10 2.532147 1_554
Pt0 Zn12 2.532147 1_545
Pt0 Zn11 2.532148 1_545
Pt0 Zn13 2.532148 1_554
Pt0 Zn1 2.685611 1_544
Pt0 Zn0 2.685611 1_555
Pt0 Zn6 2.685618 1_555
Pt0 Zn7 2.685618 1_544
Pt0 Zr5 3.127075 1_545
Pt0 Zr4 3.127075 1_554
Pt0 Zr3 3.127075 1_554
Pt0 Zr2 3.127075 1_545
Pt1 Zn15 2.532132 1_555
Pt1 Zn14 2.532132 1_455
Pt1 Zn8 2.532143 1_555
Pt1 Zn9 2.532143 1_455
Pt1 Zn4 2.685611 1_455
Pt1 Zn2 2.685611 1_555
Pt1 Zn5 2.685611 1_455
Pt1 Zn3 2.685611 1_555
Pt1 Zr4 3.127074 1_555
Pt1 Zr5 3.127074 1_455
Pt1 Zr2 3.127075 1_555
Pt1 Zr3 3.127075 1_455
Pt2 Zn10 2.532147 1_554
Pt2 Zn12 2.532147 1_455
Pt2 Zn14 2.532148 1_455
Pt2 Zn15 2.532148 1_554
Pt2 Zn1 2.685611 1_454
Pt2 Zn0 2.685611 1_555
Pt2 Zn3 2.685618 1_555
Pt2 Zn5 2.685618 1_454
Pt2 Zr5 3.127075 1_455
Pt2 Zr4 3.127075 1_554
Pt2 Zr1 3.127075 1_554
Pt2 Zr0 3.127075 1_455
Pt3 Zn13 2.532132 1_555
Pt3 Zn11 2.532132 1_545
Pt3 Zn8 2.532143 1_555
Pt3 Zn9 2.532143 1_545
Pt3 Zn4 2.685611 1_545
Pt3 Zn2 2.685611 1_555
Pt3 Zn7 2.685611 1_545
Pt3 Zn6 2.685611 1_555
Pt3 Zr4 3.127074 1_555
Pt3 Zr5 3.127074 1_545
Pt3 Zr0 3.127074 1_555
Pt3 Zr1 3.127074 1_545
Pt4 Zn14 2.532147 1_455
Pt4 Zn15 2.532147 1_545
Pt4 Zn11 2.532147 1_545
Pt4 Zn13 2.532147 1_455
Pt4 Zn1 2.685611 1_445
Pt4 Zn0 2.685611 1_555
Pt4 Zn2 2.685618 1_555
Pt4 Zn4 2.685618 1_445
Pt4 Zr1 3.127074 1_545
Pt4 Zr3 3.127074 1_455
Pt4 Zr0 3.127074 1_455
Pt4 Zr2 3.127074 1_545
Pt5 Zn12 2.532132 1_555
Pt5 Zn10 2.532132 1_554
Pt5 Zn8 2.532143 1_555
Pt5 Zn9 2.532143 1_554
Pt5 Zn7 2.685611 1_554
Pt5 Zn6 2.685611 1_555
Pt5 Zn5 2.685611 1_554
Pt5 Zn3 2.685611 1_555
Pt5 Zr0 3.127075 1_555
Pt5 Zr2 3.127075 1_555
Pt5 Zr1 3.127075 1_554
Pt5 Zr3 3.127075 1_554
