# generated using pymatgen
data_As4OsRu
_symmetry_space_group_name_H-M   'P 1'
_cell_length_a   5.42675541
_cell_length_b   6.20843307
_cell_length_c   3.02518521
_cell_angle_alpha   90.00000000
_cell_angle_beta   90.00000000
_cell_angle_gamma   90.08172466
_symmetry_Int_Tables_number   1
_chemical_formula_structural   As4OsRu
_chemical_formula_sum   'As4 Os1 Ru1'
_cell_volume   101.92337094
_cell_formula_units_Z   1
loop_
 _symmetry_equiv_pos_site_id
 _symmetry_equiv_pos_as_xyz
  1  'x, y, z'
loop_
 _atom_site_type_symbol
 _atom_site_label
 _atom_site_symmetry_multiplicity
 _atom_site_fract_x
 _atom_site_fract_y
 _atom_site_fract_z
 _atom_site_occupancy
  As  As0  1  0.17134362  0.36660226  0.00000000  1
  As  As1  1  0.82865838  0.63339774  0.00000000  1
  As  As2  1  0.67070603  0.13404689  0.49999800  1
  As  As3  1  0.32929597  0.86595311  0.49999800  1
  Os  Os0  1  0.00000000  0.00000000  0.00000000  1
  Ru  Ru0  1  0.50000000  0.50000000  0.49999800  1
loop_
_geom_bond_atom_site_label_1
_geom_bond_atom_site_label_2
_geom_bond_distance
_geom_bond_site_symmetry_2
As0 Os0 2.457409 1_555
As0 Ru0 2.480043 1_555
As0 Ru0 2.480050 1_554
As0 As1 2.492139 1_455
As1 Os0 2.457405 1_665
As1 Ru0 2.480050 1_555
As1 Ru0 2.480058 1_554
As2 Ru0 2.454821 1_555
As2 Os0 2.485581 1_655
As2 Os0 2.485589 1_656
As2 As3 2.488825 1_545
As3 Ru0 2.454817 1_555
As3 Os0 2.485589 1_565
As3 Os0 2.485596 1_566
