# generated using pymatgen
data_CaSiPRh2
_symmetry_space_group_name_H-M   'P 1'
_cell_length_a   5.71469607
_cell_length_b   5.71469610
_cell_length_c   5.71469598
_cell_angle_alpha   138.71376363
_cell_angle_beta   138.71376907
_cell_angle_gamma   59.81157986
_symmetry_Int_Tables_number   1
_chemical_formula_structural   CaSiPRh2
_chemical_formula_sum   'Ca1 Si1 P1 Rh2'
_cell_volume   80.42906603
_cell_formula_units_Z   1
loop_
 _symmetry_equiv_pos_site_id
 _symmetry_equiv_pos_as_xyz
  1  'x, y, z'
loop_
 _atom_site_type_symbol
 _atom_site_label
 _atom_site_symmetry_multiplicity
 _atom_site_fract_x
 _atom_site_fract_y
 _atom_site_fract_z
 _atom_site_occupancy
  Ca  Ca0  1  0.00238074  0.00238074  0.00000000  1
  Si  Si0  1  0.37800535  0.37800535  1.00000000  1
  P  P0  1  0.62130873  0.62130873  0.00000000  1
  Rh  Rh0  1  0.74915309  0.24915309  0.50000000  1
  Rh  Rh1  1  0.24915309  0.74915309  0.50000000  1
loop_
_geom_bond_atom_site_label_1
_geom_bond_atom_site_label_2
_geom_bond_distance
_geom_bond_site_symmetry_2
Ca0 P0 3.083232 1_556
Ca0 P0 3.083233 1_444
Ca0 P0 3.083233 1_545
Ca0 P0 3.083233 1_455
Ca0 Si0 3.104258 1_443
Ca0 Si0 3.104259 1_555
Ca0 Si0 3.104259 1_454
Ca0 Si0 3.104259 1_544
Ca0 Rh0 3.168050 1_555
Ca0 Rh1 3.168050 1_555
Ca0 Rh0 3.168050 1_454
Ca0 Rh1 3.168050 1_544
Ca0 Rh1 3.217664 1_444
Ca0 Rh0 3.217665 1_444
Ca0 Rh1 3.217665 1_545
Ca0 Rh0 3.217665 1_455
P0 Rh1 2.379772 1_655
P0 Rh1 2.379773 1_554
P0 Rh0 2.379773 1_565
P0 Rh0 2.379773 1_554
P0 Si0 2.410535 1_554
Rh0 Si0 2.385102 1_655
Rh0 Si0 2.385102 1_554
Rh1 Si0 2.385103 1_565
Rh1 Si0 2.385103 1_554
