# generated using pymatgen
data_Ca3TaAl3(SiO7)2
_symmetry_space_group_name_H-M   'P 1'
_cell_length_a   8.02612091
_cell_length_b   8.02611997
_cell_length_c   4.91213422
_cell_angle_alpha   90.00000000
_cell_angle_beta   90.00000000
_cell_angle_gamma   119.99999591
_symmetry_Int_Tables_number   1
_chemical_formula_structural   Ca3TaAl3(SiO7)2
_chemical_formula_sum   'Ca3 Ta1 Al3 Si2 O14'
_cell_volume   274.03890257
_cell_formula_units_Z   1
loop_
 _symmetry_equiv_pos_site_id
 _symmetry_equiv_pos_as_xyz
  1  'x, y, z'
loop_
 _atom_site_type_symbol
 _atom_site_label
 _atom_site_symmetry_multiplicity
 _atom_site_fract_x
 _atom_site_fract_y
 _atom_site_fract_z
 _atom_site_occupancy
  Ca  Ca0  1  0.00000000  0.42388288  0.00000000  1
  Ca  Ca1  1  0.57611712  0.57611712  0.00000000  1
  Ca  Ca2  1  0.42388288  1.00000000  0.00000000  1
  Ta  Ta0  1  0.00000000  0.00000000  0.00000000  1
  Al  Al0  1  0.25746193  0.25746193  0.50000000  1
  Al  Al1  1  0.74253807  0.00000000  0.50000000  1
  Al  Al2  1  0.00000000  0.74253807  0.50000000  1
  Si  Si0  1  0.33333300  0.66666700  0.54310444  1
  Si  Si1  1  0.66666700  0.33333300  0.45689556  1
  O  O0  1  0.09219674  0.22702732  0.24165186  1
  O  O1  1  0.77297268  0.86516942  0.24165186  1
  O  O2  1  0.13483058  0.90780326  0.24165186  1
  O  O3  1  0.86516942  0.77297268  0.75834814  1
  O  O4  1  0.90780326  0.13483058  0.75834814  1
  O  O5  1  0.22702732  0.09219674  0.75834814  1
  O  O6  1  0.31598882  0.47153012  0.67929898  1
  O  O7  1  0.52846988  0.84445870  0.67929898  1
  O  O8  1  0.15554130  0.68401118  0.67929898  1
  O  O9  1  0.33333300  0.66666700  0.21749664  1
  O  O10  1  0.66666700  0.33333300  0.78250336  1
  O  O11  1  0.47153012  0.31598882  0.32070102  1
  O  O12  1  0.68401118  0.15554130  0.32070102  1
  O  O13  1  0.84445870  0.52846988  0.32070102  1
loop_
_geom_bond_atom_site_label_1
_geom_bond_atom_site_label_2
_geom_bond_distance
_geom_bond_site_symmetry_2
Ca0 O0 2.371102 1_555
Ca0 O4 2.371102 1_454
Ca0 O13 2.406806 1_455
Ca0 O8 2.406806 1_554
Ca0 O10 2.623519 1_454
Ca0 O9 2.623521 1_555
Ca0 O6 2.844318 1_554
Ca0 O12 2.844318 1_455
Ca1 O1 2.371102 1_555
Ca1 O3 2.371102 1_554
Ca1 O11 2.406806 1_555
Ca1 O6 2.406806 1_554
Ca1 O10 2.623526 1_554
Ca1 O9 2.623526 1_555
Ca1 O7 2.844318 1_554
Ca1 O13 2.844318 1_555
Ca2 O5 2.371102 1_564
Ca2 O2 2.371102 1_555
Ca2 O7 2.406806 1_554
Ca2 O12 2.406806 1_565
Ca2 O9 2.623519 1_555
Ca2 O10 2.623521 1_564
Ca2 O11 2.844318 1_565
Ca2 O8 2.844318 1_554
Al0 O5 1.762260 1_555
Al0 O0 1.762260 1_555
Al0 O6 1.772364 1_555
Al0 O11 1.772364 1_555
Al1 O1 1.762260 1_545
Al1 O4 1.762260 1_555
Al1 O12 1.772364 1_555
Al1 O7 1.772364 1_545
Al2 O3 1.762260 1_455
Al2 O2 1.762260 1_555
Al2 O8 1.772364 1_555
Al2 O13 1.772364 1_455
O0 Ta0 1.982038 1_555
O1 Ta0 1.982038 1_665
O2 Ta0 1.982038 1_565
O3 Ta0 1.982038 1_666
O4 Ta0 1.982038 1_656
O5 Ta0 1.982038 1_556
O6 Si0 1.643740 1_555
O7 Si0 1.643737 1_555
O8 Si0 1.643733 1_555
O9 Si0 1.599429 1_555
O10 Si1 1.599429 1_555
O11 Si1 1.643740 1_555
O12 Si1 1.643733 1_555
O13 Si1 1.643737 1_555
