# generated using pymatgen
data_Rb4TiReCl12
_symmetry_space_group_name_H-M   'P 1'
_cell_length_a   7.08705613
_cell_length_b   7.08707909
_cell_length_c   10.01092454
_cell_angle_alpha   90.00000000
_cell_angle_beta   90.00000000
_cell_angle_gamma   90.00000000
_symmetry_Int_Tables_number   1
_chemical_formula_structural   Rb4TiReCl12
_chemical_formula_sum   'Rb4 Ti1 Re1 Cl12'
_cell_volume   502.81397456
_cell_formula_units_Z   1
loop_
 _symmetry_equiv_pos_site_id
 _symmetry_equiv_pos_as_xyz
  1  'x, y, z'
loop_
 _atom_site_type_symbol
 _atom_site_label
 _atom_site_symmetry_multiplicity
 _atom_site_fract_x
 _atom_site_fract_y
 _atom_site_fract_z
 _atom_site_occupancy
  Rb  Rb0  1  0.50000000  0.00000000  0.75066477  1
  Rb  Rb1  1  0.00000000  0.50000000  0.24934294  1
  Rb  Rb2  1  0.50000000  0.00000000  0.24933523  1
  Rb  Rb3  1  0.00000000  0.50000000  0.75065706  1
  Ti  Ti0  1  0.00000000  0.00000000  0.00000000  1
  Re  Re0  1  0.50000000  0.50000000  0.50000000  1
  Cl  Cl0  1  0.00000000  0.00000000  0.76525910  1
  Cl  Cl1  1  0.50000000  0.50000000  0.26321759  1
  Cl  Cl2  1  0.73650813  0.73651513  0.50000000  1
  Cl  Cl3  1  0.23463516  0.23463521  0.00000000  1
  Cl  Cl4  1  0.73650813  0.26348487  0.50000000  1
  Cl  Cl5  1  0.23463516  0.76536479  0.00000000  1
  Cl  Cl6  1  0.00000000  0.00000000  0.23474090  1
  Cl  Cl7  1  0.50000000  0.50000000  0.73678241  1
  Cl  Cl8  1  0.26349187  0.26348487  0.50000000  1
  Cl  Cl9  1  0.76536484  0.76536479  0.00000000  1
  Cl  Cl10  1  0.26349187  0.73651513  0.50000000  1
  Cl  Cl11  1  0.76536484  0.23463521  0.00000000  1
loop_
_geom_bond_atom_site_label_1
_geom_bond_atom_site_label_2
_geom_bond_distance
_geom_bond_site_symmetry_2
Cl0 Ti0 2.349973 1_556
Cl0 Rb0 3.546539 1_455
Cl0 Rb0 3.546539 1_555
Cl0 Rb3 3.546553 1_545
Cl0 Rb3 3.546553 1_555
Cl1 Re0 2.370411 1_555
Cl1 Rb1 3.546249 1_655
Cl1 Rb1 3.546249 1_555
Cl1 Rb2 3.546264 1_565
Cl1 Rb2 3.546264 1_555
Cl2 Re0 2.370468 1_555
Cl2 Rb3 3.548718 1_655
Cl2 Rb1 3.548718 1_655
Cl2 Rb0 3.548723 1_565
Cl2 Rb2 3.548723 1_565
Cl3 Ti0 2.351661 1_555
Cl3 Rb2 3.540117 1_555
Cl3 Rb0 3.540117 1_554
Cl3 Rb1 3.540171 1_555
Cl3 Rb3 3.540171 1_554
Cl4 Re0 2.370468 1_555
Cl4 Rb3 3.548718 1_655
Cl4 Rb1 3.548718 1_655
Cl4 Rb0 3.548723 1_555
Cl4 Rb2 3.548723 1_555
Cl5 Ti0 2.351661 1_565
Cl5 Rb2 3.540117 1_565
Cl5 Rb0 3.540117 1_564
Cl5 Rb1 3.540171 1_555
Cl5 Rb3 3.540171 1_554
Cl6 Ti0 2.349973 1_555
Cl6 Rb2 3.546539 1_455
Cl6 Rb2 3.546539 1_555
Cl6 Rb1 3.546553 1_555
Cl6 Rb1 3.546553 1_545
Cl7 Re0 2.370411 1_555
Cl7 Rb3 3.546249 1_555
Cl7 Rb3 3.546249 1_655
Cl7 Rb0 3.546264 1_555
Cl7 Rb0 3.546264 1_565
Cl8 Re0 2.370468 1_555
Cl8 Rb3 3.548718 1_555
Cl8 Rb1 3.548718 1_555
Cl8 Rb0 3.548723 1_555
Cl8 Rb2 3.548723 1_555
Cl9 Ti0 2.351661 1_665
Cl9 Rb2 3.540117 1_565
Cl9 Rb0 3.540117 1_564
Cl9 Rb1 3.540171 1_655
Cl9 Rb3 3.540171 1_654
Cl10 Re0 2.370468 1_555
Cl10 Rb3 3.548718 1_555
Cl10 Rb1 3.548718 1_555
Cl10 Rb0 3.548723 1_565
Cl10 Rb2 3.548723 1_565
Cl11 Ti0 2.351661 1_655
Cl11 Rb2 3.540117 1_555
Cl11 Rb0 3.540117 1_554
Cl11 Rb1 3.540171 1_655
Cl11 Rb3 3.540171 1_654
