# generated using pymatgen
data_Hf4PtRhN
_symmetry_space_group_name_H-M   'P 1'
_cell_length_a   8.69010356
_cell_length_b   8.69010311
_cell_length_c   8.69010498
_cell_angle_alpha   60.00000035
_cell_angle_beta   60.00000207
_cell_angle_gamma   59.99999966
_symmetry_Int_Tables_number   1
_chemical_formula_structural   Hf4PtRhN
_chemical_formula_sum   'Hf16 Pt4 Rh4 N4'
_cell_volume   464.04480347
_cell_formula_units_Z   4
loop_
 _symmetry_equiv_pos_site_id
 _symmetry_equiv_pos_as_xyz
  1  'x, y, z'
loop_
 _atom_site_type_symbol
 _atom_site_label
 _atom_site_symmetry_multiplicity
 _atom_site_fract_x
 _atom_site_fract_y
 _atom_site_fract_z
 _atom_site_occupancy
  Hf  Hf0  1  0.12183029  0.62605690  0.62605690  1
  Hf  Hf1  1  0.62605690  0.12183029  0.62605690  1
  Hf  Hf2  1  0.62605690  0.62605690  0.12183029  1
  Hf  Hf3  1  0.62605690  0.62605690  0.62605690  1
  Hf  Hf4  1  0.81821519  0.81821519  0.18178481  1
  Hf  Hf5  1  0.18178481  0.18178481  0.81821519  1
  Hf  Hf6  1  0.81821519  0.18178481  0.81821519  1
  Hf  Hf7  1  0.18178481  0.81821519  0.18178481  1
  Hf  Hf8  1  0.18178481  0.81821519  0.81821519  1
  Hf  Hf9  1  0.81821519  0.18178481  0.18178481  1
  Hf  Hf10  1  0.43359717  0.43359717  0.06640283  1
  Hf  Hf11  1  0.06640283  0.06640283  0.43359717  1
  Hf  Hf12  1  0.43359717  0.06640283  0.43359717  1
  Hf  Hf13  1  0.06640283  0.43359717  0.06640283  1
  Hf  Hf14  1  0.06640283  0.43359717  0.43359717  1
  Hf  Hf15  1  0.43359717  0.06640283  0.06640283  1
  Pt  Pt0  1  0.78243059  0.40585614  0.40585614  1
  Pt  Pt1  1  0.40585614  0.78243059  0.40585614  1
  Pt  Pt2  1  0.40585614  0.40585614  0.78243059  1
  Pt  Pt3  1  0.40585614  0.40585614  0.40585614  1
  Rh  Rh0  1  0.47938176  0.84020608  0.84020608  1
  Rh  Rh1  1  0.84020608  0.47938176  0.84020608  1
  Rh  Rh2  1  0.84020608  0.84020608  0.47938176  1
  Rh  Rh3  1  0.84020608  0.84020608  0.84020608  1
  N  N0  1  0.62625829  0.12458057  0.12458057  1
  N  N1  1  0.12458057  0.62625829  0.12458057  1
  N  N2  1  0.12458057  0.12458057  0.62625829  1
  N  N3  1  0.12458057  0.12458057  0.12458057  1
loop_
_geom_bond_atom_site_label_1
_geom_bond_atom_site_label_2
_geom_bond_distance
_geom_bond_site_symmetry_2
Hf0 Rh3 2.696351 1_455
Hf0 Rh1 2.696356 1_455
Hf0 Rh2 2.696356 1_455
Hf0 Pt1 2.762437 1_555
Hf0 Pt2 2.762437 1_555
Hf0 Pt3 2.762447 1_555
Hf1 Rh3 2.696351 1_545
Hf1 Rh0 2.696355 1_545
Hf1 Rh2 2.696356 1_545
Hf1 Pt0 2.762437 1_555
Hf1 Pt2 2.762437 1_555
Hf1 Pt3 2.762447 1_555
Hf2 Rh3 2.696351 1_554
Hf2 Rh0 2.696356 1_554
Hf2 Rh1 2.696356 1_554
Hf2 Pt0 2.762437 1_555
Hf2 Pt1 2.762437 1_555
Hf2 Pt3 2.762447 1_555
Hf3 Rh2 2.696349 1_555
Hf3 Rh0 2.696349 1_555
Hf3 Rh1 2.696349 1_555
Hf3 Pt2 2.762450 1_555
Hf3 Pt0 2.762451 1_555
Hf3 Pt1 2.762451 1_555
Hf4 N0 2.276507 1_565
Hf4 N1 2.276507 1_655
Hf4 Rh2 2.790371 1_555
Hf4 Rh3 2.790371 1_554
Hf5 N2 2.276508 1_555
Hf5 N3 2.276508 1_556
Hf5 Rh0 2.790370 1_545
Hf5 Rh1 2.790370 1_455
Hf6 N2 2.276507 1_655
Hf6 N0 2.276508 1_556
Hf6 Rh3 2.790370 1_545
Hf6 Rh1 2.790370 1_555
Hf7 N3 2.276507 1_565
Hf7 N1 2.276507 1_555
Hf7 Rh2 2.790371 1_455
Hf7 Rh0 2.790371 1_554
Hf8 N2 2.276507 1_565
Hf8 N1 2.276508 1_556
Hf8 Rh3 2.790370 1_455
Hf8 Rh0 2.790370 1_555
Hf9 N3 2.276507 1_655
Hf9 N0 2.276507 1_555
Hf9 Rh2 2.790370 1_545
Hf9 Rh1 2.790371 1_554
Hf10 N0 2.294079 1_555
Hf10 N1 2.294079 1_555
Hf10 Pt3 2.730183 1_555
Hf10 Pt2 2.730191 1_554
Hf11 N2 2.294079 1_555
Hf11 N3 2.294080 1_555
Hf11 Pt0 2.730185 1_455
Hf11 Pt1 2.730186 1_545
Hf12 N2 2.294079 1_555
Hf12 N0 2.294080 1_555
Hf12 Pt3 2.730182 1_555
Hf12 Pt1 2.730191 1_545
Hf13 N3 2.294079 1_555
Hf13 N1 2.294079 1_555
Hf13 Pt2 2.730186 1_554
Hf13 Pt0 2.730186 1_455
Hf14 N2 2.294079 1_555
Hf14 N1 2.294080 1_555
Hf14 Pt3 2.730182 1_555
Hf14 Pt0 2.730191 1_455
Hf15 N3 2.294079 1_555
Hf15 N0 2.294079 1_555
Hf15 Pt2 2.730186 1_554
Hf15 Pt1 2.730186 1_545
