# generated using pymatgen
data_CsK3ZrSe4
_symmetry_space_group_name_H-M   'P 1'
_cell_length_a   8.47779868
_cell_length_b   10.32994421
_cell_length_c   15.75210309
_cell_angle_alpha   90.00000000
_cell_angle_beta   90.00000000
_cell_angle_gamma   90.00000000
_symmetry_Int_Tables_number   1
_chemical_formula_structural   CsK3ZrSe4
_chemical_formula_sum   'Cs4 K12 Zr4 Se16'
_cell_volume   1379.49337906
_cell_formula_units_Z   4
loop_
 _symmetry_equiv_pos_site_id
 _symmetry_equiv_pos_as_xyz
  1  'x, y, z'
loop_
 _atom_site_type_symbol
 _atom_site_label
 _atom_site_symmetry_multiplicity
 _atom_site_fract_x
 _atom_site_fract_y
 _atom_site_fract_z
 _atom_site_occupancy
  Cs  Cs0  1  0.00000000  0.00000000  0.00000000  1
  Cs  Cs1  1  0.50000000  0.00000000  0.50000000  1
  Cs  Cs2  1  0.00000000  0.50000000  0.00000000  1
  Cs  Cs3  1  0.50000000  0.50000000  0.50000000  1
  K  K0  1  0.96947319  0.75000000  0.43267595  1
  K  K1  1  0.46947319  0.25000000  0.06732405  1
  K  K2  1  0.03052681  0.25000000  0.56732405  1
  K  K3  1  0.53052681  0.75000000  0.93267595  1
  K  K4  1  0.82612124  0.05682679  0.26921019  1
  K  K5  1  0.32612124  0.94317321  0.23078981  1
  K  K6  1  0.17387876  0.55682679  0.73078981  1
  K  K7  1  0.67387876  0.44317321  0.76921019  1
  K  K8  1  0.17387876  0.94317321  0.73078981  1
  K  K9  1  0.67387876  0.05682679  0.76921019  1
  K  K10  1  0.82612124  0.44317321  0.26921019  1
  K  K11  1  0.32612124  0.55682679  0.23078981  1
  Zr  Zr0  1  0.77755467  0.75000000  0.67542136  1
  Zr  Zr1  1  0.22244533  0.25000000  0.32457864  1
  Zr  Zr2  1  0.72244533  0.75000000  0.17542136  1
  Zr  Zr3  1  0.27755467  0.25000000  0.82457864  1
  Se  Se0  1  0.97878422  0.25000000  0.81683579  1
  Se  Se1  1  0.52121578  0.25000000  0.31683579  1
  Se  Se2  1  0.47878422  0.75000000  0.68316421  1
  Se  Se3  1  0.02121578  0.75000000  0.18316421  1
  Se  Se4  1  0.62566131  0.55009242  0.10012282  1
  Se  Se5  1  0.12566131  0.44990758  0.39987718  1
  Se  Se6  1  0.37433869  0.05009242  0.89987718  1
  Se  Se7  1  0.87433869  0.94990758  0.60012282  1
  Se  Se8  1  0.37433869  0.44990758  0.89987718  1
  Se  Se9  1  0.87433869  0.55009242  0.60012282  1
  Se  Se10  1  0.62566131  0.94990758  0.10012282  1
  Se  Se11  1  0.12566131  0.05009242  0.39987718  1
  Se  Se12  1  0.61229418  0.75000000  0.32609749  1
  Se  Se13  1  0.11229418  0.25000000  0.17390251  1
  Se  Se14  1  0.38770582  0.25000000  0.67390251  1
  Se  Se15  1  0.88770582  0.75000000  0.82609749  1
loop_
_geom_bond_atom_site_label_1
_geom_bond_atom_site_label_2
_geom_bond_distance
_geom_bond_site_symmetry_2
Cs0 Se6 3.581435 1_554
Cs0 Se10 3.581435 1_445
Cs0 Se3 3.876350 1_545
Cs0 Se0 3.876350 1_454
Cs0 Se13 3.883231 1_555
Cs0 Se15 3.883231 1_444
Cs1 Se7 3.581435 1_545
Cs1 Se11 3.581435 1_555
Cs1 Se2 3.876350 1_545
Cs1 Se1 3.876350 1_555
Cs1 Se12 3.883231 1_545
Cs1 Se14 3.883231 1_555
Cs2 Se8 3.581435 1_554
Cs2 Se4 3.581435 1_455
Cs2 Se3 3.876350 1_555
Cs2 Se0 3.876350 1_454
Cs2 Se13 3.883231 1_555
Cs2 Se15 3.883231 1_454
Cs3 Se9 3.581435 1_555
Cs3 Se5 3.581435 1_555
Cs3 Se2 3.876350 1_555
Cs3 Se1 3.876350 1_555
Cs3 Se12 3.883231 1_555
Cs3 Se14 3.883231 1_555
K0 Se11 3.410259 1_665
K0 Se5 3.410259 1_655
K0 Se7 3.445578 1_555
K0 Se9 3.445578 1_555
K0 Se12 3.462344 1_555
K1 Se4 3.410259 1_555
K1 Se10 3.410259 1_545
K1 Se8 3.445578 1_554
K1 Se6 3.445578 1_554
K1 Se13 3.462344 1_555
K2 Se9 3.410259 1_455
K2 Se7 3.410259 1_445
K2 Se5 3.445578 1_555
K2 Se11 3.445578 1_555
K2 Se14 3.462344 1_555
K3 Se6 3.410259 1_565
K3 Se8 3.410259 1_555
K3 Se10 3.445578 1_556
K3 Se4 3.445578 1_556
K3 Se15 3.462344 1_555
K4 Se11 3.269574 1_655
K4 Se10 3.346961 1_545
K4 Se1 3.350604 1_555
K4 Se13 3.481641 1_655
K4 Se12 3.759644 1_545
K5 Se10 3.269574 1_555
K5 Se11 3.346961 1_565
K5 Se3 3.350604 1_555
K5 Se12 3.481641 1_555
K5 Se13 3.759644 1_565
K6 Se9 3.269574 1_455
K6 Se8 3.346961 1_555
K6 Se2 3.350604 1_555
K6 Se15 3.481641 1_455
K6 Se14 3.759644 1_555
K7 Se8 3.269574 1_555
K7 Se9 3.346961 1_555
K7 Se0 3.350604 1_555
K7 Se14 3.481641 1_555
K7 Se15 3.759644 1_555
K8 Se7 3.269574 1_455
K8 Se6 3.346961 1_565
K8 Se2 3.350604 1_555
K8 Se15 3.481641 1_455
K8 Se14 3.759644 1_565
K9 Se6 3.269574 1_555
K9 Se7 3.346961 1_545
K9 Se0 3.350604 1_555
K9 Se14 3.481641 1_555
K9 Se15 3.759644 1_545
K10 Se5 3.269574 1_655
K10 Se4 3.346961 1_555
K10 Se1 3.350604 1_555
K10 Se13 3.481641 1_655
K10 Se12 3.759644 1_555
K11 Se4 3.269574 1_555
K11 Se5 3.346961 1_555
K11 Se3 3.350604 1_555
K11 Se12 3.481641 1_555
K11 Se13 3.759644 1_555
Se0 Zr3 2.535851 1_655
Se1 Zr1 2.535851 1_555
Se2 Zr0 2.535851 1_555
Se3 Zr2 2.535851 1_455
Se4 Zr2 2.518823 1_555
Se5 Zr1 2.518823 1_555
Se6 Zr3 2.518823 1_555
Se7 Zr0 2.518823 1_555
Se8 Zr3 2.518823 1_555
Se9 Zr0 2.518823 1_555
Se10 Zr2 2.518823 1_555
Se11 Zr1 2.518823 1_555
Se12 Zr2 2.550568 1_555
Se13 Zr1 2.550568 1_555
Se14 Zr3 2.550568 1_555
Se15 Zr0 2.550568 1_555
