# generated using pymatgen
data_Rb2LiAlH6
_symmetry_space_group_name_H-M   'P 1'
_cell_length_a   9.85357370
_cell_length_b   9.85357334
_cell_length_c   9.85357435
_cell_angle_alpha   34.21758089
_cell_angle_beta   34.21758414
_cell_angle_gamma   34.21758261
_symmetry_Int_Tables_number   1
_chemical_formula_structural   Rb2LiAlH6
_chemical_formula_sum   'Rb4 Li2 Al2 H12'
_cell_volume   269.76997446
_cell_formula_units_Z   2
loop_
 _symmetry_equiv_pos_site_id
 _symmetry_equiv_pos_as_xyz
  1  'x, y, z'
loop_
 _atom_site_type_symbol
 _atom_site_label
 _atom_site_symmetry_multiplicity
 _atom_site_fract_x
 _atom_site_fract_y
 _atom_site_fract_z
 _atom_site_occupancy
  Rb  Rb0  1  0.12721988  0.12721988  0.12721988  1
  Rb  Rb1  1  0.87278012  0.87278012  0.87278012  1
  Rb  Rb2  1  0.28680993  0.28680993  0.28680993  1
  Rb  Rb3  1  0.71319007  0.71319007  0.71319007  1
  Li  Li0  1  0.40965085  0.40965085  0.40965085  1
  Li  Li1  1  0.59034915  0.59034915  0.59034915  1
  Al  Al0  1  0.00000000  0.00000000  0.00000000  1
  Al  Al1  1  0.50000000  0.50000000  0.50000000  1
  H  H0  1  0.18317963  0.18317963  0.74336888  1
  H  H1  1  0.74336888  0.18317963  0.18317963  1
  H  H2  1  0.18317963  0.74336888  0.18317963  1
  H  H3  1  0.81682037  0.25663112  0.81682037  1
  H  H4  1  0.81682037  0.81682037  0.25663112  1
  H  H5  1  0.25663112  0.81682037  0.81682037  1
  H  H6  1  0.40092897  0.40092897  0.81429098  1
  H  H7  1  0.81429098  0.40092897  0.40092897  1
  H  H8  1  0.18570902  0.59907103  0.59907103  1
  H  H9  1  0.59907103  0.59907103  0.18570902  1
  H  H10  1  0.59907103  0.18570902  0.59907103  1
  H  H11  1  0.40092897  0.81429098  0.40092897  1
loop_
_geom_bond_atom_site_label_1
_geom_bond_atom_site_label_2
_geom_bond_distance
_geom_bond_site_symmetry_2
Al0 H0 1.789233 1_554
Al0 H4 1.789233 1_445
Al0 H2 1.789233 1_545
Al0 H3 1.789233 1_454
Al0 H1 1.789233 1_455
Al0 H5 1.789233 1_544
Al1 H11 1.753025 1_555
Al1 H10 1.753025 1_555
Al1 H7 1.753025 1_555
Al1 H8 1.753025 1_555
Al1 H6 1.753025 1_555
Al1 H9 1.753025 1_555
H0 Li0 2.176422 1_555
H0 Rb0 2.918636 1_556
H0 Rb3 2.918917 1_455
H0 Rb3 2.918917 1_545
H0 Rb2 2.975554 1_555
H1 Li0 2.176422 1_555
H1 Rb0 2.918635 1_655
H1 Rb3 2.918917 1_554
H1 Rb3 2.918917 1_545
H1 Rb2 2.975553 1_555
H2 Li0 2.176422 1_555
H2 Rb0 2.918635 1_565
H2 Rb3 2.918918 1_554
H2 Rb3 2.918918 1_455
H2 Rb2 2.975553 1_555
H3 Li1 2.176422 1_555
H3 Rb1 2.918635 1_545
H3 Rb2 2.918918 1_556
H3 Rb2 2.918918 1_655
H3 Rb3 2.975553 1_555
H4 Li1 2.176422 1_555
H4 Rb1 2.918636 1_554
H4 Rb2 2.918917 1_655
H4 Rb2 2.918917 1_565
H4 Rb3 2.975554 1_555
H5 Li1 2.176422 1_555
H5 Rb1 2.918635 1_455
H5 Rb2 2.918917 1_556
H5 Rb2 2.918917 1_565
H5 Rb3 2.975553 1_555
H6 Li1 1.993787 1_555
H6 Rb1 2.913333 1_545
H6 Rb1 2.913334 1_455
H6 Rb0 2.928893 1_556
H6 Rb2 2.996841 1_556
H7 Li1 1.993787 1_555
H7 Rb1 2.913333 1_545
H7 Rb1 2.913333 1_554
H7 Rb0 2.928893 1_655
H7 Rb2 2.996840 1_655
H8 Li0 1.993787 1_555
H8 Rb0 2.913333 1_565
H8 Rb0 2.913333 1_556
H8 Rb1 2.928893 1_455
H8 Rb3 2.996840 1_455
H9 Li0 1.993787 1_555
H9 Rb0 2.913333 1_565
H9 Rb0 2.913334 1_655
H9 Rb1 2.928893 1_554
H9 Rb3 2.996841 1_554
H10 Li0 1.993787 1_555
H10 Rb0 2.913334 1_556
H10 Rb0 2.913334 1_655
H10 Rb1 2.928893 1_545
H10 Rb3 2.996840 1_545
H11 Li1 1.993787 1_555
H11 Rb1 2.913334 1_554
H11 Rb1 2.913334 1_455
H11 Rb0 2.928893 1_565
H11 Rb2 2.996840 1_565
