# generated using pymatgen
data_Cs4Si8Mo2O23
_symmetry_space_group_name_H-M   'P 1'
_cell_length_a   7.01530099
_cell_length_b   7.74727221
_cell_length_c   11.07245351
_cell_angle_alpha   102.71125738
_cell_angle_beta   89.85849190
_cell_angle_gamma   107.23599359
_symmetry_Int_Tables_number   1
_chemical_formula_structural   Cs4Si8Mo2O23
_chemical_formula_sum   'Cs4 Si8 Mo2 O23'
_cell_volume   559.39836505
_cell_formula_units_Z   1
loop_
 _symmetry_equiv_pos_site_id
 _symmetry_equiv_pos_as_xyz
  1  'x, y, z'
loop_
 _atom_site_type_symbol
 _atom_site_label
 _atom_site_symmetry_multiplicity
 _atom_site_fract_x
 _atom_site_fract_y
 _atom_site_fract_z
 _atom_site_occupancy
  Cs  Cs0  1  0.32318529  0.27437232  0.63551344  1
  Cs  Cs1  1  0.67681471  0.72562768  0.36448656  1
  Cs  Cs2  1  0.29188673  0.20077186  0.98654414  1
  Cs  Cs3  1  0.70811327  0.79922814  0.01345586  1
  Si  Si0  1  0.50858502  0.19134794  0.29685380  1
  Si  Si1  1  0.49141498  0.80865206  0.70314620  1
  Si  Si2  1  0.92820455  0.85336073  0.71168963  1
  Si  Si3  1  0.07179545  0.14663927  0.28831037  1
  Si  Si4  1  0.85323406  0.29490136  0.50094851  1
  Si  Si5  1  0.14676594  0.70509864  0.49905149  1
  Si  Si6  1  0.15845928  0.66106203  0.86845202  1
  Si  Si7  1  0.84154072  0.33893797  0.13154798  1
  Mo  Mo0  1  0.79541929  0.25516030  0.81642091  1
  Mo  Mo1  1  0.20458071  0.74483970  0.18357909  1
  O  O0  1  0.45692769  0.97434852  0.23915272  1
  O  O1  1  0.54307231  0.02565148  0.76084728  1
  O  O2  1  0.63268731  0.31338147  0.20347991  1
  O  O3  1  0.36731269  0.68661853  0.79652009  1
  O  O4  1  0.63760101  0.26452969  0.43072365  1
  O  O5  1  0.36239899  0.73547031  0.56927635  1
  O  O6  1  0.30910570  0.25827203  0.32502567  1
  O  O7  1  0.69089430  0.74172797  0.67497433  1
  O  O8  1  0.95510651  0.06122597  0.78400116  1
  O  O9  1  0.04489349  0.93877403  0.21599884  1
  O  O10  1  0.01486418  0.74225382  0.79496887  1
  O  O11  1  0.98513582  0.25774618  0.20503113  1
  O  O12  1  0.04359488  0.85094217  0.58307230  1
  O  O13  1  0.95640512  0.14905783  0.41692770  1
  O  O14  1  0.00000000  0.50000000  0.50000000  1
  O  O15  1  0.82347695  0.25877880  0.63548408  1
  O  O16  1  0.17652305  0.74122120  0.36451592  1
  O  O17  1  0.06390369  0.44204056  0.85789106  1
  O  O18  1  0.93609631  0.55795944  0.14210894  1
  O  O19  1  0.20725586  0.78478471  0.00802501  1
  O  O20  1  0.79274414  0.21521529  0.99197499  1
  O  O21  1  0.64863322  0.39779790  0.84693961  1
  O  O22  1  0.35136678  0.60220210  0.15306039  1
loop_
_geom_bond_atom_site_label_1
_geom_bond_atom_site_label_2
_geom_bond_distance
_geom_bond_site_symmetry_2
Cs0 O21 3.058561 1_555
Cs0 O4 3.164106 1_555
Cs0 O12 3.209334 1_545
Cs0 O3 3.222639 1_555
Cs0 O8 3.277885 1_455
Cs0 O13 3.307162 1_455
Cs0 O1 3.311680 1_555
Cs0 O17 3.321017 1_555
Cs0 O6 3.413191 1_555
Cs0 O15 3.471724 1_455
Cs0 O15 3.547366 1_555
Cs0 O7 3.705296 1_555
Cs0 O5 3.734185 1_555
Cs0 O14 3.737238 1_555
Cs1 O22 3.058561 1_555
Cs1 O5 3.164106 1_555
Cs1 O13 3.209334 1_565
Cs1 O2 3.222639 1_555
Cs1 O9 3.277885 1_655
Cs1 O12 3.307162 1_655
Cs1 O0 3.311680 1_555
Cs1 O18 3.321017 1_555
Cs1 O7 3.413191 1_555
Cs1 O16 3.471724 1_655
Cs1 O16 3.547366 1_555
Cs1 O6 3.705296 1_555
Cs1 O4 3.734185 1_555
Cs1 O14 3.737238 1_655
Cs2 O8 3.037387 1_455
Cs2 O21 3.120597 1_555
Cs2 O22 3.155454 1_556
Cs2 O19 3.161962 1_546
Cs2 O2 3.180703 1_556
Cs2 O11 3.278026 1_456
Cs2 O17 3.321996 1_555
Cs2 O1 3.330745 1_555
Cs3 O9 3.037387 1_655
Cs3 O22 3.120597 1_555
Cs3 O21 3.155454 1_554
Cs3 O20 3.161962 1_564
Cs3 O3 3.180703 1_554
Cs3 O10 3.278026 1_654
Cs3 O18 3.321996 1_555
Cs3 O0 3.330745 1_555
Mo0 O21 1.704117 1_555
Mo0 O17 1.987522 1_655
Mo0 O15 2.018093 1_555
Mo0 O20 2.033627 1_555
Mo0 O1 2.081491 1_555
Mo0 O8 2.097460 1_555
Mo1 O22 1.704117 1_555
Mo1 O18 1.987522 1_455
Mo1 O16 2.018093 1_555
Mo1 O19 2.033627 1_555
Mo1 O0 2.081491 1_555
Mo1 O9 2.097460 1_555
O0 Si0 1.591607 1_565
O1 Si1 1.591607 1_545
O2 Si0 1.630531 1_555
O2 Si7 1.646814 1_555
O3 Si1 1.630531 1_555
O3 Si6 1.646814 1_555
O4 Si4 1.631772 1_555
O4 Si0 1.634147 1_555
O5 Si5 1.631772 1_555
O5 Si1 1.634147 1_555
O6 Si3 1.637121 1_555
O6 Si0 1.637411 1_555
O7 Si2 1.637121 1_555
O7 Si1 1.637411 1_555
O8 Si2 1.588473 1_545
O9 Si3 1.588473 1_565
O10 Si2 1.619566 1_455
O10 Si6 1.636225 1_555
O11 Si3 1.619566 1_655
O11 Si7 1.636225 1_555
O12 Si2 1.635627 1_455
O12 Si5 1.638509 1_555
O13 Si3 1.635627 1_655
O13 Si4 1.638509 1_555
O14 Si5 1.619491 1_555
O14 Si4 1.619491 1_455
O15 Si4 1.577409 1_555
O16 Si5 1.577409 1_555
O17 Si6 1.605902 1_555
O18 Si7 1.605902 1_555
O19 Si6 1.606400 1_554
O20 Si7 1.606400 1_556
