# generated using pymatgen
data_Mn4CoNiS8
_symmetry_space_group_name_H-M   'P 1'
_cell_length_a   6.96572274
_cell_length_b   6.96572284
_cell_length_c   6.96572198
_cell_angle_alpha   59.99999900
_cell_angle_beta   59.99999854
_cell_angle_gamma   59.99999949
_symmetry_Int_Tables_number   1
_chemical_formula_structural   Mn4CoNiS8
_chemical_formula_sum   'Mn4 Co1 Ni1 S8'
_cell_volume   238.99207700
_cell_formula_units_Z   1
loop_
 _symmetry_equiv_pos_site_id
 _symmetry_equiv_pos_as_xyz
  1  'x, y, z'
loop_
 _atom_site_type_symbol
 _atom_site_label
 _atom_site_symmetry_multiplicity
 _atom_site_fract_x
 _atom_site_fract_y
 _atom_site_fract_z
 _atom_site_occupancy
  Mn  Mn0  1  0.62513102  0.62513102  0.12460595  1
  Mn  Mn1  1  0.62513102  0.12460595  0.62513102  1
  Mn  Mn2  1  0.12460595  0.62513102  0.62513102  1
  Mn  Mn3  1  0.62513102  0.62513102  0.62513102  1
  Co  Co0  1  0.25000000  0.25000000  0.25000000  1
  Ni  Ni0  1  0.00000000  0.00000000  0.00000000  1
  S  S0  1  0.87080067  0.87080067  0.38759900  1
  S  S1  1  0.87080067  0.38759900  0.87080067  1
  S  S2  1  0.38759900  0.87080067  0.87080067  1
  S  S3  1  0.87080067  0.87080067  0.87080067  1
  S  S4  1  0.37931069  0.37931069  0.86206792  1
  S  S5  1  0.37931069  0.86206792  0.37931069  1
  S  S6  1  0.86206792  0.37931069  0.37931069  1
  S  S7  1  0.37931069  0.37931069  0.37931069  1
loop_
_geom_bond_atom_site_label_1
_geom_bond_atom_site_label_2
_geom_bond_distance
_geom_bond_site_symmetry_2
Mn0 S1 2.420750 1_554
Mn0 S2 2.420750 1_554
Mn0 S3 2.420760 1_554
Mn0 S7 2.422371 1_555
Mn0 S5 2.422376 1_555
Mn0 S6 2.422376 1_555
Mn1 S0 2.420750 1_545
Mn1 S2 2.420750 1_545
Mn1 S3 2.420760 1_545
Mn1 S7 2.422371 1_555
Mn1 S4 2.422376 1_555
Mn1 S6 2.422376 1_555
Mn2 S0 2.420750 1_455
Mn2 S1 2.420750 1_455
Mn2 S3 2.420760 1_455
Mn2 S7 2.422371 1_555
Mn2 S4 2.422376 1_555
Mn2 S5 2.422376 1_555
Mn3 S1 2.420760 1_555
Mn3 S2 2.420760 1_555
Mn3 S0 2.420760 1_555
Mn3 S5 2.422371 1_555
Mn3 S6 2.422371 1_555
Mn3 S4 2.422371 1_555
Co0 S4 2.206359 1_554
Co0 S7 2.206359 1_555
Co0 S6 2.206359 1_455
Co0 S5 2.206359 1_545
Ni0 S3 2.204459 1_444
Ni0 S0 2.204465 1_445
Ni0 S2 2.204465 1_544
Ni0 S1 2.204465 1_454
