# generated using pymatgen
data_Rb6LuInAs4
_symmetry_space_group_name_H-M   'P 1'
_cell_length_a   9.52850761
_cell_length_b   9.52898321
_cell_length_c   9.52850834
_cell_angle_alpha   128.16573811
_cell_angle_beta   69.37963815
_cell_angle_gamma   137.23697435
_symmetry_Int_Tables_number   1
_chemical_formula_structural   Rb6LuInAs4
_chemical_formula_sum   'Rb6 Lu1 In1 As4'
_cell_volume   453.41711040
_cell_formula_units_Z   1
loop_
 _symmetry_equiv_pos_site_id
 _symmetry_equiv_pos_as_xyz
  1  'x, y, z'
loop_
 _atom_site_type_symbol
 _atom_site_label
 _atom_site_symmetry_multiplicity
 _atom_site_fract_x
 _atom_site_fract_y
 _atom_site_fract_z
 _atom_site_occupancy
  Rb  Rb0  1  0.29728453  0.68234569  0.01135124  1
  Rb  Rb1  1  0.20276453  0.21398453  0.38497050  1
  Rb  Rb2  1  0.75007988  0.25000000  0.50007988  1
  Rb  Rb3  1  0.25001244  0.74999900  0.50001244  1
  Rb  Rb4  1  0.82900655  0.81765231  0.61493784  1
  Rb  Rb5  1  0.67098398  0.28601547  0.98878001  1
  Lu  Lu0  1  0.74996186  0.75000100  0.99996086  1
  In  In0  1  0.24998476  0.25000000  0.99998476  1
  As  As0  1  0.90607908  0.18683182  0.08892967  1
  As  As1  1  0.59386905  0.68279246  0.28066895  1
  As  As2  1  0.40209785  0.31316818  0.71924826  1
  As  As3  1  0.09787549  0.81720654  0.91107560  1
loop_
_geom_bond_atom_site_label_1
_geom_bond_atom_site_label_2
_geom_bond_distance
_geom_bond_site_symmetry_2
Lu0 Rb4 3.834824 1_555
Lu0 Rb0 3.834835 1_556
Lu0 Rb5 3.835950 1_555
Lu0 Rb1 3.835956 1_666
In0 Rb5 3.734088 1_555
In0 Rb1 3.734107 1_556
In0 Rb4 3.734200 1_445
In0 Rb0 3.734204 1_556
As0 In0 2.756233 1_654
As0 Lu0 2.773706 1_544
As0 Rb3 3.481536 1_655
As0 Rb2 3.495356 1_555
As0 Rb4 3.495685 1_544
As0 Rb5 3.542739 1_554
As0 Rb0 3.642151 1_655
As0 Rb0 3.871498 1_545
As1 In0 2.756199 1_554
As1 Lu0 2.773594 1_554
As1 Rb3 3.480932 1_555
As1 Rb2 3.494758 1_565
As1 Rb5 3.494884 1_554
As1 Rb4 3.543477 1_555
As1 Rb1 3.642197 1_555
As1 Rb1 3.872126 1_665
As2 In0 2.756224 1_555
As2 Lu0 2.773711 1_555
As2 Rb3 3.481543 1_545
As2 Rb2 3.495357 1_555
As2 Rb0 3.495675 1_556
As2 Rb1 3.542730 1_555
As2 Rb4 3.642146 1_445
As2 Rb4 3.871498 1_555
As3 In0 2.756198 1_565
As3 Lu0 2.773581 1_455
As3 Rb3 3.480930 1_555
As3 Rb2 3.494751 1_455
As3 Rb1 3.494906 1_566
As3 Rb0 3.543472 1_556
As3 Rb5 3.642191 1_565
As3 Rb5 3.872125 1_455
