# generated using pymatgen
data_Lu5BiPbO12
_symmetry_space_group_name_H-M   'P 1'
_cell_length_a   6.36899027
_cell_length_b   6.43457959
_cell_length_c   6.32749669
_cell_angle_alpha   98.84920905
_cell_angle_beta   99.11498017
_cell_angle_gamma   99.69320841
_symmetry_Int_Tables_number   1
_chemical_formula_structural   Lu5BiPbO12
_chemical_formula_sum   'Lu5 Bi1 Pb1 O12'
_cell_volume   248.00367012
_cell_formula_units_Z   1
loop_
 _symmetry_equiv_pos_site_id
 _symmetry_equiv_pos_as_xyz
  1  'x, y, z'
loop_
 _atom_site_type_symbol
 _atom_site_label
 _atom_site_symmetry_multiplicity
 _atom_site_fract_x
 _atom_site_fract_y
 _atom_site_fract_z
 _atom_site_occupancy
  Lu  Lu0  1  0.85757909  0.38676003  0.68082485  1
  Lu  Lu1  1  0.69161928  0.85939671  0.39461166  1
  Lu  Lu2  1  0.61026695  0.31568677  0.14885290  1
  Lu  Lu3  1  0.13260210  0.60607764  0.31147480  1
  Lu  Lu4  1  0.31415321  0.14103020  0.60723416  1
  Bi  Bi0  1  0.00412921  0.00412937  0.00003628  1
  Pb  Pb0  1  0.39673500  0.67433207  0.85578327  1
  O  O0  1  0.17802272  0.42122520  0.57639372  1
  O  O1  1  0.58380354  0.17121873  0.42871458  1
  O  O2  1  0.42545214  0.59047687  0.17641402  1
  O  O3  1  0.81709541  0.57172267  0.41665588  1
  O  O4  1  0.41305616  0.81873432  0.58000636  1
  O  O5  1  0.57976145  0.41792707  0.82204762  1
  O  O6  1  0.92192166  0.05228662  0.68092327  1
  O  O7  1  0.94424002  0.31698970  0.08056657  1
  O  O8  1  0.31767791  0.10203921  0.95167421  1
  O  O9  1  0.07510235  0.94384457  0.31875288  1
  O  O10  1  0.05702878  0.68490265  0.91827897  1
  O  O11  1  0.67975500  0.92122162  0.05075400  1
loop_
_geom_bond_atom_site_label_1
_geom_bond_atom_site_label_2
_geom_bond_distance
_geom_bond_site_symmetry_2
Lu0 O5 2.129523 1_555
Lu0 O3 2.203592 1_555
Lu0 O0 2.229587 1_655
Lu0 O6 2.257700 1_555
Lu0 O1 2.265466 1_555
Lu0 O10 2.288951 1_655
Lu0 O7 2.625713 1_556
Lu1 O3 2.151000 1_555
Lu1 O6 2.197094 1_565
Lu1 O1 2.218469 1_565
Lu1 O11 2.263234 1_555
Lu1 O4 2.278107 1_555
Lu1 O2 2.304299 1_555
Lu1 O9 2.548676 1_655
Lu2 O1 2.139307 1_555
Lu2 O8 2.189090 1_554
Lu2 O7 2.235508 1_555
Lu2 O3 2.241407 1_555
Lu2 O5 2.254083 1_554
Lu2 O2 2.283276 1_555
Lu2 O11 2.646561 1_545
Lu3 O2 2.181950 1_555
Lu3 O3 2.202073 1_455
Lu3 O0 2.209986 1_555
Lu3 O7 2.211590 1_455
Lu3 O9 2.258855 1_555
Lu3 O4 2.334525 1_555
Lu3 O10 2.601894 1_554
Lu4 O0 2.149746 1_555
Lu4 O1 2.198399 1_555
Lu4 O8 2.228913 1_555
Lu4 O9 2.239701 1_545
Lu4 O4 2.256465 1_545
Lu4 O5 2.322745 1_555
Lu4 O6 2.598975 1_455
Bi0 O8 2.075520 1_554
Bi0 O6 2.087930 1_454
Bi0 O9 2.105398 1_545
Bi0 O7 2.112430 1_455
Bi0 O11 2.132433 1_445
Bi0 O10 2.135825 1_544
O0 Pb0 2.299583 1_555
O2 Pb0 2.166344 1_554
O4 Pb0 2.107818 1_555
O5 Pb0 2.178201 1_555
O10 Pb0 2.270343 1_555
O11 Pb0 2.241216 1_554
