# generated using pymatgen
data_Ba2Zr6CBr17
_symmetry_space_group_name_H-M   'P 1'
_cell_length_a   10.07624071
_cell_length_b   10.07625306
_cell_length_c   10.07623309
_cell_angle_alpha   105.33732826
_cell_angle_beta   118.09861360
_cell_angle_gamma   105.33770369
_symmetry_Int_Tables_number   1
_chemical_formula_structural   Ba2Zr6CBr17
_chemical_formula_sum   'Ba2 Zr6 C1 Br17'
_cell_volume   773.96711101
_cell_formula_units_Z   1
loop_
 _symmetry_equiv_pos_site_id
 _symmetry_equiv_pos_as_xyz
  1  'x, y, z'
loop_
 _atom_site_type_symbol
 _atom_site_label
 _atom_site_symmetry_multiplicity
 _atom_site_fract_x
 _atom_site_fract_y
 _atom_site_fract_z
 _atom_site_occupancy
  Ba  Ba0  1  0.75000100  0.50000100  0.25000100  1
  Ba  Ba1  1  0.24999900  0.50000100  0.74999900  1
  Zr  Zr0  1  0.17571903  0.23824581  0.06252578  1
  Zr  Zr1  1  0.93747222  0.11319225  0.17571803  1
  Zr  Zr2  1  0.22241130  1.00000000  0.22241130  1
  Zr  Zr3  1  0.77758870  0.00000000  0.77758870  1
  Zr  Zr4  1  0.06252678  0.88680775  0.82428097  1
  Zr  Zr5  1  0.82428097  0.76175419  0.93747322  1
  C  C0  1  0.00000000  0.00000000  0.00000000  1
  Br  Br0  1  0.33191537  0.86916278  0.05021255  1
  Br  Br1  1  0.40197400  0.53641431  0.13443930  1
  Br  Br2  1  0.72097142  0.85357880  0.13261038  1
  Br  Br3  1  0.05021155  0.71829618  0.18104977  1
  Br  Br4  1  0.13260938  0.41163797  0.27902858  1
  Br  Br5  1  0.46275359  0.28170482  0.33191637  1
  Br  Br6  1  0.86555770  0.26753170  0.40197400  1
  Br  Br7  1  0.18104977  0.13083722  0.46275359  1
  Br  Br8  1  0.50000000  0.00000000  0.50000000  1
  Br  Br9  1  0.81895123  0.86916278  0.53724741  1
  Br  Br10  1  0.13444130  0.73246830  0.59802600  1
  Br  Br11  1  0.53724741  0.71829618  0.66808563  1
  Br  Br12  1  0.86738962  0.58836003  0.72097042  1
  Br  Br13  1  0.94978845  0.28170482  0.81895023  1
  Br  Br14  1  0.27902958  0.14642020  0.86738862  1
  Br  Br15  1  0.59802500  0.46358469  0.86555970  1
  Br  Br16  1  0.66808463  0.13083722  0.94978745  1
loop_
_geom_bond_atom_site_label_1
_geom_bond_atom_site_label_2
_geom_bond_distance
_geom_bond_site_symmetry_2
Ba0 Br10 3.293681 1_655
Ba0 Br15 3.293682 1_554
Ba0 Br1 3.293686 1_555
Ba0 Br6 3.293698 1_555
Ba0 Br3 3.706715 1_655
Ba0 Br5 3.706727 1_555
Ba0 Br9 3.706735 1_555
Ba0 Br16 3.706755 1_554
Ba1 Br10 3.293682 1_555
Ba1 Br1 3.293683 1_556
Ba1 Br6 3.293688 1_455
Ba1 Br15 3.293693 1_555
Ba1 Br11 3.706714 1_555
Ba1 Br13 3.706719 1_455
Ba1 Br0 3.706740 1_556
Ba1 Br7 3.706751 1_555
C0 Zr5 2.279347 1_444
C0 Zr0 2.279350 1_555
C0 Zr4 2.279351 1_544
C0 Zr1 2.279351 1_455
C0 Zr2 2.305165 1_545
C0 Zr3 2.305165 1_454
Br0 Zr4 2.689015 1_554
Br0 Zr2 2.707215 1_555
Br1 Zr0 2.901348 1_555
Br2 Zr1 2.697807 1_565
Br2 Zr5 2.698336 1_554
Br3 Zr5 2.689016 1_454
Br3 Zr2 2.707221 1_555
Br4 Zr0 2.697803 1_555
Br4 Zr1 2.698331 1_455
Br5 Zr0 2.689022 1_555
Br5 Zr2 2.707225 1_545
Br6 Zr1 2.901361 1_555
Br7 Zr1 2.689031 1_455
Br7 Zr2 2.707222 1_545
Br8 Zr3 2.877046 1_555
Br8 Zr2 2.877046 1_545
Br9 Zr4 2.689010 1_655
Br9 Zr3 2.707221 1_565
Br10 Zr4 2.901354 1_555
Br11 Zr5 2.689006 1_555
Br11 Zr3 2.707219 1_565
Br12 Zr5 2.697806 1_555
Br12 Zr4 2.698348 1_655
Br13 Zr0 2.689017 1_656
Br13 Zr3 2.707229 1_555
Br14 Zr4 2.697810 1_545
Br14 Zr0 2.698347 1_556
Br15 Zr5 2.901359 1_555
Br16 Zr1 2.689005 1_556
Br16 Zr3 2.707215 1_555
