# generated using pymatgen
data_TaBi2Sb5O16
_symmetry_space_group_name_H-M   'P 1'
_cell_length_a   4.88505592
_cell_length_b   5.56658185
_cell_length_c   11.80256050
_cell_angle_alpha   90.00000000
_cell_angle_beta   90.04234875
_cell_angle_gamma   90.00000000
_symmetry_Int_Tables_number   1
_chemical_formula_structural   TaBi2Sb5O16
_chemical_formula_sum   'Ta1 Bi2 Sb5 O16'
_cell_volume   320.94769107
_cell_formula_units_Z   1
loop_
 _symmetry_equiv_pos_site_id
 _symmetry_equiv_pos_as_xyz
  1  'x, y, z'
loop_
 _atom_site_type_symbol
 _atom_site_label
 _atom_site_symmetry_multiplicity
 _atom_site_fract_x
 _atom_site_fract_y
 _atom_site_fract_z
 _atom_site_occupancy
  Ta  Ta0  1  0.75000000  0.12046424  0.25000000  1
  Bi  Bi0  1  0.74420705  0.75166476  0.49941910  1
  Bi  Bi1  1  0.75579295  0.75166476  0.00058090  1
  Sb  Sb0  1  0.25000000  0.88731207  0.75000000  1
  Sb  Sb1  1  0.29828190  0.24938202  0.50086292  1
  Sb  Sb2  1  0.75000000  0.38189744  0.75000000  1
  Sb  Sb3  1  0.20171810  0.24938202  0.99913708  1
  Sb  Sb4  1  0.25000000  0.61512520  0.25000000  1
  O  O0  1  0.41533006  0.57715050  0.40493568  1
  O  O1  1  0.50469642  0.64090345  0.81031727  1
  O  O2  1  0.00123685  0.13957908  0.68940324  1
  O  O3  1  0.91744928  0.08835584  0.09629079  1
  O  O4  1  0.00386412  0.35794993  0.30381363  1
  O  O5  1  0.58255072  0.08835584  0.40370921  1
  O  O6  1  0.08466994  0.57715050  0.09506432  1
  O  O7  1  0.50481597  0.85471020  0.19079995  1
  O  O8  1  0.41423748  0.92433728  0.59652662  1
  O  O9  1  0.99518403  0.85471020  0.30920005  1
  O  O10  1  0.49613588  0.35794993  0.19618637  1
  O  O11  1  0.08576252  0.92433728  0.90347338  1
  O  O12  1  0.91494692  0.41356697  0.90384027  1
  O  O13  1  0.49876315  0.13957908  0.81059676  1
  O  O14  1  0.99530358  0.64090345  0.68968273  1
  O  O15  1  0.58505308  0.41356697  0.59615973  1
loop_
_geom_bond_atom_site_label_1
_geom_bond_atom_site_label_2
_geom_bond_distance
_geom_bond_site_symmetry_2
Bi0 O0 2.183053 1_555
Bi0 O8 2.199659 1_555
Bi0 O5 2.326166 1_565
Bi0 O15 2.334859 1_555
Bi0 O9 2.622329 1_555
Bi0 O14 2.631233 1_555
Bi1 O6 2.183053 1_655
Bi1 O11 2.199659 1_654
Bi1 O3 2.326166 1_565
Bi1 O12 2.334859 1_554
Bi1 O7 2.622329 1_555
Bi1 O1 2.631233 1_554
O0 Sb4 2.009654 1_555
O0 Sb1 2.222325 1_555
O1 Sb0 1.983677 1_555
O1 Sb2 2.005682 1_555
O2 Sb2 1.959228 1_455
O2 Sb0 1.989710 1_545
O3 Ta0 1.998611 1_555
O3 Sb3 2.012228 1_654
O4 Ta0 1.920371 1_455
O4 Sb4 1.974768 1_555
O5 Ta0 1.998611 1_555
O5 Sb1 2.012228 1_555
O6 Sb4 2.009654 1_555
O6 Sb3 2.222325 1_554
O7 Sb4 1.953884 1_555
O7 Ta0 2.027311 1_565
O8 Sb0 1.992341 1_555
O8 Sb1 2.206495 1_565
O9 Sb4 1.953884 1_655
O9 Ta0 2.027311 1_565
O10 Ta0 1.920371 1_555
O10 Sb4 1.974768 1_555
O11 Sb0 1.992341 1_555
O11 Sb3 2.206495 1_565
O12 Sb2 1.993737 1_555
O12 Sb3 2.015076 1_655
O13 Sb2 1.959228 1_555
O13 Sb0 1.989710 1_545
O14 Sb0 1.983677 1_655
O14 Sb2 2.005682 1_555
O15 Sb2 1.993737 1_555
O15 Sb1 2.015076 1_555
