# generated using pymatgen
data_Sr6NbRh4O15
_symmetry_space_group_name_H-M   'P 1'
_cell_length_a   7.10876823
_cell_length_b   7.10876807
_cell_length_c   7.10877022
_cell_angle_alpha   85.55244359
_cell_angle_beta   85.55245300
_cell_angle_gamma   85.55245387
_symmetry_Int_Tables_number   1
_chemical_formula_structural   Sr6NbRh4O15
_chemical_formula_sum   'Sr6 Nb1 Rh4 O15'
_cell_volume   356.15261709
_cell_formula_units_Z   1
loop_
 _symmetry_equiv_pos_site_id
 _symmetry_equiv_pos_as_xyz
  1  'x, y, z'
loop_
 _atom_site_type_symbol
 _atom_site_label
 _atom_site_symmetry_multiplicity
 _atom_site_fract_x
 _atom_site_fract_y
 _atom_site_fract_z
 _atom_site_occupancy
  Sr  Sr0  1  0.32203419  0.67796398  0.00000222  1
  Sr  Sr1  1  0.67796393  0.00000240  0.32203406  1
  Sr  Sr2  1  0.00000248  0.32203420  0.67796399  1
  Sr  Sr3  1  0.13297367  0.86702663  0.49999743  1
  Sr  Sr4  1  0.86702661  0.49999753  0.13297361  1
  Sr  Sr5  1  0.49999742  0.13297396  0.86702657  1
  Nb  Nb0  1  0.49999274  0.49999241  0.49999301  1
  Rh  Rh0  1  0.90349460  0.90349447  0.90349445  1
  Rh  Rh1  1  0.09651352  0.09651284  0.09651371  1
  Rh  Rh2  1  0.70319997  0.70320016  0.70319982  1
  Rh  Rh3  1  0.29679863  0.29679845  0.29679880  1
  O  O0  1  0.25083272  0.56580526  0.37981049  1
  O  O1  1  0.37981102  0.25083324  0.56580525  1
  O  O2  1  0.56580495  0.37981101  0.25083279  1
  O  O3  1  0.74916838  0.62018889  0.43418726  1
  O  O4  1  0.43418723  0.74916868  0.62018884  1
  O  O5  1  0.62018864  0.43418784  0.74916841  1
  O  O6  1  0.00000419  0.83594547  0.16405997  1
  O  O7  1  0.16406037  0.00000416  0.83594612  1
  O  O8  1  0.83594603  0.16406004  0.00000443  1
  O  O9  1  0.35136126  0.02630243  0.20702651  1
  O  O10  1  0.20702604  0.35136094  0.02630275  1
  O  O11  1  0.79297285  0.97369891  0.64863711  1
  O  O12  1  0.97369870  0.64863726  0.79297243  1
  O  O13  1  0.64863722  0.79297292  0.97369862  1
  O  O14  1  0.02630264  0.20702594  0.35136135  1
loop_
_geom_bond_atom_site_label_1
_geom_bond_atom_site_label_2
_geom_bond_distance
_geom_bond_site_symmetry_2
Nb0 O1 2.032281 1_555
Nb0 O2 2.032287 1_555
Nb0 O0 2.032290 1_555
Nb0 O5 2.032424 1_555
Nb0 O3 2.032428 1_555
Nb0 O4 2.032430 1_555
O0 Rh3 2.039638 1_555
O0 Sr3 2.431384 1_555
O0 Sr0 2.774617 1_555
O0 Sr2 3.161986 1_555
O1 Rh3 2.039637 1_555
O1 Sr5 2.431383 1_555
O1 Sr2 2.774618 1_555
O1 Sr1 3.161986 1_555
O2 Rh3 2.039637 1_555
O2 Sr4 2.431385 1_555
O2 Sr1 2.774619 1_555
O2 Sr0 3.161984 1_555
O3 Rh2 2.039677 1_555
O3 Sr4 2.431347 1_555
O3 Sr1 2.774645 1_565
O3 Sr2 3.162028 1_655
O4 Rh2 2.039677 1_555
O4 Sr3 2.431346 1_555
O4 Sr0 2.774645 1_556
O4 Sr1 3.162026 1_565
O5 Rh2 2.039675 1_555
O5 Sr5 2.431347 1_555
O5 Sr2 2.774648 1_655
O5 Sr0 3.162024 1_556
O6 Rh0 2.034781 1_454
O6 Rh1 2.034789 1_565
O6 Sr3 2.666397 1_555
O6 Sr4 2.666497 1_455
O6 Sr0 2.693014 1_555
O6 Sr1 2.693048 1_465
O7 Rh0 2.034782 1_445
O7 Rh1 2.034790 1_556
O7 Sr5 2.666393 1_555
O7 Sr3 2.666503 1_545
O7 Sr2 2.693016 1_555
O7 Sr0 2.693044 1_546
O8 Rh0 2.034781 1_544
O8 Rh1 2.034791 1_655
O8 Sr4 2.666395 1_555
O8 Sr5 2.666502 1_554
O8 Sr1 2.693013 1_555
O8 Sr2 2.693048 1_654
O9 Rh1 2.041585 1_555
O9 Rh3 2.071589 1_555
O9 Sr1 2.509425 1_555
O9 Sr5 2.641439 1_554
O9 Sr3 2.726734 1_545
O9 Sr0 3.005667 1_545
O10 Rh1 2.041587 1_555
O10 Rh3 2.071591 1_555
O10 Sr0 2.509429 1_555
O10 Sr4 2.641435 1_455
O10 Sr5 2.726735 1_554
O10 Sr2 3.005666 1_554
O11 Rh0 2.041668 1_555
O11 Rh2 2.071609 1_555
O11 Sr1 2.509432 1_565
O11 Sr3 2.641454 1_655
O11 Sr5 2.726761 1_565
O11 Sr2 3.005668 1_665
O12 Rh0 2.041667 1_555
O12 Rh2 2.071608 1_555
O12 Sr2 2.509430 1_655
O12 Sr4 2.641456 1_556
O12 Sr3 2.726758 1_655
O12 Sr0 3.005670 1_656
O13 Rh0 2.041667 1_555
O13 Rh2 2.071610 1_555
O13 Sr0 2.509431 1_556
O13 Sr5 2.641455 1_565
O13 Sr4 2.726760 1_556
O13 Sr1 3.005669 1_566
O14 Rh1 2.041586 1_555
O14 Rh3 2.071590 1_555
O14 Sr2 2.509428 1_555
O14 Sr3 2.641433 1_545
O14 Sr4 2.726738 1_455
O14 Sr1 3.005665 1_455
