# generated using pymatgen
data_KBaPd4
_symmetry_space_group_name_H-M   'P 1'
_cell_length_a   5.62396488
_cell_length_b   5.62396517
_cell_length_c   5.62396481
_cell_angle_alpha   60.00000211
_cell_angle_beta   60.00000041
_cell_angle_gamma   60.00000527
_symmetry_Int_Tables_number   1
_chemical_formula_structural   KBaPd4
_chemical_formula_sum   'K1 Ba1 Pd4'
_cell_volume   125.78036328
_cell_formula_units_Z   1
loop_
 _symmetry_equiv_pos_site_id
 _symmetry_equiv_pos_as_xyz
  1  'x, y, z'
loop_
 _atom_site_type_symbol
 _atom_site_label
 _atom_site_symmetry_multiplicity
 _atom_site_fract_x
 _atom_site_fract_y
 _atom_site_fract_z
 _atom_site_occupancy
  K  K0  1  0.50000000  0.50000000  0.50000000  1
  Ba  Ba0  1  0.75000000  0.75000000  0.75000000  1
  Pd  Pd0  1  0.12522909  0.12522909  0.12522909  1
  Pd  Pd1  1  0.62431374  0.12522909  0.12522909  1
  Pd  Pd2  1  0.12522909  0.62431374  0.12522909  1
  Pd  Pd3  1  0.12522909  0.12522909  0.62431374  1
loop_
_geom_bond_atom_site_label_1
_geom_bond_atom_site_label_2
_geom_bond_distance
_geom_bond_site_symmetry_2
K0 Pd2 3.296791 1_555
K0 Pd3 3.296791 1_555
K0 Pd1 3.296791 1_555
K0 Pd0 3.296794 1_556
K0 Pd0 3.296794 1_655
K0 Pd0 3.296794 1_565
K0 Pd2 3.296796 1_655
K0 Pd2 3.296796 1_556
K0 Pd1 3.296796 1_556
K0 Pd1 3.296796 1_565
K0 Pd3 3.296796 1_655
K0 Pd3 3.296796 1_565
Ba0 Pd2 3.297890 1_556
Ba0 Pd2 3.297890 1_655
Ba0 Pd1 3.297890 1_565
Ba0 Pd1 3.297890 1_556
Ba0 Pd3 3.297890 1_565
Ba0 Pd3 3.297890 1_655
Ba0 Pd0 3.297893 1_665
Ba0 Pd0 3.297893 1_566
Ba0 Pd0 3.297893 1_656
Ba0 Pd2 3.297895 1_656
Ba0 Pd3 3.297895 1_665
Ba0 Pd1 3.297895 1_566
Ba0 K0 3.443961 1_555
Ba0 K0 3.443961 1_556
Ba0 K0 3.443961 1_655
Ba0 K0 3.443961 1_565
Pd0 Pd3 2.806835 1_555
Pd0 Pd1 2.806835 1_555
Pd0 Pd2 2.806835 1_555
Pd0 Pd3 2.817130 1_554
Pd0 Pd1 2.817130 1_455
Pd0 Pd2 2.817130 1_545
Pd1 Pd3 2.806835 1_555
Pd1 Pd2 2.806835 1_555
Pd1 Pd3 2.817130 1_654
Pd1 Pd2 2.817131 1_645
Pd2 Pd3 2.806835 1_555
Pd2 Pd3 2.817130 1_564
