# generated using pymatgen
data_Hf6Au2CN
_symmetry_space_group_name_H-M   'P 1'
_cell_length_a   5.95181179
_cell_length_b   5.95181098
_cell_length_c   8.92643576
_cell_angle_alpha   90.10473562
_cell_angle_beta   89.89526415
_cell_angle_gamma   147.51050805
_symmetry_Int_Tables_number   1
_chemical_formula_structural   Hf6Au2CN
_chemical_formula_sum   'Hf6 Au2 C1 N1'
_cell_volume   169.85060196
_cell_formula_units_Z   1
loop_
 _symmetry_equiv_pos_site_id
 _symmetry_equiv_pos_as_xyz
  1  'x, y, z'
loop_
 _atom_site_type_symbol
 _atom_site_label
 _atom_site_symmetry_multiplicity
 _atom_site_fract_x
 _atom_site_fract_y
 _atom_site_fract_z
 _atom_site_occupancy
  Hf  Hf0  1  0.62841146  0.37158854  0.44864671  1
  Hf  Hf1  1  0.37158854  0.62841146  0.55135329  1
  Hf  Hf2  1  0.62614627  0.37385373  0.04706636  1
  Hf  Hf3  1  0.37385373  0.62614627  0.95293364  1
  Hf  Hf4  1  0.95320959  0.04679041  0.25081384  1
  Hf  Hf5  1  0.04679041  0.95320959  0.74918616  1
  Au  Au0  1  0.24989256  0.75010744  0.24711276  1
  Au  Au1  1  0.75010744  0.24989256  0.75288724  1
  C  C0  1  0.00000000  0.00000000  0.50000000  1
  N  N0  1  0.00000000  0.00000000  0.00000000  1
loop_
_geom_bond_atom_site_label_1
_geom_bond_atom_site_label_2
_geom_bond_distance
_geom_bond_site_symmetry_2
Hf2 N0 2.242605 1_665
Hf2 N0 2.242605 1_555
Hf3 N0 2.242605 1_556
Hf3 N0 2.242605 1_666
Hf4 N0 2.300857 1_655
Hf5 N0 2.300857 1_566
Au0 Hf0 2.815385 1_565
Au0 Hf0 2.815385 1_455
Au0 Hf2 2.823202 1_565
Au0 Hf2 2.823203 1_455
Au0 Hf4 2.858764 1_455
Au0 Hf4 2.858765 1_565
Au0 Hf3 2.981363 1_554
Au0 Hf1 3.053548 1_555
Au1 Hf1 2.815385 1_545
Au1 Hf1 2.815385 1_655
Au1 Hf3 2.823202 1_545
Au1 Hf3 2.823203 1_655
Au1 Hf5 2.858764 1_655
Au1 Hf5 2.858765 1_545
Au1 Hf2 2.981363 1_556
Au1 Hf0 3.053548 1_555
C0 Hf1 2.265687 1_555
C0 Hf0 2.265687 1_445
C0 Hf0 2.265687 1_555
C0 Hf1 2.265687 1_445
C0 Hf5 2.288707 1_545
C0 Hf4 2.288707 1_455
