# generated using pymatgen
data_Be4Mo6Ir2C
_symmetry_space_group_name_H-M   'P 1'
_cell_length_a   7.67259788
_cell_length_b   7.67259752
_cell_length_c   7.67259647
_cell_angle_alpha   59.99999174
_cell_angle_beta   59.99999329
_cell_angle_gamma   59.99999643
_symmetry_Int_Tables_number   1
_chemical_formula_structural   Be4Mo6Ir2C
_chemical_formula_sum   'Be8 Mo12 Ir4 C2'
_cell_volume   319.38326277
_cell_formula_units_Z   2
loop_
 _symmetry_equiv_pos_site_id
 _symmetry_equiv_pos_as_xyz
  1  'x, y, z'
loop_
 _atom_site_type_symbol
 _atom_site_label
 _atom_site_symmetry_multiplicity
 _atom_site_fract_x
 _atom_site_fract_y
 _atom_site_fract_z
 _atom_site_occupancy
  Be  Be0  1  0.33197053  0.33197053  0.00408641  1
  Be  Be1  1  0.33197053  0.33197053  0.33197053  1
  Be  Be2  1  0.24591359  0.91802947  0.91802947  1
  Be  Be3  1  0.91802947  0.91802947  0.91802947  1
  Be  Be4  1  0.00408641  0.33197053  0.33197053  1
  Be  Be5  1  0.33197053  0.00408641  0.33197053  1
  Be  Be6  1  0.91802947  0.91802947  0.24591359  1
  Be  Be7  1  0.91802947  0.24591359  0.91802947  1
  Mo  Mo0  1  0.30382926  0.69617074  0.69617074  1
  Mo  Mo1  1  0.69617074  0.69617074  0.30382926  1
  Mo  Mo2  1  0.69617074  0.30382926  0.69617074  1
  Mo  Mo3  1  0.30382926  0.69617074  0.30382926  1
  Mo  Mo4  1  0.55382926  0.94617074  0.55382926  1
  Mo  Mo5  1  0.55382926  0.94617074  0.94617074  1
  Mo  Mo6  1  0.94617074  0.55382926  0.55382926  1
  Mo  Mo7  1  0.94617074  0.55382926  0.94617074  1
  Mo  Mo8  1  0.30382926  0.30382926  0.69617074  1
  Mo  Mo9  1  0.55382926  0.55382926  0.94617074  1
  Mo  Mo10  1  0.94617074  0.94617074  0.55382926  1
  Mo  Mo11  1  0.69617074  0.30382926  0.30382926  1
  Ir  Ir0  1  0.12500000  0.62500000  0.12500000  1
  Ir  Ir1  1  0.12500000  0.12500000  0.62500000  1
  Ir  Ir2  1  0.62500000  0.12500000  0.12500000  1
  Ir  Ir3  1  0.12500000  0.12500000  0.12500000  1
  C  C0  1  0.50000000  0.50000000  0.50000000  1
  C  C1  1  0.75000000  0.75000000  0.75000000  1
loop_
_geom_bond_atom_site_label_1
_geom_bond_atom_site_label_2
_geom_bond_distance
_geom_bond_site_symmetry_2
Be0 Ir3 2.340826 1_555
Be0 Ir0 2.340839 1_555
Be0 Ir2 2.340839 1_555
Be0 Mo8 2.596447 1_554
Be0 Mo0 2.596456 1_554
Be0 Mo2 2.596456 1_554
Be0 Mo5 2.716129 1_544
Be0 Mo7 2.716129 1_454
Be0 Mo9 2.716142 1_554
Be1 Ir1 2.340830 1_555
Be1 Ir0 2.340830 1_555
Be1 Ir2 2.340830 1_555
Be1 Mo8 2.596462 1_555
Be1 Mo3 2.596463 1_555
Be1 Mo11 2.596463 1_555
Be1 Mo9 2.716134 1_554
Be1 Mo4 2.716135 1_545
Be1 Mo6 2.716135 1_455
Be2 Ir3 2.340826 1_566
Be2 Ir1 2.340839 1_565
Be2 Ir0 2.340839 1_556
Be2 Mo5 2.596448 1_555
Be2 Mo4 2.596456 1_555
Be2 Mo9 2.596456 1_555
Be2 Mo3 2.716128 1_556
Be2 Mo8 2.716129 1_565
Be2 Mo0 2.716142 1_555
Be3 Ir1 2.340830 1_665
Be3 Ir0 2.340830 1_656
Be3 Ir2 2.340830 1_566
Be3 Mo10 2.596462 1_555
Be3 Mo7 2.596463 1_555
Be3 Mo5 2.596463 1_555
Be3 Mo1 2.716134 1_556
Be3 Mo2 2.716135 1_565
Be3 Mo0 2.716135 1_655
Be4 Ir3 2.340826 1_555
Be4 Ir1 2.340839 1_555
Be4 Ir0 2.340839 1_555
Be4 Mo11 2.596448 1_455
Be4 Mo2 2.596456 1_455
Be4 Mo1 2.596456 1_455
Be4 Mo7 2.716128 1_454
Be4 Mo10 2.716129 1_445
Be4 Mo6 2.716142 1_455
Be5 Ir3 2.340826 1_555
Be5 Ir1 2.340839 1_555
Be5 Ir2 2.340839 1_555
Be5 Mo3 2.596447 1_545
Be5 Mo0 2.596456 1_545
Be5 Mo1 2.596456 1_545
Be5 Mo5 2.716128 1_544
Be5 Mo10 2.716129 1_445
Be5 Mo4 2.716142 1_545
Be6 Ir3 2.340826 1_665
Be6 Ir0 2.340839 1_655
Be6 Ir2 2.340839 1_565
Be6 Mo10 2.596447 1_555
Be6 Mo6 2.596456 1_555
Be6 Mo4 2.596456 1_555
Be6 Mo11 2.716129 1_565
Be6 Mo3 2.716129 1_655
Be6 Mo1 2.716142 1_555
Be7 Ir3 2.340826 1_656
Be7 Ir1 2.340839 1_655
Be7 Ir2 2.340839 1_556
Be7 Mo7 2.596447 1_555
Be7 Mo6 2.596456 1_555
Be7 Mo9 2.596456 1_555
Be7 Mo11 2.716128 1_556
Be7 Mo8 2.716129 1_655
Be7 Mo2 2.716142 1_555
C0 Mo0 2.128588 1_555
C0 Mo2 2.128588 1_555
C0 Mo11 2.128588 1_555
C0 Mo3 2.128588 1_555
C0 Mo1 2.128588 1_555
C0 Mo8 2.128588 1_555
C1 Mo5 2.128588 1_555
C1 Mo7 2.128588 1_555
C1 Mo6 2.128588 1_555
C1 Mo4 2.128588 1_555
C1 Mo10 2.128588 1_555
C1 Mo9 2.128588 1_555
