# generated using pymatgen
data_Na2RuO3
_symmetry_space_group_name_H-M   'P 1'
_cell_length_a   5.41389140
_cell_length_b   5.41389178
_cell_length_c   5.56502690
_cell_angle_alpha   80.74805128
_cell_angle_beta   80.74805939
_cell_angle_gamma   120.70560125
_symmetry_Int_Tables_number   1
_chemical_formula_structural   Na2RuO3
_chemical_formula_sum   'Na4 Ru2 O6'
_cell_volume   132.62974517
_cell_formula_units_Z   2
loop_
 _symmetry_equiv_pos_site_id
 _symmetry_equiv_pos_as_xyz
  1  'x, y, z'
loop_
 _atom_site_type_symbol
 _atom_site_label
 _atom_site_symmetry_multiplicity
 _atom_site_fract_x
 _atom_site_fract_y
 _atom_site_fract_z
 _atom_site_occupancy
  Na  Na0  1  0.65901183  0.34098803  0.49999993  1
  Na  Na1  1  0.34098817  0.65901197  0.50000007  1
  Na  Na2  1  -0.00000000  -0.00000000  0.50000000  1
  Na  Na3  1  0.50000000  0.50000000  0.00000000  1
  Ru  Ru0  1  0.16515391  0.83484682  -0.00000004  1
  Ru  Ru1  1  0.83484609  0.16515318  0.00000004  1
  O  O0  1  0.41856728  0.05752192  0.20605797  1
  O  O1  1  0.05752209  0.41856732  0.20605809  1
  O  O2  1  0.79304303  0.79304304  0.21171035  1
  O  O3  1  0.58143272  0.94247808  0.79394203  1
  O  O4  1  0.20695697  0.20695696  0.78828965  1
  O  O5  1  0.94247791  0.58143268  0.79394191  1
loop_
_geom_bond_atom_site_label_1
_geom_bond_atom_site_label_2
_geom_bond_distance
_geom_bond_site_symmetry_2
Na0 O3 2.286008 1_545
Na0 O1 2.286008 1_655
Na0 O4 2.374779 1_555
Na0 O2 2.374779 1_555
Na0 O0 2.485410 1_555
Na0 O5 2.485410 1_555
Na1 O0 2.286008 1_565
Na1 O5 2.286008 1_455
Na1 O2 2.374779 1_555
Na1 O4 2.374779 1_555
Na1 O3 2.485410 1_555
Na1 O1 2.485410 1_555
Na2 O4 2.226801 1_555
Na2 O2 2.226801 1_445
Na2 O5 2.414844 1_445
Na2 O1 2.414844 1_555
Na2 O3 2.414845 1_445
Na2 O0 2.414845 1_555
Na3 O2 2.248036 1_555
Na3 O4 2.248036 1_554
Na3 O1 2.263506 1_555
Na3 O5 2.263506 1_554
Na3 O3 2.263506 1_554
Na3 O0 2.263506 1_555
O0 Ru0 1.977838 1_545
O0 Ru1 2.084853 1_555
O1 Ru1 1.977842 1_455
O1 Ru0 2.084855 1_555
O2 Ru1 2.045291 1_565
O2 Ru0 2.045292 1_655
O3 Ru1 1.977838 1_566
O3 Ru0 2.084853 1_556
O4 Ru0 2.045291 1_546
O4 Ru1 2.045292 1_456
O5 Ru0 1.977842 1_656
O5 Ru1 2.084855 1_556
