# generated using pymatgen
data_Li2MnBr4
_symmetry_space_group_name_H-M   'P 1'
_cell_length_a   6.05027000
_cell_length_b   6.05027000
_cell_length_c   8.16240400
_cell_angle_alpha   90.00000000
_cell_angle_beta   90.00000000
_cell_angle_gamma   90.00000000
_symmetry_Int_Tables_number   1
_chemical_formula_structural   Li2MnBr4
_chemical_formula_sum   'Li8 Mn4 Br16'
_cell_volume   298.79105958
_cell_formula_units_Z   4
loop_
 _symmetry_equiv_pos_site_id
 _symmetry_equiv_pos_as_xyz
  1  'x, y, z'
loop_
 _atom_site_type_symbol
 _atom_site_label
 _atom_site_symmetry_multiplicity
 _atom_site_fract_x
 _atom_site_fract_y
 _atom_site_fract_z
 _atom_site_occupancy
  Li  Li0  1  0.00000000  0.75163100  0.50000000  1
  Li  Li1  1  0.75071000  0.00000000  0.75000000  1
  Li  Li2  1  0.00000000  0.24836900  0.00000000  1
  Li  Li3  1  0.24836900  0.00000000  0.75000000  1
  Li  Li4  1  0.24929000  0.00000000  0.25000000  1
  Li  Li5  1  0.75163100  0.00000000  0.25000000  1
  Li  Li6  1  0.00000000  0.24929000  0.50000000  1
  Li  Li7  1  0.00000000  0.75071000  0.00000000  1
  Mn  Mn0  1  0.25624500  0.50000000  0.25000000  1
  Mn  Mn1  1  0.50000000  0.25624500  0.50000000  1
  Mn  Mn2  1  0.74375500  0.50000000  0.75000000  1
  Mn  Mn3  1  0.50000000  0.74375500  0.00000000  1
  Br  Br0  1  0.74747500  0.01052900  0.99742100  1
  Br  Br1  1  0.98947100  0.74747500  0.24742100  1
  Br  Br2  1  0.98947100  0.25252500  0.25257900  1
  Br  Br3  1  0.25252500  0.01052900  0.00257900  1
  Br  Br4  1  0.25252500  0.98947100  0.49742100  1
  Br  Br5  1  0.25005400  0.51240700  0.52265800  1
  Br  Br6  1  0.51240700  0.74994600  0.27265800  1
  Br  Br7  1  0.51240700  0.25005400  0.22734200  1
  Br  Br8  1  0.48759300  0.25005400  0.77265800  1
  Br  Br9  1  0.48759300  0.74994600  0.72734200  1
  Br  Br10  1  0.74994600  0.51240700  0.47734200  1
  Br  Br11  1  0.74747500  0.98947100  0.50257900  1
  Br  Br12  1  0.74994600  0.48759300  0.02265800  1
  Br  Br13  1  0.01052900  0.25252500  0.74742100  1
  Br  Br14  1  0.01052900  0.74747500  0.75257900  1
  Br  Br15  1  0.25005400  0.48759300  0.97734200  1
loop_
_geom_bond_atom_site_label_1
_geom_bond_atom_site_label_2
_geom_bond_distance
_geom_bond_site_symmetry_2
Br0 Li1 2.020649 1_555
Br0 Li5 2.062789 1_556
Br0 Li2 2.098919 1_656
Br0 Li7 2.192227 1_646
Br0 Mn3 2.201703 1_546
Br1 Li7 2.020649 1_655
Br1 Li0 2.062789 1_655
Br1 Li5 2.098919 1_565
Br1 Li4 2.192227 1_665
Br1 Mn0 2.201703 1_655
Br2 Li6 2.020649 1_655
Br2 Li2 2.062789 1_655
Br2 Li5 2.098919 1_555
Br2 Li4 2.192227 1_655
Br2 Mn0 2.201703 1_655
Br3 Li4 2.020649 1_555
Br3 Li3 2.062789 1_554
Br3 Li2 2.098919 1_555
Br3 Li7 2.192227 1_545
Br3 Mn3 2.201703 1_545
Br4 Li4 2.020649 1_565
Br4 Li3 2.062789 1_565
Br4 Li0 2.098919 1_555
Br4 Li6 2.192227 1_565
Br4 Mn1 2.201703 1_565
Br5 Li0 2.101888 1_555
Br5 Mn1 2.173272 1_555
Br5 Li6 2.203926 1_555
Br5 Mn0 2.227125 1_555
Br6 Li5 2.101888 1_565
Br6 Mn0 2.173272 1_555
Br6 Li4 2.203926 1_565
Br6 Mn3 2.227125 1_555
Br7 Li5 2.101888 1_555
Br7 Mn0 2.173272 1_555
Br7 Li4 2.203926 1_555
Br7 Mn1 2.227125 1_555
Br8 Li3 2.101888 1_555
Br8 Mn2 2.173272 1_555
Br8 Li1 2.203926 1_555
Br8 Mn1 2.227125 1_555
Br9 Li3 2.101888 1_565
Br9 Mn2 2.173272 1_555
Br9 Li1 2.203926 1_565
Br9 Mn3 2.227125 1_556
Br10 Li0 2.101888 1_655
Br10 Mn1 2.173272 1_555
Br10 Li6 2.203926 1_655
Br10 Mn2 2.227125 1_555
Br11 Li1 2.020649 1_565
Br11 Li5 2.062789 1_565
Br11 Li0 2.098919 1_655
Br11 Li6 2.192227 1_665
Br11 Mn1 2.201703 1_565
Br12 Li2 2.101888 1_655
Br12 Mn3 2.173272 1_555
Br12 Li7 2.203926 1_655
Br12 Mn2 2.227125 1_554
Br13 Li6 2.020649 1_555
Br13 Li2 2.062789 1_556
Br13 Li3 2.098919 1_555
Br13 Li1 2.192227 1_455
Br13 Mn2 2.201703 1_455
Br14 Li7 2.020649 1_556
Br14 Li0 2.062789 1_555
Br14 Li3 2.098919 1_565
Br14 Li1 2.192227 1_465
Br14 Mn2 2.201703 1_455
Br15 Li2 2.101888 1_556
Br15 Mn3 2.173272 1_556
Br15 Li7 2.203926 1_556
Br15 Mn0 2.227125 1_556
