# generated using pymatgen
data_Dy2Ti2O7
_symmetry_space_group_name_H-M   'P 1'
_cell_length_a   7.13786728
_cell_length_b   7.13786728
_cell_length_c   7.13786728
_cell_angle_alpha   60.00000000
_cell_angle_beta   60.00000000
_cell_angle_gamma   60.00000000
_symmetry_Int_Tables_number   1
_chemical_formula_structural   Dy2Ti2O7
_chemical_formula_sum   'Dy4 Ti4 O14'
_cell_volume   257.15229731
_cell_formula_units_Z   2
loop_
 _symmetry_equiv_pos_site_id
 _symmetry_equiv_pos_as_xyz
  1  'x, y, z'
loop_
 _atom_site_type_symbol
 _atom_site_label
 _atom_site_symmetry_multiplicity
 _atom_site_fract_x
 _atom_site_fract_y
 _atom_site_fract_z
 _atom_site_occupancy
  Dy  Dy0  1  0.12500000  0.62500000  0.12500000  1
  Dy  Dy1  1  0.62500000  0.12500000  0.12500000  1
  Dy  Dy2  1  0.12500000  0.12500000  0.62500000  1
  Dy  Dy3  1  0.12500000  0.12500000  0.12500000  1
  Ti  Ti0  1  0.62500000  0.62500000  0.62500000  1
  Ti  Ti1  1  0.12500000  0.62500000  0.62500000  1
  Ti  Ti2  1  0.62500000  0.62500000  0.12500000  1
  Ti  Ti3  1  0.62500000  0.12500000  0.62500000  1
  O  O0  1  0.54483343  0.54483343  0.95516657  1
  O  O1  1  0.29483343  0.29483343  0.70516657  1
  O  O2  1  0.95516657  0.54483343  0.54483343  1
  O  O3  1  0.70516657  0.29483343  0.29483343  1
  O  O4  1  0.54483343  0.95516657  0.54483343  1
  O  O5  1  0.70516657  0.29483343  0.70516657  1
  O  O6  1  0.95516657  0.54483343  0.95516657  1
  O  O7  1  0.25000000  0.25000000  0.25000000  1
  O  O8  1  0.95516657  0.95516657  0.54483343  1
  O  O9  1  0.54483343  0.95516657  0.95516657  1
  O  O10  1  0.29483343  0.70516657  0.29483343  1
  O  O11  1  -0.00000000  -0.00000000  -0.00000000  1
  O  O12  1  0.70516657  0.70516657  0.29483343  1
  O  O13  1  0.29483343  0.70516657  0.70516657  1
loop_
_geom_bond_atom_site_label_1
_geom_bond_atom_site_label_2
_geom_bond_distance
_geom_bond_site_symmetry_2
Dy0 O11 2.185517 1_565
Dy0 O7 2.185517 1_555
Dy0 O2 2.474553 1_455
Dy0 O0 2.474553 1_554
Dy0 O13 2.474553 1_554
Dy0 O6 2.474553 1_454
Dy0 O12 2.474553 1_455
Dy0 O10 2.474553 1_555
Dy1 O11 2.185517 1_655
Dy1 O7 2.185517 1_555
Dy1 O5 2.474553 1_554
Dy1 O4 2.474553 1_545
Dy1 O0 2.474553 1_554
Dy1 O12 2.474553 1_545
Dy1 O9 2.474553 1_544
Dy1 O3 2.474553 1_555
Dy2 O7 2.185517 1_555
Dy2 O11 2.185517 1_556
Dy2 O2 2.474553 1_455
Dy2 O4 2.474553 1_545
Dy2 O8 2.474553 1_445
Dy2 O5 2.474553 1_455
Dy2 O13 2.474553 1_545
Dy2 O1 2.474553 1_555
Dy3 O7 2.185517 1_555
Dy3 O11 2.185517 1_555
Dy3 O8 2.474553 1_445
Dy3 O6 2.474553 1_454
Dy3 O9 2.474553 1_544
Dy3 O1 2.474553 1_554
Dy3 O10 2.474553 1_545
Dy3 O3 2.474553 1_455
O0 Ti0 1.959385 1_555
O0 Ti2 1.959385 1_556
O1 Ti3 1.959385 1_555
O1 Ti1 1.959385 1_555
O2 Ti0 1.959385 1_555
O2 Ti1 1.959385 1_655
O3 Ti2 1.959385 1_555
O3 Ti3 1.959385 1_555
O4 Ti0 1.959385 1_555
O4 Ti3 1.959385 1_565
O5 Ti0 1.959385 1_555
O5 Ti3 1.959385 1_555
O6 Ti1 1.959385 1_655
O6 Ti2 1.959385 1_556
O8 Ti3 1.959385 1_565
O8 Ti1 1.959385 1_655
O9 Ti3 1.959385 1_565
O9 Ti2 1.959385 1_556
O10 Ti1 1.959385 1_555
O10 Ti2 1.959385 1_555
O12 Ti0 1.959385 1_555
O12 Ti2 1.959385 1_555
O13 Ti0 1.959385 1_555
O13 Ti1 1.959385 1_555
