# generated using pymatgen
data_Cs7B12(IrPt5)2
_symmetry_space_group_name_H-M   'P 1'
_cell_length_a   9.50731632
_cell_length_b   9.49290417
_cell_length_c   9.49290469
_cell_angle_alpha   111.73645564
_cell_angle_beta   112.09401249
_cell_angle_gamma   112.09400715
_symmetry_Int_Tables_number   1
_chemical_formula_structural   Cs7B12(IrPt5)2
_chemical_formula_sum   'Cs7 B12 Ir2 Pt10'
_cell_volume   590.55248320
_cell_formula_units_Z   1
loop_
 _symmetry_equiv_pos_site_id
 _symmetry_equiv_pos_as_xyz
  1  'x, y, z'
loop_
 _atom_site_type_symbol
 _atom_site_label
 _atom_site_symmetry_multiplicity
 _atom_site_fract_x
 _atom_site_fract_y
 _atom_site_fract_z
 _atom_site_occupancy
  Cs  Cs0  1  0.99693524  0.73669473  0.73505843  1
  Cs  Cs1  1  0.73833704  0.73495597  0.99808551  1
  Cs  Cs2  1  0.73848429  0.99667722  0.73960266  1
  Cs  Cs3  1  0.26166296  0.00191449  0.26504403  1
  Cs  Cs4  1  0.00306476  0.26494157  0.26330527  1
  Cs  Cs5  1  0.26151571  0.26039734  0.00332278  1
  Cs  Cs6  1  0.50000000  0.49972587  0.50027413  1
  B  B0  1  0.27735081  0.73895117  0.50260252  1
  B  B1  1  0.72264919  0.49739748  0.26104883  1
  B  B2  1  0.50000000  0.26829479  0.73170521  1
  B  B3  1  0.72443087  0.27631044  0.49916348  1
  B  B4  1  0.27556913  0.50083652  0.72368956  1
  B  B5  1  0.50000000  0.72642000  0.27358000  1
  B  B6  1  0.06363995  0.94564395  0.51472886  1
  B  B7  1  0.93636005  0.48527114  0.05435605  1
  B  B8  1  0.50000000  0.06152057  0.93847943  1
  B  B9  1  0.94555630  0.05472768  0.50230852  1
  B  B10  1  0.05444370  0.49769148  0.94527232  1
  B  B11  1  0.50000000  0.94630939  0.05369061  1
  Ir  Ir0  1  0.67397573  0.32820609  0.99990594  1
  Ir  Ir1  1  0.32602427  0.00009406  0.67179391  1
  Pt  Pt0  1  1.00000000  0.67401804  0.32598196  1
  Pt  Pt1  1  0.32590682  0.67404614  0.99826041  1
  Pt  Pt2  1  0.67409318  0.00173959  0.32595386  1
  Pt  Pt3  1  0.00000000  0.32638870  0.67361130  1
  Pt  Pt4  1  0.64087697  0.25120495  0.25123366  1
  Pt  Pt5  1  0.25197696  0.25415541  0.64478543  1
  Pt  Pt6  1  0.25495630  0.64356486  0.25208157  1
  Pt  Pt7  1  0.74802304  0.35521457  0.74584459  1
  Pt  Pt8  1  0.35912303  0.74876634  0.74879505  1
  Pt  Pt9  1  0.74504370  0.74791843  0.35643514  1
loop_
_geom_bond_atom_site_label_1
_geom_bond_atom_site_label_2
_geom_bond_distance
_geom_bond_site_symmetry_2
Cs0 Pt8 3.352862 1_655
Cs0 Cs6 3.566413 1_555
Cs1 Pt9 3.333496 1_556
Cs1 Cs6 3.574259 1_555
Cs2 Pt7 3.348186 1_565
Cs2 Cs6 3.563375 1_555
Cs3 Pt6 3.333496 1_545
Cs3 Cs6 3.574259 1_555
Cs4 Pt4 3.352862 1_455
Cs4 Cs6 3.566413 1_555
Cs5 Pt5 3.348186 1_554
Cs5 Cs6 3.563375 1_555
Cs6 Pt6 3.672843 1_555
Cs6 Pt9 3.672844 1_555
Cs6 Pt7 3.680159 1_555
Cs6 Pt5 3.680159 1_555
Cs6 Pt8 3.684641 1_555
Cs6 Pt4 3.684641 1_555
B0 Pt6 2.097627 1_555
B0 Pt8 2.119544 1_555
B0 Ir1 2.137311 1_565
B0 Pt0 2.197766 1_455
B0 Cs2 3.271469 1_555
B0 Cs4 3.369557 1_555
B0 Cs6 3.640425 1_555
B1 Pt9 2.097627 1_555
B1 Pt4 2.119544 1_555
B1 Ir0 2.137311 1_554
B1 Pt0 2.197766 1_555
B1 Cs5 3.271469 1_555
B1 Cs0 3.369557 1_555
B1 Cs6 3.640425 1_555
B2 Pt5 2.115516 1_555
B2 Pt7 2.115516 1_555
B2 Ir0 2.143224 1_555
B2 Ir1 2.143224 1_555
B2 Cs1 3.315847 1_555
B2 Cs3 3.315847 1_555
B2 Cs6 3.637053 1_555
B3 Pt4 2.064665 1_555
B3 Pt7 2.067450 1_555
B3 Pt2 2.240914 1_555
B3 Pt3 2.246910 1_655
B3 Cs0 3.270528 1_555
B3 Cs3 3.288919 1_555
B3 Cs6 3.529245 1_555
B4 Pt8 2.064664 1_555
B4 Pt5 2.067450 1_555
B4 Pt1 2.240914 1_555
B4 Pt3 2.246910 1_555
B4 Cs4 3.270528 1_555
B4 Cs1 3.288919 1_555
B4 Cs6 3.529245 1_555
B5 Pt9 2.057387 1_555
B5 Pt6 2.057387 1_555
B5 Pt1 2.232015 1_554
B5 Pt2 2.232015 1_565
B5 Cs5 3.311496 1_555
B5 Cs2 3.311496 1_555
B5 Cs6 3.562609 1_555
B6 B9 1.792191 1_465
B6 Ir1 2.091508 1_565
B6 Pt0 2.194112 1_455
B6 Pt5 2.240894 1_565
B6 Pt9 2.272892 1_455
B6 Cs0 3.440295 1_455
B7 Ir0 2.091508 1_554
B7 Pt0 2.194112 1_555
B7 Pt7 2.240895 1_554
B7 Pt6 2.272892 1_655
B7 Cs4 3.440295 1_655
B8 Ir1 2.125095 1_555
B8 Ir0 2.125095 1_555
B8 Pt8 2.255134 1_545
B8 Pt4 2.255134 1_556
B9 Pt3 2.195301 1_655
B9 Pt2 2.205919 1_555
B9 Pt9 2.210125 1_545
B9 Pt5 2.211535 1_655
B10 B7 1.792192 1_456
B10 Pt3 2.195301 1_555
B10 Pt1 2.205919 1_555
B10 Pt6 2.210125 1_556
B10 Pt7 2.211535 1_455
B11 B8 1.810600 1_564
B11 Pt2 2.194517 1_565
B11 Pt1 2.194517 1_554
B11 Pt4 2.204998 1_565
B11 Pt8 2.204998 1_554
