# generated using pymatgen
data_Na2Cu17Si8Ni
_symmetry_space_group_name_H-M   'P 1'
_cell_length_a   8.10618169
_cell_length_b   8.10618236
_cell_length_c   8.05469486
_cell_angle_alpha   120.68375001
_cell_angle_beta   120.68375041
_cell_angle_gamma   89.19120920
_symmetry_Int_Tables_number   1
_chemical_formula_structural   Na2Cu17Si8Ni
_chemical_formula_sum   'Na2 Cu17 Si8 Ni1'
_cell_volume   369.10737582
_cell_formula_units_Z   1
loop_
 _symmetry_equiv_pos_site_id
 _symmetry_equiv_pos_as_xyz
  1  'x, y, z'
loop_
 _atom_site_type_symbol
 _atom_site_label
 _atom_site_symmetry_multiplicity
 _atom_site_fract_x
 _atom_site_fract_y
 _atom_site_fract_z
 _atom_site_occupancy
  Na  Na0  1  0.25000000  0.25000000  0.00000000  1
  Na  Na1  1  0.75000000  0.75000000  0.00000000  1
  Cu  Cu0  1  0.93376632  0.20442719  0.13819351  1
  Cu  Cu1  1  0.20321285  0.06787104  0.27108389  1
  Cu  Cu2  1  0.79678715  0.93212896  0.72891611  1
  Cu  Cu3  1  0.43212896  0.29678715  0.72891611  1
  Cu  Cu4  1  0.06623368  0.79557281  0.86180649  1
  Cu  Cu5  1  0.80965559  0.05972627  0.50000000  1
  Cu  Cu6  1  0.55972627  0.30965559  0.50000000  1
  Cu  Cu7  1  0.19034441  0.94027373  0.50000000  1
  Cu  Cu8  1  0.44027373  0.69034441  0.50000000  1
  Cu  Cu9  1  0.94368419  0.44368419  0.75792251  1
  Cu  Cu10  1  0.68576068  0.18576068  0.24207749  1
  Cu  Cu11  1  0.05631581  0.55631581  0.24207749  1
  Cu  Cu12  1  0.70442719  0.43376632  0.13819351  1
  Cu  Cu13  1  0.56787104  0.70321285  0.27108389  1
  Cu  Cu14  1  0.00000000  0.50000000  0.50000000  1
  Cu  Cu15  1  0.31423932  0.81423932  0.75792251  1
  Cu  Cu16  1  0.29557281  0.56623368  0.86180649  1
  Si  Si0  1  0.78382400  0.28382400  0.84247259  1
  Si  Si1  1  0.55864859  0.05864859  0.84247259  1
  Si  Si2  1  0.05841502  0.20898854  0.50000000  1
  Si  Si3  1  0.29101146  0.44158498  0.50000000  1
  Si  Si4  1  0.94158498  0.79101146  0.50000000  1
  Si  Si5  1  0.44135141  0.94135141  0.15752741  1
  Si  Si6  1  0.21617600  0.71617600  0.15752741  1
  Si  Si7  1  0.70898854  0.55841502  0.50000000  1
  Ni  Ni0  1  0.50000000  0.00000000  0.50000000  1
loop_
_geom_bond_atom_site_label_1
_geom_bond_atom_site_label_2
_geom_bond_distance
_geom_bond_site_symmetry_2
Na0 Si7 3.317628 1_555
Na0 Si4 3.317628 1_444
Na0 Si2 3.317628 1_554
Na0 Si3 3.317628 1_555
Na0 Si0 3.376018 1_454
Na0 Si1 3.376018 1_554
Na0 Si5 3.376018 1_545
Na0 Si6 3.376018 1_555
Na1 Si3 3.317628 1_554
Na1 Si2 3.317628 1_665
Na1 Si4 3.317628 1_555
Na1 Si7 3.317628 1_554
Na1 Si6 3.376018 1_655
Na1 Si5 3.376018 1_555
Na1 Si1 3.376018 1_564
Na1 Si0 3.376018 1_554
Cu0 Cu14 2.415553 1_655
Cu0 Cu2 2.424779 1_544
Cu0 Cu1 2.428304 1_655
Cu0 Si1 2.480514 1_554
Cu0 Si0 2.480514 1_554
Cu0 Si3 2.530006 1_655
Cu0 Si2 2.530006 1_655
Cu0 Cu11 2.572796 1_655
Cu0 Cu10 2.572805 1_555
Cu0 Cu12 2.610493 1_555
Cu0 Na0 3.362338 1_655
Cu0 Na1 3.362338 1_545
Cu1 Cu4 2.424779 1_544
Cu1 Ni0 2.441524 1_555
Cu1 Si2 2.470685 1_555
Cu1 Si3 2.470685 1_555
Cu1 Si5 2.530536 1_545
Cu1 Si6 2.530536 1_545
Cu1 Cu3 2.571992 1_555
Cu1 Cu6 2.574154 1_555
Cu1 Cu7 2.574154 1_545
Cu1 Na1 3.352942 1_445
Cu1 Na0 3.352942 1_555
Cu2 Cu4 2.428304 1_655
Cu2 Ni0 2.441524 1_565
Cu2 Si4 2.470685 1_555
Cu2 Si7 2.470685 1_555
Cu2 Si1 2.530536 1_565
Cu2 Si0 2.530536 1_565
Cu2 Cu8 2.574154 1_555
Cu2 Cu5 2.574154 1_565
Cu2 Na0 3.352942 1_666
Cu2 Na1 3.352942 1_556
Cu3 Ni0 2.441524 1_555
Cu3 Si2 2.470685 1_555
Cu3 Si3 2.470685 1_555
Cu3 Si0 2.530536 1_555
Cu3 Si1 2.530536 1_555
Cu3 Cu7 2.574154 1_545
Cu3 Cu6 2.574154 1_555
Cu3 Na1 3.352942 1_556
Cu3 Na0 3.352942 1_556
Cu4 Si5 2.480514 1_556
Cu4 Si6 2.480514 1_556
Cu4 Si7 2.530006 1_455
Cu4 Si4 2.530006 1_455
Cu4 Cu9 2.572796 1_455
Cu4 Na1 3.362338 1_456
Cu4 Na0 3.362338 1_566
Cu5 Si2 2.366238 1_655
Cu5 Si4 2.413032 1_545
Cu5 Cu9 2.525119 1_555
Cu5 Si5 2.533318 1_545
Cu5 Si0 2.533318 1_555
Cu5 Ni0 2.563091 1_555
Cu5 Na0 3.237880 1_656
Cu5 Na1 3.237881 1_545
Cu6 Si7 2.366238 1_555
Cu6 Si3 2.413032 1_555
Cu6 Cu9 2.525119 1_555
Cu6 Si0 2.533318 1_555
Cu6 Si5 2.533318 1_545
Cu6 Ni0 2.563091 1_555
Cu6 Na0 3.237880 1_555
Cu6 Na1 3.237881 1_556
Cu7 Si4 2.366238 1_455
Cu7 Si2 2.413032 1_565
Cu7 Si1 2.533318 1_565
Cu7 Si6 2.533318 1_555
Cu7 Ni0 2.563091 1_565
Cu7 Na1 3.237880 1_455
Cu7 Na0 3.237881 1_566
Cu8 Si3 2.366238 1_555
Cu8 Si7 2.413032 1_555
Cu8 Si6 2.533318 1_555
Cu8 Si1 2.533318 1_565
Cu8 Ni0 2.563091 1_565
Cu8 Na1 3.237880 1_556
Cu8 Na0 3.237881 1_555
Cu9 Si0 2.381399 1_555
Cu9 Si6 2.396602 1_656
Cu9 Si7 2.586219 1_555
Cu9 Si2 2.586219 1_655
Cu9 Na0 3.241226 1_656
Cu9 Na1 3.241226 1_556
Cu10 Si5 2.381388 1_545
Cu10 Si1 2.396606 1_554
Cu10 Cu6 2.525112 1_555
Cu10 Cu5 2.525112 1_555
Cu10 Cu12 2.572805 1_555
Cu10 Cu14 2.583510 1_655
Cu10 Si2 2.586222 1_655
Cu10 Si7 2.586222 1_555
Cu10 Na0 3.241224 1_555
Cu10 Na1 3.241224 1_545
Cu11 Si6 2.381399 1_555
Cu11 Si0 2.396602 1_454
Cu11 Cu8 2.525119 1_555
Cu11 Cu7 2.525119 1_555
Cu11 Cu12 2.572795 1_455
Cu11 Cu14 2.583500 1_555
Cu11 Si3 2.586219 1_555
Cu11 Si4 2.586219 1_455
Cu11 Na1 3.241226 1_455
Cu11 Na0 3.241226 1_555
Cu12 Cu14 2.415553 1_655
Cu12 Cu3 2.424779 1_554
Cu12 Cu13 2.428304 1_555
Cu12 Si0 2.480514 1_554
Cu12 Si1 2.480514 1_554
Cu12 Si4 2.530006 1_555
Cu12 Si7 2.530006 1_555
Cu12 Na0 3.362338 1_555
Cu12 Na1 3.362338 1_555
Cu13 Cu16 2.424779 1_554
Cu13 Ni0 2.441524 1_565
Cu13 Si4 2.470685 1_555
Cu13 Si7 2.470685 1_555
Cu13 Si6 2.530536 1_555
Cu13 Si5 2.530536 1_555
Cu13 Cu2 2.571992 1_555
Cu13 Cu5 2.574154 1_565
Cu13 Cu8 2.574154 1_555
Cu13 Na0 3.352942 1_555
Cu13 Na1 3.352942 1_555
Cu14 Si7 2.399486 1_455
Cu14 Si3 2.399486 1_555
Cu14 Si4 2.399486 1_455
Cu14 Si2 2.399486 1_555
Cu14 Cu16 2.415553 1_555
Cu14 Cu4 2.415553 1_555
Cu14 Cu9 2.583500 1_455
Cu14 Cu15 2.583510 1_555
Cu15 Si1 2.381388 1_565
Cu15 Si5 2.396606 1_556
Cu15 Cu8 2.525112 1_555
Cu15 Cu7 2.525112 1_555
Cu15 Cu4 2.572805 1_555
Cu15 Cu16 2.572805 1_555
Cu15 Si4 2.586222 1_455
Cu15 Si3 2.586222 1_555
Cu15 Na1 3.241224 1_556
Cu15 Na0 3.241224 1_566
Cu16 Cu3 2.428304 1_555
Cu16 Si6 2.480514 1_556
Cu16 Si5 2.480514 1_556
Cu16 Si2 2.530006 1_555
Cu16 Si3 2.530006 1_555
Cu16 Cu9 2.572795 1_455
Cu16 Cu4 2.610493 1_555
Cu16 Na1 3.362338 1_556
Cu16 Na0 3.362338 1_556
Si0 Si1 2.599537 1_555
Si2 Si3 2.685209 1_555
Si4 Si7 2.685209 1_555
Si5 Si6 2.599537 1_555
Ni0 Si0 2.321832 1_555
Ni0 Si6 2.321832 1_545
Ni0 Si1 2.321832 1_555
Ni0 Si5 2.321832 1_545
