# generated using pymatgen
data_Tm2Zn17
_symmetry_space_group_name_H-M   'P 1'
_cell_length_a   6.66909791
_cell_length_b   6.66909792
_cell_length_c   6.66909632
_cell_angle_alpha   82.83364947
_cell_angle_beta   82.83364785
_cell_angle_gamma   82.83366199
_symmetry_Int_Tables_number   1
_chemical_formula_structural   Tm2Zn17
_chemical_formula_sum   'Tm2 Zn17'
_cell_volume   290.20263729
_cell_formula_units_Z   1
loop_
 _symmetry_equiv_pos_site_id
 _symmetry_equiv_pos_as_xyz
  1  'x, y, z'
loop_
 _atom_site_type_symbol
 _atom_site_label
 _atom_site_symmetry_multiplicity
 _atom_site_fract_x
 _atom_site_fract_y
 _atom_site_fract_z
 _atom_site_occupancy
  Tm  Tm0  1  0.66436209  0.66436209  0.66436209  1
  Tm  Tm1  1  0.33563791  0.33563791  0.33563791  1
  Zn  Zn0  1  0.35205191  0.35205191  0.83850975  1
  Zn  Zn1  1  0.35205191  0.83850975  0.35205191  1
  Zn  Zn2  1  0.10039507  0.10039507  0.10039507  1
  Zn  Zn3  1  0.89960493  0.89960493  0.89960493  1
  Zn  Zn4  1  -0.00000000  -0.00000000  0.50000000  1
  Zn  Zn5  1  0.50000000  -0.00000000  0.00000000  1
  Zn  Zn6  1  -0.00000000  0.50000000  0.00000000  1
  Zn  Zn7  1  0.70256128  0.29743872  0.00000000  1
  Zn  Zn8  1  -0.00000000  0.70256128  0.29743872  1
  Zn  Zn9  1  0.29743872  0.00000000  0.70256128  1
  Zn  Zn10  1  0.29743872  0.70256128  -0.00000000  1
  Zn  Zn11  1  0.00000000  0.29743872  0.70256128  1
  Zn  Zn12  1  0.70256128  -0.00000000  0.29743872  1
  Zn  Zn13  1  0.64794809  0.16149025  0.64794809  1
  Zn  Zn14  1  0.64794809  0.64794809  0.16149025  1
  Zn  Zn15  1  0.16149025  0.64794809  0.64794809  1
  Zn  Zn16  1  0.83850975  0.35205191  0.35205191  1
loop_
_geom_bond_atom_site_label_1
_geom_bond_atom_site_label_2
_geom_bond_distance
_geom_bond_site_symmetry_2
Tm0 Zn3 3.037473 1_555
Tm0 Zn8 3.111830 1_655
Tm0 Zn12 3.111830 1_565
Tm0 Zn10 3.111830 1_556
Tm0 Zn7 3.111830 1_556
Tm0 Zn9 3.111831 1_565
Tm0 Zn11 3.111831 1_655
Tm0 Zn0 3.146504 1_555
Tm0 Zn16 3.146505 1_555
Tm0 Zn1 3.146505 1_555
Tm0 Zn14 3.292067 1_556
Tm0 Zn15 3.292068 1_655
Tm0 Zn13 3.292068 1_565
Tm0 Zn4 3.353830 1_665
Tm0 Zn5 3.353830 1_566
Tm0 Zn6 3.353830 1_656
Tm0 Zn14 3.384887 1_555
Tm0 Zn15 3.384887 1_555
Tm0 Zn13 3.384887 1_555
Tm1 Zn2 3.037473 1_555
Tm1 Zn11 3.111830 1_555
Tm1 Zn9 3.111830 1_555
Tm1 Zn7 3.111830 1_555
Tm1 Zn10 3.111830 1_555
Tm1 Zn12 3.111831 1_555
Tm1 Zn8 3.111831 1_555
Tm1 Zn14 3.146504 1_555
Tm1 Zn15 3.146505 1_555
Tm1 Zn13 3.146505 1_555
Tm1 Zn0 3.292067 1_554
Tm1 Zn16 3.292068 1_455
Tm1 Zn1 3.292068 1_545
Tm1 Zn4 3.353830 1_555
Tm1 Zn5 3.353830 1_555
Tm1 Zn6 3.353830 1_555
Tm1 Zn0 3.384887 1_555
Tm1 Zn16 3.384887 1_555
Tm1 Zn1 3.384887 1_555
Zn0 Zn13 2.505180 1_555
Zn0 Zn15 2.505180 1_555
Zn0 Zn6 2.588857 1_556
Zn0 Zn5 2.588857 1_556
Zn0 Zn10 2.659831 1_556
Zn0 Zn7 2.659831 1_556
Zn0 Zn9 2.700746 1_555
Zn0 Zn11 2.700746 1_555
Zn0 Zn2 2.814964 1_556
Zn1 Zn15 2.505179 1_555
Zn1 Zn14 2.505180 1_555
Zn1 Zn5 2.588857 1_565
Zn1 Zn4 2.588857 1_565
Zn1 Zn9 2.659830 1_565
Zn1 Zn12 2.659831 1_565
Zn1 Zn10 2.700745 1_555
Zn1 Zn8 2.700746 1_555
Zn1 Zn2 2.814964 1_565
Zn2 Zn3 2.592617 1_444
Zn2 Zn4 2.687059 1_555
Zn2 Zn5 2.687059 1_555
Zn2 Zn6 2.687059 1_555
Zn2 Zn9 2.927179 1_554
Zn2 Zn8 2.927180 1_545
Zn2 Zn7 2.927180 1_455
Zn3 Zn4 2.687059 1_665
Zn3 Zn5 2.687059 1_566
Zn3 Zn6 2.687059 1_656
Zn3 Zn8 2.927180 1_656
Zn3 Zn9 2.927180 1_665
Zn3 Zn7 2.927180 1_566
Zn4 Zn8 2.535426 1_545
Zn4 Zn9 2.535426 1_555
Zn5 Zn9 2.535425 1_554
Zn5 Zn7 2.535426 1_555
Zn6 Zn8 2.535425 1_555
Zn6 Zn7 2.535426 1_455
Zn10 Zn6 2.535426 1_555
Zn10 Zn5 2.535426 1_565
Zn10 Zn8 2.624493 1_555
Zn10 Zn9 2.624493 1_564
Zn10 Zn14 2.659831 1_555
Zn10 Zn15 2.700745 1_554
Zn10 Zn2 2.927180 1_565
Zn10 Zn3 2.927180 1_454
Zn11 Zn6 2.535425 1_556
Zn11 Zn4 2.535426 1_555
Zn11 Zn7 2.624493 1_456
Zn11 Zn9 2.624494 1_555
Zn11 Zn16 2.659830 1_455
Zn11 Zn15 2.659831 1_555
Zn11 Zn13 2.700746 1_455
Zn11 Zn2 2.927180 1_556
Zn11 Zn3 2.927180 1_445
Zn12 Zn5 2.535425 1_555
Zn12 Zn4 2.535426 1_655
Zn12 Zn7 2.624493 1_555
Zn12 Zn8 2.624494 1_645
Zn12 Zn13 2.659830 1_555
Zn12 Zn16 2.700746 1_555
Zn12 Zn14 2.700746 1_545
Zn12 Zn3 2.927179 1_544
Zn12 Zn2 2.927180 1_655
Zn13 Zn16 2.505179 1_555
Zn13 Zn5 2.588857 1_556
Zn13 Zn4 2.588857 1_655
Zn13 Zn9 2.659831 1_555
Zn13 Zn7 2.700745 1_556
Zn13 Zn3 2.814964 1_545
Zn14 Zn16 2.505180 1_555
Zn14 Zn6 2.588857 1_655
Zn14 Zn5 2.588857 1_565
Zn14 Zn7 2.659831 1_555
Zn14 Zn8 2.700746 1_655
Zn14 Zn3 2.814964 1_554
Zn15 Zn6 2.588857 1_556
Zn15 Zn4 2.588857 1_565
Zn15 Zn8 2.659830 1_555
Zn15 Zn9 2.700746 1_565
Zn15 Zn3 2.814964 1_455
Zn16 Zn6 2.588857 1_655
Zn16 Zn4 2.588857 1_655
Zn16 Zn8 2.659831 1_655
Zn16 Zn7 2.700745 1_555
Zn16 Zn2 2.814964 1_655
