# generated using pymatgen
data_Hf6Ti2Al15Os7
_symmetry_space_group_name_H-M   'P 1'
_cell_length_a   8.75445833
_cell_length_b   8.75445337
_cell_length_c   8.75445775
_cell_angle_alpha   120.20680135
_cell_angle_beta   119.84937636
_cell_angle_gamma   89.95167542
_symmetry_Int_Tables_number   1
_chemical_formula_structural   Hf6Ti2Al15Os7
_chemical_formula_sum   'Hf6 Ti2 Al15 Os7'
_cell_volume   474.22291159
_cell_formula_units_Z   1
loop_
 _symmetry_equiv_pos_site_id
 _symmetry_equiv_pos_as_xyz
  1  'x, y, z'
loop_
 _atom_site_type_symbol
 _atom_site_label
 _atom_site_symmetry_multiplicity
 _atom_site_fract_x
 _atom_site_fract_y
 _atom_site_fract_z
 _atom_site_occupancy
  Hf  Hf0  1  0.79170676  0.28142971  0.06609902  1
  Hf  Hf1  1  0.21532969  0.28142871  0.48972196  1
  Hf  Hf2  1  0.21277961  0.71277637  0.49999676  1
  Hf  Hf3  1  0.21532799  0.72560991  0.93390741  1
  Hf  Hf4  1  0.79170350  0.72560991  0.51028292  1
  Hf  Hf5  1  0.77865825  0.27866368  0.50000544  1
  Ti  Ti0  1  0.37988009  0.12251617  0.74263308  1
  Ti  Ti1  1  0.37987931  0.63724486  0.25736654  1
  Al  Al0  1  0.99447185  0.49446749  0.49999564  1
  Al  Al1  1  0.16492387  0.33670765  0.17178379  1
  Al  Al2  1  0.16492839  0.99315471  0.82822633  1
  Al  Al3  1  0.15923698  0.34083157  0.81842221  1
  Al  Al4  1  0.52240935  0.34082957  0.18159259  1
  Al  Al5  1  0.83769894  0.65972251  0.82202457  1
  Al  Al6  1  0.83769938  0.01567286  0.17797248  1
  Al  Al7  1  0.83603824  0.66049308  0.17553961  1
  Al  Al8  1  0.48495347  0.66049308  0.82445384  1
  Al  Al9  1  0.38139727  0.12257352  0.25882670  1
  Al  Al10  1  0.86374683  0.12257352  0.74117625  1
  Al  Al11  1  0.61951603  0.87489054  0.25537451  1
  Al  Al12  1  0.61952647  0.36415245  0.74462498  1
  Al  Al13  1  0.61779129  0.87684755  0.74092426  1
  Al  Al14  1  0.13592429  0.87684755  0.25905626  1
  Os  Os0  1  0.00009339  0.99853517  0.50078277  1
  Os  Os1  1  0.49775140  0.99853417  0.99843979  1
  Os  Os2  1  0.49863843  0.49865347  0.00001604  1
  Os  Os3  1  0.49775242  0.49932125  0.49921049  1
  Os  Os4  1  0.00011276  0.49932225  0.00156983  1
  Os  Os5  1  0.00083279  0.00082621  0.99999242  1
  Os  Os6  1  0.49928497  0.99926550  0.49998053  1
loop_
_geom_bond_atom_site_label_1
_geom_bond_atom_site_label_2
_geom_bond_distance
_geom_bond_site_symmetry_2
Hf0 Ti0 2.972217 1_554
Hf0 Os5 3.055783 1_654
Hf0 Os4 3.066386 1_655
Hf0 Os1 3.181850 1_544
Hf0 Os2 3.186678 1_555
Hf1 Ti0 2.972195 1_555
Hf1 Os5 3.055781 1_554
Hf1 Os3 3.066381 1_555
Hf1 Os0 3.181843 1_545
Hf1 Os2 3.186689 1_556
Hf2 Ti1 2.960942 1_555
Hf2 Ti0 2.961007 1_565
Hf2 Os4 3.116443 1_555
Hf2 Os3 3.116448 1_555
Hf2 Os1 3.116523 1_555
Hf2 Os0 3.116537 1_555
Hf3 Ti1 2.972195 1_556
Hf3 Os5 3.055655 1_565
Hf3 Os1 3.066313 1_555
Hf3 Os4 3.181693 1_556
Hf3 Os2 3.186544 1_556
Hf4 Ti1 2.972195 1_555
Hf4 Os5 3.055643 1_665
Hf4 Os0 3.066316 1_655
Hf4 Os3 3.181706 1_555
Hf4 Os2 3.186542 1_555
Hf5 Os3 3.125330 1_555
Hf5 Os4 3.125334 1_656
Hf5 Os0 3.125343 1_645
Hf5 Os1 3.125354 1_544
Al0 Hf5 2.673044 1_555
Al0 Hf0 2.687577 1_555
Al0 Hf1 2.687578 1_655
Al0 Hf4 2.687665 1_555
Al0 Hf3 2.687670 1_655
Al0 Hf2 2.703936 1_655
Al1 Os4 2.513926 1_555
Al1 Os3 2.513927 1_555
Al1 Os5 2.525544 1_554
Al1 Ti1 2.765185 1_555
Al1 Hf0 2.882446 1_455
Al1 Hf1 2.882446 1_555
Al1 Hf2 2.925026 1_555
Al2 Os1 2.513941 1_555
Al2 Os0 2.513946 1_555
Al2 Os5 2.525466 1_565
Al2 Ti0 2.765188 1_565
Al2 Hf4 2.882524 1_455
Al2 Hf3 2.882531 1_555
Al2 Hf2 2.925157 1_555
Al3 Os2 2.521785 1_556
Al3 Os4 2.533387 1_556
Al3 Os0 2.533570 1_545
Al3 Ti1 2.795901 1_556
Al3 Ti0 2.796012 1_555
Al3 Hf5 2.898041 1_455
Al3 Hf3 2.948210 1_555
Al3 Hf1 2.948308 1_555
Al4 Os2 2.521780 1_555
Al4 Os3 2.533410 1_555
Al4 Os1 2.533562 1_544
Al4 Ti1 2.795911 1_555
Al4 Ti0 2.796012 1_554
Al4 Hf5 2.898041 1_555
Al4 Hf4 2.948223 1_555
Al4 Hf0 2.948296 1_555
Al5 Os4 2.541059 1_656
Al5 Os3 2.541063 1_555
Al5 Os5 2.548522 1_665
Al5 Hf5 2.903864 1_555
Al5 Hf3 2.903911 1_655
Al5 Hf4 2.903911 1_555
Al6 Os1 2.541061 1_544
Al6 Os0 2.541063 1_645
Al6 Os5 2.548570 1_654
Al6 Hf1 2.903942 1_655
Al6 Hf0 2.903946 1_555
Al6 Hf5 2.903987 1_555
Al7 Os0 2.526931 1_655
Al7 Os4 2.526952 1_655
Al7 Os2 2.528137 1_555
Al7 Hf0 2.917826 1_555
Al7 Hf4 2.917922 1_555
Al7 Hf2 2.919638 1_655
Al8 Os1 2.526927 1_555
Al8 Os3 2.526936 1_555
Al8 Os2 2.528150 1_556
Al8 Hf1 2.917833 1_555
Al8 Hf3 2.917925 1_555
Al8 Hf2 2.919632 1_555
Al9 Os6 2.609583 1_545
Al9 Os1 2.689203 1_544
Al9 Os3 2.689251 1_555
Al9 Os5 2.726021 1_554
Al9 Hf5 2.866295 1_555
Al9 Hf3 2.868243 1_544
Al9 Hf1 2.868245 1_555
Al10 Os6 2.609582 1_545
Al10 Os0 2.689196 1_645
Al10 Os4 2.689258 1_656
Al10 Os5 2.726015 1_655
Al10 Hf5 2.866296 1_555
Al10 Hf0 2.868244 1_556
Al10 Hf4 2.868245 1_545
Al11 Os6 2.602798 1_555
Al11 Os2 2.684758 1_555
Al11 Os0 2.725542 1_655
Al11 Os1 2.725550 1_554
Al11 Hf5 2.905710 1_565
Al11 Hf3 2.922809 1_554
Al11 Hf4 2.922817 1_555
Al11 Ti1 2.968171 1_555
Al12 Os6 2.603151 1_545
Al12 Os2 2.685062 1_556
Al12 Os3 2.725585 1_555
Al12 Os4 2.725606 1_656
Al12 Hf5 2.905551 1_555
Al12 Hf1 2.922868 1_555
Al12 Hf0 2.922870 1_556
Al12 Ti0 2.968272 1_555
Al13 Os6 2.601652 1_555
Al13 Os3 2.694487 1_555
Al13 Os1 2.694698 1_555
Al13 Os5 2.743189 1_665
Al13 Hf4 2.917986 1_555
Al13 Hf0 2.918188 1_566
Al13 Hf2 2.932443 1_555
Al13 Ti1 2.992316 1_555
Al13 Ti0 2.992454 1_565
Al14 Os6 2.601644 1_555
Al14 Os4 2.694479 1_555
Al14 Os0 2.694713 1_555
Al14 Os5 2.743197 1_564
Al14 Hf3 2.917978 1_554
Al14 Hf1 2.918183 1_565
Al14 Hf2 2.932445 1_555
Al14 Ti1 2.992317 1_555
Al14 Ti0 2.992434 1_565
Os0 Ti0 2.720583 1_565
Os1 Ti0 2.720597 1_565
Os2 Ti1 2.684736 1_555
Os2 Ti0 2.684937 1_554
Os3 Ti1 2.720444 1_555
Os4 Ti1 2.720436 1_555
Os6 Ti1 2.582695 1_555
Os6 Ti0 2.582961 1_565
