# generated using pymatgen
data_RbTcP2Pt
_symmetry_space_group_name_H-M   'P 1'
_cell_length_a   7.42573759
_cell_length_b   7.42573825
_cell_length_c   7.42573822
_cell_angle_alpha   148.71532763
_cell_angle_beta   148.71532326
_cell_angle_gamma   44.83050342
_symmetry_Int_Tables_number   1
_chemical_formula_structural   RbTcP2Pt
_chemical_formula_sum   'Rb1 Tc1 P2 Pt1'
_cell_volume   110.07807697
_cell_formula_units_Z   1
loop_
 _symmetry_equiv_pos_site_id
 _symmetry_equiv_pos_as_xyz
  1  'x, y, z'
loop_
 _atom_site_type_symbol
 _atom_site_label
 _atom_site_symmetry_multiplicity
 _atom_site_fract_x
 _atom_site_fract_y
 _atom_site_fract_z
 _atom_site_occupancy
  Rb  Rb0  1  0.00000000  0.00000000  0.00000000  1
  Tc  Tc0  1  0.75000000  0.25000000  0.50000000  1
  P  P0  1  0.34100339  0.34100339  1.00000000  1
  P  P1  1  0.65899661  0.65899661  0.00000000  1
  Pt  Pt0  1  0.25000000  0.75000000  0.50000000  1
loop_
_geom_bond_atom_site_label_1
_geom_bond_atom_site_label_2
_geom_bond_distance
_geom_bond_site_symmetry_2
P0 Tc0 2.360064 1_455
P0 Pt0 2.360064 1_545
P0 Pt0 2.360064 1_556
P0 Tc0 2.360064 1_556
P0 Rb0 3.575313 1_667
P0 Rb0 3.575313 1_656
P0 Rb0 3.575313 1_555
P0 Rb0 3.575313 1_566
P1 Pt0 2.360064 1_655
P1 Tc0 2.360064 1_565
P1 Tc0 2.360064 1_554
P1 Pt0 2.360064 1_554
P1 Rb0 3.575313 1_554
P1 Rb0 3.575313 1_565
P1 Rb0 3.575313 1_666
P1 Rb0 3.575313 1_655
Pt0 Tc0 2.831556 1_454
Pt0 Tc0 2.831556 1_566
Pt0 Tc0 2.831556 1_555
Pt0 Tc0 2.831556 1_465
