# generated using pymatgen
data_RbCr3Sb12Ru
_symmetry_space_group_name_H-M   'P 1'
_cell_length_a   8.32329608
_cell_length_b   8.25944571
_cell_length_c   8.25944699
_cell_angle_alpha   109.31410089
_cell_angle_beta   109.62789123
_cell_angle_gamma   109.62789380
_symmetry_Int_Tables_number   1
_chemical_formula_structural   RbCr3Sb12Ru
_chemical_formula_sum   'Rb1 Cr3 Sb12 Ru1'
_cell_volume   436.24645896
_cell_formula_units_Z   1
loop_
 _symmetry_equiv_pos_site_id
 _symmetry_equiv_pos_as_xyz
  1  'x, y, z'
loop_
 _atom_site_type_symbol
 _atom_site_label
 _atom_site_symmetry_multiplicity
 _atom_site_fract_x
 _atom_site_fract_y
 _atom_site_fract_z
 _atom_site_occupancy
  Rb  Rb0  1  0.00000000  0.00000000  0.00000000  1
  Cr  Cr0  1  0.50000000  0.50000000  0.50000000  1
  Cr  Cr1  1  0.00000000  0.00000000  0.50000000  1
  Cr  Cr2  1  0.00000000  0.50000000  0.00000000  1
  Sb  Sb0  1  0.16196254  0.81151149  0.66481913  1
  Sb  Sb1  1  0.15212990  0.50103121  0.35045827  1
  Sb  Sb2  1  0.50285558  0.66481913  0.85330764  1
  Sb  Sb3  1  0.35045105  0.85330764  0.18848851  1
  Sb  Sb4  1  0.80167064  0.64954173  0.15057195  1
  Sb  Sb5  1  0.65109869  0.84942805  0.49896879  1
  Sb  Sb6  1  0.19832936  0.35045827  0.84942805  1
  Sb  Sb7  1  0.64954895  0.14669236  0.81151149  1
  Sb  Sb8  1  0.34890131  0.15057195  0.50103121  1
  Sb  Sb9  1  0.49714442  0.33518087  0.14669236  1
  Sb  Sb10  1  0.84787010  0.49896879  0.64954173  1
  Sb  Sb11  1  0.83803746  0.18848851  0.33518087  1
  Ru  Ru0  1  0.50000000  0.00000000  0.00000000  1
loop_
_geom_bond_atom_site_label_1
_geom_bond_atom_site_label_2
_geom_bond_distance
_geom_bond_site_symmetry_2
Rb0 Sb11 3.601557 1_455
Rb0 Sb0 3.601557 1_544
Rb0 Sb3 3.601557 1_545
Rb0 Sb7 3.601557 1_454
Rb0 Sb9 3.601564 1_555
Rb0 Sb2 3.601564 1_444
Rb0 Sb6 3.633268 1_554
Rb0 Sb4 3.633268 1_445
Rb0 Sb1 3.633271 1_555
Rb0 Sb10 3.633271 1_444
Rb0 Sb8 3.633274 1_555
Rb0 Sb5 3.633274 1_444
Cr0 Sb5 2.737916 1_555
Cr0 Sb8 2.737916 1_555
Cr0 Sb10 2.744095 1_555
Cr0 Sb1 2.744095 1_555
Cr0 Sb2 2.770035 1_555
Cr0 Sb9 2.770035 1_555
Cr1 Sb6 2.737911 1_555
Cr1 Sb4 2.737911 1_445
Cr1 Sb8 2.744094 1_555
Cr1 Sb5 2.744094 1_445
Cr1 Sb0 2.770031 1_545
Cr1 Sb11 2.770031 1_455
Cr2 Sb1 2.737909 1_555
Cr2 Sb10 2.737909 1_454
Cr2 Sb4 2.744098 1_455
Cr2 Sb6 2.744098 1_554
Cr2 Sb3 2.770030 1_555
Cr2 Sb7 2.770030 1_454
Sb0 Sb10 2.922885 1_455
Sb0 Sb1 2.938737 1_555
Sb1 Sb11 2.922885 1_455
Sb2 Sb4 2.922880 1_556
Sb2 Sb6 2.938732 1_555
Sb3 Sb8 2.922880 1_565
Sb3 Sb5 2.938732 1_555
Sb4 Sb9 2.938732 1_555
Sb5 Sb7 2.922880 1_565
Sb6 Sb9 2.922880 1_556
Sb7 Sb8 2.938732 1_555
Sb10 Sb11 2.938737 1_555
Ru0 Sb9 2.641475 1_555
Ru0 Sb2 2.641475 1_544
Ru0 Sb11 2.641480 1_555
Ru0 Sb0 2.641480 1_544
Ru0 Sb7 2.641480 1_554
Ru0 Sb3 2.641480 1_545
