# generated using pymatgen
data_CsSb12Ir3Os
_symmetry_space_group_name_H-M   'P 1'
_cell_length_a   8.14642011
_cell_length_b   8.14641953
_cell_length_c   8.14641898
_cell_angle_alpha   109.48288864
_cell_angle_beta   109.48288642
_cell_angle_gamma   109.48287085
_symmetry_Int_Tables_number   1
_chemical_formula_structural   CsSb12Ir3Os
_chemical_formula_sum   'Cs1 Sb12 Ir3 Os1'
_cell_volume   415.99755500
_cell_formula_units_Z   1
loop_
 _symmetry_equiv_pos_site_id
 _symmetry_equiv_pos_as_xyz
  1  'x, y, z'
loop_
 _atom_site_type_symbol
 _atom_site_label
 _atom_site_symmetry_multiplicity
 _atom_site_fract_x
 _atom_site_fract_y
 _atom_site_fract_z
 _atom_site_occupancy
  Cs  Cs0  1  0.00000000  0.00000000  0.00000000  1
  Sb  Sb0  1  0.15547670  0.81118868  0.65529826  1
  Sb  Sb1  1  0.15845401  0.49930279  0.34412898  1
  Sb  Sb2  1  0.50069721  0.65587102  0.84154599  1
  Sb  Sb3  1  0.34470174  0.84452330  0.18881132  1
  Sb  Sb4  1  0.81118868  0.65529826  0.15547670  1
  Sb  Sb5  1  0.65587102  0.84154599  0.50069721  1
  Sb  Sb6  1  0.18881132  0.34470174  0.84452330  1
  Sb  Sb7  1  0.65529826  0.15547670  0.81118868  1
  Sb  Sb8  1  0.34412898  0.15845401  0.49930279  1
  Sb  Sb9  1  0.49930279  0.34412898  0.15845401  1
  Sb  Sb10  1  0.84154599  0.50069721  0.65587102  1
  Sb  Sb11  1  0.84452330  0.18881132  0.34470174  1
  Ir  Ir0  1  0.00000000  0.00000000  0.50000000  1
  Ir  Ir1  1  0.50000000  0.00000000  0.00000000  1
  Ir  Ir2  1  0.00000000  0.50000000  0.00000000  1
  Os  Os0  1  0.50000000  0.50000000  0.50000000  1
loop_
_geom_bond_atom_site_label_1
_geom_bond_atom_site_label_2
_geom_bond_distance
_geom_bond_site_symmetry_2
Cs0 Sb8 3.542259 1_555
Cs0 Sb5 3.542259 1_444
Cs0 Sb1 3.542259 1_555
Cs0 Sb10 3.542259 1_444
Cs0 Sb9 3.542260 1_555
Cs0 Sb2 3.542260 1_444
Cs0 Sb11 3.556162 1_455
Cs0 Sb0 3.556162 1_544
Cs0 Sb3 3.556162 1_545
Cs0 Sb7 3.556162 1_454
Cs0 Sb6 3.556162 1_554
Cs0 Sb4 3.556162 1_445
Sb0 Sb10 2.939233 1_455
Sb0 Sb1 2.944100 1_555
Sb1 Sb11 2.939233 1_455
Sb2 Sb4 2.939233 1_556
Sb2 Sb6 2.944101 1_555
Sb3 Sb8 2.939233 1_565
Sb3 Sb5 2.944101 1_555
Sb4 Sb9 2.944101 1_555
Sb5 Sb7 2.939233 1_565
Sb6 Sb9 2.939233 1_556
Sb7 Sb8 2.944101 1_555
Sb10 Sb11 2.944100 1_555
Ir0 Sb11 2.664455 1_455
Ir0 Sb0 2.664455 1_545
Ir0 Sb6 2.666534 1_555
Ir0 Sb4 2.666534 1_445
Ir0 Sb8 2.669657 1_555
Ir0 Sb5 2.669657 1_445
Ir1 Sb7 2.664455 1_554
Ir1 Sb3 2.664455 1_545
Ir1 Sb0 2.666534 1_544
Ir1 Sb11 2.666534 1_555
Ir1 Sb9 2.669656 1_555
Ir1 Sb2 2.669656 1_544
Ir2 Sb4 2.664455 1_455
Ir2 Sb6 2.664455 1_554
Ir2 Sb3 2.666535 1_555
Ir2 Sb7 2.666535 1_454
Ir2 Sb1 2.669656 1_555
Ir2 Sb10 2.669656 1_454
Os0 Sb9 2.642339 1_555
Os0 Sb2 2.642339 1_555
Os0 Sb10 2.642339 1_555
Os0 Sb1 2.642339 1_555
Os0 Sb5 2.642339 1_555
Os0 Sb8 2.642339 1_555
