# generated using pymatgen
data_Sc11TcIr2Os
_symmetry_space_group_name_H-M   'P 1'
_cell_length_a   9.46151630
_cell_length_b   9.47449908
_cell_length_c   9.46151651
_cell_angle_alpha   59.95460080
_cell_angle_beta   59.98186290
_cell_angle_gamma   59.95460224
_symmetry_Int_Tables_number   1
_chemical_formula_structural   Sc11TcIr2Os
_chemical_formula_sum   'Sc22 Tc2 Ir4 Os2'
_cell_volume   599.24568793
_cell_formula_units_Z   2
loop_
 _symmetry_equiv_pos_site_id
 _symmetry_equiv_pos_as_xyz
  1  'x, y, z'
loop_
 _atom_site_type_symbol
 _atom_site_label
 _atom_site_symmetry_multiplicity
 _atom_site_fract_x
 _atom_site_fract_y
 _atom_site_fract_z
 _atom_site_occupancy
  Sc  Sc0  1  0.84473034  0.84311226  0.84473034  1
  Sc  Sc1  1  0.53189995  0.15666502  0.15476901  1
  Sc  Sc2  1  0.15476901  0.15666502  0.53189995  1
  Sc  Sc3  1  0.15526966  0.53257293  0.15526966  1
  Sc  Sc4  1  0.84523099  0.84333498  0.46810005  1
  Sc  Sc5  1  0.84473034  0.46742707  0.84473034  1
  Sc  Sc6  1  0.46810005  0.84333498  0.84523099  1
  Sc  Sc7  1  0.15526966  0.15688774  0.15526966  1
  Sc  Sc8  1  0.19739879  0.80260121  0.19739879  1
  Sc  Sc9  1  0.19673159  0.80371847  0.80326841  1
  Sc  Sc10  1  0.80326841  0.19628153  0.19673159  1
  Sc  Sc11  1  0.80326841  0.80371847  0.19673159  1
  Sc  Sc12  1  0.19673159  0.19628153  0.80326841  1
  Sc  Sc13  1  0.80260121  0.19739879  0.80260121  1
  Sc  Sc14  1  0.38379485  0.38285474  0.38379485  1
  Sc  Sc15  1  0.15030500  0.61557297  0.61855006  1
  Sc  Sc16  1  0.61620515  0.15044644  0.61620515  1
  Sc  Sc17  1  0.61855006  0.61557297  0.15030500  1
  Sc  Sc18  1  0.38379485  0.84955356  0.38379485  1
  Sc  Sc19  1  0.38144994  0.38442703  0.84969500  1
  Sc  Sc20  1  0.84969500  0.38442703  0.38144994  1
  Sc  Sc21  1  0.61620515  0.61714526  0.61620515  1
  Tc  Tc0  1  0.50000000  0.00000000  0.50000000  1
  Tc  Tc1  1  0.00000000  0.00000000  0.00000000  1
  Ir  Ir0  1  0.50000000  0.50000000  0.00000000  1
  Ir  Ir1  1  0.00000000  0.00000000  0.50000000  1
  Ir  Ir2  1  0.00000000  0.50000000  0.50000000  1
  Ir  Ir3  1  0.50000000  0.00000000  0.00000000  1
  Os  Os0  1  0.00000000  0.50000000  0.00000000  1
  Os  Os1  1  0.50000000  0.50000000  0.50000000  1
loop_
_geom_bond_atom_site_label_1
_geom_bond_atom_site_label_2
_geom_bond_distance
_geom_bond_site_symmetry_2
Sc1 Tc0 2.751523 1_555
Sc2 Tc0 2.751523 1_555
Sc4 Tc0 2.751523 1_565
Sc6 Tc0 2.751523 1_565
Sc8 Tc1 2.639863 1_565
Sc9 Tc1 2.630818 1_566
Sc10 Tc1 2.630818 1_655
Sc11 Tc1 2.630818 1_665
Sc12 Tc1 2.630818 1_556
Sc13 Tc1 2.639863 1_656
Sc14 Tc0 2.966074 1_555
Sc16 Tc0 2.966090 1_555
Sc18 Tc0 2.966090 1_565
Sc21 Tc0 2.966074 1_565
Ir0 Sc6 2.739718 1_554
Ir0 Sc1 2.739718 1_555
Ir0 Sc5 2.746576 1_554
Ir0 Sc3 2.746576 1_555
Ir0 Sc14 2.969567 1_555
Ir0 Sc21 2.969567 1_554
Ir0 Sc17 2.977382 1_555
Ir0 Sc19 2.977382 1_554
Ir1 Sc2 2.739710 1_555
Ir1 Sc4 2.739710 1_445
Ir1 Sc0 2.746576 1_445
Ir1 Sc7 2.746576 1_555
Ir1 Sc18 2.969568 1_545
Ir1 Sc16 2.969568 1_455
Ir1 Sc20 2.977375 1_455
Ir1 Sc15 2.977375 1_545
Ir2 Sc4 2.739718 1_455
Ir2 Sc2 2.739718 1_555
Ir2 Sc5 2.746576 1_455
Ir2 Sc3 2.746576 1_555
Ir2 Sc14 2.969567 1_555
Ir2 Sc21 2.969567 1_455
Ir2 Sc15 2.977382 1_555
Ir2 Sc20 2.977382 1_455
Ir3 Sc1 2.739710 1_555
Ir3 Sc6 2.739710 1_544
Ir3 Sc0 2.746576 1_544
Ir3 Sc7 2.746576 1_555
Ir3 Sc18 2.969568 1_545
Ir3 Sc16 2.969568 1_554
Ir3 Sc19 2.977375 1_554
Ir3 Sc17 2.977375 1_545
Os0 Sc3 2.734789 1_555
Os0 Sc5 2.734789 1_454
Os0 Sc7 2.734789 1_555
Os0 Sc0 2.734789 1_454
Os0 Sc19 2.951883 1_554
Os0 Sc17 2.951883 1_455
Os0 Sc20 2.951883 1_455
Os0 Sc15 2.951883 1_554
Os1 Sc20 2.700562 1_555
Os1 Sc15 2.700562 1_555
Os1 Sc17 2.700562 1_555
Os1 Sc19 2.700562 1_555
Os1 Sc18 2.702395 1_555
Os1 Sc16 2.702395 1_555
Os1 Sc21 2.702411 1_555
Os1 Sc14 2.702411 1_555
