# generated using pymatgen
data_CdBiRu2O7
_symmetry_space_group_name_H-M   'P 1'
_cell_length_a   7.21335809
_cell_length_b   7.21335739
_cell_length_c   7.21335827
_cell_angle_alpha   119.12518786
_cell_angle_beta   120.69940164
_cell_angle_gamma   90.15737000
_symmetry_Int_Tables_number   1
_chemical_formula_structural   CdBiRu2O7
_chemical_formula_sum   'Cd2 Bi2 Ru4 O14'
_cell_volume   265.68613785
_cell_formula_units_Z   2
loop_
 _symmetry_equiv_pos_site_id
 _symmetry_equiv_pos_as_xyz
  1  'x, y, z'
loop_
 _atom_site_type_symbol
 _atom_site_label
 _atom_site_symmetry_multiplicity
 _atom_site_fract_x
 _atom_site_fract_y
 _atom_site_fract_z
 _atom_site_occupancy
  Cd  Cd0  1  0.50000000  0.50000000  0.00000000  1
  Cd  Cd1  1  0.00000000  0.50000000  0.50000000  1
  Bi  Bi0  1  0.50000000  0.50000000  0.50000000  1
  Bi  Bi1  1  0.50000000  0.00000000  0.00000000  1
  Ru  Ru0  1  0.00000000  0.00000000  0.50000000  1
  Ru  Ru1  1  0.00000000  0.50000000  0.00000000  1
  Ru  Ru2  1  0.00000000  0.00000000  0.00000000  1
  Ru  Ru3  1  0.50000000  0.00000000  0.50000000  1
  O  O0  1  0.32552755  0.06384094  0.64804002  1
  O  O1  1  0.91580092  0.06384094  0.23831439  1
  O  O2  1  0.92546078  0.67546078  0.25000000  1
  O  O3  1  0.91580092  0.67748553  0.85195998  1
  O  O4  1  0.32552755  0.67748553  0.26168561  1
  O  O5  1  0.33005916  0.08005916  0.25000000  1
  O  O6  1  0.67447245  0.93615906  0.35195998  1
  O  O7  1  0.08419908  0.93615906  0.76168561  1
  O  O8  1  0.07453922  0.32453922  0.75000000  1
  O  O9  1  0.08419908  0.32251447  0.14804002  1
  O  O10  1  0.67447245  0.32251447  0.73831439  1
  O  O11  1  0.66994084  0.91994084  0.75000000  1
  O  O12  1  0.63230927  0.38230927  0.25000000  1
  O  O13  1  0.36769073  0.61769073  0.75000000  1
loop_
_geom_bond_atom_site_label_1
_geom_bond_atom_site_label_2
_geom_bond_distance
_geom_bond_site_symmetry_2
Cd0 O13 2.149646 1_554
Cd0 O12 2.149646 1_555
Cd0 O2 2.525573 1_555
Cd0 O8 2.525573 1_554
Cd0 O4 2.620726 1_555
Cd0 O10 2.620726 1_554
Cd0 O6 2.620733 1_555
Cd0 O0 2.620733 1_554
Cd1 O13 2.149646 1_555
Cd1 O12 2.149646 1_455
Cd1 O2 2.525573 1_455
Cd1 O8 2.525573 1_555
Cd1 O7 2.620733 1_555
Cd1 O1 2.620733 1_455
Cd1 O3 2.620733 1_455
Cd1 O9 2.620733 1_555
Bi0 O12 2.270494 1_555
Bi0 O13 2.270494 1_555
Bi0 O10 2.473921 1_555
Bi0 O4 2.473921 1_555
Bi0 O3 2.473928 1_555
Bi0 O9 2.473928 1_555
Bi0 O11 2.517050 1_555
Bi0 O5 2.517050 1_555
Bi1 O12 2.270494 1_555
Bi1 O13 2.270494 1_544
Bi1 O1 2.473928 1_555
Bi1 O7 2.473928 1_544
Bi1 O6 2.473929 1_545
Bi1 O0 2.473929 1_554
Bi1 O5 2.517051 1_555
Bi1 O11 2.517051 1_544
O0 Ru0 1.954796 1_555
O0 Ru3 1.957818 1_555
O1 Ru0 1.954789 1_655
O1 Ru2 1.957824 1_655
O2 Ru0 1.978640 1_665
O2 Ru1 1.978641 1_655
O3 Ru1 1.954782 1_656
O3 Ru2 1.957831 1_666
O4 Ru1 1.954793 1_555
O4 Ru3 1.957828 1_565
O5 Ru3 1.961808 1_555
O5 Ru2 1.961808 1_555
O6 Ru0 1.954796 1_665
O6 Ru3 1.957818 1_565
O7 Ru0 1.954789 1_565
O7 Ru2 1.957824 1_566
O8 Ru0 1.978640 1_555
O8 Ru1 1.978641 1_556
O9 Ru1 1.954782 1_555
O9 Ru2 1.957831 1_555
O10 Ru1 1.954793 1_656
O10 Ru3 1.957828 1_555
O11 Ru3 1.961808 1_565
O11 Ru2 1.961808 1_666
