# generated using pymatgen
data_Ti8Al14SiPt7
_symmetry_space_group_name_H-M   'P 1'
_cell_length_a   8.66006258
_cell_length_b   8.66006309
_cell_length_c   8.66006260
_cell_angle_alpha   120.08247300
_cell_angle_beta   119.85625104
_cell_angle_gamma   90.05318601
_symmetry_Int_Tables_number   1
_chemical_formula_structural   Ti8Al14SiPt7
_chemical_formula_sum   'Ti8 Al14 Si1 Pt7'
_cell_volume   459.45912101
_cell_formula_units_Z   1
loop_
 _symmetry_equiv_pos_site_id
 _symmetry_equiv_pos_as_xyz
  1  'x, y, z'
loop_
 _atom_site_type_symbol
 _atom_site_label
 _atom_site_symmetry_multiplicity
 _atom_site_fract_x
 _atom_site_fract_y
 _atom_site_fract_z
 _atom_site_occupancy
  Ti  Ti0  1  0.79095098  0.29667286  0.09419372  1
  Ti  Ti1  1  0.20248114  0.29667286  0.50572188  1
  Ti  Ti2  1  0.21099875  0.71099875  0.50000000  1
  Ti  Ti3  1  0.20248114  0.69675825  0.90580628  1
  Ti  Ti4  1  0.79095098  0.69675825  0.49427812  1
  Ti  Ti5  1  0.80058390  0.30058390  0.50000000  1
  Ti  Ti6  1  0.38100452  0.12167235  0.74066784  1
  Ti  Ti7  1  0.38100452  0.64033668  0.25933216  1
  Al  Al0  1  0.15898559  0.34377506  0.18478847  1
  Al  Al1  1  0.15898559  0.97419611  0.81521153  1
  Al  Al2  1  0.16242381  0.33656533  0.82585748  1
  Al  Al3  1  0.51070785  0.33656533  0.17414252  1
  Al  Al4  1  0.84005019  0.66145816  0.82140897  1
  Al  Al5  1  0.84005019  0.01864222  0.17859103  1
  Al  Al6  1  0.84112960  0.65928236  0.18184723  1
  Al  Al7  1  0.47743413  0.65928236  0.81815277  1
  Al  Al8  1  0.37913576  0.11964597  0.25948980  1
  Al  Al9  1  0.86015717  0.11964597  0.74051020  1
  Al  Al10  1  0.62125756  0.87835932  0.25710176  1
  Al  Al11  1  0.62125756  0.36415581  0.74289824  1
  Al  Al12  1  0.62304237  0.88011413  0.74292824  1
  Al  Al13  1  0.13718589  0.88011413  0.25707176  1
  Si  Si0  1  0.00603979  0.50603979  0.50000000  1
  Pt  Pt0  1  0.99556609  0.00018307  0.49889734  1
  Pt  Pt1  1  0.50128573  0.00018307  0.00461698  1
  Pt  Pt2  1  0.50188841  0.50188841  0.00000000  1
  Pt  Pt3  1  0.50128573  0.49666875  0.50110266  1
  Pt  Pt4  1  0.99556609  0.49666875  0.99538302  1
  Pt  Pt5  1  0.00245683  0.00245683  1.00000000  1
  Pt  Pt6  1  0.50364616  0.00364616  0.50000000  1
loop_
_geom_bond_atom_site_label_1
_geom_bond_atom_site_label_2
_geom_bond_distance
_geom_bond_site_symmetry_2
Al0 Pt5 2.495228 1_554
Al0 Pt4 2.513155 1_454
Al0 Pt3 2.513162 1_555
Al1 Pt5 2.495219 1_565
Al1 Pt1 2.513160 1_566
Al1 Pt0 2.513168 1_465
Al2 Pt0 2.498199 1_455
Al2 Pt4 2.498206 1_455
Al2 Pt2 2.525855 1_556
Al3 Pt3 2.498199 1_555
Al3 Pt1 2.498199 1_555
Al3 Pt2 2.525863 1_555
Al4 Pt4 2.501810 1_555
Al4 Pt3 2.501818 1_555
Al4 Pt5 2.517661 1_665
Al5 Pt1 2.501816 1_555
Al5 Pt0 2.501823 1_555
Al5 Pt5 2.517652 1_654
Al6 Pt2 2.490607 1_555
Al6 Pt4 2.500702 1_554
Al6 Pt0 2.500702 1_565
Al7 Pt2 2.490605 1_556
Al7 Pt1 2.500700 1_566
Al7 Pt3 2.500707 1_555
Al8 Pt6 2.524577 1_555
Al8 Pt1 2.664329 1_555
Al8 Pt3 2.664329 1_555
Al8 Pt5 2.670178 1_554
Al9 Pt6 2.524584 1_555
Al9 Pt0 2.664322 1_555
Al9 Pt4 2.664329 1_555
Al9 Pt5 2.670177 1_655
Al10 Pt6 2.546879 1_565
Al10 Pt0 2.650685 1_565
Al10 Pt1 2.650686 1_565
Al10 Pt2 2.660883 1_555
Al11 Pt6 2.546879 1_555
Al11 Pt4 2.650685 1_555
Al11 Pt3 2.650686 1_555
Al11 Pt2 2.660883 1_556
Al12 Pt6 2.594592 1_565
Al12 Pt5 2.687146 1_665
Al12 Pt1 2.710671 1_566
Al12 Pt3 2.710671 1_555
Al13 Pt6 2.594592 1_565
Al13 Pt5 2.687146 1_564
Al13 Pt0 2.710671 1_465
Al13 Pt4 2.710671 1_454
Si0 Ti3 2.489129 1_555
Si0 Ti0 2.489130 1_455
Si0 Ti4 2.489135 1_455
Si0 Ti1 2.489141 1_555
Si0 Ti2 2.509004 1_555
Si0 Ti5 2.515087 1_455
Pt0 Ti6 2.731153 1_655
Pt1 Ti6 2.731153 1_554
Pt2 Ti7 2.687192 1_555
Pt2 Ti6 2.687192 1_554
Pt3 Ti7 2.731153 1_555
Pt4 Ti7 2.731153 1_656
Pt6 Ti6 2.566517 1_555
Pt6 Ti7 2.566517 1_545
