# generated using pymatgen
data_Zr10Sn5Ge2Sb
_symmetry_space_group_name_H-M   'P 1'
_cell_length_a   8.69697383
_cell_length_b   8.70659097
_cell_length_c   5.88120623
_cell_angle_alpha   90.00000000
_cell_angle_beta   90.00000000
_cell_angle_gamma   120.03659035
_symmetry_Int_Tables_number   1
_chemical_formula_structural   Zr10Sn5Ge2Sb
_chemical_formula_sum   'Zr10 Sn5 Ge2 Sb1'
_cell_volume   385.52549168
_cell_formula_units_Z   1
loop_
 _symmetry_equiv_pos_site_id
 _symmetry_equiv_pos_as_xyz
  1  'x, y, z'
loop_
 _atom_site_type_symbol
 _atom_site_label
 _atom_site_symmetry_multiplicity
 _atom_site_fract_x
 _atom_site_fract_y
 _atom_site_fract_z
 _atom_site_occupancy
  Zr  Zr0  1  0.66743124  0.33340845  0.99941401  1
  Zr  Zr1  1  0.33256876  0.66597821  0.99941401  1
  Zr  Zr2  1  0.33256876  0.66597821  0.50058599  1
  Zr  Zr3  1  0.66743124  0.33340845  0.50058599  1
  Zr  Zr4  1  0.73666898  0.73656240  0.75000000  1
  Zr  Zr5  1  0.26333102  0.99989342  0.75000000  1
  Zr  Zr6  1  1.00000000  0.26418325  0.75000000  1
  Zr  Zr7  1  0.26109487  0.26143581  0.25000000  1
  Zr  Zr8  1  0.73890513  0.00034095  0.25000000  1
  Zr  Zr9  1  0.00000000  0.73749304  0.25000000  1
  Sn  Sn0  1  0.39368487  0.39307832  0.75000000  1
  Sn  Sn1  1  0.60631513  0.99939345  0.75000000  1
  Sn  Sn2  1  1.00000000  0.60875426  0.75000000  1
  Sn  Sn3  1  0.60574411  0.60559226  0.25000000  1
  Sn  Sn4  1  0.39425589  0.99984816  0.25000000  1
  Ge  Ge0  1  0.00000000  0.99957830  0.99849999  1
  Ge  Ge1  1  0.00000000  0.99957830  0.50150001  1
  Sb  Sb0  1  0.00000000  0.39549575  0.25000000  1
loop_
_geom_bond_atom_site_label_1
_geom_bond_atom_site_label_2
_geom_bond_distance
_geom_bond_site_symmetry_2
Sn0 Zr4 2.985105 1_555
Sn0 Zr5 3.019767 1_545
Sn0 Zr6 3.022522 1_455
Sn0 Zr0 3.054150 1_555
Sn0 Zr3 3.054150 1_555
Sn0 Zr1 3.056797 1_555
Sn0 Zr2 3.056797 1_555
Sn0 Zr7 3.157120 1_555
Sn0 Zr7 3.157120 1_556
Sn1 Zr5 2.985105 1_555
Sn1 Zr4 3.019767 1_555
Sn1 Zr6 3.022522 1_565
Sn1 Zr1 3.054145 1_555
Sn1 Zr2 3.054145 1_555
Sn1 Zr0 3.056789 1_565
Sn1 Zr3 3.056789 1_565
Sn1 Zr8 3.157120 1_565
Sn1 Zr8 3.157120 1_566
Sn2 Zr6 3.000039 1_555
Sn2 Zr5 3.005740 1_655
Sn2 Zr4 3.005740 1_555
Sn2 Zr1 3.053343 1_655
Sn2 Zr2 3.053343 1_655
Sn2 Zr0 3.053345 1_555
Sn2 Zr3 3.053345 1_555
Sn2 Zr9 3.146984 1_655
Sn2 Zr9 3.146984 1_656
Sn3 Zr7 2.995260 1_555
Sn3 Zr9 3.022199 1_655
Sn3 Zr8 3.028018 1_565
Sn3 Zr2 3.056672 1_555
Sn3 Zr1 3.056672 1_554
Sn3 Zr3 3.057524 1_555
Sn3 Zr0 3.057524 1_554
Sn3 Zr4 3.153430 1_554
Sn3 Zr4 3.153430 1_555
Sn4 Zr8 2.995260 1_565
Sn4 Zr9 3.022199 1_555
Sn4 Zr7 3.028018 1_565
Sn4 Zr3 3.056667 1_565
Sn4 Zr0 3.056667 1_564
Sn4 Zr2 3.057517 1_555
Sn4 Zr1 3.057517 1_554
Sn4 Zr5 3.153430 1_555
Sn4 Zr5 3.153430 1_554
Ge0 Zr7 2.712781 1_566
Ge0 Zr8 2.712781 1_466
Ge0 Zr4 2.715617 1_455
Ge0 Zr5 2.715617 1_555
Ge0 Zr9 2.719326 1_556
Ge0 Zr6 2.728269 1_465
Ge1 Zr7 2.712781 1_565
Ge1 Zr8 2.712781 1_465
Ge1 Zr4 2.715617 1_455
Ge1 Zr5 2.715617 1_555
Ge1 Zr9 2.719326 1_555
Ge1 Zr6 2.728269 1_465
Sb0 Zr9 2.977630 1_555
Sb0 Zr8 3.028523 1_455
Sb0 Zr7 3.028523 1_555
Sb0 Zr3 3.043772 1_455
Sb0 Zr0 3.043772 1_454
Sb0 Zr2 3.043775 1_555
Sb0 Zr1 3.043775 1_554
Sb0 Zr6 3.155035 1_455
Sb0 Zr6 3.155035 1_454
