# generated using pymatgen
data_HfCu2Ir3S8
_symmetry_space_group_name_H-M   'P 1'
_cell_length_a   6.84484398
_cell_length_b   6.84484384
_cell_length_c   6.84484421
_cell_angle_alpha   63.64692138
_cell_angle_beta   63.64692264
_cell_angle_gamma   63.64692552
_symmetry_Int_Tables_number   1
_chemical_formula_structural   HfCu2Ir3S8
_chemical_formula_sum   'Hf1 Cu2 Ir3 S8'
_cell_volume   245.03083487
_cell_formula_units_Z   1
loop_
 _symmetry_equiv_pos_site_id
 _symmetry_equiv_pos_as_xyz
  1  'x, y, z'
loop_
 _atom_site_type_symbol
 _atom_site_label
 _atom_site_symmetry_multiplicity
 _atom_site_fract_x
 _atom_site_fract_y
 _atom_site_fract_z
 _atom_site_occupancy
  Hf  Hf0  1  0.62500000  0.62500000  0.62500000  1
  Cu  Cu0  1  0.00624627  0.00624627  0.00624627  1
  Cu  Cu1  1  0.24375373  0.24375373  0.24375373  1
  Ir  Ir0  1  0.62500000  0.62500000  0.12500000  1
  Ir  Ir1  1  0.12500000  0.62500000  0.62500000  1
  Ir  Ir2  1  0.62500000  0.12500000  0.62500000  1
  S  S0  1  0.37235506  0.37235506  0.85755951  1
  S  S1  1  0.38478276  0.38478276  0.38478276  1
  S  S2  1  0.86521724  0.86521724  0.86521724  1
  S  S3  1  0.87764494  0.87764494  0.39244049  1
  S  S4  1  0.37235506  0.85755951  0.37235506  1
  S  S5  1  0.85755951  0.37235506  0.37235506  1
  S  S6  1  0.39244049  0.87764494  0.87764494  1
  S  S7  1  0.87764494  0.39244049  0.87764494  1
loop_
_geom_bond_atom_site_label_1
_geom_bond_atom_site_label_2
_geom_bond_distance
_geom_bond_site_symmetry_2
Hf0 S3 2.506420 1_555
Hf0 S0 2.506420 1_555
Hf0 S7 2.506420 1_555
Hf0 S4 2.506420 1_555
Hf0 S6 2.506420 1_555
Hf0 S5 2.506420 1_555
Cu0 S7 2.256928 1_454
Cu0 S3 2.256928 1_445
Cu0 S6 2.256928 1_544
Cu0 S2 2.297265 1_444
Cu1 S4 2.256928 1_545
Cu1 S0 2.256928 1_554
Cu1 S5 2.256928 1_455
Cu1 S1 2.297265 1_555
Ir0 S5 2.395933 1_555
Ir0 S6 2.395933 1_554
Ir0 S4 2.395933 1_555
Ir0 S7 2.395933 1_554
Ir0 S2 2.403704 1_554
Ir0 S1 2.403704 1_555
Ir1 S4 2.395932 1_555
Ir1 S7 2.395932 1_455
Ir1 S0 2.395933 1_555
Ir1 S3 2.395933 1_455
Ir1 S2 2.403704 1_455
Ir1 S1 2.403704 1_555
Ir2 S5 2.395932 1_555
Ir2 S6 2.395932 1_545
Ir2 S0 2.395933 1_555
Ir2 S3 2.395933 1_545
Ir2 S2 2.403704 1_545
Ir2 S1 2.403704 1_555
