# generated using pymatgen
data_InRhBr6
_symmetry_space_group_name_H-M   'P 1'
_cell_length_a   6.61718330
_cell_length_b   6.61718228
_cell_length_c   6.75374871
_cell_angle_alpha   80.88195678
_cell_angle_beta   80.88196060
_cell_angle_gamma   119.88067612
_symmetry_Int_Tables_number   1
_chemical_formula_structural   InRhBr6
_chemical_formula_sum   'In1 Rh1 Br6'
_cell_volume   243.24428683
_cell_formula_units_Z   1
loop_
 _symmetry_equiv_pos_site_id
 _symmetry_equiv_pos_as_xyz
  1  'x, y, z'
loop_
 _atom_site_type_symbol
 _atom_site_label
 _atom_site_symmetry_multiplicity
 _atom_site_fract_x
 _atom_site_fract_y
 _atom_site_fract_z
 _atom_site_occupancy
  In  In0  1  0.83314209  0.16685791  0.00000000  1
  Rh  Rh0  1  0.16676466  0.83323534  1.00000000  1
  Br  Br0  1  0.40290523  0.06149245  0.22749583  1
  Br  Br1  1  0.54998059  0.91457101  0.77116363  1
  Br  Br2  1  0.93850755  0.59709477  0.77250417  1
  Br  Br3  1  0.08542899  0.45001941  0.22883637  1
  Br  Br4  1  0.79196048  0.76868958  0.22930830  1
  Br  Br5  1  0.23131042  0.20803952  0.77069170  1
loop_
_geom_bond_atom_site_label_1
_geom_bond_atom_site_label_2
_geom_bond_distance
_geom_bond_site_symmetry_2
Br0 Rh0 2.495697 1_544
Br0 In0 2.692265 1_555
Br1 Rh0 2.498592 1_555
Br1 In0 2.702816 1_566
Br2 Rh0 2.495697 1_655
Br2 In0 2.692264 1_556
Br3 Rh0 2.498592 1_554
Br3 In0 2.702816 1_455
Br4 Rh0 2.499906 1_654
Br4 In0 2.696708 1_565
Br5 Rh0 2.499905 1_545
Br5 In0 2.696708 1_456
