# generated using pymatgen
data_Cs2Mg3SnAs4
_symmetry_space_group_name_H-M   'P 1'
_cell_length_a   8.25816904
_cell_length_b   8.25816911
_cell_length_c   6.28658783
_cell_angle_alpha   90.00000000
_cell_angle_beta   90.00000000
_cell_angle_gamma   135.20573783
_symmetry_Int_Tables_number   1
_chemical_formula_structural   Cs2Mg3SnAs4
_chemical_formula_sum   'Cs2 Mg3 Sn1 As4'
_cell_volume   302.06642213
_cell_formula_units_Z   1
loop_
 _symmetry_equiv_pos_site_id
 _symmetry_equiv_pos_as_xyz
  1  'x, y, z'
loop_
 _atom_site_type_symbol
 _atom_site_label
 _atom_site_symmetry_multiplicity
 _atom_site_fract_x
 _atom_site_fract_y
 _atom_site_fract_z
 _atom_site_occupancy
  Cs  Cs0  1  0.50000000  0.00000000  0.24605405  1
  Cs  Cs1  1  0.00000000  0.50000000  0.75394595  1
  Mg  Mg0  1  0.50000000  0.50000000  0.50000000  1
  Mg  Mg1  1  0.50000000  0.50000000  0.00000000  1
  Mg  Mg2  1  0.00000000  0.00000000  0.50000000  1
  Sn  Sn0  1  0.00000000  0.00000000  0.00000000  1
  As  As0  1  0.65494313  0.85346415  0.75416823  1
  As  As1  1  0.14653585  0.34505687  0.24583177  1
  As  As2  1  0.85346415  0.65494313  0.24583177  1
  As  As3  1  0.34505687  0.14653585  0.75416823  1
loop_
_geom_bond_atom_site_label_1
_geom_bond_atom_site_label_2
_geom_bond_distance
_geom_bond_site_symmetry_2
Mg1 Sn0 3.146561 1_665
Mg1 Sn0 3.146561 1_555
Mg2 Sn0 3.143294 1_556
Mg2 Sn0 3.143294 1_555
As0 Sn0 2.660558 1_666
As0 Mg2 2.691338 1_665
As0 Mg1 2.691662 1_556
As0 Mg0 2.722091 1_555
As0 Cs0 3.855057 1_566
As0 Cs1 3.877321 1_665
As0 Cs1 3.920022 1_555
As0 Cs0 3.937363 1_565
As1 Sn0 2.660558 1_555
As1 Mg2 2.691338 1_555
As1 Mg1 2.691662 1_555
As1 Mg0 2.722091 1_555
As1 Cs1 3.855057 1_554
As1 Cs0 3.877321 1_455
As1 Cs0 3.920022 1_565
As1 Cs1 3.937363 1_555
As2 Sn0 2.660558 1_665
As2 Mg2 2.691338 1_665
As2 Mg1 2.691662 1_555
As2 Mg0 2.722091 1_555
As2 Cs1 3.855057 1_654
As2 Cs0 3.877321 1_665
As2 Cs0 3.920022 1_555
As2 Cs1 3.937363 1_655
As3 Sn0 2.660558 1_556
As3 Mg2 2.691338 1_555
As3 Mg1 2.691662 1_556
As3 Mg0 2.722091 1_555
As3 Cs0 3.855057 1_556
As3 Cs1 3.877321 1_545
As3 Cs1 3.920022 1_655
As3 Cs0 3.937363 1_555
