# generated using pymatgen
data_Na8Si3SnSe12
_symmetry_space_group_name_H-M   'P 1'
_cell_length_a   16.06171250
_cell_length_b   6.08445386
_cell_length_c   7.13905636
_cell_angle_alpha   65.94836091
_cell_angle_beta   89.81355025
_cell_angle_gamma   90.22507651
_symmetry_Int_Tables_number   1
_chemical_formula_structural   Na8Si3SnSe12
_chemical_formula_sum   'Na8 Si3 Sn1 Se12'
_cell_volume   637.08950662
_cell_formula_units_Z   1
loop_
 _symmetry_equiv_pos_site_id
 _symmetry_equiv_pos_as_xyz
  1  'x, y, z'
loop_
 _atom_site_type_symbol
 _atom_site_label
 _atom_site_symmetry_multiplicity
 _atom_site_fract_x
 _atom_site_fract_y
 _atom_site_fract_z
 _atom_site_occupancy
  Na  Na0  1  0.33184692  0.47744632  0.56240695  1
  Na  Na1  1  0.83529671  0.03043561  0.42909549  1
  Na  Na2  1  0.66928534  0.52375118  0.44528747  1
  Na  Na3  1  0.16452026  0.97108263  0.57077539  1
  Na  Na4  1  0.97591761  0.33785792  0.78180193  1
  Na  Na5  1  0.52226706  0.85050061  0.77540278  1
  Na  Na6  1  0.47082079  0.17103370  0.21015588  1
  Na  Na7  1  0.03202445  0.66629183  0.21810347  1
  Si  Si0  1  0.66751867  0.15147836  0.03940485  1
  Si  Si1  1  0.17244469  0.34237108  0.96243306  1
  Si  Si2  1  0.32685270  0.84435281  0.96148681  1
  Sn  Sn0  1  0.83164771  0.66500342  0.03029679  1
  Se  Se0  1  0.14794797  0.44343550  0.62858645  1
  Se  Se1  1  0.64484826  0.06003923  0.37342328  1
  Se  Se2  1  0.85969491  0.54741234  0.40123168  1
  Se  Se3  1  0.35157863  0.94782358  0.62676281  1
  Se  Se4  1  0.80282960  0.28941752  0.95487532  1
  Se  Se5  1  0.30307833  0.17052871  0.04578851  1
  Se  Se6  1  0.19603990  0.66974023  0.04538513  1
  Se  Se7  1  0.68050917  0.81074640  0.97291991  1
  Se  Se8  1  0.06741767  0.16713347  0.18116909  1
  Se  Se9  1  0.56628562  0.34401894  0.81964591  1
  Se  Se10  1  0.94829135  0.84820497  0.78577997  1
  Se  Se11  1  0.43103269  0.66989566  0.17778306  1
loop_
_geom_bond_atom_site_label_1
_geom_bond_atom_site_label_2
_geom_bond_distance
_geom_bond_site_symmetry_2
Na0 Se11 2.963921 1_555
Na0 Se0 2.982783 1_555
Na0 Se3 3.081878 1_545
Na0 Se3 3.093241 1_555
Na0 Se5 3.215495 1_556
Na1 Se10 2.958345 1_545
Na1 Se2 3.052136 1_545
Na1 Se1 3.082424 1_555
Na1 Se2 3.093092 1_555
Na1 Se4 3.144198 1_554
Na2 Se9 2.941105 1_555
Na2 Se2 3.070218 1_555
Na2 Se1 3.090351 1_555
Na2 Se7 3.106038 1_554
Na2 Se1 3.116308 1_565
Na3 Se8 2.988325 1_565
Na3 Se3 3.028485 1_555
Na3 Se0 3.075821 1_555
Na3 Se0 3.077867 1_565
Na3 Se6 3.170645 1_556
Na4 Se0 2.938956 1_655
Na4 Se8 2.998813 1_656
Na4 Se10 2.999053 1_545
Na4 Se4 3.002798 1_555
Na4 Se2 3.117696 1_555
Na4 Se10 3.149998 1_555
Na5 Se7 2.873485 1_555
Na5 Se3 2.917580 1_555
Na5 Se11 2.998949 1_556
Na5 Se9 3.053106 1_555
Na5 Se9 3.220908 1_565
Na5 Se1 3.270865 1_565
Na6 Se5 2.942664 1_555
Na6 Se9 2.966282 1_554
Na6 Se1 3.003678 1_555
Na6 Se11 3.019814 1_555
Na6 Se11 3.212351 1_545
Na6 Se3 3.317882 1_545
Na7 Se6 2.901393 1_555
Na7 Se8 3.001578 1_565
Na7 Se2 3.013902 1_455
Na7 Se10 3.132691 1_454
Na7 Se8 3.206564 1_555
Na7 Se0 3.272524 1_555
Se0 Si1 2.242026 1_555
Se1 Si0 2.244924 1_555
Se2 Sn0 2.488639 1_555
Se3 Si2 2.242745 1_555
Se4 Si0 2.314347 1_556
Se4 Sn0 2.592826 1_556
Se5 Si1 2.316888 1_554
Se5 Si2 2.329100 1_544
Se6 Si2 2.314647 1_554
Se6 Si1 2.327847 1_554
Se7 Si0 2.317689 1_566
Se7 Sn0 2.564062 1_556
Se8 Si1 2.243340 1_554
Se9 Si0 2.238528 1_556
Se10 Sn0 2.485142 1_556
Se11 Si2 2.237370 1_554
