# generated using pymatgen
data_Cs5K(SiTe3)2
_symmetry_space_group_name_H-M   'P 1'
_cell_length_a   8.57611447
_cell_length_b   9.10765366
_cell_length_c   9.50774963
_cell_angle_alpha   74.77648471
_cell_angle_beta   75.49198574
_cell_angle_gamma   109.06908241
_symmetry_Int_Tables_number   1
_chemical_formula_structural   Cs5K(SiTe3)2
_chemical_formula_sum   'Cs5 K1 Si2 Te6'
_cell_volume   629.51981778
_cell_formula_units_Z   1
loop_
 _symmetry_equiv_pos_site_id
 _symmetry_equiv_pos_as_xyz
  1  'x, y, z'
loop_
 _atom_site_type_symbol
 _atom_site_label
 _atom_site_symmetry_multiplicity
 _atom_site_fract_x
 _atom_site_fract_y
 _atom_site_fract_z
 _atom_site_occupancy
  Cs  Cs0  1  0.22757147  0.21465714  0.32355720  1
  Cs  Cs1  1  0.00000000  0.50000000  0.00000000  1
  Cs  Cs2  1  0.67259687  0.34140234  0.49361087  1
  Cs  Cs3  1  0.32740313  0.65859766  0.50638913  1
  Cs  Cs4  1  0.77242853  0.78534286  0.67644280  1
  K  K0  1  0.50000000  0.00000000  0.00000000  1
  Si  Si0  1  0.10300455  0.09695834  0.86970736  1
  Si  Si1  1  0.89699545  0.90304166  0.13029264  1
  Te  Te0  1  0.64539789  0.66778598  0.12086634  1
  Te  Te1  1  0.35460211  0.33221402  0.87913366  1
  Te  Te2  1  0.76079368  0.05211861  0.27857113  1
  Te  Te3  1  0.93663648  0.22005468  0.72546340  1
  Te  Te4  1  0.23920632  0.94788139  0.72142887  1
  Te  Te5  1  0.06336352  0.77994532  0.27453660  1
loop_
_geom_bond_atom_site_label_1
_geom_bond_atom_site_label_2
_geom_bond_distance
_geom_bond_site_symmetry_2
Cs0 Te1 3.839698 1_554
Cs0 Te5 3.940875 1_545
Cs0 Te2 3.964558 1_455
Cs0 Te4 3.967876 1_545
Cs0 Te3 4.028829 1_455
Cs0 Te0 4.035619 1_555
Cs1 Te4 3.741492 1_554
Cs1 Te2 3.741492 1_455
Cs1 Te0 3.887412 1_455
Cs1 Te1 3.887412 1_554
Cs1 Te5 4.112142 1_555
Cs1 Te3 4.112142 1_454
Cs2 Te3 3.750369 1_555
Cs2 Te4 3.812720 1_545
Cs2 Te5 3.861304 1_655
Cs2 Te2 3.879458 1_555
Cs2 Te1 3.944781 1_555
Cs2 Te0 4.096961 1_555
Cs3 Te5 3.750369 1_555
Cs3 Te2 3.812720 1_565
Cs3 Te3 3.861304 1_455
Cs3 Te4 3.879458 1_555
Cs3 Te0 3.944781 1_555
Cs3 Te1 4.096961 1_555
Cs4 Te0 3.839698 1_556
Cs4 Te3 3.940875 1_565
Cs4 Te4 3.964558 1_655
Cs4 Te2 3.967876 1_565
Cs4 Te5 4.028829 1_655
Cs4 Te1 4.035619 1_555
K0 Te3 3.507693 1_554
K0 Te5 3.507693 1_545
K0 Te1 3.658887 1_554
K0 Te0 3.658887 1_545
K0 Te2 3.895799 1_555
K0 Te4 3.895799 1_544
Si0 Si1 2.418474 1_446
Si0 Te3 2.528162 1_455
Si0 Te4 2.532165 1_545
Si0 Te1 2.536048 1_555
Si1 Te5 2.528162 1_655
Si1 Te2 2.532165 1_565
Si1 Te0 2.536048 1_555
