# generated using pymatgen
data_Si(Ag4Te3)2
_symmetry_space_group_name_H-M   'P 1'
_cell_length_a   8.20022876
_cell_length_b   8.26017632
_cell_length_c   11.69048690
_cell_angle_alpha   90.00000000
_cell_angle_beta   90.00000000
_cell_angle_gamma   90.00000000
_symmetry_Int_Tables_number   1
_chemical_formula_structural   Si(Ag4Te3)2
_chemical_formula_sum   'Si2 Ag16 Te12'
_cell_volume   791.85905175
_cell_formula_units_Z   2
loop_
 _symmetry_equiv_pos_site_id
 _symmetry_equiv_pos_as_xyz
  1  'x, y, z'
loop_
 _atom_site_type_symbol
 _atom_site_label
 _atom_site_symmetry_multiplicity
 _atom_site_fract_x
 _atom_site_fract_y
 _atom_site_fract_z
 _atom_site_occupancy
  Si  Si0  1  0.74767340  0.00000000  0.52078395  1
  Si  Si1  1  0.25232660  0.50000000  0.02078395  1
  Ag  Ag0  1  0.25570397  0.00000000  0.48061862  1
  Ag  Ag1  1  0.74429603  0.50000000  0.98061862  1
  Ag  Ag2  1  0.86485371  0.18134282  0.17599399  1
  Ag  Ag3  1  0.13514629  0.31865718  0.67599399  1
  Ag  Ag4  1  0.13514629  0.68134282  0.67599399  1
  Ag  Ag5  1  0.86485371  0.81865718  0.17599399  1
  Ag  Ag6  1  0.49405083  0.18786696  0.25157887  1
  Ag  Ag7  1  0.50594917  0.31213304  0.75157887  1
  Ag  Ag8  1  0.50594917  0.68786696  0.75157887  1
  Ag  Ag9  1  0.49405083  0.81213304  0.25157887  1
  Ag  Ag10  1  0.89900095  0.21458568  0.85889104  1
  Ag  Ag11  1  0.10099905  0.28541432  0.35889104  1
  Ag  Ag12  1  0.10099905  0.71458568  0.35889104  1
  Ag  Ag13  1  0.89900095  0.78541432  0.85889104  1
  Ag  Ag14  1  0.59416353  0.50000000  0.54521167  1
  Ag  Ag15  1  0.40583647  0.00000000  0.04521167  1
  Te  Te0  1  0.75047020  0.74643567  0.40342587  1
  Te  Te1  1  0.24952980  0.75356433  0.90342587  1
  Te  Te2  1  0.50020566  0.50000000  0.14379919  1
  Te  Te3  1  0.49979434  0.00000000  0.64379919  1
  Te  Te4  1  0.00542456  0.50000000  0.14743170  1
  Te  Te5  1  0.99457544  0.00000000  0.64743170  1
  Te  Te6  1  0.79361269  0.50000000  0.74529085  1
  Te  Te7  1  0.20638731  0.00000000  0.24529085  1
  Te  Te8  1  0.26481097  0.50000000  0.50088548  1
  Te  Te9  1  0.73518903  0.00000000  0.00088548  1
  Te  Te10  1  0.75047020  0.25356433  0.40342587  1
  Te  Te11  1  0.24952980  0.24643567  0.90342587  1
loop_
_geom_bond_atom_site_label_1
_geom_bond_atom_site_label_2
_geom_bond_distance
_geom_bond_site_symmetry_2
Si0 Te3 2.489956 1_555
Si0 Te10 2.503938 1_555
Si0 Te0 2.503938 1_545
Si0 Te5 2.508250 1_555
Si1 Te2 2.489956 1_555
Si1 Te1 2.503938 1_554
Si1 Te11 2.503938 1_554
Si1 Te4 2.508250 1_555
Ag0 Te3 2.765060 1_555
Ag0 Te7 2.780661 1_555
Ag0 Te5 2.896242 1_455
Ag0 Ag11 3.031933 1_555
Ag0 Ag12 3.031933 1_545
Ag1 Te2 2.765060 1_556
Ag1 Te6 2.780661 1_555
Ag1 Te4 2.896242 1_656
Ag1 Ag13 3.031933 1_555
Ag1 Ag10 3.031933 1_555
Ag2 Te9 2.750450 1_555
Ag2 Te10 2.881811 1_555
Ag2 Te4 2.892841 1_655
Ag2 Ag5 2.995847 1_545
Ag2 Ag6 3.166917 1_555
Ag2 Te7 3.277762 1_655
Ag3 Te8 2.750450 1_555
Ag3 Te11 2.881811 1_555
Ag3 Te5 2.892841 1_455
Ag3 Ag4 2.995847 1_555
Ag3 Ag7 3.166917 1_555
Ag3 Te6 3.277762 1_455
Ag4 Te8 2.750450 1_555
Ag4 Te1 2.881811 1_555
Ag4 Te5 2.892841 1_465
Ag4 Ag8 3.166917 1_555
Ag4 Te6 3.277762 1_455
Ag5 Te9 2.750450 1_565
Ag5 Te0 2.881811 1_555
Ag5 Te4 2.892841 1_655
Ag5 Ag9 3.166917 1_555
Ag5 Te7 3.277762 1_665
Ag6 Te10 2.804825 1_555
Ag6 Te7 2.824530 1_555
Ag6 Te2 2.870128 1_555
Ag7 Te11 2.804825 1_555
Ag7 Te6 2.824530 1_555
Ag7 Te3 2.870128 1_555
Ag8 Te1 2.804825 1_555
Ag8 Te6 2.824530 1_555
Ag8 Te3 2.870128 1_565
Ag9 Te0 2.804825 1_555
Ag9 Te7 2.824530 1_565
Ag9 Te2 2.870128 1_555
Ag10 Te9 2.775212 1_556
Ag10 Te6 2.840545 1_555
Ag10 Te11 2.933010 1_655
Ag10 Ag3 3.010071 1_655
Ag10 Te5 3.141201 1_555
Ag11 Te8 2.775212 1_555
Ag11 Te7 2.840545 1_555
Ag11 Te10 2.933010 1_455
Ag11 Ag2 3.010071 1_455
Ag11 Te4 3.141201 1_555
Ag12 Te8 2.775212 1_555
Ag12 Te7 2.840545 1_565
Ag12 Te0 2.933010 1_455
Ag12 Ag5 3.010071 1_455
Ag12 Te4 3.141201 1_555
Ag13 Te9 2.775212 1_566
Ag13 Te6 2.840545 1_555
Ag13 Te1 2.933010 1_655
Ag13 Ag4 3.010071 1_655
Ag13 Te5 3.141201 1_565
Ag14 Te8 2.750030 1_555
Ag14 Te6 2.854117 1_555
Ag14 Te0 2.921304 1_555
Ag14 Te10 2.921304 1_555
Ag14 Ag8 2.958330 1_555
Ag14 Ag7 2.958330 1_555
Ag15 Te9 2.750030 1_555
Ag15 Te7 2.854117 1_555
Ag15 Te11 2.921304 1_554
Ag15 Te1 2.921304 1_544
Ag15 Ag6 2.958330 1_555
Ag15 Ag9 2.958330 1_545
