# generated using pymatgen
data_K4Sr2ZrSb4
_symmetry_space_group_name_H-M   'P 1'
_cell_length_a   11.03496581
_cell_length_b   11.03496663
_cell_length_c   8.30299807
_cell_angle_alpha   88.16548064
_cell_angle_beta   88.16548444
_cell_angle_gamma   119.68477727
_symmetry_Int_Tables_number   1
_chemical_formula_structural   K4Sr2ZrSb4
_chemical_formula_sum   'K8 Sr4 Zr2 Sb8'
_cell_volume   876.58654083
_cell_formula_units_Z   2
loop_
 _symmetry_equiv_pos_site_id
 _symmetry_equiv_pos_as_xyz
  1  'x, y, z'
loop_
 _atom_site_type_symbol
 _atom_site_label
 _atom_site_symmetry_multiplicity
 _atom_site_fract_x
 _atom_site_fract_y
 _atom_site_fract_z
 _atom_site_occupancy
  K  K0  1  0.05307814  0.52305334  0.62291347  1
  K  K1  1  0.52305334  0.05307814  0.12291347  1
  K  K2  1  0.28361815  0.13708104  0.83630322  1
  K  K3  1  0.87137173  0.72887479  0.77139304  1
  K  K4  1  0.85887146  0.14685624  0.80976421  1
  K  K5  1  0.72887479  0.87137173  0.27139304  1
  K  K6  1  0.13708104  0.28361815  0.33630322  1
  K  K7  1  0.14685624  0.85887146  0.30976421  1
  Sr  Sr0  1  0.47009406  0.93507723  0.61349903  1
  Sr  Sr1  1  0.47329046  0.52280533  0.62891678  1
  Sr  Sr2  1  0.93507723  0.47009406  0.11349903  1
  Sr  Sr3  1  0.52280533  0.47329046  0.12891678  1
  Zr  Zr0  1  0.66492676  0.33486153  0.51248431  1
  Zr  Zr1  1  0.33486153  0.66492676  0.01248431  1
  Sb  Sb0  1  0.60813612  0.79490722  0.87260196  1
  Sb  Sb1  1  0.19761903  0.38616943  0.92448705  1
  Sb  Sb2  1  0.18985513  0.79544316  0.90199277  1
  Sb  Sb3  1  0.38616943  0.19761903  0.42448705  1
  Sb  Sb4  1  0.79490722  0.60813612  0.37260196  1
  Sb  Sb5  1  0.79544316  0.18985513  0.40199277  1
  Sb  Sb6  1  0.66875808  0.35480757  0.85127717  1
  Sb  Sb7  1  0.35480757  0.66875808  0.35127717  1
loop_
_geom_bond_atom_site_label_1
_geom_bond_atom_site_label_2
_geom_bond_distance
_geom_bond_site_symmetry_2
K0 Sb7 3.569694 1_555
K0 Sb2 3.585915 1_555
K0 Sb1 3.673600 1_555
K0 Sb5 3.921561 1_455
K0 Sb4 4.027492 1_455
K0 Sb6 4.060672 1_455
K1 Sb6 3.569694 1_554
K1 Sb5 3.585914 1_555
K1 Sb3 3.673600 1_555
K1 Sb2 3.921560 1_544
K1 Sb0 4.027492 1_544
K1 Sb7 4.060672 1_545
K2 Sb2 3.398444 1_545
K2 Sb1 3.414662 1_555
K2 Sb3 3.503686 1_555
K2 Sb6 3.713468 1_555
K3 Sb0 3.413840 1_555
K3 Sb2 3.435817 1_655
K3 Sb4 3.577536 1_555
K3 Sb6 3.614762 1_555
K4 Sb0 3.485085 1_545
K4 Sb1 3.530735 1_655
K4 Sb5 3.543443 1_555
K4 Sb6 3.815533 1_555
K5 Sb4 3.413840 1_555
K5 Sb5 3.435818 1_565
K5 Sb0 3.577536 1_554
K5 Sb7 3.614762 1_555
K6 Sb5 3.398444 1_455
K6 Sb3 3.414662 1_555
K6 Sb1 3.503686 1_554
K6 Sb7 3.713469 1_555
K7 Sb4 3.485085 1_455
K7 Sb3 3.530736 1_565
K7 Sb2 3.543443 1_554
K7 Sb7 3.815533 1_555
Sb0 Zr1 2.808023 1_556
Sb0 Sr1 3.388250 1_555
Sb0 Sr0 3.416372 1_555
Sb0 Sr3 3.753609 1_556
Sb1 Zr1 2.808966 1_556
Sb1 Sr1 3.506023 1_555
Sb1 Sr3 3.709401 1_556
Sb1 Sr2 3.764758 1_456
Sb2 Zr1 2.787182 1_556
Sb2 Sr0 3.499288 1_555
Sb2 Sr2 3.627779 1_456
Sb3 Zr0 2.808966 1_555
Sb3 Sr3 3.506023 1_555
Sb3 Sr1 3.709401 1_555
Sb3 Sr0 3.764758 1_545
Sb4 Zr0 2.808024 1_555
Sb4 Sr3 3.388250 1_555
Sb4 Sr2 3.416372 1_555
Sb4 Sr1 3.753609 1_555
Sb5 Zr0 2.787182 1_555
Sb5 Sr2 3.499288 1_555
Sb5 Sr0 3.627779 1_545
Sb6 Zr0 2.828643 1_555
Sb6 Sr3 3.414452 1_556
Sb6 Sr2 3.446654 1_556
Sb6 Sr1 3.936288 1_555
Sb7 Zr1 2.828643 1_555
Sb7 Sr1 3.414452 1_555
Sb7 Sr0 3.446654 1_555
Sb7 Sr3 3.936288 1_555
