# generated using pymatgen
data_Ba2CdSeS2
_symmetry_space_group_name_H-M   'P 1'
_cell_length_a   4.46541665
_cell_length_b   9.10184988
_cell_length_c   17.62790621
_cell_angle_alpha   90.00000000
_cell_angle_beta   90.00000000
_cell_angle_gamma   90.00000000
_symmetry_Int_Tables_number   1
_chemical_formula_structural   Ba2CdSeS2
_chemical_formula_sum   'Ba8 Cd4 Se4 S8'
_cell_volume   716.46072265
_cell_formula_units_Z   4
loop_
 _symmetry_equiv_pos_site_id
 _symmetry_equiv_pos_as_xyz
  1  'x, y, z'
loop_
 _atom_site_type_symbol
 _atom_site_label
 _atom_site_symmetry_multiplicity
 _atom_site_fract_x
 _atom_site_fract_y
 _atom_site_fract_z
 _atom_site_occupancy
  Ba  Ba0  1  0.25000000  0.77317709  0.95839904  1
  Ba  Ba1  1  0.75000000  0.72682291  0.45839904  1
  Ba  Ba2  1  0.25000000  0.27317709  0.54160096  1
  Ba  Ba3  1  0.75000000  0.22682291  0.04160096  1
  Ba  Ba4  1  0.25000000  0.41941181  0.28471364  1
  Ba  Ba5  1  0.75000000  0.58058819  0.71528636  1
  Ba  Ba6  1  0.25000000  0.91941181  0.21528636  1
  Ba  Ba7  1  0.75000000  0.08058819  0.78471364  1
  Cd  Cd0  1  0.75000000  0.12560483  0.36703028  1
  Cd  Cd1  1  0.75000000  0.62560483  0.13296972  1
  Cd  Cd2  1  0.25000000  0.87439517  0.63296972  1
  Cd  Cd3  1  0.25000000  0.37439517  0.86703028  1
  Se  Se0  1  0.25000000  0.98343217  0.40477243  1
  Se  Se1  1  0.75000000  0.01656783  0.59522757  1
  Se  Se2  1  0.25000000  0.48343217  0.09522757  1
  Se  Se3  1  0.75000000  0.51656783  0.90477243  1
  S  S0  1  0.25000000  0.12072108  0.92710464  1
  S  S1  1  0.75000000  0.87927892  0.07289536  1
  S  S2  1  0.25000000  0.62072108  0.57289536  1
  S  S3  1  0.75000000  0.18169127  0.22529599  1
  S  S4  1  0.25000000  0.31830873  0.72529599  1
  S  S5  1  0.75000000  0.68169127  0.27470401  1
  S  S6  1  0.25000000  0.81830873  0.77470401  1
  S  S7  1  0.75000000  0.37927892  0.42710464  1
loop_
_geom_bond_atom_site_label_1
_geom_bond_atom_site_label_2
_geom_bond_distance
_geom_bond_site_symmetry_2
Ba0 S1 3.160896 1_556
Ba0 S1 3.160896 1_456
Ba0 S0 3.211035 1_565
Ba0 S6 3.264110 1_555
Ba0 Se3 3.366562 1_455
Ba0 Se3 3.366562 1_555
Ba0 Se2 3.573884 1_556
Ba1 S2 3.160896 1_655
Ba1 S2 3.160896 1_555
Ba1 S7 3.211035 1_555
Ba1 S5 3.264110 1_555
Ba1 Se0 3.366562 1_655
Ba1 Se0 3.366562 1_555
Ba1 Se1 3.573884 1_565
Ba2 S7 3.160896 1_555
Ba2 S7 3.160896 1_455
Ba2 S2 3.211035 1_555
Ba2 S4 3.264110 1_555
Ba2 Se1 3.366562 1_455
Ba2 Se1 3.366562 1_555
Ba2 Se0 3.573884 1_545
Ba3 S0 3.160896 1_654
Ba3 S0 3.160896 1_554
Ba3 S1 3.211035 1_545
Ba3 S3 3.264110 1_555
Ba3 Se2 3.366562 1_655
Ba3 Se2 3.366562 1_555
Ba3 Se3 3.573884 1_554
Ba4 S5 3.273374 1_455
Ba4 S5 3.273374 1_555
Ba4 S3 3.280798 1_455
Ba4 S3 3.280798 1_555
Ba4 S7 3.379171 1_555
Ba4 S7 3.379171 1_455
Ba4 Se2 3.390688 1_555
Ba5 S4 3.273374 1_555
Ba5 S4 3.273374 1_655
Ba5 S6 3.280798 1_555
Ba5 S6 3.280798 1_655
Ba5 S2 3.379171 1_655
Ba5 S2 3.379171 1_555
Ba5 Se3 3.390688 1_555
Ba6 S3 3.273374 1_465
Ba6 S3 3.273374 1_565
Ba6 S5 3.280798 1_555
Ba6 S5 3.280798 1_455
Ba6 S1 3.379171 1_455
Ba6 S1 3.379171 1_555
Ba6 Se0 3.390688 1_555
Ba7 S6 3.273374 1_545
Ba7 S6 3.273374 1_645
Ba7 S4 3.280798 1_655
Ba7 S4 3.280798 1_555
Ba7 S0 3.379171 1_655
Ba7 S0 3.379171 1_555
Ba7 Se1 3.390688 1_555
Cd0 S7 2.540174 1_555
Cd0 S3 2.550097 1_555
Cd0 Se0 2.664987 1_645
Cd0 Se0 2.664987 1_545
Cd1 S1 2.540174 1_555
Cd1 S5 2.550097 1_555
Cd1 Se2 2.664987 1_655
Cd1 Se2 2.664987 1_555
Cd2 S2 2.540174 1_555
Cd2 S6 2.550097 1_555
Cd2 Se1 2.664987 1_465
Cd2 Se1 2.664987 1_565
Cd3 S0 2.540174 1_555
Cd3 S4 2.550097 1_555
Cd3 Se3 2.664987 1_455
Cd3 Se3 2.664987 1_555
