# generated using pymatgen
data_Hf3Al2CuN
_symmetry_space_group_name_H-M   'P 1'
_cell_length_a   8.44775734
_cell_length_b   8.44775641
_cell_length_c   8.44775630
_cell_angle_alpha   60.00000041
_cell_angle_beta   60.00000406
_cell_angle_gamma   59.99999241
_symmetry_Int_Tables_number   1
_chemical_formula_structural   Hf3Al2CuN
_chemical_formula_sum   'Hf12 Al8 Cu4 N4'
_cell_volume   426.29396226
_cell_formula_units_Z   4
loop_
 _symmetry_equiv_pos_site_id
 _symmetry_equiv_pos_as_xyz
  1  'x, y, z'
loop_
 _atom_site_type_symbol
 _atom_site_label
 _atom_site_symmetry_multiplicity
 _atom_site_fract_x
 _atom_site_fract_y
 _atom_site_fract_z
 _atom_site_occupancy
  Hf  Hf0  1  0.81543125  0.18456875  0.18456875  1
  Hf  Hf1  1  0.18456875  0.81543125  0.18456875  1
  Hf  Hf2  1  0.81543125  0.81543125  0.18456875  1
  Hf  Hf3  1  0.18456875  0.81543125  0.81543125  1
  Hf  Hf4  1  0.81543125  0.18456875  0.81543125  1
  Hf  Hf5  1  0.18456875  0.18456875  0.81543125  1
  Hf  Hf6  1  0.43456875  0.06543125  0.06543125  1
  Hf  Hf7  1  0.06543125  0.43456875  0.06543125  1
  Hf  Hf8  1  0.43456875  0.43456875  0.06543125  1
  Hf  Hf9  1  0.06543125  0.43456875  0.43456875  1
  Hf  Hf10  1  0.43456875  0.06543125  0.43456875  1
  Hf  Hf11  1  0.06543125  0.06543125  0.43456875  1
  Al  Al0  1  0.41863525  0.41863525  0.74409226  1
  Al  Al1  1  0.41863525  0.41863525  0.41863525  1
  Al  Al2  1  0.74409226  0.41863525  0.41863525  1
  Al  Al3  1  0.41863525  0.74409226  0.41863525  1
  Al  Al4  1  0.83136475  0.83136475  0.50590774  1
  Al  Al5  1  0.83136475  0.83136475  0.83136475  1
  Al  Al6  1  0.50590774  0.83136475  0.83136475  1
  Al  Al7  1  0.83136475  0.50590774  0.83136475  1
  Cu  Cu0  1  0.62500000  0.62500000  0.12500000  1
  Cu  Cu1  1  0.62500000  0.62500000  0.62500000  1
  Cu  Cu2  1  0.12500000  0.62500000  0.62500000  1
  Cu  Cu3  1  0.62500000  0.12500000  0.62500000  1
  N  N0  1  0.12500000  0.12500000  0.62500000  1
  N  N1  1  0.12500000  0.12500000  0.12500000  1
  N  N2  1  0.62500000  0.12500000  0.12500000  1
  N  N3  1  0.12500000  0.62500000  0.12500000  1
loop_
_geom_bond_atom_site_label_1
_geom_bond_atom_site_label_2
_geom_bond_distance
_geom_bond_site_symmetry_2
Hf0 N2 2.228621 1_555
Hf0 N1 2.228621 1_655
Hf1 N1 2.228621 1_565
Hf1 N3 2.228621 1_555
Hf2 N2 2.228621 1_565
Hf2 N3 2.228621 1_655
Hf3 N0 2.228621 1_565
Hf3 N3 2.228621 1_556
Hf4 N2 2.228621 1_556
Hf4 N0 2.228621 1_655
Hf5 N0 2.228621 1_555
Hf5 N1 2.228621 1_556
Hf6 N2 2.228621 1_555
Hf6 N1 2.228621 1_555
Hf7 N1 2.228621 1_555
Hf7 N3 2.228621 1_555
Hf8 N2 2.228621 1_555
Hf8 N3 2.228621 1_555
Hf9 N0 2.228621 1_555
Hf9 N3 2.228621 1_555
Hf10 N2 2.228621 1_555
Hf10 N0 2.228621 1_555
Hf11 N1 2.228621 1_555
Hf11 N0 2.228621 1_555
Al0 Cu3 2.573286 1_555
Al0 Cu2 2.573286 1_555
Al0 Cu1 2.573300 1_555
Al0 Al1 2.749382 1_555
Al0 Al3 2.749382 1_555
Al0 Al2 2.749382 1_555
Al0 Hf6 2.855538 1_556
Al0 Hf7 2.855539 1_556
Al0 Hf8 2.855548 1_556
Al0 Hf5 3.116003 1_555
Al0 Hf3 3.116017 1_555
Al0 Hf4 3.116017 1_555
Al1 Cu3 2.573295 1_555
Al1 Cu2 2.573295 1_555
Al1 Cu0 2.573295 1_555
Al1 Al3 2.749382 1_555
Al1 Al2 2.749382 1_555
Al1 Hf8 2.855531 1_555
Al1 Hf10 2.855531 1_555
Al1 Hf9 2.855531 1_555
Al1 Hf1 3.116010 1_555
Al1 Hf0 3.116010 1_555
Al1 Hf5 3.116011 1_555
Al2 Cu0 2.573286 1_555
Al2 Cu3 2.573286 1_555
Al2 Cu1 2.573300 1_555
Al2 Al3 2.749381 1_555
Al2 Hf11 2.855538 1_655
Al2 Hf7 2.855539 1_655
Al2 Hf9 2.855548 1_655
Al2 Hf0 3.116003 1_555
Al2 Hf4 3.116017 1_555
Al2 Hf2 3.116017 1_555
Al3 Cu0 2.573286 1_555
Al3 Cu2 2.573286 1_555
Al3 Cu1 2.573300 1_555
Al3 Hf11 2.855538 1_565
Al3 Hf6 2.855538 1_565
Al3 Hf10 2.855548 1_565
Al3 Hf1 3.116003 1_555
Al3 Hf3 3.116017 1_555
Al3 Hf2 3.116018 1_555
Al4 Cu3 2.573286 1_565
Al4 Cu2 2.573286 1_655
Al4 Cu1 2.573300 1_555
Al4 Al5 2.749382 1_555
Al4 Al7 2.749382 1_555
Al4 Al6 2.749382 1_555
Al4 Hf0 2.855538 1_565
Al4 Hf1 2.855539 1_655
Al4 Hf2 2.855548 1_555
Al4 Hf11 3.116003 1_665
Al4 Hf9 3.116017 1_655
Al4 Hf10 3.116017 1_565
Al5 Cu3 2.573295 1_565
Al5 Cu2 2.573295 1_655
Al5 Cu0 2.573295 1_556
Al5 Al7 2.749382 1_555
Al5 Al6 2.749382 1_555
Al5 Hf2 2.855531 1_556
Al5 Hf4 2.855531 1_565
Al5 Hf3 2.855531 1_655
Al5 Hf7 3.116010 1_656
Al5 Hf6 3.116010 1_566
Al5 Hf11 3.116011 1_665
Al6 Cu0 2.573286 1_556
Al6 Cu3 2.573286 1_565
Al6 Cu1 2.573300 1_555
Al6 Al7 2.749381 1_555
Al6 Hf5 2.855538 1_565
Al6 Hf1 2.855539 1_556
Al6 Hf3 2.855548 1_555
Al6 Hf6 3.116003 1_566
Al6 Hf10 3.116017 1_565
Al6 Hf8 3.116017 1_556
Al7 Cu0 2.573286 1_556
Al7 Cu2 2.573286 1_655
Al7 Cu1 2.573300 1_555
Al7 Hf5 2.855538 1_655
Al7 Hf0 2.855538 1_556
Al7 Hf4 2.855548 1_555
Al7 Hf7 3.116003 1_656
Al7 Hf9 3.116017 1_655
Al7 Hf8 3.116018 1_556
Cu0 Hf6 3.104227 1_565
Cu0 Hf0 3.104227 1_555
Cu0 Hf7 3.104227 1_655
Cu0 Hf1 3.104227 1_555
Cu0 Hf2 3.104227 1_555
Cu0 Hf8 3.104227 1_555
Cu1 Hf10 3.104227 1_565
Cu1 Hf4 3.104227 1_555
Cu1 Hf9 3.104227 1_655
Cu1 Hf3 3.104227 1_555
Cu1 Hf8 3.104227 1_556
Cu1 Hf2 3.104227 1_555
Cu2 Hf11 3.104227 1_565
Cu2 Hf5 3.104227 1_555
Cu2 Hf7 3.104227 1_556
Cu2 Hf1 3.104227 1_555
Cu2 Hf3 3.104227 1_555
Cu2 Hf9 3.104227 1_555
Cu3 Hf4 3.104227 1_555
Cu3 Hf10 3.104227 1_555
Cu3 Hf6 3.104227 1_556
Cu3 Hf0 3.104227 1_555
Cu3 Hf11 3.104228 1_655
Cu3 Hf5 3.104228 1_555
