# generated using pymatgen
data_TiVCl6
_symmetry_space_group_name_H-M   'P 1'
_cell_length_a   6.95573550
_cell_length_b   6.95573581
_cell_length_c   6.95573619
_cell_angle_alpha   51.74549133
_cell_angle_beta   51.74549345
_cell_angle_gamma   51.74550062
_symmetry_Int_Tables_number   1
_chemical_formula_structural   TiVCl6
_chemical_formula_sum   'Ti1 V1 Cl6'
_cell_volume   191.75070089
_cell_formula_units_Z   1
loop_
 _symmetry_equiv_pos_site_id
 _symmetry_equiv_pos_as_xyz
  1  'x, y, z'
loop_
 _atom_site_type_symbol
 _atom_site_label
 _atom_site_symmetry_multiplicity
 _atom_site_fract_x
 _atom_site_fract_y
 _atom_site_fract_z
 _atom_site_occupancy
  Ti  Ti0  1  0.33331078  0.33331078  0.33331078  1
  V  V0  1  0.66660229  0.66660229  0.66660229  1
  Cl  Cl0  1  0.72044794  0.08453363  0.42385924  1
  Cl  Cl1  1  0.08453363  0.42385924  0.72044794  1
  Cl  Cl2  1  0.56856485  0.27028757  0.93239470  1
  Cl  Cl3  1  0.93239470  0.56856485  0.27028757  1
  Cl  Cl4  1  0.27028757  0.93239470  0.56856485  1
  Cl  Cl5  1  0.42385924  0.72044794  0.08453363  1
loop_
_geom_bond_atom_site_label_1
_geom_bond_atom_site_label_2
_geom_bond_distance
_geom_bond_site_symmetry_2
Cl0 Ti0 2.371236 1_555
Cl0 V0 2.434952 1_545
Cl1 Ti0 2.371236 1_555
Cl1 V0 2.434952 1_455
Cl2 Ti0 2.370924 1_556
Cl2 V0 2.436765 1_555
Cl3 Ti0 2.370924 1_655
Cl3 V0 2.436765 1_555
Cl4 Ti0 2.370924 1_565
Cl4 V0 2.436765 1_555
Cl5 Ti0 2.371236 1_555
Cl5 V0 2.434952 1_554
