# generated using pymatgen
data_K2Ba(SiS3)2
_symmetry_space_group_name_H-M   'P 1'
_cell_length_a   8.39218450
_cell_length_b   8.39218464
_cell_length_c   9.61186880
_cell_angle_alpha   88.87315567
_cell_angle_beta   88.87315999
_cell_angle_gamma   113.83168860
_symmetry_Int_Tables_number   1
_chemical_formula_structural   K2Ba(SiS3)2
_chemical_formula_sum   'K4 Ba2 Si4 S12'
_cell_volume   618.83062557
_cell_formula_units_Z   2
loop_
 _symmetry_equiv_pos_site_id
 _symmetry_equiv_pos_as_xyz
  1  'x, y, z'
loop_
 _atom_site_type_symbol
 _atom_site_label
 _atom_site_symmetry_multiplicity
 _atom_site_fract_x
 _atom_site_fract_y
 _atom_site_fract_z
 _atom_site_occupancy
  K  K0  1  0.26344986  0.52830413  0.52841947  1
  K  K1  1  0.73655014  0.47169587  0.47158053  1
  K  K2  1  0.47169587  0.73655014  0.97158053  1
  K  K3  1  0.52830413  0.26344986  0.02841947  1
  Ba  Ba0  1  0.96538951  0.03461049  0.25000000  1
  Ba  Ba1  1  0.03461049  0.96538951  0.75000000  1
  Si  Si0  1  0.98049300  0.65114873  0.05989127  1
  Si  Si1  1  0.01950700  0.34885127  0.94010873  1
  Si  Si2  1  0.34885127  0.01950700  0.44010873  1
  Si  Si3  1  0.65114873  0.98049300  0.55989127  1
  S  S0  1  0.64105085  0.75457320  0.65847728  1
  S  S1  1  0.91767077  0.53151823  0.85544761  1
  S  S2  1  0.24542680  0.35894915  0.84152272  1
  S  S3  1  0.53151823  0.91767077  0.35544761  1
  S  S4  1  0.35894915  0.24542680  0.34152272  1
  S  S5  1  0.89758094  0.18377773  0.53934288  1
  S  S6  1  0.81622227  0.10241906  0.96065712  1
  S  S7  1  0.18377773  0.89758094  0.03934288  1
  S  S8  1  0.08232923  0.46848177  0.14455239  1
  S  S9  1  0.46848177  0.08232923  0.64455239  1
  S  S10  1  0.10241906  0.81622227  0.46065712  1
  S  S11  1  0.75457320  0.64105085  0.15847728  1
loop_
_geom_bond_atom_site_label_1
_geom_bond_atom_site_label_2
_geom_bond_distance
_geom_bond_site_symmetry_2
K0 S0 3.255296 1_555
K0 S5 3.255723 1_455
K0 S10 3.271127 1_555
K0 S2 3.277214 1_555
K0 S4 3.339724 1_555
K0 S3 3.493054 1_555
K1 S4 3.255296 1_555
K1 S10 3.255723 1_655
K1 S5 3.271127 1_555
K1 S11 3.277214 1_555
K1 S0 3.339724 1_555
K1 S9 3.493054 1_555
K2 S2 3.255296 1_555
K2 S6 3.255723 1_565
K2 S7 3.271128 1_556
K2 S0 3.277214 1_555
K2 S11 3.339724 1_556
K2 S8 3.493054 1_556
K3 S11 3.255296 1_555
K3 S7 3.255723 1_545
K3 S6 3.271128 1_554
K3 S4 3.277214 1_555
K3 S2 3.339724 1_554
K3 S1 3.493054 1_554
Ba0 S4 3.204071 1_655
Ba0 S11 3.204071 1_545
Ba0 S6 3.205612 1_554
Ba0 S5 3.205612 1_555
Ba0 S10 3.229565 1_645
Ba0 S7 3.229565 1_645
Ba0 S3 3.489457 1_545
Ba0 S8 3.489457 1_655
Ba1 S0 3.204071 1_455
Ba1 S2 3.204071 1_565
Ba1 S7 3.205612 1_556
Ba1 S10 3.205612 1_555
Ba1 S5 3.229565 1_465
Ba1 S6 3.229565 1_465
Ba1 S9 3.489457 1_565
Ba1 S1 3.489457 1_455
S0 Si3 2.072710 1_555
S1 Si1 2.186229 1_655
S1 Si0 2.199561 1_556
S2 Si1 2.072710 1_555
S3 Si2 2.186229 1_565
S3 Si3 2.199561 1_555
S4 Si2 2.072710 1_555
S5 Si3 2.084719 1_545
S6 Si1 2.084719 1_655
S7 Si0 2.084719 1_455
S8 Si0 2.186229 1_455
S8 Si1 2.199561 1_554
S9 Si3 2.186229 1_545
S9 Si2 2.199561 1_555
S10 Si2 2.084719 1_565
S11 Si0 2.072710 1_555
