# generated using pymatgen
data_Cs4P2PdS8
_symmetry_space_group_name_H-M   'P 1'
_cell_length_a   13.15599880
_cell_length_b   7.36650100
_cell_length_c   9.72639673
_cell_angle_alpha   86.30926187
_cell_angle_beta   90.00000000
_cell_angle_gamma   90.00000000
_symmetry_Int_Tables_number   1
_chemical_formula_structural   Cs4P2PdS8
_chemical_formula_sum   'Cs8 P4 Pd2 S16'
_cell_volume   940.66592279
_cell_formula_units_Z   2
loop_
 _symmetry_equiv_pos_site_id
 _symmetry_equiv_pos_as_xyz
  1  'x, y, z'
loop_
 _atom_site_type_symbol
 _atom_site_label
 _atom_site_symmetry_multiplicity
 _atom_site_fract_x
 _atom_site_fract_y
 _atom_site_fract_z
 _atom_site_occupancy
  Cs  Cs0  1  0.13210472  0.81913791  0.68506777  1
  Cs  Cs1  1  0.63210472  0.18086209  0.81493223  1
  Cs  Cs2  1  0.86789528  0.18086209  0.31493223  1
  Cs  Cs3  1  0.36789528  0.81913791  0.18506777  1
  Cs  Cs4  1  0.33882319  0.27541501  0.53529137  1
  Cs  Cs5  1  0.83882319  0.72458499  0.96470863  1
  Cs  Cs6  1  0.66117681  0.72458499  0.46470863  1
  Cs  Cs7  1  0.16117681  0.27541501  0.03529137  1
  P  P0  1  0.42025978  0.76215157  0.75943949  1
  P  P1  1  0.92025978  0.23784843  0.74056051  1
  P  P2  1  0.57974022  0.23784843  0.24056051  1
  P  P3  1  0.07974022  0.76215157  0.25943949  1
  Pd  Pd0  1  0.00000000  0.50000000  0.50000000  1
  Pd  Pd1  1  0.50000000  0.50000000  0.00000000  1
  S  S0  1  0.06871244  0.30583611  0.67802063  1
  S  S1  1  0.56871244  0.69416389  0.82197937  1
  S  S2  1  0.93128756  0.69416389  0.32197937  1
  S  S3  1  0.43128756  0.30583611  0.17802063  1
  S  S4  1  0.39800935  0.76226538  0.55618770  1
  S  S5  1  0.89800935  0.23773462  0.94381230  1
  S  S6  1  0.60199065  0.23773462  0.44381230  1
  S  S7  1  0.10199065  0.76226538  0.05618770  1
  S  S8  1  0.14614576  0.53520776  0.36266032  1
  S  S9  1  0.64614576  0.46479224  0.13733968  1
  S  S10  1  0.85385424  0.46479224  0.63733968  1
  S  S11  1  0.35385424  0.53520776  0.86266032  1
  S  S12  1  0.37489456  0.99518795  0.83595599  1
  S  S13  1  0.87489456  0.00481205  0.66404401  1
  S  S14  1  0.62510544  0.00481205  0.16404401  1
  S  S15  1  0.12510544  0.99518795  0.33595599  1
loop_
_geom_bond_atom_site_label_1
_geom_bond_atom_site_label_2
_geom_bond_distance
_geom_bond_site_symmetry_2
Cs0 Pd0 3.511747 1_555
Cs0 S15 3.557179 1_555
Cs0 S7 3.628695 1_556
Cs0 S13 3.650628 1_465
Cs0 S0 3.677323 1_565
Cs0 S4 3.748624 1_555
Cs0 S12 3.779326 1_555
Cs0 S0 3.877030 1_555
Cs0 S8 3.884177 1_555
Cs0 S11 3.924804 1_555
Cs1 Pd1 3.511747 1_556
Cs1 S14 3.557179 1_556
Cs1 S6 3.628695 1_555
Cs1 S12 3.650628 1_545
Cs1 S1 3.677323 1_545
Cs1 S5 3.748624 1_555
Cs1 S13 3.779326 1_555
Cs1 S1 3.877030 1_555
Cs1 S9 3.884177 1_556
Cs1 S10 3.924804 1_555
Cs2 Pd0 3.511747 1_655
Cs2 S13 3.557179 1_555
Cs2 S5 3.628695 1_554
Cs2 S15 3.650628 1_645
Cs2 S2 3.677323 1_545
Cs2 S6 3.748624 1_555
Cs2 S14 3.779326 1_555
Cs2 S2 3.877030 1_555
Cs2 S10 3.884177 1_555
Cs2 S9 3.924804 1_555
Cs3 Pd1 3.511747 1_555
Cs3 S12 3.557179 1_554
Cs3 S4 3.628695 1_555
Cs3 S14 3.650628 1_565
Cs3 S3 3.677323 1_565
Cs3 S7 3.748624 1_555
Cs3 S15 3.779326 1_555
Cs3 S3 3.877030 1_555
Cs3 S11 3.884177 1_554
Cs3 S8 3.924804 1_555
Cs4 S12 3.501619 1_545
Cs4 S8 3.534634 1_555
Cs4 S6 3.589925 1_555
Cs4 S3 3.674924 1_555
Cs4 S4 3.688306 1_555
Cs4 S11 3.824229 1_555
Cs4 S0 3.826930 1_555
Cs4 S4 3.852010 1_545
Cs4 S15 4.054758 1_545
Cs5 S13 3.501619 1_565
Cs5 S9 3.534634 1_556
Cs5 S7 3.589925 1_656
Cs5 S2 3.674924 1_556
Cs5 S5 3.688306 1_555
Cs5 S10 3.824229 1_555
Cs5 S1 3.826930 1_555
Cs5 S5 3.852010 1_565
Cs5 S14 4.054758 1_566
Cs6 S14 3.501619 1_565
Cs6 S10 3.534634 1_555
Cs6 S4 3.589925 1_555
Cs6 S1 3.674924 1_555
Cs6 S6 3.688306 1_555
Cs6 S9 3.824229 1_555
Cs6 S2 3.826930 1_555
Cs6 S6 3.852010 1_565
Cs6 S13 4.054758 1_565
Cs7 S15 3.501619 1_545
Cs7 S11 3.534634 1_554
Cs7 S5 3.589925 1_454
Cs7 S0 3.674924 1_554
Cs7 S7 3.688306 1_555
Cs7 S8 3.824229 1_555
Cs7 S3 3.826930 1_555
Cs7 S7 3.852010 1_545
Cs7 S12 4.054758 1_544
P0 S4 1.998409 1_555
P0 S12 2.005365 1_555
P0 S11 2.085654 1_555
P0 S1 2.096664 1_555
P1 S5 1.998409 1_555
P1 S13 2.005365 1_555
P1 S10 2.085654 1_555
P1 S0 2.096664 1_655
P2 S6 1.998409 1_555
P2 S14 2.005365 1_555
P2 S9 2.085654 1_555
P2 S3 2.096664 1_555
P3 S7 1.998409 1_555
P3 S15 2.005365 1_555
P3 S8 2.085654 1_555
P3 S2 2.096664 1_455
Pd0 S8 2.346024 1_555
Pd0 S10 2.346024 1_455
Pd0 S0 2.354191 1_555
Pd0 S2 2.354191 1_455
Pd1 S9 2.346024 1_555
Pd1 S11 2.346024 1_554
Pd1 S3 2.354191 1_555
Pd1 S1 2.354191 1_554
