# generated using pymatgen
data_HgBiRh2O7
_symmetry_space_group_name_H-M   'P 1'
_cell_length_a   7.19400960
_cell_length_b   7.02484868
_cell_length_c   7.19400968
_cell_angle_alpha   60.77483995
_cell_angle_beta   61.52967170
_cell_angle_gamma   60.77484319
_symmetry_Int_Tables_number   1
_chemical_formula_structural   HgBiRh2O7
_chemical_formula_sum   'Hg2 Bi2 Rh4 O14'
_cell_volume   262.99054735
_cell_formula_units_Z   2
loop_
 _symmetry_equiv_pos_site_id
 _symmetry_equiv_pos_as_xyz
  1  'x, y, z'
loop_
 _atom_site_type_symbol
 _atom_site_label
 _atom_site_symmetry_multiplicity
 _atom_site_fract_x
 _atom_site_fract_y
 _atom_site_fract_z
 _atom_site_occupancy
  Hg  Hg0  1  0.12500000  0.12500000  0.12500000  1
  Hg  Hg1  1  0.12500000  0.62500000  0.12500000  1
  Bi  Bi0  1  0.62500000  0.12500000  0.12500000  1
  Bi  Bi1  1  0.12500000  0.12500000  0.62500000  1
  Rh  Rh0  1  0.62500000  0.62500000  0.62500000  1
  Rh  Rh1  1  0.62500000  0.62500000  0.12500000  1
  Rh  Rh2  1  0.12500000  0.62500000  0.62500000  1
  Rh  Rh3  1  0.62500000  0.12500000  0.62500000  1
  O  O0  1  0.25017359  0.24982641  0.25017359  1
  O  O1  1  0.30477679  0.69522321  0.30477679  1
  O  O2  1  0.95249096  0.95772721  0.55379136  1
  O  O3  1  0.54157985  0.95842015  0.54157985  1
  O  O4  1  0.69620864  0.71400852  0.29750904  1
  O  O5  1  0.95249096  0.53599148  0.55379136  1
  O  O6  1  0.70842015  0.29157985  0.70842015  1
  O  O7  1  0.29750904  0.29227279  0.69620864  1
  O  O8  1  0.69620864  0.29227279  0.29750904  1
  O  O9  1  0.29750904  0.71400852  0.69620864  1
  O  O10  1  0.94522321  0.55477679  0.94522321  1
  O  O11  1  0.55379136  0.53599148  0.95249096  1
  O  O12  1  0.99982641  0.00017359  0.99982641  1
  O  O13  1  0.55379136  0.95772721  0.95249096  1
loop_
_geom_bond_atom_site_label_1
_geom_bond_atom_site_label_2
_geom_bond_distance
_geom_bond_site_symmetry_2
Hg0 O0 2.169329 1_555
Hg0 O12 2.169329 1_454
Hg0 O10 2.535630 1_454
Hg0 O1 2.535630 1_545
Hg0 O2 2.582846 1_445
Hg0 O7 2.582846 1_554
Hg0 O13 2.582846 1_544
Hg0 O8 2.582846 1_455
Hg1 O12 2.169329 1_464
Hg1 O0 2.169329 1_555
Hg1 O1 2.535630 1_555
Hg1 O10 2.535630 1_454
Hg1 O5 2.582847 1_455
Hg1 O9 2.582847 1_554
Hg1 O11 2.582847 1_554
Hg1 O4 2.582847 1_455
Bi0 O12 2.235630 1_554
Bi0 O0 2.235630 1_555
Bi0 O8 2.408589 1_555
Bi0 O13 2.408589 1_544
Bi0 O11 2.408595 1_554
Bi0 O4 2.408595 1_545
Bi0 O3 2.501473 1_545
Bi0 O6 2.501473 1_554
Bi1 O12 2.235630 1_455
Bi1 O0 2.235630 1_555
Bi1 O7 2.408589 1_555
Bi1 O2 2.408589 1_445
Bi1 O5 2.408595 1_455
Bi1 O9 2.408595 1_545
Bi1 O3 2.501473 1_545
Bi1 O6 2.501473 1_455
O1 Rh2 1.973757 1_555
O1 Rh1 1.973757 1_555
O2 Rh2 1.967286 1_655
O2 Rh3 1.981822 1_565
O3 Rh3 1.950523 1_565
O3 Rh0 1.950523 1_555
O4 Rh1 1.967281 1_555
O4 Rh0 1.981823 1_555
O5 Rh2 1.967281 1_655
O5 Rh0 1.981823 1_555
O6 Rh3 1.950523 1_555
O6 Rh0 1.950523 1_555
O7 Rh2 1.967286 1_555
O7 Rh3 1.981822 1_555
O8 Rh1 1.967286 1_555
O8 Rh3 1.981822 1_555
O9 Rh2 1.967281 1_555
O9 Rh0 1.981823 1_555
O10 Rh2 1.973757 1_655
O10 Rh1 1.973757 1_556
O11 Rh1 1.967281 1_556
O11 Rh0 1.981823 1_555
O13 Rh1 1.967286 1_556
O13 Rh3 1.981822 1_565
