# generated using pymatgen
data_Cs7TaAs3P
_symmetry_space_group_name_H-M   'P 1'
_cell_length_a   8.87658459
_cell_length_b   9.99511915
_cell_length_c   11.05883353
_cell_angle_alpha   90.00000000
_cell_angle_beta   90.00000000
_cell_angle_gamma   90.00000000
_symmetry_Int_Tables_number   1
_chemical_formula_structural   Cs7TaAs3P
_chemical_formula_sum   'Cs14 Ta2 As6 P2'
_cell_volume   981.16758593
_cell_formula_units_Z   2
loop_
 _symmetry_equiv_pos_site_id
 _symmetry_equiv_pos_as_xyz
  1  'x, y, z'
loop_
 _atom_site_type_symbol
 _atom_site_label
 _atom_site_symmetry_multiplicity
 _atom_site_fract_x
 _atom_site_fract_y
 _atom_site_fract_z
 _atom_site_occupancy
  Cs  Cs0  1  0.87202743  0.03215972  0.00000000  1
  Cs  Cs1  1  0.70059759  0.82845462  0.71549161  1
  Cs  Cs2  1  0.39837990  0.90014540  0.00000000  1
  Cs  Cs3  1  0.37202743  0.96784028  0.50000000  1
  Cs  Cs4  1  0.88119352  0.46497616  0.29582491  1
  Cs  Cs5  1  0.89837990  0.09985460  0.50000000  1
  Cs  Cs6  1  0.66441005  0.34939948  0.00000000  1
  Cs  Cs7  1  0.16441005  0.65060052  0.50000000  1
  Cs  Cs8  1  0.20059759  0.17154538  0.21549161  1
  Cs  Cs9  1  0.38119352  0.53502384  0.20417509  1
  Cs  Cs10  1  0.38119352  0.53502384  0.79582491  1
  Cs  Cs11  1  0.88119352  0.46497616  0.70417509  1
  Cs  Cs12  1  0.70059759  0.82845462  0.28450839  1
  Cs  Cs13  1  0.20059759  0.17154538  0.78450839  1
  Ta  Ta0  1  0.99457866  0.67535243  0.00000000  1
  Ta  Ta1  1  0.49457866  0.32464757  0.50000000  1
  As  As0  1  0.06820815  0.43252002  0.00000000  1
  As  As1  1  0.56820815  0.56747998  0.50000000  1
  As  As2  1  0.08674701  0.79703023  0.18762947  1
  As  As3  1  0.58674701  0.20296977  0.31237053  1
  As  As4  1  0.58674701  0.20296977  0.68762947  1
  As  As5  1  0.08674701  0.79703023  0.81237053  1
  P  P0  1  0.72642258  0.68635733  0.00000000  1
  P  P1  1  0.22642258  0.31364267  0.50000000  1
loop_
_geom_bond_atom_site_label_1
_geom_bond_atom_site_label_2
_geom_bond_distance
_geom_bond_site_symmetry_2
Cs0 P0 3.690088 1_545
Cs1 P0 3.459645 1_556
Cs2 P0 3.611818 1_555
Cs3 P1 3.690088 1_565
Cs4 P1 4.095988 1_655
Cs5 P1 3.611818 1_655
Cs6 P0 3.412621 1_555
Cs7 P1 3.412621 1_555
Cs8 P1 3.459645 1_555
Cs9 P0 4.095988 1_555
Cs10 P0 4.095988 1_556
Cs11 P1 4.095988 1_655
Cs12 P0 3.459645 1_555
Cs13 P1 3.459645 1_555
As0 Ta0 2.513597 1_455
As0 Cs6 3.679372 1_455
As0 Cs4 3.682876 1_455
As0 Cs11 3.682876 1_454
As0 Cs8 3.723472 1_555
As0 Cs13 3.723472 1_554
As0 Cs9 3.723787 1_555
As0 Cs10 3.723787 1_554
As1 Ta1 2.513597 1_555
As1 Cs7 3.679372 1_555
As1 Cs10 3.682876 1_555
As1 Cs9 3.682876 1_555
As1 Cs1 3.723472 1_555
As1 Cs12 3.723472 1_555
As1 Cs11 3.723787 1_555
As1 Cs4 3.723787 1_555
As2 Ta0 2.540458 1_455
As2 Cs12 3.604931 1_455
As2 Cs2 3.608292 1_555
As2 Cs0 3.668980 1_465
As2 Cs9 3.704434 1_555
As2 Cs7 3.814521 1_555
As2 Cs8 3.889567 1_565
As2 Cs4 3.971913 1_455
As3 Ta1 2.540458 1_555
As3 Cs8 3.604931 1_555
As3 Cs5 3.608292 1_555
As3 Cs3 3.668980 1_545
As3 Cs4 3.704434 1_555
As3 Cs6 3.814521 1_555
As3 Cs12 3.889567 1_545
As3 Cs9 3.971913 1_555
As4 Ta1 2.540458 1_555
As4 Cs13 3.604931 1_555
As4 Cs5 3.608292 1_555
As4 Cs3 3.668980 1_545
As4 Cs11 3.704434 1_555
As4 Cs6 3.814521 1_556
As4 Cs1 3.889567 1_545
As4 Cs10 3.971913 1_555
As5 Ta0 2.540458 1_456
As5 Cs1 3.604931 1_455
As5 Cs2 3.608292 1_556
As5 Cs0 3.668980 1_466
As5 Cs10 3.704434 1_555
As5 Cs7 3.814521 1_555
As5 Cs13 3.889567 1_565
As5 Cs11 3.971913 1_455
P0 Ta0 2.382850 1_555
P1 Ta1 2.382850 1_555
