# generated using pymatgen
data_Cs2Zn3Te4
_symmetry_space_group_name_H-M   'P 1'
_cell_length_a   10.51018222
_cell_length_b   10.51018248
_cell_length_c   10.51018327
_cell_angle_alpha   144.26955650
_cell_angle_beta   105.37720109
_cell_angle_gamma   85.58696894
_symmetry_Int_Tables_number   1
_chemical_formula_structural   Cs2Zn3Te4
_chemical_formula_sum   'Cs4 Zn6 Te8'
_cell_volume   633.68871403
_cell_formula_units_Z   2
loop_
 _symmetry_equiv_pos_site_id
 _symmetry_equiv_pos_as_xyz
  1  'x, y, z'
loop_
 _atom_site_type_symbol
 _atom_site_label
 _atom_site_symmetry_multiplicity
 _atom_site_fract_x
 _atom_site_fract_y
 _atom_site_fract_z
 _atom_site_occupancy
  Cs  Cs0  1  0.12268105  0.23220792  0.35488896  1
  Cs  Cs1  1  0.37731895  0.73220792  0.10952687  1
  Cs  Cs2  1  0.62268105  0.26779208  0.89047313  1
  Cs  Cs3  1  0.87731895  0.76779208  0.64511104  1
  Zn  Zn0  1  0.51939517  0.75000000  0.76939517  1
  Zn  Zn1  1  0.98060483  0.75000000  0.23060483  1
  Zn  Zn2  1  0.48060483  0.25000000  0.23060483  1
  Zn  Zn3  1  0.75000000  0.25000000  0.50000000  1
  Zn  Zn4  1  0.25000000  0.75000000  0.50000000  1
  Zn  Zn5  1  0.01939517  0.25000000  0.76939517  1
  Te  Te0  1  0.21701557  0.07355554  0.59464157  1
  Te  Te1  1  0.28298443  0.87762400  0.85653797  1
  Te  Te2  1  0.02108603  0.42644446  0.14346203  1
  Te  Te3  1  0.47891397  0.62237600  0.40535843  1
  Te  Te4  1  0.78298443  0.92644446  0.40535843  1
  Te  Te5  1  0.71701657  0.12237600  0.14346203  1
  Te  Te6  1  0.97891397  0.57355554  0.85653797  1
  Te  Te7  1  0.52108603  0.37762400  0.59464157  1
loop_
_geom_bond_atom_site_label_1
_geom_bond_atom_site_label_2
_geom_bond_distance
_geom_bond_site_symmetry_2
Cs0 Te0 3.918597 1_555
Cs0 Te7 3.918598 1_555
Cs0 Te6 3.953907 1_455
Cs0 Te1 3.953911 1_555
Cs0 Te2 4.002104 1_555
Cs0 Te5 4.002114 1_455
Cs0 Te6 4.022910 1_444
Cs0 Te1 4.022925 1_544
Cs1 Te1 3.918597 1_554
Cs1 Te6 3.918598 1_454
Cs1 Te7 3.953907 1_565
Cs1 Te0 3.953922 1_565
Cs1 Te3 4.002104 1_555
Cs1 Te4 4.002123 1_555
Cs1 Te7 4.022911 1_554
Cs1 Te0 4.022914 1_554
Cs2 Te5 3.918598 1_556
Cs2 Te2 3.918598 1_656
Cs2 Te3 3.953907 1_545
Cs2 Te4 3.953922 1_545
Cs2 Te7 4.002104 1_555
Cs2 Te0 4.002123 1_555
Cs2 Te3 4.022911 1_556
Cs2 Te4 4.022914 1_556
Cs3 Te4 3.918597 1_555
Cs3 Te3 3.918598 1_555
Cs3 Te2 3.953907 1_655
Cs3 Te5 3.953909 1_555
Cs3 Te6 4.002104 1_555
Cs3 Te1 4.002124 1_655
Cs3 Te2 4.022910 1_666
Cs3 Te5 4.022918 1_566
Te0 Zn5 2.650853 1_555
Te0 Zn4 2.680209 1_545
Te0 Zn1 2.740691 1_445
Te1 Zn2 2.650861 1_566
Te1 Zn4 2.680202 1_555
Te1 Zn0 2.740685 1_555
Te2 Zn5 2.650872 1_554
Te2 Zn4 2.680206 1_555
Te2 Zn1 2.740705 1_455
Te3 Zn2 2.650872 1_555
Te3 Zn4 2.680206 1_555
Te3 Zn0 2.740705 1_555
Te4 Zn1 2.650853 1_555
Te4 Zn3 2.680209 1_565
Te4 Zn5 2.740691 1_665
Te5 Zn0 2.650866 1_544
Te5 Zn3 2.680204 1_555
Te5 Zn2 2.740695 1_555
Te6 Zn1 2.650872 1_556
Te6 Zn3 2.680206 1_555
Te6 Zn5 2.740705 1_655
Te7 Zn0 2.650872 1_555
Te7 Zn3 2.680206 1_555
Te7 Zn2 2.740705 1_555
