# generated using pymatgen
data_Ti6CI12
_symmetry_space_group_name_H-M   'P 1'
_cell_length_a   9.10221981
_cell_length_b   9.10222040
_cell_length_c   9.10222081
_cell_angle_alpha   106.84713029
_cell_angle_beta   106.84712880
_cell_angle_gamma   106.84713261
_symmetry_Int_Tables_number   1
_chemical_formula_structural   Ti6CI12
_chemical_formula_sum   'Ti6 C1 I12'
_cell_volume   630.64129701
_cell_formula_units_Z   1
loop_
 _symmetry_equiv_pos_site_id
 _symmetry_equiv_pos_as_xyz
  1  'x, y, z'
loop_
 _atom_site_type_symbol
 _atom_site_label
 _atom_site_symmetry_multiplicity
 _atom_site_fract_x
 _atom_site_fract_y
 _atom_site_fract_z
 _atom_site_occupancy
  Ti  Ti0  1  0.91925146  0.97357552  0.74960623  1
  Ti  Ti1  1  0.74960623  0.91925146  0.97357552  1
  Ti  Ti2  1  0.97357552  0.74960623  0.91925146  1
  Ti  Ti3  1  0.08074854  0.02642448  0.25039377  1
  Ti  Ti4  1  0.25039377  0.08074854  0.02642448  1
  Ti  Ti5  1  0.02642448  0.25039377  0.08074854  1
  C  C0  1  0.00000000  0.00000000  0.00000000  1
  I  I0  1  0.42579828  0.13622255  0.35613160  1
  I  I1  1  0.13622255  0.35613260  0.42579828  1
  I  I2  1  0.64386840  0.57420172  0.86377745  1
  I  I3  1  0.57420172  0.86377745  0.64386840  1
  I  I4  1  0.86377745  0.64386840  0.57420172  1
  I  I5  1  0.35613160  0.42579828  0.13622255  1
  I  I6  1  0.78015816  0.92741797  0.29180839  1
  I  I7  1  0.29180839  0.78015816  0.92741797  1
  I  I8  1  0.92741797  0.29180839  0.78015816  1
  I  I9  1  0.21984184  0.07258203  0.70819161  1
  I  I10  1  0.70819161  0.21984184  0.07258203  1
  I  I11  1  0.07258203  0.70819161  0.21984184  1
loop_
_geom_bond_atom_site_label_1
_geom_bond_atom_site_label_2
_geom_bond_distance
_geom_bond_site_symmetry_2
C0 Ti4 2.097938 1_555
C0 Ti1 2.097938 1_444
C0 Ti5 2.097938 1_555
C0 Ti2 2.097938 1_444
C0 Ti3 2.097938 1_555
C0 Ti0 2.097938 1_444
I0 Ti3 2.767702 1_555
I0 Ti4 2.772630 1_555
I1 Ti5 2.767701 1_555
I1 Ti3 2.772637 1_555
I2 Ti1 2.767702 1_555
I2 Ti2 2.772629 1_555
I3 Ti0 2.767702 1_555
I3 Ti1 2.772630 1_555
I4 Ti2 2.767702 1_555
I4 Ti0 2.772629 1_555
I5 Ti4 2.767702 1_555
I5 Ti5 2.772629 1_555
I6 Ti3 2.793867 1_665
I6 Ti1 2.805281 1_554
I7 Ti4 2.793867 1_566
I7 Ti2 2.805281 1_455
I8 Ti5 2.793867 1_656
I8 Ti0 2.805281 1_545
I9 Ti0 2.793867 1_445
I9 Ti4 2.805281 1_556
I10 Ti1 2.793867 1_544
I10 Ti5 2.805281 1_655
I11 Ti2 2.793867 1_454
I11 Ti3 2.805281 1_565
