# generated using pymatgen
data_SrHf(NiP)2
_symmetry_space_group_name_H-M   'P 1'
_cell_length_a   3.85764782
_cell_length_b   3.85764731
_cell_length_c   15.79962276
_cell_angle_alpha   90.00000000
_cell_angle_beta   90.00000000
_cell_angle_gamma   120.00000432
_symmetry_Int_Tables_number   1
_chemical_formula_structural   SrHf(NiP)2
_chemical_formula_sum   'Sr2 Hf2 Ni4 P4'
_cell_volume   203.62093467
_cell_formula_units_Z   2
loop_
 _symmetry_equiv_pos_site_id
 _symmetry_equiv_pos_as_xyz
  1  'x, y, z'
loop_
 _atom_site_type_symbol
 _atom_site_label
 _atom_site_symmetry_multiplicity
 _atom_site_fract_x
 _atom_site_fract_y
 _atom_site_fract_z
 _atom_site_occupancy
  Sr  Sr0  1  0.00000000  0.00000000  0.50000000  1
  Sr  Sr1  1  0.00000000  0.00000000  0.00000000  1
  Hf  Hf0  1  0.00000000  0.00000000  0.25000000  1
  Hf  Hf1  1  0.00000000  0.00000000  0.75000000  1
  Ni  Ni0  1  0.33333300  0.66666700  0.34298862  1
  Ni  Ni1  1  0.66666700  0.33333300  0.65701138  1
  Ni  Ni2  1  0.66666700  0.33333300  0.84298862  1
  Ni  Ni3  1  0.33333300  0.66666700  0.15701138  1
  P  P0  1  0.33333300  0.66666700  0.86321219  1
  P  P1  1  0.66666700  0.33333300  0.13678781  1
  P  P2  1  0.66666700  0.33333300  0.36321219  1
  P  P3  1  0.33333300  0.66666700  0.63678781  1
loop_
_geom_bond_atom_site_label_1
_geom_bond_atom_site_label_2
_geom_bond_distance
_geom_bond_site_symmetry_2
Hf0 Ni0 2.668141 1_545
Hf0 Ni3 2.668141 1_545
Hf0 Ni0 2.668144 1_555
Hf0 Ni3 2.668144 1_555
Hf0 Ni0 2.668144 1_445
Hf0 Ni3 2.668144 1_445
Hf0 P2 2.856564 1_455
Hf0 P1 2.856564 1_455
Hf0 P2 2.856566 1_445
Hf0 P1 2.856566 1_445
Hf0 P2 2.856566 1_555
Hf0 P1 2.856566 1_555
Hf1 Ni2 2.668141 1_455
Hf1 Ni1 2.668141 1_455
Hf1 Ni2 2.668144 1_445
Hf1 Ni1 2.668144 1_445
Hf1 Ni2 2.668144 1_555
Hf1 Ni1 2.668144 1_555
Hf1 P0 2.856564 1_545
Hf1 P3 2.856564 1_545
Hf1 P0 2.856566 1_555
Hf1 P3 2.856566 1_555
Hf1 P0 2.856566 1_445
Hf1 P3 2.856566 1_445
Ni0 P2 2.250015 1_565
Ni0 P2 2.250015 1_455
Ni0 P2 2.250022 1_555
Ni0 Sr0 3.333834 1_565
Ni0 Sr0 3.333836 1_555
Ni0 Sr0 3.333836 1_665
Ni1 P3 2.250015 1_545
Ni1 P3 2.250015 1_655
Ni1 P3 2.250022 1_555
Ni1 Sr0 3.333834 1_655
Ni1 Sr0 3.333836 1_665
Ni1 Sr0 3.333836 1_555
Ni2 P0 2.250015 1_545
Ni2 P0 2.250015 1_655
Ni2 P0 2.250022 1_555
Ni2 Sr1 3.333834 1_656
Ni2 Sr1 3.333836 1_666
Ni2 Sr1 3.333836 1_556
Ni3 P1 2.250015 1_565
Ni3 P1 2.250015 1_455
Ni3 P1 2.250022 1_555
Ni3 Sr1 3.333834 1_565
Ni3 Sr1 3.333836 1_555
Ni3 Sr1 3.333836 1_665
P0 Sr1 3.103424 1_566
P0 Sr1 3.103426 1_556
P0 Sr1 3.103426 1_666
P1 Sr1 3.103424 1_655
P1 Sr1 3.103426 1_665
P1 Sr1 3.103426 1_555
P2 Sr0 3.103424 1_655
P2 Sr0 3.103426 1_665
P2 Sr0 3.103426 1_555
P3 Sr0 3.103424 1_565
P3 Sr0 3.103426 1_555
P3 Sr0 3.103426 1_665
