# generated using pymatgen
data_Ba2NaAlP3
_symmetry_space_group_name_H-M   'P 1'
_cell_length_a   8.39206049
_cell_length_b   8.39206209
_cell_length_c   12.17658865
_cell_angle_alpha   75.54537404
_cell_angle_beta   75.54537471
_cell_angle_gamma   67.80498094
_symmetry_Int_Tables_number   1
_chemical_formula_structural   Ba2NaAlP3
_chemical_formula_sum   'Ba8 Na4 Al4 P12'
_cell_volume   757.25606315
_cell_formula_units_Z   4
loop_
 _symmetry_equiv_pos_site_id
 _symmetry_equiv_pos_as_xyz
  1  'x, y, z'
loop_
 _atom_site_type_symbol
 _atom_site_label
 _atom_site_symmetry_multiplicity
 _atom_site_fract_x
 _atom_site_fract_y
 _atom_site_fract_z
 _atom_site_occupancy
  Ba  Ba0  1  0.74698096  0.19372880  0.68680418  1
  Ba  Ba1  1  0.25301904  0.80627120  0.31319582  1
  Ba  Ba2  1  0.19372880  0.74698096  0.68680418  1
  Ba  Ba3  1  0.50000000  0.00000000  0.50000000  1
  Ba  Ba4  1  0.80627120  0.25301904  0.31319582  1
  Ba  Ba5  1  0.00000000  0.50000000  0.00000000  1
  Ba  Ba6  1  0.50000000  0.00000000  0.00000000  1
  Ba  Ba7  1  0.00000000  0.50000000  0.50000000  1
  Na  Na0  1  0.29846463  0.70153537  1.00000000  1
  Na  Na1  1  0.35685414  0.35685414  0.22355621  1
  Na  Na2  1  0.64314586  0.64314586  0.77644379  1
  Na  Na3  1  0.70153537  0.29846463  0.00000000  1
  Al  Al0  1  0.69699353  0.69699353  0.26051027  1
  Al  Al1  1  0.09229527  0.09229527  0.88402207  1
  Al  Al2  1  0.90770473  0.90770473  0.11597793  1
  Al  Al3  1  0.30300647  0.30300647  0.73948973  1
  P  P0  1  0.01152750  0.61837339  0.22606587  1
  P  P1  1  0.58817992  0.58817992  0.13812331  1
  P  P2  1  0.98847250  0.38162661  0.77393413  1
  P  P3  1  0.08310811  0.08310811  0.48698386  1
  P  P4  1  0.58452190  0.58452190  0.48001441  1
  P  P5  1  0.91723190  0.91723190  0.91265657  1
  P  P6  1  0.08276810  0.08276810  0.08734343  1
  P  P7  1  0.41182008  0.41182008  0.86187669  1
  P  P8  1  0.61837339  0.01152750  0.22606587  1
  P  P9  1  0.91689189  0.91689189  0.51301614  1
  P  P10  1  0.38162661  0.98847250  0.77393413  1
  P  P11  1  0.41547810  0.41547810  0.51998559  1
loop_
_geom_bond_atom_site_label_1
_geom_bond_atom_site_label_2
_geom_bond_distance
_geom_bond_site_symmetry_2
Ba0 P9 3.217738 1_545
Ba0 P3 3.234448 1_655
Ba0 P7 3.297059 1_555
Ba0 P5 3.355553 1_545
Ba0 P2 3.470185 1_555
Ba0 P11 3.514437 1_555
Ba0 P4 3.628734 1_555
Ba0 P10 3.866189 1_545
Ba1 P3 3.217738 1_565
Ba1 P9 3.234448 1_455
Ba1 P1 3.297059 1_555
Ba1 P6 3.355553 1_565
Ba1 P0 3.470185 1_555
Ba1 P4 3.514437 1_555
Ba1 P11 3.628734 1_555
Ba1 P8 3.866189 1_565
Ba2 P9 3.217737 1_455
Ba2 P3 3.234448 1_565
Ba2 P7 3.297059 1_555
Ba2 P5 3.355553 1_455
Ba2 P10 3.470185 1_555
Ba2 P11 3.514437 1_555
Ba2 P4 3.628734 1_555
Ba2 P2 3.866190 1_455
Ba3 P8 3.221740 1_555
Ba3 P10 3.221740 1_545
Ba3 P9 3.336126 1_545
Ba3 P3 3.336126 1_555
Ba3 P11 3.344913 1_555
Ba3 P4 3.344913 1_545
Ba4 P3 3.217737 1_655
Ba4 P9 3.234448 1_545
Ba4 P1 3.297059 1_555
Ba4 P6 3.355553 1_655
Ba4 P8 3.470185 1_555
Ba4 P4 3.514437 1_555
Ba4 P11 3.628734 1_555
Ba4 P0 3.866190 1_655
Ba5 P0 3.185014 1_555
Ba5 P2 3.185014 1_454
Ba5 P5 3.247440 1_454
Ba5 P6 3.247440 1_555
Ba5 P7 3.332819 1_554
Ba5 P1 3.332819 1_455
Ba6 P8 3.185014 1_555
Ba6 P10 3.185014 1_544
Ba6 P5 3.247439 1_544
Ba6 P6 3.247439 1_555
Ba6 P1 3.332819 1_545
Ba6 P7 3.332819 1_554
Ba7 P2 3.221740 1_455
Ba7 P0 3.221740 1_555
Ba7 P9 3.336126 1_455
Ba7 P3 3.336126 1_555
Ba7 P11 3.344912 1_555
Ba7 P4 3.344912 1_455
Na0 P1 3.023268 1_556
Na0 P7 3.023269 1_555
Na0 P0 3.296119 1_556
Na0 P10 3.296119 1_555
Na0 P5 3.317473 1_455
Na0 P6 3.317474 1_566
Na1 P0 2.898275 1_555
Na1 P8 2.898276 1_555
Na1 P1 3.074149 1_555
Na2 P2 2.898275 1_555
Na2 P10 2.898276 1_555
Na2 P7 3.074149 1_555
Na3 P7 3.023268 1_554
Na3 P1 3.023269 1_555
Na3 P2 3.296119 1_554
Na3 P8 3.296119 1_555
Na3 P6 3.317473 1_655
Na3 P5 3.317474 1_544
Al0 P0 2.418332 1_655
Al0 P8 2.418332 1_565
Al0 P1 2.424333 1_555
Al0 P4 2.660809 1_555
Al0 Ba1 3.413727 1_555
Al0 Ba4 3.413728 1_555
Al1 P5 2.357451 1_445
Al1 P10 2.410704 1_545
Al1 P2 2.410705 1_455
Al1 P6 2.439133 1_556
Al2 P6 2.357451 1_665
Al2 P8 2.410704 1_565
Al2 P0 2.410705 1_655
Al2 P5 2.439133 1_554
Al3 P2 2.418332 1_455
Al3 P10 2.418332 1_545
Al3 P7 2.424333 1_555
Al3 P11 2.660809 1_555
Al3 Ba0 3.413727 1_555
Al3 Ba2 3.413728 1_555
P3 P9 2.240652 1_445
P11 P4 2.256763 1_555
