# generated using pymatgen
data_YSi2OsPt
_symmetry_space_group_name_H-M   'P 1'
_cell_length_a   5.76969265
_cell_length_b   5.76969245
_cell_length_c   5.76969193
_cell_angle_alpha   138.56153813
_cell_angle_beta   138.56154302
_cell_angle_gamma   60.04405380
_symmetry_Int_Tables_number   1
_chemical_formula_structural   YSi2OsPt
_chemical_formula_sum   'Y1 Si2 Os1 Pt1'
_cell_volume   83.26073935
_cell_formula_units_Z   1
loop_
 _symmetry_equiv_pos_site_id
 _symmetry_equiv_pos_as_xyz
  1  'x, y, z'
loop_
 _atom_site_type_symbol
 _atom_site_label
 _atom_site_symmetry_multiplicity
 _atom_site_fract_x
 _atom_site_fract_y
 _atom_site_fract_z
 _atom_site_occupancy
  Y  Y0  1  0.00000000  0.00000000  0.00000000  1
  Si  Si0  1  0.37890888  0.37890888  0.00000000  1
  Si  Si1  1  0.62109112  0.62109112  1.00000000  1
  Os  Os0  1  0.75000000  0.25000000  0.50000000  1
  Pt  Pt0  1  0.25000000  0.75000000  0.50000000  1
loop_
_geom_bond_atom_site_label_1
_geom_bond_atom_site_label_2
_geom_bond_distance
_geom_bond_site_symmetry_2
Si0 Si1 2.419687 1_554
Si0 Y0 3.130039 1_554
Si0 Y0 3.130039 1_666
Si0 Y0 3.130039 1_565
Si0 Y0 3.130039 1_655
Si1 Y0 3.130039 1_667
Si1 Y0 3.130039 1_555
Si1 Y0 3.130039 1_656
Si1 Y0 3.130039 1_566
Os0 Si0 2.413614 1_555
Os0 Si1 2.413614 1_555
Os0 Si0 2.413614 1_656
Os0 Si1 2.413614 1_544
Os0 Y0 3.225785 1_656
Os0 Y0 3.225786 1_655
Os0 Y0 3.225786 1_555
Os0 Y0 3.225786 1_666
Pt0 Si1 2.413614 1_555
Pt0 Si0 2.413614 1_555
Pt0 Si1 2.413614 1_454
Pt0 Si0 2.413614 1_566
Pt0 Y0 3.225785 1_565
Pt0 Y0 3.225786 1_566
Pt0 Y0 3.225786 1_666
Pt0 Y0 3.225786 1_555
