# generated using pymatgen
data_PNF2
_symmetry_space_group_name_H-M   'P 1'
_cell_length_a   14.79641900
_cell_length_b   5.37516600
_cell_length_c   7.89566296
_cell_angle_alpha   69.55595925
_cell_angle_beta   90.00000000
_cell_angle_gamma   90.00000000
_symmetry_Int_Tables_number   1
_chemical_formula_structural   PNF2
_chemical_formula_sum   'P8 N8 F16'
_cell_volume   588.41411419
_cell_formula_units_Z   8
loop_
 _symmetry_equiv_pos_site_id
 _symmetry_equiv_pos_as_xyz
  1  'x, y, z'
loop_
 _atom_site_type_symbol
 _atom_site_label
 _atom_site_symmetry_multiplicity
 _atom_site_fract_x
 _atom_site_fract_y
 _atom_site_fract_z
 _atom_site_occupancy
  P  P0  1  0.59225700  0.91033600  0.71645000  1
  P  P1  1  0.09225700  0.08966400  0.78355000  1
  P  P2  1  0.40774300  0.08966400  0.28355000  1
  P  P3  1  0.90774300  0.91033600  0.21645000  1
  P  P4  1  0.59656400  0.24467100  0.33315700  1
  P  P5  1  0.09656400  0.75532900  0.16684300  1
  P  P6  1  0.40343600  0.75532900  0.66684300  1
  P  P7  1  0.90343600  0.24467100  0.83315700  1
  N  N0  1  0.49938800  0.24027800  0.25910100  1
  N  N1  1  0.61991600  0.13850400  0.53883000  1
  N  N2  1  0.11991600  0.86149600  0.96117000  1
  N  N3  1  0.38008400  0.86149600  0.46117000  1
  N  N4  1  0.88008400  0.13850400  0.03883000  1
  N  N5  1  0.99938800  0.75972200  0.24089900  1
  N  N6  1  0.50061200  0.75972200  0.74089900  1
  N  N7  1  0.00061200  0.24027800  0.75910100  1
  F  F0  1  0.83181000  0.69584900  0.26926300  1
  F  F1  1  0.33181000  0.30415100  0.23073700  1
  F  F2  1  0.16819000  0.30415100  0.73073700  1
  F  F3  1  0.60444200  0.02066900  0.87305700  1
  F  F4  1  0.66819000  0.69584900  0.76926300  1
  F  F5  1  0.89555800  0.02066900  0.37305700  1
  F  F6  1  0.39555800  0.97933100  0.12694300  1
  F  F7  1  0.10444200  0.97933100  0.62694300  1
  F  F8  1  0.83646400  0.12240800  0.73091200  1
  F  F9  1  0.33646400  0.87759200  0.76908800  1
  F  F10  1  0.16353600  0.87759200  0.26908800  1
  F  F11  1  0.66353600  0.12240800  0.23091200  1
  F  F12  1  0.87057400  0.53824900  0.75796700  1
  F  F13  1  0.37057400  0.46175100  0.74203300  1
  F  F14  1  0.12942600  0.46175100  0.24203300  1
  F  F15  1  0.62942600  0.53824900  0.25796700  1
loop_
_geom_bond_atom_site_label_1
_geom_bond_atom_site_label_2
_geom_bond_distance
_geom_bond_site_symmetry_2
N0 P4 1.555485 1_555
N0 P2 1.556369 1_555
N1 P4 1.560381 1_555
N1 P0 1.561053 1_545
N2 P5 1.560381 1_556
N2 P1 1.561053 1_565
N3 P6 1.560381 1_555
N3 P2 1.561053 1_565
N4 P7 1.560381 1_554
N4 P3 1.561053 1_545
N5 P5 1.555485 1_655
N5 P3 1.556369 1_555
N6 P6 1.555485 1_555
N6 P0 1.556369 1_555
N7 P7 1.555485 1_455
N7 P1 1.556369 1_555
F0 P3 1.558704 1_555
F1 P2 1.558704 1_555
F2 P1 1.558704 1_555
F3 P0 1.557397 1_545
F4 P0 1.558704 1_555
F5 P3 1.557397 1_545
F6 P2 1.557397 1_565
F7 P1 1.557397 1_565
F8 P7 1.560837 1_555
F9 P6 1.560837 1_555
F10 P5 1.560837 1_555
F11 P4 1.560837 1_555
F12 P7 1.557112 1_555
F13 P6 1.557112 1_555
F14 P5 1.557112 1_555
F15 P4 1.557112 1_555
