# generated using pymatgen
data_Rb2Na2OsO4
_symmetry_space_group_name_H-M   'P 1'
_cell_length_a   11.02927923
_cell_length_b   6.24472920
_cell_length_c   9.74942676
_cell_angle_alpha   64.42288428
_cell_angle_beta   90.00000000
_cell_angle_gamma   90.00000000
_symmetry_Int_Tables_number   1
_chemical_formula_structural   Rb2Na2OsO4
_chemical_formula_sum   'Rb8 Na8 Os4 O16'
_cell_volume   605.68774089
_cell_formula_units_Z   4
loop_
 _symmetry_equiv_pos_site_id
 _symmetry_equiv_pos_as_xyz
  1  'x, y, z'
loop_
 _atom_site_type_symbol
 _atom_site_label
 _atom_site_symmetry_multiplicity
 _atom_site_fract_x
 _atom_site_fract_y
 _atom_site_fract_z
 _atom_site_occupancy
  Rb  Rb0  1  0.87101683  0.34789411  0.77854158  1
  Rb  Rb1  1  0.13346251  0.32379054  0.00187189  1
  Rb  Rb2  1  0.63346251  0.67620946  0.49812811  1
  Rb  Rb3  1  0.36653749  0.32379054  0.50187189  1
  Rb  Rb4  1  0.37101683  0.65210589  0.72145842  1
  Rb  Rb5  1  0.12898317  0.65210589  0.22145842  1
  Rb  Rb6  1  0.62898317  0.34789411  0.27854158  1
  Rb  Rb7  1  0.86653749  0.67620946  0.99812811  1
  Na  Na0  1  0.61296947  0.94007643  0.09292555  1
  Na  Na1  1  0.60982285  0.43540992  0.91321026  1
  Na  Na2  1  0.89017715  0.43540992  0.41321026  1
  Na  Na3  1  0.88703053  0.94007643  0.59292555  1
  Na  Na4  1  0.10982285  0.56459008  0.58678974  1
  Na  Na5  1  0.11296947  0.05992357  0.40707445  1
  Na  Na6  1  0.39017715  0.56459008  0.08678974  1
  Na  Na7  1  0.38703053  0.05992357  0.90707445  1
  Os  Os0  1  0.86636743  0.01143026  0.23978345  1
  Os  Os1  1  0.63363257  0.01143026  0.73978345  1
  Os  Os2  1  0.36636743  0.98856974  0.26021655  1
  Os  Os3  1  0.13363257  0.98856974  0.76021655  1
  O  O0  1  0.95559316  0.79235493  0.41403884  1
  O  O1  1  0.45352312  0.73176614  0.25363356  1
  O  O2  1  0.27853402  0.25301018  0.25783298  1
  O  O3  1  0.73057344  0.21676117  0.57475048  1
  O  O4  1  0.26942656  0.78323883  0.42524952  1
  O  O5  1  0.54440684  0.79235493  0.91403884  1
  O  O6  1  0.77853402  0.74698982  0.24216702  1
  O  O7  1  0.76942656  0.21676117  0.07475048  1
  O  O8  1  0.95352312  0.26823386  0.24636644  1
  O  O9  1  0.23057344  0.78323883  0.92524952  1
  O  O10  1  0.04440684  0.20764507  0.58596116  1
  O  O11  1  0.22146598  0.25301018  0.75783298  1
  O  O12  1  0.54647688  0.26823386  0.74636644  1
  O  O13  1  0.04647688  0.73176614  0.75363356  1
  O  O14  1  0.72146598  0.74698982  0.74216702  1
  O  O15  1  0.45559316  0.20764507  0.08596116  1
loop_
_geom_bond_atom_site_label_1
_geom_bond_atom_site_label_2
_geom_bond_distance
_geom_bond_site_symmetry_2
Na0 O6 2.321766 1_555
Na0 O1 2.340902 1_555
Na0 O15 2.389844 1_565
Na0 O7 2.393770 1_565
Na0 O5 2.419432 1_554
Na1 O14 2.298104 1_555
Na1 O5 2.346213 1_555
Na1 O7 2.363609 1_556
Na1 O15 2.384273 1_556
Na1 O12 2.385414 1_555
Na2 O6 2.298104 1_555
Na2 O0 2.346213 1_555
Na2 O3 2.363609 1_555
Na2 O10 2.384273 1_655
Na2 O8 2.385414 1_555
Na3 O14 2.321766 1_555
Na3 O13 2.340902 1_655
Na3 O10 2.389844 1_665
Na3 O3 2.393770 1_565
Na3 O0 2.419432 1_555
Na4 O11 2.298104 1_555
Na4 O10 2.346213 1_555
Na4 O4 2.363609 1_555
Na4 O0 2.384273 1_455
Na4 O13 2.385414 1_555
Na5 O2 2.321766 1_555
Na5 O8 2.340902 1_455
Na5 O0 2.389844 1_445
Na5 O4 2.393770 1_545
Na5 O10 2.419432 1_555
Na6 O2 2.298104 1_555
Na6 O15 2.346213 1_555
Na6 O9 2.363609 1_554
Na6 O5 2.384273 1_554
Na6 O1 2.385414 1_555
Na7 O11 2.321766 1_555
Na7 O12 2.340902 1_555
Na7 O5 2.389844 1_545
Na7 O9 2.393770 1_545
Na7 O15 2.419432 1_556
O0 Os0 1.928587 1_565
O0 Rb5 3.060922 1_655
O1 Os2 1.894406 1_555
O1 Rb3 2.818603 1_555
O1 Rb2 3.004478 1_555
O1 Rb6 3.007953 1_555
O2 Os2 1.906003 1_545
O2 Rb3 2.776018 1_555
O2 Rb1 2.833809 1_555
O2 Rb5 2.880026 1_555
O3 Os1 1.895975 1_555
O3 Rb2 2.843675 1_555
O3 Rb6 2.867730 1_555
O3 Rb0 2.902128 1_555
O4 Os2 1.895975 1_555
O4 Rb3 2.843675 1_555
O4 Rb4 2.867730 1_555
O4 Rb5 2.902128 1_555
O5 Os1 1.928587 1_565
O5 Rb4 3.060922 1_555
O6 Os0 1.906003 1_565
O6 Rb7 2.776018 1_554
O6 Rb2 2.833809 1_555
O6 Rb6 2.880026 1_555
O7 Os0 1.895975 1_555
O7 Rb7 2.843675 1_554
O7 Rb0 2.867730 1_554
O7 Rb6 2.902128 1_555
O8 Os0 1.894406 1_555
O8 Rb7 2.818603 1_554
O8 Rb1 3.004478 1_655
O8 Rb5 3.007953 1_655
O9 Os3 1.895975 1_555
O9 Rb1 2.843675 1_556
O9 Rb5 2.867730 1_556
O9 Rb4 2.902128 1_555
O10 Os3 1.928587 1_545
O10 Rb0 3.060922 1_455
O11 Os3 1.906003 1_545
O11 Rb1 2.776018 1_556
O11 Rb3 2.833809 1_555
O11 Rb4 2.880026 1_555
O12 Os1 1.894406 1_555
O12 Rb2 2.818603 1_555
O12 Rb3 3.004478 1_555
O12 Rb4 3.007953 1_555
O13 Os3 1.894406 1_555
O13 Rb1 2.818603 1_556
O13 Rb7 3.004478 1_455
O13 Rb0 3.007953 1_455
O14 Os1 1.906003 1_565
O14 Rb2 2.776018 1_555
O14 Rb7 2.833809 1_555
O14 Rb0 2.880026 1_555
O15 Os2 1.928587 1_545
O15 Rb6 3.060922 1_555
