# generated using pymatgen
data_Ta5Ti(Zn3C)2
_symmetry_space_group_name_H-M   'P 1'
_cell_length_a   8.23287820
_cell_length_b   8.23287749
_cell_length_c   8.24009287
_cell_angle_alpha   59.93883117
_cell_angle_beta   59.93883451
_cell_angle_gamma   60.04437012
_symmetry_Int_Tables_number   1
_chemical_formula_structural   Ta5Ti(Zn3C)2
_chemical_formula_sum   'Ta10 Ti2 Zn12 C4'
_cell_volume   394.69666649
_cell_formula_units_Z   2
loop_
 _symmetry_equiv_pos_site_id
 _symmetry_equiv_pos_as_xyz
  1  'x, y, z'
loop_
 _atom_site_type_symbol
 _atom_site_label
 _atom_site_symmetry_multiplicity
 _atom_site_fract_x
 _atom_site_fract_y
 _atom_site_fract_z
 _atom_site_occupancy
  Ta  Ta0  1  0.93058984  0.93058984  0.56952524  1
  Ta  Ta1  1  0.56920719  0.93179513  0.56896784  1
  Ta  Ta2  1  0.93179513  0.56920719  0.56896784  1
  Ta  Ta3  1  0.56906845  0.56906845  0.93261895  1
  Ta  Ta4  1  0.92952164  0.56932398  0.93136742  1
  Ta  Ta5  1  0.56932398  0.92952164  0.93136742  1
  Ta  Ta6  1  0.31801445  0.31801445  0.68448238  1
  Ta  Ta7  1  0.67906464  0.31893089  0.68179779  1
  Ta  Ta8  1  0.31893089  0.67906464  0.68179779  1
  Ta  Ta9  1  0.68182335  0.68182335  0.31672512  1
  Ti  Ti0  1  0.32020052  0.68248002  0.31809821  1
  Ti  Ti1  1  0.68248002  0.32020052  0.31809821  1
  Zn  Zn0  1  0.33150622  0.33150622  0.00602933  1
  Zn  Zn1  1  0.33206963  0.99992206  0.33235331  1
  Zn  Zn2  1  0.99992206  0.33206963  0.33235331  1
  Zn  Zn3  1  0.33650493  0.33650493  0.33287521  1
  Zn  Zn4  1  0.91820856  0.91820856  0.24493002  1
  Zn  Zn5  1  0.91787947  0.24587985  0.91748852  1
  Zn  Zn6  1  0.24587985  0.91787947  0.91748852  1
  Zn  Zn7  1  0.91782369  0.91782369  0.91743368  1
  Zn  Zn8  1  0.12608247  0.12608247  0.62244461  1
  Zn  Zn9  1  0.12432289  0.62408356  0.12548583  1
  Zn  Zn10  1  0.62408356  0.12432289  0.12548583  1
  Zn  Zn11  1  0.12526758  0.12526758  0.12359335  1
  C  C0  1  0.62157126  0.62157126  0.13107535  1
  C  C1  1  0.62556767  0.12766454  0.62092310  1
  C  C2  1  0.12766454  0.62556767  0.62092310  1
  C  C3  1  0.62562851  0.62562851  0.62530172  1
loop_
_geom_bond_atom_site_label_1
_geom_bond_atom_site_label_2
_geom_bond_distance
_geom_bond_site_symmetry_2
Ta0 Zn7 2.765489 1_555
Ta0 Zn4 2.780547 1_555
Ta0 Zn8 3.060077 1_665
Ta0 Zn2 3.060288 1_565
Ta0 Zn1 3.060289 1_655
Ta0 Zn11 3.066699 1_665
Ta1 Zn6 2.768140 1_555
Ta1 Zn4 2.773055 1_555
Ta1 Zn10 3.054299 1_565
Ta1 Zn8 3.054504 1_565
Ta1 Zn3 3.069515 1_565
Ta1 Zn1 3.090629 1_555
Ta2 Zn5 2.768139 1_555
Ta2 Zn4 2.773055 1_555
Ta2 Zn9 3.054299 1_655
Ta2 Zn8 3.054503 1_655
Ta2 Zn3 3.069515 1_655
Ta2 Zn2 3.090629 1_555
Ta3 Zn6 2.772171 1_555
Ta3 Zn5 2.772171 1_555
Ta3 Zn3 3.036059 1_556
Ta3 Zn10 3.061504 1_556
Ta3 Zn9 3.061504 1_556
Ta3 Zn0 3.076675 1_556
Ta4 Zn7 2.767599 1_555
Ta4 Zn5 2.772029 1_555
Ta4 Zn11 3.056723 1_656
Ta4 Zn9 3.057531 1_656
Ta4 Zn2 3.064451 1_556
Ta4 Zn0 3.086535 1_656
Ta5 Zn7 2.767599 1_555
Ta5 Zn6 2.772029 1_555
Ta5 Zn11 3.056724 1_566
Ta5 Zn10 3.057531 1_566
Ta5 Zn1 3.064451 1_556
Ta5 Zn0 3.086535 1_566
Ta6 Zn3 2.753173 1_555
Ta6 Zn0 2.765312 1_556
Ta6 Zn11 3.022988 1_556
Ta6 Zn6 3.060390 1_545
Ta6 Zn5 3.060390 1_455
Ta6 Zn8 3.060579 1_555
Ta7 Zn2 2.762942 1_555
Ta7 Zn0 2.767428 1_556
Ta7 Zn10 3.055532 1_556
Ta7 Zn8 3.073043 1_655
Ta7 Zn7 3.075128 1_545
Ta7 Zn5 3.077927 1_555
Ta8 Zn1 2.762941 1_555
Ta8 Zn0 2.767428 1_556
Ta8 Zn9 3.055532 1_556
Ta8 Zn8 3.073042 1_565
Ta8 Zn7 3.075128 1_455
Ta8 Zn6 3.077927 1_555
Ta9 Zn2 2.757167 1_555
Ta9 Zn1 2.757168 1_555
Ta9 Zn10 3.041477 1_565
Ta9 Zn9 3.041477 1_655
Ta9 Zn7 3.055577 1_554
Ta9 Zn4 3.065986 1_555
Ti0 Zn1 2.725365 1_555
Ti0 Zn3 2.726378 1_555
Ti0 Zn11 3.051941 1_565
Ti0 Zn9 3.074689 1_555
Ti0 Zn6 3.075272 1_554
Ti0 Zn4 3.081484 1_455
Ti1 Zn2 2.725366 1_555
Ti1 Zn3 2.726378 1_555
Ti1 Zn11 3.051941 1_655
Ti1 Zn10 3.074689 1_555
Ti1 Zn5 3.075272 1_554
Ti1 Zn4 3.081483 1_545
Zn0 Zn9 2.504124 1_555
Zn0 Zn10 2.504124 1_555
Zn0 Zn11 2.507542 1_555
Zn0 Zn1 2.707119 1_545
Zn0 Zn2 2.707119 1_455
Zn0 Zn3 2.735088 1_555
Zn1 Zn11 2.514737 1_565
Zn1 Zn8 2.517093 1_565
Zn1 Zn10 2.517665 1_565
Zn1 Zn2 2.736364 1_465
Zn1 Zn3 2.791629 1_565
Zn2 Zn8 2.517093 1_655
Zn2 Zn9 2.517664 1_655
Zn2 Zn3 2.791629 1_655
Zn3 Zn9 2.526732 1_555
Zn3 Zn8 2.531859 1_555
Zn4 Zn9 2.514515 1_655
Zn4 Zn5 2.695424 1_564
Zn4 Zn6 2.695424 1_654
Zn4 Zn7 2.701778 1_554
Zn5 Zn8 2.522005 1_655
Zn5 Zn7 2.701302 1_545
Zn5 Zn6 2.702198 1_645
Zn6 Zn9 2.517000 1_556
Zn6 Zn8 2.522005 1_565
Zn6 Zn7 2.701302 1_455
Zn7 Zn9 2.517577 1_656
Zn7 Zn8 2.524488 1_665
Zn10 Zn4 2.514515 1_545
Zn10 Zn5 2.517001 1_554
Zn10 Zn7 2.517577 1_544
Zn10 Zn3 2.526732 1_555
Zn11 Zn4 2.509698 1_445
Zn11 Zn6 2.511561 1_544
Zn11 Zn5 2.511561 1_454
Zn11 Zn2 2.514737 1_455
C0 Ti1 2.117420 1_555
C0 Ti0 2.117420 1_555
C0 Ta9 2.144422 1_555
C0 Ta3 2.156571 1_554
C0 Ta5 2.181996 1_554
C0 Ta4 2.181996 1_554
C1 Ti1 2.136915 1_555
C1 Ta7 2.151853 1_555
C1 Ta1 2.153339 1_545
C1 Ta0 2.161478 1_545
C1 Ta6 2.161583 1_555
C1 Ta5 2.192324 1_545
C2 Ti0 2.136915 1_555
C2 Ta8 2.151853 1_555
C2 Ta2 2.153339 1_455
C2 Ta0 2.161478 1_455
C2 Ta6 2.161582 1_555
C2 Ta4 2.192324 1_455
C3 Ta1 2.158550 1_555
C3 Ta2 2.158550 1_555
C3 Ta3 2.167981 1_555
C3 Ta7 2.168894 1_555
C3 Ta8 2.168894 1_555
C3 Ta9 2.179466 1_555
