# generated using pymatgen
data_Sn14Ru5Rh
_symmetry_space_group_name_H-M   'P 1'
_cell_length_a   8.14533859
_cell_length_b   8.14533900
_cell_length_c   8.14533886
_cell_angle_alpha   109.55428826
_cell_angle_beta   109.30522007
_cell_angle_gamma   109.55428894
_symmetry_Int_Tables_number   1
_chemical_formula_structural   Sn14Ru5Rh
_chemical_formula_sum   'Sn14 Ru5 Rh1'
_cell_volume   416.00906611
_cell_formula_units_Z   1
loop_
 _symmetry_equiv_pos_site_id
 _symmetry_equiv_pos_as_xyz
  1  'x, y, z'
loop_
 _atom_site_type_symbol
 _atom_site_label
 _atom_site_symmetry_multiplicity
 _atom_site_fract_x
 _atom_site_fract_y
 _atom_site_fract_z
 _atom_site_occupancy
  Sn  Sn0  1  0.25181468  0.74911618  0.50269851  1
  Sn  Sn1  1  0.75358233  0.25088382  0.50269851  1
  Sn  Sn2  1  0.75020861  0.50000000  0.25020861  1
  Sn  Sn3  1  0.25020861  0.50000000  0.75020861  1
  Sn  Sn4  1  0.50269851  0.74911618  0.25181468  1
  Sn  Sn5  1  0.50269851  0.25088382  0.75358233  1
  Sn  Sn6  1  0.99765963  1.00000000  0.32162783  1
  Sn  Sn7  1  0.67772081  0.00000000  0.99997610  1
  Sn  Sn8  1  0.99765963  0.67603180  0.99765963  1
  Sn  Sn9  1  0.32162783  0.32396820  0.32162783  1
  Sn  Sn10  1  0.99997610  0.32225629  0.99997610  1
  Sn  Sn11  1  0.67772081  0.67774371  0.67772081  1
  Sn  Sn12  1  0.32162783  1.00000000  0.99765963  1
  Sn  Sn13  1  0.99997610  0.00000000  0.67772081  1
  Ru  Ru0  1  0.99971539  0.34445843  0.34417383  1
  Ru  Ru1  1  0.99971539  0.65554157  0.65525596  1
  Ru  Ru2  1  0.34417383  0.34445843  0.99971539  1
  Ru  Ru3  1  0.65525596  0.65554157  0.99971539  1
  Ru  Ru4  1  0.65301395  0.00000000  0.65301395  1
  Rh  Rh0  1  0.34294648  1.00000000  0.34294648  1
loop_
_geom_bond_atom_site_label_1
_geom_bond_atom_site_label_2
_geom_bond_distance
_geom_bond_site_symmetry_2
Sn6 Sn7 3.023416 1_564
Sn6 Sn9 3.043935 1_665
Sn6 Sn8 3.043935 1_554
Sn10 Sn8 2.894307 1_555
Sn10 Sn9 3.023421 1_656
Sn10 Sn7 3.027845 1_555
Sn10 Sn13 3.027845 1_555
Sn11 Sn9 2.894312 1_555
Sn11 Sn8 3.023411 1_555
Sn11 Sn13 3.027845 1_565
Sn11 Sn7 3.027845 1_565
Sn12 Sn7 2.894315 1_565
Sn12 Sn13 3.023416 1_465
Sn12 Sn8 3.043935 1_455
Sn12 Sn9 3.043935 1_566
Sn13 Sn6 2.894315 1_545
Ru0 Sn9 2.743672 1_655
Ru0 Sn6 2.743672 1_545
Ru0 Sn7 2.749128 1_554
Ru0 Sn10 2.749131 1_554
Ru0 Sn0 2.759562 1_655
Ru0 Sn1 2.759562 1_555
Ru0 Sn2 2.768655 1_555
Ru0 Sn3 2.776556 1_655
Ru0 Ru1 2.922865 1_555
Ru1 Sn12 2.743674 1_655
Ru1 Sn8 2.743680 1_555
Ru1 Sn13 2.749126 1_565
Ru1 Sn11 2.749128 1_555
Ru1 Sn0 2.759556 1_655
Ru1 Sn1 2.759564 1_555
Ru1 Sn2 2.768649 1_555
Ru1 Sn3 2.776557 1_655
Ru2 Sn9 2.743672 1_556
Ru2 Sn12 2.743672 1_545
Ru2 Sn13 2.749128 1_455
Ru2 Sn10 2.749131 1_455
Ru2 Sn4 2.759562 1_556
Ru2 Sn5 2.759562 1_555
Ru2 Sn3 2.768655 1_555
Ru2 Sn2 2.776556 1_556
Ru2 Ru3 2.922865 1_555
Ru3 Sn6 2.743674 1_556
Ru3 Sn8 2.743680 1_555
Ru3 Sn7 2.749126 1_565
Ru3 Sn11 2.749128 1_555
Ru3 Sn4 2.759556 1_556
Ru3 Sn5 2.759564 1_555
Ru3 Sn3 2.768649 1_555
Ru3 Sn2 2.776557 1_556
Ru4 Sn0 2.750199 1_545
Ru4 Sn4 2.750199 1_545
Ru4 Sn5 2.750200 1_555
Ru4 Sn1 2.750200 1_555
Ru4 Sn13 2.766120 1_555
Ru4 Sn7 2.766121 1_555
Ru4 Sn10 2.766122 1_555
Ru4 Sn11 2.766129 1_545
Rh0 Sn8 2.759940 1_454
Rh0 Sn6 2.759940 1_455
Rh0 Sn12 2.759940 1_554
Rh0 Sn9 2.759940 1_565
Rh0 Sn1 2.797051 1_565
Rh0 Sn5 2.797051 1_565
Rh0 Sn4 2.797052 1_555
Rh0 Sn0 2.797052 1_555
Rh0 Ru4 2.922288 1_565
