# generated using pymatgen
data_Sc5Al16Ir7Se
_symmetry_space_group_name_H-M   'P 1'
_cell_length_a   8.68351347
_cell_length_b   8.71288132
_cell_length_c   8.71288180
_cell_angle_alpha   59.77713199
_cell_angle_beta   60.11144217
_cell_angle_gamma   60.11144425
_symmetry_Int_Tables_number   1
_chemical_formula_structural   Sc5Al16Ir7Se
_chemical_formula_sum   'Sc5 Al16 Ir7 Se1'
_cell_volume   466.11634300
_cell_formula_units_Z   1
loop_
 _symmetry_equiv_pos_site_id
 _symmetry_equiv_pos_as_xyz
  1  'x, y, z'
loop_
 _atom_site_type_symbol
 _atom_site_label
 _atom_site_symmetry_multiplicity
 _atom_site_fract_x
 _atom_site_fract_y
 _atom_site_fract_z
 _atom_site_occupancy
  Sc  Sc0  1  0.79766924  0.20233076  0.20233076  1
  Sc  Sc1  1  0.78654933  0.21345067  0.77791334  1
  Sc  Sc2  1  0.78654933  0.77791334  0.21345067  1
  Sc  Sc3  1  0.22208666  0.77791334  0.21345067  1
  Sc  Sc4  1  0.22208666  0.21345067  0.77791334  1
  Al  Al0  1  0.85631467  0.82757838  0.82757838  1
  Al  Al1  1  0.84282663  0.81940751  0.49494124  1
  Al  Al2  1  0.48852957  0.82757838  0.82757838  1
  Al  Al3  1  0.84282663  0.49494124  0.81940751  1
  Al  Al4  1  0.18059249  0.15717337  0.15717337  1
  Al  Al5  1  0.17242162  0.14368533  0.51147043  1
  Al  Al6  1  0.17242162  0.51147043  0.14368533  1
  Al  Al7  1  0.50505876  0.15717337  0.15717337  1
  Al  Al8  1  0.60989990  0.62032667  0.62032667  1
  Al  Al9  1  0.62916325  0.61552907  0.12614243  1
  Al  Al10  1  0.14944677  0.62032667  0.62032667  1
  Al  Al11  1  0.62916325  0.12614243  0.61552907  1
  Al  Al12  1  0.38447093  0.37083675  0.37083675  1
  Al  Al13  1  0.37967333  0.39010010  0.85055323  1
  Al  Al14  1  0.37967333  0.85055323  0.39010010  1
  Al  Al15  1  0.87385757  0.37083675  0.37083675  1
  Ir  Ir0  1  0.51043439  0.48956561  0.48956561  1
  Ir  Ir1  1  0.01108052  0.48891948  0.48891948  1
  Ir  Ir2  1  0.51108052  0.98891948  0.98891948  1
  Ir  Ir3  1  0.51465752  0.99579205  0.48534248  1
  Ir  Ir4  1  0.51465752  0.48534248  0.99579205  1
  Ir  Ir5  1  0.00420795  0.48534248  0.99579205  1
  Ir  Ir6  1  0.00420795  0.99579205  0.48534248  1
  Se  Se0  1  0.01838809  0.98161191  0.98161191  1
loop_
_geom_bond_atom_site_label_1
_geom_bond_atom_site_label_2
_geom_bond_distance
_geom_bond_site_symmetry_2
Sc0 Se0 2.728806 1_644
Sc1 Se0 2.679926 1_645
Sc2 Se0 2.679925 1_654
Sc3 Se0 2.679926 1_554
Sc4 Se0 2.679925 1_545
Al0 Ir5 2.519617 1_655
Al0 Ir6 2.519617 1_655
Al0 Ir2 2.555139 1_555
Al0 Al10 2.668625 1_655
Al1 Ir6 2.496553 1_655
Al1 Ir3 2.496568 1_555
Al1 Ir1 2.512317 1_655
Al1 Al10 2.771239 1_655
Al1 Al8 2.771254 1_555
Al2 Ir4 2.519619 1_555
Al2 Ir3 2.519619 1_555
Al2 Ir2 2.555133 1_555
Al2 Al8 2.668627 1_555
Al3 Ir5 2.496553 1_655
Al3 Ir4 2.496568 1_555
Al3 Ir1 2.512317 1_655
Al3 Al8 2.771254 1_555
Al4 Ir6 2.496563 1_545
Al4 Ir5 2.496563 1_554
Al4 Ir2 2.512312 1_544
Al5 Ir6 2.519611 1_545
Al5 Ir3 2.519619 1_545
Al5 Ir1 2.555141 1_555
Al6 Ir5 2.519611 1_554
Al6 Ir4 2.519619 1_554
Al6 Ir1 2.555141 1_555
Al7 Ir4 2.496568 1_554
Al7 Ir3 2.496569 1_545
Al7 Ir2 2.512302 1_544
Al8 Ir0 2.571032 1_555
Al8 Ir3 2.677453 1_555
Al8 Ir4 2.677454 1_555
Al8 Ir1 2.850804 1_655
Al8 Sc1 2.929997 1_555
Al8 Sc2 2.929997 1_555
Al9 Ir0 2.582531 1_555
Al9 Ir2 2.654471 1_554
Al9 Ir4 2.666759 1_554
Al9 Ir5 2.666773 1_654
Al10 Ir0 2.571033 1_555
Al10 Ir6 2.677453 1_555
Al10 Ir5 2.677454 1_555
Al10 Al3 2.771239 1_455
Al10 Al14 2.827261 1_555
Al10 Al13 2.827261 1_555
Al10 Ir1 2.850804 1_555
Al10 Sc4 2.929997 1_555
Al10 Sc3 2.929997 1_555
Al11 Ir0 2.582531 1_555
Al11 Ir2 2.654472 1_545
Al11 Ir3 2.666759 1_545
Al11 Ir6 2.666773 1_645
Al12 Ir0 2.582516 1_555
Al12 Ir1 2.654472 1_555
Al12 Ir3 2.666774 1_545
Al12 Ir4 2.666774 1_554
Al13 Ir0 2.571033 1_555
Al13 Al6 2.668620 1_556
Al13 Ir4 2.677453 1_555
Al13 Ir5 2.677453 1_555
Al13 Al7 2.771240 1_556
Al13 Al4 2.771249 1_556
Al13 Al8 2.827261 1_555
Al13 Ir2 2.850804 1_545
Al13 Sc4 2.929996 1_555
Al13 Sc1 2.929997 1_555
Al14 Ir0 2.571033 1_555
Al14 Al5 2.668620 1_565
Al14 Ir3 2.677453 1_555
Al14 Ir6 2.677453 1_555
Al14 Al7 2.771240 1_565
Al14 Al4 2.771249 1_565
Al14 Al8 2.827261 1_555
Al14 Ir2 2.850805 1_554
Al14 Sc3 2.929996 1_555
Al14 Sc2 2.929997 1_555
Al15 Ir0 2.582531 1_555
Al15 Ir1 2.654457 1_655
Al15 Ir6 2.666774 1_645
Al15 Ir5 2.666774 1_654
Ir1 Sc3 3.096625 1_555
Ir1 Sc1 3.096625 1_455
Ir1 Sc4 3.096625 1_555
Ir1 Sc2 3.096625 1_455
Ir2 Sc1 3.096624 1_565
Ir2 Sc3 3.096624 1_556
Ir2 Sc2 3.096625 1_556
Ir2 Sc4 3.096625 1_565
Ir3 Sc0 3.042868 1_565
Ir3 Sc2 3.045693 1_555
Ir3 Sc4 3.187416 1_565
Ir4 Sc0 3.042869 1_556
Ir4 Sc1 3.045693 1_555
Ir4 Sc3 3.187416 1_556
Ir5 Sc0 3.042868 1_456
Ir5 Sc4 3.045693 1_555
Ir5 Sc2 3.187416 1_456
Ir6 Sc0 3.042869 1_465
Ir6 Sc3 3.045693 1_555
Ir6 Sc1 3.187416 1_465
