# generated using pymatgen
data_Sr6TiCo4O15
_symmetry_space_group_name_H-M   'P 1'
_cell_length_a   6.85906891
_cell_length_b   6.85906944
_cell_length_c   6.85906907
_cell_angle_alpha   88.22728626
_cell_angle_beta   88.22728220
_cell_angle_gamma   88.22727688
_symmetry_Int_Tables_number   1
_chemical_formula_structural   Sr6TiCo4O15
_chemical_formula_sum   'Sr6 Ti1 Co4 O15'
_cell_volume   322.24347509
_cell_formula_units_Z   1
loop_
 _symmetry_equiv_pos_site_id
 _symmetry_equiv_pos_as_xyz
  1  'x, y, z'
loop_
 _atom_site_type_symbol
 _atom_site_label
 _atom_site_symmetry_multiplicity
 _atom_site_fract_x
 _atom_site_fract_y
 _atom_site_fract_z
 _atom_site_occupancy
  Sr  Sr0  1  0.50000000  0.86154994  0.13845006  1
  Sr  Sr1  1  0.13845006  0.50000000  0.86154994  1
  Sr  Sr2  1  0.86154994  0.13845006  0.50000000  1
  Sr  Sr3  1  1.00000000  0.67584850  0.32415150  1
  Sr  Sr4  1  0.32415150  0.00000000  0.67584850  1
  Sr  Sr5  1  0.67584850  0.32415150  1.00000000  1
  Ti  Ti0  1  0.50000000  0.50000000  0.50000000  1
  Co  Co0  1  0.70976391  0.70976391  0.70976391  1
  Co  Co1  1  0.29023609  0.29023609  0.29023609  1
  Co  Co2  1  0.90165173  0.90165173  0.90165173  1
  Co  Co3  1  0.09834827  0.09834827  0.09834827  1
  O  O0  1  0.37704876  0.54607263  0.24377114  1
  O  O1  1  0.24377114  0.37704876  0.54607263  1
  O  O2  1  0.54607263  0.24377114  0.37704876  1
  O  O3  1  0.62295124  0.75622886  0.45392737  1
  O  O4  1  0.45392737  0.62295124  0.75622886  1
  O  O5  1  0.75622886  0.45392737  0.62295124  1
  O  O6  1  0.20097776  0.02952616  0.34301533  1
  O  O7  1  0.34301533  0.20097776  0.02952616  1
  O  O8  1  0.02952616  0.34301533  0.20097776  1
  O  O9  1  0.79902224  0.65698467  0.97047384  1
  O  O10  1  0.97047384  0.79902224  0.65698467  1
  O  O11  1  0.15273601  0.84726399  0.00000000  1
  O  O12  1  0.84726399  1.00000000  0.15273601  1
  O  O13  1  0.00000000  0.15273601  0.84726399  1
  O  O14  1  0.65698467  0.97047384  0.79902224  1
loop_
_geom_bond_atom_site_label_1
_geom_bond_atom_site_label_2
_geom_bond_distance
_geom_bond_site_symmetry_2
Co0 O3 1.885144 1_555
Co0 O5 1.885144 1_555
Co0 O4 1.885144 1_555
Co0 O9 1.928110 1_555
Co0 O14 1.928110 1_555
Co0 O10 1.928110 1_555
Co1 O2 1.885144 1_555
Co1 O1 1.885144 1_555
Co1 O0 1.885144 1_555
Co1 O8 1.928110 1_555
Co1 O7 1.928110 1_555
Co1 O6 1.928110 1_555
Co2 O14 1.881012 1_555
Co2 O10 1.881012 1_555
Co2 O9 1.881012 1_555
Co2 O11 1.891234 1_656
Co2 O12 1.891234 1_556
Co2 O13 1.891235 1_665
Co3 O8 1.881012 1_555
Co3 O6 1.881012 1_555
Co3 O7 1.881012 1_555
Co3 O11 1.891234 1_545
Co3 O13 1.891234 1_554
Co3 O12 1.891234 1_445
O0 Ti0 1.985119 1_555
O0 Sr0 2.427746 1_555
O0 Sr3 2.753995 1_455
O0 Sr5 3.010909 1_554
O1 Ti0 1.985119 1_555
O1 Sr1 2.427746 1_555
O1 Sr4 2.753995 1_555
O1 Sr3 3.010909 1_455
O2 Ti0 1.985119 1_555
O2 Sr2 2.427746 1_555
O2 Sr5 2.753995 1_554
O2 Sr4 3.010909 1_555
O3 Ti0 1.985119 1_555
O3 Sr0 2.427746 1_555
O3 Sr3 2.753995 1_555
O3 Sr4 3.010909 1_565
O4 Ti0 1.985119 1_555
O4 Sr1 2.427746 1_555
O4 Sr4 2.753995 1_565
O4 Sr5 3.010909 1_555
O5 Ti0 1.985119 1_555
O5 Sr2 2.427746 1_555
O5 Sr5 2.753995 1_555
O5 Sr3 3.010909 1_555
O6 Sr4 2.459002 1_555
O6 Sr2 2.631538 1_455
O6 Sr0 2.697900 1_545
O6 Sr3 2.835385 1_445
O7 Sr5 2.459002 1_554
O7 Sr0 2.631538 1_545
O7 Sr1 2.697900 1_554
O7 Sr4 2.835384 1_554
O8 Sr3 2.459002 1_455
O8 Sr1 2.631538 1_554
O8 Sr2 2.697900 1_455
O8 Sr5 2.835384 1_454
O9 Sr5 2.459002 1_555
O9 Sr1 2.631538 1_655
O9 Sr0 2.697900 1_556
O9 Sr3 2.835384 1_556
O10 Sr3 2.459001 1_555
O10 Sr2 2.631538 1_565
O10 Sr1 2.697900 1_655
O10 Sr4 2.835384 1_665
O11 Sr0 2.597122 1_555
O11 Sr1 2.597122 1_554
O11 Sr4 2.682104 1_564
O11 Sr3 2.682104 1_455
O12 Sr2 2.597122 1_565
O12 Sr0 2.597122 1_555
O12 Sr5 2.682104 1_564
O12 Sr3 2.682104 1_555
O13 Sr2 2.597122 1_455
O13 Sr1 2.597122 1_555
O13 Sr5 2.682104 1_455
O13 Sr4 2.682104 1_555
O14 Sr4 2.459001 1_565
O14 Sr0 2.631538 1_556
O14 Sr2 2.697900 1_565
O14 Sr5 2.835384 1_565
