# generated using pymatgen
data_Ba4GaAs3Pt4
_symmetry_space_group_name_H-M   'P 1'
_cell_length_a   6.79338432
_cell_length_b   6.79338432
_cell_length_c   6.79338432
_cell_angle_alpha   91.06130875
_cell_angle_beta   88.93869125
_cell_angle_gamma   91.06130875
_symmetry_Int_Tables_number   1
_chemical_formula_structural   Ba4GaAs3Pt4
_chemical_formula_sum   'Ba4 Ga1 As3 Pt4'
_cell_volume   313.35577792
_cell_formula_units_Z   1
loop_
 _symmetry_equiv_pos_site_id
 _symmetry_equiv_pos_as_xyz
  1  'x, y, z'
loop_
 _atom_site_type_symbol
 _atom_site_label
 _atom_site_symmetry_multiplicity
 _atom_site_fract_x
 _atom_site_fract_y
 _atom_site_fract_z
 _atom_site_occupancy
  Ba  Ba0  1  0.62489134  0.37979078  0.88130781  1
  Ba  Ba1  1  0.38130781  0.87510866  0.62020922  1
  Ba  Ba2  1  0.12020922  0.11869219  0.12489134  1
  Ba  Ba3  1  0.87356798  0.62643202  0.37356798  1
  Ga  Ga0  1  0.15803804  0.34196196  0.65803804  1
  As  As0  1  0.66923708  0.16910629  0.33717956  1
  As  As1  1  0.33089371  0.66282044  0.16923708  1
  As  As2  1  0.83717956  0.83076292  0.83089371  1
  Pt  Pt0  1  0.59785684  0.90214316  0.09785684  1
  Pt  Pt1  1  0.09103539  0.59596384  0.91174687  1
  Pt  Pt2  1  0.41174687  0.40896461  0.40403616  1
  Pt  Pt3  1  0.90403616  0.08825313  0.59103539  1
loop_
_geom_bond_atom_site_label_1
_geom_bond_atom_site_label_2
_geom_bond_distance
_geom_bond_site_symmetry_2
Ba0 Pt3 3.356044 1_555
Ba0 Pt1 3.473915 1_655
Ba0 Ga0 3.543820 1_555
Ba0 Pt2 3.585623 1_555
Ba0 Pt0 3.587705 1_546
Ba1 Pt1 3.356044 1_555
Ba1 Pt2 3.473915 1_555
Ba1 Ga0 3.543820 1_565
Ba1 Pt3 3.585623 1_465
Ba1 Pt0 3.587705 1_556
Ba2 Pt2 3.356044 1_555
Ba2 Pt3 3.473915 1_455
Ba2 Ga0 3.543820 1_554
Ba2 Pt1 3.585623 1_554
Ba2 Pt0 3.587705 1_545
Ba3 Pt0 3.303694 1_555
Ba3 Ga0 3.408647 1_655
Ba3 Pt1 3.447285 1_654
Ba3 Pt3 3.447285 1_565
Ba3 Pt2 3.447285 1_555
Ga0 Pt3 2.458679 1_455
Ga0 Pt1 2.458679 1_555
Ga0 Pt2 2.458679 1_555
As0 Pt2 2.443345 1_555
As0 Pt3 2.447338 1_555
As0 Pt0 2.460668 1_545
As0 Ba1 3.371952 1_545
As0 Ba2 3.382280 1_655
As0 Ba3 3.385937 1_555
As0 Ba0 3.456134 1_554
As1 Pt1 2.443345 1_554
As1 Pt2 2.447338 1_555
As1 Pt0 2.460668 1_555
As1 Ba0 3.371952 1_554
As1 Ba1 3.382280 1_555
As1 Ba3 3.385937 1_455
As1 Ba2 3.456134 1_565
As2 Pt3 2.443345 1_565
As2 Pt1 2.447338 1_655
As2 Pt0 2.460668 1_556
As2 Ba2 3.371952 1_666
As2 Ba0 3.382280 1_555
As2 Ba3 3.385937 1_555
As2 Ba1 3.456134 1_555
