# generated using pymatgen
data_V3GaRuS8
_symmetry_space_group_name_H-M   'P 1'
_cell_length_a   6.86594520
_cell_length_b   6.88625272
_cell_length_c   6.81775241
_cell_angle_alpha   59.71328705
_cell_angle_beta   59.76566021
_cell_angle_gamma   60.09735812
_symmetry_Int_Tables_number   1
_chemical_formula_structural   V3GaRuS8
_chemical_formula_sum   'V3 Ga1 Ru1 S8'
_cell_volume   227.19766112
_cell_formula_units_Z   1
loop_
 _symmetry_equiv_pos_site_id
 _symmetry_equiv_pos_as_xyz
  1  'x, y, z'
loop_
 _atom_site_type_symbol
 _atom_site_label
 _atom_site_symmetry_multiplicity
 _atom_site_fract_x
 _atom_site_fract_y
 _atom_site_fract_z
 _atom_site_occupancy
  V  V0  1  0.60765261  0.18478408  0.59991861  1
  V  V1  1  0.18282388  0.61192455  0.59810254  1
  V  V2  1  0.60714203  0.61191810  0.59810248  1
  Ga  Ga0  1  0.00020472  0.99932325  0.00025974  1
  Ru  Ru0  1  0.60613173  0.60709254  0.18063573  1
  S  S0  1  0.86525378  0.86542179  0.40411691  1
  S  S1  1  0.86027010  0.40994838  0.86955030  1
  S  S2  1  0.40980727  0.86054359  0.86882240  1
  S  S3  1  0.86084842  0.86052133  0.86879663  1
  S  S4  1  0.37553107  0.36814549  0.88077038  1
  S  S5  1  0.36997396  0.36494189  0.37809442  1
  S  S6  1  0.88699622  0.36493636  0.37808381  1
  S  S7  1  0.36736321  0.89049965  0.37474805  1
loop_
_geom_bond_atom_site_label_1
_geom_bond_atom_site_label_2
_geom_bond_distance
_geom_bond_site_symmetry_2
Ga0 S0 2.238689 1_455
Ga0 S2 2.295975 1_554
Ga0 S3 2.296087 1_454
Ga0 S1 2.307544 1_464
Ru0 S5 2.335652 1_555
Ru0 S6 2.335685 1_555
Ru0 S7 2.340507 1_555
Ru0 S2 2.485993 1_554
Ru0 S3 2.486047 1_554
Ru0 S1 2.490250 1_554
S0 V1 2.516154 1_655
S0 V2 2.516475 1_555
S0 V0 2.540072 1_565
S1 V1 2.571264 1_655
S1 V2 2.571519 1_555
S2 V2 2.555328 1_555
S2 V0 2.564944 1_565
S3 V1 2.555055 1_655
S3 V0 2.564921 1_565
S4 V0 2.271495 1_555
S4 V1 2.317934 1_555
S4 V2 2.317966 1_555
S5 V0 2.250277 1_555
S5 V1 2.290596 1_555
S6 V0 2.250239 1_555
S6 V2 2.290646 1_555
S7 V1 2.266749 1_555
S7 V2 2.266840 1_555
