# generated using pymatgen
data_Ba2MnFeN4
_symmetry_space_group_name_H-M   'P 1'
_cell_length_a   6.38332275
_cell_length_b   6.38332176
_cell_length_c   7.75139880
_cell_angle_alpha   90.27970483
_cell_angle_beta   89.72029438
_cell_angle_gamma   125.54119135
_symmetry_Int_Tables_number   1
_chemical_formula_structural   Ba2MnFeN4
_chemical_formula_sum   'Ba4 Mn2 Fe2 N8'
_cell_volume   256.99828846
_cell_formula_units_Z   2
loop_
 _symmetry_equiv_pos_site_id
 _symmetry_equiv_pos_as_xyz
  1  'x, y, z'
loop_
 _atom_site_type_symbol
 _atom_site_label
 _atom_site_symmetry_multiplicity
 _atom_site_fract_x
 _atom_site_fract_y
 _atom_site_fract_z
 _atom_site_occupancy
  Ba  Ba0  1  0.84136950  0.15863050  0.55937358  1
  Ba  Ba1  1  0.15863050  0.84136950  0.44062642  1
  Ba  Ba2  1  0.65837327  0.34162673  0.06158767  1
  Ba  Ba3  1  0.34162673  0.65837327  0.93841233  1
  Mn  Mn0  1  0.94929201  0.05070799  0.13592855  1
  Mn  Mn1  1  0.05070799  0.94929201  0.86407145  1
  Fe  Fe0  1  0.54745115  0.45254885  0.63186356  1
  Fe  Fe1  1  0.45254885  0.54745115  0.36813644  1
  N  N0  1  0.89180738  0.10819262  0.91537451  1
  N  N1  1  0.10819262  0.89180738  0.08462549  1
  N  N2  1  0.61234386  0.38765614  0.41211416  1
  N  N3  1  0.38765614  0.61234386  0.58788584  1
  N  N4  1  0.33424854  0.15031151  0.75442487  1
  N  N5  1  0.15031151  0.33424854  0.24557513  1
  N  N6  1  0.66575146  0.84968849  0.24557513  1
  N  N7  1  0.84968849  0.66575146  0.75442487  1
loop_
_geom_bond_atom_site_label_1
_geom_bond_atom_site_label_2
_geom_bond_distance
_geom_bond_site_symmetry_2
Ba0 N0 2.821356 1_555
Ba0 N2 2.845145 1_555
Ba0 N6 2.910647 1_545
Ba0 N5 2.910647 1_655
Ba0 N3 2.976036 1_545
Ba0 N3 2.976037 1_655
Ba1 N1 2.821356 1_555
Ba1 N3 2.845145 1_555
Ba1 N4 2.910647 1_565
Ba1 N7 2.910647 1_455
Ba1 N2 2.976036 1_565
Ba1 N2 2.976037 1_455
Ba2 N2 2.764039 1_555
Ba2 N0 2.876379 1_554
Ba2 N7 2.919456 1_554
Ba2 N4 2.919456 1_554
Ba2 N1 2.980915 1_655
Ba2 N1 2.980915 1_545
Ba3 N3 2.764039 1_555
Ba3 N1 2.876379 1_556
Ba3 N5 2.919456 1_556
Ba3 N6 2.919456 1_556
Ba3 N0 2.980915 1_455
Ba3 N0 2.980915 1_565
Mn0 N5 1.714740 1_655
Mn0 N6 1.714741 1_545
Mn0 N0 1.833254 1_554
Mn0 N1 1.845000 1_645
Mn1 N7 1.714740 1_455
Mn1 N4 1.714741 1_565
Mn1 N1 1.833254 1_556
Mn1 N0 1.845000 1_465
Fe0 N3 1.847563 1_555
Fe0 N4 1.851915 1_555
Fe0 N7 1.851915 1_555
Fe0 N2 1.852116 1_555
Fe1 N2 1.847563 1_555
Fe1 N6 1.851915 1_555
Fe1 N5 1.851915 1_555
Fe1 N3 1.852116 1_555
