# generated using pymatgen
data_Al2Os3W
_symmetry_space_group_name_H-M   'P 1'
_cell_length_a   4.31183557
_cell_length_b   4.31183544
_cell_length_c   5.27641542
_cell_angle_alpha   90.00000000
_cell_angle_beta   90.00000000
_cell_angle_gamma   119.99998594
_symmetry_Int_Tables_number   1
_chemical_formula_structural   Al2Os3W
_chemical_formula_sum   'Al2 Os3 W1'
_cell_volume   84.95599733
_cell_formula_units_Z   1
loop_
 _symmetry_equiv_pos_site_id
 _symmetry_equiv_pos_as_xyz
  1  'x, y, z'
loop_
 _atom_site_type_symbol
 _atom_site_label
 _atom_site_symmetry_multiplicity
 _atom_site_fract_x
 _atom_site_fract_y
 _atom_site_fract_z
 _atom_site_occupancy
  Al  Al0  1  0.33333300  0.66666700  0.15820040  1
  Al  Al1  1  0.66666700  0.33333300  0.84179960  1
  Os  Os0  1  0.33333300  0.66666700  0.66156696  1
  Os  Os1  1  0.66666700  0.33333300  0.33843304  1
  Os  Os2  1  0.00000000  0.00000000  0.00000000  1
  W  W0  1  0.00000000  0.00000000  0.50000000  1
loop_
_geom_bond_atom_site_label_1
_geom_bond_atom_site_label_2
_geom_bond_distance
_geom_bond_site_symmetry_2
Al0 Os0 2.620444 1_554
Al0 Os2 2.625656 1_565
Al0 Os2 2.625660 1_555
Al0 Os2 2.625660 1_665
Al0 Os0 2.655971 1_555
Al0 Os1 2.664895 1_565
Al0 Os1 2.664895 1_455
Al0 Os1 2.664901 1_555
Al0 W0 3.074056 1_565
Al0 W0 3.074060 1_555
Al0 W0 3.074060 1_665
Al1 Os1 2.620444 1_556
Al1 Os2 2.625656 1_656
Al1 Os2 2.625660 1_666
Al1 Os2 2.625660 1_556
Al1 Os1 2.655971 1_555
Al1 Os0 2.664895 1_545
Al1 Os0 2.664895 1_655
Al1 Os0 2.664901 1_555
Al1 W0 3.074056 1_655
Al1 W0 3.074060 1_665
Al1 W0 3.074060 1_555
Os0 W0 2.631357 1_565
Os0 W0 2.631361 1_555
Os0 W0 2.631361 1_665
Os1 W0 2.631357 1_655
Os1 W0 2.631361 1_665
Os1 W0 2.631361 1_555
Os2 W0 2.638208 1_554
Os2 W0 2.638208 1_555
