# generated using pymatgen
data_Ta10Si2B3P
_symmetry_space_group_name_H-M   'P 1'
_cell_length_a   7.28761498
_cell_length_b   7.28761517
_cell_length_c   7.31477417
_cell_angle_alpha   129.01511258
_cell_angle_beta   129.01511293
_cell_angle_gamma   74.70773221
_symmetry_Int_Tables_number   1
_chemical_formula_structural   Ta10Si2B3P
_chemical_formula_sum   'Ta10 Si2 B3 P1'
_cell_volume   228.80253971
_cell_formula_units_Z   1
loop_
 _symmetry_equiv_pos_site_id
 _symmetry_equiv_pos_as_xyz
  1  'x, y, z'
loop_
 _atom_site_type_symbol
 _atom_site_label
 _atom_site_symmetry_multiplicity
 _atom_site_fract_x
 _atom_site_fract_y
 _atom_site_fract_z
 _atom_site_occupancy
  Ta  Ta0  1  0.99546385  0.00084354  0.99630739  1
  Ta  Ta1  1  0.81425821  0.97630737  0.50619352  1
  Ta  Ta2  1  0.30218171  0.80218171  0.81781188  1
  Ta  Ta3  1  0.19193431  0.02988515  0.50619352  1
  Ta  Ta4  1  0.52988515  0.69193431  0.50619352  1
  Ta  Ta5  1  0.01562917  0.51562917  0.81781188  1
  Ta  Ta6  1  0.69215428  0.19215428  0.16567387  1
  Ta  Ta7  1  0.97351958  0.47351958  0.16567387  1
  Ta  Ta8  1  0.50084354  0.49546385  0.99630739  1
  Ta  Ta9  1  0.47630737  0.31425821  0.50619352  1
  Si  Si0  1  0.75172172  0.75172172  0.00344243  1
  Si  Si1  1  0.25172172  0.25172172  0.00344243  1
  B  B0  1  0.88256116  0.61455585  0.49711800  1
  B  B1  1  0.63164100  0.13164100  0.76328000  1
  B  B2  1  0.11455585  0.38256116  0.49711800  1
  P  P0  1  0.37561939  0.87561939  0.25123978  1
loop_
_geom_bond_atom_site_label_1
_geom_bond_atom_site_label_2
_geom_bond_distance
_geom_bond_site_symmetry_2
Si0 Ta4 2.646858 1_554
Si0 Ta9 2.646869 1_554
Si0 Ta6 2.648939 1_565
Si0 Ta7 2.648944 1_555
Si0 Ta5 2.665336 1_654
Si0 Ta2 2.665347 1_554
Si0 Ta3 2.667511 1_665
Si0 Ta1 2.667521 1_555
Si0 Ta0 2.896742 1_564
Si0 Ta8 2.896754 1_554
Si1 Ta3 2.646858 1_554
Si1 Ta1 2.646869 1_444
Si1 Ta6 2.648939 1_555
Si1 Ta7 2.648944 1_455
Si1 Ta5 2.665336 1_554
Si1 Ta2 2.665347 1_544
Si1 Ta4 2.667511 1_555
Si1 Ta9 2.667521 1_555
Si1 Ta8 2.896742 1_554
Si1 Ta0 2.896754 1_454
B0 B2 2.051603 1_655
B0 Ta2 2.420604 1_655
B0 Ta5 2.420604 1_655
B0 Ta6 2.429052 1_555
B0 Ta7 2.429059 1_555
B0 Ta4 2.516216 1_555
B0 Ta1 2.516216 1_555
B0 Ta8 2.520233 1_554
B0 Ta0 2.536137 1_565
B1 P0 2.286915 1_545
B1 Ta0 2.422054 1_555
B1 Ta8 2.422054 1_555
B1 Ta7 2.426230 1_556
B1 Ta6 2.426245 1_556
B1 Ta1 2.503015 1_545
B1 Ta9 2.503015 1_555
B1 Ta3 2.503038 1_555
B1 Ta4 2.503038 1_545
B2 Ta5 2.420604 1_555
B2 Ta2 2.420604 1_555
B2 Ta6 2.429052 1_455
B2 Ta7 2.429059 1_455
B2 Ta9 2.516216 1_555
B2 Ta3 2.516216 1_555
B2 Ta0 2.520233 1_454
B2 Ta8 2.536137 1_555
P0 Ta1 2.498671 1_555
P0 Ta3 2.498671 1_565
P0 Ta4 2.498671 1_555
P0 Ta9 2.498671 1_565
P0 Ta0 2.507971 1_464
P0 Ta8 2.507971 1_554
P0 Ta2 2.550080 1_554
P0 Ta5 2.550080 1_554
