# generated using pymatgen
data_Ta5Ti3(MoN6)2
_symmetry_space_group_name_H-M   'P 1'
_cell_length_a   5.12544098
_cell_length_b   5.12608592
_cell_length_c   10.26017254
_cell_angle_alpha   89.97605803
_cell_angle_beta   90.01013836
_cell_angle_gamma   120.02669457
_symmetry_Int_Tables_number   1
_chemical_formula_structural   Ta5Ti3(MoN6)2
_chemical_formula_sum   'Ta5 Ti3 Mo2 N12'
_cell_volume   233.39174505
_cell_formula_units_Z   1
loop_
 _symmetry_equiv_pos_site_id
 _symmetry_equiv_pos_as_xyz
  1  'x, y, z'
loop_
 _atom_site_type_symbol
 _atom_site_label
 _atom_site_symmetry_multiplicity
 _atom_site_fract_x
 _atom_site_fract_y
 _atom_site_fract_z
 _atom_site_occupancy
  Ta  Ta0  1  0.00089382  0.32283802  0.75217728  1
  Ta  Ta1  1  0.32266966  0.32492119  0.24836401  1
  Ta  Ta2  1  0.67597380  0.99962837  0.24837421  1
  Ta  Ta3  1  0.00124167  0.67788622  0.24835296  1
  Ta  Ta4  1  0.66571623  0.33332837  0.49643542  1
  Ti  Ti0  1  0.66578194  0.33393129  0.00374791  1
  Ti  Ti1  1  0.33448048  0.66824212  0.00332446  1
  Ti  Ti2  1  0.33466134  0.66763967  0.49576947  1
  Mo  Mo0  1  0.67491876  0.67403673  0.75143491  1
  Mo  Mo1  1  0.32417491  0.99728458  0.75137847  1
  N  N0  1  0.65827129  0.66019715  0.38043887  1
  N  N1  1  0.34036676  0.99929766  0.38041325  1
  N  N2  1  0.00135741  0.34262620  0.38031267  1
  N  N3  1  0.34480449  0.34480503  0.62440023  1
  N  N4  1  0.65392583  0.99794944  0.62430734  1
  N  N5  1  0.00063154  0.65450995  0.62424090  1
  N  N6  1  0.34736679  0.34598160  0.87710096  1
  N  N7  1  0.65278803  0.99893321  0.87705006  1
  N  N8  1  0.99997210  0.65331991  0.87698336  1
  N  N9  1  0.65511073  0.65579560  0.11831482  1
  N  N10  1  0.34508137  0.00098662  0.11831951  1
  N  N11  1  0.99981104  0.34586105  0.11875894  1
loop_
_geom_bond_atom_site_label_1
_geom_bond_atom_site_label_2
_geom_bond_distance
_geom_bond_site_symmetry_2
Mo0 N6 2.117153 1_555
Mo0 N3 2.133805 1_555
Mo0 N8 2.149999 1_555
Mo0 N7 2.153737 1_555
Mo0 N4 2.155642 1_555
Mo0 N5 2.160605 1_655
Mo1 N7 2.117658 1_555
Mo1 N4 2.133388 1_555
Mo1 N8 2.144175 1_455
Mo1 N5 2.150337 1_555
Mo1 N6 2.159229 1_565
Mo1 N3 2.166003 1_565
N0 Ti2 2.053496 1_555
N0 Ta4 2.070676 1_555
N0 Ta2 2.170665 1_555
N0 Ta3 2.185450 1_655
N0 Ta1 2.188911 1_555
N1 Ti2 2.059282 1_555
N1 Ta4 2.067143 1_565
N1 Ta3 2.169474 1_555
N1 Ta1 2.186224 1_565
N1 Ta2 2.189086 1_555
N2 Ti2 2.061523 1_555
N2 Ta4 2.073616 1_455
N2 Ta1 2.168802 1_555
N2 Ta2 2.184450 1_445
N2 Ta3 2.187622 1_555
N3 Ta4 2.128464 1_555
N3 Ti2 2.137143 1_555
N3 Ta0 2.154199 1_555
N4 Ti2 2.124166 1_555
N4 Ta4 2.138858 1_565
N4 Ta0 2.166640 1_665
N5 Ta4 2.132927 1_455
N5 Ti2 2.135074 1_555
N5 Ta0 2.148041 1_555
N6 Ti0 2.110892 1_556
N6 Ti1 2.126378 1_556
N6 Ta0 2.144519 1_555
N7 Ti1 2.108291 1_556
N7 Ti0 2.128505 1_566
N7 Ta0 2.148466 1_665
N8 Ti1 2.119849 1_656
N8 Ti0 2.120952 1_556
N8 Ta0 2.125914 1_655
N9 Ti0 2.049116 1_555
N9 Ti1 2.049611 1_555
N9 Ta1 2.160336 1_555
N9 Ta2 2.170691 1_555
N9 Ta3 2.176814 1_655
N10 Ti0 2.046443 1_555
N10 Ti1 2.052629 1_545
N10 Ta2 2.160544 1_545
N10 Ta3 2.169499 1_545
N10 Ta1 2.177984 1_555
N11 Ti0 2.054723 1_555
N11 Ti1 2.058679 1_655
N11 Ta3 2.157361 1_655
N11 Ta1 2.166800 1_655
N11 Ta2 2.173496 1_545
