# generated using pymatgen
data_TcHgO4
_symmetry_space_group_name_H-M   'P 1'
_cell_length_a   5.16681218
_cell_length_b   5.61422493
_cell_length_c   14.93436635
_cell_angle_alpha   71.34875579
_cell_angle_beta   90.00000000
_cell_angle_gamma   90.00000000
_symmetry_Int_Tables_number   1
_chemical_formula_structural   TcHgO4
_chemical_formula_sum   'Tc4 Hg4 O16'
_cell_volume   410.45977219
_cell_formula_units_Z   4
loop_
 _symmetry_equiv_pos_site_id
 _symmetry_equiv_pos_as_xyz
  1  'x, y, z'
loop_
 _atom_site_type_symbol
 _atom_site_label
 _atom_site_symmetry_multiplicity
 _atom_site_fract_x
 _atom_site_fract_y
 _atom_site_fract_z
 _atom_site_occupancy
  Tc  Tc0  1  0.62945897  0.14905491  0.34458157  1
  Tc  Tc1  1  0.37054103  0.85094509  0.65541843  1
  Tc  Tc2  1  0.12945897  0.85094509  0.15541843  1
  Tc  Tc3  1  0.87054103  0.14905491  0.84458157  1
  Hg  Hg0  1  0.33312771  0.62062478  0.93921594  1
  Hg  Hg1  1  0.16687229  0.62062478  0.43921594  1
  Hg  Hg2  1  0.83312771  0.37937522  0.56078406  1
  Hg  Hg3  1  0.66687229  0.37937522  0.06078406  1
  O  O0  1  0.48804172  0.85831781  0.35972135  1
  O  O1  1  0.51195828  0.14168219  0.64027865  1
  O  O2  1  0.07357293  0.65854534  0.26754990  1
  O  O3  1  0.98804172  0.14168219  0.14027865  1
  O  O4  1  0.50683492  0.28216231  0.42384287  1
  O  O5  1  0.54784436  0.10328949  0.86480284  1
  O  O6  1  0.99316508  0.28216231  0.92384287  1
  O  O7  1  0.57357293  0.34145466  0.23245010  1
  O  O8  1  0.01195828  0.85831781  0.85972135  1
  O  O9  1  0.95215564  0.10328949  0.36480284  1
  O  O10  1  0.45215564  0.89671051  0.13519716  1
  O  O11  1  0.92642707  0.34145466  0.73245010  1
  O  O12  1  0.04784436  0.89671051  0.63519716  1
  O  O13  1  0.42642707  0.65854534  0.76754990  1
  O  O14  1  0.00683492  0.71783769  0.07615713  1
  O  O15  1  0.49316508  0.71783769  0.57615713  1
loop_
_geom_bond_atom_site_label_1
_geom_bond_atom_site_label_2
_geom_bond_distance
_geom_bond_site_symmetry_2
Hg0 O8 2.220494 1_555
Hg0 O13 2.549761 1_555
Hg0 O6 2.651019 1_455
Hg1 O0 2.220494 1_555
Hg1 O2 2.549761 1_555
Hg1 O4 2.651019 1_555
Hg2 O1 2.220494 1_555
Hg2 O11 2.549761 1_555
Hg2 O15 2.651019 1_555
Hg3 O3 2.220494 1_555
Hg3 O7 2.549761 1_555
Hg3 O14 2.651019 1_655
O0 Tc0 1.735868 1_565
O1 Tc1 1.735868 1_545
O2 Tc2 1.702205 1_555
O3 Tc2 1.735868 1_645
O4 Tc0 1.710803 1_555
O5 Tc3 1.699270 1_555
O6 Tc3 1.710803 1_555
O7 Tc0 1.702205 1_555
O8 Tc3 1.735868 1_465
O9 Tc0 1.699270 1_555
O10 Tc2 1.699270 1_555
O11 Tc3 1.702205 1_555
O12 Tc1 1.699270 1_555
O13 Tc1 1.702205 1_555
O14 Tc2 1.710803 1_555
O15 Tc1 1.710803 1_555
