# generated using pymatgen
data_Rb5Zr(H9W)3
_symmetry_space_group_name_H-M   'P 1'
_cell_length_a   9.78989726
_cell_length_b   9.33393613
_cell_length_c   5.34084060
_cell_angle_alpha   90.00000000
_cell_angle_beta   90.00000000
_cell_angle_gamma   118.47092939
_symmetry_Int_Tables_number   1
_chemical_formula_structural   Rb5Zr(H9W)3
_chemical_formula_sum   'Rb5 Zr1 H27 W3'
_cell_volume   429.01319391
_cell_formula_units_Z   1
loop_
 _symmetry_equiv_pos_site_id
 _symmetry_equiv_pos_as_xyz
  1  'x, y, z'
loop_
 _atom_site_type_symbol
 _atom_site_label
 _atom_site_symmetry_multiplicity
 _atom_site_fract_x
 _atom_site_fract_y
 _atom_site_fract_z
 _atom_site_occupancy
  Rb  Rb0  1  0.72408929  0.74372623  0.50000000  1
  Rb  Rb1  1  0.27591071  0.01963594  0.50000000  1
  Rb  Rb2  1  1.00000000  0.63142823  0.00000000  1
  Rb  Rb3  1  0.43471547  0.38199529  0.00000000  1
  Rb  Rb4  1  0.56528453  0.94727982  0.00000000  1
  Zr  Zr0  1  1.00000000  0.27071308  0.50000000  1
  H  H0  1  0.87480902  0.35043052  0.70387598  1
  H  H1  1  0.70995213  0.41212245  0.77761638  1
  H  H2  1  0.57207897  0.18634887  0.69913556  1
  H  H3  1  0.12519098  0.47562249  0.29612402  1
  H  H4  1  0.57207897  0.18634887  0.30086444  1
  H  H5  1  0.87480902  0.35043052  0.29612402  1
  H  H6  1  0.70995213  0.41212245  0.22238362  1
  H  H7  1  0.29004787  0.70217133  0.77761638  1
  H  H8  1  0.42792103  0.61427090  0.69913556  1
  H  H9  1  0.17442587  0.06103699  0.00000000  1
  H  H10  1  0.82557413  0.88661113  0.00000000  1
  H  H11  1  1.00000000  0.25493223  0.00000000  1
  H  H12  1  0.87670424  0.06494116  0.24586902  1
  H  H13  1  0.12329576  0.18823692  0.75413098  1
  H  H14  1  0.00000000  0.92575845  0.78083161  1
  H  H15  1  0.00000000  0.92575845  0.21916839  1
  H  H16  1  0.12329576  0.18823692  0.24586902  1
  H  H17  1  0.87670424  0.06494116  0.75413098  1
  H  H18  1  0.16064428  0.69579096  0.50000000  1
  H  H19  1  0.43425546  0.81048372  0.50000000  1
  H  H20  1  0.25366044  0.40069960  0.50000000  1
  H  H21  1  0.56574454  0.37622726  0.50000000  1
  H  H22  1  0.83935572  0.53514568  0.50000000  1
  H  H23  1  0.74633956  0.14704017  0.50000000  1
  H  H24  1  0.12519098  0.47562249  0.70387598  1
  H  H25  1  0.29004787  0.70217133  0.22238362  1
  H  H26  1  0.42792103  0.61427090  0.30086444  1
  W  W0  1  0.71752926  0.32511168  0.50000000  1
  W  W1  1  0.28247074  0.60758341  0.50000000  1
  W  W2  1  1.00000000  0.06475538  0.00000000  1
loop_
_geom_bond_atom_site_label_1
_geom_bond_atom_site_label_2
_geom_bond_distance
_geom_bond_site_symmetry_2
H0 W0 1.807039 1_555
H0 Zr0 2.027529 1_555
H0 Rb2 2.796024 1_556
H1 W0 1.709078 1_555
H1 Rb3 2.833347 1_556
H1 Rb2 2.849915 1_556
H2 W0 1.754397 1_555
H2 Rb4 2.724762 1_546
H2 Rb1 2.767260 1_555
H3 W1 1.807039 1_555
H3 Zr0 2.027534 1_455
H3 Rb2 2.796017 1_455
H4 W0 1.754397 1_555
H4 Rb4 2.724762 1_545
H4 Rb1 2.767260 1_555
H5 W0 1.807039 1_555
H5 Zr0 2.027529 1_555
H5 Rb2 2.796024 1_555
H6 W0 1.709078 1_555
H6 Rb3 2.833347 1_555
H6 Rb2 2.849915 1_555
H7 W1 1.709078 1_555
H7 Rb4 2.833343 1_556
H7 Rb2 2.849913 1_456
H8 W1 1.754397 1_555
H8 Rb3 2.724770 1_556
H8 Rb0 2.767260 1_555
H9 W2 1.724427 1_455
H9 Rb3 2.861786 1_555
H9 Rb1 2.938303 1_555
H9 Rb1 2.938303 1_554
H10 W2 1.724426 1_565
H10 Rb4 2.861787 1_555
H10 Rb0 2.938300 1_555
H10 Rb0 2.938300 1_554
H11 W2 1.775099 1_555
H12 W2 1.784189 1_555
H12 Zr0 2.185805 1_555
H12 Rb0 2.965257 1_545
H12 Rb4 3.005517 1_545
H13 W2 1.784189 1_456
H13 Zr0 2.185805 1_455
H13 Rb1 2.965265 1_555
H13 Rb3 3.005517 1_556
H14 W2 1.747395 1_466
H14 Rb0 2.838476 1_455
H14 Rb1 2.838478 1_565
H14 Rb2 2.986236 1_456
H15 W2 1.747395 1_465
H15 Rb0 2.838476 1_455
H15 Rb1 2.838478 1_565
H15 Rb2 2.986236 1_455
H16 W2 1.784189 1_455
H16 Zr0 2.185805 1_455
H16 Rb1 2.965265 1_555
H16 Rb3 3.005517 1_555
H17 W2 1.784189 1_556
H17 Zr0 2.185805 1_555
H17 Rb0 2.965257 1_545
H17 Rb4 3.005517 1_546
H18 W1 1.742567 1_555
H18 Rb1 2.675492 1_565
H18 Rb2 3.010749 1_456
H18 Rb2 3.010749 1_455
H19 W1 1.763986 1_555
H19 Rb4 2.974114 1_555
H19 Rb4 2.974114 1_556
H19 Rb1 3.016542 1_565
H20 W1 1.813611 1_555
H20 Zr0 2.183175 1_455
H21 W0 1.763986 1_555
H21 Rb3 2.974116 1_556
H21 Rb3 2.974116 1_555
H21 Rb0 3.016558 1_555
H22 W0 1.742566 1_555
H22 Rb0 2.675509 1_555
H22 Rb2 3.010749 1_555
H22 Rb2 3.010749 1_556
H23 W0 1.813593 1_555
H23 Zr0 2.183175 1_555
H24 W1 1.807039 1_555
H24 Zr0 2.027534 1_455
H24 Rb2 2.796017 1_456
H25 W1 1.709078 1_555
H25 Rb4 2.833343 1_555
H25 Rb2 2.849913 1_455
H26 W1 1.754397 1_555
H26 Rb3 2.724770 1_555
H26 Rb0 2.767260 1_555
