# generated using pymatgen
data_LiY3SiS7
_symmetry_space_group_name_H-M   'P 1'
_cell_length_a   9.84254960
_cell_length_b   9.84254973
_cell_length_c   5.70682112
_cell_angle_alpha   90.00000000
_cell_angle_beta   90.00000000
_cell_angle_gamma   119.99999957
_symmetry_Int_Tables_number   1
_chemical_formula_structural   LiY3SiS7
_chemical_formula_sum   'Li2 Y6 Si2 S14'
_cell_volume   478.78454541
_cell_formula_units_Z   2
loop_
 _symmetry_equiv_pos_site_id
 _symmetry_equiv_pos_as_xyz
  1  'x, y, z'
loop_
 _atom_site_type_symbol
 _atom_site_label
 _atom_site_symmetry_multiplicity
 _atom_site_fract_x
 _atom_site_fract_y
 _atom_site_fract_z
 _atom_site_occupancy
  Li  Li0  1  0.00000000  0.00000000  0.03159131  1
  Li  Li1  1  0.00000000  0.00000000  0.53159131  1
  Y  Y0  1  0.13042964  0.77203693  0.75264704  1
  Y  Y1  1  0.35839371  0.13042964  0.25264704  1
  Y  Y2  1  0.22796307  0.35839371  0.75264704  1
  Y  Y3  1  0.64160629  0.86957036  0.75264704  1
  Y  Y4  1  0.77203693  0.64160629  0.25264704  1
  Y  Y5  1  0.86957036  0.22796307  0.25264704  1
  Si  Si0  1  0.66666700  0.33333300  0.66609569  1
  Si  Si1  1  0.33333300  0.66666700  0.16609569  1
  S  S0  1  0.09200152  0.84384231  0.29145725  1
  S  S1  1  0.75184080  0.90799848  0.29145725  1
  S  S2  1  0.84384231  0.75184080  0.79145725  1
  S  S3  1  0.90799848  0.15615769  0.79145725  1
  S  S4  1  0.52268283  0.41602097  0.51782982  1
  S  S5  1  0.15615769  0.24815920  0.29145725  1
  S  S6  1  0.33333300  0.66666700  0.53390868  1
  S  S7  1  0.66666700  0.33333300  0.03390868  1
  S  S8  1  0.41602097  0.89333713  0.01782982  1
  S  S9  1  0.10666287  0.52268283  0.01782982  1
  S  S10  1  0.47731717  0.58397903  0.01782982  1
  S  S11  1  0.58397903  0.10666287  0.51782982  1
  S  S12  1  0.89333713  0.47731717  0.51782982  1
  S  S13  1  0.24815920  0.09200152  0.79145725  1
loop_
_geom_bond_atom_site_label_1
_geom_bond_atom_site_label_2
_geom_bond_distance
_geom_bond_site_symmetry_2
Li0 S13 2.540101 1_554
Li0 S3 2.540101 1_454
Li0 S2 2.540101 1_444
Li0 S1 2.602580 1_445
Li0 S0 2.602580 1_545
Li0 S5 2.602580 1_555
Li1 S1 2.540101 1_445
Li1 S0 2.540101 1_545
Li1 S5 2.540101 1_555
Li1 S13 2.602580 1_555
Li1 S3 2.602580 1_455
Li1 S2 2.602580 1_445
S0 Y1 2.735783 1_565
S0 Y4 2.767748 1_455
S0 Y0 2.799448 1_555
S0 Y0 3.219446 1_554
S1 Y4 2.735789 1_555
S1 Y5 2.767746 1_565
S1 Y3 2.799451 1_555
S1 Y3 3.219449 1_554
S2 Y0 2.735779 1_655
S2 Y3 2.767755 1_555
S2 Y4 2.799450 1_556
S2 Y4 3.219449 1_555
S3 Y3 2.735783 1_545
S3 Y2 2.767748 1_655
S3 Y5 2.799448 1_556
S3 Y5 3.219446 1_555
S4 Si0 2.130740 1_555
S4 Y4 2.791825 1_555
S4 Y1 2.874204 1_555
S4 Y2 2.981066 1_555
S5 Y5 2.735779 1_455
S5 Y1 2.767755 1_555
S5 Y2 2.799450 1_555
S5 Y2 3.219449 1_554
S6 Si1 2.099043 1_555
S6 Y0 2.948457 1_555
S6 Y3 2.948457 1_555
S6 Y2 2.948457 1_555
S7 Si0 2.099043 1_554
S7 Y5 2.948457 1_555
S7 Y1 2.948457 1_555
S7 Y4 2.948457 1_555
S8 Si1 2.130723 1_555
S8 Y3 2.791815 1_554
S8 Y0 2.874206 1_554
S8 Y1 2.981066 1_565
S9 Si1 2.130726 1_555
S9 Y0 2.791832 1_554
S9 Y2 2.874191 1_554
S9 Y5 2.981066 1_455
S10 Si1 2.130740 1_555
S10 Y2 2.791825 1_554
S10 Y3 2.874204 1_554
S10 Y4 2.981066 1_555
S11 Si0 2.130723 1_555
S11 Y1 2.791815 1_555
S11 Y5 2.874206 1_555
S11 Y3 2.981066 1_545
S12 Si0 2.130726 1_555
S12 Y5 2.791832 1_555
S12 Y4 2.874191 1_555
S12 Y0 2.981066 1_655
S13 Y2 2.735789 1_555
S13 Y0 2.767746 1_545
S13 Y1 2.799451 1_556
S13 Y1 3.219449 1_555
