# generated using pymatgen
data_Nd2EuS4
_symmetry_space_group_name_H-M   'P 1'
_cell_length_a   7.47675092
_cell_length_b   7.47673761
_cell_length_c   7.47671911
_cell_angle_alpha   109.39503570
_cell_angle_beta   109.39561111
_cell_angle_gamma   109.62257239
_symmetry_Int_Tables_number   1
_chemical_formula_structural   Nd2EuS4
_chemical_formula_sum   'Nd4 Eu2 S8'
_cell_volume   321.74728460
_cell_formula_units_Z   2
loop_
 _symmetry_equiv_pos_site_id
 _symmetry_equiv_pos_as_xyz
  1  'x, y, z'
loop_
 _atom_site_type_symbol
 _atom_site_label
 _atom_site_symmetry_multiplicity
 _atom_site_fract_x
 _atom_site_fract_y
 _atom_site_fract_z
 _atom_site_occupancy
  Nd  Nd0  1  0.99745825  0.37499707  0.12246282  1
  Nd  Nd1  1  0.62500533  0.74746985  0.62246145  1
  Nd  Nd2  1  0.25253188  0.87499204  0.87753618  1
  Nd  Nd3  1  0.12500318  0.00254003  0.37753729  1
  Eu  Eu0  1  0.74999813  0.25000236  0.50000045  1
  Eu  Eu1  1  0.50000074  0.49999493  0.00000156  1
  S  S0  1  0.51921498  0.11900352  0.74957660  1
  S  S1  1  0.73078671  0.98036146  0.09978776  1
  S  S2  1  0.88099573  0.63057795  0.40021785  1
  S  S3  1  0.23036896  0.48079268  0.59979505  1
  S  S4  1  0.36900703  0.26921999  0.24957235  1
  S  S5  1  0.88056714  0.63099226  0.90021626  1
  S  S6  1  0.36942039  0.76962868  0.25041502  1
  S  S7  1  0.01964153  0.11942718  0.75041935  1
loop_
_geom_bond_atom_site_label_1
_geom_bond_atom_site_label_2
_geom_bond_distance
_geom_bond_site_symmetry_2
Nd0 S1 2.863925 1_545
Nd0 S6 2.863952 1_655
Nd0 S2 2.899217 1_555
Nd0 S7 2.899229 1_654
Nd0 S5 3.075663 1_554
Nd0 S0 3.075701 1_554
Nd0 S4 3.076871 1_655
Nd0 S3 3.076885 1_655
Nd1 S7 2.863940 1_665
Nd1 S3 2.863979 1_555
Nd1 S6 2.899160 1_555
Nd1 S5 2.899209 1_555
Nd1 S2 3.075635 1_555
Nd1 S4 3.075747 1_555
Nd1 S0 3.076848 1_565
Nd1 S1 3.076876 1_556
Nd2 S5 2.863980 1_455
Nd2 S0 2.864000 1_565
Nd2 S3 2.899127 1_555
Nd2 S4 2.899212 1_566
Nd2 S6 3.075650 1_556
Nd2 S1 3.075742 1_556
Nd2 S2 3.076834 1_455
Nd2 S7 3.076874 1_565
Nd3 S2 2.863982 1_445
Nd3 S4 2.863987 1_555
Nd3 S0 2.899168 1_555
Nd3 S1 2.899170 1_445
Nd3 S7 3.075677 1_555
Nd3 S3 3.075747 1_555
Nd3 S5 3.076869 1_444
Nd3 S6 3.076883 1_545
Eu0 S4 2.924372 1_555
Eu0 S7 2.924389 1_655
Eu0 S5 2.924404 1_555
Eu0 S1 2.924419 1_545
Eu0 S2 3.104179 1_555
Eu0 S0 3.104184 1_555
Eu0 S3 3.104258 1_655
Eu0 S6 3.104284 1_545
Eu1 S0 2.924365 1_554
Eu1 S6 2.924373 1_555
Eu1 S2 2.924376 1_555
Eu1 S3 2.924379 1_554
Eu1 S4 3.104091 1_555
Eu1 S5 3.104140 1_554
Eu1 S7 3.104189 1_554
Eu1 S1 3.104246 1_555
