# generated using pymatgen
data_Mn3Cr8AgSe16
_symmetry_space_group_name_H-M   'P 1'
_cell_length_a   13.06977236
_cell_length_b   13.06977247
_cell_length_c   13.06977313
_cell_angle_alpha   33.49304544
_cell_angle_beta   33.49304637
_cell_angle_gamma   33.49304733
_symmetry_Int_Tables_number   1
_chemical_formula_structural   Mn3Cr8AgSe16
_chemical_formula_sum   'Mn3 Cr8 Ag1 Se16'
_cell_volume   605.50939113
_cell_formula_units_Z   1
loop_
 _symmetry_equiv_pos_site_id
 _symmetry_equiv_pos_as_xyz
  1  'x, y, z'
loop_
 _atom_site_type_symbol
 _atom_site_label
 _atom_site_symmetry_multiplicity
 _atom_site_fract_x
 _atom_site_fract_y
 _atom_site_fract_z
 _atom_site_occupancy
  Mn  Mn0  1  0.56231295  0.56231295  0.56231295  1
  Mn  Mn1  1  0.43730906  0.43730906  0.43730906  1
  Mn  Mn2  1  0.93759756  0.93759756  0.93759756  1
  Cr  Cr0  1  0.74883000  0.74883000  0.74883000  1
  Cr  Cr1  1  0.25036083  0.25036083  0.25036083  1
  Cr  Cr2  1  0.99688436  0.50161085  0.50161085  1
  Cr  Cr3  1  0.49926755  0.00069351  0.00069351  1
  Cr  Cr4  1  0.50161085  0.99688436  0.50161085  1
  Cr  Cr5  1  0.00069351  0.49926755  0.00069351  1
  Cr  Cr6  1  0.50161085  0.50161085  0.99688436  1
  Cr  Cr7  1  0.00069351  0.00069351  0.49926755  1
  Ag  Ag0  1  0.06303135  0.06303135  0.06303135  1
  Se  Se0  1  0.13228775  0.13228775  0.13228775  1
  Se  Se1  1  0.62953231  0.62953231  0.62953231  1
  Se  Se2  1  0.40768072  0.85462674  0.85462674  1
  Se  Se3  1  0.90154988  0.35971368  0.35971368  1
  Se  Se4  1  0.85462674  0.40768072  0.85462674  1
  Se  Se5  1  0.35971368  0.90154988  0.35971368  1
  Se  Se6  1  0.85462674  0.85462674  0.40768072  1
  Se  Se7  1  0.35971368  0.35971368  0.90154988  1
  Se  Se8  1  0.36962988  0.36962988  0.36962988  1
  Se  Se9  1  0.86998854  0.86998854  0.86998854  1
  Se  Se10  1  0.09807662  0.64106467  0.64106467  1
  Se  Se11  1  0.59929070  0.14047652  0.14047652  1
  Se  Se12  1  0.64106467  0.09807662  0.64106467  1
  Se  Se13  1  0.14047652  0.59929070  0.14047652  1
  Se  Se14  1  0.64106467  0.64106467  0.09807662  1
  Se  Se15  1  0.14047652  0.14047652  0.59929070  1
loop_
_geom_bond_atom_site_label_1
_geom_bond_atom_site_label_2
_geom_bond_distance
_geom_bond_site_symmetry_2
Mn0 Se1 2.485468 1_555
Mn0 Se7 2.492484 1_555
Mn0 Se5 2.492484 1_555
Mn0 Se3 2.492484 1_555
Mn1 Se8 2.502470 1_555
Mn1 Se14 2.506662 1_555
Mn1 Se12 2.506662 1_555
Mn1 Se10 2.506662 1_555
Mn2 Se15 2.495865 1_665
Mn2 Se13 2.495865 1_656
Mn2 Se11 2.495865 1_566
Mn2 Se9 2.499876 1_555
Cr0 Se2 2.515373 1_555
Cr0 Se4 2.515373 1_555
Cr0 Se6 2.515373 1_555
Cr0 Se10 2.581771 1_655
Cr0 Se12 2.581771 1_565
Cr0 Se14 2.581771 1_556
Cr1 Se11 2.552423 1_555
Cr1 Se13 2.552423 1_555
Cr1 Se15 2.552423 1_555
Cr1 Se3 2.557492 1_455
Cr1 Se5 2.557492 1_545
Cr1 Se7 2.557493 1_554
Cr2 Se6 2.510644 1_555
Cr2 Se4 2.510644 1_555
Cr2 Se1 2.554852 1_555
Cr2 Se15 2.569296 1_655
Cr2 Se13 2.569297 1_655
Cr2 Se8 2.571927 1_655
Cr3 Se0 2.517315 1_555
Cr3 Se7 2.559217 1_554
Cr3 Se5 2.559217 1_545
Cr3 Se9 2.563102 1_544
Cr3 Se14 2.564060 1_545
Cr3 Se12 2.564060 1_554
Cr4 Se6 2.510644 1_555
Cr4 Se2 2.510644 1_555
Cr4 Se1 2.554852 1_555
Cr4 Se15 2.569296 1_565
Cr4 Se11 2.569297 1_565
Cr4 Se8 2.571927 1_565
Cr5 Se0 2.517315 1_555
Cr5 Se7 2.559217 1_554
Cr5 Se3 2.559217 1_455
Cr5 Se9 2.563102 1_454
Cr5 Se14 2.564060 1_455
Cr5 Se10 2.564060 1_554
Cr6 Se2 2.510644 1_555
Cr6 Se4 2.510644 1_555
Cr6 Se1 2.554852 1_555
Cr6 Se11 2.569296 1_556
Cr6 Se13 2.569296 1_556
Cr6 Se8 2.571928 1_556
Cr7 Se0 2.517316 1_555
Cr7 Se3 2.559217 1_455
Cr7 Se5 2.559217 1_545
Cr7 Se9 2.563102 1_445
Cr7 Se10 2.564060 1_545
Cr7 Se12 2.564060 1_455
Ag0 Se0 2.560789 1_555
Ag0 Se6 2.564132 1_445
Ag0 Se4 2.564133 1_454
Ag0 Se2 2.564133 1_544
