# generated using pymatgen
data_Zr10GaCuSn6
_symmetry_space_group_name_H-M   'P 1'
_cell_length_a   8.68000042
_cell_length_b   8.68000094
_cell_length_c   5.87106257
_cell_angle_alpha   90.00000000
_cell_angle_beta   90.00000000
_cell_angle_gamma   120.00000178
_symmetry_Int_Tables_number   1
_chemical_formula_structural   Zr10GaCuSn6
_chemical_formula_sum   'Zr10 Ga1 Cu1 Sn6'
_cell_volume   383.07768209
_cell_formula_units_Z   1
loop_
 _symmetry_equiv_pos_site_id
 _symmetry_equiv_pos_as_xyz
  1  'x, y, z'
loop_
 _atom_site_type_symbol
 _atom_site_label
 _atom_site_symmetry_multiplicity
 _atom_site_fract_x
 _atom_site_fract_y
 _atom_site_fract_z
 _atom_site_occupancy
  Zr  Zr0  1  0.66666700  0.33333300  0.50000000  1
  Zr  Zr1  1  0.33333300  0.66666700  0.50000000  1
  Zr  Zr2  1  0.33333300  0.66666700  0.00000000  1
  Zr  Zr3  1  0.66666700  0.33333300  0.00000000  1
  Zr  Zr4  1  0.73567951  0.73567951  0.24956453  1
  Zr  Zr5  1  0.26432049  1.00000000  0.24956453  1
  Zr  Zr6  1  0.00000000  0.26432049  0.24956453  1
  Zr  Zr7  1  0.26432049  0.26432049  0.75043547  1
  Zr  Zr8  1  0.73567951  0.00000000  0.75043547  1
  Zr  Zr9  1  1.00000000  0.73567951  0.75043547  1
  Ga  Ga0  1  0.00000000  0.00000000  0.50000000  1
  Cu  Cu0  1  0.00000000  0.00000000  0.00000000  1
  Sn  Sn0  1  0.38726412  0.38726412  0.25042794  1
  Sn  Sn1  1  0.61273588  1.00000000  0.25042794  1
  Sn  Sn2  1  0.00000000  0.61273588  0.25042794  1
  Sn  Sn3  1  0.61273588  0.61273588  0.74957206  1
  Sn  Sn4  1  0.38726412  0.00000000  0.74957206  1
  Sn  Sn5  1  0.00000000  0.38726412  0.74957206  1
loop_
_geom_bond_atom_site_label_1
_geom_bond_atom_site_label_2
_geom_bond_distance
_geom_bond_site_symmetry_2
Zr0 Zr3 2.935531 1_556
Zr0 Zr3 2.935531 1_555
Zr1 Zr2 2.935531 1_556
Zr1 Zr2 2.935531 1_555
Ga0 Zr5 2.725008 1_545
Ga0 Zr8 2.725008 1_455
Ga0 Zr7 2.725008 1_555
Ga0 Zr4 2.725008 1_445
Ga0 Zr9 2.725008 1_445
Ga0 Zr6 2.725008 1_555
Cu0 Zr5 2.722253 1_545
Cu0 Zr8 2.722253 1_454
Cu0 Zr7 2.722253 1_554
Cu0 Zr4 2.722253 1_445
Cu0 Zr9 2.722253 1_444
Cu0 Zr6 2.722253 1_555
Cu0 Ga0 2.935531 1_554
Cu0 Ga0 2.935531 1_555
Sn0 Zr6 2.975067 1_555
Sn0 Zr5 2.975067 1_545
Sn0 Zr4 3.024250 1_555
Sn0 Zr0 3.063182 1_555
Sn0 Zr1 3.063182 1_555
Sn0 Zr3 3.065588 1_555
Sn0 Zr2 3.065588 1_555
Sn0 Zr7 3.123443 1_554
Sn0 Zr7 3.123526 1_555
Sn1 Zr6 2.975067 1_665
Sn1 Zr4 2.975067 1_555
Sn1 Zr5 3.024250 1_555
Sn1 Zr0 3.063174 1_565
Sn1 Zr1 3.063177 1_555
Sn1 Zr3 3.065581 1_565
Sn1 Zr2 3.065584 1_555
Sn1 Zr8 3.123443 1_564
Sn1 Zr8 3.123526 1_565
Sn2 Zr4 2.975067 1_455
Sn2 Zr5 2.975067 1_555
Sn2 Zr6 3.024250 1_555
Sn2 Zr1 3.063174 1_555
Sn2 Zr0 3.063177 1_455
Sn2 Zr2 3.065581 1_555
Sn2 Zr3 3.065584 1_455
Sn2 Zr9 3.123443 1_454
Sn2 Zr9 3.123526 1_455
Sn3 Zr9 2.975067 1_555
Sn3 Zr8 2.975067 1_565
Sn3 Zr7 3.024250 1_555
Sn3 Zr1 3.063182 1_555
Sn3 Zr0 3.063182 1_555
Sn3 Zr2 3.065588 1_556
Sn3 Zr3 3.065588 1_556
Sn3 Zr4 3.123443 1_556
Sn3 Zr4 3.123526 1_555
Sn4 Zr9 2.975067 1_445
Sn4 Zr7 2.975067 1_555
Sn4 Zr8 3.024250 1_555
Sn4 Zr1 3.063174 1_545
Sn4 Zr0 3.063177 1_555
Sn4 Zr2 3.065581 1_546
Sn4 Zr3 3.065584 1_556
Sn4 Zr5 3.123443 1_546
Sn4 Zr5 3.123526 1_545
Sn5 Zr7 2.975067 1_555
Sn5 Zr8 2.975067 1_455
Sn5 Zr9 3.024250 1_455
Sn5 Zr0 3.063174 1_455
Sn5 Zr1 3.063177 1_555
Sn5 Zr3 3.065581 1_456
Sn5 Zr2 3.065584 1_556
Sn5 Zr6 3.123443 1_556
Sn5 Zr6 3.123526 1_555
