# generated using pymatgen
data_Ca10ZrMoN10
_symmetry_space_group_name_H-M   'P 1'
_cell_length_a   6.97554361
_cell_length_b   6.97554234
_cell_length_c   8.82230074
_cell_angle_alpha   81.22193062
_cell_angle_beta   81.22193161
_cell_angle_gamma   59.97789897
_symmetry_Int_Tables_number   1
_chemical_formula_structural   Ca10ZrMoN10
_chemical_formula_sum   'Ca10 Zr1 Mo1 N10'
_cell_volume   365.86724429
_cell_formula_units_Z   1
loop_
 _symmetry_equiv_pos_site_id
 _symmetry_equiv_pos_as_xyz
  1  'x, y, z'
loop_
 _atom_site_type_symbol
 _atom_site_label
 _atom_site_symmetry_multiplicity
 _atom_site_fract_x
 _atom_site_fract_y
 _atom_site_fract_z
 _atom_site_occupancy
  Ca  Ca0  1  0.87863135  0.36176489  0.83472306  1
  Ca  Ca1  1  0.87590072  0.87590072  0.81794273  1
  Ca  Ca2  1  0.73547134  0.73547134  0.53466284  1
  Ca  Ca3  1  0.74698456  0.25978045  0.51066085  1
  Ca  Ca4  1  0.61782915  0.13683197  0.14681820  1
  Ca  Ca5  1  0.36176489  0.87863135  0.83472306  1
  Ca  Ca6  1  0.25978045  0.74698456  0.51066085  1
  Ca  Ca7  1  0.23999940  0.23999940  0.49579614  1
  Ca  Ca8  1  0.14030797  0.14030797  0.16474788  1
  Ca  Ca9  1  0.13683197  0.61782915  0.14681820  1
  Zr  Zr0  1  0.37072715  0.37072715  0.77505393  1
  Mo  Mo0  1  0.63262005  0.63262005  0.22469905  1
  N  N0  1  0.90547377  0.47220611  0.31902854  1
  N  N1  1  0.99110208  0.99110208  0.02973662  1
  N  N2  1  0.68059819  0.68059819  0.01584412  1
  N  N3  1  0.54585050  0.54585050  0.69048286  1
  N  N4  1  0.47220611  0.90547377  0.31902854  1
  N  N5  1  0.54820133  0.07667555  0.66575441  1
  N  N6  1  0.47444850  0.47444850  0.29303524  1
  N  N7  1  0.31040753  0.31040753  0.00488737  1
  N  N8  1  0.06047642  0.06047642  0.64494309  1
  N  N9  1  0.07667555  0.54820133  0.66575441  1
loop_
_geom_bond_atom_site_label_1
_geom_bond_atom_site_label_2
_geom_bond_distance
_geom_bond_site_symmetry_2
Ca0 N3 2.465128 1_555
Ca0 N9 2.529713 1_655
Ca0 N8 2.566579 1_655
Ca0 N2 2.597021 1_556
Ca0 N1 2.699096 1_546
Ca1 N8 2.470649 1_665
Ca1 N9 2.479653 1_655
Ca1 N5 2.479653 1_565
Ca1 N1 2.519050 1_556
Ca1 N2 2.676851 1_556
Ca2 N5 2.444716 1_565
Ca2 N9 2.444716 1_655
Ca2 N3 2.455537 1_555
Ca2 N0 2.568333 1_555
Ca2 N4 2.568333 1_555
Ca3 N8 2.316044 1_655
Ca3 N3 2.439786 1_555
Ca3 N5 2.466994 1_555
Ca3 N0 2.565223 1_555
Ca3 N6 2.632597 1_555
Ca4 N7 2.321880 1_555
Ca4 N1 2.393941 1_545
Ca4 N4 2.523024 1_545
Ca4 N6 2.527268 1_555
Ca5 N3 2.465127 1_555
Ca5 N5 2.529713 1_565
Ca5 N8 2.566579 1_565
Ca5 N2 2.597021 1_556
Ca5 N1 2.699096 1_456
Ca6 N8 2.316044 1_565
Ca6 N3 2.439786 1_555
Ca6 N9 2.466994 1_555
Ca6 N4 2.565224 1_555
Ca6 N6 2.632596 1_555
Ca7 N8 2.330478 1_555
Ca7 N9 2.485909 1_555
Ca7 N5 2.485910 1_555
Ca7 N4 2.656758 1_545
Ca7 N0 2.656758 1_455
Ca7 N6 3.072388 1_555
Ca8 N7 2.278617 1_555
Ca8 N1 2.329369 1_445
Ca8 N0 2.526314 1_455
Ca8 N4 2.526315 1_545
Ca9 N7 2.321880 1_555
Ca9 N1 2.393941 1_455
Ca9 N0 2.523024 1_455
Ca9 N6 2.527269 1_555
Mo0 N2 1.831603 1_555
Mo0 N6 1.900069 1_555
Mo0 N4 1.906640 1_555
Mo0 N0 1.906640 1_555
N3 Zr0 2.116149 1_555
N5 Zr0 2.089986 1_555
N7 Zr0 2.030234 1_554
N9 Zr0 2.089986 1_555
