# generated using pymatgen
data_Hf12Al4IrRh7
_symmetry_space_group_name_H-M   'P 1'
_cell_length_a   8.43814651
_cell_length_b   8.43814676
_cell_length_c   8.43814686
_cell_angle_alpha   60.04305077
_cell_angle_beta   60.04305026
_cell_angle_gamma   60.04305462
_symmetry_Int_Tables_number   1
_chemical_formula_structural   Hf12Al4IrRh7
_chemical_formula_sum   'Hf12 Al4 Ir1 Rh7'
_cell_volume   425.25537249
_cell_formula_units_Z   1
loop_
 _symmetry_equiv_pos_site_id
 _symmetry_equiv_pos_as_xyz
  1  'x, y, z'
loop_
 _atom_site_type_symbol
 _atom_site_label
 _atom_site_symmetry_multiplicity
 _atom_site_fract_x
 _atom_site_fract_y
 _atom_site_fract_z
 _atom_site_occupancy
  Hf  Hf0  1  0.80661720  0.80661727  0.19315188  1
  Hf  Hf1  1  0.19301816  0.19301821  0.80689173  1
  Hf  Hf2  1  0.80661735  0.19315161  0.80661746  1
  Hf  Hf3  1  0.19301800  0.80689168  0.19301820  1
  Hf  Hf4  1  0.19315190  0.80661719  0.80661708  1
  Hf  Hf5  1  0.80689158  0.19301813  0.19301831  1
  Hf  Hf6  1  0.44286911  0.44286910  0.05717277  1
  Hf  Hf7  1  0.05617894  0.05617895  0.44385100  1
  Hf  Hf8  1  0.44286885  0.05717325  0.44286892  1
  Hf  Hf9  1  0.05617908  0.44385102  0.05617878  1
  Hf  Hf10  1  0.05717292  0.44286906  0.44286901  1
  Hf  Hf11  1  0.44385107  0.05617883  0.05617901  1
  Al  Al0  1  0.12529780  0.62481730  0.62481729  1
  Al  Al1  1  0.62481730  0.12529776  0.62481737  1
  Al  Al2  1  0.62481733  0.62481730  0.12529776  1
  Al  Al3  1  0.62504351  0.62504351  0.62504344  1
  Ir  Ir0  1  0.84025106  0.84025097  0.84025093  1
  Rh  Rh0  1  0.76839723  0.41064024  0.41064041  1
  Rh  Rh1  1  0.41064016  0.76839749  0.41064023  1
  Rh  Rh2  1  0.41064017  0.41064008  0.76839756  1
  Rh  Rh3  1  0.41045483  0.41045488  0.41045487  1
  Rh  Rh4  1  0.48208161  0.83956237  0.83956215  1
  Rh  Rh5  1  0.83956242  0.48208145  0.83956236  1
  Rh  Rh6  1  0.83956241  0.83956237  0.48208148  1
loop_
_geom_bond_atom_site_label_1
_geom_bond_atom_site_label_2
_geom_bond_distance
_geom_bond_site_symmetry_2
Hf0 Ir0 2.724142 1_554
Hf0 Rh6 2.743993 1_555
Hf0 Rh1 2.999573 1_555
Hf0 Rh0 2.999573 1_555
Hf1 Rh5 2.739694 1_455
Hf1 Rh4 2.739695 1_545
Hf1 Rh3 3.004281 1_555
Hf1 Rh2 3.004330 1_555
Hf2 Ir0 2.724141 1_545
Hf2 Rh5 2.743993 1_555
Hf2 Rh0 2.999574 1_555
Hf2 Rh2 2.999574 1_555
Hf3 Rh6 2.739693 1_455
Hf3 Rh4 2.739697 1_554
Hf3 Rh3 3.004281 1_555
Hf3 Rh1 3.004332 1_555
Hf4 Ir0 2.724141 1_455
Hf4 Rh4 2.743994 1_555
Hf4 Rh1 2.999571 1_555
Hf4 Rh2 2.999573 1_555
Hf5 Rh6 2.739694 1_545
Hf5 Rh5 2.739695 1_554
Hf5 Rh3 3.004280 1_555
Hf5 Rh0 3.004332 1_555
Hf6 Rh3 2.735391 1_555
Hf6 Rh2 2.735516 1_554
Hf6 Rh5 3.007798 1_554
Hf6 Rh4 3.007799 1_554
Hf7 Rh1 2.740485 1_545
Hf7 Rh0 2.740486 1_455
Hf7 Rh6 2.990815 1_445
Hf7 Ir0 2.995031 1_445
Hf8 Rh3 2.735389 1_555
Hf8 Rh1 2.735517 1_545
Hf8 Rh4 3.007799 1_545
Hf8 Rh6 3.007801 1_545
Hf9 Rh2 2.740483 1_554
Hf9 Rh0 2.740488 1_455
Hf9 Rh5 2.990815 1_454
Hf9 Ir0 2.995032 1_454
Hf10 Rh3 2.735390 1_555
Hf10 Rh0 2.735517 1_455
Hf10 Rh5 3.007799 1_455
Hf10 Rh6 3.007799 1_455
Hf11 Rh1 2.740484 1_545
Hf11 Rh2 2.740485 1_554
Hf11 Rh4 2.990816 1_544
Hf11 Ir0 2.995032 1_544
Al0 Rh5 2.627679 1_455
Al0 Rh6 2.627679 1_455
Al0 Rh3 2.628231 1_555
Al0 Rh1 2.629099 1_555
Al0 Rh2 2.629099 1_555
Al0 Ir0 2.638439 1_455
Al1 Rh4 2.627679 1_545
Al1 Rh6 2.627680 1_545
Al1 Rh3 2.628232 1_555
Al1 Rh0 2.629098 1_555
Al1 Rh2 2.629099 1_555
Al1 Ir0 2.638440 1_545
Al2 Rh5 2.627680 1_554
Al2 Rh4 2.627680 1_554
Al2 Rh3 2.628232 1_555
Al2 Rh0 2.629099 1_555
Al2 Rh1 2.629099 1_555
Al2 Ir0 2.638440 1_554
Al3 Rh0 2.628122 1_555
Al3 Rh1 2.628123 1_555
Al3 Rh2 2.628124 1_555
Al3 Rh4 2.630442 1_555
Al3 Rh6 2.630443 1_555
Al3 Rh5 2.630443 1_555
