# generated using pymatgen
data_YHf2PdF15
_symmetry_space_group_name_H-M   'P 1'
_cell_length_a   7.96829148
_cell_length_b   7.96829159
_cell_length_c   7.97255701
_cell_angle_alpha   79.42185522
_cell_angle_beta   79.42186904
_cell_angle_gamma   99.11533476
_symmetry_Int_Tables_number   1
_chemical_formula_structural   YHf2PdF15
_chemical_formula_sum   'Y2 Hf4 Pd2 F30'
_cell_volume   479.38197810
_cell_formula_units_Z   2
loop_
 _symmetry_equiv_pos_site_id
 _symmetry_equiv_pos_as_xyz
  1  'x, y, z'
loop_
 _atom_site_type_symbol
 _atom_site_label
 _atom_site_symmetry_multiplicity
 _atom_site_fract_x
 _atom_site_fract_y
 _atom_site_fract_z
 _atom_site_occupancy
  Y  Y0  1  0.17781503  0.82218497  0.25000000  1
  Y  Y1  1  0.82218497  0.17781503  0.75000000  1
  Hf  Hf0  1  0.74053625  0.67929647  0.67037759  1
  Hf  Hf1  1  0.32070353  0.25946375  0.82962241  1
  Hf  Hf2  1  0.25946375  0.32070353  0.32962241  1
  Hf  Hf3  1  0.67929647  0.74053625  0.17037759  1
  Pd  Pd0  1  0.75071088  0.24928912  0.25000000  1
  Pd  Pd1  1  0.24928912  0.75071088  0.75000000  1
  F  F0  1  0.31611594  0.35107673  0.05833072  1
  F  F1  1  0.93445676  0.80944801  0.15071896  1
  F  F2  1  0.84037398  0.46388667  0.69016791  1
  F  F3  1  0.46388667  0.84037398  0.19016791  1
  F  F4  1  0.80944801  0.93445676  0.65071896  1
  F  F5  1  0.35107673  0.31611594  0.55832972  1
  F  F6  1  0.68388406  0.64892327  0.94166928  1
  F  F7  1  0.06554324  0.19055199  0.84928104  1
  F  F8  1  0.15962602  0.53611333  0.30983209  1
  F  F9  1  0.53611333  0.15962602  0.80983209  1
  F  F10  1  0.19055199  0.06554324  0.34928104  1
  F  F11  1  0.64892327  0.68388406  0.44166928  1
  F  F12  1  0.76659346  0.28214534  0.00378413  1
  F  F13  1  0.99891612  0.27122199  0.20838425  1
  F  F14  1  0.78871670  0.50234796  0.21786581  1
  F  F15  1  0.50234796  0.78871670  0.71786581  1
  F  F16  1  0.27122199  0.99891612  0.70838425  1
  F  F17  1  0.28214534  0.76659346  0.50378413  1
  F  F18  1  0.23340654  0.71785466  0.99621587  1
  F  F19  1  0.00108388  0.72877801  0.79161575  1
  F  F20  1  0.21128330  0.49765204  0.78213419  1
  F  F21  1  0.49765204  0.21128330  0.28213419  1
  F  F22  1  0.72877801  0.00108388  0.29161575  1
  F  F23  1  0.71785466  0.23340654  0.49621587  1
  F  F24  1  0.47423609  0.52576391  0.25000000  1
  F  F25  1  0.74538593  0.95243315  0.97437639  1
  F  F26  1  0.04756685  0.25461407  0.52562361  1
  F  F27  1  0.25461407  0.04756685  0.02562361  1
  F  F28  1  0.95243315  0.74538593  0.47437639  1
  F  F29  1  0.52576391  0.47423609  0.75000000  1
loop_
_geom_bond_atom_site_label_1
_geom_bond_atom_site_label_2
_geom_bond_distance
_geom_bond_site_symmetry_2
F0 Hf1 2.081268 1_554
F0 Hf2 2.086901 1_555
F1 Hf3 1.989376 1_555
F1 Y0 2.219861 1_655
F2 Hf0 1.995813 1_555
F2 Y1 2.217068 1_555
F3 Hf3 1.995813 1_555
F3 Y0 2.217068 1_555
F4 Hf0 1.989376 1_555
F4 Y1 2.219862 1_565
F5 Hf2 2.081260 1_555
F5 Hf1 2.086909 1_555
F6 Hf3 2.081268 1_556
F6 Hf0 2.086901 1_555
F7 Hf1 1.989376 1_555
F7 Y1 2.219861 1_455
F8 Hf2 1.995813 1_555
F8 Y0 2.217068 1_555
F9 Hf1 1.995813 1_555
F9 Y1 2.217068 1_555
F10 Hf2 1.989376 1_555
F10 Y0 2.219862 1_545
F11 Hf0 2.081268 1_555
F11 Hf3 2.086901 1_555
F12 Pd0 1.909821 1_555
F12 Y1 2.320840 1_554
F13 Pd0 1.918457 1_555
F13 Hf2 2.453027 1_655
F14 Pd0 1.952374 1_555
F14 Hf3 2.210759 1_555
F15 Pd1 1.952374 1_555
F15 Hf0 2.210759 1_555
F16 Pd1 1.918457 1_555
F16 Hf1 2.453027 1_565
F17 Pd1 1.909821 1_555
F17 Y0 2.320840 1_555
F18 Pd1 1.909821 1_555
F18 Y0 2.320840 1_556
F19 Pd1 1.918457 1_555
F19 Hf0 2.453027 1_455
F20 Pd1 1.952374 1_555
F20 Hf1 2.210759 1_555
F21 Pd0 1.952374 1_555
F21 Hf2 2.210759 1_555
F22 Pd0 1.918457 1_555
F22 Hf3 2.453027 1_545
F23 Pd0 1.909821 1_555
F23 Y1 2.320840 1_555
F24 Hf3 2.082293 1_555
F24 Hf2 2.082293 1_555
F25 Hf3 2.004359 1_556
F25 Y1 2.206833 1_565
F26 Hf2 2.004359 1_555
F26 Y1 2.206834 1_455
F27 Hf1 2.004359 1_554
F27 Y0 2.206833 1_545
F28 Hf0 2.004359 1_555
F28 Y0 2.206834 1_655
F29 Hf1 2.082293 1_555
F29 Hf0 2.082293 1_555
