# generated using pymatgen
data_CdGa(Ni7B2)3
_symmetry_space_group_name_H-M   'P 1'
_cell_length_a   7.37203212
_cell_length_b   7.37203211
_cell_length_c   7.37203199
_cell_angle_alpha   60.00000491
_cell_angle_beta   60.00000494
_cell_angle_gamma   60.00000578
_symmetry_Int_Tables_number   1
_chemical_formula_structural   CdGa(Ni7B2)3
_chemical_formula_sum   'Cd1 Ga1 Ni21 B6'
_cell_volume   283.30008273
_cell_formula_units_Z   1
loop_
 _symmetry_equiv_pos_site_id
 _symmetry_equiv_pos_as_xyz
  1  'x, y, z'
loop_
 _atom_site_type_symbol
 _atom_site_label
 _atom_site_symmetry_multiplicity
 _atom_site_fract_x
 _atom_site_fract_y
 _atom_site_fract_z
 _atom_site_occupancy
  Cd  Cd0  1  0.75000000  0.75000000  0.75000000  1
  Ga  Ga0  1  0.25000000  0.25000000  0.25000000  1
  Ni  Ni0  1  0.00000000  0.00000000  0.00000000  1
  Ni  Ni1  1  0.61068377  0.61068377  0.16794870  1
  Ni  Ni2  1  0.61068377  0.16794870  0.61068377  1
  Ni  Ni3  1  0.16794870  0.61068377  0.61068377  1
  Ni  Ni4  1  0.61068377  0.61068377  0.61068377  1
  Ni  Ni5  1  0.37983031  0.37983031  0.86051107  1
  Ni  Ni6  1  0.37983031  0.86051107  0.37983031  1
  Ni  Ni7  1  0.86051107  0.37983031  0.37983031  1
  Ni  Ni8  1  0.37983031  0.37983031  0.37983031  1
  Ni  Ni9  1  0.00043292  0.00043292  0.33613468  1
  Ni  Ni10  1  0.66299948  0.00043292  0.33613468  1
  Ni  Ni11  1  0.00043292  0.66299948  0.33613468  1
  Ni  Ni12  1  0.66299948  0.33613468  0.00043292  1
  Ni  Ni13  1  0.00043292  0.33613468  0.00043292  1
  Ni  Ni14  1  0.00043292  0.33613468  0.66299948  1
  Ni  Ni15  1  0.33613468  0.66299948  0.00043292  1
  Ni  Ni16  1  0.33613468  0.00043292  0.66299948  1
  Ni  Ni17  1  0.33613468  0.00043292  0.00043292  1
  Ni  Ni18  1  0.00043292  0.00043292  0.66299948  1
  Ni  Ni19  1  0.00043292  0.66299948  0.00043292  1
  Ni  Ni20  1  0.66299948  0.00043292  0.00043292  1
  B  B0  1  0.72712281  0.72712281  0.27287719  1
  B  B1  1  0.27287719  0.72712281  0.27287719  1
  B  B2  1  0.72712281  0.27287719  0.27287719  1
  B  B3  1  0.27287719  0.27287719  0.72712281  1
  B  B4  1  0.72712281  0.27287719  0.72712281  1
  B  B5  1  0.27287719  0.72712281  0.72712281  1
loop_
_geom_bond_atom_site_label_1
_geom_bond_atom_site_label_2
_geom_bond_distance
_geom_bond_site_symmetry_2
Cd0 Ni4 2.515733 1_555
Cd0 Ni1 2.515733 1_556
Cd0 Ni2 2.515733 1_565
Cd0 Ni3 2.515733 1_655
Cd0 Ni20 2.875503 1_566
Cd0 Ni19 2.875503 1_656
Cd0 Ni18 2.875503 1_665
Cd0 Ni10 2.875503 1_565
Cd0 Ni11 2.875503 1_655
Cd0 Ni12 2.875503 1_556
Cd0 Ni15 2.875503 1_556
Cd0 Ni14 2.875503 1_655
Cd0 Ni16 2.875503 1_565
Cd0 Ni9 2.875503 1_665
Cd0 Ni13 2.875503 1_656
Cd0 Ni17 2.875503 1_566
Ga0 Ni5 2.344427 1_554
Ga0 Ni6 2.344427 1_545
Ga0 Ni7 2.344427 1_455
Ga0 Ni8 2.344439 1_555
Ni0 Ni9 2.481191 1_555
Ni0 Ni18 2.481191 1_554
Ni0 Ni13 2.481191 1_555
Ni0 Ni19 2.481191 1_545
Ni0 Ni17 2.481191 1_555
Ni0 Ni20 2.481191 1_455
Ni0 Ni14 2.481191 1_554
Ni0 Ni11 2.481191 1_545
Ni0 Ni16 2.481191 1_554
Ni0 Ni10 2.481191 1_455
Ni0 Ni15 2.481191 1_545
Ni0 Ni12 2.481191 1_455
B0 Ni1 2.033929 1_555
B0 Ni4 2.033929 1_555
B0 Ni10 2.065732 1_565
B0 Ni11 2.065732 1_655
B0 Ni20 2.065732 1_565
B0 Ni19 2.065732 1_655
B0 Ni7 2.093463 1_555
B0 Ni6 2.093463 1_555
B1 Ni3 2.033929 1_555
B1 Ni1 2.033929 1_555
B1 Ni15 2.065732 1_555
B1 Ni11 2.065732 1_555
B1 Ni17 2.065732 1_565
B1 Ni9 2.065733 1_565
B1 Ni8 2.093462 1_555
B1 Ni6 2.093474 1_555
B2 Ni2 2.033929 1_555
B2 Ni1 2.033929 1_555
B2 Ni12 2.065732 1_555
B2 Ni10 2.065732 1_555
B2 Ni13 2.065732 1_655
B2 Ni9 2.065733 1_655
B2 Ni8 2.093462 1_555
B2 Ni7 2.093474 1_555
B3 Ni3 2.033929 1_555
B3 Ni2 2.033929 1_555
B3 Ni16 2.065732 1_555
B3 Ni14 2.065732 1_555
B3 Ni17 2.065732 1_556
B3 Ni13 2.065732 1_556
B3 Ni8 2.093462 1_555
B3 Ni5 2.093474 1_555
B4 Ni2 2.033929 1_555
B4 Ni4 2.033929 1_555
B4 Ni12 2.065732 1_556
B4 Ni14 2.065732 1_655
B4 Ni20 2.065732 1_556
B4 Ni18 2.065733 1_655
B4 Ni7 2.093463 1_555
B4 Ni5 2.093463 1_555
B5 Ni3 2.033929 1_555
B5 Ni4 2.033929 1_555
B5 Ni15 2.065732 1_556
B5 Ni16 2.065732 1_565
B5 Ni19 2.065732 1_556
B5 Ni18 2.065733 1_565
B5 Ni6 2.093463 1_555
B5 Ni5 2.093463 1_555
