# generated using pymatgen
data_HfMg(ZnPt)2
_symmetry_space_group_name_H-M   'P 1'
_cell_length_a   5.02074250
_cell_length_b   5.02074127
_cell_length_c   5.12055246
_cell_angle_alpha   90.00000000
_cell_angle_beta   90.00000000
_cell_angle_gamma   129.59962035
_symmetry_Int_Tables_number   1
_chemical_formula_structural   HfMg(ZnPt)2
_chemical_formula_sum   'Hf1 Mg1 Zn2 Pt2'
_cell_volume   99.45694106
_cell_formula_units_Z   1
loop_
 _symmetry_equiv_pos_site_id
 _symmetry_equiv_pos_as_xyz
  1  'x, y, z'
loop_
 _atom_site_type_symbol
 _atom_site_label
 _atom_site_symmetry_multiplicity
 _atom_site_fract_x
 _atom_site_fract_y
 _atom_site_fract_z
 _atom_site_occupancy
  Hf  Hf0  1  0.70967797  0.29032203  0.25000000  1
  Mg  Mg0  1  0.28822476  0.71177524  0.75000000  1
  Zn  Zn0  1  0.00903321  0.99096679  0.49810271  1
  Zn  Zn1  1  0.00903321  0.99096679  0.00189729  1
  Pt  Pt0  1  0.39530391  0.60469609  0.25000000  1
  Pt  Pt1  1  0.58872894  0.41127106  0.75000000  1
loop_
_geom_bond_atom_site_label_1
_geom_bond_atom_site_label_2
_geom_bond_distance
_geom_bond_site_symmetry_2
Hf0 Pt0 2.722944 1_545
Hf0 Pt0 2.722945 1_655
Hf0 Pt1 2.786150 1_554
Hf0 Pt1 2.786150 1_555
Hf0 Pt0 2.856337 1_555
Hf0 Zn0 3.001952 1_645
Hf0 Zn1 3.001952 1_645
Hf0 Zn0 3.083392 1_655
Hf0 Zn1 3.083392 1_655
Hf0 Zn0 3.083393 1_545
Hf0 Zn1 3.083393 1_545
Mg0 Pt1 2.730318 1_555
Mg0 Pt0 2.738895 1_556
Mg0 Pt0 2.738895 1_555
Mg0 Pt1 2.802745 1_565
Mg0 Pt1 2.802746 1_455
Mg0 Zn1 2.845777 1_556
Mg0 Zn0 2.845777 1_555
Mg0 Zn1 3.202902 1_546
Mg0 Zn0 3.202902 1_545
Mg0 Zn1 3.202903 1_656
Mg0 Zn0 3.202903 1_655
Zn0 Zn1 2.540846 1_555
Zn0 Zn1 2.579707 1_556
Pt0 Zn0 2.692892 1_545
Pt0 Zn1 2.692892 1_545
Pt0 Zn0 2.692893 1_655
Pt0 Zn1 2.692893 1_655
Pt1 Zn1 2.599612 1_656
Pt1 Zn0 2.599612 1_655
Pt1 Zn1 2.599613 1_546
Pt1 Zn0 2.599613 1_545
