# generated using pymatgen
data_KVPdS4
_symmetry_space_group_name_H-M   'P 1'
_cell_length_a   8.13988599
_cell_length_b   8.13988599
_cell_length_c   11.22871359
_cell_angle_alpha   90.00000000
_cell_angle_beta   90.00000000
_cell_angle_gamma   90.00000000
_symmetry_Int_Tables_number   1
_chemical_formula_structural   KVPdS4
_chemical_formula_sum   'K4 V4 Pd4 S16'
_cell_volume   743.98922986
_cell_formula_units_Z   4
loop_
 _symmetry_equiv_pos_site_id
 _symmetry_equiv_pos_as_xyz
  1  'x, y, z'
loop_
 _atom_site_type_symbol
 _atom_site_label
 _atom_site_symmetry_multiplicity
 _atom_site_fract_x
 _atom_site_fract_y
 _atom_site_fract_z
 _atom_site_occupancy
  K  K0  1  0.00000000  0.50000000  0.75000000  1
  K  K1  1  0.50000000  0.00000000  0.75000000  1
  K  K2  1  0.50000000  0.00000000  0.25000000  1
  K  K3  1  0.00000000  0.50000000  0.25000000  1
  V  V0  1  0.75031535  0.75031535  0.00000000  1
  V  V1  1  0.24968465  0.24968465  0.00000000  1
  V  V2  1  0.25031535  0.74968465  0.50000000  1
  V  V3  1  0.74968465  0.25031535  0.50000000  1
  Pd  Pd0  1  0.50000000  0.50000000  0.50000000  1
  Pd  Pd1  1  0.00000000  0.00000000  0.00000000  1
  Pd  Pd2  1  0.50000000  0.50000000  0.00000000  1
  Pd  Pd3  1  0.00000000  0.00000000  0.50000000  1
  S  S0  1  0.36207231  0.36207231  0.15336699  1
  S  S1  1  0.63792769  0.63792769  0.15336699  1
  S  S2  1  0.13792769  0.86207231  0.34663301  1
  S  S3  1  0.86207231  0.13792769  0.34663301  1
  S  S4  1  0.63792769  0.63792769  0.84663301  1
  S  S5  1  0.36207231  0.36207231  0.84663301  1
  S  S6  1  0.13792769  0.86207231  0.65336699  1
  S  S7  1  0.86207231  0.13792769  0.65336699  1
  S  S8  1  0.48786633  0.21371084  0.50000000  1
  S  S9  1  0.51213367  0.78628916  0.50000000  1
  S  S10  1  0.01213367  0.71371084  0.00000000  1
  S  S11  1  0.98786633  0.28628916  0.00000000  1
  S  S12  1  0.78628916  0.51213367  0.50000000  1
  S  S13  1  0.21371084  0.48786633  0.50000000  1
  S  S14  1  0.28628916  0.98786633  0.00000000  1
  S  S15  1  0.71371084  0.01213367  0.00000000  1
loop_
_geom_bond_atom_site_label_1
_geom_bond_atom_site_label_2
_geom_bond_distance
_geom_bond_site_symmetry_2
K0 S13 3.303960 1_555
K0 S10 3.303960 1_556
K0 S12 3.303960 1_455
K0 S11 3.303960 1_456
K0 S5 3.335267 1_555
K0 S6 3.335267 1_555
K0 S4 3.335267 1_455
K0 S7 3.335267 1_455
K1 S8 3.303960 1_555
K1 S15 3.303960 1_556
K1 S9 3.303960 1_545
K1 S14 3.303960 1_546
K1 S5 3.335267 1_555
K1 S7 3.335267 1_555
K1 S4 3.335267 1_545
K1 S6 3.335267 1_545
K2 S8 3.303960 1_555
K2 S15 3.303960 1_555
K2 S9 3.303960 1_545
K2 S14 3.303960 1_545
K2 S3 3.335267 1_555
K2 S0 3.335267 1_555
K2 S2 3.335267 1_545
K2 S1 3.335267 1_545
K3 S13 3.303960 1_555
K3 S10 3.303960 1_555
K3 S12 3.303960 1_455
K3 S11 3.303960 1_455
K3 S2 3.335267 1_555
K3 S0 3.335267 1_555
K3 S3 3.335267 1_455
K3 S1 3.335267 1_455
Pd0 S9 2.332453 1_555
Pd0 S12 2.332453 1_555
Pd0 S13 2.332453 1_555
Pd0 S8 2.332453 1_555
Pd1 S11 2.332453 1_455
Pd1 S14 2.332453 1_545
Pd1 S15 2.332453 1_455
Pd1 S10 2.332453 1_545
Pd2 S1 2.342362 1_555
Pd2 S0 2.342362 1_555
Pd2 S4 2.342362 1_554
Pd2 S5 2.342362 1_554
Pd3 S6 2.342362 1_545
Pd3 S7 2.342362 1_455
Pd3 S2 2.342362 1_545
Pd3 S3 2.342362 1_455
S0 V1 2.153945 1_555
S1 V0 2.153945 1_555
S2 V2 2.153945 1_555
S3 V3 2.153945 1_555
S4 V0 2.153945 1_556
S5 V1 2.153945 1_556
S6 V2 2.153945 1_555
S7 V3 2.153945 1_555
S8 V3 2.151899 1_555
S9 V2 2.151899 1_555
S10 V0 2.151899 1_455
S11 V1 2.151899 1_655
S12 V3 2.151899 1_555
S13 V2 2.151899 1_555
S14 V1 2.151899 1_565
S15 V0 2.151899 1_545
