# generated using pymatgen
data_YSc(ZnSn)2
_symmetry_space_group_name_H-M   'P 1'
_cell_length_a   4.38741434
_cell_length_b   4.38741424
_cell_length_c   15.82724849
_cell_angle_alpha   90.00000000
_cell_angle_beta   90.00000000
_cell_angle_gamma   120.00000075
_symmetry_Int_Tables_number   1
_chemical_formula_structural   YSc(ZnSn)2
_chemical_formula_sum   'Y2 Sc2 Zn4 Sn4'
_cell_volume   263.84771682
_cell_formula_units_Z   2
loop_
 _symmetry_equiv_pos_site_id
 _symmetry_equiv_pos_as_xyz
  1  'x, y, z'
loop_
 _atom_site_type_symbol
 _atom_site_label
 _atom_site_symmetry_multiplicity
 _atom_site_fract_x
 _atom_site_fract_y
 _atom_site_fract_z
 _atom_site_occupancy
  Y  Y0  1  0.00000000  0.00000000  0.00000000  1
  Y  Y1  1  0.00000000  0.00000000  0.50000000  1
  Sc  Sc0  1  0.00000000  0.00000000  0.25000000  1
  Sc  Sc1  1  0.00000000  0.00000000  0.75000000  1
  Zn  Zn0  1  0.66666700  0.33333300  0.83234212  1
  Zn  Zn1  1  0.33333300  0.66666700  0.33234212  1
  Zn  Zn2  1  0.66666700  0.33333300  0.66765788  1
  Zn  Zn3  1  0.33333300  0.66666700  0.16765788  1
  Sn  Sn0  1  0.33333300  0.66666700  0.61750967  1
  Sn  Sn1  1  0.66666700  0.33333300  0.11750967  1
  Sn  Sn2  1  0.66666700  0.33333300  0.38249033  1
  Sn  Sn3  1  0.33333300  0.66666700  0.88249033  1
loop_
_geom_bond_atom_site_label_1
_geom_bond_atom_site_label_2
_geom_bond_distance
_geom_bond_site_symmetry_2
Sc0 Zn1 2.848669 1_545
Sc0 Zn3 2.848669 1_545
Sc0 Zn1 2.848672 1_555
Sc0 Zn3 2.848672 1_555
Sc0 Zn1 2.848672 1_445
Sc0 Zn3 2.848672 1_445
Sc0 Sn2 3.288417 1_455
Sc0 Sn1 3.288417 1_455
Sc0 Sn2 3.288420 1_445
Sc0 Sn1 3.288420 1_445
Sc0 Sn2 3.288420 1_555
Sc0 Sn1 3.288420 1_555
Sc1 Zn0 2.848669 1_455
Sc1 Zn2 2.848669 1_455
Sc1 Zn0 2.848672 1_445
Sc1 Zn2 2.848672 1_445
Sc1 Zn0 2.848672 1_555
Sc1 Zn2 2.848672 1_555
Sc1 Sn3 3.288417 1_545
Sc1 Sn0 3.288417 1_545
Sc1 Sn3 3.288420 1_555
Sc1 Sn0 3.288420 1_555
Sc1 Sn3 3.288420 1_445
Sc1 Sn0 3.288420 1_445
Zn0 Zn2 2.606498 1_555
Zn1 Zn3 2.606498 1_555
Sn0 Zn2 2.654511 1_565
Sn0 Zn2 2.654511 1_455
Sn0 Zn2 2.654518 1_555
Sn0 Y1 3.142533 1_565
Sn0 Y1 3.142536 1_555
Sn0 Y1 3.142536 1_665
Sn1 Zn3 2.654511 1_545
Sn1 Zn3 2.654511 1_655
Sn1 Zn3 2.654518 1_555
Sn1 Y0 3.142533 1_655
Sn1 Y0 3.142536 1_665
Sn1 Y0 3.142536 1_555
Sn2 Zn1 2.654511 1_545
Sn2 Zn1 2.654511 1_655
Sn2 Zn1 2.654518 1_555
Sn2 Y1 3.142533 1_655
Sn2 Y1 3.142536 1_665
Sn2 Y1 3.142536 1_555
Sn3 Zn0 2.654511 1_565
Sn3 Zn0 2.654511 1_455
Sn3 Zn0 2.654518 1_555
Sn3 Y0 3.142533 1_566
Sn3 Y0 3.142536 1_556
Sn3 Y0 3.142536 1_666
