# generated using pymatgen
data_Sr7YBi6
_symmetry_space_group_name_H-M   'P 1'
_cell_length_a   8.75967816
_cell_length_b   8.75967706
_cell_length_c   8.62822115
_cell_angle_alpha   109.16750427
_cell_angle_beta   109.16750177
_cell_angle_gamma   109.77322371
_symmetry_Int_Tables_number   1
_chemical_formula_structural   Sr7YBi6
_chemical_formula_sum   'Sr7 Y1 Bi6'
_cell_volume   511.55197636
_cell_formula_units_Z   1
loop_
 _symmetry_equiv_pos_site_id
 _symmetry_equiv_pos_as_xyz
  1  'x, y, z'
loop_
 _atom_site_type_symbol
 _atom_site_label
 _atom_site_symmetry_multiplicity
 _atom_site_fract_x
 _atom_site_fract_y
 _atom_site_fract_z
 _atom_site_occupancy
  Sr  Sr0  1  0.14639895  0.50238631  0.99990464  1
  Sr  Sr1  1  0.35598637  0.35360105  0.35350569  1
  Sr  Sr2  1  0.99761369  0.14401363  0.49751833  1
  Sr  Sr3  1  0.86287333  0.85878844  0.86161404  1
  Sr  Sr4  1  0.99591612  0.63712667  0.49874071  1
  Sr  Sr5  1  0.50000000  1.00000000  0.14434086  1
  Sr  Sr6  1  0.64121156  0.50408388  0.00282460  1
  Y  Y0  1  0.50000000  1.00000000  0.64244332  1
  Bi  Bi0  1  0.86274001  0.24227007  0.10722856  1
  Bi  Bi1  1  0.13922931  0.87846399  0.26670851  1
  Bi  Bi2  1  0.37953006  0.63725999  0.74448855  1
  Bi  Bi3  1  0.25772993  0.12046994  0.86495849  1
  Bi  Bi4  1  0.73923467  0.36077069  0.62747819  1
  Bi  Bi5  1  0.62153601  0.76076533  0.38824452  1
loop_
_geom_bond_atom_site_label_1
_geom_bond_atom_site_label_2
_geom_bond_distance
_geom_bond_site_symmetry_2
Bi0 Sr3 3.332380 1_544
Bi0 Sr5 3.354789 1_545
Bi0 Sr0 3.359924 1_654
Bi0 Sr4 3.427138 1_555
Bi0 Y0 3.487663 1_544
Bi0 Sr6 3.613399 1_555
Bi0 Sr2 3.668165 1_555
Bi0 Sr1 3.727471 1_655
Bi1 Y0 3.218715 1_555
Bi1 Sr0 3.378003 1_554
Bi1 Sr2 3.383548 1_465
Bi1 Sr3 3.445665 1_454
Bi1 Sr4 3.561912 1_455
Bi1 Sr5 3.589989 1_555
Bi1 Sr1 3.627842 1_565
Bi1 Sr6 3.723532 1_455
Bi2 Sr4 3.332374 1_455
Bi2 Sr5 3.354789 1_556
Bi2 Sr1 3.359920 1_555
Bi2 Sr6 3.427143 1_556
Bi2 Y0 3.487663 1_555
Bi2 Sr3 3.613405 1_555
Bi2 Sr0 3.668171 1_555
Bi2 Sr2 3.727473 1_455
Bi3 Sr6 3.332378 1_556
Bi3 Sr5 3.354789 1_546
Bi3 Sr2 3.359930 1_455
Bi3 Sr3 3.427141 1_445
Bi3 Y0 3.487663 1_545
Bi3 Sr4 3.613405 1_445
Bi3 Sr1 3.668174 1_556
Bi3 Sr0 3.727479 1_555
Bi4 Y0 3.218720 1_545
Bi4 Sr1 3.378007 1_555
Bi4 Sr0 3.383547 1_655
Bi4 Sr4 3.445663 1_555
Bi4 Sr6 3.561914 1_556
Bi4 Sr5 3.589983 1_545
Bi4 Sr2 3.627835 1_555
Bi4 Sr3 3.723530 1_555
Bi5 Y0 3.218715 1_555
Bi5 Sr2 3.378008 1_565
Bi5 Sr1 3.383545 1_555
Bi5 Sr6 3.445674 1_555
Bi5 Sr3 3.561915 1_555
Bi5 Sr5 3.589989 1_555
Bi5 Sr0 3.627844 1_554
Bi5 Sr4 3.723538 1_555
