# generated using pymatgen
data_ZnHg(CO3)2
_symmetry_space_group_name_H-M   'P 1'
_cell_length_a   6.00328324
_cell_length_b   6.00328279
_cell_length_c   6.00328352
_cell_angle_alpha   47.50962428
_cell_angle_beta   47.50962628
_cell_angle_gamma   47.50962282
_symmetry_Int_Tables_number   1
_chemical_formula_structural   ZnHg(CO3)2
_chemical_formula_sum   'Zn1 Hg1 C2 O6'
_cell_volume   107.65800356
_cell_formula_units_Z   1
loop_
 _symmetry_equiv_pos_site_id
 _symmetry_equiv_pos_as_xyz
  1  'x, y, z'
loop_
 _atom_site_type_symbol
 _atom_site_label
 _atom_site_symmetry_multiplicity
 _atom_site_fract_x
 _atom_site_fract_y
 _atom_site_fract_z
 _atom_site_occupancy
  Zn  Zn0  1  0.50000000  0.50000000  0.50000000  1
  Hg  Hg0  1  0.00000000  0.00000000  0.00000000  1
  C  C0  1  0.24267082  0.24267082  0.24267082  1
  C  C1  1  0.75732918  0.75732918  0.75732918  1
  O  O0  1  0.96191327  0.27593566  0.49246813  1
  O  O1  1  0.27593566  0.49246813  0.96191327  1
  O  O2  1  0.49246813  0.96191327  0.27593566  1
  O  O3  1  0.03808673  0.72406434  0.50753187  1
  O  O4  1  0.72406434  0.50753187  0.03808673  1
  O  O5  1  0.50753187  0.03808673  0.72406434  1
loop_
_geom_bond_atom_site_label_1
_geom_bond_atom_site_label_2
_geom_bond_distance
_geom_bond_site_symmetry_2
Hg0 O4 2.385525 1_455
Hg0 O1 2.385525 1_544
Hg0 O5 2.385525 1_554
Hg0 O2 2.385525 1_445
Hg0 O3 2.385525 1_545
Hg0 O0 2.385525 1_454
C0 O2 1.290280 1_545
C0 O1 1.290280 1_554
C0 O0 1.290280 1_455
C1 O5 1.290280 1_565
C1 O4 1.290280 1_556
C1 O3 1.290280 1_655
O0 Zn0 2.091574 1_555
O1 Zn0 2.091574 1_555
O2 Zn0 2.091574 1_555
O3 Zn0 2.091574 1_555
O4 Zn0 2.091574 1_555
O5 Zn0 2.091574 1_555
