# generated using pymatgen
data_RbY(TaBr3)6
_symmetry_space_group_name_H-M   'P 1'
_cell_length_a   10.64582027
_cell_length_b   10.64582006
_cell_length_c   10.64582050
_cell_angle_alpha   55.49255579
_cell_angle_beta   55.49255127
_cell_angle_gamma   55.49256421
_symmetry_Int_Tables_number   1
_chemical_formula_structural   RbY(TaBr3)6
_chemical_formula_sum   'Rb1 Y1 Ta6 Br18'
_cell_volume   763.85567922
_cell_formula_units_Z   1
loop_
 _symmetry_equiv_pos_site_id
 _symmetry_equiv_pos_as_xyz
  1  'x, y, z'
loop_
 _atom_site_type_symbol
 _atom_site_label
 _atom_site_symmetry_multiplicity
 _atom_site_fract_x
 _atom_site_fract_y
 _atom_site_fract_z
 _atom_site_occupancy
  Rb  Rb0  1  0.22320469  0.22320469  0.22320469  1
  Y  Y0  1  0.49831737  0.49831737  0.49831737  1
  Ta  Ta0  1  0.81144177  0.14140204  0.91582458  1
  Ta  Ta1  1  0.91582458  0.81144177  0.14140204  1
  Ta  Ta2  1  0.14140204  0.91582458  0.81144177  1
  Ta  Ta3  1  0.18953196  0.85893992  0.08327899  1
  Ta  Ta4  1  0.08327899  0.18953196  0.85893992  1
  Ta  Ta5  1  0.85893992  0.08327899  0.18953196  1
  Br  Br0  1  0.86684798  0.41268507  0.72159019  1
  Br  Br1  1  0.72159019  0.86684798  0.41268507  1
  Br  Br2  1  0.41268507  0.72159019  0.86684798  1
  Br  Br3  1  0.13257032  0.58684342  0.28046297  1
  Br  Br4  1  0.28046297  0.13257032  0.58684342  1
  Br  Br5  1  0.58684342  0.28046297  0.13257032  1
  Br  Br6  1  0.53370313  0.34088569  0.80458291  1
  Br  Br7  1  0.80458291  0.53370313  0.34088569  1
  Br  Br8  1  0.34088569  0.80458291  0.53370313  1
  Br  Br9  1  0.46329426  0.66090441  0.19632083  1
  Br  Br10  1  0.19632083  0.46329426  0.66090441  1
  Br  Br11  1  0.66090441  0.19632083  0.46329426  1
  Br  Br12  1  0.66026980  0.93945508  0.07041056  1
  Br  Br13  1  0.07041056  0.66026980  0.93945508  1
  Br  Br14  1  0.93945508  0.07041056  0.66026980  1
  Br  Br15  1  0.34182504  0.05996227  0.92658572  1
  Br  Br16  1  0.92658572  0.34182504  0.05996227  1
  Br  Br17  1  0.05996227  0.92658572  0.34182504  1
loop_
_geom_bond_atom_site_label_1
_geom_bond_atom_site_label_2
_geom_bond_distance
_geom_bond_site_symmetry_2
Br0 Ta0 2.597366 1_555
Br0 Ta4 2.601950 1_655
Br1 Ta1 2.597366 1_555
Br1 Ta5 2.601949 1_565
Br2 Ta2 2.597367 1_555
Br2 Ta3 2.601950 1_556
Br3 Ta3 2.612179 1_555
Br3 Ta1 2.615652 1_455
Br3 Rb0 3.750215 1_555
Br4 Ta4 2.612179 1_555
Br4 Ta2 2.615651 1_545
Br4 Rb0 3.750215 1_555
Br5 Ta5 2.612179 1_555
Br5 Ta0 2.615651 1_554
Br5 Rb0 3.750215 1_555
Br6 Y0 2.840116 1_555
Br6 Ta0 2.942484 1_555
Br6 Rb0 3.745955 1_556
Br7 Y0 2.840116 1_555
Br7 Ta1 2.942483 1_555
Br7 Rb0 3.745956 1_655
Br8 Y0 2.840116 1_555
Br8 Ta2 2.942484 1_555
Br8 Rb0 3.745956 1_565
Br9 Y0 2.791616 1_555
Br9 Ta3 2.919649 1_555
Br10 Y0 2.791615 1_555
Br10 Ta4 2.919648 1_555
Br11 Y0 2.791616 1_555
Br11 Ta5 2.919648 1_555
Br12 Ta1 2.606117 1_555
Br12 Ta0 2.613617 1_564
Br12 Rb0 3.806223 1_565
Br13 Ta2 2.606117 1_555
Br13 Ta1 2.613618 1_456
Br13 Rb0 3.806223 1_556
Br14 Ta0 2.606117 1_555
Br14 Ta2 2.613618 1_645
Br14 Rb0 3.806222 1_655
Br15 Ta3 2.610202 1_546
Br15 Ta4 2.610714 1_555
Br15 Rb0 3.714741 1_556
Br16 Ta4 2.610202 1_654
Br16 Ta5 2.610714 1_555
Br16 Rb0 3.714741 1_655
Br17 Ta5 2.610202 1_465
Br17 Ta3 2.610714 1_555
Br17 Rb0 3.714741 1_565
