# generated using pymatgen
data_Ta10CuSi3Ge2
_symmetry_space_group_name_H-M   'P 1'
_cell_length_a   7.56523745
_cell_length_b   7.56523711
_cell_length_c   7.55974779
_cell_angle_alpha   128.65249673
_cell_angle_beta   128.65249547
_cell_angle_gamma   75.62399495
_symmetry_Int_Tables_number   1
_chemical_formula_structural   Ta10CuSi3Ge2
_chemical_formula_sum   'Ta10 Cu1 Si3 Ge2'
_cell_volume   256.63935332
_cell_formula_units_Z   1
loop_
 _symmetry_equiv_pos_site_id
 _symmetry_equiv_pos_as_xyz
  1  'x, y, z'
loop_
 _atom_site_type_symbol
 _atom_site_label
 _atom_site_symmetry_multiplicity
 _atom_site_fract_x
 _atom_site_fract_y
 _atom_site_fract_z
 _atom_site_occupancy
  Ta  Ta0  1  0.01507824  0.18518318  0.49911511  1
  Ta  Ta1  1  0.51823798  0.01823798  0.83076897  1
  Ta  Ta2  1  0.18635530  0.68635530  0.17031225  1
  Ta  Ta3  1  0.48395795  0.98395795  0.17031225  1
  Ta  Ta4  1  0.68518318  0.51507824  0.49911511  1
  Ta  Ta5  1  0.98403587  0.81393193  0.49911511  1
  Ta  Ta6  1  0.31393193  0.48403587  0.49911511  1
  Ta  Ta7  1  0.81252999  0.31252999  0.83076897  1
  Ta  Ta8  1  0.50037169  0.49913177  0.99950247  1
  Ta  Ta9  1  0.99913177  0.00037169  0.99950247  1
  Cu  Cu0  1  0.12800027  0.62800027  0.75600054  1
  Si  Si0  1  0.62978054  0.86822216  0.49800170  1
  Si  Si1  1  0.36822216  0.12978054  0.49800170  1
  Si  Si2  1  0.87648751  0.37648751  0.25297502  1
  Ge  Ge0  1  0.74934831  0.74934831  0.99869662  1
  Ge  Ge1  1  0.24934831  0.24934831  0.99869662  1
loop_
_geom_bond_atom_site_label_1
_geom_bond_atom_site_label_2
_geom_bond_distance
_geom_bond_site_symmetry_2
Cu0 Si2 2.328545 1_455
Cu0 Ta9 2.583624 1_465
Cu0 Ta8 2.583624 1_555
Cu0 Ta2 2.615722 1_556
Cu0 Ta3 2.615729 1_556
Cu0 Ta5 2.635443 1_455
Cu0 Ta6 2.635443 1_555
Cu0 Ta0 2.635444 1_555
Cu0 Ta4 2.635445 1_455
Si0 Si1 2.426236 1_565
Si0 Ta8 2.561397 1_554
Si0 Ta9 2.568975 1_565
Si0 Ta5 2.604006 1_555
Si0 Ta4 2.604021 1_555
Si0 Ta2 2.633703 1_555
Si0 Ta3 2.633703 1_555
Si0 Ta7 2.634049 1_565
Si0 Ta1 2.634065 1_565
Si1 Ta9 2.561397 1_454
Si1 Ta8 2.568975 1_555
Si1 Ta6 2.604006 1_555
Si1 Ta0 2.604022 1_555
Si1 Ta2 2.633703 1_545
Si1 Ta3 2.633703 1_545
Si1 Ta7 2.634049 1_555
Si1 Ta1 2.634065 1_555
Si2 Ta9 2.593829 1_554
Si2 Ta8 2.593829 1_554
Si2 Ta5 2.613376 1_555
Si2 Ta6 2.613377 1_655
Si2 Ta0 2.613378 1_655
Si2 Ta4 2.613378 1_555
Si2 Ta7 2.629355 1_554
Si2 Ta1 2.629363 1_554
Ge0 Ta4 2.723208 1_555
Ge0 Ta6 2.723209 1_555
Ge0 Ta0 2.726498 1_666
Ge0 Ta5 2.726500 1_556
Ge0 Ta3 2.733544 1_556
Ge0 Ta2 2.733549 1_656
Ge0 Ta1 2.737460 1_565
Ge0 Ta7 2.737466 1_555
Ge0 Ta8 2.988371 1_555
Ge0 Ta9 2.988383 1_565
Ge1 Ta0 2.723208 1_555
Ge1 Ta5 2.723209 1_445
Ge1 Ta4 2.726498 1_556
Ge1 Ta6 2.726500 1_556
Ge1 Ta3 2.733543 1_546
Ge1 Ta2 2.733549 1_556
Ge1 Ta1 2.737460 1_555
Ge1 Ta7 2.737466 1_455
Ge1 Ta9 2.988371 1_455
Ge1 Ta8 2.988383 1_555
