# generated using pymatgen
data_NaCaCrN3
_symmetry_space_group_name_H-M   'P 1'
_cell_length_a   5.91252785
_cell_length_b   5.91252782
_cell_length_c   11.51912866
_cell_angle_alpha   90.00000000
_cell_angle_beta   90.00000000
_cell_angle_gamma   124.15936956
_symmetry_Int_Tables_number   1
_chemical_formula_structural   NaCaCrN3
_chemical_formula_sum   'Na4 Ca4 Cr4 N12'
_cell_volume   333.21380471
_cell_formula_units_Z   4
loop_
 _symmetry_equiv_pos_site_id
 _symmetry_equiv_pos_as_xyz
  1  'x, y, z'
loop_
 _atom_site_type_symbol
 _atom_site_label
 _atom_site_symmetry_multiplicity
 _atom_site_fract_x
 _atom_site_fract_y
 _atom_site_fract_z
 _atom_site_occupancy
  Na  Na0  1  0.54677437  0.45322563  0.64467689  1
  Na  Na1  1  0.45322563  0.54677437  0.35532311  1
  Na  Na2  1  0.95322563  0.04677437  0.14467689  1
  Na  Na3  1  0.04677437  0.95322563  0.85532311  1
  Ca  Ca0  1  0.86031842  0.13968158  0.58276765  1
  Ca  Ca1  1  0.13968158  0.86031842  0.41723235  1
  Ca  Ca2  1  0.63968158  0.36031842  0.08276765  1
  Ca  Ca3  1  0.36031842  0.63968158  0.91723235  1
  Cr  Cr0  1  0.74077944  0.25922056  0.83781984  1
  Cr  Cr1  1  0.25922056  0.74077944  0.16218016  1
  Cr  Cr2  1  0.75922056  0.24077944  0.33781984  1
  Cr  Cr3  1  0.24077944  0.75922056  0.66218016  1
  N  N0  1  0.82977453  0.17022547  0.95842059  1
  N  N1  1  0.17022547  0.82977453  0.04157941  1
  N  N2  1  0.67022547  0.32977453  0.45842059  1
  N  N3  1  0.32977453  0.67022547  0.54157941  1
  N  N4  1  0.58489720  0.41510280  0.87151491  1
  N  N5  1  0.41510280  0.58489720  0.12848509  1
  N  N6  1  0.91510280  0.08489720  0.37151491  1
  N  N7  1  0.08489720  0.91510280  0.62848509  1
  N  N8  1  0.53627405  0.96372595  0.75000000  1
  N  N9  1  0.96372595  0.53627405  0.25000000  1
  N  N10  1  0.46372595  0.03627405  0.25000000  1
  N  N11  1  0.03627405  0.46372595  0.75000000  1
loop_
_geom_bond_atom_site_label_1
_geom_bond_atom_site_label_2
_geom_bond_distance
_geom_bond_site_symmetry_2
Ca0 N7 2.404906 1_645
Ca0 N2 2.448817 1_555
Ca0 N11 2.495116 1_655
Ca0 N8 2.495116 1_545
Ca0 N6 2.499866 1_555
Ca0 N3 2.826933 1_655
Ca0 N3 2.826933 1_545
Ca1 N6 2.404906 1_465
Ca1 N3 2.448817 1_555
Ca1 N9 2.495116 1_455
Ca1 N10 2.495116 1_565
Ca1 N7 2.499866 1_555
Ca1 N2 2.826933 1_455
Ca1 N2 2.826933 1_565
Ca2 N5 2.404906 1_555
Ca2 N0 2.448817 1_554
Ca2 N10 2.495116 1_555
Ca2 N9 2.495116 1_555
Ca2 N4 2.499866 1_554
Ca2 N1 2.826933 1_545
Ca2 N1 2.826933 1_655
Ca3 N4 2.404906 1_555
Ca3 N1 2.448817 1_556
Ca3 N8 2.495116 1_555
Ca3 N11 2.495116 1_555
Ca3 N5 2.499866 1_556
Ca3 N0 2.826933 1_565
Ca3 N0 2.826933 1_455
Cr0 N0 1.671702 1_555
Cr0 N4 1.674362 1_555
Cr0 N8 1.779175 1_545
Cr0 N11 1.779175 1_655
Cr1 N1 1.671702 1_555
Cr1 N5 1.674362 1_555
Cr1 N10 1.779175 1_565
Cr1 N9 1.779175 1_455
Cr2 N2 1.671702 1_555
Cr2 N6 1.674362 1_555
Cr2 N9 1.779175 1_555
Cr2 N10 1.779175 1_555
Cr3 N3 1.671702 1_555
Cr3 N7 1.674362 1_555
Cr3 N11 1.779175 1_555
Cr3 N8 1.779175 1_555
N0 Na2 2.503405 1_556
N0 Na3 2.559540 1_645
N1 Na3 2.503405 1_554
N1 Na2 2.559540 1_465
N2 Na0 2.503405 1_555
N2 Na1 2.559540 1_555
N3 Na1 2.503405 1_555
N3 Na0 2.559540 1_555
N4 Na0 2.643163 1_555
N4 Na3 2.803222 1_655
N4 Na3 2.803222 1_545
N5 Na1 2.643163 1_555
N5 Na2 2.803222 1_455
N5 Na2 2.803222 1_565
N6 Na2 2.643163 1_555
N6 Na1 2.803222 1_545
N6 Na1 2.803222 1_655
N7 Na3 2.643163 1_555
N7 Na0 2.803222 1_565
N7 Na0 2.803222 1_455
