# generated using pymatgen
data_VCd3P7N12
_symmetry_space_group_name_H-M   'P 1'
_cell_length_a   7.24551929
_cell_length_b   7.30318691
_cell_length_c   7.30318766
_cell_angle_alpha   109.63062262
_cell_angle_beta   109.31134234
_cell_angle_gamma   109.31134590
_symmetry_Int_Tables_number   1
_chemical_formula_structural   VCd3P7N12
_chemical_formula_sum   'V1 Cd3 P7 N12'
_cell_volume   298.07503557
_cell_formula_units_Z   1
loop_
 _symmetry_equiv_pos_site_id
 _symmetry_equiv_pos_as_xyz
  1  'x, y, z'
loop_
 _atom_site_type_symbol
 _atom_site_label
 _atom_site_symmetry_multiplicity
 _atom_site_fract_x
 _atom_site_fract_y
 _atom_site_fract_z
 _atom_site_occupancy
  V  V0  1  0.62727925  1.00000000  1.00000000  1
  Cd  Cd0  1  0.00204309  0.00000000  0.68505906  1
  Cd  Cd1  1  0.00204309  0.68505906  1.00000000  1
  Cd  Cd2  1  0.31698503  0.31494094  0.31494094  1
  P  P0  1  0.25545002  0.74891480  0.50172896  1
  P  P1  1  0.75372106  0.24718484  0.49827104  1
  P  P2  1  0.75372106  0.49827104  0.24718484  1
  P  P3  1  0.25545002  0.50172896  0.74891480  1
  P  P4  1  0.50653522  0.75281516  0.25108520  1
  P  P5  1  0.50653522  0.25108520  0.75281516  1
  P  P6  1  0.95476935  0.00000000  0.00000000  1
  N  N0  1  0.70417517  0.27378326  0.27378326  1
  N  N1  1  0.29325015  0.72216547  0.29011516  1
  N  N2  1  0.31060173  0.58311761  0.58311761  1
  N  N3  1  0.57108568  0.56794969  0.27783453  1
  N  N4  1  0.43039191  0.72621674  1.00000000  1
  N  N5  1  0.00313499  0.70988484  0.43205031  1
  N  N6  1  0.57108568  0.27783453  0.56794969  1
  N  N7  1  0.72748311  0.00000000  0.41688239  1
  N  N8  1  0.43039191  0.00000000  0.72621674  1
  N  N9  1  0.72748311  0.41688239  1.00000000  1
  N  N10  1  0.29325015  0.29011516  0.72216547  1
  N  N11  1  0.00313499  0.43205031  0.70988484  1
loop_
_geom_bond_atom_site_label_1
_geom_bond_atom_site_label_2
_geom_bond_distance
_geom_bond_site_symmetry_2
Cd0 N7 2.283939 1_455
Cd0 N10 2.300808 1_555
Cd0 N5 2.300808 1_545
Cd0 P6 2.434898 1_456
Cd1 N9 2.283939 1_455
Cd1 N11 2.300808 1_555
Cd1 N1 2.300808 1_556
Cd1 P6 2.434898 1_466
Cd2 N2 2.283939 1_555
Cd2 N3 2.300808 1_555
Cd2 N6 2.300808 1_555
Cd2 P6 2.434901 1_455
P6 V0 2.372836 1_544
N0 P2 1.650857 1_555
N0 P1 1.650857 1_555
N0 V0 2.036281 1_544
N1 P0 1.616815 1_555
N1 P4 1.620161 1_555
N2 P0 1.620388 1_555
N2 P3 1.620389 1_555
N3 P4 1.616825 1_555
N3 P2 1.620157 1_555
N4 P4 1.650850 1_556
N4 P3 1.650853 1_555
N4 V0 2.036281 1_555
N5 P2 1.616816 1_455
N5 P0 1.620162 1_555
N6 P5 1.616825 1_555
N6 P1 1.620157 1_555
N7 P1 1.620379 1_555
N7 P4 1.620382 1_545
N8 P5 1.650850 1_555
N8 P0 1.650853 1_545
N8 V0 2.036281 1_545
N9 P2 1.620379 1_556
N9 P5 1.620382 1_555
N10 P3 1.616814 1_555
N10 P5 1.620161 1_555
N11 P1 1.616816 1_455
N11 P3 1.620162 1_555
