# generated using pymatgen
data_Ba6LuIn3F24
_symmetry_space_group_name_H-M   'P 1'
_cell_length_a   9.57639494
_cell_length_b   9.57639494
_cell_length_c   5.66404025
_cell_angle_alpha   90.00000000
_cell_angle_beta   90.00000000
_cell_angle_gamma   89.75727407
_symmetry_Int_Tables_number   1
_chemical_formula_structural   Ba6LuIn3F24
_chemical_formula_sum   'Ba6 Lu1 In3 F24'
_cell_volume   519.42940442
_cell_formula_units_Z   1
loop_
 _symmetry_equiv_pos_site_id
 _symmetry_equiv_pos_as_xyz
  1  'x, y, z'
loop_
 _atom_site_type_symbol
 _atom_site_label
 _atom_site_symmetry_multiplicity
 _atom_site_fract_x
 _atom_site_fract_y
 _atom_site_fract_z
 _atom_site_occupancy
  Ba  Ba0  1  0.49991940  0.49986738  0.00000000  1
  Ba  Ba1  1  0.99986738  0.99991940  0.00000000  1
  Ba  Ba2  1  0.32069660  0.82069660  0.50000000  1
  Ba  Ba3  1  0.82081482  0.67969688  0.50000000  1
  Ba  Ba4  1  0.17969688  0.32081482  0.50000000  1
  Ba  Ba5  1  0.67958071  0.17958071  0.50000000  1
  Lu  Lu0  1  0.13123689  0.63123689  0.00000000  1
  In  In0  1  0.63362489  0.86713521  0.00000000  1
  In  In1  1  0.36713521  0.13362489  0.00000000  1
  In  In2  1  0.86596921  0.36596921  0.00000000  1
  F  F0  1  0.29157578  0.79157578  0.00000000  1
  F  F1  1  0.79708721  0.70684528  0.00000000  1
  F  F2  1  0.20684528  0.29708721  0.00000000  1
  F  F3  1  0.70582094  0.20582094  0.00000000  1
  F  F4  1  0.55777176  0.72651237  0.25753611  1
  F  F5  1  0.44359508  0.27333396  0.25842686  1
  F  F6  1  0.27473056  0.55698917  0.25873035  1
  F  F7  1  0.72573467  0.44339297  0.25828270  1
  F  F8  1  0.22651237  0.05777176  0.74246389  1
  F  F9  1  0.05698917  0.77473056  0.74126965  1
  F  F10  1  0.49968515  0.99968515  0.77809770  1
  F  F11  1  0.99831971  0.49831971  0.77691795  1
  F  F12  1  0.99831971  0.49831971  0.22308205  1
  F  F13  1  0.49968515  0.99968515  0.22190230  1
  F  F14  1  0.22651237  0.05777176  0.25753611  1
  F  F15  1  0.05698917  0.77473056  0.25873035  1
  F  F16  1  0.94339297  0.22573467  0.25828270  1
  F  F17  1  0.77333396  0.94359508  0.25842686  1
  F  F18  1  0.27473056  0.55698917  0.74126965  1
  F  F19  1  0.72573467  0.44339297  0.74171730  1
  F  F20  1  0.55777176  0.72651237  0.74246389  1
  F  F21  1  0.44359508  0.27333396  0.74157314  1
  F  F22  1  0.77333396  0.94359508  0.74157314  1
  F  F23  1  0.94339297  0.22573467  0.74171730  1
loop_
_geom_bond_atom_site_label_1
_geom_bond_atom_site_label_2
_geom_bond_distance
_geom_bond_site_symmetry_2
Ba0 F6 2.662196 1_555
Ba0 F18 2.662196 1_554
Ba0 F7 2.664416 1_555
Ba0 F19 2.664416 1_554
Ba0 F21 2.673867 1_554
Ba0 F5 2.673867 1_555
Ba0 F4 2.675020 1_555
Ba0 F20 2.675020 1_554
Ba1 F15 2.662196 1_655
Ba1 F9 2.662196 1_654
Ba1 F16 2.664416 1_565
Ba1 F23 2.664416 1_564
Ba1 F17 2.673867 1_555
Ba1 F22 2.673867 1_554
Ba1 F14 2.675020 1_665
Ba1 F8 2.675020 1_664
Ba2 F8 2.799385 1_565
Ba2 F20 2.799385 1_555
Ba2 F14 2.799385 1_565
Ba2 F4 2.799385 1_555
Ba2 F0 2.859464 1_555
Ba2 F0 2.859464 1_556
Ba2 F10 2.895177 1_555
Ba2 F13 2.895177 1_555
Ba2 F9 2.906570 1_555
Ba2 F18 2.906570 1_555
Ba2 F15 2.906570 1_555
Ba2 F6 2.906570 1_555
Ba3 F9 2.797938 1_655
Ba3 F15 2.797938 1_655
Ba3 F19 2.800328 1_555
Ba3 F7 2.800328 1_555
Ba3 F1 2.852904 1_555
Ba3 F1 2.852904 1_556
Ba3 F11 2.888177 1_555
Ba3 F12 2.888177 1_555
Ba3 F20 2.902211 1_555
Ba3 F4 2.902211 1_555
Ba3 F17 2.907905 1_555
Ba3 F22 2.907905 1_555
Ba4 F18 2.797938 1_555
Ba4 F6 2.797938 1_555
Ba4 F23 2.800328 1_455
Ba4 F16 2.800328 1_455
Ba4 F2 2.852904 1_556
Ba4 F2 2.852904 1_555
Ba4 F11 2.888177 1_455
Ba4 F12 2.888177 1_455
Ba4 F8 2.902211 1_555
Ba4 F14 2.902211 1_555
Ba4 F5 2.907905 1_555
Ba4 F21 2.907905 1_555
Ba5 F22 2.787147 1_545
Ba5 F17 2.787147 1_545
Ba5 F5 2.787147 1_555
Ba5 F21 2.787147 1_555
Ba5 F3 2.854324 1_556
Ba5 F3 2.854324 1_555
Ba5 F10 2.905513 1_545
Ba5 F13 2.905513 1_545
Ba5 F23 2.908915 1_555
Ba5 F19 2.908915 1_555
Ba5 F16 2.908915 1_555
Ba5 F7 2.908915 1_555
F0 Lu0 2.176075 1_555
F1 In0 2.187757 1_555
F2 In1 2.187757 1_555
F3 In2 2.173488 1_555
F4 In0 2.115946 1_555
F5 In1 2.115885 1_555
F6 Lu0 2.129118 1_555
F7 In2 2.117766 1_555
F8 In1 2.115946 1_556
F9 Lu0 2.129118 1_556
F10 In0 2.195991 1_556
F10 In1 2.195991 1_566
F11 In2 2.196126 1_556
F11 Lu0 2.202421 1_656
F12 In2 2.196126 1_555
F12 Lu0 2.202421 1_655
F13 In0 2.195991 1_555
F13 In1 2.195991 1_565
F14 In1 2.115946 1_555
F15 Lu0 2.129118 1_555
F16 In2 2.117766 1_555
F17 In0 2.115885 1_555
F18 Lu0 2.129118 1_556
F19 In2 2.117766 1_556
F20 In0 2.115946 1_556
F21 In1 2.115885 1_556
F22 In0 2.115885 1_556
F23 In2 2.117766 1_556
