# generated using pymatgen
data_CaTa6Cl18
_symmetry_space_group_name_H-M   'P 1'
_cell_length_a   10.11637171
_cell_length_b   10.11637211
_cell_length_c   10.11637176
_cell_angle_alpha   55.40270378
_cell_angle_beta   55.40269460
_cell_angle_gamma   55.40269513
_symmetry_Int_Tables_number   1
_chemical_formula_structural   CaTa6Cl18
_chemical_formula_sum   'Ca1 Ta6 Cl18'
_cell_volume   653.90563051
_cell_formula_units_Z   1
loop_
 _symmetry_equiv_pos_site_id
 _symmetry_equiv_pos_as_xyz
  1  'x, y, z'
loop_
 _atom_site_type_symbol
 _atom_site_label
 _atom_site_symmetry_multiplicity
 _atom_site_fract_x
 _atom_site_fract_y
 _atom_site_fract_z
 _atom_site_occupancy
  Ca  Ca0  1  0.00000000  0.00000000  0.00000000  1
  Ta  Ta0  1  0.41218478  0.29431279  0.65143659  1
  Ta  Ta1  1  0.34856341  0.58781522  0.70568721  1
  Ta  Ta2  1  0.70568721  0.34856341  0.58781522  1
  Ta  Ta3  1  0.29431279  0.65143659  0.41218478  1
  Ta  Ta4  1  0.65143659  0.41218478  0.29431279  1
  Ta  Ta5  1  0.58781522  0.70568721  0.34856341  1
  Cl  Cl0  1  0.57423645  0.16234288  0.43756061  1
  Cl  Cl1  1  0.22580345  0.36329256  0.91143188  1
  Cl  Cl2  1  0.91143188  0.22580345  0.36329256  1
  Cl  Cl3  1  0.36329256  0.91143188  0.22580345  1
  Cl  Cl4  1  0.77419655  0.63670744  0.08856812  1
  Cl  Cl5  1  0.08856812  0.77419655  0.63670744  1
  Cl  Cl6  1  0.68854283  0.95979564  0.16519864  1
  Cl  Cl7  1  0.95979564  0.16519864  0.68854283  1
  Cl  Cl8  1  0.16519864  0.68854283  0.95979564  1
  Cl  Cl9  1  0.31145717  0.04020436  0.83480136  1
  Cl  Cl10  1  0.04020436  0.83480136  0.31145717  1
  Cl  Cl11  1  0.83480136  0.31145717  0.04020436  1
  Cl  Cl12  1  0.56243939  0.42576355  0.83765712  1
  Cl  Cl13  1  0.16234288  0.43756061  0.57423645  1
  Cl  Cl14  1  0.43756061  0.57423645  0.16234288  1
  Cl  Cl15  1  0.42576355  0.83765712  0.56243939  1
  Cl  Cl16  1  0.83765712  0.56243939  0.42576355  1
  Cl  Cl17  1  0.63670744  0.08856812  0.77419655  1
loop_
_geom_bond_atom_site_label_1
_geom_bond_atom_site_label_2
_geom_bond_distance
_geom_bond_site_symmetry_2
Ca0 Cl9 2.754932 1_554
Ca0 Cl6 2.754932 1_445
Ca0 Cl11 2.754932 1_455
Ca0 Cl8 2.754932 1_544
Ca0 Cl10 2.754933 1_545
Ca0 Cl7 2.754933 1_454
Cl0 Ta4 2.427995 1_555
Cl0 Ta0 2.432717 1_555
Cl1 Ta0 2.432783 1_555
Cl1 Ta1 2.435722 1_555
Cl2 Ta4 2.432783 1_555
Cl2 Ta2 2.435722 1_555
Cl3 Ta3 2.432784 1_555
Cl3 Ta5 2.435722 1_555
Cl4 Ta5 2.432783 1_555
Cl4 Ta4 2.435722 1_555
Cl5 Ta1 2.432783 1_555
Cl5 Ta3 2.435722 1_555
Cl6 Ta5 2.549622 1_555
Cl7 Ta2 2.549622 1_555
Cl8 Ta1 2.549621 1_555
Cl9 Ta0 2.549622 1_555
Cl10 Ta3 2.549622 1_555
Cl11 Ta4 2.549621 1_555
Cl12 Ta2 2.427994 1_555
Cl12 Ta1 2.432717 1_555
Cl13 Ta0 2.427995 1_555
Cl13 Ta3 2.432717 1_555
Cl14 Ta3 2.427994 1_555
Cl14 Ta4 2.432717 1_555
Cl15 Ta1 2.427995 1_555
Cl15 Ta5 2.432717 1_555
Cl16 Ta5 2.427995 1_555
Cl16 Ta2 2.432717 1_555
Cl17 Ta2 2.432784 1_555
Cl17 Ta0 2.435722 1_555
