# generated using pymatgen
data_Zr4SnHgC2
_symmetry_space_group_name_H-M   'P 1'
_cell_length_a   3.36287027
_cell_length_b   3.36287078
_cell_length_c   14.77771948
_cell_angle_alpha   90.00000000
_cell_angle_beta   90.00000000
_cell_angle_gamma   119.99999501
_symmetry_Int_Tables_number   1
_chemical_formula_structural   Zr4SnHgC2
_chemical_formula_sum   'Zr4 Sn1 Hg1 C2'
_cell_volume   144.72993447
_cell_formula_units_Z   1
loop_
 _symmetry_equiv_pos_site_id
 _symmetry_equiv_pos_as_xyz
  1  'x, y, z'
loop_
 _atom_site_type_symbol
 _atom_site_label
 _atom_site_symmetry_multiplicity
 _atom_site_fract_x
 _atom_site_fract_y
 _atom_site_fract_z
 _atom_site_occupancy
  Zr  Zr0  1  0.33333300  0.66666700  0.08570038  1
  Zr  Zr1  1  0.33333300  0.66666700  0.41429962  1
  Zr  Zr2  1  0.66666700  0.33333300  0.58297394  1
  Zr  Zr3  1  0.66666700  0.33333300  0.91702606  1
  Sn  Sn0  1  0.66666700  0.33333300  0.25000000  1
  Hg  Hg0  1  0.33333300  0.66666700  0.75000000  1
  C  C0  1  0.00000000  0.00000000  0.00063588  1
  C  C1  1  0.00000000  0.00000000  0.49936412  1
loop_
_geom_bond_atom_site_label_1
_geom_bond_atom_site_label_2
_geom_bond_distance
_geom_bond_site_symmetry_2
Sn0 Zr1 3.108807 1_655
Sn0 Zr0 3.108807 1_655
Sn0 Zr1 3.108807 1_545
Sn0 Zr0 3.108807 1_545
Sn0 Zr1 3.108811 1_555
Sn0 Zr0 3.108811 1_555
Hg0 Zr3 3.140375 1_455
Hg0 Zr2 3.140375 1_455
Hg0 Zr3 3.140375 1_565
Hg0 Zr2 3.140375 1_565
Hg0 Zr3 3.140378 1_555
Hg0 Zr2 3.140378 1_555
C0 Zr3 2.301356 1_454
C0 Zr3 2.301358 1_554
C0 Zr3 2.301359 1_444
C0 Zr0 2.312968 1_545
C0 Zr0 2.312971 1_445
C0 Zr0 2.312971 1_555
C1 Zr2 2.301356 1_455
C1 Zr2 2.301358 1_555
C1 Zr2 2.301359 1_445
C1 Zr1 2.312968 1_545
C1 Zr1 2.312971 1_445
C1 Zr1 2.312971 1_555
