# generated using pymatgen
data_Lu(NbS2)5
_symmetry_space_group_name_H-M   'P 1'
_cell_length_a   5.86514355
_cell_length_b   7.62876665
_cell_length_c   8.37551597
_cell_angle_alpha   112.34230316
_cell_angle_beta   96.86789655
_cell_angle_gamma   104.68169298
_symmetry_Int_Tables_number   1
_chemical_formula_structural   Lu(NbS2)5
_chemical_formula_sum   'Lu1 Nb5 S10'
_cell_volume   325.39140927
_cell_formula_units_Z   1
loop_
 _symmetry_equiv_pos_site_id
 _symmetry_equiv_pos_as_xyz
  1  'x, y, z'
loop_
 _atom_site_type_symbol
 _atom_site_label
 _atom_site_symmetry_multiplicity
 _atom_site_fract_x
 _atom_site_fract_y
 _atom_site_fract_z
 _atom_site_occupancy
  Lu  Lu0  1  0.66832862  0.50758057  0.99363894  1
  Nb  Nb0  1  0.00433702  0.99931138  0.00086238  1
  Nb  Nb1  1  0.59814415  0.20104931  0.20354378  1
  Nb  Nb2  1  0.19830735  0.39931670  0.39882364  1
  Nb  Nb3  1  0.79752448  0.59990796  0.60055169  1
  Nb  Nb4  1  0.39869975  0.79746018  0.79877215  1
  S  S0  1  0.23547799  0.05945622  0.29435916  1
  S  S1  1  0.04266959  0.65432440  0.89598293  1
  S  S2  1  0.83614783  0.25922064  0.49314509  1
  S  S3  1  0.63625118  0.86223227  0.10096188  1
  S  S4  1  0.42770296  0.44739423  0.68897310  1
  S  S5  1  0.89894918  0.54667892  0.30675705  1
  S  S6  1  0.69877574  0.13989429  0.90504801  1
  S  S7  1  0.49673388  0.74077245  0.50830834  1
  S  S8  1  0.29689497  0.34423344  0.10412334  1
  S  S9  1  0.09785631  0.93876506  0.70774852  1
loop_
_geom_bond_atom_site_label_1
_geom_bond_atom_site_label_2
_geom_bond_distance
_geom_bond_site_symmetry_2
Lu0 S3 2.571556 1_556
Lu0 S1 2.573412 1_655
Lu0 S4 2.575544 1_555
Lu0 S8 2.671668 1_556
Lu0 S5 2.673687 1_556
Lu0 S6 2.674634 1_555
Nb0 S0 2.474115 1_565
Nb0 S9 2.475780 1_554
Nb0 S8 2.498475 1_565
Nb0 S6 2.508126 1_464
Nb0 S1 2.517576 1_554
Nb0 S3 2.532245 1_455
Nb1 S2 2.467131 1_555
Nb1 S0 2.473212 1_555
Nb1 S3 2.473756 1_545
Nb1 S8 2.515220 1_555
Nb1 S5 2.521216 1_555
Nb1 S6 2.534169 1_554
Nb2 S4 2.478026 1_555
Nb2 S0 2.478446 1_555
Nb2 S2 2.484088 1_455
Nb2 S7 2.485733 1_555
Nb2 S5 2.505387 1_455
Nb2 S8 2.505836 1_555
Nb3 S7 2.475937 1_555
Nb3 S9 2.478003 1_655
Nb3 S2 2.486988 1_555
Nb3 S5 2.507303 1_555
Nb3 S4 2.523290 1_555
Nb3 S1 2.535323 1_655
Nb4 S7 2.469166 1_555
Nb4 S9 2.474659 1_555
Nb4 S1 2.478393 1_555
Nb4 S6 2.498226 1_565
Nb4 S4 2.531225 1_555
Nb4 S3 2.539316 1_556
