# generated using pymatgen
data_Nb3Tc(PN3)4
_symmetry_space_group_name_H-M   'P 1'
_cell_length_a   6.55286994
_cell_length_b   6.55286899
_cell_length_c   4.95210656
_cell_angle_alpha   81.85964430
_cell_angle_beta   81.85965350
_cell_angle_gamma   83.46047484
_symmetry_Int_Tables_number   1
_chemical_formula_structural   Nb3Tc(PN3)4
_chemical_formula_sum   'Nb3 Tc1 P4 N12'
_cell_volume   207.42281556
_cell_formula_units_Z   1
loop_
 _symmetry_equiv_pos_site_id
 _symmetry_equiv_pos_as_xyz
  1  'x, y, z'
loop_
 _atom_site_type_symbol
 _atom_site_label
 _atom_site_symmetry_multiplicity
 _atom_site_fract_x
 _atom_site_fract_y
 _atom_site_fract_z
 _atom_site_occupancy
  Nb  Nb0  1  0.74988251  0.25011749  0.75000000  1
  Nb  Nb1  1  0.92166104  0.07833896  0.25000000  1
  Nb  Nb2  1  0.26768040  0.73231960  0.25000000  1
  Tc  Tc0  1  0.07093732  0.92906268  0.75000000  1
  P  P0  1  0.22752519  0.39888110  0.79706283  1
  P  P1  1  0.39388494  0.22452587  0.30027609  1
  P  P2  1  0.77547413  0.60611506  0.19972391  1
  P  P3  1  0.60111890  0.77247481  0.70293717  1
  N  N0  1  0.29441277  0.42608502  0.10044934  1
  N  N1  1  0.04655123  0.23448693  0.86093354  1
  N  N2  1  0.95791982  0.77233581  0.14450507  1
  N  N3  1  0.42234257  0.29180759  0.59831077  1
  N  N4  1  0.61135648  0.15190101  0.13124005  1
  N  N5  1  0.38224280  0.84637573  0.86319721  1
  N  N6  1  0.84809899  0.38864352  0.36875995  1
  N  N7  1  0.70819241  0.57765743  0.90168923  1
  N  N8  1  0.76551307  0.95344877  0.63906646  1
  N  N9  1  0.15362427  0.61775720  0.63680279  1
  N  N10  1  0.22766419  0.04208018  0.35549493  1
  N  N11  1  0.57391498  0.70558723  0.39955066  1
loop_
_geom_bond_atom_site_label_1
_geom_bond_atom_site_label_2
_geom_bond_distance
_geom_bond_site_symmetry_2
N0 P0 1.661696 1_554
N0 P1 1.662839 1_555
N0 Nb2 2.215882 1_555
N1 P0 1.659862 1_555
N1 Nb0 2.081513 1_455
N1 Tc0 2.132278 1_545
N1 Nb1 2.148207 1_456
N2 P2 1.676361 1_555
N2 Nb1 2.122073 1_565
N2 Nb2 2.145258 1_655
N2 Tc0 2.148301 1_654
N3 P1 1.639629 1_555
N3 P0 1.651205 1_555
N3 Nb0 2.347454 1_555
N4 P1 1.605775 1_555
N4 Nb0 2.026370 1_554
N4 Nb1 2.178994 1_555
N5 P3 1.596794 1_555
N5 Nb2 2.026426 1_556
N5 Tc0 2.180654 1_555
N6 P2 1.605774 1_555
N6 Nb0 2.026370 1_555
N6 Nb1 2.178993 1_555
N7 P2 1.639629 1_556
N7 P3 1.651205 1_555
N7 Nb0 2.347454 1_555
N8 P3 1.659862 1_555
N8 Nb0 2.081512 1_565
N8 Tc0 2.132278 1_655
N8 Nb1 2.148207 1_565
N9 P0 1.596794 1_555
N9 Nb2 2.026426 1_555
N9 Tc0 2.180654 1_555
N10 P1 1.676361 1_555
N10 Nb1 2.122073 1_455
N10 Nb2 2.145258 1_545
N10 Tc0 2.148301 1_545
N11 P3 1.661696 1_555
N11 P2 1.662839 1_555
N11 Nb2 2.215882 1_555
