# generated using pymatgen
data_Ba2InSnAu2
_symmetry_space_group_name_H-M   'P 1'
_cell_length_a   6.53069579
_cell_length_b   6.50349316
_cell_length_c   6.50349375
_cell_angle_alpha   135.41937168
_cell_angle_beta   99.27004078
_cell_angle_gamma   97.20676359
_symmetry_Int_Tables_number   1
_chemical_formula_structural   Ba2InSnAu2
_chemical_formula_sum   'Ba2 In1 Sn1 Au2'
_cell_volume   179.47963350
_cell_formula_units_Z   1
loop_
 _symmetry_equiv_pos_site_id
 _symmetry_equiv_pos_as_xyz
  1  'x, y, z'
loop_
 _atom_site_type_symbol
 _atom_site_label
 _atom_site_symmetry_multiplicity
 _atom_site_fract_x
 _atom_site_fract_y
 _atom_site_fract_z
 _atom_site_occupancy
  Ba  Ba0  1  0.69785475  0.69862974  0.99922501  1
  Ba  Ba1  1  0.11538389  0.61551699  0.49986590  1
  In  In0  1  0.29867410  0.98627058  0.31240351  1
  Sn  Sn0  1  0.67316588  0.98404223  0.68912364  1
  Au  Au0  1  0.53961064  0.31529436  0.22431727  1
  Au  Au1  1  0.09073075  0.31566609  0.77506566  1
loop_
_geom_bond_atom_site_label_1
_geom_bond_atom_site_label_2
_geom_bond_distance
_geom_bond_site_symmetry_2
Ba0 In0 3.456946 1_545
Ba0 In0 3.456946 1_556
Ba0 Sn0 3.470840 1_545
Ba0 Sn0 3.470840 1_556
Ba0 Sn0 3.583517 1_555
Ba0 In0 3.633149 1_656
Ba1 In0 3.559022 1_555
Ba1 Sn0 3.562467 1_555
Ba1 In0 3.775992 1_545
Ba1 In0 3.775995 1_556
Ba1 Sn0 3.778782 1_444
Ba1 Sn0 3.778785 1_455
In0 Sn0 3.180113 1_555
Au0 Sn0 2.878275 1_555
Au0 Sn0 2.878279 1_544
Au0 In0 2.928250 1_545
Au0 Ba1 3.487892 1_655
Au0 Ba0 3.529719 1_555
Au0 Ba0 3.529722 1_544
Au0 Ba1 3.559732 1_555
Au0 Ba1 3.559739 1_544
Au0 Ba0 3.803406 1_554
Au1 In0 2.889825 1_556
Au1 In0 2.889829 1_545
Au1 Sn0 2.952358 1_445
Au1 Ba1 3.466680 1_555
Au1 Ba0 3.542256 1_455
Au1 Ba0 3.542259 1_444
Au1 Ba1 3.553909 1_556
Au1 Ba1 3.553915 1_545
Au1 Ba0 3.812737 1_555
