# generated using pymatgen
data_Sr3Bi(Ir2O7)2
_symmetry_space_group_name_H-M   'P 1'
_cell_length_a   7.32072287
_cell_length_b   7.32072217
_cell_length_c   7.37422042
_cell_angle_alpha   60.23968668
_cell_angle_beta   60.23968759
_cell_angle_gamma   59.99999184
_symmetry_Int_Tables_number   1
_chemical_formula_structural   Sr3Bi(Ir2O7)2
_chemical_formula_sum   'Sr3 Bi1 Ir4 O14'
_cell_volume   280.46127926
_cell_formula_units_Z   1
loop_
 _symmetry_equiv_pos_site_id
 _symmetry_equiv_pos_as_xyz
  1  'x, y, z'
loop_
 _atom_site_type_symbol
 _atom_site_label
 _atom_site_symmetry_multiplicity
 _atom_site_fract_x
 _atom_site_fract_y
 _atom_site_fract_z
 _atom_site_occupancy
  Sr  Sr0  1  0.62500000  0.12500000  0.12500000  1
  Sr  Sr1  1  0.12500000  0.62500000  0.12500000  1
  Sr  Sr2  1  0.12500000  0.12500000  0.12500000  1
  Bi  Bi0  1  0.12500000  0.12500000  0.62500000  1
  Ir  Ir0  1  0.12500000  0.62500000  0.62500000  1
  Ir  Ir1  1  0.62500000  0.12500000  0.62500000  1
  Ir  Ir2  1  0.62500000  0.62500000  0.12500000  1
  Ir  Ir3  1  0.62500000  0.62500000  0.62500000  1
  O  O0  1  0.69756236  0.69756236  0.30454457  1
  O  O1  1  0.29943051  0.29943051  0.68407431  1
  O  O2  1  0.71706468  0.29943051  0.68407431  1
  O  O3  1  0.30033170  0.69756236  0.30454457  1
  O  O4  1  0.29943051  0.71706468  0.68407431  1
  O  O5  1  0.69756236  0.30033170  0.30454457  1
  O  O6  1  0.55243764  0.55243764  0.94545543  1
  O  O7  1  0.95056949  0.95056949  0.56592569  1
  O  O8  1  0.53293532  0.95056949  0.56592569  1
  O  O9  1  0.94966830  0.55243764  0.94545543  1
  O  O10  1  0.95056949  0.53293532  0.56592569  1
  O  O11  1  0.55243764  0.94966830  0.94545543  1
  O  O12  1  0.23913619  0.23913619  0.28259243  1
  O  O13  1  0.01086381  0.01086381  0.96740757  1
loop_
_geom_bond_atom_site_label_1
_geom_bond_atom_site_label_2
_geom_bond_distance
_geom_bond_site_symmetry_2
Bi0 O13 2.069082 1_555
Bi0 O12 2.069082 1_555
Bi0 O10 2.487190 1_455
Bi0 O4 2.487190 1_545
Bi0 O8 2.487190 1_545
Bi0 O2 2.487190 1_455
Bi0 O1 2.487190 1_555
Bi0 O7 2.487190 1_445
Ir0 O9 1.984551 1_455
Ir0 O3 1.984551 1_555
Ir0 O7 1.994742 1_455
Ir0 O1 1.994742 1_555
Ir0 O4 1.994743 1_555
Ir0 O10 1.994743 1_455
Ir1 O11 1.984551 1_545
Ir1 O5 1.984551 1_555
Ir1 O7 1.994743 1_545
Ir1 O1 1.994743 1_555
Ir1 O2 1.994743 1_555
Ir1 O8 1.994743 1_545
Ir2 O11 1.998986 1_554
Ir2 O5 1.998986 1_555
Ir2 O9 1.998986 1_554
Ir2 O3 1.998986 1_555
Ir2 O0 1.998991 1_555
Ir2 O6 1.998991 1_554
Ir3 O6 1.984550 1_555
Ir3 O0 1.984550 1_555
Ir3 O8 1.994743 1_555
Ir3 O2 1.994743 1_555
Ir3 O10 1.994743 1_555
Ir3 O4 1.994743 1_555
O0 Sr0 2.598037 1_565
O0 Sr1 2.598037 1_655
O1 Sr2 2.687049 1_556
O2 Sr0 2.687049 1_556
O3 Sr2 2.598038 1_565
O3 Sr1 2.598043 1_555
O4 Sr1 2.687049 1_556
O5 Sr2 2.598038 1_655
O5 Sr0 2.598043 1_555
O6 Sr0 2.598037 1_556
O6 Sr1 2.598037 1_556
O7 Sr2 2.687049 1_665
O8 Sr0 2.687049 1_565
O9 Sr2 2.598038 1_656
O9 Sr1 2.598043 1_656
O10 Sr1 2.687049 1_655
O11 Sr2 2.598038 1_566
O11 Sr0 2.598043 1_566
O12 Sr1 2.317958 1_555
O12 Sr0 2.317958 1_555
O12 Sr2 2.317964 1_555
O13 Sr1 2.317958 1_546
O13 Sr0 2.317958 1_456
O13 Sr2 2.317964 1_556
