# generated using pymatgen
data_Ta8V2GaSi5
_symmetry_space_group_name_H-M   'P 1'
_cell_length_a   7.49695110
_cell_length_b   7.49695076
_cell_length_c   7.49695111
_cell_angle_alpha   129.32519886
_cell_angle_beta   129.32519629
_cell_angle_gamma   74.48787669
_symmetry_Int_Tables_number   1
_chemical_formula_structural   Ta8V2GaSi5
_chemical_formula_sum   'Ta8 V2 Ga1 Si5'
_cell_volume   245.72252530
_cell_formula_units_Z   1
loop_
 _symmetry_equiv_pos_site_id
 _symmetry_equiv_pos_as_xyz
  1  'x, y, z'
loop_
 _atom_site_type_symbol
 _atom_site_label
 _atom_site_symmetry_multiplicity
 _atom_site_fract_x
 _atom_site_fract_y
 _atom_site_fract_z
 _atom_site_occupancy
  Ta  Ta0  1  0.01889596  0.51303463  0.82982725  1
  Ta  Ta1  1  0.68320738  0.18906970  0.17017275  1
  Ta  Ta2  1  0.51303463  0.68320738  0.49413768  1
  Ta  Ta3  1  0.18906970  0.01889596  0.50586232  1
  Ta  Ta4  1  0.98696537  0.48110404  0.17017275  1
  Ta  Ta5  1  0.31093030  0.81679262  0.82982725  1
  Ta  Ta6  1  0.48110404  0.31093030  0.49413768  1
  Ta  Ta7  1  0.81679262  0.98696537  0.50586232  1
  V  V0  1  0.00193497  0.00193497  0.00000000  1
  V  V1  1  0.49806503  0.49806503  1.00000000  1
  Ga  Ga0  1  0.75000000  0.75000000  0.00000000  1
  Si  Si0  1  0.25000000  0.25000000  0.00000000  1
  Si  Si1  1  0.63292323  0.13292323  0.76584646  1
  Si  Si2  1  0.36707677  0.86707677  0.23415354  1
  Si  Si3  1  0.13292323  0.36707677  0.50000000  1
  Si  Si4  1  0.86707677  0.63292323  0.50000000  1
loop_
_geom_bond_atom_site_label_1
_geom_bond_atom_site_label_2
_geom_bond_distance
_geom_bond_site_symmetry_2
Ga0 Ta4 2.705361 1_555
Ga0 Ta0 2.705361 1_654
Ga0 Ta6 2.705366 1_554
Ga0 Ta3 2.705366 1_665
Ga0 Ta1 2.705367 1_565
Ga0 Ta7 2.705367 1_555
Ga0 Ta5 2.705367 1_554
Ga0 Ta2 2.705367 1_554
Ga0 V0 3.007130 1_665
Ga0 V1 3.007130 1_554
Si0 Ta3 2.660383 1_554
Si0 Ta6 2.660383 1_555
Si0 Ta5 2.660384 1_544
Si0 Ta2 2.660384 1_555
Si0 Ta7 2.660384 1_444
Si0 Ta1 2.660384 1_555
Si0 Ta0 2.660385 1_554
Si0 Ta4 2.660385 1_455
Si0 V1 2.960938 1_554
Si0 V0 2.960938 1_555
Si1 Si2 2.412412 1_545
Si1 V1 2.505165 1_555
Si1 V0 2.505165 1_656
Si1 Ta1 2.554793 1_556
Si1 Ta4 2.554797 1_556
Si1 Ta7 2.606105 1_545
Si1 Ta3 2.606106 1_555
Si1 Ta2 2.630611 1_545
Si1 Ta6 2.630613 1_555
Si2 V1 2.505165 1_554
Si2 V0 2.505165 1_565
Si2 Ta5 2.554793 1_554
Si2 Ta0 2.554797 1_554
Si2 Ta2 2.606105 1_555
Si2 Ta6 2.606106 1_565
Si2 Ta7 2.630611 1_555
Si2 Ta3 2.630613 1_565
Si3 Si4 2.412412 1_455
Si3 V0 2.505165 1_555
Si3 V1 2.505166 1_555
Si3 Ta3 2.554800 1_555
Si3 Ta6 2.554800 1_555
Si3 Ta0 2.606111 1_555
Si3 Ta4 2.606111 1_455
Si3 Ta5 2.630611 1_555
Si3 Ta1 2.630611 1_455
Si4 V0 2.505165 1_666
Si4 V1 2.505166 1_554
Si4 Ta7 2.554792 1_555
Si4 Ta2 2.554793 1_555
Si4 Ta1 2.606105 1_555
Si4 Ta5 2.606105 1_655
Si4 Ta4 2.630613 1_555
Si4 Ta0 2.630613 1_655
