# generated using pymatgen
data_Y3Be2(BRh2)4
_symmetry_space_group_name_H-M   'P 1'
_cell_length_a   10.05961004
_cell_length_b   9.28331348
_cell_length_c   5.49978921
_cell_angle_alpha   81.42133389
_cell_angle_beta   65.85395119
_cell_angle_gamma   32.72623765
_symmetry_Int_Tables_number   1
_chemical_formula_structural   Y3Be2(BRh2)4
_chemical_formula_sum   'Y3 Be2 B4 Rh8'
_cell_volume   232.74793656
_cell_formula_units_Z   1
loop_
 _symmetry_equiv_pos_site_id
 _symmetry_equiv_pos_as_xyz
  1  'x, y, z'
loop_
 _atom_site_type_symbol
 _atom_site_label
 _atom_site_symmetry_multiplicity
 _atom_site_fract_x
 _atom_site_fract_y
 _atom_site_fract_z
 _atom_site_occupancy
  Y  Y0  1  0.31821159  0.31821159  0.68178841  1
  Y  Y1  1  0.67521192  0.67521192  0.32478808  1
  Y  Y2  1  0.49842044  0.49842044  0.50157956  1
  Be  Be0  1  0.68489728  0.96780526  0.03159864  1
  Be  Be1  1  0.96780526  0.68489728  0.31569881  1
  B  B0  1  0.33063677  0.01359023  0.98640620  1
  B  B1  1  0.01359023  0.33063677  0.66936679  1
  B  B2  1  0.17212347  0.82777148  0.17220653  1
  B  B3  1  0.82777148  0.17212347  0.82789852  1
  Rh  Rh0  1  0.58486231  0.58486231  0.91513769  1
  Rh  Rh1  1  0.92656006  0.92656006  0.07343994  1
  Rh  Rh2  1  0.41761305  0.41761305  0.08238695  1
  Rh  Rh3  1  0.08486136  0.08486136  0.41513864  1
  Rh  Rh4  1  0.91762811  0.91762811  0.58237189  1
  Rh  Rh5  1  0.24534853  0.24534853  0.25465147  1
  Rh  Rh6  1  0.08913564  0.08913564  0.91086436  1
  Rh  Rh7  1  0.74532448  0.74532448  0.75467552  1
loop_
_geom_bond_atom_site_label_1
_geom_bond_atom_site_label_2
_geom_bond_distance
_geom_bond_site_symmetry_2
Y0 Y2 3.194596 1_555
Y1 Y2 3.134016 1_555
Be0 Rh1 2.230413 1_555
Be0 Rh7 2.241303 1_554
Be0 Rh5 2.243119 1_565
Be0 Rh4 2.361874 1_554
Be0 Rh2 2.363674 1_565
Be0 Y1 2.999599 1_555
Be0 Y0 3.073725 1_654
Be0 Y0 3.076554 1_565
Be1 Rh1 2.230413 1_555
Be1 Rh7 2.241303 1_555
Be1 Rh5 2.243119 1_655
Be1 Rh4 2.361874 1_555
Be1 Rh2 2.363674 1_655
Be1 Y1 2.999599 1_555
Be1 Y0 3.073725 1_565
Be1 Y0 3.076554 1_654
B0 Rh7 2.084748 1_545
B0 Rh5 2.084968 1_556
B0 Rh6 2.106814 1_555
B0 Rh3 2.248115 1_556
B0 Rh0 2.248147 1_545
B0 Y0 2.997091 1_555
B0 Y1 3.145481 1_545
B0 Y1 3.145634 1_456
B0 Y1 3.249534 1_546
B1 Rh7 2.084748 1_455
B1 Rh5 2.084968 1_555
B1 Rh6 2.106814 1_555
B1 Rh3 2.248116 1_555
B1 Rh0 2.248147 1_455
B1 Y0 2.997091 1_555
B1 Y1 3.145481 1_456
B1 Y1 3.145634 1_545
B1 Y1 3.249534 1_455
B2 Rh1 2.091853 1_455
B2 Rh4 2.140606 1_455
B2 Rh2 2.140759 1_555
B2 Rh0 2.172204 1_554
B2 Rh3 2.172222 1_565
B2 Rh6 2.276644 1_564
B2 Y2 3.119373 1_555
B2 Y2 3.209345 1_554
B2 Y2 3.209594 1_465
B3 Rh1 2.091853 1_546
B3 Rh4 2.140606 1_545
B3 Rh2 2.140759 1_556
B3 Rh0 2.172205 1_555
B3 Rh3 2.172222 1_655
B3 Rh6 2.276644 1_655
B3 Y2 3.119373 1_555
B3 Y2 3.209345 1_556
B3 Y2 3.209594 1_645
Rh0 Y2 3.148028 1_556
Rh0 Y2 3.148028 1_555
Rh0 Y1 3.182324 1_555
Rh0 Y1 3.182324 1_556
Rh1 Y2 3.039633 1_654
Rh1 Y2 3.039633 1_565
Rh2 Y2 3.100636 1_554
Rh2 Y2 3.100636 1_555
Rh2 Y0 3.266029 1_555
Rh2 Y0 3.266029 1_554
Rh3 Y2 3.148127 1_455
Rh3 Y2 3.148127 1_545
Rh3 Y1 3.182438 1_545
Rh3 Y1 3.182438 1_455
Rh4 Y2 3.100621 1_655
Rh4 Y2 3.100621 1_565
Rh4 Y0 3.266276 1_565
Rh4 Y0 3.266276 1_655
Rh5 Y1 3.018021 1_455
Rh5 Y1 3.018021 1_545
Rh5 Y0 3.038141 1_554
Rh5 Y0 3.038141 1_555
Rh6 Y1 3.153559 1_545
Rh6 Y1 3.153559 1_456
Rh6 Y2 3.194160 1_456
Rh6 Y2 3.194160 1_545
Rh7 Y1 3.017734 1_556
Rh7 Y1 3.017734 1_555
Rh7 Y0 3.038433 1_655
Rh7 Y0 3.038433 1_565
