# generated using pymatgen
data_Zr5ZnSnSb2
_symmetry_space_group_name_H-M   'P 1'
_cell_length_a   8.64392919
_cell_length_b   8.64392883
_cell_length_c   5.86687797
_cell_angle_alpha   90.00000000
_cell_angle_beta   90.00000000
_cell_angle_gamma   119.97211330
_symmetry_Int_Tables_number   1
_chemical_formula_structural   Zr5ZnSnSb2
_chemical_formula_sum   'Zr10 Zn2 Sn2 Sb4'
_cell_volume   379.73623476
_cell_formula_units_Z   2
loop_
 _symmetry_equiv_pos_site_id
 _symmetry_equiv_pos_as_xyz
  1  'x, y, z'
loop_
 _atom_site_type_symbol
 _atom_site_label
 _atom_site_symmetry_multiplicity
 _atom_site_fract_x
 _atom_site_fract_y
 _atom_site_fract_z
 _atom_site_occupancy
  Zr  Zr0  1  0.66647601  0.33406372  0.00078954  1
  Zr  Zr1  1  0.33406372  0.66647601  0.00078954  1
  Zr  Zr2  1  0.33406372  0.66647601  0.49921046  1
  Zr  Zr3  1  0.66647601  0.33406372  0.49921046  1
  Zr  Zr4  1  0.73409965  0.73409965  0.75000000  1
  Zr  Zr5  1  0.26478365  0.99942925  0.75000000  1
  Zr  Zr6  1  0.99942925  0.26478365  0.75000000  1
  Zr  Zr7  1  0.26900557  0.26900557  0.25000000  1
  Zr  Zr8  1  0.73179949  0.00001104  0.25000000  1
  Zr  Zr9  1  0.00001104  0.73179949  0.25000000  1
  Zn  Zn0  1  0.00085097  0.00085097  0.00471976  1
  Zn  Zn1  1  0.00085097  0.00085097  0.49528024  1
  Sn  Sn0  1  0.38395006  0.00009684  0.25000000  1
  Sn  Sn1  1  0.00009684  0.38395006  0.25000000  1
  Sb  Sb0  1  0.38526563  0.38526563  0.75000000  1
  Sb  Sb1  1  0.61255802  0.00055812  0.75000000  1
  Sb  Sb2  1  0.00055812  0.61255802  0.75000000  1
  Sb  Sb3  1  0.61566126  0.61566126  0.25000000  1
loop_
_geom_bond_atom_site_label_1
_geom_bond_atom_site_label_2
_geom_bond_distance
_geom_bond_site_symmetry_2
Zn0 Zr7 2.729110 1_555
Zn0 Zr9 2.731792 1_545
Zn0 Zr8 2.731793 1_455
Zn0 Zr6 2.732450 1_454
Zn0 Zr5 2.732450 1_544
Zn0 Zr4 2.748520 1_444
Zn1 Zr7 2.729110 1_555
Zn1 Zr9 2.731792 1_545
Zn1 Zr8 2.731793 1_455
Zn1 Zr6 2.732450 1_455
Zn1 Zr5 2.732450 1_545
Zn1 Zr4 2.748520 1_445
Sn0 Zr7 2.949185 1_555
Sn0 Zr9 2.949970 1_545
Sn0 Zr8 3.007156 1_555
Sn0 Zr3 3.064519 1_555
Sn0 Zr0 3.064519 1_555
Sn0 Zr2 3.065523 1_545
Sn0 Zr1 3.065523 1_545
Sn0 Zr5 3.108085 1_544
Sn0 Zr5 3.108085 1_545
Sn1 Zr7 2.949185 1_555
Sn1 Zr8 2.949970 1_455
Sn1 Zr9 3.007156 1_555
Sn1 Zr2 3.064519 1_555
Sn1 Zr1 3.064519 1_555
Sn1 Zr3 3.065523 1_455
Sn1 Zr0 3.065523 1_455
Sn1 Zr6 3.108085 1_455
Sn1 Zr6 3.108085 1_454
Sb0 Zr5 2.955901 1_545
Sb0 Zr6 2.955901 1_455
Sb0 Zr4 3.016567 1_555
Sb0 Zr1 3.056841 1_556
Sb0 Zr2 3.056841 1_555
Sb0 Zr0 3.056841 1_556
Sb0 Zr3 3.056841 1_555
Sb0 Zr7 3.100940 1_555
Sb0 Zr7 3.100940 1_556
Sb1 Zr6 2.961090 1_555
Sb1 Zr4 2.970935 1_545
Sb1 Zr5 3.001274 1_545
Sb1 Zr0 3.057807 1_556
Sb1 Zr3 3.057807 1_555
Sb1 Zr1 3.058321 1_546
Sb1 Zr2 3.058321 1_545
Sb1 Zr8 3.110037 1_555
Sb1 Zr8 3.110037 1_556
Sb2 Zr5 2.961090 1_555
Sb2 Zr4 2.970935 1_455
Sb2 Zr6 3.001274 1_455
Sb2 Zr1 3.057807 1_556
Sb2 Zr2 3.057807 1_555
Sb2 Zr0 3.058321 1_456
Sb2 Zr3 3.058321 1_455
Sb2 Zr9 3.110037 1_556
Sb2 Zr9 3.110037 1_555
Sb3 Zr8 2.951782 1_565
Sb3 Zr9 2.951782 1_655
Sb3 Zr7 2.997730 1_555
Sb3 Zr3 3.053485 1_555
Sb3 Zr0 3.053485 1_555
Sb3 Zr2 3.053485 1_555
Sb3 Zr1 3.053485 1_555
Sb3 Zr4 3.107098 1_554
Sb3 Zr4 3.107098 1_555
