# generated using pymatgen
data_Rb2CaNiF6
_symmetry_space_group_name_H-M   'P 1'
_cell_length_a   6.01206799
_cell_length_b   6.01206802
_cell_length_c   6.01206993
_cell_angle_alpha   59.99998949
_cell_angle_beta   59.99998929
_cell_angle_gamma   89.99995966
_symmetry_Int_Tables_number   1
_chemical_formula_structural   Rb2CaNiF6
_chemical_formula_sum   'Rb2 Ca1 Ni1 F6'
_cell_volume   153.65857749
_cell_formula_units_Z   1
loop_
 _symmetry_equiv_pos_site_id
 _symmetry_equiv_pos_as_xyz
  1  'x, y, z'
loop_
 _atom_site_type_symbol
 _atom_site_label
 _atom_site_symmetry_multiplicity
 _atom_site_fract_x
 _atom_site_fract_y
 _atom_site_fract_z
 _atom_site_occupancy
  Rb  Rb0  1  0.25000200  0.75000100  0.49999800  1
  Rb  Rb1  1  0.75000000  0.24999900  0.50000200  1
  Ca  Ca0  1  0.50000000  0.50000000  0.00000000  1
  Ni  Ni0  1  0.00000000  0.00000000  0.00000000  1
  F  F0  1  0.23694158  0.23694158  0.00000000  1
  F  F1  1  0.76305942  0.23694058  0.00000000  1
  F  F2  1  0.23693958  0.76305942  0.00000000  1
  F  F3  1  0.76305742  0.76305742  0.00000000  1
  F  F4  1  0.76305842  0.76305842  0.47388416  1
  F  F5  1  0.23694158  0.23694158  0.52611684  1
loop_
_geom_bond_atom_site_label_1
_geom_bond_atom_site_label_2
_geom_bond_distance
_geom_bond_site_symmetry_2
Ca0 F3 2.236607 1_555
Ca0 F4 2.236611 1_554
Ca0 F5 2.236615 1_555
Ca0 F0 2.236615 1_555
Ca0 F1 2.236622 1_555
Ca0 F2 2.236626 1_555
F0 Ni0 2.014561 1_555
F0 Rb1 3.008081 1_554
F0 Rb0 3.008081 1_545
F0 Rb1 3.008087 1_455
F0 Rb0 3.008087 1_554
F1 Ni0 2.014551 1_655
F1 Rb1 3.008076 1_554
F1 Rb0 3.008076 1_545
F1 Rb1 3.008094 1_555
F1 Rb0 3.008094 1_654
F2 Ni0 2.014546 1_565
F2 Rb0 3.008085 1_555
F2 Rb0 3.008085 1_554
F2 Rb1 3.008085 1_564
F2 Rb1 3.008085 1_455
F3 Ni0 2.014569 1_665
F3 Rb0 3.008074 1_555
F3 Rb1 3.008074 1_564
F3 Rb0 3.008092 1_654
F3 Rb1 3.008092 1_555
F4 Ni0 2.014565 1_665
F4 Rb0 3.008080 1_555
F4 Rb1 3.008081 1_565
F4 Rb0 3.008086 1_655
F4 Rb1 3.008087 1_555
F5 Ni0 2.014561 1_556
F5 Rb1 3.008077 1_455
F5 Rb0 3.008084 1_545
F5 Rb0 3.008084 1_555
F5 Rb1 3.008089 1_555
