# generated using pymatgen
data_CaVSbF12
_symmetry_space_group_name_H-M   'P 1'
_cell_length_a   11.14891038
_cell_length_b   5.66374712
_cell_length_c   5.61188604
_cell_angle_alpha   54.36098985
_cell_angle_beta   54.46362654
_cell_angle_gamma   54.04060688
_symmetry_Int_Tables_number   1
_chemical_formula_structural   CaVSbF12
_chemical_formula_sum   'Ca1 V1 Sb1 F12'
_cell_volume   217.17057993
_cell_formula_units_Z   1
loop_
 _symmetry_equiv_pos_site_id
 _symmetry_equiv_pos_as_xyz
  1  'x, y, z'
loop_
 _atom_site_type_symbol
 _atom_site_label
 _atom_site_symmetry_multiplicity
 _atom_site_fract_x
 _atom_site_fract_y
 _atom_site_fract_z
 _atom_site_occupancy
  Ca  Ca0  1  0.74439729  0.50224512  0.50529179  1
  V  V0  1  0.47361721  0.03168572  0.00282992  1
  Sb  Sb0  1  0.02458541  0.97075893  0.99731238  1
  F  F0  1  0.20816431  0.05744798  0.76583960  1
  F  F1  1  0.66497686  0.09983192  0.78558391  1
  F  F2  1  0.04403651  0.76447050  0.38872478  1
  F  F3  1  0.53879643  0.78859790  0.34142687  1
  F  F4  1  0.12060817  0.60408630  0.92488393  1
  F  F5  1  0.60157395  0.66983577  0.90754200  1
  F  F6  1  0.45033508  0.22880287  0.64452995  1
  F  F7  1  0.96585153  0.21826973  0.63315231  1
  F  F8  1  0.31022681  0.93003700  0.22460365  1
  F  F9  1  0.82394341  0.91690334  0.21225131  1
  F  F10  1  0.38118215  0.36443790  0.08455839  1
  F  F11  1  0.89770587  0.35258903  0.08147221  1
loop_
_geom_bond_atom_site_label_1
_geom_bond_atom_site_label_2
_geom_bond_distance
_geom_bond_site_symmetry_2
Ca0 F1 2.241888 1_555
Ca0 F5 2.252955 1_555
Ca0 F3 2.253115 1_555
Ca0 F11 2.284528 1_555
Ca0 F7 2.290928 1_555
Ca0 F9 2.292687 1_555
F0 Sb0 1.861144 1_545
F1 V0 1.892646 1_556
F2 Sb0 1.871470 1_554
F3 V0 1.848147 1_565
F4 Sb0 1.868413 1_555
F5 V0 1.864930 1_566
F6 V0 1.734127 1_556
F7 Sb0 1.925959 1_645
F8 V0 1.720456 1_565
F9 Sb0 1.946262 1_654
F10 V0 1.732371 1_555
F11 Sb0 1.929195 1_644
