# generated using pymatgen
data_Pt4(IBr3)3
_symmetry_space_group_name_H-M   'P 1'
_cell_length_a   6.63902438
_cell_length_b   6.63821519
_cell_length_c   12.74641486
_cell_angle_alpha   84.06698292
_cell_angle_beta   84.03691798
_cell_angle_gamma   119.64303550
_symmetry_Int_Tables_number   1
_chemical_formula_structural   Pt4(IBr3)3
_chemical_formula_sum   'Pt4 I3 Br9'
_cell_volume   477.74464086
_cell_formula_units_Z   1
loop_
 _symmetry_equiv_pos_site_id
 _symmetry_equiv_pos_as_xyz
  1  'x, y, z'
loop_
 _atom_site_type_symbol
 _atom_site_label
 _atom_site_symmetry_multiplicity
 _atom_site_fract_x
 _atom_site_fract_y
 _atom_site_fract_z
 _atom_site_occupancy
  Pt  Pt0  1  0.91002345  0.08644554  0.24821865  1
  Pt  Pt1  1  0.08685616  0.91092775  0.75294813  1
  Pt  Pt2  1  0.49571091  0.99851110  0.50077494  1
  Pt  Pt3  1  0.00346829  0.50434999  0.99718301  1
  I  I0  1  0.45185608  0.26936454  0.62529326  1
  I  I1  1  0.27224538  0.45625170  0.11808615  1
  I  I2  1  0.53821873  0.72547896  0.37744322  1
  Br  Br0  1  0.17884743  0.04833342  0.35965160  1
  Br  Br1  1  0.94736349  0.81452013  0.13852520  1
  Br  Br2  1  0.81610823  0.94540581  0.64275532  1
  Br  Br3  1  0.04980337  0.18228046  0.86310758  1
  Br  Br4  1  0.15660275  0.66450974  0.62453062  1
  Br  Br5  1  0.33873096  0.84660621  0.87708955  1
  Br  Br6  1  0.83617242  0.33044435  0.37679399  1
  Br  Br7  1  0.66810562  0.16208038  0.11904755  1
  Br  Br8  1  0.74988573  0.55448992  0.87855023  1
loop_
_geom_bond_atom_site_label_1
_geom_bond_atom_site_label_2
_geom_bond_distance
_geom_bond_site_symmetry_2
I0 Pt2 2.616937 1_545
I0 Pt1 2.618785 1_545
I1 Pt3 2.587325 1_554
I1 Pt0 2.655283 1_455
I2 Pt2 2.615094 1_555
I2 Pt0 2.652603 1_565
Br0 Pt0 2.483099 1_455
Br0 Pt2 3.020266 1_545
Br1 Pt0 2.483384 1_565
Br1 Pt3 3.001663 1_654
Br2 Pt1 2.474118 1_655
Br2 Pt2 3.055128 1_555
Br3 Pt1 2.483188 1_545
Br3 Pt3 2.980408 1_555
Br4 Pt2 2.464580 1_555
Br4 Pt1 2.591294 1_555
Br5 Pt3 2.455628 1_555
Br5 Pt1 2.568816 1_555
Br6 Pt2 2.464333 1_545
Br6 Pt0 2.591749 1_555
Br7 Pt3 2.465789 1_654
Br7 Pt0 2.592048 1_555
Br8 Pt3 2.492159 1_655
Br8 Pt1 2.530424 1_655
