# generated using pymatgen
data_CsAl5(CdSe3)4
_symmetry_space_group_name_H-M   'P 1'
_cell_length_a   8.94128783
_cell_length_b   9.01994144
_cell_length_c   9.21812055
_cell_angle_alpha   108.48690327
_cell_angle_beta   106.58714671
_cell_angle_gamma   108.01224843
_symmetry_Int_Tables_number   1
_chemical_formula_structural   CsAl5(CdSe3)4
_chemical_formula_sum   'Cs1 Al5 Cd4 Se12'
_cell_volume   606.87771480
_cell_formula_units_Z   1
loop_
 _symmetry_equiv_pos_site_id
 _symmetry_equiv_pos_as_xyz
  1  'x, y, z'
loop_
 _atom_site_type_symbol
 _atom_site_label
 _atom_site_symmetry_multiplicity
 _atom_site_fract_x
 _atom_site_fract_y
 _atom_site_fract_z
 _atom_site_occupancy
  Cs  Cs0  1  0.99651543  0.99942130  0.98995211  1
  Al  Al0  1  0.18830027  0.55393961  0.02795058  1
  Al  Al1  1  0.02290449  0.18550593  0.55376933  1
  Al  Al2  1  0.56166815  0.02306900  0.19330473  1
  Al  Al3  1  0.93608169  0.47086850  0.33235319  1
  Al  Al4  1  0.32018527  0.93023850  0.47062908  1
  Cd  Cd0  1  0.48738643  0.33584392  0.93260636  1
  Cd  Cd1  1  0.62718032  0.70991229  0.40442947  1
  Cd  Cd2  1  0.40632507  0.64263773  0.71779418  1
  Cd  Cd3  1  0.71404246  0.40282861  0.63371517  1
  Se  Se0  1  0.87712724  0.63325205  0.54480124  1
  Se  Se1  1  0.54463301  0.88812655  0.63355892  1
  Se  Se2  1  0.65694195  0.58262966  0.87454167  1
  Se  Se3  1  0.35643348  0.43415736  0.14934485  1
  Se  Se4  1  0.14379890  0.37115056  0.44047151  1
  Se  Se5  1  0.43162510  0.13539299  0.36754932  1
  Se  Se6  1  0.07046799  0.67298626  0.22571960  1
  Se  Se7  1  0.20964430  0.06385474  0.65927830  1
  Se  Se8  1  0.69759144  0.21759718  0.08925180  1
  Se  Se9  1  0.78144832  0.94125354  0.30556710  1
  Se  Se10  1  0.30368214  0.78344817  0.95434427  1
  Se  Se11  1  0.94721655  0.30308555  0.78026922  1
loop_
_geom_bond_atom_site_label_1
_geom_bond_atom_site_label_2
_geom_bond_distance
_geom_bond_site_symmetry_2
Cs0 Se2 3.611647 1_555
Cs0 Se3 3.705941 1_666
Cs0 Se10 3.855361 1_655
Cs0 Se11 3.879477 1_565
Cs0 Se8 3.919396 1_566
Cs0 Se5 3.919895 1_666
Cs0 Se4 3.942032 1_666
Cs0 Se0 3.950966 1_555
Cs0 Se1 3.993383 1_555
Cs0 Se9 3.996990 1_556
Cs0 Se7 4.125018 1_665
Cs0 Se6 4.274582 1_656
Al0 Se3 2.343137 1_555
Al0 Se10 2.404138 1_554
Al0 Se11 2.424171 1_454
Al0 Se6 2.478189 1_555
Al1 Se4 2.386922 1_555
Al1 Se11 2.405919 1_455
Al1 Se9 2.406469 1_445
Al1 Se7 2.412580 1_555
Al2 Se9 2.386901 1_545
Al2 Se5 2.391909 1_555
Al2 Se10 2.416804 1_544
Al2 Se8 2.426901 1_555
Al3 Se0 2.346531 1_555
Al3 Se4 2.407592 1_655
Al3 Se8 2.408368 1_555
Al3 Se6 2.487918 1_655
Al4 Se1 2.353678 1_555
Al4 Se5 2.415649 1_565
Al4 Se7 2.417106 1_565
Al4 Se6 2.462136 1_555
Cd0 Se2 2.582976 1_555
Cd0 Se3 2.646365 1_556
Cd0 Se7 2.697006 1_555
Cd0 Se8 2.724357 1_556
Cd1 Se3 2.625494 1_555
Cd1 Se0 2.649352 1_555
Cd1 Se1 2.657169 1_555
Cd1 Se9 2.689056 1_555
Cd2 Se2 2.607599 1_555
Cd2 Se1 2.642064 1_555
Cd2 Se4 2.662845 1_555
Cd2 Se10 2.705059 1_555
Cd3 Se2 2.587487 1_555
Cd3 Se0 2.646930 1_555
Cd3 Se5 2.675337 1_555
Cd3 Se11 2.702573 1_555
