# generated using pymatgen
data_Rb2LiIrCl6
_symmetry_space_group_name_H-M   'P 1'
_cell_length_a   7.00957838
_cell_length_b   7.00957740
_cell_length_c   6.04388890
_cell_angle_alpha   90.00000000
_cell_angle_beta   90.00000000
_cell_angle_gamma   120.00000025
_symmetry_Int_Tables_number   1
_chemical_formula_structural   Rb2LiIrCl6
_chemical_formula_sum   'Rb2 Li1 Ir1 Cl6'
_cell_volume   257.17623545
_cell_formula_units_Z   1
loop_
 _symmetry_equiv_pos_site_id
 _symmetry_equiv_pos_as_xyz
  1  'x, y, z'
loop_
 _atom_site_type_symbol
 _atom_site_label
 _atom_site_symmetry_multiplicity
 _atom_site_fract_x
 _atom_site_fract_y
 _atom_site_fract_z
 _atom_site_occupancy
  Rb  Rb0  1  0.33333300  0.66666700  0.27760495  1
  Rb  Rb1  1  0.66666700  0.33333300  0.72239505  1
  Li  Li0  1  0.00000000  0.00000000  0.00000000  1
  Ir  Ir0  1  0.00000000  0.00000000  0.50000000  1
  Cl  Cl0  1  0.84188046  0.15811954  0.27052689  1
  Cl  Cl1  1  0.15811954  0.84188046  0.72947311  1
  Cl  Cl2  1  0.84188046  0.68375992  0.27052689  1
  Cl  Cl3  1  0.15811954  0.31624008  0.72947311  1
  Cl  Cl4  1  0.31624008  0.15811954  0.27052689  1
  Cl  Cl5  1  0.68375992  0.84188046  0.72947311  1
loop_
_geom_bond_atom_site_label_1
_geom_bond_atom_site_label_2
_geom_bond_distance
_geom_bond_site_symmetry_2
Cl0 Ir0 2.368300 1_655
Cl0 Li0 2.521639 1_655
Cl0 Rb1 3.461764 1_555
Cl0 Rb0 3.506586 1_655
Cl0 Rb0 3.506586 1_545
Cl1 Ir0 2.368300 1_565
Cl1 Li0 2.521639 1_566
Cl1 Rb0 3.461764 1_555
Cl1 Rb1 3.506586 1_455
Cl1 Rb1 3.506586 1_565
Cl2 Ir0 2.368305 1_665
Cl2 Li0 2.521644 1_665
Cl2 Rb1 3.461763 1_555
Cl2 Rb0 3.506579 1_655
Cl2 Rb0 3.506593 1_555
Cl3 Ir0 2.368305 1_555
Cl3 Li0 2.521644 1_556
Cl3 Rb0 3.461763 1_555
Cl3 Rb1 3.506579 1_455
Cl3 Rb1 3.506593 1_555
Cl4 Ir0 2.368305 1_555
Cl4 Li0 2.521644 1_555
Cl4 Rb1 3.461764 1_555
Cl4 Rb0 3.506578 1_545
Cl4 Rb0 3.506592 1_555
Cl5 Ir0 2.368305 1_665
Cl5 Li0 2.521644 1_666
Cl5 Rb0 3.461764 1_555
Cl5 Rb1 3.506578 1_565
Cl5 Rb1 3.506592 1_555
