# generated using pymatgen
data_Ta3AlCu2N
_symmetry_space_group_name_H-M   'P 1'
_cell_length_a   8.12113350
_cell_length_b   8.12113413
_cell_length_c   8.12113251
_cell_angle_alpha   60.00000258
_cell_angle_beta   60.00000002
_cell_angle_gamma   60.00000489
_symmetry_Int_Tables_number   1
_chemical_formula_structural   Ta3AlCu2N
_chemical_formula_sum   'Ta12 Al4 Cu8 N4'
_cell_volume   378.73457746
_cell_formula_units_Z   4
loop_
 _symmetry_equiv_pos_site_id
 _symmetry_equiv_pos_as_xyz
  1  'x, y, z'
loop_
 _atom_site_type_symbol
 _atom_site_label
 _atom_site_symmetry_multiplicity
 _atom_site_fract_x
 _atom_site_fract_y
 _atom_site_fract_z
 _atom_site_occupancy
  Ta  Ta0  1  0.81793779  0.81793779  0.18206221  1
  Ta  Ta1  1  0.18206221  0.18206221  0.81793779  1
  Ta  Ta2  1  0.81793779  0.18206221  0.81793779  1
  Ta  Ta3  1  0.18206221  0.81793779  0.18206221  1
  Ta  Ta4  1  0.18206221  0.81793779  0.81793779  1
  Ta  Ta5  1  0.81793779  0.18206221  0.18206221  1
  Ta  Ta6  1  0.43206221  0.43206221  0.06793779  1
  Ta  Ta7  1  0.06793779  0.06793779  0.43206221  1
  Ta  Ta8  1  0.43206221  0.06793779  0.43206221  1
  Ta  Ta9  1  0.06793779  0.43206221  0.06793779  1
  Ta  Ta10  1  0.06793779  0.43206221  0.43206221  1
  Ta  Ta11  1  0.43206221  0.06793779  0.06793779  1
  Al  Al0  1  0.12500000  0.62500000  0.62500000  1
  Al  Al1  1  0.62500000  0.12500000  0.62500000  1
  Al  Al2  1  0.62500000  0.62500000  0.12500000  1
  Al  Al3  1  0.62500000  0.62500000  0.62500000  1
  Cu  Cu0  1  0.74254369  0.41915144  0.41915144  1
  Cu  Cu1  1  0.41915144  0.74254369  0.41915144  1
  Cu  Cu2  1  0.41915144  0.41915144  0.74254369  1
  Cu  Cu3  1  0.41915144  0.41915144  0.41915144  1
  Cu  Cu4  1  0.50745631  0.83084856  0.83084856  1
  Cu  Cu5  1  0.83084856  0.50745631  0.83084856  1
  Cu  Cu6  1  0.83084856  0.83084856  0.50745631  1
  Cu  Cu7  1  0.83084856  0.83084856  0.83084856  1
  N  N0  1  0.62500000  0.12500000  0.12500000  1
  N  N1  1  0.12500000  0.62500000  0.12500000  1
  N  N2  1  0.12500000  0.12500000  0.62500000  1
  N  N3  1  0.12500000  0.12500000  0.12500000  1
loop_
_geom_bond_atom_site_label_1
_geom_bond_atom_site_label_2
_geom_bond_distance
_geom_bond_site_symmetry_2
Al0 Cu1 2.470534 1_555
Al0 Cu5 2.470534 1_455
Al0 Cu2 2.470534 1_555
Al0 Cu6 2.470534 1_455
Al0 Cu7 2.470543 1_455
Al0 Cu3 2.470543 1_555
Al1 Cu0 2.470534 1_555
Al1 Cu4 2.470534 1_545
Al1 Cu2 2.470534 1_555
Al1 Cu6 2.470534 1_545
Al1 Cu7 2.470543 1_545
Al1 Cu3 2.470543 1_555
Al2 Cu1 2.470534 1_555
Al2 Cu5 2.470534 1_554
Al2 Cu0 2.470534 1_555
Al2 Cu4 2.470534 1_554
Al2 Cu7 2.470542 1_554
Al2 Cu3 2.470542 1_555
Al3 Cu5 2.470547 1_555
Al3 Cu1 2.470547 1_555
Al3 Cu4 2.470547 1_555
Al3 Cu0 2.470547 1_555
Al3 Cu6 2.470547 1_555
Al3 Cu2 2.470547 1_555
Cu0 Cu2 2.626312 1_555
Cu0 Cu3 2.626312 1_555
Cu0 Cu1 2.626312 1_555
Cu0 Ta9 2.751409 1_655
Cu0 Ta7 2.751409 1_655
Cu0 Ta10 2.751418 1_655
Cu0 Ta5 3.023068 1_555
Cu0 Ta2 3.023082 1_555
Cu0 Ta0 3.023083 1_555
Cu1 Cu2 2.626312 1_555
Cu1 Cu3 2.626312 1_555
Cu1 Ta11 2.751409 1_565
Cu1 Ta7 2.751409 1_565
Cu1 Ta8 2.751418 1_565
Cu1 Ta3 3.023068 1_555
Cu1 Ta4 3.023082 1_555
Cu1 Ta0 3.023082 1_555
Cu2 Cu3 2.626311 1_555
Cu2 Ta9 2.751409 1_556
Cu2 Ta11 2.751409 1_556
Cu2 Ta6 2.751417 1_556
Cu2 Ta1 3.023069 1_555
Cu2 Ta2 3.023083 1_555
Cu2 Ta4 3.023083 1_555
Cu3 Ta6 2.751401 1_555
Cu3 Ta10 2.751401 1_555
Cu3 Ta8 2.751402 1_555
Cu3 Ta1 3.023075 1_555
Cu3 Ta5 3.023076 1_555
Cu3 Ta3 3.023076 1_555
Cu4 Cu6 2.626312 1_555
Cu4 Cu7 2.626312 1_555
Cu4 Cu5 2.626312 1_555
Cu4 Ta3 2.751409 1_556
Cu4 Ta1 2.751409 1_565
Cu4 Ta4 2.751418 1_555
Cu4 Ta11 3.023068 1_566
Cu4 Ta8 3.023082 1_565
Cu4 Ta6 3.023083 1_556
Cu5 Cu6 2.626312 1_555
Cu5 Cu7 2.626312 1_555
Cu5 Ta5 2.751409 1_556
Cu5 Ta1 2.751409 1_655
Cu5 Ta2 2.751418 1_555
Cu5 Ta9 3.023068 1_656
Cu5 Ta10 3.023082 1_655
Cu5 Ta6 3.023082 1_556
Cu6 Cu7 2.626311 1_555
Cu6 Ta3 2.751409 1_655
Cu6 Ta5 2.751409 1_565
Cu6 Ta0 2.751417 1_555
Cu6 Ta7 3.023069 1_665
Cu6 Ta8 3.023083 1_565
Cu6 Ta10 3.023083 1_655
Cu7 Ta0 2.751401 1_556
Cu7 Ta4 2.751401 1_655
Cu7 Ta2 2.751402 1_565
Cu7 Ta7 3.023075 1_665
Cu7 Ta11 3.023076 1_566
Cu7 Ta9 3.023076 1_656
N0 Ta8 2.133435 1_555
N0 Ta2 2.133435 1_554
N0 Ta5 2.133436 1_555
N0 Ta11 2.133436 1_555
N0 Ta0 2.133436 1_545
N0 Ta6 2.133436 1_555
N1 Ta10 2.133436 1_555
N1 Ta4 2.133436 1_554
N1 Ta3 2.133436 1_555
N1 Ta9 2.133436 1_555
N1 Ta6 2.133436 1_555
N1 Ta0 2.133436 1_455
N2 Ta1 2.133436 1_555
N2 Ta7 2.133436 1_555
N2 Ta8 2.133436 1_555
N2 Ta2 2.133436 1_455
N2 Ta10 2.133436 1_555
N2 Ta4 2.133436 1_545
N3 Ta7 2.133435 1_555
N3 Ta1 2.133435 1_554
N3 Ta11 2.133436 1_555
N3 Ta5 2.133436 1_455
N3 Ta9 2.133436 1_555
N3 Ta3 2.133436 1_545
