# generated using pymatgen
data_Ba3Sc2MoO9
_symmetry_space_group_name_H-M   'P 1'
_cell_length_a   5.83830363
_cell_length_b   5.83830338
_cell_length_c   7.16187605
_cell_angle_alpha   90.00000000
_cell_angle_beta   90.00000000
_cell_angle_gamma   119.99999590
_symmetry_Int_Tables_number   1
_chemical_formula_structural   Ba3Sc2MoO9
_chemical_formula_sum   'Ba3 Sc2 Mo1 O9'
_cell_volume   211.41256089
_cell_formula_units_Z   1
loop_
 _symmetry_equiv_pos_site_id
 _symmetry_equiv_pos_as_xyz
  1  'x, y, z'
loop_
 _atom_site_type_symbol
 _atom_site_label
 _atom_site_symmetry_multiplicity
 _atom_site_fract_x
 _atom_site_fract_y
 _atom_site_fract_z
 _atom_site_occupancy
  Ba  Ba0  1  0.00000000  0.00000000  0.50000000  1
  Ba  Ba1  1  0.66666700  0.33333300  0.82676315  1
  Ba  Ba2  1  0.33333300  0.66666700  0.17323685  1
  Sc  Sc0  1  0.66666700  0.33333300  0.34324291  1
  Sc  Sc1  1  0.33333300  0.66666700  0.65675709  1
  Mo  Mo0  1  0.00000000  0.00000000  0.00000000  1
  O  O0  1  0.68653339  0.84326720  0.84584262  1
  O  O1  1  0.31346661  0.15673280  0.15415738  1
  O  O2  1  0.00000000  0.50000000  0.50000000  1
  O  O3  1  0.50000000  0.00000000  0.50000000  1
  O  O4  1  0.15673280  0.31346661  0.84584262  1
  O  O5  1  0.84326720  0.68653339  0.15415738  1
  O  O6  1  0.50000000  0.50000000  0.50000000  1
  O  O7  1  0.15673280  0.84326720  0.84584262  1
  O  O8  1  0.84326720  0.15673280  0.15415738  1
loop_
_geom_bond_atom_site_label_1
_geom_bond_atom_site_label_2
_geom_bond_distance
_geom_bond_site_symmetry_2
Ba0 O2 2.919152 1_555
Ba0 O2 2.919152 1_545
Ba0 O3 2.919152 1_555
Ba0 O3 2.919152 1_455
Ba0 O6 2.919152 1_555
Ba0 O6 2.919152 1_445
Ba0 O7 2.940564 1_545
Ba0 O8 2.940564 1_455
Ba0 O4 2.940566 1_555
Ba0 O5 2.940566 1_445
Ba0 O0 2.940566 1_445
Ba0 O1 2.940566 1_555
Ba1 O3 2.883953 1_555
Ba1 O2 2.883953 1_655
Ba1 O6 2.883956 1_555
Ba1 O0 2.924068 1_545
Ba1 O4 2.924068 1_655
Ba1 O7 2.924074 1_655
Ba1 O7 2.924074 1_545
Ba1 O0 2.924080 1_555
Ba1 O4 2.924080 1_555
Ba1 O8 2.947380 1_556
Ba1 O5 2.947380 1_556
Ba1 O1 2.947380 1_556
Ba2 O3 2.883953 1_565
Ba2 O2 2.883953 1_555
Ba2 O6 2.883956 1_555
Ba2 O1 2.924068 1_565
Ba2 O5 2.924068 1_455
Ba2 O8 2.924074 1_455
Ba2 O8 2.924074 1_565
Ba2 O1 2.924080 1_555
Ba2 O5 2.924080 1_555
Ba2 O7 2.947380 1_554
Ba2 O4 2.947380 1_554
Ba2 O0 2.947380 1_554
Mo0 O8 1.931556 1_455
Mo0 O7 1.931556 1_544
Mo0 O5 1.931560 1_445
Mo0 O4 1.931560 1_554
Mo0 O1 1.931560 1_555
Mo0 O0 1.931560 1_444
O0 Sc1 2.241214 1_555
O1 Sc0 2.241214 1_555
O2 Sc1 2.025062 1_555
O2 Sc0 2.025062 1_455
O3 Sc0 2.025062 1_555
O3 Sc1 2.025062 1_545
O4 Sc1 2.241214 1_555
O5 Sc0 2.241214 1_555
O6 Sc1 2.025066 1_555
O6 Sc0 2.025066 1_555
O7 Sc1 2.241214 1_555
O8 Sc0 2.241214 1_555
