# generated using pymatgen
data_UTeO5
_symmetry_space_group_name_H-M   'P 1'
_cell_length_a   10.17408576
_cell_length_b   5.34589822
_cell_length_c   7.78661763
_cell_angle_alpha   90.00000000
_cell_angle_beta   90.00000000
_cell_angle_gamma   90.00000000
_symmetry_Int_Tables_number   1
_chemical_formula_structural   UTeO5
_chemical_formula_sum   'U4 Te4 O20'
_cell_volume   423.51122813
_cell_formula_units_Z   4
loop_
 _symmetry_equiv_pos_site_id
 _symmetry_equiv_pos_as_xyz
  1  'x, y, z'
loop_
 _atom_site_type_symbol
 _atom_site_label
 _atom_site_symmetry_multiplicity
 _atom_site_fract_x
 _atom_site_fract_y
 _atom_site_fract_z
 _atom_site_occupancy
  U  U0  1  0.51406518  0.96829418  0.00659745  1
  U  U1  1  0.48593482  0.03170582  0.50659745  1
  U  U2  1  0.98593482  0.96829418  0.50659745  1
  U  U3  1  0.01406518  0.03170582  0.00659745  1
  Te  Te0  1  0.75016142  0.62815520  0.25631076  1
  Te  Te1  1  0.24983858  0.37184480  0.75631076  1
  Te  Te2  1  0.74983858  0.62815520  0.75631076  1
  Te  Te3  1  0.25016142  0.37184480  0.25631076  1
  O  O0  1  0.71270091  0.73231574  0.00630753  1
  O  O1  1  0.28729909  0.26768426  0.50630753  1
  O  O2  1  0.78729909  0.73231574  0.50630753  1
  O  O3  1  0.21270091  0.26768426  0.00630753  1
  O  O4  1  0.60240598  0.84536888  0.28007988  1
  O  O5  1  0.39759402  0.15463112  0.78007988  1
  O  O6  1  0.89759402  0.84536888  0.78007988  1
  O  O7  1  0.10240598  0.15463112  0.28007988  1
  O  O8  1  0.89436983  0.85472491  0.23300320  1
  O  O9  1  0.10563017  0.14527509  0.73300320  1
  O  O10  1  0.60563017  0.85472491  0.73300320  1
  O  O11  1  0.39436983  0.14527509  0.23300320  1
  O  O12  1  0.11496129  0.75540535  0.01115377  1
  O  O13  1  0.88503871  0.24459465  0.51115377  1
  O  O14  1  0.38503871  0.75540535  0.51115377  1
  O  O15  1  0.61496129  0.24459465  0.01115377  1
  O  O16  1  0.08660050  0.68730342  0.50254942  1
  O  O17  1  0.91339950  0.31269658  0.00254942  1
  O  O18  1  0.41339950  0.68730342  0.00254942  1
  O  O19  1  0.58660050  0.31269658  0.50254942  1
loop_
_geom_bond_atom_site_label_1
_geom_bond_atom_site_label_2
_geom_bond_distance
_geom_bond_site_symmetry_2
O0 Te2 2.059658 1_554
O0 Te0 2.060311 1_555
O0 U0 2.382355 1_555
O1 Te3 2.059658 1_555
O1 Te1 2.060311 1_555
O1 U1 2.382355 1_555
O2 Te0 2.059658 1_555
O2 Te2 2.060311 1_555
O2 U2 2.382355 1_555
O3 Te1 2.059658 1_554
O3 Te3 2.060311 1_555
O3 U3 2.382355 1_555
O4 Te0 1.908530 1_555
O4 U1 2.346806 1_565
O4 U0 2.403007 1_555
O5 Te1 1.908530 1_555
O5 U0 2.346806 1_546
O5 U1 2.403007 1_555
O6 Te2 1.908530 1_555
O6 U3 2.346806 1_666
O6 U2 2.403007 1_555
O7 Te3 1.908530 1_555
O7 U2 2.346806 1_445
O7 U3 2.403007 1_555
O8 Te0 1.911186 1_555
O8 U3 2.342243 1_665
O8 U2 2.403114 1_555
O9 Te1 1.911186 1_555
O9 U2 2.342243 1_445
O9 U3 2.403114 1_556
O10 Te2 1.911186 1_555
O10 U1 2.342243 1_565
O10 U0 2.403114 1_556
O11 Te3 1.911186 1_555
O11 U0 2.342243 1_545
O11 U1 2.403114 1_555
O12 U3 1.799100 1_565
O13 U2 1.799100 1_545
O14 U1 1.799100 1_565
O15 U0 1.799100 1_545
O16 U2 1.818348 1_455
O17 U3 1.818348 1_655
O18 U0 1.818348 1_555
O19 U1 1.818348 1_555
