# generated using pymatgen
data_Cs2Ba(NbCl3)6
_symmetry_space_group_name_H-M   'P 1'
_cell_length_a   10.56405267
_cell_length_b   10.56405258
_cell_length_c   10.56405114
_cell_angle_alpha   54.91801818
_cell_angle_beta   54.91802005
_cell_angle_gamma   54.91801915
_symmetry_Int_Tables_number   1
_chemical_formula_structural   Cs2Ba(NbCl3)6
_chemical_formula_sum   'Cs2 Ba1 Nb6 Cl18'
_cell_volume   735.03218652
_cell_formula_units_Z   1
loop_
 _symmetry_equiv_pos_site_id
 _symmetry_equiv_pos_as_xyz
  1  'x, y, z'
loop_
 _atom_site_type_symbol
 _atom_site_label
 _atom_site_symmetry_multiplicity
 _atom_site_fract_x
 _atom_site_fract_y
 _atom_site_fract_z
 _atom_site_occupancy
  Cs  Cs0  1  0.27608872  0.27608872  0.27608872  1
  Cs  Cs1  1  0.72391128  0.72391128  0.72391128  1
  Ba  Ba0  1  0.00000000  0.00000000  0.00000000  1
  Nb  Nb0  1  0.42637088  0.29763646  0.64235597  1
  Nb  Nb1  1  0.35764403  0.57362912  0.70236354  1
  Nb  Nb2  1  0.70236354  0.35764403  0.57362912  1
  Nb  Nb3  1  0.64235597  0.42637088  0.29763646  1
  Nb  Nb4  1  0.57362912  0.70236354  0.35764403  1
  Nb  Nb5  1  0.29763646  0.64235597  0.42637088  1
  Cl  Cl0  1  0.64996555  0.09499250  0.75725012  1
  Cl  Cl1  1  0.75725012  0.64996555  0.09499250  1
  Cl  Cl2  1  0.09499250  0.75725012  0.64996555  1
  Cl  Cl3  1  0.81912716  0.33849833  0.03839674  1
  Cl  Cl4  1  0.17364380  0.42839375  0.58089304  1
  Cl  Cl5  1  0.66150167  0.96160326  0.18087284  1
  Cl  Cl6  1  0.90500750  0.24274988  0.35003445  1
  Cl  Cl7  1  0.57160625  0.41910696  0.82635620  1
  Cl  Cl8  1  0.41910696  0.82635620  0.57160625  1
  Cl  Cl9  1  0.96160326  0.18087284  0.66150167  1
  Cl  Cl10  1  0.18087284  0.66150167  0.96160326  1
  Cl  Cl11  1  0.03839674  0.81912716  0.33849833  1
  Cl  Cl12  1  0.33849833  0.03839674  0.81912716  1
  Cl  Cl13  1  0.24274988  0.35003445  0.90500750  1
  Cl  Cl14  1  0.58089304  0.17364380  0.42839375  1
  Cl  Cl15  1  0.42839375  0.58089304  0.17364380  1
  Cl  Cl16  1  0.35003445  0.90500750  0.24274988  1
  Cl  Cl17  1  0.82635620  0.57160625  0.41910696  1
loop_
_geom_bond_atom_site_label_1
_geom_bond_atom_site_label_2
_geom_bond_distance
_geom_bond_site_symmetry_2
Ba0 Cl11 3.086248 1_545
Ba0 Cl9 3.086248 1_454
Ba0 Cl3 3.086249 1_455
Ba0 Cl10 3.086249 1_544
Ba0 Cl12 3.086249 1_554
Ba0 Cl5 3.086249 1_445
Cl0 Nb2 2.472302 1_555
Cl0 Nb0 2.476206 1_555
Cl0 Cs1 3.721873 1_545
Cl1 Nb4 2.472301 1_555
Cl1 Nb3 2.476206 1_555
Cl1 Cs1 3.721872 1_554
Cl2 Nb1 2.472302 1_555
Cl2 Nb5 2.476206 1_555
Cl2 Cs1 3.721873 1_455
Cl3 Nb3 2.626777 1_555
Cl3 Cs1 3.494460 1_554
Cl4 Nb0 2.485974 1_555
Cl4 Nb5 2.488693 1_555
Cl4 Cs0 3.751824 1_555
Cl4 Cs1 3.836933 1_455
Cl5 Nb4 2.626777 1_555
Cl5 Cs0 3.494460 1_565
Cl6 Nb3 2.472302 1_555
Cl6 Nb2 2.476206 1_555
Cl6 Cs0 3.721873 1_655
Cl7 Nb2 2.485974 1_555
Cl7 Nb1 2.488693 1_555
Cl7 Cs1 3.751824 1_555
Cl7 Cs0 3.836933 1_556
Cl8 Nb1 2.485974 1_555
Cl8 Nb4 2.488692 1_555
Cl8 Cs1 3.751824 1_555
Cl8 Cs0 3.836933 1_565
Cl9 Nb2 2.626777 1_555
Cl9 Cs0 3.494460 1_655
Cl10 Nb1 2.626777 1_555
Cl10 Cs0 3.494460 1_556
Cl11 Nb5 2.626777 1_555
Cl11 Cs1 3.494460 1_455
Cl12 Nb0 2.626777 1_555
Cl12 Cs1 3.494460 1_545
Cl13 Nb0 2.472301 1_555
Cl13 Nb1 2.476206 1_555
Cl13 Cs0 3.721872 1_556
Cl14 Nb3 2.485974 1_555
Cl14 Nb0 2.488692 1_555
Cl14 Cs0 3.751824 1_555
Cl14 Cs1 3.836933 1_545
Cl15 Nb5 2.485974 1_555
Cl15 Nb3 2.488693 1_555
Cl15 Cs0 3.751824 1_555
Cl15 Cs1 3.836933 1_554
Cl16 Nb5 2.472302 1_555
Cl16 Nb4 2.476206 1_555
Cl16 Cs0 3.721873 1_565
Cl17 Nb4 2.485974 1_555
Cl17 Nb2 2.488693 1_555
Cl17 Cs1 3.751824 1_555
Cl17 Cs0 3.836933 1_655
