# generated using pymatgen
data_Y16Cd4Ru3Pt
_symmetry_space_group_name_H-M   'P 1'
_cell_length_a   9.67089707
_cell_length_b   9.62812812
_cell_length_c   9.67089636
_cell_angle_alpha   59.85295037
_cell_angle_beta   60.00000241
_cell_angle_gamma   59.85294759
_symmetry_Int_Tables_number   1
_chemical_formula_structural   Y16Cd4Ru3Pt
_chemical_formula_sum   'Y16 Cd4 Ru3 Pt1'
_cell_volume   635.31846869
_cell_formula_units_Z   1
loop_
 _symmetry_equiv_pos_site_id
 _symmetry_equiv_pos_as_xyz
  1  'x, y, z'
loop_
 _atom_site_type_symbol
 _atom_site_label
 _atom_site_symmetry_multiplicity
 _atom_site_fract_x
 _atom_site_fract_y
 _atom_site_fract_z
 _atom_site_occupancy
  Y  Y0  1  0.43895332  0.43716522  0.06194123  1
  Y  Y1  1  0.06474638  0.05860338  0.43832512  1
  Y  Y2  1  0.43832512  0.05860338  0.06474638  1
  Y  Y3  1  0.84999222  0.84598299  0.84999222  1
  Y  Y4  1  0.69068386  0.31350421  0.30512806  1
  Y  Y5  1  0.06194123  0.43716522  0.43895332  1
  Y  Y6  1  0.31067926  0.68894706  0.68969441  1
  Y  Y7  1  0.30512806  0.31350421  0.69068386  1
  Y  Y8  1  0.84999222  0.84598299  0.45403357  1
  Y  Y9  1  0.68969441  0.68894706  0.31067926  1
  Y  Y10  1  0.45403357  0.84598299  0.84999222  1
  Y  Y11  1  0.06194123  0.43716522  0.06194123  1
  Y  Y12  1  0.84602128  0.46193615  0.84602128  1
  Y  Y13  1  0.43832512  0.05860338  0.43832512  1
  Y  Y14  1  0.31067926  0.68894706  0.31067926  1
  Y  Y15  1  0.69068386  0.31350421  0.69068386  1
  Cd  Cd0  1  0.08019067  0.75942800  0.08019067  1
  Cd  Cd1  1  0.07937711  0.07921845  0.76202834  1
  Cd  Cd2  1  0.76202834  0.07921845  0.07937711  1
  Cd  Cd3  1  0.07937711  0.07921845  0.07937711  1
  Ru  Ru0  1  0.63859214  0.64394084  0.63859214  1
  Ru  Ru1  1  0.63859214  0.64394084  0.07887387  1
  Ru  Ru2  1  0.07887387  0.64394084  0.63859214  1
  Pt  Pt0  1  0.64114921  0.07655238  0.64114921  1
loop_
_geom_bond_atom_site_label_1
_geom_bond_atom_site_label_2
_geom_bond_distance
_geom_bond_site_symmetry_2
Cd0 Cd2 3.071096 1_465
Cd0 Cd1 3.071096 1_564
Cd0 Cd3 3.071101 1_565
Cd0 Y11 3.289500 1_555
Cd0 Y0 3.289505 1_555
Cd0 Y5 3.289505 1_555
Cd0 Y3 3.440312 1_454
Cd0 Y8 3.440320 1_455
Cd0 Y10 3.440320 1_554
Cd0 Y14 3.511063 1_555
Cd0 Y6 3.511063 1_554
Cd0 Y9 3.511063 1_455
Cd1 Cd3 3.069047 1_556
Cd1 Cd2 3.069047 1_456
Cd1 Y5 3.285614 1_555
Cd1 Y13 3.309786 1_555
Cd1 Y1 3.309791 1_555
Cd1 Y10 3.447516 1_545
Cd1 Y3 3.447516 1_445
Cd1 Y12 3.485897 1_455
Cd1 Y7 3.493967 1_555
Cd1 Y15 3.493975 1_455
Cd1 Y6 3.499324 1_545
Cd2 Cd3 3.069047 1_655
Cd2 Y0 3.285614 1_555
Cd2 Y13 3.309786 1_555
Cd2 Y2 3.309791 1_555
Cd2 Y8 3.447516 1_545
Cd2 Y3 3.447516 1_544
Cd2 Y12 3.485897 1_554
Cd2 Y4 3.493966 1_555
Cd2 Y15 3.493975 1_554
Cd2 Y9 3.499324 1_545
Cd3 Y11 3.285614 1_555
Cd3 Y1 3.309781 1_555
Cd3 Y2 3.309781 1_555
Cd3 Y10 3.447516 1_544
Cd3 Y8 3.447516 1_445
Cd3 Y12 3.485901 1_454
Cd3 Y4 3.493971 1_455
Cd3 Y7 3.493971 1_554
Cd3 Y14 3.499320 1_545
Ru0 Y15 2.768299 1_555
Ru0 Y9 2.784995 1_555
Ru0 Y6 2.784995 1_555
Ru0 Y10 2.829792 1_555
Ru0 Y8 2.829792 1_555
Ru0 Y12 2.842779 1_555
Ru0 Y13 3.414549 1_565
Ru0 Y0 3.496055 1_556
Ru0 Y5 3.496055 1_655
Ru1 Y4 2.768302 1_555
Ru1 Y14 2.784998 1_555
Ru1 Y9 2.785004 1_555
Ru1 Y10 2.829777 1_554
Ru1 Y3 2.829791 1_554
Ru1 Y12 2.842772 1_554
Ru1 Y2 3.414551 1_565
Ru1 Y0 3.496043 1_555
Ru1 Y11 3.496060 1_655
Ru2 Y7 2.768302 1_555
Ru2 Y14 2.784998 1_555
Ru2 Y6 2.785004 1_555
Ru2 Y8 2.829777 1_455
Ru2 Y3 2.829790 1_455
Ru2 Y12 2.842772 1_455
Ru2 Y1 3.414552 1_565
Ru2 Y5 3.496043 1_555
Ru2 Y11 3.496060 1_556
Pt0 Y15 2.844072 1_555
Pt0 Y4 2.844072 1_555
Pt0 Y7 2.844072 1_555
Pt0 Y8 2.856326 1_545
Pt0 Y10 2.856327 1_545
Pt0 Y3 2.856333 1_545
Pt0 Y2 3.500452 1_556
Pt0 Y13 3.500452 1_555
Pt0 Y1 3.500452 1_655
