# generated using pymatgen
data_LuCdNi3Pt
_symmetry_space_group_name_H-M   'P 1'
_cell_length_a   4.92029840
_cell_length_b   4.92029858
_cell_length_c   5.08550961
_cell_angle_alpha   61.06895317
_cell_angle_beta   61.06894768
_cell_angle_gamma   60.00000813
_symmetry_Int_Tables_number   1
_chemical_formula_structural   LuCdNi3Pt
_chemical_formula_sum   'Lu1 Cd1 Ni3 Pt1'
_cell_volume   88.43691718
_cell_formula_units_Z   1
loop_
 _symmetry_equiv_pos_site_id
 _symmetry_equiv_pos_as_xyz
  1  'x, y, z'
loop_
 _atom_site_type_symbol
 _atom_site_label
 _atom_site_symmetry_multiplicity
 _atom_site_fract_x
 _atom_site_fract_y
 _atom_site_fract_z
 _atom_site_occupancy
  Lu  Lu0  1  0.24882230  0.24882230  0.25353211  1
  Cd  Cd0  1  0.00644321  0.00644321  0.98066938  1
  Ni  Ni0  1  0.62465429  0.12128664  0.62940379  1
  Ni  Ni1  1  0.12128664  0.62465429  0.62940379  1
  Ni  Ni2  1  0.62465429  0.62465429  0.62940379  1
  Pt  Pt0  1  0.62413728  0.62413728  0.12758816  1
loop_
_geom_bond_atom_site_label_1
_geom_bond_atom_site_label_2
_geom_bond_distance
_geom_bond_site_symmetry_2
Lu0 Pt0 2.889982 1_455
Lu0 Pt0 2.889982 1_545
Lu0 Pt0 2.889986 1_555
Lu0 Ni0 2.926800 1_455
Lu0 Ni1 2.926800 1_545
Lu0 Ni2 2.926800 1_455
Lu0 Ni1 2.926800 1_555
Lu0 Ni0 2.926800 1_555
Lu0 Ni2 2.926801 1_545
Lu0 Ni2 2.995928 1_554
Lu0 Ni0 2.995928 1_554
Lu0 Ni1 2.995928 1_554
Cd0 Ni0 2.871900 1_555
Cd0 Ni1 2.871901 1_555
Cd0 Ni2 2.871901 1_545
Cd0 Ni1 2.871901 1_545
Cd0 Ni0 2.871901 1_455
Cd0 Ni2 2.871901 1_455
Cd0 Pt0 2.907545 1_446
Cd0 Pt0 2.907550 1_456
Cd0 Pt0 2.907550 1_546
Cd0 Lu0 3.065047 1_456
Cd0 Lu0 3.065047 1_556
Cd0 Lu0 3.065047 1_546
Cd0 Lu0 3.067160 1_555
Cd0 Ni2 3.078717 1_446
Cd0 Ni0 3.078717 1_456
Cd0 Ni1 3.078717 1_546
Ni0 Ni2 2.443579 1_545
Ni0 Ni1 2.443580 1_645
Ni0 Ni2 2.476719 1_555
Ni0 Ni1 2.476719 1_555
Ni0 Pt0 2.531060 1_546
Ni0 Pt0 2.554454 1_555
Ni1 Ni2 2.443579 1_455
Ni1 Ni2 2.476719 1_555
Ni1 Pt0 2.531060 1_456
Ni1 Pt0 2.554454 1_555
Ni2 Pt0 2.531063 1_556
Ni2 Pt0 2.554452 1_555
