# generated using pymatgen
data_Zr4Rh2O
_symmetry_space_group_name_H-M   'P 1'
_cell_length_a   8.78591066
_cell_length_b   8.78588421
_cell_length_c   8.78571902
_cell_angle_alpha   60.00056380
_cell_angle_beta   60.00058083
_cell_angle_gamma   60.00112313
_symmetry_Int_Tables_number   1
_chemical_formula_structural   Zr4Rh2O
_chemical_formula_sum   'Zr16 Rh8 O4'
_cell_volume   479.55896376
_cell_formula_units_Z   4
loop_
 _symmetry_equiv_pos_site_id
 _symmetry_equiv_pos_as_xyz
  1  'x, y, z'
loop_
 _atom_site_type_symbol
 _atom_site_label
 _atom_site_symmetry_multiplicity
 _atom_site_fract_x
 _atom_site_fract_y
 _atom_site_fract_z
 _atom_site_occupancy
  Zr  Zr0  1  0.05882265  0.69116302  0.69115720  1
  Zr  Zr1  1  0.30882991  0.94115859  0.94115550  1
  Zr  Zr2  1  0.69117456  0.05882222  0.69115300  1
  Zr  Zr3  1  0.69118053  0.69115870  0.05882661  1
  Zr  Zr4  1  0.05884579  0.05885144  0.69115540  1
  Zr  Zr5  1  0.05883369  0.69116484  0.05885689  1
  Zr  Zr6  1  0.30883727  0.94115893  0.30885146  1
  Zr  Zr7  1  0.94116128  0.30884309  0.94115026  1
  Zr  Zr8  1  0.49999740  0.49999349  0.49998558  1
  Zr  Zr9  1  0.49999994  0.50000271  0.00001009  1
  Zr  Zr10  1  0.00000929  0.50000551  0.49999248  1
  Zr  Zr11  1  0.50000258  0.00001315  0.49999300  1
  Zr  Zr12  1  0.94116121  0.30884786  0.30884316  1
  Zr  Zr13  1  0.30882523  0.30884586  0.94116716  1
  Zr  Zr14  1  0.94114943  0.94113958  0.30884976  1
  Zr  Zr15  1  0.69117263  0.05883657  0.05885215  1
  Rh  Rh0  1  0.71989688  0.71988122  0.34037250  1
  Rh  Rh1  1  0.28010479  0.28012933  0.28015038  1
  Rh  Rh2  1  0.71991280  0.34035790  0.71986758  1
  Rh  Rh3  1  0.34035823  0.71989904  0.71987355  1
  Rh  Rh4  1  0.28008679  0.65963528  0.28013280  1
  Rh  Rh5  1  0.71989863  0.71987838  0.71985454  1
  Rh  Rh6  1  0.28009882  0.28012213  0.65962280  1
  Rh  Rh7  1  0.65963893  0.28010186  0.28012312  1
  O  O0  1  0.00000180  0.49999271  0.00000218  1
  O  O1  1  0.49999439  0.99999979  0.00000123  1
  O  O2  1  0.99999998  0.99999933  0.49999629  1
  O  O3  1  0.00000257  0.00000550  0.00000234  1
loop_
_geom_bond_atom_site_label_1
_geom_bond_atom_site_label_2
_geom_bond_distance
_geom_bond_site_symmetry_2
Rh0 Zr5 2.748870 1_655
Rh0 Zr15 2.748977 1_565
Rh0 Zr3 2.749162 1_555
Rh0 Zr10 2.782686 1_655
Rh0 Zr11 2.782819 1_565
Rh0 Zr8 2.783065 1_555
Rh0 Zr14 3.215030 1_555
Rh0 Zr12 3.215436 1_555
Rh0 Zr6 3.215619 1_555
Rh1 Zr12 2.748969 1_455
Rh1 Zr6 2.749114 1_545
Rh1 Zr13 2.749154 1_554
Rh1 Zr10 2.782580 1_555
Rh1 Zr11 2.782732 1_555
Rh1 Zr9 2.782908 1_555
Rh1 Zr4 3.215179 1_555
Rh1 Zr5 3.215452 1_555
Rh1 Zr15 3.215684 1_555
Rh2 Zr4 2.748856 1_655
Rh2 Zr15 2.749113 1_556
Rh2 Zr2 2.749187 1_555
Rh2 Zr10 2.782713 1_655
Rh2 Zr9 2.782994 1_556
Rh2 Zr8 2.783084 1_555
Rh2 Zr7 3.215196 1_555
Rh2 Zr12 3.215236 1_555
Rh2 Zr13 3.215786 1_555
Rh3 Zr4 2.748975 1_565
Rh3 Zr5 2.749121 1_556
Rh3 Zr0 2.749191 1_555
Rh3 Zr11 2.782815 1_565
Rh3 Zr9 2.782938 1_556
Rh3 Zr8 2.783046 1_555
Rh3 Zr1 3.215208 1_555
Rh3 Zr6 3.215251 1_555
Rh3 Zr13 3.215579 1_555
Rh4 Zr14 2.748871 1_455
Rh4 Zr1 2.749082 1_554
Rh4 Zr6 2.749166 1_555
Rh4 Zr10 2.782487 1_555
Rh4 Zr9 2.782792 1_555
Rh4 Zr8 2.782837 1_555
Rh4 Zr5 3.215113 1_555
Rh4 Zr0 3.215290 1_555
Rh4 Zr3 3.215867 1_555
Rh5 Zr0 2.748794 1_655
Rh5 Zr2 2.748911 1_565
Rh5 Zr3 2.749054 1_556
Rh5 Zr10 2.782693 1_655
Rh5 Zr11 2.782853 1_565
Rh5 Zr9 2.782964 1_556
Rh5 Zr14 3.215103 1_555
Rh5 Zr7 3.215432 1_555
Rh5 Zr1 3.215658 1_555
Rh6 Zr7 2.748916 1_455
Rh6 Zr1 2.749063 1_545
Rh6 Zr13 2.749207 1_555
Rh6 Zr10 2.782582 1_555
Rh6 Zr11 2.782709 1_555
Rh6 Zr8 2.782905 1_555
Rh6 Zr4 3.215082 1_555
Rh6 Zr0 3.215509 1_555
Rh6 Zr2 3.215770 1_555
Rh7 Zr14 2.749019 1_545
Rh7 Zr7 2.749059 1_554
Rh7 Zr12 2.749145 1_555
Rh7 Zr11 2.782596 1_555
Rh7 Zr9 2.782760 1_555
Rh7 Zr8 2.782769 1_555
Rh7 Zr15 3.215144 1_555
Rh7 Zr2 3.215355 1_555
Rh7 Zr3 3.215632 1_555
O0 Zr13 2.314858 1_554
O0 Zr3 2.314887 1_455
O0 Zr12 2.314900 1_455
O0 Zr7 2.314921 1_454
O0 Zr0 2.314981 1_554
O0 Zr5 2.315073 1_555
O1 Zr6 2.314986 1_555
O1 Zr1 2.315015 1_554
O1 Zr2 2.315024 1_564
O1 Zr13 2.315042 1_564
O1 Zr3 2.315049 1_555
O1 Zr15 2.315134 1_565
O2 Zr2 2.314873 1_565
O2 Zr6 2.314920 1_655
O2 Zr0 2.314943 1_655
O2 Zr14 2.314984 1_555
O2 Zr12 2.315001 1_565
O2 Zr4 2.315013 1_665
O3 Zr1 2.314837 1_544
O3 Zr14 2.314883 1_445
O3 Zr15 2.314887 1_455
O3 Zr7 2.314915 1_454
O3 Zr4 2.314945 1_554
O3 Zr5 2.314957 1_545
