# generated using pymatgen
data_K2ScMnF7
_symmetry_space_group_name_H-M   'P 1'
_cell_length_a   7.83921376
_cell_length_b   7.83921281
_cell_length_c   7.83921425
_cell_angle_alpha   120.74006454
_cell_angle_beta   117.42657789
_cell_angle_gamma   91.61849986
_symmetry_Int_Tables_number   1
_chemical_formula_structural   K2ScMnF7
_chemical_formula_sum   'K4 Sc2 Mn2 F14'
_cell_volume   344.86751418
_cell_formula_units_Z   2
loop_
 _symmetry_equiv_pos_site_id
 _symmetry_equiv_pos_as_xyz
  1  'x, y, z'
loop_
 _atom_site_type_symbol
 _atom_site_label
 _atom_site_symmetry_multiplicity
 _atom_site_fract_x
 _atom_site_fract_y
 _atom_site_fract_z
 _atom_site_occupancy
  K  K0  1  0.50000000  0.50000000  0.00000000  1
  K  K1  1  0.00000000  0.00000000  0.00000000  1
  K  K2  1  0.00000000  0.50000000  0.00000000  1
  K  K3  1  0.00000000  0.00000000  0.50000000  1
  Sc  Sc0  1  0.00000000  0.50000000  0.50000000  1
  Sc  Sc1  1  0.50000000  0.00000000  0.50000000  1
  Mn  Mn0  1  0.50000000  0.50000000  0.50000000  1
  Mn  Mn1  1  0.50000000  0.00000000  0.00000000  1
  F  F0  1  0.87457610  0.59034739  0.28422872  1
  F  F1  1  0.19388033  0.90965261  0.28422872  1
  F  F2  1  0.18628791  0.80679678  0.76285573  1
  F  F3  1  0.45605896  0.69320322  0.37949114  1
  F  F4  1  0.45605896  0.07656782  0.76285573  1
  F  F5  1  0.18628791  0.42343218  0.37949114  1
  F  F6  1  0.81371209  0.57656782  0.62050886  1
  F  F7  1  0.54394104  0.92343218  0.23714427  1
  F  F8  1  0.54394104  0.30679678  0.62050886  1
  F  F9  1  0.81371209  0.19320322  0.23714427  1
  F  F10  1  0.40104026  0.25000000  0.15104026  1
  F  F11  1  0.12542390  0.40965261  0.71577128  1
  F  F12  1  0.80611967  0.09034739  0.71577128  1
  F  F13  1  0.59895974  0.75000000  0.84895974  1
loop_
_geom_bond_atom_site_label_1
_geom_bond_atom_site_label_2
_geom_bond_distance
_geom_bond_site_symmetry_2
F0 Sc0 2.015289 1_655
F0 K0 2.516061 1_555
F0 K3 2.622436 1_665
F0 K2 2.622436 1_655
F1 Sc1 2.015295 1_565
F1 K1 2.516059 1_565
F1 K3 2.622429 1_565
F1 K2 2.622435 1_555
F2 Sc0 2.031280 1_555
F2 Mn1 2.120703 1_566
F2 K1 2.762252 1_566
F2 K3 3.035750 1_565
F3 Sc1 2.031280 1_565
F3 Mn0 2.120703 1_555
F3 K0 2.762252 1_555
F3 K2 3.035750 1_555
F4 Sc1 2.031280 1_555
F4 Mn1 2.120703 1_556
F4 K0 2.762252 1_556
F4 K3 3.035750 1_555
F5 Sc0 2.031280 1_555
F5 Mn0 2.120703 1_555
F5 K1 2.762252 1_555
F5 K2 3.035750 1_555
F6 Sc0 2.031280 1_655
F6 Mn0 2.120703 1_555
F6 K1 2.762252 1_666
F6 K2 3.035750 1_656
F7 Sc1 2.031280 1_565
F7 Mn1 2.120703 1_565
F7 K0 2.762252 1_555
F7 K3 3.035750 1_665
F8 Sc1 2.031280 1_555
F8 Mn0 2.120703 1_555
F8 K0 2.762252 1_556
F8 K2 3.035750 1_656
F9 Sc0 2.031280 1_655
F9 Mn1 2.120703 1_555
F9 K1 2.762252 1_655
F9 K3 3.035750 1_655
F10 Mn1 2.098677 1_555
F10 Mn0 2.098678 1_555
F10 K1 2.996177 1_555
F10 K0 2.996177 1_555
F11 Sc0 2.015289 1_555
F11 K0 2.516061 1_556
F11 K3 2.622436 1_555
F11 K2 2.622436 1_556
F12 Sc1 2.015295 1_555
F12 K1 2.516059 1_656
F12 K3 2.622429 1_655
F12 K2 2.622435 1_656
F13 Mn1 2.098677 1_566
F13 Mn0 2.098678 1_555
F13 K1 2.996177 1_666
F13 K0 2.996177 1_556
