# generated using pymatgen
data_Y2Ge2BOs2
_symmetry_space_group_name_H-M   'P 1'
_cell_length_a   5.88290173
_cell_length_b   5.88290215
_cell_length_c   6.94947297
_cell_angle_alpha   125.50051293
_cell_angle_beta   125.50051846
_cell_angle_gamma   42.04743303
_symmetry_Int_Tables_number   1
_chemical_formula_structural   Y2Ge2BOs2
_chemical_formula_sum   'Y2 Ge2 B1 Os2'
_cell_volume   126.11354019
_cell_formula_units_Z   1
loop_
 _symmetry_equiv_pos_site_id
 _symmetry_equiv_pos_as_xyz
  1  'x, y, z'
loop_
 _atom_site_type_symbol
 _atom_site_label
 _atom_site_symmetry_multiplicity
 _atom_site_fract_x
 _atom_site_fract_y
 _atom_site_fract_z
 _atom_site_occupancy
  Y  Y0  1  0.43645792  0.43645792  0.16875501  1
  Y  Y1  1  0.56354208  0.56354208  0.83124499  1
  Ge  Ge0  1  0.84443982  0.84443982  0.38950967  1
  Ge  Ge1  1  0.15556018  0.15556018  0.61049033  1
  B  B0  1  0.00000000  0.00000000  0.00000000  1
  Os  Os0  1  0.20982536  0.20982536  0.31298674  1
  Os  Os1  1  0.79017364  0.79017364  0.68701326  1
loop_
_geom_bond_atom_site_label_1
_geom_bond_atom_site_label_2
_geom_bond_distance
_geom_bond_site_symmetry_2
Ge0 Os0 2.438145 1_565
Ge0 Os0 2.438145 1_655
Ge0 Os1 2.482513 1_555
Ge0 Ge1 2.739455 1_665
Ge0 Y1 3.110758 1_554
Ge0 Y0 3.123811 1_655
Ge0 Y0 3.123811 1_565
Ge0 Y1 3.236857 1_655
Ge0 Y1 3.236857 1_565
Ge1 Os1 2.438140 1_545
Ge1 Os1 2.438140 1_455
Ge1 Os0 2.482505 1_555
Ge1 Y0 3.110758 1_556
Ge1 Y1 3.123811 1_455
Ge1 Y1 3.123811 1_545
Ge1 Y0 3.236857 1_455
Ge1 Y0 3.236857 1_545
B0 Os0 1.950592 1_555
B0 Os1 1.950598 1_444
B0 Y1 2.708313 1_544
B0 Y0 2.708313 1_455
B0 Y1 2.708313 1_454
B0 Y0 2.708313 1_545
