# generated using pymatgen
data_Sr2Bi2S3O2
_symmetry_space_group_name_H-M   'P 1'
_cell_length_a   9.54091728
_cell_length_b   3.98145216
_cell_length_c   13.14367209
_cell_angle_alpha   89.99992429
_cell_angle_beta   124.38672035
_cell_angle_gamma   90.00001086
_symmetry_Int_Tables_number   1
_chemical_formula_structural   Sr2Bi2S3O2
_chemical_formula_sum   'Sr4 Bi4 S6 O4'
_cell_volume   412.03199889
_cell_formula_units_Z   2
loop_
 _symmetry_equiv_pos_site_id
 _symmetry_equiv_pos_as_xyz
  1  'x, y, z'
loop_
 _atom_site_type_symbol
 _atom_site_label
 _atom_site_symmetry_multiplicity
 _atom_site_fract_x
 _atom_site_fract_y
 _atom_site_fract_z
 _atom_site_occupancy
  Sr  Sr0  1  0.89013143  0.00065513  0.09815531  1
  Sr  Sr1  1  0.10986757  0.50065913  0.40184369  1
  Sr  Sr2  1  0.89013143  0.49934287  0.59815631  1
  Sr  Sr3  1  0.10986757  0.99934587  0.90184369  1
  Bi  Bi0  1  0.63383585  0.50056003  0.19176051  1
  Bi  Bi1  1  0.36616515  0.00056303  0.30823849  1
  Bi  Bi2  1  0.63383585  0.99943397  0.69176051  1
  Bi  Bi3  1  0.36616315  0.49943297  0.80823849  1
  S  S0  1  0.50000000  0.00000100  0.00000100  1
  S  S1  1  0.21752231  0.50014626  0.12944222  1
  S  S2  1  0.78247869  0.00014326  0.37055978  1
  S  S3  1  0.50000000  0.50000100  0.50000000  1
  S  S4  1  0.21752031  0.99985774  0.62944122  1
  S  S5  1  0.78247869  0.49985474  0.87055878  1
  O  O0  1  0.84941315  0.50060296  0.18772517  1
  O  O1  1  0.15058785  0.00060496  0.31227383  1
  O  O2  1  0.84941515  0.99939604  0.68772717  1
  O  O3  1  0.15058585  0.49939504  0.81227283  1
loop_
_geom_bond_atom_site_label_1
_geom_bond_atom_site_label_2
_geom_bond_distance
_geom_bond_site_symmetry_2
Bi0 O0 2.087219 1_555
Bi0 S2 2.779550 1_565
Bi0 S2 2.781921 1_555
Bi0 S0 2.881295 1_565
Bi0 S0 2.884373 1_555
Bi1 O1 2.087219 1_555
Bi1 S1 2.779524 1_555
Bi1 S1 2.781904 1_545
Bi1 S3 2.881308 1_555
Bi1 S3 2.884394 1_545
Bi2 O2 2.087223 1_555
Bi2 S5 2.779527 1_555
Bi2 S5 2.781930 1_565
Bi2 S3 2.881285 1_555
Bi2 S3 2.884399 1_565
Bi3 O3 2.087212 1_555
Bi3 S4 2.779512 1_545
Bi3 S4 2.781930 1_555
Bi3 S0 2.881294 1_556
Bi3 S0 2.884422 1_566
S0 Sr3 3.177274 1_544
S0 Sr0 3.177275 1_555
S1 Sr3 3.237831 1_554
S1 Sr3 3.241752 1_544
S1 Sr0 3.525628 1_455
S1 Sr0 3.527915 1_465
S2 Sr2 3.237820 1_555
S2 Sr2 3.241732 1_545
S2 Sr1 3.525612 1_645
S2 Sr1 3.527931 1_655
S3 Sr2 3.177268 1_555
S3 Sr1 3.177277 1_555
S4 Sr1 3.237828 1_555
S4 Sr1 3.241744 1_565
S4 Sr2 3.525609 1_465
S4 Sr2 3.527923 1_455
S5 Sr0 3.237816 1_556
S5 Sr0 3.241737 1_566
S5 Sr3 3.525622 1_655
S5 Sr3 3.527910 1_645
O0 Sr0 2.452690 1_555
O0 Sr0 2.453024 1_565
O0 Sr1 2.489159 1_655
O1 Sr1 2.452689 1_545
O1 Sr1 2.453041 1_555
O1 Sr0 2.489166 1_455
O2 Sr2 2.452683 1_565
O2 Sr2 2.453029 1_555
O2 Sr3 2.489138 1_655
O3 Sr3 2.452707 1_555
O3 Sr3 2.453022 1_545
O3 Sr2 2.489145 1_455
