# generated using pymatgen
data_LiY2BRh5
_symmetry_space_group_name_H-M   'P 1'
_cell_length_a   5.83603209
_cell_length_b   5.76372851
_cell_length_c   5.76372935
_cell_angle_alpha   60.83168330
_cell_angle_beta   59.58415833
_cell_angle_gamma   59.58416014
_symmetry_Int_Tables_number   1
_chemical_formula_structural   LiY2BRh5
_chemical_formula_sum   'Li1 Y2 B1 Rh5'
_cell_volume   137.04756597
_cell_formula_units_Z   1
loop_
 _symmetry_equiv_pos_site_id
 _symmetry_equiv_pos_as_xyz
  1  'x, y, z'
loop_
 _atom_site_type_symbol
 _atom_site_label
 _atom_site_symmetry_multiplicity
 _atom_site_fract_x
 _atom_site_fract_y
 _atom_site_fract_z
 _atom_site_occupancy
  Li  Li0  1  0.72770274  0.27229826  0.27229826  1
  Y  Y0  1  0.24890974  0.25109026  0.25109026  1
  Y  Y1  1  0.74890974  0.75109026  0.75109026  1
  B  B0  1  0.01254964  0.98745036  0.98745036  1
  Rh  Rh0  1  0.25174381  0.74825719  0.25454987  1
  Rh  Rh1  1  0.74545013  0.74825619  0.25455087  1
  Rh  Rh2  1  0.26754226  0.73245874  0.73245874  1
  Rh  Rh3  1  0.25174381  0.25454987  0.74825719  1
  Rh  Rh4  1  0.74545013  0.25455087  0.74825619  1
loop_
_geom_bond_atom_site_label_1
_geom_bond_atom_site_label_2
_geom_bond_distance
_geom_bond_site_symmetry_2
Li0 Rh1 2.747778 1_555
Li0 Rh4 2.747779 1_555
Li0 Rh0 2.747785 1_555
Li0 Rh3 2.747785 1_555
Li0 Y0 2.922997 1_655
Li0 Y1 2.923003 1_545
Li0 Y1 2.923003 1_554
Li0 Y0 2.923009 1_555
B0 Rh2 2.052069 1_555
B0 Rh3 2.092336 1_565
B0 Rh1 2.092336 1_456
B0 Rh4 2.092336 1_465
B0 Rh0 2.092336 1_556
B0 Li0 2.292340 1_466
Rh0 Y0 2.880219 1_565
Rh0 Y1 2.880225 1_455
Rh0 Y1 2.883739 1_554
Rh0 Y0 2.883745 1_555
Rh1 Y1 2.880219 1_555
Rh1 Y0 2.880225 1_565
Rh1 Y0 2.883739 1_655
Rh1 Y1 2.883745 1_554
Rh2 Y1 2.921860 1_555
Rh2 Y0 2.921866 1_565
Rh2 Y0 2.921866 1_556
Rh2 Y1 2.921872 1_455
Rh3 Y0 2.880219 1_556
Rh3 Y1 2.880225 1_455
Rh3 Y1 2.883739 1_545
Rh3 Y0 2.883745 1_555
Rh4 Y1 2.880219 1_555
Rh4 Y0 2.880225 1_556
Rh4 Y0 2.883739 1_655
Rh4 Y1 2.883745 1_545
