# generated using pymatgen
data_Ba4Si3Cl2
_symmetry_space_group_name_H-M   'P 1'
_cell_length_a   8.77103133
_cell_length_b   8.74994927
_cell_length_c   14.99642269
_cell_angle_alpha   78.07438839
_cell_angle_beta   90.00000000
_cell_angle_gamma   90.00000000
_symmetry_Int_Tables_number   1
_chemical_formula_structural   Ba4Si3Cl2
_chemical_formula_sum   'Ba16 Si12 Cl8'
_cell_volume   1126.07607820
_cell_formula_units_Z   4
loop_
 _symmetry_equiv_pos_site_id
 _symmetry_equiv_pos_as_xyz
  1  'x, y, z'
loop_
 _atom_site_type_symbol
 _atom_site_label
 _atom_site_symmetry_multiplicity
 _atom_site_fract_x
 _atom_site_fract_y
 _atom_site_fract_z
 _atom_site_occupancy
  Ba  Ba0  1  0.71131441  0.52197073  0.95510604  1
  Ba  Ba1  1  0.21131441  0.97802927  0.04489396  1
  Ba  Ba2  1  0.28868559  0.47802927  0.04489396  1
  Ba  Ba3  1  0.78868559  0.02197073  0.95510604  1
  Ba  Ba4  1  0.66603008  0.73512813  0.33951184  1
  Ba  Ba5  1  0.16603008  0.76487187  0.66048816  1
  Ba  Ba6  1  0.33396992  0.26487187  0.66048816  1
  Ba  Ba7  1  0.83396992  0.23512813  0.33951184  1
  Ba  Ba8  1  0.05656856  0.37566885  0.84705095  1
  Ba  Ba9  1  0.55656856  0.12433115  0.15294905  1
  Ba  Ba10  1  0.94343144  0.62433115  0.15294905  1
  Ba  Ba11  1  0.44343144  0.87566885  0.84705095  1
  Ba  Ba12  1  0.67877238  0.62463794  0.64368898  1
  Ba  Ba13  1  0.17877238  0.87536206  0.35631102  1
  Ba  Ba14  1  0.32122762  0.37536206  0.35631102  1
  Ba  Ba15  1  0.82122762  0.12463794  0.64368898  1
  Si  Si0  1  0.06214141  0.74275859  0.90935508  1
  Si  Si1  1  0.56214141  0.75724141  0.09064492  1
  Si  Si2  1  0.93785859  0.25724141  0.09064492  1
  Si  Si3  1  0.43785859  0.24275859  0.90935508  1
  Si  Si4  1  0.43150630  0.49422372  0.80861232  1
  Si  Si5  1  0.93150630  0.00577628  0.19138768  1
  Si  Si6  1  0.56849370  0.50577628  0.19138768  1
  Si  Si7  1  0.06849370  0.99422372  0.80861232  1
  Si  Si8  1  0.63182500  0.30430885  0.79595061  1
  Si  Si9  1  0.13182500  0.19569115  0.20404939  1
  Si  Si10  1  0.36817500  0.69569115  0.20404939  1
  Si  Si11  1  0.86817500  0.80430885  0.79595061  1
  Cl  Cl0  1  0.36382232  0.63116026  0.50734626  1
  Cl  Cl1  1  0.86382232  0.86883974  0.49265374  1
  Cl  Cl2  1  0.63617768  0.36883974  0.49265374  1
  Cl  Cl3  1  0.13617768  0.13116026  0.50734626  1
  Cl  Cl4  1  0.49296140  0.94795840  0.63416963  1
  Cl  Cl5  1  0.99296140  0.55204160  0.36583037  1
  Cl  Cl6  1  0.50703860  0.05204160  0.36583037  1
  Cl  Cl7  1  0.00703860  0.44795840  0.63416963  1
loop_
_geom_bond_atom_site_label_1
_geom_bond_atom_site_label_2
_geom_bond_distance
_geom_bond_site_symmetry_2
Ba0 Si4 3.335984 1_555
Ba0 Si11 3.354961 1_555
Ba0 Si2 3.391084 1_556
Ba0 Si8 3.418861 1_555
Ba0 Si1 3.436647 1_556
Ba0 Si3 3.589559 1_555
Ba0 Si0 3.622671 1_655
Ba0 Si6 3.733273 1_556
Ba1 Si5 3.335984 1_465
Ba1 Si10 3.354961 1_555
Ba1 Si3 3.391084 1_564
Ba1 Si9 3.418861 1_565
Ba1 Si0 3.436647 1_554
Ba1 Si2 3.589559 1_465
Ba1 Si1 3.622671 1_555
Ba1 Si7 3.733273 1_554
Ba2 Si6 3.335984 1_555
Ba2 Si9 3.354961 1_555
Ba2 Si0 3.391084 1_554
Ba2 Si10 3.418861 1_555
Ba2 Si3 3.436647 1_554
Ba2 Si1 3.589559 1_555
Ba2 Si2 3.622671 1_455
Ba2 Si4 3.733273 1_554
Ba3 Si7 3.335984 1_645
Ba3 Si8 3.354961 1_555
Ba3 Si1 3.391084 1_546
Ba3 Si11 3.418861 1_545
Ba3 Si2 3.436647 1_556
Ba3 Si0 3.589559 1_645
Ba3 Si3 3.622671 1_555
Ba3 Si5 3.733273 1_556
Ba4 Cl6 3.200340 1_565
Ba4 Cl5 3.268571 1_555
Ba4 Cl1 3.280739 1_555
Ba4 Si10 3.370567 1_555
Ba4 Si6 3.396445 1_555
Ba4 Cl2 3.545829 1_555
Ba4 Cl0 3.638988 1_555
Ba4 Si5 3.713535 1_565
Ba4 Si1 3.807620 1_555
Ba5 Cl7 3.200340 1_555
Ba5 Cl4 3.268571 1_555
Ba5 Cl0 3.280739 1_555
Ba5 Si11 3.370567 1_455
Ba5 Si7 3.396445 1_555
Ba5 Cl3 3.545829 1_565
Ba5 Cl1 3.638988 1_455
Ba5 Si4 3.713535 1_555
Ba5 Si0 3.807620 1_555
Ba6 Cl4 3.200340 1_545
Ba6 Cl7 3.268571 1_555
Ba6 Cl3 3.280739 1_555
Ba6 Si8 3.370567 1_555
Ba6 Si4 3.396445 1_555
Ba6 Cl0 3.545829 1_555
Ba6 Cl2 3.638988 1_555
Ba6 Si7 3.713535 1_545
Ba6 Si3 3.807620 1_555
Ba7 Cl5 3.200340 1_555
Ba7 Cl6 3.268571 1_555
Ba7 Cl2 3.280739 1_555
Ba7 Si9 3.370567 1_655
Ba7 Si5 3.396445 1_555
Ba7 Cl1 3.545829 1_545
Ba7 Cl3 3.638988 1_655
Ba7 Si6 3.713535 1_555
Ba7 Si2 3.807620 1_555
Ba8 Cl7 3.153737 1_555
Ba8 Si4 3.460647 1_555
Ba8 Si7 3.504013 1_545
Ba8 Si0 3.526009 1_555
Ba8 Si3 3.600108 1_555
Ba8 Si2 3.733382 1_456
Ba8 Si8 3.879919 1_455
Ba9 Cl6 3.153737 1_555
Ba9 Si5 3.460647 1_555
Ba9 Si6 3.504013 1_555
Ba9 Si1 3.526009 1_545
Ba9 Si2 3.600108 1_555
Ba9 Si3 3.733382 1_554
Ba9 Si9 3.879919 1_555
Ba10 Cl5 3.153737 1_555
Ba10 Si6 3.460647 1_555
Ba10 Si5 3.504013 1_565
Ba10 Si2 3.526009 1_555
Ba10 Si1 3.600108 1_555
Ba10 Si0 3.733382 1_654
Ba10 Si10 3.879919 1_655
Ba11 Cl4 3.153737 1_555
Ba11 Si7 3.460647 1_555
Ba11 Si4 3.504013 1_555
Ba11 Si3 3.526009 1_565
Ba11 Si0 3.600108 1_555
Ba11 Si1 3.733382 1_556
Ba11 Si11 3.879919 1_555
Ba12 Cl1 3.214047 1_555
Ba12 Cl4 3.242379 1_555
Ba12 Si8 3.254906 1_555
Ba12 Cl7 3.285041 1_655
Ba12 Si4 3.310040 1_555
Ba12 Cl0 3.430262 1_555
Ba12 Si11 3.453796 1_555
Ba12 Cl2 3.517747 1_555
Ba13 Cl0 3.214047 1_555
Ba13 Cl5 3.242379 1_455
Ba13 Si9 3.254906 1_565
Ba13 Cl6 3.285041 1_565
Ba13 Si5 3.310040 1_465
Ba13 Cl1 3.430262 1_455
Ba13 Si10 3.453796 1_555
Ba13 Cl3 3.517747 1_565
Ba14 Cl3 3.214047 1_555
Ba14 Cl6 3.242379 1_555
Ba14 Si10 3.254906 1_555
Ba14 Cl5 3.285041 1_455
Ba14 Si6 3.310040 1_555
Ba14 Cl2 3.430262 1_555
Ba14 Si9 3.453796 1_555
Ba14 Cl0 3.517747 1_555
Ba15 Cl2 3.214047 1_555
Ba15 Cl7 3.242379 1_655
Ba15 Si11 3.254906 1_545
Ba15 Cl4 3.285041 1_545
Ba15 Si7 3.310040 1_645
Ba15 Cl3 3.430262 1_655
Ba15 Si8 3.453796 1_555
Ba15 Cl1 3.517747 1_545
Si0 Si11 2.387078 1_455
Si0 Si7 2.398559 1_555
Si1 Si10 2.387078 1_555
Si1 Si6 2.398559 1_555
Si2 Si9 2.387078 1_655
Si2 Si5 2.398559 1_555
Si3 Si8 2.387078 1_555
Si3 Si4 2.398559 1_555
Si4 Si8 2.452532 1_555
Si5 Si9 2.452532 1_655
Si10 Si6 2.452532 1_555
Si11 Si7 2.452532 1_655
