# generated using pymatgen
data_Sr5Bi2PbBr
_symmetry_space_group_name_H-M   'P 1'
_cell_length_a   9.85860761
_cell_length_b   9.95540878
_cell_length_c   7.52122710
_cell_angle_alpha   90.00000000
_cell_angle_beta   90.00000000
_cell_angle_gamma   119.68887910
_symmetry_Int_Tables_number   1
_chemical_formula_structural   Sr5Bi2PbBr
_chemical_formula_sum   'Sr10 Bi4 Pb2 Br2'
_cell_volume   641.27902189
_cell_formula_units_Z   2
loop_
 _symmetry_equiv_pos_site_id
 _symmetry_equiv_pos_as_xyz
  1  'x, y, z'
loop_
 _atom_site_type_symbol
 _atom_site_label
 _atom_site_symmetry_multiplicity
 _atom_site_fract_x
 _atom_site_fract_y
 _atom_site_fract_z
 _atom_site_occupancy
  Sr  Sr0  1  0.74862546  0.99999376  0.75000000  1
  Sr  Sr1  1  0.99747385  0.26313790  0.25000000  1
  Sr  Sr2  1  0.73434087  0.73684343  0.25000000  1
  Sr  Sr3  1  0.33009888  0.66024233  0.49999987  1
  Sr  Sr4  1  0.33009888  0.66024233  0.00000013  1
  Sr  Sr5  1  0.66990112  0.33975767  0.50000013  1
  Sr  Sr6  1  0.66990112  0.33975767  0.99999987  1
  Sr  Sr7  1  0.25137454  0.00000624  0.25000000  1
  Sr  Sr8  1  0.26565913  0.26315657  0.75000000  1
  Sr  Sr9  1  0.00252615  0.73686210  0.75000000  1
  Bi  Bi0  1  0.99823875  0.61111771  0.25000000  1
  Bi  Bi1  1  0.61296161  0.61118617  0.75000000  1
  Bi  Bi2  1  0.00176125  0.38888229  0.75000000  1
  Bi  Bi3  1  0.38703839  0.38881383  0.25000000  1
  Pb  Pb0  1  0.41327336  0.00011604  0.75000000  1
  Pb  Pb1  1  0.58672664  0.99988396  0.25000000  1
  Br  Br0  1  0.00000000  0.00000000  0.50000000  1
  Br  Br1  1  0.00000000  0.00000000  0.00000000  1
loop_
_geom_bond_atom_site_label_1
_geom_bond_atom_site_label_2
_geom_bond_distance
_geom_bond_site_symmetry_2
Bi0 Sr2 3.400147 1_555
Bi0 Sr7 3.412627 1_665
Bi0 Sr1 3.460552 1_555
Bi0 Sr5 3.556581 1_555
Bi0 Sr6 3.556581 1_554
Bi0 Sr3 3.590772 1_655
Bi0 Sr4 3.590772 1_655
Bi0 Sr9 3.957105 1_655
Bi0 Sr9 3.957105 1_654
Bi1 Sr9 3.399330 1_655
Bi1 Sr0 3.412218 1_555
Bi1 Sr8 3.460713 1_555
Bi1 Sr6 3.557388 1_555
Bi1 Sr5 3.557388 1_555
Bi1 Sr4 3.591602 1_556
Bi1 Sr3 3.591602 1_555
Bi1 Sr2 3.956794 1_556
Bi1 Sr2 3.956794 1_555
Bi2 Sr8 3.400147 1_555
Bi2 Sr0 3.412627 1_445
Bi2 Sr9 3.460552 1_555
Bi2 Sr4 3.556581 1_556
Bi2 Sr3 3.556581 1_555
Bi2 Sr6 3.590772 1_455
Bi2 Sr5 3.590772 1_455
Bi2 Sr1 3.957105 1_456
Bi2 Sr1 3.957105 1_455
Bi3 Sr1 3.399330 1_455
Bi3 Sr7 3.412218 1_555
Bi3 Sr2 3.460713 1_555
Bi3 Sr3 3.557388 1_555
Bi3 Sr4 3.557388 1_555
Bi3 Sr5 3.591602 1_555
Bi3 Sr6 3.591602 1_554
Bi3 Sr8 3.956794 1_554
Bi3 Sr8 3.956794 1_555
Pb0 Sr0 3.306708 1_545
Pb0 Sr8 3.570751 1_555
Pb0 Sr9 3.571206 1_545
Pb0 Sr6 3.591016 1_555
Pb0 Sr5 3.591016 1_555
Pb0 Sr4 3.592799 1_546
Pb0 Sr3 3.592799 1_545
Pb1 Sr7 3.306708 1_565
Pb1 Sr2 3.570751 1_555
Pb1 Sr1 3.571206 1_565
Pb1 Sr3 3.591016 1_555
Pb1 Sr4 3.591016 1_555
Pb1 Sr5 3.592799 1_565
Pb1 Sr6 3.592799 1_564
Br0 Sr7 3.110770 1_555
Br0 Sr0 3.110770 1_445
Br0 Sr8 3.234440 1_555
Br0 Sr2 3.234440 1_445
Br0 Sr1 3.234709 1_455
Br0 Sr9 3.234709 1_545
Br1 Sr7 3.110770 1_555
Br1 Sr0 3.110770 1_444
Br1 Sr8 3.234440 1_554
Br1 Sr2 3.234440 1_445
Br1 Sr1 3.234709 1_455
Br1 Sr9 3.234709 1_544
