# generated using pymatgen
data_CsCa(BH4)3
_symmetry_space_group_name_H-M   'P 1'
_cell_length_a   5.77956575
_cell_length_b   8.03244110
_cell_length_c   8.00309284
_cell_angle_alpha   90.00000000
_cell_angle_beta   90.00000000
_cell_angle_gamma   90.00000000
_symmetry_Int_Tables_number   1
_chemical_formula_structural   CsCa(BH4)3
_chemical_formula_sum   'Cs2 Ca2 B6 H24'
_cell_volume   371.53575393
_cell_formula_units_Z   2
loop_
 _symmetry_equiv_pos_site_id
 _symmetry_equiv_pos_as_xyz
  1  'x, y, z'
loop_
 _atom_site_type_symbol
 _atom_site_label
 _atom_site_symmetry_multiplicity
 _atom_site_fract_x
 _atom_site_fract_y
 _atom_site_fract_z
 _atom_site_occupancy
  Cs  Cs0  1  0.47583978  0.50000000  0.00000000  1
  Cs  Cs1  1  0.52416022  0.00000000  0.50000000  1
  Ca  Ca0  1  0.99197660  0.50000000  0.50000000  1
  Ca  Ca1  1  0.00802340  0.00000000  0.00000000  1
  B  B0  1  0.94784680  0.72626990  0.76084761  1
  B  B1  1  0.94784680  0.27373010  0.23915239  1
  B  B2  1  0.05215320  0.22626990  0.73915239  1
  B  B3  1  0.05215320  0.77373010  0.26084761  1
  B  B4  1  0.51141711  0.00000000  0.00000000  1
  B  B5  1  0.48858289  0.50000000  0.50000000  1
  H  H0  1  0.94476336  0.57565465  0.78430663  1
  H  H1  1  0.94476336  0.42434535  0.21569337  1
  H  H2  1  0.05523664  0.07565465  0.71569337  1
  H  H3  1  0.05523664  0.92434535  0.28430663  1
  H  H4  1  0.92733937  0.76115080  0.61290741  1
  H  H5  1  0.92733937  0.23884920  0.38709259  1
  H  H6  1  0.07266063  0.26115080  0.88709259  1
  H  H7  1  0.07266063  0.73884920  0.11290741  1
  H  H8  1  0.78717933  0.78866226  0.83627143  1
  H  H9  1  0.78717933  0.21133774  0.16372857  1
  H  H10  1  0.21282067  0.28866226  0.66372857  1
  H  H11  1  0.21282067  0.71133774  0.33627143  1
  H  H12  1  0.13387531  0.77923754  0.80770243  1
  H  H13  1  0.13387531  0.22076246  0.19229757  1
  H  H14  1  0.86612469  0.27923754  0.69229757  1
  H  H15  1  0.86612469  0.72076246  0.30770243  1
  H  H16  1  0.63073170  0.91653817  0.09512333  1
  H  H17  1  0.63073170  0.08346183  0.90487667  1
  H  H18  1  0.36926830  0.41653817  0.40487667  1
  H  H19  1  0.36926830  0.58346183  0.59512333  1
  H  H20  1  0.39361404  0.90562746  0.91642335  1
  H  H21  1  0.39361404  0.09437254  0.08357665  1
  H  H22  1  0.60638596  0.40562746  0.58357665  1
  H  H23  1  0.60638596  0.59437254  0.41642335  1
loop_
_geom_bond_atom_site_label_1
_geom_bond_atom_site_label_2
_geom_bond_distance
_geom_bond_site_symmetry_2
Cs0 H7 3.150737 1_555
Cs0 H6 3.150737 1_554
Cs0 H8 3.214194 1_554
Cs0 H9 3.214194 1_555
Cs0 H1 3.270191 1_555
Cs0 H0 3.270191 1_554
Cs0 H20 3.359905 1_554
Cs0 H21 3.359905 1_555
Cs0 H12 3.362364 1_554
Cs0 H13 3.362364 1_555
Cs0 H18 3.365730 1_555
Cs0 H19 3.365730 1_554
Cs1 H5 3.150737 1_555
Cs1 H4 3.150737 1_545
Cs1 H10 3.214194 1_555
Cs1 H11 3.214194 1_545
Cs1 H2 3.270191 1_555
Cs1 H3 3.270191 1_545
Cs1 H22 3.359905 1_555
Cs1 H23 3.359905 1_545
Cs1 H14 3.362364 1_555
Cs1 H15 3.362364 1_545
Cs1 H17 3.365730 1_555
Cs1 H16 3.365730 1_545
Ca0 H4 2.314373 1_555
Ca0 H5 2.314373 1_555
Ca0 H0 2.370841 1_555
Ca0 H1 2.370841 1_555
Ca0 H18 2.404979 1_655
Ca0 H19 2.404979 1_655
Ca0 H22 2.447128 1_555
Ca0 H23 2.447128 1_555
Ca0 H15 2.458041 1_555
Ca0 H14 2.458041 1_555
Ca0 H11 2.495563 1_655
Ca0 H10 2.495563 1_655
Ca1 H7 2.314373 1_545
Ca1 H6 2.314373 1_554
Ca1 H3 2.370841 1_545
Ca1 H2 2.370841 1_554
Ca1 H17 2.404979 1_454
Ca1 H16 2.404979 1_445
Ca1 H21 2.447128 1_555
Ca1 H20 2.447128 1_544
Ca1 H13 2.458041 1_555
Ca1 H12 2.458041 1_544
Ca1 H9 2.495563 1_455
Ca1 H8 2.495563 1_444
B0 H12 1.215568 1_655
B0 H8 1.215649 1_555
B0 H4 1.222438 1_555
B0 H0 1.224419 1_555
B1 H13 1.215568 1_655
B1 H9 1.215649 1_555
B1 H5 1.222438 1_555
B1 H1 1.224419 1_555
B2 H14 1.215568 1_455
B2 H10 1.215649 1_555
B2 H6 1.222438 1_555
B2 H2 1.224419 1_555
B3 H15 1.215568 1_455
B3 H11 1.215649 1_555
B3 H7 1.222438 1_555
B3 H3 1.224419 1_555
B4 H21 1.218841 1_555
B4 H20 1.218841 1_544
B4 H17 1.226588 1_554
B4 H16 1.226588 1_545
B5 H23 1.218841 1_555
B5 H22 1.218841 1_555
B5 H18 1.226588 1_555
B5 H19 1.226588 1_555
