# generated using pymatgen
data_Ba8Si12HgAu3
_symmetry_space_group_name_H-M   'P 1'
_cell_length_a   12.55519950
_cell_length_b   11.01080126
_cell_length_c   8.52242615
_cell_angle_alpha   78.86750675
_cell_angle_beta   59.42567761
_cell_angle_gamma   41.76091780
_symmetry_Int_Tables_number   1
_chemical_formula_structural   Ba8Si12HgAu3
_chemical_formula_sum   'Ba8 Si12 Hg1 Au3'
_cell_volume   638.92374556
_cell_formula_units_Z   1
loop_
 _symmetry_equiv_pos_site_id
 _symmetry_equiv_pos_as_xyz
  1  'x, y, z'
loop_
 _atom_site_type_symbol
 _atom_site_label
 _atom_site_symmetry_multiplicity
 _atom_site_fract_x
 _atom_site_fract_y
 _atom_site_fract_z
 _atom_site_occupancy
  Ba  Ba0  1  0.12955430  0.12583820  0.36912359  1
  Ba  Ba1  1  0.87476479  0.87190059  0.12851943  1
  Ba  Ba2  1  0.12851943  0.12481619  0.87476479  1
  Ba  Ba3  1  0.36912359  0.37548491  0.12955430  1
  Ba  Ba4  1  0.62482955  0.62494474  0.37454182  1
  Ba  Ba5  1  0.37454182  0.37568289  0.62482955  1
  Ba  Ba6  1  0.62536085  0.63096767  0.87363507  1
  Ba  Ba7  1  0.87363507  0.87003541  0.62536085  1
  Si  Si0  1  0.33344242  0.66148978  0.83100418  1
  Si  Si1  1  0.18678536  0.81825295  0.65509397  1
  Si  Si2  1  0.83100418  0.17406262  0.33344242  1
  Si  Si3  1  0.65509397  0.33986772  0.18678536  1
  Si  Si4  1  0.91233123  0.58867460  0.42546651  1
  Si  Si5  1  0.07183119  0.42258525  0.59092312  1
  Si  Si6  1  0.42546651  0.07352766  0.91233123  1
  Si  Si7  1  0.91262901  0.58737099  0.91262901  1
  Si  Si8  1  0.65815908  0.34184092  0.65815908  1
  Si  Si9  1  0.33518556  0.66481444  0.33518556  1
  Si  Si10  1  0.58724142  0.91275858  0.58724142  1
  Si  Si11  1  0.59092312  0.91466244  0.07183119  1
  Hg  Hg0  1  0.83292994  0.16707006  0.83292994  1
  Au  Au0  1  0.08296957  0.41703043  0.08296957  1
  Au  Au1  1  0.16681503  0.83318497  0.16681503  1
  Au  Au2  1  0.41686204  0.08313796  0.41686204  1
loop_
_geom_bond_atom_site_label_1
_geom_bond_atom_site_label_2
_geom_bond_distance
_geom_bond_site_symmetry_2
Ba0 Si5 3.497582 1_555
Ba0 Si6 3.499963 1_554
Ba0 Si4 3.538017 1_455
Ba0 Si2 3.542952 1_455
Ba0 Si11 3.553960 1_545
Ba0 Si9 3.573924 1_545
Ba0 Si1 3.590245 1_545
Ba0 Hg0 3.590944 1_455
Ba0 Si8 3.630958 1_455
Ba1 Si11 3.509329 1_555
Ba1 Si4 3.510643 1_555
Ba1 Si10 3.523750 1_555
Ba1 Si0 3.531268 1_654
Ba1 Si7 3.541256 1_554
Ba1 Si3 3.577309 1_565
Ba1 Hg0 3.580858 1_564
Ba1 Si2 3.600238 1_565
Ba1 Si1 3.655560 1_654
Ba2 Si5 3.509336 1_555
Ba2 Si6 3.510636 1_555
Ba2 Si10 3.523745 1_545
Ba2 Si2 3.531277 1_456
Ba2 Si7 3.541246 1_455
Ba2 Si1 3.577319 1_545
Ba2 Hg0 3.580866 1_455
Ba2 Si0 3.600258 1_545
Ba2 Si3 3.655564 1_456
Ba3 Si11 3.497572 1_545
Ba3 Si4 3.499967 1_455
Ba3 Si6 3.538027 1_554
Ba3 Si0 3.542937 1_554
Ba3 Si5 3.553956 1_555
Ba3 Si9 3.573914 1_555
Ba3 Si3 3.590238 1_555
Ba3 Hg0 3.590939 1_554
Ba3 Si8 3.630954 1_554
Ba4 Si1 3.408558 1_555
Ba4 Si8 3.450778 1_555
Ba4 Si2 3.470933 1_555
Ba4 Si3 3.478411 1_555
Ba4 Si9 3.511690 1_555
Ba4 Si0 3.550974 1_555
Ba4 Si7 3.557049 1_554
Ba4 Si10 3.559280 1_555
Ba4 Si4 3.571209 1_555
Ba4 Si11 3.595321 1_555
Ba5 Si3 3.408563 1_555
Ba5 Si8 3.450785 1_555
Ba5 Si0 3.470933 1_555
Ba5 Si1 3.478421 1_555
Ba5 Si9 3.511697 1_555
Ba5 Si2 3.550974 1_555
Ba5 Si7 3.557045 1_455
Ba5 Si10 3.559270 1_545
Ba5 Si6 3.571201 1_555
Ba5 Si5 3.595300 1_555
Ba6 Si6 3.418559 1_565
Ba6 Si5 3.420365 1_655
Ba6 Si10 3.444131 1_555
Ba6 Si7 3.453120 1_555
Ba6 Si4 3.459876 1_555
Ba6 Si11 3.475224 1_556
Ba6 Si9 3.584170 1_556
Ba6 Hg0 3.592778 1_555
Ba6 Si0 3.625986 1_555
Ba6 Si8 3.634438 1_555
Ba6 Si3 3.668876 1_556
Ba7 Si4 3.418550 1_555
Ba7 Si11 3.420351 1_556
Ba7 Si10 3.444124 1_555
Ba7 Si7 3.453112 1_555
Ba7 Si6 3.459871 1_565
Ba7 Si5 3.475194 1_655
Ba7 Si9 3.584175 1_655
Ba7 Hg0 3.592788 1_565
Ba7 Si2 3.625986 1_565
Ba7 Si8 3.634448 1_565
Ba7 Si1 3.668884 1_655
Si0 Si8 2.379989 1_555
Si0 Si1 2.384281 1_555
Si1 Si9 2.381999 1_555
Si2 Si8 2.379992 1_555
Si2 Si3 2.384281 1_555
Si3 Si9 2.381998 1_555
Hg0 Si8 2.579751 1_555
Hg0 Si1 2.593816 1_645
Hg0 Si3 2.593817 1_556
Au0 Si7 2.514356 1_454
Au0 Si6 2.531747 1_554
Au0 Si4 2.531747 1_455
Au0 Ba0 3.493357 1_555
Au0 Ba3 3.493364 1_555
Au0 Ba2 3.500740 1_554
Au0 Ba1 3.500749 1_455
Au0 Ba5 3.537307 1_554
Au0 Ba4 3.537312 1_455
Au1 Si9 2.485277 1_555
Au1 Si2 2.497855 1_465
Au1 Si0 2.497859 1_554
Au1 Ba1 3.544725 1_455
Au1 Ba2 3.544732 1_564
Au1 Ba3 3.556820 1_555
Au1 Ba0 3.556830 1_565
Au1 Ba6 3.568760 1_554
Au1 Ba7 3.568765 1_455
Au2 Si10 2.514929 1_545
Au2 Si11 2.526797 1_545
Au2 Si5 2.526804 1_555
Au2 Ba0 3.505349 1_555
Au2 Ba3 3.505356 1_555
Au2 Ba2 3.519427 1_555
Au2 Ba1 3.519432 1_545
Au2 Ba5 3.534507 1_555
Au2 Ba4 3.534516 1_545
