# generated using pymatgen
data_Ta3CrSi2C
_symmetry_space_group_name_H-M   'P 1'
_cell_length_a   8.06302746
_cell_length_b   8.06302797
_cell_length_c   8.06302704
_cell_angle_alpha   59.99999975
_cell_angle_beta   59.99999768
_cell_angle_gamma   60.00000286
_symmetry_Int_Tables_number   1
_chemical_formula_structural   Ta3CrSi2C
_chemical_formula_sum   'Ta12 Cr4 Si8 C4'
_cell_volume   370.66316066
_cell_formula_units_Z   4
loop_
 _symmetry_equiv_pos_site_id
 _symmetry_equiv_pos_as_xyz
  1  'x, y, z'
loop_
 _atom_site_type_symbol
 _atom_site_label
 _atom_site_symmetry_multiplicity
 _atom_site_fract_x
 _atom_site_fract_y
 _atom_site_fract_z
 _atom_site_occupancy
  Ta  Ta0  1  0.55180440  0.94819560  0.55180440  1
  Ta  Ta1  1  0.30180440  0.69819560  0.69819560  1
  Ta  Ta2  1  0.69819560  0.30180440  0.30180440  1
  Ta  Ta3  1  0.30180440  0.69819560  0.30180440  1
  Ta  Ta4  1  0.69819560  0.69819560  0.30180440  1
  Ta  Ta5  1  0.30180440  0.30180440  0.69819560  1
  Ta  Ta6  1  0.55180440  0.55180440  0.94819560  1
  Ta  Ta7  1  0.94819560  0.55180440  0.55180440  1
  Ta  Ta8  1  0.55180440  0.94819560  0.94819560  1
  Ta  Ta9  1  0.94819560  0.94819560  0.55180440  1
  Ta  Ta10  1  0.69819560  0.30180440  0.69819560  1
  Ta  Ta11  1  0.94819560  0.55180440  0.94819560  1
  Cr  Cr0  1  0.12500000  0.12500000  0.12500000  1
  Cr  Cr1  1  0.62500000  0.12500000  0.12500000  1
  Cr  Cr2  1  0.12500000  0.62500000  0.12500000  1
  Cr  Cr3  1  0.12500000  0.12500000  0.62500000  1
  Si  Si0  1  0.91645431  0.91645431  0.91645431  1
  Si  Si1  1  0.99936192  0.33354569  0.33354569  1
  Si  Si2  1  0.33354569  0.99936192  0.33354569  1
  Si  Si3  1  0.33354569  0.33354569  0.99936192  1
  Si  Si4  1  0.91645431  0.25063808  0.91645431  1
  Si  Si5  1  0.91645431  0.91645431  0.25063808  1
  Si  Si6  1  0.25063808  0.91645431  0.91645431  1
  Si  Si7  1  0.33354569  0.33354569  0.33354569  1
  C  C0  1  0.62500000  0.62500000  0.62500000  1
  C  C1  1  0.12500000  0.62500000  0.62500000  1
  C  C2  1  0.62500000  0.12500000  0.62500000  1
  C  C3  1  0.62500000  0.62500000  0.12500000  1
loop_
_geom_bond_atom_site_label_1
_geom_bond_atom_site_label_2
_geom_bond_distance
_geom_bond_site_symmetry_2
Cr0 Si2 2.470187 1_545
Cr0 Si4 2.470187 1_454
Cr0 Si3 2.470187 1_554
Cr0 Si5 2.470187 1_445
Cr0 Si1 2.470187 1_455
Cr0 Si6 2.470187 1_544
Cr0 Ta9 2.850934 1_445
Cr0 Ta5 2.850934 1_554
Cr0 Ta8 2.850934 1_544
Cr0 Ta2 2.850934 1_455
Cr0 Ta11 2.850934 1_454
Cr0 Ta3 2.850934 1_545
Cr1 Si7 2.470189 1_555
Cr1 Si0 2.470189 1_544
Cr1 Si4 2.470193 1_554
Cr1 Si2 2.470193 1_545
Cr1 Si5 2.470194 1_545
Cr1 Si3 2.470194 1_554
Cr1 Ta0 2.850934 1_545
Cr1 Ta10 2.850934 1_554
Cr1 Ta2 2.850934 1_555
Cr1 Ta8 2.850934 1_544
Cr1 Ta6 2.850934 1_554
Cr1 Ta4 2.850934 1_545
Cr2 Si7 2.470189 1_555
Cr2 Si0 2.470189 1_454
Cr2 Si6 2.470194 1_554
Cr2 Si1 2.470194 1_455
Cr2 Si5 2.470194 1_455
Cr2 Si3 2.470194 1_554
Cr2 Ta7 2.850934 1_455
Cr2 Ta1 2.850934 1_554
Cr2 Ta6 2.850934 1_554
Cr2 Ta4 2.850934 1_455
Cr2 Ta3 2.850934 1_555
Cr2 Ta11 2.850934 1_454
Cr3 Si7 2.470189 1_555
Cr3 Si0 2.470189 1_445
Cr3 Si4 2.470193 1_455
Cr3 Si2 2.470193 1_545
Cr3 Si6 2.470193 1_545
Cr3 Si1 2.470193 1_455
Cr3 Ta5 2.850934 1_555
Cr3 Ta9 2.850934 1_445
Cr3 Ta0 2.850934 1_545
Cr3 Ta10 2.850934 1_455
Cr3 Ta7 2.850934 1_455
Cr3 Ta1 2.850934 1_545
Si0 Si5 2.694533 1_556
Si0 Si6 2.694533 1_655
Si0 Si4 2.694533 1_565
Si0 Ta9 2.708543 1_555
Si0 Ta8 2.708543 1_555
Si0 Ta11 2.708543 1_555
Si0 Ta4 2.830034 1_556
Si0 Ta1 2.830034 1_655
Si0 Ta10 2.830034 1_565
Si1 Si3 2.694533 1_654
Si1 Si7 2.694533 1_655
Si1 Si2 2.694533 1_645
Si1 Ta2 2.708535 1_555
Si1 Ta10 2.708540 1_555
Si1 Ta4 2.708540 1_555
Si1 Ta11 2.830030 1_554
Si1 Ta9 2.830031 1_545
Si1 Ta7 2.830038 1_555
Si2 Si3 2.694533 1_564
Si2 Si7 2.694533 1_565
Si2 Ta3 2.708535 1_555
Si2 Ta1 2.708540 1_555
Si2 Ta4 2.708540 1_555
Si2 Ta8 2.830030 1_554
Si2 Ta9 2.830031 1_455
Si2 Ta0 2.830037 1_555
Si3 Si7 2.694533 1_556
Si3 Ta5 2.708535 1_555
Si3 Ta10 2.708540 1_555
Si3 Ta1 2.708540 1_555
Si3 Ta11 2.830031 1_455
Si3 Ta8 2.830031 1_545
Si3 Ta6 2.830038 1_555
Si4 Si5 2.694533 1_546
Si4 Si6 2.694533 1_645
Si4 Ta11 2.708535 1_555
Si4 Ta7 2.708540 1_555
Si4 Ta6 2.708540 1_555
Si4 Ta2 2.830030 1_556
Si4 Ta5 2.830031 1_655
Si4 Ta10 2.830037 1_555
Si5 Si6 2.694533 1_654
Si5 Ta9 2.708535 1_555
Si5 Ta0 2.708540 1_555
Si5 Ta7 2.708540 1_555
Si5 Ta3 2.830031 1_655
Si5 Ta2 2.830031 1_565
Si5 Ta4 2.830038 1_555
Si6 Ta8 2.708535 1_555
Si6 Ta0 2.708540 1_555
Si6 Ta6 2.708540 1_555
Si6 Ta3 2.830030 1_556
Si6 Ta5 2.830031 1_565
Si6 Ta1 2.830038 1_555
Si7 Ta5 2.708543 1_555
Si7 Ta2 2.708543 1_555
Si7 Ta3 2.708543 1_555
Si7 Ta6 2.830034 1_554
Si7 Ta7 2.830034 1_455
Si7 Ta0 2.830034 1_545
C0 Ta6 2.181718 1_555
C0 Ta4 2.181718 1_555
C0 Ta7 2.181719 1_555
C0 Ta1 2.181719 1_555
C0 Ta0 2.181719 1_555
C0 Ta10 2.181719 1_555
C1 Ta11 2.181718 1_455
C1 Ta3 2.181718 1_555
C1 Ta1 2.181719 1_555
C1 Ta7 2.181719 1_455
C1 Ta9 2.181719 1_455
C1 Ta5 2.181719 1_555
C2 Ta8 2.181719 1_545
C2 Ta2 2.181719 1_555
C2 Ta10 2.181719 1_555
C2 Ta0 2.181719 1_545
C2 Ta9 2.181719 1_545
C2 Ta5 2.181719 1_555
C3 Ta3 2.181719 1_555
C3 Ta11 2.181719 1_554
C3 Ta4 2.181719 1_555
C3 Ta6 2.181719 1_554
C3 Ta8 2.181719 1_554
C3 Ta2 2.181719 1_555
