# generated using pymatgen
data_HfSc7H16
_symmetry_space_group_name_H-M   'P 1'
_cell_length_a   6.72808115
_cell_length_b   6.72808126
_cell_length_c   6.72808017
_cell_angle_alpha   60.00000042
_cell_angle_beta   59.99999990
_cell_angle_gamma   60.00000046
_symmetry_Int_Tables_number   1
_chemical_formula_structural   HfSc7H16
_chemical_formula_sum   'Hf1 Sc7 H16'
_cell_volume   215.35681094
_cell_formula_units_Z   1
loop_
 _symmetry_equiv_pos_site_id
 _symmetry_equiv_pos_as_xyz
  1  'x, y, z'
loop_
 _atom_site_type_symbol
 _atom_site_label
 _atom_site_symmetry_multiplicity
 _atom_site_fract_x
 _atom_site_fract_y
 _atom_site_fract_z
 _atom_site_occupancy
  Hf  Hf0  1  0.00000000  0.00000000  0.00000000  1
  Sc  Sc0  1  0.00000000  0.00000000  0.50000000  1
  Sc  Sc1  1  0.50000000  0.00000000  0.50000000  1
  Sc  Sc2  1  0.00000000  0.50000000  0.50000000  1
  Sc  Sc3  1  0.50000000  0.50000000  0.00000000  1
  Sc  Sc4  1  0.00000000  0.50000000  0.00000000  1
  Sc  Sc5  1  0.50000000  0.00000000  0.00000000  1
  Sc  Sc6  1  0.50000000  0.50000000  0.50000000  1
  H  H0  1  0.87719187  0.87719187  0.36842540  1
  H  H1  1  0.87719187  0.36842540  0.87719187  1
  H  H2  1  0.36842540  0.87719187  0.87719187  1
  H  H3  1  0.87719187  0.87719187  0.87719187  1
  H  H4  1  0.12280813  0.12280813  0.63157460  1
  H  H5  1  0.12280813  0.63157460  0.12280813  1
  H  H6  1  0.63157460  0.12280813  0.12280813  1
  H  H7  1  0.12280813  0.12280813  0.12280813  1
  H  H8  1  0.62533353  0.62533353  0.12399640  1
  H  H9  1  0.62533353  0.12399640  0.62533353  1
  H  H10  1  0.12399640  0.62533353  0.62533353  1
  H  H11  1  0.62533353  0.62533353  0.62533353  1
  H  H12  1  0.37466647  0.37466647  0.87600360  1
  H  H13  1  0.37466647  0.87600360  0.37466647  1
  H  H14  1  0.87600360  0.37466647  0.37466647  1
  H  H15  1  0.37466647  0.37466647  0.37466647  1
loop_
_geom_bond_atom_site_label_1
_geom_bond_atom_site_label_2
_geom_bond_distance
_geom_bond_site_symmetry_2
H0 Hf0 2.023928 1_665
H0 Sc0 2.072361 1_665
H0 Sc1 2.072366 1_565
H0 Sc2 2.072366 1_655
H1 Hf0 2.023928 1_656
H1 Sc4 2.072361 1_656
H1 Sc2 2.072366 1_655
H1 Sc3 2.072366 1_556
H2 Hf0 2.023928 1_566
H2 Sc5 2.072361 1_566
H2 Sc1 2.072366 1_565
H2 Sc3 2.072366 1_556
H3 Hf0 2.023923 1_666
H3 Sc0 2.072366 1_665
H3 Sc5 2.072367 1_566
H3 Sc4 2.072367 1_656
H4 Hf0 2.023928 1_556
H4 Sc0 2.072361 1_555
H4 Sc1 2.072366 1_555
H4 Sc2 2.072366 1_555
H5 Hf0 2.023928 1_565
H5 Sc4 2.072361 1_555
H5 Sc2 2.072366 1_555
H5 Sc3 2.072366 1_555
H6 Hf0 2.023928 1_655
H6 Sc5 2.072361 1_555
H6 Sc1 2.072366 1_555
H6 Sc3 2.072366 1_555
H7 Hf0 2.023923 1_555
H7 Sc0 2.072366 1_555
H7 Sc5 2.072367 1_555
H7 Sc4 2.072367 1_555
H8 Sc3 2.058203 1_555
H8 Sc4 2.058220 1_655
H8 Sc5 2.058220 1_565
H8 Sc6 2.065559 1_555
H9 Sc1 2.058203 1_555
H9 Sc5 2.058220 1_556
H9 Sc0 2.058220 1_655
H9 Sc6 2.065559 1_555
H10 Sc2 2.058203 1_555
H10 Sc4 2.058220 1_556
H10 Sc0 2.058220 1_565
H10 Sc6 2.065559 1_555
H11 Sc3 2.058220 1_556
H11 Sc2 2.058220 1_655
H11 Sc1 2.058220 1_565
H11 Sc6 2.065542 1_555
H12 Sc3 2.058203 1_556
H12 Sc4 2.058220 1_556
H12 Sc5 2.058220 1_556
H12 Sc6 2.065559 1_555
H13 Sc1 2.058203 1_565
H13 Sc5 2.058220 1_565
H13 Sc0 2.058220 1_565
H13 Sc6 2.065559 1_555
H14 Sc2 2.058203 1_655
H14 Sc4 2.058220 1_655
H14 Sc0 2.058220 1_655
H14 Sc6 2.065559 1_555
H15 Sc3 2.058220 1_555
H15 Sc2 2.058220 1_555
H15 Sc1 2.058220 1_555
H15 Sc6 2.065542 1_555
