# generated using pymatgen
data_Lu4In2(TeO6)3
_symmetry_space_group_name_H-M   'P 1'
_cell_length_a   8.91327331
_cell_length_b   8.90364744
_cell_length_c   4.97910450
_cell_angle_alpha   90.28300160
_cell_angle_beta   89.99999999
_cell_angle_gamma   120.03578014
_symmetry_Int_Tables_number   1
_chemical_formula_structural   Lu4In2(TeO6)3
_chemical_formula_sum   'Lu4 In2 Te3 O18'
_cell_volume   342.07653682
_cell_formula_units_Z   1
loop_
 _symmetry_equiv_pos_site_id
 _symmetry_equiv_pos_as_xyz
  1  'x, y, z'
loop_
 _atom_site_type_symbol
 _atom_site_label
 _atom_site_symmetry_multiplicity
 _atom_site_fract_x
 _atom_site_fract_y
 _atom_site_fract_z
 _atom_site_occupancy
  Lu  Lu0  1  0.62246073  1.00000000  1.00000000  1
  Lu  Lu1  1  0.00057427  0.62446938  0.00219832  1
  Lu  Lu2  1  0.37610489  0.37553062  0.99780168  1
  Lu  Lu3  1  0.28286458  0.00000000  0.50000000  1
  In  In0  1  0.00073774  0.29147035  0.49993198  1
  In  In1  1  0.70926839  0.70852965  0.50006802  1
  Te  Te0  1  0.99805208  0.00000000  0.00000000  1
  Te  Te1  1  0.33434690  0.66673861  0.50178808  1
  Te  Te2  1  0.66760930  0.33326139  0.49821192  1
  O  O0  1  0.08391702  0.87788567  0.79435808  1
  O  O1  1  0.11884947  0.19983513  0.77226936  1
  O  O2  1  0.79075174  0.90901124  0.79039947  1
  O  O3  1  0.20603135  0.12211433  0.20564192  1
  O  O4  1  0.91901434  0.80016487  0.22773064  1
  O  O5  1  0.88173951  0.09098876  0.20960053  1
  O  O6  1  0.45738308  0.58713996  0.72113409  1
  O  O7  1  0.41190094  0.87063557  0.71944972  1
  O  O8  1  0.13105390  0.54313492  0.72170786  1
  O  O9  1  0.87024212  0.41286004  0.27886591  1
  O  O10  1  0.54126437  0.12936443  0.28055028  1
  O  O11  1  0.58791798  0.45686508  0.27829214  1
  O  O12  1  0.22499629  0.76206687  0.28247581  1
  O  O13  1  0.23832970  0.46010222  0.28237780  1
  O  O14  1  0.54020330  0.77697620  0.28327647  1
  O  O15  1  0.46292942  0.23793313  0.71752419  1
  O  O16  1  0.77822849  0.53989778  0.71762220  1
  O  O17  1  0.76322711  0.22302380  0.71672353  1
loop_
_geom_bond_atom_site_label_1
_geom_bond_atom_site_label_2
_geom_bond_distance
_geom_bond_site_symmetry_2
Lu0 O7 2.149497 1_555
Lu0 O10 2.149503 1_566
Lu0 O17 2.245053 1_565
Lu0 O14 2.245053 1_556
Lu0 O5 2.281157 1_566
Lu0 O2 2.281165 1_555
Lu1 O9 2.152101 1_455
Lu1 O8 2.158842 1_554
Lu1 O12 2.231496 1_555
Lu1 O16 2.235596 1_454
Lu1 O0 2.249203 1_554
Lu1 O4 2.314674 1_455
Lu2 O6 2.152100 1_555
Lu2 O11 2.158836 1_556
Lu2 O15 2.231496 1_555
Lu2 O13 2.235602 1_556
Lu2 O3 2.249203 1_556
Lu2 O1 2.314674 1_555
Lu3 O0 2.135505 1_545
Lu3 O3 2.135505 1_555
Lu3 O15 2.193280 1_555
Lu3 O12 2.193280 1_545
Lu3 O10 2.276397 1_555
Lu3 O7 2.276404 1_545
In0 O5 2.116645 1_455
In0 O1 2.117428 1_555
In0 O17 2.175590 1_455
In0 O13 2.178403 1_555
In0 O8 2.226984 1_555
In0 O9 2.236709 1_455
In1 O2 2.116645 1_555
In1 O4 2.117421 1_555
In1 O14 2.175598 1_555
In1 O16 2.178403 1_555
In1 O11 2.226984 1_555
In1 O6 2.236709 1_555
O0 Te0 1.907434 1_466
O1 Te0 1.926888 1_456
O2 Te0 1.911198 1_566
O3 Te0 1.907434 1_455
O4 Te0 1.926888 1_565
O5 Te0 1.911205 1_555
O6 Te1 1.919225 1_555
O7 Te1 1.916357 1_555
O8 Te1 1.925914 1_555
O9 Te2 1.919211 1_555
O10 Te2 1.916359 1_555
O11 Te2 1.925926 1_555
O12 Te1 1.923573 1_555
O13 Te1 1.927363 1_555
O14 Te1 1.929107 1_555
O15 Te2 1.923580 1_555
O16 Te2 1.927363 1_555
O17 Te2 1.929101 1_555
