# generated using pymatgen
data_CaInSnIr
_symmetry_space_group_name_H-M   'P 1'
_cell_length_a   5.72437441
_cell_length_b   5.72437440
_cell_length_c   7.78008720
_cell_angle_alpha   90.00000000
_cell_angle_beta   90.00000000
_cell_angle_gamma   135.35326167
_symmetry_Int_Tables_number   1
_chemical_formula_structural   CaInSnIr
_chemical_formula_sum   'Ca2 In2 Sn2 Ir2'
_cell_volume   179.15596579
_cell_formula_units_Z   2
loop_
 _symmetry_equiv_pos_site_id
 _symmetry_equiv_pos_as_xyz
  1  'x, y, z'
loop_
 _atom_site_type_symbol
 _atom_site_label
 _atom_site_symmetry_multiplicity
 _atom_site_fract_x
 _atom_site_fract_y
 _atom_site_fract_z
 _atom_site_occupancy
  Ca  Ca0  1  0.93365116  0.06634884  0.75000000  1
  Ca  Ca1  1  0.06841453  0.93158547  0.25000000  1
  In  In0  1  0.64527314  0.35472686  0.94876981  1
  In  In1  1  0.64527314  0.35472686  0.55123019  1
  Sn  Sn0  1  0.35034600  0.64965400  0.04908088  1
  Sn  Sn1  1  0.35034600  0.64965400  0.45091912  1
  Ir  Ir0  1  0.21699733  0.78300267  0.75000000  1
  Ir  Ir1  1  0.78969870  0.21030130  0.25000000  1
loop_
_geom_bond_atom_site_label_1
_geom_bond_atom_site_label_2
_geom_bond_distance
_geom_bond_site_symmetry_2
Ca0 Ir0 3.000840 1_645
Ca0 Ir0 3.161083 1_655
Ca0 Ir0 3.161083 1_545
Ca0 Sn1 3.304596 1_655
Ca0 Sn0 3.304596 1_656
Ca0 Sn1 3.304596 1_545
Ca0 Sn0 3.304596 1_546
Ca0 In0 3.423334 1_555
Ca0 In1 3.423334 1_555
Ca0 In0 3.484570 1_545
Ca0 In1 3.484570 1_545
Ca0 In0 3.484570 1_655
Ca0 In1 3.484570 1_655
Ca1 Ir1 2.951802 1_465
Ca1 Ir1 3.196856 1_455
Ca1 Ir1 3.196856 1_565
Ca1 In1 3.298885 1_455
Ca1 In0 3.298885 1_454
Ca1 In1 3.298885 1_565
Ca1 In0 3.298885 1_564
Ca1 Sn1 3.370288 1_555
Ca1 Sn0 3.370288 1_555
Ca1 Sn1 3.536229 1_565
Ca1 Sn0 3.536229 1_565
Ca1 Sn0 3.536229 1_455
Ca1 Sn1 3.536229 1_455
In0 Ir0 2.774189 1_545
In0 Ir0 2.774189 1_655
In0 Ir1 2.798577 1_556
In0 In1 3.092893 1_555
In0 Sn0 3.170758 1_546
In0 Sn0 3.170758 1_656
In0 Sn0 3.219513 1_556
In1 Ir0 2.774189 1_545
In1 Ir0 2.774189 1_655
In1 Ir1 2.798577 1_555
In1 Sn1 3.170758 1_545
In1 Sn1 3.170758 1_655
In1 Sn1 3.219513 1_555
Sn0 Sn1 3.126337 1_555
Ir0 Sn1 2.721915 1_555
Ir0 Sn0 2.721915 1_556
Ir1 Sn0 2.753845 1_545
Ir1 Sn1 2.753845 1_545
Ir1 Sn0 2.753845 1_655
Ir1 Sn1 2.753845 1_655
