# generated using pymatgen
data_Hf3ScCo7Si6
_symmetry_space_group_name_H-M   'P 1'
_cell_length_a   6.60711371
_cell_length_b   6.61548622
_cell_length_c   6.60711363
_cell_angle_alpha   109.49689678
_cell_angle_beta   109.44554106
_cell_angle_gamma   109.49689098
_symmetry_Int_Tables_number   1
_chemical_formula_structural   Hf3ScCo7Si6
_chemical_formula_sum   'Hf3 Sc1 Co7 Si6'
_cell_volume   222.24177810
_cell_formula_units_Z   1
loop_
 _symmetry_equiv_pos_site_id
 _symmetry_equiv_pos_as_xyz
  1  'x, y, z'
loop_
 _atom_site_type_symbol
 _atom_site_label
 _atom_site_symmetry_multiplicity
 _atom_site_fract_x
 _atom_site_fract_y
 _atom_site_fract_z
 _atom_site_occupancy
  Hf  Hf0  1  0.00000000  0.00000000  0.50000000  1
  Hf  Hf1  1  0.50000000  0.00000000  0.00000000  1
  Hf  Hf2  1  0.50000000  0.50000000  0.50000000  1
  Sc  Sc0  1  0.00000000  0.50000000  0.00000000  1
  Co  Co0  1  0.74889736  0.24889736  0.49779571  1
  Co  Co1  1  0.74889736  0.50000000  0.25110264  1
  Co  Co2  1  0.49779571  0.24889736  0.74889736  1
  Co  Co3  1  0.25110264  0.50000000  0.74889736  1
  Co  Co4  1  0.25110264  0.75110264  0.50220429  1
  Co  Co5  1  0.50220429  0.75110264  0.25110264  1
  Co  Co6  1  0.00000000  0.00000000  0.00000000  1
  Si  Si0  1  0.67561467  0.67360661  1.00000000  1
  Si  Si1  1  0.32438533  0.99799295  0.32438533  1
  Si  Si2  1  0.00000000  0.32639339  0.32438533  1
  Si  Si3  1  0.32438533  0.32639339  0.00000000  1
  Si  Si4  1  0.67561467  0.00200705  0.67561467  1
  Si  Si5  1  1.00000000  0.67360661  0.67561467  1
loop_
_geom_bond_atom_site_label_1
_geom_bond_atom_site_label_2
_geom_bond_distance
_geom_bond_site_symmetry_2
Hf0 Si1 2.757627 1_545
Hf0 Si4 2.757627 1_455
Hf0 Si3 2.757627 1_556
Hf0 Si0 2.757627 1_444
Hf0 Si2 2.771471 1_555
Hf0 Si5 2.771471 1_445
Hf1 Si1 2.757627 1_545
Hf1 Si4 2.757627 1_554
Hf1 Si2 2.757627 1_655
Hf1 Si5 2.757627 1_444
Hf1 Si3 2.771471 1_555
Hf1 Si0 2.771471 1_544
Hf2 Si3 2.757627 1_555
Hf2 Si0 2.757627 1_555
Hf2 Si2 2.757627 1_555
Hf2 Si5 2.757627 1_555
Hf2 Si4 2.771465 1_565
Hf2 Si1 2.771465 1_545
Sc0 Si3 2.748753 1_555
Sc0 Si0 2.748753 1_454
Sc0 Si2 2.748753 1_555
Sc0 Si5 2.748753 1_454
Sc0 Si1 2.748757 1_555
Sc0 Si4 2.748757 1_454
Co0 Si4 2.326842 1_555
Co0 Si5 2.326843 1_555
Co0 Si1 2.327656 1_545
Co0 Si2 2.327664 1_655
Co0 Hf1 2.685025 1_555
Co0 Hf0 2.699506 1_655
Co0 Hf2 2.699506 1_555
Co0 Sc0 2.708805 1_656
Co1 Si2 2.326842 1_655
Co1 Si0 2.326842 1_554
Co1 Si5 2.327658 1_555
Co1 Si3 2.327658 1_555
Co1 Hf2 2.685020 1_555
Co1 Hf1 2.699506 1_555
Co1 Hf0 2.699506 1_665
Co1 Sc0 2.708810 1_655
Co2 Si4 2.326842 1_555
Co2 Si0 2.326843 1_555
Co2 Si1 2.327656 1_545
Co2 Si3 2.327664 1_556
Co2 Hf0 2.685026 1_555
Co2 Hf1 2.699506 1_556
Co2 Hf2 2.699506 1_555
Co2 Sc0 2.708805 1_656
Co3 Si5 2.326842 1_455
Co3 Si3 2.326842 1_556
Co3 Si2 2.327658 1_555
Co3 Si0 2.327658 1_555
Co3 Hf2 2.685020 1_555
Co3 Hf1 2.699506 1_566
Co3 Hf0 2.699506 1_555
Co3 Sc0 2.708810 1_556
Co4 Si1 2.326842 1_555
Co4 Si2 2.326843 1_555
Co4 Si4 2.327656 1_565
Co4 Si5 2.327664 1_455
Co4 Hf1 2.685025 1_566
Co4 Hf0 2.699506 1_565
Co4 Hf2 2.699506 1_555
Co4 Sc0 2.708805 1_555
Co5 Si1 2.326842 1_555
Co5 Si3 2.326843 1_555
Co5 Si4 2.327656 1_565
Co5 Si0 2.327664 1_554
Co5 Hf0 2.685026 1_665
Co5 Hf1 2.699506 1_565
Co5 Hf2 2.699506 1_555
Co5 Sc0 2.708805 1_555
Co6 Si1 2.483294 1_545
Co6 Si4 2.483294 1_454
Co6 Si2 2.483298 1_555
Co6 Si5 2.483298 1_444
Co6 Si3 2.483298 1_555
Co6 Si0 2.483298 1_444
