# generated using pymatgen
data_Rb4MnHgI8
_symmetry_space_group_name_H-M   'P 1'
_cell_length_a   8.32417591
_cell_length_b   8.15543754
_cell_length_c   10.17967088
_cell_angle_alpha   71.51239626
_cell_angle_beta   90.00000000
_cell_angle_gamma   90.00000000
_symmetry_Int_Tables_number   1
_chemical_formula_structural   Rb4MnHgI8
_chemical_formula_sum   'Rb4 Mn1 Hg1 I8'
_cell_volume   655.40577591
_cell_formula_units_Z   1
loop_
 _symmetry_equiv_pos_site_id
 _symmetry_equiv_pos_as_xyz
  1  'x, y, z'
loop_
 _atom_site_type_symbol
 _atom_site_label
 _atom_site_symmetry_multiplicity
 _atom_site_fract_x
 _atom_site_fract_y
 _atom_site_fract_z
 _atom_site_occupancy
  Rb  Rb0  1  0.75000000  0.78165834  0.55366657  1
  Rb  Rb1  1  0.25000000  0.21474841  0.44781234  1
  Rb  Rb2  1  0.75000000  0.74600543  0.06593125  1
  Rb  Rb3  1  0.25000000  0.26607131  0.93209460  1
  Mn  Mn0  1  0.25000000  0.77849198  0.29928050  1
  Hg  Hg0  1  0.75000000  0.22467547  0.69925549  1
  I  I0  1  0.75000000  0.40840505  0.41436610  1
  I  I1  1  0.25000000  0.59746663  0.57238499  1
  I  I2  1  0.99749788  0.99961102  0.23978284  1
  I  I3  1  0.01170215  0.98865966  0.76271766  1
  I  I4  1  0.48829785  0.98865966  0.76271766  1
  I  I5  1  0.50250212  0.99961102  0.23978284  1
  I  I6  1  0.75000000  0.42011080  0.88268620  1
  I  I7  1  0.25000000  0.58582519  0.12752197  1
loop_
_geom_bond_atom_site_label_1
_geom_bond_atom_site_label_2
_geom_bond_distance
_geom_bond_site_symmetry_2
Hg0 I0 2.810652 1_555
Hg0 I6 2.813280 1_555
Hg0 I4 2.842412 1_545
Hg0 I3 2.842412 1_645
I0 Rb2 3.737377 1_555
I0 Rb0 3.743605 1_555
I1 Mn0 2.702890 1_555
I1 Rb1 3.722956 1_555
I1 Rb3 3.799521 1_555
I2 Mn0 2.709980 1_655
I2 Rb2 3.738395 1_555
I2 Rb0 3.743202 1_555
I2 Rb1 3.786450 1_665
I2 Rb3 3.825442 1_664
I3 Rb1 3.723185 1_565
I3 Rb2 3.783550 1_456
I3 Rb0 3.795094 1_455
I3 Rb3 3.807900 1_565
I4 Rb1 3.723185 1_565
I4 Rb2 3.783550 1_556
I4 Rb0 3.795094 1_555
I4 Rb3 3.807900 1_565
I5 Mn0 2.709980 1_555
I5 Rb2 3.738395 1_555
I5 Rb0 3.743202 1_555
I5 Rb1 3.786450 1_565
I5 Rb3 3.825442 1_564
I6 Rb0 3.694433 1_555
I6 Rb2 3.699707 1_556
I7 Mn0 2.695983 1_555
I7 Rb1 3.678491 1_555
I7 Rb3 3.748069 1_554
