# generated using pymatgen
data_Ca2ZnIn2Ag
_symmetry_space_group_name_H-M   'P 1'
_cell_length_a   6.01622196
_cell_length_b   6.01622211
_cell_length_c   7.50629011
_cell_angle_alpha   52.16147024
_cell_angle_beta   52.16147173
_cell_angle_gamma   46.44877075
_symmetry_Int_Tables_number   1
_chemical_formula_structural   Ca2ZnIn2Ag
_chemical_formula_sum   'Ca2 Zn1 In2 Ag1'
_cell_volume   146.61540350
_cell_formula_units_Z   1
loop_
 _symmetry_equiv_pos_site_id
 _symmetry_equiv_pos_as_xyz
  1  'x, y, z'
loop_
 _atom_site_type_symbol
 _atom_site_label
 _atom_site_symmetry_multiplicity
 _atom_site_fract_x
 _atom_site_fract_y
 _atom_site_fract_z
 _atom_site_occupancy
  Ca  Ca0  1  0.54059594  0.54059594  0.70606082  1
  Ca  Ca1  1  0.45946674  0.45946674  0.29107819  1
  Zn  Zn0  1  0.16540216  0.16540216  0.88257651  1
  In  In0  1  0.83187229  0.83187229  0.71691063  1
  In  In1  1  0.84034528  0.84034528  0.11193441  1
  Ag  Ag0  1  0.16231960  0.16231960  0.29144143  1
loop_
_geom_bond_atom_site_label_1
_geom_bond_atom_site_label_2
_geom_bond_distance
_geom_bond_site_symmetry_2
Ca0 In0 3.272700 1_455
Ca0 In0 3.272700 1_545
Ca0 In0 3.275693 1_555
Ca0 In1 3.287359 1_546
Ca0 In1 3.287359 1_456
Ca0 In1 3.337712 1_555
Ca0 Zn0 3.410043 1_555
Ca0 Zn0 3.424836 1_655
Ca0 Zn0 3.424836 1_565
Ca0 Ca1 3.773397 1_555
Ca0 Ca1 3.850855 1_556
Ca1 Zn0 3.300606 1_564
Ca1 Zn0 3.300606 1_654
Ca1 Zn0 3.318421 1_555
Ca1 In1 3.396487 1_455
Ca1 In1 3.396487 1_545
Ca1 In0 3.437319 1_545
Ca1 In0 3.437320 1_455
Ca1 In0 3.440613 1_554
Ca1 In1 3.461858 1_555
In0 Zn0 2.739883 1_565
In0 Zn0 2.739883 1_655
In0 In1 3.028507 1_556
In1 Zn0 2.760715 1_664
Ag0 In1 2.788852 1_545
Ag0 In1 2.788852 1_455
Ag0 In0 2.823342 1_445
Ag0 Zn0 3.046412 1_554
Ag0 Ca1 3.266132 1_455
Ag0 Ca1 3.266132 1_545
Ag0 Ca1 3.283863 1_555
Ag0 Ca0 3.396098 1_545
Ag0 Ca0 3.396098 1_455
Ag0 Ca0 3.502245 1_554
