# generated using pymatgen
data_Sc7SI12
_symmetry_space_group_name_H-M   'P 1'
_cell_length_a   9.29590901
_cell_length_b   9.29590977
_cell_length_c   9.29591029
_cell_angle_alpha   107.61327733
_cell_angle_beta   107.61328675
_cell_angle_gamma   107.61328234
_symmetry_Int_Tables_number   1
_chemical_formula_structural   Sc7SI12
_chemical_formula_sum   'Sc7 S1 I12'
_cell_volume   657.47970084
_cell_formula_units_Z   1
loop_
 _symmetry_equiv_pos_site_id
 _symmetry_equiv_pos_as_xyz
  1  'x, y, z'
loop_
 _atom_site_type_symbol
 _atom_site_label
 _atom_site_symmetry_multiplicity
 _atom_site_fract_x
 _atom_site_fract_y
 _atom_site_fract_z
 _atom_site_occupancy
  Sc  Sc0  1  0.50000000  0.50000000  0.50000000  1
  Sc  Sc1  1  0.96983117  0.90429980  0.71039629  1
  Sc  Sc2  1  0.71039629  0.96983117  0.90429980  1
  Sc  Sc3  1  0.90429980  0.71039629  0.96983117  1
  Sc  Sc4  1  0.03016883  0.09570020  0.28960371  1
  Sc  Sc5  1  0.28960371  0.03016883  0.09570020  1
  Sc  Sc6  1  0.09570020  0.28960371  0.03016883  1
  S  S0  1  0.00000000  0.00000000  0.00000000  1
  I  I0  1  0.07704876  0.22325883  0.69192785  1
  I  I1  1  0.69192785  0.07704876  0.22325883  1
  I  I2  1  0.22325883  0.69192785  0.07704876  1
  I  I3  1  0.92295124  0.77674117  0.30807215  1
  I  I4  1  0.30807215  0.92295124  0.77674117  1
  I  I5  1  0.77674117  0.30807215  0.92295124  1
  I  I6  1  0.61932076  0.84958475  0.54339520  1
  I  I7  1  0.54339520  0.61932076  0.84958475  1
  I  I8  1  0.84958475  0.54339520  0.61932076  1
  I  I9  1  0.38067924  0.15041525  0.45660480  1
  I  I10  1  0.45660480  0.38067924  0.15041525  1
  I  I11  1  0.15041525  0.45660480  0.38067924  1
loop_
_geom_bond_atom_site_label_1
_geom_bond_atom_site_label_2
_geom_bond_distance
_geom_bond_site_symmetry_2
S0 Sc5 2.461777 1_555
S0 Sc2 2.461777 1_444
S0 Sc6 2.461777 1_555
S0 Sc3 2.461777 1_444
S0 Sc4 2.461777 1_555
S0 Sc1 2.461777 1_444
I0 Sc1 2.904713 1_445
I0 Sc6 2.954420 1_556
I0 Sc4 3.405940 1_555
I1 Sc2 2.904713 1_544
I1 Sc4 2.954419 1_655
I1 Sc5 3.405939 1_555
I2 Sc3 2.904712 1_454
I2 Sc5 2.954419 1_565
I2 Sc6 3.405940 1_555
I3 Sc4 2.904713 1_665
I3 Sc3 2.954420 1_554
I3 Sc1 3.405940 1_555
I4 Sc5 2.904713 1_566
I4 Sc1 2.954419 1_455
I4 Sc2 3.405939 1_555
I5 Sc6 2.904712 1_656
I5 Sc2 2.954419 1_545
I5 Sc3 3.405940 1_555
I6 Sc2 2.942901 1_555
I6 Sc0 2.950949 1_555
I6 Sc1 2.956915 1_555
I7 Sc3 2.942900 1_555
I7 Sc0 2.950949 1_555
I7 Sc2 2.956915 1_555
I8 Sc1 2.942901 1_555
I8 Sc0 2.950948 1_555
I8 Sc3 2.956916 1_555
I9 Sc5 2.942901 1_555
I9 Sc0 2.950949 1_555
I9 Sc4 2.956915 1_555
I10 Sc6 2.942900 1_555
I10 Sc0 2.950949 1_555
I10 Sc5 2.956915 1_555
I11 Sc4 2.942901 1_555
I11 Sc0 2.950948 1_555
I11 Sc6 2.956916 1_555
