# generated using pymatgen
data_HfZnTeO6
_symmetry_space_group_name_H-M   'P 1'
_cell_length_a   4.86191775
_cell_length_b   4.86610403
_cell_length_c   8.92275285
_cell_angle_alpha   90.00000000
_cell_angle_beta   90.00000000
_cell_angle_gamma   90.00000000
_symmetry_Int_Tables_number   1
_chemical_formula_structural   HfZnTeO6
_chemical_formula_sum   'Hf2 Zn2 Te2 O12'
_cell_volume   211.09981906
_cell_formula_units_Z   2
loop_
 _symmetry_equiv_pos_site_id
 _symmetry_equiv_pos_as_xyz
  1  'x, y, z'
loop_
 _atom_site_type_symbol
 _atom_site_label
 _atom_site_symmetry_multiplicity
 _atom_site_fract_x
 _atom_site_fract_y
 _atom_site_fract_z
 _atom_site_occupancy
  Hf  Hf0  1  0.00000000  0.50000000  0.88823515  1
  Hf  Hf1  1  0.50000000  0.00000000  0.11176485  1
  Zn  Zn0  1  0.50000000  0.50000000  0.50071175  1
  Zn  Zn1  1  0.00000000  0.00000000  0.49928825  1
  Te  Te0  1  0.00000000  0.50000000  0.25056441  1
  Te  Te1  1  0.50000000  0.00000000  0.74943559  1
  O  O0  1  0.20029357  0.30080367  0.39609469  1
  O  O1  1  0.79970643  0.69919633  0.39609469  1
  O  O2  1  0.77356814  0.72404610  0.75272670  1
  O  O3  1  0.29970643  0.80080367  0.60390531  1
  O  O4  1  0.81096331  0.68714074  0.08426851  1
  O  O5  1  0.68903669  0.18714074  0.91573149  1
  O  O6  1  0.22643186  0.27595390  0.75272670  1
  O  O7  1  0.70029357  0.19919633  0.60390531  1
  O  O8  1  0.27356814  0.77595390  0.24727330  1
  O  O9  1  0.72643186  0.22404610  0.24727330  1
  O  O10  1  0.31096331  0.81285926  0.91573149  1
  O  O11  1  0.18903669  0.31285926  0.08426851  1
loop_
_geom_bond_atom_site_label_1
_geom_bond_atom_site_label_2
_geom_bond_distance
_geom_bond_site_symmetry_2
Hf0 O2 1.965328 1_455
Hf0 O6 1.965328 1_555
Hf0 O5 2.159557 1_455
Hf0 O10 2.159557 1_555
Hf0 O4 2.175669 1_456
Hf0 O11 2.175669 1_556
Hf1 O9 1.965328 1_555
Hf1 O8 1.965328 1_545
Hf1 O11 2.159557 1_555
Hf1 O4 2.159557 1_545
Hf1 O10 2.175669 1_544
Hf1 O5 2.175669 1_554
O0 Te0 1.890516 1_555
O0 Zn0 1.983485 1_555
O0 Zn1 1.984607 1_555
O1 Te0 1.890516 1_655
O1 Zn0 1.983485 1_555
O1 Zn1 1.984607 1_665
O2 Te1 1.890266 1_565
O3 Te1 1.890516 1_565
O3 Zn1 1.983485 1_565
O3 Zn0 1.984607 1_555
O4 Te0 1.968680 1_655
O5 Te1 1.968680 1_555
O6 Te1 1.890266 1_555
O7 Te1 1.890516 1_555
O7 Zn1 1.983485 1_655
O7 Zn0 1.984607 1_555
O8 Te0 1.890266 1_555
O9 Te0 1.890266 1_655
O10 Te1 1.968680 1_565
O11 Te0 1.968680 1_555
