# generated using pymatgen
data_Ti8SiBi4Os
_symmetry_space_group_name_H-M   'P 1'
_cell_length_a   7.88460517
_cell_length_b   7.88451686
_cell_length_c   7.88460655
_cell_angle_alpha   95.82125837
_cell_angle_beta   95.82301607
_cell_angle_gamma   142.85677745
_symmetry_Int_Tables_number   1
_chemical_formula_structural   Ti8SiBi4Os
_chemical_formula_sum   'Ti8 Si1 Bi4 Os1'
_cell_volume   280.54799390
_cell_formula_units_Z   1
loop_
 _symmetry_equiv_pos_site_id
 _symmetry_equiv_pos_as_xyz
  1  'x, y, z'
loop_
 _atom_site_type_symbol
 _atom_site_label
 _atom_site_symmetry_multiplicity
 _atom_site_fract_x
 _atom_site_fract_y
 _atom_site_fract_z
 _atom_site_occupancy
  Ti  Ti0  1  0.08687038  0.20366433  0.28116286  1
  Ti  Ti1  1  0.92245007  0.80569450  0.71884687  1
  Ti  Ti2  1  0.80573843  0.08688088  0.88323681  1
  Ti  Ti3  1  0.41315237  0.69430550  0.11675556  1
  Ti  Ti4  1  0.20362537  0.92244321  0.11677990  1
  Ti  Ti5  1  0.57749853  0.29633567  0.88320405  1
  Ti  Ti6  1  0.69433569  0.57755679  0.28118216  1
  Ti  Ti7  1  0.29635693  0.41311912  0.71885755  1
  Si  Si0  1  0.25000764  0.25000000  0.00000764  1
  Bi  Bi0  1  0.14139904  0.64141413  0.78277982  1
  Bi  Bi1  1  0.85858320  0.35858906  0.21720566  1
  Bi  Bi2  1  0.35861560  0.14141094  0.49999315  1
  Bi  Bi3  1  0.64136570  0.85858587  0.49998492  1
  Os  Os0  1  0.75000106  0.75000000  0.00000106  1
loop_
_geom_bond_atom_site_label_1
_geom_bond_atom_site_label_2
_geom_bond_distance
_geom_bond_site_symmetry_2
Si0 Ti7 2.587481 1_554
Si0 Ti2 2.587482 1_454
Si0 Ti3 2.587570 1_555
Si0 Ti1 2.587570 1_444
Si0 Ti0 2.587635 1_555
Si0 Ti5 2.587643 1_554
Si0 Ti6 2.587721 1_555
Si0 Ti4 2.587724 1_545
Bi0 Ti1 2.903921 1_455
Bi0 Ti7 2.904095 1_555
Bi0 Ti4 2.984376 1_556
Bi0 Ti3 2.984437 1_556
Bi0 Ti5 3.070143 1_565
Bi0 Ti2 3.070528 1_455
Bi0 Ti5 3.108602 1_455
Bi0 Ti2 3.108717 1_565
Bi1 Ti0 2.903826 1_655
Bi1 Ti6 2.903882 1_555
Bi1 Ti2 2.984433 1_554
Bi1 Ti5 2.984473 1_554
Bi1 Ti4 3.070311 1_545
Bi1 Ti3 3.070667 1_655
Bi1 Ti4 3.108340 1_655
Bi1 Ti3 3.108413 1_545
Bi2 Ti5 2.903821 1_555
Bi2 Ti4 2.903869 1_545
Bi2 Ti7 2.984425 1_555
Bi2 Ti0 2.984450 1_555
Bi2 Ti6 3.070305 1_555
Bi2 Ti1 3.070669 1_445
Bi2 Ti6 3.108339 1_445
Bi2 Ti1 3.108415 1_555
Bi3 Ti3 2.903922 1_555
Bi3 Ti2 2.904089 1_565
Bi3 Ti6 2.984369 1_555
Bi3 Ti1 2.984437 1_555
Bi3 Ti0 3.070143 1_555
Bi3 Ti7 3.070532 1_665
Bi3 Ti0 3.108610 1_665
Bi3 Ti7 3.108717 1_555
Os0 Si0 2.511151 1_555
Os0 Si0 2.511151 1_665
Os0 Ti3 2.610160 1_555
Os0 Ti1 2.610160 1_554
Os0 Ti7 2.610166 1_554
Os0 Ti2 2.610170 1_564
Os0 Ti6 2.610338 1_555
Os0 Ti4 2.610339 1_655
Os0 Ti0 2.610344 1_665
Os0 Ti5 2.610346 1_554
