# generated using pymatgen
data_Na(Pr2Se3)4
_symmetry_space_group_name_H-M   'P 1'
_cell_length_a   14.97720216
_cell_length_b   14.97720216
_cell_length_c   14.97720216
_cell_angle_alpha   144.99042558
_cell_angle_beta   144.99042558
_cell_angle_gamma   50.34879270
_symmetry_Int_Tables_number   1
_chemical_formula_structural   Na(Pr2Se3)4
_chemical_formula_sum   'Na2 Pr16 Se24'
_cell_volume   1100.32925629
_cell_formula_units_Z   2
loop_
 _symmetry_equiv_pos_site_id
 _symmetry_equiv_pos_as_xyz
  1  'x, y, z'
loop_
 _atom_site_type_symbol
 _atom_site_label
 _atom_site_symmetry_multiplicity
 _atom_site_fract_x
 _atom_site_fract_y
 _atom_site_fract_z
 _atom_site_occupancy
  Na  Na0  1  0.50000000  0.50000000  0.00000000  1
  Na  Na1  1  0.25000000  0.75000000  0.50000000  1
  Pr  Pr0  1  0.91188200  0.78700900  0.61772900  1
  Pr  Pr1  1  0.21299100  0.83072100  0.12487400  1
  Pr  Pr2  1  0.91741700  0.41741700  0.50000000  1
  Pr  Pr3  1  0.49488200  0.62500000  0.36988200  1
  Pr  Pr4  1  0.25511800  0.12500000  0.63011800  1
  Pr  Pr5  1  0.70584700  0.08811800  0.87512600  1
  Pr  Pr6  1  0.83258300  0.83258300  0.00000000  1
  Pr  Pr7  1  0.53700900  0.16188200  0.11772900  1
  Pr  Pr8  1  0.83811800  0.95584700  0.37512600  1
  Pr  Pr9  1  0.58072100  0.46299100  0.62487400  1
  Pr  Pr10  1  0.04415300  0.41927900  0.88227100  1
  Pr  Pr11  1  0.16741700  0.16741700  0.00000000  1
  Pr  Pr12  1  0.87500000  0.50511800  0.13011800  1
  Pr  Pr13  1  0.16927900  0.29415300  0.38227100  1
  Pr  Pr14  1  0.58258300  0.08258300  0.50000000  1
  Pr  Pr15  1  0.37500000  0.74488200  0.86988200  1
  Se  Se0  1  0.40626200  0.15837600  0.59667500  1
  Se  Se1  1  0.19041300  0.59373800  0.75211400  1
  Se  Se2  1  0.84162400  0.43829900  0.24788600  1
  Se  Se3  1  0.21800900  0.47097000  0.89443900  1
  Se  Se4  1  0.57653200  0.32357000  0.10556100  1
  Se  Se5  1  0.56170100  0.80958700  0.40332500  1
  Se  Se6  1  0.85913700  0.75864500  0.75148800  1
  Se  Se7  1  0.74284300  0.49135500  0.60049100  1
  Se  Se8  1  0.53199100  0.92643000  0.75296200  1
  Se  Se9  1  0.00715700  0.10764800  0.24851200  1
  Se  Se10  1  0.17346800  0.77903000  0.24703800  1
  Se  Se11  1  0.55958700  0.81170100  0.90332500  1
  Se  Se12  1  0.90837600  0.65626200  0.09667500  1
  Se  Se13  1  0.89086300  0.14235200  0.39950900  1
  Se  Se14  1  0.18829900  0.09162400  0.74788600  1
  Se  Se15  1  0.07357000  0.82653200  0.60556100  1
  Se  Se16  1  0.85764800  0.25715700  0.74851200  1
  Se  Se17  1  0.34373800  0.44041300  0.25211400  1
  Se  Se18  1  0.50864500  0.10913700  0.25148800  1
  Se  Se19  1  0.89235200  0.14086300  0.89950900  1
  Se  Se20  1  0.24135500  0.99284300  0.10049100  1
  Se  Se21  1  0.22097000  0.46800900  0.39443900  1
  Se  Se22  1  0.52903000  0.42346800  0.74703800  1
  Se  Se23  1  0.67643000  0.78199100  0.25296200  1
loop_
_geom_bond_atom_site_label_1
_geom_bond_atom_site_label_2
_geom_bond_distance
_geom_bond_site_symmetry_2
Na0 Se5 3.047171 1_555
Na0 Se2 3.047171 1_555
Na0 Se0 3.047171 1_554
Na0 Se1 3.047171 1_554
Na0 Se23 3.287145 1_555
Na0 Se4 3.287145 1_555
Na0 Se3 3.287154 1_554
Na0 Se22 3.287158 1_554
Na1 Se14 3.047171 1_565
Na1 Se11 3.047171 1_555
Na1 Se17 3.047171 1_555
Na1 Se12 3.047171 1_455
Na1 Se8 3.287145 1_555
Na1 Se15 3.287145 1_555
Na1 Se21 3.287154 1_555
Na1 Se10 3.287158 1_555
Pr0 Se15 2.996165 1_655
Pr0 Se2 3.023628 1_555
Pr0 Se6 3.038538 1_555
Pr0 Se19 3.064097 1_565
Pr0 Se5 3.140046 1_555
Pr0 Se1 3.195515 1_655
Pr0 Se23 3.224024 1_555
Pr0 Se20 3.253813 1_656
Pr1 Se10 2.996151 1_555
Pr1 Se5 3.023630 1_555
Pr1 Se20 3.038550 1_555
Pr1 Se6 3.064099 1_454
Pr1 Se1 3.140053 1_554
Pr1 Se0 3.195507 1_565
Pr1 Se3 3.224043 1_554
Pr1 Se9 3.253805 1_565
Pr2 Se4 3.014996 1_555
Pr2 Se3 3.015002 1_655
Pr2 Se6 3.037622 1_555
Pr2 Se9 3.037626 1_655
Pr2 Se1 3.178714 1_655
Pr2 Se2 3.178714 1_555
Pr2 Se7 3.216946 1_555
Pr2 Se13 3.216954 1_555
Pr3 Se8 3.025996 1_555
Pr3 Se4 3.025996 1_555
Pr3 Se5 3.055626 1_555
Pr3 Se17 3.055626 1_555
Pr3 Se3 3.186204 1_554
Pr3 Se10 3.186212 1_555
Pr3 Se7 3.248681 1_555
Pr3 Se6 3.248691 1_555
Pr4 Se3 3.025989 1_555
Pr4 Se10 3.025990 1_545
Pr4 Se0 3.055626 1_555
Pr4 Se14 3.055626 1_555
Pr4 Se8 3.186208 1_545
Pr4 Se4 3.186208 1_556
Pr4 Se9 3.248681 1_555
Pr4 Se13 3.248692 1_455
Pr5 Se8 2.996177 1_545
Pr5 Se0 3.023622 1_555
Pr5 Se19 3.038528 1_555
Pr5 Se9 3.064113 1_656
Pr5 Se2 3.140044 1_556
Pr5 Se5 3.195506 1_545
Pr5 Se4 3.224034 1_556
Pr5 Se6 3.253818 1_545
Pr6 Se10 3.014993 1_655
Pr6 Se8 3.014996 1_554
Pr6 Se7 3.037626 1_554
Pr6 Se13 3.037631 1_565
Pr6 Se12 3.178714 1_555
Pr6 Se11 3.178714 1_554
Pr6 Se9 3.216946 1_665
Pr6 Se6 3.216959 1_554
Pr7 Se4 2.996165 1_555
Pr7 Se14 3.023628 1_554
Pr7 Se18 3.038538 1_555
Pr7 Se13 3.064097 1_555
Pr7 Se11 3.140046 1_544
Pr7 Se17 3.195515 1_555
Pr7 Se8 3.224024 1_544
Pr7 Se7 3.253813 1_555
Pr8 Se23 2.996177 1_555
Pr8 Se12 3.023622 1_555
Pr8 Se13 3.038528 1_565
Pr8 Se16 3.064113 1_565
Pr8 Se14 3.140044 1_665
Pr8 Se11 3.195506 1_554
Pr8 Se15 3.224034 1_655
Pr8 Se18 3.253818 1_565
Pr9 Se22 2.996151 1_555
Pr9 Se11 3.023630 1_555
Pr9 Se7 3.038550 1_555
Pr9 Se18 3.064099 1_555
Pr9 Se17 3.140053 1_555
Pr9 Se12 3.195507 1_556
Pr9 Se21 3.224043 1_555
Pr9 Se16 3.253805 1_555
Pr10 Se3 2.996165 1_555
Pr10 Se17 3.023622 1_556
Pr10 Se16 3.038539 1_455
Pr10 Se7 3.064113 1_455
Pr10 Se12 3.140044 1_456
Pr10 Se14 3.195506 1_555
Pr10 Se10 3.224044 1_556
Pr10 Se13 3.253810 1_455
Pr11 Se15 3.014996 1_544
Pr11 Se21 3.015002 1_555
Pr11 Se18 3.037622 1_555
Pr11 Se16 3.037626 1_454
Pr11 Se14 3.178714 1_554
Pr11 Se17 3.178714 1_555
Pr11 Se20 3.216946 1_545
Pr11 Se19 3.216954 1_454
Pr12 Se21 3.025989 1_655
Pr12 Se22 3.025990 1_554
Pr12 Se2 3.055626 1_555
Pr12 Se12 3.055626 1_555
Pr12 Se15 3.186208 1_655
Pr12 Se23 3.186208 1_555
Pr12 Se16 3.248681 1_554
Pr12 Se19 3.248692 1_554
Pr13 Se21 2.996165 1_555
Pr13 Se1 3.023622 1_555
Pr13 Se9 3.038539 1_555
Pr13 Se20 3.064113 1_545
Pr13 Se0 3.140044 1_555
Pr13 Se2 3.195506 1_455
Pr13 Se22 3.224044 1_555
Pr13 Se19 3.253810 1_454
Pr14 Se22 3.014993 1_555
Pr14 Se23 3.014996 1_545
Pr14 Se20 3.037626 1_545
Pr14 Se19 3.037631 1_555
Pr14 Se0 3.178714 1_555
Pr14 Se5 3.178714 1_545
Pr14 Se16 3.216946 1_555
Pr14 Se18 3.216959 1_555
Pr15 Se15 3.025996 1_555
Pr15 Se23 3.025996 1_556
Pr15 Se11 3.055626 1_555
Pr15 Se1 3.055626 1_555
Pr15 Se21 3.186204 1_555
Pr15 Se22 3.186212 1_555
Pr15 Se20 3.248681 1_556
Pr15 Se18 3.248691 1_566
