# generated using pymatgen
data_Be(GaSe2)2
_symmetry_space_group_name_H-M   'P 1'
_cell_length_a   6.63320429
_cell_length_b   6.63320443
_cell_length_c   6.63320450
_cell_angle_alpha   132.23583139
_cell_angle_beta   132.23582579
_cell_angle_gamma   69.85681152
_symmetry_Int_Tables_number   1
_chemical_formula_structural   Be(GaSe2)2
_chemical_formula_sum   'Be1 Ga2 Se4'
_cell_volume   156.88256339
_cell_formula_units_Z   1
loop_
 _symmetry_equiv_pos_site_id
 _symmetry_equiv_pos_as_xyz
  1  'x, y, z'
loop_
 _atom_site_type_symbol
 _atom_site_label
 _atom_site_symmetry_multiplicity
 _atom_site_fract_x
 _atom_site_fract_y
 _atom_site_fract_z
 _atom_site_occupancy
  Be  Be0  1  0.00000000  0.00000000  0.00000000  1
  Ga  Ga0  1  0.50000000  0.50000000  0.00000000  1
  Ga  Ga1  1  0.25000000  0.75000000  0.50000000  1
  Se  Se0  1  0.37689248  0.90349825  0.02808380  1
  Se  Se1  1  0.09650175  0.12458555  0.47339322  1
  Se  Se2  1  0.65119233  0.62310752  0.52660678  1
  Se  Se3  1  0.87541545  0.34880767  0.97191720  1
loop_
_geom_bond_atom_site_label_1
_geom_bond_atom_site_label_2
_geom_bond_distance
_geom_bond_site_symmetry_2
Be0 Se3 2.264171 1_454
Be0 Se1 2.264174 1_555
Be0 Se2 2.264178 1_444
Be0 Se0 2.264181 1_545
Ga0 Se0 2.427761 1_555
Ga0 Se1 2.427761 1_554
Ga0 Se3 2.427764 1_554
Ga0 Se2 2.427764 1_555
Ga1 Se0 2.418080 1_556
Ga1 Se3 2.418081 1_454
Ga1 Se1 2.418083 1_565
Ga1 Se2 2.418083 1_555
