# generated using pymatgen
data_HfAl3TcNi
_symmetry_space_group_name_H-M   'P 1'
_cell_length_a   4.84984453
_cell_length_b   4.84984394
_cell_length_c   4.84984506
_cell_angle_alpha   63.24924925
_cell_angle_beta   63.24925700
_cell_angle_gamma   63.24925946
_symmetry_Int_Tables_number   1
_chemical_formula_structural   HfAl3TcNi
_chemical_formula_sum   'Hf1 Al3 Tc1 Ni1'
_cell_volume   86.46914849
_cell_formula_units_Z   1
loop_
 _symmetry_equiv_pos_site_id
 _symmetry_equiv_pos_as_xyz
  1  'x, y, z'
loop_
 _atom_site_type_symbol
 _atom_site_label
 _atom_site_symmetry_multiplicity
 _atom_site_fract_x
 _atom_site_fract_y
 _atom_site_fract_z
 _atom_site_occupancy
  Hf  Hf0  1  0.37768756  0.37768756  0.37768756  1
  Al  Al0  1  0.99893010  0.50288198  0.99893010  1
  Al  Al1  1  0.50288198  0.99893010  0.99893010  1
  Al  Al2  1  0.99893010  0.99893010  0.50288198  1
  Tc  Tc0  1  0.61919159  0.61919159  0.61919159  1
  Ni  Ni0  1  0.00237968  0.00237968  0.00237968  1
loop_
_geom_bond_atom_site_label_1
_geom_bond_atom_site_label_2
_geom_bond_distance
_geom_bond_site_symmetry_2
Hf0 Tc0 2.796500 1_555
Hf0 Ni0 2.976387 1_565
Hf0 Ni0 2.976387 1_556
Hf0 Ni0 2.976387 1_655
Hf0 Tc0 3.123031 1_545
Hf0 Tc0 3.123032 1_455
Hf0 Tc0 3.123032 1_554
Al0 Ni0 2.412419 1_656
Al0 Ni0 2.437666 1_666
Al0 Al2 2.522926 1_555
Al0 Al1 2.522926 1_555
Al0 Al2 2.563125 1_546
Al0 Al1 2.563125 1_645
Al0 Hf0 2.854237 1_656
Al0 Tc0 2.878305 1_555
Al0 Tc0 2.892078 1_655
Al0 Tc0 2.892078 1_556
Al0 Hf0 2.912249 1_556
Al0 Hf0 2.912250 1_655
Al1 Ni0 2.412419 1_566
Al1 Ni0 2.437667 1_666
Al1 Al2 2.522926 1_555
Al1 Al2 2.563125 1_456
Al1 Hf0 2.854237 1_566
Al1 Tc0 2.878304 1_555
Al1 Tc0 2.892077 1_565
Al1 Tc0 2.892078 1_556
Al1 Hf0 2.912249 1_556
Al1 Hf0 2.912249 1_565
Al2 Ni0 2.412419 1_665
Al2 Ni0 2.437667 1_666
Al2 Hf0 2.854236 1_665
Al2 Tc0 2.878304 1_555
Al2 Tc0 2.892078 1_565
Al2 Tc0 2.892078 1_655
Al2 Hf0 2.912249 1_655
Al2 Hf0 2.912249 1_565
Ni0 Tc0 2.992642 1_445
Ni0 Tc0 2.992642 1_454
Ni0 Tc0 2.992642 1_544
