# generated using pymatgen
data_Hf6Ga5(SiNi8)2
_symmetry_space_group_name_H-M   'P 1'
_cell_length_a   8.09663908
_cell_length_b   8.09663911
_cell_length_c   8.12149268
_cell_angle_alpha   59.89840587
_cell_angle_beta   59.89840576
_cell_angle_gamma   60.20318437
_symmetry_Int_Tables_number   1
_chemical_formula_structural   Hf6Ga5(SiNi8)2
_chemical_formula_sum   'Hf6 Ga5 Si2 Ni16'
_cell_volume   376.46291323
_cell_formula_units_Z   1
loop_
 _symmetry_equiv_pos_site_id
 _symmetry_equiv_pos_as_xyz
  1  'x, y, z'
loop_
 _atom_site_type_symbol
 _atom_site_label
 _atom_site_symmetry_multiplicity
 _atom_site_fract_x
 _atom_site_fract_y
 _atom_site_fract_z
 _atom_site_occupancy
  Hf  Hf0  1  0.79457015  0.20542985  0.79457015  1
  Hf  Hf1  1  0.79337539  0.79337539  0.20662461  1
  Hf  Hf2  1  0.20542985  0.79457015  0.79457015  1
  Hf  Hf3  1  0.20662461  0.20662461  0.79337539  1
  Hf  Hf4  1  0.79457015  0.20542985  0.20542985  1
  Hf  Hf5  1  0.20542985  0.79457015  0.20542985  1
  Ga  Ga0  1  0.00000000  0.50000000  0.00000000  1
  Ga  Ga1  1  0.50000000  0.50000000  0.50000000  1
  Ga  Ga2  1  0.50000000  0.00000000  0.50000000  1
  Ga  Ga3  1  0.00000000  0.50000000  0.50000000  1
  Ga  Ga4  1  0.50000000  0.00000000  0.00000000  1
  Si  Si0  1  0.50000000  0.50000000  0.00000000  1
  Si  Si1  1  0.00000000  0.00000000  0.50000000  1
  Ni  Ni0  1  0.16541612  0.16541612  0.17415140  1
  Ni  Ni1  1  0.61800596  0.61800596  0.13961616  1
  Ni  Ni2  1  0.38199404  0.38199404  0.37562808  1
  Ni  Ni3  1  0.17415140  0.49501637  0.16541612  1
  Ni  Ni4  1  0.16541612  0.16541612  0.49501637  1
  Ni  Ni5  1  0.13961616  0.62437192  0.61800596  1
  Ni  Ni6  1  0.62437192  0.13961616  0.61800596  1
  Ni  Ni7  1  0.83458388  0.83458388  0.82584860  1
  Ni  Ni8  1  0.86038384  0.37562808  0.38199404  1
  Ni  Ni9  1  0.38199404  0.38199404  0.86038384  1
  Ni  Ni10  1  0.37562808  0.86038384  0.38199404  1
  Ni  Ni11  1  0.50498363  0.82584860  0.83458388  1
  Ni  Ni12  1  0.61800596  0.61800596  0.62437192  1
  Ni  Ni13  1  0.83458388  0.83458388  0.50498363  1
  Ni  Ni14  1  0.49501637  0.17415140  0.16541612  1
  Ni  Ni15  1  0.82584860  0.50498363  0.83458388  1
loop_
_geom_bond_atom_site_label_1
_geom_bond_atom_site_label_2
_geom_bond_distance
_geom_bond_site_symmetry_2
Hf0 Ni4 2.745142 1_655
Hf0 Ni7 2.745142 1_545
Hf0 Ni14 2.745142 1_556
Hf0 Ni15 2.745142 1_555
Hf0 Ni9 2.778049 1_555
Hf0 Ni12 2.778049 1_555
Hf0 Ni6 2.778049 1_555
Hf0 Ni8 2.778049 1_555
Hf0 Si0 2.916656 1_556
Hf0 Si1 2.916656 1_655
Hf1 Ni3 2.797626 1_655
Hf1 Ni14 2.797626 1_565
Hf1 Ni13 2.797626 1_555
Hf1 Ni7 2.797626 1_554
Hf1 Ni10 2.807549 1_555
Hf1 Ni8 2.807549 1_555
Hf1 Ni1 2.807549 1_555
Hf1 Ni12 2.807549 1_555
Hf2 Ni7 2.745142 1_455
Hf2 Ni4 2.745142 1_565
Hf2 Ni11 2.745142 1_555
Hf2 Ni3 2.745142 1_556
Hf2 Ni12 2.778049 1_555
Hf2 Ni9 2.778049 1_555
Hf2 Ni10 2.778049 1_555
Hf2 Ni5 2.778049 1_555
Hf2 Si0 2.916656 1_556
Hf2 Si1 2.916656 1_565
Hf3 Ni15 2.797626 1_455
Hf3 Ni11 2.797626 1_545
Hf3 Ni4 2.797626 1_555
Hf3 Ni0 2.797626 1_556
Hf3 Ni6 2.807549 1_555
Hf3 Ni5 2.807549 1_555
Hf3 Ni2 2.807549 1_555
Hf3 Ni9 2.807549 1_555
Hf4 Ni0 2.745142 1_655
Hf4 Ni13 2.745142 1_545
Hf4 Ni14 2.745142 1_555
Hf4 Ni15 2.745142 1_554
Hf4 Ni2 2.778049 1_555
Hf4 Ni1 2.778049 1_555
Hf4 Ni6 2.778049 1_555
Hf4 Ni8 2.778049 1_555
Hf4 Si0 2.916656 1_555
Hf4 Si1 2.916656 1_655
Hf5 Ni13 2.745142 1_455
Hf5 Ni0 2.745142 1_565
Hf5 Ni11 2.745142 1_554
Hf5 Ni3 2.745142 1_555
Hf5 Ni1 2.778049 1_555
Hf5 Ni2 2.778049 1_555
Hf5 Ni10 2.778049 1_555
Hf5 Ni5 2.778049 1_555
Hf5 Si0 2.916656 1_555
Hf5 Si1 2.916656 1_565
Ga0 Ni0 2.363010 1_555
Ga0 Ni7 2.363010 1_454
Ga0 Ni15 2.363010 1_454
Ga0 Ni3 2.363010 1_555
Ga0 Ni1 2.529125 1_455
Ga0 Ni9 2.529125 1_554
Ga0 Ni5 2.529126 1_554
Ga0 Ni8 2.529126 1_455
Ga0 Hf2 2.899330 1_554
Ga0 Hf4 2.899330 1_455
Ga0 Hf1 2.913759 1_455
Ga0 Hf3 2.913759 1_554
Ga1 Ni8 2.385251 1_555
Ga1 Ni5 2.385251 1_555
Ga1 Ni10 2.385251 1_555
Ga1 Ni6 2.385251 1_555
Ga1 Ni9 2.385252 1_555
Ga1 Ni1 2.385252 1_555
Ga1 Ni2 2.385252 1_555
Ga1 Ni12 2.385252 1_555
Ga2 Ni13 2.363010 1_545
Ga2 Ni4 2.363010 1_555
Ga2 Ni11 2.363010 1_545
Ga2 Ni14 2.363010 1_555
Ga2 Ni12 2.529125 1_545
Ga2 Ni2 2.529125 1_555
Ga2 Ni10 2.529126 1_545
Ga2 Ni6 2.529126 1_555
Ga2 Hf4 2.899330 1_555
Ga2 Hf2 2.899330 1_545
Ga2 Hf3 2.913759 1_555
Ga2 Hf1 2.913759 1_545
Ga3 Ni13 2.363010 1_455
Ga3 Ni4 2.363010 1_555
Ga3 Ni3 2.363010 1_555
Ga3 Ni15 2.363010 1_455
Ga3 Ni12 2.529125 1_455
Ga3 Ni2 2.529125 1_555
Ga3 Ni8 2.529126 1_455
Ga3 Ni5 2.529126 1_555
Ga3 Hf5 2.899330 1_555
Ga3 Hf0 2.899330 1_455
Ga3 Hf3 2.913759 1_555
Ga3 Hf1 2.913759 1_455
Ga4 Ni0 2.363010 1_555
Ga4 Ni7 2.363010 1_544
Ga4 Ni14 2.363010 1_555
Ga4 Ni11 2.363010 1_544
Ga4 Ni1 2.529125 1_545
Ga4 Ni9 2.529125 1_554
Ga4 Ni6 2.529126 1_554
Ga4 Ni10 2.529126 1_545
Ga4 Hf0 2.899330 1_554
Ga4 Hf5 2.899330 1_545
Ga4 Hf1 2.913759 1_545
Ga4 Hf3 2.913759 1_554
Ni0 Si1 2.294156 1_555
Ni0 Ni8 2.523527 1_455
Ni0 Ni10 2.523527 1_545
Ni0 Ni9 2.595211 1_554
Ni0 Ni4 2.605903 1_555
Ni0 Ni14 2.669157 1_555
Ni0 Ni3 2.669157 1_555
Ni1 Si0 2.488407 1_555
Ni1 Ni15 2.523527 1_554
Ni1 Ni11 2.523527 1_554
Ni1 Ni7 2.595211 1_554
Ni1 Ni2 2.694105 1_555
Ni1 Ni8 2.783837 1_555
Ni1 Ni10 2.783837 1_555
Ni2 Si0 2.488407 1_555
Ni2 Ni3 2.523527 1_555
Ni2 Ni4 2.595211 1_555
Ni2 Ni6 2.783837 1_555
Ni2 Ni5 2.783837 1_555
Ni3 Si0 2.294156 1_555
Ni3 Ni9 2.523527 1_554
Ni3 Ni8 2.595211 1_455
Ni3 Ni4 2.669157 1_555
Ni4 Si1 2.294156 1_555
Ni4 Ni8 2.523527 1_455
Ni5 Si1 2.488407 1_565
Ni5 Ni7 2.523527 1_455
Ni5 Ni9 2.783837 1_555
Ni6 Si1 2.488407 1_655
Ni6 Ni7 2.523527 1_545
Ni6 Ni8 2.694105 1_555
Ni6 Ni9 2.783837 1_555
Ni7 Si1 2.294156 1_665
Ni8 Si1 2.488407 1_655
Ni9 Si0 2.488407 1_556
Ni10 Si1 2.488407 1_565
Ni10 Ni4 2.523527 1_565
Ni10 Ni14 2.595211 1_565
Ni10 Ni5 2.694105 1_555
Ni10 Ni12 2.783837 1_555
Ni11 Si0 2.294156 1_556
Ni11 Ni12 2.523527 1_555
Ni11 Ni6 2.595211 1_565
Ni11 Ni15 2.605902 1_555
Ni11 Ni7 2.669157 1_555
Ni11 Ni13 2.669157 1_555
Ni12 Si0 2.488407 1_556
Ni12 Ni15 2.523527 1_555
Ni12 Ni13 2.595211 1_555
Ni12 Ni9 2.694105 1_555
Ni12 Ni8 2.783837 1_555
Ni13 Si1 2.294156 1_665
Ni13 Ni5 2.523527 1_655
Ni13 Ni6 2.523527 1_565
Ni13 Ni7 2.605903 1_555
Ni13 Ni15 2.669157 1_555
Ni14 Si0 2.294156 1_555
Ni14 Ni9 2.523527 1_554
Ni14 Ni2 2.523527 1_555
Ni14 Ni3 2.605902 1_555
Ni14 Ni4 2.669157 1_555
Ni15 Si0 2.294156 1_556
Ni15 Ni5 2.595211 1_655
Ni15 Ni7 2.669157 1_555
