# generated using pymatgen
data_Zr3Al2PtN
_symmetry_space_group_name_H-M   'P 1'
_cell_length_a   8.59053518
_cell_length_b   8.59053559
_cell_length_c   8.59053630
_cell_angle_alpha   60.00000485
_cell_angle_beta   60.00000329
_cell_angle_gamma   59.99999937
_symmetry_Int_Tables_number   1
_chemical_formula_structural   Zr3Al2PtN
_chemical_formula_sum   'Zr12 Al8 Pt4 N4'
_cell_volume   448.27628704
_cell_formula_units_Z   4
loop_
 _symmetry_equiv_pos_site_id
 _symmetry_equiv_pos_as_xyz
  1  'x, y, z'
loop_
 _atom_site_type_symbol
 _atom_site_label
 _atom_site_symmetry_multiplicity
 _atom_site_fract_x
 _atom_site_fract_y
 _atom_site_fract_z
 _atom_site_occupancy
  Zr  Zr0  1  0.81155969  0.18844031  0.18844031  1
  Zr  Zr1  1  0.18844031  0.81155969  0.18844031  1
  Zr  Zr2  1  0.81155969  0.81155969  0.18844031  1
  Zr  Zr3  1  0.18844031  0.81155969  0.81155969  1
  Zr  Zr4  1  0.81155969  0.18844031  0.81155969  1
  Zr  Zr5  1  0.18844031  0.18844031  0.81155969  1
  Zr  Zr6  1  0.43844031  0.06155969  0.06155969  1
  Zr  Zr7  1  0.06155969  0.43844031  0.06155969  1
  Zr  Zr8  1  0.43844031  0.43844031  0.06155969  1
  Zr  Zr9  1  0.06155969  0.43844031  0.43844031  1
  Zr  Zr10  1  0.43844031  0.06155969  0.43844031  1
  Zr  Zr11  1  0.06155969  0.06155969  0.43844031  1
  Al  Al0  1  0.41951805  0.41951805  0.74144486  1
  Al  Al1  1  0.41951805  0.41951805  0.41951805  1
  Al  Al2  1  0.74144486  0.41951805  0.41951805  1
  Al  Al3  1  0.41951805  0.74144486  0.41951805  1
  Al  Al4  1  0.83048195  0.83048195  0.50855514  1
  Al  Al5  1  0.83048195  0.83048195  0.83048195  1
  Al  Al6  1  0.50855514  0.83048195  0.83048195  1
  Al  Al7  1  0.83048195  0.50855514  0.83048195  1
  Pt  Pt0  1  0.62500000  0.62500000  0.12500000  1
  Pt  Pt1  1  0.62500000  0.62500000  0.62500000  1
  Pt  Pt2  1  0.12500000  0.62500000  0.62500000  1
  Pt  Pt3  1  0.62500000  0.12500000  0.62500000  1
  N  N0  1  0.12500000  0.12500000  0.62500000  1
  N  N1  1  0.12500000  0.12500000  0.12500000  1
  N  N2  1  0.62500000  0.12500000  0.12500000  1
  N  N3  1  0.12500000  0.62500000  0.12500000  1
loop_
_geom_bond_atom_site_label_1
_geom_bond_atom_site_label_2
_geom_bond_distance
_geom_bond_site_symmetry_2
Al0 Pt2 2.610912 1_555
Al0 Pt3 2.610912 1_555
Al0 Pt1 2.610919 1_555
Al0 Al2 2.765524 1_555
Al0 Al1 2.765524 1_555
Al0 Al3 2.765524 1_555
Al0 Zr7 2.921564 1_556
Al0 Zr6 2.921564 1_556
Al0 Zr8 2.921569 1_556
Al0 Zr5 3.129395 1_555
Al0 Zr4 3.129403 1_555
Al0 Zr3 3.129403 1_555
Al1 Pt2 2.610917 1_555
Al1 Pt3 2.610917 1_555
Al1 Pt0 2.610917 1_555
Al1 Al2 2.765524 1_555
Al1 Al3 2.765524 1_555
Al1 Zr9 2.921560 1_555
Al1 Zr10 2.921560 1_555
Al1 Zr8 2.921560 1_555
Al1 Zr0 3.129399 1_555
Al1 Zr1 3.129399 1_555
Al1 Zr5 3.129400 1_555
Al2 Pt3 2.610912 1_555
Al2 Pt0 2.610912 1_555
Al2 Pt1 2.610919 1_555
Al2 Al3 2.765524 1_555
Al2 Zr11 2.921564 1_655
Al2 Zr7 2.921564 1_655
Al2 Zr9 2.921568 1_655
Al2 Zr0 3.129395 1_555
Al2 Zr2 3.129403 1_555
Al2 Zr4 3.129403 1_555
Al3 Pt2 2.610912 1_555
Al3 Pt0 2.610912 1_555
Al3 Pt1 2.610919 1_555
Al3 Zr11 2.921564 1_565
Al3 Zr6 2.921564 1_565
Al3 Zr10 2.921568 1_565
Al3 Zr1 3.129395 1_555
Al3 Zr2 3.129403 1_555
Al3 Zr3 3.129403 1_555
Al4 Pt2 2.610912 1_655
Al4 Pt3 2.610912 1_565
Al4 Pt1 2.610919 1_555
Al4 Al6 2.765524 1_555
Al4 Al5 2.765524 1_555
Al4 Al7 2.765524 1_555
Al4 Zr1 2.921564 1_655
Al4 Zr0 2.921564 1_565
Al4 Zr2 2.921569 1_555
Al4 Zr11 3.129395 1_665
Al4 Zr10 3.129403 1_565
Al4 Zr9 3.129403 1_655
Al5 Pt2 2.610917 1_655
Al5 Pt3 2.610917 1_565
Al5 Pt0 2.610917 1_556
Al5 Al6 2.765524 1_555
Al5 Al7 2.765524 1_555
Al5 Zr3 2.921560 1_655
Al5 Zr4 2.921560 1_565
Al5 Zr2 2.921560 1_556
Al5 Zr6 3.129399 1_566
Al5 Zr7 3.129399 1_656
Al5 Zr11 3.129400 1_665
Al6 Pt3 2.610912 1_565
Al6 Pt0 2.610912 1_556
Al6 Pt1 2.610919 1_555
Al6 Al7 2.765524 1_555
Al6 Zr5 2.921564 1_565
Al6 Zr1 2.921564 1_556
Al6 Zr3 2.921568 1_555
Al6 Zr6 3.129395 1_566
Al6 Zr8 3.129403 1_556
Al6 Zr10 3.129403 1_565
Al7 Pt2 2.610912 1_655
Al7 Pt0 2.610912 1_556
Al7 Pt1 2.610919 1_555
Al7 Zr5 2.921564 1_655
Al7 Zr0 2.921564 1_556
Al7 Zr4 2.921568 1_555
Al7 Zr7 3.129395 1_656
Al7 Zr8 3.129403 1_556
Al7 Zr9 3.129403 1_655
Pt0 Zr7 3.122385 1_655
Pt0 Zr1 3.122385 1_555
Pt0 Zr2 3.122385 1_555
Pt0 Zr8 3.122385 1_555
Pt0 Zr6 3.122385 1_565
Pt0 Zr0 3.122385 1_555
Pt1 Zr9 3.122385 1_655
Pt1 Zr3 3.122385 1_555
Pt1 Zr10 3.122385 1_565
Pt1 Zr4 3.122385 1_555
Pt1 Zr8 3.122386 1_556
Pt1 Zr2 3.122386 1_555
Pt2 Zr3 3.122385 1_555
Pt2 Zr9 3.122385 1_555
Pt2 Zr11 3.122385 1_565
Pt2 Zr5 3.122385 1_555
Pt2 Zr7 3.122386 1_556
Pt2 Zr1 3.122386 1_555
Pt3 Zr11 3.122385 1_655
Pt3 Zr5 3.122385 1_555
Pt3 Zr4 3.122385 1_555
Pt3 Zr10 3.122385 1_555
Pt3 Zr6 3.122386 1_556
Pt3 Zr0 3.122386 1_555
N0 Zr4 2.281743 1_455
N0 Zr10 2.281743 1_555
N0 Zr5 2.281743 1_555
N0 Zr11 2.281743 1_555
N0 Zr9 2.281743 1_555
N0 Zr3 2.281743 1_545
N1 Zr6 2.281743 1_555
N1 Zr0 2.281743 1_455
N1 Zr7 2.281743 1_555
N1 Zr1 2.281743 1_545
N1 Zr11 2.281743 1_555
N1 Zr5 2.281743 1_554
N2 Zr0 2.281743 1_555
N2 Zr6 2.281743 1_555
N2 Zr8 2.281743 1_555
N2 Zr2 2.281743 1_545
N2 Zr10 2.281743 1_555
N2 Zr4 2.281743 1_554
N3 Zr8 2.281743 1_555
N3 Zr2 2.281743 1_455
N3 Zr1 2.281743 1_555
N3 Zr7 2.281743 1_555
N3 Zr9 2.281743 1_555
N3 Zr3 2.281743 1_554
