# generated using pymatgen
data_MgNb2(CoAs)3
_symmetry_space_group_name_H-M   'P 1'
_cell_length_a   6.95965752
_cell_length_b   6.95965730
_cell_length_c   6.96078056
_cell_angle_alpha   99.59276027
_cell_angle_beta   99.59275916
_cell_angle_gamma   120.01657528
_symmetry_Int_Tables_number   1
_chemical_formula_structural   MgNb2(CoAs)3
_chemical_formula_sum   'Mg2 Nb4 Co6 As6'
_cell_volume   275.23851573
_cell_formula_units_Z   2
loop_
 _symmetry_equiv_pos_site_id
 _symmetry_equiv_pos_as_xyz
  1  'x, y, z'
loop_
 _atom_site_type_symbol
 _atom_site_label
 _atom_site_symmetry_multiplicity
 _atom_site_fract_x
 _atom_site_fract_y
 _atom_site_fract_z
 _atom_site_occupancy
  Mg  Mg0  1  0.83594759  0.66660384  0.00123034  1
  Mg  Mg1  1  0.66660484  0.83594859  0.50122934  1
  Nb  Nb0  1  0.00122593  0.49941077  0.49944887  1
  Nb  Nb1  1  0.33108542  0.16507967  0.49923943  1
  Nb  Nb2  1  0.49941077  0.00122593  0.99944787  1
  Nb  Nb3  1  0.16507967  0.33108542  0.99923943  1
  Co  Co0  1  0.27690582  0.44341646  0.36864885  1
  Co  Co1  1  0.62181306  0.13741859  0.36894107  1
  Co  Co2  1  0.97696743  0.79415662  0.38738826  1
  Co  Co3  1  0.44341646  0.27690582  0.86864885  1
  Co  Co4  1  0.13741759  0.62181306  0.86894107  1
  Co  Co5  1  0.79415662  0.97696743  0.88739026  1
  As  As0  1  0.25130566  0.74952482  0.24816384  1
  As  As1  1  0.58849863  0.42822884  0.24939102  1
  As  As2  1  0.91061248  0.07179635  0.25254832  1
  As  As3  1  0.74952582  0.25130666  0.74816384  1
  As  As4  1  0.42822984  0.58849963  0.74939102  1
  As  As5  1  0.07179635  0.91061248  0.75254832  1
loop_
_geom_bond_atom_site_label_1
_geom_bond_atom_site_label_2
_geom_bond_distance
_geom_bond_site_symmetry_2
Co0 Nb0 2.423637 1_555
Co0 Nb3 2.425520 1_554
Co0 Nb1 2.434008 1_555
Co0 Mg1 2.565779 1_555
Co1 Nb2 2.426625 1_554
Co1 Nb1 2.428339 1_555
Co1 Nb0 2.434518 1_655
Co1 Mg1 2.559274 1_545
Co2 Nb1 2.381067 1_665
Co2 Nb0 2.383445 1_655
Co2 Mg0 2.535785 1_555
Co2 Mg1 2.549595 1_555
Co3 Nb2 2.423634 1_555
Co3 Nb1 2.425520 1_555
Co3 Nb3 2.434008 1_555
Co3 Mg0 2.565773 1_556
Co4 Nb0 2.426618 1_555
Co4 Nb3 2.428342 1_555
Co4 Nb2 2.434521 1_565
Co4 Mg0 2.559274 1_456
Co5 Nb3 2.381067 1_665
Co5 Nb2 2.383435 1_565
Co5 Mg1 2.535805 1_555
Co5 Mg0 2.549595 1_556
As0 Co2 2.406412 1_455
As0 Co0 2.489820 1_555
As0 Co1 2.490024 1_565
As0 Co4 2.490392 1_554
As0 Mg0 2.826340 1_455
As0 Nb2 2.833421 1_564
As0 Mg1 2.833628 1_555
As0 Nb3 2.840152 1_554
As0 Nb1 2.848226 1_565
As0 Nb0 2.849041 1_555
As1 Co1 2.410211 1_555
As1 Co2 2.479586 1_555
As1 Co0 2.490602 1_555
As1 Co3 2.503297 1_554
As1 Mg0 2.791079 1_555
As1 Mg1 2.810989 1_555
As1 Nb3 2.842029 1_554
As1 Nb0 2.854564 1_655
As1 Nb2 2.883862 1_554
As1 Nb1 2.899234 1_555
As2 Co5 2.402553 1_544
As2 Co0 2.420998 1_655
As2 Co2 2.486101 1_545
As2 Co1 2.498538 1_555
As2 Mg1 2.777127 1_545
As2 Mg0 2.805252 1_545
As2 Nb1 2.826042 1_655
As2 Nb2 2.856579 1_554
As2 Nb0 2.874819 1_655
As2 Nb3 2.899244 1_654
As3 Co5 2.406422 1_545
As3 Co3 2.489824 1_555
As3 Co4 2.490014 1_655
As3 Co1 2.490392 1_555
As3 Mg1 2.826343 1_545
As3 Nb0 2.833409 1_655
As3 Mg0 2.833625 1_556
As3 Nb1 2.840155 1_555
As3 Nb3 2.848223 1_655
As3 Nb2 2.849041 1_555
As4 Co4 2.410221 1_555
As4 Co5 2.479580 1_555
As4 Co3 2.490605 1_555
As4 Co0 2.503298 1_555
As4 Mg1 2.791085 1_555
As4 Mg0 2.810987 1_556
As4 Nb1 2.842031 1_555
As4 Nb2 2.854559 1_565
As4 Nb0 2.883862 1_555
As4 Nb3 2.899239 1_555
As5 Co2 2.402566 1_455
As5 Co3 2.420998 1_565
As5 Co5 2.486108 1_455
As5 Co4 2.498534 1_555
As5 Mg0 2.777138 1_456
As5 Mg1 2.805253 1_455
As5 Nb3 2.826042 1_565
As5 Nb0 2.856575 1_555
As5 Nb2 2.874817 1_565
As5 Nb1 2.899244 1_565
