# generated using pymatgen
data_Nb10GaB4S
_symmetry_space_group_name_H-M   'P 1'
_cell_length_a   7.32269054
_cell_length_b   7.32269109
_cell_length_c   7.32269150
_cell_angle_alpha   129.43405148
_cell_angle_beta   129.43405557
_cell_angle_gamma   74.31315419
_symmetry_Int_Tables_number   1
_chemical_formula_structural   Nb10GaB4S
_chemical_formula_sum   'Nb10 Ga1 B4 S1'
_cell_volume   228.32895005
_cell_formula_units_Z   1
loop_
 _symmetry_equiv_pos_site_id
 _symmetry_equiv_pos_as_xyz
  1  'x, y, z'
loop_
 _atom_site_type_symbol
 _atom_site_label
 _atom_site_symmetry_multiplicity
 _atom_site_fract_x
 _atom_site_fract_y
 _atom_site_fract_z
 _atom_site_occupancy
  Nb  Nb0  1  0.99709324  0.99709324  1.00000000  1
  Nb  Nb1  1  0.50290676  0.50290676  0.00000000  1
  Nb  Nb2  1  0.80975495  0.30214237  0.83531158  1
  Nb  Nb3  1  0.19785763  0.69024505  0.16468842  1
  Nb  Nb4  1  0.46682979  0.97444237  0.16468842  1
  Nb  Nb5  1  0.30214237  0.46682979  0.49238742  1
  Nb  Nb6  1  0.03317021  0.19785763  0.50761258  1
  Nb  Nb7  1  0.52555763  0.03317021  0.83531158  1
  Nb  Nb8  1  0.69024505  0.52555763  0.49238742  1
  Nb  Nb9  1  0.97444237  0.80975495  0.50761258  1
  Ga  Ga0  1  0.75000000  0.75000000  0.00000000  1
  B  B0  1  0.11333334  0.61333334  0.72666567  1
  B  B1  1  0.88666666  0.38666666  0.27333433  1
  B  B2  1  0.61333334  0.88666666  0.50000000  1
  B  B3  1  0.38666666  0.11333334  0.50000000  1
  S  S0  1  0.25000000  0.25000000  0.00000000  1
loop_
_geom_bond_atom_site_label_1
_geom_bond_atom_site_label_2
_geom_bond_distance
_geom_bond_site_symmetry_2
Nb0 Nb4 2.826561 1_656
Nb0 Nb5 2.826564 1_666
Nb0 Nb9 2.826564 1_555
Nb0 Nb2 2.826568 1_565
Nb0 Nb7 2.840461 1_565
Nb0 Nb8 2.840463 1_555
Nb0 Nb6 2.840463 1_666
Nb0 Nb3 2.840467 1_656
Nb0 S0 2.951976 1_666
Nb1 Nb7 2.826562 1_554
Nb1 Nb6 2.826564 1_554
Nb1 Nb8 2.826564 1_555
Nb1 Nb3 2.826568 1_555
Nb1 Nb4 2.840461 1_555
Nb1 Nb9 2.840463 1_555
Nb1 Nb5 2.840463 1_554
Nb1 Nb2 2.840467 1_554
Nb1 S0 2.951976 1_555
Nb2 S0 2.640699 1_656
Nb3 S0 2.640700 1_555
Nb4 S0 2.640705 1_565
Nb5 S0 2.640702 1_555
Nb6 S0 2.640701 1_556
Nb7 S0 2.640705 1_556
Nb8 S0 2.640701 1_555
Nb9 S0 2.640702 1_666
Ga0 Nb3 2.696502 1_655
Ga0 Nb2 2.696502 1_554
Ga0 Nb5 2.696504 1_554
Ga0 Nb9 2.696504 1_555
Ga0 Nb6 2.696504 1_665
Ga0 Nb8 2.696504 1_554
Ga0 Nb4 2.696508 1_555
Ga0 Nb7 2.696508 1_564
Ga0 Nb0 2.884120 1_554
Ga0 Nb1 2.884120 1_555
B0 B1 2.005026 1_455
B0 Nb9 2.396585 1_455
B0 Nb6 2.396593 1_555
B0 Nb5 2.424590 1_555
B0 Nb8 2.424598 1_455
B0 Nb1 2.520534 1_556
B0 Nb0 2.520534 1_455
B0 Nb4 2.521876 1_556
B0 Nb3 2.521891 1_556
B1 Nb8 2.396585 1_555
B1 Nb5 2.396593 1_655
B1 Nb6 2.424590 1_655
B1 Nb9 2.424598 1_555
B1 Nb1 2.520534 1_555
B1 Nb0 2.520534 1_544
B1 Nb7 2.521876 1_554
B1 Nb2 2.521891 1_554
B2 B3 2.005035 1_565
B2 Nb3 2.396592 1_555
B2 Nb2 2.396592 1_565
B2 Nb4 2.424589 1_555
B2 Nb7 2.424589 1_565
B2 Nb0 2.520532 1_555
B2 Nb1 2.520532 1_555
B2 Nb9 2.521876 1_555
B2 Nb8 2.521877 1_555
B3 Nb7 2.396584 1_555
B3 Nb4 2.396584 1_545
B3 Nb2 2.424597 1_555
B3 Nb3 2.424597 1_545
B3 Nb0 2.520532 1_444
B3 Nb1 2.520532 1_556
B3 Nb6 2.521876 1_555
B3 Nb5 2.521877 1_555
