# generated using pymatgen
data_K6LuInSb4
_symmetry_space_group_name_H-M   'P 1'
_cell_length_a   9.78181564
_cell_length_b   9.78181553
_cell_length_c   9.78181694
_cell_angle_alpha   129.17149455
_cell_angle_beta   68.62142652
_cell_angle_gamma   137.12878465
_symmetry_Int_Tables_number   1
_chemical_formula_structural   K6LuInSb4
_chemical_formula_sum   'K6 Lu1 In1 Sb4'
_cell_volume   485.00717086
_cell_formula_units_Z   1
loop_
 _symmetry_equiv_pos_site_id
 _symmetry_equiv_pos_as_xyz
  1  'x, y, z'
loop_
 _atom_site_type_symbol
 _atom_site_label
 _atom_site_symmetry_multiplicity
 _atom_site_fract_x
 _atom_site_fract_y
 _atom_site_fract_z
 _atom_site_occupancy
  K  K0  1  0.30792918  0.68826638  0.01269456  1
  K  K1  1  0.19207082  0.20476639  0.38033720  1
  K  K2  1  0.75000000  0.25000000  0.50000000  1
  K  K3  1  0.25000000  0.74999900  0.49999900  1
  K  K4  1  0.82443019  0.81173462  0.61966380  1
  K  K5  1  0.67556981  0.29523461  0.98730644  1
  Lu  Lu0  1  0.75000000  0.75000000  0.00000000  1
  In  In0  1  0.25000000  0.25000000  0.00000000  1
  Sb  Sb0  1  0.90041170  0.20112887  0.09460303  1
  Sb  Sb1  1  0.59958930  0.69419333  0.30071818  1
  Sb  Sb2  1  0.39347415  0.29887013  0.69928082  1
  Sb  Sb3  1  0.10652585  0.80580667  0.90539597  1
loop_
_geom_bond_atom_site_label_1
_geom_bond_atom_site_label_2
_geom_bond_distance
_geom_bond_site_symmetry_2
K0 Sb3 3.557661 1_554
K0 Sb2 3.557686 1_554
K0 Sb0 3.727025 1_455
K0 Lu0 3.867167 1_555
K0 Sb0 3.884421 1_565
K1 Sb2 3.557668 1_555
K1 Sb3 3.557687 1_544
K1 Sb1 3.727025 1_555
K1 Lu0 3.867165 1_445
K1 Sb1 3.884415 1_445
K2 Sb1 3.535674 1_545
K2 Sb2 3.535676 1_555
K2 Sb3 3.535677 1_655
K2 Sb0 3.535684 1_555
K3 Sb1 3.510510 1_555
K3 Sb0 3.510514 1_455
K3 Sb2 3.510522 1_565
K3 Sb3 3.510522 1_555
K4 Sb0 3.557672 1_566
K4 Sb1 3.557686 1_555
K4 Sb2 3.727013 1_665
K4 Lu0 3.867158 1_556
K4 Sb2 3.884416 1_555
K5 Sb1 3.557670 1_556
K5 Sb0 3.557683 1_556
K5 Sb3 3.727013 1_545
K5 Lu0 3.867160 1_556
K5 Sb3 3.884422 1_655
Lu0 Sb0 2.968423 1_565
Lu0 Sb1 2.968424 1_555
Lu0 Sb3 2.968433 1_654
Lu0 Sb2 2.968433 1_554
In0 Sb0 2.938405 1_455
In0 Sb1 2.938414 1_555
In0 Sb3 2.938419 1_544
In0 Sb2 2.938419 1_554
In0 K5 3.812238 1_554
In0 K4 3.812240 1_444
In0 K1 3.812249 1_555
In0 K0 3.812255 1_555
