# generated using pymatgen
data_K2Zr(IO3)6
_symmetry_space_group_name_H-M   'P 1'
_cell_length_a   7.60799806
_cell_length_b   7.60799826
_cell_length_c   7.60799812
_cell_angle_alpha   97.08418537
_cell_angle_beta   97.08417591
_cell_angle_gamma   97.08417996
_symmetry_Int_Tables_number   1
_chemical_formula_structural   K2Zr(IO3)6
_chemical_formula_sum   'K2 Zr1 I6 O18'
_cell_volume   429.35304077
_cell_formula_units_Z   1
loop_
 _symmetry_equiv_pos_site_id
 _symmetry_equiv_pos_as_xyz
  1  'x, y, z'
loop_
 _atom_site_type_symbol
 _atom_site_label
 _atom_site_symmetry_multiplicity
 _atom_site_fract_x
 _atom_site_fract_y
 _atom_site_fract_z
 _atom_site_occupancy
  K  K0  1  0.17199921  0.17199921  0.17199921  1
  K  K1  1  0.82800079  0.82800079  0.82800079  1
  Zr  Zr0  1  0.50000000  0.50000000  0.50000000  1
  I  I0  1  0.33535595  0.70921670  0.10987588  1
  I  I1  1  0.10987588  0.33535595  0.70921670  1
  I  I2  1  0.89012412  0.66464405  0.29078330  1
  I  I3  1  0.66464405  0.29078330  0.89012412  1
  I  I4  1  0.70921670  0.10987588  0.33535595  1
  I  I5  1  0.29078330  0.89012412  0.66464405  1
  O  O0  1  0.90523373  0.27786772  0.38445113  1
  O  O1  1  0.09478317  0.69120351  0.06428961  1
  O  O2  1  0.09476627  0.72213228  0.61554887  1
  O  O3  1  0.44902550  0.72194415  0.66499672  1
  O  O4  1  0.55097550  0.27805585  0.33500328  1
  O  O5  1  0.33500328  0.55097550  0.27805585  1
  O  O6  1  0.27786772  0.38445113  0.90523373  1
  O  O7  1  0.66499672  0.44902450  0.72194415  1
  O  O8  1  0.72213228  0.61554887  0.09476627  1
  O  O9  1  0.06428961  0.09478317  0.69120351  1
  O  O10  1  0.38445113  0.90523373  0.27786772  1
  O  O11  1  0.61554887  0.09476627  0.72213228  1
  O  O12  1  0.69120351  0.06428961  0.09478317  1
  O  O13  1  0.72194415  0.66499672  0.44902450  1
  O  O14  1  0.93571039  0.90521683  0.30879649  1
  O  O15  1  0.27805585  0.33500328  0.55097550  1
  O  O16  1  0.90521683  0.30879649  0.93571039  1
  O  O17  1  0.30879649  0.93571039  0.90521683  1
loop_
_geom_bond_atom_site_label_1
_geom_bond_atom_site_label_2
_geom_bond_distance
_geom_bond_site_symmetry_2
K0 O0 2.876037 1_455
K0 O6 2.876037 1_554
K0 O10 2.876037 1_545
K0 O17 2.918385 1_544
K0 O14 2.918386 1_445
K0 O16 2.918386 1_454
K0 O15 2.966402 1_555
K0 O5 2.966402 1_555
K0 O4 2.966402 1_555
K1 O2 2.876037 1_655
K1 O8 2.876037 1_556
K1 O11 2.876037 1_565
K1 O12 2.918385 1_566
K1 O9 2.918386 1_665
K1 O1 2.918386 1_656
K1 O3 2.966395 1_555
K1 O13 2.966402 1_555
K1 O7 2.966402 1_555
I0 O1 1.805220 1_555
I0 O10 1.808786 1_555
I0 O5 1.861862 1_555
I0 O17 2.470745 1_554
I1 O9 1.805220 1_555
I1 O6 1.808786 1_555
I1 O15 1.861862 1_555
I1 O16 2.470745 1_455
I2 O14 1.805220 1_555
I2 O8 1.808786 1_555
I2 O13 1.861862 1_555
I2 O1 2.470745 1_655
I3 O16 1.805220 1_555
I3 O11 1.808786 1_555
I3 O7 1.861862 1_555
I3 O12 2.470745 1_556
I4 O12 1.805220 1_555
I4 O0 1.808786 1_555
I4 O4 1.861862 1_555
I4 O14 2.470745 1_545
I5 O17 1.805220 1_555
I5 O2 1.808786 1_555
I5 O3 1.861868 1_555
I5 O9 2.470745 1_565
O3 Zr0 2.082342 1_555
O4 Zr0 2.082345 1_555
O5 Zr0 2.082345 1_555
O7 Zr0 2.082345 1_555
O13 Zr0 2.082345 1_555
O15 Zr0 2.082345 1_555
