# generated using pymatgen
data_CaInSnPt
_symmetry_space_group_name_H-M   'P 1'
_cell_length_a   5.86625952
_cell_length_b   5.86625842
_cell_length_c   7.58305573
_cell_angle_alpha   90.00000000
_cell_angle_beta   90.00000000
_cell_angle_gamma   135.72170611
_symmetry_Int_Tables_number   1
_chemical_formula_structural   CaInSnPt
_chemical_formula_sum   'Ca2 In2 Sn2 Pt2'
_cell_volume   182.18465002
_cell_formula_units_Z   2
loop_
 _symmetry_equiv_pos_site_id
 _symmetry_equiv_pos_as_xyz
  1  'x, y, z'
loop_
 _atom_site_type_symbol
 _atom_site_label
 _atom_site_symmetry_multiplicity
 _atom_site_fract_x
 _atom_site_fract_y
 _atom_site_fract_z
 _atom_site_occupancy
  Ca  Ca0  1  0.93049577  0.06950423  0.75000000  1
  Ca  Ca1  1  0.06815386  0.93184614  0.25000000  1
  In  In0  1  0.35911190  0.64088810  0.04947408  1
  In  In1  1  0.35911190  0.64088810  0.45052592  1
  Sn  Sn0  1  0.64324122  0.35675878  0.95261533  1
  Sn  Sn1  1  0.64324122  0.35675878  0.54738467  1
  Pt  Pt0  1  0.20914842  0.79085158  0.75000000  1
  Pt  Pt1  1  0.78749570  0.21250430  0.25000000  1
loop_
_geom_bond_atom_site_label_1
_geom_bond_atom_site_label_2
_geom_bond_distance
_geom_bond_site_symmetry_2
Ca0 Pt0 3.028256 1_645
Ca0 In0 3.262868 1_656
Ca0 In1 3.262868 1_655
Ca0 In0 3.262868 1_546
Ca0 In1 3.262868 1_545
Ca0 Pt0 3.267073 1_655
Ca0 Pt0 3.267074 1_545
Ca0 Sn0 3.479354 1_555
Ca0 Sn1 3.479354 1_555
Ca0 Sn0 3.548722 1_545
Ca0 Sn1 3.548722 1_545
Ca0 Sn0 3.548723 1_655
Ca0 Sn1 3.548723 1_655
Ca1 Pt1 3.050051 1_465
Ca1 Pt1 3.251059 1_455
Ca1 Pt1 3.251060 1_565
Ca1 Sn1 3.261696 1_455
Ca1 Sn0 3.261696 1_454
Ca1 Sn1 3.261696 1_565
Ca1 Sn0 3.261696 1_564
Ca1 In1 3.508614 1_555
Ca1 In0 3.508614 1_555
Ca1 In1 3.515751 1_565
Ca1 In0 3.515751 1_565
Ca1 In1 3.515752 1_455
Ca1 In0 3.515752 1_455
In0 Pt1 2.793803 1_565
In0 Pt1 2.793803 1_455
In0 Pt0 2.795197 1_554
In0 In1 3.041198 1_555
In0 Sn0 3.173928 1_554
In0 Sn0 3.306121 1_564
In0 Sn0 3.306122 1_454
In1 Pt1 2.793803 1_565
In1 Pt1 2.793803 1_455
In1 Pt0 2.795197 1_555
In1 Sn1 3.173928 1_555
In1 Sn1 3.306121 1_565
In1 Sn1 3.306122 1_455
Sn0 Sn1 3.072887 1_555
Pt0 Sn0 2.785865 1_565
Pt0 Sn1 2.785865 1_565
Pt0 Sn0 2.785866 1_455
Pt0 Sn1 2.785866 1_455
Pt1 Sn1 2.746460 1_555
Pt1 Sn0 2.746460 1_554
