# generated using pymatgen
data_CoSi12(P4Ir)3
_symmetry_space_group_name_H-M   'P 1'
_cell_length_a   5.84422116
_cell_length_b   6.03583067
_cell_length_c   12.96446763
_cell_angle_alpha   89.98767206
_cell_angle_beta   89.94730824
_cell_angle_gamma   90.04347395
_symmetry_Int_Tables_number   1
_chemical_formula_structural   CoSi12(P4Ir)3
_chemical_formula_sum   'Co1 Si12 P12 Ir3'
_cell_volume   457.31775064
_cell_formula_units_Z   1
loop_
 _symmetry_equiv_pos_site_id
 _symmetry_equiv_pos_as_xyz
  1  'x, y, z'
loop_
 _atom_site_type_symbol
 _atom_site_label
 _atom_site_symmetry_multiplicity
 _atom_site_fract_x
 _atom_site_fract_y
 _atom_site_fract_z
 _atom_site_occupancy
  Co  Co0  1  0.03564054  0.51926845  0.38252988  1
  Si  Si0  1  0.96946555  0.17298338  0.32088512  1
  Si  Si1  1  0.46717731  0.84049205  0.68048536  1
  Si  Si2  1  0.93191486  0.62650179  0.22219126  1
  Si  Si3  1  0.43093661  0.37030885  0.78380786  1
  Si  Si4  1  0.34045069  0.91525040  0.95144775  1
  Si  Si5  1  0.84129365  0.08286481  0.05009241  1
  Si  Si6  1  0.91827521  0.52937294  0.67038887  1
  Si  Si7  1  0.40302025  0.47243230  0.32953946  1
  Si  Si8  1  0.99983595  0.06001980  0.56753769  1
  Si  Si9  1  0.49949551  0.93361051  0.42803058  1
  Si  Si10  1  0.90608092  0.62383097  0.92867740  1
  Si  Si11  1  0.40597449  0.37571975  0.07299837  1
  P  P0  1  0.57817450  0.02832155  0.82485317  1
  P  P1  1  0.07772788  0.97215730  0.17784425  1
  P  P2  1  0.51591122  0.55896643  0.92930379  1
  P  P3  1  0.01548935  0.44159524  0.07358196  1
  P  P4  1  0.61211451  0.11161479  0.57112297  1
  P  P5  1  0.11044387  0.87554048  0.42460603  1
  P  P6  1  0.54338995  0.64300062  0.18337888  1
  P  P7  1  0.04511192  0.35665626  0.81833075  1
  P  P8  1  0.57890319  0.13713858  0.28920639  1
  P  P9  1  0.08014573  0.86948278  0.71039489  1
  P  P10  1  0.15345131  0.40630837  0.54575195  1
  P  P11  1  0.66367436  0.59299502  0.44445699  1
  Ir  Ir0  1  0.96555170  0.98699249  0.87937745  1
  Ir  Ir1  1  0.46607281  0.01237138  0.12191981  1
  Ir  Ir2  1  0.53807719  0.48420372  0.61725673  1
loop_
_geom_bond_atom_site_label_1
_geom_bond_atom_site_label_2
_geom_bond_distance
_geom_bond_site_symmetry_2
Co0 Si2 2.260474 1_455
Co0 P5 2.261063 1_555
Co0 Si0 2.270887 1_455
Co0 Si7 2.271560 1_555
Co0 P10 2.327984 1_555
Co0 P11 2.359374 1_455
P0 Si4 2.254659 1_545
P0 Si1 2.282806 1_545
P0 Si3 2.299457 1_555
P1 Si5 2.259215 1_465
P1 Si0 2.304037 1_465
P1 Si2 2.324939 1_455
P2 Si11 2.258861 1_556
P2 Si3 2.259005 1_555
P2 Si10 2.313318 1_555
P2 Si4 2.400316 1_555
P3 Si10 2.269423 1_454
P3 Si2 2.279502 1_455
P3 Si11 2.316764 1_555
P3 Si5 2.411410 1_455
P4 Si9 2.242993 1_545
P4 Si8 2.287895 1_555
P4 Si1 2.323871 1_545
P5 Si8 2.256372 1_465
P5 Si9 2.300768 1_555
P5 Si0 2.390273 1_465
P6 Si11 2.301420 1_555
P6 Si7 2.306195 1_555
P6 Si2 2.328362 1_555
P7 Si3 2.299844 1_555
P7 Si10 2.303946 1_455
P7 Si6 2.306048 1_455
P8 Si9 2.227183 1_545
P8 Si0 2.329474 1_555
P8 Si7 2.329869 1_555
P9 Si8 2.230371 1_465
P9 Si1 2.301343 1_555
P9 Si6 2.318733 1_455
P10 Si6 2.247162 1_455
P10 Si8 2.291476 1_455
P11 Si7 2.252253 1_555
P11 Si9 2.279448 1_555
Ir0 Si10 2.309096 1_555
Ir0 P0 2.385572 1_565
Ir0 P9 2.397861 1_655
Ir0 Si5 2.399755 1_566
Ir0 P7 2.412040 1_665
Ir0 Si4 2.421984 1_655
Ir1 Si11 2.310050 1_555
Ir1 P8 2.389169 1_555
Ir1 P1 2.394078 1_545
Ir1 Si4 2.402077 1_544
Ir1 P6 2.410593 1_545
Ir1 Si5 2.418994 1_555
Ir2 Si1 2.338752 1_555
Ir2 Si6 2.342628 1_555
Ir2 Si3 2.350154 1_555
Ir2 P4 2.367277 1_555
Ir2 P11 2.446288 1_555
Ir2 P10 2.477018 1_555
