# generated using pymatgen
data_Cs2TiNbH10
_symmetry_space_group_name_H-M   'P 1'
_cell_length_a   11.55441195
_cell_length_b   7.54916542
_cell_length_c   5.27031358
_cell_angle_alpha   90.00000000
_cell_angle_beta   89.84230388
_cell_angle_gamma   90.00000000
_symmetry_Int_Tables_number   1
_chemical_formula_structural   Cs2TiNbH10
_chemical_formula_sum   'Cs4 Ti2 Nb2 H20'
_cell_volume   459.70751207
_cell_formula_units_Z   2
loop_
 _symmetry_equiv_pos_site_id
 _symmetry_equiv_pos_as_xyz
  1  'x, y, z'
loop_
 _atom_site_type_symbol
 _atom_site_label
 _atom_site_symmetry_multiplicity
 _atom_site_fract_x
 _atom_site_fract_y
 _atom_site_fract_z
 _atom_site_occupancy
  Cs  Cs0  1  0.67188794  0.06850008  0.34336314  1
  Cs  Cs1  1  0.17188794  0.43149892  0.34336314  1
  Cs  Cs2  1  0.82862939  0.56945384  0.83599782  1
  Cs  Cs3  1  0.32862939  0.93054616  0.83599782  1
  Ti  Ti0  1  0.97849856  0.07115746  0.80700554  1
  Ti  Ti1  1  0.47849856  0.42884254  0.80700554  1
  Nb  Nb0  1  0.51997667  0.56338770  0.30315749  1
  Nb  Nb1  1  0.01997667  0.93661230  0.30315749  1
  H  H0  1  0.33553246  0.34475504  0.79387759  1
  H  H1  1  0.83553246  0.15524496  0.79387759  1
  H  H2  1  0.97734531  0.70272784  0.29615777  1
  H  H3  1  0.47734531  0.79727116  0.29615777  1
  H  H4  1  0.57883519  0.38627947  0.08094106  1
  H  H5  1  0.07883419  0.11372053  0.08094106  1
  H  H6  1  0.39321063  0.51893711  0.08202808  1
  H  H7  1  0.89321063  0.98106389  0.08202808  1
  H  H8  1  0.95688727  0.14244064  0.46314199  1
  H  H9  1  0.45688727  0.35756036  0.46314199  1
  H  H10  1  0.16570188  0.84149045  0.29162373  1
  H  H11  1  0.66570188  0.65850855  0.29162373  1
  H  H12  1  0.52345202  0.20448941  0.79688841  1
  H  H13  1  0.02345202  0.29550959  0.79688841  1
  H  H14  1  0.92465528  0.89169915  0.59090670  1
  H  H15  1  0.42465528  0.60830085  0.59090670  1
  H  H16  1  0.10341495  0.01947866  0.59008468  1
  H  H17  1  0.60341495  0.48052134  0.59008468  1
  H  H18  1  0.54197346  0.63663465  0.95882301  1
  H  H19  1  0.04197346  0.86336635  0.95882301  1
loop_
_geom_bond_atom_site_label_1
_geom_bond_atom_site_label_2
_geom_bond_distance
_geom_bond_site_symmetry_2
Cs0 H4 2.971876 1_555
Cs0 H7 2.975375 1_545
Cs0 H3 3.051256 1_545
Cs0 H11 3.107922 1_545
Cs0 H1 3.109064 1_555
Cs0 H12 3.112240 1_555
Cs1 H5 2.971874 1_555
Cs1 H6 2.975378 1_555
Cs1 H2 3.051256 1_455
Cs1 H10 3.107922 1_555
Cs1 H0 3.109062 1_555
Cs1 H13 3.112240 1_555
Cs2 H14 2.968098 1_555
Cs2 H17 2.986732 1_555
Cs2 H13 3.063338 1_655
Cs2 H11 3.120451 1_556
Cs2 H1 3.135800 1_555
Cs2 H2 3.141555 1_556
Cs3 H15 2.968098 1_555
Cs3 H16 2.986732 1_565
Cs3 H12 3.063333 1_565
Cs3 H10 3.120453 1_556
Cs3 H0 3.135800 1_565
Cs3 H3 3.141557 1_556
H0 Ti1 1.771190 1_555
H1 Ti0 1.771190 1_555
H2 Nb1 1.833454 1_655
H3 Nb0 1.833447 1_555
H4 Ti1 1.881715 1_554
H4 Nb0 1.901929 1_555
H5 Ti0 1.881707 1_454
H5 Nb1 1.901924 1_545
H6 Ti1 1.877967 1_554
H6 Nb0 1.904094 1_555
H7 Ti0 1.877965 1_564
H7 Nb1 1.904095 1_655
H8 Ti0 1.907549 1_555
H8 Nb1 1.911368 1_645
H9 Ti1 1.907547 1_555
H9 Nb0 1.911362 1_555
H10 Nb1 1.831356 1_555
H11 Nb0 1.831353 1_555
H12 Ti1 1.772294 1_555
H13 Ti0 1.772287 1_455
H14 Ti0 1.877081 1_565
H14 Nb1 1.902280 1_655
H15 Ti1 1.877081 1_555
H15 Nb0 1.902280 1_555
H16 Ti0 1.879717 1_455
H16 Nb1 1.901461 1_545
H17 Ti1 1.879717 1_555
H17 Nb0 1.901461 1_555
H18 Ti1 1.908406 1_555
H18 Nb0 1.913409 1_556
H19 Ti0 1.908400 1_465
H19 Nb1 1.913407 1_556
