# generated using pymatgen
data_TiNbN2
_symmetry_space_group_name_H-M   'P 1'
_cell_length_a   5.33363638
_cell_length_b   5.33363638
_cell_length_c   5.33363638
_cell_angle_alpha   131.67259477
_cell_angle_beta   131.67259477
_cell_angle_gamma   70.74662197
_symmetry_Int_Tables_number   1
_chemical_formula_structural   TiNbN2
_chemical_formula_sum   'Ti2 Nb2 N4'
_cell_volume   82.92372985
_cell_formula_units_Z   2
loop_
 _symmetry_equiv_pos_site_id
 _symmetry_equiv_pos_as_xyz
  1  'x, y, z'
loop_
 _atom_site_type_symbol
 _atom_site_label
 _atom_site_symmetry_multiplicity
 _atom_site_fract_x
 _atom_site_fract_y
 _atom_site_fract_z
 _atom_site_occupancy
  Ti  Ti0  1  0.00000000  0.00000000  0.00000000  1
  Ti  Ti1  1  0.75000000  0.25000000  0.50000000  1
  Nb  Nb0  1  0.25000000  0.75000000  0.50000000  1
  Nb  Nb1  1  0.50000000  0.50000000  0.00000000  1
  N  N0  1  0.75714500  0.75714500  0.00000000  1
  N  N1  1  0.99285500  0.49285500  0.50000000  1
  N  N2  1  0.50714500  0.00714500  0.50000000  1
  N  N3  1  0.24285500  0.24285500  0.00000000  1
loop_
_geom_bond_atom_site_label_1
_geom_bond_atom_site_label_2
_geom_bond_distance
_geom_bond_site_symmetry_2
N0 Ti0 2.112369 1_665
N0 Ti1 2.184182 1_554
N0 Nb0 2.184182 1_655
N0 Ti1 2.184182 1_565
N0 Nb0 2.184182 1_554
N0 Nb1 2.236665 1_555
N1 Ti1 2.112369 1_555
N1 Ti0 2.184182 1_666
N1 Nb1 2.184182 1_555
N1 Nb1 2.184182 1_656
N1 Ti0 2.184182 1_655
N1 Nb0 2.236665 1_655
N2 Ti1 2.112369 1_555
N2 Nb1 2.184182 1_545
N2 Ti0 2.184182 1_656
N2 Nb1 2.184182 1_556
N2 Ti0 2.184182 1_555
N2 Nb0 2.236665 1_545
N3 Ti0 2.112369 1_555
N3 Ti1 2.184182 1_555
N3 Nb0 2.184182 1_555
N3 Nb0 2.184182 1_544
N3 Ti1 2.184182 1_454
N3 Nb1 2.236665 1_555
