# generated using pymatgen
data_Sc4As6Ru4Rh3
_symmetry_space_group_name_H-M   'P 1'
_cell_length_a   7.02981096
_cell_length_b   7.02970574
_cell_length_c   7.02980809
_cell_angle_alpha   109.46350342
_cell_angle_beta   109.35790550
_cell_angle_gamma   109.59129364
_symmetry_Int_Tables_number   1
_chemical_formula_structural   Sc4As6Ru4Rh3
_chemical_formula_sum   'Sc4 As6 Ru4 Rh3'
_cell_volume   267.42755775
_cell_formula_units_Z   1
loop_
 _symmetry_equiv_pos_site_id
 _symmetry_equiv_pos_as_xyz
  1  'x, y, z'
loop_
 _atom_site_type_symbol
 _atom_site_label
 _atom_site_symmetry_multiplicity
 _atom_site_fract_x
 _atom_site_fract_y
 _atom_site_fract_z
 _atom_site_occupancy
  Sc  Sc0  1  0.00106264  0.00229006  0.50140478  1
  Sc  Sc1  1  0.49909563  0.99769605  0.99876403  1
  Sc  Sc2  1  0.00106018  0.49966427  0.99877640  1
  Sc  Sc3  1  0.49910036  0.50033028  0.50139971  1
  As  As0  1  0.31395237  0.00003226  0.31394609  1
  As  As1  1  0.00240244  0.31500096  0.31738515  1
  As  As2  1  0.00237748  0.68498120  0.68738772  1
  As  As3  1  0.31243000  0.31368743  0.99874529  1
  As  As4  1  0.68504781  0.68632596  0.99871923  1
  As  As5  1  0.68579191  0.99999974  0.68579216  1
  Ru  Ru0  1  0.74944258  0.24968471  0.49974724  1
  Ru  Ru1  1  0.25004656  0.75030949  0.49973951  1
  Ru  Ru2  1  0.25161708  0.49999652  0.75162370  1
  Ru  Ru3  1  0.00080702  0.00000033  0.00080742  1
  Rh  Rh0  1  0.74891428  0.50000107  0.24890942  1
  Rh  Rh1  1  0.49842083  0.74983212  0.24825817  1
  Rh  Rh2  1  0.49842983  0.25016655  0.74859398  1
loop_
_geom_bond_atom_site_label_1
_geom_bond_atom_site_label_2
_geom_bond_distance
_geom_bond_site_symmetry_2
As0 Rh2 2.524512 1_555
As0 Rh1 2.524608 1_545
As0 Ru0 2.525223 1_555
As0 Ru1 2.525365 1_545
As0 Ru3 2.545299 1_555
As0 Sc3 2.916196 1_555
As0 Sc1 2.916375 1_544
As0 Sc0 2.916493 1_555
As0 Sc2 2.916617 1_544
As1 Ru2 2.521932 1_555
As1 Ru1 2.524272 1_555
As1 Ru0 2.524375 1_455
As1 Rh0 2.549723 1_455
As1 Ru3 2.557145 1_555
As1 Sc3 2.897325 1_555
As1 Sc0 2.897449 1_555
As1 Sc2 2.938289 1_554
As1 Sc1 2.938553 1_444
As2 Ru2 2.521817 1_555
As2 Ru0 2.524208 1_455
As2 Ru1 2.524359 1_555
As2 Rh0 2.549722 1_455
As2 Ru3 2.557252 1_566
As2 Sc2 2.897351 1_555
As2 Sc1 2.897466 1_555
As2 Sc3 2.938387 1_455
As2 Sc0 2.938411 1_565
As3 Ru2 2.513041 1_555
As3 Rh1 2.528598 1_556
As3 Rh2 2.528638 1_555
As3 Rh0 2.532961 1_556
As3 Ru3 2.542554 1_556
As3 Sc2 2.901646 1_555
As3 Sc0 2.901666 1_555
As3 Sc1 2.934462 1_545
As3 Sc3 2.934503 1_556
As4 Ru2 2.513052 1_555
As4 Rh2 2.528669 1_555
As4 Rh1 2.528709 1_556
As4 Rh0 2.533100 1_556
As4 Ru3 2.542447 1_666
As4 Sc1 2.901456 1_555
As4 Sc3 2.901500 1_555
As4 Sc2 2.934539 1_655
As4 Sc0 2.934659 1_666
As5 Ru0 2.526370 1_565
As5 Ru1 2.526497 1_555
As5 Rh2 2.538467 1_565
As5 Rh1 2.538540 1_555
As5 Ru3 2.560653 1_666
As5 Sc0 2.913214 1_665
As5 Sc3 2.913253 1_555
As5 Sc2 2.913256 1_665
As5 Sc1 2.913261 1_555
Ru0 Sc0 2.866399 1_655
Ru0 Sc2 2.866539 1_655
Ru0 Sc3 2.877694 1_555
Ru0 Sc1 2.877725 1_544
Ru0 Ru2 2.882329 1_655
Ru1 Sc3 2.866505 1_555
Ru1 Sc1 2.866513 1_555
Ru1 Sc0 2.877560 1_565
Ru1 Sc2 2.877609 1_554
Ru1 Ru2 2.882400 1_555
Ru2 Sc1 2.854724 1_555
Ru2 Sc0 2.854764 1_555
Ru2 Sc3 2.854774 1_555
Ru2 Sc2 2.854787 1_555
Rh0 Ru1 2.876318 1_655
Rh0 Ru0 2.876384 1_555
Rh0 Sc2 2.880991 1_654
Rh0 Sc0 2.881043 1_665
Rh0 Sc1 2.881134 1_544
Rh0 Sc3 2.881135 1_555
Rh1 Ru2 2.852767 1_554
Rh1 Sc1 2.854593 1_554
Rh1 Sc2 2.854666 1_554
Rh1 Ru0 2.867075 1_565
Rh1 Ru1 2.867097 1_555
Rh1 Sc3 2.884960 1_555
Rh1 Sc0 2.885011 1_665
Rh2 Ru2 2.852758 1_555
Rh2 Sc3 2.854592 1_555
Rh2 Sc0 2.854704 1_555
Rh2 Ru1 2.867099 1_545
Rh2 Ru0 2.867119 1_555
Rh2 Sc1 2.884944 1_545
Rh2 Sc2 2.884945 1_655
