# generated using pymatgen
data_MgSn13(Ir2Ru)2
_symmetry_space_group_name_H-M   'P 1'
_cell_length_a   8.15481478
_cell_length_b   8.14431931
_cell_length_c   8.14431926
_cell_angle_alpha   109.73610107
_cell_angle_beta   110.03511989
_cell_angle_gamma   108.59418517
_symmetry_Int_Tables_number   1
_chemical_formula_structural   MgSn13(Ir2Ru)2
_chemical_formula_sum   'Mg1 Sn13 Ir4 Ru2'
_cell_volume   416.58434247
_cell_formula_units_Z   1
loop_
 _symmetry_equiv_pos_site_id
 _symmetry_equiv_pos_as_xyz
  1  'x, y, z'
loop_
 _atom_site_type_symbol
 _atom_site_label
 _atom_site_symmetry_multiplicity
 _atom_site_fract_x
 _atom_site_fract_y
 _atom_site_fract_z
 _atom_site_occupancy
  Mg  Mg0  1  0.24986309  0.75016223  0.49969986  1
  Sn  Sn0  1  0.75344560  0.25011993  0.50332567  1
  Sn  Sn1  1  0.75929754  0.50679888  0.25249766  1
  Sn  Sn2  1  0.25613591  0.50746995  0.74866497  1
  Sn  Sn3  1  0.50038546  0.75074554  0.25574896  1
  Sn  Sn4  1  0.50038546  0.24463650  0.74964092  1
  Sn  Sn5  1  0.99912628  0.99614847  0.32384839  1
  Sn  Sn6  1  0.67231691  0.99672754  0.99369412  1
  Sn  Sn7  1  0.99912628  0.67527989  0.00297782  1
  Sn  Sn8  1  0.32410241  0.32801072  0.32744197  1
  Sn  Sn9  1  0.99802482  0.32475701  0.00041193  1
  Sn  Sn10  1  0.67231691  0.67862179  0.67558837  1
  Sn  Sn11  1  0.32410241  0.99666044  0.99609269  1
  Sn  Sn12  1  0.99802482  0.99761289  0.67326881  1
  Ir  Ir0  1  0.34593866  0.00572007  0.34021859  1
  Ir  Ir1  1  0.99427913  0.33590246  0.34202357  1
  Ir  Ir2  1  0.99427913  0.65225556  0.65837668  1
  Ir  Ir3  1  0.34252462  0.34225022  0.00027441  1
  Ru  Ru0  1  0.65337887  0.65326420  0.00011367  1
  Ru  Ru1  1  0.66294770  0.00685574  0.65609096  1
loop_
_geom_bond_atom_site_label_1
_geom_bond_atom_site_label_2
_geom_bond_distance
_geom_bond_site_symmetry_2
Mg0 Ru1 2.848003 1_565
Mg0 Sn1 3.273430 1_455
Mg0 Sn2 3.274288 1_555
Mg0 Sn3 3.301897 1_555
Mg0 Sn4 3.301904 1_565
Ir0 Sn11 2.720683 1_544
Ir0 Sn8 2.720691 1_555
Ir0 Sn7 2.759802 1_445
Ir0 Sn5 2.759807 1_445
Ir0 Sn3 2.769225 1_545
Ir0 Sn4 2.769232 1_555
Ir0 Sn0 2.782273 1_555
Ir0 Mg0 2.848866 1_545
Ir1 Sn5 2.734457 1_545
Ir1 Sn6 2.747847 1_544
Ir1 Sn1 2.751308 1_555
Ir1 Sn8 2.752524 1_655
Ir1 Sn0 2.753846 1_555
Ir1 Sn2 2.758001 1_655
Ir1 Sn9 2.763912 1_555
Ir1 Mg0 2.851593 1_655
Ir2 Sn7 2.734452 1_556
Ir2 Sn10 2.747841 1_555
Ir2 Sn1 2.751313 1_555
Ir2 Sn11 2.752527 1_655
Ir2 Sn0 2.753846 1_555
Ir2 Sn2 2.758006 1_655
Ir2 Sn12 2.763910 1_555
Ir2 Mg0 2.851597 1_655
Ir3 Sn8 2.758215 1_555
Ir3 Sn11 2.758218 1_544
Ir3 Sn12 2.767607 1_444
Ir3 Sn9 2.767609 1_455
Ir3 Sn4 2.795186 1_554
Ir3 Sn3 2.795193 1_555
Ir3 Sn2 2.825557 1_554
Ir3 Sn1 2.831823 1_555
Ru0 Sn2 2.730725 1_554
Ru0 Sn1 2.736890 1_555
Ru0 Sn7 2.758989 1_555
Ru0 Sn5 2.758998 1_555
Ru0 Sn10 2.771307 1_554
Ru0 Sn6 2.771307 1_554
Ru0 Sn4 2.795821 1_554
Ru0 Sn3 2.795831 1_555
Ru1 Sn12 2.714425 1_545
Ru1 Sn9 2.714433 1_556
Ru1 Sn0 2.716489 1_555
Ru1 Sn3 2.724125 1_545
Ru1 Sn4 2.724135 1_555
Ru1 Sn6 2.754253 1_545
Ru1 Sn10 2.754253 1_545
