# generated using pymatgen
data_YAl4Ni
_symmetry_space_group_name_H-M   'P 1'
_cell_length_a   4.04823848
_cell_length_b   6.56212278
_cell_length_c   7.94007450
_cell_angle_alpha   90.00000000
_cell_angle_beta   104.76910132
_cell_angle_gamma   90.00000000
_symmetry_Int_Tables_number   1
_chemical_formula_structural   YAl4Ni
_chemical_formula_sum   'Y2 Al8 Ni2'
_cell_volume   203.95951872
_cell_formula_units_Z   2
loop_
 _symmetry_equiv_pos_site_id
 _symmetry_equiv_pos_as_xyz
  1  'x, y, z'
loop_
 _atom_site_type_symbol
 _atom_site_label
 _atom_site_symmetry_multiplicity
 _atom_site_fract_x
 _atom_site_fract_y
 _atom_site_fract_z
 _atom_site_occupancy
  Y  Y0  1  0.38253393  0.75000000  0.76506786  1
  Y  Y1  1  0.61746607  0.25000000  0.23493214  1
  Al  Al0  1  0.81053519  0.05327841  0.62107138  1
  Al  Al1  1  0.18946481  0.94672159  0.37892862  1
  Al  Al2  1  0.18946481  0.55327841  0.37892862  1
  Al  Al3  1  0.81053519  0.44672159  0.62107138  1
  Al  Al4  1  -0.00000000  0.50000000  -0.00000000  1
  Al  Al5  1  -0.00000000  -0.00000000  -0.00000000  1
  Al  Al6  1  0.42290441  0.25000000  0.84580681  1
  Al  Al7  1  0.57709559  0.75000000  0.15419319  1
  Ni  Ni0  1  0.27374069  0.25000000  0.54748139  1
  Ni  Ni1  1  0.72625931  0.75000000  0.45251861  1
loop_
_geom_bond_atom_site_label_1
_geom_bond_atom_site_label_2
_geom_bond_distance
_geom_bond_site_symmetry_2
Al0 Ni1 2.373901 1_545
Al0 Ni0 2.466320 1_555
Al0 Ni0 2.466323 1_655
Al0 Al5 2.930248 1_656
Al0 Y0 3.046314 1_545
Al0 Y0 3.046317 1_645
Al0 Y1 3.233538 1_555
Al1 Ni0 2.373901 1_565
Al1 Ni1 2.466320 1_555
Al1 Ni1 2.466323 1_455
Al1 Al5 2.930248 1_565
Al1 Y1 3.046314 1_565
Al1 Y1 3.046317 1_465
Al1 Y0 3.233538 1_555
Al2 Ni0 2.373901 1_555
Al2 Ni1 2.466320 1_555
Al2 Ni1 2.466323 1_455
Al2 Al4 2.930248 1_555
Al2 Y1 3.046314 1_555
Al2 Y1 3.046317 1_455
Al2 Y0 3.233538 1_555
Al3 Ni1 2.373901 1_555
Al3 Ni0 2.466320 1_555
Al3 Ni0 2.466323 1_655
Al3 Al4 2.930248 1_656
Al3 Y0 3.046314 1_555
Al3 Y0 3.046317 1_655
Al3 Y1 3.233538 1_555
Al4 Al6 2.861800 1_454
Al4 Al7 2.861800 1_555
Al4 Al6 2.861805 1_554
Al4 Al7 2.861805 1_455
Al4 Y0 3.168897 1_554
Al4 Y1 3.168897 1_455
Al4 Y0 3.168897 1_454
Al4 Y1 3.168897 1_555
Al5 Al7 2.861800 1_545
Al5 Al6 2.861800 1_454
Al5 Al7 2.861805 1_445
Al5 Al6 2.861805 1_554
Al5 Y0 3.168897 1_544
Al5 Y1 3.168897 1_455
Al5 Y0 3.168897 1_444
Al5 Y1 3.168897 1_555
Al6 Ni0 2.290466 1_555
Al6 Y1 2.987604 1_556
Al6 Y0 3.339106 1_555
Al6 Y0 3.339106 1_545
Al7 Ni1 2.290466 1_555
Al7 Y0 2.987604 1_554
Al7 Y1 3.339106 1_555
Al7 Y1 3.339106 1_565
Ni0 Y1 3.139345 1_555
Ni0 Y1 3.139345 1_455
Ni1 Y0 3.139345 1_555
Ni1 Y0 3.139345 1_655
