# generated using pymatgen
data_Sc10Bi3Te7
_symmetry_space_group_name_H-M   'P 1'
_cell_length_a   8.03769466
_cell_length_b   8.03770732
_cell_length_c   10.87991158
_cell_angle_alpha   70.80525865
_cell_angle_beta   70.80515953
_cell_angle_gamma   54.23762421
_symmetry_Int_Tables_number   1
_chemical_formula_structural   Sc10Bi3Te7
_chemical_formula_sum   'Sc10 Bi3 Te7'
_cell_volume   530.02158591
_cell_formula_units_Z   1
loop_
 _symmetry_equiv_pos_site_id
 _symmetry_equiv_pos_as_xyz
  1  'x, y, z'
loop_
 _atom_site_type_symbol
 _atom_site_label
 _atom_site_symmetry_multiplicity
 _atom_site_fract_x
 _atom_site_fract_y
 _atom_site_fract_z
 _atom_site_occupancy
  Sc  Sc0  1  0.99930195  0.80052381  0.95019568  1
  Sc  Sc1  1  0.40078897  0.19976996  0.14951325  1
  Sc  Sc2  1  0.79967962  0.60079885  0.34966033  1
  Sc  Sc3  1  0.19949174  0.00070188  0.04978471  1
  Sc  Sc4  1  0.20028129  0.99933502  0.55060943  1
  Sc  Sc5  1  0.60002983  0.39957351  0.24986375  1
  Sc  Sc6  1  0.60043300  0.39996283  0.75014199  1
  Sc  Sc7  1  0.00065826  0.79970588  0.44941850  1
  Sc  Sc8  1  0.39919000  0.20032210  0.65035327  1
  Sc  Sc9  1  0.80023766  0.59921698  0.85047432  1
  Bi  Bi0  1  0.43294514  0.56705679  0.99999972  1
  Bi  Bi1  1  0.23317566  0.36619157  0.40012565  1
  Bi  Bi2  1  0.63379694  0.76683030  0.59987616  1
  Te  Te0  1  0.96677600  0.43361397  0.09984414  1
  Te  Te1  1  0.83420591  0.96635467  0.19951030  1
  Te  Te2  1  0.36609363  0.83402113  0.29930596  1
  Te  Te3  1  0.76688282  0.23308620  0.49999728  1
  Te  Te4  1  0.16599179  0.63390388  0.70068399  1
  Te  Te5  1  0.03364289  0.16578715  0.80050637  1
  Te  Te6  1  0.56639889  0.03324151  0.90013519  1
loop_
_geom_bond_atom_site_label_1
_geom_bond_atom_site_label_2
_geom_bond_distance
_geom_bond_site_symmetry_2
Sc0 Te1 2.972949 1_556
Sc0 Te5 2.975817 1_665
Sc0 Te4 2.976532 1_655
Sc0 Te6 2.978499 1_565
Sc0 Te0 2.980009 1_556
Sc1 Te6 2.975837 1_554
Sc1 Te2 2.980788 1_545
Sc1 Te1 2.981166 1_545
Sc1 Te0 2.983618 1_455
Sc2 Te1 2.979536 1_555
Sc2 Te0 2.981396 1_555
Sc2 Te2 2.983914 1_555
Sc2 Te3 2.988067 1_555
Sc3 Te5 2.972672 1_554
Sc3 Te1 2.976067 1_445
Sc3 Te2 2.976568 1_545
Sc3 Te0 2.978562 1_455
Sc3 Te6 2.980040 1_554
Sc4 Te4 2.977585 1_555
Sc4 Te5 2.979746 1_565
Sc4 Te3 2.983145 1_465
Sc4 Te2 2.990034 1_555
Sc5 Te1 2.980507 1_545
Sc5 Te3 2.983803 1_555
Sc5 Te0 2.985582 1_555
Sc5 Te2 2.985661 1_555
Sc6 Te5 2.980485 1_655
Sc6 Te3 2.984039 1_555
Sc6 Te6 2.985336 1_555
Sc6 Te4 2.985670 1_555
Sc7 Te2 2.977789 1_555
Sc7 Te1 2.979852 1_455
Sc7 Te3 2.982870 1_465
Sc7 Te4 2.989745 1_555
Sc8 Te5 2.979510 1_555
Sc8 Te6 2.981167 1_555
Sc8 Te4 2.983818 1_555
Sc8 Te3 2.987836 1_555
Sc9 Te0 2.975803 1_556
Sc9 Te4 2.980781 1_655
Sc9 Te5 2.981154 1_655
Sc9 Te6 2.983674 1_565
Bi0 Sc1 2.980892 1_556
Bi0 Sc9 2.980966 1_555
Bi0 Sc6 2.981100 1_555
Bi0 Sc5 2.981133 1_556
Bi0 Sc3 2.981884 1_566
Bi0 Sc0 2.981929 1_455
Bi1 Sc7 2.979920 1_555
Bi1 Sc8 2.982024 1_555
Bi1 Sc2 2.982471 1_455
Bi1 Sc4 2.982838 1_545
Bi1 Sc5 2.984254 1_555
Bi1 Sc1 2.985851 1_555
Bi2 Sc4 2.979835 1_555
Bi2 Sc2 2.981959 1_555
Bi2 Sc8 2.982492 1_565
Bi2 Sc7 2.982736 1_655
Bi2 Sc6 2.984290 1_555
Bi2 Sc9 2.985787 1_555
