# generated using pymatgen
data_Zr6Zn15Cu8Ge
_symmetry_space_group_name_H-M   'P 1'
_cell_length_a   8.56093219
_cell_length_b   8.56093176
_cell_length_c   8.56093235
_cell_angle_alpha   60.00000516
_cell_angle_beta   60.00000682
_cell_angle_gamma   59.99999858
_symmetry_Int_Tables_number   1
_chemical_formula_structural   Zr6Zn15Cu8Ge
_chemical_formula_sum   'Zr6 Zn15 Cu8 Ge1'
_cell_volume   443.65787479
_cell_formula_units_Z   1
loop_
 _symmetry_equiv_pos_site_id
 _symmetry_equiv_pos_as_xyz
  1  'x, y, z'
loop_
 _atom_site_type_symbol
 _atom_site_label
 _atom_site_symmetry_multiplicity
 _atom_site_fract_x
 _atom_site_fract_y
 _atom_site_fract_z
 _atom_site_occupancy
  Zr  Zr0  1  0.72024936  0.27975064  0.27975064  1
  Zr  Zr1  1  0.27975064  0.72024936  0.72024936  1
  Zr  Zr2  1  0.27975064  0.72024936  0.27975064  1
  Zr  Zr3  1  0.72024936  0.27975064  0.72024936  1
  Zr  Zr4  1  0.27975064  0.27975064  0.72024936  1
  Zr  Zr5  1  0.72024936  0.72024936  0.27975064  1
  Zn  Zn0  1  0.50000000  0.00000000  0.00000000  1
  Zn  Zn1  1  0.00000000  0.50000000  0.50000000  1
  Zn  Zn2  1  0.00000000  0.50000000  0.00000000  1
  Zn  Zn3  1  0.50000000  0.00000000  0.50000000  1
  Zn  Zn4  1  0.00000000  0.00000000  0.50000000  1
  Zn  Zn5  1  0.50000000  0.50000000  0.00000000  1
  Zn  Zn6  1  0.33094021  0.33094021  0.33094021  1
  Zn  Zn7  1  0.66905979  0.66905979  0.66905979  1
  Zn  Zn8  1  0.33094021  0.33094021  0.00718036  1
  Zn  Zn9  1  0.33094021  0.00718036  0.33094021  1
  Zn  Zn10  1  0.66905979  0.66905979  0.99281964  1
  Zn  Zn11  1  0.66905979  0.99281964  0.66905979  1
  Zn  Zn12  1  0.00718036  0.33094021  0.33094021  1
  Zn  Zn13  1  0.99281964  0.66905979  0.66905979  1
  Zn  Zn14  1  0.00000000  0.00000000  0.00000000  1
  Cu  Cu0  1  0.12062473  0.12062473  0.12062473  1
  Cu  Cu1  1  0.87937527  0.87937527  0.87937527  1
  Cu  Cu2  1  0.12062473  0.12062473  0.63812582  1
  Cu  Cu3  1  0.12062473  0.63812582  0.12062473  1
  Cu  Cu4  1  0.87937527  0.87937527  0.36187418  1
  Cu  Cu5  1  0.87937527  0.36187418  0.87937527  1
  Cu  Cu6  1  0.63812582  0.12062473  0.12062473  1
  Cu  Cu7  1  0.36187418  0.87937527  0.87937527  1
  Ge  Ge0  1  0.50000000  0.50000000  0.50000000  1
loop_
_geom_bond_atom_site_label_1
_geom_bond_atom_site_label_2
_geom_bond_distance
_geom_bond_site_symmetry_2
Zn0 Zn8 2.471840 1_555
Zn0 Zn10 2.471840 1_544
Zn0 Zn9 2.471841 1_555
Zn0 Zn11 2.471841 1_544
Zn0 Zr5 3.048103 1_545
Zn0 Zr4 3.048103 1_554
Zn0 Zr3 3.048103 1_554
Zn0 Zr2 3.048103 1_545
Zn1 Zn13 2.471833 1_455
Zn1 Zn12 2.471833 1_555
Zn1 Zn6 2.471838 1_555
Zn1 Zn7 2.471838 1_455
Zn1 Zr4 3.048103 1_555
Zn1 Zr5 3.048103 1_455
Zn1 Zr2 3.048103 1_555
Zn1 Zr3 3.048103 1_455
Zn2 Zn8 2.471840 1_555
Zn2 Zr5 3.048103 1_455
Zn2 Zr4 3.048103 1_554
Zn2 Zr1 3.048103 1_554
Zn2 Zr0 3.048103 1_455
Zn3 Zn9 2.471833 1_555
Zn3 Zn6 2.471838 1_555
Zn3 Zn7 2.471838 1_545
Zn3 Zr4 3.048103 1_555
Zn3 Zr5 3.048103 1_545
Zn3 Zr0 3.048103 1_555
Zn3 Zr1 3.048103 1_545
Zn4 Zn9 2.471841 1_555
Zn4 Zr3 3.048103 1_455
Zn4 Zr2 3.048103 1_545
Zn4 Zr1 3.048103 1_545
Zn4 Zr0 3.048103 1_455
Zn5 Zn8 2.471833 1_555
Zn5 Zn7 2.471838 1_554
Zn5 Zn6 2.471838 1_555
Zn5 Zr0 3.048103 1_555
Zn5 Zr1 3.048103 1_554
Zn5 Zr2 3.048103 1_555
Zn5 Zr3 3.048103 1_554
Zn6 Zn9 2.771686 1_555
Zn6 Zn8 2.771686 1_555
Zn6 Zr2 2.960221 1_555
Zn6 Zr0 2.960221 1_555
Zn6 Zr4 2.960221 1_555
Zn7 Zr3 2.960221 1_555
Zn7 Zr1 2.960221 1_555
Zn7 Zr5 2.960221 1_555
Zn8 Zn9 2.771686 1_555
Zn8 Zr1 2.960224 1_554
Zn8 Zr3 2.960224 1_554
Zn8 Zr4 2.960230 1_554
Zn9 Zr5 2.960224 1_545
Zn9 Zr1 2.960224 1_545
Zn9 Zr2 2.960229 1_545
Zn10 Zn5 2.471833 1_556
Zn10 Zn2 2.471840 1_656
Zn10 Zn7 2.771686 1_555
Zn10 Zn11 2.771686 1_555
Zn10 Zn13 2.771686 1_555
Zn10 Zr0 2.960224 1_556
Zn10 Zr2 2.960224 1_556
Zn10 Zr5 2.960230 1_556
Zn11 Zn3 2.471833 1_565
Zn11 Zn4 2.471841 1_665
Zn11 Zn7 2.771686 1_555
Zn11 Zn13 2.771686 1_555
Zn11 Zr4 2.960224 1_565
Zn11 Zr0 2.960224 1_565
Zn11 Zr3 2.960229 1_565
Zn12 Zn4 2.471840 1_555
Zn12 Zn2 2.471841 1_555
Zn12 Zn9 2.771686 1_555
Zn12 Zn6 2.771686 1_555
Zn12 Zn8 2.771686 1_555
Zn12 Zr5 2.960224 1_455
Zn12 Zr3 2.960224 1_455
Zn12 Zr0 2.960230 1_455
Zn13 Zn4 2.471840 1_665
Zn13 Zn2 2.471841 1_656
Zn13 Zn7 2.771686 1_555
Zn13 Zr4 2.960224 1_655
Zn13 Zr2 2.960224 1_655
Zn13 Zr1 2.960230 1_655
Cu0 Zn14 2.529490 1_555
Cu0 Zn2 2.653233 1_555
Cu0 Zn0 2.653233 1_555
Cu0 Zn4 2.653233 1_555
Cu0 Zn12 2.677933 1_555
Cu0 Zn9 2.677933 1_555
Cu0 Zn8 2.677933 1_555
Cu0 Zr2 2.824373 1_545
Cu0 Zr0 2.824374 1_455
Cu0 Zr4 2.824374 1_554
Cu1 Zn14 2.529490 1_666
Cu1 Zn2 2.653233 1_656
Cu1 Zn0 2.653233 1_566
Cu1 Zn4 2.653233 1_665
Cu1 Zn13 2.677933 1_555
Cu1 Zn11 2.677933 1_555
Cu1 Zn10 2.677933 1_555
Cu1 Zr3 2.824373 1_565
Cu1 Zr1 2.824374 1_655
Cu1 Zr5 2.824374 1_556
Cu2 Zn14 2.529491 1_556
Cu2 Zn4 2.653233 1_555
Cu2 Zn1 2.653233 1_555
Cu2 Zn3 2.653233 1_555
Cu2 Zn12 2.677926 1_555
Cu2 Zn9 2.677926 1_555
Cu2 Zn6 2.677931 1_555
Cu2 Zr1 2.824373 1_545
Cu2 Zr4 2.824373 1_555
Cu2 Zr3 2.824374 1_455
Cu3 Zn14 2.529490 1_565
Cu3 Zn2 2.653233 1_555
Cu3 Zn5 2.653233 1_555
Cu3 Zn1 2.653233 1_555
Cu3 Zn8 2.677926 1_555
Cu3 Zn12 2.677926 1_555
Cu3 Zn6 2.677931 1_555
Cu3 Zr2 2.824373 1_555
Cu3 Zr5 2.824374 1_455
Cu3 Zr1 2.824374 1_554
Cu4 Zn14 2.529491 1_665
Cu4 Zn4 2.653233 1_665
Cu4 Zn1 2.653233 1_655
Cu4 Zn3 2.653233 1_565
Cu4 Zn13 2.677926 1_555
Cu4 Zn11 2.677926 1_555
Cu4 Zn7 2.677931 1_555
Cu4 Zr0 2.824373 1_565
Cu4 Zr5 2.824373 1_555
Cu4 Zr2 2.824374 1_655
Cu5 Zn14 2.529490 1_656
Cu5 Zn2 2.653233 1_656
Cu5 Zn5 2.653233 1_556
Cu5 Zn1 2.653233 1_655
Cu5 Zn10 2.677926 1_555
Cu5 Zn13 2.677926 1_555
Cu5 Zn7 2.677931 1_555
Cu5 Zr3 2.824373 1_555
Cu5 Zr4 2.824374 1_655
Cu5 Zr0 2.824374 1_556
Cu6 Zn14 2.529490 1_655
Cu6 Zn5 2.653233 1_555
Cu6 Zn0 2.653233 1_555
Cu6 Zn3 2.653233 1_555
Cu6 Zn8 2.677926 1_555
Cu6 Zn9 2.677926 1_555
Cu6 Zn6 2.677931 1_555
Cu6 Zr0 2.824373 1_555
Cu6 Zr5 2.824373 1_545
Cu6 Zr3 2.824374 1_554
Cu7 Zn14 2.529490 1_566
Cu7 Zn5 2.653233 1_556
Cu7 Zn0 2.653233 1_566
Cu7 Zn3 2.653233 1_565
Cu7 Zn10 2.677926 1_555
Cu7 Zn11 2.677926 1_555
Cu7 Zn7 2.677931 1_555
Cu7 Zr1 2.824373 1_555
Cu7 Zr4 2.824373 1_565
Cu7 Zr2 2.824374 1_556
Ge0 Zr3 2.666556 1_555
Ge0 Zr2 2.666556 1_555
Ge0 Zr1 2.666556 1_555
Ge0 Zr0 2.666556 1_555
Ge0 Zr5 2.666556 1_555
Ge0 Zr4 2.666556 1_555
