# generated using pymatgen
data_Zn2Hg2SF6
_symmetry_space_group_name_H-M   'P 1'
_cell_length_a   7.63870537
_cell_length_b   7.63870567
_cell_length_c   7.63870470
_cell_angle_alpha   60.00000008
_cell_angle_beta   59.99999877
_cell_angle_gamma   59.99999810
_symmetry_Int_Tables_number   1
_chemical_formula_structural   Zn2Hg2SF6
_chemical_formula_sum   'Zn4 Hg4 S2 F12'
_cell_volume   315.16954821
_cell_formula_units_Z   2
loop_
 _symmetry_equiv_pos_site_id
 _symmetry_equiv_pos_as_xyz
  1  'x, y, z'
loop_
 _atom_site_type_symbol
 _atom_site_label
 _atom_site_symmetry_multiplicity
 _atom_site_fract_x
 _atom_site_fract_y
 _atom_site_fract_z
 _atom_site_occupancy
  Zn  Zn0  1  0.12500000  0.62500000  0.62500000  1
  Zn  Zn1  1  0.62500000  0.12500000  0.62500000  1
  Zn  Zn2  1  0.62500000  0.62500000  0.12500000  1
  Zn  Zn3  1  0.62500000  0.62500000  0.62500000  1
  Hg  Hg0  1  0.62500000  0.12500000  0.12500000  1
  Hg  Hg1  1  0.12500000  0.12500000  0.62500000  1
  Hg  Hg2  1  0.12500000  0.12500000  0.12500000  1
  Hg  Hg3  1  0.12500000  0.62500000  0.12500000  1
  S  S0  1  0.00000000  0.00000000  0.00000000  1
  S  S1  1  0.25000000  0.25000000  0.25000000  1
  F  F0  1  0.94531308  0.55468692  0.55468692  1
  F  F1  1  0.69531308  0.69531308  0.30468692  1
  F  F2  1  0.55468692  0.55468692  0.94531308  1
  F  F3  1  0.30468692  0.69531308  0.30468692  1
  F  F4  1  0.69531308  0.30468692  0.69531308  1
  F  F5  1  0.94531308  0.94531308  0.55468692  1
  F  F6  1  0.30468692  0.30468692  0.69531308  1
  F  F7  1  0.55468692  0.94531308  0.94531308  1
  F  F8  1  0.30468692  0.69531308  0.69531308  1
  F  F9  1  0.94531308  0.55468692  0.94531308  1
  F  F10  1  0.69531308  0.30468692  0.30468692  1
  F  F11  1  0.55468692  0.94531308  0.55468692  1
loop_
_geom_bond_atom_site_label_1
_geom_bond_atom_site_label_2
_geom_bond_distance
_geom_bond_site_symmetry_2
Hg0 S0 2.338866 1_655
Hg0 S1 2.338866 1_555
Hg1 S0 2.338866 1_556
Hg1 S1 2.338866 1_555
Hg2 S1 2.338866 1_555
Hg2 S0 2.338866 1_555
Hg3 S1 2.338866 1_555
Hg3 S0 2.338866 1_565
F0 Zn3 2.055193 1_555
F0 Zn0 2.055193 1_655
F1 Zn3 2.055193 1_555
F1 Zn2 2.055193 1_555
F2 Zn3 2.055193 1_555
F2 Zn2 2.055193 1_556
F3 Zn0 2.055193 1_555
F3 Zn2 2.055193 1_555
F4 Zn1 2.055193 1_555
F4 Zn3 2.055193 1_555
F5 Zn1 2.055193 1_565
F5 Zn0 2.055193 1_655
F6 Zn1 2.055193 1_555
F6 Zn0 2.055193 1_555
F7 Zn1 2.055193 1_565
F7 Zn2 2.055193 1_556
F8 Zn3 2.055193 1_555
F8 Zn0 2.055193 1_555
F9 Zn0 2.055193 1_655
F9 Zn2 2.055193 1_556
F10 Zn1 2.055193 1_555
F10 Zn2 2.055193 1_555
F11 Zn1 2.055193 1_565
F11 Zn3 2.055193 1_555
