# generated using pymatgen
data_Hf2Sc(TcAs)3
_symmetry_space_group_name_H-M   'P 1'
_cell_length_a   7.73481591
_cell_length_b   7.73258110
_cell_length_c   7.73433201
_cell_angle_alpha   127.26999599
_cell_angle_beta   124.40958815
_cell_angle_gamma   80.16906882
_symmetry_Int_Tables_number   1
_chemical_formula_structural   Hf2Sc(TcAs)3
_chemical_formula_sum   'Hf4 Sc2 Tc6 As6'
_cell_volume   293.16960642
_cell_formula_units_Z   2
loop_
 _symmetry_equiv_pos_site_id
 _symmetry_equiv_pos_as_xyz
  1  'x, y, z'
loop_
 _atom_site_type_symbol
 _atom_site_label
 _atom_site_symmetry_multiplicity
 _atom_site_fract_x
 _atom_site_fract_y
 _atom_site_fract_z
 _atom_site_occupancy
  Hf  Hf0  1  0.75023713  0.84489447  0.59501235  1
  Hf  Hf1  1  0.24993313  0.84479149  0.09495476  1
  Hf  Hf2  1  0.05389573  0.25763727  0.70385824  1
  Hf  Hf3  1  0.94609862  0.65012178  0.20402134  1
  Sc  Sc0  1  0.46074099  0.67658285  0.71579567  1
  Sc  Sc1  1  0.53952622  0.25516106  0.21573718  1
  Tc  Tc0  1  0.49943100  0.50322493  0.00266941  1
  Tc  Tc1  1  0.00010714  0.50330863  0.50342144  1
  Tc  Tc2  1  0.09496764  0.25159510  0.09902652  1
  Tc  Tc3  1  0.90521850  0.00401872  0.15682110  1
  Tc  Tc4  1  0.34707483  0.00385593  0.59839362  1
  Tc  Tc5  1  0.65288509  0.25165701  0.65692538  1
  As  As0  1  0.27137458  0.26857711  0.49721556  1
  As  As1  1  0.72843891  0.22570590  0.99713932  1
  As  As2  1  0.33098936  0.58621053  0.25393323  1
  As  As3  1  0.66906635  0.92305175  0.25538827  1
  As  As4  1  0.16774143  0.92301769  0.75390656  1
  As  As5  1  0.83227333  0.58618377  0.75538205  1
loop_
_geom_bond_atom_site_label_1
_geom_bond_atom_site_label_2
_geom_bond_distance
_geom_bond_site_symmetry_2
Hf0 Tc5 2.909288 1_565
Hf0 Tc2 2.909290 1_666
Hf0 Tc1 2.958342 1_655
Hf0 Tc0 2.962806 1_555
Hf0 Tc3 3.158018 1_566
Hf0 Tc4 3.159148 1_565
Hf1 Tc4 2.906425 1_565
Hf1 Tc3 2.908856 1_465
Hf1 Tc0 2.956784 1_555
Hf1 Tc1 2.959236 1_554
Hf1 Tc2 3.157198 1_565
Hf1 Tc5 3.159097 1_565
Hf2 Tc4 2.879411 1_555
Hf2 Tc3 2.879441 1_455
Hf2 Tc5 2.917335 1_455
Hf2 Tc2 2.918039 1_556
Hf2 Tc0 2.956546 1_556
Hf2 Tc1 2.958553 1_555
Hf3 Tc5 2.879512 1_554
Hf3 Tc2 2.880290 1_655
Hf3 Tc4 2.916313 1_665
Hf3 Tc3 2.916484 1_565
Hf3 Tc1 2.958752 1_655
Hf3 Tc0 2.961161 1_555
Sc0 Tc4 3.020397 1_565
Sc0 Tc3 3.020568 1_566
Sc0 Tc0 3.086149 1_556
Sc0 Tc1 3.088354 1_555
Sc1 Tc2 3.022176 1_555
Sc1 Tc5 3.022523 1_555
Sc1 Tc1 3.086853 1_655
Sc1 Tc0 3.088522 1_555
As0 Tc4 2.481584 1_555
As0 Tc3 2.483064 1_455
As0 Tc2 2.487117 1_555
As0 Tc5 2.488976 1_555
As0 Tc0 2.528808 1_556
As0 Tc1 2.531221 1_555
As0 Sc0 2.697523 1_555
As0 Hf1 2.774895 1_545
As0 Hf2 2.939746 1_555
As1 Tc5 2.483380 1_555
As1 Tc2 2.485202 1_656
As1 Tc3 2.487687 1_556
As1 Tc4 2.488753 1_555
As1 Tc1 2.533158 1_656
As1 Tc0 2.533956 1_556
As1 Sc1 2.693994 1_556
As1 Hf0 2.775543 1_545
As1 Hf3 2.940613 1_556
As2 Tc2 2.617152 1_555
As2 Tc4 2.623901 1_565
As2 Tc0 2.636598 1_555
As2 Sc0 2.724040 1_555
As2 Sc1 2.730309 1_555
As2 Hf1 2.753413 1_555
As2 Hf2 2.758864 1_554
As2 Hf0 2.762553 1_555
As2 Hf3 2.772344 1_455
As3 Tc3 2.617637 1_565
As3 Tc5 2.624937 1_565
As3 Tc0 2.636610 1_555
As3 Sc1 2.724118 1_565
As3 Sc0 2.731463 1_554
As3 Hf0 2.754727 1_555
As3 Hf3 2.757862 1_555
As3 Hf1 2.762230 1_555
As3 Hf2 2.770728 1_665
As4 Tc4 2.617984 1_565
As4 Tc2 2.625478 1_566
As4 Tc1 2.636323 1_555
As4 Sc1 2.725168 1_566
As4 Sc0 2.730238 1_555
As4 Hf0 2.754151 1_455
As4 Hf3 2.757742 1_455
As4 Hf1 2.762932 1_556
As4 Hf2 2.769482 1_565
As5 Tc5 2.615758 1_555
As5 Tc3 2.624946 1_566
As5 Tc1 2.637445 1_655
As5 Sc0 2.723881 1_555
As5 Sc1 2.730958 1_555
As5 Hf1 2.754763 1_656
As5 Hf2 2.758672 1_655
As5 Hf0 2.761405 1_555
As5 Hf3 2.770928 1_556
