# generated using pymatgen
data_CsIn(CO3)2
_symmetry_space_group_name_H-M   'P 1'
_cell_length_a   14.27477752
_cell_length_b   14.27477752
_cell_length_c   14.27477826
_cell_angle_alpha   20.21234021
_cell_angle_beta   20.21234069
_cell_angle_gamma   20.21233569
_symmetry_Int_Tables_number   1
_chemical_formula_structural   CsIn(CO3)2
_chemical_formula_sum   'Cs2 In2 C4 O12'
_cell_volume   303.81904500
_cell_formula_units_Z   2
loop_
 _symmetry_equiv_pos_site_id
 _symmetry_equiv_pos_as_xyz
  1  'x, y, z'
loop_
 _atom_site_type_symbol
 _atom_site_label
 _atom_site_symmetry_multiplicity
 _atom_site_fract_x
 _atom_site_fract_y
 _atom_site_fract_z
 _atom_site_occupancy
  Cs  Cs0  1  0.25000000  0.25000000  0.25000000  1
  Cs  Cs1  1  0.75000000  0.75000000  0.75000000  1
  In  In0  1  0.50000000  0.50000000  0.50000000  1
  In  In1  1  0.00000000  0.00000000  0.00000000  1
  C  C0  1  0.36184967  0.36184967  0.36184967  1
  C  C1  1  0.86184967  0.86184967  0.86184967  1
  C  C2  1  0.63815033  0.63815033  0.63815033  1
  C  C3  1  0.13815033  0.13815033  0.13815033  1
  O  O0  1  0.32225039  0.63806847  0.12803195  1
  O  O1  1  0.12803195  0.32225039  0.63806847  1
  O  O2  1  0.63806847  0.12803195  0.32225039  1
  O  O3  1  0.62803195  0.13806847  0.82225039  1
  O  O4  1  0.82225039  0.62803195  0.13806847  1
  O  O5  1  0.13806847  0.82225039  0.62803195  1
  O  O6  1  0.67774961  0.36193153  0.87196805  1
  O  O7  1  0.87196805  0.67774961  0.36193153  1
  O  O8  1  0.36193153  0.87196805  0.67774961  1
  O  O9  1  0.37196805  0.86193153  0.17774961  1
  O  O10  1  0.17774961  0.37196805  0.86193153  1
  O  O11  1  0.86193153  0.17774961  0.37196805  1
loop_
_geom_bond_atom_site_label_1
_geom_bond_atom_site_label_2
_geom_bond_distance
_geom_bond_site_symmetry_2
Cs0 O4 3.040254 1_455
Cs0 O7 3.040254 1_455
Cs0 O5 3.040254 1_545
Cs0 O6 3.040254 1_554
Cs0 O8 3.040255 1_545
Cs0 O3 3.040255 1_554
Cs1 O10 3.040254 1_655
Cs1 O1 3.040254 1_655
Cs1 O11 3.040254 1_565
Cs1 O0 3.040254 1_556
Cs1 O2 3.040255 1_565
Cs1 O9 3.040255 1_556
In0 O5 2.155273 1_555
In0 O11 2.155273 1_555
In0 O4 2.155273 1_555
In0 O10 2.155273 1_555
In0 O3 2.155273 1_555
In0 O9 2.155273 1_555
In1 O0 2.155273 1_545
In1 O6 2.155273 1_454
In1 O1 2.155273 1_554
In1 O7 2.155273 1_445
In1 O2 2.155273 1_455
In1 O8 2.155273 1_544
C0 O2 1.290197 1_555
C0 O0 1.290198 1_555
C0 O1 1.290198 1_555
C1 O3 1.290197 1_565
C1 O5 1.290198 1_655
C1 O4 1.290198 1_556
C2 O8 1.290197 1_555
C2 O6 1.290198 1_555
C2 O7 1.290198 1_555
C3 O9 1.290197 1_545
C3 O11 1.290198 1_455
C3 O10 1.290198 1_554
