# generated using pymatgen
data_Ti2GaW2C3
_symmetry_space_group_name_H-M   'P 1'
_cell_length_a   3.01531611
_cell_length_b   3.01531617
_cell_length_c   23.52874039
_cell_angle_alpha   90.00000000
_cell_angle_beta   90.00000000
_cell_angle_gamma   119.99997766
_symmetry_Int_Tables_number   1
_chemical_formula_structural   Ti2GaW2C3
_chemical_formula_sum   'Ti4 Ga2 W4 C6'
_cell_volume   185.26573861
_cell_formula_units_Z   2
loop_
 _symmetry_equiv_pos_site_id
 _symmetry_equiv_pos_as_xyz
  1  'x, y, z'
loop_
 _atom_site_type_symbol
 _atom_site_label
 _atom_site_symmetry_multiplicity
 _atom_site_fract_x
 _atom_site_fract_y
 _atom_site_fract_z
 _atom_site_occupancy
  Ti  Ti0  1  0.33333300  0.66666700  0.44630133  1
  Ti  Ti1  1  0.66666700  0.33333300  0.55369867  1
  Ti  Ti2  1  0.66666700  0.33333300  0.94630133  1
  Ti  Ti3  1  0.33333300  0.66666700  0.05369867  1
  Ga  Ga0  1  0.33333300  0.66666700  0.25000000  1
  Ga  Ga1  1  0.66666700  0.33333300  0.75000000  1
  W  W0  1  0.00000000  0.00000000  0.34058699  1
  W  W1  1  0.00000000  0.00000000  0.65941301  1
  W  W2  1  0.00000000  0.00000000  0.84058699  1
  W  W3  1  0.00000000  0.00000000  0.15941301  1
  C  C0  1  0.00000000  0.00000000  0.50000000  1
  C  C1  1  0.00000000  0.00000000  0.00000000  1
  C  C2  1  0.66666700  0.33333300  0.39198665  1
  C  C3  1  0.33333300  0.66666700  0.60801335  1
  C  C4  1  0.33333300  0.66666700  0.89198665  1
  C  C5  1  0.66666700  0.33333300  0.10801335  1
loop_
_geom_bond_atom_site_label_1
_geom_bond_atom_site_label_2
_geom_bond_distance
_geom_bond_site_symmetry_2
Ga0 W3 2.752010 1_565
Ga0 W0 2.752010 1_565
Ga0 W3 2.752012 1_665
Ga0 W0 2.752012 1_665
Ga0 W3 2.752012 1_555
Ga0 W0 2.752012 1_555
Ga1 W1 2.752010 1_655
Ga1 W2 2.752010 1_655
Ga1 W1 2.752012 1_555
Ga1 W2 2.752012 1_555
Ga1 W1 2.752012 1_665
Ga1 W2 2.752012 1_665
C0 Ti1 2.151056 1_455
C0 Ti0 2.151056 1_545
C0 Ti1 2.151058 1_555
C0 Ti0 2.151058 1_445
C0 Ti1 2.151058 1_445
C0 Ti0 2.151058 1_555
C1 Ti3 2.151056 1_545
C1 Ti2 2.151056 1_454
C1 Ti3 2.151058 1_445
C1 Ti2 2.151058 1_554
C1 Ti3 2.151058 1_555
C1 Ti2 2.151058 1_444
C2 W0 2.119735 1_655
C2 W0 2.119738 1_555
C2 W0 2.119738 1_665
C2 Ti0 2.159601 1_655
C2 Ti0 2.159601 1_545
C2 Ti0 2.159605 1_555
C3 W1 2.119735 1_565
C3 W1 2.119738 1_665
C3 W1 2.119738 1_555
C3 Ti1 2.159601 1_455
C3 Ti1 2.159601 1_565
C3 Ti1 2.159605 1_555
C4 W2 2.119735 1_565
C4 W2 2.119738 1_665
C4 W2 2.119738 1_555
C4 Ti2 2.159601 1_455
C4 Ti2 2.159601 1_565
C4 Ti2 2.159605 1_555
C5 W3 2.119735 1_655
C5 W3 2.119738 1_555
C5 W3 2.119738 1_665
C5 Ti3 2.159601 1_655
C5 Ti3 2.159601 1_545
C5 Ti3 2.159605 1_555
