# generated using pymatgen
data_U3Cu2Sb3
_symmetry_space_group_name_H-M   'P 1'
_cell_length_a   4.40444366
_cell_length_b   4.40444366
_cell_length_c   22.55585500
_cell_angle_alpha   90.00000000
_cell_angle_beta   90.00000000
_cell_angle_gamma   119.99999488
_symmetry_Int_Tables_number   1
_chemical_formula_structural   U3Cu2Sb3
_chemical_formula_sum   'U6 Cu4 Sb6'
_cell_volume   378.94140940
_cell_formula_units_Z   2
loop_
 _symmetry_equiv_pos_site_id
 _symmetry_equiv_pos_as_xyz
  1  'x, y, z'
loop_
 _atom_site_type_symbol
 _atom_site_label
 _atom_site_symmetry_multiplicity
 _atom_site_fract_x
 _atom_site_fract_y
 _atom_site_fract_z
 _atom_site_occupancy
  U  U0  1  0.33333300  0.66666700  0.42152200  1
  U  U1  1  0.66666700  0.33333300  0.57847800  1
  U  U2  1  0.33333300  0.66666700  0.07847800  1
  U  U3  1  0.66666700  0.33333300  0.75000000  1
  U  U4  1  0.33333300  0.66666700  0.25000000  1
  U  U5  1  0.66666700  0.33333300  0.92152200  1
  Cu  Cu0  1  0.00000000  0.00000000  0.18751000  1
  Cu  Cu1  1  0.00000000  0.00000000  0.68751000  1
  Cu  Cu2  1  0.00000000  0.00000000  0.81249000  1
  Cu  Cu3  1  0.00000000  0.00000000  0.31249000  1
  Sb  Sb0  1  0.66666700  0.33333300  0.15967800  1
  Sb  Sb1  1  0.66666700  0.33333300  0.34032200  1
  Sb  Sb2  1  0.33333300  0.66666700  0.84032200  1
  Sb  Sb3  1  0.00000000  0.00000000  0.50000000  1
  Sb  Sb4  1  0.33333300  0.66666700  0.65967800  1
  Sb  Sb5  1  0.00000000  0.00000000  0.00000000  1
loop_
_geom_bond_atom_site_label_1
_geom_bond_atom_site_label_2
_geom_bond_distance
_geom_bond_site_symmetry_2
Cu0 Sb0 2.619248 1_455
Cu0 Sb0 2.619252 1_445
Cu0 Sb0 2.619252 1_555
Cu0 U4 2.907421 1_545
Cu0 U4 2.907424 1_555
Cu0 U4 2.907424 1_445
Cu1 Sb4 2.619248 1_545
Cu1 Sb4 2.619252 1_555
Cu1 Sb4 2.619252 1_445
Cu1 U3 2.907421 1_455
Cu1 U3 2.907424 1_445
Cu1 U3 2.907424 1_555
Cu2 Sb2 2.619248 1_545
Cu2 Sb2 2.619252 1_555
Cu2 Sb2 2.619252 1_445
Cu2 U3 2.907421 1_455
Cu2 U3 2.907424 1_445
Cu2 U3 2.907424 1_555
Cu3 Sb1 2.619248 1_455
Cu3 Sb1 2.619252 1_445
Cu3 Sb1 2.619252 1_555
Cu3 U4 2.907421 1_545
Cu3 U4 2.907424 1_555
Cu3 U4 2.907424 1_445
Sb0 U2 3.133829 1_545
Sb0 U2 3.133829 1_655
Sb0 U2 3.133835 1_555
Sb0 U4 3.258360 1_545
Sb0 U4 3.258360 1_655
Sb0 U4 3.258366 1_555
Sb1 U0 3.133829 1_545
Sb1 U0 3.133829 1_655
Sb1 U0 3.133835 1_555
Sb1 U4 3.258360 1_545
Sb1 U4 3.258360 1_655
Sb1 U4 3.258366 1_555
Sb2 U5 3.133829 1_455
Sb2 U5 3.133829 1_565
Sb2 U5 3.133835 1_555
Sb2 U3 3.258360 1_455
Sb2 U3 3.258360 1_565
Sb2 U3 3.258366 1_555
Sb3 U1 3.098347 1_455
Sb3 U0 3.098347 1_545
Sb3 U1 3.098350 1_555
Sb3 U1 3.098350 1_445
Sb3 U0 3.098350 1_445
Sb3 U0 3.098350 1_555
Sb4 U1 3.133829 1_455
Sb4 U1 3.133829 1_565
Sb4 U1 3.133835 1_555
Sb4 U3 3.258360 1_455
Sb4 U3 3.258360 1_565
Sb4 U3 3.258366 1_555
Sb5 U2 3.098347 1_545
Sb5 U5 3.098347 1_454
Sb5 U2 3.098350 1_555
Sb5 U2 3.098350 1_445
Sb5 U5 3.098350 1_444
Sb5 U5 3.098350 1_554
