# generated using pymatgen
data_Rb12MoP8W
_symmetry_space_group_name_H-M   'P 1'
_cell_length_a   10.40231555
_cell_length_b   10.40231467
_cell_length_c   8.35205738
_cell_angle_alpha   90.00000000
_cell_angle_beta   90.00000000
_cell_angle_gamma   119.99999967
_symmetry_Int_Tables_number   1
_chemical_formula_structural   Rb12MoP8W
_chemical_formula_sum   'Rb12 Mo1 P8 W1'
_cell_volume   782.67977820
_cell_formula_units_Z   1
loop_
 _symmetry_equiv_pos_site_id
 _symmetry_equiv_pos_as_xyz
  1  'x, y, z'
loop_
 _atom_site_type_symbol
 _atom_site_label
 _atom_site_symmetry_multiplicity
 _atom_site_fract_x
 _atom_site_fract_y
 _atom_site_fract_z
 _atom_site_occupancy
  Rb  Rb0  1  0.14629551  0.29259401  0.28798632  1
  Rb  Rb1  1  0.85368480  0.14631520  0.78797411  1
  Rb  Rb2  1  0.53342572  0.46657428  0.10428565  1
  Rb  Rb3  1  0.06639243  0.53319622  0.60399094  1
  Rb  Rb4  1  0.46680378  0.93360757  0.60399094  1
  Rb  Rb5  1  0.53342572  0.06685145  0.10428565  1
  Rb  Rb6  1  0.93314855  0.46657428  0.10428565  1
  Rb  Rb7  1  0.46680378  0.53319622  0.60399094  1
  Rb  Rb8  1  0.14629551  0.85370449  0.28798632  1
  Rb  Rb9  1  0.70740599  0.85370449  0.28798632  1
  Rb  Rb10  1  0.85368480  0.70736760  0.78797411  1
  Rb  Rb11  1  0.29263240  0.14631520  0.78797411  1
  Mo  Mo0  1  0.66666700  0.33333300  0.49738930  1
  P  P0  1  0.78927177  0.57854354  0.40927635  1
  P  P1  1  0.42145646  0.21072823  0.40927635  1
  P  P2  1  0.33333300  0.66666700  0.27393100  1
  P  P3  1  0.66666700  0.33333300  0.77356231  1
  P  P4  1  0.78927177  0.21072823  0.40927635  1
  P  P5  1  0.21065666  0.78934334  0.90904553  1
  P  P6  1  0.21065666  0.42131332  0.90904553  1
  P  P7  1  0.57868668  0.78934334  0.90904553  1
  W  W0  1  0.33333300  0.66666700  0.99723670  1
loop_
_geom_bond_atom_site_label_1
_geom_bond_atom_site_label_2
_geom_bond_distance
_geom_bond_site_symmetry_2
Mo0 P3 2.306613 1_555
Mo0 P4 2.328372 1_555
Mo0 P0 2.328381 1_555
Mo0 P1 2.328381 1_555
P0 Rb10 3.369096 1_555
P0 Rb6 3.439263 1_555
P0 Rb2 3.439263 1_555
P0 Rb8 3.518754 1_655
P0 Rb9 3.518774 1_555
P0 Rb3 3.540765 1_655
P0 Rb7 3.540765 1_555
P1 Rb11 3.369096 1_555
P1 Rb2 3.439263 1_555
P1 Rb5 3.439263 1_555
P1 Rb8 3.518754 1_545
P1 Rb0 3.518775 1_555
P1 Rb7 3.540765 1_555
P1 Rb4 3.540765 1_545
P2 W0 2.310967 1_554
P2 Rb0 3.371944 1_555
P2 Rb9 3.371944 1_555
P2 Rb8 3.371962 1_555
P2 Rb4 3.658175 1_555
P2 Rb3 3.658175 1_555
P2 Rb7 3.658181 1_555
P2 Rb5 3.873568 1_565
P2 Rb6 3.873568 1_455
P2 Rb2 3.873576 1_555
P3 Rb10 3.371703 1_555
P3 Rb11 3.371703 1_555
P3 Rb1 3.371712 1_555
P3 Rb5 3.659638 1_556
P3 Rb6 3.659638 1_556
P3 Rb2 3.659644 1_556
P3 Rb4 3.869493 1_545
P3 Rb3 3.869494 1_655
P3 Rb7 3.869502 1_555
P4 Rb1 3.369102 1_555
P4 Rb6 3.439263 1_555
P4 Rb5 3.439263 1_555
P4 Rb9 3.518745 1_545
P4 Rb0 3.518745 1_655
P4 Rb3 3.540765 1_655
P4 Rb4 3.540765 1_545
P5 W0 2.329802 1_555
P5 Rb8 3.370686 1_556
P5 Rb3 3.441596 1_555
P5 Rb4 3.441596 1_555
P5 Rb11 3.517389 1_565
P5 Rb10 3.517389 1_455
P5 Rb6 3.545847 1_456
P5 Rb5 3.545847 1_566
P6 W0 2.329811 1_555
P6 Rb0 3.370677 1_556
P6 Rb3 3.441596 1_555
P6 Rb7 3.441596 1_555
P6 Rb1 3.517395 1_455
P6 Rb11 3.517409 1_555
P6 Rb6 3.545847 1_456
P6 Rb2 3.545847 1_556
P7 W0 2.329811 1_555
P7 Rb9 3.370677 1_556
P7 Rb7 3.441596 1_555
P7 Rb4 3.441596 1_555
P7 Rb1 3.517395 1_565
P7 Rb10 3.517409 1_555
P7 Rb2 3.545846 1_556
P7 Rb5 3.545846 1_566
