# generated using pymatgen
data_Zr6Zn23B
_symmetry_space_group_name_H-M   'P 1'
_cell_length_a   8.61870997
_cell_length_b   8.61871029
_cell_length_c   8.61871018
_cell_angle_alpha   60.00000043
_cell_angle_beta   59.99999922
_cell_angle_gamma   59.99999428
_symmetry_Int_Tables_number   1
_chemical_formula_structural   Zr6Zn23B
_chemical_formula_sum   'Zr6 Zn23 B1'
_cell_volume   452.70136928
_cell_formula_units_Z   1
loop_
 _symmetry_equiv_pos_site_id
 _symmetry_equiv_pos_as_xyz
  1  'x, y, z'
loop_
 _atom_site_type_symbol
 _atom_site_label
 _atom_site_symmetry_multiplicity
 _atom_site_fract_x
 _atom_site_fract_y
 _atom_site_fract_z
 _atom_site_occupancy
  Zr  Zr0  1  0.69664555  0.30335445  0.30335445  1
  Zr  Zr1  1  0.30335445  0.69664555  0.69664555  1
  Zr  Zr2  1  0.30335445  0.69664555  0.30335445  1
  Zr  Zr3  1  0.69664555  0.30335445  0.69664555  1
  Zr  Zr4  1  0.30335445  0.30335445  0.69664555  1
  Zr  Zr5  1  0.69664555  0.69664555  0.30335445  1
  Zn  Zn0  1  0.12177041  0.12177041  0.12177041  1
  Zn  Zn1  1  0.87822959  0.87822959  0.87822959  1
  Zn  Zn2  1  0.12177041  0.12177041  0.63468976  1
  Zn  Zn3  1  0.12177041  0.63468976  0.12177041  1
  Zn  Zn4  1  0.87822959  0.87822959  0.36531024  1
  Zn  Zn5  1  0.87822959  0.36531024  0.87822959  1
  Zn  Zn6  1  0.63468976  0.12177041  0.12177041  1
  Zn  Zn7  1  0.36531024  0.87822959  0.87822959  1
  Zn  Zn8  1  0.50000000  0.00000000  0.00000000  1
  Zn  Zn9  1  0.00000000  0.50000000  0.50000000  1
  Zn  Zn10  1  0.00000000  0.50000000  0.00000000  1
  Zn  Zn11  1  0.50000000  0.00000000  0.50000000  1
  Zn  Zn12  1  0.00000000  0.00000000  0.50000000  1
  Zn  Zn13  1  0.50000000  0.50000000  0.00000000  1
  Zn  Zn14  1  0.33159365  0.33159365  0.33159365  1
  Zn  Zn15  1  0.66840635  0.66840635  0.66840635  1
  Zn  Zn16  1  0.33159365  0.33159365  0.00522004  1
  Zn  Zn17  1  0.33159365  0.00522004  0.33159365  1
  Zn  Zn18  1  0.66840635  0.66840635  0.99477996  1
  Zn  Zn19  1  0.66840635  0.99477996  0.66840635  1
  Zn  Zn20  1  0.00522004  0.33159365  0.33159365  1
  Zn  Zn21  1  0.99477996  0.66840635  0.66840635  1
  Zn  Zn22  1  0.00000000  0.00000000  0.00000000  1
  B  B0  1  0.50000000  0.50000000  0.50000000  1
loop_
_geom_bond_atom_site_label_1
_geom_bond_atom_site_label_2
_geom_bond_distance
_geom_bond_site_symmetry_2
Zn0 Zn22 2.570749 1_555
Zn0 Zn8 2.662433 1_555
Zn0 Zn10 2.662433 1_555
Zn0 Zn12 2.662434 1_555
Zn0 Zn17 2.680840 1_555
Zn0 Zn20 2.680840 1_555
Zn0 Zn16 2.680840 1_555
Zn0 Zn5 2.968445 1_454
Zn0 Zn7 2.968445 1_544
Zn0 Zn4 2.968445 1_445
Zn0 Zr0 3.050313 1_455
Zn0 Zr2 3.050313 1_545
Zn0 Zr4 3.050313 1_554
Zn1 Zn22 2.570749 1_666
Zn1 Zn8 2.662433 1_566
Zn1 Zn10 2.662433 1_656
Zn1 Zn12 2.662434 1_665
Zn1 Zn19 2.680840 1_555
Zn1 Zn21 2.680840 1_555
Zn1 Zn18 2.680840 1_555
Zn1 Zn3 2.968445 1_656
Zn1 Zn6 2.968445 1_566
Zn1 Zn2 2.968445 1_665
Zn1 Zr1 3.050313 1_655
Zn1 Zr3 3.050313 1_565
Zn1 Zr5 3.050313 1_556
Zn2 Zn22 2.570742 1_556
Zn2 Zn9 2.662434 1_555
Zn2 Zn20 2.680840 1_555
Zn2 Zn5 2.968433 1_455
Zn2 Zn7 2.968433 1_545
Zn2 Zr4 3.050307 1_555
Zn2 Zr3 3.050314 1_455
Zn2 Zr1 3.050314 1_545
Zn3 Zn9 2.662434 1_555
Zn3 Zn4 2.968433 1_455
Zn3 Zn7 2.968433 1_554
Zn3 Zr2 3.050307 1_555
Zn3 Zr5 3.050314 1_455
Zn3 Zr1 3.050315 1_554
Zn4 Zn9 2.662434 1_655
Zn4 Zn6 2.968433 1_565
Zn4 Zr5 3.050307 1_555
Zn4 Zr2 3.050314 1_655
Zn4 Zr0 3.050314 1_565
Zn5 Zn9 2.662434 1_655
Zn5 Zn6 2.968433 1_556
Zn5 Zr3 3.050307 1_555
Zn5 Zr4 3.050314 1_655
Zn5 Zr0 3.050315 1_556
Zn6 Zn8 2.662441 1_555
Zn6 Zr0 3.050307 1_555
Zn6 Zr5 3.050315 1_545
Zn6 Zr3 3.050315 1_554
Zn7 Zn8 2.662441 1_566
Zn7 Zr1 3.050307 1_555
Zn7 Zr4 3.050315 1_565
Zn7 Zr2 3.050315 1_556
Zn8 Zr5 3.115796 1_545
Zn8 Zr4 3.115796 1_554
Zn8 Zr2 3.115797 1_545
Zn8 Zr3 3.115797 1_554
Zn9 Zr4 3.115796 1_555
Zn9 Zr5 3.115796 1_455
Zn9 Zr3 3.115797 1_455
Zn9 Zr2 3.115797 1_555
Zn10 Zn16 2.488281 1_555
Zn10 Zn18 2.488281 1_454
Zn10 Zn20 2.488281 1_555
Zn10 Zn21 2.488281 1_454
Zn10 Zn3 2.662441 1_555
Zn10 Zn5 2.662441 1_454
Zn10 Zr5 3.115796 1_455
Zn10 Zr4 3.115796 1_554
Zn10 Zr0 3.115797 1_455
Zn10 Zr1 3.115797 1_554
Zn11 Zn19 2.488273 1_545
Zn11 Zn17 2.488273 1_555
Zn11 Zn15 2.488278 1_545
Zn11 Zn14 2.488278 1_555
Zn11 Zn4 2.662433 1_545
Zn11 Zn2 2.662433 1_555
Zn11 Zn7 2.662434 1_545
Zn11 Zn6 2.662434 1_555
Zn11 Zr4 3.115796 1_555
Zn11 Zr5 3.115796 1_545
Zn11 Zr1 3.115797 1_545
Zn11 Zr0 3.115797 1_555
Zn12 Zn17 2.488281 1_555
Zn12 Zn19 2.488281 1_445
Zn12 Zn20 2.488281 1_555
Zn12 Zn21 2.488281 1_445
Zn12 Zn2 2.662441 1_555
Zn12 Zn4 2.662441 1_445
Zn12 Zr1 3.115796 1_545
Zn12 Zr0 3.115796 1_455
Zn12 Zr2 3.115796 1_545
Zn12 Zr3 3.115796 1_455
Zn13 Zn18 2.488274 1_554
Zn13 Zn16 2.488274 1_555
Zn13 Zn14 2.488278 1_555
Zn13 Zn15 2.488278 1_554
Zn13 Zn5 2.662433 1_554
Zn13 Zn3 2.662433 1_555
Zn13 Zn7 2.662434 1_554
Zn13 Zn6 2.662434 1_555
Zn13 Zr3 3.115796 1_554
Zn13 Zr2 3.115796 1_555
Zn13 Zr0 3.115796 1_555
Zn13 Zr1 3.115796 1_554
Zn14 Zn9 2.488278 1_555
Zn14 Zn6 2.680840 1_555
Zn14 Zn3 2.680840 1_555
Zn14 Zn2 2.680840 1_555
Zn14 Zn20 2.812919 1_555
Zn14 Zn16 2.812920 1_555
Zn14 Zn17 2.812920 1_555
Zn14 Zr0 2.923226 1_555
Zn14 Zr4 2.923226 1_555
Zn14 Zr2 2.923226 1_555
Zn15 Zn9 2.488278 1_655
Zn15 Zn7 2.680840 1_555
Zn15 Zn5 2.680840 1_555
Zn15 Zn4 2.680840 1_555
Zn15 Zn21 2.812919 1_555
Zn15 Zn18 2.812920 1_555
Zn15 Zn19 2.812920 1_555
Zn15 Zr1 2.923226 1_555
Zn15 Zr5 2.923226 1_555
Zn15 Zr3 2.923226 1_555
Zn16 Zn8 2.488281 1_555
Zn16 Zn6 2.680840 1_555
Zn16 Zn3 2.680840 1_555
Zn16 Zn20 2.812919 1_555
Zn16 Zn17 2.812920 1_555
Zn16 Zr3 2.923229 1_554
Zn16 Zr1 2.923229 1_554
Zn16 Zr4 2.923234 1_554
Zn17 Zn8 2.488281 1_555
Zn17 Zn2 2.680840 1_555
Zn17 Zn6 2.680840 1_555
Zn17 Zn20 2.812919 1_555
Zn17 Zr5 2.923229 1_545
Zn17 Zr1 2.923229 1_545
Zn17 Zr2 2.923234 1_545
Zn18 Zn8 2.488281 1_566
Zn18 Zn7 2.680840 1_555
Zn18 Zn5 2.680840 1_555
Zn18 Zn21 2.812919 1_555
Zn18 Zn19 2.812920 1_555
Zn18 Zr2 2.923229 1_556
Zn18 Zr0 2.923229 1_556
Zn18 Zr5 2.923234 1_556
Zn19 Zn8 2.488281 1_566
Zn19 Zn4 2.680840 1_555
Zn19 Zn7 2.680840 1_555
Zn19 Zn21 2.812919 1_555
Zn19 Zr4 2.923229 1_565
Zn19 Zr0 2.923229 1_565
Zn19 Zr3 2.923234 1_565
Zn20 Zn9 2.488274 1_555
Zn20 Zn3 2.680840 1_555
Zn20 Zr5 2.923229 1_455
Zn20 Zr3 2.923229 1_455
Zn20 Zr0 2.923234 1_455
Zn21 Zn9 2.488274 1_655
Zn21 Zn4 2.680840 1_555
Zn21 Zn5 2.680840 1_555
Zn21 Zr4 2.923229 1_655
Zn21 Zr2 2.923229 1_655
Zn21 Zr1 2.923234 1_655
Zn22 Zn7 2.570742 1_544
Zn22 Zn6 2.570742 1_455
Zn22 Zn5 2.570742 1_454
Zn22 Zn3 2.570742 1_545
Zn22 Zn4 2.570742 1_445
B0 Zr1 2.396853 1_555
B0 Zr0 2.396853 1_555
B0 Zr2 2.396853 1_555
B0 Zr3 2.396853 1_555
B0 Zr5 2.396853 1_555
B0 Zr4 2.396853 1_555
