# generated using pymatgen
data_Y20Hg6IrPd
_symmetry_space_group_name_H-M   'P 1'
_cell_length_a   9.74299987
_cell_length_b   9.74297305
_cell_length_c   9.57896353
_cell_angle_alpha   90.00000000
_cell_angle_beta   90.00000000
_cell_angle_gamma   119.99983369
_symmetry_Int_Tables_number   1
_chemical_formula_structural   Y20Hg6IrPd
_chemical_formula_sum   'Y20 Hg6 Ir1 Pd1'
_cell_volume   787.47010753
_cell_formula_units_Z   1
loop_
 _symmetry_equiv_pos_site_id
 _symmetry_equiv_pos_as_xyz
  1  'x, y, z'
loop_
 _atom_site_type_symbol
 _atom_site_label
 _atom_site_symmetry_multiplicity
 _atom_site_fract_x
 _atom_site_fract_y
 _atom_site_fract_z
 _atom_site_occupancy
  Y  Y0  1  0.20847264  0.79152882  0.93800860  1
  Y  Y1  1  0.20847360  0.41694418  0.93800921  1
  Y  Y2  1  0.58305555  0.79152627  0.93801004  1
  Y  Y3  1  0.79348518  0.20651315  0.06060975  1
  Y  Y4  1  0.79348559  0.58697469  0.06061176  1
  Y  Y5  1  0.41302584  0.20651455  0.06061097  1
  Y  Y6  1  0.79348518  0.20651315  0.43939025  1
  Y  Y7  1  0.79348559  0.58697469  0.43938824  1
  Y  Y8  1  0.41302584  0.20651455  0.43938903  1
  Y  Y9  1  0.20847264  0.79152882  0.56199140  1
  Y  Y10  1  0.20847360  0.41694418  0.56199079  1
  Y  Y11  1  0.58305555  0.79152627  0.56198996  1
  Y  Y12  1  0.54103563  0.45896363  0.75000000  1
  Y  Y13  1  0.54103193  0.08206681  0.75000000  1
  Y  Y14  1  0.91792934  0.45896644  0.75000000  1
  Y  Y15  1  0.45700260  0.54300108  0.25000000  1
  Y  Y16  1  0.45699895  0.91399930  0.25000000  1
  Y  Y17  1  0.08600192  0.54300147  0.25000000  1
  Y  Y18  1  0.00000107  0.99999866  0.99899417  1
  Y  Y19  1  0.00000107  0.99999866  0.50100583  1
  Hg  Hg0  1  0.87927460  0.12072484  0.75000000  1
  Hg  Hg1  1  0.87927531  0.75854897  0.75000000  1
  Hg  Hg2  1  0.24145114  0.12072410  0.75000000  1
  Hg  Hg3  1  0.12034211  0.87965805  0.25000000  1
  Hg  Hg4  1  0.12034074  0.24068461  0.25000000  1
  Hg  Hg5  1  0.75931586  0.87965944  0.25000000  1
  Ir  Ir0  1  0.33333529  0.66666855  0.75000000  1
  Pd  Pd0  1  0.66666263  0.33333509  0.25000000  1
loop_
_geom_bond_atom_site_label_1
_geom_bond_atom_site_label_2
_geom_bond_distance
_geom_bond_site_symmetry_2
Hg0 Y14 3.124244 1_555
Hg0 Y13 3.124251 1_555
Hg0 Y18 3.136767 1_645
Hg0 Y19 3.136767 1_645
Hg0 Y3 3.308838 1_556
Hg0 Y6 3.308838 1_555
Hg0 Y2 3.550120 1_545
Hg0 Y11 3.550120 1_545
Hg0 Y1 3.550121 1_655
Hg0 Y10 3.550121 1_655
Hg1 Y14 3.124198 1_555
Hg1 Y12 3.124240 1_555
Hg1 Y18 3.136753 1_655
Hg1 Y19 3.136753 1_655
Hg1 Y4 3.308843 1_556
Hg1 Y7 3.308843 1_555
Hg1 Y0 3.550101 1_655
Hg1 Y9 3.550101 1_655
Hg1 Y2 3.550112 1_555
Hg1 Y11 3.550112 1_555
Hg2 Y13 3.124207 1_555
Hg2 Y12 3.124234 1_555
Hg2 Y18 3.136758 1_545
Hg2 Y19 3.136758 1_545
Hg2 Y5 3.308839 1_556
Hg2 Y8 3.308839 1_555
Hg2 Y0 3.550080 1_545
Hg2 Y9 3.550080 1_545
Hg2 Y1 3.550106 1_555
Hg2 Y10 3.550106 1_555
Hg3 Y17 3.126205 1_555
Hg3 Y16 3.126213 1_555
Hg3 Y19 3.147243 1_555
Hg3 Y18 3.147243 1_554
Hg3 Y9 3.338156 1_555
Hg3 Y0 3.338156 1_554
Hg3 Y7 3.533149 1_455
Hg3 Y4 3.533149 1_455
Hg3 Y8 3.533152 1_565
Hg3 Y5 3.533152 1_565
Hg4 Y17 3.126202 1_555
Hg4 Y15 3.126248 1_555
Hg4 Y19 3.147268 1_545
Hg4 Y18 3.147268 1_544
Hg4 Y10 3.338150 1_555
Hg4 Y1 3.338150 1_554
Hg4 Y8 3.533147 1_555
Hg4 Y5 3.533147 1_555
Hg4 Y6 3.533154 1_455
Hg4 Y3 3.533154 1_455
Hg5 Y15 3.126213 1_555
Hg5 Y16 3.126215 1_555
Hg5 Y19 3.147267 1_655
Hg5 Y18 3.147267 1_654
Hg5 Y11 3.338148 1_555
Hg5 Y2 3.338148 1_554
Hg5 Y7 3.533133 1_555
Hg5 Y4 3.533133 1_555
Hg5 Y6 3.533138 1_565
Hg5 Y3 3.533138 1_565
Ir0 Y2 2.771842 1_555
Ir0 Y11 2.771842 1_555
Ir0 Y0 2.771844 1_555
Ir0 Y9 2.771844 1_555
Ir0 Y1 2.771859 1_555
Ir0 Y10 2.771859 1_555
Pd0 Y8 2.805569 1_555
Pd0 Y5 2.805569 1_555
Pd0 Y7 2.805578 1_555
Pd0 Y4 2.805578 1_555
Pd0 Y6 2.805620 1_555
Pd0 Y3 2.805620 1_555
