# generated using pymatgen
data_TaHg2SbO7
_symmetry_space_group_name_H-M   'P 1'
_cell_length_a   7.39437595
_cell_length_b   7.39437524
_cell_length_c   7.35309930
_cell_angle_alpha   60.18448229
_cell_angle_beta   60.18448546
_cell_angle_gamma   60.32993408
_symmetry_Int_Tables_number   1
_chemical_formula_structural   TaHg2SbO7
_chemical_formula_sum   'Ta2 Hg4 Sb2 O14'
_cell_volume   285.78609985
_cell_formula_units_Z   2
loop_
 _symmetry_equiv_pos_site_id
 _symmetry_equiv_pos_as_xyz
  1  'x, y, z'
loop_
 _atom_site_type_symbol
 _atom_site_label
 _atom_site_symmetry_multiplicity
 _atom_site_fract_x
 _atom_site_fract_y
 _atom_site_fract_z
 _atom_site_occupancy
  Ta  Ta0  1  0.12500000  0.62500000  0.12500000  1
  Ta  Ta1  1  0.62500000  0.12500000  0.12500000  1
  Hg  Hg0  1  0.62500000  0.62500000  0.62500000  1
  Hg  Hg1  1  0.62500000  0.12500000  0.62500000  1
  Hg  Hg2  1  0.62500000  0.62500000  0.12500000  1
  Hg  Hg3  1  0.12500000  0.62500000  0.62500000  1
  Sb  Sb0  1  0.12500000  0.12500000  0.12500000  1
  Sb  Sb1  1  0.12500000  0.12500000  0.62500000  1
  O  O0  1  0.81272357  0.81272357  0.18727643  1
  O  O1  1  0.81043791  0.19079466  0.80737666  1
  O  O2  1  0.05233657  0.05233657  0.44766343  1
  O  O3  1  0.81043791  0.19079466  0.19139077  1
  O  O4  1  0.43727643  0.43727643  0.06272357  1
  O  O5  1  0.05920534  0.43956209  0.05860923  1
  O  O6  1  0.19079466  0.81043791  0.80737666  1
  O  O7  1  0.43956209  0.05920534  0.44262334  1
  O  O8  1  0.50379742  0.50379742  0.49620258  1
  O  O9  1  0.19079466  0.81043791  0.19139077  1
  O  O10  1  0.19766343  0.19766343  0.80233657  1
  O  O11  1  0.74620258  0.74620258  0.75379742  1
  O  O12  1  0.43956209  0.05920534  0.05860923  1
  O  O13  1  0.05920534  0.43956209  0.44262334  1
loop_
_geom_bond_atom_site_label_1
_geom_bond_atom_site_label_2
_geom_bond_distance
_geom_bond_site_symmetry_2
Hg0 O11 2.233066 1_555
Hg0 O8 2.233066 1_555
Hg1 O8 2.294889 1_555
Hg1 O11 2.294889 1_545
Hg1 O2 2.625335 1_655
Hg1 O10 2.625335 1_555
Hg1 O1 2.655753 1_555
Hg1 O12 2.655753 1_556
Hg1 O3 2.655753 1_555
Hg1 O7 2.655753 1_555
Hg2 O8 2.233066 1_555
Hg2 O11 2.233066 1_554
Hg3 O8 2.294890 1_555
Hg3 O11 2.294890 1_455
Hg3 O2 2.625335 1_565
Hg3 O10 2.625335 1_555
Hg3 O6 2.655753 1_555
Hg3 O5 2.655753 1_556
Hg3 O9 2.655753 1_555
Hg3 O13 2.655753 1_555
O0 Ta1 1.968703 1_565
O0 Ta0 1.968704 1_655
O1 Sb1 1.967726 1_655
O1 Ta1 1.979257 1_556
O2 Sb0 1.989213 1_555
O2 Sb1 1.989213 1_555
O3 Sb0 1.967726 1_655
O3 Ta1 1.979257 1_555
O4 Ta1 1.968703 1_555
O4 Ta0 1.968704 1_555
O5 Sb0 1.967726 1_555
O5 Ta0 1.979257 1_555
O6 Sb1 1.967726 1_565
O6 Ta0 1.979257 1_556
O7 Sb1 1.967726 1_555
O7 Ta1 1.979257 1_555
O9 Sb0 1.967726 1_565
O9 Ta0 1.979257 1_555
O10 Sb1 1.989213 1_555
O10 Sb0 1.989213 1_556
O12 Sb0 1.967726 1_555
O12 Ta1 1.979257 1_555
O13 Sb1 1.967726 1_555
O13 Ta0 1.979257 1_555
