# generated using pymatgen
data_Hf6Al16Ni6Rh
_symmetry_space_group_name_H-M   'P 1'
_cell_length_a   8.46627837
_cell_length_b   8.46602649
_cell_length_c   8.46593076
_cell_angle_alpha   60.00304174
_cell_angle_beta   59.99977946
_cell_angle_gamma   59.99903331
_symmetry_Int_Tables_number   1
_chemical_formula_structural   Hf6Al16Ni6Rh
_chemical_formula_sum   'Hf6 Al16 Ni6 Rh1'
_cell_volume   429.07969878
_cell_formula_units_Z   1
loop_
 _symmetry_equiv_pos_site_id
 _symmetry_equiv_pos_as_xyz
  1  'x, y, z'
loop_
 _atom_site_type_symbol
 _atom_site_label
 _atom_site_symmetry_multiplicity
 _atom_site_fract_x
 _atom_site_fract_y
 _atom_site_fract_z
 _atom_site_occupancy
  Hf  Hf0  1  0.68806167  0.31194085  0.31193335  1
  Hf  Hf1  1  0.31193888  0.68806023  0.68806509  1
  Hf  Hf2  1  0.31156292  0.68843408  0.31155624  1
  Hf  Hf3  1  0.31170204  0.31170620  0.68829483  1
  Hf  Hf4  1  0.68843729  0.31156619  0.68844183  1
  Hf  Hf5  1  0.68829902  0.68829485  0.31170442  1
  Al  Al0  1  0.33371810  0.33380987  0.33376827  1
  Al  Al1  1  0.33381338  0.33371941  0.99869665  1
  Al  Al2  1  0.99869258  0.33376954  0.33381524  1
  Al  Al3  1  0.33376906  0.99868546  0.33372535  1
  Al  Al4  1  0.66628137  0.66618935  0.66623247  1
  Al  Al5  1  0.66618784  0.66628250  0.00130111  1
  Al  Al6  1  0.66623115  0.00131533  0.66627247  1
  Al  Al7  1  0.00130744  0.66623057  0.66618420  1
  Al  Al8  1  0.12034604  0.12048822  0.12042264  1
  Al  Al9  1  0.12049044  0.12034293  0.63874437  1
  Al  Al10  1  0.63873818  0.12041521  0.12049474  1
  Al  Al11  1  0.12042165  0.63874104  0.12034286  1
  Al  Al12  1  0.87965390  0.87951381  0.87957451  1
  Al  Al13  1  0.87951138  0.87965707  0.36125805  1
  Al  Al14  1  0.87957844  0.36125669  0.87965653  1
  Al  Al15  1  0.36126110  0.87958595  0.87950504  1
  Ni  Ni0  1  0.50000128  0.00000101  0.99999869  1
  Ni  Ni1  1  0.00000040  0.50000114  0.49999817  1
  Ni  Ni2  1  0.00000025  0.50000107  0.99999910  1
  Ni  Ni3  1  0.00000057  0.00000042  0.49999893  1
  Ni  Ni4  1  0.50000041  0.99999923  0.49999968  1
  Ni  Ni5  1  0.49999873  0.50000180  0.00000017  1
  Rh  Rh0  1  0.99999146  0.99998901  0.00001198  1
loop_
_geom_bond_atom_site_label_1
_geom_bond_atom_site_label_2
_geom_bond_distance
_geom_bond_site_symmetry_2
Hf0 Ni5 3.083721 1_555
Hf0 Ni3 3.083790 1_655
Hf0 Ni2 3.083801 1_654
Hf0 Ni4 3.083818 1_545
Hf0 Hf5 3.186259 1_555
Hf0 Hf3 3.186298 1_555
Hf0 Hf2 3.187428 1_555
Hf0 Hf4 3.187501 1_555
Hf1 Ni5 3.083721 1_556
Hf1 Ni3 3.083789 1_565
Hf1 Ni2 3.083796 1_555
Hf1 Ni4 3.083802 1_555
Hf1 Hf3 3.186254 1_555
Hf1 Hf5 3.186297 1_555
Hf1 Hf4 3.187430 1_555
Hf1 Hf2 3.187509 1_555
Hf2 Ni5 3.082422 1_555
Hf2 Ni3 3.082557 1_565
Hf2 Ni1 3.082700 1_555
Hf2 Ni0 3.082770 1_564
Hf2 Hf3 3.189562 1_555
Hf2 Hf5 3.189591 1_555
Hf3 Ni2 3.082911 1_555
Hf3 Ni4 3.082922 1_545
Hf3 Ni1 3.083080 1_555
Hf3 Ni0 3.083122 1_555
Hf3 Hf4 3.189575 1_555
Hf4 Ni5 3.082453 1_556
Hf4 Ni3 3.082556 1_655
Hf4 Ni1 3.082713 1_655
Hf4 Ni0 3.082749 1_555
Hf4 Hf5 3.189561 1_555
Hf5 Ni4 3.082903 1_555
Hf5 Ni2 3.082911 1_654
Hf5 Ni1 3.083063 1_655
Hf5 Ni0 3.083128 1_564
Al0 Ni1 2.443575 1_555
Al0 Ni5 2.444044 1_555
Al0 Ni4 2.444339 1_545
Al0 Al10 2.669465 1_555
Al0 Al11 2.669640 1_555
Al0 Al9 2.669664 1_555
Al0 Hf2 2.826960 1_555
Al0 Hf3 2.827009 1_555
Al0 Hf0 2.827101 1_555
Al0 Al2 2.836391 1_455
Al0 Al1 2.836673 1_554
Al0 Al3 2.837138 1_545
Al1 Ni0 2.443566 1_555
Al1 Ni5 2.444021 1_556
Al1 Ni2 2.444331 1_555
Al1 Al11 2.669463 1_556
Al1 Al10 2.669619 1_556
Al1 Al8 2.669656 1_556
Al1 Hf4 2.826963 1_555
Al1 Hf3 2.826984 1_555
Al1 Hf1 2.827086 1_555
Al1 Al3 2.836498 1_546
Al1 Al2 2.837149 1_456
Al2 Ni1 2.443553 1_655
Al2 Ni3 2.444021 1_655
Al2 Ni2 2.444339 1_654
Al2 Al8 2.669473 1_655
Al2 Al9 2.669647 1_655
Al2 Hf4 2.826978 1_555
Al2 Hf5 2.826985 1_555
Al2 Hf0 2.827052 1_555
Al2 Al3 2.836799 1_645
Al3 Ni0 2.443585 1_564
Al3 Ni3 2.443992 1_565
Al3 Ni4 2.444327 1_555
Al3 Al9 2.669490 1_565
Al3 Al8 2.669614 1_565
Al3 Hf2 2.826943 1_555
Al3 Hf5 2.826995 1_555
Al3 Hf1 2.827055 1_555
Al4 Ni1 2.443585 1_655
Al4 Ni5 2.444036 1_556
Al4 Ni4 2.444335 1_555
Al4 Hf4 2.826959 1_555
Al4 Hf5 2.827009 1_555
Al4 Hf1 2.827093 1_555
Al4 Al7 2.836394 1_655
Al4 Al5 2.836666 1_556
Al4 Al6 2.837142 1_565
Al5 Ni0 2.443566 1_564
Al5 Ni5 2.444023 1_555
Al5 Ni2 2.444327 1_654
Al5 Hf2 2.826969 1_555
Al5 Hf5 2.826991 1_555
Al5 Hf0 2.827092 1_555
Al5 Al6 2.836493 1_564
Al5 Al7 2.837137 1_654
Al6 Ni0 2.443584 1_555
Al6 Ni3 2.443999 1_655
Al6 Ni4 2.444322 1_545
Al6 Hf4 2.826940 1_555
Al6 Hf3 2.826991 1_555
Al6 Hf0 2.827053 1_555
Al6 Al7 2.836801 1_645
Al7 Ni1 2.443556 1_555
Al7 Ni3 2.444029 1_565
Al7 Ni2 2.444331 1_555
Al7 Hf3 2.826984 1_555
Al7 Hf2 2.826985 1_555
Al7 Hf1 2.827057 1_555
Al8 Rh0 2.497238 1_445
Al8 Ni2 2.624950 1_554
Al8 Ni3 2.625371 1_555
Al8 Ni0 2.625922 1_554
Al8 Hf2 3.065643 1_545
Al8 Hf3 3.066435 1_554
Al8 Hf0 3.067880 1_455
Al9 Rh0 2.497287 1_446
Al9 Ni4 2.624923 1_545
Al9 Ni3 2.625354 1_555
Al9 Ni1 2.625952 1_555
Al9 Hf4 3.065631 1_455
Al9 Hf3 3.066387 1_555
Al9 Hf1 3.067870 1_545
Al10 Rh0 2.497190 1_545
Al10 Ni4 2.624886 1_545
Al10 Ni5 2.625451 1_555
Al10 Ni0 2.625835 1_554
Al10 Al3 2.669658 1_545
Al10 Al13 2.882739 1_545
Al10 Al14 2.883658 1_554
Al10 Al12 2.884261 1_544
Al10 Hf4 3.065625 1_554
Al10 Hf5 3.066372 1_545
Al10 Hf0 3.067863 1_555
Al11 Rh0 2.497161 1_455
Al11 Ni2 2.624859 1_554
Al11 Ni5 2.625378 1_555
Al11 Ni1 2.625921 1_555
Al11 Al2 2.669676 1_455
Al11 Al12 2.882737 1_454
Al11 Al15 2.883673 1_554
Al11 Al13 2.884319 1_455
Al11 Hf2 3.065566 1_555
Al11 Hf5 3.066390 1_455
Al11 Hf1 3.067824 1_554
Al12 Rh0 2.497139 1_556
Al12 Ni2 2.624949 1_655
Al12 Ni3 2.625366 1_665
Al12 Ni0 2.625903 1_565
Al12 Al7 2.669470 1_655
Al12 Al6 2.669611 1_565
Al12 Al5 2.669646 1_556
Al12 Al9 2.883561 1_665
Al12 Hf4 3.065631 1_565
Al12 Hf5 3.066447 1_556
Al12 Hf1 3.067883 1_655
Al13 Rh0 2.497138 1_555
Al13 Ni4 2.624929 1_555
Al13 Ni3 2.625322 1_665
Al13 Ni1 2.625935 1_655
Al13 Al6 2.669461 1_565
Al13 Al7 2.669619 1_655
Al13 Al4 2.669674 1_555
Al13 Al8 2.883562 1_665
Al13 Hf2 3.065612 1_655
Al13 Hf5 3.066403 1_555
Al13 Hf0 3.067871 1_565
Al14 Rh0 2.497297 1_546
Al14 Ni2 2.624884 1_655
Al14 Ni5 2.625398 1_556
Al14 Ni1 2.625943 1_655
Al14 Al5 2.669485 1_556
Al14 Al4 2.669641 1_555
Al14 Al7 2.669692 1_655
Al14 Al8 2.882723 1_656
Al14 Al9 2.884287 1_655
Al14 Hf4 3.065560 1_555
Al14 Hf3 3.066403 1_655
Al14 Hf0 3.067823 1_556
Al15 Rh0 2.497303 1_456
Al15 Ni4 2.624889 1_555
Al15 Ni5 2.625434 1_556
Al15 Ni0 2.625848 1_565
Al15 Al4 2.669470 1_555
Al15 Al5 2.669624 1_556
Al15 Al6 2.669662 1_565
Al15 Al9 2.882708 1_565
Al15 Al8 2.884251 1_566
Al15 Hf2 3.065614 1_556
Al15 Hf3 3.066374 1_565
Al15 Hf1 3.067866 1_555
