# generated using pymatgen
data_Tc(SeF6)2
_symmetry_space_group_name_H-M   'P 1'
_cell_length_a   6.14383812
_cell_length_b   7.83368740
_cell_length_c   9.92522842
_cell_angle_alpha   90.00000000
_cell_angle_beta   90.00000000
_cell_angle_gamma   90.00000000
_symmetry_Int_Tables_number   1
_chemical_formula_structural   Tc(SeF6)2
_chemical_formula_sum   'Tc2 Se4 F24'
_cell_volume   477.69039837
_cell_formula_units_Z   2
loop_
 _symmetry_equiv_pos_site_id
 _symmetry_equiv_pos_as_xyz
  1  'x, y, z'
loop_
 _atom_site_type_symbol
 _atom_site_label
 _atom_site_symmetry_multiplicity
 _atom_site_fract_x
 _atom_site_fract_y
 _atom_site_fract_z
 _atom_site_occupancy
  Tc  Tc0  1  0.00000000  0.50000000  0.00000000  1
  Tc  Tc1  1  0.50000000  0.00000000  0.50000000  1
  Se  Se0  1  0.50000000  0.58719580  0.24115519  1
  Se  Se1  1  0.50000000  0.41280420  0.75884481  1
  Se  Se2  1  0.00000000  0.08719580  0.25884481  1
  Se  Se3  1  0.00000000  0.91280420  0.74115519  1
  F  F0  1  0.22263377  0.36651453  0.90958228  1
  F  F1  1  0.22263377  0.63348547  0.09041772  1
  F  F2  1  0.27736623  0.86651453  0.59041772  1
  F  F3  1  0.27736623  0.13348547  0.40958228  1
  F  F4  1  0.77736623  0.63348547  0.09041772  1
  F  F5  1  0.77736623  0.36651453  0.90958228  1
  F  F6  1  0.79843511  0.96458402  0.85338666  1
  F  F7  1  0.79843511  0.03541598  0.14661334  1
  F  F8  1  0.70156489  0.46458402  0.64661334  1
  F  F9  1  0.70156489  0.53541598  0.35338666  1
  F  F10  1  0.20156489  0.03541598  0.14661334  1
  F  F11  1  0.20156489  0.96458402  0.85338666  1
  F  F12  1  0.29843511  0.53541598  0.35338666  1
  F  F13  1  0.29843511  0.46458402  0.64661334  1
  F  F14  1  0.00000000  0.65598368  0.84863403  1
  F  F15  1  0.00000000  0.34401632  0.15136597  1
  F  F16  1  0.50000000  0.15598368  0.65136597  1
  F  F17  1  0.50000000  0.84401632  0.34863403  1
  F  F18  1  0.50000000  0.61576666  0.82462536  1
  F  F19  1  0.50000000  0.38423334  0.17537464  1
  F  F20  1  0.00000000  0.11576666  0.67537464  1
  F  F21  1  0.00000000  0.88423334  0.32462536  1
  F  F22  1  0.72263377  0.86651453  0.59041772  1
  F  F23  1  0.72263377  0.13348547  0.40958228  1
loop_
_geom_bond_atom_site_label_1
_geom_bond_atom_site_label_2
_geom_bond_distance
_geom_bond_site_symmetry_2
F0 Tc0 1.941586 1_556
F0 Se1 2.296465 1_555
F1 Tc0 1.941586 1_555
F1 Se0 2.296465 1_555
F2 Tc1 1.941586 1_565
F2 Se3 2.296465 1_555
F3 Tc1 1.941586 1_555
F3 Se2 2.296465 1_555
F4 Tc0 1.941586 1_655
F4 Se0 2.296465 1_555
F5 Tc0 1.941586 1_656
F5 Se1 2.296465 1_555
F6 Se3 1.714336 1_655
F7 Se2 1.714336 1_655
F8 Se1 1.714336 1_555
F9 Se0 1.714336 1_555
F10 Se2 1.714336 1_555
F11 Se3 1.714336 1_555
F12 Se0 1.714336 1_555
F13 Se1 1.714336 1_555
F14 Tc0 1.936527 1_556
F14 Se3 2.277171 1_555
F15 Tc0 1.936527 1_555
F15 Se2 2.277171 1_555
F16 Tc1 1.936527 1_555
F16 Se1 2.277171 1_555
F17 Tc1 1.936527 1_565
F17 Se0 2.277171 1_555
F18 Se1 1.718774 1_555
F19 Se0 1.718774 1_555
F20 Se3 1.718774 1_545
F21 Se2 1.718774 1_565
F22 Tc1 1.941586 1_565
F22 Se3 2.296465 1_655
F23 Tc1 1.941586 1_555
F23 Se2 2.296465 1_655
