# generated using pymatgen
data_CsK3(MnN2)4
_symmetry_space_group_name_H-M   'P 1'
_cell_length_a   6.68268489
_cell_length_b   6.68268459
_cell_length_c   7.80974355
_cell_angle_alpha   87.56547276
_cell_angle_beta   92.43452943
_cell_angle_gamma   129.75611698
_symmetry_Int_Tables_number   1
_chemical_formula_structural   CsK3(MnN2)4
_chemical_formula_sum   'Cs1 K3 Mn4 N8'
_cell_volume   267.82966199
_cell_formula_units_Z   1
loop_
 _symmetry_equiv_pos_site_id
 _symmetry_equiv_pos_as_xyz
  1  'x, y, z'
loop_
 _atom_site_type_symbol
 _atom_site_label
 _atom_site_symmetry_multiplicity
 _atom_site_fract_x
 _atom_site_fract_y
 _atom_site_fract_z
 _atom_site_occupancy
  Cs  Cs0  1  0.32482834  0.67517166  0.92647822  1
  K  K0  1  0.84637088  0.15362912  0.54699743  1
  K  K1  1  0.15633452  0.84366548  0.44973793  1
  K  K2  1  0.65426133  0.34573867  0.06614749  1
  Mn  Mn0  1  0.54285629  0.45714371  0.63861843  1
  Mn  Mn1  1  0.46329703  0.53670297  0.36164631  1
  Mn  Mn2  1  0.96044912  0.03955088  0.13479997  1
  Mn  Mn3  1  0.04015588  0.95984412  0.86819968  1
  N  N0  1  0.90151281  0.09848719  0.91817358  1
  N  N1  1  0.09863738  0.90136262  0.08593708  1
  N  N2  1  0.60280589  0.39719411  0.43002501  1
  N  N3  1  0.40343182  0.59656818  0.56597458  1
  N  N4  1  0.32483007  0.17493817  0.75627941  1
  N  N5  1  0.17688244  0.32171664  0.24735274  1
  N  N6  1  0.67828336  0.82311756  0.24735274  1
  N  N7  1  0.82506183  0.67516993  0.75627941  1
loop_
_geom_bond_atom_site_label_1
_geom_bond_atom_site_label_2
_geom_bond_distance
_geom_bond_site_symmetry_2
Cs0 N0 2.986663 1_455
Cs0 N0 2.986663 1_565
Cs0 N3 3.013760 1_555
Cs0 N1 3.059857 1_556
Cs0 N6 3.091461 1_556
Cs0 N5 3.091461 1_556
K0 N3 2.922043 1_545
K0 N3 2.922043 1_655
K0 N6 2.942605 1_545
K0 N5 2.942605 1_655
K0 N0 2.943934 1_555
K0 N2 3.044513 1_555
K1 N1 2.893737 1_555
K1 N2 2.912579 1_565
K1 N2 2.912579 1_455
K1 N4 2.988807 1_565
K1 N7 2.988807 1_455
K1 N3 3.083884 1_555
K2 N1 2.921628 1_655
K2 N1 2.921628 1_545
K2 N4 2.928104 1_554
K2 N7 2.928104 1_554
K2 N2 2.937604 1_555
K2 N0 3.257618 1_554
Mn0 N7 1.725066 1_555
Mn0 N4 1.725066 1_555
Mn0 N3 1.754609 1_555
Mn0 N2 1.814116 1_555
Mn1 N5 1.723633 1_555
Mn1 N6 1.723633 1_555
Mn1 N2 1.746607 1_555
Mn1 N3 1.783171 1_555
Mn2 N5 1.721823 1_655
Mn2 N6 1.721823 1_545
Mn2 N1 1.732584 1_645
Mn2 N0 1.804884 1_554
Mn3 N7 1.728061 1_455
Mn3 N4 1.728061 1_565
Mn3 N0 1.740272 1_465
Mn3 N1 1.810944 1_556
