# generated using pymatgen
data_Cs5Rb(SiSe3)2
_symmetry_space_group_name_H-M   'P 1'
_cell_length_a   8.20891351
_cell_length_b   8.51609706
_cell_length_c   8.94985264
_cell_angle_alpha   75.16780504
_cell_angle_beta   75.79278298
_cell_angle_gamma   109.59555469
_symmetry_Int_Tables_number   1
_chemical_formula_structural   Cs5Rb(SiSe3)2
_chemical_formula_sum   'Cs5 Rb1 Si2 Se6'
_cell_volume   530.75220639
_cell_formula_units_Z   1
loop_
 _symmetry_equiv_pos_site_id
 _symmetry_equiv_pos_as_xyz
  1  'x, y, z'
loop_
 _atom_site_type_symbol
 _atom_site_label
 _atom_site_symmetry_multiplicity
 _atom_site_fract_x
 _atom_site_fract_y
 _atom_site_fract_z
 _atom_site_occupancy
  Cs  Cs0  1  0.23027941  0.22231425  0.31627336  1
  Cs  Cs1  1  0.00000000  0.50000000  0.00000000  1
  Cs  Cs2  1  0.67400697  0.33275366  0.49776264  1
  Cs  Cs3  1  0.32599303  0.66724634  0.50223736  1
  Cs  Cs4  1  0.76972059  0.77768575  0.68372664  1
  Rb  Rb0  1  0.50000000  0.00000000  0.00000000  1
  Si  Si0  1  0.10683559  0.10317890  0.86109397  1
  Si  Si1  1  0.89316441  0.89682110  0.13890603  1
  Se  Se0  1  0.65255249  0.66610145  0.13151960  1
  Se  Se1  1  0.34744751  0.33389855  0.86848040  1
  Se  Se2  1  0.76981928  0.04711747  0.27858395  1
  Se  Se3  1  0.94838127  0.22096574  0.72197886  1
  Se  Se4  1  0.23018072  0.95288253  0.72141605  1
  Se  Se5  1  0.05161873  0.77903426  0.27802114  1
loop_
_geom_bond_atom_site_label_1
_geom_bond_atom_site_label_2
_geom_bond_distance
_geom_bond_site_symmetry_2
Cs0 Se1 3.665331 1_554
Cs0 Se5 3.703160 1_545
Cs0 Se2 3.705137 1_455
Cs0 Se4 3.761669 1_545
Cs0 Se0 3.772681 1_555
Cs0 Se3 3.791530 1_455
Cs1 Se4 3.540869 1_554
Cs1 Se2 3.540869 1_455
Cs1 Se1 3.664966 1_554
Cs1 Se0 3.664966 1_455
Cs1 Se5 3.858369 1_555
Cs1 Se3 3.858369 1_454
Cs2 Se3 3.561571 1_555
Cs2 Se4 3.597943 1_545
Cs2 Se5 3.633105 1_655
Cs2 Se2 3.654119 1_555
Cs2 Se1 3.723276 1_555
Cs2 Se0 3.832588 1_555
Cs3 Se5 3.561571 1_555
Cs3 Se2 3.597943 1_565
Cs3 Se3 3.633105 1_455
Cs3 Se4 3.654119 1_555
Cs3 Se0 3.723276 1_555
Cs3 Se1 3.832588 1_555
Cs4 Se0 3.665331 1_556
Cs4 Se3 3.703160 1_565
Cs4 Se4 3.705137 1_655
Cs4 Se2 3.761669 1_565
Cs4 Se1 3.772681 1_555
Cs4 Se5 3.791530 1_655
Rb0 Se5 3.426589 1_545
Rb0 Se3 3.426589 1_554
Rb0 Se1 3.526719 1_554
Rb0 Se0 3.526719 1_545
Rb0 Se2 3.729634 1_555
Rb0 Se4 3.729634 1_544
Se0 Si1 2.300799 1_555
Se1 Si0 2.300799 1_555
Se2 Si1 2.300731 1_545
Se3 Si0 2.297602 1_655
Se4 Si0 2.300731 1_565
Se5 Si1 2.297602 1_455
