# generated using pymatgen
data_HfMgCl6
_symmetry_space_group_name_H-M   'P 1'
_cell_length_a   6.35983964
_cell_length_b   6.35984005
_cell_length_c   12.22436972
_cell_angle_alpha   90.00000000
_cell_angle_beta   90.00000000
_cell_angle_gamma   120.00000281
_symmetry_Int_Tables_number   1
_chemical_formula_structural   HfMgCl6
_chemical_formula_sum   'Hf2 Mg2 Cl12'
_cell_volume   428.20275185
_cell_formula_units_Z   2
loop_
 _symmetry_equiv_pos_site_id
 _symmetry_equiv_pos_as_xyz
  1  'x, y, z'
loop_
 _atom_site_type_symbol
 _atom_site_label
 _atom_site_symmetry_multiplicity
 _atom_site_fract_x
 _atom_site_fract_y
 _atom_site_fract_z
 _atom_site_occupancy
  Hf  Hf0  1  0.33333300  0.66666700  0.25000000  1
  Hf  Hf1  1  0.66666700  0.33333300  0.75000000  1
  Mg  Mg0  1  0.00000000  0.00000000  0.25000000  1
  Mg  Mg1  1  0.00000000  0.00000000  0.75000000  1
  Cl  Cl0  1  0.66039653  0.96919020  0.13475704  1
  Cl  Cl1  1  0.03080980  0.69120732  0.13475704  1
  Cl  Cl2  1  0.30879268  0.33960347  0.13475704  1
  Cl  Cl3  1  0.03080980  0.33960347  0.36524296  1
  Cl  Cl4  1  0.33960347  0.30879268  0.63475704  1
  Cl  Cl5  1  0.69120732  0.03080980  0.63475704  1
  Cl  Cl6  1  0.96919020  0.66039653  0.63475704  1
  Cl  Cl7  1  0.69120732  0.66039653  0.86524296  1
  Cl  Cl8  1  0.96919020  0.30879268  0.86524296  1
  Cl  Cl9  1  0.33960347  0.03080980  0.86524296  1
  Cl  Cl10  1  0.66039653  0.69120732  0.36524296  1
  Cl  Cl11  1  0.30879268  0.96919020  0.36524296  1
loop_
_geom_bond_atom_site_label_1
_geom_bond_atom_site_label_2
_geom_bond_distance
_geom_bond_site_symmetry_2
Cl0 Hf0 2.451745 1_555
Cl0 Mg0 2.502931 1_665
Cl1 Hf0 2.451745 1_555
Cl1 Mg0 2.502926 1_565
Cl2 Hf0 2.451745 1_555
Cl2 Mg0 2.502929 1_555
Cl3 Hf0 2.451745 1_555
Cl3 Mg0 2.502931 1_555
Cl4 Hf1 2.451745 1_555
Cl4 Mg1 2.502929 1_555
Cl5 Hf1 2.451745 1_555
Cl5 Mg1 2.502926 1_655
Cl6 Hf1 2.451745 1_555
Cl6 Mg1 2.502931 1_665
Cl7 Hf1 2.451745 1_555
Cl7 Mg1 2.502929 1_665
Cl8 Hf1 2.451745 1_555
Cl8 Mg1 2.502926 1_655
Cl9 Hf1 2.451745 1_555
Cl9 Mg1 2.502931 1_555
Cl10 Hf0 2.451745 1_555
Cl10 Mg0 2.502929 1_665
Cl11 Hf0 2.451745 1_555
Cl11 Mg0 2.502926 1_565
