# generated using pymatgen
data_Si6As3PPt2
_symmetry_space_group_name_H-M   'P 1'
_cell_length_a   4.93367007
_cell_length_b   5.61970845
_cell_length_c   8.29989042
_cell_angle_alpha   92.05269368
_cell_angle_beta   93.28300947
_cell_angle_gamma   107.87481314
_symmetry_Int_Tables_number   1
_chemical_formula_structural   Si6As3PPt2
_chemical_formula_sum   'Si6 As3 P1 Pt2'
_cell_volume   218.30795427
_cell_formula_units_Z   1
loop_
 _symmetry_equiv_pos_site_id
 _symmetry_equiv_pos_as_xyz
  1  'x, y, z'
loop_
 _atom_site_type_symbol
 _atom_site_label
 _atom_site_symmetry_multiplicity
 _atom_site_fract_x
 _atom_site_fract_y
 _atom_site_fract_z
 _atom_site_occupancy
  Si  Si0  1  0.68104891  0.60683168  0.07332566  1
  Si  Si1  1  0.17616977  0.76472993  0.80379119  1
  Si  Si2  1  0.66653825  0.96070290  0.75710964  1
  Si  Si3  1  0.57693095  0.32903964  0.67040578  1
  Si  Si4  1  0.35248787  0.02995985  0.22319349  1
  Si  Si5  1  0.03969991  0.45240435  0.39698855  1
  As  As0  1  0.19166137  0.11804385  0.47848061  1
  As  As1  1  0.29344578  0.39712501  0.88489005  1
  As  As2  1  0.49338786  0.69384973  0.31853753  1
  P  P0  1  0.79452145  0.27031933  0.16288156  1
  Pt  Pt0  1  0.85189653  0.70993876  0.56690146  1
  Pt  Pt1  1  0.99441135  0.99276498  0.00116450  1
loop_
_geom_bond_atom_site_label_1
_geom_bond_atom_site_label_2
_geom_bond_distance
_geom_bond_site_symmetry_2
Si1 Si2 2.391318 1_555
Si2 Si3 2.372767 1_565
As0 Si5 2.334097 1_555
As0 Si3 2.385541 1_555
As0 Si4 2.392217 1_555
As0 Pt0 2.551433 1_445
As1 Si0 2.373559 1_556
As1 Si3 2.415891 1_555
As1 Si1 2.417497 1_555
As1 Pt1 2.556138 1_446
As2 Si4 2.351021 1_565
As2 Si5 2.375087 1_555
As2 Si0 2.379282 1_555
As2 Pt0 2.618569 1_555
P0 Si5 2.261480 1_655
P0 Si0 2.268289 1_555
P0 Si4 2.279548 1_555
P0 Pt1 2.480520 1_545
Pt0 Si3 2.375475 1_555
Pt0 Si5 2.401786 1_655
Pt0 Si1 2.411240 1_655
Pt0 Si2 2.472171 1_555
Pt1 Si0 2.365056 1_555
Pt1 Si1 2.419356 1_654
Pt1 Si4 2.435875 1_665
Pt1 Si2 2.484342 1_554
