# generated using pymatgen
data_CaY(Si2Rh3)2
_symmetry_space_group_name_H-M   'P 1'
_cell_length_a   6.59212502
_cell_length_b   6.59212432
_cell_length_c   6.59212470
_cell_angle_alpha   130.17972043
_cell_angle_beta   114.86875429
_cell_angle_gamma   86.23132214
_symmetry_Int_Tables_number   1
_chemical_formula_structural   CaY(Si2Rh3)2
_chemical_formula_sum   'Ca1 Y1 Si4 Rh6'
_cell_volume   189.63801590
_cell_formula_units_Z   1
loop_
 _symmetry_equiv_pos_site_id
 _symmetry_equiv_pos_as_xyz
  1  'x, y, z'
loop_
 _atom_site_type_symbol
 _atom_site_label
 _atom_site_symmetry_multiplicity
 _atom_site_fract_x
 _atom_site_fract_y
 _atom_site_fract_z
 _atom_site_occupancy
  Ca  Ca0  1  0.25000000  0.53587416  0.28587416  1
  Y  Y0  1  0.75000000  0.46293533  0.71293533  1
  Si  Si0  1  0.08709284  0.88589478  0.79880195  1
  Si  Si1  1  0.93000229  0.12286538  0.19286309  1
  Si  Si2  1  0.56999771  0.76286179  0.19286309  1
  Si  Si3  1  0.41290716  0.21170911  0.79880195  1
  Rh  Rh0  1  0.71761387  0.00598563  0.71899329  1
  Rh  Rh1  1  0.21300766  0.50137942  0.71899329  1
  Rh  Rh2  1  0.28699234  0.00598563  0.28837176  1
  Rh  Rh3  1  0.78238613  0.50137942  0.28837176  1
  Rh  Rh4  1  0.98365776  0.00156467  0.48522242  1
  Rh  Rh5  1  0.51634224  0.00156467  0.01790691  1
loop_
_geom_bond_atom_site_label_1
_geom_bond_atom_site_label_2
_geom_bond_distance
_geom_bond_site_symmetry_2
Ca0 Rh2 3.113499 1_565
Ca0 Rh1 3.113499 1_555
Ca0 Rh0 3.113499 1_565
Ca0 Rh3 3.113499 1_455
Ca0 Si1 3.122727 1_455
Ca0 Si2 3.122731 1_555
Ca0 Si0 3.126344 1_544
Ca0 Si3 3.126344 1_554
Ca0 Rh4 3.203164 1_465
Ca0 Rh5 3.203164 1_566
Ca0 Si3 3.251361 1_565
Ca0 Si0 3.251361 1_555
Ca0 Rh2 3.495752 1_555
Ca0 Rh1 3.495752 1_554
Ca0 Rh0 3.495752 1_454
Ca0 Rh3 3.495752 1_555
Ca0 Rh5 3.517997 1_555
Ca0 Rh4 3.517997 1_454
Ca0 Y0 3.571354 1_555
Ca0 Y0 3.571355 1_454
Si0 Y0 3.279096 1_455
Si1 Y0 3.178672 1_544
Si1 Y0 3.367776 1_555
Si2 Y0 3.178672 1_554
Si2 Y0 3.367771 1_565
Si3 Y0 3.279096 1_555
Rh0 Si1 2.381089 1_556
Rh0 Si2 2.395488 1_545
Rh0 Si3 2.400158 1_555
Rh0 Si0 2.458066 1_645
Rh0 Y0 3.060699 1_555
Rh0 Y0 3.547501 1_545
Rh1 Si2 2.381088 1_556
Rh1 Si1 2.395487 1_455
Rh1 Si0 2.400157 1_555
Rh1 Si3 2.458066 1_555
Rh1 Y0 3.060699 1_455
Rh1 Y0 3.547502 1_555
Rh2 Si1 2.381089 1_455
Rh2 Si2 2.395484 1_545
Rh2 Si3 2.400158 1_555
Rh2 Si0 2.458066 1_544
Rh2 Y0 3.060699 1_555
Rh2 Y0 3.547502 1_444
Rh3 Si2 2.381094 1_555
Rh3 Si1 2.395487 1_555
Rh3 Si0 2.400158 1_655
Rh3 Si3 2.458066 1_554
Rh3 Y0 3.060699 1_555
Rh3 Y0 3.547501 1_554
Rh4 Si2 2.420112 1_545
Rh4 Si1 2.420113 1_555
Rh4 Si0 2.469727 1_645
Rh4 Si3 2.469727 1_655
Rh4 Y0 3.051841 1_555
Rh4 Y0 3.419971 1_544
Rh5 Si2 2.420107 1_545
Rh5 Si1 2.420113 1_555
Rh5 Si3 2.469726 1_554
Rh5 Si0 2.469727 1_544
Rh5 Y0 3.051841 1_555
Rh5 Y0 3.419971 1_544
