# generated using pymatgen
data_RbFe2S3
_symmetry_space_group_name_H-M   'P 1'
_cell_length_a   7.35504042
_cell_length_b   7.35494672
_cell_length_c   5.48385436
_cell_angle_alpha   90.00087542
_cell_angle_beta   89.99847173
_cell_angle_gamma   102.32249824
_symmetry_Int_Tables_number   1
_chemical_formula_structural   RbFe2S3
_chemical_formula_sum   'Rb2 Fe4 S6'
_cell_volume   289.81983906
_cell_formula_units_Z   2
loop_
 _symmetry_equiv_pos_site_id
 _symmetry_equiv_pos_as_xyz
  1  'x, y, z'
loop_
 _atom_site_type_symbol
 _atom_site_label
 _atom_site_symmetry_multiplicity
 _atom_site_fract_x
 _atom_site_fract_y
 _atom_site_fract_z
 _atom_site_occupancy
  Rb  Rb0  1  0.67239922  0.32759276  0.25000485  1
  Rb  Rb1  1  0.32759490  0.67240004  0.74999666  1
  Fe  Fe0  1  0.14483964  0.14484264  -0.00000361  1
  Fe  Fe1  1  0.85517596  0.85517177  0.00000339  1
  Fe  Fe2  1  0.85516353  0.85515758  0.49999760  1
  Fe  Fe3  1  0.14482799  0.14483363  0.49999898  1
  S  S0  1  0.83548864  0.61680207  0.74999798  1
  S  S1  1  0.16451444  0.38320038  0.25001147  1
  S  S2  1  0.61680116  0.83545659  0.25001497  1
  S  S3  1  0.38319907  0.16455185  0.74998266  1
  S  S4  1  0.88670172  0.11328559  0.75000203  1
  S  S5  1  0.11329372  0.88670511  0.24999303  1
loop_
_geom_bond_atom_site_label_1
_geom_bond_atom_site_label_2
_geom_bond_distance
_geom_bond_site_symmetry_2
Rb0 S3 3.520088 1_555
Rb0 S0 3.520283 1_555
Rb0 S3 3.520337 1_554
Rb0 S0 3.520342 1_554
Rb0 S1 3.554771 1_655
Rb0 S2 3.554885 1_545
Rb0 S4 3.680652 1_554
Rb0 S4 3.680727 1_555
Rb0 S2 3.843402 1_555
Rb0 S1 3.843623 1_555
Rb1 S2 3.520153 1_555
Rb1 S1 3.520197 1_555
Rb1 S1 3.520325 1_556
Rb1 S2 3.520369 1_556
Rb1 S0 3.554713 1_455
Rb1 S3 3.554994 1_565
Rb1 S5 3.680612 1_556
Rb1 S5 3.680740 1_555
Rb1 S3 3.843301 1_555
Rb1 S0 3.843666 1_555
Fe0 S3 2.205828 1_554
Fe0 S1 2.205845 1_555
Fe0 S5 2.313007 1_545
Fe0 S4 2.313029 1_454
Fe1 S0 2.205871 1_554
Fe1 S2 2.205905 1_555
Fe1 S4 2.312894 1_564
Fe1 S5 2.312908 1_655
Fe2 S2 2.205801 1_555
Fe2 S0 2.205811 1_555
Fe2 S4 2.312953 1_565
Fe2 S5 2.312966 1_655
Fe3 S1 2.205823 1_555
Fe3 S3 2.205841 1_555
Fe3 S4 2.312938 1_455
Fe3 S5 2.312963 1_545
