# generated using pymatgen
data_Zr10In3Bi3B2
_symmetry_space_group_name_H-M   'P 1'
_cell_length_a   8.63743291
_cell_length_b   8.63743282
_cell_length_c   5.87919440
_cell_angle_alpha   90.00000000
_cell_angle_beta   90.00000000
_cell_angle_gamma   120.00000412
_symmetry_Int_Tables_number   1
_chemical_formula_structural   Zr10In3Bi3B2
_chemical_formula_sum   'Zr10 In3 Bi3 B2'
_cell_volume   379.85496216
_cell_formula_units_Z   1
loop_
 _symmetry_equiv_pos_site_id
 _symmetry_equiv_pos_as_xyz
  1  'x, y, z'
loop_
 _atom_site_type_symbol
 _atom_site_label
 _atom_site_symmetry_multiplicity
 _atom_site_fract_x
 _atom_site_fract_y
 _atom_site_fract_z
 _atom_site_occupancy
  Zr  Zr0  1  0.66666700  0.33333300  0.00590042  1
  Zr  Zr1  1  0.33333300  0.66666700  0.00590042  1
  Zr  Zr2  1  0.33333300  0.66666700  0.49409958  1
  Zr  Zr3  1  0.66666700  0.33333300  0.49409958  1
  Zr  Zr4  1  0.77863811  0.77863811  0.75000000  1
  Zr  Zr5  1  0.22136189  1.00000000  0.75000000  1
  Zr  Zr6  1  1.00000000  0.22136189  0.75000000  1
  Zr  Zr7  1  0.22805400  0.22805400  0.25000000  1
  Zr  Zr8  1  0.77194600  1.00000000  0.25000000  1
  Zr  Zr9  1  1.00000000  0.77194600  0.25000000  1
  In  In0  1  0.60421544  0.60421544  0.25000000  1
  In  In1  1  0.39578456  1.00000000  0.25000000  1
  In  In2  1  1.00000000  0.39578456  0.25000000  1
  Bi  Bi0  1  0.40234841  0.40234841  0.75000000  1
  Bi  Bi1  1  0.59765159  1.00000000  0.75000000  1
  Bi  Bi2  1  1.00000000  0.59765159  0.75000000  1
  B  B0  1  0.00000000  0.00000000  0.00486642  1
  B  B1  1  0.00000000  0.00000000  0.49513358  1
loop_
_geom_bond_atom_site_label_1
_geom_bond_atom_site_label_2
_geom_bond_distance
_geom_bond_site_symmetry_2
In0 Zr8 2.972002 1_555
In0 Zr9 2.972002 1_555
In0 Zr3 3.014456 1_555
In0 Zr0 3.014456 1_555
In0 Zr2 3.014456 1_555
In0 Zr1 3.014456 1_555
In0 Zr7 3.249069 1_555
In0 Zr4 3.303175 1_555
In0 Zr4 3.303175 1_554
In1 Zr9 2.972002 1_455
In1 Zr7 2.972002 1_565
In1 Zr2 3.014448 1_555
In1 Zr1 3.014448 1_555
In1 Zr3 3.014451 1_565
In1 Zr0 3.014451 1_565
In1 Zr8 3.249069 1_555
In1 Zr5 3.303175 1_554
In1 Zr5 3.303175 1_555
In2 Zr8 2.972002 1_545
In2 Zr7 2.972002 1_655
In2 Zr3 3.014448 1_555
In2 Zr0 3.014448 1_555
In2 Zr2 3.014451 1_655
In2 Zr1 3.014451 1_655
In2 Zr9 3.249069 1_555
In2 Zr6 3.303175 1_554
In2 Zr6 3.303175 1_555
Bi0 Zr5 3.014708 1_545
Bi0 Zr6 3.014708 1_455
Bi0 Zr1 3.031837 1_556
Bi0 Zr2 3.031837 1_555
Bi0 Zr0 3.031837 1_556
Bi0 Zr3 3.031837 1_555
Bi0 Zr4 3.250177 1_555
Bi0 Zr7 3.302670 1_555
Bi0 Zr7 3.302670 1_556
Bi0 In0 3.417809 1_556
Bi0 In0 3.417809 1_555
Bi1 Zr6 3.014708 1_565
Bi1 Zr4 3.014708 1_555
Bi1 Zr0 3.031830 1_566
Bi1 Zr3 3.031830 1_565
Bi1 Zr1 3.031832 1_556
Bi1 Zr2 3.031832 1_555
Bi1 Zr5 3.250177 1_555
Bi1 Zr8 3.302670 1_555
Bi1 Zr8 3.302670 1_556
Bi1 In1 3.417809 1_555
Bi1 In1 3.417809 1_556
Bi2 Zr5 3.014708 1_655
Bi2 Zr4 3.014708 1_555
Bi2 Zr1 3.031830 1_656
Bi2 Zr2 3.031830 1_655
Bi2 Zr0 3.031832 1_556
Bi2 Zr3 3.031832 1_555
Bi2 Zr6 3.250177 1_555
Bi2 Zr9 3.302670 1_556
Bi2 Zr9 3.302670 1_555
Bi2 In2 3.417809 1_555
Bi2 In2 3.417809 1_556
B0 Zr4 2.429191 1_444
B0 Zr6 2.429191 1_454
B0 Zr5 2.429191 1_544
B0 Zr7 2.440725 1_555
B0 Zr9 2.440725 1_445
B0 Zr8 2.440725 1_445
B1 Zr4 2.429191 1_445
B1 Zr6 2.429191 1_455
B1 Zr5 2.429191 1_545
B1 Zr7 2.440725 1_555
B1 Zr9 2.440725 1_445
B1 Zr8 2.440725 1_445
