# generated using pymatgen
data_Cr2HPd6
_symmetry_space_group_name_H-M   'P 1'
_cell_length_a   5.55448815
_cell_length_b   5.55448712
_cell_length_c   5.55448841
_cell_angle_alpha   59.99999819
_cell_angle_beta   60.00000432
_cell_angle_gamma   60.00000354
_symmetry_Int_Tables_number   1
_chemical_formula_structural   Cr2HPd6
_chemical_formula_sum   'Cr2 H1 Pd6'
_cell_volume   121.17613472
_cell_formula_units_Z   1
loop_
 _symmetry_equiv_pos_site_id
 _symmetry_equiv_pos_as_xyz
  1  'x, y, z'
loop_
 _atom_site_type_symbol
 _atom_site_label
 _atom_site_symmetry_multiplicity
 _atom_site_fract_x
 _atom_site_fract_y
 _atom_site_fract_z
 _atom_site_occupancy
  Cr  Cr0  1  0.25000000  0.25000000  0.25000000  1
  Cr  Cr1  1  0.75000000  0.75000000  0.75000000  1
  H  H0  1  0.50000000  0.50000000  0.50000000  1
  Pd  Pd0  1  0.75191356  0.24808644  0.24808644  1
  Pd  Pd1  1  0.24808644  0.75191356  0.24808644  1
  Pd  Pd2  1  0.75191356  0.75191356  0.24808644  1
  Pd  Pd3  1  0.24808644  0.24808644  0.75191356  1
  Pd  Pd4  1  0.75191356  0.24808644  0.75191356  1
  Pd  Pd5  1  0.24808644  0.75191356  0.75191356  1
loop_
_geom_bond_atom_site_label_1
_geom_bond_atom_site_label_2
_geom_bond_distance
_geom_bond_site_symmetry_2
Cr0 Pd1 2.777284 1_555
Cr0 Pd1 2.777284 1_545
Cr0 Pd5 2.777284 1_554
Cr0 Pd5 2.777284 1_545
Cr0 Pd2 2.777285 1_455
Cr0 Pd2 2.777285 1_545
Cr0 Pd0 2.777285 1_455
Cr0 Pd0 2.777285 1_555
Cr0 Pd3 2.777285 1_554
Cr0 Pd3 2.777285 1_555
Cr0 Pd4 2.777285 1_455
Cr0 Pd4 2.777285 1_554
Cr1 Pd4 2.777284 1_555
Cr1 Pd4 2.777284 1_565
Cr1 Pd0 2.777284 1_556
Cr1 Pd0 2.777284 1_565
Cr1 Pd3 2.777285 1_655
Cr1 Pd3 2.777285 1_565
Cr1 Pd5 2.777285 1_655
Cr1 Pd5 2.777285 1_555
Cr1 Pd2 2.777285 1_556
Cr1 Pd2 2.777285 1_555
Cr1 Pd1 2.777285 1_655
Cr1 Pd1 2.777285 1_556
H0 Pd2 1.978839 1_555
H0 Pd3 1.978839 1_555
H0 Pd5 1.978840 1_555
H0 Pd0 1.978840 1_555
H0 Pd1 1.978840 1_555
H0 Pd4 1.978840 1_555
