# generated using pymatgen
data_Na3TaMn2O6
_symmetry_space_group_name_H-M   'P 1'
_cell_length_a   5.45189137
_cell_length_b   5.67330479
_cell_length_c   5.45188980
_cell_angle_alpha   80.62696509
_cell_angle_beta   119.87223192
_cell_angle_gamma   80.62683850
_symmetry_Int_Tables_number   1
_chemical_formula_structural   Na3TaMn2O6
_chemical_formula_sum   'Na3 Ta1 Mn2 O6'
_cell_volume   138.28118779
_cell_formula_units_Z   1
loop_
 _symmetry_equiv_pos_site_id
 _symmetry_equiv_pos_as_xyz
  1  'x, y, z'
loop_
 _atom_site_type_symbol
 _atom_site_label
 _atom_site_symmetry_multiplicity
 _atom_site_fract_x
 _atom_site_fract_y
 _atom_site_fract_z
 _atom_site_occupancy
  Na  Na0  1  0.50000117  0.50000049  0.49999948  1
  Na  Na1  1  0.82703103  0.50000064  0.17296966  1
  Na  Na2  1  0.17296971  0.49999923  0.82703092  1
  Ta  Ta0  1  0.99999958  0.99999943  0.00000027  1
  Mn  Mn0  1  0.33368847  0.00000395  0.66630737  1
  Mn  Mn1  1  0.66631209  0.99999750  0.33369162  1
  O  O0  1  0.23612932  0.20808639  0.23612940  1
  O  O1  1  0.76386999  0.79191298  0.76387043  1
  O  O2  1  0.37687143  0.78878706  0.06987132  1
  O  O3  1  0.06987173  0.78878624  0.37687110  1
  O  O4  1  0.93012749  0.21121283  0.62312832  1
  O  O5  1  0.62312800  0.21121327  0.93012808  1
loop_
_geom_bond_atom_site_label_1
_geom_bond_atom_site_label_2
_geom_bond_distance
_geom_bond_site_symmetry_2
Na0 O4 2.335847 1_555
Na0 O2 2.335852 1_555
Na0 O3 2.335856 1_555
Na0 O5 2.335861 1_555
Na0 O1 2.524340 1_555
Na0 O0 2.524352 1_555
Na1 O3 2.346602 1_655
Na1 O5 2.346615 1_554
Na1 O1 2.383664 1_554
Na1 O0 2.383666 1_655
Na1 O2 2.457555 1_555
Na1 O4 2.457561 1_555
Na2 O4 2.346611 1_455
Na2 O2 2.346612 1_556
Na2 O0 2.383666 1_556
Na2 O1 2.383669 1_455
Na2 O5 2.457551 1_555
Na2 O3 2.457561 1_555
Mn0 O0 2.197257 1_555
Mn0 O1 2.197280 1_545
Mn0 O4 2.205771 1_455
Mn0 O2 2.205793 1_546
Mn0 O5 2.216084 1_555
Mn0 O3 2.216104 1_545
Mn1 O1 2.197268 1_555
Mn1 O0 2.197284 1_565
Mn1 O3 2.205769 1_655
Mn1 O5 2.205786 1_564
Mn1 O2 2.216091 1_555
Mn1 O4 2.216092 1_565
O0 Ta0 2.011818 1_445
O1 Ta0 2.011817 1_556
O2 Ta0 2.017998 1_455
O3 Ta0 2.017995 1_455
O4 Ta0 2.018000 1_546
O5 Ta0 2.017998 1_546
