# generated using pymatgen
data_Sc5Al16GaIr7
_symmetry_space_group_name_H-M   'P 1'
_cell_length_a   8.62332836
_cell_length_b   8.72095848
_cell_length_c   8.72095918
_cell_angle_alpha   59.26072949
_cell_angle_beta   60.36963982
_cell_angle_gamma   60.36964593
_symmetry_Int_Tables_number   1
_chemical_formula_structural   Sc5Al16GaIr7
_chemical_formula_sum   'Sc5 Al16 Ga1 Ir7'
_cell_volume   463.63987549
_cell_formula_units_Z   1
loop_
 _symmetry_equiv_pos_site_id
 _symmetry_equiv_pos_as_xyz
  1  'x, y, z'
loop_
 _atom_site_type_symbol
 _atom_site_label
 _atom_site_symmetry_multiplicity
 _atom_site_fract_x
 _atom_site_fract_y
 _atom_site_fract_z
 _atom_site_occupancy
  Sc  Sc0  1  0.79325399  0.20674601  0.20674601  1
  Sc  Sc1  1  0.77728161  0.22271839  0.77173480  1
  Sc  Sc2  1  0.77728161  0.77173480  0.22271839  1
  Sc  Sc3  1  0.22826520  0.77173480  0.22271839  1
  Sc  Sc4  1  0.22826520  0.22271839  0.77173480  1
  Al  Al0  1  0.88404147  0.83824936  0.83824936  1
  Al  Al1  1  0.84950686  0.82313439  0.47785390  1
  Al  Al2  1  0.43946080  0.83824936  0.83824936  1
  Al  Al3  1  0.84950686  0.47785390  0.82313439  1
  Al  Al4  1  0.17686561  0.15049314  0.15049314  1
  Al  Al5  1  0.16175064  0.11595853  0.56053920  1
  Al  Al6  1  0.16175064  0.56053920  0.11595853  1
  Al  Al7  1  0.52214610  0.15049314  0.15049314  1
  Al  Al8  1  0.60797993  0.62247072  0.62247072  1
  Al  Al9  1  0.63260619  0.61887143  0.11591520  1
  Al  Al10  1  0.14707864  0.62247072  0.62247072  1
  Al  Al11  1  0.63260619  0.11591520  0.61887143  1
  Al  Al12  1  0.38112857  0.36739381  0.36739381  1
  Al  Al13  1  0.37752928  0.39202007  0.85292136  1
  Al  Al14  1  0.37752928  0.85292136  0.39202007  1
  Al  Al15  1  0.88408480  0.36739381  0.36739381  1
  Ga  Ga0  1  0.03315218  0.96684782  0.96684782  1
  Ir  Ir0  1  0.51249017  0.48750983  0.48750983  1
  Ir  Ir1  1  0.01059133  0.48940867  0.48940867  1
  Ir  Ir2  1  0.51059133  0.98940867  0.98940867  1
  Ir  Ir3  1  0.51576929  0.99414253  0.48423071  1
  Ir  Ir4  1  0.51576929  0.48423071  0.99414253  1
  Ir  Ir5  1  0.00585747  0.48423071  0.99414253  1
  Ir  Ir6  1  0.00585747  0.99414253  0.48423071  1
loop_
_geom_bond_atom_site_label_1
_geom_bond_atom_site_label_2
_geom_bond_distance
_geom_bond_site_symmetry_2
Al0 Ir6 2.529458 1_655
Al0 Ir5 2.529458 1_655
Al0 Ir2 2.688387 1_555
Al0 Al10 2.721411 1_655
Al0 Sc1 2.813146 1_565
Al0 Sc2 2.813146 1_556
Al0 Ga0 2.882100 1_655
Al0 Al9 2.898165 1_556
Al0 Al11 2.898166 1_565
Al1 Ir6 2.488412 1_655
Al1 Ir3 2.488427 1_555
Al1 Ir1 2.500249 1_655
Al1 Al10 2.782319 1_655
Al1 Al8 2.782333 1_555
Al1 Al11 2.782727 1_565
Al1 Sc3 2.864513 1_655
Al1 Sc2 2.864525 1_555
Al1 Sc0 2.908775 1_565
Al1 Al3 2.977467 1_555
Al2 Ir4 2.529459 1_555
Al2 Ir3 2.529459 1_555
Al2 Ir2 2.688381 1_555
Al2 Al8 2.721412 1_555
Al2 Sc3 2.813148 1_556
Al2 Sc4 2.813148 1_565
Al2 Ga0 2.882107 1_555
Al2 Al9 2.898154 1_556
Al3 Ir5 2.488412 1_655
Al3 Ir4 2.488427 1_555
Al3 Ir1 2.500249 1_655
Al3 Al8 2.782333 1_555
Al3 Al9 2.782727 1_556
Al3 Sc4 2.864513 1_655
Al3 Sc1 2.864524 1_555
Al3 Sc0 2.908775 1_556
Al4 Ir6 2.488423 1_545
Al4 Ir5 2.488423 1_554
Al4 Ir2 2.500244 1_544
Al4 Sc3 2.864508 1_545
Al4 Sc4 2.864508 1_554
Al4 Sc0 2.908770 1_455
Al4 Al7 2.977467 1_555
Al5 Ir6 2.529452 1_545
Al5 Ir3 2.529459 1_545
Al5 Ir1 2.688389 1_555
Al5 Sc1 2.813148 1_455
Al5 Sc4 2.813154 1_555
Al5 Ga0 2.882107 1_545
Al6 Ir5 2.529452 1_554
Al6 Ir4 2.529459 1_554
Al6 Ir1 2.688389 1_555
Al6 Sc2 2.813148 1_455
Al6 Sc3 2.813154 1_555
Al6 Ga0 2.882107 1_554
Al7 Ir4 2.488428 1_554
Al7 Ir3 2.488428 1_545
Al7 Ir2 2.500233 1_544
Al7 Sc1 2.864513 1_554
Al7 Sc2 2.864513 1_545
Al7 Sc0 2.908786 1_555
Al8 Ir0 2.604123 1_555
Al8 Ir3 2.645115 1_555
Al8 Ir4 2.645115 1_555
Al8 Ir1 2.855879 1_655
Al8 Sc2 2.861293 1_555
Al8 Sc1 2.861293 1_555
Al9 Ir2 2.628273 1_554
Al9 Ir0 2.635572 1_555
Al9 Ir4 2.650307 1_554
Al9 Ir5 2.650314 1_654
Al9 Sc3 2.874734 1_555
Al9 Sc2 2.874741 1_555
Al9 Sc0 2.952241 1_555
Al10 Ir0 2.604123 1_555
Al10 Ir6 2.645115 1_555
Al10 Ir5 2.645115 1_555
Al10 Al3 2.782318 1_455
Al10 Al14 2.810398 1_555
Al10 Al13 2.810398 1_555
Al10 Ir1 2.855879 1_555
Al10 Sc4 2.861293 1_555
Al10 Sc3 2.861293 1_555
Al11 Ir2 2.628273 1_545
Al11 Ir0 2.635572 1_555
Al11 Ir3 2.650307 1_545
Al11 Ir6 2.650314 1_645
Al11 Sc4 2.874734 1_555
Al11 Sc1 2.874741 1_555
Al11 Al2 2.898154 1_545
Al11 Sc0 2.952241 1_555
Al12 Ir1 2.628272 1_555
Al12 Ir0 2.635564 1_555
Al12 Ir3 2.650315 1_545
Al12 Ir4 2.650315 1_554
Al12 Al7 2.782748 1_555
Al12 Sc3 2.874735 1_555
Al12 Sc4 2.874735 1_555
Al12 Al5 2.898168 1_555
Al12 Al6 2.898168 1_555
Al12 Sc0 2.952242 1_555
Al13 Ir0 2.604123 1_555
Al13 Ir4 2.645114 1_555
Al13 Ir5 2.645115 1_555
Al13 Al6 2.721406 1_556
Al13 Al7 2.782320 1_556
Al13 Al4 2.782329 1_556
Al13 Al8 2.810398 1_555
Al13 Ir2 2.855879 1_545
Al13 Sc4 2.861292 1_555
Al13 Sc1 2.861293 1_555
Al14 Ir0 2.604123 1_555
Al14 Ir3 2.645114 1_555
Al14 Ir6 2.645115 1_555
Al14 Al5 2.721406 1_565
Al14 Al7 2.782319 1_565
Al14 Al4 2.782329 1_565
Al14 Al8 2.810398 1_555
Al14 Ir2 2.855879 1_554
Al14 Sc3 2.861292 1_555
Al14 Sc2 2.861293 1_555
Al15 Ir1 2.628265 1_655
Al15 Ir0 2.635572 1_555
Al15 Ir6 2.650315 1_645
Al15 Ir5 2.650315 1_654
Al15 Al4 2.782742 1_655
Al15 Sc2 2.874734 1_555
Al15 Sc1 2.874734 1_555
Al15 Al6 2.898155 1_655
Al15 Al5 2.898155 1_655
Al15 Sc0 2.952248 1_555
Ga0 Sc4 2.775893 1_565
Ga0 Sc2 2.775893 1_456
Ga0 Sc3 2.775894 1_556
Ga0 Sc1 2.775894 1_465
Ga0 Sc0 2.991492 1_466
Ir1 Sc3 3.064973 1_555
Ir1 Sc1 3.064973 1_455
Ir1 Sc4 3.064973 1_555
Ir1 Sc2 3.064973 1_455
Ir2 Sc1 3.064973 1_565
Ir2 Sc3 3.064973 1_556
Ir2 Sc2 3.064973 1_556
Ir2 Sc4 3.064973 1_565
Ir3 Sc0 3.015624 1_565
Ir4 Sc0 3.015625 1_556
Ir5 Sc0 3.015624 1_456
Ir6 Sc0 3.015625 1_465
