# generated using pymatgen
data_Na4Si12(As3P)3
_symmetry_space_group_name_H-M   'P 1'
_cell_length_a   3.61247877
_cell_length_b   10.07867041
_cell_length_c   17.86049256
_cell_angle_alpha   89.57212144
_cell_angle_beta   90.00000000
_cell_angle_gamma   90.00000000
_symmetry_Int_Tables_number   1
_chemical_formula_structural   Na4Si12(As3P)3
_chemical_formula_sum   'Na4 Si12 As9 P3'
_cell_volume   650.26423444
_cell_formula_units_Z   1
loop_
 _symmetry_equiv_pos_site_id
 _symmetry_equiv_pos_as_xyz
  1  'x, y, z'
loop_
 _atom_site_type_symbol
 _atom_site_label
 _atom_site_symmetry_multiplicity
 _atom_site_fract_x
 _atom_site_fract_y
 _atom_site_fract_z
 _atom_site_occupancy
  Na  Na0  1  0.00000000  0.34771247  0.29148161  1
  Na  Na1  1  0.00000000  0.64939611  0.70964243  1
  Na  Na2  1  0.00000000  0.14965661  0.79058659  1
  Na  Na3  1  0.00000000  0.84326990  0.20414155  1
  Si  Si0  1  0.50000000  0.40314555  0.03631781  1
  Si  Si1  1  0.50000000  0.59601300  0.96394880  1
  Si  Si2  1  0.50000000  0.09655058  0.53940176  1
  Si  Si3  1  0.50000000  0.90598835  0.46721626  1
  Si  Si4  1  0.00000000  0.11222092  0.01286513  1
  Si  Si5  1  0.00000000  0.88814243  0.98649099  1
  Si  Si6  1  0.00000000  0.38825932  0.51317983  1
  Si  Si7  1  0.00000000  0.61281364  0.48599145  1
  Si  Si8  1  0.00000000  0.17874788  0.13760879  1
  Si  Si9  1  0.00000000  0.81970437  0.86209280  1
  Si  Si10  1  0.00000000  0.32159447  0.63857501  1
  Si  Si11  1  0.00000000  0.68003821  0.36072331  1
  As  As0  1  0.50000000  0.11393327  0.21216871  1
  As  As1  1  0.50000000  0.88329504  0.78719005  1
  As  As2  1  0.50000000  0.38462907  0.71313042  1
  As  As3  1  0.50000000  0.61487489  0.28677579  1
  As  As4  1  0.50000000  0.28182169  0.45177378  1
  As  As5  1  0.50000000  0.71506452  0.54964707  1
  As  As6  1  0.50000000  0.21820395  0.95034461  1
  As  As7  1  0.50000000  0.78204525  0.04902882  1
  As  As8  1  0.00000000  0.91671637  0.38242757  1
  P  P0  1  0.00000000  0.40312538  0.11396407  1
  P  P1  1  0.00000000  0.59566457  0.88637539  1
  P  P2  1  0.00000000  0.09737220  0.61690860  1
loop_
_geom_bond_atom_site_label_1
_geom_bond_atom_site_label_2
_geom_bond_distance
_geom_bond_site_symmetry_2
Na0 P0 3.215253 1_555
Na0 Si8 3.243878 1_555
Na1 P1 3.198667 1_555
Na1 Si9 3.229545 1_555
Na2 P2 3.150293 1_555
Na2 Si10 3.209973 1_555
Na3 Si11 3.234031 1_555
Si0 Si1 2.326304 1_554
Si2 Si3 2.321197 1_545
Si4 Si5 2.310457 1_544
Si4 Si8 2.331479 1_555
Si5 Si9 2.331334 1_555
Si6 Si7 2.311170 1_555
Si10 Si6 2.333423 1_555
Si11 Si7 2.332842 1_555
As0 Si8 2.334438 1_555
As0 Si8 2.334438 1_655
As0 Na3 3.275741 1_545
As0 Na3 3.275741 1_645
As0 Na0 3.297062 1_555
As0 Na0 3.297062 1_655
As1 Si9 2.334560 1_555
As1 Si9 2.334560 1_655
As1 Na2 3.236593 1_665
As1 Na2 3.236593 1_565
As1 Na1 3.284340 1_555
As1 Na1 3.284340 1_655
As2 Si10 2.334930 1_555
As2 Si10 2.334930 1_655
As2 Na1 3.222544 1_555
As2 Na1 3.222544 1_655
As2 Na2 3.276553 1_555
As2 Na2 3.276553 1_655
As3 Si11 2.334768 1_555
As3 Si11 2.334768 1_655
As3 Na0 3.242916 1_555
As3 Na0 3.242916 1_655
As3 Na3 3.269378 1_655
As3 Na3 3.269378 1_555
As4 Si6 2.373544 1_555
As4 Si6 2.373544 1_655
As4 Si2 2.427464 1_555
As4 Na0 3.445476 1_555
As4 Na0 3.445476 1_655
As5 Si7 2.373737 1_555
As5 Si7 2.373737 1_655
As5 Si3 2.414123 1_555
As5 Na1 3.440662 1_555
As5 Na1 3.440662 1_655
As6 Si4 2.373304 1_556
As6 Si4 2.373304 1_656
As6 Si0 2.423829 1_556
As6 Na2 3.451215 1_555
As6 Na2 3.451215 1_655
As7 Si5 2.373962 1_554
As7 Si5 2.373962 1_654
As7 Si1 2.422213 1_554
As7 Na3 3.368065 1_655
As7 Na3 3.368065 1_555
As8 Si3 2.359037 1_555
As8 Si3 2.359037 1_455
As8 Si11 2.419550 1_555
As8 Na3 3.274565 1_555
P0 Si0 2.277216 1_555
P0 Si0 2.277216 1_455
P0 Si8 2.297418 1_555
P1 Si1 2.276443 1_455
P1 Si1 2.276443 1_555
P1 Si9 2.296114 1_555
P2 Si2 2.275754 1_555
P2 Si2 2.275754 1_455
P2 Si10 2.295602 1_555
