# generated using pymatgen
data_KSc3S5
_symmetry_space_group_name_H-M   'P 1'
_cell_length_a   3.74659839
_cell_length_b   10.40254100
_cell_length_c   11.36547446
_cell_angle_alpha   72.90619876
_cell_angle_beta   80.51302117
_cell_angle_gamma   79.62552845
_symmetry_Int_Tables_number   1
_chemical_formula_structural   KSc3S5
_chemical_formula_sum   'K2 Sc6 S10'
_cell_volume   413.51039523
_cell_formula_units_Z   2
loop_
 _symmetry_equiv_pos_site_id
 _symmetry_equiv_pos_as_xyz
  1  'x, y, z'
loop_
 _atom_site_type_symbol
 _atom_site_label
 _atom_site_symmetry_multiplicity
 _atom_site_fract_x
 _atom_site_fract_y
 _atom_site_fract_z
 _atom_site_occupancy
  K  K0  1  0.74817673  0.32169978  0.18194575  1
  K  K1  1  0.25182327  0.67830022  0.81805425  1
  Sc  Sc0  1  0.50000000  0.00000000  0.00000000  1
  Sc  Sc1  1  0.50000000  0.50000000  0.50000000  1
  Sc  Sc2  1  0.83447025  0.93791176  0.39314775  1
  Sc  Sc3  1  0.16552975  0.06208824  0.60685225  1
  Sc  Sc4  1  0.03285556  0.71903687  0.21525200  1
  Sc  Sc5  1  0.96714444  0.28096313  0.78474800  1
  S  S0  1  0.92916520  0.98612247  0.15554813  1
  S  S1  1  0.07083480  0.01387753  0.84445187  1
  S  S2  1  0.60635725  0.72705486  0.06022964  1
  S  S3  1  0.39364275  0.27294514  0.93977036  1
  S  S4  1  0.43159170  0.75615632  0.38066027  1
  S  S5  1  0.56840830  0.24384368  0.61933973  1
  S  S6  1  0.25767427  0.10832790  0.37632356  1
  S  S7  1  0.74232573  0.89167210  0.62367644  1
  S  S8  1  0.08874326  0.47691860  0.34559487  1
  S  S9  1  0.91125674  0.52308140  0.65440513  1
loop_
_geom_bond_atom_site_label_1
_geom_bond_atom_site_label_2
_geom_bond_distance
_geom_bond_site_symmetry_2
K0 S6 3.229942 1_555
K0 S6 3.229943 1_655
K0 S8 3.314290 1_555
K0 S8 3.314291 1_655
K0 S3 3.444706 1_554
K0 S3 3.444711 1_654
K0 S0 3.525903 1_545
K1 S7 3.229942 1_555
K1 S7 3.229943 1_455
K1 S9 3.314290 1_555
K1 S9 3.314291 1_455
K1 S2 3.444706 1_556
K1 S2 3.444711 1_456
K1 S1 3.525903 1_565
S0 Sc0 2.536733 1_665
S0 Sc0 2.536735 1_565
S0 Sc2 2.573290 1_555
S0 Sc4 2.630692 1_655
S1 Sc0 2.536733 1_456
S1 Sc0 2.536735 1_556
S1 Sc3 2.573290 1_555
S1 Sc5 2.630692 1_455
S2 Sc4 2.541314 1_555
S2 Sc4 2.541316 1_655
S2 Sc0 2.688672 1_565
S3 Sc5 2.541314 1_555
S3 Sc5 2.541316 1_455
S3 Sc0 2.688672 1_556
S4 Sc1 2.598035 1_555
S4 Sc2 2.670123 1_555
S4 Sc2 2.670123 1_455
S4 Sc4 2.734107 1_555
S4 Sc4 2.734108 1_655
S5 Sc1 2.598035 1_555
S5 Sc3 2.670123 1_555
S5 Sc3 2.670123 1_655
S5 Sc5 2.734107 1_555
S5 Sc5 2.734108 1_455
S6 Sc3 2.497210 1_555
S6 Sc2 2.531093 1_445
S6 Sc2 2.531093 1_545
S7 Sc2 2.497210 1_555
S7 Sc3 2.531093 1_665
S7 Sc3 2.531093 1_565
S8 Sc4 2.510151 1_555
S8 Sc1 2.604551 1_555
S8 Sc1 2.604552 1_455
S9 Sc5 2.510151 1_555
S9 Sc1 2.604551 1_555
S9 Sc1 2.604552 1_655
