# generated using pymatgen
data_BaAg(BS2)3
_symmetry_space_group_name_H-M   'P 1'
_cell_length_a   8.88668995
_cell_length_b   8.88668964
_cell_length_c   8.30925582
_cell_angle_alpha   65.84436430
_cell_angle_beta   65.84436299
_cell_angle_gamma   60.71370884
_symmetry_Int_Tables_number   1
_chemical_formula_structural   BaAg(BS2)3
_chemical_formula_sum   'Ba2 Ag2 B6 S12'
_cell_volume   503.88341202
_cell_formula_units_Z   2
loop_
 _symmetry_equiv_pos_site_id
 _symmetry_equiv_pos_as_xyz
  1  'x, y, z'
loop_
 _atom_site_type_symbol
 _atom_site_label
 _atom_site_symmetry_multiplicity
 _atom_site_fract_x
 _atom_site_fract_y
 _atom_site_fract_z
 _atom_site_occupancy
  Ba  Ba0  1  0.38735522  0.13195548  0.97554657  1
  Ba  Ba1  1  0.13195548  0.38735522  0.47554657  1
  Ag  Ag0  1  0.71338112  0.48346216  0.94013780  1
  Ag  Ag1  1  0.48346216  0.71338112  0.44013780  1
  B  B0  1  0.75688759  0.84554263  0.54392990  1
  B  B1  1  0.84554263  0.75688759  0.04392990  1
  B  B2  1  0.01068362  0.02539393  0.45074399  1
  B  B3  1  0.02539393  0.01068362  0.95074399  1
  B  B4  1  0.61267438  0.24426907  0.52053721  1
  B  B5  1  0.24426907  0.61267438  0.02053721  1
  S  S0  1  0.43263152  0.41893751  0.07976961  1
  S  S1  1  0.83434415  0.24797263  0.44016365  1
  S  S2  1  0.81759455  0.98505386  0.00572973  1
  S  S3  1  0.05508865  0.56139930  0.05777954  1
  S  S4  1  0.72348233  0.65140118  0.58090368  1
  S  S5  1  0.41893751  0.43263152  0.57976961  1
  S  S6  1  0.56139930  0.05508865  0.55777954  1
  S  S7  1  0.98505386  0.81759455  0.50572973  1
  S  S8  1  0.22888069  0.01680941  0.40826033  1
  S  S9  1  0.01680941  0.22888069  0.90826033  1
  S  S10  1  0.65140118  0.72348233  0.08090368  1
  S  S11  1  0.24797263  0.83434415  0.94016365  1
loop_
_geom_bond_atom_site_label_1
_geom_bond_atom_site_label_2
_geom_bond_distance
_geom_bond_site_symmetry_2
Ba0 S10 3.193158 1_546
Ba0 S8 3.195734 1_556
Ba0 S9 3.199311 1_555
Ba0 S0 3.242332 1_556
Ba0 S5 3.289368 1_555
Ba0 S6 3.379621 1_555
Ba0 S2 3.466863 1_546
Ba0 S11 3.571417 1_545
Ba0 S3 3.634321 1_556
Ba1 S4 3.193158 1_455
Ba1 S9 3.195734 1_555
Ba1 S8 3.199311 1_555
Ba1 S5 3.242332 1_555
Ba1 S0 3.289368 1_555
Ba1 S3 3.379621 1_555
Ba1 S7 3.466863 1_455
Ba1 S1 3.571417 1_455
Ba1 S6 3.634321 1_555
Ag0 S0 2.526987 1_556
Ag0 S9 2.529238 1_655
Ag0 S10 2.566381 1_556
Ag0 S4 2.722353 1_555
Ag1 S5 2.526987 1_555
Ag1 S8 2.529238 1_565
Ag1 S4 2.566381 1_555
Ag1 S10 2.722353 1_555
B0 S4 1.775307 1_555
B0 S7 1.821772 1_555
B0 S6 1.829127 1_565
B1 S10 1.775307 1_555
B1 S2 1.821772 1_555
B1 S3 1.829127 1_655
B2 S8 1.790935 1_555
B2 S7 1.818388 1_445
B2 S1 1.820380 1_455
B3 S9 1.790935 1_555
B3 S2 1.818388 1_446
B3 S11 1.820380 1_545
B4 S5 1.780346 1_555
B4 S1 1.815589 1_555
B4 S6 1.827036 1_555
B4 Ba0 3.459894 1_555
B5 S0 1.780346 1_555
B5 S11 1.815589 1_554
B5 S3 1.827036 1_555
B5 Ba1 3.459894 1_555
