# generated using pymatgen
data_HfPd7Pt
_symmetry_space_group_name_H-M   'P 1'
_cell_length_a   6.21704990
_cell_length_b   6.21704914
_cell_length_c   6.27224227
_cell_angle_alpha   95.73202506
_cell_angle_beta   95.73201899
_cell_angle_gamma   142.98471393
_symmetry_Int_Tables_number   1
_chemical_formula_structural   HfPd7Pt
_chemical_formula_sum   'Hf1 Pd7 Pt1'
_cell_volume   138.53877489
_cell_formula_units_Z   1
loop_
 _symmetry_equiv_pos_site_id
 _symmetry_equiv_pos_as_xyz
  1  'x, y, z'
loop_
 _atom_site_type_symbol
 _atom_site_label
 _atom_site_symmetry_multiplicity
 _atom_site_fract_x
 _atom_site_fract_y
 _atom_site_fract_z
 _atom_site_occupancy
  Hf  Hf0  1  0.00115019  0.00115019  0.00230037  1
  Pd  Pd0  1  0.33305740  0.66591501  0.99897241  1
  Pd  Pd1  1  0.66591501  0.33305740  0.99897241  1
  Pd  Pd2  1  0.33447846  0.33447846  0.66895591  1
  Pd  Pd3  1  0.66859635  0.99945122  0.66804857  1
  Pd  Pd4  1  0.99945122  0.66859635  0.66804857  1
  Pd  Pd5  1  0.00041511  0.33225978  0.33267589  1
  Pd  Pd6  1  0.33225978  0.00041511  0.33267589  1
  Pt  Pt0  1  0.66467649  0.66467649  0.32935198  1
loop_
_geom_bond_atom_site_label_1
_geom_bond_atom_site_label_2
_geom_bond_distance
_geom_bond_site_symmetry_2
Hf0 Pt0 2.772378 1_445
Hf0 Pt0 2.772381 1_555
Hf0 Pd5 2.774235 1_555
Hf0 Pd6 2.774235 1_555
Hf0 Pd1 2.783148 1_444
Hf0 Pd0 2.783148 1_554
Hf0 Pd1 2.783149 1_554
Hf0 Pd0 2.783149 1_444
Hf0 Pd4 2.786557 1_444
Hf0 Pd3 2.786557 1_444
Hf0 Pd2 2.798819 1_444
Hf0 Pd2 2.798821 1_554
Pd0 Pd2 2.776936 1_555
Pd0 Pt0 2.778467 1_556
Pd0 Pd3 2.788643 1_555
Pd0 Pd3 2.788646 1_445
Pd0 Pd1 2.789017 1_565
Pd0 Pd1 2.789018 1_455
Pd0 Pd4 2.795068 1_455
Pd0 Pd5 2.800341 1_666
Pd0 Pd5 2.800344 1_556
Pd0 Pd6 2.802639 1_566
Pd1 Pd2 2.776937 1_555
Pd1 Pt0 2.778466 1_556
Pd1 Pd4 2.788643 1_555
Pd1 Pd4 2.788646 1_445
Pd1 Pd3 2.795068 1_545
Pd1 Pd6 2.800341 1_666
Pd1 Pd6 2.800344 1_556
Pd1 Pd5 2.802639 1_656
Pd2 Pd3 2.774768 1_555
Pd2 Pd4 2.774768 1_555
Pd2 Pd4 2.774773 1_445
Pd2 Pd3 2.774774 1_445
Pd2 Pd6 2.799269 1_555
Pd2 Pd5 2.799269 1_555
Pd2 Pt0 2.825368 1_555
Pd2 Pt0 2.825368 1_445
Pd3 Pt0 2.805517 1_555
Pd3 Pd4 2.805753 1_565
Pd3 Pd4 2.805754 1_455
Pd3 Pd5 2.807402 1_665
Pd3 Pd5 2.807402 1_555
Pd3 Pd6 2.818012 1_565
Pd4 Pt0 2.805517 1_555
Pd4 Pd6 2.807402 1_665
Pd4 Pd6 2.807402 1_555
Pd4 Pd5 2.818012 1_655
Pd5 Pt0 2.778938 1_445
Pd5 Pt0 2.778944 1_555
Pd5 Pd6 2.797469 1_565
Pd5 Pd6 2.797470 1_455
Pd6 Pt0 2.778939 1_445
Pd6 Pt0 2.778944 1_555
