# generated using pymatgen
data_Ir3Rh5S16
_symmetry_space_group_name_H-M   'P 1'
_cell_length_a   3.55793412
_cell_length_b   5.66770408
_cell_length_c   19.96837702
_cell_angle_alpha   89.93827258
_cell_angle_beta   90.00000000
_cell_angle_gamma   90.00000000
_symmetry_Int_Tables_number   1
_chemical_formula_structural   Ir3Rh5S16
_chemical_formula_sum   'Ir3 Rh5 S16'
_cell_volume   402.66843283
_cell_formula_units_Z   1
loop_
 _symmetry_equiv_pos_site_id
 _symmetry_equiv_pos_as_xyz
  1  'x, y, z'
loop_
 _atom_site_type_symbol
 _atom_site_label
 _atom_site_symmetry_multiplicity
 _atom_site_fract_x
 _atom_site_fract_y
 _atom_site_fract_z
 _atom_site_occupancy
  Ir  Ir0  1  0.25000000  0.07683445  0.57713685  1
  Ir  Ir1  1  0.25000000  0.42417844  0.07689439  1
  Ir  Ir2  1  0.75000000  0.92296898  0.42293650  1
  Rh  Rh0  1  0.75000000  0.57910215  0.92373391  1
  Rh  Rh1  1  0.25000000  0.05277467  0.80394682  1
  Rh  Rh2  1  0.25000000  0.44644837  0.30350860  1
  Rh  Rh3  1  0.75000000  0.94633442  0.19611995  1
  Rh  Rh4  1  0.75000000  0.55212393  0.69671240  1
  S  S0  1  0.25000000  0.44057538  0.85596674  1
  S  S1  1  0.25000000  0.06010037  0.35772552  1
  S  S2  1  0.75000000  0.56081673  0.14194375  1
  S  S3  1  0.75000000  0.93935700  0.64256264  1
  S  S4  1  0.75000000  0.17005087  0.73419604  1
  S  S5  1  0.75000000  0.32792224  0.23419808  1
  S  S6  1  0.25000000  0.82790747  0.26546991  1
  S  S7  1  0.25000000  0.66932265  0.76669935  1
  S  S8  1  0.75000000  0.95541289  0.87675537  1
  S  S9  1  0.75000000  0.54691007  0.37631445  1
  S  S10  1  0.25000000  0.04717627  0.12324216  1
  S  S11  1  0.25000000  0.45289515  0.62387522  1
  S  S12  1  0.75000000  0.22330316  0.50765835  1
  S  S13  1  0.75000000  0.27715052  0.00747044  1
  S  S14  1  0.25000000  0.77643327  0.49252778  1
  S  S15  1  0.25000000  0.72390355  0.99240579  1
loop_
_geom_bond_atom_site_label_1
_geom_bond_atom_site_label_2
_geom_bond_distance
_geom_bond_site_symmetry_2
Ir0 S11 2.327699 1_555
Ir0 S3 2.340183 1_545
Ir0 S3 2.340183 1_445
Ir0 S14 2.399880 1_545
Ir0 S12 2.403369 1_455
Ir0 S12 2.403369 1_555
Ir1 S10 2.327641 1_555
Ir1 S2 2.335347 1_555
Ir1 S2 2.335347 1_455
Ir1 S15 2.392884 1_554
Ir1 S13 2.404870 1_455
Ir1 S13 2.404870 1_555
Ir2 S9 2.326757 1_555
Ir2 S1 2.337141 1_565
Ir2 S1 2.337141 1_665
Ir2 S12 2.401198 1_565
Ir2 S14 2.404799 1_555
Ir2 S14 2.404799 1_655
Rh0 S8 2.329078 1_555
Rh0 S0 2.369513 1_555
Rh0 S0 2.369513 1_655
Rh0 S13 2.391336 1_556
Rh0 S15 2.391872 1_655
Rh0 S15 2.391872 1_555
Rh1 S7 2.297799 1_545
Rh1 S4 2.354667 1_455
Rh1 S4 2.354667 1_555
Rh1 S8 2.362463 1_445
Rh1 S8 2.362463 1_545
Rh1 S0 2.432050 1_555
Rh2 S6 2.290773 1_555
Rh2 S5 2.352342 1_555
Rh2 S5 2.352342 1_455
Rh2 S9 2.367337 1_455
Rh2 S9 2.367337 1_555
Rh2 S1 2.441676 1_555
Rh3 S5 2.293267 1_565
Rh3 S6 2.351793 1_555
Rh3 S6 2.351793 1_655
Rh3 S10 2.367984 1_665
Rh3 S10 2.367984 1_565
Rh3 S2 2.439187 1_555
Rh4 S4 2.290422 1_555
Rh4 S7 2.358183 1_655
Rh4 S7 2.358183 1_555
Rh4 S11 2.366046 1_555
Rh4 S11 2.366046 1_655
Rh4 S3 2.445581 1_555
S0 S7 2.203010 1_555
S1 S6 2.265119 1_545
S2 S5 2.265102 1_555
S3 S4 2.250063 1_565
