# generated using pymatgen
data_K4CdTeO6
_symmetry_space_group_name_H-M   'P 1'
_cell_length_a   5.97619147
_cell_length_b   5.97619116
_cell_length_c   6.36047708
_cell_angle_alpha   99.26106828
_cell_angle_beta   99.26106960
_cell_angle_gamma   119.61839485
_symmetry_Int_Tables_number   1
_chemical_formula_structural   K4CdTeO6
_chemical_formula_sum   'K4 Cd1 Te1 O6'
_cell_volume   187.09597689
_cell_formula_units_Z   1
loop_
 _symmetry_equiv_pos_site_id
 _symmetry_equiv_pos_as_xyz
  1  'x, y, z'
loop_
 _atom_site_type_symbol
 _atom_site_label
 _atom_site_symmetry_multiplicity
 _atom_site_fract_x
 _atom_site_fract_y
 _atom_site_fract_z
 _atom_site_occupancy
  K  K0  1  0.50130688  0.49869212  1.00000000  1
  K  K1  1  0.99193049  0.00806951  0.50000000  1
  K  K2  1  0.65905173  0.34094827  0.50000000  1
  K  K3  1  0.34513878  0.65486122  0.50000000  1
  Cd  Cd0  1  0.83290197  0.16709803  0.00000000  1
  Te  Te0  1  0.16732731  0.83267169  1.00000000  1
  O  O0  1  0.20431640  0.15192351  0.18758357  1
  O  O1  1  0.51170653  0.92236383  0.18969511  1
  O  O2  1  0.97915820  0.61857695  0.18986199  1
  O  O3  1  0.38142305  0.02084180  0.81013701  1
  O  O4  1  0.07763617  0.48829347  0.81030489  1
  O  O5  1  0.84807549  0.79568360  0.81241543  1
loop_
_geom_bond_atom_site_label_1
_geom_bond_atom_site_label_2
_geom_bond_distance
_geom_bond_site_symmetry_2
K0 O4 2.589865 1_555
K0 O1 2.589867 1_556
K0 O0 2.590395 1_556
K0 O5 2.590402 1_555
K0 O3 2.591524 1_555
K0 O2 2.591526 1_556
K1 O5 2.565501 1_545
K1 O0 2.565506 1_655
K1 O3 2.759200 1_655
K1 O2 2.759204 1_545
K1 O4 2.965245 1_655
K1 O1 2.965245 1_545
K2 O1 2.569573 1_545
K2 O4 2.569573 1_655
K2 O5 2.667382 1_555
K2 O0 2.667384 1_555
K2 O3 3.071548 1_555
K2 O2 3.071554 1_555
K3 O3 2.593611 1_565
K3 O2 2.593615 1_455
K3 O1 2.741711 1_555
K3 O4 2.741711 1_555
K3 O5 2.954639 1_555
K3 O0 2.954646 1_555
Cd0 O5 2.395822 1_544
Cd0 O0 2.395823 1_655
Cd0 O2 2.404715 1_555
Cd0 O3 2.404717 1_554
Cd0 O4 2.412034 1_654
Cd0 O1 2.412034 1_545
O0 Te0 1.969282 1_544
O1 Te0 1.970008 1_554
O2 Te0 1.967787 1_654
O3 Te0 1.967797 1_545
O4 Te0 1.970005 1_555
O5 Te0 1.969287 1_655
