# generated using pymatgen
data_Sr(Al3Pt)3
_symmetry_space_group_name_H-M   'P 1'
_cell_length_a   10.52484821
_cell_length_b   10.52484825
_cell_length_c   10.52484895
_cell_angle_alpha   41.87484337
_cell_angle_beta   41.87484406
_cell_angle_gamma   41.87484148
_symmetry_Int_Tables_number   1
_chemical_formula_structural   Sr(Al3Pt)3
_chemical_formula_sum   'Sr2 Al18 Pt6'
_cell_volume   469.77637176
_cell_formula_units_Z   2
loop_
 _symmetry_equiv_pos_site_id
 _symmetry_equiv_pos_as_xyz
  1  'x, y, z'
loop_
 _atom_site_type_symbol
 _atom_site_label
 _atom_site_symmetry_multiplicity
 _atom_site_fract_x
 _atom_site_fract_y
 _atom_site_fract_z
 _atom_site_occupancy
  Sr  Sr0  1  0.16669043  0.16669043  0.16669043  1
  Sr  Sr1  1  0.83330957  0.83330957  0.83330957  1
  Al  Al0  1  0.10555041  0.43057194  0.75581690  1
  Al  Al1  1  0.43057194  0.75581690  0.10555041  1
  Al  Al2  1  0.56942806  0.89444959  0.24418310  1
  Al  Al3  1  0.95054297  0.95054297  0.95054297  1
  Al  Al4  1  0.04945703  0.04945703  0.04945703  1
  Al  Al5  1  0.29938903  0.70061097  0.50000000  1
  Al  Al6  1  0.89444959  0.24418310  0.56942806  1
  Al  Al7  1  0.38228846  0.38228846  0.38228846  1
  Al  Al8  1  0.50000000  0.29938903  0.70061097  1
  Al  Al9  1  0.24418310  0.56942806  0.89444959  1
  Al  Al10  1  0.71609202  0.71609202  0.71609202  1
  Al  Al11  1  0.61771154  0.61771154  0.61771154  1
  Al  Al12  1  0.33223005  0.00000000  0.66776995  1
  Al  Al13  1  0.70061097  0.50000000  0.29938903  1
  Al  Al14  1  0.66776995  0.33223005  0.00000000  1
  Al  Al15  1  0.28390798  0.28390798  0.28390798  1
  Al  Al16  1  1.00000000  0.66776995  0.33223005  1
  Al  Al17  1  0.75581690  0.10555041  0.43057194  1
  Pt  Pt0  1  0.41708304  0.07723117  0.75700568  1
  Pt  Pt1  1  0.58291696  0.24299432  0.92276883  1
  Pt  Pt2  1  0.07723117  0.75700568  0.41708304  1
  Pt  Pt3  1  0.75700568  0.41708304  0.07723117  1
  Pt  Pt4  1  0.92276883  0.58291696  0.24299432  1
  Pt  Pt5  1  0.24299432  0.92276883  0.58291696  1
loop_
_geom_bond_atom_site_label_1
_geom_bond_atom_site_label_2
_geom_bond_distance
_geom_bond_site_symmetry_2
Al0 Pt0 2.532570 1_555
Al0 Pt2 2.533676 1_555
Al0 Pt3 2.549653 1_456
Al0 Al7 2.813493 1_555
Al0 Al4 2.887501 1_556
Al0 Al10 2.888665 1_455
Al0 Al8 2.923255 1_555
Al0 Al5 2.923689 1_555
Al0 Sr1 3.228541 1_455
Al0 Sr0 3.228734 1_556
Al1 Pt2 2.532571 1_555
Al1 Pt3 2.533675 1_555
Al1 Pt0 2.549653 1_564
Al1 Al7 2.813493 1_555
Al1 Al4 2.887501 1_565
Al1 Al10 2.888665 1_554
Al1 Al5 2.923255 1_555
Al1 Al13 2.923689 1_555
Al1 Sr1 3.228541 1_554
Al1 Sr0 3.228733 1_565
Al2 Pt4 2.532570 1_555
Al2 Pt5 2.533676 1_555
Al2 Pt1 2.549653 1_564
Al2 Al3 2.887501 1_554
Al2 Al5 2.923689 1_555
Al2 Sr0 3.228541 1_565
Al2 Sr1 3.228734 1_554
Al3 Pt1 2.671912 1_565
Al3 Pt4 2.671912 1_556
Al3 Pt5 2.671912 1_655
Al3 Al4 2.844888 1_666
Al3 Al9 2.887501 1_655
Al3 Al6 2.887501 1_565
Al3 Sr1 3.371775 1_555
Al4 Pt3 2.671912 1_455
Al4 Pt0 2.671912 1_554
Al4 Pt2 2.671912 1_545
Al4 Sr0 3.371775 1_555
Al5 Pt2 2.604143 1_555
Al5 Pt5 2.604143 1_555
Al5 Al8 2.613681 1_555
Al5 Al9 2.923255 1_555
Al5 Sr0 3.128377 1_565
Al5 Sr1 3.128377 1_455
Al6 Pt1 2.532571 1_555
Al6 Pt4 2.533676 1_555
Al6 Pt5 2.549653 1_645
Al6 Al8 2.923255 1_555
Al6 Sr0 3.228541 1_655
Al6 Sr1 3.228733 1_545
Al7 Pt2 2.745781 1_555
Al7 Pt3 2.745781 1_555
Al7 Pt0 2.745781 1_555
Al8 Pt0 2.604143 1_555
Al8 Pt1 2.604143 1_555
Al8 Al9 2.923689 1_555
Al8 Sr1 3.128377 1_545
Al8 Sr0 3.128377 1_556
Al9 Pt5 2.532571 1_555
Al9 Pt1 2.533675 1_555
Al9 Pt4 2.549653 1_456
Al9 Sr0 3.228541 1_556
Al9 Sr1 3.228733 1_455
Al10 Pt0 2.672498 1_565
Al10 Pt2 2.672498 1_655
Al10 Pt3 2.672498 1_556
Al10 Al11 2.829542 1_555
Al10 Al12 2.885909 1_565
Al10 Al14 2.885909 1_556
Al10 Al16 2.885909 1_555
Al10 Al17 2.888665 1_565
Al10 Sr1 3.371319 1_555
Al11 Pt5 2.745781 1_555
Al11 Pt1 2.745781 1_555
Al11 Pt4 2.745781 1_555
Al11 Al6 2.813493 1_555
Al11 Al9 2.813493 1_555
Al11 Al2 2.813493 1_555
Al11 Al12 2.879271 1_565
Al11 Al16 2.879271 1_555
Al11 Al14 2.879271 1_556
Al12 Pt5 2.409855 1_545
Al12 Pt0 2.409855 1_555
Al12 Al3 2.875523 1_445
Al12 Al4 2.875524 1_556
Al12 Al7 2.879271 1_555
Al12 Al15 2.885909 1_555
Al13 Pt4 2.604143 1_555
Al13 Pt3 2.604143 1_555
Al13 Al5 2.613681 1_555
Al13 Al8 2.613681 1_555
Al13 Al2 2.923255 1_555
Al13 Al17 2.923255 1_555
Al13 Al6 2.923689 1_555
Al13 Sr0 3.128377 1_655
Al13 Sr1 3.128377 1_554
Al14 Pt3 2.409855 1_555
Al14 Pt1 2.409855 1_554
Al14 Al4 2.875523 1_655
Al14 Al3 2.875523 1_544
Al14 Al7 2.879271 1_555
Al14 Al15 2.885909 1_555
Al15 Pt4 2.672498 1_455
Al15 Pt5 2.672498 1_545
Al15 Pt1 2.672498 1_554
Al15 Al7 2.829542 1_555
Al15 Al16 2.885909 1_455
Al15 Al2 2.888665 1_545
Al15 Al6 2.888665 1_455
Al15 Al9 2.888665 1_554
Al15 Sr0 3.371319 1_555
Al16 Pt2 2.409855 1_655
Al16 Pt4 2.409855 1_555
Al16 Al4 2.875523 1_665
Al16 Al3 2.875523 1_554
Al16 Al7 2.879271 1_655
Al17 Pt3 2.532571 1_555
Al17 Pt0 2.533676 1_555
Al17 Pt2 2.549653 1_645
Al17 Al7 2.813493 1_555
Al17 Al4 2.887501 1_655
Al17 Al8 2.923689 1_555
Al17 Sr1 3.228541 1_545
Al17 Sr0 3.228733 1_655
Pt0 Sr1 3.441956 1_545
Pt0 Sr0 3.442709 1_556
Pt1 Sr0 3.441956 1_556
Pt1 Sr1 3.442709 1_545
Pt2 Sr1 3.441957 1_455
Pt2 Sr0 3.442709 1_565
Pt3 Sr1 3.441956 1_554
Pt3 Sr0 3.442709 1_655
Pt4 Sr0 3.441956 1_655
Pt4 Sr1 3.442709 1_554
Pt5 Sr0 3.441956 1_565
Pt5 Sr1 3.442709 1_455
