# generated using pymatgen
data_Ca3(LuSi2)2
_symmetry_space_group_name_H-M   'P 1'
_cell_length_a   7.31385081
_cell_length_b   7.76977324
_cell_length_c   14.93231946
_cell_angle_alpha   90.00000000
_cell_angle_beta   90.00000000
_cell_angle_gamma   90.00000000
_symmetry_Int_Tables_number   1
_chemical_formula_structural   Ca3(LuSi2)2
_chemical_formula_sum   'Ca12 Lu8 Si16'
_cell_volume   848.55835556
_cell_formula_units_Z   4
loop_
 _symmetry_equiv_pos_site_id
 _symmetry_equiv_pos_as_xyz
  1  'x, y, z'
loop_
 _atom_site_type_symbol
 _atom_site_label
 _atom_site_symmetry_multiplicity
 _atom_site_fract_x
 _atom_site_fract_y
 _atom_site_fract_z
 _atom_site_occupancy
  Ca  Ca0  1  0.97775700  0.81751395  0.40496912  1
  Ca  Ca1  1  0.47775700  0.68248605  0.09503088  1
  Ca  Ca2  1  0.52224300  0.31751395  0.59503088  1
  Ca  Ca3  1  0.02224300  0.18248605  0.90496912  1
  Ca  Ca4  1  0.02224300  0.18248605  0.59503088  1
  Ca  Ca5  1  0.52224300  0.31751395  0.90496912  1
  Ca  Ca6  1  0.47775700  0.68248605  0.40496912  1
  Ca  Ca7  1  0.97775700  0.81751395  0.09503088  1
  Ca  Ca8  1  0.34928798  0.01917198  0.75000000  1
  Ca  Ca9  1  0.84928798  0.48082802  0.75000000  1
  Ca  Ca10  1  0.15071202  0.51917198  0.25000000  1
  Ca  Ca11  1  0.65071202  0.98082802  0.25000000  1
  Lu  Lu0  1  0.31663394  0.17619587  0.12170249  1
  Lu  Lu1  1  0.81663394  0.32380413  0.37829751  1
  Lu  Lu2  1  0.18336606  0.67619587  0.87829751  1
  Lu  Lu3  1  0.68336606  0.82380413  0.62170249  1
  Lu  Lu4  1  0.31663394  0.17619587  0.37829751  1
  Lu  Lu5  1  0.81663394  0.32380413  0.12170249  1
  Lu  Lu6  1  0.18336606  0.67619587  0.62170249  1
  Lu  Lu7  1  0.68336606  0.82380413  0.87829751  1
  Si  Si0  1  0.85594349  0.53561492  0.53761984  1
  Si  Si1  1  0.35594349  0.96438508  0.96238016  1
  Si  Si2  1  0.64405651  0.03561492  0.46238016  1
  Si  Si3  1  0.14405651  0.46438508  0.03761984  1
  Si  Si4  1  0.14405651  0.46438508  0.46238016  1
  Si  Si5  1  0.64405651  0.03561492  0.03761984  1
  Si  Si6  1  0.35594349  0.96438508  0.53761984  1
  Si  Si7  1  0.85594349  0.53561492  0.96238016  1
  Si  Si8  1  0.97409152  0.87581539  0.75000000  1
  Si  Si9  1  0.47409152  0.62418461  0.75000000  1
  Si  Si10  1  0.52590848  0.37581539  0.25000000  1
  Si  Si11  1  0.02590848  0.12418461  0.25000000  1
  Si  Si12  1  0.24713622  0.39980574  0.75000000  1
  Si  Si13  1  0.74713622  0.10019426  0.75000000  1
  Si  Si14  1  0.25286378  0.89980574  0.25000000  1
  Si  Si15  1  0.75286378  0.60019426  0.25000000  1
loop_
_geom_bond_atom_site_label_1
_geom_bond_atom_site_label_2
_geom_bond_distance
_geom_bond_site_symmetry_2
Ca0 Si0 3.084579 1_555
Ca0 Si2 3.092456 1_565
Ca0 Si4 3.121274 1_655
Ca0 Si14 3.132434 1_655
Ca0 Si15 3.303244 1_555
Ca0 Si11 3.340119 1_665
Ca1 Si1 3.084579 1_554
Ca1 Si3 3.092456 1_555
Ca1 Si5 3.121274 1_565
Ca1 Si15 3.132434 1_555
Ca1 Si14 3.303244 1_555
Ca1 Si10 3.340119 1_555
Ca2 Si2 3.084579 1_555
Ca2 Si0 3.092456 1_555
Ca2 Si6 3.121274 1_545
Ca2 Si12 3.132434 1_555
Ca2 Si13 3.303244 1_555
Ca2 Si9 3.340119 1_555
Ca3 Si3 3.084579 1_556
Ca3 Si1 3.092456 1_545
Ca3 Si7 3.121274 1_455
Ca3 Si13 3.132434 1_455
Ca3 Si12 3.303244 1_555
Ca3 Si8 3.340119 1_445
Ca4 Si4 3.084579 1_555
Ca4 Si6 3.092456 1_545
Ca4 Si0 3.121274 1_455
Ca4 Si13 3.132434 1_455
Ca4 Si12 3.303244 1_555
Ca4 Si8 3.340119 1_445
Ca5 Si5 3.084579 1_556
Ca5 Si7 3.092456 1_555
Ca5 Si1 3.121274 1_545
Ca5 Si12 3.132434 1_555
Ca5 Si13 3.303244 1_555
Ca5 Si9 3.340119 1_555
Ca6 Si6 3.084579 1_555
Ca6 Si4 3.092456 1_555
Ca6 Si2 3.121274 1_565
Ca6 Si15 3.132434 1_555
Ca6 Si14 3.303244 1_555
Ca6 Si10 3.340119 1_555
Ca7 Si7 3.084579 1_554
Ca7 Si5 3.092456 1_565
Ca7 Si3 3.121274 1_655
Ca7 Si14 3.132434 1_655
Ca7 Si15 3.303244 1_555
Ca7 Si11 3.340119 1_665
Ca8 Si8 2.961573 1_445
Ca8 Si13 2.977122 1_555
Ca8 Si12 3.050349 1_555
Ca8 Si1 3.200140 1_545
Ca8 Si6 3.200140 1_545
Ca8 Si9 3.201831 1_545
Ca9 Si9 2.961573 1_555
Ca9 Si12 2.977122 1_655
Ca9 Si13 3.050349 1_555
Ca9 Si7 3.200140 1_555
Ca9 Si0 3.200140 1_555
Ca9 Si8 3.201831 1_555
Ca10 Si10 2.961573 1_555
Ca10 Si15 2.977122 1_455
Ca10 Si14 3.050349 1_555
Ca10 Si4 3.200140 1_555
Ca10 Si3 3.200140 1_555
Ca10 Si11 3.201831 1_555
Ca11 Si11 2.961573 1_665
Ca11 Si14 2.977122 1_555
Ca11 Si15 3.050349 1_555
Ca11 Si2 3.200140 1_565
Ca11 Si5 3.200140 1_565
Ca11 Si10 3.201831 1_565
Lu0 Si3 2.860669 1_555
Lu0 Si11 2.890462 1_555
Lu0 Si10 2.901474 1_555
Lu0 Si1 2.907051 1_544
Lu0 Si14 2.915382 1_545
Lu0 Si5 2.916190 1_555
Lu1 Si2 2.860669 1_555
Lu1 Si10 2.890462 1_555
Lu1 Si11 2.901474 1_655
Lu1 Si0 2.907051 1_555
Lu1 Si15 2.915382 1_555
Lu1 Si4 2.916190 1_655
Lu2 Si1 2.860669 1_555
Lu2 Si9 2.890462 1_555
Lu2 Si8 2.901474 1_455
Lu2 Si3 2.907051 1_556
Lu2 Si12 2.915382 1_555
Lu2 Si7 2.916190 1_455
Lu3 Si0 2.860669 1_555
Lu3 Si8 2.890462 1_555
Lu3 Si9 2.901474 1_555
Lu3 Si2 2.907051 1_565
Lu3 Si13 2.915382 1_565
Lu3 Si6 2.916190 1_555
Lu4 Si4 2.860669 1_555
Lu4 Si11 2.890462 1_555
Lu4 Si10 2.901474 1_555
Lu4 Si6 2.907051 1_545
Lu4 Si14 2.915382 1_545
Lu4 Si2 2.916190 1_555
Lu5 Si5 2.860669 1_555
Lu5 Si10 2.890462 1_555
Lu5 Si11 2.901474 1_655
Lu5 Si7 2.907051 1_554
Lu5 Si15 2.915382 1_555
Lu5 Si3 2.916190 1_655
Lu6 Si6 2.860669 1_555
Lu6 Si9 2.890462 1_555
Lu6 Si8 2.901474 1_455
Lu6 Si4 2.907051 1_555
Lu6 Si12 2.915382 1_555
Lu6 Si0 2.916190 1_455
Lu7 Si7 2.860669 1_555
Lu7 Si8 2.890462 1_555
Lu7 Si9 2.901474 1_555
Lu7 Si5 2.907051 1_566
Lu7 Si13 2.915382 1_565
Lu7 Si1 2.916190 1_555
Si0 Si4 2.451308 1_655
Si1 Si5 2.451308 1_566
Si2 Si6 2.451308 1_545
Si3 Si7 2.451308 1_454
Si10 Si15 2.407213 1_555
Si11 Si14 2.407213 1_545
Si12 Si9 2.407213 1_555
Si13 Si8 2.407213 1_545
