# generated using pymatgen
data_KBO2
_symmetry_space_group_name_H-M   'P 1'
_cell_length_a   7.74682230
_cell_length_b   7.74682230
_cell_length_c   7.74682193
_cell_angle_alpha   110.82586610
_cell_angle_beta   110.82586610
_cell_angle_gamma   110.82584605
_symmetry_Int_Tables_number   1
_chemical_formula_structural   KBO2
_chemical_formula_sum   'K6 B6 O12'
_cell_volume   338.75451880
_cell_formula_units_Z   6
loop_
 _symmetry_equiv_pos_site_id
 _symmetry_equiv_pos_as_xyz
  1  'x, y, z'
loop_
 _atom_site_type_symbol
 _atom_site_label
 _atom_site_symmetry_multiplicity
 _atom_site_fract_x
 _atom_site_fract_y
 _atom_site_fract_z
 _atom_site_occupancy
  K  K0  1  0.31150986  0.75000000  0.18849014  1
  K  K1  1  0.18849014  0.31150986  0.75000000  1
  K  K2  1  0.75000000  0.18849014  0.31150986  1
  K  K3  1  0.68849014  0.25000000  0.81150986  1
  K  K4  1  0.81150986  0.68849014  0.25000000  1
  K  K5  1  0.25000000  0.81150986  0.68849014  1
  B  B0  1  0.36349137  0.25000000  0.13650863  1
  B  B1  1  0.63650863  0.75000000  0.86349137  1
  B  B2  1  0.86349137  0.63650863  0.75000000  1
  B  B3  1  0.75000000  0.86349137  0.63650863  1
  B  B4  1  0.13650863  0.36349137  0.25000000  1
  B  B5  1  0.25000000  0.13650863  0.36349137  1
  O  O0  1  0.25000000  0.35837693  0.14162307  1
  O  O1  1  0.35837693  0.14162307  0.25000000  1
  O  O2  1  0.85837693  0.75000000  0.64162307  1
  O  O3  1  0.14162307  0.25000000  0.35837693  1
  O  O4  1  0.75000000  0.64162307  0.85837693  1
  O  O5  1  0.64162307  0.85837693  0.75000000  1
  O  O6  1  0.25000000  0.03341099  0.46658901  1
  O  O7  1  0.03341099  0.46658901  0.25000000  1
  O  O8  1  0.46658901  0.25000000  0.03341099  1
  O  O9  1  0.75000000  0.96658901  0.53341099  1
  O  O10  1  0.96658901  0.53341099  0.75000000  1
  O  O11  1  0.53341099  0.75000000  0.96658901  1
loop_
_geom_bond_atom_site_label_1
_geom_bond_atom_site_label_2
_geom_bond_distance
_geom_bond_site_symmetry_2
K0 O1 2.762037 1_565
K0 O0 2.762038 1_555
K0 O6 2.792728 1_565
K0 O7 2.792728 1_555
K0 O10 2.792730 1_454
K0 O9 2.792730 1_555
K0 O11 2.830430 1_554
K1 O3 2.762037 1_555
K1 O0 2.762037 1_556
K1 O6 2.792728 1_555
K1 O8 2.792728 1_556
K1 O9 2.792730 1_445
K1 O11 2.792730 1_555
K1 O10 2.830430 1_455
K2 O1 2.762037 1_555
K2 O3 2.762038 1_655
K2 O8 2.792728 1_555
K2 O7 2.792728 1_655
K2 O10 2.792730 1_555
K2 O11 2.792730 1_544
K2 O9 2.830430 1_545
K3 O5 2.762037 1_545
K3 O4 2.762038 1_555
K3 O9 2.792728 1_545
K3 O10 2.792728 1_555
K3 O7 2.792730 1_656
K3 O6 2.792730 1_555
K3 O8 2.830430 1_556
K4 O4 2.762037 1_554
K4 O2 2.762037 1_555
K4 O9 2.792728 1_555
K4 O11 2.792728 1_554
K4 O6 2.792730 1_665
K4 O8 2.792730 1_555
K4 O7 2.830430 1_655
K5 O5 2.762037 1_555
K5 O2 2.762038 1_455
K5 O11 2.792728 1_555
K5 O10 2.792728 1_455
K5 O7 2.792730 1_555
K5 O8 2.792730 1_566
K5 O6 2.830430 1_565
B0 O8 1.315048 1_555
B0 O0 1.416133 1_555
B0 O1 1.416133 1_555
B1 O11 1.315048 1_555
B1 O4 1.416133 1_555
B1 O5 1.416133 1_555
B2 O10 1.315048 1_555
B2 O2 1.416133 1_555
B2 O4 1.416133 1_555
B3 O9 1.315048 1_555
B3 O2 1.416133 1_555
B3 O5 1.416133 1_555
B4 O7 1.315048 1_555
B4 O3 1.416133 1_555
B4 O0 1.416133 1_555
B5 O6 1.315048 1_555
B5 O3 1.416133 1_555
B5 O1 1.416133 1_555
