# generated using pymatgen
data_Cs2NiMoS4
_symmetry_space_group_name_H-M   'P 1'
_cell_length_a   14.30831503
_cell_length_b   12.69077845
_cell_length_c   7.62163151
_cell_angle_alpha   85.72592960
_cell_angle_beta   62.18816739
_cell_angle_gamma   32.08590484
_symmetry_Int_Tables_number   1
_chemical_formula_structural   Cs2NiMoS4
_chemical_formula_sum   'Cs4 Ni2 Mo2 S8'
_cell_volume   475.09164315
_cell_formula_units_Z   2
loop_
 _symmetry_equiv_pos_site_id
 _symmetry_equiv_pos_as_xyz
  1  'x, y, z'
loop_
 _atom_site_type_symbol
 _atom_site_label
 _atom_site_symmetry_multiplicity
 _atom_site_fract_x
 _atom_site_fract_y
 _atom_site_fract_z
 _atom_site_occupancy
  Cs  Cs0  1  0.57369812  0.57369812  0.92630188  1
  Cs  Cs1  1  0.92630188  0.92630188  0.57369812  1
  Cs  Cs2  1  0.32369812  0.32369812  0.67630188  1
  Cs  Cs3  1  0.67630188  0.67630188  0.32369812  1
  Ni  Ni0  1  0.00000000  0.00000000  0.00000000  1
  Ni  Ni1  1  0.25000000  0.25000000  0.25000000  1
  Mo  Mo0  1  0.75000000  0.75000000  0.75000000  1
  Mo  Mo1  1  0.50000000  0.50000000  0.50000000  1
  S  S0  1  0.21161443  0.88968660  0.61069175  1
  S  S1  1  0.28800623  0.61069175  0.88968660  1
  S  S2  1  0.61069175  0.28800623  0.21161443  1
  S  S3  1  0.88968660  0.21161443  0.28800623  1
  S  S4  1  0.36031340  0.03838557  0.96199377  1
  S  S5  1  0.96199377  0.63930825  0.36031340  1
  S  S6  1  0.63930825  0.96199377  0.03838557  1
  S  S7  1  0.03838557  0.36031340  0.63930825  1
loop_
_geom_bond_atom_site_label_1
_geom_bond_atom_site_label_2
_geom_bond_distance
_geom_bond_site_symmetry_2
Cs0 S0 3.579890 1_645
Cs0 S3 3.579892 1_466
Cs0 S0 3.581413 1_556
Cs0 S3 3.581419 1_555
Cs0 S4 3.623170 1_565
Cs0 S7 3.623171 1_655
Cs0 S2 3.847223 1_556
Cs0 S1 3.847227 1_555
Cs1 S2 3.579885 1_566
Cs1 S1 3.579892 1_654
Cs1 S2 3.581413 1_655
Cs1 S1 3.581416 1_565
Cs1 S5 3.623158 1_555
Cs1 S6 3.623161 1_556
Cs1 S0 3.847213 1_655
Cs1 S3 3.847217 1_565
Cs2 S6 3.579885 1_545
Cs2 S5 3.579892 1_456
Cs2 S6 3.581413 1_456
Cs2 S5 3.581416 1_545
Cs2 S1 3.623158 1_555
Cs2 S2 3.623161 1_555
Cs2 S7 3.847213 1_555
Cs2 S4 3.847217 1_555
Cs3 S7 3.579890 1_565
Cs3 S4 3.579892 1_654
Cs3 S7 3.581413 1_654
Cs3 S4 3.581419 1_565
Cs3 S3 3.623170 1_555
Cs3 S0 3.623171 1_555
Cs3 S6 3.847223 1_555
Cs3 S5 3.847227 1_555
Ni0 S3 2.232651 1_455
Ni0 S0 2.232657 1_544
Ni0 S1 2.232660 1_544
Ni0 S2 2.232662 1_455
Ni1 S4 2.232651 1_554
Ni1 S7 2.232657 1_555
Ni1 S5 2.232660 1_455
Ni1 S6 2.232662 1_545
Mo0 S4 2.233876 1_565
Mo0 S7 2.233878 1_655
Mo0 S5 2.233881 1_555
Mo0 S6 2.233886 1_556
Mo1 S3 2.233876 1_555
Mo1 S0 2.233878 1_555
Mo1 S1 2.233881 1_555
Mo1 S2 2.233886 1_555
