# generated using pymatgen
data_Hf2Zr3CuSb3
_symmetry_space_group_name_H-M   'P 1'
_cell_length_a   8.57761514
_cell_length_b   8.57761475
_cell_length_c   5.78780577
_cell_angle_alpha   90.00000000
_cell_angle_beta   90.00000000
_cell_angle_gamma   119.99999389
_symmetry_Int_Tables_number   1
_chemical_formula_structural   Hf2Zr3CuSb3
_chemical_formula_sum   'Hf4 Zr6 Cu2 Sb6'
_cell_volume   368.78878080
_cell_formula_units_Z   2
loop_
 _symmetry_equiv_pos_site_id
 _symmetry_equiv_pos_as_xyz
  1  'x, y, z'
loop_
 _atom_site_type_symbol
 _atom_site_label
 _atom_site_symmetry_multiplicity
 _atom_site_fract_x
 _atom_site_fract_y
 _atom_site_fract_z
 _atom_site_occupancy
  Hf  Hf0  1  0.66666700  0.33333300  0.00000000  1
  Hf  Hf1  1  0.33333300  0.66666700  0.00000000  1
  Hf  Hf2  1  0.33333300  0.66666700  0.50000000  1
  Hf  Hf3  1  0.66666700  0.33333300  0.50000000  1
  Zr  Zr0  1  0.73621605  0.73621605  0.75000000  1
  Zr  Zr1  1  0.26378395  0.00000000  0.75000000  1
  Zr  Zr2  1  0.00000000  0.26378395  0.75000000  1
  Zr  Zr3  1  0.26378395  0.26378395  0.25000000  1
  Zr  Zr4  1  0.73621605  1.00000000  0.25000000  1
  Zr  Zr5  1  1.00000000  0.73621605  0.25000000  1
  Cu  Cu0  1  0.00000000  0.00000000  0.50000000  1
  Cu  Cu1  1  0.00000000  0.00000000  0.00000000  1
  Sb  Sb0  1  0.38598940  0.38598940  0.75000000  1
  Sb  Sb1  1  0.61401060  0.00000000  0.75000000  1
  Sb  Sb2  1  0.00000000  0.61401060  0.75000000  1
  Sb  Sb3  1  0.61401060  0.61401060  0.25000000  1
  Sb  Sb4  1  0.38598940  1.00000000  0.25000000  1
  Sb  Sb5  1  1.00000000  0.38598940  0.25000000  1
loop_
_geom_bond_atom_site_label_1
_geom_bond_atom_site_label_2
_geom_bond_distance
_geom_bond_site_symmetry_2
Hf0 Sb1 3.030066 1_554
Hf0 Sb5 3.030067 1_555
Hf0 Sb4 3.030069 1_545
Hf0 Sb2 3.030069 1_654
Hf0 Sb3 3.030074 1_555
Hf0 Sb0 3.030074 1_554
Hf1 Sb4 3.030066 1_555
Hf1 Sb2 3.030067 1_554
Hf1 Sb1 3.030069 1_564
Hf1 Sb5 3.030069 1_455
Hf1 Sb0 3.030074 1_554
Hf1 Sb3 3.030074 1_555
Hf2 Sb4 3.030066 1_555
Hf2 Sb2 3.030067 1_555
Hf2 Sb1 3.030069 1_565
Hf2 Sb5 3.030069 1_455
Hf2 Sb0 3.030074 1_555
Hf2 Sb3 3.030074 1_555
Hf3 Sb1 3.030066 1_555
Hf3 Sb5 3.030067 1_555
Hf3 Sb4 3.030069 1_545
Hf3 Sb2 3.030069 1_655
Hf3 Sb3 3.030074 1_555
Hf3 Sb0 3.030074 1_555
Cu0 Zr2 2.685739 1_555
Cu0 Zr5 2.685739 1_445
Cu0 Zr1 2.685739 1_555
Cu0 Zr4 2.685739 1_445
Cu0 Zr3 2.685739 1_555
Cu0 Zr0 2.685739 1_445
Cu1 Zr2 2.685739 1_554
Cu1 Zr5 2.685739 1_445
Cu1 Zr1 2.685739 1_554
Cu1 Zr4 2.685739 1_445
Cu1 Zr3 2.685739 1_555
Cu1 Zr0 2.685739 1_444
Sb0 Zr1 2.930884 1_555
Sb0 Zr2 2.930884 1_555
Sb0 Zr0 3.004110 1_555
Sb0 Zr3 3.077899 1_555
Sb0 Zr3 3.077899 1_556
Sb1 Zr0 2.930884 1_545
Sb1 Zr2 2.930885 1_655
Sb1 Zr1 3.004109 1_555
Sb1 Zr4 3.077899 1_546
Sb1 Zr4 3.077899 1_545
Sb2 Zr0 2.930884 1_455
Sb2 Zr1 2.930884 1_565
Sb2 Zr2 3.004109 1_555
Sb2 Zr5 3.077899 1_456
Sb2 Zr5 3.077899 1_455
Sb3 Zr4 2.930884 1_555
Sb3 Zr5 2.930884 1_555
Sb3 Zr3 3.004110 1_555
Sb3 Zr0 3.077899 1_555
Sb3 Zr0 3.077899 1_554
Sb4 Zr3 2.930884 1_565
Sb4 Zr5 2.930885 1_455
Sb4 Zr4 3.004109 1_555
Sb4 Zr1 3.077899 1_564
Sb4 Zr1 3.077899 1_565
Sb5 Zr3 2.930884 1_655
Sb5 Zr4 2.930884 1_545
Sb5 Zr5 3.004109 1_555
Sb5 Zr2 3.077899 1_655
Sb5 Zr2 3.077899 1_654
