# generated using pymatgen
data_Rb2LiLuAs2
_symmetry_space_group_name_H-M   'P 1'
_cell_length_a   10.43286273
_cell_length_b   10.43286253
_cell_length_c   6.74355942
_cell_angle_alpha   90.00000000
_cell_angle_beta   90.00000000
_cell_angle_gamma   99.73817714
_symmetry_Int_Tables_number   1
_chemical_formula_structural   Rb2LiLuAs2
_chemical_formula_sum   'Rb8 Li4 Lu4 As8'
_cell_volume   723.42395903
_cell_formula_units_Z   4
loop_
 _symmetry_equiv_pos_site_id
 _symmetry_equiv_pos_as_xyz
  1  'x, y, z'
loop_
 _atom_site_type_symbol
 _atom_site_label
 _atom_site_symmetry_multiplicity
 _atom_site_fract_x
 _atom_site_fract_y
 _atom_site_fract_z
 _atom_site_occupancy
  Rb  Rb0  1  0.56759608  0.93240392  0.75000000  1
  Rb  Rb1  1  0.93240392  0.56759608  0.25000000  1
  Rb  Rb2  1  0.43240392  0.06759608  0.25000000  1
  Rb  Rb3  1  0.06759608  0.43240392  0.75000000  1
  Rb  Rb4  1  0.67850895  0.32149105  0.79042986  1
  Rb  Rb5  1  0.82149105  0.17850895  0.29042986  1
  Rb  Rb6  1  0.32149105  0.67850895  0.20957014  1
  Rb  Rb7  1  0.17850895  0.82149105  0.70957014  1
  Li  Li0  1  0.61795506  0.61795506  0.00000000  1
  Li  Li1  1  0.88204494  0.88204494  0.50000000  1
  Li  Li2  1  0.38204494  0.38204494  0.00000000  1
  Li  Li3  1  0.11795506  0.11795506  0.50000000  1
  Lu  Lu0  1  0.86866451  0.86866451  0.00000000  1
  Lu  Lu1  1  0.63133549  0.63133549  0.50000000  1
  Lu  Lu2  1  0.13133549  0.13133549  0.00000000  1
  Lu  Lu3  1  0.36866451  0.36866451  0.50000000  1
  As  As0  1  0.34075185  0.15924815  0.75000000  1
  As  As1  1  0.15924815  0.34075185  0.25000000  1
  As  As2  1  0.65924815  0.84075185  0.25000000  1
  As  As3  1  0.84075185  0.65924815  0.75000000  1
  As  As4  1  0.91007171  0.08992829  0.76951935  1
  As  As5  1  0.58992829  0.41007171  0.26951935  1
  As  As6  1  0.08992829  0.91007171  0.23048065  1
  As  As7  1  0.41007171  0.58992829  0.73048065  1
loop_
_geom_bond_atom_site_label_1
_geom_bond_atom_site_label_2
_geom_bond_distance
_geom_bond_site_symmetry_2
As0 Lu3 2.735909 1_555
As0 Lu2 2.735909 1_556
As0 Li2 2.844633 1_556
As0 Li3 2.844633 1_555
As0 Rb0 3.618934 1_545
As0 Rb7 3.652211 1_545
As0 Rb4 3.652211 1_555
As0 Rb2 3.675162 1_556
As0 Rb2 3.675162 1_555
As1 Lu2 2.735909 1_555
As1 Lu3 2.735909 1_555
As1 Li3 2.844633 1_555
As1 Li2 2.844633 1_555
As1 Rb1 3.618934 1_455
As1 Rb6 3.652211 1_555
As1 Rb5 3.652211 1_455
As1 Rb3 3.675162 1_555
As1 Rb3 3.675162 1_554
As2 Lu1 2.735909 1_555
As2 Lu0 2.735909 1_555
As2 Li0 2.844633 1_555
As2 Li1 2.844633 1_555
As2 Rb2 3.618934 1_565
As2 Rb5 3.652211 1_565
As2 Rb6 3.652211 1_555
As2 Rb0 3.675162 1_554
As2 Rb0 3.675162 1_555
As3 Lu0 2.735909 1_556
As3 Lu1 2.735909 1_555
As3 Li1 2.844633 1_555
As3 Li0 2.844633 1_556
As3 Rb3 3.618934 1_655
As3 Rb4 3.652211 1_555
As3 Rb7 3.652211 1_655
As3 Rb1 3.675162 1_555
As3 Rb1 3.675162 1_556
As4 Lu0 2.755679 1_546
As4 Lu2 2.755679 1_656
As4 Li1 2.806798 1_545
As4 Li3 2.806798 1_655
As4 Rb5 3.526314 1_555
As4 Rb3 3.673974 1_655
As4 Rb0 3.673974 1_545
As4 Rb4 3.696901 1_555
As4 Rb5 3.786387 1_556
As5 Lu1 2.755679 1_555
As5 Lu3 2.755679 1_555
As5 Li0 2.806798 1_555
As5 Li2 2.806798 1_555
As5 Rb4 3.526314 1_554
As5 Rb2 3.673974 1_555
As5 Rb1 3.673974 1_555
As5 Rb5 3.696901 1_555
As5 Rb4 3.786387 1_555
As6 Lu2 2.755679 1_565
As6 Lu0 2.755679 1_455
As6 Li3 2.806798 1_565
As6 Li1 2.806798 1_455
As6 Rb7 3.526314 1_555
As6 Rb1 3.673974 1_455
As6 Rb2 3.673974 1_565
As6 Rb6 3.696901 1_555
As6 Rb7 3.786387 1_554
As7 Lu3 2.755679 1_555
As7 Lu1 2.755679 1_555
As7 Li2 2.806798 1_556
As7 Li0 2.806798 1_556
As7 Rb6 3.526314 1_556
As7 Rb0 3.673974 1_555
As7 Rb3 3.673974 1_555
As7 Rb7 3.696901 1_555
As7 Rb6 3.786387 1_555
