# generated using pymatgen
data_YRhF7
_symmetry_space_group_name_H-M   'P 1'
_cell_length_a   5.47120764
_cell_length_b   8.74408730
_cell_length_c   11.70478608
_cell_angle_alpha   62.87276562
_cell_angle_beta   90.00000000
_cell_angle_gamma   90.00000000
_symmetry_Int_Tables_number   1
_chemical_formula_structural   YRhF7
_chemical_formula_sum   'Y4 Rh4 F28'
_cell_volume   498.36702764
_cell_formula_units_Z   4
loop_
 _symmetry_equiv_pos_site_id
 _symmetry_equiv_pos_as_xyz
  1  'x, y, z'
loop_
 _atom_site_type_symbol
 _atom_site_label
 _atom_site_symmetry_multiplicity
 _atom_site_fract_x
 _atom_site_fract_y
 _atom_site_fract_z
 _atom_site_occupancy
  Y  Y0  1  0.26620867  0.81180111  0.26560116  1
  Y  Y1  1  0.73379133  0.18819889  0.73439884  1
  Y  Y2  1  0.76620867  0.18819889  0.23439884  1
  Y  Y3  1  0.23379133  0.81180111  0.76560116  1
  Rh  Rh0  1  0.75662042  0.72720998  0.04391377  1
  Rh  Rh1  1  0.24337958  0.27279002  0.95608623  1
  Rh  Rh2  1  0.25662042  0.27279002  0.45608623  1
  Rh  Rh3  1  0.74337958  0.72720998  0.54391377  1
  F  F0  1  0.93344487  0.70718877  0.41601374  1
  F  F1  1  0.06655513  0.29281123  0.58398626  1
  F  F2  1  0.43344487  0.29281123  0.08398626  1
  F  F3  1  0.56655513  0.70718877  0.91601374  1
  F  F4  1  0.46155916  0.72692847  0.13684092  1
  F  F5  1  0.53844084  0.27307153  0.86315908  1
  F  F6  1  0.96155916  0.27307153  0.36315908  1
  F  F7  1  0.03844084  0.72692847  0.63684092  1
  F  F8  1  0.94442489  0.74671461  0.17376207  1
  F  F9  1  0.05557511  0.25328539  0.82623793  1
  F  F10  1  0.44442489  0.25328539  0.32623793  1
  F  F11  1  0.55557511  0.74671461  0.67376207  1
  F  F12  1  0.76332928  0.48428130  0.14125401  1
  F  F13  1  0.23667072  0.51571870  0.85874599  1
  F  F14  1  0.26332928  0.51571870  0.35874599  1
  F  F15  1  0.73667072  0.48428130  0.64125401  1
  F  F16  1  0.94195489  0.28100755  0.04275616  1
  F  F17  1  0.05804511  0.71899245  0.95724384  1
  F  F18  1  0.44195489  0.71899245  0.45724384  1
  F  F19  1  0.55804511  0.28100755  0.54275616  1
  F  F20  1  0.74396749  0.96996314  0.45138177  1
  F  F21  1  0.25603251  0.03003686  0.54861823  1
  F  F22  1  0.24396749  0.03003686  0.04861823  1
  F  F23  1  0.75603251  0.96996314  0.95138177  1
  F  F24  1  0.59337596  0.96947533  0.22879000  1
  F  F25  1  0.40662404  0.03052467  0.77121000  1
  F  F26  1  0.09337596  0.03052467  0.27121000  1
  F  F27  1  0.90662404  0.96947533  0.72879000  1
loop_
_geom_bond_atom_site_label_1
_geom_bond_atom_site_label_2
_geom_bond_distance
_geom_bond_site_symmetry_2
F0 Rh3 1.895297 1_555
F0 Y0 2.404644 1_655
F1 Rh2 1.895297 1_555
F1 Y1 2.404644 1_455
F2 Rh1 1.895297 1_554
F2 Y2 2.404644 1_555
F3 Rh0 1.895297 1_556
F3 Y3 2.404644 1_555
F4 Rh0 1.945954 1_555
F4 Y0 2.232592 1_555
F5 Rh1 1.945954 1_555
F5 Y1 2.232592 1_555
F6 Rh2 1.945954 1_655
F6 Y2 2.232592 1_555
F7 Rh3 1.945954 1_455
F7 Y3 2.232592 1_555
F8 Rh0 1.905570 1_555
F8 Y0 2.266464 1_655
F9 Rh1 1.905570 1_555
F9 Y1 2.266464 1_455
F10 Rh2 1.905570 1_555
F10 Y2 2.266464 1_555
F11 Rh3 1.905570 1_555
F11 Y3 2.266464 1_555
F12 Rh0 1.898574 1_555
F12 Y2 2.305994 1_555
F13 Rh1 1.898574 1_555
F13 Y3 2.305994 1_555
F14 Rh2 1.898574 1_555
F14 Y0 2.305994 1_555
F15 Rh3 1.898574 1_555
F15 Y1 2.305994 1_555
F16 Rh1 1.954603 1_654
F16 Y2 2.225926 1_555
F17 Rh0 1.954603 1_456
F17 Y3 2.225926 1_555
F18 Rh3 1.954603 1_555
F18 Y0 2.225926 1_555
F19 Rh2 1.954603 1_555
F19 Y1 2.225926 1_555
F20 Rh3 1.892667 1_555
F20 Y2 2.384717 1_565
F21 Rh2 1.892667 1_555
F21 Y3 2.384717 1_545
F22 Rh1 1.892667 1_554
F22 Y0 2.384717 1_545
F23 Rh0 1.892667 1_556
F23 Y1 2.384717 1_565
F24 Y2 2.161198 1_565
F24 Y0 2.179192 1_555
F25 Y3 2.161198 1_545
F25 Y1 2.179192 1_555
F26 Y0 2.161198 1_545
F26 Y2 2.179192 1_455
F27 Y1 2.161198 1_565
F27 Y3 2.179192 1_655
