# generated using pymatgen
data_CeTlPd
_symmetry_space_group_name_H-M   'P 1'
_cell_length_a   7.93215427
_cell_length_b   7.93244848
_cell_length_c   3.95594905
_cell_angle_alpha   90.00000000
_cell_angle_beta   90.00000000
_cell_angle_gamma   120.01344272
_symmetry_Int_Tables_number   1
_chemical_formula_structural   CeTlPd
_chemical_formula_sum   'Ce3 Tl3 Pd3'
_cell_volume   215.53653116
_cell_formula_units_Z   3
loop_
 _symmetry_equiv_pos_site_id
 _symmetry_equiv_pos_as_xyz
  1  'x, y, z'
loop_
 _atom_site_type_symbol
 _atom_site_label
 _atom_site_symmetry_multiplicity
 _atom_site_fract_x
 _atom_site_fract_y
 _atom_site_fract_z
 _atom_site_occupancy
  Ce  Ce0  1  0.59266036  -0.00019968  0.50000000  1
  Ce  Ce1  1  0.40811389  0.40810482  0.50000000  1
  Ce  Ce2  1  0.00022789  0.59298169  0.50000000  1
  Tl  Tl0  1  0.25961316  -0.00037622  0.00000000  1
  Tl  Tl1  1  0.73968014  0.73962953  -0.00000000  1
  Tl  Tl2  1  -0.00010438  0.26007040  -0.00000000  1
  Pd  Pd0  1  0.33321623  0.66678089  -0.00000000  1
  Pd  Pd1  1  0.66699164  0.33349821  0.00000000  1
  Pd  Pd2  1  -0.00039892  -0.00048964  0.50000000  1
loop_
_geom_bond_atom_site_label_1
_geom_bond_atom_site_label_2
_geom_bond_distance
_geom_bond_site_symmetry_2
Ce0 Pd0 3.112442 1_546
Ce0 Pd0 3.112442 1_545
Ce0 Pd1 3.115365 1_556
Ce0 Pd1 3.115365 1_555
Ce0 Pd2 3.229068 1_655
Ce0 Tl0 3.299651 1_555
Ce0 Tl0 3.299651 1_556
Ce0 Tl2 3.455080 1_655
Ce0 Tl2 3.455080 1_656
Ce0 Tl1 3.455335 1_545
Ce0 Tl1 3.455335 1_546
Ce1 Pd1 3.113691 1_555
Ce1 Pd1 3.113691 1_556
Ce1 Pd0 3.113731 1_555
Ce1 Pd0 3.113731 1_556
Ce1 Pd2 3.240112 1_555
Ce1 Tl1 3.290296 1_556
Ce1 Tl1 3.290296 1_555
Ce1 Tl2 3.460111 1_555
Ce1 Tl2 3.460111 1_556
Ce1 Tl0 3.461330 1_556
Ce1 Tl0 3.461330 1_555
Ce2 Pd0 3.112034 1_555
Ce2 Pd0 3.112034 1_556
Ce2 Pd1 3.113374 1_456
Ce2 Pd1 3.113374 1_455
Ce2 Pd2 3.227258 1_565
Ce2 Tl2 3.298372 1_555
Ce2 Tl2 3.298372 1_556
Ce2 Tl0 3.451246 1_565
Ce2 Tl0 3.451246 1_566
Ce2 Tl1 3.455719 1_455
Ce2 Tl1 3.455719 1_456
Pd0 Tl0 2.975553 1_565
Pd0 Tl1 2.977431 1_555
Pd0 Tl2 2.977499 1_555
Pd1 Tl2 2.975059 1_655
Pd1 Tl1 2.975397 1_555
Pd1 Tl0 2.982364 1_555
Pd2 Tl1 2.856729 1_446
Pd2 Tl1 2.856729 1_445
Pd2 Tl0 2.857316 1_555
Pd2 Tl0 2.857316 1_556
Pd2 Tl2 2.859991 1_555
Pd2 Tl2 2.859991 1_556
