# generated using pymatgen
data_Ba3ZnPtO6
_symmetry_space_group_name_H-M   'P 1'
_cell_length_a   7.02512999
_cell_length_b   7.02512975
_cell_length_c   7.02513055
_cell_angle_alpha   92.87534513
_cell_angle_beta   92.87534975
_cell_angle_gamma   92.87534984
_symmetry_Int_Tables_number   1
_chemical_formula_structural   Ba3ZnPtO6
_chemical_formula_sum   'Ba6 Zn2 Pt2 O12'
_cell_volume   345.35233370
_cell_formula_units_Z   2
loop_
 _symmetry_equiv_pos_site_id
 _symmetry_equiv_pos_as_xyz
  1  'x, y, z'
loop_
 _atom_site_type_symbol
 _atom_site_label
 _atom_site_symmetry_multiplicity
 _atom_site_fract_x
 _atom_site_fract_y
 _atom_site_fract_z
 _atom_site_occupancy
  Ba  Ba0  1  0.25000000  0.61255475  0.88744525  1
  Ba  Ba1  1  0.88744525  0.25000000  0.61255475  1
  Ba  Ba2  1  0.61255475  0.88744525  0.25000000  1
  Ba  Ba3  1  0.75000000  0.38744525  0.11255475  1
  Ba  Ba4  1  0.11255475  0.75000000  0.38744525  1
  Ba  Ba5  1  0.38744525  0.11255475  0.75000000  1
  Zn  Zn0  1  0.75000000  0.75000000  0.75000000  1
  Zn  Zn1  1  0.25000000  0.25000000  0.25000000  1
  Pt  Pt0  1  0.50000000  0.50000000  0.50000000  1
  Pt  Pt1  1  0.00000000  0.00000000  0.00000000  1
  O  O0  1  0.09863909  0.27567423  0.96907181  1
  O  O1  1  0.96907181  0.09863909  0.27567423  1
  O  O2  1  0.27567423  0.96907181  0.09863909  1
  O  O3  1  0.40136091  0.53092819  0.22432577  1
  O  O4  1  0.22432577  0.40136091  0.53092819  1
  O  O5  1  0.53092819  0.22432577  0.40136091  1
  O  O6  1  0.90136091  0.72432577  0.03092819  1
  O  O7  1  0.03092819  0.90136091  0.72432577  1
  O  O8  1  0.72432577  0.03092819  0.90136091  1
  O  O9  1  0.59863909  0.46907181  0.77567423  1
  O  O10  1  0.46907181  0.77567423  0.59863909  1
  O  O11  1  0.77567423  0.59863909  0.46907181  1
loop_
_geom_bond_atom_site_label_1
_geom_bond_atom_site_label_2
_geom_bond_distance
_geom_bond_site_symmetry_2
Ba0 O0 2.646751 1_555
Ba0 O3 2.646751 1_556
Ba0 O9 2.827111 1_555
Ba0 O6 2.827112 1_456
Ba0 O2 2.839318 1_556
Ba0 O4 2.839318 1_555
Ba0 O7 2.857926 1_555
Ba0 O10 2.857926 1_555
Ba1 O4 2.646751 1_655
Ba1 O1 2.646752 1_555
Ba1 O11 2.827111 1_555
Ba1 O7 2.827111 1_645
Ba1 O5 2.839318 1_555
Ba1 O0 2.839318 1_655
Ba1 O8 2.857926 1_555
Ba1 O9 2.857926 1_555
Ba2 O2 2.646751 1_555
Ba2 O5 2.646751 1_565
Ba2 O8 2.827112 1_564
Ba2 O10 2.827112 1_555
Ba2 O3 2.839318 1_555
Ba2 O1 2.839318 1_565
Ba2 O11 2.857926 1_555
Ba2 O6 2.857926 1_555
Ba3 O6 2.646751 1_555
Ba3 O9 2.646751 1_554
Ba3 O3 2.827111 1_555
Ba3 O0 2.827112 1_654
Ba3 O8 2.839318 1_554
Ba3 O11 2.839318 1_555
Ba3 O1 2.857926 1_555
Ba3 O5 2.857926 1_555
Ba4 O11 2.646751 1_455
Ba4 O7 2.646752 1_555
Ba4 O4 2.827111 1_555
Ba4 O1 2.827111 1_465
Ba4 O10 2.839318 1_555
Ba4 O6 2.839318 1_455
Ba4 O2 2.857926 1_555
Ba4 O3 2.857926 1_555
Ba5 O8 2.646751 1_555
Ba5 O10 2.646751 1_545
Ba5 O2 2.827112 1_546
Ba5 O5 2.827112 1_555
Ba5 O9 2.839318 1_555
Ba5 O7 2.839318 1_545
Ba5 O4 2.857926 1_555
Ba5 O0 2.857926 1_555
O0 Pt1 2.049555 1_556
O0 Zn1 2.214169 1_556
O1 Pt1 2.049555 1_655
O1 Zn1 2.214169 1_655
O2 Pt1 2.049555 1_565
O2 Zn1 2.214169 1_565
O3 Pt0 2.049555 1_555
O3 Zn1 2.214169 1_555
O4 Pt0 2.049555 1_555
O4 Zn1 2.214169 1_555
O5 Pt0 2.049555 1_555
O5 Zn1 2.214169 1_555
O6 Pt1 2.049555 1_665
O6 Zn0 2.214169 1_554
O7 Pt1 2.049555 1_566
O7 Zn0 2.214169 1_455
O8 Pt1 2.049555 1_656
O8 Zn0 2.214169 1_545
O9 Pt0 2.049555 1_555
O9 Zn0 2.214169 1_555
O10 Pt0 2.049555 1_555
O10 Zn0 2.214169 1_555
O11 Pt0 2.049555 1_555
O11 Zn0 2.214169 1_555
