# generated using pymatgen
data_LiIn2(Ni10P3)2
_symmetry_space_group_name_H-M   'P 1'
_cell_length_a   7.79318761
_cell_length_b   7.79318729
_cell_length_c   7.79318745
_cell_angle_alpha   59.99999514
_cell_angle_beta   59.99999650
_cell_angle_gamma   60.00000110
_symmetry_Int_Tables_number   1
_chemical_formula_structural   LiIn2(Ni10P3)2
_chemical_formula_sum   'Li1 In2 Ni20 P6'
_cell_volume   334.68045095
_cell_formula_units_Z   1
loop_
 _symmetry_equiv_pos_site_id
 _symmetry_equiv_pos_as_xyz
  1  'x, y, z'
loop_
 _atom_site_type_symbol
 _atom_site_label
 _atom_site_symmetry_multiplicity
 _atom_site_fract_x
 _atom_site_fract_y
 _atom_site_fract_z
 _atom_site_occupancy
  Li  Li0  1  0.00000000  0.00000000  0.00000000  1
  In  In0  1  0.75000000  0.75000000  0.75000000  1
  In  In1  1  0.25000000  0.25000000  0.25000000  1
  Ni  Ni0  1  0.38478336  0.84564792  0.38478336  1
  Ni  Ni1  1  0.38478336  0.38478336  0.84564792  1
  Ni  Ni2  1  0.34943445  0.00000000  0.65056555  1
  Ni  Ni3  1  0.00000000  0.34943445  0.65056555  1
  Ni  Ni4  1  0.15435208  0.61521664  0.61521664  1
  Ni  Ni5  1  0.65056555  1.00000000  0.00000000  1
  Ni  Ni6  1  0.84564792  0.38478336  0.38478336  1
  Ni  Ni7  1  0.65056555  0.34943445  1.00000000  1
  Ni  Ni8  1  0.00000000  0.34943445  1.00000000  1
  Ni  Ni9  1  0.34943445  0.65056555  0.00000000  1
  Ni  Ni10  1  1.00000000  1.00000000  0.34943445  1
  Ni  Ni11  1  0.61521664  0.15435208  0.61521664  1
  Ni  Ni12  1  0.65056555  1.00000000  0.34943445  1
  Ni  Ni13  1  1.00000000  0.65056555  0.00000000  1
  Ni  Ni14  1  0.61521664  0.61521664  0.15435208  1
  Ni  Ni15  1  1.00000000  0.65056555  0.34943445  1
  Ni  Ni16  1  0.34943445  0.00000000  1.00000000  1
  Ni  Ni17  1  0.00000000  0.00000000  0.65056555  1
  Ni  Ni18  1  0.38478336  0.38478336  0.38478336  1
  Ni  Ni19  1  0.61521664  0.61521664  0.61521664  1
  P  P0  1  0.26208822  0.26208822  0.73791178  1
  P  P1  1  0.26208822  0.73791178  0.26208822  1
  P  P2  1  0.73791178  0.26208822  0.26208822  1
  P  P3  1  0.26208822  0.73791178  0.73791178  1
  P  P4  1  0.73791178  0.26208822  0.73791178  1
  P  P5  1  0.73791178  0.73791178  0.26208822  1
loop_
_geom_bond_atom_site_label_1
_geom_bond_atom_site_label_2
_geom_bond_distance
_geom_bond_site_symmetry_2
Li0 Ni3 2.723208 1_554
Li0 Ni15 2.723208 1_445
Li0 Ni2 2.723208 1_554
Li0 Ni12 2.723208 1_445
Li0 Ni8 2.723208 1_554
Li0 Ni13 2.723208 1_445
Li0 Ni10 2.723208 1_445
Li0 Ni17 2.723208 1_554
Li0 Ni7 2.723208 1_454
Li0 Ni9 2.723208 1_545
Li0 Ni16 2.723208 1_554
Li0 Ni5 2.723208 1_445
Li0 P0 2.888535 1_554
Li0 P5 2.888535 1_445
Li0 P3 2.888535 1_544
Li0 P1 2.888535 1_545
Li0 P2 2.888535 1_455
Li0 P4 2.888535 1_454
In0 Ni19 2.572924 1_555
In0 Ni14 2.572937 1_556
In0 Ni11 2.572937 1_565
In0 Ni4 2.572937 1_655
In0 Ni10 2.994754 1_555
In0 Ni7 2.994754 1_555
In0 Ni9 2.994754 1_556
In0 Ni12 2.994755 1_555
In0 Ni17 2.994755 1_665
In0 Ni8 2.994755 1_655
In0 Ni15 2.994755 1_555
In0 Ni3 2.994755 1_655
In0 Ni16 2.994755 1_565
In0 Ni5 2.994755 1_556
In0 Ni13 2.994755 1_556
In0 Ni2 2.994755 1_565
In1 Ni18 2.572924 1_555
In1 Ni1 2.572937 1_554
In1 Ni0 2.572937 1_545
In1 Ni6 2.572937 1_455
In1 Ni17 2.994754 1_555
In1 Ni9 2.994754 1_555
In1 Ni7 2.994754 1_554
In1 Ni2 2.994755 1_555
In1 Ni10 2.994755 1_445
In1 Ni13 2.994755 1_455
In1 Ni3 2.994755 1_555
In1 Ni15 2.994755 1_455
In1 Ni5 2.994755 1_545
In1 Ni16 2.994755 1_554
In1 Ni8 2.994755 1_554
In1 Ni12 2.994755 1_545
Ni0 P1 2.247990 1_555
Ni0 P3 2.248003 1_555
Ni0 P5 2.248003 1_555
Ni1 P0 2.247990 1_555
Ni1 P3 2.248003 1_555
Ni1 P4 2.248003 1_555
Ni2 P3 2.152946 1_545
Ni2 P0 2.152946 1_555
Ni3 P4 2.152946 1_455
Ni3 P0 2.152946 1_555
Ni4 P3 2.247990 1_555
Ni4 P1 2.248003 1_555
Ni4 P0 2.248003 1_555
Ni5 P4 2.152946 1_564
Ni5 P5 2.152946 1_555
Ni6 P2 2.247990 1_555
Ni6 P4 2.248003 1_555
Ni6 P5 2.248003 1_555
Ni7 P4 2.152946 1_555
Ni7 P2 2.152946 1_556
Ni8 P2 2.152946 1_456
Ni8 P0 2.152946 1_555
Ni9 P1 2.152946 1_555
Ni9 P3 2.152946 1_554
Ni10 P1 2.152946 1_655
Ni10 P2 2.152946 1_565
Ni11 P4 2.247990 1_555
Ni11 P2 2.248003 1_555
Ni11 P0 2.248003 1_555
Ni12 P2 2.152946 1_565
Ni12 P5 2.152946 1_555
Ni13 P3 2.152946 1_654
Ni13 P5 2.152946 1_555
Ni14 P5 2.247990 1_555
Ni14 P2 2.248003 1_555
Ni14 P1 2.248003 1_555
Ni15 P1 2.152946 1_655
Ni15 P5 2.152946 1_555
Ni16 P1 2.152946 1_546
Ni16 P0 2.152946 1_555
Ni17 P4 2.152946 1_455
Ni17 P3 2.152946 1_545
Ni18 P0 2.248003 1_555
Ni18 P1 2.248003 1_555
Ni18 P2 2.248003 1_555
Ni19 P5 2.248003 1_555
Ni19 P4 2.248003 1_555
Ni19 P3 2.248003 1_555
