# generated using pymatgen
data_Li3GaP2
_symmetry_space_group_name_H-M   'P 1'
_cell_length_a   4.02581679
_cell_length_b   4.02581679
_cell_length_c   5.88438503
_cell_angle_alpha   90.00000000
_cell_angle_beta   90.00000000
_cell_angle_gamma   90.00000000
_symmetry_Int_Tables_number   1
_chemical_formula_structural   Li3GaP2
_chemical_formula_sum   'Li3 Ga1 P2'
_cell_volume   95.36940984
_cell_formula_units_Z   1
loop_
 _symmetry_equiv_pos_site_id
 _symmetry_equiv_pos_as_xyz
  1  'x, y, z'
loop_
 _atom_site_type_symbol
 _atom_site_label
 _atom_site_symmetry_multiplicity
 _atom_site_fract_x
 _atom_site_fract_y
 _atom_site_fract_z
 _atom_site_occupancy
  Li  Li0  1  0.50000000  0.50000000  0.00000000  1
  Li  Li1  1  0.00000000  0.00000000  0.00000000  1
  Li  Li2  1  0.50000000  0.50000000  0.50000000  1
  Ga  Ga0  1  0.00000000  0.00000000  0.50000000  1
  P  P0  1  0.00000000  0.50000000  0.26166109  1
  P  P1  1  0.50000000  0.00000000  0.73833891  1
loop_
_geom_bond_atom_site_label_1
_geom_bond_atom_site_label_2
_geom_bond_distance
_geom_bond_site_symmetry_2
Li0 P0 2.534269 1_655
Li0 P0 2.534269 1_555
Li0 P1 2.534269 1_554
Li0 P1 2.534269 1_564
Li1 P0 2.534269 1_555
Li1 P0 2.534269 1_545
Li1 P1 2.534269 1_554
Li1 P1 2.534269 1_454
Li2 P1 2.453313 1_565
Li2 P1 2.453313 1_555
Li2 P0 2.453313 1_555
Li2 P0 2.453313 1_655
Ga0 P1 2.453313 1_555
Ga0 P1 2.453313 1_455
Ga0 P0 2.453313 1_545
Ga0 P0 2.453313 1_555
Ga0 Li2 2.846682 1_455
Ga0 Li2 2.846682 1_555
Ga0 Li2 2.846682 1_445
Ga0 Li2 2.846682 1_545
Ga0 Li1 2.942193 1_555
Ga0 Li1 2.942193 1_556
