# generated using pymatgen
data_Rb2Ag(ClF)2
_symmetry_space_group_name_H-M   'P 1'
_cell_length_a   8.38029078
_cell_length_b   8.38029020
_cell_length_c   6.57281474
_cell_angle_alpha   90.00000000
_cell_angle_beta   90.00000000
_cell_angle_gamma   133.81984831
_symmetry_Int_Tables_number   1
_chemical_formula_structural   Rb2Ag(ClF)2
_chemical_formula_sum   'Rb4 Ag2 Cl4 F4'
_cell_volume   333.05668909
_cell_formula_units_Z   2
loop_
 _symmetry_equiv_pos_site_id
 _symmetry_equiv_pos_as_xyz
  1  'x, y, z'
loop_
 _atom_site_type_symbol
 _atom_site_label
 _atom_site_symmetry_multiplicity
 _atom_site_fract_x
 _atom_site_fract_y
 _atom_site_fract_z
 _atom_site_occupancy
  Rb  Rb0  1  0.12151861  0.87848139  0.50000000  1
  Rb  Rb1  1  0.62151861  0.37848139  0.00000000  1
  Rb  Rb2  1  0.87848139  0.12151861  0.50000000  1
  Rb  Rb3  1  0.37848139  0.62151861  0.00000000  1
  Ag  Ag0  1  0.00000000  0.00000000  0.00000000  1
  Ag  Ag1  1  0.50000000  0.50000000  0.50000000  1
  Cl  Cl0  1  0.16001971  0.83998029  0.00000000  1
  Cl  Cl1  1  0.83998029  0.16001971  0.00000000  1
  Cl  Cl2  1  0.66001971  0.33998029  0.50000000  1
  Cl  Cl3  1  0.33998029  0.66001971  0.50000000  1
  F  F0  1  0.22855483  0.22855483  0.22884012  1
  F  F1  1  0.77144517  0.77144517  0.77115988  1
  F  F2  1  0.72855483  0.72855483  0.27115988  1
  F  F3  1  0.27144517  0.27144517  0.72884012  1
loop_
_geom_bond_atom_site_label_1
_geom_bond_atom_site_label_2
_geom_bond_distance
_geom_bond_site_symmetry_2
Ag0 F0 2.125877 1_555
Ag0 F1 2.125877 1_444
Ag0 Cl1 2.467165 1_455
Ag0 Cl0 2.467165 1_545
Ag0 F2 2.521916 1_445
Ag0 F3 2.521916 1_554
Ag1 F3 2.125877 1_555
Ag1 F2 2.125877 1_555
Ag1 Cl2 2.467165 1_555
Ag1 Cl3 2.467165 1_555
Ag1 F1 2.521916 1_555
Ag1 F0 2.521916 1_555
Cl0 Rb0 3.339587 1_554
Cl0 Rb0 3.339587 1_555
Cl0 Rb1 3.339741 1_565
Cl0 Rb1 3.339741 1_455
Cl0 Rb3 3.368216 1_555
Cl1 Rb2 3.339587 1_554
Cl1 Rb2 3.339587 1_555
Cl1 Rb3 3.339741 1_545
Cl1 Rb3 3.339741 1_655
Cl1 Rb1 3.368216 1_555
Cl2 Rb1 3.339587 1_555
Cl2 Rb1 3.339587 1_556
Cl2 Rb0 3.339741 1_655
Cl2 Rb0 3.339741 1_545
Cl2 Rb2 3.368216 1_555
Cl3 Rb3 3.339587 1_556
Cl3 Rb3 3.339587 1_555
Cl3 Rb2 3.339741 1_455
Cl3 Rb2 3.339741 1_565
Cl3 Rb0 3.368216 1_555
F0 Rb0 2.990606 1_545
F0 Rb2 2.990606 1_455
F0 Rb3 2.992681 1_555
F0 Rb1 2.992681 1_555
F1 Rb2 2.990606 1_565
F1 Rb0 2.990606 1_655
F1 Rb1 2.992681 1_556
F1 Rb3 2.992681 1_556
F2 Rb1 2.990606 1_555
F2 Rb3 2.990606 1_555
F2 Rb2 2.992681 1_565
F2 Rb0 2.992681 1_655
F3 Rb3 2.990606 1_556
F3 Rb1 2.990606 1_556
F3 Rb0 2.992681 1_545
F3 Rb2 2.992681 1_455
