# generated using pymatgen
data_V10(SiAs)3
_symmetry_space_group_name_H-M   'P 1'
_cell_length_a   9.41059416
_cell_length_b   7.07365952
_cell_length_c   7.05590681
_cell_angle_alpha   83.52135379
_cell_angle_beta   48.31994554
_cell_angle_gamma   48.15869168
_symmetry_Int_Tables_number   1
_chemical_formula_structural   V10(SiAs)3
_chemical_formula_sum   'V10 Si3 As3'
_cell_volume   210.15925151
_cell_formula_units_Z   1
loop_
 _symmetry_equiv_pos_site_id
 _symmetry_equiv_pos_as_xyz
  1  'x, y, z'
loop_
 _atom_site_type_symbol
 _atom_site_label
 _atom_site_symmetry_multiplicity
 _atom_site_fract_x
 _atom_site_fract_y
 _atom_site_fract_z
 _atom_site_occupancy
  V  V0  1  0.77941958  0.42617811  0.57382189  1
  V  V1  1  0.22212554  0.57257836  0.42742164  1
  V  V2  1  0.72362415  0.92404881  0.07595119  1
  V  V3  1  0.27876257  0.07610618  0.92389382  1
  V  V4  1  0.92404881  0.72362415  0.27637585  1
  V  V5  1  0.07610618  0.27876257  0.72123743  1
  V  V6  1  0.42617811  0.77941958  0.22058042  1
  V  V7  1  0.57257836  0.22212554  0.77787446  1
  V  V8  1  0.74577069  0.25064689  0.25422931  1
  V  V9  1  0.25064689  0.74577069  0.74935311  1
  Si  Si0  1  0.25043466  0.25043466  0.24956534  1
  Si  Si1  1  0.75043466  0.75043466  0.74956534  1
  Si  Si2  1  0.33399956  0.33399956  0.66600044  1
  As  As0  1  0.66558345  0.66558345  0.33441655  1
  As  As1  1  0.16580266  0.83448413  0.16551587  1
  As  As2  1  0.83448413  0.16580266  0.83419734  1
loop_
_geom_bond_atom_site_label_1
_geom_bond_atom_site_label_2
_geom_bond_distance
_geom_bond_site_symmetry_2
V8 V9 2.349958 1_555
V8 V9 2.396245 1_644
Si0 Si1 2.373101 1_455
Si0 Si1 2.373101 1_544
Si0 V1 2.495849 1_555
Si0 V7 2.495849 1_554
Si0 V6 2.496070 1_545
Si0 V0 2.496071 1_455
Si0 V5 2.501652 1_555
Si0 V3 2.501652 1_554
Si0 V4 2.515457 1_455
Si0 V2 2.515458 1_545
Si1 V7 2.495848 1_565
Si1 V1 2.495849 1_655
Si1 V0 2.496071 1_555
Si1 V6 2.496071 1_556
Si1 V5 2.501652 1_655
Si1 V3 2.501652 1_565
Si1 V4 2.515457 1_555
Si1 V2 2.515457 1_556
Si2 V1 2.477050 1_555
Si2 V7 2.477051 1_555
Si2 V3 2.483413 1_555
Si2 V5 2.483413 1_555
Si2 V9 2.483958 1_555
Si2 V8 2.483958 1_555
Si2 V2 2.724634 1_545
Si2 V4 2.724634 1_456
Si2 V4 2.724634 1_545
Si2 V2 2.724634 1_456
As0 V0 2.491928 1_555
As0 V6 2.491928 1_555
As0 V2 2.494394 1_555
As0 V4 2.494394 1_555
As0 V8 2.521205 1_555
As0 V9 2.521206 1_555
As0 V3 2.733121 1_565
As0 V5 2.733121 1_654
As0 V5 2.733121 1_565
As0 V3 2.733121 1_654
As1 V6 2.503046 1_555
As1 V4 2.505529 1_455
As1 V9 2.506603 1_554
As1 V8 2.506603 1_465
As1 V3 2.512748 1_564
As1 V1 2.519568 1_555
As1 V7 2.743086 1_554
As1 V7 2.743087 1_465
As1 V0 2.743103 1_465
As1 V0 2.743104 1_554
As2 V0 2.503045 1_555
As2 V2 2.505528 1_546
As2 V8 2.506603 1_556
As2 V9 2.506603 1_645
As2 V5 2.512748 1_655
As2 V7 2.519568 1_555
As2 V1 2.743086 1_645
As2 V1 2.743087 1_556
As2 V6 2.743103 1_556
As2 V6 2.743104 1_645
