# generated using pymatgen
data_Ce2Y2O7
_symmetry_space_group_name_H-M   'P 1'
_cell_length_a   3.75973900
_cell_length_b   7.79788800
_cell_length_c   10.90622500
_cell_angle_alpha   90.00000000
_cell_angle_beta   90.00000000
_cell_angle_gamma   90.00000000
_symmetry_Int_Tables_number   1
_chemical_formula_structural   Ce2Y2O7
_chemical_formula_sum   'Ce4 Y4 O14'
_cell_volume   319.74896228
_cell_formula_units_Z   2
loop_
 _symmetry_equiv_pos_site_id
 _symmetry_equiv_pos_as_xyz
  1  'x, y, z'
loop_
 _atom_site_type_symbol
 _atom_site_label
 _atom_site_symmetry_multiplicity
 _atom_site_fract_x
 _atom_site_fract_y
 _atom_site_fract_z
 _atom_site_occupancy
  Ce  Ce0  1  0.00000000  0.75000000  0.74552000  1
  Ce  Ce1  1  0.00000000  0.25000000  0.25448000  1
  Ce  Ce2  1  0.50000000  0.50000000  0.00000000  1
  Ce  Ce3  1  0.50000000  0.00000000  0.00000000  1
  Y  Y0  1  0.50000000  0.00000000  0.50000000  1
  Y  Y1  1  0.00000000  0.25000000  0.76917200  1
  Y  Y2  1  0.50000000  0.50000000  0.50000000  1
  Y  Y3  1  0.00000000  0.75000000  0.23082800  1
  O  O0  1  0.00000000  0.95623200  0.37452600  1
  O  O1  1  0.50000000  0.25000000  0.13472600  1
  O  O2  1  0.50000000  0.75000000  0.12649800  1
  O  O3  1  0.00000000  0.01131000  0.12239400  1
  O  O4  1  0.00000000  0.98869000  0.87760600  1
  O  O5  1  0.00000000  0.51131000  0.87760600  1
  O  O6  1  0.50000000  0.75000000  0.86527400  1
  O  O7  1  0.50000000  0.25000000  0.87350200  1
  O  O8  1  0.50000000  0.75000000  0.60811400  1
  O  O9  1  0.00000000  0.04376800  0.62547400  1
  O  O10  1  0.00000000  0.45623200  0.62547400  1
  O  O11  1  0.00000000  0.54376800  0.37452600  1
  O  O12  1  0.50000000  0.25000000  0.39188600  1
  O  O13  1  0.00000000  0.48869000  0.12239400  1
loop_
_geom_bond_atom_site_label_1
_geom_bond_atom_site_label_2
_geom_bond_distance
_geom_bond_site_symmetry_2
Ce0 O6 2.289042 1_455
Ce0 O6 2.289042 1_555
Ce0 O5 2.353629 1_555
Ce0 O4 2.353629 1_555
Ce0 O8 2.404091 1_455
Ce0 O8 2.404091 1_555
Ce0 O9 2.638515 1_565
Ce0 O10 2.638515 1_555
Ce1 O1 2.289042 1_455
Ce1 O1 2.289042 1_555
Ce1 O3 2.353629 1_555
Ce1 O13 2.353629 1_555
Ce1 O12 2.404091 1_555
Ce1 O12 2.404091 1_455
Ce1 O11 2.638515 1_555
Ce1 O0 2.638515 1_545
Ce2 O13 2.307277 1_555
Ce2 O13 2.307277 1_655
Ce2 O5 2.307277 1_654
Ce2 O5 2.307277 1_554
Ce2 O2 2.388259 1_555
Ce2 O7 2.388259 1_554
Ce2 O1 2.441196 1_555
Ce2 O6 2.441196 1_554
Ce3 O3 2.307277 1_555
Ce3 O3 2.307277 1_655
Ce3 O4 2.307277 1_544
Ce3 O4 2.307277 1_644
Ce3 O2 2.388259 1_545
Ce3 O7 2.388259 1_554
Ce3 O1 2.441196 1_555
Ce3 O6 2.441196 1_544
O0 Y3 2.245517 1_555
O0 Y0 2.350115 1_565
O0 Y0 2.350115 1_465
O2 Y3 2.197408 1_555
O2 Y3 2.197408 1_655
O3 Y3 2.355979 1_545
O4 Y1 2.355979 1_565
O5 Y1 2.355979 1_555
O7 Y1 2.197408 1_555
O7 Y1 2.197408 1_655
O8 Y0 2.278323 1_565
O8 Y2 2.278323 1_555
O9 Y1 2.245517 1_555
O9 Y0 2.350115 1_455
O9 Y0 2.350115 1_555
O10 Y1 2.245517 1_555
O10 Y2 2.350115 1_555
O10 Y2 2.350115 1_455
O11 Y3 2.245517 1_555
O11 Y2 2.350115 1_555
O11 Y2 2.350115 1_455
O12 Y2 2.278323 1_555
O12 Y0 2.278323 1_555
O13 Y3 2.355979 1_555
