# generated using pymatgen
data_Nb4Cu4Si4W
_symmetry_space_group_name_H-M   'P 1'
_cell_length_a   7.36531473
_cell_length_b   7.36531510
_cell_length_c   7.36531487
_cell_angle_alpha   93.44686058
_cell_angle_beta   93.44685198
_cell_angle_gamma   151.61277744
_symmetry_Int_Tables_number   1
_chemical_formula_structural   Nb4Cu4Si4W
_chemical_formula_sum   'Nb4 Cu4 Si4 W1'
_cell_volume   184.15957901
_cell_formula_units_Z   1
loop_
 _symmetry_equiv_pos_site_id
 _symmetry_equiv_pos_as_xyz
  1  'x, y, z'
loop_
 _atom_site_type_symbol
 _atom_site_label
 _atom_site_symmetry_multiplicity
 _atom_site_fract_x
 _atom_site_fract_y
 _atom_site_fract_z
 _atom_site_occupancy
  Nb  Nb0  1  0.12670522  0.80637062  0.93307584  1
  Nb  Nb1  1  0.19362938  0.12670522  0.32033461  1
  Nb  Nb2  1  0.80637062  0.87329478  0.67966539  1
  Nb  Nb3  1  0.87329478  0.19362938  0.06692416  1
  Cu  Cu0  1  0.39595164  0.91849553  0.31444718  1
  Cu  Cu1  1  0.60404836  0.08150447  0.68555282  1
  Cu  Cu2  1  0.91849553  0.60404836  0.52254389  1
  Cu  Cu3  1  0.08150447  0.39595164  0.47745611  1
  Si  Si0  1  0.24769187  0.55912081  0.80681268  1
  Si  Si1  1  0.44087919  0.24769187  0.68857206  1
  Si  Si2  1  0.55912081  0.75230813  0.31142794  1
  Si  Si3  1  0.75230813  0.44087919  0.19318732  1
  W  W0  1  0.50000000  0.50000000  0.00000000  1
loop_
_geom_bond_atom_site_label_1
_geom_bond_atom_site_label_2
_geom_bond_distance
_geom_bond_site_symmetry_2
Nb0 Si3 2.591371 1_566
Nb0 Si3 2.591371 1_456
Nb0 Si1 2.670929 1_565
Nb0 Si1 2.670931 1_455
Nb0 Si0 2.779657 1_555
Nb0 W0 2.953271 1_456
Nb0 W0 2.953272 1_566
Nb1 Si2 2.591370 1_445
Nb1 Si2 2.591373 1_555
Nb1 Si3 2.670934 1_555
Nb1 Si3 2.670934 1_445
Nb1 Si1 2.779664 1_555
Nb1 W0 2.953271 1_445
Nb1 W0 2.953272 1_555
Nb2 Si1 2.591370 1_665
Nb2 Si1 2.591373 1_555
Nb2 Si0 2.670934 1_555
Nb2 Si0 2.670934 1_665
Nb2 Si2 2.779664 1_555
Nb2 W0 2.953271 1_666
Nb2 W0 2.953272 1_556
Nb3 Si0 2.591371 1_544
Nb3 Si0 2.591371 1_654
Nb3 Si2 2.670929 1_545
Nb3 Si2 2.670931 1_655
Nb3 Si3 2.779657 1_555
Nb3 W0 2.953271 1_655
Nb3 W0 2.953272 1_545
Cu0 Si3 2.327373 1_455
Cu0 Si3 2.327374 1_565
Cu0 Si2 2.351860 1_555
Cu0 Cu3 2.612328 1_665
Cu0 Cu2 2.612328 1_455
Cu0 Cu2 2.612328 1_565
Cu0 Cu3 2.612328 1_555
Cu0 Cu1 2.669355 1_565
Cu0 Nb3 2.910344 1_565
Cu0 Nb3 2.910344 1_455
Cu0 Nb1 2.931693 1_565
Cu0 Nb0 2.945228 1_554
Cu1 Si0 2.327373 1_655
Cu1 Si0 2.327374 1_545
Cu1 Si1 2.351860 1_555
Cu1 Cu2 2.612328 1_445
Cu1 Cu3 2.612328 1_655
Cu1 Cu3 2.612328 1_545
Cu1 Cu2 2.612328 1_555
Cu1 Nb0 2.910344 1_545
Cu1 Nb0 2.910344 1_655
Cu1 Nb2 2.931693 1_545
Cu1 Nb3 2.945228 1_556
Cu2 Si1 2.327376 1_665
Cu2 Si1 2.327379 1_555
Cu2 Si3 2.351860 1_555
Cu2 Cu3 2.669355 1_655
Cu2 Nb1 2.910343 1_555
Cu2 Nb1 2.910344 1_665
Cu2 Nb0 2.931693 1_655
Cu2 Nb2 2.945228 1_555
Cu3 Si2 2.327376 1_445
Cu3 Si2 2.327379 1_555
Cu3 Si0 2.351860 1_555
Cu3 Nb2 2.910343 1_555
Cu3 Nb2 2.910344 1_445
Cu3 Nb3 2.931693 1_455
Cu3 Nb1 2.945228 1_555
Si0 W0 2.616857 1_556
Si1 W0 2.616851 1_556
Si2 W0 2.616851 1_555
Si3 W0 2.616857 1_555
