# generated using pymatgen
data_Ca8CdHg3Pb4
_symmetry_space_group_name_H-M   'P 1'
_cell_length_a   7.71944670
_cell_length_b   5.44650524
_cell_length_c   10.90073101
_cell_angle_alpha   90.00000000
_cell_angle_beta   89.99907152
_cell_angle_gamma   90.00000000
_symmetry_Int_Tables_number   1
_chemical_formula_structural   Ca8CdHg3Pb4
_chemical_formula_sum   'Ca8 Cd1 Hg3 Pb4'
_cell_volume   458.31040989
_cell_formula_units_Z   1
loop_
 _symmetry_equiv_pos_site_id
 _symmetry_equiv_pos_as_xyz
  1  'x, y, z'
loop_
 _atom_site_type_symbol
 _atom_site_label
 _atom_site_symmetry_multiplicity
 _atom_site_fract_x
 _atom_site_fract_y
 _atom_site_fract_z
 _atom_site_occupancy
  Ca  Ca0  1  0.99874626  0.75000000  0.12659467  1
  Ca  Ca1  1  0.50127557  0.75000000  0.12659946  1
  Ca  Ca2  1  0.00011317  0.25000000  0.37479630  1
  Ca  Ca3  1  0.49993848  0.25000000  0.37479981  1
  Ca  Ca4  1  0.50122684  0.75000000  0.62383338  1
  Ca  Ca5  1  0.99873270  0.75000000  0.62384374  1
  Ca  Ca6  1  0.50346380  0.25000000  0.87479041  1
  Ca  Ca7  1  0.99651590  0.25000000  0.87479104  1
  Cd  Cd0  1  0.25002252  0.75000000  0.87553115  1
  Hg  Hg0  1  0.75003449  0.25000000  0.12486638  1
  Hg  Hg1  1  0.25003992  0.75000000  0.37546418  1
  Hg  Hg2  1  0.74996586  0.25000000  0.62432302  1
  Pb  Pb0  1  0.24997459  0.25000000  0.12293269  1
  Pb  Pb1  1  0.74999107  0.75000000  0.37511472  1
  Pb  Pb2  1  0.24995960  0.25000000  0.62660475  1
  Pb  Pb3  1  0.74999922  0.75000000  0.87511531  1
loop_
_geom_bond_atom_site_label_1
_geom_bond_atom_site_label_2
_geom_bond_distance
_geom_bond_site_symmetry_2
Ca0 Pb1 3.320565 1_555
Ca0 Hg0 3.332048 1_565
Ca0 Hg0 3.332048 1_555
Ca0 Hg1 3.335084 1_655
Ca0 Pb0 3.343464 1_655
Ca0 Pb0 3.343464 1_665
Ca0 Pb3 3.346950 1_554
Ca0 Cd0 3.354439 1_654
Ca1 Pb1 3.320396 1_555
Ca1 Hg0 3.332258 1_555
Ca1 Hg0 3.332258 1_565
Ca1 Hg1 3.334730 1_555
Ca1 Pb0 3.343790 1_555
Ca1 Pb0 3.343790 1_565
Ca1 Pb3 3.346838 1_554
Ca1 Cd0 3.354429 1_554
Ca2 Hg2 3.335733 1_455
Ca2 Hg1 3.337416 1_555
Ca2 Hg1 3.337416 1_545
Ca2 Pb1 3.338281 1_455
Ca2 Pb1 3.338281 1_445
Ca2 Hg0 3.339063 1_455
Ca2 Pb2 3.354761 1_555
Ca2 Pb0 3.355268 1_555
Ca3 Hg2 3.335217 1_555
Ca3 Hg1 3.337289 1_555
Ca3 Hg1 3.337289 1_545
Ca3 Pb1 3.337971 1_545
Ca3 Pb1 3.337971 1_555
Ca3 Hg0 3.339120 1_555
Ca3 Pb2 3.355266 1_555
Ca3 Pb0 3.355805 1_555
Ca4 Pb1 3.322372 1_555
Ca4 Hg1 3.330170 1_555
Ca4 Hg2 3.332120 1_555
Ca4 Hg2 3.332120 1_565
Ca4 Pb2 3.343536 1_555
Ca4 Pb2 3.343536 1_565
Ca4 Pb3 3.345300 1_555
Ca4 Cd0 3.359761 1_555
Ca5 Pb1 3.322414 1_555
Ca5 Hg1 3.330751 1_655
Ca5 Hg2 3.332244 1_555
Ca5 Hg2 3.332244 1_565
Ca5 Pb2 3.343355 1_665
Ca5 Pb2 3.343355 1_655
Ca5 Pb3 3.344984 1_555
Ca5 Cd0 3.360101 1_655
Ca6 Pb3 3.322344 1_545
Ca6 Pb3 3.322344 1_555
Ca6 Hg0 3.324785 1_556
Ca6 Hg2 3.327931 1_555
Ca6 Pb0 3.338494 1_556
Ca6 Pb2 3.338996 1_555
Ca6 Cd0 3.353174 1_555
Ca6 Cd0 3.353174 1_545
Ca7 Pb3 3.322261 1_555
Ca7 Pb3 3.322261 1_545
Ca7 Hg0 3.324334 1_556
Ca7 Hg2 3.328199 1_555
Ca7 Pb0 3.338401 1_656
Ca7 Pb2 3.338676 1_655
Ca7 Cd0 3.353468 1_655
Ca7 Cd0 3.353468 1_645
