# generated using pymatgen
data_NiSb12Ru2Pt
_symmetry_space_group_name_H-M   'P 1'
_cell_length_a   8.02812527
_cell_length_b   8.03363733
_cell_length_c   9.29431954
_cell_angle_alpha   54.78879212
_cell_angle_beta   55.06728093
_cell_angle_gamma   70.79594167
_symmetry_Int_Tables_number   1
_chemical_formula_structural   NiSb12Ru2Pt
_chemical_formula_sum   'Ni1 Sb12 Ru2 Pt1'
_cell_volume   401.51661960
_cell_formula_units_Z   1
loop_
 _symmetry_equiv_pos_site_id
 _symmetry_equiv_pos_as_xyz
  1  'x, y, z'
loop_
 _atom_site_type_symbol
 _atom_site_label
 _atom_site_symmetry_multiplicity
 _atom_site_fract_x
 _atom_site_fract_y
 _atom_site_fract_z
 _atom_site_occupancy
  Ni  Ni0  1  0.50000000  0.00000000  0.50000000  1
  Sb  Sb0  1  0.15589737  0.15514331  0.17743935  1
  Sb  Sb1  1  0.84410263  0.84485669  0.82256065  1
  Sb  Sb2  1  0.83941299  0.85181335  0.49820093  1
  Sb  Sb3  1  0.16058701  0.14818665  0.50179907  1
  Sb  Sb4  1  0.81239722  0.50492756  0.33624617  1
  Sb  Sb5  1  0.18760278  0.49507244  0.66375383  1
  Sb  Sb6  1  0.50682804  0.81950474  0.33775995  1
  Sb  Sb7  1  0.49317196  0.18049526  0.66224005  1
  Sb  Sb8  1  0.65517131  0.33760723  0.85012698  1
  Sb  Sb9  1  0.34482869  0.66239277  0.14987302  1
  Sb  Sb10  1  0.66092212  0.33536725  0.15829445  1
  Sb  Sb11  1  0.33907788  0.66463275  0.84170555  1
  Ru  Ru0  1  0.00000000  0.50000000  0.00000000  1
  Ru  Ru1  1  0.50000000  0.00000000  0.00000000  1
  Pt  Pt0  1  0.00000000  0.50000000  0.50000000  1
loop_
_geom_bond_atom_site_label_1
_geom_bond_atom_site_label_2
_geom_bond_distance
_geom_bond_site_symmetry_2
Ni0 Sb2 2.584388 1_545
Ni0 Sb3 2.584388 1_555
Ni0 Sb11 2.595747 1_545
Ni0 Sb10 2.595747 1_555
Ni0 Sb7 2.598828 1_555
Ni0 Sb6 2.598828 1_545
Sb0 Sb2 2.881375 1_445
Sb0 Sb3 3.004544 1_555
Sb1 Sb3 2.881375 1_665
Sb1 Sb2 3.004544 1_555
Sb4 Sb6 2.885799 1_555
Sb4 Sb7 2.989341 1_555
Sb5 Sb7 2.885799 1_555
Sb5 Sb6 2.989341 1_555
Sb10 Sb8 2.880554 1_554
Sb10 Sb9 2.992046 1_555
Sb11 Sb9 2.880554 1_556
Sb11 Sb8 2.992046 1_555
Ru0 Sb5 2.598018 1_554
Ru0 Sb4 2.598018 1_455
Ru0 Sb0 2.602973 1_555
Ru0 Sb1 2.602973 1_454
Ru0 Sb11 2.619540 1_554
Ru0 Sb10 2.619540 1_455
Ru1 Sb8 2.593649 1_554
Ru1 Sb9 2.593649 1_545
Ru1 Sb0 2.606219 1_555
Ru1 Sb1 2.606219 1_544
Ru1 Sb6 2.618388 1_545
Ru1 Sb7 2.618388 1_554
Pt0 Sb4 2.665103 1_455
Pt0 Sb5 2.665103 1_555
Pt0 Sb9 2.668067 1_555
Pt0 Sb8 2.668067 1_455
Pt0 Sb2 2.687682 1_455
Pt0 Sb3 2.687682 1_555
