# generated using pymatgen
data_NbSe6BrF6
_symmetry_space_group_name_H-M   'P 1'
_cell_length_a   7.14982121
_cell_length_b   9.07966605
_cell_length_c   11.37191282
_cell_angle_alpha   61.59322164
_cell_angle_beta   90.00000000
_cell_angle_gamma   90.00000000
_symmetry_Int_Tables_number   1
_chemical_formula_structural   NbSe6BrF6
_chemical_formula_sum   'Nb2 Se12 Br2 F12'
_cell_volume   649.35172252
_cell_formula_units_Z   2
loop_
 _symmetry_equiv_pos_site_id
 _symmetry_equiv_pos_as_xyz
  1  'x, y, z'
loop_
 _atom_site_type_symbol
 _atom_site_label
 _atom_site_symmetry_multiplicity
 _atom_site_fract_x
 _atom_site_fract_y
 _atom_site_fract_z
 _atom_site_occupancy
  Nb  Nb0  1  0.00000000  0.00000000  0.00000000  1
  Nb  Nb1  1  0.00000000  0.00000000  0.50000000  1
  Se  Se0  1  0.74396330  0.33719329  0.61496437  1
  Se  Se1  1  0.25603670  0.66280671  0.38503563  1
  Se  Se2  1  0.24437933  0.55328487  0.88847052  1
  Se  Se3  1  0.75562067  0.44671513  0.11152948  1
  Se  Se4  1  0.43477541  0.23606429  0.62157757  1
  Se  Se5  1  0.74396330  0.66280671  0.88503563  1
  Se  Se6  1  0.56522459  0.76393571  0.37842243  1
  Se  Se7  1  0.75562067  0.55328487  0.38847052  1
  Se  Se8  1  0.24437933  0.44671513  0.61152948  1
  Se  Se9  1  0.25603670  0.33719329  0.11496437  1
  Se  Se10  1  0.56522459  0.23606429  0.12157757  1
  Se  Se11  1  0.43477541  0.76393571  0.87842243  1
  Br  Br0  1  0.73085290  0.50000000  0.75000000  1
  Br  Br1  1  0.26914710  0.50000000  0.25000000  1
  F  F0  1  0.10393164  0.21780567  0.88118707  1
  F  F1  1  0.77694601  0.94659931  0.60871618  1
  F  F2  1  0.22305399  0.94659931  0.10871618  1
  F  F3  1  0.89006501  0.09226286  0.10535101  1
  F  F4  1  0.89606836  0.78219433  0.11881293  1
  F  F5  1  0.22305399  0.05340069  0.39128382  1
  F  F6  1  0.89606836  0.21780567  0.38118707  1
  F  F7  1  0.10993499  0.90773714  0.89464899  1
  F  F8  1  0.10993499  0.09226286  0.60535101  1
  F  F9  1  0.10393164  0.78219433  0.61881293  1
  F  F10  1  0.89006501  0.90773714  0.39464899  1
  F  F11  1  0.77694601  0.05340069  0.89128382  1
loop_
_geom_bond_atom_site_label_1
_geom_bond_atom_site_label_2
_geom_bond_distance
_geom_bond_site_symmetry_2
Se0 Se4 2.381176 1_555
Se0 Se7 2.383772 1_555
Se1 Se6 2.381176 1_555
Se1 Se8 2.383772 1_555
Se2 Se9 2.383772 1_556
Se3 Se5 2.383772 1_554
Se4 Se8 2.305740 1_555
Se6 Se7 2.305740 1_555
Se10 Se3 2.305740 1_555
Se10 Se9 2.381176 1_555
Se11 Se2 2.305740 1_555
Se11 Se5 2.381176 1_555
Br0 Se5 2.590725 1_555
Br0 Se0 2.590725 1_555
Br1 Se1 2.590725 1_555
Br1 Se9 2.590725 1_555
F0 Nb0 1.935552 1_556
F1 Nb1 1.933026 1_665
F2 Nb0 1.933026 1_565
F3 Nb0 1.926083 1_655
F4 Nb0 1.935552 1_665
F5 Nb1 1.933026 1_555
F6 Nb1 1.935552 1_655
F7 Nb0 1.926083 1_566
F8 Nb1 1.926083 1_555
F9 Nb1 1.935552 1_565
F10 Nb1 1.926083 1_665
F11 Nb0 1.933026 1_656
