# generated using pymatgen
data_Ho2Sn2O7
_symmetry_space_group_name_H-M   'P 1'
_cell_length_a   7.33116700
_cell_length_b   7.33116700
_cell_length_c   7.33116700
_cell_angle_alpha   60.00000000
_cell_angle_beta   60.00000000
_cell_angle_gamma   60.00000000
_symmetry_Int_Tables_number   1
_chemical_formula_structural   Ho2Sn2O7
_chemical_formula_sum   'Ho4 Sn4 O14'
_cell_volume   278.61490116
_cell_formula_units_Z   2
loop_
 _symmetry_equiv_pos_site_id
 _symmetry_equiv_pos_as_xyz
  1  'x, y, z'
loop_
 _atom_site_type_symbol
 _atom_site_label
 _atom_site_symmetry_multiplicity
 _atom_site_fract_x
 _atom_site_fract_y
 _atom_site_fract_z
 _atom_site_occupancy
  Ho  Ho0  1  0.12500000  0.12500000  0.62500000  1
  Ho  Ho1  1  0.12500000  0.62500000  0.12500000  1
  Ho  Ho2  1  0.62500000  0.12500000  0.12500000  1
  Ho  Ho3  1  0.12500000  0.12500000  0.12500000  1
  Sn  Sn0  1  0.62500000  0.62500000  0.12500000  1
  Sn  Sn1  1  0.62500000  0.12500000  0.62500000  1
  Sn  Sn2  1  0.12500000  0.62500000  0.62500000  1
  Sn  Sn3  1  0.62500000  0.62500000  0.62500000  1
  O  O0  1  0.25000000  0.25000000  0.25000000  1
  O  O1  1  -0.00000000  -0.00000000  -0.00000000  1
  O  O2  1  0.53612582  0.96387418  0.53612582  1
  O  O3  1  0.28612582  0.71387418  0.28612582  1
  O  O4  1  0.53612582  0.53612582  0.96387418  1
  O  O5  1  0.96387418  0.53612582  0.53612582  1
  O  O6  1  0.53612582  0.96387418  0.96387418  1
  O  O7  1  0.96387418  0.96387418  0.53612582  1
  O  O8  1  0.96387418  0.53612582  0.96387418  1
  O  O9  1  0.71387418  0.28612582  0.28612582  1
  O  O10  1  0.28612582  0.71387418  0.71387418  1
  O  O11  1  0.71387418  0.28612582  0.71387418  1
  O  O12  1  0.28612582  0.28612582  0.71387418  1
  O  O13  1  0.71387418  0.71387418  0.28612582  1
loop_
_geom_bond_atom_site_label_1
_geom_bond_atom_site_label_2
_geom_bond_distance
_geom_bond_site_symmetry_2
Ho0 O0 2.244702 1_555
Ho0 O1 2.244702 1_556
Ho0 O2 2.479876 1_545
Ho0 O5 2.479876 1_455
Ho0 O7 2.479876 1_445
Ho0 O11 2.479876 1_455
Ho0 O10 2.479876 1_545
Ho0 O12 2.479876 1_555
Ho1 O0 2.244702 1_555
Ho1 O1 2.244702 1_565
Ho1 O13 2.479876 1_455
Ho1 O4 2.479876 1_554
Ho1 O5 2.479876 1_455
Ho1 O10 2.479876 1_554
Ho1 O8 2.479876 1_454
Ho1 O3 2.479876 1_555
Ho2 O0 2.244702 1_555
Ho2 O1 2.244702 1_655
Ho2 O2 2.479876 1_545
Ho2 O11 2.479876 1_554
Ho2 O4 2.479876 1_554
Ho2 O13 2.479876 1_545
Ho2 O6 2.479876 1_544
Ho2 O9 2.479876 1_555
Ho3 O0 2.244702 1_555
Ho3 O1 2.244702 1_555
Ho3 O6 2.479876 1_544
Ho3 O3 2.479876 1_545
Ho3 O9 2.479876 1_455
Ho3 O7 2.479876 1_445
Ho3 O12 2.479876 1_554
Ho3 O8 2.479876 1_454
O2 Sn1 2.051381 1_565
O2 Sn3 2.051381 1_555
O3 Sn2 2.051381 1_555
O3 Sn0 2.051381 1_555
O4 Sn3 2.051381 1_555
O4 Sn0 2.051381 1_556
O5 Sn2 2.051381 1_655
O5 Sn3 2.051381 1_555
O6 Sn1 2.051381 1_565
O6 Sn0 2.051381 1_556
O7 Sn2 2.051381 1_655
O7 Sn1 2.051381 1_565
O8 Sn2 2.051381 1_655
O8 Sn0 2.051381 1_556
O9 Sn1 2.051381 1_555
O9 Sn0 2.051381 1_555
O10 Sn3 2.051381 1_555
O10 Sn2 2.051381 1_555
O11 Sn3 2.051381 1_555
O11 Sn1 2.051381 1_555
O12 Sn1 2.051381 1_555
O12 Sn2 2.051381 1_555
O13 Sn3 2.051381 1_555
O13 Sn0 2.051381 1_555
