# generated using pymatgen
data_Mn2AlVPt4
_symmetry_space_group_name_H-M   'P 1'
_cell_length_a   3.98032964
_cell_length_b   3.98032964
_cell_length_c   7.35993700
_cell_angle_alpha   90.00000000
_cell_angle_beta   90.00000000
_cell_angle_gamma   90.00000000
_symmetry_Int_Tables_number   1
_chemical_formula_structural   Mn2AlVPt4
_chemical_formula_sum   'Mn2 Al1 V1 Pt4'
_cell_volume   116.60365867
_cell_formula_units_Z   1
loop_
 _symmetry_equiv_pos_site_id
 _symmetry_equiv_pos_as_xyz
  1  'x, y, z'
loop_
 _atom_site_type_symbol
 _atom_site_label
 _atom_site_symmetry_multiplicity
 _atom_site_fract_x
 _atom_site_fract_y
 _atom_site_fract_z
 _atom_site_occupancy
  Mn  Mn0  1  0.50000000  0.50000000  0.00000000  1
  Mn  Mn1  1  0.50000000  0.50000000  0.50000000  1
  Al  Al0  1  0.00000000  0.00000000  0.00000000  1
  V  V0  1  0.00000000  0.00000000  0.50000000  1
  Pt  Pt0  1  0.50000000  0.00000000  0.24171217  1
  Pt  Pt1  1  0.50000000  0.00000000  0.75828783  1
  Pt  Pt2  1  0.00000000  0.50000000  0.24171217  1
  Pt  Pt3  1  0.00000000  0.50000000  0.75828783  1
loop_
_geom_bond_atom_site_label_1
_geom_bond_atom_site_label_2
_geom_bond_distance
_geom_bond_site_symmetry_2
Mn0 Pt2 2.669372 1_555
Mn0 Pt2 2.669372 1_655
Mn0 Pt0 2.669372 1_555
Mn0 Pt0 2.669372 1_565
Mn0 Pt1 2.669372 1_554
Mn0 Pt3 2.669372 1_554
Mn0 Pt3 2.669372 1_654
Mn0 Pt1 2.669372 1_564
Mn1 Pt1 2.752179 1_555
Mn1 Pt1 2.752179 1_565
Mn1 Pt3 2.752179 1_555
Mn1 Pt3 2.752179 1_655
Mn1 Pt0 2.752179 1_565
Mn1 Pt0 2.752179 1_555
Mn1 Pt2 2.752179 1_555
Mn1 Pt2 2.752179 1_655
Mn1 V0 2.814518 1_555
Mn1 V0 2.814518 1_655
Mn1 V0 2.814518 1_565
Mn1 V0 2.814518 1_665
Al0 Pt0 2.669372 1_455
Al0 Pt2 2.669372 1_555
Al0 Pt0 2.669372 1_555
Al0 Pt2 2.669372 1_545
Al0 Pt1 2.669372 1_554
Al0 Pt3 2.669372 1_554
Al0 Pt1 2.669372 1_454
Al0 Pt3 2.669372 1_544
Al0 Mn0 2.814518 1_545
Al0 Mn0 2.814518 1_455
Al0 Mn0 2.814518 1_555
Al0 Mn0 2.814518 1_445
Pt0 V0 2.752179 1_555
Pt0 V0 2.752179 1_655
Pt0 Pt2 2.814518 1_655
Pt0 Pt2 2.814518 1_545
Pt0 Pt2 2.814518 1_645
Pt0 Pt2 2.814518 1_555
Pt1 V0 2.752179 1_655
Pt1 V0 2.752179 1_555
Pt1 Pt3 2.814518 1_555
Pt1 Pt3 2.814518 1_655
Pt1 Pt3 2.814518 1_545
Pt1 Pt3 2.814518 1_645
Pt2 V0 2.752179 1_555
Pt2 V0 2.752179 1_565
Pt3 V0 2.752179 1_565
Pt3 V0 2.752179 1_555
