# generated using pymatgen
data_LuSiPRu2
_symmetry_space_group_name_H-M   'P 1'
_cell_length_a   5.50347052
_cell_length_b   5.50347040
_cell_length_c   5.50346974
_cell_angle_alpha   136.56651620
_cell_angle_beta   136.56651351
_cell_angle_gamma   63.10570009
_symmetry_Int_Tables_number   1
_chemical_formula_structural   LuSiPRu2
_chemical_formula_sum   'Lu1 Si1 P1 Ru2'
_cell_volume   77.79222280
_cell_formula_units_Z   1
loop_
 _symmetry_equiv_pos_site_id
 _symmetry_equiv_pos_as_xyz
  1  'x, y, z'
loop_
 _atom_site_type_symbol
 _atom_site_label
 _atom_site_symmetry_multiplicity
 _atom_site_fract_x
 _atom_site_fract_y
 _atom_site_fract_z
 _atom_site_occupancy
  Lu  Lu0  1  0.00087122  0.00087122  1.00000000  1
  Si  Si0  1  0.37562558  0.37562558  0.00000000  1
  P  P0  1  0.62858406  0.62858406  1.00000000  1
  Ru  Ru0  1  0.24745907  0.74745907  0.50000000  1
  Ru  Ru1  1  0.74745907  0.24745907  0.50000000  1
loop_
_geom_bond_atom_site_label_1
_geom_bond_atom_site_label_2
_geom_bond_distance
_geom_bond_site_symmetry_2
Lu0 Ru0 3.081623 1_545
Lu0 Ru1 3.081623 1_455
Lu0 Ru0 3.081624 1_556
Lu0 Ru1 3.081624 1_556
Lu0 Si0 3.110270 1_557
Lu0 Si0 3.110271 1_445
Lu0 Si0 3.110271 1_546
Lu0 Si0 3.110271 1_456
Lu0 P0 3.119085 1_444
Lu0 P0 3.119085 1_556
Lu0 P0 3.119085 1_455
Lu0 P0 3.119085 1_545
Lu0 Ru1 3.129952 1_456
Lu0 Ru0 3.129952 1_546
Lu0 Ru1 3.129952 1_445
Lu0 Ru0 3.129952 1_445
P0 Ru1 2.321659 1_555
P0 Ru0 2.321659 1_555
P0 Ru1 2.321659 1_566
P0 Ru0 2.321659 1_656
P0 Si0 2.372662 1_556
Ru0 Si0 2.364750 1_555
Ru0 Si0 2.364750 1_566
Ru1 Si0 2.364750 1_555
Ru1 Si0 2.364750 1_656
