# generated using pymatgen
data_Cd2(TeO3)3
_symmetry_space_group_name_H-M   'P 1'
_cell_length_a   7.42432600
_cell_length_b   9.51033900
_cell_length_c   13.46198721
_cell_angle_alpha   57.20565056
_cell_angle_beta   90.00000000
_cell_angle_gamma   90.00000000
_symmetry_Int_Tables_number   1
_chemical_formula_structural   Cd2(TeO3)3
_chemical_formula_sum   'Cd8 Te12 O36'
_cell_volume   799.02788389
_cell_formula_units_Z   4
loop_
 _symmetry_equiv_pos_site_id
 _symmetry_equiv_pos_as_xyz
  1  'x, y, z'
loop_
 _atom_site_type_symbol
 _atom_site_label
 _atom_site_symmetry_multiplicity
 _atom_site_fract_x
 _atom_site_fract_y
 _atom_site_fract_z
 _atom_site_occupancy
  Cd  Cd0  1  0.62400500  0.39840300  0.64747400  1
  Cd  Cd1  1  0.12400500  0.60159700  0.85252600  1
  Cd  Cd2  1  0.37599500  0.60159700  0.35252600  1
  Cd  Cd3  1  0.87599500  0.39840300  0.14747400  1
  Cd  Cd4  1  0.62516900  0.59537100  0.85278100  1
  Cd  Cd5  1  0.12516900  0.40462900  0.64721900  1
  Cd  Cd6  1  0.37483100  0.40462900  0.14721900  1
  Cd  Cd7  1  0.87483100  0.59537100  0.35278100  1
  Te  Te0  1  0.12617200  0.00202300  0.24997400  1
  Te  Te1  1  0.62617200  0.99797700  0.25002600  1
  Te  Te2  1  0.87382800  0.99797700  0.75002600  1
  Te  Te3  1  0.37382800  0.00202300  0.74997400  1
  Te  Te4  1  0.37891500  0.21214600  0.96008800  1
  Te  Te5  1  0.87891500  0.78785400  0.53991200  1
  Te  Te6  1  0.62108500  0.78785400  0.03991200  1
  Te  Te7  1  0.12108500  0.21214600  0.46008800  1
  Te  Te8  1  0.87616400  0.23758200  0.93872000  1
  Te  Te9  1  0.37616400  0.76241800  0.56128000  1
  Te  Te10  1  0.12383600  0.76241800  0.06128000  1
  Te  Te11  1  0.62383600  0.23758200  0.43872000  1
  O  O0  1  0.91820300  0.65199300  0.16148200  1
  O  O1  1  0.41820300  0.34800700  0.33851800  1
  O  O2  1  0.08179700  0.34800700  0.83851800  1
  O  O3  1  0.58179700  0.65199300  0.66148200  1
  O  O4  1  0.12034400  0.40771100  0.46402800  1
  O  O5  1  0.62034400  0.59228900  0.03597200  1
  O  O6  1  0.87965600  0.59228900  0.53597200  1
  O  O7  1  0.37965600  0.40771100  0.96402800  1
  O  O8  1  0.63169100  0.41113700  0.47024000  1
  O  O9  1  0.13169100  0.58886300  0.02976000  1
  O  O10  1  0.36830900  0.58886300  0.52976000  1
  O  O11  1  0.86830900  0.41113700  0.97024000  1
  O  O12  1  0.83923200  0.33195200  0.34296000  1
  O  O13  1  0.33923200  0.66804800  0.15704000  1
  O  O14  1  0.16076800  0.66804800  0.65704000  1
  O  O15  1  0.66076800  0.33195200  0.84296000  1
  O  O16  1  0.13055200  0.22339200  0.21692600  1
  O  O17  1  0.63055200  0.77660800  0.28307400  1
  O  O18  1  0.86944800  0.77660800  0.78307400  1
  O  O19  1  0.36944800  0.22339200  0.71692600  1
  O  O20  1  0.62382300  0.03588300  0.69253400  1
  O  O21  1  0.12382300  0.96411700  0.80746600  1
  O  O22  1  0.37617700  0.96411700  0.30746600  1
  O  O23  1  0.87617700  0.03588300  0.19253400  1
  O  O24  1  0.93510800  0.07780500  0.58076700  1
  O  O25  1  0.43510800  0.92219500  0.91923300  1
  O  O26  1  0.06489200  0.92219500  0.41923300  1
  O  O27  1  0.56489200  0.07780500  0.08076700  1
  O  O28  1  0.31182000  0.08557900  0.58165600  1
  O  O29  1  0.81182000  0.91442100  0.91834400  1
  O  O30  1  0.68818000  0.91442100  0.41834400  1
  O  O31  1  0.18818000  0.08557900  0.08165600  1
  O  O32  1  0.88081000  0.22010600  0.71393600  1
  O  O33  1  0.38081000  0.77989400  0.78606400  1
  O  O34  1  0.11919000  0.77989400  0.28606400  1
  O  O35  1  0.61919000  0.22010600  0.21393600  1
loop_
_geom_bond_atom_site_label_1
_geom_bond_atom_site_label_2
_geom_bond_distance
_geom_bond_site_symmetry_2
Cd0 O8 2.323262 1_555
Cd0 O19 2.351699 1_555
Cd0 O15 2.365965 1_555
Cd0 O32 2.380650 1_555
Cd0 O6 2.501497 1_555
Cd0 O10 2.507309 1_555
Cd0 O3 2.538275 1_555
Cd1 O9 2.323262 1_556
Cd1 O18 2.351699 1_455
Cd1 O14 2.365965 1_555
Cd1 O33 2.380650 1_555
Cd1 O7 2.501497 1_555
Cd1 O11 2.507309 1_455
Cd1 O2 2.538275 1_555
Cd2 O10 2.323262 1_555
Cd2 O17 2.351699 1_555
Cd2 O13 2.365965 1_555
Cd2 O34 2.380650 1_555
Cd2 O4 2.501497 1_555
Cd2 O8 2.507309 1_555
Cd2 O1 2.538275 1_555
Cd3 O11 2.323262 1_554
Cd3 O16 2.351699 1_655
Cd3 O12 2.365965 1_555
Cd3 O35 2.380650 1_555
Cd3 O5 2.501497 1_555
Cd3 O9 2.507309 1_655
Cd3 O0 2.538275 1_555
Cd4 O18 2.321324 1_555
Cd4 O33 2.338853 1_555
Cd4 O3 2.350200 1_555
Cd4 O11 2.414052 1_555
Cd4 O7 2.419751 1_555
Cd4 O5 2.450625 1_556
Cd4 O15 2.592714 1_555
Cd5 O19 2.321324 1_555
Cd5 O32 2.338853 1_455
Cd5 O2 2.350200 1_555
Cd5 O10 2.414052 1_555
Cd5 O6 2.419751 1_455
Cd5 O4 2.450625 1_555
Cd5 O14 2.592714 1_555
Cd6 O16 2.321324 1_555
Cd6 O35 2.338853 1_555
Cd6 O1 2.350200 1_555
Cd6 O9 2.414052 1_555
Cd6 O5 2.419751 1_555
Cd6 O7 2.450625 1_554
Cd6 O13 2.592714 1_555
Cd7 O17 2.321324 1_555
Cd7 O34 2.338853 1_655
Cd7 O0 2.350200 1_555
Cd7 O8 2.414052 1_555
Cd7 O4 2.419751 1_655
Cd7 O6 2.450625 1_555
Cd7 O12 2.592714 1_555
O0 Te10 1.928390 1_655
O0 Te6 2.631202 1_555
O1 Te11 1.928390 1_555
O1 Te7 2.631202 1_555
O2 Te8 1.928390 1_455
O2 Te4 2.631202 1_555
O3 Te9 1.928390 1_555
O3 Te5 2.631202 1_555
O4 Te7 1.889152 1_555
O5 Te6 1.889152 1_555
O6 Te5 1.889152 1_555
O7 Te4 1.889152 1_555
O8 Te11 1.914810 1_555
O9 Te10 1.914810 1_555
O10 Te9 1.914810 1_555
O11 Te8 1.914810 1_555
O12 Te11 1.942002 1_555
O12 Te7 2.493421 1_655
O13 Te10 1.942002 1_555
O13 Te6 2.493421 1_555
O14 Te9 1.942002 1_555
O14 Te5 2.493421 1_455
O15 Te8 1.942002 1_555
O15 Te4 2.493421 1_555
O16 Te0 1.901748 1_555
O17 Te1 1.901748 1_555
O18 Te2 1.901748 1_555
O19 Te3 1.901748 1_555
O20 Te2 1.967716 1_545
O20 Te3 1.968956 1_555
O21 Te3 1.967716 1_565
O21 Te2 1.968956 1_455
O22 Te0 1.967716 1_565
O22 Te1 1.968956 1_555
O23 Te1 1.967716 1_545
O23 Te0 1.968956 1_655
O24 Te7 1.982339 1_655
O24 Te2 2.025175 1_545
O25 Te6 1.982339 1_556
O25 Te3 2.025175 1_565
O26 Te5 1.982339 1_455
O26 Te0 2.025175 1_565
O27 Te4 1.982339 1_554
O27 Te1 2.025175 1_545
O28 Te7 1.999637 1_555
O28 Te3 2.006787 1_555
O29 Te6 1.999637 1_556
O29 Te2 2.006787 1_555
O30 Te5 1.999637 1_555
O30 Te1 2.006787 1_555
O31 Te4 1.999637 1_554
O31 Te0 2.006787 1_555
O32 Te2 1.894645 1_545
O33 Te3 1.894645 1_565
O34 Te0 1.894645 1_565
O35 Te1 1.894645 1_545
