# generated using pymatgen
data_KSb12OsRh3
_symmetry_space_group_name_H-M   'P 1'
_cell_length_a   8.11144622
_cell_length_b   8.09820163
_cell_length_c   8.11144554
_cell_angle_alpha   109.43814658
_cell_angle_beta   109.50427422
_cell_angle_gamma   109.43814739
_symmetry_Int_Tables_number   1
_chemical_formula_structural   KSb12OsRh3
_chemical_formula_sum   'K1 Sb12 Os1 Rh3'
_cell_volume   410.33668740
_cell_formula_units_Z   1
loop_
 _symmetry_equiv_pos_site_id
 _symmetry_equiv_pos_as_xyz
  1  'x, y, z'
loop_
 _atom_site_type_symbol
 _atom_site_label
 _atom_site_symmetry_multiplicity
 _atom_site_fract_x
 _atom_site_fract_y
 _atom_site_fract_z
 _atom_site_occupancy
  K  K0  1  0.00000000  0.00000000  0.00000000  1
  Sb  Sb0  1  0.84399114  0.65657750  0.50103848  1
  Sb  Sb1  1  0.15600886  0.34342250  0.49896152  1
  Sb  Sb2  1  0.15560363  0.65848842  0.81560091  1
  Sb  Sb3  1  0.84439637  0.34151158  0.18439909  1
  Sb  Sb4  1  0.65999628  0.50288479  0.84439637  1
  Sb  Sb5  1  0.34000372  0.49711521  0.15560363  1
  Sb  Sb6  1  0.65704834  0.81258836  0.15600886  1
  Sb  Sb7  1  0.34295166  0.18741164  0.84399114  1
  Sb  Sb8  1  0.50103848  0.84446098  0.65704834  1
  Sb  Sb9  1  0.49896152  0.15553902  0.34295166  1
  Sb  Sb10  1  0.18439909  0.84288851  0.34000372  1
  Sb  Sb11  1  0.81560091  0.15711149  0.65999628  1
  Os  Os0  1  0.00000000  0.50000000  0.00000000  1
  Rh  Rh0  1  0.50000000  0.50000000  0.50000000  1
  Rh  Rh1  1  0.50000000  0.00000000  0.00000000  1
  Rh  Rh2  1  0.00000000  0.00000000  0.50000000  1
loop_
_geom_bond_atom_site_label_1
_geom_bond_atom_site_label_2
_geom_bond_distance
_geom_bond_site_symmetry_2
K0 Sb10 3.508521 1_545
K0 Sb11 3.508521 1_454
K0 Sb3 3.508522 1_455
K0 Sb2 3.508522 1_544
K0 Sb4 3.508524 1_444
K0 Sb5 3.508524 1_555
K0 Sb6 3.530201 1_445
K0 Sb7 3.530201 1_554
K0 Sb9 3.530209 1_555
K0 Sb8 3.530209 1_444
K0 Sb1 3.530211 1_555
K0 Sb0 3.530211 1_444
Sb0 Sb2 2.922441 1_655
Sb0 Sb3 2.959096 1_555
Sb1 Sb3 2.922441 1_455
Sb1 Sb2 2.959096 1_555
Sb4 Sb6 2.922441 1_556
Sb4 Sb7 2.959105 1_555
Sb5 Sb7 2.922441 1_554
Sb5 Sb6 2.959105 1_555
Sb10 Sb9 2.922446 1_565
Sb10 Sb8 2.959100 1_555
Sb11 Sb8 2.922446 1_545
Sb11 Sb9 2.959100 1_555
Os0 Sb2 2.633969 1_554
Os0 Sb3 2.633969 1_455
Os0 Sb4 2.633976 1_454
Os0 Sb5 2.633976 1_555
Os0 Sb10 2.633977 1_555
Os0 Sb11 2.633977 1_454
Rh0 Sb5 2.646550 1_555
Rh0 Sb4 2.646550 1_555
Rh0 Sb0 2.648739 1_555
Rh0 Sb1 2.648739 1_555
Rh0 Sb8 2.648829 1_555
Rh0 Sb9 2.648829 1_555
Rh1 Sb3 2.646551 1_555
Rh1 Sb2 2.646551 1_544
Rh1 Sb9 2.648731 1_555
Rh1 Sb8 2.648731 1_544
Rh1 Sb7 2.648818 1_554
Rh1 Sb6 2.648818 1_545
Rh2 Sb11 2.646543 1_455
Rh2 Sb10 2.646543 1_545
Rh2 Sb7 2.648737 1_555
Rh2 Sb6 2.648737 1_445
Rh2 Sb1 2.648828 1_555
Rh2 Sb0 2.648828 1_445
