# generated using pymatgen
data_Lu7RhI12
_symmetry_space_group_name_H-M   'P 1'
_cell_length_a   9.56135326
_cell_length_b   9.56135221
_cell_length_c   9.56135317
_cell_angle_alpha   106.86511445
_cell_angle_beta   106.86510875
_cell_angle_gamma   106.86510537
_symmetry_Int_Tables_number   1
_chemical_formula_structural   Lu7RhI12
_chemical_formula_sum   'Lu7 Rh1 I12'
_cell_volume   730.61575733
_cell_formula_units_Z   1
loop_
 _symmetry_equiv_pos_site_id
 _symmetry_equiv_pos_as_xyz
  1  'x, y, z'
loop_
 _atom_site_type_symbol
 _atom_site_label
 _atom_site_symmetry_multiplicity
 _atom_site_fract_x
 _atom_site_fract_y
 _atom_site_fract_z
 _atom_site_occupancy
  Lu  Lu0  1  0.50000000  0.50000000  0.50000000  1
  Lu  Lu1  1  0.90720610  0.97832402  0.70865068  1
  Lu  Lu2  1  0.97832402  0.70865068  0.90720610  1
  Lu  Lu3  1  0.70865068  0.90720610  0.97832402  1
  Lu  Lu4  1  0.09279390  0.02167598  0.29134932  1
  Lu  Lu5  1  0.02167598  0.29134932  0.09279390  1
  Lu  Lu6  1  0.29134932  0.09279390  0.02167598  1
  Rh  Rh0  1  0.00000000  0.00000000  0.00000000  1
  I  I0  1  0.53303118  0.83685993  0.61038226  1
  I  I1  1  0.83685993  0.61038226  0.53303118  1
  I  I2  1  0.61038226  0.53303118  0.83685993  1
  I  I3  1  0.46696882  0.16314007  0.38961774  1
  I  I4  1  0.16314007  0.38961774  0.46696882  1
  I  I5  1  0.38961774  0.46696882  0.16314007  1
  I  I6  1  0.67143318  0.22409366  0.06977116  1
  I  I7  1  0.22409366  0.06977116  0.67143318  1
  I  I8  1  0.06977116  0.67143318  0.22409366  1
  I  I9  1  0.32856682  0.77590634  0.93022884  1
  I  I10  1  0.77590634  0.93022884  0.32856682  1
  I  I11  1  0.93022884  0.32856682  0.77590634  1
loop_
_geom_bond_atom_site_label_1
_geom_bond_atom_site_label_2
_geom_bond_distance
_geom_bond_site_symmetry_2
Lu1 Rh0 2.591224 1_666
Lu2 Rh0 2.591223 1_666
Lu3 Rh0 2.591224 1_666
Lu4 Rh0 2.591224 1_555
Lu5 Rh0 2.591223 1_555
Lu6 Rh0 2.591224 1_555
I0 Lu0 2.971764 1_555
I0 Lu1 3.164807 1_555
I0 Lu3 3.192566 1_555
I1 Lu0 2.971764 1_555
I1 Lu2 3.164807 1_555
I1 Lu1 3.192566 1_555
I2 Lu0 2.971764 1_555
I2 Lu3 3.164807 1_555
I2 Lu2 3.192566 1_555
I3 Lu0 2.971764 1_555
I3 Lu4 3.164807 1_555
I3 Lu6 3.192566 1_555
I4 Lu0 2.971764 1_555
I4 Lu5 3.164807 1_555
I4 Lu4 3.192566 1_555
I5 Lu0 2.971764 1_555
I5 Lu6 3.164807 1_555
I5 Lu5 3.192566 1_555
I6 Lu3 3.056180 1_544
I6 Lu5 3.149130 1_655
I6 Lu6 3.323017 1_555
I7 Lu1 3.056180 1_445
I7 Lu6 3.149129 1_556
I7 Lu4 3.323017 1_555
I8 Lu2 3.056180 1_454
I8 Lu4 3.149129 1_565
I8 Lu5 3.323016 1_555
I9 Lu6 3.056180 1_566
I9 Lu2 3.149130 1_455
I9 Lu3 3.323017 1_555
I10 Lu4 3.056180 1_665
I10 Lu3 3.149129 1_554
I10 Lu1 3.323017 1_555
I11 Lu5 3.056180 1_656
I11 Lu1 3.149129 1_545
I11 Lu2 3.323016 1_555
