# generated using pymatgen
data_CaZrZn4
_symmetry_space_group_name_H-M   'P 1'
_cell_length_a   4.36276944
_cell_length_b   4.36276884
_cell_length_c   7.03861508
_cell_angle_alpha   90.00000000
_cell_angle_beta   90.00000000
_cell_angle_gamma   119.99998978
_symmetry_Int_Tables_number   1
_chemical_formula_structural   CaZrZn4
_chemical_formula_sum   'Ca1 Zr1 Zn4'
_cell_volume   116.02253675
_cell_formula_units_Z   1
loop_
 _symmetry_equiv_pos_site_id
 _symmetry_equiv_pos_as_xyz
  1  'x, y, z'
loop_
 _atom_site_type_symbol
 _atom_site_label
 _atom_site_symmetry_multiplicity
 _atom_site_fract_x
 _atom_site_fract_y
 _atom_site_fract_z
 _atom_site_occupancy
  Ca  Ca0  1  0.00000000  0.00000000  0.00000000  1
  Zr  Zr0  1  0.00000000  0.00000000  0.50000000  1
  Zn  Zn0  1  0.66666600  0.33333200  0.29886724  1
  Zn  Zn1  1  0.33333400  0.66666800  0.29886724  1
  Zn  Zn2  1  0.66666600  0.33333200  0.70113376  1
  Zn  Zn3  1  0.33333400  0.66666800  0.70113376  1
loop_
_geom_bond_atom_site_label_1
_geom_bond_atom_site_label_2
_geom_bond_distance
_geom_bond_site_symmetry_2
Ca0 Zn3 3.281726 1_544
Ca0 Zn2 3.281726 1_454
Ca0 Zn2 3.281726 1_554
Ca0 Zn3 3.281726 1_444
Ca0 Zn1 3.281730 1_545
Ca0 Zn0 3.281730 1_455
Ca0 Zn0 3.281731 1_555
Ca0 Zn1 3.281731 1_445
Ca0 Zn3 3.281732 1_554
Ca0 Zn2 3.281732 1_444
Ca0 Zn1 3.281736 1_555
Ca0 Zn0 3.281736 1_445
Ca0 Zr0 3.519308 1_554
Ca0 Zr0 3.519308 1_555
Zn0 Zn1 2.518836 1_545
Zn0 Zn1 2.518851 1_555
Zn0 Zn1 2.518851 1_655
Zn0 Zn2 2.831399 1_555
Zn0 Zr0 2.889423 1_655
Zn0 Zr0 2.889424 1_555
Zn0 Zr0 2.889430 1_665
Zn1 Zn3 2.831399 1_555
Zn1 Zr0 2.889423 1_565
Zn1 Zr0 2.889424 1_665
Zn1 Zr0 2.889430 1_555
Zn2 Zn3 2.518836 1_545
Zn2 Zn3 2.518851 1_555
Zn2 Zn3 2.518851 1_655
Zn2 Zr0 2.889427 1_655
Zn2 Zr0 2.889427 1_555
Zn2 Zr0 2.889433 1_665
Zn3 Zr0 2.889427 1_565
Zn3 Zr0 2.889427 1_665
Zn3 Zr0 2.889433 1_555
