# generated using pymatgen
data_Ti4Nb5ReN12
_symmetry_space_group_name_H-M   'P 1'
_cell_length_a   5.16226284
_cell_length_b   5.14077046
_cell_length_c   10.22965385
_cell_angle_alpha   90.00000000
_cell_angle_beta   90.00000000
_cell_angle_gamma   120.13840818
_symmetry_Int_Tables_number   1
_chemical_formula_structural   Ti4Nb5ReN12
_chemical_formula_sum   'Ti4 Nb5 Re1 N12'
_cell_volume   234.77535078
_cell_formula_units_Z   1
loop_
 _symmetry_equiv_pos_site_id
 _symmetry_equiv_pos_as_xyz
  1  'x, y, z'
loop_
 _atom_site_type_symbol
 _atom_site_label
 _atom_site_symmetry_multiplicity
 _atom_site_fract_x
 _atom_site_fract_y
 _atom_site_fract_z
 _atom_site_occupancy
  Ti  Ti0  1  0.33274882  0.66563929  0.49524159  1
  Ti  Ti1  1  0.66711153  0.33436071  0.00475841  1
  Ti  Ti2  1  0.66711153  0.33436071  0.49524159  1
  Ti  Ti3  1  0.33274882  0.66563929  0.00475841  1
  Nb  Nb0  1  0.67731837  0.67724540  0.25000000  1
  Nb  Nb1  1  0.00007396  0.32275460  0.25000000  1
  Nb  Nb2  1  0.99841907  0.67418214  0.75000000  1
  Nb  Nb3  1  0.32423693  0.32581786  0.75000000  1
  Nb  Nb4  1  0.32270088  1.00000000  0.25000000  1
  Re  Re0  1  0.67651348  1.00000000  0.75000000  1
  N  N0  1  0.34609041  0.34577651  0.38259191  1
  N  N1  1  0.65232765  1.00000000  0.38329816  1
  N  N2  1  0.00031490  0.65422349  0.38259191  1
  N  N3  1  0.99427448  0.34147768  0.87808494  1
  N  N4  1  0.65232765  1.00000000  0.11670184  1
  N  N5  1  0.65279579  0.65852232  0.87808494  1
  N  N6  1  0.35470408  0.00000000  0.87769931  1
  N  N7  1  0.65279579  0.65852232  0.62191506  1
  N  N8  1  0.99427448  0.34147768  0.62191506  1
  N  N9  1  0.00031490  0.65422349  0.11740809  1
  N  N10  1  0.35470408  0.00000000  0.62230069  1
  N  N11  1  0.34609041  0.34577651  0.11740809  1
loop_
_geom_bond_atom_site_label_1
_geom_bond_atom_site_label_2
_geom_bond_distance
_geom_bond_site_symmetry_2
N0 Ti0 2.037222 1_555
N0 Ti2 2.043368 1_555
N0 Nb0 2.177440 1_555
N0 Nb4 2.190549 1_545
N0 Nb1 2.198197 1_555
N1 Ti2 2.034691 1_565
N1 Ti0 2.034694 1_555
N1 Nb4 2.180573 1_555
N1 Nb0 2.200897 1_555
N1 Nb1 2.200899 1_665
N2 Ti2 2.037220 1_455
N2 Ti0 2.043355 1_555
N2 Nb1 2.177440 1_555
N2 Nb4 2.190547 1_555
N2 Nb0 2.198205 1_455
N3 Ti1 2.114436 1_556
N3 Ti3 2.141328 1_656
N3 Re0 2.144200 1_545
N3 Nb2 2.146119 1_555
N3 Nb3 2.182289 1_655
N4 Ti1 2.034691 1_565
N4 Ti3 2.034694 1_555
N4 Nb4 2.180573 1_555
N4 Nb0 2.200897 1_555
N4 Nb1 2.200899 1_665
N5 Ti3 2.114440 1_556
N5 Ti1 2.141335 1_556
N5 Re0 2.144198 1_555
N5 Nb3 2.146117 1_555
N5 Nb2 2.182293 1_555
N6 Ti3 2.112141 1_546
N6 Ti1 2.112144 1_556
N6 Re0 2.113356 1_545
N6 Nb2 2.191168 1_445
N6 Nb3 2.191168 1_555
N7 Ti0 2.114440 1_555
N7 Ti2 2.141335 1_555
N7 Re0 2.144198 1_555
N7 Nb3 2.146117 1_555
N7 Nb2 2.182293 1_555
N8 Ti2 2.114436 1_555
N8 Ti0 2.141328 1_655
N8 Re0 2.144200 1_545
N8 Nb2 2.146119 1_555
N8 Nb3 2.182289 1_655
N9 Ti1 2.037220 1_455
N9 Ti3 2.043355 1_555
N9 Nb1 2.177440 1_555
N9 Nb4 2.190547 1_555
N9 Nb0 2.198205 1_455
N10 Ti0 2.112141 1_545
N10 Ti2 2.112144 1_555
N10 Re0 2.113356 1_545
N10 Nb2 2.191168 1_445
N10 Nb3 2.191168 1_555
N11 Ti3 2.037222 1_555
N11 Ti1 2.043368 1_555
N11 Nb0 2.177440 1_555
N11 Nb4 2.190549 1_545
N11 Nb1 2.198197 1_555
