# generated using pymatgen
data_Er2SnAu2
_symmetry_space_group_name_H-M   'P 1'
_cell_length_a   7.90007300
_cell_length_b   7.90007300
_cell_length_c   7.45169300
_cell_angle_alpha   90.00000000
_cell_angle_beta   90.00000000
_cell_angle_gamma   90.00000000
_symmetry_Int_Tables_number   1
_chemical_formula_structural   Er2SnAu2
_chemical_formula_sum   'Er8 Sn4 Au8'
_cell_volume   465.06875495
_cell_formula_units_Z   4
loop_
 _symmetry_equiv_pos_site_id
 _symmetry_equiv_pos_as_xyz
  1  'x, y, z'
loop_
 _atom_site_type_symbol
 _atom_site_label
 _atom_site_symmetry_multiplicity
 _atom_site_fract_x
 _atom_site_fract_y
 _atom_site_fract_z
 _atom_site_occupancy
  Er  Er0  1  0.18392800  0.18392800  0.00000000  1
  Er  Er1  1  0.31607200  0.68392800  0.50000000  1
  Er  Er2  1  0.68392800  0.31607200  0.50000000  1
  Er  Er3  1  0.81607200  0.81607200  0.00000000  1
  Er  Er4  1  0.34264100  0.65735900  0.00000000  1
  Er  Er5  1  0.65735900  0.34264100  0.00000000  1
  Er  Er6  1  0.84264100  0.84264100  0.50000000  1
  Er  Er7  1  0.15735900  0.15735900  0.50000000  1
  Sn  Sn0  1  0.00000000  0.50000000  0.75000000  1
  Sn  Sn1  1  0.50000000  0.00000000  0.25000000  1
  Sn  Sn2  1  0.00000000  0.50000000  0.25000000  1
  Sn  Sn3  1  0.50000000  0.00000000  0.75000000  1
  Au  Au0  1  0.12774500  0.87225500  0.77802800  1
  Au  Au1  1  0.87225500  0.12774500  0.22197200  1
  Au  Au2  1  0.37225500  0.37225500  0.27802800  1
  Au  Au3  1  0.62774500  0.62774500  0.72197200  1
  Au  Au4  1  0.62774500  0.62774500  0.27802800  1
  Au  Au5  1  0.87225500  0.12774500  0.77802800  1
  Au  Au6  1  0.37225500  0.37225500  0.72197200  1
  Au  Au7  1  0.12774500  0.87225500  0.22197200  1
loop_
_geom_bond_atom_site_label_1
_geom_bond_atom_site_label_2
_geom_bond_distance
_geom_bond_site_symmetry_2
Er0 Sn2 3.437556 1_555
Er0 Sn0 3.437556 1_554
Er0 Sn3 3.437556 1_554
Er0 Sn1 3.437556 1_555
Er1 Sn0 3.437556 1_555
Er1 Sn2 3.437556 1_555
Er1 Sn3 3.437556 1_565
Er1 Sn1 3.437556 1_565
Er2 Sn3 3.437556 1_555
Er2 Sn1 3.437556 1_555
Er2 Sn2 3.437556 1_655
Er2 Sn0 3.437556 1_655
Er3 Sn1 3.437556 1_565
Er3 Sn0 3.437556 1_654
Er3 Sn2 3.437556 1_655
Er3 Sn3 3.437556 1_564
Er4 Sn2 3.513281 1_555
Er4 Sn0 3.513281 1_554
Er4 Sn3 3.513281 1_564
Er4 Sn1 3.513281 1_565
Er5 Sn3 3.513281 1_554
Er5 Sn1 3.513281 1_555
Er5 Sn2 3.513281 1_655
Er5 Sn0 3.513281 1_654
Er6 Sn3 3.513281 1_565
Er6 Sn2 3.513281 1_655
Er6 Sn1 3.513281 1_565
Er6 Sn0 3.513281 1_655
Er7 Sn1 3.513281 1_555
Er7 Sn2 3.513281 1_555
Er7 Sn0 3.513281 1_555
Er7 Sn3 3.513281 1_555
Au0 Er4 2.915522 1_556
Au0 Er1 2.952854 1_555
Au0 Er0 2.999261 1_566
Au0 Er3 2.999261 1_456
Au0 Er7 3.069210 1_565
Au0 Er6 3.069210 1_455
Au0 Sn0 3.116191 1_555
Au0 Sn3 3.116191 1_565
Au1 Er5 2.915522 1_555
Au1 Er2 2.952854 1_555
Au1 Er0 2.999261 1_655
Au1 Er3 2.999261 1_545
Au1 Er6 3.069210 1_545
Au1 Er7 3.069210 1_655
Au1 Sn2 3.116191 1_655
Au1 Sn1 3.116191 1_555
Au2 Er7 2.915522 1_555
Au2 Er0 2.952854 1_555
Au2 Er2 2.999261 1_555
Au2 Er1 2.999261 1_555
Au2 Er5 3.069210 1_555
Au2 Er4 3.069210 1_555
Au2 Sn1 3.116191 1_555
Au2 Sn2 3.116191 1_555
Au3 Er6 2.915522 1_555
Au3 Er3 2.952854 1_556
Au3 Er2 2.999261 1_555
Au3 Er1 2.999261 1_555
Au3 Er5 3.069210 1_556
Au3 Er4 3.069210 1_556
Au3 Sn0 3.116191 1_655
Au3 Sn3 3.116191 1_565
Au4 Er6 2.915522 1_555
Au4 Er3 2.952854 1_555
Au4 Er2 2.999261 1_555
Au4 Er1 2.999261 1_555
Au4 Er5 3.069210 1_555
Au4 Er4 3.069210 1_555
Au4 Sn1 3.116191 1_565
Au4 Sn2 3.116191 1_655
Au5 Er5 2.915522 1_556
Au5 Er2 2.952854 1_555
Au5 Er0 2.999261 1_656
Au5 Er3 2.999261 1_546
Au5 Er7 3.069210 1_655
Au5 Er6 3.069210 1_545
Au5 Sn0 3.116191 1_655
Au5 Sn3 3.116191 1_555
Au6 Er7 2.915522 1_555
Au6 Er0 2.952854 1_556
Au6 Er2 2.999261 1_555
Au6 Er1 2.999261 1_555
Au6 Er5 3.069210 1_556
Au6 Er4 3.069210 1_556
Au6 Sn0 3.116191 1_555
Au6 Sn3 3.116191 1_555
Au7 Er4 2.915522 1_555
Au7 Er1 2.952854 1_555
Au7 Er0 2.999261 1_565
Au7 Er3 2.999261 1_455
Au7 Er7 3.069210 1_565
Au7 Er6 3.069210 1_455
Au7 Sn1 3.116191 1_565
Au7 Sn2 3.116191 1_555
