# generated using pymatgen
data_Ba3InBiSb2
_symmetry_space_group_name_H-M   'P 1'
_cell_length_a   4.99816459
_cell_length_b   14.72158618
_cell_length_c   15.66512217
_cell_angle_alpha   90.00000000
_cell_angle_beta   90.00000000
_cell_angle_gamma   90.00000000
_symmetry_Int_Tables_number   1
_chemical_formula_structural   Ba3InBiSb2
_chemical_formula_sum   'Ba12 In4 Bi4 Sb8'
_cell_volume   1152.65395588
_cell_formula_units_Z   4
loop_
 _symmetry_equiv_pos_site_id
 _symmetry_equiv_pos_as_xyz
  1  'x, y, z'
loop_
 _atom_site_type_symbol
 _atom_site_label
 _atom_site_symmetry_multiplicity
 _atom_site_fract_x
 _atom_site_fract_y
 _atom_site_fract_z
 _atom_site_occupancy
  Ba  Ba0  1  0.25000000  0.42720327  0.10859547  1
  Ba  Ba1  1  0.25000000  0.14202167  0.99976039  1
  Ba  Ba2  1  0.25000000  0.21986563  0.28868362  1
  Ba  Ba3  1  0.75000000  0.28013437  0.78868362  1
  Ba  Ba4  1  0.75000000  0.35797833  0.49976039  1
  Ba  Ba5  1  0.25000000  0.92720327  0.39140453  1
  Ba  Ba6  1  0.75000000  0.78013437  0.71131638  1
  Ba  Ba7  1  0.75000000  0.85797833  0.00023961  1
  Ba  Ba8  1  0.25000000  0.71986563  0.21131638  1
  Ba  Ba9  1  0.75000000  0.07279673  0.60859547  1
  Ba  Ba10  1  0.75000000  0.57279673  0.89140453  1
  Ba  Ba11  1  0.25000000  0.64202167  0.50023961  1
  In  In0  1  0.75000000  0.56187654  0.29647127  1
  In  In1  1  0.75000000  0.06187654  0.20352873  1
  In  In2  1  0.25000000  0.43812346  0.70352873  1
  In  In3  1  0.25000000  0.93812346  0.79647127  1
  Bi  Bi0  1  0.75000000  0.04282126  0.84909052  1
  Bi  Bi1  1  0.25000000  0.45717874  0.34909052  1
  Bi  Bi2  1  0.25000000  0.95717874  0.15090948  1
  Bi  Bi3  1  0.75000000  0.54282126  0.65090948  1
  Sb  Sb0  1  0.75000000  0.24149974  0.12410105  1
  Sb  Sb1  1  0.75000000  0.74149974  0.37589895  1
  Sb  Sb2  1  0.75000000  0.59626506  0.11332532  1
  Sb  Sb3  1  0.25000000  0.25850026  0.62410105  1
  Sb  Sb4  1  0.25000000  0.75850026  0.87589895  1
  Sb  Sb5  1  0.75000000  0.09626506  0.38667468  1
  Sb  Sb6  1  0.25000000  0.90373494  0.61332532  1
  Sb  Sb7  1  0.25000000  0.40373494  0.88667468  1
loop_
_geom_bond_atom_site_label_1
_geom_bond_atom_site_label_2
_geom_bond_distance
_geom_bond_site_symmetry_2
Ba0 Sb7 3.493542 1_554
Ba0 Sb2 3.527792 1_455
Ba0 Sb2 3.527792 1_555
Ba0 Sb0 3.711920 1_455
Ba0 Sb0 3.711920 1_555
Ba0 Bi1 3.793141 1_555
Ba1 Sb0 3.490569 1_456
Ba1 Sb0 3.490569 1_556
Ba1 Bi2 3.607098 1_546
Ba1 Bi0 3.734833 1_455
Ba1 Bi0 3.734833 1_555
Ba2 Sb5 3.451478 1_555
Ba2 Sb5 3.451478 1_455
Ba2 Sb0 3.604718 1_455
Ba2 Sb0 3.604718 1_555
Ba2 Bi1 3.619512 1_555
Ba2 In1 3.665303 1_555
Ba2 In1 3.665303 1_455
Ba3 Sb7 3.451478 1_555
Ba3 Sb7 3.451478 1_655
Ba3 Sb3 3.604718 1_655
Ba3 Sb3 3.604718 1_555
Ba3 Bi0 3.619512 1_555
Ba3 In2 3.665303 1_655
Ba3 In2 3.665303 1_555
Ba4 Sb3 3.490569 1_555
Ba4 Sb3 3.490569 1_655
Ba4 Bi3 3.607098 1_555
Ba4 Bi1 3.734833 1_655
Ba4 Bi1 3.734833 1_555
Ba5 Sb6 3.493542 1_555
Ba5 Sb5 3.527792 1_465
Ba5 Sb5 3.527792 1_565
Ba5 Sb1 3.711920 1_455
Ba5 Sb1 3.711920 1_555
Ba5 Bi2 3.793141 1_555
Ba6 Sb6 3.451478 1_555
Ba6 Sb6 3.451478 1_655
Ba6 Sb4 3.604718 1_555
Ba6 Sb4 3.604718 1_655
Ba6 Bi3 3.619512 1_555
Ba6 In3 3.665303 1_555
Ba6 In3 3.665303 1_655
Ba7 Sb4 3.490569 1_554
Ba7 Sb4 3.490569 1_654
Ba7 Bi0 3.607098 1_564
Ba7 Bi2 3.734833 1_555
Ba7 Bi2 3.734833 1_655
Ba8 Sb2 3.451478 1_555
Ba8 Sb2 3.451478 1_455
Ba8 Sb1 3.604718 1_455
Ba8 Sb1 3.604718 1_555
Ba8 Bi2 3.619512 1_555
Ba8 In0 3.665303 1_455
Ba8 In0 3.665303 1_555
Ba9 Sb5 3.493542 1_555
Ba9 Sb6 3.527792 1_645
Ba9 Sb6 3.527792 1_545
Ba9 Sb3 3.711920 1_555
Ba9 Sb3 3.711920 1_655
Ba9 Bi0 3.793141 1_555
Ba10 Sb2 3.493542 1_556
Ba10 Sb7 3.527792 1_555
Ba10 Sb7 3.527792 1_655
Ba10 Sb4 3.711920 1_555
Ba10 Sb4 3.711920 1_655
Ba10 Bi3 3.793141 1_555
Ba11 Sb1 3.490569 1_455
Ba11 Sb1 3.490569 1_555
Ba11 Bi1 3.607098 1_555
Ba11 Bi3 3.734833 1_555
Ba11 Bi3 3.734833 1_455
In0 Sb2 2.913327 1_555
In0 Sb1 2.922442 1_555
In1 Sb5 2.913327 1_555
In1 Sb0 2.922442 1_555
In2 Sb7 2.913327 1_555
In2 Sb3 2.922442 1_555
In3 Sb6 2.913327 1_555
In3 Sb4 2.922442 1_555
Bi0 In3 3.049676 1_645
Bi0 In3 3.049676 1_545
Bi1 In0 3.049676 1_555
Bi1 In0 3.049676 1_455
Bi2 In1 3.049676 1_465
Bi2 In1 3.049676 1_565
Bi3 In2 3.049676 1_655
Bi3 In2 3.049676 1_555
