# generated using pymatgen
data_NaRh(CO3)2
_symmetry_space_group_name_H-M   'P 1'
_cell_length_a   5.99002722
_cell_length_b   5.99002691
_cell_length_c   5.99002837
_cell_angle_alpha   46.38004083
_cell_angle_beta   46.38004379
_cell_angle_gamma   46.38003005
_symmetry_Int_Tables_number   1
_chemical_formula_structural   NaRh(CO3)2
_chemical_formula_sum   'Na1 Rh1 C2 O6'
_cell_volume   102.82359597
_cell_formula_units_Z   1
loop_
 _symmetry_equiv_pos_site_id
 _symmetry_equiv_pos_as_xyz
  1  'x, y, z'
loop_
 _atom_site_type_symbol
 _atom_site_label
 _atom_site_symmetry_multiplicity
 _atom_site_fract_x
 _atom_site_fract_y
 _atom_site_fract_z
 _atom_site_occupancy
  Na  Na0  1  0.50000000  0.50000000  0.50000000  1
  Rh  Rh0  1  0.00000000  0.00000000  0.00000000  1
  C  C0  1  0.73711896  0.73711896  0.73711896  1
  C  C1  1  0.26288104  0.26288104  0.26288104  1
  O  O0  1  0.45782270  0.75598251  0.00354257  1
  O  O1  1  0.75598251  0.00354257  0.45782270  1
  O  O2  1  0.99645743  0.54217730  0.24401749  1
  O  O3  1  0.54217730  0.24401749  0.99645743  1
  O  O4  1  0.24401749  0.99645743  0.54217730  1
  O  O5  1  0.00354257  0.45782270  0.75598251  1
loop_
_geom_bond_atom_site_label_1
_geom_bond_atom_site_label_2
_geom_bond_distance
_geom_bond_site_symmetry_2
Na0 O4 2.338614 1_555
Na0 O1 2.338614 1_555
Na0 O2 2.338614 1_555
Na0 O5 2.338614 1_555
Na0 O3 2.338615 1_555
Na0 O0 2.338615 1_555
C0 O5 1.289463 1_655
C0 O1 1.289464 1_565
C0 O0 1.289464 1_556
C1 O2 1.289463 1_455
C1 O4 1.289464 1_545
C1 O3 1.289464 1_554
O0 Rh0 2.040686 1_565
O1 Rh0 2.040687 1_655
O2 Rh0 2.040686 1_665
O3 Rh0 2.040686 1_656
O4 Rh0 2.040687 1_566
O5 Rh0 2.040686 1_556
