# generated using pymatgen
data_Rb2MgZr3Se8
_symmetry_space_group_name_H-M   'P 1'
_cell_length_a   6.70750070
_cell_length_b   7.77145286
_cell_length_c   16.70170078
_cell_angle_alpha   90.00000000
_cell_angle_beta   90.00000000
_cell_angle_gamma   90.00000000
_symmetry_Int_Tables_number   1
_chemical_formula_structural   Rb2MgZr3Se8
_chemical_formula_sum   'Rb4 Mg2 Zr6 Se16'
_cell_volume   870.60998197
_cell_formula_units_Z   2
loop_
 _symmetry_equiv_pos_site_id
 _symmetry_equiv_pos_as_xyz
  1  'x, y, z'
loop_
 _atom_site_type_symbol
 _atom_site_label
 _atom_site_symmetry_multiplicity
 _atom_site_fract_x
 _atom_site_fract_y
 _atom_site_fract_z
 _atom_site_occupancy
  Rb  Rb0  1  0.33905819  0.00000000  0.00000000  1
  Rb  Rb1  1  0.65325069  0.50000000  0.50000000  1
  Rb  Rb2  1  0.01455359  0.00000000  0.50000000  1
  Rb  Rb3  1  0.98448345  0.50000000  0.00000000  1
  Mg  Mg0  1  0.00330673  0.00000000  0.24960201  1
  Mg  Mg1  1  0.00330673  0.00000000  0.75039799  1
  Zr  Zr0  1  0.99775270  0.50000000  0.25294585  1
  Zr  Zr1  1  0.99775270  0.50000000  0.74705415  1
  Zr  Zr2  1  0.49863134  0.24337314  0.25002372  1
  Zr  Zr3  1  0.49863134  0.75662686  0.74997628  1
  Zr  Zr4  1  0.49863134  0.75662686  0.25002372  1
  Zr  Zr5  1  0.49863134  0.24337314  0.74997628  1
  Se  Se0  1  0.83160369  0.25274504  0.34219207  1
  Se  Se1  1  0.83160369  0.74725496  0.65780793  1
  Se  Se2  1  0.16916432  0.74411147  0.15902936  1
  Se  Se3  1  0.16916432  0.25588853  0.84097064  1
  Se  Se4  1  0.16916432  0.25588853  0.15902936  1
  Se  Se5  1  0.16916432  0.74411147  0.84097064  1
  Se  Se6  1  0.83160369  0.74725496  0.34219207  1
  Se  Se7  1  0.83160369  0.25274504  0.65780793  1
  Se  Se8  1  0.66264382  0.00000000  0.15830837  1
  Se  Se9  1  0.66264382  0.00000000  0.84169163  1
  Se  Se10  1  0.33086493  0.50000000  0.34230653  1
  Se  Se11  1  0.33086493  0.50000000  0.65769347  1
  Se  Se12  1  0.34463060  0.00000000  0.34353389  1
  Se  Se13  1  0.34463060  0.00000000  0.65646611  1
  Se  Se14  1  0.66633206  0.50000000  0.15984835  1
  Se  Se15  1  0.66633206  0.50000000  0.84015165  1
loop_
_geom_bond_atom_site_label_1
_geom_bond_atom_site_label_2
_geom_bond_distance
_geom_bond_site_symmetry_2
Rb0 Se9 3.420774 1_554
Rb0 Se8 3.420774 1_555
Rb0 Se4 3.508261 1_555
Rb0 Se2 3.508261 1_545
Rb0 Se3 3.508261 1_554
Rb0 Se5 3.508261 1_544
Rb1 Se11 3.407730 1_555
Rb1 Se10 3.407730 1_555
Rb1 Se1 3.474209 1_555
Rb1 Se7 3.474209 1_555
Rb1 Se6 3.474209 1_555
Rb1 Se0 3.474209 1_555
Rb2 Se13 3.425031 1_555
Rb2 Se12 3.425031 1_555
Rb2 Se7 3.508652 1_455
Rb2 Se1 3.508652 1_445
Rb2 Se0 3.508652 1_455
Rb2 Se6 3.508652 1_445
Rb3 Se15 3.417816 1_554
Rb3 Se14 3.417816 1_555
Rb3 Se2 3.491152 1_655
Rb3 Se4 3.491152 1_655
Rb3 Se5 3.491152 1_654
Rb3 Se3 3.491152 1_654
Mg0 Se4 2.735065 1_555
Mg0 Se2 2.735065 1_545
Mg0 Se8 2.747017 1_455
Mg0 Se0 2.752429 1_455
Mg0 Se6 2.752429 1_445
Mg0 Se12 2.775373 1_555
Mg1 Se3 2.735065 1_555
Mg1 Se5 2.735065 1_545
Mg1 Se9 2.747017 1_455
Mg1 Se7 2.752429 1_455
Mg1 Se1 2.752429 1_445
Mg1 Se13 2.775373 1_555
Se0 Zr0 2.675079 1_555
Se0 Zr2 2.713501 1_555
Se1 Zr1 2.675079 1_555
Se1 Zr3 2.713501 1_555
Se2 Zr4 2.683802 1_555
Se2 Zr0 2.716854 1_455
Se3 Zr5 2.683802 1_555
Se3 Zr1 2.716854 1_455
Se4 Zr2 2.683802 1_555
Se4 Zr0 2.716854 1_455
Se5 Zr3 2.683802 1_555
Se5 Zr1 2.716854 1_455
Se6 Zr0 2.675079 1_555
Se6 Zr4 2.713501 1_555
Se7 Zr1 2.675079 1_555
Se7 Zr5 2.713501 1_555
Se8 Zr2 2.670940 1_555
Se8 Zr4 2.670940 1_545
Se9 Zr5 2.670940 1_555
Se9 Zr3 2.670940 1_545
Se10 Zr0 2.686969 1_455
Se10 Zr4 2.760311 1_555
Se10 Zr2 2.760311 1_555
Se11 Zr1 2.686969 1_455
Se11 Zr3 2.760311 1_555
Se11 Zr5 2.760311 1_555
Se12 Zr2 2.661468 1_555
Se12 Zr4 2.661468 1_545
Se13 Zr5 2.661468 1_555
Se13 Zr3 2.661468 1_545
Se14 Zr0 2.712825 1_555
Se14 Zr4 2.740632 1_555
Se14 Zr2 2.740632 1_555
Se15 Zr1 2.712825 1_555
Se15 Zr3 2.740632 1_555
Se15 Zr5 2.740632 1_555
