# generated using pymatgen
data_Rb2HPtI5
_symmetry_space_group_name_H-M   'P 1'
_cell_length_a   7.79632058
_cell_length_b   8.42826986
_cell_length_c   7.79632056
_cell_angle_alpha   57.28036860
_cell_angle_beta   65.43927106
_cell_angle_gamma   57.28036541
_symmetry_Int_Tables_number   1
_chemical_formula_structural   Rb2HPtI5
_chemical_formula_sum   'Rb2 H1 Pt1 I5'
_cell_volume   357.05438814
_cell_formula_units_Z   1
loop_
 _symmetry_equiv_pos_site_id
 _symmetry_equiv_pos_as_xyz
  1  'x, y, z'
loop_
 _atom_site_type_symbol
 _atom_site_label
 _atom_site_symmetry_multiplicity
 _atom_site_fract_x
 _atom_site_fract_y
 _atom_site_fract_z
 _atom_site_occupancy
  Rb  Rb0  1  0.76813027  0.73186973  0.76813027  1
  Rb  Rb1  1  0.26813027  0.23186973  0.26813027  1
  H  H0  1  0.15506718  0.84493282  0.15506718  1
  Pt  Pt0  1  0.00135784  0.99864216  0.00135784  1
  I  I0  1  0.72103040  0.27896960  0.72103040  1
  I  I1  1  0.79713438  0.75399287  0.24600713  1
  I  I2  1  0.24600713  0.20286562  0.79713438  1
  I  I3  1  0.24600713  0.75399287  0.79713438  1
  I  I4  1  0.79713438  0.20286562  0.24600713  1
loop_
_geom_bond_atom_site_label_1
_geom_bond_atom_site_label_2
_geom_bond_distance
_geom_bond_site_symmetry_2
H0 Pt0 1.545211 1_555
I0 Pt0 2.818079 1_646
I0 Rb1 4.240651 1_655
I0 Rb1 4.240651 1_556
I0 Rb0 4.240651 1_555
I0 Rb0 4.240651 1_545
I1 Pt0 2.682847 1_655
I1 Rb0 3.887910 1_555
I1 Rb1 3.887911 1_655
I1 Rb0 3.932371 1_554
I1 Rb1 3.932371 1_565
I2 Pt0 2.682847 1_546
I2 Rb1 3.887910 1_556
I2 Rb0 3.887911 1_545
I2 Rb1 3.932371 1_555
I2 Rb0 3.932371 1_455
I3 Pt0 2.682847 1_556
I3 Rb0 3.887910 1_555
I3 Rb1 3.887911 1_556
I3 Rb0 3.932371 1_455
I3 Rb1 3.932371 1_565
I4 Pt0 2.682847 1_645
I4 Rb1 3.887910 1_655
I4 Rb0 3.887911 1_545
I4 Rb1 3.932371 1_555
I4 Rb0 3.932371 1_554
