# generated using pymatgen
data_Cs6Ir3RhBr18
_symmetry_space_group_name_H-M   'P 1'
_cell_length_a   7.58698437
_cell_length_b   7.58698386
_cell_length_c   19.22670816
_cell_angle_alpha   90.00000000
_cell_angle_beta   90.00000000
_cell_angle_gamma   119.99999824
_symmetry_Int_Tables_number   1
_chemical_formula_structural   Cs6Ir3RhBr18
_chemical_formula_sum   'Cs6 Ir3 Rh1 Br18'
_cell_volume   958.45984557
_cell_formula_units_Z   1
loop_
 _symmetry_equiv_pos_site_id
 _symmetry_equiv_pos_as_xyz
  1  'x, y, z'
loop_
 _atom_site_type_symbol
 _atom_site_label
 _atom_site_symmetry_multiplicity
 _atom_site_fract_x
 _atom_site_fract_y
 _atom_site_fract_z
 _atom_site_occupancy
  Cs  Cs0  1  0.66666700  0.33333300  0.92939485  1
  Cs  Cs1  1  0.33333300  0.66666700  0.43038056  1
  Cs  Cs2  1  0.66666700  0.33333300  0.57134699  1
  Cs  Cs3  1  0.33333300  0.66666700  0.07026980  1
  Cs  Cs4  1  0.00000000  0.00000000  0.74966213  1
  Cs  Cs5  1  0.00000000  0.00000000  0.25010379  1
  Ir  Ir0  1  0.33333300  0.66666700  0.66571992  1
  Ir  Ir1  1  0.66666700  0.33333300  0.16439197  1
  Ir  Ir2  1  0.66666700  0.33333300  0.33542508  1
  Rh  Rh0  1  0.33333300  0.66666700  0.83519827  1
  Br  Br0  1  0.82241045  0.64481990  0.40798049  1
  Br  Br1  1  0.17821792  0.35643685  0.90712620  1
  Br  Br2  1  0.17821792  0.82178208  0.90712620  1
  Br  Br3  1  0.17767281  0.35534761  0.59286564  1
  Br  Br4  1  0.64356315  0.82178208  0.90712620  1
  Br  Br5  1  0.35518010  0.17758955  0.40798049  1
  Br  Br6  1  0.03394133  0.51697017  0.74967598  1
  Br  Br7  1  0.82241045  0.17758955  0.40798049  1
  Br  Br8  1  0.51793395  0.03586891  0.24985720  1
  Br  Br9  1  0.48302983  0.51697017  0.74967598  1
  Br  Br10  1  0.51793395  0.48206605  0.24985720  1
  Br  Br11  1  0.96413109  0.48206605  0.24985720  1
  Br  Br12  1  0.35488124  0.17744112  0.09186336  1
  Br  Br13  1  0.48302983  0.96605867  0.74967598  1
  Br  Br14  1  0.82255888  0.64511876  0.09186336  1
  Br  Br15  1  0.17767281  0.82232719  0.59286564  1
  Br  Br16  1  0.64465239  0.82232719  0.59286564  1
  Br  Br17  1  0.82255888  0.17744112  0.09186336  1
loop_
_geom_bond_atom_site_label_1
_geom_bond_atom_site_label_2
_geom_bond_distance
_geom_bond_site_symmetry_2
Br0 Ir2 2.476839 1_555
Br0 Cs2 3.748944 1_555
Br0 Cs1 3.820552 1_655
Br0 Cs1 3.820567 1_555
Br0 Cs5 3.828863 1_665
Br1 Rh0 2.463226 1_555
Br1 Cs3 3.740848 1_556
Br1 Cs0 3.820587 1_455
Br1 Cs0 3.820602 1_555
Br1 Cs4 3.827623 1_555
Br2 Rh0 2.463226 1_555
Br2 Cs3 3.740848 1_556
Br2 Cs0 3.820594 1_565
Br2 Cs0 3.820594 1_455
Br2 Cs4 3.827619 1_565
Br3 Ir0 2.479171 1_555
Br3 Cs1 3.734154 1_555
Br3 Cs4 3.813093 1_555
Br3 Cs2 3.818716 1_455
Br3 Cs2 3.818739 1_555
Br4 Rh0 2.463226 1_555
Br4 Cs3 3.740848 1_556
Br4 Cs0 3.820587 1_565
Br4 Cs0 3.820602 1_555
Br4 Cs4 3.827624 1_665
Br5 Ir2 2.476839 1_555
Br5 Cs2 3.748944 1_555
Br5 Cs1 3.820552 1_545
Br5 Cs1 3.820567 1_555
Br5 Cs5 3.828863 1_555
Br6 Ir0 2.544672 1_555
Br6 Rh0 2.563879 1_555
Br6 Cs4 3.800038 1_555
Br6 Cs4 3.800045 1_565
Br6 Cs2 4.192768 1_455
Br6 Cs0 4.214648 1_455
Br7 Ir2 2.476839 1_555
Br7 Cs2 3.748944 1_555
Br7 Cs1 3.820559 1_545
Br7 Cs1 3.820559 1_655
Br7 Cs5 3.828859 1_655
Br8 Ir1 2.553469 1_555
Br8 Ir2 2.554739 1_555
Br8 Cs5 3.800805 1_555
Br8 Cs5 3.800813 1_655
Br8 Cs3 4.219844 1_545
Br8 Cs1 4.234582 1_545
Br9 Ir0 2.544682 1_555
Br9 Rh0 2.563889 1_555
Br9 Cs4 3.800041 1_555
Br9 Cs4 3.800041 1_665
Br9 Cs2 4.192768 1_555
Br9 Cs0 4.214648 1_555
Br10 Ir1 2.553479 1_555
Br10 Ir2 2.554749 1_555
Br10 Cs5 3.800809 1_665
Br10 Cs5 3.800809 1_555
Br10 Cs3 4.219844 1_555
Br10 Cs1 4.234582 1_555
Br11 Ir1 2.553469 1_555
Br11 Ir2 2.554739 1_555
Br11 Cs5 3.800805 1_665
Br11 Cs5 3.800813 1_655
Br11 Cs3 4.219844 1_655
Br11 Cs1 4.234582 1_655
Br12 Ir1 2.478171 1_555
Br12 Cs0 3.735567 1_554
Br12 Cs3 3.818769 1_545
Br12 Cs3 3.818769 1_555
Br12 Cs5 3.833215 1_555
Br13 Ir0 2.544671 1_555
Br13 Rh0 2.563879 1_555
Br13 Cs4 3.800038 1_665
Br13 Cs4 3.800046 1_565
Br13 Cs2 4.192768 1_565
Br13 Cs0 4.214648 1_565
Br14 Ir1 2.478171 1_555
Br14 Cs0 3.735567 1_554
Br14 Cs3 3.818769 1_555
Br14 Cs3 3.818769 1_655
Br14 Cs5 3.833215 1_665
Br15 Ir0 2.479177 1_555
Br15 Cs1 3.734157 1_555
Br15 Cs4 3.813085 1_565
Br15 Cs2 3.818727 1_565
Br15 Cs2 3.818727 1_455
Br16 Ir0 2.479171 1_555
Br16 Cs1 3.734154 1_555
Br16 Cs4 3.813093 1_665
Br16 Cs2 3.818716 1_565
Br16 Cs2 3.818739 1_555
Br17 Ir1 2.478160 1_555
Br17 Cs0 3.735560 1_554
Br17 Cs3 3.818769 1_545
Br17 Cs3 3.818769 1_655
Br17 Cs5 3.833219 1_655
