# generated using pymatgen
data_Hf3Mo(SeO3)8
_symmetry_space_group_name_H-M   'P 1'
_cell_length_a   8.45248369
_cell_length_b   8.45248320
_cell_length_c   8.45248280
_cell_angle_alpha   90.60039336
_cell_angle_beta   89.39960256
_cell_angle_gamma   90.60039145
_symmetry_Int_Tables_number   1
_chemical_formula_structural   Hf3Mo(SeO3)8
_chemical_formula_sum   'Hf3 Mo1 Se8 O24'
_cell_volume   603.78443280
_cell_formula_units_Z   1
loop_
 _symmetry_equiv_pos_site_id
 _symmetry_equiv_pos_as_xyz
  1  'x, y, z'
loop_
 _atom_site_type_symbol
 _atom_site_label
 _atom_site_symmetry_multiplicity
 _atom_site_fract_x
 _atom_site_fract_y
 _atom_site_fract_z
 _atom_site_occupancy
  Hf  Hf0  1  0.50000000  0.50000000  0.00000000  1
  Hf  Hf1  1  0.50000000  0.00000000  0.50000000  1
  Hf  Hf2  1  0.00000000  0.00000000  0.00000000  1
  Mo  Mo0  1  0.00000000  0.50000000  0.50000000  1
  Se  Se0  1  0.82696964  0.20313583  0.68847488  1
  Se  Se1  1  0.17303036  0.79686417  0.31152512  1
  Se  Se2  1  0.70313583  0.68847488  0.67303036  1
  Se  Se3  1  0.18847488  0.67303036  0.79686417  1
  Se  Se4  1  0.31266934  0.18733066  0.81266934  1
  Se  Se5  1  0.81152512  0.32696964  0.20313583  1
  Se  Se6  1  0.68733066  0.81266934  0.18733066  1
  Se  Se7  1  0.29686417  0.31152512  0.32696964  1
  O  O0  1  0.23063097  0.45413663  0.45922852  1
  O  O1  1  0.92751866  0.21594178  0.08265999  1
  O  O2  1  0.04077148  0.73063097  0.45413663  1
  O  O3  1  0.46784722  0.27525698  0.90712507  1
  O  O4  1  0.28405822  0.91734001  0.42751866  1
  O  O5  1  0.58265999  0.57248134  0.78405822  1
  O  O6  1  0.94421809  0.06671532  0.77394192  1
  O  O7  1  0.53215278  0.72474302  0.09287493  1
  O  O8  1  0.59287493  0.96784722  0.27525698  1
  O  O9  1  0.40712507  0.03215278  0.72474302  1
  O  O10  1  0.77525698  0.90712507  0.03215278  1
  O  O11  1  0.27394192  0.55578191  0.93328468  1
  O  O12  1  0.04586337  0.54077148  0.73063097  1
  O  O13  1  0.05578191  0.93328468  0.22605808  1
  O  O14  1  0.22474302  0.09287493  0.96784722  1
  O  O15  1  0.41734001  0.42751866  0.21594178  1
  O  O16  1  0.76936903  0.54586337  0.54077148  1
  O  O17  1  0.95413663  0.45922852  0.26936903  1
  O  O18  1  0.07248134  0.78405822  0.91734001  1
  O  O19  1  0.43328468  0.22605808  0.44421809  1
  O  O20  1  0.56671532  0.77394192  0.55578191  1
  O  O21  1  0.95922852  0.26936903  0.54586337  1
  O  O22  1  0.71594178  0.08265999  0.57248134  1
  O  O23  1  0.72605808  0.44421809  0.06671532  1
loop_
_geom_bond_atom_site_label_1
_geom_bond_atom_site_label_2
_geom_bond_distance
_geom_bond_site_symmetry_2
Hf0 O15 2.045177 1_555
Hf0 O5 2.045177 1_554
Hf0 O23 2.058716 1_555
Hf0 O11 2.058716 1_554
Hf0 O3 2.064253 1_554
Hf0 O7 2.064253 1_555
Hf1 O22 2.045177 1_555
Hf1 O4 2.045177 1_545
Hf1 O20 2.058716 1_545
Hf1 O19 2.058716 1_555
Hf1 O9 2.064253 1_555
Hf1 O8 2.064253 1_545
Hf2 O1 2.045177 1_455
Hf2 O18 2.045177 1_544
Hf2 O13 2.058716 1_545
Hf2 O6 2.058716 1_454
Hf2 O14 2.064253 1_554
Hf2 O10 2.064253 1_445
Mo0 O12 2.016973 1_555
Mo0 O17 2.016973 1_455
Mo0 O2 2.016973 1_555
Mo0 O21 2.016973 1_455
Mo0 O16 2.016973 1_455
Mo0 O0 2.016973 1_555
O0 Se7 1.728866 1_555
O1 Se5 1.690345 1_555
O2 Se1 1.728866 1_555
O3 Se4 1.702715 1_555
O4 Se1 1.690345 1_555
O5 Se2 1.690345 1_555
O6 Se0 1.700020 1_555
O7 Se6 1.702715 1_555
O8 Se6 1.702714 1_555
O9 Se4 1.702714 1_555
O10 Se6 1.702714 1_555
O11 Se3 1.700020 1_555
O12 Se3 1.728866 1_555
O13 Se1 1.700020 1_555
O14 Se4 1.702714 1_555
O15 Se7 1.690345 1_555
O16 Se2 1.728866 1_555
O17 Se5 1.728866 1_555
O18 Se3 1.690345 1_555
O19 Se7 1.700020 1_555
O20 Se2 1.700020 1_555
O21 Se0 1.728866 1_555
O22 Se0 1.690345 1_555
O23 Se5 1.700020 1_555
