# generated using pymatgen
data_Ca4As3PdRh3
_symmetry_space_group_name_H-M   'P 1'
_cell_length_a   10.85011747
_cell_length_b   10.85011806
_cell_length_c   7.85702835
_cell_angle_alpha   71.04794658
_cell_angle_beta   71.04794656
_cell_angle_gamma   29.97651238
_symmetry_Int_Tables_number   1
_chemical_formula_structural   Ca4As3PdRh3
_chemical_formula_sum   'Ca8 As6 Pd2 Rh6'
_cell_volume   435.25179439
_cell_formula_units_Z   2
loop_
 _symmetry_equiv_pos_site_id
 _symmetry_equiv_pos_as_xyz
  1  'x, y, z'
loop_
 _atom_site_type_symbol
 _atom_site_label
 _atom_site_symmetry_multiplicity
 _atom_site_fract_x
 _atom_site_fract_y
 _atom_site_fract_z
 _atom_site_occupancy
  Ca  Ca0  1  0.93051194  0.20419078  0.32668438  1
  Ca  Ca1  1  0.07268760  0.79076678  0.67346477  1
  Ca  Ca2  1  0.79076678  0.07268760  0.17346477  1
  Ca  Ca3  1  0.45161323  0.20984120  0.90221537  1
  Ca  Ca4  1  0.79551055  0.54350253  0.59286478  1
  Ca  Ca5  1  0.20984120  0.45161323  0.40221537  1
  Ca  Ca6  1  0.20419078  0.93051194  0.82668438  1
  Ca  Ca7  1  0.54350253  0.79551055  0.09286478  1
  As  As0  1  0.30335408  0.03166598  0.43758630  1
  As  As1  1  0.39155441  0.60760492  0.25006519  1
  As  As2  1  0.03166598  0.30335408  0.93758630  1
  As  As3  1  0.71113215  0.95469634  0.56015654  1
  As  As4  1  0.95469634  0.71113215  0.06015654  1
  As  As5  1  0.60760492  0.39155441  0.75006519  1
  Pd  Pd0  1  0.36827368  0.07850121  0.68417390  1
  Pd  Pd1  1  0.07850121  0.36827368  0.18417390  1
  Rh  Rh0  1  0.58462670  0.29803545  0.52375969  1
  Rh  Rh1  1  0.69764652  0.42019742  0.97464714  1
  Rh  Rh2  1  0.29803545  0.58462670  0.02375969  1
  Rh  Rh3  1  0.42019742  0.69764652  0.47464714  1
  Rh  Rh4  1  0.63911430  0.91497323  0.32438294  1
  Rh  Rh5  1  0.91497323  0.63911430  0.82438294  1
loop_
_geom_bond_atom_site_label_1
_geom_bond_atom_site_label_2
_geom_bond_distance
_geom_bond_site_symmetry_2
Ca0 Rh0 2.854452 1_555
Ca0 Rh3 3.009879 1_645
Ca0 Rh3 3.029541 1_555
Ca0 Pd1 3.080809 1_655
Ca0 Rh1 3.097893 1_554
Ca1 Rh3 2.877016 1_555
Ca1 Rh0 3.010893 1_465
Ca1 Rh0 3.035223 1_555
Ca1 Rh5 3.055253 1_455
Ca1 Rh2 3.074758 1_556
Ca2 Rh1 2.877016 1_554
Ca2 Rh2 3.010893 1_645
Ca2 Rh2 3.035223 1_555
Ca2 Rh4 3.055253 1_545
Ca2 Rh0 3.074758 1_555
Ca3 Pd1 2.973789 1_556
Ca3 Rh5 3.073989 1_455
Ca3 Rh0 3.097948 1_555
Ca3 Rh2 3.158212 1_556
Ca3 Rh5 3.243919 1_545
Ca3 Pd0 3.256963 1_555
Ca3 Rh4 3.404539 1_546
Ca4 Rh4 2.920237 1_555
Ca4 Pd0 3.102539 1_565
Ca4 Rh1 3.114623 1_555
Ca4 Rh3 3.145043 1_555
Ca4 Pd1 3.286535 1_655
Ca4 Pd0 3.288644 1_655
Ca4 Rh5 3.339472 1_555
Ca5 Pd0 2.973789 1_555
Ca5 Rh4 3.073989 1_545
Ca5 Rh2 3.097948 1_555
Ca5 Rh0 3.158212 1_555
Ca5 Rh4 3.243919 1_455
Ca5 Pd1 3.256963 1_555
Ca5 Rh5 3.404539 1_455
Ca6 Rh2 2.854452 1_556
Ca6 Rh1 3.009879 1_465
Ca6 Rh1 3.029541 1_555
Ca6 Pd0 3.080809 1_565
Ca6 Rh3 3.097893 1_555
Ca7 Rh5 2.920236 1_554
Ca7 Pd1 3.102538 1_655
Ca7 Rh3 3.114623 1_555
Ca7 Rh1 3.145043 1_554
Ca7 Pd0 3.286535 1_564
Ca7 Pd1 3.288644 1_565
Ca7 Rh4 3.339472 1_555
As0 Pd1 2.500058 1_555
As0 Rh4 2.510300 1_545
As0 Rh3 2.533946 1_545
As0 Pd0 2.579570 1_555
As0 Ca0 2.956242 1_455
As0 Ca7 3.007952 1_545
As0 Ca4 3.015245 1_545
As0 Ca6 3.072163 1_545
As0 Ca4 3.116336 1_455
As1 Rh2 2.480225 1_555
As1 Rh3 2.483273 1_555
As1 Rh1 2.517481 1_554
As1 Rh0 2.517729 1_555
As1 Ca2 3.135554 1_555
As1 Ca0 3.154092 1_555
As1 Ca5 3.334215 1_555
As1 Ca7 3.356367 1_555
As1 Ca0 3.429777 1_465
As1 Ca1 3.448555 1_555
As1 Ca2 3.450559 1_465
As1 Ca6 3.457797 1_554
As2 Pd0 2.500058 1_555
As2 Rh5 2.510300 1_455
As2 Rh1 2.533946 1_455
As2 Pd1 2.579570 1_556
As2 Ca6 2.956242 1_545
As2 Ca4 3.007952 1_455
As2 Ca7 3.015245 1_456
As2 Ca0 3.072163 1_456
As2 Ca7 3.116335 1_546
As3 Rh5 2.484153 1_555
As3 Rh4 2.504070 1_555
As3 Pd0 2.535953 1_565
As3 Rh0 2.558873 1_565
As3 Ca1 2.914992 1_655
As3 Ca3 3.037750 1_565
As3 Ca2 3.049781 1_565
As3 Ca5 3.070201 1_565
As3 Ca5 3.079380 1_655
As4 Rh4 2.484153 1_555
As4 Rh5 2.504070 1_554
As4 Pd1 2.535953 1_655
As4 Rh2 2.558873 1_655
As4 Ca2 2.914992 1_565
As4 Ca5 3.037750 1_655
As4 Ca1 3.049781 1_654
As4 Ca3 3.070201 1_654
As4 Ca3 3.079380 1_564
As5 Rh0 2.480225 1_555
As5 Rh1 2.483273 1_555
As5 Rh3 2.517481 1_555
As5 Rh2 2.517729 1_556
As5 Ca1 3.135554 1_555
As5 Ca6 3.154093 1_555
As5 Ca3 3.334215 1_555
As5 Ca4 3.356367 1_555
As5 Ca6 3.429776 1_645
As5 Ca2 3.448555 1_556
As5 Ca1 3.450559 1_645
As5 Ca0 3.457797 1_555
Pd0 Rh4 2.933253 1_545
Pd0 Rh5 3.311832 1_545
Pd0 Rh5 3.377345 1_455
Pd1 Rh5 2.933253 1_454
Pd1 Rh4 3.311833 1_455
Pd1 Rh4 3.377344 1_545
