# generated using pymatgen
data_Nb3Al2PdN
_symmetry_space_group_name_H-M   'P 1'
_cell_length_a   8.32154029
_cell_length_b   8.32154020
_cell_length_c   8.32154114
_cell_angle_alpha   60.00000409
_cell_angle_beta   60.00000447
_cell_angle_gamma   59.99999579
_symmetry_Int_Tables_number   1
_chemical_formula_structural   Nb3Al2PdN
_chemical_formula_sum   'Nb12 Al8 Pd4 N4'
_cell_volume   407.47054177
_cell_formula_units_Z   4
loop_
 _symmetry_equiv_pos_site_id
 _symmetry_equiv_pos_as_xyz
  1  'x, y, z'
loop_
 _atom_site_type_symbol
 _atom_site_label
 _atom_site_symmetry_multiplicity
 _atom_site_fract_x
 _atom_site_fract_y
 _atom_site_fract_z
 _atom_site_occupancy
  Nb  Nb0  1  0.81664896  0.81664896  0.18335104  1
  Nb  Nb1  1  0.06664896  0.43335104  0.43335104  1
  Nb  Nb2  1  0.43335104  0.06664896  0.06664896  1
  Nb  Nb3  1  0.06664896  0.06664896  0.43335104  1
  Nb  Nb4  1  0.06664896  0.43335104  0.06664896  1
  Nb  Nb5  1  0.43335104  0.06664896  0.43335104  1
  Nb  Nb6  1  0.18335104  0.81664896  0.18335104  1
  Nb  Nb7  1  0.18335104  0.81664896  0.81664896  1
  Nb  Nb8  1  0.81664896  0.18335104  0.18335104  1
  Nb  Nb9  1  0.81664896  0.18335104  0.81664896  1
  Nb  Nb10  1  0.43335104  0.43335104  0.06664896  1
  Nb  Nb11  1  0.18335104  0.18335104  0.81664896  1
  Al  Al0  1  0.41618626  0.75143921  0.41618626  1
  Al  Al1  1  0.83381374  0.83381374  0.49856079  1
  Al  Al2  1  0.49856079  0.83381374  0.83381374  1
  Al  Al3  1  0.83381374  0.83381374  0.83381374  1
  Al  Al4  1  0.75143921  0.41618626  0.41618626  1
  Al  Al5  1  0.41618626  0.41618626  0.41618626  1
  Al  Al6  1  0.41618626  0.41618626  0.75143921  1
  Al  Al7  1  0.83381374  0.49856079  0.83381374  1
  Pd  Pd0  1  0.62500000  0.12500000  0.62500000  1
  Pd  Pd1  1  0.62500000  0.62500000  0.12500000  1
  Pd  Pd2  1  0.12500000  0.62500000  0.62500000  1
  Pd  Pd3  1  0.62500000  0.62500000  0.62500000  1
  N  N0  1  0.12500000  0.62500000  0.12500000  1
  N  N1  1  0.12500000  0.12500000  0.62500000  1
  N  N2  1  0.62500000  0.12500000  0.12500000  1
  N  N3  1  0.12500000  0.12500000  0.12500000  1
loop_
_geom_bond_atom_site_label_1
_geom_bond_atom_site_label_2
_geom_bond_distance
_geom_bond_site_symmetry_2
Nb0 Pd1 3.068366 1_555
Nb0 Pd3 3.068366 1_555
Nb1 Pd3 3.068366 1_455
Nb1 Pd2 3.068366 1_555
Nb2 Pd1 3.068366 1_545
Nb2 Pd0 3.068366 1_554
Nb3 Pd2 3.068366 1_545
Nb3 Pd0 3.068366 1_455
Nb4 Pd1 3.068366 1_455
Nb4 Pd2 3.068366 1_554
Nb5 Pd3 3.068366 1_545
Nb5 Pd0 3.068366 1_555
Nb6 Pd1 3.068366 1_555
Nb6 Pd2 3.068366 1_555
Nb7 Pd3 3.068366 1_555
Nb7 Pd2 3.068366 1_555
Nb8 Pd1 3.068366 1_555
Nb8 Pd0 3.068366 1_555
Nb9 Pd3 3.068366 1_555
Nb9 Pd0 3.068366 1_555
Nb10 Pd1 3.068366 1_555
Nb10 Pd3 3.068366 1_554
Nb11 Pd2 3.068366 1_555
Nb11 Pd0 3.068366 1_555
Al0 Pd1 2.551213 1_555
Al0 Pd2 2.551213 1_555
Al0 Pd3 2.551226 1_555
Al1 Pd0 2.551213 1_565
Al1 Pd2 2.551213 1_655
Al1 Pd3 2.551226 1_555
Al2 Pd0 2.551213 1_565
Al2 Pd1 2.551213 1_556
Al2 Pd3 2.551226 1_555
Al3 Pd0 2.551222 1_565
Al3 Pd2 2.551222 1_655
Al3 Pd1 2.551222 1_556
Al4 Pd0 2.551213 1_555
Al4 Pd1 2.551213 1_555
Al4 Pd3 2.551226 1_555
Al5 Pd0 2.551222 1_555
Al5 Pd2 2.551222 1_555
Al5 Pd1 2.551222 1_555
Al6 Pd0 2.551213 1_555
Al6 Pd2 2.551213 1_555
Al6 Pd3 2.551226 1_555
Al7 Pd1 2.551213 1_556
Al7 Pd2 2.551213 1_655
Al7 Pd3 2.551226 1_555
N0 Nb10 2.190790 1_555
N0 Nb0 2.190790 1_455
N0 Nb6 2.190790 1_555
N0 Nb4 2.190790 1_555
N0 Nb1 2.190790 1_555
N0 Nb7 2.190790 1_554
N1 Nb1 2.190790 1_555
N1 Nb7 2.190790 1_545
N1 Nb5 2.190790 1_555
N1 Nb9 2.190790 1_455
N1 Nb11 2.190790 1_555
N1 Nb3 2.190790 1_555
N2 Nb10 2.190790 1_555
N2 Nb0 2.190790 1_545
N2 Nb8 2.190790 1_555
N2 Nb2 2.190790 1_555
N2 Nb5 2.190790 1_555
N2 Nb9 2.190790 1_554
N3 Nb4 2.190790 1_555
N3 Nb6 2.190790 1_545
N3 Nb2 2.190790 1_555
N3 Nb8 2.190790 1_455
N3 Nb3 2.190790 1_555
N3 Nb11 2.190790 1_554
