# generated using pymatgen
data_Sc4Ge6Ru3Pt4
_symmetry_space_group_name_H-M   'P 1'
_cell_length_a   7.08583174
_cell_length_b   7.09048412
_cell_length_c   7.08583237
_cell_angle_alpha   109.38266675
_cell_angle_beta   109.62195967
_cell_angle_gamma   109.38266875
_symmetry_Int_Tables_number   1
_chemical_formula_structural   Sc4Ge6Ru3Pt4
_chemical_formula_sum   'Sc4 Ge6 Ru3 Pt4'
_cell_volume   274.14166841
_cell_formula_units_Z   1
loop_
 _symmetry_equiv_pos_site_id
 _symmetry_equiv_pos_as_xyz
  1  'x, y, z'
loop_
 _atom_site_type_symbol
 _atom_site_label
 _atom_site_symmetry_multiplicity
 _atom_site_fract_x
 _atom_site_fract_y
 _atom_site_fract_z
 _atom_site_occupancy
  Sc  Sc0  1  0.99742010  0.99484020  0.49742010  1
  Sc  Sc1  1  0.00875887  0.50587237  0.00875887  1
  Sc  Sc2  1  0.49742010  0.99484020  0.99742010  1
  Sc  Sc3  1  0.49711350  0.50587237  0.49711350  1
  Ge  Ge0  1  0.69025921  0.69428050  0.00402129  1
  Ge  Ge1  1  0.30732576  0.99061174  0.30732576  1
  Ge  Ge2  1  0.00473115  0.31463404  0.30990290  1
  Ge  Ge3  1  0.30990290  0.31463404  0.00473115  1
  Ge  Ge4  1  0.68328398  0.99061174  0.68328498  1
  Ge  Ge5  1  0.00402129  0.69428050  0.69025921  1
  Ru  Ru0  1  0.24880502  0.74956596  0.50076094  1
  Ru  Ru1  1  0.50076094  0.74956596  0.24880502  1
  Ru  Ru2  1  0.99948553  0.99897106  0.99948553  1
  Pt  Pt0  1  0.74991698  0.25013260  0.50021562  1
  Pt  Pt1  1  0.75028853  0.50057806  0.25028853  1
  Pt  Pt2  1  0.50021562  0.25013260  0.74991698  1
  Pt  Pt3  1  0.25028853  0.50057806  0.75028853  1
loop_
_geom_bond_atom_site_label_1
_geom_bond_atom_site_label_2
_geom_bond_distance
_geom_bond_site_symmetry_2
Ge0 Ru2 2.533926 1_554
Ge0 Ru1 2.535235 1_555
Ge0 Pt1 2.567563 1_555
Ge0 Pt3 2.567569 1_554
Ge0 Pt2 2.601149 1_554
Ge0 Sc2 2.892584 1_554
Ge0 Sc0 2.892584 1_555
Ge0 Sc1 2.976426 1_655
Ge0 Sc3 2.976426 1_554
Ge1 Ru1 2.537319 1_555
Ge1 Ru0 2.537319 1_555
Ge1 Ru2 2.548660 1_454
Ge1 Pt0 2.590521 1_565
Ge1 Pt2 2.590522 1_565
Ge1 Sc1 2.847088 1_555
Ge1 Sc0 2.939537 1_455
Ge1 Sc2 2.939537 1_554
Ge1 Sc3 3.037728 1_565
Ge2 Ru0 2.539902 1_555
Ge2 Ru2 2.543855 1_444
Ge2 Pt3 2.569666 1_555
Ge2 Pt1 2.569672 1_455
Ge2 Pt0 2.604675 1_455
Ge2 Sc3 2.885925 1_555
Ge2 Sc1 2.885925 1_555
Ge2 Sc2 2.979554 1_444
Ge2 Sc0 2.979554 1_445
Ge3 Ru1 2.539902 1_555
Ge3 Ru2 2.543854 1_444
Ge3 Pt1 2.569666 1_555
Ge3 Pt3 2.569673 1_554
Ge3 Pt2 2.604675 1_554
Ge3 Sc1 2.885925 1_555
Ge3 Sc3 2.885925 1_555
Ge3 Sc2 2.979554 1_544
Ge3 Sc0 2.979554 1_444
Ge4 Ru0 2.537308 1_555
Ge4 Ru1 2.537315 1_555
Ge4 Ru2 2.548673 1_555
Ge4 Pt2 2.590511 1_565
Ge4 Pt0 2.590517 1_565
Ge4 Sc3 2.847090 1_555
Ge4 Sc2 2.939533 1_555
Ge4 Sc0 2.939544 1_555
Ge4 Sc1 3.037730 1_666
Ge5 Ru2 2.533926 1_455
Ge5 Ru0 2.535235 1_555
Ge5 Pt3 2.567563 1_555
Ge5 Pt1 2.567569 1_455
Ge5 Pt0 2.601149 1_455
Ge5 Sc2 2.892584 1_555
Ge5 Sc0 2.892584 1_455
Ge5 Sc3 2.976426 1_455
Ge5 Sc1 2.976426 1_556
Ru0 Sc3 2.846209 1_555
Ru0 Sc1 2.846209 1_555
Ru0 Sc0 2.872838 1_455
Ru0 Sc2 2.872838 1_555
Ru1 Sc1 2.846209 1_555
Ru1 Sc3 2.846209 1_555
Ru1 Sc0 2.872838 1_555
Ru1 Sc2 2.872838 1_554
Pt0 Sc0 2.908501 1_545
Pt0 Sc2 2.908501 1_544
Pt0 Sc3 2.941680 1_555
Pt0 Sc1 2.941680 1_656
Pt1 Sc0 2.865053 1_555
Pt1 Sc3 2.896020 1_555
Pt1 Sc1 2.896020 1_655
Pt1 Sc2 2.931573 1_544
Pt2 Sc0 2.908501 1_445
Pt2 Sc2 2.908501 1_545
Pt2 Sc1 2.941680 1_656
Pt2 Sc3 2.941680 1_555
Pt3 Sc2 2.865053 1_555
Pt3 Sc3 2.896020 1_555
Pt3 Sc1 2.896020 1_556
Pt3 Sc0 2.931573 1_445
