# generated using pymatgen
data_La2Fe2I
_symmetry_space_group_name_H-M   'P 1'
_cell_length_a   4.24454838
_cell_length_b   4.24454695
_cell_length_c   17.87431426
_cell_angle_alpha   90.00000000
_cell_angle_beta   90.00000000
_cell_angle_gamma   120.00000185
_symmetry_Int_Tables_number   1
_chemical_formula_structural   La2Fe2I
_chemical_formula_sum   'La4 Fe4 I2'
_cell_volume   278.88351465
_cell_formula_units_Z   2
loop_
 _symmetry_equiv_pos_site_id
 _symmetry_equiv_pos_as_xyz
  1  'x, y, z'
loop_
 _atom_site_type_symbol
 _atom_site_label
 _atom_site_symmetry_multiplicity
 _atom_site_fract_x
 _atom_site_fract_y
 _atom_site_fract_z
 _atom_site_occupancy
  La  La0  1  -0.00000000  0.00000000  0.10534333  1
  La  La1  1  0.00000000  0.00000000  0.60534333  1
  La  La2  1  0.00000000  0.00000000  0.89465667  1
  La  La3  1  0.00000000  0.00000000  0.39465667  1
  Fe  Fe0  1  0.66666700  0.33333300  0.99704449  1
  Fe  Fe1  1  0.33333300  0.66666700  0.49704449  1
  Fe  Fe2  1  0.33333300  0.66666700  0.00295551  1
  Fe  Fe3  1  0.66666700  0.33333300  0.50295551  1
  I  I0  1  0.66666700  0.33333300  0.25000000  1
  I  I1  1  0.33333300  0.66666700  0.75000000  1
loop_
_geom_bond_atom_site_label_1
_geom_bond_atom_site_label_2
_geom_bond_distance
_geom_bond_site_symmetry_2
Fe0 Fe2 2.452864 1_546
Fe0 Fe2 2.452865 1_656
Fe0 Fe2 2.452872 1_556
Fe0 La2 3.058544 1_655
Fe0 La2 3.058547 1_665
Fe0 La2 3.058548 1_555
Fe0 La0 3.122912 1_656
Fe0 La0 3.122914 1_666
Fe0 La0 3.122915 1_556
Fe1 Fe3 2.452864 1_565
Fe1 Fe3 2.452865 1_455
Fe1 Fe3 2.452872 1_555
Fe1 La3 3.058544 1_565
Fe1 La3 3.058547 1_555
Fe1 La3 3.058548 1_665
Fe1 La1 3.122912 1_565
Fe1 La1 3.122914 1_555
Fe1 La1 3.122915 1_665
Fe2 La0 3.058544 1_565
Fe2 La0 3.058547 1_555
Fe2 La0 3.058548 1_665
Fe2 La2 3.122912 1_564
Fe2 La2 3.122914 1_554
Fe2 La2 3.122915 1_664
Fe3 La1 3.058544 1_655
Fe3 La1 3.058547 1_665
Fe3 La1 3.058548 1_555
Fe3 La3 3.122912 1_655
Fe3 La3 3.122914 1_665
Fe3 La3 3.122915 1_555
I0 La0 3.562430 1_655
I0 La3 3.562430 1_655
I0 La0 3.562433 1_665
I0 La3 3.562433 1_665
I0 La0 3.562433 1_555
I0 La3 3.562433 1_555
I1 La2 3.562430 1_565
I1 La1 3.562430 1_565
I1 La2 3.562433 1_555
I1 La1 3.562433 1_555
I1 La1 3.562433 1_665
I1 La2 3.562433 1_665
