# generated using pymatgen
data_TaTi7Al15Ir7
_symmetry_space_group_name_H-M   'P 1'
_cell_length_a   8.60649516
_cell_length_b   8.61089101
_cell_length_c   8.60674833
_cell_angle_alpha   120.08187859
_cell_angle_beta   119.90317674
_cell_angle_gamma   90.01777079
_symmetry_Int_Tables_number   1
_chemical_formula_structural   TaTi7Al15Ir7
_chemical_formula_sum   'Ta1 Ti7 Al15 Ir7'
_cell_volume   451.05365104
_cell_formula_units_Z   1
loop_
 _symmetry_equiv_pos_site_id
 _symmetry_equiv_pos_as_xyz
  1  'x, y, z'
loop_
 _atom_site_type_symbol
 _atom_site_label
 _atom_site_symmetry_multiplicity
 _atom_site_fract_x
 _atom_site_fract_y
 _atom_site_fract_z
 _atom_site_occupancy
  Ta  Ta0  1  0.79690125  0.29657802  0.08591957  1
  Ti  Ti0  1  0.21331078  0.28951904  0.49556925  1
  Ti  Ti1  1  0.20400588  0.70444879  0.49577573  1
  Ti  Ti2  1  0.21804039  0.72049272  0.93053804  1
  Ti  Ti3  1  0.79163069  0.71338396  0.49733991  1
  Ti  Ti4  1  0.78235299  0.28228750  0.49640035  1
  Ti  Ti5  1  0.37949873  0.12311246  0.74450159  1
  Ti  Ti6  1  0.37900461  0.63587474  0.25601735  1
  Al  Al0  1  0.00268355  0.50159662  0.51236501  1
  Al  Al1  1  0.15728021  0.34065928  0.18457320  1
  Al  Al2  1  0.15377198  0.96459716  0.81053250  1
  Al  Al3  1  0.14947593  0.34691312  0.80296913  1
  Al  Al4  1  0.53655721  0.34457260  0.19304566  1
  Al  Al5  1  0.84555239  0.65248727  0.80700228  1
  Al  Al6  1  0.84380747  0.03237345  0.18945499  1
  Al  Al7  1  0.84058760  0.65829501  0.18361939  1
  Al  Al8  1  0.46595220  0.65463958  0.81137785  1
  Al  Al9  1  0.37974493  0.12190495  0.25886151  1
  Al  Al10  1  0.86385553  0.12114433  0.74193357  1
  Al  Al11  1  0.62198985  0.87847624  0.25730855  1
  Al  Al12  1  0.62117097  0.36495573  0.74260636  1
  Al  Al13  1  0.62214910  0.87811518  0.74409908  1
  Al  Al14  1  0.13440615  0.87830925  0.25626202  1
  Ir  Ir0  1  0.00225282  0.99977401  0.50191167  1
  Ir  Ir1  1  0.49768190  0.99926592  0.99867057  1
  Ir  Ir2  1  0.49698746  0.49739044  0.99992600  1
  Ir  Ir3  1  0.49793810  0.50041591  0.49829171  1
  Ir  Ir4  1  0.00168166  0.49991174  0.00201259  1
  Ir  Ir5  1  0.99997906  0.99917011  0.00027149  1
  Ir  Ir6  1  0.49974464  0.99933585  0.50084205  1
loop_
_geom_bond_atom_site_label_1
_geom_bond_atom_site_label_2
_geom_bond_distance
_geom_bond_site_symmetry_2
Ta0 Ti5 2.973611 1_554
Ti0 Ti5 2.951730 1_555
Ti1 Ti6 2.958578 1_555
Ti1 Ti5 2.982733 1_565
Ti2 Ti6 2.911163 1_556
Ti3 Ti6 2.936894 1_555
Al0 Ti2 2.547071 1_555
Al0 Ti1 2.562901 1_555
Al0 Ti0 2.576940 1_555
Al0 Ti3 2.578020 1_455
Al0 Ti4 2.580471 1_455
Al0 Ta0 2.597233 1_455
Al1 Ir3 2.481848 1_555
Al1 Ir5 2.485173 1_445
Al1 Ir4 2.491145 1_555
Al1 Ti0 2.736013 1_555
Al1 Ta0 2.745052 1_455
Al1 Al9 2.758962 1_555
Al1 Al10 2.765774 1_454
Al1 Ti1 2.768174 1_555
Al1 Ti6 2.782400 1_555
Al2 Ir5 2.485048 1_456
Al2 Ir0 2.490166 1_555
Al2 Ir1 2.491586 1_555
Al2 Ti2 2.720010 1_555
Al2 Ti3 2.726388 1_455
Al2 Ti1 2.762011 1_555
Al2 Al9 2.789734 1_566
Al2 Ti5 2.799476 1_565
Al3 Ir4 2.489901 1_556
Al3 Ir0 2.492831 1_545
Al3 Ir2 2.497654 1_555
Al3 Ti4 2.733035 1_455
Al3 Ti0 2.772102 1_555
Al3 Ti2 2.777407 1_555
Al3 Ti6 2.808629 1_556
Al3 Ti5 2.812420 1_555
Al4 Ir3 2.479924 1_555
Al4 Ir1 2.491272 1_544
Al4 Ir2 2.497748 1_554
Al4 Ti4 2.734405 1_555
Al4 Al9 2.769126 1_555
Al4 Ti3 2.772939 1_555
Al4 Ta0 2.778460 1_555
Al4 Ti5 2.789706 1_554
Al4 Ti6 2.792196 1_555
Al5 Ir5 2.502060 1_556
Al5 Ir3 2.511730 1_555
Al5 Ir4 2.512307 1_656
Al5 Ti4 2.758678 1_555
Al5 Ti2 2.779704 1_655
Al5 Ti3 2.785945 1_555
Al6 Ir5 2.501040 1_545
Al6 Ir0 2.504175 1_645
Al6 Ir1 2.510892 1_544
Al6 Ti4 2.754014 1_555
Al6 Ti0 2.784051 1_655
Al6 Ta0 2.794105 1_555
Al7 Ir0 2.491708 1_655
Al7 Ir4 2.500061 1_655
Al7 Ir2 2.510802 1_554
Al7 Ti3 2.746569 1_555
Al7 Ta0 2.758316 1_555
Al7 Ti1 2.776539 1_655
Al8 Ir1 2.498896 1_555
Al8 Ir3 2.500605 1_555
Al8 Ir2 2.511785 1_555
Al8 Ti2 2.743249 1_555
Al8 Ti0 2.745319 1_555
Al8 Ti1 2.776234 1_555
Al9 Ir6 2.564692 1_545
Al9 Ir1 2.656446 1_544
Al9 Ir3 2.660671 1_555
Al9 Ir5 2.672070 1_445
Al9 Ti2 2.855478 1_544
Al9 Ti4 2.863006 1_555
Al9 Ti0 2.872063 1_555
Al10 Ir6 2.560994 1_545
Al10 Ir0 2.658650 1_645
Al10 Ir4 2.662062 1_656
Al10 Ir5 2.676563 1_546
Al10 Al2 2.778964 1_645
Al10 Al3 2.789942 1_655
Al10 Ti4 2.888840 1_555
Al10 Ti3 2.903531 1_545
Al10 Ta0 2.932123 1_556
Al10 Al11 2.949577 1_545
Al10 Al12 2.961885 1_555
Al10 Al13 2.963479 1_545
Al11 Ir6 2.568278 1_555
Al11 Ir1 2.669982 1_554
Al11 Ir0 2.675368 1_655
Al11 Ir2 2.677155 1_554
Al11 Al7 2.742790 1_555
Al11 Al6 2.761817 1_565
Al11 Al8 2.773497 1_554
Al11 Ti4 2.867462 1_565
Al11 Ti2 2.873963 1_554
Al11 Ti3 2.891102 1_555
Al11 Ti6 2.947590 1_555
Al11 Al9 2.956874 1_565
Al12 Ir6 2.568327 1_545
Al12 Ir3 2.672625 1_555
Al12 Ir4 2.677009 1_656
Al12 Ir2 2.678920 1_555
Al12 Al7 2.755448 1_556
Al12 Al8 2.769027 1_555
Al12 Al5 2.778630 1_555
Al12 Ti4 2.888041 1_555
Al12 Ti0 2.904637 1_555
Al12 Ta0 2.941734 1_556
Al12 Al9 2.944225 1_555
Al12 Ti5 2.954387 1_555
Al13 Ir6 2.564191 1_555
Al13 Ir3 2.653564 1_555
Al13 Ir5 2.658433 1_556
Al13 Ir1 2.661952 1_555
Al13 Al6 2.774804 1_566
Al13 Al8 2.781558 1_555
Al13 Al5 2.789896 1_555
Al13 Ti3 2.953012 1_555
Al13 Ti5 2.968926 1_565
Al13 Ti6 2.970685 1_555
Al13 Ta0 2.976403 1_566
Al13 Ti1 2.979743 1_555
Al14 Ir6 2.569650 1_555
Al14 Ir5 2.652117 1_455
Al14 Ir0 2.653148 1_555
Al14 Ir4 2.658521 1_555
Al14 Al7 2.758240 1_455
Al14 Al6 2.771034 1_465
Al14 Al5 2.790643 1_454
Al14 Ti2 2.901293 1_554
Al14 Ti0 2.921312 1_565
Al14 Ti1 2.951739 1_555
Al14 Al9 2.960049 1_565
Al14 Ti6 2.965184 1_555
Al14 Ti5 2.971608 1_565
Ir0 Ti5 2.654168 1_565
Ir0 Ti3 3.032795 1_455
Ir0 Ti1 3.073155 1_555
Ir0 Ti0 3.124095 1_565
Ir1 Ti5 2.660467 1_565
Ir1 Ti2 3.012752 1_555
Ir1 Ti1 3.104867 1_555
Ir1 Ta0 3.144910 1_566
Ir2 Ti6 2.628428 1_556
Ir2 Ti5 2.630807 1_555
Ir2 Ti3 3.067274 1_556
Ir2 Ti2 3.087782 1_555
Ir2 Ta0 3.095379 1_556
Ir2 Ti0 3.106268 1_555
Ir3 Ti6 2.658411 1_555
Ir3 Ti0 3.032581 1_555
Ir3 Ti1 3.077820 1_555
Ir3 Ti3 3.128093 1_555
Ir4 Ti6 2.654995 1_555
Ir4 Ta0 3.037765 1_455
Ir4 Ti1 3.051314 1_555
Ir4 Ti2 3.124867 1_554
Ir5 Ti0 3.050097 1_665
Ir5 Ti2 3.053333 1_654
Ir5 Ta0 3.090553 1_565
Ir5 Ti3 3.096411 1_554
Ir6 Ti6 2.553179 1_555
Ir6 Ti5 2.555157 1_565
