# generated using pymatgen
data_Ag2S
_symmetry_space_group_name_H-M   'P 1'
_cell_length_a   4.24145700
_cell_length_b   4.26353069
_cell_length_c   7.67964881
_cell_angle_alpha   89.14850503
_cell_angle_beta   89.59711731
_cell_angle_gamma   68.38104042
_symmetry_Int_Tables_number   1
_chemical_formula_structural   Ag2S
_chemical_formula_sum   'Ag4 S2'
_cell_volume   129.09186767
_cell_formula_units_Z   2
loop_
 _symmetry_equiv_pos_site_id
 _symmetry_equiv_pos_as_xyz
  1  'x, y, z'
loop_
 _atom_site_type_symbol
 _atom_site_label
 _atom_site_symmetry_multiplicity
 _atom_site_fract_x
 _atom_site_fract_y
 _atom_site_fract_z
 _atom_site_occupancy
  Ag  Ag0  1  0.76346100  0.72058500  0.73929000  1
  Ag  Ag1  1  0.36951700  0.32135300  0.97110200  1
  Ag  Ag2  1  0.15425300  0.11919500  0.50659300  1
  Ag  Ag3  1  0.75515300  0.71446500  0.23819100  1
  S  S0  1  0.54336100  0.51098100  0.49255500  1
  S  S1  1  0.97675500  0.92592000  0.98977100  1
loop_
_geom_bond_atom_site_label_1
_geom_bond_atom_site_label_2
_geom_bond_distance
_geom_bond_site_symmetry_2
Ag0 S1 2.437876 1_555
Ag0 S0 2.439360 1_555
Ag1 S1 2.506641 1_455
Ag1 S1 2.508960 1_545
Ag1 S1 2.774368 1_445
Ag2 S0 2.512375 1_545
Ag2 S0 2.514922 1_455
Ag2 S0 2.747567 1_555
Ag3 S0 2.423779 1_555
Ag3 S1 2.425676 1_554
