# generated using pymatgen
data_Li4GeS4
_symmetry_space_group_name_H-M   'P 1'
_cell_length_a   6.14851844
_cell_length_b   7.73756620
_cell_length_c   14.03167934
_cell_angle_alpha   90.00000000
_cell_angle_beta   90.00000000
_cell_angle_gamma   90.00000000
_symmetry_Int_Tables_number   1
_chemical_formula_structural   Li4GeS4
_chemical_formula_sum   'Li16 Ge4 S16'
_cell_volume   667.55108939
_cell_formula_units_Z   4
loop_
 _symmetry_equiv_pos_site_id
 _symmetry_equiv_pos_as_xyz
  1  'x, y, z'
loop_
 _atom_site_type_symbol
 _atom_site_label
 _atom_site_symmetry_multiplicity
 _atom_site_fract_x
 _atom_site_fract_y
 _atom_site_fract_z
 _atom_site_occupancy
  Li  Li0  1  0.62785429  0.25000000  0.41299128  1
  Li  Li1  1  0.12785429  0.75000000  0.08700872  1
  Li  Li2  1  0.37214571  0.75000000  0.58700872  1
  Li  Li3  1  0.87214571  0.25000000  0.91299128  1
  Li  Li4  1  0.69105147  -0.00058982  0.17771681  1
  Li  Li5  1  0.19105147  0.00058982  0.32228319  1
  Li  Li6  1  0.30894853  0.49941018  0.82228319  1
  Li  Li7  1  0.80894853  0.50058982  0.67771681  1
  Li  Li8  1  0.30894853  0.00058982  0.82228319  1
  Li  Li9  1  0.80894853  -0.00058982  0.67771681  1
  Li  Li10  1  0.69105147  0.50058982  0.17771681  1
  Li  Li11  1  0.19105147  0.49941018  0.32228319  1
  Li  Li12  1  0.50000000  -0.00000000  -0.00000000  1
  Li  Li13  1  -0.00000000  -0.00000000  0.50000000  1
  Li  Li14  1  0.50000000  0.50000000  -0.00000000  1
  Li  Li15  1  -0.00000000  0.50000000  0.50000000  1
  Ge  Ge0  1  0.85074846  0.75000000  0.91116265  1
  Ge  Ge1  1  0.14925154  0.25000000  0.08883735  1
  Ge  Ge2  1  0.64925154  0.75000000  0.41116265  1
  Ge  Ge3  1  0.35074846  0.25000000  0.58883735  1
  S  S0  1  0.26864686  0.25000000  0.93763540  1
  S  S1  1  0.23135314  0.25000000  0.43763540  1
  S  S2  1  0.76864686  0.75000000  0.56236460  1
  S  S3  1  0.73135314  0.75000000  0.06236460  1
  S  S4  1  0.78239364  0.98610058  0.34388936  1
  S  S5  1  0.28239364  0.01389942  0.15611064  1
  S  S6  1  0.21760636  0.48610058  0.65611064  1
  S  S7  1  0.71760636  0.51389942  0.84388936  1
  S  S8  1  0.21760636  0.01389942  0.65611064  1
  S  S9  1  0.71760636  0.98610058  0.84388936  1
  S  S10  1  0.78239364  0.51389942  0.34388936  1
  S  S11  1  0.28239364  0.48610058  0.15611064  1
  S  S12  1  0.79003669  0.25000000  0.08608731  1
  S  S13  1  0.29003669  0.75000000  0.41391269  1
  S  S14  1  0.20996331  0.75000000  0.91391269  1
  S  S15  1  0.70996331  0.25000000  0.58608731  1
loop_
_geom_bond_atom_site_label_1
_geom_bond_atom_site_label_2
_geom_bond_distance
_geom_bond_site_symmetry_2
Li0 S4 2.452046 1_545
Li0 S10 2.452046 1_555
Li0 S1 2.462297 1_555
Li0 S15 2.480741 1_555
Li1 S11 2.452046 1_555
Li1 S5 2.452046 1_565
Li1 S3 2.462297 1_455
Li1 S14 2.480741 1_554
Li2 S8 2.452046 1_565
Li2 S6 2.452046 1_555
Li2 S2 2.462297 1_555
Li2 S13 2.480741 1_555
Li3 S9 2.452046 1_545
Li3 S7 2.452046 1_555
Li3 S0 2.462297 1_655
Li3 S12 2.480741 1_556
Li4 S4 2.400573 1_545
Li4 S12 2.404791 1_555
Li4 S3 2.530900 1_545
Li4 S5 2.533346 1_555
Li5 S5 2.400573 1_555
Li5 S13 2.404791 1_545
Li5 S1 2.530900 1_555
Li5 S4 2.533346 1_445
Li6 S6 2.400573 1_555
Li6 S14 2.404791 1_555
Li6 S0 2.530900 1_555
Li6 S7 2.533346 1_555
Li7 S7 2.400573 1_555
Li7 S15 2.404791 1_555
Li7 S2 2.530900 1_555
Li7 S6 2.533346 1_655
Li8 S8 2.400573 1_555
Li8 S14 2.404791 1_545
Li8 S0 2.530900 1_555
Li8 S9 2.533346 1_545
Li9 S9 2.400573 1_545
Li9 S15 2.404791 1_555
Li9 S2 2.530900 1_545
Li9 S8 2.533346 1_655
Li10 S10 2.400573 1_555
Li10 S12 2.404791 1_555
Li10 S3 2.530900 1_555
Li10 S11 2.533346 1_555
Li11 S11 2.400573 1_555
Li11 S13 2.404791 1_555
Li11 S1 2.530900 1_555
Li11 S10 2.533346 1_455
Li12 S3 2.555598 1_545
Li12 S0 2.555598 1_554
Li12 S5 2.569039 1_555
Li12 S9 2.569039 1_544
Li12 S12 2.895023 1_555
Li12 S14 2.895023 1_544
Li13 S2 2.555598 1_445
Li13 S1 2.555598 1_555
Li13 S8 2.569039 1_555
Li13 S4 2.569039 1_445
Li13 S13 2.895023 1_545
Li13 S15 2.895023 1_455
Li14 S3 2.555598 1_555
Li14 S0 2.555598 1_554
Li14 S11 2.569039 1_555
Li14 S7 2.569039 1_554
Li14 S14 2.895023 1_554
Li14 S12 2.895023 1_555
Li15 S2 2.555598 1_455
Li15 S1 2.555598 1_555
Li15 S6 2.569039 1_555
Li15 S10 2.569039 1_455
Li15 S13 2.895023 1_555
Li15 S15 2.895023 1_455
Ge0 S14 2.208976 1_655
Ge0 S9 2.213270 1_555
Ge0 S7 2.213270 1_555
Ge0 S3 2.245032 1_556
Ge1 S12 2.208976 1_455
Ge1 S11 2.213270 1_555
Ge1 S5 2.213270 1_555
Ge1 S0 2.245032 1_554
Ge2 S13 2.208976 1_555
Ge2 S4 2.213270 1_555
Ge2 S10 2.213270 1_555
Ge2 S2 2.245032 1_555
Ge3 S15 2.208976 1_555
Ge3 S6 2.213270 1_555
Ge3 S8 2.213270 1_555
Ge3 S1 2.245032 1_555
