# generated using pymatgen
data_Ti8Al2Ga13Ir7
_symmetry_space_group_name_H-M   'P 1'
_cell_length_a   8.61746727
_cell_length_b   8.61746621
_cell_length_c   8.61746689
_cell_angle_alpha   120.14028255
_cell_angle_beta   119.82783373
_cell_angle_gamma   90.02782621
_symmetry_Int_Tables_number   1
_chemical_formula_structural   Ti8Al2Ga13Ir7
_chemical_formula_sum   'Ti8 Al2 Ga13 Ir7'
_cell_volume   452.61027403
_cell_formula_units_Z   1
loop_
 _symmetry_equiv_pos_site_id
 _symmetry_equiv_pos_as_xyz
  1  'x, y, z'
loop_
 _atom_site_type_symbol
 _atom_site_label
 _atom_site_symmetry_multiplicity
 _atom_site_fract_x
 _atom_site_fract_y
 _atom_site_fract_z
 _atom_site_occupancy
  Ti  Ti0  1  0.79622701  0.29228939  0.07497383  1
  Ti  Ti1  1  0.21731556  0.29228939  0.49606338  1
  Ti  Ti2  1  0.20386775  0.70386775  0.50000000  1
  Ti  Ti3  1  0.21731556  0.72125318  0.92502617  1
  Ti  Ti4  1  0.79622701  0.72125318  0.50393662  1
  Ti  Ti5  1  0.77913364  0.27913364  0.50000000  1
  Ti  Ti6  1  0.37769837  0.12518744  0.74748907  1
  Ti  Ti7  1  0.37769837  0.63020829  0.25251093  1
  Al  Al0  1  0.62081733  0.87544246  0.74537487  1
  Al  Al1  1  0.13006559  0.87544246  0.25462513  1
  Ga  Ga0  1  0.99228056  0.49228056  0.50000000  1
  Ga  Ga1  1  0.15254159  0.34968882  0.19714524  1
  Ga  Ga2  1  0.15254159  0.95539635  0.80285476  1
  Ga  Ga3  1  0.14843565  0.35284918  0.79558647  1
  Ga  Ga4  1  0.55726071  0.35284918  0.20441353  1
  Ga  Ga5  1  0.85081818  0.64862931  0.79781213  1
  Ga  Ga6  1  0.85081818  0.05300604  0.20218787  1
  Ga  Ga7  1  0.84891476  0.65159383  0.19732093  1
  Ga  Ga8  1  0.45427390  0.65159383  0.80267907  1
  Ga  Ga9  1  0.37637903  0.12122738  0.25515264  1
  Ga  Ga10  1  0.86607674  0.12122738  0.74484736  1
  Ga  Ga11  1  0.61976603  0.87321290  0.25344687  1
  Ga  Ga12  1  0.61976603  0.36632016  0.74655313  1
  Ir  Ir0  1  0.00255520  0.00139881  0.50189132  1
  Ir  Ir1  1  0.49950748  0.00139881  0.99884361  1
  Ir  Ir2  1  0.49764250  0.49764250  0.00000000  1
  Ir  Ir3  1  0.49950748  0.50066287  0.49810868  1
  Ir  Ir4  1  0.00255520  0.50066287  0.00115639  1
  Ir  Ir5  1  0.99907073  0.99907073  0.00000000  1
  Ir  Ir6  1  0.49292031  0.99292031  0.50000000  1
loop_
_geom_bond_atom_site_label_1
_geom_bond_atom_site_label_2
_geom_bond_distance
_geom_bond_site_symmetry_2
Ti0 Ti6 2.972272 1_554
Ti1 Ti6 2.972265 1_555
Ti3 Ti7 2.972278 1_556
Ti4 Ti7 2.972271 1_555
Al0 Ir6 2.557968 1_555
Al0 Ir1 2.633184 1_565
Al0 Ir3 2.633191 1_555
Al0 Ir5 2.666194 1_556
Al0 Ga8 2.771936 1_555
Al0 Ga6 2.820039 1_566
Al0 Ga5 2.820045 1_555
Al0 Ti0 2.955252 1_566
Al0 Ti4 2.955259 1_555
Al0 Ti2 2.977327 1_555
Al0 Ga10 2.994654 1_565
Al0 Ti6 3.004073 1_565
Al0 Ti7 3.004073 1_555
Al1 Ir6 2.557982 1_555
Al1 Ir0 2.633170 1_565
Al1 Ir4 2.633191 1_555
Al1 Ir5 2.666193 1_455
Al1 Ga7 2.771927 1_455
Al1 Ga6 2.820025 1_465
Al1 Ga5 2.820036 1_454
Al1 Ti1 2.955250 1_565
Al1 Ti3 2.955265 1_554
Al1 Ti2 2.977325 1_555
Al1 Ga9 2.994648 1_565
Al1 Ti6 3.004073 1_565
Al1 Ti7 3.004091 1_555
Ga0 Ti2 2.577974 1_655
Ga0 Ti1 2.596520 1_655
Ga0 Ti3 2.596520 1_655
Ga0 Ti0 2.596520 1_555
Ga0 Ti4 2.596520 1_555
Ga0 Ti5 2.596978 1_555
Ga1 Ir4 2.500473 1_555
Ga1 Ir3 2.500496 1_555
Ga1 Ir5 2.523995 1_445
Ga1 Ti0 2.653477 1_455
Ga1 Ti1 2.653497 1_555
Ga1 Ti2 2.678323 1_555
Ga1 Ti7 2.784292 1_555
Ga1 Ga10 2.807013 1_454
Ga1 Ga9 2.807025 1_555
Ga2 Ir0 2.500496 1_565
Ga2 Ir1 2.500496 1_565
Ga2 Ir5 2.523980 1_456
Ga2 Ti3 2.653477 1_555
Ga2 Ti4 2.653478 1_455
Ga2 Ti2 2.678335 1_555
Ga2 Ti6 2.784312 1_565
Ga2 Ga9 2.807017 1_566
Ga3 Ir2 2.496277 1_556
Ga3 Ir4 2.508372 1_556
Ga3 Ir0 2.508373 1_555
Ga3 Ti5 2.707163 1_455
Ga3 Ti1 2.731041 1_555
Ga3 Ti3 2.731049 1_555
Ga3 Ti7 2.815267 1_556
Ga3 Ti6 2.815268 1_555
Ga4 Ir2 2.496279 1_555
Ga4 Ir3 2.508361 1_555
Ga4 Ir1 2.508376 1_554
Ga4 Ti5 2.707167 1_555
Ga4 Ti4 2.731054 1_555
Ga4 Ti0 2.731066 1_555
Ga4 Ti7 2.815251 1_555
Ga4 Ti6 2.815271 1_554
Ga5 Ir5 2.507127 1_556
Ga5 Ir4 2.524350 1_656
Ga5 Ir3 2.524350 1_555
Ga5 Ti5 2.705776 1_555
Ga5 Ti3 2.726355 1_655
Ga5 Ti4 2.726369 1_555
Ga6 Ir5 2.507120 1_545
Ga6 Ir0 2.524350 1_655
Ga6 Ir1 2.524350 1_554
Ga6 Ti5 2.705783 1_555
Ga6 Ti0 2.726355 1_555
Ga6 Ti1 2.726355 1_655
Ga7 Ir0 2.514433 1_665
Ga7 Ir4 2.514435 1_655
Ga7 Ir2 2.534728 1_555
Ga7 Ti4 2.673731 1_555
Ga7 Ti0 2.673739 1_555
Ga7 Ti2 2.691553 1_655
Ga8 Ir3 2.514428 1_555
Ga8 Ir1 2.514435 1_565
Ga8 Ir2 2.534729 1_556
Ga8 Ti1 2.673742 1_555
Ga8 Ti3 2.673748 1_555
Ga8 Ti2 2.691555 1_555
Ga9 Ir6 2.630402 1_545
Ga9 Ir5 2.659875 1_445
Ga9 Ir3 2.666941 1_555
Ga9 Ir1 2.666955 1_554
Ga9 Ti1 2.849803 1_555
Ga9 Ti3 2.849804 1_544
Ga9 Ti5 2.859488 1_555
Ga10 Ir6 2.630417 1_545
Ga10 Ir5 2.659881 1_546
Ga10 Ir0 2.666934 1_655
Ga10 Ir4 2.666940 1_656
Ga10 Ga2 2.807003 1_645
Ga10 Ti4 2.849801 1_545
Ga10 Ti0 2.849816 1_556
Ga10 Ti5 2.859479 1_555
Ga10 Ga11 2.995083 1_545
Ga10 Ga12 2.995101 1_555
Ga11 Ir6 2.623660 1_555
Ga11 Ir2 2.638928 1_555
Ga11 Ir1 2.698350 1_564
Ga11 Ir0 2.698350 1_665
Ga11 Ga7 2.794060 1_555
Ga11 Ga8 2.794062 1_554
Ga11 Ga6 2.849434 1_565
Ga11 Ti4 2.874356 1_555
Ga11 Ti3 2.874363 1_554
Ga11 Ti5 2.874958 1_565
Ga11 Ti7 2.949364 1_555
Ga11 Ga9 2.995089 1_565
Ga12 Ir6 2.623667 1_545
Ga12 Ir2 2.638928 1_556
Ga12 Ir3 2.698336 1_555
Ga12 Ir4 2.698350 1_656
Ga12 Ga8 2.794048 1_555
Ga12 Ga7 2.794058 1_556
Ga12 Ga5 2.849421 1_555
Ga12 Ti1 2.874361 1_555
Ga12 Ti0 2.874369 1_556
Ga12 Ti5 2.874958 1_555
Ga12 Ti6 2.949364 1_555
Ga12 Ga9 2.995083 1_555
Ir0 Ti6 2.644085 1_555
Ir0 Ti4 3.009904 1_445
Ir0 Ti5 3.073729 1_455
Ir0 Ti2 3.094221 1_545
Ir0 Ti1 3.150509 1_555
Ir1 Ti6 2.644085 1_555
Ir1 Ti3 3.009910 1_545
Ir1 Ti5 3.073729 1_556
Ir1 Ti2 3.094221 1_545
Ir1 Ti0 3.150515 1_556
Ir2 Ti6 2.617367 1_554
Ir2 Ti7 2.617367 1_555
Ir2 Ti1 3.109397 1_554
Ir2 Ti4 3.109398 1_555
Ir2 Ti3 3.109403 1_554
Ir2 Ti0 3.109403 1_555
Ir3 Ti7 2.644085 1_555
Ir3 Ti1 3.009911 1_555
Ir3 Ti5 3.073724 1_555
Ir3 Ti2 3.094226 1_555
Ir3 Ti4 3.150526 1_555
Ir4 Ti7 2.644085 1_555
Ir4 Ti0 3.009904 1_455
Ir4 Ti5 3.073730 1_454
Ir4 Ti2 3.094220 1_555
Ir4 Ti3 3.150521 1_554
Ir5 Ti0 3.057118 1_565
Ir5 Ti3 3.057118 1_654
Ir5 Ti1 3.057124 1_665
Ir5 Ti4 3.057124 1_554
Ir6 Ti6 2.549526 1_565
Ir6 Ti7 2.549533 1_555
