# generated using pymatgen
data_Nb4Al5GaNi2
_symmetry_space_group_name_H-M   'P 1'
_cell_length_a   5.12098425
_cell_length_b   5.11546652
_cell_length_c   7.81313600
_cell_angle_alpha   90.00000000
_cell_angle_beta   90.00000000
_cell_angle_gamma   120.03568744
_symmetry_Int_Tables_number   1
_chemical_formula_structural   Nb4Al5GaNi2
_chemical_formula_sum   'Nb4 Al5 Ga1 Ni2'
_cell_volume   177.18967562
_cell_formula_units_Z   1
loop_
 _symmetry_equiv_pos_site_id
 _symmetry_equiv_pos_as_xyz
  1  'x, y, z'
loop_
 _atom_site_type_symbol
 _atom_site_label
 _atom_site_symmetry_multiplicity
 _atom_site_fract_x
 _atom_site_fract_y
 _atom_site_fract_z
 _atom_site_occupancy
  Nb  Nb0  1  0.66592887  0.33185775  0.06930478  1
  Nb  Nb1  1  0.66592887  0.33185775  0.43069622  1
  Nb  Nb2  1  0.33303155  0.66606110  0.57010573  1
  Nb  Nb3  1  0.33303155  0.66606110  0.92989527  1
  Al  Al0  1  0.16805910  0.83429340  0.24999900  1
  Al  Al1  1  0.66623430  0.83429340  0.24999900  1
  Al  Al2  1  0.33494840  0.16706742  0.75000000  1
  Al  Al3  1  0.83211902  0.16706742  0.75000000  1
  Al  Al4  1  0.83230247  0.66460494  0.75000000  1
  Ga  Ga0  1  0.16976058  0.33952116  0.24999900  1
  Ni  Ni0  1  0.99932864  0.99865627  0.99955082  1
  Ni  Ni1  1  0.99932864  0.99865627  0.50044918  1
loop_
_geom_bond_atom_site_label_1
_geom_bond_atom_site_label_2
_geom_bond_distance
_geom_bond_site_symmetry_2
Nb0 Nb1 2.823600 1_555
Nb0 Ni0 3.002809 1_554
Nb0 Ni0 3.005079 1_444
Nb0 Ni0 3.005084 1_544
Nb0 Nb3 3.143257 1_544
Nb0 Nb3 3.151665 1_554
Nb0 Nb3 3.151673 1_654
Nb1 Ni1 3.002807 1_555
Nb1 Ni1 3.005078 1_445
Nb1 Ni1 3.005082 1_545
Nb1 Nb2 3.143257 1_545
Nb1 Nb2 3.151665 1_555
Nb1 Nb2 3.151673 1_655
Nb2 Nb3 2.811085 1_555
Nb2 Ni1 3.003624 1_555
Nb2 Ni1 3.003628 1_455
Nb2 Ni1 3.005311 1_445
Nb3 Ni0 3.003623 1_555
Nb3 Ni0 3.003627 1_455
Nb3 Ni0 3.005310 1_445
Al0 Ni0 2.451497 1_454
Al0 Ni1 2.451509 1_455
Al0 Ga0 2.535363 1_555
Al0 Al1 2.551147 1_555
Al0 Al1 2.569837 1_455
Al0 Ga0 2.580125 1_565
Al0 Nb3 2.904691 1_554
Al0 Nb2 2.904711 1_555
Al0 Nb0 2.911280 1_565
Al0 Nb1 2.911292 1_565
Al0 Nb0 2.931726 1_455
Al0 Nb1 2.931737 1_455
Al1 Ni0 2.451500 1_554
Al1 Ni1 2.451512 1_555
Al1 Ga0 2.535363 1_555
Al1 Ga0 2.580125 1_665
Al1 Nb3 2.904686 1_554
Al1 Nb2 2.904707 1_555
Al1 Nb0 2.911280 1_565
Al1 Nb1 2.911292 1_565
Al1 Nb0 2.931726 1_555
Al1 Nb1 2.931737 1_555
Al2 Ni0 2.452648 1_445
Al2 Ni1 2.452648 1_445
Al2 Nb1 2.894297 1_555
Al2 Nb0 2.894304 1_556
Al2 Nb2 2.918289 1_555
Al2 Nb3 2.918293 1_555
Al2 Nb2 2.918700 1_545
Al2 Nb3 2.918704 1_545
Al3 Ni0 2.452651 1_545
Al3 Ni1 2.452651 1_545
Al3 Nb1 2.894297 1_555
Al3 Nb0 2.894304 1_556
Al3 Nb2 2.918294 1_655
Al3 Nb3 2.918297 1_655
Al3 Nb2 2.918695 1_545
Al3 Nb3 2.918699 1_545
Al4 Ni0 2.447471 1_555
Al4 Ni1 2.447471 1_555
Al4 Nb1 2.897462 1_555
Al4 Nb0 2.897469 1_556
Al4 Nb2 2.920903 1_555
Al4 Nb3 2.920907 1_555
Al4 Nb2 2.920912 1_655
Al4 Nb3 2.920916 1_655
Ga0 Ni0 2.471375 1_444
Ga0 Ni1 2.471387 1_445
Ga0 Nb3 2.888988 1_554
Ga0 Nb2 2.889008 1_555
Ga0 Nb0 2.924110 1_555
Ga0 Nb0 2.924110 1_455
Ga0 Nb1 2.924121 1_555
Ga0 Nb1 2.924121 1_455
