# generated using pymatgen
data_AgMoO3F
_symmetry_space_group_name_H-M   'P 1'
_cell_length_a   3.69056932
_cell_length_b   6.72053517
_cell_length_c   7.74621028
_cell_angle_alpha   60.31806829
_cell_angle_beta   90.00000000
_cell_angle_gamma   90.00000000
_symmetry_Int_Tables_number   1
_chemical_formula_structural   AgMoO3F
_chemical_formula_sum   'Ag2 Mo2 O6 F2'
_cell_volume   166.91684915
_cell_formula_units_Z   2
loop_
 _symmetry_equiv_pos_site_id
 _symmetry_equiv_pos_as_xyz
  1  'x, y, z'
loop_
 _atom_site_type_symbol
 _atom_site_label
 _atom_site_symmetry_multiplicity
 _atom_site_fract_x
 _atom_site_fract_y
 _atom_site_fract_z
 _atom_site_occupancy
  Ag  Ag0  1  0.25000000  0.88676961  0.68730659  1
  Ag  Ag1  1  0.75000000  0.11323039  0.31269341  1
  Mo  Mo0  1  0.25000000  0.60334147  0.28023509  1
  Mo  Mo1  1  0.75000000  0.39665853  0.71976491  1
  O  O0  1  0.25000000  0.33068462  0.30139291  1
  O  O1  1  0.75000000  0.66931538  0.69860709  1
  O  O2  1  0.25000000  0.77891333  0.03141446  1
  O  O3  1  0.75000000  0.22108667  0.96858554  1
  O  O4  1  0.25000000  0.41148774  0.63957286  1
  O  O5  1  0.75000000  0.58851226  0.36042714  1
  F  F0  1  0.25000000  0.86975893  0.34308800  1
  F  F1  1  0.75000000  0.13024107  0.65691200  1
loop_
_geom_bond_atom_site_label_1
_geom_bond_atom_site_label_2
_geom_bond_distance
_geom_bond_site_symmetry_2
Ag0 O1 2.328467 1_455
Ag0 O1 2.328467 1_555
Ag0 O2 2.391017 1_556
Ag0 F1 2.399232 1_465
Ag0 F1 2.399232 1_565
Ag1 O0 2.328467 1_555
Ag1 O0 2.328467 1_655
Ag1 O3 2.391017 1_554
Ag1 F0 2.399232 1_545
Ag1 F0 2.399232 1_645
Mo0 O2 1.689633 1_555
Mo0 O0 1.757022 1_555
Mo0 O5 1.933796 1_455
Mo0 O5 1.933796 1_555
Mo0 O4 2.419913 1_555
Mo1 O3 1.689633 1_555
Mo1 O1 1.757022 1_555
Mo1 O4 1.933796 1_555
Mo1 O4 1.933796 1_655
Mo1 O5 2.419913 1_555
F0 Mo0 2.075127 1_555
F1 Mo1 2.075127 1_555
