# generated using pymatgen
data_Zr2Ti2ReIr
_symmetry_space_group_name_H-M   'P 1'
_cell_length_a   5.38729905
_cell_length_b   5.29949475
_cell_length_c   5.29949452
_cell_angle_alpha   61.72422472
_cell_angle_beta   58.98472038
_cell_angle_gamma   58.98471700
_symmetry_Int_Tables_number   1
_chemical_formula_structural   Zr2Ti2ReIr
_chemical_formula_sum   'Zr2 Ti2 Re1 Ir1'
_cell_volume   106.57139663
_cell_formula_units_Z   1
loop_
 _symmetry_equiv_pos_site_id
 _symmetry_equiv_pos_as_xyz
  1  'x, y, z'
loop_
 _atom_site_type_symbol
 _atom_site_label
 _atom_site_symmetry_multiplicity
 _atom_site_fract_x
 _atom_site_fract_y
 _atom_site_fract_z
 _atom_site_occupancy
  Zr  Zr0  1  0.50542611  0.49474322  0.49474322  1
  Zr  Zr1  1  0.74457389  0.75525678  0.75525678  1
  Ti  Ti0  1  0.12500000  0.12500000  0.62500000  1
  Ti  Ti1  1  0.12500000  0.62500000  0.12500000  1
  Re  Re0  1  0.62500000  0.12500000  0.12500000  1
  Ir  Ir0  1  0.12500000  0.12500000  0.12500000  1
loop_
_geom_bond_atom_site_label_1
_geom_bond_atom_site_label_2
_geom_bond_distance
_geom_bond_site_symmetry_2
Zr0 Zr1 3.229181 1_554
Zr0 Zr1 3.229181 1_545
Zr0 Zr1 3.279589 1_455
Zr0 Zr1 3.308138 1_555
Ti0 Ti1 2.718502 1_555
Ti0 Ti1 2.718502 1_546
Ti0 Zr1 3.082997 1_455
Ti0 Zr0 3.082997 1_545
Ti0 Zr1 3.132091 1_545
Ti0 Zr0 3.132091 1_455
Ti0 Zr0 3.148858 1_555
Ti0 Zr1 3.148858 1_445
Ti1 Zr1 3.082997 1_455
Ti1 Zr0 3.082997 1_554
Ti1 Zr1 3.132091 1_554
Ti1 Zr0 3.132091 1_455
Ti1 Zr0 3.148858 1_555
Ti1 Zr1 3.148858 1_454
Re0 Ti1 2.630872 1_645
Re0 Ti1 2.630872 1_555
Re0 Ti0 2.630872 1_654
Re0 Ti0 2.630872 1_555
Re0 Zr0 3.021578 1_555
Re0 Zr1 3.021578 1_544
Re0 Zr1 3.182168 1_545
Re0 Zr0 3.182168 1_554
Re0 Zr1 3.182168 1_554
Re0 Zr0 3.182168 1_545
Ir0 Ti0 2.649747 1_554
Ir0 Ti0 2.649747 1_555
Ir0 Ti1 2.649747 1_545
Ir0 Ti1 2.649747 1_555
Ir0 Re0 2.693650 1_555
Ir0 Re0 2.693650 1_455
Ir0 Zr0 2.996265 1_455
Ir0 Zr1 2.996265 1_544
Ir0 Zr0 3.174772 1_545
Ir0 Zr1 3.174772 1_454
Ir0 Zr0 3.174772 1_554
Ir0 Zr1 3.174772 1_445
