# generated using pymatgen
data_Lu12FeCo4Bi
_symmetry_space_group_name_H-M   'P 1'
_cell_length_a   8.09882784
_cell_length_b   8.09882700
_cell_length_c   8.09882707
_cell_angle_alpha   111.72020085
_cell_angle_beta   110.74322098
_cell_angle_gamma   106.00643903
_symmetry_Int_Tables_number   1
_chemical_formula_structural   Lu12FeCo4Bi
_chemical_formula_sum   'Lu12 Fe1 Co4 Bi1'
_cell_volume   407.78131213
_cell_formula_units_Z   1
loop_
 _symmetry_equiv_pos_site_id
 _symmetry_equiv_pos_as_xyz
  1  'x, y, z'
loop_
 _atom_site_type_symbol
 _atom_site_label
 _atom_site_symmetry_multiplicity
 _atom_site_fract_x
 _atom_site_fract_y
 _atom_site_fract_z
 _atom_site_occupancy
  Lu  Lu0  1  0.81784247  0.71886703  0.53671051  1
  Lu  Lu1  1  0.18242710  0.28202867  0.46445578  1
  Lu  Lu2  1  0.18242710  0.71797133  0.90039943  1
  Lu  Lu3  1  0.81784247  0.28113297  0.09897444  1
  Lu  Lu4  1  0.69014569  0.38251816  0.69300105  1
  Lu  Lu5  1  0.31048289  0.61748184  0.30762752  1
  Lu  Lu6  1  0.69014569  0.99714564  0.30762752  1
  Lu  Lu7  1  0.31048289  0.00285436  0.69300105  1
  Lu  Lu8  1  0.58529661  0.78385936  0.80143825  1
  Lu  Lu9  1  0.41214553  0.21303490  0.19910862  1
  Lu  Lu10  1  0.98607372  0.78696510  0.19910862  1
  Lu  Lu11  1  0.01757888  0.21614064  0.80143825  1
  Fe  Fe0  1  0.61859742  0.00000000  0.61859742  1
  Co  Co0  1  0.37517696  1.00000000  0.37517696  1
  Co  Co1  1  0.11231047  0.61063220  0.50167726  1
  Co  Co2  1  0.89104506  0.38936780  0.50167726  1
  Co  Co3  1  0.99900001  0.00000000  0.99900001  1
  Bi  Bi0  1  0.50097703  0.50000000  0.00097703  1
loop_
_geom_bond_atom_site_label_1
_geom_bond_atom_site_label_2
_geom_bond_distance
_geom_bond_site_symmetry_2
Lu0 Lu11 3.315483 1_665
Lu0 Lu8 3.315484 1_555
Lu0 Lu2 3.355772 1_655
Lu0 Lu4 3.466662 1_555
Lu0 Lu7 3.466669 1_665
Lu0 Lu5 3.551337 1_555
Lu0 Lu6 3.551349 1_555
Lu0 Lu9 3.602314 1_555
Lu0 Lu10 3.602328 1_555
Lu1 Lu10 3.302764 1_445
Lu1 Lu9 3.302778 1_555
Lu1 Lu3 3.355776 1_455
Lu1 Lu6 3.464517 1_445
Lu1 Lu5 3.464518 1_555
Lu1 Lu4 3.555907 1_555
Lu1 Lu7 3.555915 1_555
Lu1 Lu8 3.575123 1_555
Lu1 Lu11 3.575126 1_555
Lu2 Lu9 3.302763 1_566
Lu2 Lu4 3.464517 1_455
Lu2 Lu7 3.464519 1_565
Lu2 Lu5 3.555900 1_556
Lu2 Lu6 3.555905 1_556
Lu2 Lu8 3.575123 1_555
Lu3 Lu8 3.315483 1_544
Lu3 Lu5 3.466666 1_655
Lu3 Lu6 3.466668 1_545
Lu3 Lu4 3.551329 1_554
Lu3 Lu7 3.551334 1_554
Lu3 Lu9 3.602310 1_555
Lu10 Lu2 3.302758 1_654
Lu10 Lu3 3.602317 1_555
Lu11 Lu3 3.315477 1_456
Lu11 Lu2 3.575123 1_555
Fe0 Lu11 2.696437 1_655
Fe0 Lu8 2.696438 1_545
Fe0 Lu7 2.770764 1_555
Fe0 Lu5 2.770765 1_545
Fe0 Lu4 2.770765 1_555
Fe0 Lu6 2.770767 1_545
Fe0 Lu3 3.145526 1_556
Fe0 Lu0 3.145531 1_545
Co0 Fe0 2.240525 1_565
Co0 Lu10 2.634048 1_455
Co0 Lu9 2.634050 1_565
Co0 Lu6 2.796155 1_555
Co0 Lu4 2.796156 1_565
Co0 Lu5 2.796156 1_555
Co0 Lu7 2.796159 1_565
Co0 Lu2 3.117741 1_554
Co0 Lu1 3.117748 1_565
Co1 Co2 2.156728 1_455
Co1 Lu7 2.617436 1_565
Co1 Lu5 2.617437 1_555
Co1 Lu1 2.802997 1_555
Co1 Lu2 2.803011 1_555
Co1 Lu3 2.825679 1_455
Co1 Lu0 2.825684 1_455
Co1 Lu8 3.234744 1_555
Co1 Lu10 3.272625 1_455
Co2 Lu6 2.617437 1_545
Co2 Lu4 2.617444 1_555
Co2 Lu1 2.803001 1_655
Co2 Lu2 2.803005 1_655
Co2 Lu0 2.825673 1_555
Co2 Lu3 2.825682 1_555
Co2 Lu11 3.234756 1_655
Co2 Lu9 3.272611 1_555
Co3 Lu10 2.775673 1_546
Co3 Lu9 2.775687 1_656
Co3 Lu11 2.783019 1_655
Co3 Lu8 2.783026 1_545
Co3 Lu0 3.051461 1_545
Co3 Lu3 3.051466 1_556
Co3 Lu2 3.069728 1_645
Co3 Lu1 3.069729 1_656
Bi0 Lu8 3.320941 1_554
Bi0 Lu11 3.320942 1_554
Bi0 Lu9 3.339111 1_555
Bi0 Lu10 3.339114 1_555
Bi0 Lu4 3.350812 1_554
Bi0 Lu5 3.350812 1_555
Bi0 Lu7 3.350819 1_554
Bi0 Lu6 3.350819 1_555
Bi0 Lu3 3.530528 1_555
Bi0 Lu0 3.530535 1_555
Bi0 Lu2 3.538782 1_554
Bi0 Lu1 3.538782 1_554
