# generated using pymatgen
data_ReTc5(HSe4)2
_symmetry_space_group_name_H-M   'P 1'
_cell_length_a   10.47008694
_cell_length_b   6.63076839
_cell_length_c   10.22411265
_cell_angle_alpha   69.58889399
_cell_angle_beta   90.00000000
_cell_angle_gamma   90.00000000
_symmetry_Int_Tables_number   1
_chemical_formula_structural   ReTc5(HSe4)2
_chemical_formula_sum   'Re2 Tc10 H4 Se16'
_cell_volume   665.24057190
_cell_formula_units_Z   2
loop_
 _symmetry_equiv_pos_site_id
 _symmetry_equiv_pos_as_xyz
  1  'x, y, z'
loop_
 _atom_site_type_symbol
 _atom_site_label
 _atom_site_symmetry_multiplicity
 _atom_site_fract_x
 _atom_site_fract_y
 _atom_site_fract_z
 _atom_site_occupancy
  Re  Re0  1  0.62477461  0.99669544  0.37390186  1
  Re  Re1  1  0.87522539  0.99669544  0.87390186  1
  Tc  Tc0  1  0.37426167  0.00361704  0.62658210  1
  Tc  Tc1  1  0.12573833  0.00361704  0.12658210  1
  Tc  Tc2  1  0.37304002  0.99617680  0.37417221  1
  Tc  Tc3  1  0.12695998  0.99617680  0.87417221  1
  Tc  Tc4  1  0.62597587  0.00408788  0.62629396  1
  Tc  Tc5  1  0.87402413  0.00408788  0.12629396  1
  Tc  Tc6  1  0.49963743  0.70300159  0.57041835  1
  Tc  Tc7  1  0.00036257  0.70300159  0.07041835  1
  Tc  Tc8  1  0.49948347  0.29686732  0.43028209  1
  Tc  Tc9  1  0.00051653  0.29686732  0.93028209  1
  H  H0  1  0.24881267  0.99936416  0.25059434  1
  H  H1  1  0.25118733  0.99936416  0.75059434  1
  H  H2  1  0.75328203  0.99850385  0.75018330  1
  H  H3  1  0.74671797  0.99850385  0.25018330  1
  Se  Se0  1  0.49909462  0.72069855  0.31066785  1
  Se  Se1  1  0.00090538  0.72069855  0.81066785  1
  Se  Se2  1  0.50019684  0.27971691  0.68821755  1
  Se  Se3  1  0.99980316  0.27971691  0.18821755  1
  Se  Se4  1  0.26101038  0.71608198  0.56837563  1
  Se  Se5  1  0.23898962  0.71608198  0.06837563  1
  Se  Se6  1  0.73938611  0.28486627  0.43122167  1
  Se  Se7  1  0.76061389  0.28486627  0.93122167  1
  Se  Se8  1  0.49898014  0.27537743  0.18972915  1
  Se  Se9  1  0.00101986  0.27537743  0.68972915  1
  Se  Se10  1  0.50056904  0.72540574  0.80923406  1
  Se  Se11  1  0.99943096  0.72540574  0.30923406  1
  Se  Se12  1  0.73936873  0.71580412  0.56735107  1
  Se  Se13  1  0.76063127  0.71580412  0.06735107  1
  Se  Se14  1  0.26090945  0.28373391  0.43277580  1
  Se  Se15  1  0.23909055  0.28373391  0.93277580  1
loop_
_geom_bond_atom_site_label_1
_geom_bond_atom_site_label_2
_geom_bond_distance
_geom_bond_site_symmetry_2
Re0 Se6 2.493118 1_565
Re0 Se12 2.500190 1_555
Re0 Se8 2.503602 1_565
Re0 Se0 2.514745 1_555
Re1 Se7 2.493118 1_565
Re1 Se13 2.500190 1_556
Re1 Se9 2.503602 1_665
Re1 Se1 2.514745 1_655
H0 Tc1 1.801097 1_565
H0 Tc2 1.808296 1_555
H1 Tc0 1.801097 1_565
H1 Tc3 1.808296 1_555
H2 Re1 1.794346 1_555
H2 Tc4 1.830225 1_565
H3 Re0 1.794346 1_555
H3 Tc5 1.830225 1_565
Se0 Tc2 2.515404 1_555
Se0 Tc6 2.617112 1_555
Se0 Tc8 2.645053 1_555
Se1 Tc3 2.515404 1_555
Se1 Tc7 2.617112 1_556
Se1 Tc9 2.645053 1_555
Se2 Tc4 2.506478 1_555
Se2 Tc0 2.508397 1_555
Se2 Tc8 2.599697 1_555
Se2 Tc6 2.640140 1_555
Se3 Tc5 2.506478 1_555
Se3 Tc1 2.508397 1_655
Se3 Tc9 2.599697 1_654
Se3 Tc7 2.640140 1_655
Se4 Tc0 2.487290 1_565
Se4 Tc2 2.489067 1_555
Se4 Tc6 2.499785 1_555
Se5 Tc1 2.487290 1_565
Se5 Tc3 2.489067 1_554
Se5 Tc7 2.499785 1_555
Se6 Tc4 2.502793 1_555
Se6 Tc8 2.512974 1_555
Se7 Tc5 2.502793 1_556
Se7 Tc9 2.512974 1_655
Se8 Tc2 2.507408 1_545
Se8 Tc8 2.512693 1_555
Se9 Tc3 2.507408 1_545
Se9 Tc9 2.512693 1_555
Se10 Tc4 2.495254 1_565
Se10 Tc0 2.497292 1_565
Se10 Tc6 2.497392 1_555
Se11 Tc5 2.495254 1_565
Se11 Tc1 2.497292 1_665
Se11 Tc7 2.497392 1_655
Se12 Tc4 2.496037 1_565
Se12 Tc6 2.511269 1_555
Se13 Tc5 2.496037 1_565
Se13 Tc7 2.511269 1_655
Se14 Tc2 2.483906 1_545
Se14 Tc0 2.493517 1_555
Se14 Tc8 2.499229 1_555
Se15 Tc3 2.483906 1_545
Se15 Tc1 2.493517 1_556
Se15 Tc9 2.499229 1_555
