# generated using pymatgen
data_Mn4Ga4Co5Ni3
_symmetry_space_group_name_H-M   'P 1'
_cell_length_a   5.72389412
_cell_length_b   5.72015344
_cell_length_c   5.72233471
_cell_angle_alpha   90.00000000
_cell_angle_beta   90.00000000
_cell_angle_gamma   90.00000000
_symmetry_Int_Tables_number   1
_chemical_formula_structural   Mn4Ga4Co5Ni3
_chemical_formula_sum   'Mn4 Ga4 Co5 Ni3'
_cell_volume   187.35812339
_cell_formula_units_Z   1
loop_
 _symmetry_equiv_pos_site_id
 _symmetry_equiv_pos_as_xyz
  1  'x, y, z'
loop_
 _atom_site_type_symbol
 _atom_site_label
 _atom_site_symmetry_multiplicity
 _atom_site_fract_x
 _atom_site_fract_y
 _atom_site_fract_z
 _atom_site_occupancy
  Mn  Mn0  1  0.00175666  0.99773647  0.50177224  1
  Mn  Mn1  1  0.49824234  0.50226253  0.50177224  1
  Mn  Mn2  1  0.49824234  0.99773647  0.99822776  1
  Mn  Mn3  1  0.00175666  0.50226253  0.99822776  1
  Ga  Ga0  1  0.49871189  0.50086485  0.99870416  1
  Ga  Ga1  1  0.49871189  0.99913415  0.50129584  1
  Ga  Ga2  1  0.00128711  0.50086485  0.50129584  1
  Ga  Ga3  1  0.00128711  0.99913415  0.99870416  1
  Co  Co0  1  0.75000000  0.75000000  0.75000100  1
  Co  Co1  1  0.25000000  0.75000000  0.75000100  1
  Co  Co2  1  0.75000000  0.25000000  0.75000100  1
  Co  Co3  1  0.25000000  0.25000000  0.24999900  1
  Co  Co4  1  0.25000000  0.75000000  0.24999900  1
  Ni  Ni0  1  0.75000000  0.25000000  0.24999900  1
  Ni  Ni1  1  0.75000000  0.75000000  0.24999900  1
  Ni  Ni2  1  0.25000000  0.25000000  0.75000100  1
loop_
_geom_bond_atom_site_label_1
_geom_bond_atom_site_label_2
_geom_bond_distance
_geom_bond_site_symmetry_2
Mn0 Ni2 2.473639 1_565
Mn0 Ni1 2.482018 1_455
Mn0 Ni0 2.496893 1_465
Mn1 Ni2 2.473633 1_555
Mn1 Ni1 2.482025 1_555
Mn1 Ni0 2.496893 1_555
Mn2 Ni2 2.473629 1_565
Mn2 Ni1 2.482015 1_556
Mn2 Ni0 2.496890 1_566
Mn3 Ni2 2.473629 1_555
Mn3 Ni1 2.482015 1_456
Mn3 Ni0 2.496884 1_456
Ga0 Ni2 2.472087 1_555
Ga0 Ni1 2.483455 1_556
Ga0 Ni0 2.489146 1_556
Ga0 Mn2 2.842184 1_555
Ga0 Mn1 2.843623 1_555
Ga0 Mn3 2.844532 1_555
Ga0 Mn2 2.877974 1_545
Ga0 Mn1 2.878736 1_556
Ga0 Mn3 2.879387 1_655
Ga1 Ni2 2.472097 1_565
Ga1 Ni1 2.483459 1_555
Ga1 Ni0 2.489156 1_565
Ga1 Mn1 2.842184 1_555
Ga1 Mn2 2.843623 1_555
Ga1 Mn0 2.844532 1_555
Ga1 Mn1 2.877974 1_565
Ga1 Mn2 2.878736 1_554
Ga1 Mn0 2.879387 1_655
Ga2 Ni2 2.472097 1_555
Ga2 Ni1 2.483459 1_455
Ga2 Ni0 2.489149 1_455
Ga2 Mn0 2.842184 1_555
Ga2 Mn3 2.843623 1_555
Ga2 Mn1 2.844532 1_555
Ga2 Mn0 2.877974 1_545
Ga2 Mn3 2.878736 1_554
Ga2 Mn1 2.879387 1_455
Ga3 Ni2 2.472094 1_565
Ga3 Ni1 2.483449 1_456
Ga3 Ni0 2.489146 1_466
Ga3 Mn3 2.842184 1_555
Ga3 Mn0 2.843623 1_555
Ga3 Mn2 2.844532 1_555
Ga3 Mn3 2.877974 1_565
Ga3 Mn0 2.878736 1_556
Ga3 Mn2 2.879387 1_455
Co0 Mn3 2.470297 1_655
Co0 Mn2 2.470297 1_555
Co0 Mn0 2.470300 1_655
Co0 Mn1 2.470307 1_555
Co0 Ga3 2.474891 1_655
Co0 Ga0 2.474898 1_555
Co0 Ga2 2.474901 1_655
Co0 Ga1 2.474901 1_555
Co1 Mn2 2.458613 1_555
Co1 Mn3 2.458620 1_555
Co1 Mn1 2.458623 1_555
Co1 Mn0 2.458623 1_555
Co1 Ga3 2.466357 1_555
Co1 Ga0 2.466357 1_555
Co1 Ga1 2.466360 1_555
Co1 Ga2 2.466367 1_555
Co2 Ga3 2.480608 1_645
Co2 Ga0 2.480608 1_555
Co2 Ga2 2.480611 1_655
Co2 Ga1 2.480618 1_545
Co2 Mn3 2.485236 1_655
Co2 Mn2 2.485242 1_545
Co2 Mn1 2.485245 1_555
Co2 Mn0 2.485245 1_645
Co3 Ga0 2.480654 1_554
Co3 Ga3 2.480661 1_544
Co3 Ga2 2.480664 1_555
Co3 Ga1 2.480664 1_545
Co3 Mn3 2.485332 1_554
Co3 Mn2 2.485332 1_544
Co3 Mn1 2.485335 1_555
Co3 Mn0 2.485342 1_545
Co4 Mn2 2.470387 1_554
Co4 Mn3 2.470393 1_554
Co4 Mn1 2.470397 1_555
Co4 Mn0 2.470397 1_555
Co4 Ga3 2.474944 1_554
Co4 Ga0 2.474944 1_554
Co4 Ga1 2.474947 1_555
Co4 Ga2 2.474954 1_555
