# generated using pymatgen
data_K3B2Pd6Pt
_symmetry_space_group_name_H-M   'P 1'
_cell_length_a   8.23352287
_cell_length_b   8.26947666
_cell_length_c   8.26947728
_cell_angle_alpha   40.32702648
_cell_angle_beta   40.27585618
_cell_angle_gamma   40.27584523
_symmetry_Int_Tables_number   1
_chemical_formula_structural   K3B2Pd6Pt
_chemical_formula_sum   'K3 B2 Pd6 Pt1'
_cell_volume   212.28724814
_cell_formula_units_Z   1
loop_
 _symmetry_equiv_pos_site_id
 _symmetry_equiv_pos_as_xyz
  1  'x, y, z'
loop_
 _atom_site_type_symbol
 _atom_site_label
 _atom_site_symmetry_multiplicity
 _atom_site_fract_x
 _atom_site_fract_y
 _atom_site_fract_z
 _atom_site_occupancy
  K  K0  1  0.35396833  0.35799073  0.35799073  1
  K  K1  1  0.50033488  0.49878381  0.49878381  1
  K  K2  1  0.64297798  0.64320471  0.64320471  1
  B  B0  1  0.17787113  0.16522135  0.16522135  1
  B  B1  1  0.82621100  0.83433603  0.83433603  1
  Pd  Pd0  1  0.98918029  0.00527029  0.00527029  1
  Pd  Pd1  1  0.06425539  0.56722707  0.05729111  1
  Pd  Pd2  1  0.94062787  0.94333383  0.43217792  1
  Pd  Pd3  1  0.06425539  0.05729111  0.56722707  1
  Pd  Pd4  1  0.94062787  0.43217792  0.94333383  1
  Pd  Pd5  1  0.42491979  0.94082273  0.94082273  1
  Pt  Pt0  1  0.57477208  0.05434142  0.05434142  1
loop_
_geom_bond_atom_site_label_1
_geom_bond_atom_site_label_2
_geom_bond_distance
_geom_bond_site_symmetry_2
K0 K1 3.242250 1_555
K0 Pd0 3.284230 1_555
K0 Pd1 3.325635 1_555
K0 Pd3 3.325635 1_555
K0 Pd0 3.348313 1_465
K0 Pd0 3.348314 1_456
K0 Pd5 3.367717 1_554
K0 Pd5 3.367717 1_545
K0 Pd2 3.392190 1_545
K0 Pd4 3.392190 1_554
K0 Pd2 3.405041 1_455
K0 Pd4 3.405042 1_455
K0 Pt0 3.405575 1_555
K1 Pd2 3.153741 1_545
K1 Pd4 3.153742 1_554
K1 Pd2 3.160733 1_455
K1 Pd4 3.160733 1_455
K1 Pt0 3.178715 1_565
K1 Pt0 3.178715 1_556
K1 Pd3 3.181887 1_565
K1 Pd1 3.181888 1_556
K1 Pd3 3.193881 1_655
K1 Pd1 3.193881 1_655
K1 Pd5 3.198262 1_545
K1 Pd5 3.198262 1_554
K1 K2 3.269133 1_555
K2 Pd0 3.303629 1_556
K2 Pd0 3.303630 1_565
K2 Pd5 3.329964 1_555
K2 Pd3 3.348996 1_565
K2 Pd1 3.348997 1_556
K2 Pd4 3.370864 1_555
K2 Pd2 3.370864 1_555
K2 Pd0 3.374704 1_466
K2 Pd3 3.402069 1_655
K2 Pd1 3.402070 1_655
K2 Pt0 3.406383 1_556
K2 Pt0 3.406383 1_565
B0 Pt0 2.120901 1_555
B0 Pd1 2.174383 1_555
B0 Pd3 2.174383 1_555
B0 Pd5 2.180759 1_544
B0 Pd4 2.183759 1_454
B0 Pd2 2.183760 1_445
B0 K1 3.271023 1_545
B0 K1 3.271024 1_554
B0 K1 3.313422 1_455
B1 Pt0 2.111469 1_566
B1 Pd4 2.168978 1_555
B1 Pd2 2.168978 1_555
B1 Pd5 2.184210 1_555
B1 Pd1 2.195059 1_656
B1 Pd3 2.195059 1_665
B1 K1 3.272247 1_565
B1 K1 3.272248 1_556
B1 K1 3.308292 1_655
Pd0 Pt0 2.827898 1_555
Pd0 Pd5 2.835036 1_644
Pd0 Pd4 2.878754 1_554
Pd0 Pd2 2.878755 1_545
Pd0 Pd1 2.881317 1_645
Pd0 Pd3 2.881318 1_654
