# generated using pymatgen
data_Ca4Ga17SiIr6
_symmetry_space_group_name_H-M   'P 1'
_cell_length_a   7.46200434
_cell_length_b   7.45115533
_cell_length_c   9.65486030
_cell_angle_alpha   89.99340253
_cell_angle_beta   89.97414625
_cell_angle_gamma   119.58105608
_symmetry_Int_Tables_number   1
_chemical_formula_structural   Ca4Ga17SiIr6
_chemical_formula_sum   'Ca4 Ga17 Si1 Ir6'
_cell_volume   466.84598263
_cell_formula_units_Z   1
loop_
 _symmetry_equiv_pos_site_id
 _symmetry_equiv_pos_as_xyz
  1  'x, y, z'
loop_
 _atom_site_type_symbol
 _atom_site_label
 _atom_site_symmetry_multiplicity
 _atom_site_fract_x
 _atom_site_fract_y
 _atom_site_fract_z
 _atom_site_occupancy
  Ca  Ca0  1  0.99770096  0.66542292  0.24805604  1
  Ca  Ca1  1  0.00214349  0.33066440  0.75064937  1
  Ca  Ca2  1  0.67312160  0.00288271  0.24828552  1
  Ca  Ca3  1  0.32961898  0.00132796  0.74904471  1
  Ga  Ga0  1  0.13141298  0.13245149  0.25044729  1
  Ga  Ga1  1  0.86940150  0.87100641  0.75111579  1
  Ga  Ga2  1  0.99560471  0.67092136  0.92345140  1
  Ga  Ga3  1  0.99631077  0.66530533  0.57455904  1
  Ga  Ga4  1  0.33434435  0.00133368  0.42337130  1
  Ga  Ga5  1  0.00276631  0.33481166  0.42677673  1
  Ga  Ga6  1  0.66433784  0.99589779  0.57525788  1
  Ga  Ga7  1  0.65833985  0.99111524  0.92352607  1
  Ga  Ga8  1  0.33378437  0.00150086  0.07600444  1
  Ga  Ga9  1  0.33565522  0.33495885  0.56172942  1
  Ga  Ga10  1  0.66612015  0.66634458  0.43556554  1
  Ga  Ga11  1  0.66556365  0.66652907  0.06604887  1
  Ga  Ga12  1  0.34226697  0.33552805  0.93688693  1
  Ga  Ga13  1  0.33523392  0.54264527  0.25081000  1
  Ga  Ga14  1  0.66499599  0.45549501  0.75197390  1
  Ga  Ga15  1  0.54370779  0.33579641  0.25057434  1
  Ga  Ga16  1  0.45510886  0.66241847  0.75095183  1
  Si  Si0  1  0.00428850  0.33508074  0.06682130  1
  Ir  Ir0  1  0.68283993  0.32973627  0.00428476  1
  Ir  Ir1  1  0.31624032  0.65812388  0.00122221  1
  Ir  Ir2  1  0.32866634  0.67033881  0.50046539  1
  Ir  Ir3  1  0.67062593  0.32864793  0.50088111  1
  Ir  Ir4  1  0.99992755  0.01354552  0.00115553  1
  Ir  Ir5  1  0.99987017  0.00017334  0.50008229  1
loop_
_geom_bond_atom_site_label_1
_geom_bond_atom_site_label_2
_geom_bond_distance
_geom_bond_site_symmetry_2
Ca0 Ga8 3.019016 1_665
Ca0 Ga5 3.022976 1_655
Ca0 Ga4 3.039271 1_665
Ca0 Si0 3.040266 1_655
Ca0 Ga11 3.042141 1_555
Ca0 Ga15 3.048689 1_555
Ca0 Ga10 3.067931 1_555
Ca0 Ga13 3.075114 1_655
Ca0 Ga0 3.110912 1_665
Ca0 Ga2 3.134423 1_554
Ca0 Ga3 3.152352 1_555
Ca1 Ga3 3.035773 1_455
Ca1 Ga6 3.039819 1_445
Ca1 Ga16 3.047283 1_555
Ca1 Si0 3.052741 1_556
Ca1 Ga2 3.055600 1_455
Ca1 Ga7 3.058660 1_445
Ca1 Ga1 3.059770 1_445
Ca1 Ga9 3.072248 1_555
Ca1 Ga14 3.082992 1_455
Ca1 Ga12 3.096652 1_555
Ca1 Ga5 3.127073 1_555
Ca2 Ga5 3.022536 1_655
Ca2 Ga8 3.025990 1_555
Ca2 Ga4 3.035718 1_555
Ca2 Ga11 3.040004 1_545
Ca2 Si0 3.042872 1_655
Ca2 Ga0 3.060677 1_655
Ca2 Ga10 3.070790 1_545
Ca2 Ga15 3.074319 1_555
Ca2 Ga13 3.095326 1_545
Ca2 Ga7 3.137210 1_544
Ca2 Ga6 3.157413 1_545
Ca3 Ga2 3.007590 1_445
Ca3 Ga7 3.008061 1_545
Ca3 Ga3 3.024775 1_445
Ca3 Ga6 3.025116 1_545
Ca3 Ga12 3.044364 1_555
Ca3 Ga9 3.056293 1_555
Ca3 Ga14 3.058480 1_555
Ca3 Ga1 3.073146 1_445
Ca3 Ga16 3.096585 1_545
Ca3 Ga4 3.144513 1_555
Ca3 Ga8 3.156912 1_556
Ga0 Ir4 2.585546 1_455
Ga0 Ir5 2.605014 1_455
Ga0 Ga13 2.658070 1_555
Ga0 Ga15 2.675547 1_555
Ga0 Ga4 2.738153 1_555
Ga0 Ga5 2.742539 1_555
Ga0 Ga8 2.742605 1_555
Ga0 Si0 2.781631 1_555
Ga1 Ir5 2.611634 1_565
Ga1 Ir4 2.624105 1_566
Ga1 Ga16 2.688656 1_555
Ga1 Ga14 2.692508 1_555
Ga1 Ga2 2.695372 1_555
Ga1 Ga7 2.727975 1_555
Ga1 Ga6 2.738274 1_555
Ga1 Ga3 2.753901 1_555
Ga2 Ir1 2.554253 1_656
Ga2 Ir0 2.580478 1_556
Ga2 Ir4 2.645858 1_566
Ga2 Si0 2.888190 1_656
Ga2 Ga8 2.910664 1_666
Ga3 Ir2 2.563260 1_655
Ga3 Ir5 2.584122 1_565
Ga3 Ir3 2.586070 1_555
Ga3 Ga5 2.867088 1_655
Ga3 Ga4 2.919358 1_665
Ga4 Ir2 2.556328 1_545
Ga4 Ir5 2.599018 1_455
Ga4 Ir3 2.600906 1_555
Ga4 Ga9 2.817972 1_555
Ga4 Ga6 2.883971 1_545
Ga5 Ir3 2.557859 1_455
Ga5 Ir5 2.581669 1_455
Ga5 Ir2 2.582591 1_555
Ga5 Ga9 2.805041 1_555
Ga5 Ga6 2.917057 1_445
Ga6 Ir3 2.559268 1_565
Ga6 Ir2 2.585132 1_555
Ga6 Ir5 2.591554 1_565
Ga7 Ir0 2.559817 1_566
Ga7 Ir4 2.582223 1_566
Ga7 Ir1 2.641945 1_556
Ga7 Ga8 2.867117 1_566
Ga7 Si0 2.935739 1_666
Ga8 Ir1 2.598934 1_545
Ga8 Ir0 2.637016 1_555
Ga8 Ir4 2.637977 1_455
Ga9 Ir5 2.585688 1_455
Ga9 Ir3 2.590336 1_555
Ga9 Ir2 2.593412 1_555
Ga10 Ir5 2.581307 1_565
Ga10 Ir2 2.608988 1_555
Ga10 Ir3 2.610249 1_555
Ga10 Ga9 2.765236 1_555
Ga10 Ga15 2.805684 1_555
Ga10 Ga6 2.807476 1_555
Ga10 Ga13 2.808069 1_555
Ga10 Ga3 2.809531 1_555
Ga11 Ir4 2.632903 1_565
Ga11 Ir0 2.643761 1_555
Ga11 Ir1 2.651528 1_555
Ga11 Ga12 2.754424 1_554
Ga11 Ga15 2.803379 1_555
Ga11 Ga13 2.803431 1_555
Ga11 Ga7 2.806020 1_554
Ga11 Ga2 2.806976 1_554
Ga12 Ir4 2.571747 1_456
Ga12 Ir1 2.581184 1_556
Ga12 Ir0 2.644533 1_556
Ga12 Ga14 2.766988 1_555
Ga12 Ga16 2.799479 1_555
Ga12 Ga8 2.801118 1_556
Ga12 Si0 2.814798 1_556
Ga13 Ir1 2.586024 1_555
Ga13 Ir2 2.600791 1_555
Ga13 Ga15 2.676322 1_555
Ga13 Ga5 2.764371 1_555
Ga13 Si0 2.807086 1_555
Ga14 Ir3 2.609941 1_555
Ga14 Ir0 2.636847 1_556
Ga14 Ga16 2.685954 1_555
Ga14 Ga2 2.738295 1_555
Ga14 Ga3 2.769449 1_555
Ga14 Ga9 2.836406 1_555
Ga15 Ir0 2.603528 1_555
Ga15 Ir3 2.606134 1_555
Ga15 Ga4 2.754535 1_555
Ga15 Ga8 2.765871 1_555
Ga16 Ir2 2.607570 1_555
Ga16 Ir1 2.622675 1_556
Ga16 Ga7 2.722235 1_555
Ga16 Ga6 2.766890 1_555
Ga16 Ga9 2.817931 1_555
Ir0 Si0 2.454927 1_655
Ir1 Si0 2.465751 1_555
Ir4 Si0 2.462986 1_655
