# generated using pymatgen
data_LiCaH6Rh
_symmetry_space_group_name_H-M   'P 1'
_cell_length_a   4.94094039
_cell_length_b   4.94094062
_cell_length_c   4.94094043
_cell_angle_alpha   60.00000800
_cell_angle_beta   60.00000647
_cell_angle_gamma   60.00000585
_symmetry_Int_Tables_number   1
_chemical_formula_structural   LiCaH6Rh
_chemical_formula_sum   'Li1 Ca1 H6 Rh1'
_cell_volume   85.29310702
_cell_formula_units_Z   1
loop_
 _symmetry_equiv_pos_site_id
 _symmetry_equiv_pos_as_xyz
  1  'x, y, z'
loop_
 _atom_site_type_symbol
 _atom_site_label
 _atom_site_symmetry_multiplicity
 _atom_site_fract_x
 _atom_site_fract_y
 _atom_site_fract_z
 _atom_site_occupancy
  Li  Li0  1  0.25000000  0.25000000  0.25000000  1
  Ca  Ca0  1  0.75000000  0.75000000  0.75000000  1
  H  H0  1  0.76409419  0.23590581  0.23590581  1
  H  H1  1  0.23590581  0.76409419  0.23590581  1
  H  H2  1  0.76409419  0.76409419  0.23590581  1
  H  H3  1  0.23590581  0.76409419  0.76409419  1
  H  H4  1  0.76409419  0.23590581  0.76409419  1
  H  H5  1  0.23590581  0.23590581  0.76409419  1
  Rh  Rh0  1  0.00000000  0.00000000  0.00000000  1
loop_
_geom_bond_atom_site_label_1
_geom_bond_atom_site_label_2
_geom_bond_distance
_geom_bond_site_symmetry_2
Ca0 H3 2.472432 1_655
Ca0 H2 2.472432 1_556
Ca0 H3 2.472432 1_555
Ca0 H2 2.472432 1_555
Ca0 H4 2.472433 1_565
Ca0 H4 2.472433 1_555
Ca0 H1 2.472433 1_556
Ca0 H1 2.472433 1_655
Ca0 H5 2.472433 1_565
Ca0 H5 2.472433 1_655
Ca0 H0 2.472433 1_565
Ca0 H0 2.472433 1_556
H0 Rh0 1.648403 1_655
H1 Rh0 1.648403 1_565
H2 Rh0 1.648403 1_665
H3 Rh0 1.648403 1_566
H4 Rh0 1.648403 1_656
H5 Rh0 1.648403 1_556
