# generated using pymatgen
data_Cs3Si4Au
_symmetry_space_group_name_H-M   'P 1'
_cell_length_a   5.95648288
_cell_length_b   7.25927878
_cell_length_c   13.11156704
_cell_angle_alpha   90.00000000
_cell_angle_beta   90.00000000
_cell_angle_gamma   90.00000000
_symmetry_Int_Tables_number   1
_chemical_formula_structural   Cs3Si4Au
_chemical_formula_sum   'Cs6 Si8 Au2'
_cell_volume   566.94113990
_cell_formula_units_Z   2
loop_
 _symmetry_equiv_pos_site_id
 _symmetry_equiv_pos_as_xyz
  1  'x, y, z'
loop_
 _atom_site_type_symbol
 _atom_site_label
 _atom_site_symmetry_multiplicity
 _atom_site_fract_x
 _atom_site_fract_y
 _atom_site_fract_z
 _atom_site_occupancy
  Cs  Cs0  1  0.84786298  0.50000000  0.26925555  1
  Cs  Cs1  1  0.84786298  0.50000000  0.73074445  1
  Cs  Cs2  1  0.43324875  0.50000000  0.50000000  1
  Cs  Cs3  1  0.15213702  0.00000000  0.23074445  1
  Cs  Cs4  1  0.15213702  0.00000000  0.76925555  1
  Cs  Cs5  1  0.56675125  0.00000000  0.00000000  1
  Si  Si0  1  0.06864729  0.32527234  0.00000000  1
  Si  Si1  1  0.33384812  0.50000000  0.09737710  1
  Si  Si2  1  0.66615188  0.00000000  0.59737710  1
  Si  Si3  1  0.06864729  0.67472766  0.00000000  1
  Si  Si4  1  0.93135271  0.82527234  0.50000000  1
  Si  Si5  1  0.66615188  0.00000000  0.40262290  1
  Si  Si6  1  0.33384812  0.50000000  0.90262290  1
  Si  Si7  1  0.93135271  0.17472766  0.50000000  1
  Au  Au0  1  0.69994253  0.50000000  0.00000000  1
  Au  Au1  1  0.30005747  0.00000000  0.50000000  1
loop_
_geom_bond_atom_site_label_1
_geom_bond_atom_site_label_2
_geom_bond_distance
_geom_bond_site_symmetry_2
Cs0 Si1 3.668561 1_655
Cs0 Si1 3.801687 1_555
Cs0 Si4 3.869878 1_555
Cs0 Si7 3.869878 1_555
Cs1 Si6 3.668561 1_655
Cs1 Si6 3.801687 1_555
Cs1 Si4 3.869878 1_555
Cs1 Si7 3.869878 1_555
Cs2 Si4 3.791866 1_555
Cs2 Si7 3.791866 1_555
Cs2 Si4 3.809565 1_455
Cs2 Si7 3.809565 1_455
Cs3 Si5 3.668561 1_455
Cs3 Si5 3.801687 1_555
Cs3 Si0 3.869878 1_555
Cs3 Si3 3.869878 1_545
Cs4 Si2 3.668561 1_455
Cs4 Si2 3.801687 1_555
Cs4 Si0 3.869878 1_556
Cs4 Si3 3.869878 1_546
Cs5 Si0 3.791866 1_555
Cs5 Si3 3.791866 1_545
Cs5 Si0 3.809565 1_655
Cs5 Si3 3.809565 1_645
Au0 Si1 2.526915 1_555
Au0 Si6 2.526915 1_554
Au0 Si3 2.536149 1_655
Au0 Si0 2.536149 1_655
Au0 Cs0 3.638649 1_555
Au0 Cs1 3.638649 1_554
Au0 Cs5 3.715332 1_555
Au0 Cs5 3.715332 1_565
Au1 Si2 2.526915 1_555
Au1 Si5 2.526915 1_555
Au1 Si7 2.536149 1_455
Au1 Si4 2.536149 1_445
Au1 Cs4 3.638649 1_555
Au1 Cs3 3.638649 1_555
Au1 Cs2 3.715332 1_545
Au1 Cs2 3.715332 1_555
