# generated using pymatgen
data_HoGa4Ni
_symmetry_space_group_name_H-M   'P 1'
_cell_length_a   4.06200702
_cell_length_b   6.50208074
_cell_length_c   7.81583623
_cell_angle_alpha   90.00000000
_cell_angle_beta   105.06161048
_cell_angle_gamma   90.00000000
_symmetry_Int_Tables_number   1
_chemical_formula_structural   HoGa4Ni
_chemical_formula_sum   'Ho2 Ga8 Ni2'
_cell_volume   199.33651208
_cell_formula_units_Z   2
loop_
 _symmetry_equiv_pos_site_id
 _symmetry_equiv_pos_as_xyz
  1  'x, y, z'
loop_
 _atom_site_type_symbol
 _atom_site_label
 _atom_site_symmetry_multiplicity
 _atom_site_fract_x
 _atom_site_fract_y
 _atom_site_fract_z
 _atom_site_occupancy
  Ho  Ho0  1  0.11950734  0.75000000  0.23901269  1
  Ho  Ho1  1  0.88049266  0.25000000  0.76098731  1
  Ga  Ga0  1  0.68578691  0.44825579  0.37157282  1
  Ga  Ga1  1  0.92932623  0.75000000  0.85865147  1
  Ga  Ga2  1  0.50000000  0.00000000  -0.00000000  1
  Ga  Ga3  1  0.31421409  0.55174421  0.62842718  1
  Ga  Ga4  1  0.50000000  0.50000000  -0.00000000  1
  Ga  Ga5  1  0.31421409  0.94825579  0.62842718  1
  Ga  Ga6  1  0.68578691  0.05174421  0.37157282  1
  Ga  Ga7  1  0.07067377  0.25000000  0.14134853  1
  Ni  Ni0  1  0.22429803  0.25000000  0.44859606  1
  Ni  Ni1  1  0.77570197  0.75000000  0.55140394  1
loop_
_geom_bond_atom_site_label_1
_geom_bond_atom_site_label_2
_geom_bond_distance
_geom_bond_site_symmetry_2
Ho0 Ni1 3.111883 1_555
Ho0 Ni1 3.111888 1_455
Ho1 Ni0 3.111883 1_555
Ho1 Ni0 3.111888 1_655
Ga0 Ni1 2.385671 1_555
Ga0 Ni0 2.474796 1_655
Ga0 Ni0 2.474799 1_555
Ga0 Ga6 2.578150 1_555
Ga0 Ga4 2.824496 1_555
Ga0 Ga3 2.887178 1_655
Ga0 Ga3 2.887178 1_555
Ga0 Ga7 2.967467 1_655
Ga0 Ga7 2.967472 1_555
Ga0 Ho0 2.995868 1_555
Ga0 Ho0 2.995871 1_655
Ga0 Ho1 3.209313 1_555
Ga1 Ni1 2.318901 1_555
Ga1 Ga4 2.811646 1_656
Ga1 Ga2 2.811646 1_666
Ga1 Ga4 2.811650 1_556
Ga1 Ga2 2.811650 1_566
Ga1 Ho0 2.870715 1_656
Ga1 Ga5 2.967470 1_555
Ga1 Ga3 2.967470 1_555
Ga1 Ga5 2.967470 1_655
Ga1 Ga3 2.967470 1_655
Ga1 Ho1 3.333555 1_565
Ga1 Ho1 3.333555 1_555
Ga2 Ga7 2.811646 1_655
Ga2 Ga7 2.811650 1_555
Ga2 Ga6 2.824496 1_555
Ga2 Ga5 2.824496 1_544
Ga2 Ho0 3.165654 1_545
Ga2 Ho1 3.165654 1_554
Ga2 Ho0 3.165659 1_645
Ga2 Ho1 3.165659 1_454
Ga3 Ni0 2.385671 1_555
Ga3 Ni1 2.474796 1_555
Ga3 Ni1 2.474799 1_455
Ga3 Ga5 2.578150 1_555
Ga3 Ga4 2.824496 1_556
Ga3 Ho1 2.995866 1_555
Ga3 Ho1 2.995874 1_455
Ga3 Ho0 3.209313 1_555
Ga4 Ga7 2.811646 1_655
Ga4 Ga7 2.811650 1_555
Ga4 Ho0 3.165654 1_555
Ga4 Ho1 3.165654 1_554
Ga4 Ho1 3.165659 1_454
Ga4 Ho0 3.165659 1_655
Ga5 Ni0 2.385671 1_565
Ga5 Ni1 2.474796 1_555
Ga5 Ni1 2.474799 1_455
Ga5 Ga6 2.887178 1_465
Ga5 Ga6 2.887178 1_565
Ga5 Ho1 2.995866 1_565
Ga5 Ho1 2.995874 1_465
Ga5 Ho0 3.209313 1_555
Ga6 Ni1 2.385671 1_545
Ga6 Ni0 2.474796 1_655
Ga6 Ni0 2.474799 1_555
Ga6 Ga7 2.967467 1_655
Ga6 Ga7 2.967472 1_555
Ga6 Ho0 2.995868 1_545
Ga6 Ho0 2.995871 1_645
Ga6 Ho1 3.209313 1_555
Ga7 Ni0 2.318901 1_555
Ga7 Ho1 2.870715 1_454
Ga7 Ho0 3.333555 1_545
Ga7 Ho0 3.333555 1_555
