# generated using pymatgen
data_Cs3KCaI6
_symmetry_space_group_name_H-M   'P 1'
_cell_length_a   10.29513071
_cell_length_b   10.29513068
_cell_length_c   10.29513109
_cell_angle_alpha   91.41908773
_cell_angle_beta   91.41908413
_cell_angle_gamma   91.41908599
_symmetry_Int_Tables_number   1
_chemical_formula_structural   Cs3KCaI6
_chemical_formula_sum   'Cs6 K2 Ca2 I12'
_cell_volume   1090.15711521
_cell_formula_units_Z   2
loop_
 _symmetry_equiv_pos_site_id
 _symmetry_equiv_pos_as_xyz
  1  'x, y, z'
loop_
 _atom_site_type_symbol
 _atom_site_label
 _atom_site_symmetry_multiplicity
 _atom_site_fract_x
 _atom_site_fract_y
 _atom_site_fract_z
 _atom_site_occupancy
  Cs  Cs0  1  0.25000000  0.62804272  0.87195728  1
  Cs  Cs1  1  0.87195728  0.25000000  0.62804272  1
  Cs  Cs2  1  0.62804272  0.87195728  0.25000000  1
  Cs  Cs3  1  0.75000000  0.37195728  0.12804272  1
  Cs  Cs4  1  0.12804272  0.75000000  0.37195728  1
  Cs  Cs5  1  0.37195728  0.12804272  0.75000000  1
  K  K0  1  0.25000000  0.25000000  0.25000000  1
  K  K1  1  0.75000000  0.75000000  0.75000000  1
  Ca  Ca0  1  0.00000000  0.00000000  0.00000000  1
  Ca  Ca1  1  0.50000000  0.50000000  0.50000000  1
  I  I0  1  0.54923138  0.20773294  0.42061149  1
  I  I1  1  0.42061149  0.54923138  0.20773294  1
  I  I2  1  0.20773294  0.42061149  0.54923138  1
  I  I3  1  0.95076862  0.07938851  0.29226706  1
  I  I4  1  0.29226706  0.95076862  0.07938851  1
  I  I5  1  0.07938851  0.29226706  0.95076862  1
  I  I6  1  0.45076862  0.79226706  0.57938851  1
  I  I7  1  0.57938851  0.45076862  0.79226706  1
  I  I8  1  0.79226706  0.57938851  0.45076862  1
  I  I9  1  0.04923138  0.92061149  0.70773294  1
  I  I10  1  0.92061149  0.70773294  0.04923138  1
  I  I11  1  0.70773294  0.04923138  0.92061149  1
loop_
_geom_bond_atom_site_label_1
_geom_bond_atom_site_label_2
_geom_bond_distance
_geom_bond_site_symmetry_2
Cs0 I4 3.914054 1_556
Cs0 I2 3.914054 1_555
Cs0 I5 3.949951 1_555
Cs0 I1 3.949952 1_556
Cs0 I10 3.984176 1_456
Cs0 I7 3.984176 1_555
Cs0 I6 4.073155 1_555
Cs0 I9 4.073155 1_555
Cs1 I0 3.914054 1_555
Cs1 I5 3.914054 1_655
Cs1 I2 3.949951 1_655
Cs1 I3 3.949951 1_555
Cs1 I9 3.984176 1_645
Cs1 I8 3.984176 1_555
Cs1 I7 4.073155 1_555
Cs1 I11 4.073155 1_555
Cs2 I1 3.914054 1_555
Cs2 I3 3.914054 1_565
Cs2 I0 3.949951 1_565
Cs2 I4 3.949951 1_555
Cs2 I6 3.984176 1_555
Cs2 I11 3.984176 1_564
Cs2 I10 4.073155 1_555
Cs2 I8 4.073155 1_555
Cs3 I11 3.914054 1_554
Cs3 I8 3.914054 1_555
Cs3 I10 3.949951 1_555
Cs3 I7 3.949952 1_554
Cs3 I5 3.984176 1_654
Cs3 I1 3.984176 1_555
Cs3 I0 4.073155 1_555
Cs3 I3 4.073155 1_555
Cs4 I6 3.914054 1_555
Cs4 I10 3.914054 1_455
Cs4 I8 3.949951 1_455
Cs4 I9 3.949951 1_555
Cs4 I3 3.984176 1_465
Cs4 I2 3.984176 1_555
Cs4 I1 4.073155 1_555
Cs4 I4 4.073155 1_555
Cs5 I7 3.914054 1_555
Cs5 I9 3.914054 1_545
Cs5 I6 3.949951 1_545
Cs5 I11 3.949951 1_555
Cs5 I0 3.984176 1_555
Cs5 I4 3.984176 1_546
Cs5 I5 4.073155 1_555
Cs5 I2 4.073155 1_555
Ca0 I5 3.154804 1_554
Ca0 I10 3.154804 1_445
Ca0 I4 3.154804 1_545
Ca0 I11 3.154804 1_454
Ca0 I3 3.154804 1_455
Ca0 I9 3.154804 1_544
Ca1 I0 3.154804 1_555
Ca1 I6 3.154804 1_555
Ca1 I8 3.154804 1_555
Ca1 I2 3.154804 1_555
Ca1 I7 3.154804 1_555
Ca1 I1 3.154804 1_555
I0 K0 3.549793 1_555
I1 K0 3.549793 1_555
I2 K0 3.549793 1_555
I3 K0 3.549793 1_655
I4 K0 3.549793 1_565
I5 K0 3.549793 1_556
I6 K1 3.549793 1_555
I7 K1 3.549793 1_555
I8 K1 3.549793 1_555
I9 K1 3.549793 1_455
I10 K1 3.549793 1_554
I11 K1 3.549793 1_545
