# generated using pymatgen
data_Ga2BiTe4
_symmetry_space_group_name_H-M   'P 1'
_cell_length_a   8.42660153
_cell_length_b   8.42660153
_cell_length_c   13.57814849
_cell_angle_alpha   90.00000000
_cell_angle_beta   90.00000000
_cell_angle_gamma   90.00000000
_symmetry_Int_Tables_number   1
_chemical_formula_structural   Ga2BiTe4
_chemical_formula_sum   'Ga8 Bi4 Te16'
_cell_volume   964.15191856
_cell_formula_units_Z   4
loop_
 _symmetry_equiv_pos_site_id
 _symmetry_equiv_pos_as_xyz
  1  'x, y, z'
loop_
 _atom_site_type_symbol
 _atom_site_label
 _atom_site_symmetry_multiplicity
 _atom_site_fract_x
 _atom_site_fract_y
 _atom_site_fract_z
 _atom_site_occupancy
  Ga  Ga0  1  0.50000000  0.00000000  0.75000000  1
  Ga  Ga1  1  0.00000000  0.50000000  0.75000000  1
  Ga  Ga2  1  0.00000000  0.50000000  0.00000000  1
  Ga  Ga3  1  0.00000000  0.50000000  0.25000000  1
  Ga  Ga4  1  0.50000000  0.00000000  0.50000000  1
  Ga  Ga5  1  0.50000000  0.00000000  0.25000000  1
  Ga  Ga6  1  0.00000000  0.50000000  0.50000000  1
  Ga  Ga7  1  0.50000000  0.00000000  0.00000000  1
  Bi  Bi0  1  0.00000000  0.00000000  0.11682280  1
  Bi  Bi1  1  0.00000000  0.00000000  0.88317720  1
  Bi  Bi2  1  0.50000000  0.50000000  0.38317720  1
  Bi  Bi3  1  0.50000000  0.50000000  0.61682280  1
  Te  Te0  1  0.66590961  0.82594128  0.87535659  1
  Te  Te1  1  0.16590961  0.32594128  0.62464341  1
  Te  Te2  1  0.83409039  0.67405872  0.62464341  1
  Te  Te3  1  0.16590961  0.67405872  0.37535659  1
  Te  Te4  1  0.67405872  0.16590961  0.62464341  1
  Te  Te5  1  0.82594128  0.33409039  0.87535659  1
  Te  Te6  1  0.67405872  0.83409039  0.37535659  1
  Te  Te7  1  0.66590961  0.17405872  0.12464341  1
  Te  Te8  1  0.17405872  0.33409039  0.12464341  1
  Te  Te9  1  0.32594128  0.83409039  0.62464341  1
  Te  Te10  1  0.17405872  0.66590961  0.87535659  1
  Te  Te11  1  0.83409039  0.32594128  0.37535659  1
  Te  Te12  1  0.82594128  0.66590961  0.12464341  1
  Te  Te13  1  0.33409039  0.17405872  0.87535659  1
  Te  Te14  1  0.32594128  0.16590961  0.37535659  1
  Te  Te15  1  0.33409039  0.82594128  0.12464341  1
loop_
_geom_bond_atom_site_label_1
_geom_bond_atom_site_label_2
_geom_bond_distance
_geom_bond_site_symmetry_2
Ga0 Te0 2.646321 1_545
Ga0 Te13 2.646321 1_555
Ga0 Te4 2.646321 1_555
Ga0 Te9 2.646321 1_545
Ga1 Te10 2.646321 1_555
Ga1 Te5 2.646321 1_455
Ga1 Te1 2.646321 1_555
Ga1 Te2 2.646321 1_455
Ga2 Te12 2.640103 1_455
Ga2 Te8 2.640103 1_555
Ga2 Te10 2.640103 1_554
Ga2 Te5 2.640103 1_454
Ga3 Te3 2.646321 1_555
Ga3 Te11 2.646321 1_455
Ga3 Te12 2.646321 1_455
Ga3 Te8 2.646321 1_555
Ga4 Te4 2.640103 1_555
Ga4 Te9 2.640103 1_545
Ga4 Te14 2.640103 1_555
Ga4 Te6 2.640103 1_545
Ga5 Te14 2.646321 1_555
Ga5 Te6 2.646321 1_545
Ga5 Te7 2.646321 1_555
Ga5 Te15 2.646321 1_545
Ga6 Te1 2.640103 1_555
Ga6 Te2 2.640103 1_455
Ga6 Te3 2.640103 1_555
Ga6 Te11 2.640103 1_455
Ga7 Te7 2.640103 1_555
Ga7 Te15 2.640103 1_545
Ga7 Te0 2.640103 1_544
Ga7 Te13 2.640103 1_554
Bi0 Bi1 3.172475 1_554
Bi0 Te15 3.176188 1_545
Bi0 Te8 3.176188 1_555
Bi0 Te7 3.176188 1_455
Bi0 Te12 3.176188 1_445
Bi1 Te5 3.176188 1_455
Bi1 Te13 3.176188 1_555
Bi1 Te10 3.176188 1_545
Bi1 Te0 3.176188 1_445
Bi2 Bi3 3.172475 1_555
Bi2 Te11 3.176188 1_555
Bi2 Te6 3.176188 1_555
Bi2 Te3 3.176188 1_555
Bi2 Te14 3.176188 1_555
Bi3 Te2 3.176188 1_555
Bi3 Te9 3.176188 1_555
Bi3 Te1 3.176188 1_555
Bi3 Te4 3.176188 1_555
