# generated using pymatgen
data_K2Na2PtO4
_symmetry_space_group_name_H-M   'P 1'
_cell_length_a   11.02139634
_cell_length_b   5.87860714
_cell_length_c   9.41193737
_cell_angle_alpha   68.46950444
_cell_angle_beta   90.00000000
_cell_angle_gamma   90.00000000
_symmetry_Int_Tables_number   1
_chemical_formula_structural   K2Na2PtO4
_chemical_formula_sum   'K8 Na8 Pt4 O16'
_cell_volume   567.25308287
_cell_formula_units_Z   4
loop_
 _symmetry_equiv_pos_site_id
 _symmetry_equiv_pos_as_xyz
  1  'x, y, z'
loop_
 _atom_site_type_symbol
 _atom_site_label
 _atom_site_symmetry_multiplicity
 _atom_site_fract_x
 _atom_site_fract_y
 _atom_site_fract_z
 _atom_site_occupancy
  K  K0  1  0.86723241  0.33858100  0.76911489  1
  K  K1  1  0.14018199  0.33522957  0.00298173  1
  K  K2  1  0.64018199  0.66477043  0.49701827  1
  K  K3  1  0.35981801  0.33522957  0.50298173  1
  K  K4  1  0.36723241  0.66141900  0.73088511  1
  K  K5  1  0.13276759  0.66141900  0.23088511  1
  K  K6  1  0.63276759  0.33858100  0.26911489  1
  K  K7  1  0.85981801  0.66477043  0.99701827  1
  Na  Na0  1  0.61416275  0.93341069  0.09116551  1
  Na  Na1  1  0.60859289  0.43020032  0.91059191  1
  Na  Na2  1  0.89140711  0.43020032  0.41059191  1
  Na  Na3  1  0.88583725  0.93341069  0.59116551  1
  Na  Na4  1  0.10859289  0.56979968  0.58940809  1
  Na  Na5  1  0.11416275  0.06658931  0.40883449  1
  Na  Na6  1  0.39140711  0.56979968  0.08940809  1
  Na  Na7  1  0.38583725  0.06658931  0.90883449  1
  Pt  Pt0  1  0.87147550  0.01457805  0.22860160  1
  Pt  Pt1  1  0.62852450  0.01457805  0.72860160  1
  Pt  Pt2  1  0.37147550  0.98542195  0.27139840  1
  Pt  Pt3  1  0.12852450  0.98542195  0.77139840  1
  O  O0  1  0.96482064  0.79415426  0.40836512  1
  O  O1  1  0.46804515  0.71514949  0.27799074  1
  O  O2  1  0.27490279  0.25934086  0.25938307  1
  O  O3  1  0.72764652  0.22087749  0.55293020  1
  O  O4  1  0.27235348  0.77912251  0.44706980  1
  O  O5  1  0.53517936  0.79415426  0.90836512  1
  O  O6  1  0.77490279  0.74065914  0.24061693  1
  O  O7  1  0.77235348  0.22087749  0.05293020  1
  O  O8  1  0.96804515  0.28485051  0.22200926  1
  O  O9  1  0.22764652  0.77912251  0.94706980  1
  O  O10  1  0.03517936  0.20584574  0.59163488  1
  O  O11  1  0.22509721  0.25934086  0.75938307  1
  O  O12  1  0.53195485  0.28485051  0.72200926  1
  O  O13  1  0.03195485  0.71514949  0.77799074  1
  O  O14  1  0.72509721  0.74065914  0.74061693  1
  O  O15  1  0.46482064  0.20584574  0.09163488  1
loop_
_geom_bond_atom_site_label_1
_geom_bond_atom_site_label_2
_geom_bond_distance
_geom_bond_site_symmetry_2
K0 O7 2.711307 1_556
K0 O14 2.765411 1_555
K0 O10 2.789651 1_655
K0 O3 2.831783 1_555
K0 O13 2.887752 1_655
K1 O9 2.647189 1_554
K1 O11 2.661257 1_554
K1 O13 2.724653 1_554
K1 O2 2.727118 1_555
K1 O8 2.736528 1_455
K2 O3 2.647189 1_555
K2 O14 2.661257 1_555
K2 O12 2.724653 1_555
K2 O6 2.727118 1_555
K2 O1 2.736528 1_555
K3 O4 2.647189 1_555
K3 O2 2.661257 1_555
K3 O1 2.724653 1_555
K3 O11 2.727118 1_555
K3 O12 2.736528 1_555
K4 O4 2.711307 1_555
K4 O11 2.765411 1_555
K4 O5 2.789651 1_555
K4 O9 2.831783 1_555
K4 O12 2.887752 1_555
K5 O9 2.711307 1_554
K5 O2 2.765411 1_555
K5 O0 2.789651 1_455
K5 O4 2.831783 1_555
K5 O8 2.887752 1_455
K6 O3 2.711307 1_555
K6 O6 2.765411 1_555
K6 O15 2.789651 1_555
K6 O7 2.831783 1_555
K6 O1 2.887752 1_555
K7 O7 2.647189 1_556
K7 O6 2.661257 1_556
K7 O8 2.724653 1_556
K7 O14 2.727118 1_555
K7 O13 2.736528 1_655
Na0 O6 2.287171 1_555
Na0 O15 2.297677 1_565
Na0 O5 2.328495 1_554
Na0 O7 2.361915 1_565
Na0 O1 2.382365 1_555
Na1 O5 2.280316 1_555
Na1 O7 2.314411 1_556
Na1 O14 2.322909 1_555
Na1 O15 2.346125 1_556
Na1 O12 2.388949 1_555
Na2 O0 2.280316 1_555
Na2 O3 2.314411 1_555
Na2 O6 2.322909 1_555
Na2 O10 2.346125 1_655
Na2 O8 2.388949 1_555
Na3 O14 2.287171 1_555
Na3 O10 2.297677 1_665
Na3 O0 2.328495 1_555
Na3 O3 2.361915 1_565
Na3 O13 2.382365 1_655
Na4 O10 2.280316 1_555
Na4 O4 2.314411 1_555
Na4 O11 2.322909 1_555
Na4 O0 2.346125 1_455
Na4 O13 2.388949 1_555
Na5 O2 2.287171 1_555
Na5 O0 2.297677 1_445
Na5 O10 2.328495 1_555
Na5 O4 2.361915 1_545
Na5 O8 2.382365 1_455
Na6 O15 2.280316 1_555
Na6 O9 2.314411 1_554
Na6 O2 2.322909 1_555
Na6 O5 2.346125 1_554
Na6 O1 2.388949 1_555
Na7 O11 2.287171 1_555
Na7 O5 2.297677 1_545
Na7 O15 2.328495 1_556
Na7 O9 2.361915 1_545
Na7 O12 2.382365 1_555
O0 Pt0 1.997723 1_565
O1 Pt2 1.894376 1_555
O2 Pt2 1.898670 1_545
O3 Pt1 1.981469 1_555
O4 Pt2 1.981469 1_555
O5 Pt1 1.997723 1_565
O6 Pt0 1.898670 1_565
O7 Pt0 1.981469 1_555
O8 Pt0 1.894376 1_555
O9 Pt3 1.981469 1_555
O10 Pt3 1.997723 1_545
O11 Pt3 1.898670 1_545
O12 Pt1 1.894376 1_555
O13 Pt3 1.894376 1_555
O14 Pt1 1.898670 1_565
O15 Pt2 1.997723 1_545
