# generated using pymatgen
data_Y20Cd6TcPd
_symmetry_space_group_name_H-M   'P 1'
_cell_length_a   9.69872021
_cell_length_b   9.69871952
_cell_length_c   9.82432571
_cell_angle_alpha   90.00000000
_cell_angle_beta   90.00000000
_cell_angle_gamma   120.00002786
_symmetry_Int_Tables_number   1
_chemical_formula_structural   Y20Cd6TcPd
_chemical_formula_sum   'Y20 Cd6 Tc1 Pd1'
_cell_volume   800.31709426
_cell_formula_units_Z   1
loop_
 _symmetry_equiv_pos_site_id
 _symmetry_equiv_pos_as_xyz
  1  'x, y, z'
loop_
 _atom_site_type_symbol
 _atom_site_label
 _atom_site_symmetry_multiplicity
 _atom_site_fract_x
 _atom_site_fract_y
 _atom_site_fract_z
 _atom_site_occupancy
  Y  Y0  1  0.21019026  0.78980974  0.93916537  1
  Y  Y1  1  0.21019026  0.42038053  0.93916437  1
  Y  Y2  1  0.57961947  0.78980974  0.93916437  1
  Y  Y3  1  0.79186805  0.20813195  0.05895251  1
  Y  Y4  1  0.79186805  0.58373609  0.05895251  1
  Y  Y5  1  0.41626391  0.20813195  0.05895251  1
  Y  Y6  1  0.79186805  0.20813195  0.44104749  1
  Y  Y7  1  0.79186805  0.58373609  0.44104749  1
  Y  Y8  1  0.41626391  0.20813195  0.44104749  1
  Y  Y9  1  0.21019026  0.78980974  0.56083463  1
  Y  Y10  1  0.21019026  0.42038053  0.56083563  1
  Y  Y11  1  0.57961947  0.78980974  0.56083563  1
  Y  Y12  1  0.54046902  0.45953098  0.75000000  1
  Y  Y13  1  0.54046902  0.08093804  0.75000000  1
  Y  Y14  1  0.91906196  0.45953098  0.75000000  1
  Y  Y15  1  0.45670391  0.54329609  0.25000000  1
  Y  Y16  1  0.45670491  0.91340782  0.25000000  1
  Y  Y17  1  0.08659118  0.54329509  0.25000000  1
  Y  Y18  1  0.00000000  0.00000000  0.00041269  1
  Y  Y19  1  0.00000000  0.00000000  0.49958731  1
  Cd  Cd0  1  0.88481311  0.11518789  0.75000000  1
  Cd  Cd1  1  0.88481211  0.76962523  0.75000000  1
  Cd  Cd2  1  0.23037477  0.11518789  0.75000000  1
  Cd  Cd3  1  0.11452604  0.88547396  0.25000000  1
  Cd  Cd4  1  0.11452604  0.22905208  0.25000000  1
  Cd  Cd5  1  0.77094792  0.88547396  0.25000000  1
  Tc  Tc0  1  0.33333300  0.66666700  0.75000000  1
  Pd  Pd0  1  0.66666600  0.33333300  0.25000000  1
loop_
_geom_bond_atom_site_label_1
_geom_bond_atom_site_label_2
_geom_bond_distance
_geom_bond_site_symmetry_2
Cd0 Y18 3.129932 1_656
Cd0 Y19 3.129932 1_655
Cd0 Y14 3.186613 1_555
Cd0 Y13 3.186619 1_555
Cd0 Cd2 3.351506 1_655
Cd0 Cd1 3.351510 1_545
Cd0 Y3 3.413289 1_556
Cd0 Y6 3.413289 1_555
Cd0 Y1 3.582309 1_655
Cd0 Y10 3.582309 1_655
Cd0 Y2 3.582317 1_545
Cd0 Y11 3.582317 1_545
Cd1 Y18 3.129932 1_666
Cd1 Y19 3.129932 1_665
Cd1 Y12 3.186612 1_555
Cd1 Y14 3.186619 1_555
Cd1 Cd2 3.351514 1_665
Cd1 Y4 3.413289 1_556
Cd1 Y7 3.413289 1_555
Cd1 Y2 3.582310 1_555
Cd1 Y11 3.582310 1_555
Cd1 Y9 3.582324 1_655
Cd1 Y0 3.582324 1_655
Cd2 Y18 3.129932 1_556
Cd2 Y19 3.129932 1_555
Cd2 Y12 3.186612 1_555
Cd2 Y13 3.186619 1_555
Cd2 Y5 3.413289 1_556
Cd2 Y8 3.413289 1_555
Cd2 Y1 3.582310 1_555
Cd2 Y10 3.582310 1_555
Cd2 Y9 3.582323 1_545
Cd2 Y0 3.582323 1_545
Cd3 Y19 3.116693 1_565
Cd3 Y18 3.116693 1_565
Cd3 Y17 3.191866 1_555
Cd3 Y16 3.191871 1_555
Cd3 Cd4 3.332268 1_565
Cd3 Cd5 3.332268 1_455
Cd3 Y0 3.450780 1_554
Cd3 Y9 3.450780 1_555
Cd3 Y8 3.566787 1_565
Cd3 Y5 3.566787 1_565
Cd3 Y7 3.566787 1_455
Cd3 Y4 3.566787 1_455
Cd4 Y19 3.116692 1_555
Cd4 Y18 3.116692 1_555
Cd4 Y17 3.191857 1_555
Cd4 Y15 3.191860 1_555
Cd4 Cd5 3.332267 1_445
Cd4 Y10 3.450789 1_555
Cd4 Y1 3.450789 1_554
Cd4 Y6 3.566788 1_455
Cd4 Y3 3.566788 1_455
Cd4 Y8 3.566788 1_555
Cd4 Y5 3.566788 1_555
Cd5 Y19 3.116692 1_665
Cd5 Y18 3.116692 1_665
Cd5 Y16 3.191852 1_555
Cd5 Y15 3.191860 1_555
Cd5 Y11 3.450789 1_555
Cd5 Y2 3.450789 1_554
Cd5 Y6 3.566788 1_565
Cd5 Y3 3.566788 1_565
Cd5 Y7 3.566788 1_555
Cd5 Y4 3.566788 1_555
Tc0 Y1 2.780823 1_555
Tc0 Y10 2.780823 1_555
Tc0 Y2 2.780824 1_555
Tc0 Y11 2.780824 1_555
Tc0 Y9 2.780824 1_555
Tc0 Y0 2.780824 1_555
Tc0 Y13 3.479601 1_565
Tc0 Y14 3.479602 1_455
Tc0 Y12 3.479611 1_555
Pd0 Y8 2.818918 1_555
Pd0 Y5 2.818918 1_555
Pd0 Y7 2.818924 1_555
Pd0 Y4 2.818924 1_555
Pd0 Y6 2.818925 1_555
Pd0 Y3 2.818925 1_555
Pd0 Y16 3.527092 1_545
Pd0 Y17 3.527093 1_655
Pd0 Y15 3.527094 1_555
