# generated using pymatgen
data_Rb6PbSe4
_symmetry_space_group_name_H-M   'P 1'
_cell_length_a   11.08006527
_cell_length_b   11.08006570
_cell_length_c   8.33949173
_cell_angle_alpha   90.00000000
_cell_angle_beta   90.00000000
_cell_angle_gamma   119.99999872
_symmetry_Int_Tables_number   1
_chemical_formula_structural   Rb6PbSe4
_chemical_formula_sum   'Rb12 Pb2 Se8'
_cell_volume   886.65542205
_cell_formula_units_Z   2
loop_
 _symmetry_equiv_pos_site_id
 _symmetry_equiv_pos_as_xyz
  1  'x, y, z'
loop_
 _atom_site_type_symbol
 _atom_site_label
 _atom_site_symmetry_multiplicity
 _atom_site_fract_x
 _atom_site_fract_y
 _atom_site_fract_z
 _atom_site_occupancy
  Rb  Rb0  1  0.14745958  0.29491916  0.20655481  1
  Rb  Rb1  1  0.14745958  0.85254042  0.20655481  1
  Rb  Rb2  1  0.70508084  0.85254042  0.20655481  1
  Rb  Rb3  1  0.85254042  0.70508084  0.70655481  1
  Rb  Rb4  1  0.85254042  0.14745958  0.70655481  1
  Rb  Rb5  1  0.29491916  0.14745958  0.70655481  1
  Rb  Rb6  1  0.52842256  0.05684612  0.37701998  1
  Rb  Rb7  1  0.52842256  0.47157744  0.37701998  1
  Rb  Rb8  1  0.94315388  0.47157744  0.37701998  1
  Rb  Rb9  1  0.47157744  0.94315388  0.87701998  1
  Rb  Rb10  1  0.47157744  0.52842256  0.87701998  1
  Rb  Rb11  1  0.05684612  0.52842256  0.87701998  1
  Pb  Pb0  1  0.33333300  0.66666700  0.49989762  1
  Pb  Pb1  1  0.66666700  0.33333300  0.99989762  1
  Se  Se0  1  0.33333300  0.66666700  0.14706850  1
  Se  Se1  1  0.66666700  0.33333300  0.64706850  1
  Se  Se2  1  0.81312744  0.62625589  0.10843017  1
  Se  Se3  1  0.81312744  0.18687256  0.10843017  1
  Se  Se4  1  0.37374411  0.18687256  0.10843017  1
  Se  Se5  1  0.18687256  0.37374411  0.60843017  1
  Se  Se6  1  0.18687256  0.81312744  0.60843017  1
  Se  Se7  1  0.62625589  0.81312744  0.60843017  1
loop_
_geom_bond_atom_site_label_1
_geom_bond_atom_site_label_2
_geom_bond_distance
_geom_bond_site_symmetry_2
Rb0 Se4 3.375012 1_555
Rb0 Se3 3.375022 1_455
Rb0 Se5 3.435728 1_555
Rb0 Se0 3.601481 1_555
Rb1 Se2 3.375020 1_455
Rb1 Se4 3.375020 1_565
Rb1 Se6 3.435730 1_555
Rb1 Se0 3.601471 1_555
Rb2 Se2 3.375012 1_555
Rb2 Se3 3.375022 1_565
Rb2 Se7 3.435728 1_555
Rb2 Se0 3.601481 1_555
Rb3 Se7 3.375012 1_555
Rb3 Se6 3.375022 1_655
Rb3 Se2 3.435728 1_556
Rb3 Se1 3.601481 1_555
Rb4 Se5 3.375020 1_655
Rb4 Se7 3.375020 1_545
Rb4 Se3 3.435730 1_556
Rb4 Se1 3.601471 1_555
Rb5 Se5 3.375012 1_555
Rb5 Se6 3.375022 1_545
Rb5 Se4 3.435728 1_556
Rb5 Se1 3.601481 1_555
Rb6 Se1 3.480021 1_555
Rb6 Se3 3.535421 1_555
Rb6 Se4 3.535421 1_555
Rb6 Se6 3.888285 1_545
Rb6 Se7 3.888299 1_545
Rb7 Se1 3.480036 1_555
Rb7 Se2 3.535421 1_555
Rb7 Se4 3.535421 1_555
Rb7 Se5 3.888280 1_555
Rb7 Se7 3.888280 1_555
Rb8 Se1 3.480021 1_555
Rb8 Se2 3.535421 1_555
Rb8 Se3 3.535421 1_555
Rb8 Se6 3.888285 1_655
Rb8 Se5 3.888299 1_655
Rb9 Se0 3.480021 1_556
Rb9 Se6 3.535421 1_555
Rb9 Se7 3.535421 1_555
Rb9 Se3 3.888285 1_566
Rb9 Se4 3.888299 1_566
Rb10 Se0 3.480036 1_556
Rb10 Se5 3.535421 1_555
Rb10 Se7 3.535421 1_555
Rb10 Se2 3.888280 1_556
Rb10 Se4 3.888280 1_556
Rb11 Se0 3.480021 1_556
Rb11 Se5 3.535421 1_555
Rb11 Se6 3.535421 1_555
Rb11 Se3 3.888285 1_456
Rb11 Se2 3.888299 1_456
Pb0 Se0 2.942416 1_555
Pb0 Se6 2.952892 1_555
Pb0 Se7 2.952910 1_555
Pb0 Se5 2.952911 1_555
Pb1 Se1 2.942416 1_555
Pb1 Se3 2.952892 1_556
Pb1 Se4 2.952910 1_556
Pb1 Se2 2.952911 1_556
