# generated using pymatgen
data_Ba4CuH12Rh
_symmetry_space_group_name_H-M   'P 1'
_cell_length_a   8.04081030
_cell_length_b   8.04080999
_cell_length_c   5.87042681
_cell_angle_alpha   90.02807939
_cell_angle_beta   90.02807929
_cell_angle_gamma   137.26268276
_symmetry_Int_Tables_number   1
_chemical_formula_structural   Ba4CuH12Rh
_chemical_formula_sum   'Ba4 Cu1 H12 Rh1'
_cell_volume   257.57706594
_cell_formula_units_Z   1
loop_
 _symmetry_equiv_pos_site_id
 _symmetry_equiv_pos_as_xyz
  1  'x, y, z'
loop_
 _atom_site_type_symbol
 _atom_site_label
 _atom_site_symmetry_multiplicity
 _atom_site_fract_x
 _atom_site_fract_y
 _atom_site_fract_z
 _atom_site_occupancy
  Ba  Ba0  1  0.35710636  0.64289364  1.00000000  1
  Ba  Ba1  1  0.85861821  0.14138179  0.50000000  1
  Ba  Ba2  1  0.64289364  0.35710636  0.00000000  1
  Ba  Ba3  1  0.14138179  0.85861821  0.50000000  1
  Cu  Cu0  1  0.50000000  0.50000000  0.50000000  1
  H  H0  1  0.00043647  0.49976658  0.25376977  1
  H  H1  1  0.50023342  0.99956353  0.74623023  1
  H  H2  1  0.99956353  0.50023342  0.74623023  1
  H  H3  1  0.49976658  0.00043647  0.25376977  1
  H  H4  1  0.11149173  0.88850827  0.00000000  1
  H  H5  1  0.60349901  0.39650099  0.50000000  1
  H  H6  1  0.88850827  0.11149173  1.00000000  1
  H  H7  1  0.39650099  0.60349901  0.50000000  1
  H  H8  1  0.79613000  0.79613000  0.20273850  1
  H  H9  1  0.20387000  0.20387000  0.79726150  1
  H  H10  1  0.79603856  0.79603856  0.79667094  1
  H  H11  1  0.20396144  0.20396144  0.20332906  1
  Rh  Rh0  1  0.00000000  0.00000000  0.00000000  1
loop_
_geom_bond_atom_site_label_1
_geom_bond_atom_site_label_2
_geom_bond_distance
_geom_bond_site_symmetry_2
Ba0 H1 2.631776 1_555
Ba0 H0 2.631777 1_556
Ba0 H3 2.636319 1_566
Ba0 H2 2.636319 1_455
Ba0 H6 2.967313 1_455
Ba0 H6 2.967313 1_565
Ba0 H7 2.993919 1_555
Ba0 H7 2.993919 1_556
Ba0 H9 3.000238 1_555
Ba0 H8 3.000238 1_556
Ba0 H11 3.003158 1_556
Ba0 H10 3.003158 1_555
Ba1 H0 2.621559 1_655
Ba1 H1 2.621559 1_545
Ba1 H2 2.624944 1_555
Ba1 H3 2.624944 1_555
Ba1 H6 2.969151 1_554
Ba1 H6 2.969151 1_555
Ba1 H7 2.984234 1_545
Ba1 H7 2.984234 1_655
Ba1 H8 2.991626 1_545
Ba1 H9 2.991626 1_655
Ba1 H10 2.991693 1_545
Ba1 H11 2.991693 1_655
Ba2 H3 2.631776 1_555
Ba2 H2 2.631777 1_554
Ba2 H1 2.636319 1_544
Ba2 H0 2.636319 1_655
Ba2 H4 2.967313 1_655
Ba2 H4 2.967313 1_545
Ba2 H5 2.993919 1_555
Ba2 H5 2.993919 1_554
Ba2 H8 3.000238 1_555
Ba2 H9 3.000238 1_554
Ba2 H10 3.003158 1_554
Ba2 H11 3.003158 1_555
Ba3 H2 2.621559 1_455
Ba3 H3 2.621559 1_565
Ba3 H0 2.624944 1_555
Ba3 H1 2.624944 1_555
Ba3 H4 2.969151 1_556
Ba3 H4 2.969151 1_555
Ba3 H5 2.984234 1_565
Ba3 H5 2.984234 1_455
Ba3 H9 2.991626 1_565
Ba3 H8 2.991626 1_455
Ba3 H11 2.991693 1_565
Ba3 H10 2.991693 1_455
Cu0 H5 1.550011 1_555
Cu0 H7 1.550011 1_555
H4 Rh0 1.669711 1_565
H6 Rh0 1.669711 1_656
H8 Rh0 1.687418 1_665
H9 Rh0 1.687418 1_556
H10 Rh0 1.687976 1_666
H11 Rh0 1.687976 1_555
