# generated using pymatgen
data_V3ZnGaN
_symmetry_space_group_name_H-M   'P 1'
_cell_length_a   6.54520533
_cell_length_b   6.54520533
_cell_length_c   6.54520533
_cell_angle_alpha   90.00000000
_cell_angle_beta   90.00000000
_cell_angle_gamma   90.00000000
_symmetry_Int_Tables_number   1
_chemical_formula_structural   V3ZnGaN
_chemical_formula_sum   'V12 Zn4 Ga4 N4'
_cell_volume   280.39471623
_cell_formula_units_Z   4
loop_
 _symmetry_equiv_pos_site_id
 _symmetry_equiv_pos_as_xyz
  1  'x, y, z'
loop_
 _atom_site_type_symbol
 _atom_site_label
 _atom_site_symmetry_multiplicity
 _atom_site_fract_x
 _atom_site_fract_y
 _atom_site_fract_z
 _atom_site_occupancy
  V  V0  1  0.79047981  0.96031326  0.37537296  1
  V  V1  1  0.70952019  0.03968674  0.87537296  1
  V  V2  1  0.20952019  0.46031326  0.12462704  1
  V  V3  1  0.29047981  0.53968674  0.62462704  1
  V  V4  1  0.96031326  0.37537296  0.79047981  1
  V  V5  1  0.03968674  0.87537296  0.70952019  1
  V  V6  1  0.46031326  0.12462704  0.20952019  1
  V  V7  1  0.53968674  0.62462704  0.29047981  1
  V  V8  1  0.37537296  0.79047981  0.96031326  1
  V  V9  1  0.87537296  0.70952019  0.03968674  1
  V  V10  1  0.12462704  0.20952019  0.46031326  1
  V  V11  1  0.62462704  0.29047981  0.53968674  1
  Zn  Zn0  1  0.57071139  0.42928861  0.92928861  1
  Zn  Zn1  1  0.42928861  0.92928861  0.57071139  1
  Zn  Zn2  1  0.92928861  0.57071139  0.42928861  1
  Zn  Zn3  1  0.07071139  0.07071139  0.07071139  1
  Ga  Ga0  1  0.17725853  0.82274147  0.32274147  1
  Ga  Ga1  1  0.32274147  0.17725853  0.82274147  1
  Ga  Ga2  1  0.82274147  0.32274147  0.17725853  1
  Ga  Ga3  1  0.67725853  0.67725853  0.67725853  1
  N  N0  1  0.87399878  0.12600122  0.62600122  1
  N  N1  1  0.62600122  0.87399878  0.12600122  1
  N  N2  1  0.12600122  0.62600122  0.87399878  1
  N  N3  1  0.37399878  0.37399878  0.37399878  1
loop_
_geom_bond_atom_site_label_1
_geom_bond_atom_site_label_2
_geom_bond_distance
_geom_bond_site_symmetry_2
V0 Zn1 2.695311 1_555
V0 Zn2 2.729942 1_555
V0 Zn3 2.804039 1_665
V1 Zn3 2.695311 1_656
V1 Zn0 2.729942 1_555
V1 Zn1 2.804039 1_545
V2 Zn0 2.695311 1_554
V2 Zn3 2.729942 1_555
V2 Zn2 2.804039 1_455
V3 Zn2 2.695311 1_455
V3 Zn1 2.729942 1_555
V3 Zn0 2.804039 1_555
V4 Zn2 2.695311 1_555
V4 Zn0 2.729942 1_555
V4 Zn3 2.804039 1_656
V5 Zn3 2.695311 1_566
V5 Zn1 2.729942 1_555
V5 Zn2 2.804039 1_455
V6 Zn1 2.695311 1_545
V6 Zn3 2.729942 1_555
V6 Zn0 2.804039 1_554
V7 Zn0 2.695311 1_554
V7 Zn2 2.729942 1_555
V7 Zn1 2.804039 1_555
V8 Zn0 2.695311 1_555
V8 Zn1 2.729942 1_555
V8 Zn3 2.804039 1_566
V9 Zn3 2.695311 1_665
V9 Zn2 2.729942 1_555
V9 Zn0 2.804039 1_554
V10 Zn2 2.695311 1_455
V10 Zn3 2.729942 1_555
V10 Zn1 2.804039 1_545
V11 Zn1 2.695311 1_545
V11 Zn0 2.729942 1_555
V11 Zn2 2.804039 1_555
Ga0 Zn2 2.416950 1_455
Ga0 Zn3 2.416950 1_565
Ga0 Zn1 2.416950 1_555
Ga0 V10 2.708907 1_565
Ga0 V0 2.708907 1_455
Ga0 V5 2.708907 1_555
Ga0 V2 2.711677 1_555
Ga0 V7 2.711677 1_555
Ga0 V8 2.711677 1_554
Ga0 V9 2.808144 1_455
Ga0 V3 2.808144 1_555
Ga0 V6 2.808144 1_565
Ga1 Zn1 2.416950 1_545
Ga1 Zn3 2.416950 1_556
Ga1 Zn0 2.416950 1_555
Ga1 V6 2.708907 1_556
Ga1 V8 2.708907 1_545
Ga1 V1 2.708907 1_555
Ga1 V10 2.711677 1_555
Ga1 V3 2.711677 1_555
Ga1 V4 2.711677 1_455
Ga1 V5 2.808144 1_545
Ga1 V2 2.808144 1_556
Ga1 V11 2.808144 1_555
Ga2 Zn0 2.416950 1_554
Ga2 Zn3 2.416950 1_655
Ga2 Zn2 2.416950 1_555
Ga2 V2 2.708907 1_655
Ga2 V4 2.708907 1_554
Ga2 V9 2.708907 1_555
Ga2 V6 2.711677 1_555
Ga2 V11 2.711677 1_555
Ga2 V0 2.711677 1_545
Ga2 V1 2.808144 1_554
Ga2 V7 2.808144 1_555
Ga2 V10 2.808144 1_655
Ga3 Zn1 2.416950 1_555
Ga3 Zn2 2.416950 1_555
Ga3 Zn0 2.416950 1_555
Ga3 V11 2.708907 1_555
Ga3 V7 2.708907 1_555
Ga3 V3 2.708907 1_555
Ga3 V5 2.711677 1_655
Ga3 V9 2.711677 1_556
Ga3 V1 2.711677 1_565
Ga3 V0 2.808144 1_555
Ga3 V4 2.808144 1_555
Ga3 V8 2.808144 1_555
N0 V11 2.035229 1_555
N0 V4 2.035229 1_555
N0 V1 2.035229 1_555
N0 V5 2.041039 1_645
N0 V0 2.041039 1_545
N0 V10 2.041039 1_655
N1 V7 2.035229 1_555
N1 V0 2.035229 1_555
N1 V9 2.035229 1_555
N1 V1 2.041039 1_564
N1 V8 2.041039 1_554
N1 V6 2.041039 1_565
N2 V3 2.035229 1_555
N2 V5 2.035229 1_555
N2 V8 2.035229 1_555
N2 V9 2.041039 1_456
N2 V4 2.041039 1_455
N2 V2 2.041039 1_556
N3 V10 2.035229 1_555
N3 V6 2.035229 1_555
N3 V2 2.035229 1_555
N3 V11 2.041039 1_555
N3 V7 2.041039 1_555
N3 V3 2.041039 1_555
