# generated using pymatgen
data_Ca2AlRuO6
_symmetry_space_group_name_H-M   'P 1'
_cell_length_a   5.36590179
_cell_length_b   5.30938113
_cell_length_c   9.21507568
_cell_angle_alpha   54.80036343
_cell_angle_beta   90.00000000
_cell_angle_gamma   90.00000000
_symmetry_Int_Tables_number   1
_chemical_formula_structural   Ca2AlRuO6
_chemical_formula_sum   'Ca4 Al2 Ru2 O12'
_cell_volume   214.52926502
_cell_formula_units_Z   2
loop_
 _symmetry_equiv_pos_site_id
 _symmetry_equiv_pos_as_xyz
  1  'x, y, z'
loop_
 _atom_site_type_symbol
 _atom_site_label
 _atom_site_symmetry_multiplicity
 _atom_site_fract_x
 _atom_site_fract_y
 _atom_site_fract_z
 _atom_site_occupancy
  Ca  Ca0  1  0.46023911  0.75740880  0.75062425  1
  Ca  Ca1  1  0.96023911  0.24259120  0.74937575  1
  Ca  Ca2  1  0.53976089  0.24259120  0.24937575  1
  Ca  Ca3  1  0.03976089  0.75740880  0.25062425  1
  Al  Al0  1  0.50000000  0.50000000  0.50000000  1
  Al  Al1  1  0.00000000  0.50000000  0.00000000  1
  Ru  Ru0  1  0.50000000  0.00000000  0.00000000  1
  Ru  Ru1  1  0.00000000  0.00000000  0.50000000  1
  O  O0  1  0.51412588  0.32506664  0.74647868  1
  O  O1  1  0.01412588  0.67493336  0.75352132  1
  O  O2  1  0.48587412  0.67493336  0.25352132  1
  O  O3  1  0.98587412  0.32506664  0.24647868  1
  O  O4  1  0.70860601  0.17688377  0.53738395  1
  O  O5  1  0.20860601  0.82311623  0.96261605  1
  O  O6  1  0.28494816  0.25506256  0.03731683  1
  O  O7  1  0.78494816  0.74493744  0.46268317  1
  O  O8  1  0.29139399  0.82311623  0.46261605  1
  O  O9  1  0.79139399  0.17688377  0.03738395  1
  O  O10  1  0.71505184  0.74493744  0.96268317  1
  O  O11  1  0.21505184  0.25506256  0.53731683  1
loop_
_geom_bond_atom_site_label_1
_geom_bond_atom_site_label_2
_geom_bond_distance
_geom_bond_site_symmetry_2
Ca0 O0 2.335667 1_555
Ca0 O10 2.354439 1_555
Ca0 O4 2.356330 1_565
Ca0 O1 2.430898 1_555
Ca0 O5 2.558668 1_555
Ca0 O11 2.566812 1_565
Ca0 O6 2.618132 1_556
Ca0 O8 2.630388 1_555
Ca1 O1 2.335667 1_655
Ca1 O11 2.354439 1_655
Ca1 O5 2.356330 1_645
Ca1 O0 2.430898 1_555
Ca1 O4 2.558668 1_555
Ca1 O10 2.566812 1_545
Ca1 O7 2.618132 1_555
Ca1 O9 2.630388 1_556
Ca2 O2 2.335667 1_555
Ca2 O6 2.354439 1_555
Ca2 O8 2.356330 1_545
Ca2 O3 2.430898 1_555
Ca2 O9 2.558668 1_555
Ca2 O7 2.566812 1_545
Ca2 O10 2.618132 1_554
Ca2 O4 2.630388 1_555
Ca3 O3 2.335667 1_455
Ca3 O7 2.354439 1_455
Ca3 O9 2.356330 1_465
Ca3 O2 2.430898 1_555
Ca3 O8 2.558668 1_555
Ca3 O6 2.566812 1_565
Ca3 O11 2.618132 1_555
Ca3 O5 2.630388 1_554
Al0 O0 1.896115 1_555
Al0 O2 1.896115 1_555
Al0 O7 1.905717 1_555
Al0 O11 1.905717 1_555
Al0 O8 1.906150 1_555
Al0 O4 1.906150 1_555
Al1 O3 1.896115 1_455
Al1 O1 1.896115 1_554
Al1 O10 1.905717 1_454
Al1 O6 1.905717 1_555
Al1 O5 1.906150 1_554
Al1 O9 1.906150 1_455
O0 Ru0 1.947818 1_556
O1 Ru1 1.947818 1_565
O2 Ru0 1.947818 1_565
O3 Ru1 1.947818 1_655
O4 Ru1 1.954091 1_655
O5 Ru0 1.954091 1_566
O6 Ru0 1.954645 1_555
O7 Ru1 1.954645 1_665
O8 Ru1 1.954091 1_565
O9 Ru0 1.954091 1_555
O10 Ru0 1.954645 1_566
O11 Ru1 1.954645 1_555
