# generated using pymatgen
data_K2RbH5Pt
_symmetry_space_group_name_H-M   'P 1'
_cell_length_a   7.44358990
_cell_length_b   7.44358990
_cell_length_c   5.80318684
_cell_angle_alpha   90.00000000
_cell_angle_beta   90.00000000
_cell_angle_gamma   90.00000000
_symmetry_Int_Tables_number   1
_chemical_formula_structural   K2RbH5Pt
_chemical_formula_sum   'K4 Rb2 H10 Pt2'
_cell_volume   321.53735102
_cell_formula_units_Z   2
loop_
 _symmetry_equiv_pos_site_id
 _symmetry_equiv_pos_as_xyz
  1  'x, y, z'
loop_
 _atom_site_type_symbol
 _atom_site_label
 _atom_site_symmetry_multiplicity
 _atom_site_fract_x
 _atom_site_fract_y
 _atom_site_fract_z
 _atom_site_occupancy
  K  K0  1  0.18292650  0.68292650  0.50000000  1
  K  K1  1  0.81707350  0.31707350  0.50000000  1
  K  K2  1  0.68292650  0.81707350  0.50000000  1
  K  K3  1  0.31707350  0.18292650  0.50000000  1
  Rb  Rb0  1  0.50000000  0.50000000  0.00000000  1
  Rb  Rb1  1  0.00000000  0.00000000  0.00000000  1
  H  H0  1  0.50000000  0.50000000  0.50000000  1
  H  H1  1  0.00000000  0.00000000  0.50000000  1
  H  H2  1  0.61146024  0.11146024  0.80030177  1
  H  H3  1  0.38853976  0.88853976  0.80030177  1
  H  H4  1  0.11146024  0.38853976  0.80030177  1
  H  H5  1  0.88853976  0.61146024  0.80030177  1
  H  H6  1  0.38853976  0.88853976  0.19969823  1
  H  H7  1  0.61146024  0.11146024  0.19969823  1
  H  H8  1  0.88853976  0.61146024  0.19969823  1
  H  H9  1  0.11146024  0.38853976  0.19969823  1
  Pt  Pt0  1  0.50000000  0.00000000  0.00000000  1
  Pt  Pt1  1  0.00000000  0.50000000  0.00000000  1
loop_
_geom_bond_atom_site_label_1
_geom_bond_atom_site_label_2
_geom_bond_distance
_geom_bond_site_symmetry_2
H0 K2 2.724778 1_555
H0 K1 2.724778 1_555
H0 K0 2.724778 1_555
H0 K3 2.724778 1_555
H0 Rb0 2.901593 1_555
H0 Rb0 2.901593 1_556
H1 K3 2.724778 1_555
H1 K1 2.724778 1_455
H1 K0 2.724778 1_545
H1 K2 2.724778 1_445
H1 Rb1 2.901593 1_555
H1 Rb1 2.901593 1_556
H2 Pt0 1.649152 1_556
H2 K1 2.778830 1_555
H2 K3 2.849875 1_555
H2 K2 2.849875 1_545
H3 Pt0 1.649152 1_566
H3 K0 2.778830 1_555
H3 K3 2.849875 1_565
H3 K2 2.849875 1_555
H4 Pt1 1.649152 1_556
H4 K3 2.778830 1_555
H4 K1 2.849875 1_455
H4 K0 2.849875 1_555
H5 Pt1 1.649152 1_656
H5 K2 2.778830 1_555
H5 K0 2.849875 1_655
H5 K1 2.849875 1_555
H6 Pt0 1.649152 1_565
H6 K0 2.778830 1_555
H6 K3 2.849875 1_565
H6 K2 2.849875 1_555
H7 Pt0 1.649152 1_555
H7 K1 2.778830 1_555
H7 K3 2.849875 1_555
H7 K2 2.849875 1_545
H8 Pt1 1.649152 1_655
H8 K2 2.778830 1_555
H8 K0 2.849875 1_655
H8 K1 2.849875 1_555
H9 Pt1 1.649152 1_555
H9 K3 2.778830 1_555
H9 K1 2.849875 1_455
H9 K0 2.849875 1_555
