# generated using pymatgen
data_K3PbAu5
_symmetry_space_group_name_H-M   'P 1'
_cell_length_a   5.74568491
_cell_length_b   8.45337221
_cell_length_c   11.10526935
_cell_angle_alpha   112.37432591
_cell_angle_beta   104.95480333
_cell_angle_gamma   89.95771498
_symmetry_Int_Tables_number   1
_chemical_formula_structural   K3PbAu5
_chemical_formula_sum   'K6 Pb2 Au10'
_cell_volume   479.00891576
_cell_formula_units_Z   2
loop_
 _symmetry_equiv_pos_site_id
 _symmetry_equiv_pos_as_xyz
  1  'x, y, z'
loop_
 _atom_site_type_symbol
 _atom_site_label
 _atom_site_symmetry_multiplicity
 _atom_site_fract_x
 _atom_site_fract_y
 _atom_site_fract_z
 _atom_site_occupancy
  K  K0  1  0.74999566  0.37530411  0.49955312  1
  K  K1  1  0.25000434  0.62469589  0.50044688  1
  K  K2  1  0.08517379  0.70495481  0.16946374  1
  K  K3  1  0.58498567  0.96350636  0.16910860  1
  K  K4  1  0.91482621  0.29504519  0.83053626  1
  K  K5  1  0.41501433  0.03649364  0.83089140  1
  Pb  Pb0  1  0.74976790  0.91660448  0.49972990  1
  Pb  Pb1  1  0.25023210  0.08339552  0.50027010  1
  Au  Au0  1  0.64379690  0.60436403  0.28714262  1
  Au  Au1  1  0.35620310  0.39563597  0.71285738  1
  Au  Au2  1  0.50000000  0.50000000  -0.00000000  1
  Au  Au3  1  0.14450683  0.18225106  0.28711909  1
  Au  Au4  1  0.18528510  0.68565465  0.86999184  1
  Au  Au5  1  0.85549317  0.81774894  0.71288091  1
  Au  Au6  1  0.81471490  0.31434535  0.13000816  1
  Au  Au7  1  0.68454585  0.68488579  0.86951633  1
  Au  Au8  1  0.00000000  -0.00000000  -0.00000000  1
  Au  Au9  1  0.31545415  0.31511421  0.13048367  1
loop_
_geom_bond_atom_site_label_1
_geom_bond_atom_site_label_2
_geom_bond_distance
_geom_bond_site_symmetry_2
K0 K1 3.560395 1_655
K0 K1 3.561937 1_555
K0 Pb1 3.787200 1_655
K0 Pb1 3.791017 1_555
K0 K3 3.868746 1_545
K0 K4 3.868934 1_555
K0 Pb0 3.878308 1_545
K1 Pb0 3.787200 1_455
K1 Pb0 3.791017 1_555
K1 K5 3.868746 1_565
K1 K2 3.868934 1_555
K1 Pb1 3.878308 1_565
K2 K3 3.609416 1_455
K2 K3 3.611882 1_555
K2 Pb1 3.726750 1_565
K2 K4 3.912319 1_454
K3 Pb0 3.721303 1_555
K3 K5 3.913071 1_564
K4 K5 3.609416 1_655
K4 K5 3.611882 1_555
K4 Pb0 3.726750 1_545
K5 Pb1 3.721303 1_555
Pb0 Pb1 3.197244 1_565
Pb0 Pb1 3.201122 1_665
Au0 Pb0 2.725364 1_555
Au0 Au9 2.763836 1_555
Au0 Au6 2.764762 1_555
Au0 Au2 2.851127 1_555
Au0 K2 3.377875 1_555
Au0 K2 3.379645 1_655
Au0 K0 3.524020 1_555
Au0 K1 3.633896 1_655
Au0 K1 3.635358 1_555
Au0 K3 3.721426 1_555
Au1 Pb1 2.725364 1_555
Au1 Au7 2.763836 1_555
Au1 Au4 2.764762 1_555
Au1 Au2 2.851127 1_556
Au1 K4 3.377875 1_555
Au1 K4 3.379645 1_455
Au1 K1 3.524020 1_555
Au1 K0 3.633896 1_455
Au1 K0 3.635358 1_555
Au1 K5 3.721426 1_555
Au2 Au7 2.861189 1_554
Au2 Au9 2.861189 1_555
Au2 Au6 2.861945 1_555
Au2 Au4 2.861945 1_554
Au2 K4 3.471453 1_554
Au2 K2 3.471453 1_555
Au2 K2 3.479739 1_655
Au2 K4 3.479739 1_454
Au2 K5 3.611796 1_554
Au2 K3 3.611796 1_555
Au3 Pb1 2.726457 1_555
Au3 Au9 2.760934 1_555
Au3 Au6 2.766846 1_455
Au3 Au8 2.850504 1_555
Au3 K3 3.376686 1_545
Au3 K3 3.385456 1_445
Au3 K1 3.533424 1_555
Au3 K0 3.629503 1_555
Au3 K0 3.631848 1_455
Au3 K2 3.723086 1_545
Au4 Au5 2.766846 1_455
Au4 Au8 2.854346 1_566
Au4 Au7 2.869960 1_555
Au4 Au7 2.875739 1_455
Au4 K3 3.457742 1_556
Au4 K2 3.462941 1_556
Au4 K5 3.465348 1_565
Au4 K4 3.473397 1_455
Au5 Pb0 2.726457 1_555
Au5 Au7 2.760934 1_555
Au5 Au8 2.850504 1_666
Au5 K5 3.376686 1_565
Au5 K5 3.385456 1_665
Au5 K0 3.533424 1_555
Au5 K1 3.629503 1_555
Au5 K1 3.631848 1_655
Au5 K4 3.723086 1_565
Au6 Au8 2.854346 1_655
Au6 Au9 2.869960 1_555
Au6 Au9 2.875739 1_655
Au6 K5 3.457742 1_554
Au6 K4 3.462941 1_554
Au6 K3 3.465348 1_545
Au6 K2 3.473397 1_655
Au7 Au8 2.862445 1_666
Au7 K3 3.458092 1_556
Au7 K4 3.464283 1_555
Au7 K2 3.469294 1_656
Au7 K5 3.469534 1_565
Au8 Au9 2.862445 1_555
Au8 K3 3.472963 1_445
Au8 K5 3.472963 1_554
Au8 K5 3.478655 1_454
Au8 K3 3.478655 1_545
Au8 K2 3.619140 1_545
Au8 K4 3.619140 1_454
Au9 K5 3.458092 1_554
Au9 K2 3.464283 1_555
Au9 K4 3.469294 1_454
Au9 K3 3.469534 1_545
