# generated using pymatgen
data_NaCo3Sb12Os
_symmetry_space_group_name_H-M   'P 1'
_cell_length_a   7.89361668
_cell_length_b   7.95527881
_cell_length_c   7.95527846
_cell_angle_alpha   109.62769168
_cell_angle_beta   109.31428604
_cell_angle_gamma   109.31428227
_symmetry_Int_Tables_number   1
_chemical_formula_structural   NaCo3Sb12Os
_chemical_formula_sum   'Na1 Co3 Sb12 Os1'
_cell_volume   385.30306140
_cell_formula_units_Z   1
loop_
 _symmetry_equiv_pos_site_id
 _symmetry_equiv_pos_as_xyz
  1  'x, y, z'
loop_
 _atom_site_type_symbol
 _atom_site_label
 _atom_site_symmetry_multiplicity
 _atom_site_fract_x
 _atom_site_fract_y
 _atom_site_fract_z
 _atom_site_occupancy
  Na  Na0  1  0.00000000  0.00000000  0.00000000  1
  Co  Co0  1  0.50000000  0.50000000  0.50000000  1
  Co  Co1  1  0.00000000  0.50000000  0.00000000  1
  Co  Co2  1  0.00000000  0.00000000  0.50000000  1
  Sb  Sb0  1  0.33608464  0.15985072  0.49544539  1
  Sb  Sb1  1  0.33235180  0.83673565  0.18000472  1
  Sb  Sb2  1  0.66764820  0.16326435  0.81999528  1
  Sb  Sb3  1  0.82376508  0.66440533  0.15985072  1
  Sb  Sb4  1  0.15936075  0.49544539  0.33559467  1
  Sb  Sb5  1  0.50438285  0.65673193  0.83673565  1
  Sb  Sb6  1  0.84765092  0.18000472  0.34326807  1
  Sb  Sb7  1  0.66391536  0.84014928  0.50455461  1
  Sb  Sb8  1  0.17623492  0.33559467  0.84014928  1
  Sb  Sb9  1  0.15234908  0.81999528  0.65673193  1
  Sb  Sb10  1  0.49561715  0.34326807  0.16326435  1
  Sb  Sb11  1  0.84063925  0.50455461  0.66440533  1
  Os  Os0  1  0.50000000  0.00000000  0.00000000  1
loop_
_geom_bond_atom_site_label_1
_geom_bond_atom_site_label_2
_geom_bond_distance
_geom_bond_site_symmetry_2
Na0 Sb2 3.411513 1_454
Na0 Sb1 3.411513 1_545
Na0 Sb10 3.411516 1_555
Na0 Sb5 3.411516 1_444
Na0 Sb6 3.411519 1_455
Na0 Sb9 3.411519 1_544
Na0 Sb0 3.416745 1_555
Na0 Sb7 3.416745 1_444
Na0 Sb4 3.416745 1_555
Na0 Sb11 3.416745 1_444
Na0 Sb8 3.416747 1_554
Na0 Sb3 3.416747 1_445
Co0 Sb5 2.529461 1_555
Co0 Sb10 2.529461 1_555
Co0 Sb11 2.553297 1_555
Co0 Sb4 2.553297 1_555
Co0 Sb7 2.566096 1_555
Co0 Sb0 2.566096 1_555
Co1 Sb2 2.529456 1_454
Co1 Sb1 2.529456 1_555
Co1 Sb3 2.553304 1_455
Co1 Sb8 2.553304 1_554
Co1 Sb4 2.566096 1_555
Co1 Sb11 2.566096 1_454
Co2 Sb9 2.529468 1_545
Co2 Sb6 2.529468 1_455
Co2 Sb7 2.553297 1_445
Co2 Sb0 2.553297 1_555
Co2 Sb8 2.566095 1_555
Co2 Sb3 2.566095 1_445
Sb0 Sb1 2.910824 1_545
Sb0 Sb2 2.992098 1_555
Sb1 Sb7 2.992098 1_555
Sb2 Sb7 2.910824 1_545
Sb3 Sb5 2.910828 1_554
Sb4 Sb6 2.910828 1_455
Sb4 Sb9 2.992094 1_555
Sb5 Sb8 2.992094 1_555
Sb10 Sb8 2.910828 1_554
Sb10 Sb3 2.992094 1_555
Sb11 Sb9 2.910828 1_655
Sb11 Sb6 2.992094 1_555
Os0 Sb6 2.618162 1_555
Os0 Sb9 2.618162 1_544
Os0 Sb10 2.618164 1_555
Os0 Sb5 2.618164 1_544
Os0 Sb1 2.618175 1_545
Os0 Sb2 2.618175 1_554
