# generated using pymatgen
data_LuMnFeSi2
_symmetry_space_group_name_H-M   'P 1'
_cell_length_a   5.83133292
_cell_length_b   5.83133279
_cell_length_c   5.83133292
_cell_angle_alpha   142.12606024
_cell_angle_beta   142.12605998
_cell_angle_gamma   54.63895800
_symmetry_Int_Tables_number   1
_chemical_formula_structural   LuMnFeSi2
_chemical_formula_sum   'Lu1 Mn1 Fe1 Si2'
_cell_volume   74.21741446
_cell_formula_units_Z   1
loop_
 _symmetry_equiv_pos_site_id
 _symmetry_equiv_pos_as_xyz
  1  'x, y, z'
loop_
 _atom_site_type_symbol
 _atom_site_label
 _atom_site_symmetry_multiplicity
 _atom_site_fract_x
 _atom_site_fract_y
 _atom_site_fract_z
 _atom_site_occupancy
  Lu  Lu0  1  0.00000000  0.00000000  0.00000000  1
  Mn  Mn0  1  0.75000000  0.25000000  0.50000000  1
  Fe  Fe0  1  0.25000000  0.75000000  0.50000000  1
  Si  Si0  1  0.38614979  0.38614979  1.00000000  1
  Si  Si1  1  0.61385021  0.61385021  0.00000000  1
loop_
_geom_bond_atom_site_label_1
_geom_bond_atom_site_label_2
_geom_bond_distance
_geom_bond_site_symmetry_2
Lu0 Si1 2.924767 1_556
Lu0 Si0 2.924767 1_443
Lu0 Si1 2.924767 1_455
Lu0 Si0 2.924767 1_544
Lu0 Si1 2.924767 1_444
Lu0 Si0 2.924767 1_555
Lu0 Si1 2.924767 1_545
Lu0 Si0 2.924767 1_454
Lu0 Mn0 3.208077 1_444
Lu0 Mn0 3.208077 1_555
Lu0 Mn0 3.208077 1_454
Lu0 Mn0 3.208077 1_455
Mn0 Si1 2.360410 1_545
Mn0 Si0 2.360410 1_655
Mn0 Si0 2.360410 1_554
Mn0 Si1 2.360410 1_556
Fe0 Si0 2.360410 1_565
Fe0 Si1 2.360410 1_455
Fe0 Si1 2.360410 1_556
Fe0 Si0 2.360410 1_554
Fe0 Mn0 2.676300 1_454
Fe0 Mn0 2.676300 1_566
Fe0 Mn0 2.676300 1_555
Fe0 Mn0 2.676300 1_465
Fe0 Lu0 3.208077 1_555
Fe0 Lu0 3.208077 1_666
Fe0 Lu0 3.208077 1_565
Fe0 Lu0 3.208077 1_566
Si0 Si1 2.359392 1_556
