# generated using pymatgen
data_Ti4Nb5MoN12
_symmetry_space_group_name_H-M   'P 1'
_cell_length_a   5.17647715
_cell_length_b   5.16447299
_cell_length_c   10.18901909
_cell_angle_alpha   90.00000000
_cell_angle_beta   90.00000000
_cell_angle_gamma   120.07694488
_symmetry_Int_Tables_number   1
_chemical_formula_structural   Ti4Nb5MoN12
_chemical_formula_sum   'Ti4 Nb5 Mo1 N12'
_cell_volume   235.71437418
_cell_formula_units_Z   1
loop_
 _symmetry_equiv_pos_site_id
 _symmetry_equiv_pos_as_xyz
  1  'x, y, z'
loop_
 _atom_site_type_symbol
 _atom_site_label
 _atom_site_symmetry_multiplicity
 _atom_site_fract_x
 _atom_site_fract_y
 _atom_site_fract_z
 _atom_site_occupancy
  Ti  Ti0  1  0.33339097  0.66620138  0.49897613  1
  Ti  Ti1  1  0.66719159  0.33379862  0.00102387  1
  Ti  Ti2  1  0.66719159  0.33379862  0.49897613  1
  Ti  Ti3  1  0.33339097  0.66620138  0.00102387  1
  Nb  Nb0  1  0.67980405  0.67953324  0.25000000  1
  Nb  Nb1  1  0.00027081  0.32046676  0.25000000  1
  Nb  Nb2  1  0.99821365  0.67691356  0.75000000  1
  Nb  Nb3  1  0.32130009  0.32308644  0.75000000  1
  Nb  Nb4  1  0.32043983  1.00000000  0.25000000  1
  Mo  Mo0  1  0.67667102  0.00000000  0.75000000  1
  N  N0  1  0.34867772  0.34824190  0.38147212  1
  N  N1  1  0.65092626  1.00000000  0.38198220  1
  N  N2  1  0.00043582  0.65175810  0.38147212  1
  N  N3  1  0.99627828  0.34480123  0.87903077  1
  N  N4  1  0.65092626  1.00000000  0.11801780  1
  N  N5  1  0.65147706  0.65519877  0.87903077  1
  N  N6  1  0.35327307  0.00000000  0.87862671  1
  N  N7  1  0.65147706  0.65519877  0.62096923  1
  N  N8  1  0.99627828  0.34480123  0.62096923  1
  N  N9  1  0.00043582  0.65175810  0.11852788  1
  N  N10  1  0.35327307  0.00000000  0.62137329  1
  N  N11  1  0.34867772  0.34824190  0.11852788  1
loop_
_geom_bond_atom_site_label_1
_geom_bond_atom_site_label_2
_geom_bond_distance
_geom_bond_site_symmetry_2
Mo0 N6 2.126054 1_555
Mo0 N10 2.126054 1_555
Mo0 N3 2.164166 1_555
Mo0 N8 2.164166 1_555
Mo0 N5 2.164166 1_545
Mo0 N7 2.164166 1_545
N0 Ti0 2.065523 1_555
N0 Ti2 2.068990 1_555
N0 Nb0 2.172630 1_555
N0 Nb4 2.187892 1_545
N0 Nb1 2.192809 1_555
N1 Ti2 2.062621 1_565
N1 Ti0 2.062625 1_555
N1 Nb4 2.176026 1_555
N1 Nb1 2.194969 1_665
N1 Nb0 2.194970 1_555
N2 Ti2 2.065518 1_455
N2 Ti0 2.068981 1_555
N2 Nb1 2.172630 1_555
N2 Nb4 2.187891 1_555
N2 Nb0 2.192809 1_455
N3 Ti1 2.086426 1_556
N3 Ti3 2.107629 1_656
N3 Nb2 2.157120 1_555
N3 Nb3 2.181931 1_655
N4 Ti1 2.062621 1_565
N4 Ti3 2.062625 1_555
N4 Nb4 2.176026 1_555
N4 Nb1 2.194969 1_665
N4 Nb0 2.194970 1_555
N5 Ti3 2.086435 1_556
N5 Ti1 2.107634 1_556
N5 Nb3 2.157119 1_555
N5 Nb2 2.181931 1_555
N6 Ti3 2.088024 1_546
N6 Ti1 2.088027 1_556
N6 Nb2 2.192246 1_445
N6 Nb3 2.192247 1_555
N7 Ti0 2.086435 1_555
N7 Ti2 2.107634 1_555
N7 Nb3 2.157119 1_555
N7 Nb2 2.181931 1_555
N8 Ti2 2.086426 1_555
N8 Ti0 2.107629 1_655
N8 Nb2 2.157120 1_555
N8 Nb3 2.181931 1_655
N9 Ti1 2.065518 1_455
N9 Ti3 2.068981 1_555
N9 Nb1 2.172630 1_555
N9 Nb4 2.187891 1_555
N9 Nb0 2.192809 1_455
N10 Ti0 2.088024 1_545
N10 Ti2 2.088027 1_555
N10 Nb2 2.192246 1_445
N10 Nb3 2.192247 1_555
N11 Ti3 2.065523 1_555
N11 Ti1 2.068990 1_555
N11 Nb0 2.172630 1_555
N11 Nb4 2.187892 1_545
N11 Nb1 2.192809 1_555
