# generated using pymatgen
data_SrY2(Si3Pd10)2
_symmetry_space_group_name_H-M   'P 1'
_cell_length_a   8.68431114
_cell_length_b   8.68431166
_cell_length_c   8.68431136
_cell_angle_alpha   60.00000116
_cell_angle_beta   59.99999919
_cell_angle_gamma   59.99999928
_symmetry_Int_Tables_number   1
_chemical_formula_structural   SrY2(Si3Pd10)2
_chemical_formula_sum   'Sr1 Y2 Si6 Pd20'
_cell_volume   463.11746854
_cell_formula_units_Z   1
loop_
 _symmetry_equiv_pos_site_id
 _symmetry_equiv_pos_as_xyz
  1  'x, y, z'
loop_
 _atom_site_type_symbol
 _atom_site_label
 _atom_site_symmetry_multiplicity
 _atom_site_fract_x
 _atom_site_fract_y
 _atom_site_fract_z
 _atom_site_occupancy
  Sr  Sr0  1  0.25000000  0.25000000  0.25000000  1
  Y  Y0  1  0.75000000  0.75000000  0.75000000  1
  Y  Y1  1  0.00000000  0.00000000  0.00000000  1
  Si  Si0  1  0.73301553  0.26698447  0.26698447  1
  Si  Si1  1  0.26698447  0.73301553  0.73301553  1
  Si  Si2  1  0.26698447  0.73301553  0.26698447  1
  Si  Si3  1  0.73301553  0.26698447  0.73301553  1
  Si  Si4  1  0.26698447  0.26698447  0.73301553  1
  Si  Si5  1  0.73301553  0.73301553  0.26698447  1
  Pd  Pd0  1  0.38805416  0.38805416  0.38805416  1
  Pd  Pd1  1  0.61699195  0.61699195  0.61699195  1
  Pd  Pd2  1  0.38805416  0.38805416  0.83583752  1
  Pd  Pd3  1  0.38805416  0.83583752  0.38805416  1
  Pd  Pd4  1  0.61699195  0.61699195  0.14902216  1
  Pd  Pd5  1  0.61699195  0.14902216  0.61699195  1
  Pd  Pd6  1  0.83583752  0.38805416  0.38805416  1
  Pd  Pd7  1  0.14902216  0.61699195  0.61699195  1
  Pd  Pd8  1  0.34847707  0.99678440  0.99678440  1
  Pd  Pd9  1  0.65795314  0.99678440  0.99678440  1
  Pd  Pd10  1  0.99678440  0.34847707  0.65795314  1
  Pd  Pd11  1  0.99678440  0.65795314  0.34847707  1
  Pd  Pd12  1  0.99678440  0.34847707  0.99678440  1
  Pd  Pd13  1  0.65795314  0.99678440  0.34847707  1
  Pd  Pd14  1  0.99678440  0.65795314  0.99678440  1
  Pd  Pd15  1  0.34847707  0.99678440  0.65795314  1
  Pd  Pd16  1  0.99678440  0.99678440  0.34847707  1
  Pd  Pd17  1  0.99678440  0.99678440  0.65795314  1
  Pd  Pd18  1  0.65795314  0.34847707  0.99678440  1
  Pd  Pd19  1  0.34847707  0.65795314  0.99678440  1
loop_
_geom_bond_atom_site_label_1
_geom_bond_atom_site_label_2
_geom_bond_distance
_geom_bond_site_symmetry_2
Pd0 Si0 2.447732 1_555
Pd0 Si4 2.447732 1_555
Pd0 Si2 2.447732 1_555
Pd0 Sr0 2.936706 1_555
Pd1 Si1 2.481821 1_555
Pd1 Si5 2.481821 1_555
Pd1 Si3 2.481821 1_555
Pd1 Y0 2.829365 1_555
Pd2 Si3 2.447732 1_555
Pd2 Si4 2.447732 1_555
Pd2 Si1 2.447732 1_555
Pd2 Sr0 2.936706 1_556
Pd3 Si5 2.447732 1_555
Pd3 Si1 2.447732 1_555
Pd3 Si2 2.447732 1_555
Pd3 Sr0 2.936706 1_565
Pd4 Si2 2.481821 1_555
Pd4 Si0 2.481821 1_555
Pd4 Si5 2.481835 1_555
Pd4 Y0 2.829351 1_554
Pd5 Si4 2.481821 1_555
Pd5 Si0 2.481821 1_555
Pd5 Si3 2.481835 1_555
Pd5 Y0 2.829351 1_545
Pd6 Si0 2.447732 1_555
Pd6 Si3 2.447732 1_555
Pd6 Si5 2.447732 1_555
Pd6 Sr0 2.936706 1_655
Pd7 Si2 2.481821 1_555
Pd7 Si4 2.481821 1_555
Pd7 Si1 2.481835 1_555
Pd7 Y0 2.829351 1_455
Pd8 Si4 2.416497 1_565
Pd8 Si2 2.416497 1_556
Pd8 Y1 2.998618 1_566
Pd8 Sr0 3.387775 1_566
Pd9 Si5 2.416500 1_556
Pd9 Si3 2.416500 1_565
Pd9 Y1 2.998627 1_666
Pd9 Sr0 3.387772 1_566
Pd10 Si3 2.416494 1_555
Pd10 Si4 2.416502 1_655
Pd10 Y1 2.998623 1_656
Pd10 Sr0 3.387768 1_655
Pd11 Si5 2.416494 1_555
Pd11 Si2 2.416502 1_655
Pd11 Y1 2.998623 1_665
Pd11 Sr0 3.387768 1_655
Pd12 Si4 2.416497 1_655
Pd12 Si0 2.416497 1_556
Pd12 Y1 2.998618 1_656
Pd12 Sr0 3.387775 1_656
Pd13 Si5 2.416494 1_555
Pd13 Si0 2.416503 1_565
Pd13 Y1 2.998622 1_665
Pd13 Sr0 3.387768 1_565
Pd14 Si5 2.416500 1_556
Pd14 Si1 2.416500 1_655
Pd14 Y1 2.998627 1_666
Pd14 Sr0 3.387772 1_656
Pd15 Si1 2.416494 1_555
Pd15 Si4 2.416503 1_565
Pd15 Y1 2.998622 1_566
Pd15 Sr0 3.387768 1_565
Pd16 Si2 2.416497 1_655
Pd16 Si0 2.416497 1_565
Pd16 Y1 2.998618 1_665
Pd16 Sr0 3.387775 1_665
Pd17 Si1 2.416500 1_655
Pd17 Si3 2.416500 1_565
Pd17 Y1 2.998627 1_666
Pd17 Sr0 3.387772 1_665
Pd18 Si3 2.416494 1_555
Pd18 Si0 2.416503 1_556
Pd18 Y1 2.998622 1_656
Pd18 Sr0 3.387768 1_556
Pd19 Si1 2.416494 1_555
Pd19 Si2 2.416503 1_556
Pd19 Y1 2.998622 1_566
Pd19 Sr0 3.387768 1_556
