# generated using pymatgen
data_Nd2Ni5B4
_symmetry_space_group_name_H-M   'P 1'
_cell_length_a   5.07558538
_cell_length_b   5.49561369
_cell_length_c   6.11221322
_cell_angle_alpha   70.79440544
_cell_angle_beta   65.46806109
_cell_angle_gamma   62.49764247
_symmetry_Int_Tables_number   1
_chemical_formula_structural   Nd2Ni5B4
_chemical_formula_sum   'Nd2 Ni5 B4'
_cell_volume   135.56898687
_cell_formula_units_Z   1
loop_
 _symmetry_equiv_pos_site_id
 _symmetry_equiv_pos_as_xyz
  1  'x, y, z'
loop_
 _atom_site_type_symbol
 _atom_site_label
 _atom_site_symmetry_multiplicity
 _atom_site_fract_x
 _atom_site_fract_y
 _atom_site_fract_z
 _atom_site_occupancy
  Nd  Nd0  1  0.72572073  0.19764132  0.35091623  1
  Nd  Nd1  1  0.27427927  0.80235868  0.64908377  1
  Ni  Ni0  1  0.32937952  0.71995217  0.12775949  1
  Ni  Ni1  1  0.67062048  0.28004783  0.87224051  1
  Ni  Ni2  1  0.00000000  0.50000000  0.50000000  1
  Ni  Ni3  1  0.82290981  0.71995217  0.12775949  1
  Ni  Ni4  1  0.17709019  0.28004783  0.87224051  1
  B  B0  1  0.59859624  0.94301042  0.85979709  1
  B  B1  1  0.40140376  0.05698958  0.14020291  1
  B  B2  1  0.22111924  0.39718321  0.16057830  1
  B  B3  1  0.77888076  0.60281679  0.83942170  1
loop_
_geom_bond_atom_site_label_1
_geom_bond_atom_site_label_2
_geom_bond_distance
_geom_bond_site_symmetry_2
Nd0 Ni0 2.918251 1_555
Nd0 Ni3 2.918255 1_555
Nd0 Ni4 2.921331 1_654
Nd0 Ni1 2.921331 1_554
Nd0 Ni3 3.097824 1_545
Nd0 Ni0 3.097828 1_645
Nd0 Ni2 3.116957 1_555
Nd0 Ni2 3.116961 1_655
Nd0 Ni4 3.244869 1_555
Nd0 Ni1 3.244869 1_555
Nd0 Ni2 3.360523 1_645
Nd1 Ni1 2.918251 1_555
Nd1 Ni4 2.918255 1_555
Nd1 Ni3 2.921331 1_456
Nd1 Ni0 2.921331 1_556
Nd1 Ni4 3.097824 1_565
Nd1 Ni1 3.097828 1_465
Nd1 Ni2 3.116957 1_655
Nd1 Ni2 3.116961 1_555
Nd1 Ni3 3.244869 1_555
Nd1 Ni0 3.244869 1_555
Nd1 Ni2 3.360523 1_565
B0 B3 1.681274 1_555
B0 B1 1.741951 1_566
B0 Ni1 2.076367 1_565
B0 Ni4 2.076370 1_565
B0 Ni0 2.102380 1_556
B0 Ni3 2.102383 1_556
B0 Nd0 2.890116 1_565
B0 Nd1 2.925144 1_555
B0 Nd1 2.925148 1_655
B1 B2 1.681274 1_555
B1 Ni0 2.076367 1_545
B1 Ni3 2.076370 1_545
B1 Ni1 2.102380 1_554
B1 Ni4 2.102383 1_554
B1 Nd1 2.890116 1_545
B1 Nd0 2.925144 1_555
B1 Nd0 2.925148 1_455
B2 Ni3 2.015721 1_455
B2 Ni0 2.015724 1_555
B2 Ni2 2.033463 1_555
B2 Ni1 2.185549 1_554
B2 Ni4 2.185552 1_554
B2 Nd0 2.855957 1_555
B2 Nd0 2.855961 1_455
B3 Ni4 2.015721 1_655
B3 Ni1 2.015724 1_555
B3 Ni2 2.033463 1_655
B3 Ni0 2.185549 1_556
B3 Ni3 2.185552 1_556
B3 Nd1 2.855957 1_555
B3 Nd1 2.855961 1_655
