# generated using pymatgen
data_Hf(PdPt3)2
_symmetry_space_group_name_H-M   'P 1'
_cell_length_a   6.21968831
_cell_length_b   6.21968869
_cell_length_c   6.32561447
_cell_angle_alpha   95.68180405
_cell_angle_beta   95.68180863
_cell_angle_gamma   142.99856091
_symmetry_Int_Tables_number   1
_chemical_formula_structural   Hf(PdPt3)2
_chemical_formula_sum   'Hf1 Pd2 Pt6'
_cell_volume   139.91946903
_cell_formula_units_Z   1
loop_
 _symmetry_equiv_pos_site_id
 _symmetry_equiv_pos_as_xyz
  1  'x, y, z'
loop_
 _atom_site_type_symbol
 _atom_site_label
 _atom_site_symmetry_multiplicity
 _atom_site_fract_x
 _atom_site_fract_y
 _atom_site_fract_z
 _atom_site_occupancy
  Hf  Hf0  1  0.00000000  0.00000000  0.00000000  1
  Pd  Pd0  1  0.66654660  0.33345140  0.00000000  1
  Pd  Pd1  1  0.33345140  0.66654660  1.00000000  1
  Pt  Pt0  1  0.66315943  0.66315943  0.32632086  1
  Pt  Pt1  1  0.33147770  0.00069740  0.33217510  1
  Pt  Pt2  1  0.00069740  0.33147770  0.33217510  1
  Pt  Pt3  1  0.66852230  0.99930260  0.66782490  1
  Pt  Pt4  1  0.99930260  0.66852230  0.66782490  1
  Pt  Pt5  1  0.33683957  0.33683957  0.67368014  1
loop_
_geom_bond_atom_site_label_1
_geom_bond_atom_site_label_2
_geom_bond_distance
_geom_bond_site_symmetry_2
Hf0 Pt5 2.782296 1_554
Hf0 Pt5 2.782298 1_444
Hf0 Pt0 2.782298 1_555
Hf0 Pt0 2.782304 1_445
Hf0 Pd0 2.784796 1_555
Hf0 Pd1 2.784796 1_554
Hf0 Pd1 2.784801 1_444
Hf0 Pd0 2.784802 1_445
Hf0 Pt1 2.791380 1_555
Hf0 Pt3 2.791380 1_444
Hf0 Pt2 2.791380 1_555
Hf0 Pt4 2.791380 1_444
Pd0 Pt5 2.775969 1_554
Pd0 Pt0 2.775974 1_555
Pd0 Pd1 2.787773 1_654
Pd0 Pd1 2.787773 1_544
Pd0 Pt4 2.807242 1_444
Pd0 Pt1 2.807242 1_555
Pd0 Pt1 2.807247 1_665
Pd0 Pt4 2.807248 1_554
Pd0 Pt2 2.813502 1_655
Pd0 Pt3 2.813502 1_544
Pd1 Pt5 2.775970 1_555
Pd1 Pt0 2.775974 1_556
Pd1 Pt3 2.807242 1_445
Pd1 Pt2 2.807242 1_556
Pd1 Pt2 2.807247 1_666
Pd1 Pt3 2.807248 1_555
Pd1 Pt4 2.813502 1_455
Pd1 Pt1 2.813502 1_566
Pt0 Pt2 2.775403 1_555
Pt0 Pt1 2.775403 1_555
Pt0 Pt1 2.775408 1_665
Pt0 Pt2 2.775409 1_665
Pt0 Pt4 2.831747 1_555
Pt0 Pt3 2.831748 1_555
Pt0 Pt5 2.872822 1_555
Pt0 Pt5 2.872824 1_665
Pt1 Pt2 2.807126 1_655
Pt1 Pt2 2.807126 1_545
Pt1 Pt4 2.822100 1_555
Pt1 Pt4 2.822100 1_445
Pt1 Pt5 2.831752 1_555
Pt1 Pt3 2.837945 1_545
Pt2 Pt3 2.822100 1_555
Pt2 Pt3 2.822100 1_445
Pt2 Pt5 2.831752 1_555
Pt2 Pt4 2.837945 1_455
Pt3 Pt5 2.775404 1_665
Pt3 Pt5 2.775407 1_555
Pt3 Pt4 2.807126 1_455
Pt3 Pt4 2.807126 1_565
Pt4 Pt5 2.775405 1_665
Pt4 Pt5 2.775407 1_555
