# generated using pymatgen
data_Ba4H11Pt2F
_symmetry_space_group_name_H-M   'P 1'
_cell_length_a   7.90747936
_cell_length_b   7.90747884
_cell_length_c   6.01570386
_cell_angle_alpha   90.14895152
_cell_angle_beta   89.85104896
_cell_angle_gamma   135.28292203
_symmetry_Int_Tables_number   1
_chemical_formula_structural   Ba4H11Pt2F
_chemical_formula_sum   'Ba4 H11 Pt2 F1'
_cell_volume   264.66146050
_cell_formula_units_Z   1
loop_
 _symmetry_equiv_pos_site_id
 _symmetry_equiv_pos_as_xyz
  1  'x, y, z'
loop_
 _atom_site_type_symbol
 _atom_site_label
 _atom_site_symmetry_multiplicity
 _atom_site_fract_x
 _atom_site_fract_y
 _atom_site_fract_z
 _atom_site_occupancy
  Ba  Ba0  1  0.35663269  0.64044600  0.00068315  1
  Ba  Ba1  1  0.85845937  0.14245940  0.49808771  1
  Ba  Ba2  1  0.64245940  0.35845937  0.00191229  1
  Ba  Ba3  1  0.14044600  0.85663269  0.49931685  1
  H  H0  1  0.50018254  0.00018254  0.75000000  1
  H  H1  1  0.00054410  0.50054410  0.75000000  1
  H  H2  1  0.49915243  0.99915243  0.25000000  1
  H  H3  1  0.11855195  0.89210857  0.99736840  1
  H  H4  1  0.60748167  0.38209528  0.50482295  1
  H  H5  1  0.88209528  0.10748167  0.99517705  1
  H  H6  1  0.39210857  0.61855195  0.50263160  1
  H  H7  1  0.80530134  0.80376454  0.19264602  1
  H  H8  1  0.19671900  0.19710091  0.80190788  1
  H  H9  1  0.69710091  0.69671900  0.69809212  1
  H  H10  1  0.30376454  0.30530134  0.30735398  1
  Pt  Pt0  1  0.00028456  0.99969890  0.99659494  1
  Pt  Pt1  1  0.49969890  0.50028456  0.50340506  1
  F  F0  1  0.99901774  0.49901774  0.25000000  1
loop_
_geom_bond_atom_site_label_1
_geom_bond_atom_site_label_2
_geom_bond_distance
_geom_bond_site_symmetry_2
Ba0 F0 2.643670 1_455
Ba0 H2 2.647404 1_555
Ba0 H1 2.648200 1_554
Ba0 H0 2.660626 1_564
Ba0 H8 3.000831 1_554
Ba0 H9 3.005969 1_554
Ba0 H10 3.008052 1_555
Ba0 H7 3.015042 1_555
Ba0 H5 3.016039 1_564
Ba0 H6 3.024470 1_554
Ba0 H6 3.050022 1_555
Ba0 H5 3.060719 1_454
Ba1 F0 2.640411 1_555
Ba1 H2 2.649810 1_545
Ba1 H1 2.653640 1_655
Ba1 H0 2.654296 1_555
Ba1 H10 2.986055 1_655
Ba1 H6 3.008438 1_545
Ba1 H8 3.010057 1_655
Ba1 H7 3.017328 1_545
Ba1 H9 3.020206 1_545
Ba1 H5 3.022292 1_555
Ba1 H5 3.054574 1_554
Ba1 H6 3.066477 1_655
Ba2 F0 2.640411 1_555
Ba2 H2 2.649810 1_545
Ba2 H1 2.653640 1_654
Ba2 H0 2.654296 1_554
Ba2 H7 2.986055 1_555
Ba2 H3 3.008438 1_544
Ba2 H9 3.010057 1_554
Ba2 H10 3.017329 1_555
Ba2 H8 3.020207 1_554
Ba2 H4 3.022292 1_554
Ba2 H4 3.054574 1_555
Ba2 H3 3.066477 1_654
Ba3 F0 2.643670 1_455
Ba3 H2 2.647404 1_555
Ba3 H1 2.648200 1_555
Ba3 H0 2.660626 1_565
Ba3 H9 3.000831 1_455
Ba3 H8 3.005969 1_565
Ba3 H7 3.008052 1_455
Ba3 H10 3.015042 1_565
Ba3 H4 3.016039 1_565
Ba3 H3 3.024470 1_555
Ba3 H3 3.050022 1_554
Ba3 H4 3.060719 1_455
H3 Pt0 1.652031 1_555
H4 Pt1 1.652878 1_555
H5 Pt0 1.652878 1_645
H6 Pt1 1.652031 1_555
H7 Pt0 1.665458 1_654
H8 Pt0 1.665891 1_545
H9 Pt1 1.665891 1_555
H10 Pt1 1.665458 1_555
