# generated using pymatgen
data_Ta3Ga3Ir2Rh
_symmetry_space_group_name_H-M   'P 1'
_cell_length_a   14.82892794
_cell_length_b   14.82893079
_cell_length_c   5.81294355
_cell_angle_alpha   90.00000000
_cell_angle_beta   90.00000000
_cell_angle_gamma   120.00000669
_symmetry_Int_Tables_number   1
_chemical_formula_structural   Ta3Ga3Ir2Rh
_chemical_formula_sum   'Ta24 Ga24 Ir16 Rh8'
_cell_volume   1106.99663517
_cell_formula_units_Z   8
loop_
 _symmetry_equiv_pos_site_id
 _symmetry_equiv_pos_as_xyz
  1  'x, y, z'
loop_
 _atom_site_type_symbol
 _atom_site_label
 _atom_site_symmetry_multiplicity
 _atom_site_fract_x
 _atom_site_fract_y
 _atom_site_fract_z
 _atom_site_occupancy
  Ta  Ta0_0  1  0.18404613  0.50000000  0.25000000  1
  Ta  Ta0_1  1  0.18404613  0.50000000  0.75000000  1
  Ta  Ta0_2  1  0.18404613  1.00000000  0.25000000  1
  Ta  Ta0_3  1  0.18404613  1.00000000  0.75000000  1
  Ta  Ta0_4  1  0.68404613  0.50000000  0.25000000  1
  Ta  Ta0_5  1  0.68404613  0.50000000  0.75000000  1
  Ta  Ta0_6  1  0.68404613  1.00000000  0.25000000  1
  Ta  Ta0_7  1  0.68404613  1.00000000  0.75000000  1
  Ta  Ta1_0  1  0.50000000  0.18404613  0.25000000  1
  Ta  Ta1_1  1  0.50000000  0.18404613  0.75000000  1
  Ta  Ta1_2  1  0.50000000  0.68404613  0.25000000  1
  Ta  Ta1_3  1  0.50000000  0.68404613  0.75000000  1
  Ta  Ta1_4  1  1.00000000  0.18404613  0.25000000  1
  Ta  Ta1_5  1  1.00000000  0.18404613  0.75000000  1
  Ta  Ta1_6  1  1.00000000  0.68404613  0.25000000  1
  Ta  Ta1_7  1  1.00000000  0.68404613  0.75000000  1
  Ta  Ta2_0  1  0.31595387  0.31595387  0.25000000  1
  Ta  Ta2_1  1  0.31595387  0.31595387  0.75000000  1
  Ta  Ta2_2  1  0.31595387  0.81595387  0.25000000  1
  Ta  Ta2_3  1  0.31595387  0.81595387  0.75000000  1
  Ta  Ta2_4  1  0.81595387  0.31595387  0.25000000  1
  Ta  Ta2_5  1  0.81595387  0.31595387  0.75000000  1
  Ta  Ta2_6  1  0.81595387  0.81595387  0.25000000  1
  Ta  Ta2_7  1  0.81595387  0.81595387  0.75000000  1
  Ga  Ga0_0  1  0.35410724  0.00000000  0.00000000  1
  Ga  Ga0_1  1  0.35410724  0.00000000  0.50000000  1
  Ga  Ga0_2  1  0.35410724  0.50000000  0.00000000  1
  Ga  Ga0_3  1  0.35410724  0.50000000  0.50000000  1
  Ga  Ga0_4  1  0.85410724  0.00000000  0.00000000  1
  Ga  Ga0_5  1  0.85410724  0.00000000  0.50000000  1
  Ga  Ga0_6  1  0.85410724  0.50000000  0.00000000  1
  Ga  Ga0_7  1  0.85410724  0.50000000  0.50000000  1
  Ga  Ga1_0  1  0.00000000  0.35410724  0.00000000  1
  Ga  Ga1_1  1  0.00000000  0.35410724  0.50000000  1
  Ga  Ga1_2  1  0.00000000  0.85410724  0.00000000  1
  Ga  Ga1_3  1  0.00000000  0.85410724  0.50000000  1
  Ga  Ga1_4  1  0.50000000  0.35410724  0.00000000  1
  Ga  Ga1_5  1  0.50000000  0.35410724  0.50000000  1
  Ga  Ga1_6  1  0.50000000  0.85410724  0.00000000  1
  Ga  Ga1_7  1  0.50000000  0.85410724  0.50000000  1
  Ga  Ga2_0  1  0.14589276  0.14589276  0.00000000  1
  Ga  Ga2_1  1  0.14589276  0.14589276  0.50000000  1
  Ga  Ga2_2  1  0.14589276  0.64589276  0.00000000  1
  Ga  Ga2_3  1  0.14589276  0.64589276  0.50000000  1
  Ga  Ga2_4  1  0.64589276  0.14589276  0.00000000  1
  Ga  Ga2_5  1  0.64589276  0.14589276  0.50000000  1
  Ga  Ga2_6  1  0.64589276  0.64589276  0.00000000  1
  Ga  Ga2_7  1  0.64589276  0.64589276  0.50000000  1
  Ir  Ir0_0  1  0.16666650  0.33333350  0.00000000  1
  Ir  Ir0_1  1  0.16666650  0.33333350  0.50000000  1
  Ir  Ir0_2  1  0.16666650  0.83333350  0.00000000  1
  Ir  Ir0_3  1  0.16666650  0.83333350  0.50000000  1
  Ir  Ir0_4  1  0.66666650  0.33333350  0.00000000  1
  Ir  Ir0_5  1  0.66666650  0.33333350  0.50000000  1
  Ir  Ir0_6  1  0.66666650  0.83333350  0.00000000  1
  Ir  Ir0_7  1  0.66666650  0.83333350  0.50000000  1
  Ir  Ir1_0  1  0.33333350  0.16666650  0.00000000  1
  Ir  Ir1_1  1  0.33333350  0.16666650  0.50000000  1
  Ir  Ir1_2  1  0.33333350  0.66666650  0.00000000  1
  Ir  Ir1_3  1  0.33333350  0.66666650  0.50000000  1
  Ir  Ir1_4  1  0.83333350  0.16666650  0.00000000  1
  Ir  Ir1_5  1  0.83333350  0.16666650  0.50000000  1
  Ir  Ir1_6  1  0.83333350  0.66666650  0.00000000  1
  Ir  Ir1_7  1  0.83333350  0.66666650  0.50000000  1
  Rh  Rh0_0  1  0.00000000  0.00000000  0.25000000  1
  Rh  Rh0_1  1  0.00000000  0.00000000  0.75000000  1
  Rh  Rh0_2  1  0.00000000  0.50000000  0.25000000  1
  Rh  Rh0_3  1  0.00000000  0.50000000  0.75000000  1
  Rh  Rh0_4  1  0.50000000  0.00000000  0.25000000  1
  Rh  Rh0_5  1  0.50000000  0.00000000  0.75000000  1
  Rh  Rh0_6  1  0.50000000  0.50000000  0.25000000  1
  Rh  Rh0_7  1  0.50000000  0.50000000  0.75000000  1
loop_
_geom_bond_atom_site_label_1
_geom_bond_atom_site_label_2
_geom_bond_distance
_geom_bond_site_symmetry_2
Ta0_0 Ta0_1 2.906472 1_555
Ta0_0 Ta0_1 2.906472 1_554
Ta0_2 Ta0_3 2.906472 1_555
Ta0_2 Ta0_3 2.906472 1_554
Ta0_4 Ta0_5 2.906472 1_555
Ta0_4 Ta0_5 2.906472 1_554
Ta0_6 Ta0_7 2.906472 1_555
Ta0_6 Ta0_7 2.906472 1_554
Ta1_0 Ta1_1 2.906472 1_555
Ta1_0 Ta1_1 2.906472 1_554
Ta1_2 Ta1_3 2.906472 1_555
Ta1_2 Ta1_3 2.906472 1_554
Ta1_4 Ta1_5 2.906472 1_555
Ta1_4 Ta1_5 2.906472 1_554
Ta1_6 Ta1_7 2.906472 1_555
Ta1_6 Ta1_7 2.906472 1_554
Ta2_0 Ta2_1 2.906472 1_555
Ta2_0 Ta2_1 2.906472 1_554
Ta2_2 Ta2_3 2.906472 1_555
Ta2_2 Ta2_3 2.906472 1_554
Ta2_4 Ta2_5 2.906472 1_555
Ta2_4 Ta2_5 2.906472 1_554
Ta2_6 Ta2_7 2.906472 1_555
Ta2_6 Ta2_7 2.906472 1_554
Ga0_0 Rh0_4 2.606211 1_555
Ga0_0 Rh0_5 2.606211 1_554
Ga0_0 Ir1_0 2.639031 1_555
Ga0_0 Ir0_2 2.639035 1_545
Ga0_0 Ta1_0 2.887291 1_555
Ga0_0 Ta1_1 2.887291 1_554
Ga0_0 Ta2_2 2.887292 1_545
Ga0_0 Ta2_3 2.887292 1_544
Ga0_0 Ga0_1 2.906472 1_554
Ga0_0 Ga0_1 2.906472 1_555
Ga0_0 Ta0_2 2.910583 1_545
Ga0_0 Ta0_3 2.910583 1_544
Ga0_1 Rh0_5 2.606211 1_555
Ga0_1 Rh0_4 2.606211 1_555
Ga0_1 Ir1_1 2.639031 1_555
Ga0_1 Ir0_3 2.639035 1_545
Ga0_1 Ta1_0 2.887291 1_555
Ga0_1 Ta1_1 2.887291 1_555
Ga0_1 Ta2_3 2.887292 1_545
Ga0_1 Ta2_2 2.887292 1_545
Ga0_1 Ta0_3 2.910583 1_545
Ga0_1 Ta0_2 2.910583 1_545
Ga0_2 Rh0_6 2.606211 1_555
Ga0_2 Rh0_7 2.606211 1_554
Ga0_2 Ir1_2 2.639031 1_555
Ga0_2 Ir0_0 2.639035 1_555
Ga0_2 Ta1_2 2.887291 1_555
Ga0_2 Ta1_3 2.887291 1_554
Ga0_2 Ta2_0 2.887292 1_555
Ga0_2 Ta2_1 2.887292 1_554
Ga0_2 Ga0_3 2.906472 1_555
Ga0_2 Ga0_3 2.906472 1_554
Ga0_2 Ta0_0 2.910583 1_555
Ga0_2 Ta0_1 2.910583 1_554
Ga0_3 Rh0_7 2.606211 1_555
Ga0_3 Rh0_6 2.606211 1_555
Ga0_3 Ir1_3 2.639031 1_555
Ga0_3 Ir0_1 2.639035 1_555
Ga0_3 Ta1_3 2.887291 1_555
Ga0_3 Ta1_2 2.887291 1_555
Ga0_3 Ta2_1 2.887292 1_555
Ga0_3 Ta2_0 2.887292 1_555
Ga0_3 Ta0_1 2.910583 1_555
Ga0_3 Ta0_0 2.910583 1_555
Ga0_4 Rh0_0 2.606211 1_655
Ga0_4 Rh0_1 2.606211 1_654
Ga0_4 Ir1_4 2.639031 1_555
Ga0_4 Ir0_6 2.639035 1_545
Ga0_4 Ta1_5 2.887291 1_554
Ga0_4 Ta1_4 2.887291 1_555
Ga0_4 Ta2_6 2.887292 1_545
Ga0_4 Ta2_7 2.887292 1_544
Ga0_4 Ga0_5 2.906472 1_554
Ga0_4 Ga0_5 2.906472 1_555
Ga0_4 Ta0_6 2.910583 1_545
Ga0_4 Ta0_7 2.910583 1_544
Ga0_5 Rh0_1 2.606211 1_655
Ga0_5 Rh0_0 2.606211 1_655
Ga0_5 Ir1_5 2.639031 1_555
Ga0_5 Ir0_7 2.639035 1_545
Ga0_5 Ta1_5 2.887291 1_555
Ga0_5 Ta1_4 2.887291 1_555
Ga0_5 Ta2_7 2.887292 1_545
Ga0_5 Ta2_6 2.887292 1_545
Ga0_5 Ta0_7 2.910583 1_545
Ga0_5 Ta0_6 2.910583 1_545
Ga0_6 Rh0_2 2.606211 1_655
Ga0_6 Rh0_3 2.606211 1_654
Ga0_6 Ir1_6 2.639031 1_555
Ga0_6 Ir0_4 2.639035 1_555
Ga0_6 Ta1_6 2.887291 1_555
Ga0_6 Ta1_7 2.887291 1_554
Ga0_6 Ta2_4 2.887292 1_555
Ga0_6 Ta2_5 2.887292 1_554
Ga0_6 Ga0_7 2.906472 1_555
Ga0_6 Ga0_7 2.906472 1_554
Ga0_6 Ta0_4 2.910583 1_555
Ga0_6 Ta0_5 2.910583 1_554
Ga0_7 Rh0_3 2.606211 1_655
Ga0_7 Rh0_2 2.606211 1_655
Ga0_7 Ir1_7 2.639031 1_555
Ga0_7 Ir0_5 2.639035 1_555
Ga0_7 Ta1_6 2.887291 1_555
Ga0_7 Ta1_7 2.887291 1_555
Ga0_7 Ta2_5 2.887292 1_555
Ga0_7 Ta2_4 2.887292 1_555
Ga0_7 Ta0_5 2.910583 1_555
Ga0_7 Ta0_4 2.910583 1_555
Ga1_0 Rh0_2 2.606212 1_555
Ga1_0 Rh0_3 2.606212 1_554
Ga1_0 Ir0_0 2.639031 1_555
Ga1_0 Ir1_4 2.639035 1_455
Ga1_0 Ta0_0 2.887291 1_555
Ga1_0 Ta0_1 2.887291 1_554
Ga1_0 Ta2_5 2.887291 1_454
Ga1_0 Ta2_4 2.887291 1_455
Ga1_0 Ga1_1 2.906472 1_554
Ga1_0 Ga1_1 2.906472 1_555
Ga1_0 Ta1_4 2.910583 1_455
Ga1_0 Ta1_5 2.910583 1_454
Ga1_1 Rh0_3 2.606212 1_555
Ga1_1 Rh0_2 2.606212 1_555
Ga1_1 Ir0_1 2.639031 1_555
Ga1_1 Ir1_5 2.639035 1_455
Ga1_1 Ta0_1 2.887291 1_555
Ga1_1 Ta0_0 2.887291 1_555
Ga1_1 Ta2_5 2.887291 1_455
Ga1_1 Ta2_4 2.887291 1_455
Ga1_1 Ta1_5 2.910583 1_455
Ga1_1 Ta1_4 2.910583 1_455
Ga1_2 Rh0_0 2.606212 1_565
Ga1_2 Rh0_1 2.606212 1_564
Ga1_2 Ir0_2 2.639031 1_555
Ga1_2 Ir1_6 2.639035 1_455
Ga1_2 Ta0_2 2.887291 1_555
Ga1_2 Ta0_3 2.887291 1_554
Ga1_2 Ta2_6 2.887291 1_455
Ga1_2 Ta2_7 2.887291 1_454
Ga1_2 Ga1_3 2.906472 1_555
Ga1_2 Ga1_3 2.906472 1_554
Ga1_2 Ta1_6 2.910583 1_455
Ga1_2 Ta1_7 2.910583 1_454
Ga1_3 Rh0_1 2.606212 1_565
Ga1_3 Rh0_0 2.606212 1_565
Ga1_3 Ir0_3 2.639031 1_555
Ga1_3 Ir1_7 2.639035 1_455
Ga1_3 Ta0_3 2.887291 1_555
Ga1_3 Ta0_2 2.887291 1_555
Ga1_3 Ta2_7 2.887291 1_455
Ga1_3 Ta2_6 2.887291 1_455
Ga1_3 Ta1_7 2.910583 1_455
Ga1_3 Ta1_6 2.910583 1_455
Ga1_4 Rh0_6 2.606212 1_555
Ga1_4 Rh0_7 2.606212 1_554
Ga1_4 Ir0_4 2.639031 1_555
Ga1_4 Ir1_0 2.639035 1_555
Ga1_4 Ta0_4 2.887291 1_555
Ga1_4 Ta0_5 2.887291 1_554
Ga1_4 Ta2_1 2.887291 1_554
Ga1_4 Ta2_0 2.887291 1_555
Ga1_4 Ga1_5 2.906472 1_555
Ga1_4 Ga1_5 2.906472 1_554
Ga1_4 Ta1_0 2.910583 1_555
Ga1_4 Ta1_1 2.910583 1_554
Ga1_5 Rh0_7 2.606212 1_555
Ga1_5 Rh0_6 2.606212 1_555
Ga1_5 Ir0_5 2.639031 1_555
Ga1_5 Ir1_1 2.639035 1_555
Ga1_5 Ta0_5 2.887291 1_555
Ga1_5 Ta0_4 2.887291 1_555
Ga1_5 Ta2_1 2.887291 1_555
Ga1_5 Ta2_0 2.887291 1_555
Ga1_5 Ta1_1 2.910583 1_555
Ga1_5 Ta1_0 2.910583 1_555
Ga1_6 Rh0_5 2.606212 1_564
Ga1_6 Rh0_4 2.606212 1_565
Ga1_6 Ir0_6 2.639031 1_555
Ga1_6 Ir1_2 2.639035 1_555
Ga1_6 Ta0_6 2.887291 1_555
Ga1_6 Ta0_7 2.887291 1_554
Ga1_6 Ta2_2 2.887291 1_555
Ga1_6 Ta2_3 2.887291 1_554
Ga1_6 Ga1_7 2.906472 1_555
Ga1_6 Ga1_7 2.906472 1_554
Ga1_6 Ta1_2 2.910583 1_555
Ga1_6 Ta1_3 2.910583 1_554
Ga1_7 Rh0_5 2.606212 1_565
Ga1_7 Rh0_4 2.606212 1_565
Ga1_7 Ir0_7 2.639031 1_555
Ga1_7 Ir1_3 2.639035 1_555
Ga1_7 Ta0_7 2.887291 1_555
Ga1_7 Ta0_6 2.887291 1_555
Ga1_7 Ta2_3 2.887291 1_555
Ga1_7 Ta2_2 2.887291 1_555
Ga1_7 Ta1_3 2.910583 1_555
Ga1_7 Ta1_2 2.910583 1_555
Ga2_0 Rh0_0 2.606211 1_555
Ga2_0 Rh0_1 2.606211 1_554
Ga2_0 Ir1_0 2.639038 1_555
Ga2_0 Ir0_0 2.639039 1_555
Ga2_0 Ta1_4 2.887291 1_455
Ga2_0 Ta1_5 2.887291 1_454
Ga2_0 Ta0_3 2.887292 1_544
Ga2_0 Ta0_2 2.887292 1_545
Ga2_0 Ga2_1 2.906472 1_554
Ga2_0 Ga2_1 2.906472 1_555
Ga2_0 Ta2_0 2.910583 1_555
Ga2_0 Ta2_1 2.910583 1_554
Ga2_1 Rh0_0 2.606211 1_555
Ga2_1 Rh0_1 2.606211 1_555
Ga2_1 Ir1_1 2.639038 1_555
Ga2_1 Ir0_1 2.639039 1_555
Ga2_1 Ta1_5 2.887291 1_455
Ga2_1 Ta1_4 2.887291 1_455
Ga2_1 Ta0_3 2.887292 1_545
Ga2_1 Ta0_2 2.887292 1_545
Ga2_1 Ta2_1 2.910583 1_555
Ga2_1 Ta2_0 2.910583 1_555
Ga2_2 Rh0_2 2.606211 1_555
Ga2_2 Rh0_3 2.606211 1_554
Ga2_2 Ir1_2 2.639038 1_555
Ga2_2 Ir0_2 2.639039 1_555
Ga2_2 Ta1_6 2.887291 1_455
Ga2_2 Ta1_7 2.887291 1_454
Ga2_2 Ta0_0 2.887292 1_555
Ga2_2 Ta0_1 2.887292 1_554
Ga2_2 Ga2_3 2.906472 1_554
Ga2_2 Ga2_3 2.906472 1_555
Ga2_2 Ta2_2 2.910583 1_555
Ga2_2 Ta2_3 2.910583 1_554
Ga2_3 Rh0_3 2.606211 1_555
Ga2_3 Rh0_2 2.606211 1_555
Ga2_3 Ir1_3 2.639038 1_555
Ga2_3 Ir0_3 2.639039 1_555
Ga2_3 Ta1_7 2.887291 1_455
Ga2_3 Ta1_6 2.887291 1_455
Ga2_3 Ta0_1 2.887292 1_555
Ga2_3 Ta0_0 2.887292 1_555
Ga2_3 Ta2_2 2.910583 1_555
Ga2_3 Ta2_3 2.910583 1_555
Ga2_4 Rh0_4 2.606211 1_555
Ga2_4 Rh0_5 2.606211 1_554
Ga2_4 Ir1_4 2.639038 1_555
Ga2_4 Ir0_4 2.639039 1_555
Ga2_4 Ta1_0 2.887291 1_555
Ga2_4 Ta1_1 2.887291 1_554
Ga2_4 Ta0_6 2.887292 1_545
Ga2_4 Ta0_7 2.887292 1_544
Ga2_4 Ga2_5 2.906472 1_554
Ga2_4 Ga2_5 2.906472 1_555
Ga2_4 Ta2_4 2.910583 1_555
Ga2_4 Ta2_5 2.910583 1_554
Ga2_5 Rh0_5 2.606211 1_555
Ga2_5 Rh0_4 2.606211 1_555
Ga2_5 Ir1_5 2.639038 1_555
Ga2_5 Ir0_5 2.639039 1_555
Ga2_5 Ta1_1 2.887291 1_555
Ga2_5 Ta1_0 2.887291 1_555
Ga2_5 Ta0_7 2.887292 1_545
Ga2_5 Ta0_6 2.887292 1_545
Ga2_5 Ta2_5 2.910583 1_555
Ga2_5 Ta2_4 2.910583 1_555
Ga2_6 Rh0_6 2.606211 1_555
Ga2_6 Rh0_7 2.606211 1_554
Ga2_6 Ir1_6 2.639038 1_555
Ga2_6 Ir0_6 2.639039 1_555
Ga2_6 Ta1_2 2.887291 1_555
Ga2_6 Ta1_3 2.887291 1_554
Ga2_6 Ta0_4 2.887292 1_555
Ga2_6 Ta0_5 2.887292 1_554
Ga2_6 Ga2_7 2.906472 1_555
Ga2_6 Ga2_7 2.906472 1_554
Ga2_6 Ta2_6 2.910583 1_555
Ga2_6 Ta2_7 2.910583 1_554
Ga2_7 Rh0_7 2.606211 1_555
Ga2_7 Rh0_6 2.606211 1_555
Ga2_7 Ir1_7 2.639038 1_555
Ga2_7 Ir0_7 2.639039 1_555
Ga2_7 Ta1_3 2.887291 1_555
Ga2_7 Ta1_2 2.887291 1_555
Ga2_7 Ta0_5 2.887292 1_555
Ga2_7 Ta0_4 2.887292 1_555
Ga2_7 Ta2_7 2.910583 1_555
Ga2_7 Ta2_6 2.910583 1_555
Ir0_0 Ta0_0 2.765792 1_555
Ir0_0 Ta0_1 2.765792 1_554
Ir0_0 Ta1_4 2.765794 1_455
Ir0_0 Ta1_5 2.765794 1_454
Ir0_0 Ta2_0 2.765798 1_555
Ir0_0 Ta2_1 2.765798 1_554
Ir0_1 Ta0_0 2.765792 1_555
Ir0_1 Ta0_1 2.765792 1_555
Ir0_1 Ta1_5 2.765794 1_455
Ir0_1 Ta1_4 2.765794 1_455
Ir0_1 Ta2_1 2.765798 1_555
Ir0_1 Ta2_0 2.765798 1_555
Ir0_2 Ta0_2 2.765792 1_555
Ir0_2 Ta0_3 2.765792 1_554
Ir0_2 Ta1_7 2.765794 1_454
Ir0_2 Ta1_6 2.765794 1_455
Ir0_2 Ta2_2 2.765798 1_555
Ir0_2 Ta2_3 2.765798 1_554
Ir0_3 Ta0_3 2.765792 1_555
Ir0_3 Ta0_2 2.765792 1_555
Ir0_3 Ta1_7 2.765794 1_455
Ir0_3 Ta1_6 2.765794 1_455
Ir0_3 Ta2_3 2.765798 1_555
Ir0_3 Ta2_2 2.765798 1_555
Ir0_4 Ta0_4 2.765792 1_555
Ir0_4 Ta0_5 2.765792 1_554
Ir0_4 Ta1_1 2.765794 1_554
Ir0_4 Ta1_0 2.765794 1_555
Ir0_4 Ta2_4 2.765798 1_555
Ir0_4 Ta2_5 2.765798 1_554
Ir0_5 Ta0_5 2.765792 1_555
Ir0_5 Ta0_4 2.765792 1_555
Ir0_5 Ta1_1 2.765794 1_555
Ir0_5 Ta1_0 2.765794 1_555
Ir0_5 Ta2_5 2.765798 1_555
Ir0_5 Ta2_4 2.765798 1_555
Ir0_6 Ta0_6 2.765792 1_555
Ir0_6 Ta0_7 2.765792 1_554
Ir0_6 Ta1_2 2.765794 1_555
Ir0_6 Ta1_3 2.765794 1_554
Ir0_6 Ta2_6 2.765798 1_555
Ir0_6 Ta2_7 2.765798 1_554
Ir0_7 Ta0_7 2.765792 1_555
Ir0_7 Ta0_6 2.765792 1_555
Ir0_7 Ta1_3 2.765794 1_555
Ir0_7 Ta1_2 2.765794 1_555
Ir0_7 Ta2_7 2.765798 1_555
Ir0_7 Ta2_6 2.765798 1_555
Ir1_0 Ta1_0 2.765791 1_555
Ir1_0 Ta1_1 2.765791 1_554
Ir1_0 Ta0_2 2.765794 1_545
Ir1_0 Ta0_3 2.765794 1_544
Ir1_0 Ta2_0 2.765798 1_555
Ir1_0 Ta2_1 2.765798 1_554
Ir1_1 Ta1_1 2.765791 1_555
Ir1_1 Ta1_0 2.765791 1_555
Ir1_1 Ta0_2 2.765794 1_545
Ir1_1 Ta0_3 2.765794 1_545
Ir1_1 Ta2_1 2.765798 1_555
Ir1_1 Ta2_0 2.765798 1_555
Ir1_2 Ta1_3 2.765791 1_554
Ir1_2 Ta1_2 2.765791 1_555
Ir1_2 Ta0_0 2.765794 1_555
Ir1_2 Ta0_1 2.765794 1_554
Ir1_2 Ta2_2 2.765798 1_555
Ir1_2 Ta2_3 2.765798 1_554
Ir1_3 Ta1_3 2.765791 1_555
Ir1_3 Ta1_2 2.765791 1_555
Ir1_3 Ta0_1 2.765794 1_555
Ir1_3 Ta0_0 2.765794 1_555
Ir1_3 Ta2_3 2.765798 1_555
Ir1_3 Ta2_2 2.765798 1_555
Ir1_4 Ta1_5 2.765791 1_554
Ir1_4 Ta1_4 2.765791 1_555
Ir1_4 Ta0_6 2.765794 1_545
Ir1_4 Ta0_7 2.765794 1_544
Ir1_4 Ta2_4 2.765798 1_555
Ir1_4 Ta2_5 2.765798 1_554
Ir1_5 Ta1_5 2.765791 1_555
Ir1_5 Ta1_4 2.765791 1_555
Ir1_5 Ta0_7 2.765794 1_545
Ir1_5 Ta0_6 2.765794 1_545
Ir1_5 Ta2_5 2.765798 1_555
Ir1_5 Ta2_4 2.765798 1_555
Ir1_6 Ta1_6 2.765791 1_555
Ir1_6 Ta1_7 2.765791 1_554
Ir1_6 Ta0_4 2.765794 1_555
Ir1_6 Ta0_5 2.765794 1_554
Ir1_6 Ta2_6 2.765798 1_555
Ir1_6 Ta2_7 2.765798 1_554
Ir1_7 Ta1_7 2.765791 1_555
Ir1_7 Ta1_6 2.765791 1_555
Ir1_7 Ta0_5 2.765794 1_555
Ir1_7 Ta0_4 2.765794 1_555
Ir1_7 Ta2_7 2.765798 1_555
Ir1_7 Ta2_6 2.765798 1_555
Rh0_0 Ta2_6 2.729207 1_445
Rh0_0 Ta0_2 2.729207 1_545
Rh0_0 Ta1_4 2.729207 1_455
Rh0_1 Ta2_7 2.729207 1_445
Rh0_1 Ta0_3 2.729207 1_545
Rh0_1 Ta1_5 2.729207 1_455
Rh0_2 Ta2_4 2.729207 1_455
Rh0_2 Ta0_0 2.729207 1_555
Rh0_2 Ta1_6 2.729207 1_455
Rh0_3 Ta2_5 2.729207 1_455
Rh0_3 Ta0_1 2.729207 1_555
Rh0_3 Ta1_7 2.729207 1_455
Rh0_4 Ta2_2 2.729207 1_545
Rh0_4 Ta0_6 2.729207 1_545
Rh0_4 Ta1_0 2.729207 1_555
Rh0_5 Ta2_3 2.729207 1_545
Rh0_5 Ta0_7 2.729207 1_545
Rh0_5 Ta1_1 2.729207 1_555
Rh0_6 Ta2_0 2.729207 1_555
Rh0_6 Ta0_4 2.729207 1_555
Rh0_6 Ta1_2 2.729207 1_555
Rh0_7 Ta2_1 2.729207 1_555
Rh0_7 Ta0_5 2.729207 1_555
Rh0_7 Ta1_3 2.729207 1_555
