# generated using pymatgen
data_LiNiPtO4
_symmetry_space_group_name_H-M   'P 1'
_cell_length_a   5.63649664
_cell_length_b   8.56045147
_cell_length_c   6.10544012
_cell_angle_alpha   89.99991469
_cell_angle_beta   89.99933289
_cell_angle_gamma   89.99995932
_symmetry_Int_Tables_number   1
_chemical_formula_structural   LiNiPtO4
_chemical_formula_sum   'Li4 Ni4 Pt4 O16'
_cell_volume   294.59332225
_cell_formula_units_Z   4
loop_
 _symmetry_equiv_pos_site_id
 _symmetry_equiv_pos_as_xyz
  1  'x, y, z'
loop_
 _atom_site_type_symbol
 _atom_site_label
 _atom_site_symmetry_multiplicity
 _atom_site_fract_x
 _atom_site_fract_y
 _atom_site_fract_z
 _atom_site_occupancy
  Li  Li0  1  0.25000117  0.11114172  0.00000136  1
  Li  Li1  1  0.75000015  0.61121701  0.49999740  1
  Li  Li2  1  0.74999899  0.88879264  0.00000239  1
  Li  Li3  1  0.25000022  0.38884892  0.49999783  1
  Ni  Ni0  1  0.00000019  0.00000352  0.49998034  1
  Ni  Ni1  1  0.49999802  0.99999630  0.49998020  1
  Ni  Ni2  1  0.49999656  0.50000306  0.00002106  1
  Ni  Ni3  1  0.00000172  0.49999532  0.00002180  1
  Pt  Pt0  1  0.74999764  0.24999962  0.25002680  1
  Pt  Pt1  1  0.25000160  0.74999962  0.74998415  1
  Pt  Pt2  1  0.74999683  0.25000047  0.74997205  1
  Pt  Pt3  1  0.25000216  0.74999922  0.25001569  1
  O  O0  1  0.51540262  0.25499105  0.00000902  1
  O  O1  1  0.01543793  0.75499921  0.49999562  1
  O  O2  1  0.98459514  0.25499701  0.00000314  1
  O  O3  1  0.48456845  0.75501038  0.49999130  1
  O  O4  1  0.01542008  0.74499537  0.00000911  1
  O  O5  1  0.51542704  0.24501668  0.49999478  1
  O  O6  1  0.48458466  0.74498455  0.00000326  1
  O  O7  1  0.98457169  0.24500886  0.49999072  1
  O  O8  1  0.74999418  0.48333169  0.20995917  1
  O  O9  1  0.25000379  0.98331627  0.70997251  1
  O  O10  1  0.74999715  0.48333434  0.79005488  1
  O  O11  1  0.25000924  0.98331425  0.29001389  1
  O  O12  1  0.25000499  0.51666880  0.79004528  1
  O  O13  1  0.74999503  0.01668349  0.29001751  1
  O  O14  1  0.25000145  0.51666958  0.20996844  1
  O  O15  1  0.74998929  0.01668305  0.70997031  1
loop_
_geom_bond_atom_site_label_1
_geom_bond_atom_site_label_2
_geom_bond_distance
_geom_bond_site_symmetry_2
Li0 O0 1.937577 1_555
Li0 O2 1.937628 1_455
Li0 O11 2.081494 1_545
Li0 O9 2.081572 1_544
Li1 O1 1.937370 1_655
Li1 O3 1.937403 1_555
Li1 O8 2.081891 1_555
Li1 O10 2.081976 1_555
Li2 O4 1.937378 1_655
Li2 O6 1.937409 1_555
Li2 O13 2.081795 1_565
Li2 O15 2.081879 1_564
Li3 O5 1.937593 1_555
Li3 O7 1.937645 1_455
Li3 O14 2.081551 1_555
Li3 O12 2.081644 1_555
Ni0 O13 1.910353 1_455
Ni0 O11 1.910369 1_545
Ni0 O15 1.910466 1_455
Ni0 O9 1.910472 1_545
Ni0 O1 2.099152 1_545
Ni0 O7 2.099158 1_455
Ni1 O11 1.910301 1_555
Ni1 O13 1.910302 1_565
Ni1 O9 1.910407 1_555
Ni1 O15 1.910412 1_565
Ni1 O3 2.098993 1_555
Ni1 O5 2.099287 1_565
Ni2 O8 1.910215 1_555
Ni2 O14 1.910218 1_555
Ni2 O10 1.910319 1_554
Ni2 O12 1.910341 1_554
Ni2 O6 2.098951 1_555
Ni2 O0 2.099210 1_555
Ni3 O8 1.910227 1_455
Ni3 O14 1.910261 1_555
Ni3 O10 1.910356 1_454
Ni3 O12 1.910376 1_554
Ni3 O2 2.099093 1_455
Ni3 O4 2.099111 1_555
O0 Pt0 2.020010 1_555
O0 Pt2 2.020072 1_554
O1 Pt3 2.019700 1_555
O1 Pt1 2.019761 1_555
O2 Pt0 2.020024 1_555
O2 Pt2 2.020085 1_554
O3 Pt3 2.019713 1_555
O3 Pt1 2.019771 1_555
O4 Pt3 2.019913 1_555
O4 Pt1 2.019972 1_554
O5 Pt0 2.019665 1_555
O5 Pt2 2.019729 1_555
O6 Pt3 2.019920 1_555
O6 Pt1 2.019976 1_554
O7 Pt0 2.019684 1_555
O7 Pt2 2.019744 1_555
O8 Pt0 2.012352 1_555
O9 Pt1 2.012179 1_555
O10 Pt2 2.012379 1_555
O11 Pt3 2.012156 1_555
O12 Pt1 2.012337 1_555
O13 Pt0 2.012160 1_555
O14 Pt3 2.012317 1_555
O15 Pt2 2.012179 1_555
