# generated using pymatgen
data_Cs6MgSe4
_symmetry_space_group_name_H-M   'P 1'
_cell_length_a   11.11215540
_cell_length_b   11.11215444
_cell_length_c   8.75507817
_cell_angle_alpha   90.00000000
_cell_angle_beta   90.00000000
_cell_angle_gamma   119.99999998
_symmetry_Int_Tables_number   1
_chemical_formula_structural   Cs6MgSe4
_chemical_formula_sum   'Cs12 Mg2 Se8'
_cell_volume   936.24009161
_cell_formula_units_Z   2
loop_
 _symmetry_equiv_pos_site_id
 _symmetry_equiv_pos_as_xyz
  1  'x, y, z'
loop_
 _atom_site_type_symbol
 _atom_site_label
 _atom_site_symmetry_multiplicity
 _atom_site_fract_x
 _atom_site_fract_y
 _atom_site_fract_z
 _atom_site_occupancy
  Cs  Cs0  1  0.14650262  0.85349738  0.54417387  1
  Cs  Cs1  1  0.29300524  0.14650262  0.04417387  1
  Cs  Cs2  1  0.85349738  0.70699476  0.04417387  1
  Cs  Cs3  1  0.14650262  0.29300524  0.54417387  1
  Cs  Cs4  1  0.70699476  0.85349738  0.54417387  1
  Cs  Cs5  1  0.85349738  0.14650262  0.04417387  1
  Cs  Cs6  1  0.53064898  0.46935102  0.36362188  1
  Cs  Cs7  1  0.06129897  0.53064898  0.86362188  1
  Cs  Cs8  1  0.46935102  0.93870103  0.86362188  1
  Cs  Cs9  1  0.53064898  0.06129897  0.36362188  1
  Cs  Cs10  1  0.93870103  0.46935102  0.36362188  1
  Cs  Cs11  1  0.46935102  0.53064898  0.86362188  1
  Mg  Mg0  1  0.33333300  0.66666700  0.25331088  1
  Mg  Mg1  1  0.66666700  0.33333300  0.75331088  1
  Se  Se0  1  0.33333300  0.66666700  0.55618771  1
  Se  Se1  1  0.66666700  0.33333300  0.05618771  1
  Se  Se2  1  0.20199892  0.79800108  0.15893938  1
  Se  Se3  1  0.40399584  0.20199892  0.65893938  1
  Se  Se4  1  0.79800108  0.59600416  0.65893938  1
  Se  Se5  1  0.20199892  0.40399584  0.15893938  1
  Se  Se6  1  0.59600416  0.79800108  0.15893938  1
  Se  Se7  1  0.79800108  0.20199892  0.65893938  1
loop_
_geom_bond_atom_site_label_1
_geom_bond_atom_site_label_2
_geom_bond_distance
_geom_bond_site_symmetry_2
Cs0 Se2 3.537851 1_555
Cs0 Se0 3.597428 1_555
Cs0 Se3 3.621188 1_565
Cs0 Se4 3.621189 1_455
Cs1 Se3 3.537846 1_554
Cs1 Se1 3.597438 1_555
Cs1 Se5 3.621173 1_555
Cs1 Se2 3.621194 1_545
Cs2 Se4 3.537846 1_554
Cs2 Se1 3.597438 1_555
Cs2 Se6 3.621174 1_555
Cs2 Se2 3.621194 1_655
Cs3 Se5 3.537846 1_555
Cs3 Se0 3.597438 1_555
Cs3 Se3 3.621174 1_555
Cs3 Se7 3.621194 1_455
Cs4 Se6 3.537846 1_555
Cs4 Se0 3.597438 1_555
Cs4 Se4 3.621173 1_555
Cs4 Se7 3.621194 1_565
Cs5 Se7 3.537851 1_554
Cs5 Se1 3.597428 1_555
Cs5 Se6 3.621188 1_545
Cs5 Se5 3.621189 1_655
Cs6 Se3 3.648361 1_555
Cs6 Se4 3.648362 1_555
Cs6 Se1 3.754762 1_555
Cs6 Se6 3.797852 1_555
Cs6 Se5 3.797852 1_555
Cs7 Se2 3.648362 1_556
Cs7 Se5 3.648368 1_556
Cs7 Se0 3.754749 1_555
Cs7 Se7 3.797862 1_455
Cs7 Se4 3.797881 1_455
Cs8 Se2 3.648362 1_556
Cs8 Se6 3.648368 1_556
Cs8 Se0 3.754749 1_555
Cs8 Se7 3.797862 1_565
Cs8 Se3 3.797881 1_565
Cs9 Se7 3.648362 1_555
Cs9 Se3 3.648368 1_555
Cs9 Se1 3.754749 1_555
Cs9 Se2 3.797862 1_545
Cs9 Se6 3.797881 1_545
Cs10 Se7 3.648362 1_555
Cs10 Se4 3.648368 1_555
Cs10 Se1 3.754749 1_555
Cs10 Se2 3.797862 1_655
Cs10 Se5 3.797881 1_655
Cs11 Se6 3.648361 1_556
Cs11 Se5 3.648362 1_556
Cs11 Se0 3.754762 1_555
Cs11 Se3 3.797852 1_555
Cs11 Se4 3.797852 1_555
Mg0 Se0 2.651710 1_555
Mg0 Se2 2.659369 1_555
Mg0 Se5 2.659396 1_555
Mg0 Se6 2.659396 1_555
Mg1 Se1 2.651710 1_556
Mg1 Se7 2.659369 1_555
Mg1 Se4 2.659396 1_555
Mg1 Se3 2.659396 1_555
