# generated using pymatgen
data_VBi2PtF14
_symmetry_space_group_name_H-M   'P 1'
_cell_length_a   5.45018140
_cell_length_b   9.08632287
_cell_length_c   12.03591301
_cell_angle_alpha   61.53555919
_cell_angle_beta   90.22094906
_cell_angle_gamma   90.60989845
_symmetry_Int_Tables_number   1
_chemical_formula_structural   VBi2PtF14
_chemical_formula_sum   'V2 Bi4 Pt2 F28'
_cell_volume   523.95969758
_cell_formula_units_Z   2
loop_
 _symmetry_equiv_pos_site_id
 _symmetry_equiv_pos_as_xyz
  1  'x, y, z'
loop_
 _atom_site_type_symbol
 _atom_site_label
 _atom_site_symmetry_multiplicity
 _atom_site_fract_x
 _atom_site_fract_y
 _atom_site_fract_z
 _atom_site_occupancy
  V  V0  1  0.74924470  0.72832909  0.04098313  1
  V  V1  1  0.25075530  0.27167091  0.95901687  1
  Bi  Bi0  1  0.25611641  0.81032948  0.26336671  1
  Bi  Bi1  1  0.74388359  0.18967052  0.73663329  1
  Bi  Bi2  1  0.76699494  0.18206102  0.23632022  1
  Bi  Bi3  1  0.23300506  0.81793898  0.76367978  1
  Pt  Pt0  1  0.26088207  0.27326752  0.45729344  1
  Pt  Pt1  1  0.73911793  0.72673248  0.54270656  1
  F  F0  1  0.91616475  0.70416188  0.41050194  1
  F  F1  1  0.08383525  0.29583812  0.58949806  1
  F  F2  1  0.44573399  0.28288591  0.08264138  1
  F  F3  1  0.55426601  0.71711409  0.91735862  1
  F  F4  1  0.46996509  0.74200532  0.12361748  1
  F  F5  1  0.53003491  0.25799468  0.87638252  1
  F  F6  1  0.95600750  0.27652480  0.37171590  1
  F  F7  1  0.04399250  0.72347520  0.62828410  1
  F  F8  1  0.93975744  0.74976174  0.16348719  1
  F  F9  1  0.06024256  0.25023826  0.83651281  1
  F  F10  1  0.43148250  0.25969006  0.32068800  1
  F  F11  1  0.56851750  0.74030994  0.67931200  1
  F  F12  1  0.76091200  0.50581184  0.13010807  1
  F  F13  1  0.23908800  0.49418816  0.86989193  1
  F  F14  1  0.27491672  0.51579649  0.35811245  1
  F  F15  1  0.72508328  0.48420351  0.64188755  1
  F  F16  1  0.96097779  0.27663342  0.04492596  1
  F  F17  1  0.03902221  0.72336658  0.95507404  1
  F  F18  1  0.42697362  0.72187542  0.46359778  1
  F  F19  1  0.57302638  0.27812458  0.53640222  1
  F  F20  1  0.74027761  0.97184850  0.44937549  1
  F  F21  1  0.25972239  0.02815150  0.55062451  1
  F  F22  1  0.23662342  0.04270950  0.05298145  1
  F  F23  1  0.76337658  0.95729050  0.94701855  1
  F  F24  1  0.61087929  0.96324188  0.22882129  1
  F  F25  1  0.38912071  0.03675812  0.77117871  1
  F  F26  1  0.10718088  0.02875987  0.27775857  1
  F  F27  1  0.89281912  0.97124013  0.72224143  1
loop_
_geom_bond_atom_site_label_1
_geom_bond_atom_site_label_2
_geom_bond_distance
_geom_bond_site_symmetry_2
Bi0 F26 2.234088 1_565
Bi0 F24 2.289144 1_555
Bi0 F8 2.305511 1_455
Bi0 F18 2.339512 1_555
Bi0 F14 2.359854 1_555
Bi0 F4 2.366198 1_555
Bi0 F22 2.405764 1_565
Bi0 F0 2.420409 1_455
Bi1 F27 2.234088 1_545
Bi1 F25 2.289144 1_555
Bi1 F9 2.305511 1_655
Bi1 F19 2.339512 1_555
Bi1 F15 2.359854 1_555
Bi1 F5 2.366198 1_555
Bi1 F23 2.405764 1_545
Bi1 F1 2.420409 1_655
Bi2 F24 2.195391 1_545
Bi2 F26 2.238806 1_655
Bi2 F16 2.296799 1_555
Bi2 F20 2.360784 1_545
Bi2 F10 2.365795 1_555
Bi2 F2 2.391696 1_555
Bi2 F6 2.398983 1_555
Bi2 F12 2.589598 1_555
Bi3 F25 2.195391 1_565
Bi3 F27 2.238806 1_455
Bi3 F17 2.296799 1_555
Bi3 F21 2.360784 1_565
Bi3 F11 2.365795 1_555
Bi3 F3 2.391696 1_555
Bi3 F7 2.398983 1_555
Bi3 F13 2.589598 1_555
F0 Pt1 1.957604 1_555
F1 Pt0 1.957604 1_555
F2 V1 1.866449 1_554
F3 V0 1.866449 1_556
F4 V0 1.858766 1_555
F5 V1 1.858766 1_555
F6 Pt0 1.944623 1_655
F7 Pt1 1.944623 1_455
F8 V0 1.883520 1_555
F9 V1 1.883520 1_555
F10 Pt0 1.946956 1_555
F11 Pt1 1.946956 1_555
F12 V0 1.782544 1_555
F13 V1 1.782544 1_555
F14 Pt0 1.943364 1_555
F15 Pt1 1.943364 1_555
F16 V1 1.903693 1_654
F17 V0 1.903693 1_456
F18 Pt1 1.956712 1_555
F19 Pt0 1.956712 1_555
F20 Pt1 1.958887 1_555
F21 Pt0 1.958887 1_555
F22 V1 1.835097 1_554
F23 V0 1.835097 1_556
