# generated using pymatgen
data_Mn4HgPd8Au3
_symmetry_space_group_name_H-M   'P 1'
_cell_length_a   6.88788560
_cell_length_b   6.88788569
_cell_length_c   6.88788575
_cell_angle_alpha   107.86257725
_cell_angle_beta   107.86258068
_cell_angle_gamma   112.73875512
_symmetry_Int_Tables_number   1
_chemical_formula_structural   Mn4HgPd8Au3
_chemical_formula_sum   'Mn4 Hg1 Pd8 Au3'
_cell_volume   250.93931741
_cell_formula_units_Z   1
loop_
 _symmetry_equiv_pos_site_id
 _symmetry_equiv_pos_as_xyz
  1  'x, y, z'
loop_
 _atom_site_type_symbol
 _atom_site_label
 _atom_site_symmetry_multiplicity
 _atom_site_fract_x
 _atom_site_fract_y
 _atom_site_fract_z
 _atom_site_occupancy
  Mn  Mn0  1  0.25527692  0.25527692  0.51055283  1
  Mn  Mn1  1  0.74472308  0.74472308  0.48944717  1
  Mn  Mn2  1  0.25527692  0.74472308  0.00000000  1
  Mn  Mn3  1  0.74472308  0.25527692  1.00000000  1
  Hg  Hg0  1  0.00000000  0.00000000  0.00000000  1
  Pd  Pd0  1  0.50003172  0.24900959  0.25102013  1
  Pd  Pd1  1  0.49996828  0.75099041  0.74897987  1
  Pd  Pd2  1  0.99798946  0.24900959  0.74897987  1
  Pd  Pd3  1  0.24900959  0.99798946  0.74897987  1
  Pd  Pd4  1  0.00201054  0.75099041  0.25102013  1
  Pd  Pd5  1  0.75099041  0.00201054  0.25102013  1
  Pd  Pd6  1  0.24900959  0.50003172  0.25102013  1
  Pd  Pd7  1  0.75099041  0.49996828  0.74897987  1
  Au  Au0  1  0.50000000  0.00000000  0.50000000  1
  Au  Au1  1  0.00000000  0.50000000  0.50000000  1
  Au  Au2  1  0.50000000  0.50000000  0.00000000  1
loop_
_geom_bond_atom_site_label_1
_geom_bond_atom_site_label_2
_geom_bond_distance
_geom_bond_site_symmetry_2
Mn0 Pd7 2.758476 1_555
Mn0 Pd1 2.758476 1_555
Mn0 Pd3 2.758481 1_545
Mn0 Pd2 2.758481 1_455
Mn0 Pd5 2.810202 1_455
Mn0 Pd4 2.810202 1_545
Mn0 Pd6 2.810208 1_555
Mn0 Pd0 2.810208 1_555
Mn1 Pd6 2.758476 1_555
Mn1 Pd0 2.758476 1_555
Mn1 Pd5 2.758481 1_565
Mn1 Pd4 2.758481 1_655
Mn1 Pd3 2.810202 1_655
Mn1 Pd2 2.810202 1_565
Mn1 Pd7 2.810208 1_555
Mn1 Pd1 2.810208 1_555
Mn2 Pd6 2.758464 1_555
Mn2 Pd1 2.758464 1_554
Mn2 Pd5 2.758475 1_565
Mn2 Pd2 2.758475 1_454
Mn2 Pd7 2.810202 1_454
Mn2 Pd0 2.810202 1_565
Mn2 Pd3 2.810203 1_554
Mn2 Pd4 2.810203 1_555
Mn3 Pd7 2.758464 1_555
Mn3 Pd0 2.758464 1_556
Mn3 Pd3 2.758475 1_545
Mn3 Pd4 2.758475 1_656
Mn3 Pd6 2.810202 1_656
Mn3 Pd1 2.810202 1_545
Mn3 Pd5 2.810203 1_556
Mn3 Pd2 2.810203 1_555
Hg0 Pd4 2.784650 1_545
Hg0 Pd2 2.784650 1_454
Hg0 Pd5 2.784650 1_455
Hg0 Pd3 2.784650 1_544
Hg0 Pd0 2.784661 1_555
Hg0 Pd1 2.784661 1_444
Hg0 Pd6 2.784661 1_555
Hg0 Pd7 2.784661 1_444
Hg0 Mn0 2.928035 1_555
Hg0 Mn1 2.928035 1_444
Hg0 Mn3 2.928041 1_454
Hg0 Mn2 2.928041 1_545
Pd0 Pd5 2.855842 1_555
Pd0 Pd7 2.855853 1_555
Pd0 Pd3 2.879215 1_544
Pd0 Pd6 2.879238 1_555
Pd1 Pd3 2.855842 1_555
Pd1 Pd6 2.855853 1_555
Pd1 Pd5 2.879215 1_566
Pd1 Pd7 2.879238 1_555
Pd2 Pd7 2.855842 1_555
Pd2 Pd5 2.855853 1_555
Pd2 Pd6 2.879215 1_656
Pd2 Pd3 2.879215 1_645
Pd3 Pd4 2.855853 1_555
Pd4 Pd6 2.855842 1_555
Pd4 Pd7 2.879215 1_454
Pd4 Pd5 2.879215 1_465
Au0 Pd1 2.772574 1_545
Au0 Pd0 2.772574 1_555
Au0 Pd2 2.772575 1_555
Au0 Pd4 2.772575 1_545
Au0 Pd7 2.782941 1_555
Au0 Pd6 2.782941 1_545
Au0 Pd3 2.782952 1_545
Au0 Pd5 2.782952 1_555
Au0 Mn1 2.868153 1_545
Au0 Mn0 2.868153 1_555
Au0 Mn3 2.868153 1_555
Au0 Mn2 2.868153 1_545
Au1 Pd6 2.772574 1_555
Au1 Pd7 2.772574 1_455
Au1 Pd3 2.772575 1_555
Au1 Pd5 2.772575 1_455
Au1 Pd1 2.782941 1_555
Au1 Pd0 2.782941 1_455
Au1 Pd2 2.782952 1_455
Au1 Pd4 2.782952 1_555
Au1 Mn0 2.868153 1_555
Au1 Mn1 2.868153 1_455
Au1 Mn2 2.868153 1_556
Au1 Mn3 2.868153 1_454
Au2 Pd4 2.794982 1_655
Au2 Pd2 2.794982 1_454
Au2 Pd5 2.794982 1_565
Au2 Pd3 2.794982 1_544
Au2 Pd0 2.794983 1_555
Au2 Pd1 2.794983 1_554
Au2 Pd7 2.794983 1_554
Au2 Pd6 2.794983 1_555
Au2 Mn2 2.806988 1_555
Au2 Mn3 2.806988 1_554
Au2 Mn1 2.806993 1_555
Au2 Mn0 2.806993 1_554
