# generated using pymatgen
data_Y2Sn5Rh3
_symmetry_space_group_name_H-M   'P 1'
_cell_length_a   13.39961648
_cell_length_b   13.39961648
_cell_length_c   7.21512465
_cell_angle_alpha   90.00000000
_cell_angle_beta   90.00000000
_cell_angle_gamma   161.01378403
_symmetry_Int_Tables_number   1
_chemical_formula_structural   Y2Sn5Rh3
_chemical_formula_sum   'Y4 Sn10 Rh6'
_cell_volume   421.47026338
_cell_formula_units_Z   2
loop_
 _symmetry_equiv_pos_site_id
 _symmetry_equiv_pos_as_xyz
  1  'x, y, z'
loop_
 _atom_site_type_symbol
 _atom_site_label
 _atom_site_symmetry_multiplicity
 _atom_site_fract_x
 _atom_site_fract_y
 _atom_site_fract_z
 _atom_site_occupancy
  Y  Y0  1  0.47595716  0.52404284  0.23816932  1
  Y  Y1  1  0.17191481  0.82808519  0.25665792  1
  Y  Y2  1  0.52404284  0.47595716  0.73816932  1
  Y  Y3  1  0.82808519  0.17191481  0.75665792  1
  Sn  Sn0  1  0.70519297  0.29480703  0.54964984  1
  Sn  Sn1  1  0.59638175  0.40361825  0.11233529  1
  Sn  Sn2  1  0.04750776  0.95249224  0.40082463  1
  Sn  Sn3  1  0.95249224  0.04750776  0.90082463  1
  Sn  Sn4  1  0.71030266  0.28969734  0.97787579  1
  Sn  Sn5  1  0.28969734  0.71030266  0.47787579  1
  Sn  Sn6  1  0.29480703  0.70519297  0.04964984  1
  Sn  Sn7  1  0.88026611  0.11973389  0.23113044  1
  Sn  Sn8  1  0.11973389  0.88026611  0.73113044  1
  Sn  Sn9  1  0.40361825  0.59638175  0.61233529  1
  Rh  Rh0  1  0.39374205  0.60625795  0.98319742  1
  Rh  Rh1  1  0.77777082  0.22222918  0.26455090  1
  Rh  Rh2  1  0.22222918  0.77777082  0.76455090  1
  Rh  Rh3  1  0.05043248  0.94956752  0.01750946  1
  Rh  Rh4  1  0.60625795  0.39374205  0.48319742  1
  Rh  Rh5  1  0.94956752  0.05043248  0.51750946  1
loop_
_geom_bond_atom_site_label_1
_geom_bond_atom_site_label_2
_geom_bond_distance
_geom_bond_site_symmetry_2
Sn0 Y1 3.182238 1_545
Sn0 Y1 3.182238 1_655
Sn1 Y1 3.155058 1_545
Sn1 Y1 3.155058 1_655
Sn1 Y2 3.308198 1_554
Sn1 Y0 3.310040 1_555
Sn2 Y0 3.136577 1_565
Sn2 Y0 3.136577 1_455
Sn2 Y2 3.345594 1_455
Sn2 Y2 3.345594 1_565
Sn3 Y2 3.136577 1_655
Sn3 Y2 3.136577 1_545
Sn3 Y0 3.345594 1_546
Sn3 Y0 3.345594 1_656
Sn4 Y1 3.155871 1_656
Sn4 Y1 3.155871 1_546
Sn5 Y3 3.155871 1_565
Sn5 Y3 3.155871 1_455
Sn6 Y3 3.182238 1_564
Sn6 Y3 3.182238 1_454
Sn7 Y0 3.359183 1_545
Sn7 Y0 3.359183 1_655
Sn8 Y2 3.359183 1_455
Sn8 Y2 3.359183 1_565
Sn9 Y3 3.155058 1_455
Sn9 Y3 3.155058 1_565
Sn9 Y0 3.308198 1_555
Sn9 Y2 3.310040 1_555
Rh0 Sn6 2.658664 1_556
Rh0 Sn9 2.688520 1_555
Rh0 Sn3 2.765638 1_455
Rh0 Sn3 2.765638 1_565
Rh0 Y0 2.847247 1_556
Rh0 Sn7 2.865477 1_456
Rh0 Sn7 2.865477 1_566
Rh0 Y3 3.250765 1_565
Rh0 Y3 3.250765 1_455
Rh1 Sn5 2.711539 1_655
Rh1 Sn5 2.711539 1_545
Rh1 Sn7 2.719889 1_555
Rh1 Sn4 2.731034 1_554
Rh1 Sn6 2.736965 1_545
Rh1 Sn6 2.736965 1_655
Rh1 Sn0 2.812754 1_555
Rh2 Sn4 2.711539 1_455
Rh2 Sn4 2.711539 1_565
Rh2 Sn8 2.719889 1_555
Rh2 Sn5 2.731034 1_555
Rh2 Sn0 2.736965 1_455
Rh2 Sn0 2.736965 1_565
Rh2 Sn6 2.812754 1_556
Rh3 Sn1 2.612900 1_565
Rh3 Sn1 2.612900 1_455
Rh3 Sn3 2.722235 1_464
Rh3 Sn8 2.761320 1_554
Rh3 Sn2 2.766747 1_555
Rh3 Y2 3.071274 1_454
Rh3 Y2 3.071274 1_564
Rh3 Y0 3.360649 1_565
Rh3 Y0 3.360649 1_455
Rh4 Sn0 2.658664 1_555
Rh4 Sn1 2.688520 1_555
Rh4 Sn2 2.765638 1_545
Rh4 Sn2 2.765638 1_655
Rh4 Y2 2.847247 1_555
Rh4 Sn8 2.865477 1_545
Rh4 Sn8 2.865477 1_655
Rh4 Y1 3.250765 1_655
Rh4 Y1 3.250765 1_545
Rh5 Sn9 2.612900 1_545
Rh5 Sn9 2.612900 1_655
Rh5 Sn2 2.722235 1_645
Rh5 Sn7 2.761320 1_555
Rh5 Sn3 2.766747 1_555
Rh5 Y0 3.071274 1_545
Rh5 Y0 3.071274 1_655
Rh5 Y2 3.360649 1_655
Rh5 Y2 3.360649 1_545
