# generated using pymatgen
data_Na10Fe4O9
_symmetry_space_group_name_H-M   'P 1'
_cell_length_a   8.80055568
_cell_length_b   8.80055568
_cell_length_c   8.82443539
_cell_angle_alpha   77.25862707
_cell_angle_beta   77.25862707
_cell_angle_gamma   78.07533057
_symmetry_Int_Tables_number   1
_chemical_formula_structural   Na10Fe4O9
_chemical_formula_sum   'Na20 Fe8 O18'
_cell_volume   641.17805694
_cell_formula_units_Z   2
loop_
 _symmetry_equiv_pos_site_id
 _symmetry_equiv_pos_as_xyz
  1  'x, y, z'
loop_
 _atom_site_type_symbol
 _atom_site_label
 _atom_site_symmetry_multiplicity
 _atom_site_fract_x
 _atom_site_fract_y
 _atom_site_fract_z
 _atom_site_occupancy
  Na  Na0  1  0.26757300  0.73770800  0.01963700  1
  Na  Na1  1  0.43406200  0.12569500  0.11602200  1
  Na  Na2  1  0.12569500  0.43406200  0.11602200  1
  Na  Na3  1  0.72975500  0.98987200  0.26958300  1
  Na  Na4  1  0.98987200  0.72975500  0.26958300  1
  Na  Na5  1  0.79800400  0.53675200  0.18620600  1
  Na  Na6  1  0.53675200  0.79800400  0.18620600  1
  Na  Na7  1  0.14319600  0.14319600  0.43805700  1
  Na  Na8  1  0.83868700  0.22039400  0.39149600  1
  Na  Na9  1  0.22039400  0.83868700  0.39149600  1
  Na  Na10  1  0.50198500  0.50198500  0.49593400  1
  Na  Na11  1  0.99475800  0.26140400  0.73571000  1
  Na  Na12  1  0.69150800  0.14604400  0.74577500  1
  Na  Na13  1  0.14604400  0.69150800  0.74577500  1
  Na  Na14  1  0.88056200  0.88056200  0.56850600  1
  Na  Na15  1  0.28392500  0.28392500  0.84874100  1
  Na  Na16  1  0.26140400  0.99475800  0.73571000  1
  Na  Na17  1  0.87252200  0.55807700  0.86339400  1
  Na  Na18  1  0.55807700  0.87252200  0.86339400  1
  Na  Na19  1  0.73770800  0.26757300  0.01963700  1
  Fe  Fe0  1  0.08858000  0.08858000  0.09393400  1
  Fe  Fe1  1  0.46734300  0.46734300  0.17880400  1
  Fe  Fe2  1  0.47190300  0.17292100  0.46430600  1
  Fe  Fe3  1  0.17292100  0.47190300  0.46430600  1
  Fe  Fe4  1  0.53580500  0.82328500  0.53205100  1
  Fe  Fe5  1  0.82328500  0.53580500  0.53205100  1
  Fe  Fe6  1  0.53231300  0.53231300  0.83457000  1
  Fe  Fe7  1  0.90283700  0.90283700  0.92375700  1
  O  O0  1  0.00721500  0.69518300  0.00946900  1
  O  O1  1  0.69518300  0.00721500  0.00946900  1
  O  O2  1  0.61096800  0.61096800  0.00990300  1
  O  O3  1  0.30263700  0.61374300  0.29713100  1
  O  O4  1  0.61374300  0.30263700  0.29713100  1
  O  O5  1  0.99242500  0.40655900  0.37948000  1
  O  O6  1  0.40655900  0.99242500  0.37948000  1
  O  O7  1  0.99996600  0.99996600  0.71196500  1
  O  O8  1  0.69482200  0.69482200  0.38552700  1
  O  O9  1  0.27422600  0.27422600  0.59160400  1
  O  O10  1  0.99295000  0.99295000  0.30426100  1
  O  O11  1  0.00318100  0.62060900  0.59332300  1
  O  O12  1  0.62060900  0.00318100  0.59332300  1
  O  O13  1  0.40019900  0.71934500  0.72305500  1
  O  O14  1  0.71934500  0.40019900  0.72305500  1
  O  O15  1  0.39219500  0.39219500  0.00570800  1
  O  O16  1  0.00165500  0.29655100  0.98832500  1
  O  O17  1  0.29655100  0.00165500  0.98832500  1
loop_
_geom_bond_atom_site_label_1
_geom_bond_atom_site_label_2
_geom_bond_distance
_geom_bond_site_symmetry_2
Na0 O17 2.338325 1_564
Na0 O0 2.420331 1_555
Na0 O3 2.509480 1_555
Na0 O13 2.645596 1_554
Na1 O15 2.319064 1_555
Na1 O6 2.346383 1_545
Na1 O17 2.369811 1_554
Na1 O1 2.396104 1_555
Na2 O15 2.319064 1_555
Na2 O5 2.346383 1_455
Na2 O16 2.369811 1_554
Na2 O0 2.396104 1_555
Na3 O1 2.349227 1_565
Na3 O10 2.408670 1_555
Na3 O8 2.627347 1_555
Na3 O4 2.775267 1_565
Na3 O6 2.792407 1_555
Na3 O12 2.826389 1_565
Na4 O0 2.349227 1_655
Na4 O10 2.408670 1_555
Na4 O8 2.627347 1_555
Na4 O3 2.775267 1_655
Na4 O5 2.792407 1_555
Na4 O11 2.826389 1_655
Na5 O8 2.388766 1_555
Na5 O2 2.406969 1_555
Na5 O0 2.569310 1_655
Na5 O5 2.600825 1_555
Na5 O4 2.761100 1_555
Na6 O8 2.388766 1_555
Na6 O2 2.406969 1_555
Na6 O1 2.569310 1_565
Na6 O6 2.600825 1_555
Na6 O3 2.761100 1_555
Na7 O6 2.429585 1_545
Na7 O5 2.429585 1_455
Na7 O9 2.534422 1_555
Na7 O7 2.643632 1_445
Na7 O10 2.643940 1_445
Na8 O4 2.237275 1_555
Na8 O5 2.302636 1_555
Na8 O10 2.353278 1_545
Na9 O3 2.237275 1_555
Na9 O6 2.302636 1_555
Na9 O10 2.353278 1_455
Na10 O8 2.537886 1_555
Na10 O3 2.646934 1_555
Na10 O4 2.646934 1_555
Na10 O14 2.944403 1_555
Na10 O13 2.944403 1_555
Na11 O16 2.332426 1_655
Na11 O7 2.346173 1_545
Na11 O14 2.492984 1_555
Na11 O9 2.520050 1_655
Na12 O14 2.260538 1_555
Na12 O12 2.284825 1_555
Na12 O1 2.381447 1_556
Na12 O7 2.735056 1_545
Na13 O13 2.260538 1_555
Na13 O11 2.284825 1_555
Na13 O0 2.381447 1_556
Na13 O7 2.735056 1_455
Na14 O11 2.304172 1_655
Na14 O12 2.304172 1_565
Na14 O7 2.332588 1_555
Na14 O10 2.400731 1_555
Na15 O15 2.296509 1_556
Na15 O9 2.310241 1_555
Na15 O17 2.509398 1_555
Na15 O16 2.509398 1_555
Na16 O17 2.332426 1_565
Na16 O7 2.346173 1_455
Na16 O13 2.492984 1_555
Na16 O9 2.520050 1_565
Na17 O2 2.386738 1_556
Na17 O11 2.403955 1_655
Na17 O16 2.481257 1_655
Na17 O0 2.544355 1_656
Na17 O14 2.747862 1_555
Na18 O2 2.386738 1_556
Na18 O12 2.403955 1_565
Na18 O17 2.481257 1_565
Na18 O1 2.544355 1_566
Na18 O13 2.747862 1_555
Na19 O16 2.338325 1_654
Na19 O1 2.420331 1_555
Na19 O4 2.509480 1_555
Na19 O14 2.645596 1_554
Fe0 O10 1.943207 1_445
Fe0 O17 1.946036 1_554
Fe0 O16 1.946036 1_554
Fe1 O4 2.001341 1_555
Fe1 O3 2.001341 1_555
Fe1 O15 2.068784 1_555
Fe1 O2 2.101188 1_555
Fe2 O9 2.005485 1_555
Fe2 O4 2.017773 1_555
Fe2 O12 2.083143 1_555
Fe2 O6 2.122754 1_545
Fe3 O9 2.005485 1_555
Fe3 O3 2.017773 1_555
Fe3 O11 2.083143 1_555
Fe3 O5 2.122754 1_455
Fe4 O13 1.996408 1_555
Fe4 O8 2.025145 1_555
Fe4 O12 2.097543 1_565
Fe4 O6 2.100942 1_555
Fe5 O14 1.996408 1_555
Fe5 O8 2.025145 1_555
Fe5 O11 2.097543 1_655
Fe5 O5 2.100942 1_555
Fe6 O14 2.007188 1_555
Fe6 O13 2.007188 1_555
Fe6 O15 2.075414 1_556
Fe6 O2 2.120146 1_556
Fe7 O0 1.938704 1_656
Fe7 O1 1.938704 1_566
Fe7 O7 1.961343 1_555
