# generated using pymatgen
data_AgIrCl6
_symmetry_space_group_name_H-M   'P 1'
_cell_length_a   6.35803385
_cell_length_b   6.35803406
_cell_length_c   6.10848857
_cell_angle_alpha   80.38792091
_cell_angle_beta   80.38792837
_cell_angle_gamma   120.05632773
_symmetry_Int_Tables_number   1
_chemical_formula_structural   AgIrCl6
_chemical_formula_sum   'Ag1 Ir1 Cl6'
_cell_volume   201.43711976
_cell_formula_units_Z   1
loop_
 _symmetry_equiv_pos_site_id
 _symmetry_equiv_pos_as_xyz
  1  'x, y, z'
loop_
 _atom_site_type_symbol
 _atom_site_label
 _atom_site_symmetry_multiplicity
 _atom_site_fract_x
 _atom_site_fract_y
 _atom_site_fract_z
 _atom_site_occupancy
  Ag  Ag0  1  0.16639784  0.83360216  1.00000000  1
  Ir  Ir0  1  0.83346094  0.16653906  1.00000000  1
  Cl  Cl0  1  0.45876631  0.09221893  0.23117132  1
  Cl  Cl1  1  0.90778107  0.54123369  0.76882868  1
  Cl  Cl2  1  0.20657204  0.23960486  0.76805412  1
  Cl  Cl3  1  0.76039514  0.79342796  0.23194588  1
  Cl  Cl4  1  0.06092414  0.39429648  0.22878488  1
  Cl  Cl5  1  0.60570352  0.93907586  0.77121512  1
loop_
_geom_bond_atom_site_label_1
_geom_bond_atom_site_label_2
_geom_bond_distance
_geom_bond_site_symmetry_2
Ag0 Cl4 2.590656 1_556
Ag0 Cl5 2.590656 1_555
Ag0 Cl2 2.594890 1_565
Ag0 Cl3 2.594890 1_456
Ag0 Cl0 2.596821 1_566
Ag0 Cl1 2.596821 1_455
Cl0 Ir0 2.327846 1_554
Cl1 Ir0 2.327846 1_555
Cl2 Ir0 2.324791 1_455
Cl3 Ir0 2.324791 1_564
Cl4 Ir0 2.322624 1_454
Cl5 Ir0 2.322624 1_565
