# generated using pymatgen
data_LiMo2P3O13
_symmetry_space_group_name_H-M   'P 1'
_cell_length_a   6.47135966
_cell_length_b   19.36405700
_cell_length_c   9.74584559
_cell_angle_alpha   90.00000000
_cell_angle_beta   105.68270290
_cell_angle_gamma   90.00000000
_symmetry_Int_Tables_number   1
_chemical_formula_structural   LiMo2P3O13
_chemical_formula_sum   'Li4 Mo8 P12 O52'
_cell_volume   1175.80552396
_cell_formula_units_Z   4
loop_
 _symmetry_equiv_pos_site_id
 _symmetry_equiv_pos_as_xyz
  1  'x, y, z'
loop_
 _atom_site_type_symbol
 _atom_site_label
 _atom_site_symmetry_multiplicity
 _atom_site_fract_x
 _atom_site_fract_y
 _atom_site_fract_z
 _atom_site_occupancy
  Li  Li0  1  0.04014400  0.90805900  0.64360600  1
  Li  Li1  1  0.21831100  0.10325400  0.05259300  1
  Li  Li2  1  0.78168900  0.60325400  0.94740800  1
  Li  Li3  1  0.95985700  0.40805900  0.35639300  1
  Mo  Mo0  1  0.05189800  0.78591100  0.39251800  1
  Mo  Mo1  1  0.37404000  0.82095800  0.94485800  1
  Mo  Mo2  1  0.11589100  0.49626300  0.07986200  1
  Mo  Mo3  1  0.43433400  0.53779500  0.62269200  1
  Mo  Mo4  1  0.56566600  0.03779500  0.37730700  1
  Mo  Mo5  1  0.88411000  0.99626300  0.92013800  1
  Mo  Mo6  1  0.62595900  0.32095800  0.05514200  1
  Mo  Mo7  1  0.94810200  0.28591100  0.60748200  1
  P  P0  1  0.91088000  0.83585400  0.03694800  1
  P  P1  1  0.97597900  0.57183200  0.71447400  1
  P  P2  1  0.75790500  0.19524500  0.29428600  1
  P  P3  1  0.75276000  0.12822200  0.69209400  1
  P  P4  1  0.42514900  0.98703100  0.02632600  1
  P  P5  1  0.51059700  0.75224900  0.30069100  1
  P  P6  1  0.48940400  0.25225000  0.69930900  1
  P  P7  1  0.57485100  0.48703100  0.97367500  1
  P  P8  1  0.08911900  0.33585400  0.96305100  1
  P  P9  1  0.02402000  0.07183200  0.28552600  1
  P  P10  1  0.24724000  0.62822300  0.30790700  1
  P  P11  1  0.24209500  0.69524500  0.70571500  1
  O  O0  1  0.14371400  0.45010400  0.23491100  1
  O  O1  1  0.92959400  0.30559800  0.03839900  1
  O  O2  1  0.93950600  0.91520100  0.05684300  1
  O  O3  1  0.94433600  0.80250600  0.18380500  1
  O  O4  1  0.97251300  0.15319300  0.28960700  1
  O  O5  1  0.79514000  0.51403500  0.06784200  1
  O  O6  1  0.83853300  0.25344300  0.39884100  1
  O  O7  1  0.95731500  0.36883700  0.54295600  1
  O  O8  1  0.00409800  0.55648200  0.87339300  1
  O  O9  1  0.07040600  0.80559800  0.96160100  1
  O  O10  1  0.06049500  0.41520200  0.94315700  1
  O  O11  1  0.05566500  0.30250600  0.81619400  1
  O  O12  1  0.02748800  0.65319300  0.71039300  1
  O  O13  1  0.20485900  0.01403500  0.93215800  1
  O  O14  1  0.12180000  0.53212100  0.64296500  1
  O  O15  1  0.04268500  0.86883800  0.45704300  1
  O  O16  1  0.16146800  0.75344300  0.60116000  1
  O  O17  1  0.28444500  0.86971600  0.79085700  1
  O  O18  1  0.09155100  0.67862600  0.34633300  1
  O  O19  1  0.34202200  0.72409100  0.85576200  1
  O  O20  1  0.25561300  0.25738000  0.61068100  1
  O  O21  1  0.14666100  0.59643900  0.15917100  1
  O  O22  1  0.25738500  0.06506200  0.37445700  1
  O  O23  1  0.99590300  0.05648300  0.12660700  1
  O  O24  1  0.39678100  0.64532700  0.66530900  1
  O  O25  1  0.52608100  0.27334600  0.85459100  1
  O  O26  1  0.58475400  0.00390900  0.93826400  1
  O  O27  1  0.32724900  0.56977200  0.41369500  1
  O  O28  1  0.57337100  0.41135900  0.93021400  1
  O  O29  1  0.53259800  0.53629100  0.84326800  1
  O  O30  1  0.44193800  0.45197500  0.58676200  1
  O  O31  1  0.36367200  0.78905800  0.37684800  1
  O  O32  1  0.54195700  0.17023400  0.70214400  1
  O  O33  1  0.68616000  0.81664800  0.94268800  1
  O  O34  1  0.31384000  0.31664900  0.05731100  1
  O  O35  1  0.45804400  0.67023400  0.29785500  1
  O  O36  1  0.63632800  0.28905800  0.62315300  1
  O  O37  1  0.55806100  0.95197500  0.41323800  1
  O  O38  1  0.46740300  0.03629100  0.15673200  1
  O  O39  1  0.42663000  0.91135900  0.06978600  1
  O  O40  1  0.67275200  0.06977200  0.58630500  1
  O  O41  1  0.41524600  0.50390900  0.06173700  1
  O  O42  1  0.47391700  0.77334600  0.14540900  1
  O  O43  1  0.60321900  0.14532700  0.33469100  1
  O  O44  1  0.85628600  0.95010400  0.76508800  1
  O  O45  1  0.74261500  0.56506300  0.62554300  1
  O  O46  1  0.85333900  0.09643900  0.84082900  1
  O  O47  1  0.74438800  0.75738100  0.38931900  1
  O  O48  1  0.65797700  0.22409100  0.14423800  1
  O  O49  1  0.90844800  0.17862600  0.65366600  1
  O  O50  1  0.71555600  0.36971600  0.20914300  1
  O  O51  1  0.87820100  0.03212200  0.35703600  1
loop_
_geom_bond_atom_site_label_1
_geom_bond_atom_site_label_2
_geom_bond_distance
_geom_bond_site_symmetry_2
Li0 O17 1.970688 1_555
Li0 O15 1.974625 1_555
Li0 O44 2.059561 1_455
Li1 O23 1.993331 1_455
Li1 O13 2.077198 1_554
Li1 O38 2.103663 1_555
Li2 O8 1.993350 1_655
Li2 O5 2.077194 1_556
Li2 O29 2.103662 1_555
Li3 O50 1.970683 1_555
Li3 O7 1.974634 1_555
Li3 O0 2.059556 1_655
Mo0 O15 1.731439 1_555
Mo0 O3 1.989933 1_455
Mo0 O47 2.057370 1_455
Mo0 O16 2.062346 1_555
Mo0 O31 2.065025 1_555
Mo0 O18 2.155640 1_555
Mo1 O17 1.734864 1_555
Mo1 O33 2.027378 1_555
Mo1 O9 2.036997 1_555
Mo1 O19 2.053785 1_555
Mo1 O42 2.098816 1_556
Mo1 O39 2.106785 1_556
Mo2 O0 1.722680 1_555
Mo2 O41 1.997748 1_555
Mo2 O10 2.027118 1_554
Mo2 O5 2.075863 1_455
Mo2 O21 2.077678 1_555
Mo2 O8 2.268291 1_554
Mo3 O30 1.701767 1_555
Mo3 O45 2.056605 1_555
Mo3 O27 2.061388 1_555
Mo3 O29 2.070604 1_555
Mo3 O14 2.087518 1_555
Mo3 O24 2.149865 1_555
Mo4 O37 1.701770 1_545
Mo4 O22 2.056602 1_555
Mo4 O40 2.061397 1_555
Mo4 O38 2.070595 1_555
Mo4 O51 2.087516 1_555
Mo4 O43 2.149863 1_555
Mo5 O44 1.722688 1_555
Mo5 O26 1.997758 1_565
Mo5 O2 2.027133 1_556
Mo5 O13 2.075851 1_665
Mo5 O46 2.077678 1_565
Mo5 O23 2.268301 1_566
Mo6 O50 1.734866 1_555
Mo6 O34 2.027368 1_555
Mo6 O1 2.037004 1_555
Mo6 O48 2.053785 1_555
Mo6 O25 2.098816 1_554
Mo6 O28 2.106785 1_554
Mo7 O7 1.731425 1_555
Mo7 O11 1.989925 1_655
Mo7 O20 2.057381 1_655
Mo7 O6 2.062336 1_555
Mo7 O36 2.065029 1_555
Mo7 O49 2.155639 1_555
O1 P8 1.535598 1_654
O2 P0 1.553468 1_555
O3 P0 1.531278 1_555
O4 P9 1.613067 1_655
O4 P2 1.621166 1_555
O5 P7 1.562251 1_554
O6 P2 1.514312 1_555
O8 P1 1.538792 1_455
O9 P0 1.535597 1_456
O10 P8 1.553485 1_555
O11 P8 1.531279 1_555
O12 P1 1.613070 1_455
O12 P11 1.621158 1_555
O13 P4 1.562260 1_546
O14 P1 1.524150 1_455
O16 P11 1.514311 1_555
O18 P10 1.520497 1_555
O19 P11 1.535374 1_555
O20 P6 1.529201 1_555
O21 P10 1.547125 1_555
O22 P9 1.530172 1_555
O23 P9 1.538790 1_655
O24 P11 1.518086 1_555
O25 P6 1.522913 1_555
O26 P4 1.545775 1_546
O27 P10 1.524310 1_555
O28 P7 1.524618 1_555
O29 P7 1.553068 1_555
O31 P5 1.531166 1_555
O32 P3 1.613890 1_555
O32 P6 1.622838 1_555
O33 P0 1.541043 1_556
O34 P8 1.541044 1_554
O35 P10 1.613891 1_555
O35 P5 1.622819 1_555
O36 P6 1.531146 1_555
O38 P4 1.553061 1_545
O39 P4 1.524614 1_555
O40 P3 1.524300 1_555
O41 P7 1.545775 1_554
O42 P5 1.522916 1_555
O43 P2 1.518081 1_555
O45 P1 1.530165 1_555
O46 P3 1.547110 1_555
O47 P5 1.529203 1_555
O48 P2 1.535383 1_555
O49 P3 1.520513 1_555
O51 P9 1.524137 1_655
