# generated using pymatgen
data_YCd(NiPt)2
_symmetry_space_group_name_H-M   'P 1'
_cell_length_a   5.01544238
_cell_length_b   5.13635991
_cell_length_c   5.13635971
_cell_angle_alpha   63.25990076
_cell_angle_beta   60.77572191
_cell_angle_gamma   60.77573368
_symmetry_Int_Tables_number   1
_chemical_formula_structural   YCd(NiPt)2
_chemical_formula_sum   'Y1 Cd1 Ni2 Pt2'
_cell_volume   96.81137958
_cell_formula_units_Z   1
loop_
 _symmetry_equiv_pos_site_id
 _symmetry_equiv_pos_as_xyz
  1  'x, y, z'
loop_
 _atom_site_type_symbol
 _atom_site_label
 _atom_site_symmetry_multiplicity
 _atom_site_fract_x
 _atom_site_fract_y
 _atom_site_fract_z
 _atom_site_occupancy
  Y  Y0  1  0.24848580  0.25151420  0.25151420  1
  Cd  Cd0  1  0.00804144  0.99195856  0.99195856  1
  Ni  Ni0  1  0.12117962  0.62809250  0.62809250  1
  Ni  Ni1  1  0.62263737  0.62809250  0.62809250  1
  Pt  Pt0  1  0.62482838  0.62622520  0.12411903  1
  Pt  Pt1  1  0.62482838  0.12411903  0.62622520  1
loop_
_geom_bond_atom_site_label_1
_geom_bond_atom_site_label_2
_geom_bond_distance
_geom_bond_site_symmetry_2
Cd0 Ni0 2.894840 1_555
Cd0 Ni1 2.894843 1_555
Cd0 Pt0 2.964412 1_456
Cd0 Pt1 2.964412 1_465
Cd0 Pt1 2.964416 1_565
Cd0 Pt0 2.964416 1_556
Cd0 Pt1 3.061089 1_466
Cd0 Pt0 3.061089 1_466
Cd0 Y0 3.122198 1_466
Cd0 Y0 3.122198 1_566
Cd0 Ni1 3.125779 1_456
Cd0 Ni1 3.125779 1_465
Cd0 Ni0 3.125783 1_565
Cd0 Ni0 3.125783 1_556
Cd0 Y0 3.197593 1_565
Cd0 Y0 3.197594 1_556
Ni0 Ni1 2.500410 1_455
Ni0 Ni1 2.515032 1_555
Ni0 Pt0 2.548844 1_456
Ni0 Pt1 2.548844 1_465
Ni0 Pt0 2.587557 1_555
Ni0 Pt1 2.587558 1_555
Ni0 Y0 2.974077 1_555
Ni0 Y0 3.101515 1_565
Ni0 Y0 3.101515 1_556
Ni1 Pt0 2.548842 1_556
Ni1 Pt1 2.548842 1_565
Ni1 Pt0 2.587560 1_555
Ni1 Pt1 2.587561 1_555
Ni1 Y0 2.974073 1_655
Ni1 Y0 3.101519 1_556
Ni1 Y0 3.101519 1_565
Pt0 Pt1 2.682320 1_564
Pt0 Pt1 2.705013 1_555
Pt0 Y0 2.983814 1_655
Pt0 Y0 2.983818 1_555
Pt0 Y0 3.011924 1_565
Pt1 Y0 2.983814 1_655
Pt1 Y0 2.983818 1_555
Pt1 Y0 3.011924 1_556
