# generated using pymatgen
data_Al2Ni(SeO3)4
_symmetry_space_group_name_H-M   'P 1'
_cell_length_a   4.52249637
_cell_length_b   8.12126455
_cell_length_c   14.49839588
_cell_angle_alpha   72.77715564
_cell_angle_beta   90.00813803
_cell_angle_gamma   89.97960445
_symmetry_Int_Tables_number   1
_chemical_formula_structural   Al2Ni(SeO3)4
_chemical_formula_sum   'Al4 Ni2 Se8 O24'
_cell_volume   508.62546302
_cell_formula_units_Z   2
loop_
 _symmetry_equiv_pos_site_id
 _symmetry_equiv_pos_as_xyz
  1  'x, y, z'
loop_
 _atom_site_type_symbol
 _atom_site_label
 _atom_site_symmetry_multiplicity
 _atom_site_fract_x
 _atom_site_fract_y
 _atom_site_fract_z
 _atom_site_occupancy
  Al  Al0  1  0.53849084  0.13901544  0.79274718  1
  Al  Al1  1  0.96130945  0.13895317  0.29276245  1
  Al  Al2  1  0.46150916  0.86098456  0.20725282  1
  Al  Al3  1  0.03869055  0.86104683  0.70723755  1
  Ni  Ni0  1  0.00000000  0.00000000  0.00000000  1
  Ni  Ni1  1  0.50000000  0.00000000  0.50000000  1
  Se  Se0  1  0.57196494  0.78312032  0.87932624  1
  Se  Se1  1  0.92859561  0.78302781  0.37930259  1
  Se  Se2  1  0.42803506  0.21687968  0.12067376  1
  Se  Se3  1  0.07140439  0.21697219  0.62069741  1
  Se  Se4  1  0.03082347  0.34474677  0.87318312  1
  Se  Se5  1  0.46892593  0.34474163  0.37318384  1
  Se  Se6  1  0.96917653  0.65525323  0.12681688  1
  Se  Se7  1  0.53107407  0.65525837  0.62681616  1
  O  O0  1  0.75245155  0.32904915  0.79709724  1
  O  O1  1  0.74717205  0.32906609  0.29708501  1
  O  O2  1  0.24754845  0.67095085  0.20290276  1
  O  O3  1  0.25282795  0.67093391  0.70291499  1
  O  O4  1  0.84067572  0.72628039  0.81436418  1
  O  O5  1  0.65970139  0.72620361  0.31437014  1
  O  O6  1  0.15932428  0.27371961  0.18563582  1
  O  O7  1  0.34029861  0.27379639  0.68562986  1
  O  O8  1  0.24100846  0.16152245  0.87950446  1
  O  O9  1  0.25891011  0.16154613  0.37946767  1
  O  O10  1  0.75899154  0.83847755  0.12049554  1
  O  O11  1  0.74108989  0.83845387  0.62053233  1
  O  O12  1  0.70857989  0.96922230  0.89927079  1
  O  O13  1  0.79170101  0.96910609  0.39931577  1
  O  O14  1  0.29142011  0.03077770  0.10072921  1
  O  O15  1  0.20829899  0.03089391  0.60068423  1
  O  O16  1  0.34922239  0.91931846  0.78946924  1
  O  O17  1  0.15091540  0.91928457  0.28946291  1
  O  O18  1  0.65077761  0.08068154  0.21053076  1
  O  O19  1  0.84908460  0.08071543  0.71053709  1
  O  O20  1  0.88297047  0.25221233  0.98397801  1
  O  O21  1  0.61683473  0.25218997  0.48394908  1
  O  O22  1  0.11702953  0.74778767  0.01602199  1
  O  O23  1  0.38316527  0.74781003  0.51605092  1
loop_
_geom_bond_atom_site_label_1
_geom_bond_atom_site_label_2
_geom_bond_distance
_geom_bond_site_symmetry_2
Al0 O0 1.838696 1_555
Al0 O7 1.845446 1_555
Al0 O8 1.887335 1_555
Al0 O12 1.901626 1_545
Al0 O19 1.987986 1_555
Al0 O16 1.992400 1_545
Al1 O1 1.838981 1_555
Al1 O6 1.845698 1_655
Al1 O9 1.887235 1_655
Al1 O13 1.901792 1_545
Al1 O18 1.987902 1_555
Al1 O17 1.992398 1_645
Al2 O2 1.838696 1_555
Al2 O5 1.845446 1_555
Al2 O10 1.887335 1_555
Al2 O14 1.901626 1_565
Al2 O17 1.987986 1_555
Al2 O18 1.992400 1_565
Al3 O3 1.838981 1_555
Al3 O4 1.845698 1_455
Al3 O11 1.887235 1_455
Al3 O15 1.901792 1_565
Al3 O16 1.987902 1_555
Al3 O19 1.992398 1_465
Ni0 O14 2.036693 1_555
Ni0 O12 2.036693 1_444
Ni0 O20 2.060820 1_454
Ni0 O22 2.060820 1_545
Ni0 O10 2.145978 1_445
Ni0 O8 2.145978 1_554
Ni1 O15 2.037493 1_555
Ni1 O13 2.037493 1_545
Ni1 O21 2.060735 1_555
Ni1 O23 2.060735 1_545
Ni1 O9 2.145848 1_555
Ni1 O11 2.145848 1_545
O0 Se4 1.703247 1_655
O1 Se5 1.703069 1_555
O2 Se6 1.703247 1_455
O3 Se7 1.703069 1_555
O4 Se0 1.683556 1_555
O5 Se1 1.683868 1_555
O6 Se2 1.683556 1_555
O7 Se3 1.683868 1_555
O8 Se4 1.744809 1_555
O9 Se5 1.744896 1_555
O10 Se6 1.744809 1_555
O11 Se7 1.744896 1_555
O12 Se0 1.734659 1_555
O13 Se1 1.735001 1_555
O14 Se2 1.734659 1_555
O15 Se3 1.735001 1_555
O16 Se0 1.755267 1_555
O17 Se1 1.754890 1_455
O18 Se2 1.755267 1_555
O19 Se3 1.754890 1_655
O20 Se4 1.696473 1_655
O21 Se5 1.695854 1_555
O22 Se6 1.696473 1_455
O23 Se7 1.695854 1_555
