# generated using pymatgen
data_Zr6Zn16GaPd7
_symmetry_space_group_name_H-M   'P 1'
_cell_length_a   8.76550941
_cell_length_b   8.76550939
_cell_length_c   8.76550930
_cell_angle_alpha   60.00000404
_cell_angle_beta   60.00000412
_cell_angle_gamma   60.00000055
_symmetry_Int_Tables_number   1
_chemical_formula_structural   Zr6Zn16GaPd7
_chemical_formula_sum   'Zr6 Zn16 Ga1 Pd7'
_cell_volume   476.22973165
_cell_formula_units_Z   1
loop_
 _symmetry_equiv_pos_site_id
 _symmetry_equiv_pos_as_xyz
  1  'x, y, z'
loop_
 _atom_site_type_symbol
 _atom_site_label
 _atom_site_symmetry_multiplicity
 _atom_site_fract_x
 _atom_site_fract_y
 _atom_site_fract_z
 _atom_site_occupancy
  Zr  Zr0  1  0.72354701  0.27645299  0.27645299  1
  Zr  Zr1  1  0.27645299  0.72354701  0.72354701  1
  Zr  Zr2  1  0.27645299  0.72354701  0.27645299  1
  Zr  Zr3  1  0.72354701  0.27645299  0.72354701  1
  Zr  Zr4  1  0.27645299  0.27645299  0.72354701  1
  Zr  Zr5  1  0.72354701  0.72354701  0.27645299  1
  Zn  Zn0  1  0.12469663  0.12469663  0.12469663  1
  Zn  Zn1  1  0.87530337  0.87530337  0.87530337  1
  Zn  Zn2  1  0.12469663  0.12469663  0.62590911  1
  Zn  Zn3  1  0.12469663  0.62590911  0.12469663  1
  Zn  Zn4  1  0.87530337  0.87530337  0.37409089  1
  Zn  Zn5  1  0.87530337  0.37409089  0.87530337  1
  Zn  Zn6  1  0.62590911  0.12469663  0.12469663  1
  Zn  Zn7  1  0.37409089  0.87530337  0.87530337  1
  Zn  Zn8  1  0.34452673  0.34452673  0.34452673  1
  Zn  Zn9  1  0.65547327  0.65547327  0.65547327  1
  Zn  Zn10  1  0.34452673  0.34452673  0.96642080  1
  Zn  Zn11  1  0.34452673  0.96642080  0.34452673  1
  Zn  Zn12  1  0.65547327  0.65547327  0.03357920  1
  Zn  Zn13  1  0.65547327  0.03357920  0.65547327  1
  Zn  Zn14  1  0.96642080  0.34452673  0.34452673  1
  Zn  Zn15  1  0.03357920  0.65547327  0.65547327  1
  Ga  Ga0  1  0.50000000  0.50000000  0.50000000  1
  Pd  Pd0  1  0.50000000  0.00000000  0.00000000  1
  Pd  Pd1  1  0.00000000  0.50000000  0.50000000  1
  Pd  Pd2  1  0.00000000  0.50000000  0.00000000  1
  Pd  Pd3  1  0.50000000  0.00000000  0.50000000  1
  Pd  Pd4  1  0.00000000  0.00000000  0.50000000  1
  Pd  Pd5  1  0.50000000  0.50000000  0.00000000  1
  Pd  Pd6  1  0.00000000  0.00000000  0.00000000  1
loop_
_geom_bond_atom_site_label_1
_geom_bond_atom_site_label_2
_geom_bond_distance
_geom_bond_site_symmetry_2
Zn0 Zn14 2.777982 1_455
Zn0 Zn11 2.777982 1_545
Zn0 Zn10 2.777982 1_554
Zn0 Zr2 2.884066 1_545
Zn0 Zr0 2.884066 1_455
Zn0 Zr4 2.884066 1_554
Zn1 Zn15 2.777982 1_655
Zn1 Zn13 2.777982 1_565
Zn1 Zn12 2.777982 1_556
Zn1 Zr3 2.884066 1_565
Zn1 Zr1 2.884066 1_655
Zn1 Zr5 2.884066 1_556
Zn2 Zn8 2.777978 1_555
Zn2 Zr1 2.884065 1_545
Zn2 Zr3 2.884065 1_455
Zn2 Zr4 2.884072 1_555
Zn3 Zn8 2.777978 1_555
Zn3 Zr5 2.884065 1_455
Zn3 Zr1 2.884065 1_554
Zn3 Zr2 2.884072 1_555
Zn4 Zn9 2.777978 1_555
Zn4 Zr0 2.884065 1_565
Zn4 Zr2 2.884065 1_655
Zn4 Zr5 2.884072 1_555
Zn5 Zn9 2.777978 1_555
Zn5 Zr4 2.884065 1_655
Zn5 Zr0 2.884065 1_556
Zn5 Zr3 2.884072 1_555
Zn6 Zn8 2.777978 1_555
Zn6 Zr5 2.884065 1_545
Zn6 Zr3 2.884065 1_554
Zn6 Zr0 2.884072 1_555
Zn7 Zn9 2.777978 1_555
Zn7 Zr4 2.884065 1_565
Zn7 Zr2 2.884065 1_556
Zn7 Zr1 2.884072 1_555
Zn8 Zr2 2.853248 1_555
Zn8 Zr4 2.853248 1_555
Zn8 Zr0 2.853248 1_555
Zn9 Zr3 2.853248 1_555
Zn9 Zr5 2.853248 1_555
Zn9 Zr1 2.853248 1_555
Zn10 Zn3 2.777968 1_556
Zn10 Zn6 2.777968 1_556
Zn10 Zr1 2.853251 1_555
Zn10 Zr3 2.853251 1_555
Zn10 Zr4 2.853257 1_555
Zn11 Zn2 2.777968 1_565
Zn11 Zn6 2.777968 1_565
Zn11 Zr5 2.853251 1_555
Zn11 Zr1 2.853251 1_555
Zn11 Zr2 2.853257 1_555
Zn12 Zn5 2.777968 1_554
Zn12 Zn7 2.777968 1_554
Zn12 Zr0 2.853251 1_555
Zn12 Zr2 2.853251 1_555
Zn12 Zr5 2.853257 1_555
Zn13 Zn4 2.777968 1_545
Zn13 Zn7 2.777968 1_545
Zn13 Zr4 2.853251 1_555
Zn13 Zr0 2.853251 1_555
Zn13 Zr3 2.853257 1_555
Zn14 Zn2 2.777968 1_655
Zn14 Zn3 2.777968 1_655
Zn14 Zr5 2.853251 1_555
Zn14 Zr3 2.853251 1_555
Zn14 Zr0 2.853257 1_555
Zn15 Zn4 2.777968 1_455
Zn15 Zn5 2.777968 1_455
Zn15 Zr4 2.853251 1_555
Zn15 Zr2 2.853251 1_555
Zn15 Zr1 2.853257 1_555
Ga0 Zr3 2.771156 1_555
Ga0 Zr2 2.771156 1_555
Ga0 Zr1 2.771156 1_555
Ga0 Zr0 2.771156 1_555
Ga0 Zr5 2.771156 1_555
Ga0 Zr4 2.771156 1_555
Pd0 Zn12 2.541774 1_545
Pd0 Zn10 2.541774 1_554
Pd0 Zn13 2.541774 1_554
Pd0 Zn11 2.541774 1_545
Pd0 Zn6 2.686049 1_555
Pd0 Zn7 2.686049 1_544
Pd0 Zn0 2.686056 1_555
Pd0 Zn1 2.686056 1_544
Pd1 Zn14 2.541767 1_455
Pd1 Zn15 2.541767 1_555
Pd1 Zn8 2.541772 1_555
Pd1 Zn9 2.541772 1_455
Pd1 Zn4 2.686056 1_455
Pd1 Zn2 2.686056 1_555
Pd1 Zn5 2.686057 1_455
Pd1 Zn3 2.686057 1_555
Pd2 Zn12 2.541774 1_455
Pd2 Zn10 2.541774 1_554
Pd2 Zn15 2.541774 1_554
Pd2 Zn14 2.541774 1_455
Pd2 Zn3 2.686049 1_555
Pd2 Zn5 2.686049 1_454
Pd2 Zn1 2.686056 1_454
Pd2 Zn0 2.686056 1_555
Pd3 Zn11 2.541767 1_545
Pd3 Zn13 2.541767 1_555
Pd3 Zn8 2.541772 1_555
Pd3 Zn9 2.541772 1_545
Pd3 Zn4 2.686056 1_545
Pd3 Zn2 2.686056 1_555
Pd3 Zn7 2.686057 1_545
Pd3 Zn6 2.686057 1_555
Pd4 Zn15 2.541774 1_545
Pd4 Zn14 2.541774 1_455
Pd4 Zn13 2.541774 1_455
Pd4 Zn11 2.541774 1_545
Pd4 Zn2 2.686049 1_555
Pd4 Zn4 2.686049 1_445
Pd4 Zn1 2.686057 1_445
Pd4 Zn0 2.686057 1_555
Pd5 Zn10 2.541767 1_554
Pd5 Zn12 2.541767 1_555
Pd5 Zn8 2.541773 1_555
Pd5 Zn9 2.541773 1_554
Pd5 Zn7 2.686056 1_554
Pd5 Zn6 2.686056 1_555
Pd5 Zn5 2.686056 1_554
Pd5 Zn3 2.686056 1_555
Pd6 Zn1 2.677364 1_444
Pd6 Zn0 2.677364 1_555
Pd6 Zn5 2.677372 1_454
Pd6 Zn3 2.677372 1_545
Pd6 Zn7 2.677372 1_544
Pd6 Zn6 2.677372 1_455
Pd6 Zn4 2.677372 1_445
Pd6 Zn2 2.677372 1_554
