# generated using pymatgen
data_Ta6Be15Cu8
_symmetry_space_group_name_H-M   'P 1'
_cell_length_a   7.61560506
_cell_length_b   7.61560394
_cell_length_c   7.61560370
_cell_angle_alpha   60.00404329
_cell_angle_beta   60.00404145
_cell_angle_gamma   60.00404311
_symmetry_Int_Tables_number   1
_chemical_formula_structural   Ta6Be15Cu8
_chemical_formula_sum   'Ta6 Be15 Cu8'
_cell_volume   312.34740706
_cell_formula_units_Z   1
loop_
 _symmetry_equiv_pos_site_id
 _symmetry_equiv_pos_as_xyz
  1  'x, y, z'
loop_
 _atom_site_type_symbol
 _atom_site_label
 _atom_site_symmetry_multiplicity
 _atom_site_fract_x
 _atom_site_fract_y
 _atom_site_fract_z
 _atom_site_occupancy
  Ta  Ta0  1  0.19233047  0.19233144  0.80767012  1
  Ta  Ta1  1  0.19233048  0.80766914  0.80766963  1
  Ta  Ta2  1  0.80766933  0.19233122  0.19233145  1
  Ta  Ta3  1  0.19233087  0.80766961  0.19233164  1
  Ta  Ta4  1  0.80766863  0.19233139  0.80766911  1
  Ta  Ta5  1  0.80766852  0.80766898  0.19233143  1
  Be  Be0  1  0.50000615  0.50000055  0.49999341  1
  Be  Be1  1  0.50000008  0.50000004  0.00000373  1
  Be  Be2  1  0.00000023  0.50000028  0.50000002  1
  Be  Be3  1  0.49999870  0.99999720  0.00000123  1
  Be  Be4  1  -0.00000002  -0.00000019  0.49999949  1
  Be  Be5  1  0.99999667  0.49999972  0.00000344  1
  Be  Be6  1  0.50000019  0.00000011  0.49999997  1
  Be  Be7  1  0.82681564  0.51956352  0.82681538  1
  Be  Be8  1  0.17318469  0.17318493  0.48043600  1
  Be  Be9  1  0.48043669  0.17318444  0.17318449  1
  Be  Be10  1  0.17319475  0.17319474  0.17319503  1
  Be  Be11  1  0.51956402  0.82681524  0.82681517  1
  Be  Be12  1  0.82680501  0.82680502  0.82680444  1
  Be  Be13  1  0.82681599  0.82681588  0.51956206  1
  Be  Be14  1  0.17318476  0.48043623  0.17318489  1
  Cu  Cu0  1  0.62281252  0.13156165  0.62281224  1
  Cu  Cu1  1  0.37718654  0.37718648  0.86843749  1
  Cu  Cu2  1  0.86843831  0.37718698  0.37718681  1
  Cu  Cu3  1  0.37718656  0.37718716  0.37718736  1
  Cu  Cu4  1  0.13156247  0.62281197  0.62281169  1
  Cu  Cu5  1  0.62281400  0.62281335  0.62281297  1
  Cu  Cu6  1  0.62281218  0.62281278  0.13156193  1
  Cu  Cu7  1  0.37718656  0.86843812  0.37718639  1
loop_
_geom_bond_atom_site_label_1
_geom_bond_atom_site_label_2
_geom_bond_distance
_geom_bond_site_symmetry_2
Ta0 Ta4 2.929437 1_455
Ta0 Ta1 2.929438 1_545
Ta0 Ta2 2.929607 1_456
Ta0 Ta3 2.929610 1_546
Ta1 Ta3 2.929437 1_556
Ta1 Ta5 2.929612 1_456
Ta1 Ta4 2.929613 1_465
Ta2 Ta4 2.929438 1_554
Ta2 Ta5 2.929438 1_545
Ta2 Ta3 2.929609 1_645
Ta3 Ta5 2.929440 1_455
Ta4 Ta5 2.929615 1_546
Be0 Cu3 2.290926 1_555
Be0 Cu5 2.290934 1_555
Be0 Cu6 2.291066 1_555
Be0 Cu2 2.291070 1_555
Be0 Cu7 2.291104 1_555
Be0 Cu0 2.291112 1_555
Be0 Cu4 2.291142 1_555
Be0 Cu1 2.291144 1_555
Be1 Be11 2.201906 1_554
Be1 Be14 2.201907 1_555
Be1 Be9 2.201907 1_555
Be1 Be7 2.201907 1_554
Be1 Cu6 2.345611 1_555
Be1 Cu1 2.345676 1_554
Be1 Cu3 2.345803 1_555
Be1 Cu5 2.345848 1_554
Be1 Ta2 2.763340 1_555
Be1 Ta3 2.763343 1_555
Be1 Ta4 2.763364 1_554
Be1 Ta1 2.763368 1_554
Be2 Be7 2.201905 1_455
Be2 Be8 2.201907 1_555
Be2 Cu4 2.345627 1_555
Be2 Cu2 2.345645 1_455
Be2 Cu5 2.345820 1_455
Be2 Cu3 2.345821 1_555
Be2 Ta3 2.763352 1_555
Be2 Ta5 2.763353 1_455
Be2 Ta4 2.763354 1_455
Be2 Ta0 2.763355 1_555
Be3 Be9 2.201733 1_565
Be3 Cu6 2.345812 1_555
Be3 Cu7 2.345816 1_555
Be3 Cu0 2.345840 1_564
Be3 Cu1 2.345842 1_564
Be3 Ta3 2.763254 1_555
Be3 Ta0 2.763270 1_564
Be3 Ta5 2.763283 1_555
Be3 Ta4 2.763300 1_564
Be4 Be8 2.201723 1_555
Be4 Cu7 2.345826 1_545
Be4 Cu2 2.345829 1_455
Be4 Cu0 2.345831 1_455
Be4 Cu4 2.345833 1_545
Be4 Ta3 2.763266 1_545
Be4 Ta2 2.763270 1_455
Be4 Ta1 2.763283 1_545
Be4 Ta4 2.763285 1_455
Be5 Be7 2.201717 1_554
Be5 Cu2 2.345805 1_555
Be5 Cu6 2.345812 1_555
Be5 Cu1 2.345847 1_654
Be5 Cu4 2.345858 1_654
Be5 Ta2 2.763259 1_555
Be5 Ta5 2.763267 1_555
Be5 Ta0 2.763282 1_654
Be5 Ta1 2.763292 1_654
Be6 Be9 2.201907 1_555
Be6 Be8 2.201908 1_555
Be6 Cu0 2.345631 1_555
Be6 Cu7 2.345650 1_545
Be6 Cu5 2.345823 1_545
Be6 Cu3 2.345825 1_555
Be6 Ta5 2.763349 1_545
Be6 Ta2 2.763353 1_555
Be6 Ta1 2.763357 1_545
Be6 Ta0 2.763360 1_555
Be7 Cu5 2.327246 1_555
Be7 Cu4 2.327272 1_655
Be7 Cu6 2.327273 1_556
Be7 Ta4 2.645914 1_555
Be7 Ta0 2.646048 1_655
Be7 Ta2 2.646054 1_556
Be8 Cu3 2.327249 1_555
Be8 Cu2 2.327272 1_455
Be8 Cu7 2.327276 1_545
Be8 Be9 2.340051 1_555
Be8 Ta0 2.645925 1_555
Be8 Ta4 2.646057 1_455
Be8 Ta1 2.646057 1_545
Be9 Cu3 2.327255 1_555
Be9 Cu7 2.327275 1_545
Be9 Cu1 2.327279 1_554
Be9 Ta2 2.645920 1_555
Be9 Ta4 2.646050 1_554
Be9 Ta5 2.646050 1_545
Be10 Be4 2.201937 1_555
Be10 Be5 2.201939 1_455
Be10 Be3 2.201939 1_545
Be10 Cu7 2.327297 1_545
Be10 Cu2 2.327300 1_455
Be10 Cu1 2.327301 1_554
Be10 Be8 2.339750 1_555
Be10 Be14 2.339753 1_555
Be10 Be9 2.339754 1_555
Be10 Ta0 2.646016 1_554
Be10 Ta3 2.646017 1_545
Be10 Ta2 2.646019 1_455
Be11 Be3 2.201703 1_556
Be11 Be6 2.201906 1_565
Be11 Cu5 2.327246 1_555
Be11 Cu0 2.327269 1_565
Be11 Cu6 2.327270 1_556
Be11 Be12 2.339746 1_555
Be11 Be7 2.340050 1_555
Be11 Be13 2.340057 1_555
Be11 Ta1 2.645918 1_555
Be11 Ta3 2.646058 1_556
Be11 Ta0 2.646059 1_565
Be12 Be4 2.201939 1_665
Be12 Be3 2.201943 1_556
Be12 Be5 2.201943 1_556
Be12 Cu0 2.327303 1_565
Be12 Cu6 2.327307 1_556
Be12 Cu4 2.327309 1_655
Be12 Be7 2.339747 1_555
Be12 Be13 2.339753 1_555
Be12 Ta1 2.646027 1_655
Be12 Ta4 2.646030 1_565
Be12 Ta5 2.646032 1_556
Be13 Be4 2.201714 1_665
Be13 Be2 2.201904 1_655
Be13 Be6 2.201905 1_565
Be13 Cu5 2.327246 1_555
Be13 Cu0 2.327272 1_565
Be13 Cu4 2.327274 1_655
Be13 Be7 2.340059 1_555
Be13 Ta5 2.645907 1_555
Be13 Ta3 2.646042 1_655
Be13 Ta2 2.646045 1_565
Be14 Be5 2.201721 1_455
Be14 Be2 2.201906 1_555
Be14 Cu3 2.327249 1_555
Be14 Cu2 2.327273 1_455
Be14 Cu1 2.327280 1_554
Be14 Be8 2.340046 1_555
Be14 Be9 2.340052 1_555
Be14 Ta3 2.645922 1_555
Be14 Ta1 2.646052 1_554
Be14 Ta5 2.646056 1_455
Cu0 Cu1 2.645485 1_555
Cu0 Cu3 2.645489 1_555
Cu0 Cu2 2.645490 1_555
Cu0 Ta4 2.731754 1_555
Cu0 Ta2 2.731938 1_555
Cu0 Ta0 2.731946 1_555
Cu1 Cu4 2.645484 1_555
Cu1 Cu5 2.645508 1_555
Cu1 Ta0 2.731730 1_555
Cu1 Ta4 2.731948 1_555
Cu1 Ta1 2.731952 1_555
Cu2 Cu6 2.645490 1_555
Cu2 Cu5 2.645498 1_555
Cu2 Ta2 2.731738 1_555
Cu2 Ta5 2.731945 1_555
Cu2 Ta4 2.731947 1_555
Cu3 Cu4 2.645480 1_555
Cu3 Cu6 2.645491 1_555
Cu3 Ta3 2.731986 1_555
Cu3 Ta0 2.731988 1_555
Cu3 Ta2 2.731989 1_555
Cu4 Cu7 2.645486 1_555
Cu4 Ta1 2.731759 1_555
Cu4 Ta3 2.731934 1_555
Cu4 Ta0 2.731938 1_555
Cu5 Cu7 2.645506 1_555
Cu5 Ta5 2.731980 1_555
Cu5 Ta4 2.731983 1_555
Cu5 Ta1 2.731993 1_555
Cu6 Cu7 2.645483 1_555
Cu6 Ta5 2.731750 1_555
Cu6 Ta3 2.731941 1_555
Cu6 Ta2 2.731943 1_555
Cu7 Ta3 2.731731 1_555
Cu7 Ta5 2.731946 1_555
Cu7 Ta1 2.731954 1_555
