# generated using pymatgen
data_Zr4TiCuSb3
_symmetry_space_group_name_H-M   'P 1'
_cell_length_a   8.54222275
_cell_length_b   8.54222394
_cell_length_c   5.74427649
_cell_angle_alpha   90.00000000
_cell_angle_beta   90.00000000
_cell_angle_gamma   120.00000300
_symmetry_Int_Tables_number   1
_chemical_formula_structural   Zr4TiCuSb3
_chemical_formula_sum   'Zr8 Ti2 Cu2 Sb6'
_cell_volume   363.00098106
_cell_formula_units_Z   2
loop_
 _symmetry_equiv_pos_site_id
 _symmetry_equiv_pos_as_xyz
  1  'x, y, z'
loop_
 _atom_site_type_symbol
 _atom_site_label
 _atom_site_symmetry_multiplicity
 _atom_site_fract_x
 _atom_site_fract_y
 _atom_site_fract_z
 _atom_site_occupancy
  Zr  Zr0  1  0.66666700  0.33333300  0.50000000  1
  Zr  Zr1  1  0.33333300  0.66666700  0.50000000  1
  Zr  Zr2  1  0.73670284  0.73670284  0.25328157  1
  Zr  Zr3  1  0.26329716  1.00000000  0.25328157  1
  Zr  Zr4  1  0.00000000  0.26329716  0.25328157  1
  Zr  Zr5  1  0.26329716  0.26329716  0.74671843  1
  Zr  Zr6  1  0.73670284  0.00000000  0.74671843  1
  Zr  Zr7  1  1.00000000  0.73670284  0.74671843  1
  Ti  Ti0  1  0.33333300  0.66666700  0.00000000  1
  Ti  Ti1  1  0.66666700  0.33333300  0.00000000  1
  Cu  Cu0  1  0.00000000  0.00000000  0.00000000  1
  Cu  Cu1  1  0.00000000  0.00000000  0.50000000  1
  Sb  Sb0  1  0.38748257  0.38748257  0.24194220  1
  Sb  Sb1  1  0.61251743  0.00000000  0.24194220  1
  Sb  Sb2  1  1.00000000  0.61251743  0.24194220  1
  Sb  Sb3  1  0.61251743  0.61251743  0.75805780  1
  Sb  Sb4  1  0.38748257  1.00000000  0.75805780  1
  Sb  Sb5  1  0.00000000  0.38748257  0.75805780  1
loop_
_geom_bond_atom_site_label_1
_geom_bond_atom_site_label_2
_geom_bond_distance
_geom_bond_site_symmetry_2
Ti0 Zr1 2.872138 1_555
Ti0 Zr1 2.872138 1_554
Ti1 Zr0 2.872138 1_555
Ti1 Zr0 2.872138 1_554
Cu0 Zr3 2.678700 1_545
Cu0 Zr6 2.678700 1_454
Cu0 Zr2 2.678700 1_445
Cu0 Zr5 2.678700 1_554
Cu0 Zr4 2.678700 1_555
Cu0 Zr7 2.678700 1_444
Cu1 Zr6 2.658412 1_455
Cu1 Zr3 2.658412 1_545
Cu1 Zr5 2.658412 1_555
Cu1 Zr2 2.658412 1_445
Cu1 Zr7 2.658412 1_445
Cu1 Zr4 2.658412 1_555
Sb0 Zr4 2.928166 1_555
Sb0 Zr3 2.928167 1_545
Sb0 Zr2 2.983828 1_555
Sb0 Ti1 2.989335 1_555
Sb0 Ti0 2.989336 1_555
Sb0 Zr0 3.033481 1_555
Sb0 Zr1 3.033481 1_555
Sb0 Zr5 3.036061 1_554
Sb0 Zr5 3.087534 1_555
Sb1 Zr4 2.928166 1_655
Sb1 Zr2 2.928167 1_545
Sb1 Zr3 2.983828 1_545
Sb1 Ti1 2.989328 1_555
Sb1 Ti0 2.989331 1_545
Sb1 Zr0 3.033474 1_555
Sb1 Zr1 3.033476 1_545
Sb1 Zr6 3.036061 1_554
Sb1 Zr6 3.087534 1_555
Sb2 Zr2 2.928167 1_555
Sb2 Zr3 2.928167 1_655
Sb2 Zr4 2.983829 1_655
Sb2 Ti0 2.989328 1_655
Sb2 Ti1 2.989331 1_555
Sb2 Zr1 3.033474 1_655
Sb2 Zr0 3.033476 1_555
Sb2 Zr7 3.036061 1_554
Sb2 Zr7 3.087534 1_555
Sb3 Zr7 2.928166 1_555
Sb3 Zr6 2.928167 1_565
Sb3 Zr5 2.983828 1_555
Sb3 Ti0 2.989335 1_556
Sb3 Ti1 2.989336 1_556
Sb3 Zr1 3.033481 1_555
Sb3 Zr0 3.033481 1_555
Sb3 Zr2 3.036061 1_556
Sb3 Zr2 3.087534 1_555
Sb4 Zr7 2.928166 1_455
Sb4 Zr5 2.928167 1_565
Sb4 Zr6 2.983828 1_565
Sb4 Ti0 2.989328 1_556
Sb4 Ti1 2.989331 1_566
Sb4 Zr1 3.033474 1_555
Sb4 Zr0 3.033476 1_565
Sb4 Zr3 3.036061 1_556
Sb4 Zr3 3.087534 1_555
Sb5 Zr5 2.928167 1_555
Sb5 Zr6 2.928167 1_455
Sb5 Zr7 2.983829 1_455
Sb5 Ti1 2.989328 1_456
Sb5 Ti0 2.989331 1_556
Sb5 Zr0 3.033474 1_455
Sb5 Zr1 3.033476 1_555
Sb5 Zr4 3.036061 1_556
Sb5 Zr4 3.087534 1_555
