# generated using pymatgen
data_CsRb3(SiP)12
_symmetry_space_group_name_H-M   'P 1'
_cell_length_a   3.54950042
_cell_length_b   9.85913909
_cell_length_c   20.00758402
_cell_angle_alpha   90.81925404
_cell_angle_beta   90.00000000
_cell_angle_gamma   90.00000000
_symmetry_Int_Tables_number   1
_chemical_formula_structural   CsRb3(SiP)12
_chemical_formula_sum   'Cs1 Rb3 Si12 P12'
_cell_volume   700.09419639
_cell_formula_units_Z   1
loop_
 _symmetry_equiv_pos_site_id
 _symmetry_equiv_pos_as_xyz
  1  'x, y, z'
loop_
 _atom_site_type_symbol
 _atom_site_label
 _atom_site_symmetry_multiplicity
 _atom_site_fract_x
 _atom_site_fract_y
 _atom_site_fract_z
 _atom_site_occupancy
  Cs  Cs0  1  0.00000000  0.79632359  0.19241088  1
  Rb  Rb0  1  0.00000000  0.29370706  0.31150771  1
  Rb  Rb1  1  0.00000000  0.69903476  0.69149093  1
  Rb  Rb2  1  0.00000000  0.19887484  0.80790763  1
  Si  Si0  1  0.50000000  0.40765850  0.03155057  1
  Si  Si1  1  0.50000000  0.59466196  0.96129687  1
  Si  Si2  1  0.50000000  0.09623807  0.53578763  1
  Si  Si3  1  0.50000000  0.90448895  0.46618254  1
  Si  Si4  1  0.00000000  0.11514714  0.01395982  1
  Si  Si5  1  0.00000000  0.88648152  0.98238485  1
  Si  Si6  1  0.00000000  0.38699332  0.51819906  1
  Si  Si7  1  0.00000000  0.61445402  0.48812987  1
  Si  Si8  1  0.00000000  0.18767884  0.12645301  1
  Si  Si9  1  0.00000000  0.81945323  0.86949815  1
  Si  Si10  1  0.00000000  0.32088234  0.63032396  1
  Si  Si11  1  0.00000000  0.67284151  0.37522199  1
  P  P0  1  0.50000000  0.12523028  0.18514547  1
  P  P1  1  0.50000000  0.88523212  0.81154142  1
  P  P2  1  0.50000000  0.38667802  0.68922614  1
  P  P3  1  0.50000000  0.60295931  0.31771302  1
  P  P4  1  0.50000000  0.28261772  0.46821554  1
  P  P5  1  0.50000000  0.72180500  0.53635980  1
  P  P6  1  0.50000000  0.21709670  0.96417089  1
  P  P7  1  0.50000000  0.78226831  0.03058789  1
  P  P8  1  0.00000000  0.41650070  0.10208826  1
  P  P9  1  0.00000000  0.58882940  0.89077794  1
  P  P10  1  0.00000000  0.09072042  0.60621144  1
  P  P11  1  0.00000000  0.90514236  0.39565473  1
loop_
_geom_bond_atom_site_label_1
_geom_bond_atom_site_label_2
_geom_bond_distance
_geom_bond_site_symmetry_2
Cs0 P3 3.633979 1_555
Cs0 P3 3.633979 1_455
Cs0 P7 3.693065 1_555
Cs0 P7 3.693065 1_455
Cs0 P0 3.701309 1_465
Cs0 P0 3.701309 1_565
Cs0 P8 4.134635 1_555
Si0 Si1 2.334318 1_554
Si2 Si3 2.331963 1_545
Si4 Si5 2.332572 1_544
Si4 Si8 2.351822 1_555
Si5 Si9 2.344197 1_555
Si6 Si7 2.330155 1_555
Si10 Si6 2.345051 1_555
Si11 Si7 2.339167 1_555
P0 Si8 2.220012 1_655
P0 Si8 2.220012 1_555
P0 Rb0 3.490057 1_555
P0 Rb0 3.490057 1_655
P1 Si9 2.221810 1_555
P1 Si9 2.221810 1_655
P1 Rb1 3.487525 1_555
P1 Rb1 3.487525 1_655
P1 Rb2 3.566994 1_565
P1 Rb2 3.566994 1_665
P2 Si10 2.222052 1_555
P2 Si10 2.222052 1_655
P2 Rb2 3.513146 1_555
P2 Rb2 3.513146 1_655
P2 Rb1 3.554088 1_555
P2 Rb1 3.554088 1_655
P3 Si11 2.219386 1_555
P3 Si11 2.219386 1_655
P3 Rb0 3.528525 1_655
P3 Rb0 3.528525 1_555
P4 Si6 2.275821 1_655
P4 Si6 2.275821 1_555
P4 Si2 2.296821 1_555
P4 Rb0 3.605812 1_555
P4 Rb0 3.605812 1_655
P5 Si7 2.274176 1_655
P5 Si7 2.274176 1_555
P5 Si3 2.299508 1_555
P5 Rb1 3.585196 1_555
P5 Rb1 3.585196 1_655
P6 Si4 2.276180 1_656
P6 Si4 2.276180 1_556
P6 Si0 2.296683 1_556
P6 Rb2 3.597310 1_655
P6 Rb2 3.597310 1_555
P7 Si5 2.272411 1_554
P7 Si5 2.272411 1_654
P7 Si1 2.295601 1_554
P8 Si0 2.268382 1_555
P8 Si0 2.268382 1_455
P8 Si8 2.314857 1_555
P9 Si1 2.267466 1_455
P9 Si1 2.267466 1_555
P9 Si9 2.319246 1_555
P10 Si2 2.267201 1_555
P10 Si2 2.267201 1_455
P10 Si10 2.313157 1_555
P11 Si3 2.267425 1_555
P11 Si3 2.267425 1_455
P11 Si11 2.320725 1_555
