# generated using pymatgen
data_K2Rb3CuSb2
_symmetry_space_group_name_H-M   'P 1'
_cell_length_a   10.06811431
_cell_length_b   10.06811473
_cell_length_c   10.06811351
_cell_angle_alpha   35.14946257
_cell_angle_beta   35.14945890
_cell_angle_gamma   35.14945659
_symmetry_Int_Tables_number   1
_chemical_formula_structural   K2Rb3CuSb2
_chemical_formula_sum   'K2 Rb3 Cu1 Sb2'
_cell_volume   302.10535950
_cell_formula_units_Z   1
loop_
 _symmetry_equiv_pos_site_id
 _symmetry_equiv_pos_as_xyz
  1  'x, y, z'
loop_
 _atom_site_type_symbol
 _atom_site_label
 _atom_site_symmetry_multiplicity
 _atom_site_fract_x
 _atom_site_fract_y
 _atom_site_fract_z
 _atom_site_occupancy
  K  K0  1  0.21584160  0.21584160  0.21584160  1
  K  K1  1  0.78415840  0.78415840  0.78415840  1
  Rb  Rb0  1  0.50000000  0.50000000  0.50000000  1
  Rb  Rb1  1  0.36152486  0.36152486  0.36152486  1
  Rb  Rb2  1  0.63847514  0.63847514  0.63847514  1
  Cu  Cu0  1  0.00000000  0.00000000  0.00000000  1
  Sb  Sb0  1  0.08799349  0.08799349  0.08799349  1
  Sb  Sb1  1  0.91200651  0.91200651  0.91200651  1
loop_
_geom_bond_atom_site_label_1
_geom_bond_atom_site_label_2
_geom_bond_distance
_geom_bond_site_symmetry_2
K0 Sb1 3.608319 1_544
K0 Sb1 3.608319 1_445
K0 Sb1 3.608319 1_454
K0 Sb0 3.619250 1_555
K0 Rb0 3.776315 1_455
K0 Rb0 3.776315 1_554
K0 Rb0 3.776315 1_545
K1 Sb0 3.608319 1_566
K1 Sb0 3.608319 1_665
K1 Sb0 3.608319 1_656
K1 Sb1 3.619250 1_555
K1 Rb0 3.776315 1_655
K1 Rb0 3.776315 1_556
K1 Rb0 3.776315 1_565
Rb0 Rb2 3.920091 1_555
Rb0 Rb1 3.920091 1_555
Rb0 Sb1 4.157266 1_455
Rb0 Sb0 4.157266 1_655
Rb0 Sb1 4.157266 1_545
Rb0 Sb0 4.157266 1_565
Rb0 Sb1 4.157267 1_554
Rb0 Sb0 4.157267 1_556
Rb1 Sb0 3.897262 1_556
Rb1 Sb0 3.897262 1_655
Rb1 Sb0 3.897263 1_565
Rb2 Sb1 3.897262 1_554
Rb2 Sb1 3.897262 1_455
Rb2 Sb1 3.897263 1_545
Cu0 Sb0 2.491006 1_555
Cu0 Sb1 2.491006 1_444
Cu0 Rb1 3.599938 1_455
Cu0 Rb2 3.599938 1_544
Cu0 Rb1 3.599938 1_545
Cu0 Rb2 3.599938 1_454
Cu0 Rb1 3.599938 1_554
Cu0 Rb2 3.599938 1_445
