# generated using pymatgen
data_Y16In6CuTc
_symmetry_space_group_name_H-M   'P 1'
_cell_length_a   10.46438627
_cell_length_b   10.46438049
_cell_length_c   7.05012898
_cell_angle_alpha   89.99994902
_cell_angle_beta   89.99993409
_cell_angle_gamma   119.99967011
_symmetry_Int_Tables_number   1
_chemical_formula_structural   Y16In6CuTc
_chemical_formula_sum   'Y16 In6 Cu1 Tc1'
_cell_volume   668.58468254
_cell_formula_units_Z   1
loop_
 _symmetry_equiv_pos_site_id
 _symmetry_equiv_pos_as_xyz
  1  'x, y, z'
loop_
 _atom_site_type_symbol
 _atom_site_label
 _atom_site_symmetry_multiplicity
 _atom_site_fract_x
 _atom_site_fract_y
 _atom_site_fract_z
 _atom_site_occupancy
  Y  Y0  1  0.47191656  0.52808220  0.47631344  1
  Y  Y1  1  0.05616145  0.52808191  0.47631027  1
  Y  Y2  1  0.47191897  0.94384217  0.47631022  1
  Y  Y3  1  0.53502966  0.46496953  0.98026085  1
  Y  Y4  1  0.92994261  0.46497090  0.98025907  1
  Y  Y5  1  0.53502601  0.07005269  0.98025658  1
  Y  Y6  1  0.82508446  0.17491065  0.27189747  1
  Y  Y7  1  0.34982701  0.17491033  0.27189541  1
  Y  Y8  1  0.82508772  0.65017344  0.27189425  1
  Y  Y9  1  0.17555020  0.82444908  0.77381537  1
  Y  Y10  1  0.64889613  0.82444718  0.77381078  1
  Y  Y11  1  0.17555363  0.35110635  0.77381671  1
  Y  Y12  1  0.33333373  0.66666885  0.10323733  1
  Y  Y13  1  0.66666629  0.33333283  0.60683833  1
  Y  Y14  1  0.00000073  0.99999981  0.50008845  1
  Y  Y15  1  0.00000046  0.00000246  0.99422975  1
  In  In0  1  0.16537198  0.83462763  0.23633492  1
  In  In1  1  0.66925477  0.83462621  0.23633445  1
  In  In2  1  0.16537349  0.33074506  0.23633437  1
  In  In3  1  0.83811591  0.16188080  0.73516968  1
  In  In4  1  0.32376440  0.16187956  0.73517050  1
  In  In5  1  0.83811948  0.67623571  0.73517025  1
  Cu  Cu0  1  0.33333363  0.66667928  0.70482006  1
  Tc  Tc0  1  0.66666471  0.33333136  0.21398647  1
loop_
_geom_bond_atom_site_label_1
_geom_bond_atom_site_label_2
_geom_bond_distance
_geom_bond_site_symmetry_2
In0 Y7 3.097594 1_565
In0 Y8 3.097607 1_455
In0 Y12 3.185586 1_555
In0 Y9 3.266037 1_554
In0 Y1 3.285200 1_555
In0 Y2 3.285211 1_555
In0 Y15 3.449286 1_564
In0 Y14 3.527282 1_555
In0 Y9 3.793795 1_555
In0 Y5 3.842145 1_564
In0 Y4 3.842167 1_454
In1 Y8 3.097603 1_555
In1 Y6 3.097609 1_565
In1 Y12 3.185607 1_555
In1 Y10 3.266067 1_554
In1 Y0 3.285210 1_555
In1 Y2 3.285238 1_555
In1 Y15 3.449289 1_664
In1 Y14 3.527320 1_655
In1 Y10 3.793766 1_555
In1 Y5 3.842139 1_564
In1 Y3 3.842156 1_554
In2 Y7 3.097626 1_555
In2 Y6 3.097650 1_455
In2 Y12 3.185625 1_555
In2 Y11 3.266026 1_554
In2 Y0 3.285209 1_555
In2 Y1 3.285220 1_555
In2 Y15 3.449269 1_554
In2 Y14 3.527308 1_545
In2 Y11 3.793810 1_555
In2 Y3 3.842149 1_554
In2 Y4 3.842149 1_454
In3 Y10 3.077574 1_545
In3 Y11 3.077620 1_655
In3 Y13 3.236545 1_555
In3 Y6 3.274657 1_555
In3 Y5 3.304641 1_555
In3 Y4 3.304658 1_555
In3 Y14 3.369829 1_645
In3 Y15 3.456087 1_655
In3 Y6 3.791363 1_556
In3 Y2 3.804959 1_545
In3 Y1 3.804989 1_655
In4 Y9 3.077545 1_545
In4 Y11 3.077602 1_555
In4 Y13 3.236563 1_555
In4 Y7 3.274678 1_555
In4 Y5 3.304624 1_555
In4 Y3 3.304672 1_555
In4 Y14 3.369831 1_545
In4 Y15 3.456102 1_555
In4 Y7 3.791344 1_556
In4 Y2 3.804903 1_545
In4 Y0 3.804994 1_555
In5 Y9 3.077550 1_655
In5 Y10 3.077572 1_555
In5 Y13 3.236572 1_555
In5 Y8 3.274685 1_555
In5 Y4 3.304635 1_555
In5 Y3 3.304668 1_555
In5 Y14 3.369827 1_655
In5 Y15 3.456129 1_665
In5 Y8 3.791337 1_556
In5 Y1 3.804935 1_655
In5 Y0 3.805001 1_555
Cu0 Y12 2.808893 1_556
Cu0 Y9 2.900747 1_555
Cu0 Y10 2.900840 1_555
Cu0 Y11 2.900937 1_555
Cu0 Y2 2.984023 1_555
Cu0 Y1 2.984100 1_555
Cu0 Y0 2.984134 1_555
Tc0 Y13 2.769656 1_555
Tc0 Y3 2.899603 1_554
Tc0 Y4 2.899653 1_554
Tc0 Y5 2.899672 1_554
Tc0 Y7 2.900206 1_555
Tc0 Y6 2.900219 1_555
Tc0 Y8 2.900244 1_555
