# generated using pymatgen
data_Hf6BI12
_symmetry_space_group_name_H-M   'P 1'
_cell_length_a   9.18431944
_cell_length_b   9.18431985
_cell_length_c   9.18431944
_cell_angle_alpha   106.94303265
_cell_angle_beta   106.94303191
_cell_angle_gamma   106.94302595
_symmetry_Int_Tables_number   1
_chemical_formula_structural   Hf6BI12
_chemical_formula_sum   'Hf6 B1 I12'
_cell_volume   646.18862295
_cell_formula_units_Z   1
loop_
 _symmetry_equiv_pos_site_id
 _symmetry_equiv_pos_as_xyz
  1  'x, y, z'
loop_
 _atom_site_type_symbol
 _atom_site_label
 _atom_site_symmetry_multiplicity
 _atom_site_fract_x
 _atom_site_fract_y
 _atom_site_fract_z
 _atom_site_occupancy
  Hf  Hf0  1  0.97293096  0.73194757  0.91273425  1
  Hf  Hf1  1  0.26805243  0.08726575  0.02706904  1
  Hf  Hf2  1  0.08726575  0.02706904  0.26805243  1
  Hf  Hf3  1  0.91273425  0.97293096  0.73194757  1
  Hf  Hf4  1  0.73194757  0.91273425  0.97293096  1
  Hf  Hf5  1  0.02706904  0.26805243  0.08726575  1
  B  B0  1  0.00000000  0.00000000  0.00000000  1
  I  I0  1  0.92190085  0.30600168  0.77548690  1
  I  I1  1  0.69399832  0.22451310  0.07809915  1
  I  I2  1  0.44024017  0.14159111  0.36708994  1
  I  I3  1  0.85840889  0.63291006  0.55975983  1
  I  I4  1  0.22451310  0.07809915  0.69399832  1
  I  I5  1  0.63291006  0.55975983  0.85840889  1
  I  I6  1  0.36708994  0.44024017  0.14159111  1
  I  I7  1  0.77548690  0.92190085  0.30600168  1
  I  I8  1  0.14159111  0.36708994  0.44024017  1
  I  I9  1  0.55975983  0.85840889  0.63291006  1
  I  I10  1  0.30600168  0.77548690  0.92190085  1
  I  I11  1  0.07809915  0.69399832  0.22451310  1
loop_
_geom_bond_atom_site_label_1
_geom_bond_atom_site_label_2
_geom_bond_distance
_geom_bond_site_symmetry_2
Hf0 I3 2.859981 1_555
Hf0 I5 2.873270 1_555
Hf0 I11 2.901690 1_656
Hf0 I10 2.939722 1_655
Hf0 I0 3.581263 1_555
Hf1 I6 2.859981 1_555
Hf1 I2 2.873270 1_555
Hf1 I10 2.901690 1_544
Hf1 I4 2.939722 1_554
Hf1 I1 3.581263 1_555
Hf2 I2 2.859981 1_555
Hf2 I8 2.873270 1_555
Hf2 I7 2.901690 1_445
Hf2 I11 2.939722 1_545
Hf2 I4 3.581262 1_555
Hf3 I9 2.859981 1_555
Hf3 I3 2.873270 1_555
Hf3 I4 2.901690 1_665
Hf3 I0 2.939722 1_565
Hf3 I7 3.581262 1_555
Hf4 I5 2.859981 1_555
Hf4 I9 2.873270 1_555
Hf4 I1 2.901690 1_566
Hf4 I7 2.939722 1_556
Hf4 I10 3.581263 1_555
Hf5 I8 2.859981 1_555
Hf5 I6 2.873270 1_555
Hf5 I0 2.901690 1_454
Hf5 I1 2.939722 1_455
Hf5 I11 3.581263 1_555
B0 Hf2 2.267627 1_555
B0 Hf3 2.267627 1_444
B0 Hf1 2.267627 1_555
B0 Hf4 2.267627 1_444
B0 Hf5 2.267627 1_555
B0 Hf0 2.267627 1_444
