# generated using pymatgen
data_Ba3LiAs2H
_symmetry_space_group_name_H-M   'P 1'
_cell_length_a   4.71593730
_cell_length_b   12.82977356
_cell_length_c   13.36282087
_cell_angle_alpha   90.00000000
_cell_angle_beta   90.00000000
_cell_angle_gamma   90.00000000
_symmetry_Int_Tables_number   1
_chemical_formula_structural   Ba3LiAs2H
_chemical_formula_sum   'Ba12 Li4 As8 H4'
_cell_volume   808.50956101
_cell_formula_units_Z   4
loop_
 _symmetry_equiv_pos_site_id
 _symmetry_equiv_pos_as_xyz
  1  'x, y, z'
loop_
 _atom_site_type_symbol
 _atom_site_label
 _atom_site_symmetry_multiplicity
 _atom_site_fract_x
 _atom_site_fract_y
 _atom_site_fract_z
 _atom_site_occupancy
  Ba  Ba0  1  0.25000000  0.06375065  0.62138945  1
  Ba  Ba1  1  0.25000000  0.56375065  0.87861055  1
  Ba  Ba2  1  0.75000000  0.93624935  0.37861055  1
  Ba  Ba3  1  0.75000000  0.43624935  0.12138945  1
  Ba  Ba4  1  0.25000000  0.20138737  0.30045780  1
  Ba  Ba5  1  0.25000000  0.70138737  0.19954220  1
  Ba  Ba6  1  0.75000000  0.79861263  0.69954220  1
  Ba  Ba7  1  0.75000000  0.29861263  0.80045780  1
  Ba  Ba8  1  0.25000000  0.37233180  0.56058599  1
  Ba  Ba9  1  0.25000000  0.87233180  0.93941401  1
  Ba  Ba10  1  0.75000000  0.62766820  0.43941401  1
  Ba  Ba11  1  0.75000000  0.12766820  0.06058599  1
  Li  Li0  1  0.25000000  0.13902594  0.85397375  1
  Li  Li1  1  0.25000000  0.63902594  0.64602625  1
  Li  Li2  1  0.75000000  0.86097406  0.14602625  1
  Li  Li3  1  0.75000000  0.36097406  0.35397375  1
  As  As0  1  0.25000000  0.30845536  0.98653996  1
  As  As1  1  0.25000000  0.80845536  0.51346004  1
  As  As2  1  0.75000000  0.69154464  0.01346004  1
  As  As3  1  0.75000000  0.19154464  0.48653996  1
  As  As4  1  0.25000000  0.46795660  0.32435502  1
  As  As5  1  0.25000000  0.96795660  0.17564498  1
  As  As6  1  0.75000000  0.53204340  0.67564498  1
  As  As7  1  0.75000000  0.03204340  0.82435502  1
  H  H0  1  0.25000000  0.23428707  0.73265425  1
  H  H1  1  0.25000000  0.73428707  0.76734575  1
  H  H2  1  0.75000000  0.76571293  0.26734575  1
  H  H3  1  0.75000000  0.26571293  0.23265425  1
loop_
_geom_bond_atom_site_label_1
_geom_bond_atom_site_label_2
_geom_bond_distance
_geom_bond_site_symmetry_2
Ba0 H0 2.645318 1_555
Ba1 H1 2.645318 1_555
Ba2 H2 2.645318 1_555
Ba3 H3 2.645318 1_555
Ba4 H3 2.657448 1_555
Ba4 H3 2.657448 1_455
Ba5 H2 2.657448 1_555
Ba5 H2 2.657448 1_455
Ba6 H1 2.657448 1_555
Ba6 H1 2.657448 1_655
Ba7 H0 2.657448 1_555
Ba7 H0 2.657448 1_655
Ba8 H0 2.902343 1_555
Ba9 H1 2.902343 1_555
Ba10 H2 2.902343 1_555
Ba11 H3 2.902343 1_555
As0 Li0 2.804143 1_555
As0 Ba3 3.390471 1_456
As0 Ba3 3.390471 1_556
As0 Ba7 3.429148 1_455
As0 Ba7 3.429148 1_555
As0 Ba11 3.452382 1_556
As0 Ba11 3.452382 1_456
As0 Ba1 3.578852 1_555
As1 Li1 2.804143 1_555
As1 Ba2 3.390471 1_555
As1 Ba2 3.390471 1_455
As1 Ba6 3.429148 1_455
As1 Ba6 3.429148 1_555
As1 Ba10 3.452382 1_455
As1 Ba10 3.452382 1_555
As1 Ba0 3.578852 1_565
As2 Li2 2.804143 1_555
As2 Ba1 3.390471 1_554
As2 Ba1 3.390471 1_654
As2 Ba5 3.429148 1_555
As2 Ba5 3.429148 1_655
As2 Ba9 3.452382 1_554
As2 Ba9 3.452382 1_654
As2 Ba3 3.578852 1_555
As3 Li3 2.804143 1_555
As3 Ba0 3.390471 1_655
As3 Ba0 3.390471 1_555
As3 Ba4 3.429148 1_555
As3 Ba4 3.429148 1_655
As3 Ba8 3.452382 1_555
As3 Ba8 3.452382 1_655
As3 Ba2 3.578852 1_545
As4 Li3 2.756917 1_455
As4 Li3 2.756917 1_555
As4 Ba8 3.386736 1_555
As4 Ba5 3.427964 1_555
As4 Ba4 3.434899 1_555
As4 Ba10 3.481756 1_455
As4 Ba10 3.481756 1_555
As4 Ba3 3.616834 1_455
As4 Ba3 3.616834 1_555
As5 Li2 2.756917 1_555
As5 Li2 2.756917 1_455
As5 Ba9 3.386736 1_554
As5 Ba4 3.427964 1_565
As5 Ba5 3.434899 1_555
As5 Ba11 3.481756 1_565
As5 Ba11 3.481756 1_465
As5 Ba2 3.616834 1_555
As5 Ba2 3.616834 1_455
As6 Li1 2.756917 1_555
As6 Li1 2.756917 1_655
As6 Ba10 3.386736 1_555
As6 Ba7 3.427964 1_555
As6 Ba6 3.434899 1_555
As6 Ba8 3.481756 1_555
As6 Ba8 3.481756 1_655
As6 Ba1 3.616834 1_655
As6 Ba1 3.616834 1_555
As7 Li0 2.756917 1_655
As7 Li0 2.756917 1_555
As7 Ba11 3.386736 1_556
As7 Ba6 3.427964 1_545
As7 Ba7 3.434899 1_555
As7 Ba9 3.481756 1_645
As7 Ba9 3.481756 1_545
As7 Ba0 3.616834 1_655
As7 Ba0 3.616834 1_555
H0 Li0 2.030250 1_555
H1 Li1 2.030250 1_555
H2 Li2 2.030250 1_555
H3 Li3 2.030250 1_555
