# generated using pymatgen
data_CaGaAsIr2
_symmetry_space_group_name_H-M   'P 1'
_cell_length_a   5.97106020
_cell_length_b   5.97106090
_cell_length_c   5.97105981
_cell_angle_alpha   139.15743874
_cell_angle_beta   139.15744605
_cell_angle_gamma   59.13486821
_symmetry_Int_Tables_number   1
_chemical_formula_structural   CaGaAsIr2
_chemical_formula_sum   'Ca1 Ga1 As1 Ir2'
_cell_volume   90.17238724
_cell_formula_units_Z   1
loop_
 _symmetry_equiv_pos_site_id
 _symmetry_equiv_pos_as_xyz
  1  'x, y, z'
loop_
 _atom_site_type_symbol
 _atom_site_label
 _atom_site_symmetry_multiplicity
 _atom_site_fract_x
 _atom_site_fract_y
 _atom_site_fract_z
 _atom_site_occupancy
  Ca  Ca0  1  0.99886104  0.99886104  0.00000000  1
  Ga  Ga0  1  0.62331727  0.62331727  1.00000000  1
  As  As0  1  0.37377210  0.37377210  0.00000000  1
  Ir  Ir0  1  0.75202329  0.25202329  0.50000000  1
  Ir  Ir1  1  0.25202329  0.75202329  0.50000000  1
loop_
_geom_bond_atom_site_label_1
_geom_bond_atom_site_label_2
_geom_bond_distance
_geom_bond_site_symmetry_2
Ca0 Ga0 3.217519 1_553
Ca0 Ga0 3.217520 1_665
Ca0 Ga0 3.217520 1_654
Ca0 Ga0 3.217520 1_564
Ca0 Ir0 3.303666 1_565
Ca0 Ir1 3.303666 1_655
Ca0 Ir1 3.303666 1_554
Ca0 Ir0 3.303666 1_554
Ca0 Ir1 3.354904 1_654
Ca0 Ir0 3.354904 1_564
Ca0 Ir0 3.354904 1_665
Ca0 Ir1 3.354905 1_665
Ga0 Ir1 2.475451 1_555
Ga0 Ir1 2.475451 1_656
Ga0 Ir0 2.475451 1_555
Ga0 Ir0 2.475452 1_566
As0 Ir0 2.437184 1_555
As0 Ir0 2.437184 1_454
As0 Ir1 2.437184 1_555
As0 Ir1 2.437184 1_544
As0 Ga0 2.592017 1_554
As0 Ca0 3.220165 1_444
As0 Ca0 3.220166 1_556
As0 Ca0 3.220166 1_545
As0 Ca0 3.220166 1_455
