# generated using pymatgen
data_AgHgIr2O7
_symmetry_space_group_name_H-M   'P 1'
_cell_length_a   7.19464472
_cell_length_b   7.20018964
_cell_length_c   7.19464603
_cell_angle_alpha   59.97451133
_cell_angle_beta   59.92273629
_cell_angle_gamma   59.97450618
_symmetry_Int_Tables_number   1
_chemical_formula_structural   AgHgIr2O7
_chemical_formula_sum   'Ag2 Hg2 Ir4 O14'
_cell_volume   263.28507529
_cell_formula_units_Z   2
loop_
 _symmetry_equiv_pos_site_id
 _symmetry_equiv_pos_as_xyz
  1  'x, y, z'
loop_
 _atom_site_type_symbol
 _atom_site_label
 _atom_site_symmetry_multiplicity
 _atom_site_fract_x
 _atom_site_fract_y
 _atom_site_fract_z
 _atom_site_occupancy
  Ag  Ag0  1  0.12500000  0.12500000  0.12500000  1
  Ag  Ag1  1  0.12500000  0.62500000  0.12500000  1
  Hg  Hg0  1  0.12500000  0.12500000  0.62500000  1
  Hg  Hg1  1  0.62500000  0.12500000  0.12500000  1
  Ir  Ir0  1  0.62500000  0.62500000  0.62500000  1
  Ir  Ir1  1  0.12500000  0.62500000  0.62500000  1
  Ir  Ir2  1  0.62500000  0.12500000  0.62500000  1
  Ir  Ir3  1  0.62500000  0.62500000  0.12500000  1
  O  O0  1  0.94884666  0.55397961  0.54855815  1
  O  O1  1  0.30115334  0.30138442  0.70144185  1
  O  O2  1  0.94681490  0.55318510  0.94681490  1
  O  O3  1  0.70144185  0.30138442  0.30115334  1
  O  O4  1  0.54855815  0.55397961  0.94884666  1
  O  O5  1  0.55123559  0.94876441  0.55123559  1
  O  O6  1  0.54855815  0.94861558  0.94884666  1
  O  O7  1  0.24308804  0.25691196  0.24308804  1
  O  O8  1  0.30115334  0.69602039  0.70144185  1
  O  O9  1  0.69876441  0.30123559  0.69876441  1
  O  O10  1  0.00691196  0.99308804  0.00691196  1
  O  O11  1  0.94884666  0.94861558  0.54855815  1
  O  O12  1  0.30318510  0.69681490  0.30318510  1
  O  O13  1  0.70144185  0.69602039  0.30115334  1
loop_
_geom_bond_atom_site_label_1
_geom_bond_atom_site_label_2
_geom_bond_distance
_geom_bond_site_symmetry_2
Ag0 O7 2.164345 1_555
Ag0 O10 2.164345 1_545
Ag0 O6 2.524284 1_544
Ag0 O3 2.524284 1_455
Ag0 O11 2.524285 1_445
Ag0 O1 2.524285 1_554
Ag0 O2 2.555076 1_454
Ag0 O12 2.555076 1_545
Ag1 O10 2.164345 1_555
Ag1 O7 2.164345 1_555
Ag1 O4 2.524284 1_554
Ag1 O13 2.524284 1_455
Ag1 O0 2.524285 1_455
Ag1 O8 2.524285 1_554
Ag1 O12 2.555076 1_555
Ag1 O2 2.555076 1_454
Hg0 O10 2.242716 1_546
Hg0 O7 2.242716 1_555
Hg0 O5 2.538565 1_545
Hg0 O9 2.538565 1_455
Hg0 O1 2.555388 1_555
Hg0 O11 2.555388 1_445
Hg0 O0 2.555388 1_455
Hg0 O8 2.555388 1_545
Hg1 O10 2.242715 1_645
Hg1 O7 2.242715 1_555
Hg1 O5 2.538565 1_545
Hg1 O9 2.538565 1_554
Hg1 O6 2.555388 1_544
Hg1 O3 2.555388 1_555
Hg1 O4 2.555389 1_554
Hg1 O13 2.555389 1_545
Ir0 O0 1.948681 1_555
Ir0 O8 1.948681 1_555
Ir0 O4 1.948681 1_555
Ir0 O13 1.948681 1_555
Ir0 O9 1.950307 1_555
Ir0 O5 1.950307 1_555
Ir1 O2 1.939527 1_455
Ir1 O12 1.939527 1_555
Ir1 O8 1.949059 1_555
Ir1 O0 1.949059 1_455
Ir1 O1 1.949059 1_555
Ir1 O11 1.949059 1_455
Ir2 O11 1.948681 1_545
Ir2 O1 1.948681 1_555
Ir2 O6 1.948681 1_545
Ir2 O3 1.948681 1_555
Ir2 O5 1.950307 1_545
Ir2 O9 1.950307 1_555
Ir3 O2 1.939526 1_554
Ir3 O12 1.939526 1_555
Ir3 O13 1.949059 1_555
Ir3 O4 1.949059 1_554
Ir3 O3 1.949059 1_555
Ir3 O6 1.949059 1_554
