# generated using pymatgen
data_Nb4IrRh3Se16
_symmetry_space_group_name_H-M   'P 1'
_cell_length_a   3.61118047
_cell_length_b   11.89836182
_cell_length_c   12.80994421
_cell_angle_alpha   89.97852520
_cell_angle_beta   90.00000000
_cell_angle_gamma   90.00000000
_symmetry_Int_Tables_number   1
_chemical_formula_structural   Nb4IrRh3Se16
_chemical_formula_sum   'Nb4 Ir1 Rh3 Se16'
_cell_volume   550.40652207
_cell_formula_units_Z   1
loop_
 _symmetry_equiv_pos_site_id
 _symmetry_equiv_pos_as_xyz
  1  'x, y, z'
loop_
 _atom_site_type_symbol
 _atom_site_label
 _atom_site_symmetry_multiplicity
 _atom_site_fract_x
 _atom_site_fract_y
 _atom_site_fract_z
 _atom_site_occupancy
  Nb  Nb0  1  0.00000000  0.05017219  0.99981809  1
  Nb  Nb1  1  0.50000000  0.95101727  0.49843702  1
  Nb  Nb2  1  0.00000000  0.26652748  0.49602754  1
  Nb  Nb3  1  0.50000000  0.73453199  0.99560644  1
  Ir  Ir0  1  0.50000000  0.24987962  0.99306542  1
  Rh  Rh0  1  0.00000000  0.52796524  0.99860150  1
  Rh  Rh1  1  0.50000000  0.47138407  0.49930441  1
  Rh  Rh2  1  0.00000000  0.74709335  0.49398602  1
  Se  Se0  1  0.50000000  0.10354708  0.13521484  1
  Se  Se1  1  0.00000000  0.89671394  0.63287223  1
  Se  Se2  1  0.50000000  0.15390287  0.60476735  1
  Se  Se3  1  0.00000000  0.84688111  0.10466191  1
  Se  Se4  1  0.50000000  0.32065258  0.36163535  1
  Se  Se5  1  0.00000000  0.67981561  0.86148960  1
  Se  Se6  1  0.50000000  0.43473141  0.89673663  1
  Se  Se7  1  0.00000000  0.56461021  0.39736989  1
  Se  Se8  1  0.00000000  0.06385060  0.39046066  1
  Se  Se9  1  0.50000000  0.93750124  0.89047736  1
  Se  Se10  1  0.00000000  0.19613495  0.86283748  1
  Se  Se11  1  0.50000000  0.80391537  0.36407647  1
  Se  Se12  1  0.00000000  0.34502904  0.09536466  1
  Se  Se13  1  0.50000000  0.65385005  0.59573168  1
  Se  Se14  1  0.00000000  0.41493210  0.62923941  1
  Se  Se15  1  0.50000000  0.58536064  0.12833506  1
loop_
_geom_bond_atom_site_label_1
_geom_bond_atom_site_label_2
_geom_bond_distance
_geom_bond_site_symmetry_2
Nb0 Se10 2.468385 1_555
Nb0 Se0 2.583124 1_456
Nb0 Se0 2.583124 1_556
Nb0 Se9 2.649639 1_545
Nb0 Se9 2.649639 1_445
Nb0 Se3 2.766238 1_546
Nb1 Se11 2.455213 1_555
Nb1 Se1 2.577295 1_555
Nb1 Se1 2.577295 1_655
Nb1 Se8 2.640893 1_565
Nb1 Se8 2.640893 1_665
Nb1 Se2 2.772214 1_565
Nb1 Rh2 3.025018 1_555
Nb1 Rh2 3.025018 1_655
Nb2 Se14 2.456041 1_555
Nb2 Se4 2.576396 1_455
Nb2 Se4 2.576396 1_555
Nb2 Se2 2.644768 1_455
Nb2 Se2 2.644768 1_555
Nb2 Se8 2.765252 1_555
Nb2 Rh1 3.033677 1_555
Nb2 Rh1 3.033677 1_455
Nb3 Se15 2.457402 1_556
Nb3 Se5 2.576134 1_555
Nb3 Se5 2.576134 1_655
Nb3 Se3 2.645771 1_656
Nb3 Se3 2.645771 1_556
Nb3 Se9 2.764668 1_555
Nb3 Rh0 3.049978 1_555
Nb3 Rh0 3.049978 1_655
Ir0 Se12 2.502047 1_656
Ir0 Se12 2.502047 1_556
Ir0 Se0 2.518906 1_556
Ir0 Se6 2.521537 1_555
Ir0 Se10 2.540239 1_655
Ir0 Se10 2.540239 1_555
Ir0 Nb0 2.985594 1_655
Ir0 Nb0 2.985594 1_555
Rh0 Se6 2.488890 1_555
Rh0 Se6 2.488890 1_455
Rh0 Se12 2.504432 1_556
Rh0 Se5 2.519319 1_555
Rh0 Se15 2.547394 1_456
Rh0 Se15 2.547394 1_556
Rh1 Se7 2.488881 1_555
Rh1 Se7 2.488881 1_655
Rh1 Se13 2.498247 1_555
Rh1 Se4 2.515733 1_555
Rh1 Se14 2.545763 1_655
Rh1 Se14 2.545763 1_555
Rh2 Se13 2.487704 1_555
Rh2 Se13 2.487704 1_455
Rh2 Se7 2.499623 1_555
Rh2 Se1 2.517323 1_555
Rh2 Se11 2.546714 1_455
Rh2 Se11 2.546714 1_555
