# generated using pymatgen
data_Hf2Zr8Sb7
_symmetry_space_group_name_H-M   'P 1'
_cell_length_a   5.86259173
_cell_length_b   8.62446510
_cell_length_c   8.62454548
_cell_angle_alpha   119.99987772
_cell_angle_beta   90.00018428
_cell_angle_gamma   89.99967003
_symmetry_Int_Tables_number   1
_chemical_formula_structural   Hf2Zr8Sb7
_chemical_formula_sum   'Hf2 Zr8 Sb7'
_cell_volume   377.64975181
_cell_formula_units_Z   1
loop_
 _symmetry_equiv_pos_site_id
 _symmetry_equiv_pos_as_xyz
  1  'x, y, z'
loop_
 _atom_site_type_symbol
 _atom_site_label
 _atom_site_symmetry_multiplicity
 _atom_site_fract_x
 _atom_site_fract_y
 _atom_site_fract_z
 _atom_site_occupancy
  Hf  Hf0  1  0.50000244  0.33333619  0.66666829  1
  Hf  Hf1  1  0.49999994  0.66665817  0.33333024  1
  Zr  Zr0  1  0.00000275  0.66666318  0.33332990  1
  Zr  Zr1  1  0.99999888  0.33333072  0.66666490  1
  Zr  Zr2  1  0.77389111  0.26789043  0.00001736  1
  Zr  Zr3  1  0.77388220  0.73212617  0.73210918  1
  Zr  Zr4  1  0.77388606  0.99998045  0.26787316  1
  Zr  Zr5  1  0.22611553  0.73213067  0.00002452  1
  Zr  Zr6  1  0.22611224  0.26789613  0.26786878  1
  Zr  Zr7  1  0.22611145  0.99998014  0.73210739  1
  Sb  Sb0  1  0.74312066  0.61268792  0.00000897  1
  Sb  Sb1  1  0.74312420  0.38731987  0.38731255  1
  Sb  Sb2  1  0.74312246  0.99999204  0.61268240  1
  Sb  Sb3  1  0.25687613  0.38731775  0.99999837  1
  Sb  Sb4  1  0.25686884  0.61268751  0.61267961  1
  Sb  Sb5  1  0.25687981  0.00000016  0.38732198  1
  Sb  Sb6  1  0.49999930  0.00000451  0.00000039  1
loop_
_geom_bond_atom_site_label_1
_geom_bond_atom_site_label_2
_geom_bond_distance
_geom_bond_site_symmetry_2
Hf0 Zr1 2.931275 1_555
Hf0 Zr1 2.931317 1_455
Hf0 Sb3 3.028957 1_555
Hf0 Sb5 3.028957 1_555
Hf0 Sb0 3.028988 1_556
Hf0 Sb2 3.028999 1_545
Hf0 Sb4 3.028999 1_555
Hf0 Sb1 3.029005 1_555
Hf1 Zr0 2.931279 1_555
Hf1 Zr0 2.931312 1_655
Hf1 Sb1 3.028845 1_555
Hf1 Sb0 3.028907 1_555
Hf1 Sb4 3.028921 1_555
Hf1 Sb3 3.028930 1_554
Hf1 Sb2 3.028963 1_555
Hf1 Sb5 3.028966 1_565
Sb0 Zr4 2.968158 1_555
Sb0 Zr3 2.968522 1_554
Sb0 Zr2 2.979196 1_555
Sb0 Zr5 3.013143 1_655
Sb0 Zr0 3.067675 1_655
Sb0 Zr1 3.067799 1_554
Sb0 Zr5 3.201233 1_555
Sb1 Zr2 2.968200 1_555
Sb1 Zr4 2.968510 1_545
Sb1 Zr3 2.979210 1_555
Sb1 Zr6 3.013096 1_655
Sb1 Zr0 3.067670 1_655
Sb1 Zr1 3.067761 1_555
Sb1 Zr6 3.201278 1_555
Sb2 Zr3 2.968155 1_555
Sb2 Zr2 2.968510 1_566
Sb2 Zr4 2.979238 1_555
Sb2 Zr7 3.013093 1_655
Sb2 Zr0 3.067712 1_655
Sb2 Zr1 3.067756 1_565
Sb2 Zr7 3.201266 1_555
Sb3 Zr6 2.968176 1_556
Sb3 Zr7 2.968494 1_545
Sb3 Zr5 2.979176 1_556
Sb3 Zr2 3.013094 1_456
Sb3 Zr0 3.067694 1_556
Sb3 Zr1 3.067722 1_455
Sb3 Zr2 3.201293 1_556
Sb4 Zr7 2.968146 1_555
Sb4 Zr5 2.968578 1_556
Sb4 Zr6 2.979207 1_555
Sb4 Zr3 3.013089 1_455
Sb4 Zr0 3.067653 1_555
Sb4 Zr1 3.067758 1_455
Sb4 Zr3 3.201287 1_555
Sb5 Zr5 2.968217 1_545
Sb5 Zr6 2.968572 1_555
Sb5 Zr7 2.979170 1_545
Sb5 Zr4 3.013143 1_445
Sb5 Zr1 3.067695 1_455
Sb5 Zr0 3.067720 1_545
Sb5 Zr4 3.201262 1_545
Sb6 Zr2 2.813512 1_555
Sb6 Zr6 2.813516 1_555
Sb6 Zr7 2.813529 1_544
Sb6 Zr3 2.813536 1_544
Sb6 Zr5 2.813545 1_545
Sb6 Zr4 2.813553 1_545
