# generated using pymatgen
data_TiN
_symmetry_space_group_name_H-M   'P 1'
_cell_length_a   3.00740502
_cell_length_b   3.00740548
_cell_length_c   75.09409944
_cell_angle_alpha   60.00802454
_cell_angle_beta   60.00801929
_cell_angle_gamma   60.09283140
_symmetry_Int_Tables_number   1
_chemical_formula_structural   TiN
_chemical_formula_sum   'Ti22 N22'
_cell_volume   480.65250374
_cell_formula_units_Z   22
loop_
 _symmetry_equiv_pos_site_id
 _symmetry_equiv_pos_as_xyz
  1  'x, y, z'
loop_
 _atom_site_type_symbol
 _atom_site_label
 _atom_site_symmetry_multiplicity
 _atom_site_fract_x
 _atom_site_fract_y
 _atom_site_fract_z
 _atom_site_occupancy
  Ti  Ti0  1  0.99013200  0.99013200  0.12118800  1
  Ti  Ti1  1  0.00496300  0.00496300  0.15940400  1
  Ti  Ti2  1  0.99752300  0.99752300  0.20028800  1
  Ti  Ti3  1  0.00144400  0.00144400  0.23980900  1
  Ti  Ti4  1  0.99912100  0.99912100  0.28012700  1
  Ti  Ti5  1  0.00037400  0.00037400  0.31992500  1
  Ti  Ti6  1  0.00059300  0.00059300  0.39994400  1
  Ti  Ti7  1  0.99948700  0.99948700  0.36005500  1
  Ti  Ti8  1  0.99950300  0.99950300  0.44003900  1
  Ti  Ti9  1  0.00031800  0.00031800  0.47997100  1
  Ti  Ti10  1  0.99994500  0.99994500  0.56000300  1
  Ti  Ti11  1  0.99983400  0.99983400  0.52001500  1
  Ti  Ti12  1  0.00011700  0.00011700  0.59999500  1
  Ti  Ti13  1  0.99963200  0.99963200  0.64003000  1
  Ti  Ti14  1  0.00075200  0.00075200  0.67994100  1
  Ti  Ti15  1  0.99887700  0.99887700  0.72007600  1
  Ti  Ti16  1  0.99907800  0.99907800  0.80008500  1
  Ti  Ti17  1  0.00125900  0.00125900  0.75991800  1
  Ti  Ti18  1  0.99992200  0.99992200  0.88005900  1
  Ti  Ti19  1  0.99997500  0.99997500  0.83997700  1
  Ti  Ti20  1  0.96656100  0.96656100  0.96403100  1
  Ti  Ti21  1  0.99709200  0.99709200  0.92033000  1
  N  N0  1  0.50693800  0.50693800  0.13917600  1
  N  N1  1  0.50107200  0.50107200  0.17987100  1
  N  N2  1  0.50107200  0.50107200  0.21987900  1
  N  N3  1  0.49947200  0.49947200  0.26006200  1
  N  N4  1  0.50013100  0.50013100  0.29998200  1
  N  N5  1  0.50022700  0.50022700  0.33999700  1
  N  N6  1  0.49985500  0.49985500  0.38000700  1
  N  N7  1  0.50021900  0.50021900  0.41999000  1
  N  N8  1  0.49985800  0.49985800  0.46000800  1
  N  N9  1  0.50012900  0.50012900  0.49999400  1
  N  N10  1  0.49989600  0.49989600  0.54000500  1
  N  N11  1  0.50008600  0.50008600  0.57999700  1
  N  N12  1  0.49996700  0.49996700  0.61999900  1
  N  N13  1  0.49999400  0.49999400  0.66000300  1
  N  N14  1  0.50002100  0.50002100  0.69999700  1
  N  N15  1  0.50006200  0.50006200  0.73999600  1
  N  N16  1  0.49966200  0.49966200  0.78000500  1
  N  N17  1  0.50019700  0.50019700  0.82000900  1
  N  N18  1  0.50067000  0.50067000  0.85991700  1
  N  N19  1  0.49907100  0.49907100  0.90009600  1
  N  N20  1  0.50854800  0.50854800  0.93897100  1
  N  N21  1  0.52635200  0.52635200  0.97682500  1
loop_
_geom_bond_atom_site_label_1
_geom_bond_atom_site_label_2
_geom_bond_distance
_geom_bond_site_symmetry_2
N0 Ti0 2.056417 1_555
N0 Ti0 2.058222 1_455
N0 Ti0 2.058222 1_545
N0 Ti1 2.133739 1_555
N0 Ti1 2.134691 1_565
N0 Ti1 2.134691 1_655
N1 Ti2 2.140493 1_445
N1 Ti2 2.141444 1_455
N1 Ti2 2.141444 1_545
N1 Ti1 2.141973 1_665
N1 Ti1 2.143394 1_655
N1 Ti1 2.143394 1_565
N2 Ti2 2.110345 1_555
N2 Ti2 2.112710 1_545
N2 Ti2 2.112710 1_455
N2 Ti3 2.123748 1_555
N2 Ti3 2.123843 1_565
N2 Ti3 2.123843 1_655
N3 Ti4 2.126815 1_445
N3 Ti4 2.129467 1_455
N3 Ti4 2.129467 1_545
N3 Ti3 2.133735 1_665
N3 Ti3 2.136029 1_655
N3 Ti3 2.136029 1_565
N4 Ti4 2.121049 1_555
N4 Ti4 2.121229 1_545
N4 Ti4 2.121229 1_455
N4 Ti5 2.124258 1_565
N4 Ti5 2.124258 1_655
N4 Ti5 2.124294 1_555
N5 Ti5 2.125949 1_665
N5 Ti7 2.128270 1_455
N5 Ti7 2.128270 1_545
N5 Ti7 2.128467 1_445
N5 Ti5 2.130272 1_655
N5 Ti5 2.130272 1_565
N6 Ti6 2.122188 1_555
N6 Ti7 2.123761 1_555
N6 Ti6 2.124992 1_565
N6 Ti6 2.124992 1_655
N6 Ti7 2.125000 1_545
N6 Ti7 2.125000 1_455
N7 Ti6 2.126911 1_665
N7 Ti8 2.127843 1_455
N7 Ti8 2.127843 1_545
N7 Ti8 2.128365 1_445
N7 Ti6 2.128409 1_655
N7 Ti6 2.128409 1_565
N8 Ti9 2.123368 1_555
N8 Ti8 2.123814 1_555
N8 Ti9 2.125778 1_565
N8 Ti9 2.125778 1_655
N8 Ti8 2.125873 1_545
N8 Ti8 2.125873 1_455
N9 Ti9 2.126125 1_665
N9 Ti11 2.126576 1_445
N9 Ti11 2.127250 1_455
N9 Ti11 2.127250 1_545
N9 Ti9 2.127581 1_655
N9 Ti9 2.127581 1_565
N10 Ti11 2.125059 1_555
N10 Ti10 2.125114 1_445
N10 Ti11 2.126364 1_545
N10 Ti11 2.126364 1_455
N10 Ti10 2.126761 1_455
N10 Ti10 2.126761 1_545
N11 Ti10 2.124723 1_555
N11 Ti12 2.125190 1_555
N11 Ti12 2.126722 1_565
N11 Ti12 2.126722 1_655
N11 Ti10 2.126744 1_545
N11 Ti10 2.126744 1_455
N12 Ti12 2.125960 1_665
N12 Ti12 2.126656 1_655
N12 Ti12 2.126656 1_565
N12 Ti13 2.126745 1_445
N12 Ti13 2.127696 1_455
N12 Ti13 2.127696 1_545
N13 Ti14 2.122103 1_555
N13 Ti13 2.123784 1_555
N13 Ti14 2.125087 1_565
N13 Ti14 2.125087 1_655
N13 Ti13 2.126100 1_545
N13 Ti13 2.126100 1_455
N14 Ti14 2.128183 1_655
N14 Ti14 2.128183 1_565
N14 Ti14 2.128429 1_665
N14 Ti15 2.128529 1_455
N14 Ti15 2.128529 1_545
N14 Ti15 2.130184 1_445
N15 Ti17 2.120237 1_555
N15 Ti15 2.120288 1_555
N15 Ti15 2.125043 1_545
N15 Ti15 2.125043 1_455
N15 Ti17 2.125175 1_565
N15 Ti17 2.125175 1_655
N16 Ti16 2.127806 1_445
N16 Ti17 2.127997 1_655
N16 Ti17 2.127997 1_565
N16 Ti16 2.129769 1_455
N16 Ti16 2.129769 1_545
N16 Ti17 2.132110 1_665
N17 Ti16 2.120568 1_555
N17 Ti19 2.124596 1_455
N17 Ti19 2.124596 1_545
N17 Ti16 2.125114 1_545
N17 Ti16 2.125114 1_455
N17 Ti19 2.126270 1_445
N18 Ti19 2.122371 1_555
N18 Ti19 2.125059 1_545
N18 Ti19 2.125059 1_455
N18 Ti18 2.128512 1_445
N18 Ti18 2.132715 1_455
N18 Ti18 2.132715 1_545
N19 Ti18 2.126921 1_545
N19 Ti18 2.126921 1_455
N19 Ti18 2.128939 1_555
N19 Ti21 2.133758 1_445
N19 Ti21 2.135002 1_455
N19 Ti21 2.135002 1_545
N20 Ti21 2.077774 1_555
N20 Ti21 2.080140 1_455
N20 Ti21 2.080140 1_545
N20 Ti20 2.317565 1_445
N20 Ti20 2.319809 1_455
N20 Ti20 2.319809 1_545
N21 Ti20 1.906007 1_455
N21 Ti20 1.906007 1_545
N21 Ti20 1.906021 1_555
