# generated using pymatgen
data_Sr2(CuAu2)3
_symmetry_space_group_name_H-M   'P 1'
_cell_length_a   8.66728216
_cell_length_b   8.66728199
_cell_length_c   8.66728117
_cell_angle_alpha   57.48185191
_cell_angle_beta   57.48185468
_cell_angle_gamma   57.48185189
_symmetry_Int_Tables_number   1
_chemical_formula_structural   Sr2(CuAu2)3
_chemical_formula_sum   'Sr4 Cu6 Au12'
_cell_volume   433.73138817
_cell_formula_units_Z   2
loop_
 _symmetry_equiv_pos_site_id
 _symmetry_equiv_pos_as_xyz
  1  'x, y, z'
loop_
 _atom_site_type_symbol
 _atom_site_label
 _atom_site_symmetry_multiplicity
 _atom_site_fract_x
 _atom_site_fract_y
 _atom_site_fract_z
 _atom_site_occupancy
  Sr  Sr0  1  0.90868317  0.90868317  0.90868317  1
  Sr  Sr1  1  0.40868317  0.40868317  0.40868317  1
  Sr  Sr2  1  0.09131683  0.09131683  0.09131683  1
  Sr  Sr3  1  0.59131683  0.59131683  0.59131683  1
  Cu  Cu0  1  0.57404108  0.75000000  0.92595892  1
  Cu  Cu1  1  0.92595892  0.57404108  0.75000000  1
  Cu  Cu2  1  0.75000000  0.92595892  0.57404108  1
  Cu  Cu3  1  0.42595892  0.25000000  0.07404108  1
  Cu  Cu4  1  0.07404108  0.42595892  0.25000000  1
  Cu  Cu5  1  0.25000000  0.07404108  0.42595892  1
  Au  Au0  1  0.47521918  0.86514659  0.20322887  1
  Au  Au1  1  0.20322887  0.47521918  0.86514659  1
  Au  Au2  1  0.86514659  0.20322887  0.47521918  1
  Au  Au3  1  0.70322887  0.36514659  0.97521918  1
  Au  Au4  1  0.97521918  0.70322887  0.36514659  1
  Au  Au5  1  0.36514659  0.97521918  0.70322887  1
  Au  Au6  1  0.52478082  0.13485341  0.79677113  1
  Au  Au7  1  0.79677113  0.52478082  0.13485341  1
  Au  Au8  1  0.13485341  0.79677113  0.52478082  1
  Au  Au9  1  0.29677113  0.63485341  0.02478082  1
  Au  Au10  1  0.02478082  0.29677113  0.63485341  1
  Au  Au11  1  0.63485341  0.02478082  0.29677113  1
loop_
_geom_bond_atom_site_label_1
_geom_bond_atom_site_label_2
_geom_bond_distance
_geom_bond_site_symmetry_2
Au0 Cu5 2.592636 1_565
Au0 Cu0 2.636558 1_554
Au0 Cu3 2.744039 1_565
Au0 Au7 2.843536 1_555
Au0 Au8 2.843536 1_555
Au0 Au6 2.942517 1_564
Au0 Au11 2.992699 1_565
Au0 Sr2 3.204384 1_565
Au0 Sr3 3.232338 1_555
Au0 Sr0 3.309250 1_554
Au0 Sr1 3.595875 1_555
Au1 Cu3 2.592636 1_556
Au1 Cu1 2.636558 1_455
Au1 Cu4 2.744039 1_556
Au1 Au8 2.843535 1_555
Au1 Au6 2.843536 1_555
Au1 Au7 2.942518 1_456
Au1 Au9 2.992698 1_556
Au1 Sr2 3.204384 1_556
Au1 Sr3 3.232338 1_555
Au1 Sr0 3.309250 1_455
Au1 Sr1 3.595875 1_555
Au2 Cu4 2.592637 1_655
Au2 Cu2 2.636558 1_545
Au2 Cu5 2.744039 1_655
Au2 Au7 2.843535 1_555
Au2 Au6 2.843536 1_555
Au2 Au8 2.942517 1_645
Au2 Sr2 3.204384 1_655
Au2 Sr3 3.232338 1_555
Au2 Sr0 3.309250 1_545
Au2 Sr1 3.595875 1_555
Au3 Cu1 2.592637 1_555
Au3 Cu3 2.636558 1_556
Au3 Cu0 2.744039 1_555
Au3 Au9 2.942518 1_556
Au3 Au7 2.992698 1_556
Au3 Sr3 3.204384 1_555
Au3 Sr2 3.232338 1_656
Au3 Sr1 3.309250 1_556
Au3 Sr0 3.595875 1_545
Au4 Cu2 2.592636 1_555
Au4 Cu4 2.636558 1_655
Au4 Cu1 2.744039 1_555
Au4 Au9 2.843536 1_655
Au4 Au8 2.992698 1_655
Au4 Sr3 3.204384 1_555
Au4 Sr2 3.232338 1_665
Au4 Sr1 3.309250 1_655
Au4 Sr0 3.595875 1_554
Au5 Cu0 2.592636 1_555
Au5 Cu5 2.636558 1_565
Au5 Cu2 2.744039 1_555
Au5 Au9 2.843536 1_556
Au5 Au6 2.992699 1_565
Au5 Sr3 3.204384 1_555
Au5 Sr2 3.232338 1_566
Au5 Sr1 3.309250 1_565
Au5 Sr0 3.595875 1_455
Au6 Cu2 2.592636 1_545
Au6 Cu3 2.636558 1_556
Au6 Cu0 2.744039 1_545
Au6 Sr0 3.204384 1_545
Au6 Sr1 3.232338 1_555
Au6 Sr2 3.309250 1_556
Au6 Sr3 3.595875 1_555
Au7 Cu0 2.592636 1_554
Au7 Cu4 2.636558 1_655
Au7 Cu1 2.744039 1_554
Au7 Sr0 3.204384 1_554
Au7 Sr1 3.232338 1_555
Au7 Sr2 3.309250 1_655
Au7 Sr3 3.595875 1_555
Au8 Cu1 2.592637 1_455
Au8 Cu5 2.636558 1_565
Au8 Cu2 2.744039 1_455
Au8 Sr0 3.204384 1_455
Au8 Sr1 3.232338 1_555
Au8 Sr2 3.309250 1_565
Au8 Sr3 3.595875 1_555
Au9 Cu4 2.592637 1_555
Au9 Cu0 2.636558 1_554
Au9 Cu3 2.744039 1_555
Au9 Sr1 3.204384 1_555
Au9 Sr0 3.232338 1_454
Au9 Sr3 3.309250 1_554
Au9 Sr2 3.595875 1_565
Au10 Cu5 2.592636 1_555
Au10 Cu1 2.636558 1_455
Au10 Cu4 2.744039 1_555
Au10 Au3 2.843536 1_455
Au10 Au5 2.843536 1_545
Au10 Au4 2.942517 1_455
Au10 Au2 2.992698 1_455
Au10 Sr1 3.204384 1_555
Au10 Sr0 3.232338 1_445
Au10 Sr3 3.309250 1_455
Au10 Sr2 3.595875 1_556
Au11 Cu3 2.592636 1_555
Au11 Cu2 2.636558 1_545
Au11 Cu5 2.744039 1_555
Au11 Au3 2.843536 1_554
Au11 Au4 2.843536 1_545
Au11 Au5 2.942517 1_545
Au11 Sr1 3.204384 1_555
Au11 Sr0 3.232338 1_544
Au11 Sr3 3.309250 1_545
Au11 Sr2 3.595875 1_655
