# generated using pymatgen
data_Ga(SbCl)4
_symmetry_space_group_name_H-M   'P 1'
_cell_length_a   10.13157400
_cell_length_b   13.52340200
_cell_length_c   18.30142300
_cell_angle_alpha   90.00000000
_cell_angle_beta   90.00000000
_cell_angle_gamma   90.00000000
_symmetry_Int_Tables_number   1
_chemical_formula_structural   Ga(SbCl)4
_chemical_formula_sum   'Ga8 Sb32 Cl32'
_cell_volume   2507.53924013
_cell_formula_units_Z   8
loop_
 _symmetry_equiv_pos_site_id
 _symmetry_equiv_pos_as_xyz
  1  'x, y, z'
loop_
 _atom_site_type_symbol
 _atom_site_label
 _atom_site_symmetry_multiplicity
 _atom_site_fract_x
 _atom_site_fract_y
 _atom_site_fract_z
 _atom_site_occupancy
  Ga  Ga0  1  0.53649300  0.37787100  0.81918500  1
  Ga  Ga1  1  0.46350700  0.87787100  0.18081500  1
  Ga  Ga2  1  0.96350700  0.37787100  0.31918500  1
  Ga  Ga3  1  0.03649300  0.87787100  0.68081500  1
  Ga  Ga4  1  0.51254000  0.06540300  0.50224000  1
  Ga  Ga5  1  0.48746000  0.56540300  0.49776000  1
  Ga  Ga6  1  0.98746000  0.06540300  0.00224000  1
  Ga  Ga7  1  0.01254000  0.56540300  0.99776000  1
  Sb  Sb0  1  0.88960600  0.17814500  0.67695400  1
  Sb  Sb1  1  0.11039400  0.67814500  0.32304600  1
  Sb  Sb2  1  0.61039400  0.17814500  0.17695400  1
  Sb  Sb3  1  0.38960600  0.67814500  0.82304600  1
  Sb  Sb4  1  0.06143700  0.23957200  0.55089100  1
  Sb  Sb5  1  0.93856300  0.73957200  0.44910900  1
  Sb  Sb6  1  0.43856300  0.23957200  0.05089100  1
  Sb  Sb7  1  0.56143700  0.73957200  0.94910900  1
  Sb  Sb8  1  0.96774700  0.31878000  0.79125500  1
  Sb  Sb9  1  0.03225300  0.81878000  0.20874500  1
  Sb  Sb10  1  0.53225300  0.31878000  0.29125500  1
  Sb  Sb11  1  0.46774700  0.81878000  0.70874500  1
  Sb  Sb12  1  0.05067100  0.45609000  0.56513600  1
  Sb  Sb13  1  0.94932900  0.95609000  0.43486400  1
  Sb  Sb14  1  0.44932900  0.45609000  0.06513600  1
  Sb  Sb15  1  0.55067100  0.95609000  0.93486400  1
  Sb  Sb16  1  0.17900800  0.22570200  0.69665200  1
  Sb  Sb17  1  0.82099200  0.72570200  0.30334800  1
  Sb  Sb18  1  0.32099200  0.22570200  0.19665200  1
  Sb  Sb19  1  0.67900800  0.72570200  0.80334800  1
  Sb  Sb20  1  0.87434300  0.47939100  0.69580300  1
  Sb  Sb21  1  0.12565700  0.97939100  0.30419700  1
  Sb  Sb22  1  0.62565700  0.47939100  0.19580300  1
  Sb  Sb23  1  0.37434300  0.97939100  0.80419700  1
  Sb  Sb24  1  0.79805400  0.33844400  0.58219800  1
  Sb  Sb25  1  0.20194600  0.83844400  0.41780200  1
  Sb  Sb26  1  0.70194600  0.33844400  0.08219800  1
  Sb  Sb27  1  0.29805400  0.83844400  0.91780200  1
  Sb  Sb28  1  0.16833400  0.44101300  0.71098300  1
  Sb  Sb29  1  0.83166600  0.94101300  0.28901700  1
  Sb  Sb30  1  0.33166600  0.44101300  0.21098300  1
  Sb  Sb31  1  0.66833400  0.94101300  0.78901700  1
  Cl  Cl0  1  0.53832800  0.90435900  0.49707700  1
  Cl  Cl1  1  0.46167200  0.40435900  0.50292300  1
  Cl  Cl2  1  0.96167200  0.90435900  0.99707700  1
  Cl  Cl3  1  0.03832800  0.40435900  0.00292300  1
  Cl  Cl4  1  0.34629700  0.37663500  0.87773300  1
  Cl  Cl5  1  0.65370300  0.87663500  0.12226700  1
  Cl  Cl6  1  0.15370300  0.37663500  0.37773300  1
  Cl  Cl7  1  0.84629700  0.87663500  0.62226700  1
  Cl  Cl8  1  0.60150600  0.22491700  0.80135200  1
  Cl  Cl9  1  0.39849400  0.72491700  0.19864800  1
  Cl  Cl10  1  0.89849400  0.22491700  0.30135200  1
  Cl  Cl11  1  0.10150600  0.72491700  0.69864800  1
  Cl  Cl12  1  0.32534900  0.10771700  0.44765700  1
  Cl  Cl13  1  0.67465100  0.60771700  0.55234300  1
  Cl  Cl14  1  0.17465100  0.10771700  0.94765700  1
  Cl  Cl15  1  0.82534900  0.60771700  0.05234300  1
  Cl  Cl16  1  0.51099800  0.11731200  0.61667300  1
  Cl  Cl17  1  0.48900200  0.61731200  0.38332700  1
  Cl  Cl18  1  0.98900200  0.11731200  0.11667300  1
  Cl  Cl19  1  0.01099800  0.61731200  0.88332700  1
  Cl  Cl20  1  0.67928700  0.13844700  0.44537600  1
  Cl  Cl21  1  0.32071300  0.63844700  0.55462400  1
  Cl  Cl22  1  0.82071300  0.13844700  0.94537600  1
  Cl  Cl23  1  0.17928700  0.63844700  0.05462400  1
  Cl  Cl24  1  0.51109900  0.45171400  0.71228300  1
  Cl  Cl25  1  0.48890100  0.95171400  0.28771700  1
  Cl  Cl26  1  0.98890100  0.45171400  0.21228300  1
  Cl  Cl27  1  0.01109900  0.95171400  0.78771700  1
  Cl  Cl28  1  0.68346600  0.46156800  0.88283100  1
  Cl  Cl29  1  0.31653400  0.96156800  0.11716900  1
  Cl  Cl30  1  0.81653400  0.46156800  0.38283100  1
  Cl  Cl31  1  0.18346600  0.96156800  0.61716900  1
loop_
_geom_bond_atom_site_label_1
_geom_bond_atom_site_label_2
_geom_bond_distance
_geom_bond_site_symmetry_2
Sb0 Sb24 2.926948 1_555
Sb0 Sb8 2.935947 1_555
Sb0 Sb4 3.007278 1_655
Sb0 Sb16 3.023372 1_655
Sb1 Sb25 2.926948 1_555
Sb1 Sb9 2.935947 1_555
Sb1 Sb5 3.007278 1_455
Sb1 Sb17 3.023372 1_455
Sb2 Sb26 2.926948 1_555
Sb2 Sb6 3.007278 1_555
Sb3 Sb7 3.007278 1_555
Sb10 Sb2 2.935947 1_555
Sb10 Sb22 2.943610 1_555
Sb10 Sb30 3.003456 1_555
Sb10 Sb18 3.027108 1_555
Sb11 Sb3 2.935947 1_555
Sb11 Sb23 2.943610 1_555
Sb11 Sb31 3.003456 1_555
Sb11 Sb19 3.027108 1_555
Sb12 Sb28 2.930422 1_555
Sb12 Sb4 2.941666 1_555
Sb12 Sb20 3.001593 1_455
Sb12 Sb24 3.029731 1_455
Sb13 Sb29 2.930422 1_555
Sb13 Sb5 2.941666 1_555
Sb13 Sb21 3.001593 1_655
Sb13 Sb25 3.029731 1_655
Sb14 Sb30 2.930422 1_555
Sb14 Sb6 2.941666 1_555
Sb14 Sb22 3.001593 1_555
Sb14 Sb26 3.029731 1_555
Sb15 Sb31 2.930422 1_555
Sb15 Sb7 2.941666 1_555
Sb15 Sb23 3.001593 1_555
Sb15 Sb27 3.029731 1_555
Sb16 Sb28 2.925525 1_555
Sb16 Sb4 2.927518 1_555
Sb16 Sb8 3.027108 1_455
Sb17 Sb29 2.925525 1_555
Sb17 Sb5 2.927518 1_555
Sb17 Sb9 3.027108 1_655
Sb18 Sb30 2.925525 1_555
Sb18 Sb6 2.927518 1_555
Sb18 Sb2 3.023372 1_555
Sb19 Sb31 2.925525 1_555
Sb19 Sb7 2.927518 1_555
Sb19 Sb3 3.023372 1_555
Sb20 Sb24 2.924613 1_555
Sb20 Sb8 2.943610 1_555
Sb20 Sb28 3.036207 1_655
Sb21 Sb25 2.924613 1_555
Sb21 Sb9 2.943610 1_555
Sb21 Sb29 3.036207 1_455
Sb22 Sb26 2.924613 1_555
Sb22 Sb30 3.036207 1_555
Sb23 Sb27 2.924613 1_555
Sb23 Sb31 3.036207 1_555
Sb24 Sb4 3.039226 1_655
Sb25 Sb5 3.039226 1_455
Sb26 Sb6 3.039226 1_555
Sb27 Sb3 2.926948 1_555
Sb27 Sb7 3.039226 1_555
Sb28 Sb8 3.003456 1_455
Sb29 Sb9 3.003456 1_655
Cl0 Ga4 2.195513 1_565
Cl1 Ga5 2.195513 1_555
Cl2 Ga6 2.195513 1_566
Cl3 Ga7 2.195513 1_554
Cl4 Ga0 2.204923 1_555
Cl5 Ga1 2.204923 1_555
Cl6 Ga2 2.204923 1_455
Cl7 Ga3 2.204923 1_655
Cl8 Ga0 2.195200 1_555
Cl9 Ga1 2.195200 1_555
Cl10 Ga2 2.195200 1_555
Cl11 Ga3 2.195200 1_555
Cl12 Ga4 2.218604 1_555
Cl13 Ga5 2.218604 1_555
Cl14 Ga6 2.218604 1_456
Cl15 Ga7 2.218604 1_654
Cl16 Ga4 2.208861 1_555
Cl17 Ga5 2.208861 1_555
Cl18 Ga6 2.208861 1_555
Cl19 Ga7 2.208861 1_555
Cl20 Ga4 2.216506 1_555
Cl21 Ga5 2.216506 1_555
Cl22 Ga6 2.216506 1_556
Cl23 Ga7 2.216506 1_554
Cl24 Ga0 2.211593 1_555
Cl25 Ga1 2.211593 1_555
Cl26 Ga2 2.211593 1_555
Cl27 Ga3 2.211593 1_555
Cl28 Ga0 2.203460 1_555
Cl29 Ga1 2.203460 1_555
Cl30 Ga2 2.203460 1_555
Cl31 Ga3 2.203460 1_555
