# generated using pymatgen
data_KAuSe5
_symmetry_space_group_name_H-M   'P 1'
_cell_length_a   11.15144449
_cell_length_b   11.15144449
_cell_length_c   11.15144449
_cell_angle_alpha   130.48801478
_cell_angle_beta   118.40494774
_cell_angle_gamma   82.81987136
_symmetry_Int_Tables_number   1
_chemical_formula_structural   KAuSe5
_chemical_formula_sum   'K4 Au4 Se20'
_cell_volume   891.96356401
_cell_formula_units_Z   4
loop_
 _symmetry_equiv_pos_site_id
 _symmetry_equiv_pos_as_xyz
  1  'x, y, z'
loop_
 _atom_site_type_symbol
 _atom_site_label
 _atom_site_symmetry_multiplicity
 _atom_site_fract_x
 _atom_site_fract_y
 _atom_site_fract_z
 _atom_site_occupancy
  K  K0  1  0.50000000  0.50000000  0.00000000  1
  K  K1  1  0.00000000  0.00000000  0.00000000  1
  K  K2  1  0.75000000  0.25000000  0.50000000  1
  K  K3  1  0.25000000  0.75000000  0.50000000  1
  Au  Au0  1  0.61889200  0.75000000  0.86889200  1
  Au  Au1  1  0.88110800  0.75000000  0.13110800  1
  Au  Au2  1  0.38110800  0.25000000  0.13110800  1
  Au  Au3  1  0.11889200  0.25000000  0.86889200  1
  Se  Se0  1  0.21928100  0.14461100  0.67380300  1
  Se  Se1  1  0.28071900  0.95452200  0.92533000  1
  Se  Se2  1  0.02919200  0.35538900  0.07467000  1
  Se  Se3  1  0.47080800  0.54547800  0.32619700  1
  Se  Se4  1  0.78071900  0.85538900  0.32619700  1
  Se  Se5  1  0.71928100  0.04547800  0.07467000  1
  Se  Se6  1  0.97080800  0.64461100  0.92533000  1
  Se  Se7  1  0.52919200  0.45452200  0.67380300  1
  Se  Se8  1  0.94127200  0.84302300  0.55391300  1
  Se  Se9  1  0.55872800  0.11264100  0.90175100  1
  Se  Se10  1  0.21089100  0.65697700  0.09824900  1
  Se  Se11  1  0.28910900  0.38735900  0.44608700  1
  Se  Se12  1  0.05872800  0.15697700  0.44608700  1
  Se  Se13  1  0.44127200  0.88735900  0.09824900  1
  Se  Se14  1  0.78911000  0.34302300  0.90175100  1
  Se  Se15  1  0.71089100  0.61264100  0.55391300  1
  Se  Se16  1  0.64500700  0.08187100  0.72687800  1
  Se  Se17  1  0.85499300  0.58187100  0.43686400  1
  Se  Se18  1  0.14500700  0.41812900  0.56313600  1
  Se  Se19  1  0.35499300  0.91812900  0.27312200  1
loop_
_geom_bond_atom_site_label_1
_geom_bond_atom_site_label_2
_geom_bond_distance
_geom_bond_site_symmetry_2
K0 Se7 3.504970 1_554
K0 Se3 3.504970 1_555
K0 Se4 3.504970 1_555
K0 Se0 3.504970 1_554
K0 Se10 3.757395 1_555
K0 Se14 3.757406 1_554
K0 Se13 3.757406 1_555
K0 Se9 3.757406 1_554
K1 Se6 3.504970 1_444
K1 Se1 3.504970 1_544
K1 Se5 3.504970 1_455
K1 Se2 3.504970 1_555
K1 Se11 3.757402 1_555
K1 Se15 3.757402 1_444
K1 Se8 3.757406 1_444
K1 Se12 3.757406 1_555
K2 Se6 3.523855 1_555
K2 Se5 3.523855 1_555
K2 Se7 3.523855 1_555
K2 Se4 3.523855 1_545
K2 Se15 3.681948 1_555
K2 Se12 3.681949 1_655
K2 Se14 3.681949 1_555
K2 Se13 3.681949 1_545
K3 Se3 3.523855 1_555
K3 Se2 3.523855 1_555
K3 Se1 3.523855 1_555
K3 Se0 3.523855 1_565
K3 Se11 3.681948 1_555
K3 Se8 3.681949 1_455
K3 Se9 3.681949 1_565
K3 Se10 3.681954 1_555
Au0 Se5 2.456703 1_566
Au0 Se7 2.456703 1_555
Au0 Au1 2.994299 1_556
Au1 Se4 2.456703 1_555
Au1 Se6 2.456703 1_554
Au2 Se3 2.456703 1_555
Au2 Se1 2.456703 1_544
Au2 Au3 2.994299 1_554
Au3 Se0 2.456703 1_555
Au3 Se2 2.456703 1_556
Se0 Se12 2.395913 1_555
Se1 Se13 2.395913 1_556
Se4 Se8 2.395913 1_555
Se5 Se9 2.395913 1_554
Se10 Se19 2.383248 1_555
Se10 Se6 2.395922 1_454
Se11 Se18 2.383243 1_555
Se11 Se7 2.395921 1_555
Se12 Se18 2.383253 1_555
Se13 Se19 2.383253 1_555
Se14 Se16 2.383253 1_555
Se14 Se2 2.395913 1_656
Se15 Se17 2.383243 1_555
Se15 Se3 2.395921 1_555
Se16 Se9 2.383253 1_555
Se17 Se8 2.383253 1_555
