# generated using pymatgen
data_Ta4B2PW
_symmetry_space_group_name_H-M   'P 1'
_cell_length_a   7.17996190
_cell_length_b   7.17996281
_cell_length_c   7.17996262
_cell_angle_alpha   129.58581303
_cell_angle_beta   129.58582038
_cell_angle_gamma   74.06977905
_symmetry_Int_Tables_number   1
_chemical_formula_structural   Ta4B2PW
_chemical_formula_sum   'Ta8 B4 P2 W2'
_cell_volume   214.37454438
_cell_formula_units_Z   2
loop_
 _symmetry_equiv_pos_site_id
 _symmetry_equiv_pos_as_xyz
  1  'x, y, z'
loop_
 _atom_site_type_symbol
 _atom_site_label
 _atom_site_symmetry_multiplicity
 _atom_site_fract_x
 _atom_site_fract_y
 _atom_site_fract_z
 _atom_site_occupancy
  Ta  Ta0  1  0.80790971  0.30790971  0.83409650  1
  Ta  Ta1  1  0.19209029  0.69209029  0.16590350  1
  Ta  Ta2  1  0.47381221  0.97381221  0.16590350  1
  Ta  Ta3  1  0.30790971  0.47381221  0.50000000  1
  Ta  Ta4  1  0.02618779  0.19209029  0.50000000  1
  Ta  Ta5  1  0.52618779  0.02618779  0.83409650  1
  Ta  Ta6  1  0.69209029  0.52618779  0.50000000  1
  Ta  Ta7  1  0.97381221  0.80790971  0.50000000  1
  B  B0  1  0.11988961  0.61988961  0.73977823  1
  B  B1  1  0.88011039  0.38011039  0.26022177  1
  B  B2  1  0.61988961  0.88011039  0.50000000  1
  B  B3  1  0.38011039  0.11988961  0.50000000  1
  P  P0  1  0.25000000  0.25000000  0.00000000  1
  P  P1  1  0.75000000  0.75000000  0.00000000  1
  W  W0  1  0.00000000  0.00000000  0.00000000  1
  W  W1  1  0.50000000  0.50000000  0.00000000  1
loop_
_geom_bond_atom_site_label_1
_geom_bond_atom_site_label_2
_geom_bond_distance
_geom_bond_site_symmetry_2
Ta0 W1 2.792371 1_556
Ta0 W0 2.792371 1_656
Ta1 W1 2.792371 1_555
Ta1 W0 2.792371 1_565
Ta2 W0 2.792364 1_565
Ta2 W1 2.792365 1_555
Ta3 W1 2.792367 1_556
Ta3 W0 2.792367 1_555
Ta4 W1 2.792366 1_556
Ta4 W0 2.792367 1_555
Ta5 W0 2.792364 1_656
Ta5 W1 2.792365 1_556
Ta6 W1 2.792367 1_555
Ta6 W0 2.792367 1_666
Ta7 W1 2.792366 1_555
Ta7 W0 2.792367 1_666
B0 B1 2.073842 1_455
B0 Ta3 2.402063 1_555
B0 Ta7 2.402063 1_455
B0 Ta6 2.402070 1_455
B0 Ta4 2.402071 1_555
B0 W1 2.437558 1_556
B0 W0 2.437559 1_566
B0 Ta2 2.450113 1_556
B0 Ta1 2.450128 1_556
B1 Ta6 2.402063 1_555
B1 Ta4 2.402063 1_655
B1 Ta3 2.402070 1_655
B1 Ta7 2.402071 1_555
B1 W1 2.437558 1_555
B1 W0 2.437559 1_655
B1 Ta5 2.450113 1_554
B1 Ta0 2.450128 1_554
B2 B3 2.073851 1_565
B2 Ta2 2.402062 1_555
B2 Ta5 2.402062 1_565
B2 Ta1 2.402069 1_555
B2 Ta0 2.402070 1_565
B2 W0 2.437556 1_666
B2 W1 2.437557 1_555
B2 Ta7 2.450114 1_555
B2 Ta6 2.450114 1_555
B3 Ta5 2.402062 1_555
B3 Ta2 2.402062 1_545
B3 Ta0 2.402069 1_555
B3 Ta1 2.402070 1_545
B3 W0 2.437556 1_555
B3 W1 2.437557 1_556
B3 Ta4 2.450114 1_555
B3 Ta3 2.450114 1_555
P0 Ta0 2.599080 1_454
P0 Ta1 2.599081 1_555
P0 Ta6 2.599082 1_555
P0 Ta4 2.599082 1_554
P0 Ta7 2.599082 1_444
P0 Ta3 2.599082 1_555
P0 Ta5 2.599086 1_554
P0 Ta2 2.599086 1_545
P0 W1 2.865770 1_555
P0 W0 2.865770 1_555
P1 Ta1 2.599080 1_655
P1 Ta0 2.599081 1_554
P1 Ta3 2.599082 1_554
P1 Ta7 2.599082 1_555
P1 Ta4 2.599082 1_665
P1 Ta6 2.599082 1_554
P1 Ta2 2.599086 1_555
P1 Ta5 2.599086 1_564
P1 W1 2.865770 1_555
P1 W0 2.865770 1_665
