# generated using pymatgen
data_Hf4FeBi2
_symmetry_space_group_name_H-M   'P 1'
_cell_length_a   8.17970737
_cell_length_b   8.17970823
_cell_length_c   8.17970831
_cell_angle_alpha   95.95846055
_cell_angle_beta   95.95846426
_cell_angle_gamma   142.40895435
_symmetry_Int_Tables_number   1
_chemical_formula_structural   Hf4FeBi2
_chemical_formula_sum   'Hf8 Fe2 Bi4'
_cell_volume   316.05240806
_cell_formula_units_Z   2
loop_
 _symmetry_equiv_pos_site_id
 _symmetry_equiv_pos_as_xyz
  1  'x, y, z'
loop_
 _atom_site_type_symbol
 _atom_site_label
 _atom_site_symmetry_multiplicity
 _atom_site_fract_x
 _atom_site_fract_y
 _atom_site_fract_z
 _atom_site_occupancy
  Hf  Hf0  1  0.58054445  0.69337646  0.27392091  1
  Hf  Hf1  1  0.91945555  0.19337646  0.11283202  1
  Hf  Hf2  1  0.30662354  0.58054445  0.88716798  1
  Hf  Hf3  1  0.80662354  0.91945555  0.72607909  1
  Hf  Hf4  1  0.69337646  0.41945555  0.11283202  1
  Hf  Hf5  1  0.08054445  0.80662354  0.88716798  1
  Hf  Hf6  1  0.41945555  0.30662354  0.72607909  1
  Hf  Hf7  1  0.19337646  0.08054445  0.27392091  1
  Fe  Fe0  1  0.75000000  0.75000000  0.00000000  1
  Fe  Fe1  1  0.25000000  0.25000000  0.00000000  1
  Bi  Bi0  1  0.36136509  0.86136509  0.22273119  1
  Bi  Bi1  1  0.13863491  0.36136509  0.50000000  1
  Bi  Bi2  1  0.63863491  0.13863491  0.77726881  1
  Bi  Bi3  1  0.86136509  0.63863491  0.50000000  1
loop_
_geom_bond_atom_site_label_1
_geom_bond_atom_site_label_2
_geom_bond_distance
_geom_bond_site_symmetry_2
Fe0 Hf5 2.645539 1_654
Fe0 Hf2 2.645539 1_554
Fe0 Hf0 2.645539 1_555
Fe0 Hf3 2.645539 1_554
Fe0 Hf4 2.645539 1_555
Fe0 Hf7 2.645539 1_665
Fe0 Hf1 2.645539 1_565
Fe0 Hf6 2.645540 1_554
Fe1 Hf1 2.645539 1_455
Fe1 Hf4 2.645539 1_555
Fe1 Hf6 2.645539 1_554
Fe1 Hf7 2.645539 1_555
Fe1 Hf2 2.645539 1_554
Fe1 Hf3 2.645539 1_444
Fe1 Hf5 2.645539 1_544
Fe1 Hf0 2.645540 1_555
Bi0 Hf0 3.024134 1_555
Bi0 Hf7 3.024134 1_565
Bi0 Hf5 3.133155 1_554
Bi0 Hf2 3.133156 1_554
Bi0 Hf4 3.276351 1_455
Bi0 Hf1 3.276352 1_455
Bi0 Hf1 3.276356 1_565
Bi0 Hf4 3.276356 1_565
Bi1 Hf1 3.024135 1_455
Bi1 Hf2 3.024135 1_555
Bi1 Hf6 3.133149 1_555
Bi1 Hf7 3.133149 1_555
Bi1 Hf0 3.276351 1_555
Bi1 Hf3 3.276352 1_445
Bi1 Hf3 3.276352 1_555
Bi1 Hf0 3.276352 1_445
Bi2 Hf6 3.024134 1_555
Bi2 Hf3 3.024134 1_545
Bi2 Hf1 3.133155 1_556
Bi2 Hf4 3.133156 1_556
Bi2 Hf2 3.276351 1_655
Bi2 Hf5 3.276352 1_655
Bi2 Hf5 3.276356 1_545
Bi2 Hf2 3.276356 1_545
Bi3 Hf5 3.024135 1_655
Bi3 Hf4 3.024135 1_555
Bi3 Hf0 3.133149 1_555
Bi3 Hf3 3.133149 1_555
Bi3 Hf6 3.276351 1_555
Bi3 Hf7 3.276352 1_665
Bi3 Hf7 3.276352 1_555
Bi3 Hf6 3.276352 1_665
