# generated using pymatgen
data_YCuP2
_symmetry_space_group_name_H-M   'P 1'
_cell_length_a   3.71435018
_cell_length_b   3.71435073
_cell_length_c   9.77992033
_cell_angle_alpha   90.00000000
_cell_angle_beta   90.00000000
_cell_angle_gamma   90.00003991
_symmetry_Int_Tables_number   1
_chemical_formula_structural   YCuP2
_chemical_formula_sum   'Y2 Cu2 P4'
_cell_volume   134.92768614
_cell_formula_units_Z   2
loop_
 _symmetry_equiv_pos_site_id
 _symmetry_equiv_pos_as_xyz
  1  'x, y, z'
loop_
 _atom_site_type_symbol
 _atom_site_label
 _atom_site_symmetry_multiplicity
 _atom_site_fract_x
 _atom_site_fract_y
 _atom_site_fract_z
 _atom_site_occupancy
  Y  Y0  1  0.75000000  0.25000000  0.23112858  1
  Y  Y1  1  0.25000000  0.75000000  0.76887142  1
  Cu  Cu0  1  0.25000000  0.25000000  0.50000000  1
  Cu  Cu1  1  0.75000000  0.75000000  0.50000000  1
  P  P0  1  0.75000000  0.25000000  0.65215218  1
  P  P1  1  0.25000000  0.75000000  0.34784782  1
  P  P2  1  0.25000000  0.25000000  -0.00000000  1
  P  P3  1  0.75000000  0.75000000  0.00000000  1
loop_
_geom_bond_atom_site_label_1
_geom_bond_atom_site_label_2
_geom_bond_distance
_geom_bond_site_symmetry_2
Cu0 P0 2.379780 1_555
Cu0 P0 2.379780 1_455
Cu0 P1 2.379780 1_555
Cu0 P1 2.379780 1_545
Cu1 P1 2.379780 1_555
Cu1 P1 2.379780 1_655
Cu1 P0 2.379780 1_565
Cu1 P0 2.379780 1_555
P0 Y1 2.863779 1_545
P0 Y1 2.863779 1_655
P0 Y1 2.863780 1_555
P0 Y1 2.863780 1_645
P1 Y0 2.863779 1_455
P1 Y0 2.863779 1_565
P1 Y0 2.863780 1_465
P1 Y0 2.863780 1_555
P2 P3 2.626441 1_555
P2 P3 2.626441 1_445
P2 P3 2.626443 1_545
P2 P3 2.626443 1_455
P2 Y0 2.925507 1_555
P2 Y0 2.925507 1_455
P2 Y1 2.925508 1_554
P2 Y1 2.925508 1_544
P3 Y1 2.925507 1_654
P3 Y1 2.925507 1_554
P3 Y0 2.925508 1_555
P3 Y0 2.925508 1_565
