# generated using pymatgen
data_CuNi2Sn
_symmetry_space_group_name_H-M   'P 1'
_cell_length_a   4.22505070
_cell_length_b   4.22505070
_cell_length_c   4.22505070
_cell_angle_alpha   60.00000000
_cell_angle_beta   60.00000000
_cell_angle_gamma   60.00000000
_symmetry_Int_Tables_number   1
_chemical_formula_structural   CuNi2Sn
_chemical_formula_sum   'Cu1 Ni2 Sn1'
_cell_volume   53.33112882
_cell_formula_units_Z   1
loop_
 _symmetry_equiv_pos_site_id
 _symmetry_equiv_pos_as_xyz
  1  'x, y, z'
loop_
 _atom_site_type_symbol
 _atom_site_label
 _atom_site_symmetry_multiplicity
 _atom_site_fract_x
 _atom_site_fract_y
 _atom_site_fract_z
 _atom_site_occupancy
  Cu  Cu0  1  0.00000000  0.00000000  0.00000000  1
  Ni  Ni0  1  0.75000000  0.75000000  0.75000000  1
  Ni  Ni1  1  0.25000000  0.25000000  0.25000000  1
  Sn  Sn0  1  0.50000000  0.50000000  0.50000000  1
loop_
_geom_bond_atom_site_label_1
_geom_bond_atom_site_label_2
_geom_bond_distance
_geom_bond_site_symmetry_2
Cu0 Ni0 2.587305 1_454
Cu0 Ni1 2.587305 1_455
Cu0 Ni0 2.587305 1_544
Cu0 Ni1 2.587305 1_545
Cu0 Ni0 2.587305 1_445
Cu0 Ni1 2.587305 1_554
Cu0 Ni0 2.587305 1_444
Cu0 Ni1 2.587305 1_555
Ni0 Sn0 2.587305 1_565
Ni0 Sn0 2.587305 1_655
Ni0 Sn0 2.587305 1_555
Ni0 Sn0 2.587305 1_556
Ni1 Sn0 2.587305 1_545
Ni1 Sn0 2.587305 1_455
Ni1 Sn0 2.587305 1_555
Ni1 Sn0 2.587305 1_554
