# generated using pymatgen
data_BaNb6SnSe12
_symmetry_space_group_name_H-M   'P 1'
_cell_length_a   6.10149753
_cell_length_b   6.10149759
_cell_length_c   15.82807465
_cell_angle_alpha   90.00000000
_cell_angle_beta   90.00000000
_cell_angle_gamma   120.00000506
_symmetry_Int_Tables_number   1
_chemical_formula_structural   BaNb6SnSe12
_chemical_formula_sum   'Ba1 Nb6 Sn1 Se12'
_cell_volume   510.30706799
_cell_formula_units_Z   1
loop_
 _symmetry_equiv_pos_site_id
 _symmetry_equiv_pos_as_xyz
  1  'x, y, z'
loop_
 _atom_site_type_symbol
 _atom_site_label
 _atom_site_symmetry_multiplicity
 _atom_site_fract_x
 _atom_site_fract_y
 _atom_site_fract_z
 _atom_site_occupancy
  Ba  Ba0  1  0.00000000  0.00000000  0.50000000  1
  Nb  Nb0  1  0.00000000  0.00000000  0.76167797  1
  Nb  Nb1  1  0.00000000  0.00000000  0.23832203  1
  Nb  Nb2  1  0.33333300  0.66666700  0.23684196  1
  Nb  Nb3  1  0.66666700  0.33333300  0.76315804  1
  Nb  Nb4  1  0.66666700  0.33333300  0.23684196  1
  Nb  Nb5  1  0.33333300  0.66666700  0.76315804  1
  Sn  Sn0  1  0.00000000  0.00000000  0.00000000  1
  Se  Se0  1  0.33514320  1.00000000  0.13313731  1
  Se  Se1  1  1.00000000  0.33514320  0.13313731  1
  Se  Se2  1  0.66485680  0.66485680  0.13313731  1
  Se  Se3  1  0.33897118  0.33897118  0.65798316  1
  Se  Se4  1  0.66102882  0.66102882  0.34201684  1
  Se  Se5  1  0.66102882  1.00000000  0.65798316  1
  Se  Se6  1  1.00000000  0.66102882  0.65798316  1
  Se  Se7  1  0.00000000  0.66485680  0.86686269  1
  Se  Se8  1  0.33514320  0.33514320  0.86686269  1
  Se  Se9  1  0.00000000  0.33897118  0.34201684  1
  Se  Se10  1  0.33897118  0.00000000  0.34201684  1
  Se  Se11  1  0.66485680  0.00000000  0.86686269  1
loop_
_geom_bond_atom_site_label_1
_geom_bond_atom_site_label_2
_geom_bond_distance
_geom_bond_site_symmetry_2
Ba0 Se3 3.245062 1_555
Ba0 Se4 3.245062 1_445
Ba0 Se5 3.245062 1_445
Ba0 Se10 3.245062 1_555
Ba0 Se6 3.245062 1_445
Ba0 Se9 3.245062 1_555
Nb0 Se8 2.636913 1_555
Nb0 Se11 2.636913 1_455
Nb0 Se7 2.636913 1_545
Nb0 Se3 2.640343 1_555
Nb0 Se5 2.640343 1_445
Nb0 Se6 2.640343 1_445
Nb1 Se2 2.636913 1_445
Nb1 Se0 2.636913 1_545
Nb1 Se1 2.636913 1_455
Nb1 Se4 2.640343 1_445
Nb1 Se10 2.640343 1_555
Nb1 Se9 2.640343 1_555
Nb2 Se0 2.609304 1_555
Nb2 Se1 2.609306 1_455
Nb2 Se2 2.609309 1_555
Nb2 Se10 2.615141 1_565
Nb2 Se9 2.615143 1_555
Nb2 Se4 2.615146 1_555
Nb3 Se11 2.609304 1_555
Nb3 Se7 2.609306 1_655
Nb3 Se8 2.609309 1_555
Nb3 Se5 2.615141 1_545
Nb3 Se6 2.615143 1_555
Nb3 Se3 2.615146 1_555
Nb4 Se1 2.609304 1_555
Nb4 Se0 2.609306 1_545
Nb4 Se2 2.609309 1_555
Nb4 Se9 2.615141 1_655
Nb4 Se10 2.615143 1_555
Nb4 Se4 2.615146 1_555
Nb5 Se7 2.609304 1_555
Nb5 Se11 2.609306 1_565
Nb5 Se8 2.609309 1_555
Nb5 Se6 2.615141 1_455
Nb5 Se5 2.615143 1_555
Nb5 Se3 2.615146 1_555
Se0 Sn0 2.936368 1_565
Se1 Sn0 2.936368 1_655
Se2 Sn0 2.936368 1_665
Se7 Sn0 2.936368 1_566
Se8 Sn0 2.936368 1_556
Se11 Sn0 2.936368 1_656
