# generated using pymatgen
data_Ba2CaSb2
_symmetry_space_group_name_H-M   'P 1'
_cell_length_a   5.13841402
_cell_length_b   8.67569513
_cell_length_c   19.39360825
_cell_angle_alpha   90.00000000
_cell_angle_beta   90.00000000
_cell_angle_gamma   90.00000000
_symmetry_Int_Tables_number   1
_chemical_formula_structural   Ba2CaSb2
_chemical_formula_sum   'Ba8 Ca4 Sb8'
_cell_volume   864.55374246
_cell_formula_units_Z   4
loop_
 _symmetry_equiv_pos_site_id
 _symmetry_equiv_pos_as_xyz
  1  'x, y, z'
loop_
 _atom_site_type_symbol
 _atom_site_label
 _atom_site_symmetry_multiplicity
 _atom_site_fract_x
 _atom_site_fract_y
 _atom_site_fract_z
 _atom_site_occupancy
  Ba  Ba0  1  0.75000000  0.77871510  0.44909466  1
  Ba  Ba1  1  0.25000000  0.72128490  0.94909466  1
  Ba  Ba2  1  0.25000000  0.55512933  0.71309887  1
  Ba  Ba3  1  0.75000000  0.94487067  0.21309887  1
  Ba  Ba4  1  0.75000000  0.27871510  0.05090534  1
  Ba  Ba5  1  0.25000000  0.22128490  0.55090534  1
  Ba  Ba6  1  0.75000000  0.44487067  0.28690113  1
  Ba  Ba7  1  0.25000000  0.05512933  0.78690113  1
  Ca  Ca0  1  0.25000000  0.59650192  0.15459121  1
  Ca  Ca1  1  0.75000000  0.90349808  0.65459121  1
  Ca  Ca2  1  0.75000000  0.40349808  0.84540879  1
  Ca  Ca3  1  0.25000000  0.09650192  0.34540879  1
  Sb  Sb0  1  0.75000000  0.26179677  0.69047948  1
  Sb  Sb1  1  0.25000000  0.73820323  0.30952052  1
  Sb  Sb2  1  0.25000000  0.23820323  0.19047948  1
  Sb  Sb3  1  0.75000000  0.68719471  0.07641214  1
  Sb  Sb4  1  0.75000000  0.76179677  0.80952052  1
  Sb  Sb5  1  0.25000000  0.31280529  0.92358786  1
  Sb  Sb6  1  0.75000000  0.18719471  0.42358786  1
  Sb  Sb7  1  0.25000000  0.81280529  0.57641214  1
loop_
_geom_bond_atom_site_label_1
_geom_bond_atom_site_label_2
_geom_bond_distance
_geom_bond_site_symmetry_2
Ba0 Sb7 3.575608 1_655
Ba0 Sb7 3.575608 1_555
Ba0 Sb6 3.578202 1_565
Ba0 Sb1 3.748516 1_555
Ba0 Sb1 3.748516 1_655
Ba1 Sb3 3.575608 1_456
Ba1 Sb3 3.575608 1_556
Ba1 Sb5 3.578202 1_555
Ba1 Sb4 3.748516 1_455
Ba1 Sb4 3.748516 1_555
Ba2 Sb7 3.467642 1_555
Ba2 Sb0 3.642745 1_455
Ba2 Sb0 3.642745 1_555
Ba2 Sb4 3.648613 1_455
Ba2 Sb4 3.648613 1_555
Ba3 Sb3 3.467642 1_555
Ba3 Sb2 3.642745 1_565
Ba3 Sb2 3.642745 1_665
Ba3 Sb1 3.648613 1_655
Ba3 Sb1 3.648613 1_555
Ba4 Sb5 3.575608 1_554
Ba4 Sb5 3.575608 1_654
Ba4 Sb3 3.578202 1_555
Ba4 Sb2 3.748516 1_655
Ba4 Sb2 3.748516 1_555
Ba5 Sb6 3.575608 1_455
Ba5 Sb6 3.575608 1_555
Ba5 Sb7 3.578202 1_545
Ba5 Sb0 3.748516 1_455
Ba5 Sb0 3.748516 1_555
Ba6 Sb6 3.467642 1_555
Ba6 Sb1 3.642745 1_655
Ba6 Sb1 3.642745 1_555
Ba6 Sb2 3.648613 1_655
Ba6 Sb2 3.648613 1_555
Ba7 Sb5 3.467642 1_555
Ba7 Sb4 3.642745 1_445
Ba7 Sb4 3.642745 1_545
Ba7 Sb0 3.648613 1_455
Ba7 Sb0 3.648613 1_555
Ca0 Sb3 3.085239 1_455
Ca0 Sb3 3.085239 1_555
Ca0 Sb2 3.185456 1_555
Ca0 Sb1 3.246409 1_555
Ca1 Sb7 3.085239 1_555
Ca1 Sb7 3.085239 1_655
Ca1 Sb0 3.185456 1_565
Ca1 Sb4 3.246409 1_555
Ca2 Sb5 3.085239 1_555
Ca2 Sb5 3.085239 1_655
Ca2 Sb4 3.185456 1_555
Ca2 Sb0 3.246409 1_555
Ca3 Sb6 3.085239 1_555
Ca3 Sb6 3.085239 1_455
Ca3 Sb1 3.185456 1_545
Ca3 Sb2 3.246409 1_555
