# generated using pymatgen
data_Zr8IrPt3N2
_symmetry_space_group_name_H-M   'P 1'
_cell_length_a   8.83702436
_cell_length_b   8.83702434
_cell_length_c   8.83211008
_cell_angle_alpha   60.01839761
_cell_angle_beta   60.01839766
_cell_angle_gamma   60.04223573
_symmetry_Int_Tables_number   1
_chemical_formula_structural   Zr8IrPt3N2
_chemical_formula_sum   'Zr16 Ir2 Pt6 N4'
_cell_volume   488.00110096
_cell_formula_units_Z   2
loop_
 _symmetry_equiv_pos_site_id
 _symmetry_equiv_pos_as_xyz
  1  'x, y, z'
loop_
 _atom_site_type_symbol
 _atom_site_label
 _atom_site_symmetry_multiplicity
 _atom_site_fract_x
 _atom_site_fract_y
 _atom_site_fract_z
 _atom_site_occupancy
  Zr  Zr0  1  0.11588264  0.62978552  0.62716542  1
  Zr  Zr1  1  0.62978552  0.11588264  0.62716542  1
  Zr  Zr2  1  0.62756470  0.62756470  0.12043480  1
  Zr  Zr3  1  0.62756470  0.62756470  0.62443580  1
  Zr  Zr4  1  0.81763175  0.81763175  0.18236825  1
  Zr  Zr5  1  0.18200930  0.18200930  0.81799070  1
  Zr  Zr6  1  0.81769553  0.17888318  0.81801776  1
  Zr  Zr7  1  0.17888318  0.81769553  0.18540253  1
  Zr  Zr8  1  0.17888318  0.81769553  0.81801776  1
  Zr  Zr9  1  0.81769553  0.17888318  0.18540253  1
  Zr  Zr10  1  0.43270215  0.43270215  0.06729785  1
  Zr  Zr11  1  0.06696964  0.06696964  0.43303036  1
  Zr  Zr12  1  0.43313299  0.06757609  0.43240523  1
  Zr  Zr13  1  0.06757609  0.43313299  0.06688569  1
  Zr  Zr14  1  0.06757609  0.43313299  0.43240523  1
  Zr  Zr15  1  0.43313299  0.06757609  0.06688569  1
  Ir  Ir0  1  0.84605042  0.84605042  0.46242940  1
  Ir  Ir1  1  0.84605042  0.84605042  0.84546977  1
  Pt  Pt0  1  0.77906093  0.40637792  0.40728058  1
  Pt  Pt1  1  0.40637792  0.77906093  0.40728058  1
  Pt  Pt2  1  0.40750756  0.40750756  0.77670869  1
  Pt  Pt3  1  0.40750756  0.40750756  0.40827619  1
  Pt  Pt4  1  0.46687087  0.84405826  0.84453493  1
  Pt  Pt5  1  0.84405826  0.46687087  0.84453493  1
  N  N0  1  0.62408347  0.12621259  0.12485197  1
  N  N1  1  0.12621259  0.62408347  0.12485197  1
  N  N2  1  0.12576602  0.12576602  0.62395270  1
  N  N3  1  0.12576602  0.12576602  0.12451527  1
loop_
_geom_bond_atom_site_label_1
_geom_bond_atom_site_label_2
_geom_bond_distance
_geom_bond_site_symmetry_2
Ir0 Zr9 2.717440 1_565
Ir0 Zr7 2.717440 1_655
Ir0 Zr4 2.747577 1_555
Ir0 Zr1 2.755418 1_565
Ir0 Zr0 2.755418 1_655
Ir0 Zr3 2.775593 1_555
Ir1 Zr6 2.717436 1_565
Ir1 Zr8 2.717436 1_655
Ir1 Zr4 2.747577 1_556
Ir1 Zr1 2.755424 1_565
Ir1 Zr0 2.755424 1_655
Ir1 Zr2 2.775593 1_556
Pt0 Zr11 2.792182 1_655
Pt0 Zr14 2.797431 1_655
Pt0 Zr13 2.797432 1_655
Pt0 Zr3 2.803292 1_555
Pt0 Zr2 2.803292 1_555
Pt0 Zr1 2.817934 1_555
Pt1 Zr11 2.792182 1_565
Pt1 Zr12 2.797431 1_565
Pt1 Zr15 2.797432 1_565
Pt1 Zr3 2.803292 1_555
Pt1 Zr2 2.803292 1_555
Pt1 Zr0 2.817934 1_555
Pt2 Zr15 2.801719 1_556
Pt2 Zr13 2.801719 1_556
Pt2 Zr10 2.806753 1_556
Pt2 Zr3 2.814449 1_555
Pt2 Zr1 2.827996 1_555
Pt2 Zr0 2.827996 1_555
Pt3 Zr12 2.801719 1_555
Pt3 Zr14 2.801719 1_555
Pt3 Zr10 2.806753 1_555
Pt3 Zr2 2.814449 1_555
Pt3 Zr1 2.827991 1_555
Pt3 Zr0 2.827991 1_555
Pt4 Zr1 2.758799 1_565
Pt4 Zr5 2.773571 1_565
Pt4 Zr3 2.774949 1_555
Pt4 Zr2 2.774956 1_556
Pt4 Zr8 2.797908 1_555
Pt4 Zr7 2.797908 1_556
Pt5 Zr0 2.758799 1_655
Pt5 Zr5 2.773571 1_655
Pt5 Zr3 2.774949 1_555
Pt5 Zr2 2.774956 1_556
Pt5 Zr6 2.797908 1_555
Pt5 Zr9 2.797908 1_556
N0 Zr10 2.315779 1_555
N0 Zr15 2.319455 1_555
N0 Zr12 2.319455 1_555
N0 Zr9 2.321342 1_555
N0 Zr6 2.321349 1_554
N0 Zr4 2.333537 1_545
N1 Zr10 2.315779 1_555
N1 Zr13 2.319455 1_555
N1 Zr14 2.319455 1_555
N1 Zr7 2.321342 1_555
N1 Zr8 2.321349 1_554
N1 Zr4 2.333537 1_455
N2 Zr5 2.319566 1_555
N2 Zr14 2.320812 1_555
N2 Zr12 2.320812 1_555
N2 Zr11 2.324718 1_555
N2 Zr8 2.331079 1_545
N2 Zr6 2.331079 1_455
N3 Zr5 2.319566 1_554
N3 Zr13 2.320812 1_555
N3 Zr15 2.320812 1_555
N3 Zr11 2.324718 1_555
N3 Zr7 2.331081 1_545
N3 Zr9 2.331081 1_455
