# generated using pymatgen
data_Nd2UTe4
_symmetry_space_group_name_H-M   'P 1'
_cell_length_a   8.20592208
_cell_length_b   8.20592208
_cell_length_c   8.20592208
_cell_angle_alpha   109.34249239
_cell_angle_beta   109.34249239
_cell_angle_gamma   109.72898502
_symmetry_Int_Tables_number   1
_chemical_formula_structural   Nd2UTe4
_chemical_formula_sum   'Nd4 U2 Te8'
_cell_volume   425.35709271
_cell_formula_units_Z   2
loop_
 _symmetry_equiv_pos_site_id
 _symmetry_equiv_pos_as_xyz
  1  'x, y, z'
loop_
 _atom_site_type_symbol
 _atom_site_label
 _atom_site_symmetry_multiplicity
 _atom_site_fract_x
 _atom_site_fract_y
 _atom_site_fract_z
 _atom_site_occupancy
  Nd  Nd0  1  0.99957600  0.37500000  0.12457600  1
  Nd  Nd1  1  0.25042400  0.87500000  0.87542400  1
  Nd  Nd2  1  0.62500000  0.74957600  0.62457600  1
  Nd  Nd3  1  0.12500000  0.00042400  0.37542400  1
  U  U0  1  0.75000000  0.25000000  0.50000000  1
  U  U1  1  0.50000000  0.50000000  0.00000000  1
  Te  Te0  1  0.52989800  0.12952200  0.75055000  1
  Te  Te1  1  0.02934800  0.12897200  0.74945000  1
  Te  Te2  1  0.87047800  0.62102800  0.40037500  1
  Te  Te3  1  0.37952200  0.27989800  0.25055000  1
  Te  Te4  1  0.22065200  0.47010200  0.59962500  1
  Te  Te5  1  0.87102800  0.62047800  0.90037500  1
  Te  Te6  1  0.37897200  0.77934800  0.24945000  1
  Te  Te7  1  0.72010200  0.97065200  0.09962500  1
loop_
_geom_bond_atom_site_label_1
_geom_bond_atom_site_label_2
_geom_bond_distance
_geom_bond_site_symmetry_2
Nd0 Te2 3.213350 1_555
Nd0 Te1 3.213355 1_654
Nd0 Te6 3.226800 1_655
Nd0 Te7 3.226804 1_545
Nd0 Te0 3.340529 1_554
Nd0 Te5 3.340534 1_554
Nd0 Te3 3.382376 1_655
Nd0 Te4 3.382383 1_655
Nd1 Te4 3.213353 1_555
Nd1 Te3 3.213355 1_566
Nd1 Te5 3.226795 1_455
Nd1 Te0 3.226800 1_565
Nd1 Te6 3.340529 1_556
Nd1 Te7 3.340530 1_556
Nd1 Te1 3.382376 1_565
Nd1 Te2 3.382381 1_455
Nd2 Te5 3.213350 1_555
Nd2 Te6 3.213355 1_555
Nd2 Te1 3.226800 1_665
Nd2 Te4 3.226804 1_555
Nd2 Te3 3.340529 1_555
Nd2 Te2 3.340534 1_555
Nd2 Te0 3.382376 1_565
Nd2 Te7 3.382383 1_556
Nd3 Te7 3.213353 1_445
Nd3 Te0 3.213355 1_555
Nd3 Te2 3.226795 1_445
Nd3 Te3 3.226800 1_555
Nd3 Te1 3.340529 1_555
Nd3 Te4 3.340530 1_555
Nd3 Te6 3.382376 1_545
Nd3 Te5 3.382381 1_444
Te0 U1 3.194761 1_556
Te0 U0 3.326777 1_555
Te1 U0 3.194761 1_455
Te1 U1 3.326777 1_556
Te2 U1 3.194756 1_555
Te2 U0 3.326782 1_555
Te3 U0 3.194761 1_555
Te3 U1 3.326777 1_555
Te4 U1 3.194754 1_556
Te4 U0 3.326774 1_455
Te5 U0 3.194756 1_555
Te5 U1 3.326782 1_556
Te6 U1 3.194761 1_555
Te6 U0 3.326777 1_565
Te7 U0 3.194754 1_565
Te7 U1 3.326774 1_555
