# generated using pymatgen
data_HfZr5MnI12
_symmetry_space_group_name_H-M   'P 1'
_cell_length_a   9.31975141
_cell_length_b   9.34083616
_cell_length_c   9.30446085
_cell_angle_alpha   106.99673099
_cell_angle_beta   107.08260456
_cell_angle_gamma   107.22053491
_symmetry_Int_Tables_number   1
_chemical_formula_structural   HfZr5MnI12
_chemical_formula_sum   'Hf1 Zr5 Mn1 I12'
_cell_volume   672.72011925
_cell_formula_units_Z   1
loop_
 _symmetry_equiv_pos_site_id
 _symmetry_equiv_pos_as_xyz
  1  'x, y, z'
loop_
 _atom_site_type_symbol
 _atom_site_label
 _atom_site_symmetry_multiplicity
 _atom_site_fract_x
 _atom_site_fract_y
 _atom_site_fract_z
 _atom_site_occupancy
  Hf  Hf0  1  0.96932821  0.72049141  0.90677440  1
  Zr  Zr0  1  0.28437884  0.09464144  0.03107794  1
  Zr  Zr1  1  0.09466821  0.03157632  0.28488659  1
  Zr  Zr2  1  0.90525430  0.96909930  0.71560376  1
  Zr  Zr3  1  0.71646128  0.90511946  0.96918240  1
  Zr  Zr4  1  0.03126723  0.28597220  0.09471510  1
  Mn  Mn0  1  0.00032355  0.00238912  0.00088785  1
  I  I0  1  0.92294966  0.31076078  0.77372029  1
  I  I1  1  0.68737787  0.22332896  0.07601581  1
  I  I2  1  0.44839076  0.14669278  0.37434477  1
  I  I3  1  0.85643546  0.62583158  0.55599076  1
  I  I4  1  0.22512678  0.07685077  0.68798921  1
  I  I5  1  0.63053933  0.55177950  0.85418712  1
  I  I6  1  0.37476742  0.44776832  0.14609812  1
  I  I7  1  0.77361221  0.92193456  0.31109362  1
  I  I8  1  0.14634333  0.37356062  0.44854244  1
  I  I9  1  0.55112075  0.85228563  0.62604080  1
  I  I10  1  0.30633098  0.77276584  0.92255014  1
  I  I11  1  0.07532384  0.68715542  0.22029887  1
loop_
_geom_bond_atom_site_label_1
_geom_bond_atom_site_label_2
_geom_bond_distance
_geom_bond_site_symmetry_2
Hf0 Mn0 2.415938 1_666
Hf0 I3 2.878545 1_555
Hf0 I5 2.896139 1_555
Hf0 I11 2.933071 1_656
Hf0 I10 2.983904 1_655
Hf0 I0 3.507593 1_555
Mn0 Zr3 2.423412 1_444
Mn0 Zr2 2.429039 1_444
Mn0 Zr0 2.429127 1_555
Mn0 Zr1 2.429378 1_555
Mn0 Zr4 2.431008 1_555
I0 Zr4 2.960463 1_656
I0 Zr2 3.021873 1_545
I1 Zr3 2.967212 1_544
I1 Zr4 3.024389 1_655
I1 Zr0 3.440428 1_555
I2 Zr1 2.912466 1_555
I2 Zr0 2.925374 1_555
I3 Zr2 2.940902 1_555
I4 Zr2 2.964928 1_445
I4 Zr0 3.020418 1_556
I4 Zr1 3.437095 1_555
I5 Zr3 2.923433 1_555
I6 Zr0 2.914855 1_555
I6 Zr4 2.928287 1_555
I7 Zr1 2.970114 1_665
I7 Zr3 3.015273 1_554
I7 Zr2 3.444242 1_555
I8 Zr4 2.913657 1_555
I8 Zr1 2.927356 1_555
I9 Zr2 2.915163 1_555
I9 Zr3 2.924007 1_555
I10 Zr0 2.968454 1_566
I10 Zr3 3.498690 1_555
I11 Zr1 3.034221 1_565
I11 Zr4 3.438599 1_555
