# generated using pymatgen
data_Hf6IrBr15
_symmetry_space_group_name_H-M   'P 1'
_cell_length_a   9.33397375
_cell_length_b   9.33397409
_cell_length_c   9.33397383
_cell_angle_alpha   109.47122217
_cell_angle_beta   109.47122293
_cell_angle_gamma   109.47121759
_symmetry_Int_Tables_number   1
_chemical_formula_structural   Hf6IrBr15
_chemical_formula_sum   'Hf6 Ir1 Br15'
_cell_volume   626.00506972
_cell_formula_units_Z   1
loop_
 _symmetry_equiv_pos_site_id
 _symmetry_equiv_pos_as_xyz
  1  'x, y, z'
loop_
 _atom_site_type_symbol
 _atom_site_label
 _atom_site_symmetry_multiplicity
 _atom_site_fract_x
 _atom_site_fract_y
 _atom_site_fract_z
 _atom_site_occupancy
  Hf  Hf0  1  0.00000000  0.23598848  0.23598848  1
  Hf  Hf1  1  1.00000000  0.76401152  0.76401152  1
  Hf  Hf2  1  0.23598848  1.00000000  0.23598848  1
  Hf  Hf3  1  0.76401152  0.00000000  0.76401152  1
  Hf  Hf4  1  0.23598848  0.23598848  1.00000000  1
  Hf  Hf5  1  0.76401152  0.76401152  0.00000000  1
  Ir  Ir0  1  0.00000000  0.00000000  0.00000000  1
  Br  Br0  1  0.49682180  0.24841140  0.24841140  1
  Br  Br1  1  0.50317820  0.75158860  0.75158860  1
  Br  Br2  1  0.00000000  0.24841140  0.75158860  1
  Br  Br3  1  1.00000000  0.75158860  0.24841140  1
  Br  Br4  1  0.24841140  0.49682180  0.24841140  1
  Br  Br5  1  0.75158860  1.00000000  0.24841140  1
  Br  Br6  1  0.75158860  0.50317820  0.75158860  1
  Br  Br7  1  0.24841140  0.00000000  0.75158860  1
  Br  Br8  1  0.24841140  0.24841140  0.49682180  1
  Br  Br9  1  0.75158860  0.75158860  0.50317820  1
  Br  Br10  1  0.75158860  0.24841140  0.00000000  1
  Br  Br11  1  0.24841140  0.75158860  1.00000000  1
  Br  Br12  1  0.00000000  0.50000000  0.50000000  1
  Br  Br13  1  0.50000000  0.00000000  0.50000000  1
  Br  Br14  1  0.50000000  0.50000000  0.00000000  1
loop_
_geom_bond_atom_site_label_1
_geom_bond_atom_site_label_2
_geom_bond_distance
_geom_bond_site_symmetry_2
Hf0 Ir0 2.543471 1_555
Hf1 Ir0 2.543471 1_666
Hf2 Ir0 2.543471 1_565
Hf3 Ir0 2.543471 1_656
Hf4 Ir0 2.543471 1_556
Hf5 Ir0 2.543471 1_665
Br0 Hf4 2.680704 1_554
Br0 Hf2 2.680705 1_545
Br1 Hf5 2.680704 1_556
Br1 Hf3 2.680705 1_565
Br2 Hf4 2.680710 1_555
Br2 Hf3 2.680710 1_455
Br3 Hf5 2.680710 1_555
Br3 Hf2 2.680710 1_655
Br4 Hf4 2.680705 1_554
Br4 Hf0 2.680705 1_555
Br5 Hf5 2.680710 1_555
Br5 Hf0 2.680710 1_665
Br6 Hf5 2.680705 1_556
Br6 Hf1 2.680705 1_555
Br7 Hf4 2.680710 1_555
Br7 Hf1 2.680710 1_445
Br8 Hf0 2.680704 1_555
Br8 Hf2 2.680705 1_545
Br9 Hf1 2.680704 1_555
Br9 Hf3 2.680705 1_565
Br10 Hf0 2.680710 1_655
Br10 Hf3 2.680710 1_554
Br11 Hf1 2.680710 1_455
Br11 Hf2 2.680710 1_556
Br12 Hf1 2.845502 1_455
Br12 Hf0 2.845502 1_555
Br13 Hf3 2.845501 1_555
Br13 Hf2 2.845501 1_545
Br14 Hf5 2.845502 1_555
Br14 Hf4 2.845502 1_554
