# generated using pymatgen
data_CoB2MoW
_symmetry_space_group_name_H-M   'P 1'
_cell_length_a   4.49187133
_cell_length_b   4.49187051
_cell_length_c   4.49187177
_cell_angle_alpha   138.81898599
_cell_angle_beta   119.20220137
_cell_angle_gamma   76.08239487
_symmetry_Int_Tables_number   1
_chemical_formula_structural   CoB2MoW
_chemical_formula_sum   'Co1 B2 Mo1 W1'
_cell_volume   50.81020013
_cell_formula_units_Z   1
loop_
 _symmetry_equiv_pos_site_id
 _symmetry_equiv_pos_as_xyz
  1  'x, y, z'
loop_
 _atom_site_type_symbol
 _atom_site_label
 _atom_site_symmetry_multiplicity
 _atom_site_fract_x
 _atom_site_fract_y
 _atom_site_fract_z
 _atom_site_occupancy
  Co  Co0  1  0.99926539  0.99926539  0.00000000  1
  B  B0  1  0.70560418  0.49999701  0.20560817  1
  B  B1  1  0.29438883  0.49999701  0.79439183  1
  Mo  Mo0  1  0.29925679  0.79925679  0.50000000  1
  W  W0  1  0.70148481  0.20148481  0.50000000  1
loop_
_geom_bond_atom_site_label_1
_geom_bond_atom_site_label_2
_geom_bond_distance
_geom_bond_site_symmetry_2
Co0 W0 2.633349 1_554
Co0 W0 2.633350 1_565
Co0 Mo0 2.645881 1_665
Co0 Mo0 2.645882 1_654
Co0 Mo0 2.677487 1_554
Co0 Mo0 2.677487 1_655
B0 B1 1.869358 1_554
B0 Co0 2.070406 1_556
B0 Co0 2.070408 1_545
B0 Mo0 2.320863 1_555
B0 Mo0 2.320865 1_544
B0 W0 2.324107 1_565
B0 W0 2.324111 1_554
B0 W0 2.500363 1_555
B0 Mo0 2.504839 1_655
B1 Co0 2.070406 1_456
B1 Co0 2.070406 1_445
B1 Mo0 2.320867 1_545
B1 Mo0 2.320868 1_556
B1 W0 2.324107 1_566
B1 W0 2.324108 1_555
B1 W0 2.500365 1_455
B1 Mo0 2.504834 1_555
Mo0 W0 2.853148 1_555
Mo0 W0 2.853148 1_465
Mo0 W0 2.853149 1_454
Mo0 W0 2.853149 1_566
