# generated using pymatgen
data_SrLa4TiAl4O15
_symmetry_space_group_name_H-M   'P 1'
_cell_length_a   3.84749900
_cell_length_b   5.41785800
_cell_length_c   27.13807000
_cell_angle_alpha   90.00000000
_cell_angle_beta   90.00000000
_cell_angle_gamma   90.00000000
_symmetry_Int_Tables_number   1
_chemical_formula_structural   SrLa4TiAl4O15
_chemical_formula_sum   'Sr2 La8 Ti2 Al8 O30'
_cell_volume   565.69858461
_cell_formula_units_Z   2
loop_
 _symmetry_equiv_pos_site_id
 _symmetry_equiv_pos_as_xyz
  1  'x, y, z'
loop_
 _atom_site_type_symbol
 _atom_site_label
 _atom_site_symmetry_multiplicity
 _atom_site_fract_x
 _atom_site_fract_y
 _atom_site_fract_z
 _atom_site_occupancy
  Sr  Sr0  1  0.00000000  0.25000000  0.05296900  1
  Sr  Sr1  1  0.00000000  0.75000000  0.94703100  1
  La  La0  1  0.00000000  0.25000000  0.84581900  1
  La  La1  1  0.00000000  0.75000000  0.74852200  1
  La  La2  1  0.00000000  0.25000000  0.64900000  1
  La  La3  1  0.00000000  0.75000000  0.54985000  1
  La  La4  1  0.00000000  0.25000000  0.45015000  1
  La  La5  1  0.00000000  0.75000000  0.35100000  1
  La  La6  1  0.00000000  0.25000000  0.25147800  1
  La  La7  1  0.00000000  0.75000000  0.15418100  1
  Ti  Ti0  1  0.50000000  0.75000000  0.05215600  1
  Ti  Ti1  1  0.50000000  0.25000000  0.94784400  1
  Al  Al0  1  0.50000000  0.75000000  0.84668200  1
  Al  Al1  1  0.50000000  0.25000000  0.74780700  1
  Al  Al2  1  0.50000000  0.75000000  0.64904500  1
  Al  Al3  1  0.50000000  0.25000000  0.54967500  1
  Al  Al4  1  0.50000000  0.75000000  0.45032500  1
  Al  Al5  1  0.50000000  0.25000000  0.35095500  1
  Al  Al6  1  0.50000000  0.75000000  0.25219300  1
  Al  Al7  1  0.50000000  0.25000000  0.15331800  1
  O  O0  1  0.00000000  0.75000000  0.05382100  1
  O  O1  1  0.00000000  0.25000000  0.94617900  1
  O  O2  1  0.00000000  0.75000000  0.84496700  1
  O  O3  1  0.00000000  0.25000000  0.74825500  1
  O  O4  1  0.00000000  0.75000000  0.64894700  1
  O  O5  1  0.00000000  0.25000000  0.54983000  1
  O  O6  1  0.00000000  0.75000000  0.45017000  1
  O  O7  1  0.50000000  0.50000000  0.00000000  1
  O  O8  1  0.50000000  0.00058300  0.89582200  1
  O  O9  1  0.50000000  0.49859000  0.79744200  1
  O  O10  1  0.50000000  0.00029800  0.69850000  1
  O  O11  1  0.50000000  0.50003500  0.59935400  1
  O  O12  1  0.50000000  0.00000000  0.50000000  1
  O  O13  1  0.50000000  0.49996500  0.40064600  1
  O  O14  1  0.50000000  0.99970200  0.30150000  1
  O  O15  1  0.50000000  0.49941700  0.89582200  1
  O  O16  1  0.50000000  0.50141000  0.20255800  1
  O  O17  1  0.50000000  0.00000000  0.00000000  1
  O  O18  1  0.50000000  0.99941700  0.10417800  1
  O  O19  1  0.50000000  0.49970200  0.69850000  1
  O  O20  1  0.50000000  0.00141000  0.79744200  1
  O  O21  1  0.50000000  0.99996500  0.59935400  1
  O  O22  1  0.50000000  0.00003500  0.40064600  1
  O  O23  1  0.50000000  0.50000000  0.50000000  1
  O  O24  1  0.50000000  0.99859000  0.20255800  1
  O  O25  1  0.50000000  0.50029800  0.30150000  1
  O  O26  1  0.50000000  0.50058300  0.10417800  1
  O  O27  1  0.00000000  0.25000000  0.35105300  1
  O  O28  1  0.00000000  0.75000000  0.25174500  1
  O  O29  1  0.00000000  0.25000000  0.15503300  1
loop_
_geom_bond_atom_site_label_1
_geom_bond_atom_site_label_2
_geom_bond_distance
_geom_bond_site_symmetry_2
La0 O3 2.647699 1_555
La0 O9 2.690418 1_555
La0 O20 2.690418 1_455
La0 O20 2.690418 1_555
La0 O9 2.690418 1_455
La0 O2 2.709028 1_545
La0 O2 2.709028 1_555
La0 O15 2.714452 1_455
La0 O15 2.714452 1_555
La0 O8 2.714452 1_555
La0 O8 2.714452 1_455
La0 O1 2.723577 1_555
La1 O2 2.617331 1_555
La1 O4 2.702273 1_555
La1 O20 2.705300 1_465
La1 O20 2.705300 1_565
La1 O9 2.705300 1_555
La1 O9 2.705300 1_455
La1 O3 2.708939 1_565
La1 O3 2.708939 1_555
La1 O10 2.717089 1_465
La1 O10 2.717089 1_565
La1 O19 2.717089 1_455
La1 O19 2.717089 1_555
La2 O5 2.691282 1_555
La2 O3 2.693589 1_555
La2 O10 2.708424 1_455
La2 O10 2.708424 1_555
La2 O19 2.708424 1_455
La2 O19 2.708424 1_555
La2 O4 2.708929 1_545
La2 O4 2.708929 1_555
La2 O11 2.711293 1_555
La2 O11 2.711293 1_455
La2 O21 2.711293 1_445
La2 O21 2.711293 1_545
La3 O4 2.689301 1_555
La3 O6 2.705123 1_555
La3 O5 2.708929 1_565
La3 O5 2.708929 1_555
La3 O21 2.709190 1_555
La3 O11 2.709190 1_455
La3 O11 2.709190 1_555
La3 O21 2.709190 1_455
La3 O23 2.713953 1_455
La3 O12 2.713953 1_565
La3 O12 2.713953 1_465
La3 O23 2.713953 1_555
La4 O27 2.689301 1_555
La4 O5 2.705123 1_555
La4 O6 2.708929 1_545
La4 O6 2.708929 1_555
La4 O13 2.709190 1_455
La4 O22 2.709190 1_555
La4 O22 2.709190 1_455
La4 O13 2.709190 1_555
La4 O23 2.713953 1_455
La4 O23 2.713953 1_555
La4 O12 2.713953 1_455
La4 O12 2.713953 1_555
La5 O6 2.691282 1_555
La5 O28 2.693589 1_555
La5 O25 2.708424 1_455
La5 O25 2.708424 1_555
La5 O14 2.708424 1_555
La5 O14 2.708424 1_455
La5 O27 2.708929 1_555
La5 O27 2.708929 1_565
La5 O22 2.711293 1_465
La5 O13 2.711293 1_455
La5 O13 2.711293 1_555
La5 O22 2.711293 1_565
La6 O29 2.617331 1_555
La6 O27 2.702273 1_555
La6 O24 2.705300 1_445
La6 O24 2.705300 1_545
La6 O16 2.705300 1_455
La6 O16 2.705300 1_555
La6 O28 2.708939 1_555
La6 O28 2.708939 1_545
La6 O14 2.717089 1_545
La6 O25 2.717089 1_455
La6 O14 2.717089 1_445
La6 O25 2.717089 1_555
La7 O28 2.647699 1_555
La7 O16 2.690418 1_455
La7 O16 2.690418 1_555
La7 O24 2.690418 1_555
La7 O24 2.690418 1_455
La7 O29 2.709028 1_555
La7 O29 2.709028 1_565
La7 O18 2.714452 1_455
La7 O18 2.714452 1_555
La7 O26 2.714452 1_455
La7 O26 2.714452 1_555
La7 O0 2.723577 1_555
Al0 O15 1.903033 1_555
Al0 O8 1.903033 1_565
Al0 O20 1.908132 1_565
Al0 O9 1.908132 1_555
Al0 O2 1.924312 1_655
Al0 O2 1.924312 1_555
Al1 O10 1.902815 1_555
Al1 O19 1.902815 1_555
Al1 O9 1.904821 1_555
Al1 O20 1.904821 1_555
Al1 O3 1.923788 1_655
Al1 O3 1.923788 1_555
Al2 O10 1.907936 1_565
Al2 O19 1.907936 1_555
Al2 O11 1.911167 1_555
Al2 O21 1.911167 1_555
Al2 O4 1.923751 1_555
Al2 O4 1.923751 1_655
Al3 O23 1.910995 1_555
Al3 O12 1.910995 1_555
Al3 O21 1.911206 1_545
Al3 O11 1.911206 1_555
Al3 O5 1.923754 1_655
Al3 O5 1.923754 1_555
Al4 O12 1.910995 1_565
Al4 O23 1.910995 1_555
Al4 O22 1.911206 1_565
Al4 O13 1.911206 1_555
Al4 O6 1.923754 1_655
Al4 O6 1.923754 1_555
Al5 O14 1.907936 1_545
Al5 O25 1.907936 1_555
Al5 O13 1.911167 1_555
Al5 O22 1.911167 1_555
Al5 O27 1.923751 1_655
Al5 O27 1.923751 1_555
Al6 O14 1.902815 1_555
Al6 O25 1.902815 1_555
Al6 O16 1.904821 1_555
Al6 O24 1.904821 1_555
Al6 O28 1.923788 1_555
Al6 O28 1.923788 1_655
Al7 O18 1.903033 1_545
Al7 O26 1.903033 1_555
Al7 O24 1.908132 1_545
Al7 O16 1.908132 1_555
Al7 O29 1.924312 1_555
Al7 O29 1.924312 1_655
O0 Ti0 1.924280 1_555
O0 Ti0 1.924280 1_455
O0 Sr0 2.709028 1_565
O0 Sr0 2.709028 1_555
O0 Sr1 2.898074 1_554
O1 Ti1 1.924280 1_555
O1 Ti1 1.924280 1_455
O1 Sr1 2.709028 1_555
O1 Sr1 2.709028 1_545
O1 Sr0 2.898074 1_556
O2 Sr1 2.769820 1_555
O7 Ti0 1.959073 1_555
O7 Ti1 1.959073 1_554
O7 Sr0 2.757123 1_555
O7 Sr0 2.757123 1_655
O7 Sr1 2.757123 1_654
O7 Sr1 2.757123 1_554
O8 Ti1 1.954262 1_555
O8 Sr1 2.734091 1_645
O8 Sr1 2.734091 1_545
O15 Ti1 1.954262 1_555
O15 Sr1 2.734091 1_555
O15 Sr1 2.734091 1_655
O17 Ti0 1.959073 1_545
O17 Ti1 1.959073 1_554
O17 Sr0 2.757123 1_555
O17 Sr0 2.757123 1_655
O17 Sr1 2.757123 1_544
O17 Sr1 2.757123 1_644
O18 Ti0 1.954262 1_555
O18 Sr0 2.734091 1_565
O18 Sr0 2.734091 1_665
O26 Ti0 1.954262 1_555
O26 Sr0 2.734091 1_555
O26 Sr0 2.734091 1_655
O29 Sr0 2.769820 1_555
