# generated using pymatgen
data_U3Sb4
_symmetry_space_group_name_H-M   'P 1'
_cell_length_a   8.00009962
_cell_length_b   8.00009962
_cell_length_c   8.00009962
_cell_angle_alpha   109.47122063
_cell_angle_beta   109.47122063
_cell_angle_gamma   109.47122063
_symmetry_Int_Tables_number   1
_chemical_formula_structural   U3Sb4
_chemical_formula_sum   'U6 Sb8'
_cell_volume   394.15250817
_cell_formula_units_Z   2
loop_
 _symmetry_equiv_pos_site_id
 _symmetry_equiv_pos_as_xyz
  1  'x, y, z'
loop_
 _atom_site_type_symbol
 _atom_site_label
 _atom_site_symmetry_multiplicity
 _atom_site_fract_x
 _atom_site_fract_y
 _atom_site_fract_z
 _atom_site_occupancy
  U  U0  1  0.87500000  0.25000000  0.12500000  1
  U  U1  1  0.12500000  0.87500000  0.25000000  1
  U  U2  1  0.37500000  0.62500000  0.75000000  1
  U  U3  1  0.25000000  0.12500000  0.87500000  1
  U  U4  1  0.75000000  0.37500000  0.62500000  1
  U  U5  1  0.62500000  0.75000000  0.37500000  1
  Sb  Sb0  1  0.50000000  0.00000000  0.65813642  1
  Sb  Sb1  1  0.15813642  0.50000000  -0.00000000  1
  Sb  Sb2  1  0.34186358  0.34186358  0.34186358  1
  Sb  Sb3  1  -0.00000000  0.15813642  0.50000000  1
  Sb  Sb4  1  0.84186358  0.84186358  0.84186358  1
  Sb  Sb5  1  -0.00000000  0.65813642  0.50000000  1
  Sb  Sb6  1  0.50000000  0.00000000  0.15813642  1
  Sb  Sb7  1  0.65813642  0.50000000  -0.00000000  1
loop_
_geom_bond_atom_site_label_1
_geom_bond_atom_site_label_2
_geom_bond_distance
_geom_bond_site_symmetry_2
Sb0 U4 3.155021 1_555
Sb0 U1 3.155021 1_545
Sb0 U5 3.155021 1_545
Sb0 U3 3.240387 1_555
Sb0 U0 3.240387 1_556
Sb0 U2 3.240387 1_545
Sb1 U0 3.155021 1_455
Sb1 U4 3.155021 1_454
Sb1 U1 3.155021 1_555
Sb1 U5 3.240387 1_555
Sb1 U2 3.240387 1_554
Sb1 U3 3.240387 1_554
Sb2 U2 3.155021 1_555
Sb2 U4 3.155021 1_555
Sb2 U5 3.155021 1_555
Sb2 U0 3.240387 1_455
Sb2 U3 3.240387 1_554
Sb2 U1 3.240387 1_545
Sb3 U3 3.155021 1_555
Sb3 U1 3.155021 1_545
Sb3 U5 3.155021 1_445
Sb3 U0 3.240387 1_455
Sb3 U2 3.240387 1_555
Sb3 U4 3.240387 1_455
Sb4 U1 3.155021 1_656
Sb4 U0 3.155021 1_566
Sb4 U3 3.155021 1_665
Sb4 U4 3.240387 1_555
Sb4 U5 3.240387 1_555
Sb4 U2 3.240387 1_555
Sb5 U0 3.155021 1_455
Sb5 U4 3.155021 1_455
Sb5 U2 3.155021 1_555
Sb5 U3 3.240387 1_565
Sb5 U1 3.240387 1_555
Sb5 U5 3.240387 1_455
Sb6 U3 3.155021 1_554
Sb6 U2 3.155021 1_544
Sb6 U0 3.155021 1_555
Sb6 U4 3.240387 1_555
Sb6 U5 3.240387 1_545
Sb6 U1 3.240387 1_545
Sb7 U5 3.155021 1_555
Sb7 U3 3.155021 1_554
Sb7 U2 3.155021 1_554
Sb7 U4 3.240387 1_554
Sb7 U1 3.240387 1_655
Sb7 U0 3.240387 1_555
