# generated using pymatgen
data_Ca5Sn2PbF
_symmetry_space_group_name_H-M   'P 1'
_cell_length_a   9.47467471
_cell_length_b   9.47467426
_cell_length_c   9.47467536
_cell_angle_alpha   128.71473399
_cell_angle_beta   128.71473360
_cell_angle_gamma   75.47001268
_symmetry_Int_Tables_number   1
_chemical_formula_structural   Ca5Sn2PbF
_chemical_formula_sum   'Ca10 Sn4 Pb2 F2'
_cell_volume   503.88851045
_cell_formula_units_Z   2
loop_
 _symmetry_equiv_pos_site_id
 _symmetry_equiv_pos_as_xyz
  1  'x, y, z'
loop_
 _atom_site_type_symbol
 _atom_site_label
 _atom_site_symmetry_multiplicity
 _atom_site_fract_x
 _atom_site_fract_y
 _atom_site_fract_z
 _atom_site_occupancy
  Ca  Ca0  1  0.50000000  0.50000000  0.00000000  1
  Ca  Ca1  1  0.00000000  0.00000000  0.00000000  1
  Ca  Ca2  1  0.50780745  0.00780745  0.81803685  1
  Ca  Ca3  1  0.18976960  0.68976960  0.18196315  1
  Ca  Ca4  1  0.00780745  0.18976960  0.50000000  1
  Ca  Ca5  1  0.68976960  0.50780745  0.50000000  1
  Ca  Ca6  1  0.49219255  0.99219255  0.18196315  1
  Ca  Ca7  1  0.81023040  0.31023040  0.81803685  1
  Ca  Ca8  1  0.99219255  0.81023040  0.50000000  1
  Ca  Ca9  1  0.31023040  0.49219255  0.50000000  1
  Sn  Sn0  1  0.87239800  0.37239800  0.24479701  1
  Sn  Sn1  1  0.12760200  0.62760200  0.75520299  1
  Sn  Sn2  1  0.37239800  0.12760200  0.50000000  1
  Sn  Sn3  1  0.62760200  0.87239800  0.50000000  1
  Pb  Pb0  1  0.25000000  0.25000000  0.00000000  1
  Pb  Pb1  1  0.75000000  0.75000000  0.00000000  1
  F  F0  1  0.25000000  0.75000000  0.50000000  1
  F  F1  1  0.75000000  0.25000000  0.50000000  1
loop_
_geom_bond_atom_site_label_1
_geom_bond_atom_site_label_2
_geom_bond_distance
_geom_bond_site_symmetry_2
Ca0 Sn2 3.228133 1_554
Ca0 Sn3 3.228133 1_555
Ca0 Sn0 3.228136 1_555
Ca0 Sn1 3.228136 1_554
Ca0 Pb0 3.746522 1_555
Ca0 Pb1 3.746522 1_555
Ca1 Sn2 3.228133 1_555
Ca1 Sn3 3.228133 1_444
Ca1 Sn0 3.228136 1_455
Ca1 Sn1 3.228136 1_544
Ca1 Pb0 3.746522 1_555
Ca1 Pb1 3.746522 1_445
Ca2 F0 2.364893 1_545
Ca2 Sn2 3.275038 1_555
Ca2 Sn3 3.275038 1_545
Ca2 Sn0 3.355398 1_556
Ca2 Pb1 3.422134 1_546
Ca2 Pb0 3.422135 1_556
Ca3 F0 2.364884 1_555
Ca3 Sn2 3.275048 1_565
Ca3 Sn3 3.275048 1_555
Ca3 Sn1 3.355419 1_554
Ca3 Pb0 3.422128 1_555
Ca3 Pb1 3.422128 1_455
Ca4 F1 2.364893 1_455
Ca4 Sn0 3.275038 1_455
Ca4 Sn1 3.275049 1_555
Ca4 Sn2 3.355400 1_555
Ca4 Pb1 3.422130 1_445
Ca4 Pb0 3.422130 1_556
Ca5 F1 2.364893 1_555
Ca5 Sn0 3.275039 1_555
Ca5 Sn1 3.275049 1_655
Ca5 Sn3 3.355400 1_555
Ca5 Pb0 3.422130 1_555
Ca5 Pb1 3.422130 1_556
Ca6 F1 2.364893 1_565
Ca6 Sn3 3.275038 1_555
Ca6 Sn2 3.275038 1_565
Ca6 Sn1 3.355398 1_554
Ca6 Pb0 3.422134 1_565
Ca6 Pb1 3.422135 1_555
Ca7 F1 2.364884 1_555
Ca7 Sn3 3.275048 1_545
Ca7 Sn2 3.275048 1_555
Ca7 Sn0 3.355419 1_556
Ca7 Pb1 3.422128 1_556
Ca7 Pb0 3.422128 1_656
Ca8 F0 2.364893 1_655
Ca8 Sn1 3.275038 1_655
Ca8 Sn0 3.275049 1_555
Ca8 Sn3 3.355400 1_555
Ca8 Pb0 3.422130 1_666
Ca8 Pb1 3.422130 1_555
Ca9 F0 2.364893 1_555
Ca9 Sn1 3.275039 1_555
Ca9 Sn0 3.275049 1_455
Ca9 Sn2 3.355400 1_555
Ca9 Pb1 3.422130 1_556
Ca9 Pb0 3.422130 1_555
Sn0 Sn1 2.959640 1_655
Sn2 Sn3 2.959651 1_545
