# generated using pymatgen
data_K4ReMoP4
_symmetry_space_group_name_H-M   'P 1'
_cell_length_a   8.03341197
_cell_length_b   8.03341324
_cell_length_c   8.03341266
_cell_angle_alpha   136.19939182
_cell_angle_beta   127.53654564
_cell_angle_gamma   70.66927850
_symmetry_Int_Tables_number   1
_chemical_formula_structural   K4ReMoP4
_chemical_formula_sum   'K4 Re1 Mo1 P4'
_cell_volume   278.90915699
_cell_formula_units_Z   1
loop_
 _symmetry_equiv_pos_site_id
 _symmetry_equiv_pos_as_xyz
  1  'x, y, z'
loop_
 _atom_site_type_symbol
 _atom_site_label
 _atom_site_symmetry_multiplicity
 _atom_site_fract_x
 _atom_site_fract_y
 _atom_site_fract_z
 _atom_site_occupancy
  K  K0  1  0.30783364  0.15355166  0.15731156  1
  K  K1  1  0.69216636  0.84947693  0.84571702  1
  K  K2  1  0.00376090  0.34644834  0.65428298  1
  K  K3  1  0.99623910  0.65052307  0.34268844  1
  Re  Re0  1  0.50000000  0.75000000  0.25000000  1
  Mo  Mo0  1  0.50000000  0.25000000  0.75000000  1
  P  P0  1  0.41796112  0.60029436  0.82701556  1
  P  P1  1  0.22672120  0.89970564  0.31766576  1
  P  P2  1  0.77327880  0.09094456  0.67298444  1
  P  P3  1  0.58203888  0.40905544  0.18233424  1
loop_
_geom_bond_atom_site_label_1
_geom_bond_atom_site_label_2
_geom_bond_distance
_geom_bond_site_symmetry_2
K0 P0 3.288005 1_544
K0 P3 3.311189 1_555
K0 P0 3.322337 1_555
K0 P1 3.455016 1_545
K0 P2 3.475316 1_454
K1 P3 3.287994 1_555
K1 P0 3.311189 1_555
K1 P3 3.322348 1_566
K1 P2 3.455016 1_565
K1 P1 3.475316 1_656
K2 P1 3.288000 1_556
K2 P2 3.311196 1_455
K2 P1 3.322337 1_545
K2 P0 3.455021 1_555
K2 P3 3.475325 1_455
K3 P2 3.287994 1_565
K3 P1 3.311196 1_655
K3 P2 3.322343 1_554
K3 P3 3.455021 1_555
K3 P0 3.475325 1_655
Mo0 P2 2.343476 1_555
Mo0 P0 2.343476 1_555
Mo0 P1 2.343477 1_545
Mo0 P3 2.343480 1_556
P0 Re0 2.307381 1_556
P1 Re0 2.307377 1_555
P2 Re0 2.307378 1_545
P3 Re0 2.307377 1_555
