# generated using pymatgen
data_NiAg2GeO4
_symmetry_space_group_name_H-M   'P 1'
_cell_length_a   5.10150945
_cell_length_b   5.98112352
_cell_length_c   7.07364993
_cell_angle_alpha   64.89714054
_cell_angle_beta   103.12702474
_cell_angle_gamma   89.99853464
_symmetry_Int_Tables_number   1
_chemical_formula_structural   NiAg2GeO4
_chemical_formula_sum   'Ni2 Ag4 Ge2 O8'
_cell_volume   189.20292218
_cell_formula_units_Z   2
loop_
 _symmetry_equiv_pos_site_id
 _symmetry_equiv_pos_as_xyz
  1  'x, y, z'
loop_
 _atom_site_type_symbol
 _atom_site_label
 _atom_site_symmetry_multiplicity
 _atom_site_fract_x
 _atom_site_fract_y
 _atom_site_fract_z
 _atom_site_occupancy
  Ni  Ni0  1  0.50002905  0.25205428  0.50008050  1
  Ni  Ni1  1  0.99997612  0.49798177  0.49991093  1
  Ag  Ag0  1  0.00393585  0.99861156  0.99965339  1
  Ag  Ag1  1  0.50392229  0.25166744  0.99965011  1
  Ag  Ag2  1  0.99606915  0.49830837  0.00036221  1
  Ag  Ag3  1  0.49609587  0.75136310  0.00034048  1
  Ge  Ge0  1  0.50002509  0.74583208  0.50003405  1
  Ge  Ge1  1  0.99998460  0.00417839  0.49997099  1
  O  O0  1  0.87553859  0.68686654  0.65916103  1
  O  O1  1  0.37552083  0.90330365  0.65922043  1
  O  O2  1  0.89929443  0.15025723  0.66361034  1
  O  O3  1  0.39929582  0.43553590  0.66358763  1
  O  O4  1  0.12451240  0.84667489  0.34080121  1
  O  O5  1  0.62444346  0.06314477  0.34083297  1
  O  O6  1  0.10068841  0.31447744  0.33641020  1
  O  O7  1  0.60067004  0.59974558  0.33637354  1
loop_
_geom_bond_atom_site_label_1
_geom_bond_atom_site_label_2
_geom_bond_distance
_geom_bond_site_symmetry_2
Ni0 O3 2.037902 1_555
Ni0 O7 2.038640 1_555
Ni0 O2 2.046877 1_555
Ni0 O6 2.047434 1_555
Ni0 O5 2.086401 1_555
Ni0 O1 2.086674 1_545
Ni1 O6 2.037928 1_655
Ni1 O2 2.038864 1_555
Ni1 O7 2.047057 1_555
Ni1 O3 2.047346 1_655
Ni1 O0 2.086353 1_555
Ni1 O4 2.086431 1_655
Ag0 O2 2.086206 1_465
Ag0 O4 2.119569 1_556
Ag1 O3 2.085854 1_555
Ag1 O5 2.119189 1_556
Ag2 O6 2.085757 1_655
Ag2 O0 2.119311 1_554
Ag3 O7 2.086152 1_555
Ag3 O1 2.119392 1_554
Ge0 O3 1.869551 1_555
Ge0 O7 1.869636 1_555
Ge0 O0 1.935179 1_555
Ge0 O4 1.935387 1_555
Ge0 O1 1.945037 1_555
Ge0 O5 1.945327 1_565
Ge1 O6 1.869522 1_655
Ge1 O2 1.869567 1_555
Ge1 O5 1.935322 1_555
Ge1 O1 1.935529 1_645
Ge1 O4 1.945130 1_645
Ge1 O0 1.945369 1_545
