# generated using pymatgen
data_YIn6IrBr12
_symmetry_space_group_name_H-M   'P 1'
_cell_length_a   9.09670175
_cell_length_b   9.09670210
_cell_length_c   9.09670173
_cell_angle_alpha   104.79035522
_cell_angle_beta   104.79035750
_cell_angle_gamma   104.79036543
_symmetry_Int_Tables_number   1
_chemical_formula_structural   YIn6IrBr12
_chemical_formula_sum   'Y1 In6 Ir1 Br12'
_cell_volume   661.05950969
_cell_formula_units_Z   1
loop_
 _symmetry_equiv_pos_site_id
 _symmetry_equiv_pos_as_xyz
  1  'x, y, z'
loop_
 _atom_site_type_symbol
 _atom_site_label
 _atom_site_symmetry_multiplicity
 _atom_site_fract_x
 _atom_site_fract_y
 _atom_site_fract_z
 _atom_site_occupancy
  Y  Y0  1  0.50000000  0.50000000  0.50000000  1
  In  In0  1  0.04493431  0.06094181  0.30844588  1
  In  In1  1  0.30844588  0.04493431  0.06094181  1
  In  In2  1  0.06094181  0.30844588  0.04493431  1
  In  In3  1  0.95506569  0.93905819  0.69155412  1
  In  In4  1  0.69155412  0.95506569  0.93905819  1
  In  In5  1  0.93905819  0.69155412  0.95506569  1
  Ir  Ir0  1  0.00000000  0.00000000  0.00000000  1
  Br  Br0  1  0.98057784  0.55781423  0.19404877  1
  Br  Br1  1  0.19404877  0.98057784  0.55781423  1
  Br  Br2  1  0.55781423  0.19404877  0.98057784  1
  Br  Br3  1  0.01942216  0.44218577  0.80595123  1
  Br  Br4  1  0.80595123  0.01942216  0.44218577  1
  Br  Br5  1  0.44218577  0.80595123  0.01942216  1
  Br  Br6  1  0.48890856  0.18064767  0.38527848  1
  Br  Br7  1  0.38527848  0.48890856  0.18064767  1
  Br  Br8  1  0.18064767  0.38527848  0.48890856  1
  Br  Br9  1  0.51109144  0.81935233  0.61472152  1
  Br  Br10  1  0.61472152  0.51109144  0.81935233  1
  Br  Br11  1  0.81935233  0.61472152  0.51109144  1
loop_
_geom_bond_atom_site_label_1
_geom_bond_atom_site_label_2
_geom_bond_distance
_geom_bond_site_symmetry_2
In0 Ir0 2.617577 1_555
In1 Ir0 2.617577 1_555
In2 Ir0 2.617577 1_555
In3 Ir0 2.617577 1_666
In4 Ir0 2.617577 1_666
In5 Ir0 2.617577 1_666
Br0 In2 2.702244 1_655
Br0 In5 2.741273 1_554
Br1 In0 2.702243 1_565
Br1 In3 2.741273 1_455
Br2 In1 2.702243 1_556
Br2 In4 2.741274 1_545
Br3 In5 2.702244 1_455
Br3 In2 2.741273 1_556
Br4 In3 2.702243 1_545
Br4 In0 2.741273 1_655
Br5 In4 2.702243 1_554
Br5 In1 2.741274 1_565
Br6 In1 2.748913 1_555
Br6 Y0 2.790575 1_555
Br7 In2 2.748913 1_555
Br7 Y0 2.790575 1_555
Br8 In0 2.748913 1_555
Br8 Y0 2.790574 1_555
Br9 In4 2.748913 1_555
Br9 Y0 2.790575 1_555
Br10 In5 2.748913 1_555
Br10 Y0 2.790575 1_555
Br11 In3 2.748913 1_555
Br11 Y0 2.790574 1_555
