# generated using pymatgen
data_SrIn2(SeO3)4
_symmetry_space_group_name_H-M   'P 1'
_cell_length_a   5.26939911
_cell_length_b   10.13634650
_cell_length_c   14.20238679
_cell_angle_alpha   50.03028690
_cell_angle_beta   90.00000000
_cell_angle_gamma   90.00000000
_symmetry_Int_Tables_number   1
_chemical_formula_structural   SrIn2(SeO3)4
_chemical_formula_sum   'Sr2 In4 Se8 O24'
_cell_volume   581.36699628
_cell_formula_units_Z   2
loop_
 _symmetry_equiv_pos_site_id
 _symmetry_equiv_pos_as_xyz
  1  'x, y, z'
loop_
 _atom_site_type_symbol
 _atom_site_label
 _atom_site_symmetry_multiplicity
 _atom_site_fract_x
 _atom_site_fract_y
 _atom_site_fract_z
 _atom_site_occupancy
  Sr  Sr0  1  0.03639176  0.00000000  0.75000000  1
  Sr  Sr1  1  0.96360824  0.00000000  0.25000000  1
  In  In0  1  0.00000000  0.50000000  0.50000000  1
  In  In1  1  0.50000000  0.00000000  0.00000000  1
  In  In2  1  0.50000000  0.00000000  0.50000000  1
  In  In3  1  0.00000000  0.50000000  0.00000000  1
  Se  Se0  1  0.50689271  0.31131044  0.19130488  1
  Se  Se1  1  0.01664925  0.73589578  0.60611367  1
  Se  Se2  1  0.01664925  0.26410422  0.89388633  1
  Se  Se3  1  0.98335075  0.26410422  0.39388633  1
  Se  Se4  1  0.49310729  0.31131044  0.69130488  1
  Se  Se5  1  0.49310729  0.68868956  0.80869512  1
  Se  Se6  1  0.50689271  0.68868956  0.30869512  1
  Se  Se7  1  0.98335075  0.73589578  0.10611367  1
  O  O0  1  0.21705064  0.72628000  0.34170750  1
  O  O1  1  0.30090619  0.76904420  0.07479035  1
  O  O2  1  0.78294936  0.72628000  0.84170750  1
  O  O3  1  0.84754365  0.90474203  0.96725473  1
  O  O4  1  0.69909381  0.76904420  0.57479035  1
  O  O5  1  0.30764606  0.32286964  0.58721679  1
  O  O6  1  0.15245635  0.09525797  0.03274527  1
  O  O7  1  0.69235394  0.32286964  0.08721679  1
  O  O8  1  0.78294936  0.27372000  0.65829250  1
  O  O9  1  0.59844660  0.10459891  0.31555219  1
  O  O10  1  0.69235394  0.67713036  0.41278321  1
  O  O11  1  0.30090619  0.23095580  0.42520965  1
  O  O12  1  0.59844660  0.89540109  0.18444781  1
  O  O13  1  0.84754365  0.09525797  0.53274527  1
  O  O14  1  0.40155340  0.10459891  0.81555219  1
  O  O15  1  0.06502866  0.43631343  0.88592214  1
  O  O16  1  0.69909381  0.23095580  0.92520965  1
  O  O17  1  0.93497134  0.43631343  0.38592214  1
  O  O18  1  0.06502866  0.56368657  0.61407786  1
  O  O19  1  0.40155340  0.89540109  0.68444781  1
  O  O20  1  0.30764606  0.67713036  0.91278321  1
  O  O21  1  0.15245635  0.90474203  0.46725473  1
  O  O22  1  0.93497134  0.56368657  0.11407786  1
  O  O23  1  0.21705064  0.27372000  0.15829250  1
loop_
_geom_bond_atom_site_label_1
_geom_bond_atom_site_label_2
_geom_bond_distance
_geom_bond_site_symmetry_2
In0 O18 2.121997 1_555
In0 O17 2.121997 1_455
In0 O10 2.128068 1_455
In0 O5 2.128068 1_555
In0 O0 2.235675 1_555
In0 O8 2.235675 1_455
In1 O16 2.124763 1_554
In1 O1 2.124763 1_545
In1 O12 2.164992 1_545
In1 O14 2.164992 1_554
In1 O3 2.253742 1_544
In1 O6 2.253742 1_555
In2 O11 2.124763 1_555
In2 O4 2.124763 1_545
In2 O19 2.164992 1_545
In2 O9 2.164992 1_555
In2 O21 2.253742 1_545
In2 O13 2.253742 1_555
In3 O22 2.121997 1_455
In3 O15 2.121997 1_554
In3 O20 2.128068 1_554
In3 O7 2.128068 1_455
In3 O23 2.235675 1_555
In3 O2 2.235675 1_454
O0 Se6 1.710893 1_555
O0 Sr1 2.556391 1_465
O1 Se7 1.708445 1_455
O2 Se5 1.710893 1_555
O2 Sr0 2.556391 1_665
O3 Se7 1.730364 1_556
O3 Sr0 2.759604 1_665
O4 Se1 1.708445 1_655
O5 Se4 1.712197 1_555
O5 Sr0 2.894446 1_555
O6 Se2 1.730364 1_554
O6 Sr1 2.759604 1_455
O7 Se0 1.712197 1_555
O7 Sr1 2.894446 1_555
O8 Se4 1.710893 1_555
O8 Sr0 2.556391 1_655
O9 Se0 1.728177 1_555
O9 Sr1 2.638474 1_555
O10 Se6 1.712197 1_555
O10 Sr1 2.894446 1_565
O11 Se3 1.708445 1_455
O12 Se6 1.728177 1_555
O12 Sr1 2.638474 1_565
O13 Se3 1.730364 1_555
O13 Sr0 2.759604 1_655
O14 Se4 1.728177 1_555
O14 Sr0 2.638474 1_555
O15 Se2 1.694443 1_555
O16 Se2 1.708445 1_655
O17 Se3 1.694443 1_555
O18 Se1 1.694443 1_555
O19 Se5 1.728177 1_555
O19 Sr0 2.638474 1_565
O20 Se5 1.712197 1_555
O20 Sr0 2.894446 1_565
O21 Se1 1.730364 1_555
O21 Sr1 2.759604 1_465
O22 Se7 1.694443 1_555
O23 Se0 1.710893 1_555
O23 Sr1 2.556391 1_455
