# generated using pymatgen
data_CsRbAs2Pt
_symmetry_space_group_name_H-M   'P 1'
_cell_length_a   7.92319866
_cell_length_b   7.92319793
_cell_length_c   6.46081677
_cell_angle_alpha   90.00000000
_cell_angle_beta   90.00000000
_cell_angle_gamma   127.14017982
_symmetry_Int_Tables_number   1
_chemical_formula_structural   CsRbAs2Pt
_chemical_formula_sum   'Cs2 Rb2 As4 Pt2'
_cell_volume   323.32133740
_cell_formula_units_Z   2
loop_
 _symmetry_equiv_pos_site_id
 _symmetry_equiv_pos_as_xyz
  1  'x, y, z'
loop_
 _atom_site_type_symbol
 _atom_site_label
 _atom_site_symmetry_multiplicity
 _atom_site_fract_x
 _atom_site_fract_y
 _atom_site_fract_z
 _atom_site_occupancy
  Cs  Cs0  1  0.40550551  0.59449449  0.25000000  1
  Cs  Cs1  1  0.59449449  0.40550551  0.75000000  1
  Rb  Rb0  1  0.79390680  0.20609320  0.25000000  1
  Rb  Rb1  1  0.20609320  0.79390680  0.75000000  1
  As  As0  1  0.93346928  0.72306472  0.25000000  1
  As  As1  1  0.06653072  0.27693528  0.75000000  1
  As  As2  1  0.27693528  0.06653072  0.25000000  1
  As  As3  1  0.72306472  0.93346928  0.75000000  1
  Pt  Pt0  1  0.00000000  0.00000000  0.00000000  1
  Pt  Pt1  1  0.00000000  0.00000000  0.50000000  1
loop_
_geom_bond_atom_site_label_1
_geom_bond_atom_site_label_2
_geom_bond_distance
_geom_bond_site_symmetry_2
As0 As2 2.422560 1_665
As0 Pt0 2.510903 1_665
As0 Pt1 2.510903 1_665
As0 Rb0 3.539940 1_555
As0 Cs0 3.659352 1_555
As0 Rb1 3.735288 1_654
As0 Rb1 3.735288 1_655
As0 Cs1 3.977374 1_554
As0 Cs1 3.977374 1_555
As1 As3 2.422560 1_445
As1 Pt1 2.510903 1_555
As1 Pt0 2.510903 1_556
As1 Rb1 3.539940 1_555
As1 Cs1 3.659352 1_555
As1 Rb0 3.735288 1_455
As1 Rb0 3.735288 1_456
As1 Cs0 3.977374 1_555
As1 Cs0 3.977374 1_556
As2 Pt1 2.510903 1_555
As2 Pt0 2.510903 1_555
As2 Rb0 3.539940 1_555
As2 Cs0 3.659352 1_555
As2 Rb1 3.735287 1_545
As2 Rb1 3.735287 1_544
As2 Cs1 3.977374 1_554
As2 Cs1 3.977374 1_555
As3 Pt0 2.510903 1_666
As3 Pt1 2.510903 1_665
As3 Rb1 3.539940 1_555
As3 Cs1 3.659352 1_555
As3 Rb0 3.735287 1_565
As3 Rb0 3.735287 1_566
As3 Cs0 3.977374 1_556
As3 Cs0 3.977374 1_555
Pt0 Rb0 3.340885 1_455
Pt0 Rb1 3.340885 1_544
Pt1 Rb0 3.340885 1_455
Pt1 Rb1 3.340885 1_545
