# generated using pymatgen
data_K6Tl2Sb3
_symmetry_space_group_name_H-M   'P 1'
_cell_length_a   9.92969796
_cell_length_b   9.92969796
_cell_length_c   19.87900562
_cell_angle_alpha   82.94066823
_cell_angle_beta   82.94066823
_cell_angle_gamma   119.37945452
_symmetry_Int_Tables_number   1
_chemical_formula_structural   K6Tl2Sb3
_chemical_formula_sum   'K24 Tl8 Sb12'
_cell_volume   1656.55178659
_cell_formula_units_Z   4
loop_
 _symmetry_equiv_pos_site_id
 _symmetry_equiv_pos_as_xyz
  1  'x, y, z'
loop_
 _atom_site_type_symbol
 _atom_site_label
 _atom_site_symmetry_multiplicity
 _atom_site_fract_x
 _atom_site_fract_y
 _atom_site_fract_z
 _atom_site_occupancy
  K  K0  1  0.48571107  0.33684427  0.94600415  1
  K  K1  1  0.66315573  0.51428893  0.55399585  1
  K  K2  1  0.51428893  0.66315573  0.05399585  1
  K  K3  1  0.33684427  0.48571107  0.44600415  1
  K  K4  1  0.21623353  0.67158270  0.94637131  1
  K  K5  1  0.32841730  0.78376647  0.55362869  1
  K  K6  1  0.78376647  0.32841730  0.05362869  1
  K  K7  1  0.67158270  0.21623353  0.44637131  1
  K  K8  1  0.58765068  0.07653656  0.82199604  1
  K  K9  1  0.92346344  0.41234932  0.67800396  1
  K  K10  1  0.41234932  0.92346344  0.17800396  1
  K  K11  1  0.07653656  0.58765068  0.32199604  1
  K  K12  1  0.24440868  0.41313907  0.82223426  1
  K  K13  1  0.58686093  0.75559132  0.67776574  1
  K  K14  1  0.75559132  0.58686093  0.17776574  1
  K  K15  1  0.41313907  0.24440868  0.32223426  1
  K  K16  1  0.12570791  0.93839973  0.05440472  1
  K  K17  1  0.06160027  0.87429209  0.44559528  1
  K  K18  1  0.87429209  0.06160027  0.94559528  1
  K  K19  1  0.93839973  0.12570791  0.55440472  1
  K  K20  1  0.97601238  0.02398762  0.75000000  1
  K  K21  1  0.02398762  0.97601238  0.25000000  1
  K  K22  1  0.20045390  0.79954610  0.75000000  1
  K  K23  1  0.79954610  0.20045390  0.25000000  1
  Tl  Tl0  1  0.87564861  0.70555810  0.92959871  1
  Tl  Tl1  1  0.29444190  0.12435139  0.57040129  1
  Tl  Tl2  1  0.12435139  0.29444190  0.07040129  1
  Tl  Tl3  1  0.70555810  0.87564861  0.42959871  1
  Tl  Tl4  1  0.73145628  0.56019132  0.77220333  1
  Tl  Tl5  1  0.43980868  0.26854372  0.72779667  1
  Tl  Tl6  1  0.26854372  0.43980868  0.22779667  1
  Tl  Tl7  1  0.56019132  0.73145628  0.27220333  1
  Sb  Sb0  1  0.60568259  0.72731978  0.86164182  1
  Sb  Sb1  1  0.27268022  0.39431741  0.63835818  1
  Sb  Sb2  1  0.39431741  0.27268022  0.13835818  1
  Sb  Sb3  1  0.72731978  0.60568259  0.36164182  1
  Sb  Sb4  1  0.96698287  0.78963924  0.63100553  1
  Sb  Sb5  1  0.21036076  0.03301713  0.86899447  1
  Sb  Sb6  1  0.03301713  0.21036076  0.36899447  1
  Sb  Sb7  1  0.78963924  0.96698287  0.13100553  1
  Sb  Sb8  1  0.88685544  0.42890714  0.86453466  1
  Sb  Sb9  1  0.57109286  0.11314456  0.63546534  1
  Sb  Sb10  1  0.11314456  0.57109286  0.13546534  1
  Sb  Sb11  1  0.42890714  0.88685544  0.36453466  1
loop_
_geom_bond_atom_site_label_1
_geom_bond_atom_site_label_2
_geom_bond_distance
_geom_bond_site_symmetry_2
K0 Sb0 3.555805 1_555
K0 Sb5 3.604364 1_555
K0 Tl4 3.680269 1_555
K0 Sb8 3.715170 1_555
K0 Sb2 3.719130 1_556
K0 Tl0 3.740289 1_555
K0 Tl2 3.904912 1_556
K1 Sb1 3.555805 1_555
K1 Sb4 3.604364 1_555
K1 Tl5 3.680269 1_555
K1 Sb9 3.715170 1_555
K1 Sb3 3.719130 1_555
K1 Tl1 3.740289 1_555
K1 Tl3 3.904912 1_555
K2 Sb2 3.555805 1_555
K2 Sb7 3.604364 1_555
K2 Tl6 3.680269 1_555
K2 Sb10 3.715170 1_555
K2 Sb0 3.719130 1_554
K2 Tl2 3.740289 1_555
K2 Tl0 3.904912 1_554
K3 Sb3 3.555805 1_555
K3 Sb6 3.604364 1_555
K3 Tl7 3.680269 1_555
K3 Sb11 3.715170 1_555
K3 Sb1 3.719130 1_555
K3 Tl3 3.740289 1_555
K3 Tl1 3.904912 1_555
K4 Tl0 3.609882 1_455
K4 Sb10 3.647421 1_556
K4 Sb8 3.699819 1_455
K4 Sb5 3.757705 1_565
K4 Sb0 3.764007 1_555
K4 Tl2 3.841998 1_556
K5 Tl1 3.609882 1_565
K5 Sb11 3.647421 1_555
K5 Sb9 3.699819 1_565
K5 Sb4 3.757705 1_455
K5 Sb1 3.764007 1_555
K5 Tl3 3.841998 1_555
K6 Tl2 3.609882 1_655
K6 Sb8 3.647421 1_554
K6 Sb10 3.699819 1_655
K6 Sb7 3.757705 1_545
K6 Sb2 3.764007 1_555
K6 Tl0 3.841998 1_554
K7 Tl3 3.609882 1_545
K7 Sb9 3.647421 1_555
K7 Sb11 3.699819 1_545
K7 Sb6 3.757705 1_655
K7 Sb3 3.764007 1_555
K7 Tl1 3.841998 1_555
K8 Tl5 3.441089 1_555
K8 Sb5 3.542163 1_555
K8 Sb0 3.556644 1_545
K8 Sb8 3.595768 1_555
K8 Sb9 3.712944 1_555
K9 Tl4 3.441089 1_555
K9 Sb4 3.542163 1_555
K9 Sb1 3.556644 1_655
K9 Sb9 3.595768 1_555
K9 Sb8 3.712944 1_555
K10 Tl7 3.441089 1_555
K10 Sb7 3.542163 1_555
K10 Sb2 3.556644 1_565
K10 Sb10 3.595768 1_555
K10 Sb11 3.712944 1_555
K11 Tl6 3.441089 1_555
K11 Sb6 3.542163 1_555
K11 Sb3 3.556644 1_455
K11 Sb11 3.595768 1_555
K11 Sb10 3.712944 1_555
K12 Tl5 3.442537 1_555
K12 Sb5 3.610188 1_555
K12 Sb8 3.630551 1_455
K12 Sb1 3.666325 1_555
K12 Sb0 3.677758 1_555
K13 Tl4 3.442537 1_555
K13 Sb4 3.610188 1_555
K13 Sb9 3.630551 1_565
K13 Sb0 3.666325 1_555
K13 Sb1 3.677758 1_555
K14 Tl7 3.442537 1_555
K14 Sb7 3.610188 1_555
K14 Sb10 3.630551 1_655
K14 Sb3 3.666325 1_555
K14 Sb2 3.677758 1_555
K15 Tl6 3.442537 1_555
K15 Sb6 3.610188 1_555
K15 Sb11 3.630551 1_545
K15 Sb2 3.666325 1_555
K15 Sb3 3.677758 1_555
K16 Sb5 3.575841 1_564
K16 Tl2 3.594760 1_565
K16 Sb7 3.649907 1_455
K16 Sb10 3.738204 1_555
K16 Sb2 3.832244 1_565
K16 Tl0 3.867516 1_454
K17 Sb4 3.575841 1_455
K17 Tl3 3.594760 1_455
K17 Sb6 3.649907 1_565
K17 Sb11 3.738204 1_555
K17 Sb3 3.832244 1_455
K17 Tl1 3.867516 1_565
K18 Sb7 3.575841 1_546
K18 Tl0 3.594760 1_545
K18 Sb5 3.649907 1_655
K18 Sb8 3.738204 1_555
K18 Sb0 3.832244 1_545
K18 Tl2 3.867516 1_656
K19 Sb6 3.575841 1_655
K19 Tl1 3.594760 1_655
K19 Sb4 3.649907 1_545
K19 Sb9 3.738204 1_555
K19 Sb1 3.832244 1_655
K19 Tl3 3.867516 1_545
K20 Sb5 3.495562 1_655
K20 Sb4 3.495562 1_545
K20 Sb0 3.589422 1_545
K20 Sb1 3.589422 1_655
K20 Tl4 3.945246 1_545
K20 Tl5 3.945246 1_655
K21 Sb6 3.495562 1_565
K21 Sb7 3.495562 1_455
K21 Sb3 3.589422 1_455
K21 Sb2 3.589422 1_565
K21 Tl7 3.945246 1_455
K21 Tl6 3.945246 1_565
K22 Sb4 3.487273 1_455
K22 Sb5 3.487273 1_565
K22 Sb8 3.657659 1_455
K22 Sb9 3.657659 1_565
K22 Tl4 3.988497 1_455
K22 Tl5 3.988497 1_565
K23 Sb7 3.487273 1_545
K23 Sb6 3.487273 1_655
K23 Sb11 3.657659 1_545
K23 Sb10 3.657659 1_655
K23 Tl7 3.988497 1_545
K23 Tl6 3.988497 1_655
Tl4 Tl5 3.252762 1_555
Tl6 Tl7 3.252762 1_555
Sb0 Tl4 3.112544 1_555
Sb0 Tl0 3.231786 1_555
Sb1 Tl5 3.112544 1_555
Sb1 Tl1 3.231786 1_555
Sb2 Tl6 3.112544 1_555
Sb2 Tl2 3.231786 1_555
Sb3 Tl7 3.112544 1_555
Sb3 Tl3 3.231786 1_555
Sb4 Tl4 3.182054 1_555
Sb4 Tl1 3.243426 1_665
Sb5 Tl5 3.182054 1_555
Sb5 Tl0 3.243426 1_445
Sb6 Tl6 3.182054 1_555
Sb6 Tl3 3.243426 1_445
Sb7 Tl7 3.182054 1_555
Sb7 Tl2 3.243426 1_665
Sb8 Tl4 3.087247 1_555
Sb8 Tl0 3.220174 1_555
Sb9 Tl5 3.087247 1_555
Sb9 Tl1 3.220174 1_555
Sb10 Tl6 3.087247 1_555
Sb10 Tl2 3.220174 1_555
Sb11 Tl7 3.087247 1_555
Sb11 Tl3 3.220174 1_555
