# generated using pymatgen
data_Rb2Hg(BrF)2
_symmetry_space_group_name_H-M   'P 1'
_cell_length_a   8.75681035
_cell_length_b   8.75681015
_cell_length_c   6.83707378
_cell_angle_alpha   90.00000000
_cell_angle_beta   90.00000000
_cell_angle_gamma   134.00945489
_symmetry_Int_Tables_number   1
_chemical_formula_structural   Rb2Hg(BrF)2
_chemical_formula_sum   'Rb4 Hg2 Br4 F4'
_cell_volume   377.07437113
_cell_formula_units_Z   2
loop_
 _symmetry_equiv_pos_site_id
 _symmetry_equiv_pos_as_xyz
  1  'x, y, z'
loop_
 _atom_site_type_symbol
 _atom_site_label
 _atom_site_symmetry_multiplicity
 _atom_site_fract_x
 _atom_site_fract_y
 _atom_site_fract_z
 _atom_site_occupancy
  Rb  Rb0  1  0.88740898  0.11259102  0.50000000  1
  Rb  Rb1  1  0.38740898  0.61259102  0.00000000  1
  Rb  Rb2  1  0.11259102  0.88740898  0.50000000  1
  Rb  Rb3  1  0.61259102  0.38740898  0.00000000  1
  Hg  Hg0  1  0.00000000  0.00000000  0.00000000  1
  Hg  Hg1  1  0.50000000  0.50000000  0.50000000  1
  Br  Br0  1  0.83638598  0.16361402  0.00000000  1
  Br  Br1  1  0.16361402  0.83638598  0.00000000  1
  Br  Br2  1  0.33638598  0.66361402  0.50000000  1
  Br  Br3  1  0.66361402  0.33638598  0.50000000  1
  F  F0  1  0.74979974  0.74979974  0.24981453  1
  F  F1  1  0.25020026  0.25020026  0.75018547  1
  F  F2  1  0.24979974  0.24979974  0.25018547  1
  F  F3  1  0.75020026  0.75020026  0.74981453  1
loop_
_geom_bond_atom_site_label_1
_geom_bond_atom_site_label_2
_geom_bond_distance
_geom_bond_site_symmetry_2
Br0 Hg0 2.637775 1_655
Br0 Rb0 3.516113 1_555
Br0 Rb0 3.516113 1_554
Br0 Rb1 3.518404 1_545
Br0 Rb1 3.518404 1_655
Br0 Rb3 3.608008 1_555
Br1 Hg0 2.637775 1_565
Br1 Rb2 3.516113 1_555
Br1 Rb2 3.516113 1_554
Br1 Rb3 3.518404 1_565
Br1 Rb3 3.518404 1_455
Br1 Rb1 3.608008 1_555
Br2 Hg1 2.637775 1_555
Br2 Rb1 3.516113 1_555
Br2 Rb1 3.516113 1_556
Br2 Rb0 3.518404 1_455
Br2 Rb0 3.518404 1_565
Br2 Rb2 3.608008 1_555
Br3 Hg1 2.637775 1_555
Br3 Rb3 3.516113 1_556
Br3 Rb3 3.516113 1_555
Br3 Rb2 3.518404 1_655
Br3 Rb2 3.518404 1_545
Br3 Rb0 3.608008 1_555
F0 Hg1 2.418032 1_555
F0 Hg0 2.418177 1_665
F0 Rb3 3.022103 1_555
F0 Rb1 3.022103 1_555
F0 Rb0 3.025087 1_565
F0 Rb2 3.025087 1_655
F1 Hg1 2.418032 1_555
F1 Hg0 2.418177 1_556
F1 Rb1 3.022103 1_556
F1 Rb3 3.022103 1_556
F1 Rb2 3.025087 1_545
F1 Rb0 3.025087 1_455
F2 Hg0 2.418032 1_555
F2 Hg1 2.418177 1_555
F2 Rb2 3.022103 1_545
F2 Rb0 3.022103 1_455
F2 Rb1 3.025087 1_555
F2 Rb3 3.025087 1_555
F3 Hg0 2.418032 1_666
F3 Hg1 2.418177 1_555
F3 Rb0 3.022103 1_565
F3 Rb2 3.022103 1_655
F3 Rb3 3.025087 1_556
F3 Rb1 3.025087 1_556
