# generated using pymatgen
data_Ba3LiP2H
_symmetry_space_group_name_H-M   'P 1'
_cell_length_a   4.61953396
_cell_length_b   12.58133089
_cell_length_c   13.20862794
_cell_angle_alpha   90.00000000
_cell_angle_beta   90.00000000
_cell_angle_gamma   90.00000000
_symmetry_Int_Tables_number   1
_chemical_formula_structural   Ba3LiP2H
_chemical_formula_sum   'Ba12 Li4 P8 H4'
_cell_volume   767.68394051
_cell_formula_units_Z   4
loop_
 _symmetry_equiv_pos_site_id
 _symmetry_equiv_pos_as_xyz
  1  'x, y, z'
loop_
 _atom_site_type_symbol
 _atom_site_label
 _atom_site_symmetry_multiplicity
 _atom_site_fract_x
 _atom_site_fract_y
 _atom_site_fract_z
 _atom_site_occupancy
  Ba  Ba0  1  0.25000000  0.06399322  0.62046537  1
  Ba  Ba1  1  0.25000000  0.56399322  0.87953463  1
  Ba  Ba2  1  0.75000000  0.93600678  0.37953463  1
  Ba  Ba3  1  0.75000000  0.43600678  0.12046537  1
  Ba  Ba4  1  0.25000000  0.19909133  0.30214898  1
  Ba  Ba5  1  0.25000000  0.69909133  0.19785102  1
  Ba  Ba6  1  0.75000000  0.80090867  0.69785102  1
  Ba  Ba7  1  0.75000000  0.30090867  0.80214898  1
  Ba  Ba8  1  0.25000000  0.37219942  0.55951282  1
  Ba  Ba9  1  0.25000000  0.87219942  0.94048718  1
  Ba  Ba10  1  0.75000000  0.62780058  0.44048718  1
  Ba  Ba11  1  0.75000000  0.12780058  0.05951282  1
  Li  Li0  1  0.25000000  0.13619049  0.85403347  1
  Li  Li1  1  0.25000000  0.63619049  0.64596653  1
  Li  Li2  1  0.75000000  0.86380951  0.14596653  1
  Li  Li3  1  0.75000000  0.36380951  0.35403347  1
  P  P0  1  0.25000000  0.30843842  0.98557485  1
  P  P1  1  0.25000000  0.80843842  0.51442515  1
  P  P2  1  0.75000000  0.69156158  0.01442515  1
  P  P3  1  0.75000000  0.19156158  0.48557485  1
  P  P4  1  0.25000000  0.46670185  0.32533207  1
  P  P5  1  0.25000000  0.96670185  0.17466793  1
  P  P6  1  0.75000000  0.53329815  0.67466793  1
  P  P7  1  0.75000000  0.03329815  0.82533207  1
  H  H0  1  0.25000000  0.23449924  0.73253621  1
  H  H1  1  0.25000000  0.73449924  0.76746379  1
  H  H2  1  0.75000000  0.76550076  0.26746379  1
  H  H3  1  0.75000000  0.26550076  0.23253621  1
loop_
_geom_bond_atom_site_label_1
_geom_bond_atom_site_label_2
_geom_bond_distance
_geom_bond_site_symmetry_2
Ba0 H0 2.606366 1_555
Ba0 P3 3.329490 1_555
Ba0 P3 3.329490 1_455
Ba0 P1 3.507057 1_545
Ba0 P7 3.578637 1_455
Ba0 P7 3.578637 1_555
Ba1 H1 2.606366 1_555
Ba1 P2 3.329490 1_456
Ba1 P2 3.329490 1_556
Ba1 P0 3.507057 1_555
Ba1 P6 3.578637 1_555
Ba1 P6 3.578637 1_455
Ba2 H2 2.606366 1_555
Ba2 P1 3.329490 1_555
Ba2 P1 3.329490 1_655
Ba2 P3 3.507057 1_565
Ba2 P5 3.578637 1_555
Ba2 P5 3.578637 1_655
Ba3 H3 2.606366 1_555
Ba3 P0 3.329490 1_554
Ba3 P0 3.329490 1_654
Ba3 P2 3.507057 1_555
Ba3 P4 3.578637 1_655
Ba3 P4 3.578637 1_555
Ba4 H3 2.622704 1_455
Ba4 H3 2.622704 1_555
Ba4 P3 3.348728 1_455
Ba4 P3 3.348728 1_555
Ba4 P5 3.373985 1_545
Ba4 P4 3.380793 1_555
Ba5 H2 2.622704 1_555
Ba5 H2 2.622704 1_455
Ba5 P2 3.348728 1_555
Ba5 P2 3.348728 1_455
Ba5 P4 3.373985 1_555
Ba5 P5 3.380793 1_555
Ba6 H1 2.622704 1_555
Ba6 H1 2.622704 1_655
Ba6 P1 3.348728 1_555
Ba6 P1 3.348728 1_655
Ba6 P7 3.373985 1_565
Ba6 P6 3.380793 1_555
Ba7 H0 2.622704 1_655
Ba7 H0 2.622704 1_555
Ba7 P0 3.348728 1_555
Ba7 P0 3.348728 1_655
Ba7 P6 3.373985 1_555
Ba7 P7 3.380793 1_555
Ba8 H0 2.867830 1_555
Ba8 P4 3.313845 1_555
Ba8 P3 3.384348 1_555
Ba8 P3 3.384348 1_455
Ba8 P6 3.428798 1_555
Ba8 P6 3.428798 1_455
Ba9 H1 2.867830 1_555
Ba9 P5 3.313845 1_556
Ba9 P2 3.384348 1_456
Ba9 P2 3.384348 1_556
Ba9 P7 3.428798 1_565
Ba9 P7 3.428798 1_465
Ba10 H2 2.867830 1_555
Ba10 P6 3.313845 1_555
Ba10 P1 3.384348 1_555
Ba10 P1 3.384348 1_655
Ba10 P4 3.428798 1_555
Ba10 P4 3.428798 1_655
Ba11 H3 2.867830 1_555
Ba11 P7 3.313845 1_554
Ba11 P0 3.384348 1_654
Ba11 P0 3.384348 1_554
Ba11 P5 3.428798 1_645
Ba11 P5 3.428798 1_545
Li0 P7 2.674796 1_555
Li0 P7 2.674796 1_455
Li0 P0 2.777625 1_555
Li1 P6 2.674796 1_555
Li1 P6 2.674796 1_455
Li1 P1 2.777625 1_555
Li2 P5 2.674796 1_555
Li2 P5 2.674796 1_655
Li2 P2 2.777625 1_555
Li3 P4 2.674796 1_555
Li3 P4 2.674796 1_655
Li3 P3 2.777625 1_555
H0 Li0 2.026137 1_555
H1 Li1 2.026137 1_555
H2 Li2 2.026137 1_555
H3 Li3 2.026137 1_555
