# generated using pymatgen
data_ZnTcF6
_symmetry_space_group_name_H-M   'P 1'
_cell_length_a   5.45480593
_cell_length_b   5.45480568
_cell_length_c   5.45480659
_cell_angle_alpha   55.30881651
_cell_angle_beta   55.30882454
_cell_angle_gamma   55.30883159
_symmetry_Int_Tables_number   1
_chemical_formula_structural   ZnTcF6
_chemical_formula_sum   'Zn1 Tc1 F6'
_cell_volume   102.25770196
_cell_formula_units_Z   1
loop_
 _symmetry_equiv_pos_site_id
 _symmetry_equiv_pos_as_xyz
  1  'x, y, z'
loop_
 _atom_site_type_symbol
 _atom_site_label
 _atom_site_symmetry_multiplicity
 _atom_site_fract_x
 _atom_site_fract_y
 _atom_site_fract_z
 _atom_site_occupancy
  Zn  Zn0  1  0.50000000  0.50000000  0.50000000  1
  Tc  Tc0  1  0.00000000  0.00000000  0.00000000  1
  F  F0  1  0.62080996  0.89004477  0.24387114  1
  F  F1  1  0.89004477  0.24387114  0.62080996  1
  F  F2  1  0.75612886  0.37919004  0.10995524  1
  F  F3  1  0.10995523  0.75612886  0.37919004  1
  F  F4  1  0.37919004  0.10995523  0.75612886  1
  F  F5  1  0.24387114  0.62080996  0.89004476  1
loop_
_geom_bond_atom_site_label_1
_geom_bond_atom_site_label_2
_geom_bond_distance
_geom_bond_site_symmetry_2
F0 Tc0 1.944102 1_665
F0 Zn0 2.019230 1_555
F1 Tc0 1.944102 1_656
F1 Zn0 2.019230 1_555
F2 Tc0 1.944102 1_655
F2 Zn0 2.019231 1_555
F3 Tc0 1.944102 1_565
F3 Zn0 2.019230 1_555
F4 Tc0 1.944102 1_556
F4 Zn0 2.019230 1_555
F5 Tc0 1.944102 1_566
F5 Zn0 2.019231 1_555
