# generated using pymatgen
data_Li2Mn15O32
_symmetry_space_group_name_H-M   'P 1'
_cell_length_a   19.38775212
_cell_length_b   19.38775212
_cell_length_c   19.38775218
_cell_angle_alpha   17.29918850
_cell_angle_beta   17.29918850
_cell_angle_gamma   17.29918788
_symmetry_Int_Tables_number   1
_chemical_formula_structural   Li2Mn15O32
_chemical_formula_sum   'Li2 Mn15 O32'
_cell_volume   562.30024756
_cell_formula_units_Z   1
loop_
 _symmetry_equiv_pos_site_id
 _symmetry_equiv_pos_as_xyz
  1  'x, y, z'
loop_
 _atom_site_type_symbol
 _atom_site_label
 _atom_site_symmetry_multiplicity
 _atom_site_fract_x
 _atom_site_fract_y
 _atom_site_fract_z
 _atom_site_occupancy
  Li  Li0  1  0.15606100  0.15606100  0.15606100  1
  Li  Li1  1  0.84450200  0.84450200  0.84450200  1
  Mn  Mn0  1  0.62274100  0.62274100  0.13142200  1
  Mn  Mn1  1  0.13142200  0.62274100  0.62274100  1
  Mn  Mn2  1  0.87163400  0.87163400  0.38198800  1
  Mn  Mn3  1  0.62274100  0.13142200  0.62274100  1
  Mn  Mn4  1  0.38198800  0.87163400  0.87163400  1
  Mn  Mn5  1  0.12513900  0.12513900  0.62477200  1
  Mn  Mn6  1  0.00031700  0.00031700  0.00031700  1
  Mn  Mn7  1  0.09521600  0.09521600  0.09521600  1
  Mn  Mn8  1  0.87163400  0.38198800  0.87163400  1
  Mn  Mn9  1  0.62477200  0.12513900  0.12513900  1
  Mn  Mn10  1  0.37689000  0.37689000  0.87001200  1
  Mn  Mn11  1  0.12513900  0.62477200  0.12513900  1
  Mn  Mn12  1  0.24958300  0.24958300  0.24958300  1
  Mn  Mn13  1  0.87001200  0.37689000  0.37689000  1
  Mn  Mn14  1  0.37689000  0.87001200  0.37689000  1
  O  O0  1  0.78872800  0.31904200  0.31904200  1
  O  O1  1  0.44113600  0.44113600  0.44113600  1
  O  O2  1  0.31904200  0.78872800  0.31904200  1
  O  O3  1  0.31904200  0.31904200  0.78872800  1
  O  O4  1  0.03753900  0.56878900  0.56878900  1
  O  O5  1  0.92758500  0.92758500  0.46473200  1
  O  O6  1  0.69075200  0.69075200  0.69075200  1
  O  O7  1  0.56878900  0.03753900  0.56878900  1
  O  O8  1  0.80929200  0.80929200  0.80929200  1
  O  O9  1  0.92758500  0.46473200  0.92758500  1
  O  O10  1  0.56878900  0.56878900  0.03753900  1
  O  O11  1  0.46473200  0.92758500  0.92758500  1
  O  O12  1  0.27122200  0.83137300  0.83137300  1
  O  O13  1  0.16793200  0.16793200  0.73090500  1
  O  O14  1  0.94131700  0.94131700  0.94131700  1
  O  O15  1  0.83137300  0.27122200  0.83137300  1
  O  O16  1  0.06000100  0.06000100  0.06000100  1
  O  O17  1  0.16793200  0.73090500  0.16793200  1
  O  O18  1  0.83137300  0.83137300  0.27122200  1
  O  O19  1  0.73090500  0.16793200  0.16793200  1
  O  O20  1  0.51879900  0.08225000  0.08225000  1
  O  O21  1  0.41881000  0.41881000  0.97880800  1
  O  O22  1  0.19042000  0.19042000  0.19042000  1
  O  O23  1  0.30876500  0.30876500  0.30876500  1
  O  O24  1  0.08225000  0.51879900  0.08225000  1
  O  O25  1  0.41881000  0.97880800  0.41881000  1
  O  O26  1  0.08225000  0.08225000  0.51879900  1
  O  O27  1  0.97880800  0.41881000  0.41881000  1
  O  O28  1  0.68307900  0.68307900  0.20814400  1
  O  O29  1  0.55879000  0.55879000  0.55879000  1
  O  O30  1  0.68307900  0.20814400  0.68307900  1
  O  O31  1  0.20814400  0.68307900  0.68307900  1
loop_
_geom_bond_atom_site_label_1
_geom_bond_atom_site_label_2
_geom_bond_distance
_geom_bond_site_symmetry_2
Li0 O0 1.952395 1_455
Li0 O2 1.952395 1_545
Li0 O3 1.952395 1_554
Li0 O22 1.968068 1_555
Li1 O30 1.931794 1_565
Li1 O31 1.931794 1_655
Li1 O28 1.931794 1_556
Li1 O8 2.016813 1_555
Mn0 O0 1.878605 1_555
Mn0 O2 1.878605 1_555
Mn0 O1 1.944116 1_555
Mn0 O11 1.969055 1_554
Mn0 O9 1.969055 1_554
Mn0 O8 1.969840 1_554
Mn1 O3 1.878605 1_555
Mn1 O2 1.878605 1_555
Mn1 O1 1.944116 1_555
Mn1 O5 1.969055 1_455
Mn1 O9 1.969055 1_455
Mn1 O8 1.969840 1_455
Mn2 O7 1.874297 1_565
Mn2 O4 1.874297 1_655
Mn2 O6 1.934354 1_555
Mn2 O19 1.958625 1_565
Mn2 O17 1.958625 1_655
Mn2 O16 2.011239 1_665
Mn3 O3 1.878605 1_555
Mn3 O0 1.878605 1_555
Mn3 O1 1.944116 1_555
Mn3 O5 1.969055 1_545
Mn3 O11 1.969055 1_545
Mn3 O8 1.969840 1_545
Mn4 O10 1.874297 1_556
Mn4 O7 1.874297 1_565
Mn4 O6 1.934354 1_555
Mn4 O13 1.958625 1_565
Mn4 O17 1.958625 1_556
Mn4 O16 2.011239 1_566
Mn5 O27 1.945526 1_455
Mn5 O25 1.945526 1_545
Mn5 O23 1.946028 1_555
Mn5 O14 1.946766 1_445
Mn5 O15 1.949809 1_455
Mn5 O12 1.949809 1_545
Mn6 O19 1.934998 1_455
Mn6 O17 1.934998 1_545
Mn6 O13 1.934998 1_554
Mn6 O15 1.956698 1_454
Mn6 O12 1.956698 1_544
Mn6 O18 1.956698 1_445
Mn7 O9 1.923101 1_454
Mn7 O11 1.923101 1_544
Mn7 O5 1.923101 1_445
Mn7 O16 2.017099 1_555
Mn8 O10 1.874297 1_556
Mn8 O4 1.874297 1_655
Mn8 O6 1.934354 1_555
Mn8 O13 1.958625 1_655
Mn8 O19 1.958625 1_556
Mn8 O16 2.011239 1_656
Mn9 O21 1.945526 1_554
Mn9 O25 1.945526 1_545
Mn9 O23 1.946028 1_555
Mn9 O14 1.946766 1_544
Mn9 O18 1.949809 1_545
Mn9 O15 1.949809 1_554
Mn10 O31 1.884514 1_555
Mn10 O30 1.884514 1_555
Mn10 O29 1.940156 1_555
Mn10 O24 1.963476 1_556
Mn10 O20 1.963476 1_556
Mn10 O22 1.979488 1_556
Mn11 O21 1.945526 1_554
Mn11 O27 1.945526 1_455
Mn11 O23 1.946028 1_555
Mn11 O14 1.946766 1_454
Mn11 O18 1.949809 1_455
Mn11 O12 1.949809 1_554
Mn12 O20 1.929215 1_555
Mn12 O24 1.929215 1_555
Mn12 O26 1.929215 1_555
Mn12 O27 1.965797 1_455
Mn12 O25 1.965797 1_545
Mn12 O21 1.965797 1_554
Mn13 O28 1.884514 1_555
Mn13 O30 1.884514 1_555
Mn13 O29 1.940156 1_555
Mn13 O26 1.963476 1_655
Mn13 O24 1.963476 1_655
Mn13 O22 1.979488 1_655
Mn14 O28 1.884514 1_555
Mn14 O31 1.884514 1_555
Mn14 O29 1.940156 1_555
Mn14 O26 1.963476 1_565
Mn14 O20 1.963476 1_565
Mn14 O22 1.979488 1_565
