# generated using pymatgen
data_Ba3WI2O5
_symmetry_space_group_name_H-M   'P 1'
_cell_length_a   8.16679158
_cell_length_b   8.16679126
_cell_length_c   11.87946370
_cell_angle_alpha   90.00000000
_cell_angle_beta   90.00000000
_cell_angle_gamma   136.69110755
_symmetry_Int_Tables_number   1
_chemical_formula_structural   Ba3WI2O5
_chemical_formula_sum   'Ba6 W2 I4 O10'
_cell_volume   543.47601425
_cell_formula_units_Z   2
loop_
 _symmetry_equiv_pos_site_id
 _symmetry_equiv_pos_as_xyz
  1  'x, y, z'
loop_
 _atom_site_type_symbol
 _atom_site_label
 _atom_site_symmetry_multiplicity
 _atom_site_fract_x
 _atom_site_fract_y
 _atom_site_fract_z
 _atom_site_occupancy
  Ba  Ba0  1  0.34003311  0.65996689  0.96530987  1
  Ba  Ba1  1  0.65996689  0.34003311  0.46530987  1
  Ba  Ba2  1  0.34003311  0.65996689  0.53469013  1
  Ba  Ba3  1  0.12314826  0.87685174  0.75000000  1
  Ba  Ba4  1  0.65996689  0.34003311  0.03469013  1
  Ba  Ba5  1  0.87685174  0.12314826  0.25000000  1
  W  W0  1  0.23830324  0.76169676  0.25000000  1
  W  W1  1  0.76169676  0.23830324  0.75000000  1
  I  I0  1  0.50792896  0.49207104  0.75000000  1
  I  I1  1  0.00000000  0.00000000  0.00000000  1
  I  I2  1  0.00000000  0.00000000  0.50000000  1
  I  I3  1  0.49207104  0.50792896  0.25000000  1
  O  O0  1  0.48836044  0.94756247  0.13893500  1
  O  O1  1  0.87609759  0.12390241  0.75000000  1
  O  O2  1  0.94756247  0.48836044  0.63893500  1
  O  O3  1  0.51163956  0.05243753  0.86106500  1
  O  O4  1  0.12390241  0.87609759  0.25000000  1
  O  O5  1  0.51163956  0.05243753  0.63893500  1
  O  O6  1  0.94756247  0.48836044  0.86106500  1
  O  O7  1  0.05243753  0.51163956  0.13893500  1
  O  O8  1  0.48836044  0.94756247  0.36106500  1
  O  O9  1  0.05243753  0.51163956  0.36106500  1
loop_
_geom_bond_atom_site_label_1
_geom_bond_atom_site_label_2
_geom_bond_distance
_geom_bond_site_symmetry_2
Ba0 O0 2.664112 1_556
Ba0 O7 2.664112 1_556
Ba0 O3 2.689564 1_565
Ba0 O6 2.689564 1_455
Ba0 I0 3.610895 1_555
Ba0 I1 3.892168 1_556
Ba0 I1 3.892168 1_666
Ba1 O5 2.664112 1_555
Ba1 O2 2.664112 1_555
Ba1 O8 2.689564 1_545
Ba1 O9 2.689564 1_655
Ba1 I3 3.610895 1_555
Ba1 I2 3.892168 1_665
Ba1 I2 3.892168 1_555
Ba2 O8 2.664112 1_555
Ba2 O9 2.664112 1_555
Ba2 O5 2.689564 1_565
Ba2 O2 2.689564 1_455
Ba2 I0 3.610895 1_555
Ba2 I2 3.892168 1_555
Ba2 I2 3.892168 1_665
Ba3 O6 2.691112 1_455
Ba3 O2 2.691112 1_455
Ba3 O3 2.691113 1_565
Ba3 O5 2.691113 1_565
Ba3 I0 3.484437 1_565
Ba3 I0 3.484437 1_455
Ba3 I2 3.509291 1_565
Ba3 I1 3.509291 1_566
Ba4 O3 2.664112 1_554
Ba4 O6 2.664112 1_554
Ba4 O0 2.689564 1_545
Ba4 O7 2.689564 1_655
Ba4 I3 3.610895 1_555
Ba4 I1 3.892168 1_665
Ba4 I1 3.892168 1_555
Ba5 O9 2.691112 1_655
Ba5 O7 2.691112 1_655
Ba5 O8 2.691113 1_545
Ba5 O0 2.691113 1_545
Ba5 I3 3.484437 1_545
Ba5 I3 3.484437 1_655
Ba5 I2 3.509291 1_655
Ba5 I1 3.509291 1_655
O0 W0 1.924581 1_555
O1 W1 1.736703 1_555
O2 W1 1.924581 1_555
O3 W1 1.924581 1_555
O4 W0 1.736703 1_555
O5 W1 1.924581 1_555
O6 W1 1.924581 1_555
O7 W0 1.924581 1_555
O8 W0 1.924581 1_555
O9 W0 1.924581 1_555
