# generated using pymatgen
data_Ba4ReSbO10
_symmetry_space_group_name_H-M   'P 1'
_cell_length_a   5.79684340
_cell_length_b   7.42662759
_cell_length_c   11.61508208
_cell_angle_alpha   89.54395918
_cell_angle_beta   90.00000000
_cell_angle_gamma   90.00000000
_symmetry_Int_Tables_number   1
_chemical_formula_structural   Ba4ReSbO10
_chemical_formula_sum   'Ba8 Re2 Sb2 O20'
_cell_volume   500.02502547
_cell_formula_units_Z   2
loop_
 _symmetry_equiv_pos_site_id
 _symmetry_equiv_pos_as_xyz
  1  'x, y, z'
loop_
 _atom_site_type_symbol
 _atom_site_label
 _atom_site_symmetry_multiplicity
 _atom_site_fract_x
 _atom_site_fract_y
 _atom_site_fract_z
 _atom_site_occupancy
  Ba  Ba0  1  0.75000000  0.47514083  0.27084445  1
  Ba  Ba1  1  0.25000000  0.52485917  0.72915555  1
  Ba  Ba2  1  0.75000000  0.98615296  0.20616758  1
  Ba  Ba3  1  0.25000000  0.01384704  0.79383242  1
  Ba  Ba4  1  0.75000000  0.19425407  0.60849172  1
  Ba  Ba5  1  0.25000000  0.80574593  0.39150828  1
  Ba  Ba6  1  0.75000000  0.65778487  0.93753868  1
  Ba  Ba7  1  0.25000000  0.34221513  0.06246132  1
  Re  Re0  1  0.75000000  0.68646438  0.55715400  1
  Re  Re1  1  0.25000000  0.31353562  0.44284600  1
  Sb  Sb0  1  0.75000000  0.16336346  0.92622268  1
  Sb  Sb1  1  0.25000000  0.83663654  0.07377732  1
  O  O0  1  0.48381322  0.16911400  0.40255160  1
  O  O1  1  0.98381322  0.83088600  0.59744840  1
  O  O2  1  0.00264257  0.68747427  0.13970493  1
  O  O3  1  0.50264257  0.31252573  0.86029507  1
  O  O4  1  0.51618678  0.83088600  0.59744840  1
  O  O5  1  0.01618678  0.16911400  0.40255160  1
  O  O6  1  0.99735743  0.31252573  0.86029507  1
  O  O7  1  0.49735743  0.68747427  0.13970493  1
  O  O8  1  0.50000000  0.50000000  0.50000000  1
  O  O9  1  0.00000000  0.50000000  0.50000000  1
  O  O10  1  0.00000000  0.00000000  0.00000000  1
  O  O11  1  0.50000000  0.00000000  0.00000000  1
  O  O12  1  0.75000000  0.29903418  0.07380054  1
  O  O13  1  0.25000000  0.70096582  0.92619946  1
  O  O14  1  0.75000000  0.76352176  0.40277359  1
  O  O15  1  0.25000000  0.23647824  0.59722641  1
  O  O16  1  0.75000000  0.99444450  0.79756764  1
  O  O17  1  0.25000000  0.00555550  0.20243236  1
  O  O18  1  0.75000000  0.54776291  0.68674163  1
  O  O19  1  0.25000000  0.45223709  0.31325837  1
loop_
_geom_bond_atom_site_label_1
_geom_bond_atom_site_label_2
_geom_bond_distance
_geom_bond_site_symmetry_2
Ba0 O7 2.629338 1_555
Ba0 O2 2.629338 1_655
Ba0 O14 2.643343 1_555
Ba0 O12 2.645044 1_555
Ba0 O19 2.944680 1_655
Ba0 O19 2.944680 1_555
Ba0 O8 3.037525 1_555
Ba0 O9 3.037525 1_655
Ba0 O0 3.135486 1_555
Ba0 O5 3.135486 1_655
Ba1 O6 2.629338 1_455
Ba1 O3 2.629338 1_555
Ba1 O15 2.643343 1_555
Ba1 O13 2.645044 1_555
Ba1 O18 2.944680 1_455
Ba1 O18 2.944680 1_555
Ba1 O8 3.037525 1_555
Ba1 O9 3.037525 1_555
Ba1 O1 3.135486 1_455
Ba1 O4 3.135486 1_555
Ba2 O7 2.772786 1_555
Ba2 O2 2.772786 1_655
Ba2 O12 2.776014 1_565
Ba2 O10 2.800220 1_665
Ba2 O11 2.800220 1_565
Ba2 O14 2.808635 1_555
Ba2 O17 2.902308 1_565
Ba2 O17 2.902308 1_665
Ba2 O5 3.078904 1_665
Ba2 O0 3.078904 1_565
Ba3 O6 2.772786 1_455
Ba3 O3 2.772786 1_555
Ba3 O13 2.776014 1_545
Ba3 O11 2.800220 1_556
Ba3 O10 2.800220 1_556
Ba3 O15 2.808635 1_555
Ba3 O16 2.902308 1_545
Ba3 O16 2.902308 1_445
Ba3 O1 3.078904 1_445
Ba3 O4 3.078904 1_545
Ba4 O16 2.640665 1_545
Ba4 O18 2.785078 1_555
Ba4 O5 2.853887 1_655
Ba4 O0 2.853887 1_555
Ba4 O15 2.918159 1_655
Ba4 O15 2.918159 1_555
Ba4 O8 2.966230 1_555
Ba4 O9 2.966230 1_655
Ba4 O4 3.023484 1_545
Ba4 O1 3.023484 1_545
Ba4 O6 3.379708 1_555
Ba4 O3 3.379708 1_555
Ba5 O17 2.640665 1_565
Ba5 O19 2.785078 1_555
Ba5 O1 2.853887 1_455
Ba5 O4 2.853887 1_555
Ba5 O14 2.918159 1_455
Ba5 O14 2.918159 1_555
Ba5 O8 2.966230 1_555
Ba5 O9 2.966230 1_555
Ba5 O0 3.023484 1_565
Ba5 O5 3.023484 1_565
Ba5 O7 3.379708 1_555
Ba5 O2 3.379708 1_555
Ba6 O7 2.777705 1_556
Ba6 O2 2.777705 1_656
Ba6 O13 2.918966 1_655
Ba6 O13 2.918966 1_555
Ba6 O16 2.971475 1_555
Ba6 O10 3.019130 1_666
Ba6 O11 3.019130 1_566
Ba6 O18 3.031710 1_555
Ba6 O3 3.077708 1_555
Ba6 O6 3.077708 1_555
Ba6 O12 3.088094 1_556
Ba7 O6 2.777705 1_454
Ba7 O3 2.777705 1_554
Ba7 O12 2.918966 1_455
Ba7 O12 2.918966 1_555
Ba7 O17 2.971475 1_555
Ba7 O10 3.019130 1_555
Ba7 O11 3.019130 1_555
Ba7 O19 3.031710 1_555
Ba7 O2 3.077708 1_555
Ba7 O7 3.077708 1_555
Ba7 O13 3.088094 1_554
O0 Re1 1.792898 1_555
O1 Re0 1.792898 1_555
O2 Sb1 1.963691 1_555
O3 Sb0 1.963691 1_555
O4 Re0 1.792898 1_555
O5 Re1 1.792898 1_555
O6 Sb0 1.963691 1_555
O7 Sb1 1.963691 1_555
O8 Re0 2.114998 1_555
O8 Re1 2.114998 1_555
O9 Re0 2.114998 1_455
O9 Re1 2.114998 1_555
O10 Sb1 2.071217 1_545
O10 Sb0 2.071217 1_454
O11 Sb1 2.071217 1_545
O11 Sb0 2.071217 1_554
O12 Sb0 1.995230 1_554
O13 Sb1 1.995230 1_556
O14 Re0 1.877903 1_555
O15 Re1 1.877903 1_555
O16 Sb0 1.958738 1_565
O17 Sb1 1.958738 1_545
O18 Re0 1.817122 1_555
O19 Re1 1.817122 1_555
