# generated using pymatgen
data_Ca2CdAsP
_symmetry_space_group_name_H-M   'P 1'
_cell_length_a   8.32940131
_cell_length_b   8.32940049
_cell_length_c   7.25875901
_cell_angle_alpha   90.00000000
_cell_angle_beta   90.00000000
_cell_angle_gamma   150.46988988
_symmetry_Int_Tables_number   1
_chemical_formula_structural   Ca2CdAsP
_chemical_formula_sum   'Ca4 Cd2 As2 P2'
_cell_volume   248.21720555
_cell_formula_units_Z   2
loop_
 _symmetry_equiv_pos_site_id
 _symmetry_equiv_pos_as_xyz
  1  'x, y, z'
loop_
 _atom_site_type_symbol
 _atom_site_label
 _atom_site_symmetry_multiplicity
 _atom_site_fract_x
 _atom_site_fract_y
 _atom_site_fract_z
 _atom_site_occupancy
  Ca  Ca0  1  0.29516353  0.70483647  0.91359245  1
  Ca  Ca1  1  0.70483647  0.29516353  0.41359245  1
  Ca  Ca2  1  0.46264848  0.53735152  0.27307012  1
  Ca  Ca3  1  0.53735152  0.46264848  0.77307012  1
  Cd  Cd0  1  0.09904304  0.90095696  0.10921400  1
  Cd  Cd1  1  0.90095696  0.09904304  0.60921400  1
  As  As0  1  0.06554121  0.93445879  0.48193036  1
  As  As1  1  0.93445879  0.06554121  0.98193036  1
  P  P0  1  0.32048038  0.67951962  0.51086208  1
  P  P1  1  0.67951962  0.32048038  0.01086208  1
loop_
_geom_bond_atom_site_label_1
_geom_bond_atom_site_label_2
_geom_bond_distance
_geom_bond_site_symmetry_2
Ca0 P1 2.911200 1_566
Ca0 P1 2.911201 1_456
Ca0 P0 2.951632 1_555
Ca1 P0 2.911200 1_545
Ca1 P0 2.911201 1_655
Ca1 P1 2.951632 1_555
Ca2 P0 2.867769 1_555
Ca3 P1 2.867769 1_556
Cd0 P1 2.587765 1_455
Cd0 P1 2.587765 1_565
Cd1 P0 2.587765 1_655
Cd1 P0 2.587765 1_545
As0 Cd0 2.758759 1_555
As0 Cd1 2.807616 1_465
As0 Ca3 3.029616 1_565
As0 Ca3 3.029616 1_455
As0 Ca2 3.090620 1_565
As0 Ca2 3.090620 1_455
As0 Ca1 3.128462 1_455
As0 Ca1 3.128462 1_565
As1 Cd1 2.758759 1_555
As1 Cd0 2.807616 1_646
As1 Ca2 3.029616 1_546
As1 Ca2 3.029616 1_656
As1 Ca3 3.090620 1_545
As1 Ca3 3.090620 1_655
As1 Ca0 3.128462 1_655
As1 Ca0 3.128462 1_545
