# generated using pymatgen
data_Cs3Tc4P3O16
_symmetry_space_group_name_H-M   'P 1'
_cell_length_a   7.66269566
_cell_length_b   7.66269566
_cell_length_c   7.66269566
_cell_angle_alpha   90.00000000
_cell_angle_beta   90.00000000
_cell_angle_gamma   90.00000000
_symmetry_Int_Tables_number   1
_chemical_formula_structural   Cs3Tc4P3O16
_chemical_formula_sum   'Cs3 Tc4 P3 O16'
_cell_volume   449.92977160
_cell_formula_units_Z   1
loop_
 _symmetry_equiv_pos_site_id
 _symmetry_equiv_pos_as_xyz
  1  'x, y, z'
loop_
 _atom_site_type_symbol
 _atom_site_label
 _atom_site_symmetry_multiplicity
 _atom_site_fract_x
 _atom_site_fract_y
 _atom_site_fract_z
 _atom_site_occupancy
  Cs  Cs0  1  0.00000000  0.50000000  0.00000000  1
  Cs  Cs1  1  0.00000000  0.00000000  0.50000000  1
  Cs  Cs2  1  0.50000000  0.00000000  0.00000000  1
  Tc  Tc0  1  0.38289710  0.38289710  0.38289710  1
  Tc  Tc1  1  0.61710290  0.61710290  0.38289710  1
  Tc  Tc2  1  0.61710290  0.38289710  0.61710290  1
  Tc  Tc3  1  0.38289710  0.61710290  0.61710290  1
  P  P0  1  0.50000000  0.00000000  0.50000000  1
  P  P1  1  0.50000000  0.50000000  0.00000000  1
  P  P2  1  0.00000000  0.50000000  0.50000000  1
  O  O0  1  0.38228204  0.38228204  0.11353441  1
  O  O1  1  0.88646559  0.61771796  0.38228204  1
  O  O2  1  0.64508550  0.64508550  0.64508550  1
  O  O3  1  0.64508550  0.35491450  0.35491450  1
  O  O4  1  0.11353441  0.38228204  0.38228204  1
  O  O5  1  0.38228204  0.61771796  0.88646559  1
  O  O6  1  0.61771796  0.61771796  0.11353441  1
  O  O7  1  0.35491450  0.35491450  0.64508550  1
  O  O8  1  0.61771796  0.88646559  0.38228204  1
  O  O9  1  0.88646559  0.38228204  0.61771796  1
  O  O10  1  0.38228204  0.11353441  0.38228204  1
  O  O11  1  0.61771796  0.38228204  0.88646559  1
  O  O12  1  0.35491450  0.64508550  0.35491450  1
  O  O13  1  0.38228204  0.88646559  0.61771796  1
  O  O14  1  0.11353441  0.61771796  0.61771796  1
  O  O15  1  0.61771796  0.11353441  0.61771796  1
loop_
_geom_bond_atom_site_label_1
_geom_bond_atom_site_label_2
_geom_bond_distance
_geom_bond_site_symmetry_2
Cs0 O5 3.186126 1_554
Cs0 O1 3.186126 1_455
Cs0 O4 3.186126 1_555
Cs0 O0 3.186126 1_555
Cs0 O14 3.186126 1_554
Cs0 O6 3.186126 1_455
Cs0 O11 3.186126 1_454
Cs0 O9 3.186126 1_454
Cs1 O13 3.186126 1_545
Cs1 O9 3.186126 1_455
Cs1 O10 3.186126 1_555
Cs1 O4 3.186126 1_555
Cs1 O14 3.186126 1_545
Cs1 O15 3.186126 1_455
Cs1 O8 3.186126 1_445
Cs1 O1 3.186126 1_445
Cs2 O11 3.186126 1_554
Cs2 O8 3.186126 1_545
Cs2 O10 3.186126 1_555
Cs2 O0 3.186126 1_555
Cs2 O15 3.186126 1_554
Cs2 O6 3.186126 1_545
Cs2 O5 3.186126 1_544
Cs2 O13 3.186126 1_544
O0 P1 1.544087 1_555
O0 Tc0 2.064055 1_555
O1 P2 1.544087 1_655
O1 Tc1 2.064055 1_555
O2 Tc2 2.031826 1_555
O2 Tc1 2.031826 1_555
O2 Tc3 2.031826 1_555
O3 Tc0 2.031826 1_555
O3 Tc2 2.031826 1_555
O3 Tc1 2.031826 1_555
O4 P2 1.544087 1_555
O4 Tc0 2.064055 1_555
O5 P1 1.544087 1_556
O5 Tc3 2.064055 1_555
O6 P1 1.544087 1_555
O6 Tc1 2.064055 1_555
O7 Tc0 2.031826 1_555
O7 Tc3 2.031826 1_555
O7 Tc2 2.031826 1_555
O8 P0 1.544087 1_565
O8 Tc1 2.064055 1_555
O9 P2 1.544087 1_655
O9 Tc2 2.064055 1_555
O10 P0 1.544087 1_555
O10 Tc0 2.064055 1_555
O11 P1 1.544087 1_556
O11 Tc2 2.064055 1_555
O12 Tc0 2.031826 1_555
O12 Tc3 2.031826 1_555
O12 Tc1 2.031826 1_555
O13 P0 1.544087 1_565
O13 Tc3 2.064055 1_555
O14 P2 1.544087 1_555
O14 Tc3 2.064055 1_555
O15 P0 1.544087 1_555
O15 Tc2 2.064055 1_555
