# generated using pymatgen
data_Cs2Rb4Zn2O5
_symmetry_space_group_name_H-M   'P 1'
_cell_length_a   7.00997399
_cell_length_b   6.98934660
_cell_length_c   7.00997298
_cell_angle_alpha   90.57800891
_cell_angle_beta   119.03271956
_cell_angle_gamma   90.57798512
_symmetry_Int_Tables_number   1
_chemical_formula_structural   Cs2Rb4Zn2O5
_chemical_formula_sum   'Cs2 Rb4 Zn2 O5'
_cell_volume   300.23763855
_cell_formula_units_Z   1
loop_
 _symmetry_equiv_pos_site_id
 _symmetry_equiv_pos_as_xyz
  1  'x, y, z'
loop_
 _atom_site_type_symbol
 _atom_site_label
 _atom_site_symmetry_multiplicity
 _atom_site_fract_x
 _atom_site_fract_y
 _atom_site_fract_z
 _atom_site_occupancy
  Cs  Cs0  1  0.66152943  0.80088553  0.66152943  1
  Cs  Cs1  1  0.33847157  0.19911147  0.33847157  1
  Rb  Rb0  1  0.23204476  0.50000200  0.76795324  1
  Rb  Rb1  1  0.76795424  0.50000100  0.23204476  1
  Rb  Rb2  1  0.77912840  0.00000000  0.22087460  1
  Rb  Rb3  1  0.22087460  1.00000000  0.77912840  1
  Zn  Zn0  1  0.19983644  0.69007344  0.19983844  1
  Zn  Zn1  1  0.80016256  0.30992656  0.80016256  1
  O  O0  1  0.99999900  0.50000000  0.99999900  1
  O  O1  1  0.15984876  0.77223589  0.43392162  1
  O  O2  1  0.56607938  0.22776311  0.84015024  1
  O  O3  1  0.84015024  0.22776311  0.56607938  1
  O  O4  1  0.43392162  0.77223689  0.15984876  1
loop_
_geom_bond_atom_site_label_1
_geom_bond_atom_site_label_2
_geom_bond_distance
_geom_bond_site_symmetry_2
Cs0 O4 3.080028 1_555
Cs0 O1 3.080029 1_555
Cs0 O0 3.227825 1_555
Cs0 O2 3.419861 1_565
Cs0 O3 3.419862 1_565
Cs1 O2 3.080016 1_555
Cs1 O3 3.080017 1_555
Cs1 O0 3.227855 1_454
Cs1 O4 3.419849 1_545
Cs1 O1 3.419856 1_545
O0 Zn1 1.926090 1_555
O0 Zn0 1.926101 1_656
O0 Rb1 2.803577 1_556
O0 Rb0 2.803583 1_655
O1 Zn0 1.879268 1_555
O1 Rb3 2.734381 1_555
O1 Rb2 2.855229 1_465
O1 Rb0 2.884181 1_555
O1 Rb1 3.039213 1_455
O2 Zn1 1.879271 1_555
O2 Rb3 2.734374 1_545
O2 Rb2 2.855245 1_556
O2 Rb0 2.884219 1_555
O2 Rb1 3.039224 1_556
O3 Zn1 1.879271 1_555
O3 Rb2 2.734373 1_555
O3 Rb3 2.855245 1_645
O3 Rb1 2.884216 1_555
O3 Rb0 3.039229 1_655
O4 Zn0 1.879292 1_555
O4 Rb2 2.734378 1_565
O4 Rb3 2.855225 1_554
O4 Rb1 2.884196 1_555
O4 Rb0 3.039217 1_554
