# generated using pymatgen
data_Y2Lu(Ga2Ni3)3
_symmetry_space_group_name_H-M   'P 1'
_cell_length_a   8.67115752
_cell_length_b   8.67115723
_cell_length_c   4.04142636
_cell_angle_alpha   90.00000000
_cell_angle_beta   90.00000000
_cell_angle_gamma   119.99999365
_symmetry_Int_Tables_number   1
_chemical_formula_structural   Y2Lu(Ga2Ni3)3
_chemical_formula_sum   'Y2 Lu1 Ga6 Ni9'
_cell_volume   263.15975058
_cell_formula_units_Z   1
loop_
 _symmetry_equiv_pos_site_id
 _symmetry_equiv_pos_as_xyz
  1  'x, y, z'
loop_
 _atom_site_type_symbol
 _atom_site_label
 _atom_site_symmetry_multiplicity
 _atom_site_fract_x
 _atom_site_fract_y
 _atom_site_fract_z
 _atom_site_occupancy
  Y  Y0  1  0.66666700  0.33333300  0.50000000  1
  Y  Y1  1  0.33333300  0.66666700  0.50000000  1
  Lu  Lu0  1  0.00000000  0.00000000  0.00000000  1
  Ga  Ga0  1  0.48215030  0.48215030  0.00000000  1
  Ga  Ga1  1  0.51784970  1.00000000  0.00000000  1
  Ga  Ga2  1  1.00000000  0.51784970  0.00000000  1
  Ga  Ga3  1  0.73257104  0.73257104  0.50000000  1
  Ga  Ga4  1  0.26742896  0.00000000  0.50000000  1
  Ga  Ga5  1  0.00000000  0.26742896  0.50000000  1
  Ni  Ni0  1  0.82704591  0.19550781  0.00000000  1
  Ni  Ni1  1  0.80449219  0.63153710  0.00000000  1
  Ni  Ni2  1  0.36846290  0.17295409  0.00000000  1
  Ni  Ni3  1  0.19550781  0.82704591  0.00000000  1
  Ni  Ni4  1  0.63153710  0.80449219  0.00000000  1
  Ni  Ni5  1  0.17295409  0.36846290  0.00000000  1
  Ni  Ni6  1  0.29229628  0.29229628  0.50000000  1
  Ni  Ni7  1  0.70770372  1.00000000  0.50000000  1
  Ni  Ni8  1  1.00000000  0.70770372  0.50000000  1
loop_
_geom_bond_atom_site_label_1
_geom_bond_atom_site_label_2
_geom_bond_distance
_geom_bond_site_symmetry_2
Lu0 Ni0 2.768671 1_455
Lu0 Ni3 2.768671 1_545
Lu0 Ni1 2.768678 1_445
Lu0 Ni4 2.768678 1_445
Lu0 Ni5 2.768679 1_555
Lu0 Ni2 2.768679 1_555
Ga0 Ni2 2.348834 1_555
Ga0 Ni5 2.348834 1_555
Ga0 Ni4 2.422764 1_555
Ga0 Ni1 2.422764 1_555
Ga0 Ni6 2.606422 1_555
Ga0 Ni6 2.606422 1_554
Ga0 Y1 3.220716 1_554
Ga0 Y1 3.220716 1_555
Ga0 Y0 3.220716 1_554
Ga0 Y0 3.220716 1_555
Ga1 Ni4 2.348826 1_555
Ga1 Ni0 2.348833 1_565
Ga1 Ni2 2.422756 1_565
Ga1 Ni3 2.422764 1_555
Ga1 Ni7 2.606422 1_555
Ga1 Ni7 2.606422 1_554
Ga1 Y0 3.220710 1_564
Ga1 Y0 3.220710 1_565
Ga1 Y1 3.220710 1_555
Ga1 Y1 3.220710 1_554
Ga2 Ni1 2.348826 1_555
Ga2 Ni3 2.348833 1_655
Ga2 Ni5 2.422756 1_655
Ga2 Ni0 2.422763 1_555
Ga2 Ni8 2.606422 1_555
Ga2 Ni8 2.606422 1_554
Ga2 Y1 3.220710 1_655
Ga2 Y1 3.220710 1_654
Ga2 Y0 3.220710 1_554
Ga2 Y0 3.220710 1_555
Ga3 Ni1 2.405428 1_555
Ga3 Ni1 2.405428 1_556
Ga3 Ni4 2.405428 1_555
Ga3 Ni4 2.405428 1_556
Ga3 Ni7 2.433907 1_555
Ga3 Ni8 2.433907 1_555
Ga3 Y0 3.214450 1_555
Ga3 Y1 3.214450 1_555
Ga4 Ni3 2.405424 1_545
Ga4 Ni3 2.405424 1_546
Ga4 Ni2 2.405424 1_555
Ga4 Ni2 2.405424 1_556
Ga4 Ni6 2.433907 1_555
Ga4 Ni8 2.433907 1_445
Ga4 Y1 3.214442 1_545
Ga4 Y0 3.214447 1_555
Ga5 Ni0 2.405424 1_456
Ga5 Ni0 2.405424 1_455
Ga5 Ni5 2.405425 1_555
Ga5 Ni5 2.405425 1_556
Ga5 Ni6 2.433907 1_555
Ga5 Ni7 2.433907 1_445
Ga5 Y0 3.214442 1_455
Ga5 Y1 3.214447 1_555
Ni0 Ni7 2.504756 1_544
Ni0 Ni7 2.504756 1_545
Ni0 Ni5 2.597578 1_655
Ni0 Ni4 2.936310 1_545
Ni0 Y0 3.017866 1_555
Ni0 Y0 3.017866 1_554
Ni1 Ni8 2.504755 1_554
Ni1 Ni8 2.504755 1_555
Ni1 Ni4 2.597592 1_555
Ni1 Ni3 2.936310 1_655
Ni1 Y0 3.017866 1_554
Ni1 Y0 3.017866 1_555
Ni2 Ni6 2.504760 1_554
Ni2 Ni6 2.504760 1_555
Ni2 Ni3 2.597578 1_545
Ni2 Ni5 2.936324 1_555
Ni2 Y0 3.017866 1_554
Ni2 Y0 3.017866 1_555
Ni3 Ni8 2.504756 1_455
Ni3 Ni8 2.504756 1_454
Ni3 Y1 3.017866 1_554
Ni3 Y1 3.017866 1_555
Ni4 Ni7 2.504755 1_554
Ni4 Ni7 2.504755 1_555
Ni4 Y1 3.017866 1_555
Ni4 Y1 3.017866 1_554
Ni5 Ni6 2.504760 1_554
Ni5 Ni6 2.504760 1_555
Ni5 Y1 3.017866 1_555
Ni5 Y1 3.017866 1_554
Ni6 Y1 3.083746 1_555
Ni6 Y0 3.083746 1_555
Ni7 Y0 3.083737 1_565
Ni7 Y1 3.083742 1_555
Ni8 Y1 3.083737 1_655
Ni8 Y0 3.083742 1_555
