# generated using pymatgen
data_Zr2BIr5Rh
_symmetry_space_group_name_H-M   'P 1'
_cell_length_a   5.70938966
_cell_length_b   5.70938970
_cell_length_c   5.70944326
_cell_angle_alpha   59.99968398
_cell_angle_beta   59.99968377
_cell_angle_gamma   60.00061494
_symmetry_Int_Tables_number   1
_chemical_formula_structural   Zr2BIr5Rh
_chemical_formula_sum   'Zr2 B1 Ir5 Rh1'
_cell_volume   131.60066320
_cell_formula_units_Z   1
loop_
 _symmetry_equiv_pos_site_id
 _symmetry_equiv_pos_as_xyz
  1  'x, y, z'
loop_
 _atom_site_type_symbol
 _atom_site_label
 _atom_site_symmetry_multiplicity
 _atom_site_fract_x
 _atom_site_fract_y
 _atom_site_fract_z
 _atom_site_occupancy
  Zr  Zr0  1  0.74981171  0.74981171  0.75018829  1
  Zr  Zr1  1  0.24981171  0.24981171  0.25018829  1
  B  B0  1  0.99889417  0.99889417  0.00110583  1
  Ir  Ir0  1  0.25803822  0.74236766  0.25763234  1
  Ir  Ir1  1  0.74236766  0.25803822  0.25763234  1
  Ir  Ir2  1  0.25832328  0.25832328  0.74167672  1
  Ir  Ir3  1  0.74236766  0.25803822  0.74196178  1
  Ir  Ir4  1  0.25803822  0.74236766  0.74196178  1
  Rh  Rh0  1  0.74234638  0.74234638  0.25765362  1
loop_
_geom_bond_atom_site_label_1
_geom_bond_atom_site_label_2
_geom_bond_distance
_geom_bond_site_symmetry_2
B0 Rh0 2.071423 1_555
B0 Ir4 2.081885 1_654
B0 Ir3 2.081885 1_564
B0 Ir0 2.081885 1_655
B0 Ir1 2.081885 1_565
B0 Ir2 2.094688 1_664
Ir0 Zr0 2.853163 1_554
Ir0 Zr1 2.853164 1_565
Ir0 Zr0 2.857629 1_455
Ir0 Zr1 2.857630 1_555
Ir1 Zr0 2.853163 1_554
Ir1 Zr1 2.853164 1_655
Ir1 Zr0 2.857630 1_545
Ir1 Zr1 2.857630 1_555
Ir2 Zr0 2.855548 1_455
Ir2 Zr0 2.855548 1_545
Ir2 Zr1 2.855549 1_556
Ir2 Zr1 2.855549 1_555
Ir3 Zr1 2.853163 1_655
Ir3 Zr0 2.853164 1_555
Ir3 Zr1 2.857629 1_556
Ir3 Zr0 2.857630 1_545
Ir4 Zr1 2.853163 1_565
Ir4 Zr0 2.853164 1_555
Ir4 Zr1 2.857630 1_556
Ir4 Zr0 2.857630 1_455
Rh0 Zr1 2.855358 1_655
Rh0 Zr1 2.855358 1_565
Rh0 Zr0 2.855358 1_554
Rh0 Zr0 2.855358 1_555
