# generated using pymatgen
data_SrInSn5Ir4
_symmetry_space_group_name_H-M   'P 1'
_cell_length_a   7.02115153
_cell_length_b   6.92400732
_cell_length_c   6.96463629
_cell_angle_alpha   119.44221338
_cell_angle_beta   119.90716264
_cell_angle_gamma   90.62948357
_symmetry_Int_Tables_number   1
_chemical_formula_structural   SrInSn5Ir4
_chemical_formula_sum   'Sr1 In1 Sn5 Ir4'
_cell_volume   240.43616889
_cell_formula_units_Z   1
loop_
 _symmetry_equiv_pos_site_id
 _symmetry_equiv_pos_as_xyz
  1  'x, y, z'
loop_
 _atom_site_type_symbol
 _atom_site_label
 _atom_site_symmetry_multiplicity
 _atom_site_fract_x
 _atom_site_fract_y
 _atom_site_fract_z
 _atom_site_occupancy
  Sr  Sr0  1  0.99941059  0.99820699  1.00000000  1
  In  In0  1  0.87978134  0.52905019  0.00000000  1
  Sn  Sn0  1  0.53451521  0.87234261  1.00000000  1
  Sn  Sn1  1  0.46800579  0.46967885  0.34396153  1
  Sn  Sn2  1  0.49989505  0.00208292  0.50191632  1
  Sn  Sn3  1  0.99797773  0.50016560  0.49808368  1
  Sn  Sn4  1  0.12404325  0.12571632  0.65603747  1
  Ir  Ir0  1  0.59127392  0.24414034  1.00000000  1
  Ir  Ir1  1  0.25091534  0.59747158  0.00000000  1
  Ir  Ir2  1  0.75634254  0.75982545  0.35850530  1
  Ir  Ir3  1  0.39783624  0.40131915  0.64149470  1
loop_
_geom_bond_atom_site_label_1
_geom_bond_atom_site_label_2
_geom_bond_distance
_geom_bond_site_symmetry_2
In0 Ir1 2.643378 1_655
In0 Ir2 2.793705 1_555
In0 Ir3 2.793710 1_554
In0 Ir0 2.811954 1_554
In0 Sr0 3.346331 1_554
In0 Sr0 3.779297 1_544
Sn0 Sr0 3.369175 1_555
Sn0 Sr0 3.866117 1_455
Sn1 Sr0 3.381811 1_444
Sn1 Sr0 3.801562 1_555
Sn2 Sr0 3.496417 1_444
Sn2 Sr0 3.506596 1_545
Sn3 Sr0 3.496417 1_555
Sn3 Sr0 3.506596 1_544
Sn4 Sr0 3.381809 1_445
Sn4 Sr0 3.801560 1_444
Ir0 Sn0 2.600663 1_545
Ir0 Sn3 2.701046 1_556
Ir0 Sn2 2.701049 1_555
Ir0 Sn1 2.710343 1_556
Ir0 Sn4 2.710349 1_555
Ir0 Sr0 3.349403 1_545
Ir1 Sn3 2.700971 1_454
Ir1 Sn2 2.700974 1_565
Ir1 Sn1 2.705049 1_555
Ir1 Sn4 2.705054 1_554
Ir1 Sn0 2.739307 1_554
Ir1 Sr0 3.305273 1_454
Ir2 Sn4 2.595748 1_665
Ir2 Sn3 2.682594 1_555
Ir2 Sn2 2.695537 1_565
Ir2 Sn0 2.707048 1_554
Ir2 Sn1 2.766002 1_555
Ir2 Sr0 3.268488 1_555
Ir3 Sn1 2.595762 1_555
Ir3 Sn2 2.682588 1_555
Ir3 Sn3 2.695538 1_455
Ir3 Sn0 2.707052 1_555
Ir3 Sn4 2.765997 1_555
Ir3 Sr0 3.268486 1_444
