# generated using pymatgen
data_Zr13Al9CoRh7
_symmetry_space_group_name_H-M   'P 1'
_cell_length_a   9.12788864
_cell_length_b   9.12788839
_cell_length_c   9.12788876
_cell_angle_alpha   59.78187029
_cell_angle_beta   59.78187247
_cell_angle_gamma   59.78187605
_symmetry_Int_Tables_number   1
_chemical_formula_structural   Zr13Al9CoRh7
_chemical_formula_sum   'Zr13 Al9 Co1 Rh7'
_cell_volume   535.10613017
_cell_formula_units_Z   1
loop_
 _symmetry_equiv_pos_site_id
 _symmetry_equiv_pos_as_xyz
  1  'x, y, z'
loop_
 _atom_site_type_symbol
 _atom_site_label
 _atom_site_symmetry_multiplicity
 _atom_site_fract_x
 _atom_site_fract_y
 _atom_site_fract_z
 _atom_site_occupancy
  Zr  Zr0  1  0.20112638  0.20112638  0.79792848  1
  Zr  Zr1  1  0.79792848  0.20112638  0.20112638  1
  Zr  Zr2  1  0.20112638  0.79792848  0.20112638  1
  Zr  Zr3  1  0.80653030  0.80653030  0.17358830  1
  Zr  Zr4  1  0.17358830  0.80653030  0.80653030  1
  Zr  Zr5  1  0.80653030  0.17358830  0.80653030  1
  Zr  Zr6  1  0.37874311  0.37874311  0.37874311  1
  Zr  Zr7  1  0.37963548  0.86517800  0.37963548  1
  Zr  Zr8  1  0.86517800  0.37963548  0.37963548  1
  Zr  Zr9  1  0.37963548  0.37963548  0.86517800  1
  Zr  Zr10  1  0.83918730  0.48690188  0.83918730  1
  Zr  Zr11  1  0.48690188  0.83918730  0.83918730  1
  Zr  Zr12  1  0.83918730  0.83918730  0.48690188  1
  Al  Al0  1  0.15832440  0.15832440  0.15832440  1
  Al  Al1  1  0.16284226  0.51586805  0.16284226  1
  Al  Al2  1  0.51586805  0.16284226  0.16284226  1
  Al  Al3  1  0.16284226  0.16284226  0.51586805  1
  Al  Al4  1  0.61782587  0.61782587  0.61782587  1
  Al  Al5  1  0.62020660  0.14706306  0.62020660  1
  Al  Al6  1  0.14706306  0.62020660  0.62020660  1
  Al  Al7  1  0.62020660  0.62020660  0.14706306  1
  Al  Al8  1  0.82752730  0.82752730  0.82752730  1
  Co  Co0  1  0.00350375  0.00350375  0.00350375  1
  Rh  Rh0  1  0.00647251  0.00647251  0.49890800  1
  Rh  Rh1  1  0.49890800  0.00647251  0.00647251  1
  Rh  Rh2  1  0.00647251  0.49890800  0.00647251  1
  Rh  Rh3  1  0.49412620  0.49412620  0.00753809  1
  Rh  Rh4  1  0.00753809  0.49412620  0.49412620  1
  Rh  Rh5  1  0.49412620  0.00753809  0.49412620  1
  Rh  Rh6  1  0.50085063  0.50085063  0.50085063  1
loop_
_geom_bond_atom_site_label_1
_geom_bond_atom_site_label_2
_geom_bond_distance
_geom_bond_site_symmetry_2
Al0 Rh0 2.601180 1_555
Al0 Rh2 2.601180 1_555
Al0 Rh1 2.601180 1_555
Al0 Zr9 2.923568 1_554
Al0 Zr7 2.923568 1_545
Al0 Zr8 2.923568 1_455
Al0 Zr2 2.948446 1_545
Al0 Zr1 2.948446 1_455
Al0 Zr0 2.948446 1_554
Al1 Rh3 2.560713 1_555
Al1 Rh4 2.560713 1_555
Al1 Rh2 2.567878 1_555
Al1 Zr6 2.877081 1_555
Al1 Zr8 2.890758 1_455
Al1 Zr9 2.890758 1_554
Al1 Zr2 2.967671 1_555
Al1 Zr4 2.980217 1_554
Al1 Zr3 2.980217 1_455
Al2 Rh3 2.560713 1_555
Al2 Rh5 2.560713 1_555
Al2 Rh1 2.567878 1_555
Al2 Zr6 2.877081 1_555
Al2 Zr7 2.890758 1_545
Al2 Zr9 2.890758 1_554
Al2 Zr1 2.967671 1_555
Al2 Zr5 2.980217 1_554
Al2 Zr3 2.980217 1_545
Al3 Rh4 2.560713 1_555
Al3 Rh5 2.560713 1_555
Al3 Rh0 2.567878 1_555
Al3 Zr6 2.877081 1_555
Al3 Zr8 2.890758 1_455
Al3 Zr7 2.890758 1_545
Al3 Zr0 2.967671 1_555
Al3 Zr4 2.980217 1_545
Al3 Zr5 2.980217 1_455
Al4 Rh6 2.619714 1_555
Al4 Rh5 2.898469 1_565
Al4 Rh3 2.898469 1_556
Al4 Rh4 2.898469 1_655
Al4 Zr12 2.973530 1_555
Al4 Zr10 2.973530 1_555
Al4 Zr11 2.973530 1_555
Al4 Zr9 3.070430 1_555
Al4 Zr7 3.070430 1_555
Al4 Zr8 3.070430 1_555
Al4 Zr3 3.361817 1_555
Al4 Zr5 3.361817 1_555
Al4 Zr4 3.361817 1_555
Al5 Rh6 2.629520 1_555
Al5 Al8 2.856991 1_545
Al5 Rh1 2.872328 1_556
Al5 Rh0 2.872328 1_655
Al5 Rh5 2.924847 1_555
Al5 Zr11 2.951788 1_545
Al5 Zr12 2.951788 1_545
Al5 Zr8 3.077659 1_555
Al5 Zr9 3.077659 1_555
Al5 Zr5 3.095841 1_555
Al5 Zr6 3.113561 1_555
Al5 Zr1 3.188643 1_555
Al5 Zr0 3.188643 1_555
Al6 Rh6 2.629520 1_555
Al6 Al8 2.856991 1_455
Al6 Rh0 2.872328 1_565
Al6 Rh2 2.872328 1_556
Al6 Rh4 2.924847 1_555
Al6 Zr10 2.951788 1_455
Al6 Zr12 2.951788 1_455
Al6 Zr7 3.077659 1_555
Al6 Zr9 3.077659 1_555
Al6 Zr4 3.095841 1_555
Al6 Zr6 3.113561 1_555
Al6 Zr0 3.188643 1_555
Al6 Zr2 3.188643 1_555
Al7 Rh6 2.629520 1_555
Al7 Al8 2.856991 1_554
Al7 Rh1 2.872328 1_565
Al7 Rh2 2.872328 1_655
Al7 Rh3 2.924847 1_555
Al7 Zr11 2.951788 1_554
Al7 Zr10 2.951788 1_554
Al7 Zr8 3.077659 1_555
Al7 Zr7 3.077659 1_555
Al7 Zr3 3.095841 1_555
Al7 Zr6 3.113560 1_555
Al7 Zr1 3.188643 1_555
Al7 Zr2 3.188643 1_555
Al8 Rh0 2.674975 1_665
Al8 Rh2 2.674975 1_656
Al8 Rh1 2.674976 1_566
Al8 Zr5 2.978204 1_565
Al8 Zr4 2.978204 1_655
Al8 Zr3 2.978204 1_556
Al8 Zr10 3.005817 1_555
Al8 Zr11 3.005817 1_555
Al8 Zr12 3.005817 1_555
Co0 Zr0 2.547559 1_554
Co0 Zr2 2.547559 1_545
Co0 Zr1 2.547559 1_455
Co0 Zr3 2.551474 1_445
Co0 Zr5 2.551474 1_454
Co0 Zr4 2.551475 1_544
Rh0 Zr12 2.712762 1_445
Rh0 Zr8 2.776586 1_455
Rh0 Zr7 2.776586 1_545
Rh0 Zr4 3.145320 1_545
Rh0 Zr5 3.145320 1_455
Rh0 Zr1 3.333327 1_455
Rh0 Zr2 3.333327 1_545
Rh1 Zr11 2.712762 1_544
Rh1 Zr9 2.776586 1_554
Rh1 Zr7 2.776586 1_545
Rh1 Zr5 3.145320 1_554
Rh1 Zr3 3.145320 1_545
Rh1 Zr2 3.333327 1_545
Rh1 Zr0 3.333327 1_554
Rh2 Zr10 2.712762 1_454
Rh2 Zr8 2.776586 1_455
Rh2 Zr9 2.776586 1_554
Rh2 Zr4 3.145320 1_554
Rh2 Zr3 3.145320 1_455
Rh2 Zr1 3.333327 1_455
Rh2 Zr0 3.333327 1_554
Rh3 Zr11 2.703187 1_554
Rh3 Zr10 2.703187 1_554
Rh3 Zr6 2.762522 1_555
Rh3 Zr9 2.775984 1_554
Rh3 Zr1 3.267297 1_555
Rh3 Zr2 3.267298 1_555
Rh3 Zr4 3.434729 1_554
Rh3 Zr5 3.434729 1_554
Rh4 Zr12 2.703187 1_455
Rh4 Zr10 2.703187 1_455
Rh4 Zr6 2.762523 1_555
Rh4 Zr8 2.775984 1_455
Rh4 Zr2 3.267297 1_555
Rh4 Zr0 3.267297 1_555
Rh4 Zr5 3.434729 1_455
Rh4 Zr3 3.434729 1_455
Rh5 Zr11 2.703187 1_545
Rh5 Zr12 2.703187 1_545
Rh5 Zr6 2.762522 1_555
Rh5 Zr7 2.775984 1_545
Rh5 Zr1 3.267297 1_555
Rh5 Zr0 3.267298 1_555
Rh5 Zr4 3.434729 1_545
Rh5 Zr3 3.434729 1_545
Rh6 Zr7 2.707843 1_555
Rh6 Zr9 2.707843 1_555
Rh6 Zr8 2.707843 1_555
Rh6 Zr6 2.734654 1_555
