# generated using pymatgen
data_TiBe4Os
_symmetry_space_group_name_H-M   'P 1'
_cell_length_a   4.38661163
_cell_length_b   4.38661172
_cell_length_c   4.38661234
_cell_angle_alpha   60.00000286
_cell_angle_beta   60.00000218
_cell_angle_gamma   59.99999780
_symmetry_Int_Tables_number   1
_chemical_formula_structural   TiBe4Os
_chemical_formula_sum   'Ti1 Be4 Os1'
_cell_volume   59.68602392
_cell_formula_units_Z   1
loop_
 _symmetry_equiv_pos_site_id
 _symmetry_equiv_pos_as_xyz
  1  'x, y, z'
loop_
 _atom_site_type_symbol
 _atom_site_label
 _atom_site_symmetry_multiplicity
 _atom_site_fract_x
 _atom_site_fract_y
 _atom_site_fract_z
 _atom_site_occupancy
  Ti  Ti0  1  0.00000000  0.00000000  0.00000000  1
  Be  Be0  1  0.62399411  0.62399411  0.12801968  1
  Be  Be1  1  0.62399411  0.12801968  0.62399411  1
  Be  Be2  1  0.12801968  0.62399411  0.62399411  1
  Be  Be3  1  0.62399411  0.62399411  0.62399411  1
  Os  Os0  1  0.25000000  0.25000000  0.25000000  1
loop_
_geom_bond_atom_site_label_1
_geom_bond_atom_site_label_2
_geom_bond_distance
_geom_bond_site_symmetry_2
Be0 Be2 2.175647 1_555
Be0 Be1 2.175647 1_555
Be0 Be3 2.175648 1_555
Be0 Be2 2.210965 1_654
Be0 Be1 2.210965 1_564
Be0 Be3 2.210965 1_554
Be0 Os0 2.570016 1_655
Be0 Os0 2.570016 1_565
Be0 Os0 2.570023 1_555
Be0 Ti0 2.573779 1_665
Be0 Ti0 2.573786 1_565
Be0 Ti0 2.573786 1_655
Be1 Be2 2.175647 1_555
Be1 Be3 2.175647 1_555
Be1 Be2 2.210964 1_645
Be1 Be3 2.210965 1_545
Be1 Os0 2.570016 1_655
Be1 Os0 2.570016 1_556
Be1 Os0 2.570024 1_555
Be1 Ti0 2.573779 1_656
Be1 Ti0 2.573786 1_556
Be1 Ti0 2.573787 1_655
Be2 Be3 2.175647 1_555
Be2 Be3 2.210964 1_455
Be2 Os0 2.570016 1_565
Be2 Os0 2.570016 1_556
Be2 Os0 2.570024 1_555
Be2 Ti0 2.573779 1_566
Be2 Ti0 2.573786 1_556
Be2 Ti0 2.573787 1_565
Be3 Os0 2.570020 1_655
Be3 Os0 2.570020 1_565
Be3 Os0 2.570020 1_556
Be3 Ti0 2.573783 1_566
Be3 Ti0 2.573783 1_656
Be3 Ti0 2.573783 1_665
Os0 Ti0 2.686240 1_655
Os0 Ti0 2.686240 1_565
Os0 Ti0 2.686240 1_555
Os0 Ti0 2.686241 1_556
