# generated using pymatgen
data_CsBaAsS3
_symmetry_space_group_name_H-M   'P 1'
_cell_length_a   9.03499723
_cell_length_b   9.18862353
_cell_length_c   9.69576668
_cell_angle_alpha   73.50837979
_cell_angle_beta   90.00000000
_cell_angle_gamma   90.00000000
_symmetry_Int_Tables_number   1
_chemical_formula_structural   CsBaAsS3
_chemical_formula_sum   'Cs4 Ba4 As4 S12'
_cell_volume   771.82068227
_cell_formula_units_Z   4
loop_
 _symmetry_equiv_pos_site_id
 _symmetry_equiv_pos_as_xyz
  1  'x, y, z'
loop_
 _atom_site_type_symbol
 _atom_site_label
 _atom_site_symmetry_multiplicity
 _atom_site_fract_x
 _atom_site_fract_y
 _atom_site_fract_z
 _atom_site_occupancy
  Cs  Cs0  1  0.57638612  0.22031255  0.39953724  1
  Cs  Cs1  1  0.07638612  0.27968745  0.60046276  1
  Cs  Cs2  1  0.42361388  0.77968745  0.60046276  1
  Cs  Cs3  1  0.92361388  0.72031255  0.39953724  1
  Ba  Ba0  1  0.21868343  0.47032888  0.07195569  1
  Ba  Ba1  1  0.71868343  0.02967112  0.92804431  1
  Ba  Ba2  1  0.78131657  0.52967112  0.92804431  1
  Ba  Ba3  1  0.28131657  0.97032888  0.07195569  1
  As  As0  1  0.96179721  0.15855260  0.23237041  1
  As  As1  1  0.46179721  0.34144740  0.76762959  1
  As  As2  1  0.03820279  0.84144740  0.76762959  1
  As  As3  1  0.53820279  0.65855260  0.23237041  1
  S  S0  1  0.69121821  0.38453740  0.67771220  1
  S  S1  1  0.19121821  0.11546260  0.32228780  1
  S  S2  1  0.30878179  0.61546260  0.32228780  1
  S  S3  1  0.80878179  0.88453740  0.67771220  1
  S  S4  1  0.50627894  0.28019914  0.01027237  1
  S  S5  1  0.00627894  0.21980086  0.98972763  1
  S  S6  1  0.49372106  0.71980086  0.98972763  1
  S  S7  1  0.99372106  0.78019914  0.01027237  1
  S  S8  1  0.91006000  0.39045532  0.25200680  1
  S  S9  1  0.41006000  0.10954468  0.74799320  1
  S  S10  1  0.08994000  0.60954468  0.74799320  1
  S  S11  1  0.58994000  0.89045532  0.25200680  1
loop_
_geom_bond_atom_site_label_1
_geom_bond_atom_site_label_2
_geom_bond_distance
_geom_bond_site_symmetry_2
Cs0 S8 3.508457 1_555
Cs0 S9 3.571619 1_555
Cs0 S0 3.597037 1_555
Cs0 S11 3.702587 1_545
Cs0 S4 3.710745 1_555
Cs0 S1 3.742887 1_555
Cs0 S3 4.059287 1_545
Cs1 S9 3.508457 1_555
Cs1 S8 3.571619 1_455
Cs1 S1 3.597037 1_555
Cs1 S10 3.702587 1_555
Cs1 S5 3.710745 1_555
Cs1 S0 3.742887 1_455
Cs1 S2 4.059287 1_555
Cs2 S10 3.508457 1_555
Cs2 S11 3.571619 1_555
Cs2 S2 3.597037 1_555
Cs2 S9 3.702587 1_565
Cs2 S6 3.710745 1_555
Cs2 S3 3.742887 1_555
Cs2 S1 4.059287 1_565
Cs3 S11 3.508457 1_555
Cs3 S10 3.571619 1_655
Cs3 S3 3.597037 1_555
Cs3 S8 3.702587 1_555
Cs3 S7 3.710745 1_555
Cs3 S2 3.742887 1_655
Cs3 S0 4.059287 1_555
Ba0 S2 3.189029 1_555
Ba0 S10 3.251833 1_554
Ba0 S8 3.260989 1_455
Ba0 S5 3.264921 1_554
Ba0 S4 3.279454 1_555
Ba0 S6 3.320803 1_554
Ba0 S7 3.410145 1_455
Ba0 S1 3.477313 1_555
Ba1 S3 3.189029 1_545
Ba1 S11 3.251833 1_546
Ba1 S9 3.260989 1_555
Ba1 S4 3.264921 1_556
Ba1 S5 3.279454 1_655
Ba1 S7 3.320803 1_546
Ba1 S6 3.410145 1_545
Ba1 S0 3.477313 1_555
Ba2 S0 3.189029 1_555
Ba2 S8 3.251833 1_556
Ba2 S10 3.260989 1_655
Ba2 S7 3.264921 1_556
Ba2 S6 3.279454 1_555
Ba2 S4 3.320803 1_556
Ba2 S5 3.410145 1_655
Ba2 S3 3.477313 1_555
Ba3 S1 3.189029 1_565
Ba3 S9 3.251833 1_564
Ba3 S11 3.260989 1_555
Ba3 S6 3.264921 1_554
Ba3 S7 3.279454 1_455
Ba3 S5 3.320803 1_564
Ba3 S4 3.410145 1_565
Ba3 S2 3.477313 1_555
As0 S1 2.239962 1_655
As0 S8 2.241803 1_555
As0 S5 2.293752 1_654
As0 Cs3 3.905867 1_545
As0 Cs0 3.949293 1_555
As1 S0 2.239962 1_555
As1 S9 2.241803 1_555
As1 S4 2.293752 1_556
As1 Cs2 3.905867 1_555
As1 Cs1 3.949293 1_555
As2 S3 2.239962 1_455
As2 S10 2.241803 1_555
As2 S7 2.293752 1_456
As2 Cs1 3.905867 1_565
As2 Cs2 3.949293 1_555
As3 S2 2.239962 1_555
As3 S11 2.241803 1_555
As3 S6 2.293752 1_554
As3 Cs0 3.905867 1_555
As3 Cs3 3.949293 1_555
