# generated using pymatgen
data_ZrZnCu3Rh
_symmetry_space_group_name_H-M   'P 1'
_cell_length_a   4.84146917
_cell_length_b   4.84146999
_cell_length_c   4.88246763
_cell_angle_alpha   60.27738800
_cell_angle_beta   60.27738415
_cell_angle_gamma   60.00000373
_symmetry_Int_Tables_number   1
_chemical_formula_structural   ZrZnCu3Rh
_chemical_formula_sum   'Zr1 Zn1 Cu3 Rh1'
_cell_volume   81.26190455
_cell_formula_units_Z   1
loop_
 _symmetry_equiv_pos_site_id
 _symmetry_equiv_pos_as_xyz
  1  'x, y, z'
loop_
 _atom_site_type_symbol
 _atom_site_label
 _atom_site_symmetry_multiplicity
 _atom_site_fract_x
 _atom_site_fract_y
 _atom_site_fract_z
 _atom_site_occupancy
  Zr  Zr0  1  0.24981199  0.24981199  0.25056403  1
  Zn  Zn0  1  0.62756198  0.62756198  0.11731405  1
  Cu  Cu0  1  0.62595883  0.12406080  0.62402254  1
  Cu  Cu1  1  0.12406080  0.62595883  0.62402254  1
  Cu  Cu2  1  0.62595883  0.62595883  0.62402254  1
  Rh  Rh0  1  0.99664757  0.99664757  0.01005729  1
loop_
_geom_bond_atom_site_label_1
_geom_bond_atom_site_label_2
_geom_bond_distance
_geom_bond_site_symmetry_2
Zn0 Zr0 2.845665 1_655
Zn0 Zr0 2.845666 1_555
Zn0 Zr0 2.845666 1_565
Cu0 Cu1 2.411546 1_645
Cu0 Cu2 2.411546 1_545
Cu0 Zn0 2.416204 1_546
Cu0 Cu1 2.429924 1_555
Cu0 Cu2 2.429924 1_555
Cu0 Zn0 2.466314 1_555
Cu0 Rh0 2.824762 1_545
Cu0 Zr0 2.845176 1_655
Cu0 Zr0 2.845181 1_555
Cu0 Rh0 2.871950 1_546
Cu0 Rh0 2.871954 1_446
Cu0 Zr0 2.873837 1_556
Cu1 Cu2 2.411545 1_455
Cu1 Zn0 2.416204 1_456
Cu1 Cu2 2.429924 1_555
Cu1 Zn0 2.466314 1_555
Cu1 Rh0 2.824762 1_455
Cu1 Zr0 2.845177 1_565
Cu1 Zr0 2.845181 1_555
Cu1 Rh0 2.871950 1_456
Cu1 Rh0 2.871954 1_446
Cu1 Zr0 2.873837 1_556
Cu2 Zn0 2.416201 1_556
Cu2 Zn0 2.466316 1_555
Cu2 Rh0 2.824760 1_555
Cu2 Zr0 2.845179 1_655
Cu2 Zr0 2.845179 1_565
Cu2 Rh0 2.871952 1_456
Cu2 Rh0 2.871952 1_546
Cu2 Zr0 2.873839 1_556
Rh0 Zn0 2.828008 1_655
Rh0 Zn0 2.828008 1_555
Rh0 Zn0 2.828008 1_565
Rh0 Zr0 2.956388 1_565
Rh0 Zr0 2.956388 1_665
Rh0 Zr0 2.956388 1_655
Rh0 Zr0 3.040366 1_664
