# generated using pymatgen
data_KCr3Sb12Os
_symmetry_space_group_name_H-M   'P 1'
_cell_length_a   8.30570555
_cell_length_b   8.24735857
_cell_length_c   8.24735924
_cell_angle_alpha   109.32746855
_cell_angle_beta   109.61459321
_cell_angle_gamma   109.61458901
_symmetry_Int_Tables_number   1
_chemical_formula_structural   KCr3Sb12Os
_chemical_formula_sum   'K1 Cr3 Sb12 Os1'
_cell_volume   434.12314814
_cell_formula_units_Z   1
loop_
 _symmetry_equiv_pos_site_id
 _symmetry_equiv_pos_as_xyz
  1  'x, y, z'
loop_
 _atom_site_type_symbol
 _atom_site_label
 _atom_site_symmetry_multiplicity
 _atom_site_fract_x
 _atom_site_fract_y
 _atom_site_fract_z
 _atom_site_occupancy
  K  K0  1  0.00000000  0.00000000  0.00000000  1
  Cr  Cr0  1  0.00000000  0.00000000  0.50000000  1
  Cr  Cr1  1  0.00000000  0.50000000  0.00000000  1
  Cr  Cr2  1  0.50000000  0.50000000  0.50000000  1
  Sb  Sb0  1  0.34888685  0.18823910  0.85310825  1
  Sb  Sb1  1  0.65111315  0.81176090  0.14689175  1
  Sb  Sb2  1  0.65231265  0.50033105  0.84958819  1
  Sb  Sb3  1  0.34768735  0.49966895  0.15041181  1
  Sb  Sb4  1  0.19727554  0.84958819  0.34925714  1
  Sb  Sb5  1  0.80272446  0.15041181  0.65074286  1
  Sb  Sb6  1  0.50422040  0.85310825  0.66487015  1
  Sb  Sb7  1  0.49577960  0.14689175  0.33512985  1
  Sb  Sb8  1  0.83935225  0.33512985  0.18823910  1
  Sb  Sb9  1  0.16064775  0.66487015  0.81176090  1
  Sb  Sb10  1  0.84801939  0.65074286  0.50033105  1
  Sb  Sb11  1  0.15198061  0.34925714  0.49966895  1
  Os  Os0  1  0.50000000  0.00000000  0.00000000  1
loop_
_geom_bond_atom_site_label_1
_geom_bond_atom_site_label_2
_geom_bond_distance
_geom_bond_site_symmetry_2
K0 Sb8 3.585565 1_455
K0 Sb9 3.585565 1_544
K0 Sb1 3.585571 1_445
K0 Sb0 3.585571 1_554
K0 Sb7 3.585576 1_555
K0 Sb6 3.585576 1_444
K0 Sb5 3.616865 1_454
K0 Sb4 3.616865 1_545
K0 Sb3 3.616865 1_555
K0 Sb2 3.616865 1_444
K0 Sb11 3.616868 1_555
K0 Sb10 3.616868 1_444
Cr0 Sb11 2.730710 1_555
Cr0 Sb10 2.730710 1_445
Cr0 Sb5 2.735070 1_455
Cr0 Sb4 2.735070 1_545
Cr0 Sb1 2.758509 1_445
Cr0 Sb0 2.758509 1_555
Cr1 Sb4 2.730711 1_555
Cr1 Sb5 2.730711 1_454
Cr1 Sb3 2.735070 1_555
Cr1 Sb2 2.735070 1_454
Cr1 Sb9 2.758513 1_554
Cr1 Sb8 2.758513 1_455
Cr2 Sb2 2.730711 1_555
Cr2 Sb3 2.730711 1_555
Cr2 Sb10 2.735078 1_555
Cr2 Sb11 2.735078 1_555
Cr2 Sb6 2.758514 1_555
Cr2 Sb7 2.758514 1_555
Sb0 Sb3 2.911040 1_556
Sb0 Sb2 2.953085 1_555
Sb1 Sb2 2.911040 1_554
Sb1 Sb3 2.953085 1_555
Sb4 Sb7 2.911050 1_565
Sb4 Sb6 2.953085 1_555
Sb5 Sb6 2.911050 1_545
Sb5 Sb7 2.953085 1_555
Sb10 Sb9 2.911031 1_655
Sb10 Sb8 2.953085 1_555
Sb11 Sb8 2.911031 1_455
Sb11 Sb9 2.953085 1_555
Os0 Sb7 2.642982 1_555
Os0 Sb6 2.642982 1_544
Os0 Sb8 2.642990 1_555
Os0 Sb9 2.642990 1_544
Os0 Sb0 2.642994 1_554
Os0 Sb1 2.642994 1_545
