# generated using pymatgen
data_Zr10ZnCuSn6
_symmetry_space_group_name_H-M   'P 1'
_cell_length_a   8.66893993
_cell_length_b   8.66893915
_cell_length_c   5.88045971
_cell_angle_alpha   90.00000000
_cell_angle_beta   90.00000000
_cell_angle_gamma   119.99999921
_symmetry_Int_Tables_number   1
_chemical_formula_structural   Zr10ZnCuSn6
_chemical_formula_sum   'Zr10 Zn1 Cu1 Sn6'
_cell_volume   382.71357037
_cell_formula_units_Z   1
loop_
 _symmetry_equiv_pos_site_id
 _symmetry_equiv_pos_as_xyz
  1  'x, y, z'
loop_
 _atom_site_type_symbol
 _atom_site_label
 _atom_site_symmetry_multiplicity
 _atom_site_fract_x
 _atom_site_fract_y
 _atom_site_fract_z
 _atom_site_occupancy
  Zr  Zr0  1  0.66666700  0.33333300  0.50000000  1
  Zr  Zr1  1  0.33333300  0.66666700  0.50000000  1
  Zr  Zr2  1  0.33333300  0.66666700  0.00000000  1
  Zr  Zr3  1  0.66666700  0.33333300  0.00000000  1
  Zr  Zr4  1  0.73696652  0.73696652  0.24640132  1
  Zr  Zr5  1  0.26303348  0.00000000  0.24640132  1
  Zr  Zr6  1  1.00000000  0.26303348  0.24640132  1
  Zr  Zr7  1  0.26303348  0.26303348  0.75359868  1
  Zr  Zr8  1  0.73696652  1.00000000  0.75359868  1
  Zr  Zr9  1  0.00000000  0.73696652  0.75359868  1
  Zn  Zn0  1  0.00000000  0.00000000  0.50000000  1
  Cu  Cu0  1  0.00000000  0.00000000  0.00000000  1
  Sn  Sn0  1  0.38552116  0.38552116  0.25107043  1
  Sn  Sn1  1  0.61447884  0.00000000  0.25107043  1
  Sn  Sn2  1  1.00000000  0.61447884  0.25107043  1
  Sn  Sn3  1  0.61447884  0.61447884  0.74892957  1
  Sn  Sn4  1  0.38552116  1.00000000  0.74892957  1
  Sn  Sn5  1  0.00000000  0.38552116  0.74892957  1
loop_
_geom_bond_atom_site_label_1
_geom_bond_atom_site_label_2
_geom_bond_distance
_geom_bond_site_symmetry_2
Zr0 Zr3 2.940230 1_555
Zr0 Zr3 2.940230 1_556
Zr1 Zr2 2.940230 1_556
Zr1 Zr2 2.940230 1_555
Zn0 Zr6 2.724576 1_455
Zn0 Zr9 2.724576 1_545
Zn0 Zr7 2.724576 1_555
Zn0 Zr4 2.724576 1_445
Zn0 Zr5 2.724576 1_555
Zn0 Zr8 2.724576 1_445
Cu0 Zr6 2.701643 1_455
Cu0 Zr9 2.701643 1_544
Cu0 Zr7 2.701643 1_554
Cu0 Zr4 2.701643 1_445
Cu0 Zr5 2.701643 1_555
Cu0 Zr8 2.701643 1_444
Cu0 Zn0 2.940230 1_554
Cu0 Zn0 2.940230 1_555
Sn0 Zr5 2.957852 1_555
Sn0 Zr6 2.957852 1_455
Sn0 Zr4 3.046782 1_555
Sn0 Zr1 3.064346 1_555
Sn0 Zr0 3.064346 1_555
Sn0 Zr2 3.070380 1_555
Sn0 Zr3 3.070380 1_555
Sn0 Zr7 3.112113 1_554
Sn0 Zr7 3.140080 1_555
Sn1 Zr4 2.957852 1_545
Sn1 Zr6 2.957852 1_555
Sn1 Zr5 3.046782 1_555
Sn1 Zr0 3.064338 1_555
Sn1 Zr1 3.064341 1_545
Sn1 Zr3 3.070372 1_555
Sn1 Zr2 3.070375 1_545
Sn1 Zr8 3.112113 1_544
Sn1 Zr8 3.140080 1_545
Sn2 Zr5 2.957852 1_665
Sn2 Zr4 2.957852 1_555
Sn2 Zr6 3.046782 1_555
Sn2 Zr1 3.064338 1_655
Sn2 Zr0 3.064341 1_555
Sn2 Zr2 3.070372 1_655
Sn2 Zr3 3.070375 1_555
Sn2 Zr9 3.112113 1_654
Sn2 Zr9 3.140080 1_655
Sn3 Zr8 2.957852 1_555
Sn3 Zr9 2.957852 1_655
Sn3 Zr7 3.046782 1_555
Sn3 Zr0 3.064346 1_555
Sn3 Zr1 3.064346 1_555
Sn3 Zr3 3.070380 1_556
Sn3 Zr2 3.070380 1_556
Sn3 Zr4 3.112113 1_556
Sn3 Zr4 3.140080 1_555
Sn4 Zr7 2.957852 1_565
Sn4 Zr9 2.957852 1_555
Sn4 Zr8 3.046782 1_555
Sn4 Zr1 3.064338 1_555
Sn4 Zr0 3.064341 1_565
Sn4 Zr2 3.070372 1_556
Sn4 Zr3 3.070375 1_566
Sn4 Zr5 3.112113 1_566
Sn4 Zr5 3.140080 1_565
Sn5 Zr8 2.957852 1_445
Sn5 Zr7 2.957852 1_555
Sn5 Zr9 3.046782 1_555
Sn5 Zr0 3.064338 1_455
Sn5 Zr1 3.064341 1_555
Sn5 Zr3 3.070372 1_456
Sn5 Zr2 3.070375 1_556
Sn5 Zr6 3.112113 1_456
Sn5 Zr6 3.140080 1_455
