# generated using pymatgen
data_Be8ReOsW2
_symmetry_space_group_name_H-M   'P 1'
_cell_length_a   4.39023661
_cell_length_b   4.39023645
_cell_length_c   7.18089449
_cell_angle_alpha   90.00000000
_cell_angle_beta   90.00000000
_cell_angle_gamma   120.00000867
_symmetry_Int_Tables_number   1
_chemical_formula_structural   Be8ReOsW2
_chemical_formula_sum   'Be8 Re1 Os1 W2'
_cell_volume   119.86295420
_cell_formula_units_Z   1
loop_
 _symmetry_equiv_pos_site_id
 _symmetry_equiv_pos_as_xyz
  1  'x, y, z'
loop_
 _atom_site_type_symbol
 _atom_site_label
 _atom_site_symmetry_multiplicity
 _atom_site_fract_x
 _atom_site_fract_y
 _atom_site_fract_z
 _atom_site_occupancy
  Be  Be0  1  0.00000000  0.00000000  0.00245092  1
  Be  Be1  1  0.00000000  0.00000000  0.50398433  1
  Be  Be2  1  0.83121826  0.66243452  0.24915035  1
  Be  Be3  1  0.16955064  0.83044936  0.75030971  1
  Be  Be4  1  0.66089871  0.83044936  0.75030971  1
  Be  Be5  1  0.33756548  0.16878174  0.24915035  1
  Be  Be6  1  0.83121826  0.16878174  0.24915035  1
  Be  Be7  1  0.16955064  0.33910129  0.75030971  1
  Re  Re0  1  0.33333300  0.66666700  0.43654634  1
  Os  Os0  1  0.66666700  0.33333300  0.93613590  1
  W  W0  1  0.33333300  0.66666700  0.06196768  1
  W  W1  1  0.66666700  0.33333300  0.56053464  1
loop_
_geom_bond_atom_site_label_1
_geom_bond_atom_site_label_2
_geom_bond_distance
_geom_bond_site_symmetry_2
Be0 Be6 2.187578 1_455
Be0 Be2 2.187583 1_445
Be0 Be5 2.187583 1_555
Be0 Be7 2.222728 1_554
Be0 Be4 2.222728 1_444
Be0 Be3 2.222728 1_544
Be0 W0 2.570481 1_545
Be0 W0 2.570484 1_555
Be0 W0 2.570484 1_445
Be0 Os0 2.579047 1_454
Be0 Os0 2.579050 1_444
Be0 Os0 2.579050 1_554
Be1 Be7 2.188842 1_555
Be1 Be4 2.188842 1_445
Be1 Be3 2.188842 1_545
Be1 Be6 2.235145 1_455
Be1 Be2 2.235149 1_445
Be1 Be5 2.235149 1_555
Be1 W1 2.567025 1_455
Be1 W1 2.567028 1_445
Be1 W1 2.567028 1_555
Be1 Re0 2.580548 1_545
Be1 Re0 2.580551 1_555
Be1 Re0 2.580551 1_445
Be2 Be5 2.167252 1_555
Be2 Be6 2.167252 1_555
Be2 Be5 2.222984 1_665
Be2 Be6 2.222984 1_565
Be2 W1 2.562310 1_555
Be2 Os0 2.572532 1_554
Be2 W0 2.574002 1_655
Be2 W0 2.574013 1_555
Be2 Re0 2.574802 1_655
Be2 Re0 2.574813 1_555
Be3 Be7 2.157134 1_555
Be3 Be4 2.157134 1_555
Be3 Be7 2.233102 1_565
Be3 Be4 2.233102 1_455
Be3 W0 2.561179 1_556
Be3 Os0 2.568977 1_565
Be3 Os0 2.568977 1_455
Be3 Re0 2.574400 1_555
Be3 W1 2.583820 1_565
Be3 W1 2.583820 1_455
Be4 Be7 2.157134 1_555
Be4 Be7 2.233102 1_665
Be4 W0 2.561181 1_556
Be4 Os0 2.568975 1_565
Be4 Os0 2.568979 1_555
Be4 Re0 2.574402 1_555
Be4 W1 2.583818 1_565
Be4 W1 2.583822 1_555
Be5 Be6 2.167252 1_555
Be5 Be6 2.222984 1_455
Be5 W1 2.562310 1_555
Be5 Os0 2.572532 1_554
Be5 W0 2.574001 1_545
Be5 W0 2.574013 1_555
Be5 Re0 2.574802 1_545
Be5 Re0 2.574813 1_555
Be6 W1 2.562312 1_555
Be6 Os0 2.572534 1_554
Be6 W0 2.574007 1_545
Be6 W0 2.574007 1_655
Be6 Re0 2.574807 1_545
Be6 Re0 2.574807 1_655
Be7 W0 2.561181 1_556
Be7 Os0 2.568975 1_455
Be7 Os0 2.568979 1_555
Be7 Re0 2.574402 1_555
Be7 W1 2.583818 1_455
Be7 W1 2.583822 1_555
Re0 W1 2.686527 1_565
Re0 W1 2.686527 1_455
Re0 W1 2.686535 1_555
Re0 W0 2.689810 1_555
Os0 W0 2.690943 1_546
Os0 W0 2.690944 1_656
Os0 W0 2.690951 1_556
Os0 W1 2.697153 1_555
