# generated using pymatgen
data_CdAg3(Ru2O7)2
_symmetry_space_group_name_H-M   'P 1'
_cell_length_a   7.14300200
_cell_length_b   7.14300178
_cell_length_c   7.14300181
_cell_angle_alpha   59.94812532
_cell_angle_beta   59.94812702
_cell_angle_gamma   59.94812895
_symmetry_Int_Tables_number   1
_chemical_formula_structural   CdAg3(Ru2O7)2
_chemical_formula_sum   'Cd1 Ag3 Ru4 O14'
_cell_volume   257.40445340
_cell_formula_units_Z   1
loop_
 _symmetry_equiv_pos_site_id
 _symmetry_equiv_pos_as_xyz
  1  'x, y, z'
loop_
 _atom_site_type_symbol
 _atom_site_label
 _atom_site_symmetry_multiplicity
 _atom_site_fract_x
 _atom_site_fract_y
 _atom_site_fract_z
 _atom_site_occupancy
  Cd  Cd0  1  0.12500000  0.12500000  0.12500000  1
  Ag  Ag0  1  0.12500000  0.62500000  0.12500000  1
  Ag  Ag1  1  0.12500000  0.12500000  0.62500000  1
  Ag  Ag2  1  0.62500000  0.12500000  0.12500000  1
  Ru  Ru0  1  0.62500000  0.12500000  0.62500000  1
  Ru  Ru1  1  0.62500000  0.62500000  0.12500000  1
  Ru  Ru2  1  0.12500000  0.62500000  0.62500000  1
  Ru  Ru3  1  0.62500000  0.62500000  0.62500000  1
  O  O0  1  0.68755005  0.68755005  0.31123712  1
  O  O1  1  0.93876288  0.56244995  0.56244995  1
  O  O2  1  0.55514657  0.95260808  0.95260808  1
  O  O3  1  0.95260808  0.95260808  0.55514657  1
  O  O4  1  0.95260808  0.55514657  0.95260808  1
  O  O5  1  0.56244995  0.93876288  0.56244995  1
  O  O6  1  0.29739192  0.69485343  0.29739192  1
  O  O7  1  0.31123712  0.68755005  0.68755005  1
  O  O8  1  0.69485343  0.29739192  0.29739192  1
  O  O9  1  0.68755005  0.31123712  0.68755005  1
  O  O10  1  0.56244995  0.56244995  0.93876288  1
  O  O11  1  0.29739192  0.29739192  0.69485343  1
  O  O12  1  0.25543394  0.25543394  0.25543394  1
  O  O13  1  0.99456606  0.99456606  0.99456606  1
loop_
_geom_bond_atom_site_label_1
_geom_bond_atom_site_label_2
_geom_bond_distance
_geom_bond_site_symmetry_2
Cd0 O12 2.283059 1_555
Cd0 O13 2.283059 1_444
Cd0 O3 2.532388 1_445
Cd0 O11 2.532388 1_554
Cd0 O4 2.532388 1_454
Cd0 O6 2.532388 1_545
Cd0 O2 2.532388 1_544
Cd0 O8 2.532388 1_455
Ag0 O13 2.155787 1_454
Ag0 O12 2.155787 1_555
Ag0 O6 2.455833 1_555
Ag0 O4 2.455833 1_454
Ag0 O1 2.601309 1_455
Ag0 O7 2.601309 1_554
Ag0 O10 2.601309 1_554
Ag0 O0 2.601309 1_455
Ag1 O13 2.155787 1_445
Ag1 O12 2.155787 1_555
Ag1 O11 2.455833 1_555
Ag1 O3 2.455833 1_445
Ag1 O1 2.601309 1_455
Ag1 O7 2.601309 1_545
Ag1 O5 2.601309 1_545
Ag1 O9 2.601309 1_455
Ag2 O13 2.155788 1_544
Ag2 O12 2.155788 1_555
Ag2 O8 2.455833 1_555
Ag2 O2 2.455833 1_544
Ag2 O5 2.601309 1_545
Ag2 O9 2.601309 1_554
Ag2 O10 2.601309 1_554
Ag2 O0 2.601309 1_545
O0 Ru1 1.886655 1_555
O0 Ru3 1.901669 1_555
O1 Ru2 1.886655 1_655
O1 Ru3 1.901669 1_555
O2 Ru0 1.949668 1_565
O2 Ru1 1.949668 1_556
O3 Ru2 1.949668 1_655
O3 Ru0 1.949668 1_565
O4 Ru2 1.949668 1_655
O4 Ru1 1.949668 1_556
O5 Ru0 1.886655 1_565
O5 Ru3 1.901669 1_555
O6 Ru2 1.949668 1_555
O6 Ru1 1.949668 1_555
O7 Ru2 1.886655 1_555
O7 Ru3 1.901669 1_555
O8 Ru0 1.949668 1_555
O8 Ru1 1.949668 1_555
O9 Ru0 1.886655 1_555
O9 Ru3 1.901669 1_555
O10 Ru1 1.886655 1_556
O10 Ru3 1.901669 1_555
O11 Ru2 1.949668 1_555
O11 Ru0 1.949668 1_555
