# generated using pymatgen
data_Lu7IrI12
_symmetry_space_group_name_H-M   'P 1'
_cell_length_a   9.57677973
_cell_length_b   9.57677980
_cell_length_c   9.57678006
_cell_angle_alpha   106.89733120
_cell_angle_beta   106.89733241
_cell_angle_gamma   106.89733686
_symmetry_Int_Tables_number   1
_chemical_formula_structural   Lu7IrI12
_chemical_formula_sum   'Lu7 Ir1 I12'
_cell_volume   733.52194171
_cell_formula_units_Z   1
loop_
 _symmetry_equiv_pos_site_id
 _symmetry_equiv_pos_as_xyz
  1  'x, y, z'
loop_
 _atom_site_type_symbol
 _atom_site_label
 _atom_site_symmetry_multiplicity
 _atom_site_fract_x
 _atom_site_fract_y
 _atom_site_fract_z
 _atom_site_occupancy
  Lu  Lu0  1  0.09344912  0.02213178  0.29249853  1
  Lu  Lu1  1  0.29249853  0.09344912  0.02213178  1
  Lu  Lu2  1  0.02213178  0.29249853  0.09344912  1
  Lu  Lu3  1  0.90655088  0.97786822  0.70750147  1
  Lu  Lu4  1  0.70750147  0.90655088  0.97786822  1
  Lu  Lu5  1  0.97786822  0.70750147  0.90655088  1
  Lu  Lu6  1  0.50000000  0.50000000  0.50000000  1
  Ir  Ir0  1  0.00000000  0.00000000  0.00000000  1
  I  I0  1  0.06873522  0.67170355  0.22318917  1
  I  I1  1  0.22318917  0.06873522  0.67170355  1
  I  I2  1  0.67170355  0.22318917  0.06873522  1
  I  I3  1  0.93126478  0.32829645  0.77681083  1
  I  I4  1  0.77681083  0.93126478  0.32829645  1
  I  I5  1  0.32829645  0.77681083  0.93126478  1
  I  I6  1  0.46666088  0.16338702  0.38969520  1
  I  I7  1  0.38969520  0.46666088  0.16338702  1
  I  I8  1  0.16338702  0.38969520  0.46666088  1
  I  I9  1  0.53333912  0.83661298  0.61030480  1
  I  I10  1  0.61030480  0.53333912  0.83661298  1
  I  I11  1  0.83661298  0.61030480  0.53333912  1
loop_
_geom_bond_atom_site_label_1
_geom_bond_atom_site_label_2
_geom_bond_distance
_geom_bond_site_symmetry_2
Ir0 Lu1 2.603810 1_555
Ir0 Lu4 2.603810 1_444
Ir0 Lu2 2.603810 1_555
Ir0 Lu5 2.603810 1_444
Ir0 Lu0 2.603810 1_555
Ir0 Lu3 2.603810 1_444
I0 Lu5 3.051864 1_454
I0 Lu0 3.148203 1_565
I0 Lu2 3.323201 1_555
I1 Lu3 3.051864 1_445
I1 Lu1 3.148203 1_556
I1 Lu0 3.323201 1_555
I2 Lu4 3.051864 1_544
I2 Lu2 3.148203 1_655
I2 Lu1 3.323201 1_555
I3 Lu2 3.051864 1_656
I3 Lu3 3.148203 1_545
I3 Lu5 3.323201 1_555
I4 Lu0 3.051864 1_665
I4 Lu4 3.148203 1_554
I4 Lu3 3.323201 1_555
I5 Lu1 3.051864 1_566
I5 Lu5 3.148203 1_455
I5 Lu4 3.323201 1_555
I6 Lu6 2.972525 1_555
I6 Lu0 3.161397 1_555
I6 Lu1 3.191942 1_555
I7 Lu6 2.972525 1_555
I7 Lu1 3.161397 1_555
I7 Lu2 3.191942 1_555
I8 Lu6 2.972525 1_555
I8 Lu2 3.161397 1_555
I8 Lu0 3.191942 1_555
I9 Lu6 2.972525 1_555
I9 Lu3 3.161397 1_555
I9 Lu4 3.191942 1_555
I10 Lu6 2.972525 1_555
I10 Lu4 3.161397 1_555
I10 Lu5 3.191942 1_555
I11 Lu6 2.972525 1_555
I11 Lu5 3.161397 1_555
I11 Lu3 3.191942 1_555
