# generated using pymatgen
data_Ca2Cu(GePd2)3
_symmetry_space_group_name_H-M   'P 1'
_cell_length_a   6.80132879
_cell_length_b   6.79669789
_cell_length_c   6.80132907
_cell_angle_alpha   130.34374793
_cell_angle_beta   112.96784842
_cell_angle_gamma   87.86976903
_symmetry_Int_Tables_number   1
_chemical_formula_structural   Ca2Cu(GePd2)3
_chemical_formula_sum   'Ca2 Cu1 Ge3 Pd6'
_cell_volume   209.97742154
_cell_formula_units_Z   1
loop_
 _symmetry_equiv_pos_site_id
 _symmetry_equiv_pos_as_xyz
  1  'x, y, z'
loop_
 _atom_site_type_symbol
 _atom_site_label
 _atom_site_symmetry_multiplicity
 _atom_site_fract_x
 _atom_site_fract_y
 _atom_site_fract_z
 _atom_site_occupancy
  Ca  Ca0  1  0.00878369  0.97281746  0.96403477  1
  Ca  Ca1  1  0.49556852  0.05618866  0.56062014  1
  Cu  Cu0  1  0.35026172  0.42113246  0.07086874  1
  Ge  Ge0  1  0.81179812  0.24322206  0.43142394  1
  Ge  Ge1  1  0.63685178  0.69256484  0.05571305  1
  Ge  Ge2  1  0.19645795  0.61875905  0.42230210  1
  Pd  Pd0  1  0.94726077  0.50400705  0.95260268  1
  Pd  Pd1  1  0.55140336  0.50400705  0.55674528  1
  Pd  Pd2  1  0.03969623  0.99870855  0.53946516  1
  Pd  Pd3  1  0.78922163  0.48744363  0.27399281  1
  Pd  Pd4  1  0.21345081  0.48744363  0.69822100  1
  Pd  Pd5  1  0.45924439  0.99870855  0.95901132  1
loop_
_geom_bond_atom_site_label_1
_geom_bond_atom_site_label_2
_geom_bond_distance
_geom_bond_site_symmetry_2
Ca0 Pd2 3.090001 1_555
Ca0 Pd5 3.090007 1_555
Ca0 Pd4 3.160662 1_555
Ca0 Pd3 3.160665 1_455
Ca0 Pd0 3.176004 1_455
Ca0 Pd1 3.176011 1_455
Ca0 Ge2 3.195808 1_566
Ca0 Ge0 3.294592 1_466
Ca0 Pd4 3.380818 1_566
Ca0 Pd3 3.380825 1_466
Ca0 Cu0 3.398390 1_566
Ca1 Ge2 3.032744 1_545
Ca1 Pd5 3.075015 1_545
Ca1 Pd2 3.075024 1_545
Ca1 Pd0 3.099436 1_555
Ca1 Pd1 3.099440 1_555
Ca1 Cu0 3.136129 1_545
Ca1 Ge1 3.145862 1_556
Ca1 Ge0 3.184086 1_555
Ca1 Ge1 3.199094 1_545
Ca1 Cu0 3.243750 1_556
Ca1 Pd3 3.252786 1_556
Ca1 Pd4 3.252787 1_555
Cu0 Ge2 2.510303 1_555
Cu0 Pd2 2.612493 1_544
Cu0 Pd5 2.612502 1_544
Cu0 Pd4 2.664567 1_554
Cu0 Pd3 2.664573 1_555
Cu0 Pd0 2.688542 1_454
Cu0 Pd1 2.688549 1_555
Cu0 Ge1 2.807806 1_555
Ge0 Pd0 2.448134 1_555
Ge0 Pd1 2.448139 1_555
Ge0 Pd3 2.465614 1_555
Ge0 Pd4 2.465614 1_655
Ge0 Pd2 2.491002 1_645
Ge0 Pd5 2.491002 1_544
Ge0 Ge1 2.743819 1_545
Ge1 Pd0 2.526270 1_554
Ge1 Pd1 2.526274 1_554
Ge1 Pd3 2.567741 1_555
Ge1 Pd4 2.567742 1_554
Ge1 Pd2 2.680732 1_655
Ge1 Pd5 2.680733 1_554
Ge2 Pd5 2.496904 1_555
Ge2 Pd2 2.496911 1_555
Ge2 Pd4 2.514608 1_555
Ge2 Pd3 2.514619 1_455
Ge2 Pd1 2.516533 1_555
Ge2 Pd0 2.516547 1_454
