# generated using pymatgen
data_Ba3CrS5
_symmetry_space_group_name_H-M   'P 1'
_cell_length_a   9.29419477
_cell_length_b   9.29419477
_cell_length_c   6.16636800
_cell_angle_alpha   90.00000000
_cell_angle_beta   90.00000000
_cell_angle_gamma   120.00000548
_symmetry_Int_Tables_number   1
_chemical_formula_structural   Ba3CrS5
_chemical_formula_sum   'Ba6 Cr2 S10'
_cell_volume   461.30013914
_cell_formula_units_Z   2
loop_
 _symmetry_equiv_pos_site_id
 _symmetry_equiv_pos_as_xyz
  1  'x, y, z'
loop_
 _atom_site_type_symbol
 _atom_site_label
 _atom_site_symmetry_multiplicity
 _atom_site_fract_x
 _atom_site_fract_y
 _atom_site_fract_z
 _atom_site_occupancy
  Ba  Ba0  1  0.62105300  0.00000000  0.33005600  1
  Ba  Ba1  1  0.62105300  0.62105300  0.83005600  1
  Ba  Ba2  1  0.00000000  0.37894700  0.83005600  1
  Ba  Ba3  1  0.00000000  0.62105300  0.33005600  1
  Ba  Ba4  1  0.37894700  0.37894700  0.33005600  1
  Ba  Ba5  1  0.37894700  0.00000000  0.83005600  1
  Cr  Cr0  1  0.00000000  0.00000000  0.59529900  1
  Cr  Cr1  1  0.00000000  0.00000000  0.09529900  1
  S  S0  1  0.00000000  0.20787500  0.34507000  1
  S  S1  1  0.79212500  0.00000000  0.84507000  1
  S  S2  1  0.20787500  0.20787500  0.84507000  1
  S  S3  1  0.79212500  0.79212500  0.34507000  1
  S  S4  1  0.20787500  0.00000000  0.34507000  1
  S  S5  1  0.00000000  0.79212500  0.84507000  1
  S  S6  1  0.33333300  0.66666700  0.08016100  1
  S  S7  1  0.66666700  0.33333300  0.58016100  1
  S  S8  1  0.66666700  0.33333300  0.08016100  1
  S  S9  1  0.33333300  0.66666700  0.58016100  1
loop_
_geom_bond_atom_site_label_1
_geom_bond_atom_site_label_2
_geom_bond_distance
_geom_bond_site_symmetry_2
Ba0 S0 3.056341 1_655
Ba0 S3 3.056341 1_545
Ba0 S8 3.292236 1_555
Ba0 S6 3.292239 1_545
Ba0 S7 3.292842 1_555
Ba0 S9 3.292845 1_545
Ba0 S1 3.386994 1_554
Ba0 S1 3.551551 1_555
Ba0 S4 3.841273 1_555
Ba1 S5 3.056341 1_655
Ba1 S1 3.056341 1_565
Ba1 S7 3.292244 1_555
Ba1 S9 3.292244 1_555
Ba1 S8 3.292850 1_556
Ba1 S6 3.292850 1_556
Ba1 S3 3.386994 1_555
Ba1 S3 3.551551 1_556
Ba1 S2 3.841272 1_555
Ba2 S1 3.056341 1_455
Ba2 S2 3.056341 1_555
Ba2 S7 3.292236 1_455
Ba2 S9 3.292239 1_555
Ba2 S8 3.292842 1_456
Ba2 S6 3.292845 1_556
Ba2 S0 3.386994 1_555
Ba2 S0 3.551551 1_556
Ba2 S5 3.841273 1_555
Ba3 S4 3.056341 1_565
Ba3 S3 3.056341 1_455
Ba3 S6 3.292236 1_555
Ba3 S8 3.292239 1_455
Ba3 S9 3.292842 1_555
Ba3 S7 3.292845 1_455
Ba3 S5 3.386994 1_554
Ba3 S5 3.551551 1_555
Ba3 S0 3.841273 1_555
Ba4 S0 3.056341 1_555
Ba4 S4 3.056341 1_555
Ba4 S6 3.292244 1_555
Ba4 S8 3.292244 1_555
Ba4 S9 3.292850 1_555
Ba4 S7 3.292850 1_555
Ba4 S2 3.386994 1_554
Ba4 S2 3.551551 1_555
Ba4 S3 3.841272 1_555
Ba5 S5 3.056341 1_545
Ba5 S2 3.056341 1_555
Ba5 S9 3.292236 1_545
Ba5 S7 3.292239 1_555
Ba5 S6 3.292842 1_546
Ba5 S8 3.292845 1_556
Ba5 S4 3.386994 1_555
Ba5 S4 3.551551 1_556
Ba5 S1 3.841273 1_555
Cr0 S2 2.470809 1_555
Cr0 S5 2.470809 1_545
Cr0 S1 2.470809 1_455
Cr0 S3 2.472570 1_445
Cr0 S0 2.472570 1_555
Cr0 S4 2.472570 1_555
Cr1 S3 2.470809 1_445
Cr1 S4 2.470809 1_555
Cr1 S0 2.470809 1_555
Cr1 S2 2.472570 1_554
Cr1 S5 2.472570 1_544
Cr1 S1 2.472570 1_454
