# generated using pymatgen
data_Sm3GaO6
_symmetry_space_group_name_H-M   'P 1'
_cell_length_a   5.53254422
_cell_length_b   7.27667005
_cell_length_c   7.27667026
_cell_angle_alpha   102.81968869
_cell_angle_beta   90.00000000
_cell_angle_gamma   90.00000000
_symmetry_Int_Tables_number   1
_chemical_formula_structural   Sm3GaO6
_chemical_formula_sum   'Sm6 Ga2 O12'
_cell_volume   285.64555930
_cell_formula_units_Z   2
loop_
 _symmetry_equiv_pos_site_id
 _symmetry_equiv_pos_as_xyz
  1  'x, y, z'
loop_
 _atom_site_type_symbol
 _atom_site_label
 _atom_site_symmetry_multiplicity
 _atom_site_fract_x
 _atom_site_fract_y
 _atom_site_fract_z
 _atom_site_occupancy
  Sm  Sm0  1  0.07683227  0.60338655  0.39661345  1
  Sm  Sm1  1  0.57683227  0.39661345  0.60338655  1
  Sm  Sm2  1  0.03153745  0.08722158  0.29843072  1
  Sm  Sm3  1  0.53153745  0.91277842  0.70156928  1
  Sm  Sm4  1  0.03153745  0.70156928  0.91277842  1
  Sm  Sm5  1  0.53153745  0.29843072  0.08722158  1
  Ga  Ga0  1  0.49866535  0.80738261  0.19261739  1
  Ga  Ga1  1  0.99866535  0.19261739  0.80738261  1
  O  O0  1  0.82863950  0.78422037  0.21577963  1
  O  O1  1  0.32863950  0.21577963  0.78422037  1
  O  O2  1  0.36437564  0.95929436  0.04070564  1
  O  O3  1  0.86437564  0.04070564  0.95929436  1
  O  O4  1  0.30274281  0.32586292  0.35463415  1
  O  O5  1  0.80274281  0.67413708  0.64536585  1
  O  O6  1  0.30274281  0.64536585  0.67413708  1
  O  O7  1  0.80274281  0.35463415  0.32586292  1
  O  O8  1  0.82726886  0.41735575  0.89406183  1
  O  O9  1  0.32726886  0.58264425  0.10593817  1
  O  O10  1  0.82726886  0.10593817  0.58264425  1
  O  O11  1  0.32726886  0.89406183  0.41735575  1
loop_
_geom_bond_atom_site_label_1
_geom_bond_atom_site_label_2
_geom_bond_distance
_geom_bond_site_symmetry_2
Ga0 O0 1.844512 1_555
Ga0 O9 1.874473 1_555
Ga0 O11 1.874473 1_555
Ga0 O2 1.880989 1_555
Ga1 O1 1.844512 1_655
Ga1 O8 1.874473 1_555
Ga1 O10 1.874473 1_555
Ga1 O3 1.880989 1_555
O0 Sm2 2.427895 1_665
O0 Sm4 2.427895 1_654
O0 Sm0 2.473239 1_655
O1 Sm3 2.427895 1_545
O1 Sm5 2.427895 1_556
O1 Sm1 2.473239 1_555
O2 Sm5 2.586341 1_565
O2 Sm3 2.586341 1_554
O2 Sm4 2.645712 1_554
O2 Sm2 2.645712 1_565
O3 Sm4 2.586341 1_645
O3 Sm2 2.586341 1_656
O3 Sm5 2.645712 1_556
O3 Sm3 2.645712 1_545
O4 Sm2 2.262510 1_555
O4 Sm5 2.292638 1_555
O4 Sm1 2.329686 1_555
O4 Sm0 2.336639 1_555
O5 Sm3 2.262510 1_555
O5 Sm4 2.292638 1_655
O5 Sm0 2.329686 1_655
O5 Sm1 2.336639 1_555
O6 Sm4 2.262510 1_555
O6 Sm3 2.292638 1_555
O6 Sm1 2.329686 1_555
O6 Sm0 2.336639 1_555
O7 Sm5 2.262510 1_555
O7 Sm2 2.292638 1_655
O7 Sm0 2.329686 1_655
O7 Sm1 2.336639 1_555
O8 Sm4 2.334072 1_655
O8 Sm5 2.437463 1_556
O8 Sm1 2.504938 1_555
O9 Sm5 2.334072 1_555
O9 Sm4 2.437463 1_554
O9 Sm0 2.504938 1_555
O10 Sm2 2.334072 1_655
O10 Sm3 2.437463 1_545
O10 Sm1 2.504938 1_555
O11 Sm3 2.334072 1_555
O11 Sm2 2.437463 1_565
O11 Sm0 2.504938 1_555
