# generated using pymatgen
data_Rb5BaTaAs4
_symmetry_space_group_name_H-M   'P 1'
_cell_length_a   10.78922499
_cell_length_b   10.78922459
_cell_length_c   8.30767913
_cell_angle_alpha   88.71062148
_cell_angle_beta   88.71062104
_cell_angle_gamma   120.61525063
_symmetry_Int_Tables_number   1
_chemical_formula_structural   Rb5BaTaAs4
_chemical_formula_sum   'Rb10 Ba2 Ta2 As8'
_cell_volume   831.41192212
_cell_formula_units_Z   2
loop_
 _symmetry_equiv_pos_site_id
 _symmetry_equiv_pos_as_xyz
  1  'x, y, z'
loop_
 _atom_site_type_symbol
 _atom_site_label
 _atom_site_symmetry_multiplicity
 _atom_site_fract_x
 _atom_site_fract_y
 _atom_site_fract_z
 _atom_site_occupancy
  Rb  Rb0  1  0.46591593  0.52529739  0.49812080  1
  Rb  Rb1  1  0.05951957  0.52695397  0.49973735  1
  Rb  Rb2  1  0.52529739  0.46591593  0.99812080  1
  Rb  Rb3  1  0.52695397  0.05951957  0.99973735  1
  Rb  Rb4  1  0.86513553  0.14208353  0.67952524  1
  Rb  Rb5  1  0.29581978  0.15445115  0.71644736  1
  Rb  Rb6  1  0.85509899  0.71597117  0.65896061  1
  Rb  Rb7  1  0.14208353  0.86513553  0.17952524  1
  Rb  Rb8  1  0.71597117  0.85509899  0.15896061  1
  Rb  Rb9  1  0.15445115  0.29581978  0.21644736  1
  Ba  Ba0  1  0.46447870  0.93414873  0.49292587  1
  Ba  Ba1  1  0.93414873  0.46447870  0.99292587  1
  Ta  Ta0  1  0.66911538  0.33141732  0.39278178  1
  Ta  Ta1  1  0.33141732  0.66911538  0.89278178  1
  As  As0  1  0.68286699  0.33609293  0.69212165  1
  As  As1  1  0.33609293  0.68286699  0.19212165  1
  As  As2  1  0.79074076  0.20114491  0.28935148  1
  As  As3  1  0.41021629  0.19526162  0.32008724  1
  As  As4  1  0.79626957  0.58199778  0.27422963  1
  As  As5  1  0.20114491  0.79074076  0.78935148  1
  As  As6  1  0.58199778  0.79626957  0.77422963  1
  As  As7  1  0.19526162  0.41021629  0.82008724  1
loop_
_geom_bond_atom_site_label_1
_geom_bond_atom_site_label_2
_geom_bond_distance
_geom_bond_site_symmetry_2
As0 Ta0 2.494686 1_555
As0 Ba1 3.485621 1_555
As0 Rb4 3.528887 1_555
As0 Rb6 3.534992 1_555
As0 Rb3 3.551849 1_555
As0 Rb5 3.595634 1_555
As0 Rb2 3.702128 1_555
As0 Rb1 3.787534 1_655
As1 Ta1 2.494686 1_554
As1 Ba0 3.485621 1_555
As1 Rb7 3.528887 1_555
As1 Rb8 3.534992 1_555
As1 Rb1 3.551849 1_555
As1 Rb9 3.595634 1_555
As1 Rb0 3.702128 1_555
As1 Rb3 3.787534 1_564
As2 Ta0 2.513578 1_555
As2 Ba1 3.401000 1_554
As2 Rb4 3.478842 1_555
As2 Rb3 3.502568 1_554
As2 Rb9 3.548476 1_655
As2 Ba0 3.568512 1_545
As2 Rb8 3.594068 1_545
As2 Rb1 3.734025 1_655
As3 Ta0 2.502339 1_555
As3 Rb5 3.429039 1_555
As3 Ba0 3.446283 1_545
As3 Rb7 3.501895 1_545
As3 Rb9 3.556351 1_555
As3 Rb3 3.566162 1_554
As3 Rb2 3.609638 1_554
As3 Rb0 3.650435 1_555
As4 Ta0 2.490577 1_555
As4 Ba1 3.343681 1_554
As4 Rb7 3.467346 1_655
As4 Rb6 3.474597 1_555
As4 Rb2 3.475507 1_554
As4 Rb8 3.586114 1_555
As4 Rb1 3.719817 1_655
As4 Rb0 3.737299 1_555
As5 Ta1 2.513578 1_555
As5 Ba0 3.401000 1_555
As5 Rb7 3.478842 1_556
As5 Rb1 3.502568 1_555
As5 Rb5 3.548476 1_565
As5 Ba1 3.568512 1_455
As5 Rb6 3.594068 1_455
As5 Rb3 3.734025 1_565
As6 Ta1 2.490577 1_555
As6 Ba0 3.343681 1_555
As6 Rb4 3.467346 1_565
As6 Rb8 3.474597 1_556
As6 Rb0 3.475507 1_555
As6 Rb6 3.586114 1_555
As6 Rb3 3.719817 1_565
As6 Rb2 3.737299 1_555
As7 Ta1 2.502339 1_555
As7 Rb9 3.429039 1_556
As7 Ba1 3.446283 1_455
As7 Rb4 3.501896 1_455
As7 Rb5 3.556351 1_555
As7 Rb1 3.566162 1_555
As7 Rb0 3.609638 1_555
As7 Rb2 3.650435 1_555
