# generated using pymatgen
data_Sc6Si6Tc5Ir
_symmetry_space_group_name_H-M   'P 1'
_cell_length_a   7.73903313
_cell_length_b   7.73948082
_cell_length_c   7.73948154
_cell_angle_alpha   126.80179924
_cell_angle_beta   128.06755622
_cell_angle_gamma   77.54834335
_symmetry_Int_Tables_number   1
_chemical_formula_structural   Sc6Si6Tc5Ir
_chemical_formula_sum   'Sc6 Si6 Tc5 Ir1'
_cell_volume   283.40073657
_cell_formula_units_Z   1
loop_
 _symmetry_equiv_pos_site_id
 _symmetry_equiv_pos_as_xyz
  1  'x, y, z'
loop_
 _atom_site_type_symbol
 _atom_site_label
 _atom_site_symmetry_multiplicity
 _atom_site_fract_x
 _atom_site_fract_y
 _atom_site_fract_z
 _atom_site_occupancy
  Sc  Sc0  1  0.44613007  0.39695717  0.44914552  1
  Sc  Sc1  1  0.55386993  0.00301545  0.95082710  1
  Sc  Sc2  1  0.05201668  0.00303360  0.44915196  1
  Sc  Sc3  1  0.94798332  0.39713428  0.95101792  1
  Sc  Sc4  1  0.24805615  0.60825285  0.85643989  1
  Sc  Sc5  1  0.75194385  0.60838474  0.36019670  1
  Si  Si0  1  0.16833445  0.67352710  0.50552580  1
  Si  Si1  1  0.83166555  0.33719135  0.50519365  1
  Si  Si2  1  0.66780299  0.67331140  0.00523066  1
  Si  Si3  1  0.33219701  0.33742767  0.00550941  1
  Si  Si4  1  0.24833528  0.00061916  0.24901293  1
  Si  Si5  1  0.75166472  0.00067765  0.75228388  1
  Tc  Tc0  1  0.37224704  0.74587904  0.37356254  1
  Tc  Tc1  1  0.62775296  0.00131551  0.37363200  1
  Tc  Tc2  1  0.87002069  0.74545573  0.87517107  1
  Tc  Tc3  1  0.12997931  0.00515038  0.87543604  1
  Tc  Tc4  1  0.00000000  0.26293907  0.26293907  1
  Ir  Ir0  1  0.50000000  0.25972484  0.75972484  1
loop_
_geom_bond_atom_site_label_1
_geom_bond_atom_site_label_2
_geom_bond_distance
_geom_bond_site_symmetry_2
Sc0 Si3 2.706521 1_555
Sc0 Si1 2.711753 1_555
Sc0 Si0 2.729006 1_555
Sc0 Si2 2.736625 1_556
Sc0 Si4 2.749562 1_555
Sc0 Tc3 2.927084 1_554
Sc0 Tc4 2.948006 1_555
Sc0 Tc1 2.950657 1_555
Sc0 Tc2 2.954677 1_555
Sc0 Tc0 2.962431 1_555
Sc1 Si2 2.706528 1_546
Sc1 Si0 2.711757 1_545
Sc1 Si1 2.729011 1_556
Sc1 Si3 2.736624 1_556
Sc1 Si5 2.749563 1_555
Sc1 Tc2 2.927087 1_545
Sc1 Tc4 2.948007 1_656
Sc1 Tc0 2.950657 1_545
Sc1 Tc3 2.954681 1_555
Sc1 Tc1 2.962432 1_556
Sc2 Si2 2.706900 1_445
Sc2 Si0 2.713494 1_545
Sc2 Si1 2.729651 1_455
Sc2 Si3 2.737745 1_556
Sc2 Si4 2.750128 1_555
Sc2 Tc2 2.928630 1_444
Sc2 Tc4 2.948559 1_555
Sc2 Tc0 2.951457 1_545
Sc2 Tc3 2.955314 1_555
Sc2 Tc1 2.960639 1_455
Sc3 Si3 2.706900 1_656
Sc3 Si1 2.713498 1_555
Sc3 Si0 2.729646 1_656
Sc3 Si2 2.737743 1_556
Sc3 Si5 2.750118 1_555
Sc3 Tc3 2.928623 1_655
Sc3 Tc4 2.948546 1_656
Sc3 Tc1 2.951458 1_555
Sc3 Tc2 2.955318 1_555
Sc3 Tc0 2.960644 1_656
Sc4 Si4 2.719095 1_566
Sc4 Si0 2.730389 1_555
Sc4 Si1 2.730395 1_455
Sc4 Si2 2.744002 1_556
Sc4 Si3 2.744226 1_556
Sc4 Tc4 2.925303 1_555
Sc4 Tc0 2.943932 1_556
Sc4 Tc1 2.944880 1_566
Sc4 Tc3 2.950697 1_565
Sc4 Tc2 2.950730 1_455
Sc5 Si5 2.719091 1_565
Sc5 Si0 2.730392 1_655
Sc5 Si1 2.730402 1_555
Sc5 Si3 2.744007 1_555
Sc5 Si2 2.744215 1_555
Sc5 Tc4 2.925307 1_655
Sc5 Tc1 2.943924 1_565
Sc5 Tc0 2.944879 1_555
Sc5 Tc2 2.950704 1_555
Sc5 Tc3 2.950728 1_665
Si0 Tc3 2.605315 1_565
Si0 Tc0 2.626950 1_555
Si0 Tc4 2.634587 1_555
Si1 Tc2 2.605309 1_555
Si1 Tc1 2.626946 1_555
Si1 Tc4 2.634594 1_655
Si2 Tc1 2.597800 1_565
Si2 Tc2 2.601334 1_554
Si3 Tc0 2.597798 1_555
Si3 Tc3 2.601334 1_554
Si4 Tc3 2.457960 1_554
Si4 Tc2 2.458560 1_444
Si4 Tc0 2.461210 1_545
Si4 Tc1 2.461797 1_555
Si4 Tc4 2.477438 1_555
Si5 Tc2 2.457967 1_545
Si5 Tc3 2.458557 1_655
Si5 Tc1 2.461210 1_555
Si5 Tc0 2.461797 1_545
Si5 Tc4 2.477438 1_656
Ir0 Si5 2.476352 1_555
Ir0 Si4 2.476352 1_555
Ir0 Si2 2.646806 1_556
Ir0 Si3 2.646813 1_556
Ir0 Sc1 2.951573 1_555
Ir0 Sc0 2.951573 1_555
Ir0 Sc3 2.952375 1_555
Ir0 Sc2 2.952381 1_555
Ir0 Sc4 2.958177 1_555
Ir0 Sc5 2.958179 1_556
