# generated using pymatgen
data_SrBiRh2O7
_symmetry_space_group_name_H-M   'P 1'
_cell_length_a   7.34138241
_cell_length_b   7.27623033
_cell_length_c   7.27623029
_cell_angle_alpha   58.69037064
_cell_angle_beta   59.70336293
_cell_angle_gamma   59.70336260
_symmetry_Int_Tables_number   1
_chemical_formula_structural   SrBiRh2O7
_chemical_formula_sum   'Sr2 Bi2 Rh4 O14'
_cell_volume   270.81223831
_cell_formula_units_Z   2
loop_
 _symmetry_equiv_pos_site_id
 _symmetry_equiv_pos_as_xyz
  1  'x, y, z'
loop_
 _atom_site_type_symbol
 _atom_site_label
 _atom_site_symmetry_multiplicity
 _atom_site_fract_x
 _atom_site_fract_y
 _atom_site_fract_z
 _atom_site_occupancy
  Sr  Sr0  1  0.12500000  0.62500000  0.12500000  1
  Sr  Sr1  1  0.12500000  0.12500000  0.62500000  1
  Bi  Bi0  1  0.12500000  0.12500000  0.12500000  1
  Bi  Bi1  1  0.62500000  0.12500000  0.12500000  1
  Rh  Rh0  1  0.62500000  0.62500000  0.62500000  1
  Rh  Rh1  1  0.62500000  0.62500000  0.12500000  1
  Rh  Rh2  1  0.12500000  0.62500000  0.62500000  1
  Rh  Rh3  1  0.62500000  0.12500000  0.62500000  1
  O  O0  1  0.26934836  0.23065164  0.23065164  1
  O  O1  1  0.29713666  0.71616494  0.29240893  1
  O  O2  1  0.95286334  0.95759107  0.53383506  1
  O  O3  1  0.55571053  0.95759107  0.53383506  1
  O  O4  1  0.69428947  0.71616494  0.29240893  1
  O  O5  1  0.94716335  0.55283665  0.55283665  1
  O  O6  1  0.69428947  0.29240893  0.71616494  1
  O  O7  1  0.29713666  0.29240893  0.71616494  1
  O  O8  1  0.70374926  0.29625074  0.29625074  1
  O  O9  1  0.30283665  0.69716335  0.69716335  1
  O  O10  1  0.95286334  0.53383506  0.95759107  1
  O  O11  1  0.55571053  0.53383506  0.95759107  1
  O  O12  1  0.98065164  0.01934836  0.01934836  1
  O  O13  1  0.54625074  0.95374926  0.95374926  1
loop_
_geom_bond_atom_site_label_1
_geom_bond_atom_site_label_2
_geom_bond_distance
_geom_bond_site_symmetry_2
Bi0 O0 2.136128 1_555
Bi0 O12 2.136128 1_455
Bi0 O10 2.433960 1_454
Bi0 O1 2.433960 1_545
Bi0 O7 2.433960 1_554
Bi0 O2 2.433960 1_445
Bi0 O13 2.550873 1_544
Bi0 O8 2.550873 1_455
Bi1 O12 2.136128 1_555
Bi1 O0 2.136128 1_555
Bi1 O3 2.433960 1_545
Bi1 O6 2.433960 1_554
Bi1 O11 2.433960 1_554
Bi1 O4 2.433960 1_545
Bi1 O8 2.550873 1_555
Bi1 O13 2.550873 1_544
O0 Sr1 2.325660 1_555
O0 Sr0 2.325660 1_555
O1 Rh2 1.996302 1_555
O1 Rh1 1.996990 1_555
O1 Sr0 2.599901 1_555
O2 Rh2 1.996302 1_655
O2 Rh3 1.996990 1_565
O2 Sr1 2.599901 1_665
O3 Rh0 1.996302 1_555
O3 Rh3 1.996990 1_565
O3 Sr1 2.599902 1_565
O4 Rh0 1.996302 1_555
O4 Rh1 1.996990 1_555
O4 Sr0 2.599902 1_655
O5 Rh2 1.981360 1_655
O5 Rh0 1.981360 1_555
O5 Sr0 2.561902 1_655
O5 Sr1 2.561902 1_655
O6 Rh0 1.996302 1_555
O6 Rh3 1.996990 1_555
O6 Sr1 2.599902 1_655
O7 Rh2 1.996302 1_555
O7 Rh3 1.996990 1_555
O7 Sr1 2.599901 1_555
O8 Rh3 1.960230 1_555
O8 Rh1 1.960230 1_555
O9 Rh2 1.981360 1_555
O9 Rh0 1.981360 1_555
O9 Sr0 2.561902 1_556
O9 Sr1 2.561902 1_565
O10 Rh2 1.996302 1_655
O10 Rh1 1.996990 1_556
O10 Sr0 2.599901 1_656
O11 Rh0 1.996302 1_555
O11 Rh1 1.996990 1_556
O11 Sr0 2.599902 1_556
O12 Sr1 2.325660 1_654
O12 Sr0 2.325660 1_645
O13 Rh3 1.960230 1_565
O13 Rh1 1.960230 1_556
