# generated using pymatgen
data_Sr2CaRhO6
_symmetry_space_group_name_H-M   'P 1'
_cell_length_a   5.85774543
_cell_length_b   5.74020029
_cell_length_c   9.94487023
_cell_angle_alpha   55.16882850
_cell_angle_beta   90.00000000
_cell_angle_gamma   90.00000000
_symmetry_Int_Tables_number   1
_chemical_formula_structural   Sr2CaRhO6
_chemical_formula_sum   'Sr4 Ca2 Rh2 O12'
_cell_volume   274.48235322
_cell_formula_units_Z   2
loop_
 _symmetry_equiv_pos_site_id
 _symmetry_equiv_pos_as_xyz
  1  'x, y, z'
loop_
 _atom_site_type_symbol
 _atom_site_label
 _atom_site_symmetry_multiplicity
 _atom_site_fract_x
 _atom_site_fract_y
 _atom_site_fract_z
 _atom_site_occupancy
  Sr  Sr0  1  0.54523733  0.73956980  0.74975492  1
  Sr  Sr1  1  0.04523733  0.26043020  0.75024508  1
  Sr  Sr2  1  0.95476267  0.73956980  0.24975492  1
  Sr  Sr3  1  0.45476267  0.26043020  0.25024508  1
  Ca  Ca0  1  0.00000000  0.00000000  0.50000000  1
  Ca  Ca1  1  0.50000000  0.00000000  0.00000000  1
  Rh  Rh0  1  0.00000000  0.50000000  0.00000000  1
  Rh  Rh1  1  0.50000000  0.50000000  0.50000000  1
  O  O0  1  0.52250200  0.80637317  0.27205026  1
  O  O1  1  0.02250200  0.19362683  0.22794974  1
  O  O2  1  0.47749800  0.19362683  0.72794974  1
  O  O3  1  0.97749800  0.80637317  0.77205026  1
  O  O4  1  0.76840692  0.64213225  0.54479785  1
  O  O5  1  0.26840692  0.35786775  0.95520215  1
  O  O6  1  0.23159308  0.35786775  0.45520215  1
  O  O7  1  0.73159308  0.64213225  0.04479785  1
  O  O8  1  0.19005804  0.72922470  0.03898717  1
  O  O9  1  0.69005804  0.27077530  0.46101283  1
  O  O10  1  0.80994196  0.27077530  0.96101283  1
  O  O11  1  0.30994196  0.72922470  0.53898717  1
loop_
_geom_bond_atom_site_label_1
_geom_bond_atom_site_label_2
_geom_bond_distance
_geom_bond_site_symmetry_2
Ca0 O3 2.266594 1_445
Ca0 O1 2.266594 1_555
Ca0 O11 2.274653 1_545
Ca0 O9 2.274653 1_455
Ca0 O6 2.283270 1_555
Ca0 O4 2.283270 1_445
Ca1 O0 2.266594 1_545
Ca1 O2 2.266594 1_554
Ca1 O10 2.274653 1_554
Ca1 O8 2.274653 1_545
Ca1 O5 2.283270 1_554
Ca1 O7 2.283270 1_545
O0 Rh1 1.922254 1_555
O0 Sr3 2.520328 1_565
O0 Sr2 2.589348 1_555
O1 Rh0 1.922254 1_555
O1 Sr2 2.520328 1_445
O1 Sr3 2.589348 1_555
O2 Rh1 1.922254 1_555
O2 Sr0 2.520328 1_545
O2 Sr1 2.589348 1_555
O3 Rh0 1.922254 1_656
O3 Sr1 2.520328 1_665
O3 Sr0 2.589348 1_555
O4 Rh1 1.936834 1_555
O4 Sr1 2.547740 1_655
O4 Sr0 2.734705 1_555
O4 Sr2 2.870386 1_555
O5 Rh0 1.936834 1_556
O5 Sr0 2.547740 1_555
O5 Sr1 2.734705 1_555
O5 Sr3 2.870386 1_556
O6 Rh1 1.936834 1_555
O6 Sr2 2.547740 1_455
O6 Sr3 2.734705 1_555
O6 Sr1 2.870386 1_555
O7 Rh0 1.936834 1_655
O7 Sr3 2.547740 1_555
O7 Sr2 2.734705 1_555
O7 Sr0 2.870386 1_554
O8 Rh0 1.924547 1_555
O8 Sr2 2.537495 1_455
O8 Sr3 2.757057 1_555
O8 Sr1 2.874188 1_564
O9 Rh1 1.924547 1_555
O9 Sr3 2.537495 1_555
O9 Sr2 2.757057 1_555
O9 Sr0 2.874188 1_545
O10 Rh0 1.924547 1_656
O10 Sr1 2.537495 1_655
O10 Sr0 2.757057 1_555
O10 Sr2 2.874188 1_546
O11 Rh1 1.924547 1_555
O11 Sr0 2.537495 1_555
O11 Sr1 2.757057 1_555
O11 Sr3 2.874188 1_565
