# generated using pymatgen
data_V12Si7Os5C4
_symmetry_space_group_name_H-M   'P 1'
_cell_length_a   7.79348302
_cell_length_b   7.79348324
_cell_length_c   7.79347678
_cell_angle_alpha   60.33302959
_cell_angle_beta   60.33302908
_cell_angle_gamma   60.33285587
_symmetry_Int_Tables_number   1
_chemical_formula_structural   V12Si7Os5C4
_chemical_formula_sum   'V12 Si7 Os5 C4'
_cell_volume   337.23982089
_cell_formula_units_Z   1
loop_
 _symmetry_equiv_pos_site_id
 _symmetry_equiv_pos_as_xyz
  1  'x, y, z'
loop_
 _atom_site_type_symbol
 _atom_site_label
 _atom_site_symmetry_multiplicity
 _atom_site_fract_x
 _atom_site_fract_y
 _atom_site_fract_z
 _atom_site_occupancy
  V  V0  1  0.81405253  0.81405253  0.19005451  1
  V  V1  1  0.18786418  0.18786418  0.81100459  1
  V  V2  1  0.81404118  0.19006816  0.81404202  1
  V  V3  1  0.18787987  0.81099308  0.18787313  1
  V  V4  1  0.19006816  0.81404118  0.81404202  1
  V  V5  1  0.81099308  0.18787987  0.18787313  1
  V  V6  1  0.43446829  0.43446829  0.06373606  1
  V  V7  1  0.06498199  0.06498199  0.43495972  1
  V  V8  1  0.43445715  0.06374623  0.43445897  1
  V  V9  1  0.06499721  0.43494629  0.06499425  1
  V  V10  1  0.06374623  0.43445715  0.43445897  1
  V  V11  1  0.43494629  0.06499721  0.06499425  1
  Si  Si0  1  0.76751463  0.40942273  0.40942630  1
  Si  Si1  1  0.40942273  0.76751463  0.40942630  1
  Si  Si2  1  0.40942534  0.40942534  0.76751177  1
  Si  Si3  1  0.40874368  0.40874368  0.40874565  1
  Si  Si4  1  0.48298080  0.83922482  0.83922483  1
  Si  Si5  1  0.83922482  0.48298080  0.83922483  1
  Si  Si6  1  0.83922674  0.83922674  0.48297630  1
  Os  Os0  1  0.12643298  0.62132385  0.62133397  1
  Os  Os1  1  0.62132385  0.12643298  0.62133397  1
  Os  Os2  1  0.62133081  0.62133081  0.12643558  1
  Os  Os3  1  0.62432385  0.62432385  0.62431660  1
  Os  Os4  1  0.84685430  0.84685430  0.84685497  1
  C  C0  1  0.62367917  0.12619484  0.12618691  1
  C  C1  1  0.12619484  0.62367917  0.12618691  1
  C  C2  1  0.12618487  0.12618487  0.62367916  1
  C  C3  1  0.12463641  0.12463641  0.12464337  1
loop_
_geom_bond_atom_site_label_1
_geom_bond_atom_site_label_2
_geom_bond_distance
_geom_bond_site_symmetry_2
Si0 V10 2.517051 1_655
Si0 V7 2.527345 1_655
Si0 V9 2.527363 1_655
Si1 V8 2.517051 1_565
Si1 V7 2.527345 1_565
Si1 V11 2.527363 1_565
Si2 V6 2.517076 1_556
Si2 V9 2.527345 1_556
Si2 V11 2.527345 1_556
Si3 V10 2.506509 1_555
Si3 V8 2.506509 1_555
Si3 V6 2.506530 1_555
Si4 V4 2.492675 1_555
Si4 V3 2.538472 1_556
Si4 V1 2.538477 1_565
Si5 V2 2.492675 1_555
Si5 V5 2.538472 1_556
Si5 V1 2.538477 1_655
Si6 V0 2.492663 1_555
Si6 V3 2.538501 1_655
Si6 V5 2.538501 1_565
Os0 Si3 2.414725 1_555
Os0 Si5 2.422857 1_455
Os0 Si6 2.422903 1_455
Os0 Si2 2.430765 1_555
Os0 Si1 2.430815 1_555
Os0 Os4 2.530228 1_455
Os0 V3 2.825328 1_555
Os0 V1 2.825341 1_555
Os0 V10 2.826489 1_555
Os0 V7 2.893477 1_565
Os0 V9 2.893511 1_556
Os0 V4 2.909472 1_555
Os1 Si3 2.414725 1_555
Os1 Si4 2.422857 1_545
Os1 Si6 2.422903 1_545
Os1 Si2 2.430765 1_555
Os1 Si0 2.430815 1_555
Os1 Os4 2.530228 1_545
Os1 V5 2.825328 1_555
Os1 V1 2.825341 1_555
Os1 V8 2.826489 1_555
Os1 V7 2.893476 1_655
Os1 V11 2.893511 1_556
Os1 V2 2.909472 1_555
Os2 Si3 2.414757 1_555
Os2 Si5 2.422897 1_554
Os2 Si4 2.422897 1_554
Os2 Si1 2.430783 1_555
Os2 Si0 2.430783 1_555
Os2 Os4 2.530217 1_554
Os2 V3 2.825271 1_555
Os2 V5 2.825271 1_555
Os2 V6 2.826448 1_555
Os2 V9 2.893542 1_655
Os2 V11 2.893542 1_565
Os2 V0 2.909509 1_555
Os3 Si1 2.435468 1_555
Os3 Si0 2.435468 1_555
Os3 Si2 2.435501 1_555
Os3 Si6 2.438814 1_555
Os3 Si5 2.438824 1_555
Os3 Si4 2.438824 1_555
Os3 V4 2.843112 1_555
Os3 V2 2.843112 1_555
Os3 V0 2.843172 1_555
Os3 V6 2.870833 1_556
Os3 V10 2.870862 1_655
Os3 V8 2.870862 1_565
Os4 V0 2.448627 1_556
Os4 V4 2.448671 1_655
Os4 V2 2.448671 1_565
C0 V5 2.052213 1_555
C0 V6 2.056535 1_555
C0 V8 2.056553 1_555
C0 V11 2.057288 1_555
C0 V2 2.080004 1_554
C0 V0 2.080007 1_545
C1 V3 2.052213 1_555
C1 V6 2.056535 1_555
C1 V10 2.056553 1_555
C1 V9 2.057288 1_555
C1 V4 2.080004 1_554
C1 V0 2.080007 1_455
C2 V1 2.052227 1_555
C2 V8 2.056549 1_555
C2 V10 2.056549 1_555
C2 V7 2.057272 1_555
C2 V2 2.079999 1_455
C2 V4 2.079999 1_545
C3 V11 2.066162 1_555
C3 V9 2.066162 1_555
C3 V7 2.066171 1_555
C3 V1 2.077526 1_554
C3 V5 2.077528 1_455
C3 V3 2.077528 1_545
