# generated using pymatgen
data_Y20CoTcHg6
_symmetry_space_group_name_H-M   'P 1'
_cell_length_a   9.62295299
_cell_length_b   9.62295316
_cell_length_c   9.66125279
_cell_angle_alpha   90.00000000
_cell_angle_beta   90.00000000
_cell_angle_gamma   119.99999603
_symmetry_Int_Tables_number   1
_chemical_formula_structural   Y20CoTcHg6
_chemical_formula_sum   'Y20 Co1 Tc1 Hg6'
_cell_volume   774.78433416
_cell_formula_units_Z   1
loop_
 _symmetry_equiv_pos_site_id
 _symmetry_equiv_pos_as_xyz
  1  'x, y, z'
loop_
 _atom_site_type_symbol
 _atom_site_label
 _atom_site_symmetry_multiplicity
 _atom_site_fract_x
 _atom_site_fract_y
 _atom_site_fract_z
 _atom_site_occupancy
  Y  Y0  1  0.00000000  0.00000000  0.49995045  1
  Y  Y1  1  0.00000000  0.00000000  0.00004955  1
  Y  Y2  1  0.54080832  0.45919168  0.25000000  1
  Y  Y3  1  0.54080832  0.08161564  0.25000000  1
  Y  Y4  1  0.91838436  0.45919168  0.25000000  1
  Y  Y5  1  0.45779018  0.54220982  0.75000000  1
  Y  Y6  1  0.45779018  0.91558037  0.75000000  1
  Y  Y7  1  0.08441963  0.54220982  0.75000000  1
  Y  Y8  1  0.20919307  0.79080693  0.43895304  1
  Y  Y9  1  0.20919307  0.41838915  0.43895304  1
  Y  Y10  1  0.58161085  0.79080693  0.43895304  1
  Y  Y11  1  0.78901329  0.21098671  0.56514281  1
  Y  Y12  1  0.78901329  0.57802358  0.56514281  1
  Y  Y13  1  0.42197642  0.21098671  0.56514281  1
  Y  Y14  1  0.78901329  0.21098671  0.93485719  1
  Y  Y15  1  0.78901329  0.57802358  0.93485719  1
  Y  Y16  1  0.42197642  0.21098671  0.93485719  1
  Y  Y17  1  0.20919307  0.79080693  0.06104696  1
  Y  Y18  1  0.20919307  0.41838915  0.06104696  1
  Y  Y19  1  0.58161085  0.79080693  0.06104696  1
  Co  Co0  1  0.66666700  0.33333300  0.75000000  1
  Tc  Tc0  1  0.33333300  0.66666700  0.25000000  1
  Hg  Hg0  1  0.88107785  0.11892215  0.25000000  1
  Hg  Hg1  1  0.88107785  0.76215670  0.25000000  1
  Hg  Hg2  1  0.23784330  0.11892215  0.25000000  1
  Hg  Hg3  1  0.11879768  0.88120232  0.75000000  1
  Hg  Hg4  1  0.11879768  0.23759536  0.75000000  1
  Hg  Hg5  1  0.76240464  0.88120232  0.75000000  1
loop_
_geom_bond_atom_site_label_1
_geom_bond_atom_site_label_2
_geom_bond_distance
_geom_bond_site_symmetry_2
Y0 Y8 3.536165 1_545
Y0 Y10 3.536189 1_445
Y0 Y9 3.536190 1_555
Y0 Y11 3.572567 1_455
Y0 Y13 3.572592 1_555
Y0 Y12 3.572592 1_445
Y1 Y17 3.536165 1_545
Y1 Y19 3.536189 1_445
Y1 Y18 3.536190 1_555
Y1 Y14 3.572567 1_454
Y1 Y16 3.572592 1_554
Y1 Y15 3.572592 1_444
Y2 Y9 3.523772 1_555
Y2 Y4 3.633396 1_555
Y2 Y3 3.633397 1_555
Y3 Y8 3.523759 1_545
Y3 Y4 3.633397 1_555
Y4 Y9 3.523740 1_655
Y4 Y8 3.523759 1_655
Y5 Y7 3.592927 1_555
Y5 Y6 3.592927 1_555
Y5 Y9 3.650037 1_555
Y6 Y7 3.592928 1_555
Y6 Y8 3.650037 1_555
Y7 Y9 3.650023 1_555
Y7 Y8 3.650037 1_555
Y10 Y3 3.523740 1_565
Y10 Y2 3.523772 1_555
Y10 Y6 3.650023 1_555
Y10 Y5 3.650037 1_555
Y11 Y6 3.516962 1_545
Y11 Y7 3.516962 1_655
Y11 Y3 3.681194 1_555
Y11 Y4 3.681194 1_555
Y12 Y7 3.516947 1_655
Y12 Y5 3.516972 1_555
Y12 Y4 3.681184 1_555
Y12 Y2 3.681194 1_555
Y13 Y6 3.516948 1_545
Y13 Y5 3.516972 1_555
Y13 Y3 3.681184 1_555
Y13 Y2 3.681194 1_555
Y14 Y6 3.516962 1_545
Y14 Y7 3.516962 1_655
Y14 Y3 3.681194 1_556
Y14 Y4 3.681194 1_556
Y15 Y7 3.516947 1_655
Y15 Y5 3.516972 1_555
Y15 Y4 3.681184 1_556
Y15 Y2 3.681194 1_556
Y16 Y6 3.516948 1_545
Y16 Y5 3.516972 1_555
Y16 Y3 3.681184 1_556
Y16 Y2 3.681194 1_556
Y17 Y3 3.523759 1_565
Y17 Y4 3.523759 1_455
Y17 Y6 3.650037 1_554
Y17 Y7 3.650037 1_554
Y18 Y4 3.523740 1_455
Y18 Y2 3.523772 1_555
Y18 Y7 3.650023 1_554
Y18 Y5 3.650037 1_554
Y19 Y3 3.523740 1_565
Y19 Y2 3.523772 1_555
Y19 Y6 3.650023 1_554
Y19 Y5 3.650037 1_554
Co0 Y16 2.710700 1_555
Co0 Y13 2.710700 1_555
Co0 Y15 2.710700 1_555
Co0 Y12 2.710700 1_555
Co0 Y14 2.710712 1_555
Co0 Y11 2.710712 1_555
Co0 Y7 3.481434 1_655
Co0 Y6 3.481434 1_545
Co0 Y5 3.481442 1_555
Tc0 Y10 2.759279 1_555
Tc0 Y19 2.759279 1_555
Tc0 Y9 2.759279 1_555
Tc0 Y18 2.759279 1_555
Tc0 Y8 2.759291 1_555
Tc0 Y17 2.759291 1_555
Tc0 Y4 3.458067 1_455
Tc0 Y3 3.458067 1_565
Tc0 Y2 3.458083 1_555
Hg0 Y3 3.110475 1_555
Hg0 Y4 3.110475 1_555
Hg0 Y0 3.124141 1_655
Hg0 Y1 3.124141 1_655
Hg0 Y11 3.409498 1_555
Hg0 Y14 3.409498 1_554
Hg0 Y9 3.536595 1_655
Hg0 Y18 3.536595 1_655
Hg0 Y10 3.536595 1_545
Hg0 Y19 3.536595 1_545
Hg1 Y2 3.110483 1_555
Hg1 Y4 3.110494 1_555
Hg1 Y0 3.124136 1_665
Hg1 Y1 3.124136 1_665
Hg1 Y12 3.409513 1_555
Hg1 Y15 3.409513 1_554
Hg1 Y8 3.536587 1_655
Hg1 Y17 3.536587 1_655
Hg1 Y10 3.536604 1_555
Hg1 Y19 3.536604 1_555
Hg2 Y2 3.110483 1_555
Hg2 Y3 3.110494 1_555
Hg2 Y0 3.124136 1_555
Hg2 Y1 3.124136 1_555
Hg2 Y13 3.409513 1_555
Hg2 Y16 3.409513 1_554
Hg2 Y8 3.536588 1_545
Hg2 Y17 3.536588 1_545
Hg2 Y9 3.536604 1_555
Hg2 Y18 3.536604 1_555
Hg3 Y6 3.109924 1_555
Hg3 Y7 3.109925 1_555
Hg3 Y1 3.123566 1_566
Hg3 Y0 3.123566 1_565
Hg3 Y17 3.361647 1_556
Hg3 Y8 3.361647 1_555
Hg3 Y15 3.537482 1_455
Hg3 Y12 3.537482 1_455
Hg3 Y16 3.537482 1_565
Hg3 Y13 3.537482 1_565
Hg4 Y7 3.109924 1_555
Hg4 Y5 3.109925 1_555
Hg4 Y1 3.123566 1_556
Hg4 Y0 3.123566 1_555
Hg4 Y18 3.361658 1_556
Hg4 Y9 3.361658 1_555
Hg4 Y14 3.537471 1_455
Hg4 Y11 3.537471 1_455
Hg4 Y16 3.537496 1_555
Hg4 Y13 3.537496 1_555
Hg5 Y6 3.109924 1_555
Hg5 Y5 3.109925 1_555
Hg5 Y1 3.123566 1_666
Hg5 Y0 3.123566 1_665
Hg5 Y19 3.361658 1_556
Hg5 Y10 3.361658 1_555
Hg5 Y14 3.537471 1_565
Hg5 Y11 3.537471 1_565
Hg5 Y15 3.537496 1_555
Hg5 Y12 3.537496 1_555
