# generated using pymatgen
data_LiZrAlIr
_symmetry_space_group_name_H-M   'P 1'
_cell_length_a   4.45149516
_cell_length_b   4.45149511
_cell_length_c   4.45149506
_cell_angle_alpha   60.00000040
_cell_angle_beta   60.00000076
_cell_angle_gamma   60.00000857
_symmetry_Int_Tables_number   1
_chemical_formula_structural   LiZrAlIr
_chemical_formula_sum   'Li1 Zr1 Al1 Ir1'
_cell_volume   62.37387659
_cell_formula_units_Z   1
loop_
 _symmetry_equiv_pos_site_id
 _symmetry_equiv_pos_as_xyz
  1  'x, y, z'
loop_
 _atom_site_type_symbol
 _atom_site_label
 _atom_site_symmetry_multiplicity
 _atom_site_fract_x
 _atom_site_fract_y
 _atom_site_fract_z
 _atom_site_occupancy
  Li  Li0  1  0.50000000  0.50000000  0.50000000  1
  Zr  Zr0  1  0.75000000  0.75000000  0.75000000  1
  Al  Al0  1  0.25000000  0.25000000  0.25000000  1
  Ir  Ir0  1  0.00000000  0.00000000  0.00000000  1
loop_
_geom_bond_atom_site_label_1
_geom_bond_atom_site_label_2
_geom_bond_distance
_geom_bond_site_symmetry_2
Li0 Zr0 2.725973 1_555
Li0 Zr0 2.725973 1_554
Li0 Zr0 2.725973 1_545
Li0 Zr0 2.725973 1_455
Al0 Ir0 2.725973 1_555
Al0 Li0 2.725973 1_555
Al0 Ir0 2.725973 1_556
Al0 Li0 2.725973 1_554
Al0 Ir0 2.725973 1_565
Al0 Li0 2.725973 1_545
Al0 Li0 2.725973 1_455
Al0 Ir0 2.725973 1_655
Ir0 Zr0 2.725973 1_444
Ir0 Zr0 2.725973 1_445
Ir0 Zr0 2.725973 1_454
Ir0 Zr0 2.725973 1_544
Ir0 Li0 3.147682 1_554
Ir0 Li0 3.147682 1_445
Ir0 Li0 3.147683 1_545
Ir0 Li0 3.147683 1_455
Ir0 Li0 3.147683 1_454
Ir0 Li0 3.147683 1_544
