# generated using pymatgen
data_Ba5Al3Ga2Sn
_symmetry_space_group_name_H-M   'P 1'
_cell_length_a   6.02929449
_cell_length_b   6.02929419
_cell_length_c   11.15644510
_cell_angle_alpha   90.00000000
_cell_angle_beta   90.00000000
_cell_angle_gamma   119.99998528
_symmetry_Int_Tables_number   1
_chemical_formula_structural   Ba5Al3Ga2Sn
_chemical_formula_sum   'Ba5 Al3 Ga2 Sn1'
_cell_volume   351.22829921
_cell_formula_units_Z   1
loop_
 _symmetry_equiv_pos_site_id
 _symmetry_equiv_pos_as_xyz
  1  'x, y, z'
loop_
 _atom_site_type_symbol
 _atom_site_label
 _atom_site_symmetry_multiplicity
 _atom_site_fract_x
 _atom_site_fract_y
 _atom_site_fract_z
 _atom_site_occupancy
  Ba  Ba0  1  0.00000000  0.00000000  0.67289133  1
  Ba  Ba1  1  0.66666700  0.33333300  0.79860232  1
  Ba  Ba2  1  0.66666700  0.33333300  0.20139768  1
  Ba  Ba3  1  0.33333300  0.66666700  0.00000000  1
  Ba  Ba4  1  0.00000000  0.00000000  0.32710867  1
  Al  Al0  1  0.50947674  0.49052326  0.50000000  1
  Al  Al1  1  0.98104551  0.49052326  0.50000000  1
  Al  Al2  1  0.50947674  0.01895449  0.50000000  1
  Ga  Ga0  1  0.33333300  0.66666700  0.67588235  1
  Ga  Ga1  1  0.33333300  0.66666700  0.32411765  1
  Sn  Sn0  1  0.00000000  0.00000000  0.00000000  1
loop_
_geom_bond_atom_site_label_1
_geom_bond_atom_site_label_2
_geom_bond_distance
_geom_bond_site_symmetry_2
Ba0 Ga0 3.481171 1_545
Ba0 Ga0 3.481177 1_555
Ba0 Ga0 3.481177 1_445
Ba0 Sn0 3.649370 1_556
Ba1 Ga0 3.740579 1_545
Ba1 Ga0 3.740579 1_655
Ba1 Ga0 3.740588 1_555
Ba1 Sn0 4.143177 1_656
Ba1 Sn0 4.143182 1_666
Ba1 Sn0 4.143182 1_556
Ba2 Ga1 3.740579 1_545
Ba2 Ga1 3.740579 1_655
Ba2 Ga1 3.740588 1_555
Ba2 Sn0 4.143177 1_655
Ba2 Sn0 4.143182 1_665
Ba2 Sn0 4.143182 1_555
Ba3 Sn0 3.481011 1_565
Ba3 Sn0 3.481017 1_555
Ba3 Sn0 3.481017 1_665
Ba3 Ga1 3.616001 1_555
Ba3 Ga0 3.616001 1_554
Ba4 Ga1 3.481171 1_545
Ba4 Ga1 3.481177 1_555
Ba4 Ga1 3.481177 1_445
Ba4 Sn0 3.649370 1_555
Al0 Ga0 2.689608 1_555
Al0 Ga1 2.689608 1_555
Al0 Ba0 3.580275 1_665
Al0 Ba4 3.580275 1_665
Al0 Ba0 3.580275 1_555
Al0 Ba4 3.580275 1_555
Al0 Ba1 3.713825 1_555
Al0 Ba2 3.713825 1_555
Al1 Ga0 2.689608 1_655
Al1 Ga1 2.689608 1_655
Al1 Ba0 3.580272 1_665
Al1 Ba4 3.580272 1_665
Al1 Ba0 3.580277 1_655
Al1 Ba4 3.580277 1_655
Al1 Ba1 3.713821 1_555
Al1 Ba2 3.713821 1_555
Al2 Ga0 2.689608 1_545
Al2 Ga1 2.689608 1_545
Al2 Ba0 3.580272 1_555
Al2 Ba4 3.580272 1_555
Al2 Ba0 3.580277 1_655
Al2 Ba4 3.580277 1_655
Al2 Ba1 3.713821 1_555
Al2 Ba2 3.713821 1_555
