# generated using pymatgen
data_Y2NiB8Ir
_symmetry_space_group_name_H-M   'P 1'
_cell_length_a   6.90860528
_cell_length_b   6.90860923
_cell_length_c   6.90860760
_cell_angle_alpha   111.24312808
_cell_angle_beta   113.38736401
_cell_angle_gamma   103.92960497
_symmetry_Int_Tables_number   1
_chemical_formula_structural   Y2NiB8Ir
_chemical_formula_sum   'Y4 Ni2 B16 Ir2'
_cell_volume   251.97782848
_cell_formula_units_Z   2
loop_
 _symmetry_equiv_pos_site_id
 _symmetry_equiv_pos_as_xyz
  1  'x, y, z'
loop_
 _atom_site_type_symbol
 _atom_site_label
 _atom_site_symmetry_multiplicity
 _atom_site_fract_x
 _atom_site_fract_y
 _atom_site_fract_z
 _atom_site_occupancy
  Y  Y0  1  0.79047817  0.79047817  1.00000000  1
  Y  Y1  1  0.20952183  0.20952183  0.00000000  1
  Y  Y2  1  0.75361309  0.25361309  0.50000000  1
  Y  Y3  1  0.24638691  0.74638691  0.50000000  1
  Ni  Ni0  1  0.50000000  0.74565688  0.24565688  1
  Ni  Ni1  1  0.50000000  0.25434312  0.75434312  1
  B  B0  1  0.27284631  0.10864005  0.38148636  1
  B  B1  1  0.72715369  0.89135995  0.61851364  1
  B  B2  1  0.27284631  0.89135995  0.16420526  1
  B  B3  1  0.72715369  0.10864005  0.83579474  1
  B  B4  1  0.11124365  0.73006072  0.84130437  1
  B  B5  1  0.88875635  0.26993928  0.15869563  1
  B  B6  1  0.11124365  0.26993928  0.38118293  1
  B  B7  1  0.88875635  0.73006072  0.61881707  1
  B  B8  1  0.11626141  0.11072389  0.53065843  1
  B  B9  1  0.58006546  0.58560298  0.46934157  1
  B  B10  1  0.11626141  0.58560298  0.00553752  1
  B  B11  1  0.58006546  0.11072389  0.99446248  1
  B  B12  1  0.88373859  0.88927611  0.46934157  1
  B  B13  1  0.41993454  0.41439702  0.53065843  1
  B  B14  1  0.88373859  0.41439702  0.99446248  1
  B  B15  1  0.41993454  0.88927611  0.00553752  1
  Ir  Ir0  1  0.27847499  0.50000000  0.77847499  1
  Ir  Ir1  1  0.72152501  0.50000000  0.22152501  1
loop_
_geom_bond_atom_site_label_1
_geom_bond_atom_site_label_2
_geom_bond_distance
_geom_bond_site_symmetry_2
Ni0 Y2 2.932495 1_565
Ni0 Y3 2.932497 1_555
Ni0 Y1 3.128726 1_555
Ni0 Y0 3.128727 1_554
Ni1 Y3 2.932495 1_545
Ni1 Y2 2.932497 1_555
Ni1 Y0 3.128726 1_555
Ni1 Y1 3.128727 1_556
B0 B2 1.695219 1_545
B0 B6 1.757007 1_555
B0 B13 1.764754 1_555
B0 B8 1.764755 1_555
B0 Ni1 2.064605 1_555
B0 Y0 2.861065 1_444
B0 Y1 2.861069 1_555
B0 Y2 2.889732 1_555
B0 Y3 2.889735 1_545
B1 B3 1.695219 1_565
B1 B7 1.757007 1_555
B1 B9 1.764754 1_555
B1 B12 1.764755 1_555
B1 Ni0 2.064605 1_555
B1 Y1 2.861065 1_666
B1 Y0 2.861069 1_555
B1 Y3 2.889732 1_555
B1 Y2 2.889735 1_565
B2 B4 1.757000 1_554
B2 Ni0 2.064608 1_555
B2 Y1 2.861066 1_565
B2 Y0 2.861068 1_454
B2 Y2 2.889730 1_565
B2 Y3 2.889741 1_555
B3 B5 1.757000 1_556
B3 Ni1 2.064608 1_555
B3 Y0 2.861066 1_545
B3 Y1 2.861068 1_656
B3 Y3 2.889730 1_545
B3 Y2 2.889741 1_555
B4 B7 1.688064 1_455
B4 Ir0 2.198111 1_555
B4 Y0 2.886111 1_455
B4 Y1 2.886111 1_566
B4 Y2 2.886875 1_455
B4 Y3 2.886878 1_555
B5 B6 1.688064 1_655
B5 Ir1 2.198111 1_555
B5 Y1 2.886111 1_655
B5 Y0 2.886111 1_544
B5 Y3 2.886875 1_655
B5 Y2 2.886878 1_555
B6 B8 1.758003 1_555
B6 Ir0 2.198108 1_555
B6 Y0 2.886108 1_444
B6 Y1 2.886111 1_555
B6 Y2 2.886878 1_455
B6 Y3 2.886878 1_555
B7 B9 1.758000 1_555
B7 Ir1 2.198108 1_555
B7 Y1 2.886108 1_666
B7 Y0 2.886111 1_555
B7 Y3 2.886878 1_655
B7 Y2 2.886878 1_555
B8 Ni1 2.184232 1_555
B8 Ir0 2.260284 1_555
B8 Y1 2.814377 1_556
B8 Y3 2.836003 1_545
B8 Y2 2.866592 1_455
B8 Y0 2.928334 1_444
B9 Ni0 2.184235 1_555
B9 Ir1 2.260285 1_555
B9 Y1 2.814374 1_555
B9 Y3 2.836003 1_555
B9 Y2 2.866593 1_555
B9 Y0 2.928335 1_555
B10 B14 1.705125 1_454
B10 B4 1.758003 1_554
B10 B2 1.764754 1_555
B10 Ni0 2.184231 1_555
B10 Ir0 2.260285 1_554
B10 Y1 2.814379 1_555
B10 Y3 2.836002 1_555
B10 Y2 2.866589 1_454
B10 Y0 2.928337 1_454
B11 B15 1.705125 1_546
B11 B5 1.758000 1_556
B11 B3 1.764749 1_555
B11 Ni1 2.184234 1_555
B11 Ir1 2.260284 1_556
B11 Y1 2.814377 1_556
B11 Y3 2.835999 1_545
B11 Y2 2.866591 1_556
B11 Y0 2.928338 1_545
B12 B8 1.705124 1_665
B12 B7 1.758003 1_555
B12 Ni0 2.184232 1_555
B12 Ir1 2.260284 1_555
B12 Y0 2.814377 1_554
B12 Y2 2.836003 1_565
B12 Y3 2.866592 1_655
B12 Y1 2.928334 1_666
B13 B9 1.705125 1_555
B13 B6 1.758000 1_555
B13 Ni1 2.184235 1_555
B13 Ir0 2.260285 1_555
B13 Y0 2.814374 1_555
B13 Y2 2.836003 1_555
B13 Y3 2.866593 1_555
B13 Y1 2.928335 1_555
B14 B5 1.758003 1_556
B14 B3 1.764754 1_555
B14 Ni1 2.184231 1_555
B14 Ir1 2.260285 1_556
B14 Y0 2.814379 1_555
B14 Y2 2.836002 1_555
B14 Y3 2.866589 1_656
B14 Y1 2.928337 1_656
B15 B4 1.758000 1_554
B15 B2 1.764749 1_555
B15 Ni0 2.184234 1_555
B15 Ir0 2.260284 1_554
B15 Y0 2.814377 1_554
B15 Y2 2.835999 1_565
B15 Y3 2.866591 1_554
B15 Y1 2.928338 1_565
Ir0 Ni0 2.549187 1_556
Ir0 Ni1 2.549189 1_555
Ir0 Y2 2.977255 1_455
Ir0 Y3 2.977259 1_555
Ir0 Y0 2.990065 1_555
Ir0 Y1 2.990069 1_556
Ir1 Ni1 2.549187 1_554
Ir1 Ni0 2.549189 1_555
Ir1 Y3 2.977255 1_655
Ir1 Y2 2.977259 1_555
Ir1 Y1 2.990065 1_555
Ir1 Y0 2.990069 1_554
