# generated using pymatgen
data_Ta10AlGaSi4
_symmetry_space_group_name_H-M   'P 1'
_cell_length_a   7.56186282
_cell_length_b   7.56186202
_cell_length_c   7.56186124
_cell_angle_alpha   128.34000860
_cell_angle_beta   128.34000238
_cell_angle_gamma   76.07487454
_symmetry_Int_Tables_number   1
_chemical_formula_structural   Ta10AlGaSi4
_chemical_formula_sum   'Ta10 Al1 Ga1 Si4'
_cell_volume   258.60471383
_cell_formula_units_Z   1
loop_
 _symmetry_equiv_pos_site_id
 _symmetry_equiv_pos_as_xyz
  1  'x, y, z'
loop_
 _atom_site_type_symbol
 _atom_site_label
 _atom_site_symmetry_multiplicity
 _atom_site_fract_x
 _atom_site_fract_y
 _atom_site_fract_z
 _atom_site_occupancy
  Ta  Ta0  1  0.01546755  0.18682430  0.49921860  1
  Ta  Ta1  1  0.68760570  0.51624895  0.50078140  1
  Ta  Ta2  1  0.51624895  0.01546755  0.82864425  1
  Ta  Ta3  1  0.18682430  0.68760570  0.17135575  1
  Ta  Ta4  1  0.98375105  0.81239430  0.49921860  1
  Ta  Ta5  1  0.31317570  0.48453245  0.50078140  1
  Ta  Ta6  1  0.48453245  0.98375105  0.17135575  1
  Ta  Ta7  1  0.81239430  0.31317570  0.82864425  1
  Ta  Ta8  1  0.00039721  0.00039721  1.00000000  1
  Ta  Ta9  1  0.49960279  0.49960279  0.00000000  1
  Al  Al0  1  0.75000000  0.75000000  0.00000000  1
  Ga  Ga0  1  0.25000000  0.25000000  0.00000000  1
  Si  Si0  1  0.37033490  0.12966510  0.50000000  1
  Si  Si1  1  0.62966510  0.87033490  0.50000000  1
  Si  Si2  1  0.87033490  0.37033490  0.24066981  1
  Si  Si3  1  0.12966510  0.62966510  0.75933019  1
loop_
_geom_bond_atom_site_label_1
_geom_bond_atom_site_label_2
_geom_bond_distance
_geom_bond_site_symmetry_2
Al0 Ta2 2.740602 1_564
Al0 Ta6 2.740602 1_555
Al0 Ta1 2.740606 1_554
Al0 Ta4 2.740606 1_555
Al0 Ta0 2.740606 1_665
Al0 Ta5 2.740607 1_554
Al0 Ta7 2.740608 1_554
Al0 Ta3 2.740608 1_655
Al0 Ta8 2.982624 1_664
Al0 Ta9 2.982624 1_555
Ga0 Ta6 2.746785 1_545
Ga0 Ta2 2.746785 1_554
Ga0 Ta5 2.746789 1_555
Ga0 Ta0 2.746789 1_554
Ga0 Ta4 2.746789 1_444
Ga0 Ta1 2.746790 1_555
Ga0 Ta3 2.746791 1_555
Ga0 Ta7 2.746791 1_454
Ga0 Ta9 2.973161 1_555
Ga0 Ta8 2.973161 1_554
Si0 Si1 2.416667 1_545
Si0 Ta9 2.585560 1_556
Si0 Ta8 2.585561 1_554
Si0 Ta5 2.610181 1_555
Si0 Ta0 2.610182 1_555
Si0 Ta3 2.631252 1_545
Si0 Ta7 2.631253 1_555
Si0 Ta6 2.634602 1_545
Si0 Ta2 2.634602 1_555
Si1 Ta9 2.585560 1_555
Si1 Ta8 2.585561 1_665
Si1 Ta1 2.610181 1_555
Si1 Ta4 2.610182 1_555
Si1 Ta2 2.631260 1_565
Si1 Ta6 2.631260 1_555
Si1 Ta7 2.634594 1_565
Si1 Ta3 2.634595 1_555
Si2 Si3 2.416667 1_655
Si2 Ta8 2.585561 1_654
Si2 Ta9 2.585561 1_555
Si2 Ta7 2.610174 1_554
Si2 Ta2 2.610182 1_554
Si2 Ta0 2.631253 1_655
Si2 Ta4 2.631254 1_555
Si2 Ta1 2.634595 1_555
Si2 Ta5 2.634596 1_655
Si3 Ta8 2.585561 1_565
Si3 Ta9 2.585561 1_556
Si3 Ta3 2.610174 1_556
Si3 Ta6 2.610182 1_556
Si3 Ta5 2.631253 1_555
Si3 Ta1 2.631254 1_455
Si3 Ta4 2.634595 1_455
Si3 Ta0 2.634595 1_555
