# generated using pymatgen
data_Nd2CdS4
_symmetry_space_group_name_H-M   'P 1'
_cell_length_a   7.45417422
_cell_length_b   7.45417422
_cell_length_c   7.45417422
_cell_angle_alpha   110.72169605
_cell_angle_beta   110.72169605
_cell_angle_gamma   106.99821541
_symmetry_Int_Tables_number   1
_chemical_formula_structural   Nd2CdS4
_chemical_formula_sum   'Nd4 Cd2 S8'
_cell_volume   318.39979965
_cell_formula_units_Z   2
loop_
 _symmetry_equiv_pos_site_id
 _symmetry_equiv_pos_as_xyz
  1  'x, y, z'
loop_
 _atom_site_type_symbol
 _atom_site_label
 _atom_site_symmetry_multiplicity
 _atom_site_fract_x
 _atom_site_fract_y
 _atom_site_fract_z
 _atom_site_occupancy
  Nd  Nd0  1  0.37500000  0.76350200  0.88850200  1
  Nd  Nd1  1  0.51350200  0.62500000  0.38850200  1
  Nd  Nd2  1  0.87500000  0.48649800  0.11149800  1
  Nd  Nd3  1  0.23649800  0.12500000  0.61149800  1
  Cd  Cd0  1  0.75000000  0.25000000  0.50000000  1
  Cd  Cd1  1  0.00000000  0.00000000  0.00000000  1
  S  S0  1  0.24296900  0.86759600  0.23571900  1
  S  S1  1  0.99275000  0.75703100  0.62462700  1
  S  S2  1  0.61759600  0.49296900  0.73571900  1
  S  S3  1  0.11812300  0.38240400  0.87537300  1
  S  S4  1  0.50703100  0.24275000  0.12462700  1
  S  S5  1  0.13240400  0.36812300  0.37537300  1
  S  S6  1  0.63187700  0.00725000  0.76428100  1
  S  S7  1  0.75725000  0.88187700  0.26428100  1
loop_
_geom_bond_atom_site_label_1
_geom_bond_atom_site_label_2
_geom_bond_distance
_geom_bond_site_symmetry_2
Nd0 S1 2.806510 1_455
Nd0 S7 2.806510 1_556
Nd0 S3 2.869893 1_555
Nd0 S6 2.869893 1_565
Nd0 S0 3.016201 1_556
Nd0 S4 3.016201 1_566
Nd0 S5 3.255486 1_555
Nd0 S2 3.255486 1_555
Nd1 S6 2.806510 1_565
Nd1 S4 2.806510 1_555
Nd1 S5 2.869893 1_555
Nd1 S7 2.869893 1_555
Nd1 S1 3.016201 1_555
Nd1 S2 3.016201 1_555
Nd1 S3 3.255486 1_554
Nd1 S0 3.255486 1_555
Nd2 S5 2.806510 1_655
Nd2 S2 2.806510 1_554
Nd2 S4 2.869893 1_555
Nd2 S0 2.869893 1_655
Nd2 S3 3.016201 1_654
Nd2 S6 3.016201 1_554
Nd2 S1 3.255486 1_555
Nd2 S7 3.255486 1_555
Nd3 S0 2.806510 1_545
Nd3 S3 2.806510 1_555
Nd3 S2 2.869893 1_555
Nd3 S1 2.869893 1_445
Nd3 S7 3.016201 1_445
Nd3 S5 3.016201 1_555
Nd3 S6 3.255486 1_555
Nd3 S4 3.255486 1_556
Cd0 S7 2.713302 1_545
Cd0 S2 2.713302 1_555
Cd0 S3 2.713302 1_655
Cd0 S4 2.713302 1_555
Cd1 S1 2.713302 1_444
Cd1 S6 2.713302 1_454
Cd1 S0 2.713302 1_545
Cd1 S5 2.713302 1_555
