# generated using pymatgen
data_ZrAl2(VGa)2
_symmetry_space_group_name_H-M   'P 1'
_cell_length_a   5.28241987
_cell_length_b   5.28241928
_cell_length_c   5.23293120
_cell_angle_alpha   103.77924631
_cell_angle_beta   103.77923689
_cell_angle_gamma   121.87715234
_symmetry_Int_Tables_number   1
_chemical_formula_structural   ZrAl2(VGa)2
_chemical_formula_sum   'Zr1 Al2 V2 Ga2'
_cell_volume   108.06734365
_cell_formula_units_Z   1
loop_
 _symmetry_equiv_pos_site_id
 _symmetry_equiv_pos_as_xyz
  1  'x, y, z'
loop_
 _atom_site_type_symbol
 _atom_site_label
 _atom_site_symmetry_multiplicity
 _atom_site_fract_x
 _atom_site_fract_y
 _atom_site_fract_z
 _atom_site_occupancy
  Zr  Zr0  1  0.00000000  0.00000000  0.00000000  1
  Al  Al0  1  0.30651484  0.30651484  0.61302968  1
  Al  Al1  1  0.69348516  0.69348516  0.38697032  1
  V  V0  1  0.25000000  0.75000000  0.50000000  1
  V  V1  1  0.75000000  0.25000000  0.50000000  1
  Ga  Ga0  1  0.69834227  0.30165773  0.00000000  1
  Ga  Ga1  1  0.30165773  0.69834227  1.00000000  1
loop_
_geom_bond_atom_site_label_1
_geom_bond_atom_site_label_2
_geom_bond_distance
_geom_bond_site_symmetry_2
Al0 Ga1 2.543531 1_555
Al0 Ga0 2.543531 1_556
Al0 V0 2.691044 1_545
Al0 V0 2.691044 1_555
Al0 V1 2.691044 1_555
Al0 V1 2.691044 1_455
Al0 Al1 2.765296 1_445
Al0 Al1 2.765296 1_555
Al0 Zr0 2.795820 1_555
Al0 Zr0 3.114258 1_666
Al0 Zr0 3.114258 1_556
Al1 Ga0 2.543531 1_555
Al1 Ga1 2.543531 1_554
Al1 V1 2.691044 1_565
Al1 V1 2.691044 1_555
Al1 V0 2.691044 1_555
Al1 V0 2.691044 1_655
Al1 Zr0 2.795820 1_666
Al1 Zr0 3.114258 1_555
Al1 Zr0 3.114258 1_665
V0 V1 2.565919 1_455
V0 V1 2.565919 1_565
Ga0 V0 2.659598 1_544
Ga0 V0 2.659598 1_655
Ga0 V1 2.659598 1_554
Ga0 V1 2.659598 1_555
Ga0 Ga1 2.737559 1_544
Ga0 Ga1 2.737559 1_654
Ga0 Zr0 2.785725 1_655
Ga0 Zr0 3.152591 1_665
Ga0 Zr0 3.152591 1_555
Ga1 V1 2.659598 1_566
Ga1 V1 2.659598 1_455
Ga1 V0 2.659598 1_556
Ga1 V0 2.659598 1_555
Ga1 Zr0 2.785725 1_566
Ga1 Zr0 3.152591 1_556
Ga1 Zr0 3.152591 1_666
