# generated using pymatgen
data_Lu4As6Ir5Ru2
_symmetry_space_group_name_H-M   'P 1'
_cell_length_a   7.15389347
_cell_length_b   7.15389347
_cell_length_c   7.15389342
_cell_angle_alpha   109.45026855
_cell_angle_beta   109.51311591
_cell_angle_gamma   109.45027207
_symmetry_Int_Tables_number   1
_chemical_formula_structural   Lu4As6Ir5Ru2
_chemical_formula_sum   'Lu4 As6 Ir5 Ru2'
_cell_volume   281.84180400
_cell_formula_units_Z   1
loop_
 _symmetry_equiv_pos_site_id
 _symmetry_equiv_pos_as_xyz
  1  'x, y, z'
loop_
 _atom_site_type_symbol
 _atom_site_label
 _atom_site_symmetry_multiplicity
 _atom_site_fract_x
 _atom_site_fract_y
 _atom_site_fract_z
 _atom_site_occupancy
  Lu  Lu0  1  0.00043483  0.00086866  0.50043483  1
  Lu  Lu1  1  0.49956517  0.99913134  0.99956517  1
  Lu  Lu2  1  0.00043483  0.50000000  0.99956517  1
  Lu  Lu3  1  0.49956517  0.50000000  0.50043483  1
  As  As0  1  0.68067779  0.68373626  0.99694052  1
  As  As1  1  0.31320526  0.31626374  0.99694052  1
  As  As2  1  0.00305948  0.68373626  0.68679474  1
  As  As3  1  0.00305948  0.31626374  0.31932221  1
  As  As4  1  0.68571744  0.00000000  0.68571744  1
  As  As5  1  0.31428256  1.00000000  0.31428256  1
  Ir  Ir0  1  0.74938190  0.24933568  0.50004522  1
  Ir  Ir1  1  0.49995478  0.24933568  0.74929047  1
  Ir  Ir2  1  0.49995478  0.75066432  0.25061810  1
  Ir  Ir3  1  0.75000000  0.50000000  0.25000000  1
  Ir  Ir4  1  0.25070953  0.75066432  0.50004522  1
  Ru  Ru0  1  0.00000000  0.00000000  0.00000000  1
  Ru  Ru1  1  0.25000000  0.50000000  0.75000000  1
loop_
_geom_bond_atom_site_label_1
_geom_bond_atom_site_label_2
_geom_bond_distance
_geom_bond_site_symmetry_2
Lu0 Ru1 2.916245 1_555
Lu1 Ru1 2.916245 1_555
Lu2 Ru1 2.916238 1_555
Lu3 Ru1 2.916238 1_555
As0 Ru1 2.541979 1_555
As0 Ir1 2.568113 1_555
As0 Ir2 2.568113 1_556
As0 Ir3 2.582668 1_556
As0 Ru0 2.613323 1_666
As0 Lu3 2.950403 1_555
As0 Lu1 2.950415 1_555
As0 Lu2 2.991814 1_655
As0 Lu0 2.991820 1_666
As1 Ru1 2.541973 1_555
As1 Ir1 2.568107 1_555
As1 Ir2 2.568114 1_556
As1 Ir3 2.582664 1_556
As1 Ru0 2.613331 1_556
As1 Lu0 2.950405 1_555
As1 Lu2 2.950410 1_555
As1 Lu1 2.991809 1_545
As1 Lu3 2.991822 1_556
As2 Ru1 2.541973 1_555
As2 Ir4 2.568107 1_555
As2 Ir0 2.568114 1_455
As2 Ir3 2.582664 1_455
As2 Ru0 2.613331 1_566
As2 Lu1 2.950405 1_555
As2 Lu2 2.950410 1_555
As2 Lu0 2.991809 1_565
As2 Lu3 2.991822 1_455
As3 Ru1 2.541979 1_555
As3 Ir4 2.568113 1_555
As3 Ir0 2.568113 1_455
As3 Ir3 2.582668 1_455
As3 Ru0 2.613323 1_555
As3 Lu3 2.950403 1_555
As3 Lu0 2.950415 1_555
As3 Lu2 2.991814 1_554
As3 Lu1 2.991820 1_444
As4 Ir4 2.567958 1_545
As4 Ir0 2.567959 1_555
As4 Ir1 2.568404 1_555
As4 Ir2 2.568410 1_545
As4 Ru0 2.594821 1_656
As4 Lu1 2.969143 1_545
As4 Lu3 2.969145 1_545
As4 Lu2 2.969145 1_655
As4 Lu0 2.969145 1_655
As5 Ir1 2.567959 1_565
As5 Ir2 2.567959 1_555
As5 Ir4 2.568404 1_555
As5 Ir0 2.568410 1_565
As5 Ru0 2.594821 1_565
As5 Lu0 2.969143 1_565
As5 Lu3 2.969145 1_565
As5 Lu2 2.969145 1_554
As5 Lu1 2.969145 1_554
Ir0 Lu0 2.917397 1_655
Ir0 Lu2 2.917397 1_655
Ir0 Lu1 2.922995 1_544
Ir0 Lu3 2.923000 1_555
Ir1 Lu3 2.917397 1_555
Ir1 Lu0 2.917397 1_555
Ir1 Lu1 2.922988 1_545
Ir1 Lu2 2.922995 1_655
Ir2 Lu1 2.917397 1_554
Ir2 Lu2 2.917397 1_554
Ir2 Lu0 2.922995 1_665
Ir2 Lu3 2.923000 1_555
Ir3 Lu1 2.926395 1_544
Ir3 Lu0 2.926395 1_665
Ir3 Lu2 2.926401 1_654
Ir3 Lu3 2.926401 1_555
Ir4 Lu3 2.917397 1_555
Ir4 Lu1 2.917397 1_555
Ir4 Lu0 2.922988 1_565
Ir4 Lu2 2.922995 1_554
