# generated using pymatgen
data_Ba2CdSbAs
_symmetry_space_group_name_H-M   'P 1'
_cell_length_a   9.19799694
_cell_length_b   9.19799620
_cell_length_c   8.50785662
_cell_angle_alpha   90.00000000
_cell_angle_beta   90.00000000
_cell_angle_gamma   149.99296568
_symmetry_Int_Tables_number   1
_chemical_formula_structural   Ba2CdSbAs
_chemical_formula_sum   'Ba4 Cd2 Sb2 As2'
_cell_volume   359.97222413
_cell_formula_units_Z   2
loop_
 _symmetry_equiv_pos_site_id
 _symmetry_equiv_pos_as_xyz
  1  'x, y, z'
loop_
 _atom_site_type_symbol
 _atom_site_label
 _atom_site_symmetry_multiplicity
 _atom_site_fract_x
 _atom_site_fract_y
 _atom_site_fract_z
 _atom_site_occupancy
  Ba  Ba0  1  0.28510010  0.71489990  0.87498242  1
  Ba  Ba1  1  0.71489990  0.28510010  0.37498242  1
  Ba  Ba2  1  0.46037254  0.53962746  0.23691632  1
  Ba  Ba3  1  0.53962746  0.46037254  0.73691632  1
  Cd  Cd0  1  0.09434541  0.90565459  0.08201363  1
  Cd  Cd1  1  0.90565459  0.09434541  0.58201363  1
  Sb  Sb0  1  0.06672811  0.93327189  0.43610684  1
  Sb  Sb1  1  0.93327189  0.06672811  0.93610684  1
  As  As0  1  0.33169545  0.66830455  0.50400079  1
  As  As1  1  0.66830455  0.33169545  0.00400079  1
loop_
_geom_bond_atom_site_label_1
_geom_bond_atom_site_label_2
_geom_bond_distance
_geom_bond_site_symmetry_2
Ba0 Sb1 3.587791 1_455
Ba0 Sb1 3.587792 1_565
Ba1 Sb0 3.587791 1_655
Ba1 Sb0 3.587792 1_545
Ba2 Sb0 3.480417 1_545
Ba2 Sb0 3.480417 1_655
Ba2 Sb1 3.528675 1_564
Ba2 Sb1 3.528676 1_454
Ba2 Cd0 3.615767 1_545
Ba2 Cd0 3.615767 1_655
Ba3 Sb1 3.480417 1_565
Ba3 Sb1 3.480417 1_455
Ba3 Sb0 3.528675 1_545
Ba3 Sb0 3.528676 1_655
Ba3 Cd1 3.615767 1_565
Ba3 Cd1 3.615767 1_455
Cd0 Sb0 3.052281 1_555
Cd0 Sb1 3.119703 1_464
Cd1 Sb1 3.052281 1_555
Cd1 Sb0 3.119703 1_645
As0 Cd1 2.799554 1_455
As0 Cd1 2.799554 1_565
As0 Ba2 3.223548 1_555
As0 Ba0 3.263045 1_555
As0 Ba1 3.343918 1_565
As0 Ba1 3.343918 1_455
As1 Cd0 2.799554 1_655
As1 Cd0 2.799554 1_545
As1 Ba3 3.223548 1_554
As1 Ba1 3.263045 1_555
As1 Ba0 3.343918 1_544
As1 Ba0 3.343918 1_654
