# generated using pymatgen
data_Sc4Cu(SiRh)6
_symmetry_space_group_name_H-M   'P 1'
_cell_length_a   6.91065852
_cell_length_b   6.91065883
_cell_length_c   6.91065829
_cell_angle_alpha   109.32792821
_cell_angle_beta   109.32792339
_cell_angle_gamma   109.75818921
_symmetry_Int_Tables_number   1
_chemical_formula_structural   Sc4Cu(SiRh)6
_chemical_formula_sum   'Sc4 Cu1 Si6 Rh6'
_cell_volume   254.05529697
_cell_formula_units_Z   1
loop_
 _symmetry_equiv_pos_site_id
 _symmetry_equiv_pos_as_xyz
  1  'x, y, z'
loop_
 _atom_site_type_symbol
 _atom_site_label
 _atom_site_symmetry_multiplicity
 _atom_site_fract_x
 _atom_site_fract_y
 _atom_site_fract_z
 _atom_site_occupancy
  Sc  Sc0  1  0.00190998  0.99809002  0.50000000  1
  Sc  Sc1  1  0.00190998  0.50190998  0.00382095  1
  Sc  Sc2  1  0.49809002  0.99809002  0.99617905  1
  Sc  Sc3  1  0.49809002  0.50190998  0.50000000  1
  Cu  Cu0  1  0.75000000  0.25000000  0.50000000  1
  Si  Si0  1  0.67900434  0.67900434  0.00000000  1
  Si  Si1  1  0.31756263  0.99815909  0.31940354  1
  Si  Si2  1  0.00184091  0.32124444  0.31940354  1
  Si  Si3  1  0.32099566  0.32099566  1.00000000  1
  Si  Si4  1  0.67875556  0.99815909  0.68059646  1
  Si  Si5  1  0.00184091  0.68243737  0.68059646  1
  Rh  Rh0  1  0.74728102  0.49469283  0.25258819  1
  Rh  Rh1  1  0.50530717  0.25271898  0.74741181  1
  Rh  Rh2  1  0.24210464  0.49469283  0.74741181  1
  Rh  Rh3  1  0.25000000  0.75000000  0.50000000  1
  Rh  Rh4  1  0.50530717  0.75789536  0.25258819  1
  Rh  Rh5  1  0.00000000  0.00000000  0.00000000  1
loop_
_geom_bond_atom_site_label_1
_geom_bond_atom_site_label_2
_geom_bond_distance
_geom_bond_site_symmetry_2
Sc0 Si1 2.849171 1_555
Sc0 Si5 2.849171 1_555
Sc0 Si3 2.882160 1_565
Sc0 Si0 2.882160 1_455
Sc0 Si4 2.896567 1_455
Sc0 Si2 2.896567 1_565
Sc1 Si2 2.849164 1_555
Sc1 Si1 2.849170 1_555
Sc1 Si0 2.882159 1_455
Sc1 Si3 2.882161 1_554
Sc1 Si4 2.896568 1_444
Sc1 Si5 2.896573 1_554
Sc2 Si4 2.849164 1_555
Sc2 Si5 2.849170 1_555
Sc2 Si3 2.882159 1_565
Sc2 Si0 2.882161 1_556
Sc2 Si2 2.896568 1_666
Sc2 Si1 2.896573 1_556
Sc3 Si2 2.849171 1_555
Sc3 Si4 2.849171 1_555
Sc3 Si3 2.882160 1_554
Sc3 Si0 2.882160 1_556
Sc3 Si5 2.896567 1_655
Sc3 Si1 2.896567 1_545
Cu0 Si2 2.468637 1_655
Cu0 Si4 2.468637 1_545
Cu0 Si1 2.468637 1_545
Cu0 Si5 2.468637 1_655
Cu0 Rh1 2.774381 1_555
Cu0 Rh0 2.774381 1_555
Cu0 Rh2 2.774381 1_655
Cu0 Rh4 2.774381 1_545
Cu0 Sc0 2.847844 1_645
Cu0 Sc3 2.847844 1_555
Cu0 Sc1 2.847849 1_656
Cu0 Sc2 2.847849 1_544
Rh0 Si3 2.446331 1_554
Rh0 Si5 2.449279 1_655
Rh0 Si2 2.449279 1_655
Rh0 Si0 2.494954 1_555
Rh0 Sc3 2.800359 1_555
Rh0 Sc2 2.800359 1_544
Rh0 Sc1 2.837994 1_655
Rh0 Sc0 2.838000 1_655
Rh1 Si0 2.446331 1_556
Rh1 Si1 2.449279 1_545
Rh1 Si4 2.449279 1_545
Rh1 Si3 2.494953 1_555
Rh1 Sc3 2.800359 1_555
Rh1 Sc1 2.800359 1_656
Rh1 Sc2 2.837994 1_545
Rh1 Sc0 2.838000 1_545
Rh2 Si3 2.446331 1_555
Rh2 Si2 2.449279 1_555
Rh2 Si5 2.449279 1_555
Rh2 Si0 2.494954 1_556
Rh2 Sc0 2.800359 1_545
Rh2 Sc1 2.800364 1_556
Rh2 Sc3 2.838000 1_555
Rh2 Sc2 2.838000 1_555
Rh3 Si5 2.444949 1_555
Rh3 Si1 2.444949 1_555
Rh3 Si4 2.444949 1_555
Rh3 Si2 2.444949 1_555
Rh3 Sc2 2.804654 1_555
Rh3 Sc1 2.804654 1_555
Rh3 Sc3 2.804659 1_555
Rh3 Sc0 2.804659 1_555
Rh4 Si0 2.446331 1_555
Rh4 Si4 2.449279 1_555
Rh4 Si1 2.449279 1_555
Rh4 Si3 2.494954 1_554
Rh4 Sc0 2.800359 1_655
Rh4 Sc2 2.800364 1_554
Rh4 Sc3 2.838000 1_555
Rh4 Sc1 2.838000 1_555
Rh5 Si3 2.552383 1_554
Rh5 Si0 2.552383 1_445
Rh5 Si5 2.553305 1_544
Rh5 Si2 2.553305 1_555
Rh5 Si1 2.553305 1_545
Rh5 Si4 2.553305 1_444
