# generated using pymatgen
data_Ta5Ti3(Si3W)2
_symmetry_space_group_name_H-M   'P 1'
_cell_length_a   7.47057122
_cell_length_b   7.47057138
_cell_length_c   7.46927468
_cell_angle_alpha   129.06202179
_cell_angle_beta   129.06201583
_cell_angle_gamma   74.79543499
_symmetry_Int_Tables_number   1
_chemical_formula_structural   Ta5Ti3(Si3W)2
_chemical_formula_sum   'Ta5 Ti3 Si6 W2'
_cell_volume   244.95514858
_cell_formula_units_Z   1
loop_
 _symmetry_equiv_pos_site_id
 _symmetry_equiv_pos_as_xyz
  1  'x, y, z'
loop_
 _atom_site_type_symbol
 _atom_site_label
 _atom_site_symmetry_multiplicity
 _atom_site_fract_x
 _atom_site_fract_y
 _atom_site_fract_z
 _atom_site_occupancy
  Ta  Ta0  1  0.18583647  0.68583647  0.17269374  1
  Ta  Ta1  1  0.98511395  0.81573740  0.49810489  1
  Ta  Ta2  1  0.31573740  0.48511395  0.49810489  1
  Ta  Ta3  1  0.48643392  0.98643392  0.17179277  1
  Ta  Ta4  1  0.81637322  0.31637322  0.83111242  1
  Ti  Ti0  1  0.01286218  0.18457203  0.49962676  1
  Ti  Ti1  1  0.68457203  0.51286218  0.49962676  1
  Ti  Ti2  1  0.51261841  0.01261841  0.82662902  1
  Si  Si0  1  0.75057843  0.75484149  0.99792776  1
  Si  Si1  1  0.25484149  0.25057843  0.99792776  1
  Si  Si2  1  0.36755080  0.13198588  0.50415072  1
  Si  Si3  1  0.63198588  0.86755080  0.50415072  1
  Si  Si4  1  0.86447042  0.36447042  0.23701750  1
  Si  Si5  1  0.12750319  0.62750319  0.75785924  1
  W  W0  1  0.00227167  0.00125256  0.00163803  1
  W  W1  1  0.50125256  0.50227167  0.00163803  1
loop_
_geom_bond_atom_site_label_1
_geom_bond_atom_site_label_2
_geom_bond_distance
_geom_bond_site_symmetry_2
Ta0 W1 2.992740 1_555
Ta0 W0 2.992740 1_565
Ta1 W1 2.983805 1_555
Ta1 W0 2.999792 1_666
Ta2 W0 2.983805 1_555
Ta2 W1 2.999792 1_556
Ta3 W1 2.980550 1_555
Ta3 W0 2.980550 1_565
Ta4 W1 2.987930 1_556
Ta4 W0 2.987931 1_656
Ti0 W0 2.997192 1_555
Ti0 W1 3.014741 1_556
Ti1 W1 2.997192 1_555
Ti1 W0 3.014741 1_666
Ti2 W1 3.007880 1_556
Ti2 W0 3.007880 1_656
Si0 Ti2 2.636058 1_565
Si0 Ti1 2.653040 1_555
Si0 Ti0 2.659250 1_666
Si0 Ta0 2.676217 1_656
Si0 Ta3 2.679739 1_556
Si0 Ta2 2.686707 1_555
Si0 Ta1 2.694526 1_556
Si0 Ta4 2.703183 1_555
Si0 W0 2.934369 1_666
Si0 W1 3.000773 1_556
Si1 Ti2 2.636058 1_555
Si1 Ti0 2.653040 1_555
Si1 Ti1 2.659250 1_556
Si1 Ta0 2.676217 1_556
Si1 Ta3 2.679739 1_546
Si1 Ta1 2.686707 1_445
Si1 Ta2 2.694526 1_556
Si1 Ta4 2.703183 1_455
Si1 W1 2.934369 1_556
Si1 W0 3.000773 1_556
Si2 Si3 2.399594 1_545
Si2 W1 2.504830 1_556
Si2 W0 2.521425 1_555
Si2 Ti0 2.556248 1_555
Si2 Ti2 2.584893 1_555
Si2 Ta2 2.589163 1_555
Si2 Ta0 2.611280 1_545
Si2 Ta4 2.639448 1_555
Si2 Ta3 2.646488 1_545
Si3 W0 2.504830 1_666
Si3 W1 2.521425 1_555
Si3 Ti1 2.556248 1_555
Si3 Ti2 2.584893 1_565
Si3 Ta1 2.589163 1_555
Si3 Ta0 2.611280 1_555
Si3 Ta4 2.639448 1_565
Si3 Ta3 2.646488 1_555
Si4 Si5 2.369247 1_655
Si4 W0 2.513353 1_655
Si4 W1 2.513353 1_555
Si4 Ti2 2.555209 1_554
Si4 Ti1 2.585148 1_555
Si4 Ti0 2.585148 1_655
Si4 Ta4 2.602292 1_554
Si4 Ta1 2.659561 1_555
Si4 Ta2 2.659561 1_655
Si5 W0 2.521103 1_566
Si5 W1 2.521103 1_556
Si5 Ta0 2.583918 1_556
Si5 Ti0 2.600707 1_555
Si5 Ti1 2.600707 1_455
Si5 Ta3 2.610259 1_556
Si5 Ta2 2.631750 1_555
Si5 Ta1 2.631750 1_455
