# generated using pymatgen
data_Cs3K(SiP)12
_symmetry_space_group_name_H-M   'P 1'
_cell_length_a   3.55790632
_cell_length_b   9.86733262
_cell_length_c   20.25434695
_cell_angle_alpha   88.73409384
_cell_angle_beta   90.00000000
_cell_angle_gamma   90.00000000
_symmetry_Int_Tables_number   1
_chemical_formula_structural   Cs3K(SiP)12
_chemical_formula_sum   'Cs3 K1 Si12 P12'
_cell_volume   710.89672157
_cell_formula_units_Z   1
loop_
 _symmetry_equiv_pos_site_id
 _symmetry_equiv_pos_as_xyz
  1  'x, y, z'
loop_
 _atom_site_type_symbol
 _atom_site_label
 _atom_site_symmetry_multiplicity
 _atom_site_fract_x
 _atom_site_fract_y
 _atom_site_fract_z
 _atom_site_occupancy
  Cs  Cs0  1  0.00000000  0.30368373  0.30391099  1
  Cs  Cs1  1  0.00000000  0.71303162  0.68923726  1
  Cs  Cs2  1  0.00000000  0.20982594  0.81086273  1
  K  K0  1  0.00000000  0.80002902  0.19059972  1
  Si  Si0  1  0.50000000  0.39650222  0.04079759  1
  Si  Si1  1  0.50000000  0.58962398  0.97219886  1
  Si  Si2  1  0.50000000  0.09689848  0.53204808  1
  Si  Si3  1  0.50000000  0.91146466  0.46211622  1
  Si  Si4  1  0.00000000  0.10711587  0.01821151  1
  Si  Si5  1  0.00000000  0.87980964  0.98936527  1
  Si  Si6  1  0.00000000  0.38971223  0.51055156  1
  Si  Si7  1  0.00000000  0.61849505  0.47828930  1
  Si  Si8  1  0.00000000  0.16299906  0.12961921  1
  Si  Si9  1  0.00000000  0.81598569  0.87846631  1
  Si  Si10  1  0.00000000  0.32236553  0.62235489  1
  Si  Si11  1  0.00000000  0.69483834  0.36726783  1
  P  P0  1  0.50000000  0.09281857  0.18658679  1
  P  P1  1  0.50000000  0.88303798  0.82085078  1
  P  P2  1  0.50000000  0.38702612  0.67914978  1
  P  P3  1  0.50000000  0.63451236  0.30891794  1
  P  P4  1  0.50000000  0.28537204  0.46358897  1
  P  P5  1  0.50000000  0.71889048  0.52753299  1
  P  P6  1  0.50000000  0.21557129  0.97123114  1
  P  P7  1  0.50000000  0.77507764  0.03907690  1
  P  P8  1  0.00000000  0.39554456  0.11027270  1
  P  P9  1  0.00000000  0.58543000  0.90258255  1
  P  P10  1  0.00000000  0.09178140  0.60169485  1
  P  P11  1  0.00000000  0.92255550  0.39261628  1
loop_
_geom_bond_atom_site_label_1
_geom_bond_atom_site_label_2
_geom_bond_distance
_geom_bond_site_symmetry_2
Cs0 P0 3.655034 1_455
Cs0 P0 3.655034 1_555
Cs0 P4 3.692070 1_555
Cs0 P4 3.692070 1_455
Cs0 P3 3.721004 1_555
Cs0 P3 3.721004 1_455
Cs0 P8 4.005838 1_555
Cs0 P11 4.131885 1_545
Cs1 P1 3.644516 1_555
Cs1 P1 3.644516 1_455
Cs1 P2 3.685552 1_455
Cs1 P2 3.685552 1_555
Cs1 P5 3.726484 1_455
Cs1 P5 3.726484 1_555
Cs1 P10 4.100997 1_565
Cs2 P2 3.623913 1_555
Cs2 P2 3.623913 1_455
Cs2 P1 3.684337 1_445
Cs2 P1 3.684337 1_545
Cs2 P6 3.704936 1_555
Cs2 P6 3.704936 1_455
K0 P3 3.376702 1_555
K0 P3 3.376702 1_455
K0 P0 3.392274 1_565
K0 P0 3.392274 1_465
K0 P7 3.560535 1_455
K0 P7 3.560535 1_555
Si0 Si1 2.333411 1_554
Si2 Si3 2.338527 1_545
Si4 Si5 2.330213 1_544
Si4 Si8 2.334692 1_555
Si5 Si9 2.346160 1_555
Si6 Si7 2.336240 1_555
Si10 Si6 2.345866 1_555
Si11 Si7 2.355659 1_555
P0 Si8 2.222671 1_655
P0 Si8 2.222671 1_555
P1 Si9 2.220387 1_555
P1 Si9 2.220387 1_655
P2 Si10 2.219791 1_555
P2 Si10 2.219791 1_655
P3 Si11 2.224147 1_555
P3 Si11 2.224147 1_655
P4 Si6 2.274360 1_555
P4 Si6 2.274360 1_655
P4 Si2 2.295061 1_555
P5 Si7 2.276948 1_655
P5 Si7 2.276948 1_555
P5 Si3 2.292389 1_555
P6 Si4 2.273850 1_656
P6 Si4 2.273850 1_556
P6 Si0 2.298654 1_556
P7 Si5 2.280453 1_654
P7 Si5 2.280453 1_554
P7 Si1 2.300661 1_554
P8 Si0 2.268108 1_555
P8 Si0 2.268108 1_455
P8 Si8 2.319273 1_555
P9 Si1 2.270938 1_455
P9 Si1 2.270938 1_555
P9 Si9 2.316243 1_555
P10 Si2 2.270244 1_455
P10 Si2 2.270244 1_555
P10 Si10 2.322485 1_555
P11 Si3 2.269669 1_555
P11 Si3 2.269669 1_455
P11 Si11 2.315902 1_555
