# generated using pymatgen
data_Zr6In5GaPt6
_symmetry_space_group_name_H-M   'P 1'
_cell_length_a   7.42252970
_cell_length_b   7.40372880
_cell_length_c   7.25633374
_cell_angle_alpha   89.99999522
_cell_angle_beta   89.97845231
_cell_angle_gamma   119.91624851
_symmetry_Int_Tables_number   1
_chemical_formula_structural   Zr6In5GaPt6
_chemical_formula_sum   'Zr6 In5 Ga1 Pt6'
_cell_volume   345.63378240
_cell_formula_units_Z   1
loop_
 _symmetry_equiv_pos_site_id
 _symmetry_equiv_pos_as_xyz
  1  'x, y, z'
loop_
 _atom_site_type_symbol
 _atom_site_label
 _atom_site_symmetry_multiplicity
 _atom_site_fract_x
 _atom_site_fract_y
 _atom_site_fract_z
 _atom_site_occupancy
  Zr  Zr0  1  0.38512717  0.40853695  0.74686006  1
  Zr  Zr1  1  0.02099342  0.60643470  0.74657318  1
  Zr  Zr2  1  0.59421422  0.98274907  0.75190153  1
  Zr  Zr3  1  0.61487283  0.02340978  0.25313994  1
  Zr  Zr4  1  0.97900658  0.58544228  0.25342682  1
  Zr  Zr5  1  0.40578578  0.38853485  0.24809847  1
  In  In0  1  0.25908903  0.99667806  0.00051515  1
  In  In1  1  0.74091097  0.73758903  0.99948485  1
  In  In2  1  1.00000000  0.26700024  0.00000000  1
  In  In3  1  0.72475475  0.72324509  0.49989248  1
  In  In4  1  0.27524525  0.99849034  0.50010752  1
  Ga  Ga0  1  1.00000000  0.27539908  0.50000000  1
  Pt  Pt0  1  0.66395411  0.33116018  0.96327308  1
  Pt  Pt1  1  0.00046628  0.01239191  0.73376550  1
  Pt  Pt2  1  0.67501938  0.32941157  0.53618673  1
  Pt  Pt3  1  0.32498062  0.65439419  0.46381327  1
  Pt  Pt4  1  0.33604589  0.66720707  0.03672692  1
  Pt  Pt5  1  0.99953372  0.01192563  0.26623450  1
loop_
_geom_bond_atom_site_label_1
_geom_bond_atom_site_label_2
_geom_bond_distance
_geom_bond_site_symmetry_2
In0 Pt5 2.766995 1_465
In0 Pt1 2.769610 1_564
In0 Pt4 2.781284 1_555
In0 Pt0 2.795127 1_564
In0 Zr5 3.111372 1_565
In0 Zr2 3.115313 1_554
In0 Zr1 3.126632 1_554
In0 Zr3 3.139387 1_565
In0 Zr4 3.262437 1_455
In0 Zr0 3.273295 1_564
In0 In2 3.397500 1_465
In1 Pt1 2.766995 1_665
In1 Pt5 2.769610 1_566
In1 Pt0 2.781291 1_555
In1 Pt4 2.795129 1_556
In1 Zr2 3.111372 1_555
In1 Zr5 3.115313 1_556
In1 Zr4 3.126628 1_556
In1 Zr0 3.139387 1_555
In1 Zr1 3.262442 1_655
In1 Zr3 3.273295 1_566
In1 In2 3.397500 1_566
In2 Pt5 2.700392 1_555
In2 Pt1 2.700392 1_654
In2 Pt0 2.774997 1_554
In2 Pt4 2.775002 1_655
In2 Zr1 3.054631 1_654
In2 Zr4 3.054637 1_555
In2 Zr3 3.106761 1_555
In2 Zr0 3.106761 1_654
In2 Zr5 3.228518 1_655
In2 Zr2 3.228518 1_544
In3 Pt5 2.692932 1_565
In3 Pt1 2.698822 1_665
In3 Pt3 2.761390 1_555
In3 Pt2 2.762966 1_555
In3 Zr0 3.022116 1_555
In3 Zr5 3.039027 1_555
In3 Zr4 3.117518 1_555
In3 Zr2 3.135253 1_555
In3 Zr3 3.258681 1_565
In3 Zr1 3.269051 1_655
In4 Pt1 2.692932 1_565
In4 Pt5 2.698822 1_465
In4 Pt2 2.761385 1_565
In4 Pt3 2.762951 1_555
In4 Zr3 3.022116 1_565
In4 Zr2 3.039027 1_555
In4 Zr1 3.117523 1_555
In4 Zr5 3.135252 1_565
In4 Zr0 3.258681 1_565
In4 Zr4 3.269047 1_455
Ga0 Pt1 2.583762 1_655
Ga0 Pt5 2.583762 1_555
Ga0 Pt2 2.647483 1_555
Ga0 Pt3 2.647492 1_655
Ga0 Zr1 2.975189 1_655
Ga0 Zr4 2.975195 1_555
Ga0 Zr0 3.089545 1_655
Ga0 Zr3 3.089545 1_555
Ga0 Zr2 3.254844 1_545
Ga0 Zr5 3.254844 1_655
Pt0 Zr2 2.818363 1_545
Pt0 Zr1 2.873830 1_655
Pt0 Zr0 2.874465 1_555
Pt0 Zr3 2.986621 1_556
Pt0 Zr5 2.988826 1_556
Pt0 Zr4 3.009668 1_556
Pt0 Pt2 3.100336 1_555
Pt1 Zr0 2.900091 1_555
Pt1 Zr2 2.915102 1_445
Pt1 Zr1 3.085816 1_545
Pt2 Zr2 2.803767 1_545
Pt2 Zr1 2.807343 1_655
Pt2 Zr3 2.922720 1_555
Pt2 Zr0 2.926600 1_555
Pt2 Zr4 2.936749 1_555
Pt2 Zr5 3.070981 1_555
Pt3 Zr5 2.803779 1_555
Pt3 Zr4 2.807341 1_455
Pt3 Zr0 2.922731 1_555
Pt3 Zr3 2.926591 1_565
Pt3 Zr1 2.936743 1_555
Pt3 Zr2 3.070974 1_555
Pt3 Pt4 3.100336 1_555
Pt4 Zr5 2.818369 1_555
Pt4 Zr4 2.873830 1_455
Pt4 Zr3 2.874461 1_565
Pt4 Zr0 2.986626 1_554
Pt4 Zr2 2.988822 1_554
Pt4 Zr1 3.009665 1_554
Pt5 Zr3 2.900091 1_555
Pt5 Zr5 2.915102 1_655
Pt5 Zr4 3.085808 1_545
