# generated using pymatgen
data_Mn4Cu3(Pd2Au)3
_symmetry_space_group_name_H-M   'P 1'
_cell_length_a   6.74476656
_cell_length_b   6.74968024
_cell_length_c   6.74967943
_cell_angle_alpha   106.83883330
_cell_angle_beta   109.03594142
_cell_angle_gamma   112.62361355
_symmetry_Int_Tables_number   1
_chemical_formula_structural   Mn4Cu3(Pd2Au)3
_chemical_formula_sum   'Mn4 Cu3 Pd6 Au3'
_cell_volume   235.83324401
_cell_formula_units_Z   1
loop_
 _symmetry_equiv_pos_site_id
 _symmetry_equiv_pos_as_xyz
  1  'x, y, z'
loop_
 _atom_site_type_symbol
 _atom_site_label
 _atom_site_symmetry_multiplicity
 _atom_site_fract_x
 _atom_site_fract_y
 _atom_site_fract_z
 _atom_site_occupancy
  Mn  Mn0  1  0.23919681  0.23660834  0.48343630  1
  Mn  Mn1  1  0.76115369  0.75577833  0.50931247  1
  Mn  Mn2  1  0.23919681  0.75576151  0.00258748  1
  Mn  Mn3  1  0.76115369  0.25183921  0.00537636  1
  Cu  Cu0  1  0.49730996  0.99839843  0.49891153  1
  Cu  Cu1  1  0.00099281  0.50176909  0.49922372  1
  Cu  Cu2  1  0.50286914  0.50149045  0.00137869  1
  Pd  Pd0  1  0.26152166  0.00829457  0.74818800  1
  Pd  Pd1  1  0.99307506  0.74058533  0.25248974  1
  Pd  Pd2  1  0.73805043  0.98968252  0.25046056  1
  Pd  Pd3  1  0.26152166  0.51333366  0.25322709  1
  Pd  Pd4  1  0.73805043  0.48758887  0.74836691  1
  Pd  Pd5  1  0.99878921  0.99901786  0.99977135  1
  Au  Au0  1  0.51212210  0.25975848  0.25236162  1
  Au  Au1  1  0.48794944  0.74042517  0.74752627  1
  Au  Au2  1  0.00704810  0.25966819  0.74738091  1
loop_
_geom_bond_atom_site_label_1
_geom_bond_atom_site_label_2
_geom_bond_distance
_geom_bond_site_symmetry_2
Mn0 Pd0 2.681284 1_555
Mn0 Pd4 2.706152 1_555
Mn0 Pd2 2.712176 1_445
Mn0 Pd5 2.715091 1_444
Mn0 Pd1 2.721611 1_445
Mn0 Pd3 2.746544 1_555
Mn1 Pd2 2.679402 1_555
Mn1 Pd1 2.692877 1_555
Mn1 Pd0 2.706887 1_665
Mn1 Pd3 2.709376 1_555
Mn1 Pd4 2.746599 1_555
Mn1 Pd5 2.754792 1_555
Mn2 Pd3 2.681295 1_555
Mn2 Pd2 2.706153 1_555
Mn2 Pd4 2.712176 1_454
Mn2 Pd5 2.715086 1_454
Mn2 Pd1 2.721617 1_455
Mn2 Pd0 2.746533 1_564
Mn3 Pd4 2.679418 1_554
Mn3 Pd1 2.692888 1_555
Mn3 Pd3 2.706887 1_655
Mn3 Pd0 2.709377 1_554
Mn3 Pd2 2.746582 1_545
Mn3 Pd5 2.754781 1_544
Cu0 Pd3 2.669581 1_555
Cu0 Pd0 2.669581 1_565
Cu0 Pd4 2.691606 1_565
Cu0 Pd2 2.691612 1_555
Cu0 Pd1 2.727825 1_455
Cu0 Mn0 2.785502 1_565
Cu0 Mn2 2.785507 1_555
Cu0 Mn1 2.842660 1_555
Cu0 Mn3 2.842665 1_566
Cu1 Pd1 2.634036 1_455
Cu1 Mn3 2.774679 1_455
Cu1 Mn1 2.774685 1_455
Cu1 Pd0 2.779138 1_565
Cu1 Pd3 2.779138 1_555
Cu1 Pd4 2.808990 1_455
Cu1 Pd2 2.808996 1_445
Cu1 Mn2 2.830057 1_556
Cu1 Mn0 2.830062 1_555
Cu2 Pd1 2.657730 1_555
Cu2 Pd2 2.688883 1_555
Cu2 Pd4 2.688890 1_554
Cu2 Pd0 2.715204 1_554
Cu2 Pd3 2.715204 1_555
Cu2 Mn1 2.851145 1_555
Cu2 Mn3 2.851156 1_555
Cu2 Mn0 2.908236 1_554
Cu2 Mn2 2.908242 1_555
Pd0 Pd1 2.786814 1_445
Pd0 Pd5 2.822569 1_445
Pd1 Pd5 2.769270 1_554
Pd1 Pd3 2.786814 1_655
Pd1 Pd2 2.829961 1_555
Pd1 Pd4 2.829966 1_554
Pd2 Pd5 2.806684 1_554
Pd3 Pd5 2.822569 1_444
Pd4 Pd5 2.806689 1_555
Au0 Cu1 2.648072 1_655
Au0 Cu2 2.673318 1_555
Au0 Mn3 2.728968 1_555
Au0 Mn1 2.728984 1_555
Au0 Cu0 2.750462 1_545
Au0 Mn2 2.763749 1_545
Au0 Mn0 2.763766 1_555
Au0 Pd5 2.777532 1_444
Au0 Pd2 2.789557 1_545
Au0 Pd4 2.789563 1_555
Au0 Pd0 2.830658 1_554
Au0 Pd3 2.830670 1_555
Au1 Cu1 2.639275 1_555
Au1 Cu2 2.675851 1_556
Au1 Cu0 2.743937 1_555
Au1 Pd5 2.764341 1_555
Au1 Mn2 2.775618 1_556
Au1 Mn0 2.775635 1_555
Au1 Pd0 2.779475 1_565
Au1 Pd3 2.779486 1_555
Au1 Mn3 2.806015 1_566
Au1 Mn1 2.806037 1_555
Au1 Pd2 2.823469 1_556
Au1 Pd4 2.823486 1_555
Au2 Cu1 2.658949 1_555
Au2 Cu2 2.688181 1_556
Au2 Mn2 2.737940 1_556
Au2 Mn0 2.737941 1_555
Au2 Cu0 2.757446 1_445
Au2 Mn3 2.766893 1_456
Au2 Mn1 2.766893 1_445
Au2 Pd5 2.779074 1_445
Au2 Pd4 2.794242 1_455
Au2 Pd2 2.794253 1_445
Au2 Pd3 2.839785 1_556
Au2 Pd0 2.839792 1_555
