# generated using pymatgen
data_HfMn(NbS2)6
_symmetry_space_group_name_H-M   'P 1'
_cell_length_a   5.82814194
_cell_length_b   5.82814108
_cell_length_c   12.74934107
_cell_angle_alpha   90.00000000
_cell_angle_beta   90.00000000
_cell_angle_gamma   120.00000488
_symmetry_Int_Tables_number   1
_chemical_formula_structural   HfMn(NbS2)6
_chemical_formula_sum   'Hf1 Mn1 Nb6 S12'
_cell_volume   375.04080873
_cell_formula_units_Z   1
loop_
 _symmetry_equiv_pos_site_id
 _symmetry_equiv_pos_as_xyz
  1  'x, y, z'
loop_
 _atom_site_type_symbol
 _atom_site_label
 _atom_site_symmetry_multiplicity
 _atom_site_fract_x
 _atom_site_fract_y
 _atom_site_fract_z
 _atom_site_occupancy
  Hf  Hf0  1  0.66666700  0.33333300  0.75000000  1
  Mn  Mn0  1  0.33333300  0.66666700  0.25000000  1
  Nb  Nb0  1  0.33333300  0.66666700  0.50134993  1
  Nb  Nb1  1  0.66666700  0.33333300  0.00142431  1
  Nb  Nb2  1  0.66666700  0.33333300  0.49857569  1
  Nb  Nb3  1  0.33333300  0.66666700  0.99865007  1
  Nb  Nb4  1  0.00000000  0.00000000  0.49994354  1
  Nb  Nb5  1  0.00000000  0.00000000  0.00005646  1
  S  S0  1  0.33135375  0.33103219  0.12354382  1
  S  S1  1  0.66896781  0.00032156  0.12354382  1
  S  S2  1  0.99967844  0.66864625  0.12354382  1
  S  S3  1  0.00118224  0.33255834  0.62488727  1
  S  S4  1  0.66744166  0.99881776  0.87511273  1
  S  S5  1  0.66744166  0.66862390  0.62488727  1
  S  S6  1  0.33137610  0.99881776  0.62488727  1
  S  S7  1  0.66896781  0.66864625  0.37645618  1
  S  S8  1  0.33135375  0.00032156  0.37645618  1
  S  S9  1  0.33137610  0.33255834  0.87511273  1
  S  S10  1  0.00118224  0.66862390  0.87511273  1
  S  S11  1  0.99967844  0.33103219  0.37645618  1
loop_
_geom_bond_atom_site_label_1
_geom_bond_atom_site_label_2
_geom_bond_distance
_geom_bond_site_symmetry_2
Hf0 S4 2.520740 1_545
Hf0 S3 2.520740 1_655
Hf0 S10 2.520742 1_655
Hf0 S6 2.520742 1_545
Hf0 S5 2.520745 1_555
Hf0 S9 2.520745 1_555
Mn0 S8 2.530469 1_565
Mn0 S2 2.530469 1_455
Mn0 S11 2.530471 1_455
Mn0 S1 2.530471 1_565
Mn0 S0 2.530474 1_555
Mn0 S7 2.530474 1_555
Nb0 S6 2.500060 1_555
Nb0 S3 2.500062 1_555
Nb0 S5 2.500065 1_555
Nb0 S8 2.517824 1_565
Nb0 S11 2.517827 1_455
Nb0 S7 2.517829 1_555
Nb1 S1 2.493417 1_555
Nb1 S2 2.493419 1_555
Nb1 S0 2.493422 1_555
Nb1 S4 2.530440 1_544
Nb1 S10 2.530442 1_654
Nb1 S9 2.530444 1_554
Nb2 S11 2.493417 1_555
Nb2 S8 2.493419 1_555
Nb2 S7 2.493422 1_555
Nb2 S3 2.530440 1_655
Nb2 S6 2.530442 1_545
Nb2 S5 2.530444 1_555
Nb3 S10 2.500060 1_555
Nb3 S4 2.500062 1_555
Nb3 S9 2.500065 1_555
Nb3 S2 2.517825 1_456
Nb3 S1 2.517827 1_566
Nb3 S0 2.517829 1_556
Nb4 S7 2.490885 1_445
Nb4 S11 2.490885 1_455
Nb4 S8 2.490885 1_555
Nb4 S3 2.506150 1_555
Nb4 S5 2.506150 1_445
Nb4 S6 2.506151 1_545
Nb5 S2 2.490885 1_445
Nb5 S0 2.490885 1_555
Nb5 S1 2.490885 1_455
Nb5 S9 2.506150 1_554
Nb5 S10 2.506150 1_544
Nb5 S4 2.506151 1_444
