# generated using pymatgen
data_Cs4Ba2HfAs4
_symmetry_space_group_name_H-M   'P 1'
_cell_length_a   11.16488476
_cell_length_b   11.16488601
_cell_length_c   8.21477710
_cell_angle_alpha   87.44092947
_cell_angle_beta   87.44092629
_cell_angle_gamma   119.41707476
_symmetry_Int_Tables_number   1
_chemical_formula_structural   Cs4Ba2HfAs4
_chemical_formula_sum   'Cs8 Ba4 Hf2 As8'
_cell_volume   888.48049935
_cell_formula_units_Z   2
loop_
 _symmetry_equiv_pos_site_id
 _symmetry_equiv_pos_as_xyz
  1  'x, y, z'
loop_
 _atom_site_type_symbol
 _atom_site_label
 _atom_site_symmetry_multiplicity
 _atom_site_fract_x
 _atom_site_fract_y
 _atom_site_fract_z
 _atom_site_occupancy
  Cs  Cs0  1  0.47543771  0.94341456  0.38977488  1
  Cs  Cs1  1  0.94341456  0.47543771  0.88977488  1
  Cs  Cs2  1  0.86812579  0.72180663  0.15083543  1
  Cs  Cs3  1  0.25585157  0.12065606  0.24694457  1
  Cs  Cs4  1  0.85555710  0.14377800  0.18668122  1
  Cs  Cs5  1  0.12065606  0.25585157  0.74694457  1
  Cs  Cs6  1  0.72180663  0.86812579  0.65083543  1
  Cs  Cs7  1  0.14377800  0.85555710  0.68668122  1
  Ba  Ba0  1  0.07416100  0.53406817  0.40162906  1
  Ba  Ba1  1  0.47612683  0.53089020  0.37788997  1
  Ba  Ba2  1  0.53406817  0.07416100  0.90162906  1
  Ba  Ba3  1  0.53089020  0.47612683  0.87788997  1
  Hf  Hf0  1  0.66402155  0.33766619  0.49079500  1
  Hf  Hf1  1  0.33766619  0.66402155  0.99079500  1
  As  As0  1  0.63341572  0.32939204  0.17495900  1
  As  As1  1  0.32939204  0.63341572  0.67495900  1
  As  As2  1  0.21827243  0.41672479  0.13805225  1
  As  As3  1  0.59190154  0.79038973  0.06807945  1
  As  As4  1  0.21923958  0.79891181  0.09202717  1
  As  As5  1  0.79038973  0.59190154  0.56807945  1
  As  As6  1  0.41672479  0.21827243  0.63805225  1
  As  As7  1  0.79891181  0.21923958  0.59202717  1
loop_
_geom_bond_atom_site_label_1
_geom_bond_atom_site_label_2
_geom_bond_distance
_geom_bond_site_symmetry_2
As0 Hf0 2.631807 1_555
As0 Ba3 3.418216 1_554
As0 Ba2 3.475786 1_554
As0 Cs1 3.676590 1_554
As0 Cs3 3.681692 1_555
As0 Cs2 3.834016 1_555
As0 Ba1 3.857264 1_555
As0 Cs4 3.937989 1_555
As0 Cs0 4.046270 1_545
As1 Hf1 2.631807 1_555
As1 Ba1 3.418216 1_555
As1 Ba0 3.475786 1_555
As1 Cs0 3.676590 1_555
As1 Cs5 3.681692 1_555
As1 Cs6 3.834016 1_555
As1 Ba3 3.857264 1_555
As1 Cs7 3.937989 1_555
As1 Cs1 4.046270 1_455
As2 Hf1 2.608811 1_554
As2 Ba1 3.304639 1_555
As2 Ba0 3.317590 1_555
As2 Cs3 3.610387 1_555
As2 Cs4 3.670162 1_455
As2 Cs5 3.693433 1_554
As2 Ba3 3.758087 1_554
As2 Cs1 4.052446 1_454
As3 Hf1 2.599553 1_554
As3 Ba1 3.451252 1_555
As3 Cs6 3.557941 1_554
As3 Cs2 3.608340 1_555
As3 Ba3 3.667800 1_554
As3 Cs0 3.724521 1_555
As3 Ba2 3.745149 1_564
As3 Cs4 3.791044 1_565
As4 Hf1 2.584130 1_554
As4 Ba0 3.477249 1_555
As4 Ba2 3.565735 1_564
As4 Cs7 3.575396 1_554
As4 Cs2 3.580596 1_455
As4 Cs0 3.634742 1_555
As4 Cs3 3.701763 1_565
As4 Cs1 3.918511 1_454
As5 Hf0 2.599553 1_555
As5 Ba3 3.451252 1_555
As5 Cs2 3.557941 1_555
As5 Cs6 3.608340 1_555
As5 Ba1 3.667800 1_555
As5 Cs1 3.724521 1_555
As5 Ba0 3.745148 1_655
As5 Cs7 3.791044 1_655
As6 Hf0 2.608811 1_555
As6 Ba3 3.304639 1_555
As6 Ba2 3.317590 1_555
As6 Cs5 3.610386 1_555
As6 Cs7 3.670162 1_545
As6 Cs3 3.693433 1_555
As6 Ba1 3.758088 1_555
As6 Cs0 4.052447 1_545
As7 Hf0 2.584130 1_555
As7 Ba2 3.477249 1_555
As7 Ba0 3.565736 1_655
As7 Cs4 3.575396 1_555
As7 Cs6 3.580597 1_545
As7 Cs1 3.634742 1_555
As7 Cs5 3.701763 1_655
As7 Cs0 3.918511 1_545
