# generated using pymatgen
data_Ag2SO3
_symmetry_space_group_name_H-M   'P 1'
_cell_length_a   8.11016000
_cell_length_b   4.71789700
_cell_length_c   10.50308865
_cell_angle_alpha   68.25794991
_cell_angle_beta   90.00000000
_cell_angle_gamma   90.00000000
_symmetry_Int_Tables_number   1
_chemical_formula_structural   Ag2SO3
_chemical_formula_sum   'Ag8 S4 O12'
_cell_volume   373.28936593
_cell_formula_units_Z   4
loop_
 _symmetry_equiv_pos_site_id
 _symmetry_equiv_pos_as_xyz
  1  'x, y, z'
loop_
 _atom_site_type_symbol
 _atom_site_label
 _atom_site_symmetry_multiplicity
 _atom_site_fract_x
 _atom_site_fract_y
 _atom_site_fract_z
 _atom_site_occupancy
  Ag  Ag0  1  0.11277400  0.12765200  0.56563000  1
  Ag  Ag1  1  0.38722600  0.12765200  0.06563000  1
  Ag  Ag2  1  0.88722600  0.87234800  0.43437000  1
  Ag  Ag3  1  0.61277400  0.87234800  0.93437000  1
  Ag  Ag4  1  0.02138700  0.43246700  0.20143800  1
  Ag  Ag5  1  0.52138700  0.56753300  0.29856200  1
  Ag  Ag6  1  0.97861300  0.56753300  0.79856200  1
  Ag  Ag7  1  0.47861300  0.43246700  0.70143800  1
  S  S0  1  0.21198300  0.80663300  0.87933900  1
  S  S1  1  0.78801700  0.19336700  0.12066100  1
  S  S2  1  0.71198300  0.19336700  0.62066100  1
  S  S3  1  0.28801700  0.80663300  0.37933900  1
  O  O0  1  0.12060900  0.65748400  0.37309200  1
  O  O1  1  0.62060900  0.34251600  0.12690800  1
  O  O2  1  0.87939100  0.34251600  0.62690800  1
  O  O3  1  0.37939100  0.65748400  0.87309200  1
  O  O4  1  0.19659700  0.80612200  0.02460900  1
  O  O5  1  0.69659700  0.19387800  0.47539100  1
  O  O6  1  0.80340300  0.19387800  0.97539100  1
  O  O7  1  0.22423600  0.13980600  0.78317100  1
  O  O8  1  0.27576400  0.13980600  0.28317100  1
  O  O9  1  0.77576400  0.86019400  0.21682900  1
  O  O10  1  0.72423600  0.86019400  0.71682900  1
  O  O11  1  0.30340300  0.80612200  0.52460900  1
loop_
_geom_bond_atom_site_label_1
_geom_bond_atom_site_label_2
_geom_bond_distance
_geom_bond_site_symmetry_2
Ag0 O11 2.315420 1_545
Ag0 O2 2.346866 1_455
Ag0 O7 2.477514 1_555
Ag0 O0 2.568452 1_555
Ag1 O4 2.315420 1_545
Ag1 O1 2.346866 1_555
Ag1 O8 2.477514 1_555
Ag1 O3 2.568452 1_554
Ag2 O5 2.315420 1_565
Ag2 O0 2.346866 1_655
Ag2 O9 2.477514 1_555
Ag2 O2 2.568452 1_555
Ag3 O6 2.315420 1_565
Ag3 O3 2.346866 1_555
Ag3 O10 2.477514 1_555
Ag3 O1 2.568452 1_556
Ag4 O8 2.453850 1_555
Ag4 O4 2.480047 1_555
Ag4 S1 2.506695 1_455
Ag4 O0 2.538302 1_555
Ag5 O9 2.453850 1_555
Ag5 O5 2.480047 1_555
Ag5 S3 2.506695 1_555
Ag5 O1 2.538302 1_555
Ag6 O10 2.453850 1_555
Ag6 O6 2.480047 1_555
Ag6 S0 2.506695 1_655
Ag6 O2 2.538302 1_555
Ag7 O7 2.453850 1_555
Ag7 O11 2.480047 1_555
Ag7 S2 2.506695 1_555
Ag7 O3 2.538302 1_555
O0 S3 1.541761 1_555
O1 S1 1.541761 1_555
O2 S2 1.541761 1_555
O3 S0 1.541761 1_555
O4 S0 1.529989 1_554
O5 S2 1.529989 1_555
O6 S1 1.529989 1_556
O7 S0 1.524677 1_545
O8 S3 1.524677 1_545
O9 S1 1.524677 1_565
O10 S2 1.524677 1_565
O11 S3 1.529989 1_555
