# generated using pymatgen
data_SrAl2O4
_symmetry_space_group_name_H-M   'P 1'
_cell_length_a   5.19050372
_cell_length_b   5.19050372
_cell_length_c   25.38105400
_cell_angle_alpha   90.00000000
_cell_angle_beta   90.00000000
_cell_angle_gamma   119.99999644
_symmetry_Int_Tables_number   1
_chemical_formula_structural   SrAl2O4
_chemical_formula_sum   'Sr6 Al12 O24'
_cell_volume   592.18760606
_cell_formula_units_Z   6
loop_
 _symmetry_equiv_pos_site_id
 _symmetry_equiv_pos_as_xyz
  1  'x, y, z'
loop_
 _atom_site_type_symbol
 _atom_site_label
 _atom_site_symmetry_multiplicity
 _atom_site_fract_x
 _atom_site_fract_y
 _atom_site_fract_z
 _atom_site_occupancy
  Sr  Sr0  1  0.99770600  0.99541200  0.25000000  1
  Sr  Sr1  1  0.00229400  0.00458800  0.75000000  1
  Sr  Sr2  1  0.00458800  0.00229400  0.58333300  1
  Sr  Sr3  1  0.99770600  0.00229400  0.91666700  1
  Sr  Sr4  1  0.99541200  0.99770600  0.08333300  1
  Sr  Sr5  1  0.00229400  0.99770600  0.41666700  1
  Al  Al0  1  0.34983500  0.64214400  0.85130200  1
  Al  Al1  1  0.34983500  0.70769100  0.31536400  1
  Al  Al2  1  0.35785600  0.70769100  0.18463600  1
  Al  Al3  1  0.29230900  0.64214400  0.64869800  1
  Al  Al4  1  0.29230900  0.65016500  0.51796900  1
  Al  Al5  1  0.35785600  0.65016500  0.98203100  1
  Al  Al6  1  0.70769100  0.35785600  0.14869800  1
  Al  Al7  1  0.64214400  0.34983500  0.48203100  1
  Al  Al8  1  0.65016500  0.29230900  0.81536400  1
  Al  Al9  1  0.64214400  0.29230900  0.68463600  1
  Al  Al10  1  0.70769100  0.34983500  0.01796900  1
  Al  Al11  1  0.65016500  0.35785600  0.35130200  1
  O  O0  1  0.84508500  0.42254300  0.08333300  1
  O  O1  1  0.57745700  0.15491500  0.75000000  1
  O  O2  1  0.57745700  0.42254300  0.41666700  1
  O  O3  1  0.63731200  0.00840800  0.35115300  1
  O  O4  1  0.62890300  0.99159200  0.64884700  1
  O  O5  1  0.37109700  0.36268800  0.01782000  1
  O  O6  1  0.36268800  0.37109700  0.31551400  1
  O  O7  1  0.34042800  0.34042800  0.66666700  1
  O  O8  1  0.63731200  0.62890300  0.81551400  1
  O  O9  1  0.65957200  0.65957200  0.16666700  1
  O  O10  1  0.62890300  0.63731200  0.51782000  1
  O  O11  1  0.36268800  0.99159200  0.85115300  1
  O  O12  1  0.37109700  0.00840800  0.14884700  1
  O  O13  1  0.34042800  0.00000000  0.50000000  1
  O  O14  1  0.42254300  0.57745700  0.91666700  1
  O  O15  1  0.42254300  0.84508500  0.25000000  1
  O  O16  1  0.15491500  0.57745700  0.58333300  1
  O  O17  1  0.65957200  0.00000000  0.00000000  1
  O  O18  1  0.00840800  0.63731200  0.98218000  1
  O  O19  1  0.00000000  0.65957200  0.33333300  1
  O  O20  1  0.99159200  0.62890300  0.68448600  1
  O  O21  1  0.00000000  0.34042800  0.83333300  1
  O  O22  1  0.00840800  0.37109700  0.18448600  1
  O  O23  1  0.99159200  0.36268800  0.48218000  1
loop_
_geom_bond_atom_site_label_1
_geom_bond_atom_site_label_2
_geom_bond_distance
_geom_bond_site_symmetry_2
Al0 O21 1.764671 1_555
Al0 O14 1.770384 1_555
Al0 O8 1.777319 1_555
Al0 O11 1.781396 1_555
Al1 O19 1.764671 1_555
Al1 O15 1.770359 1_555
Al1 O3 1.777330 1_565
Al1 O6 1.781390 1_555
Al2 O9 1.764671 1_555
Al2 O15 1.770358 1_555
Al2 O12 1.777328 1_565
Al2 O22 1.781393 1_555
Al3 O7 1.764671 1_555
Al3 O16 1.770382 1_555
Al3 O20 1.777315 1_455
Al3 O4 1.781393 1_555
Al4 O13 1.764671 1_565
Al4 O16 1.770359 1_555
Al4 O23 1.777330 1_455
Al4 O10 1.781390 1_555
Al5 O17 1.764671 1_566
Al5 O14 1.770360 1_555
Al5 O5 1.777332 1_556
Al5 O18 1.781396 1_555
Al6 O9 1.764671 1_555
Al6 O0 1.770382 1_555
Al6 O22 1.777315 1_655
Al6 O12 1.781393 1_555
Al7 O13 1.764671 1_555
Al7 O2 1.770360 1_555
Al7 O10 1.777332 1_555
Al7 O23 1.781396 1_555
Al8 O21 1.764671 1_655
Al8 O1 1.770359 1_555
Al8 O11 1.777330 1_545
Al8 O8 1.781390 1_555
Al9 O7 1.764671 1_555
Al9 O1 1.770358 1_555
Al9 O4 1.777328 1_545
Al9 O20 1.781393 1_555
Al10 O17 1.764671 1_555
Al10 O0 1.770359 1_555
Al10 O18 1.777330 1_654
Al10 O5 1.781390 1_555
Al11 O19 1.764671 1_655
Al11 O2 1.770384 1_555
Al11 O6 1.777319 1_555
Al11 O3 1.781396 1_555
O0 Sr4 2.681779 1_555
O0 Sr4 2.681784 1_545
O1 Sr1 2.681779 1_555
O1 Sr1 2.681784 1_655
O2 Sr5 2.681780 1_655
O2 Sr5 2.681780 1_545
O3 Sr5 2.542081 1_645
O4 Sr2 2.542085 1_665
O5 Sr4 2.542066 1_445
O6 Sr0 2.542083 1_445
O7 Sr1 2.744655 1_555
O7 Sr2 2.744675 1_555
O8 Sr1 2.542083 1_665
O9 Sr0 2.744655 1_555
O9 Sr4 2.744675 1_555
O10 Sr2 2.542066 1_665
O11 Sr3 2.542081 1_465
O12 Sr4 2.542085 1_445
O13 Sr2 2.744655 1_555
O13 Sr5 2.744655 1_545
O14 Sr3 2.681780 1_565
O14 Sr3 2.681780 1_455
O15 Sr0 2.681779 1_555
O15 Sr0 2.681784 1_455
O16 Sr2 2.681779 1_555
O16 Sr2 2.681784 1_565
O17 Sr4 2.744655 1_545
O17 Sr3 2.744655 1_554
O18 Sr3 2.542064 1_465
O19 Sr0 2.744655 1_455
O19 Sr5 2.744675 1_555
O20 Sr1 2.542085 1_665
O21 Sr1 2.744655 1_555
O21 Sr3 2.744675 1_455
O22 Sr0 2.542085 1_445
O23 Sr5 2.542064 1_645
