# generated using pymatgen
data_Sr5ZnOs3O16
_symmetry_space_group_name_H-M   'P 1'
_cell_length_a   5.71814418
_cell_length_b   5.72096971
_cell_length_c   10.08325216
_cell_angle_alpha   93.61161542
_cell_angle_beta   93.53406203
_cell_angle_gamma   90.45872026
_symmetry_Int_Tables_number   1
_chemical_formula_structural   Sr5ZnOs3O16
_chemical_formula_sum   'Sr5 Zn1 Os3 O16'
_cell_volume   328.55221137
_cell_formula_units_Z   1
loop_
 _symmetry_equiv_pos_site_id
 _symmetry_equiv_pos_as_xyz
  1  'x, y, z'
loop_
 _atom_site_type_symbol
 _atom_site_label
 _atom_site_symmetry_multiplicity
 _atom_site_fract_x
 _atom_site_fract_y
 _atom_site_fract_z
 _atom_site_occupancy
  Sr  Sr0  1  0.51383447  0.02928667  0.19154907  1
  Sr  Sr1  1  0.03057078  0.51247641  0.19196694  1
  Sr  Sr2  1  0.00001173  0.00002085  0.49995489  1
  Sr  Sr3  1  0.96942477  0.48748822  0.80805744  1
  Sr  Sr4  1  0.48613782  0.97073122  0.80847102  1
  Zn  Zn0  1  0.50001512  0.50000180  0.00000343  1
  Os  Os0  1  0.99999351  0.99998840  0.00002807  1
  Os  Os1  1  0.56238444  0.56216557  0.38563306  1
  Os  Os2  1  0.43761650  0.43785745  0.61432473  1
  O  O0  1  0.75638406  0.23278334  0.00015288  1
  O  O1  1  0.77218249  0.76184886  0.03061122  1
  O  O2  1  0.05899511  0.05992529  0.18018714  1
  O  O3  1  0.46632219  0.46564107  0.19550938  1
  O  O4  1  0.77117167  0.77100006  0.32203632  1
  O  O5  1  0.30931281  0.75456773  0.37186219  1
  O  O6  1  0.75529963  0.30952973  0.37193821  1
  O  O7  1  0.31739459  0.31698080  0.43862011  1
  O  O8  1  0.68262268  0.68304341  0.56132570  1
  O  O9  1  0.24469622  0.69050700  0.62802989  1
  O  O10  1  0.69074188  0.24542551  0.62809497  1
  O  O11  1  0.22881220  0.22898675  0.67793648  1
  O  O12  1  0.53368597  0.53434561  0.80451583  1
  O  O13  1  0.94099247  0.94006647  0.81988201  1
  O  O14  1  0.22779242  0.23811588  0.96942594  1
  O  O15  1  0.24360547  0.76720591  0.99989308  1
loop_
_geom_bond_atom_site_label_1
_geom_bond_atom_site_label_2
_geom_bond_distance
_geom_bond_site_symmetry_2
O0 Os0 1.934908 1_545
O0 Zn0 2.126499 1_555
O0 Sr0 2.755111 1_555
O0 Sr4 2.756956 1_544
O0 Sr1 2.820524 1_655
O0 Sr3 2.824383 1_554
O1 Os0 1.929288 1_555
O1 Zn0 2.146291 1_555
O1 Sr1 2.625884 1_655
O1 Sr0 2.678727 1_565
O1 Sr3 2.944179 1_554
O1 Sr4 3.006221 1_554
O2 Os0 1.837257 1_445
O2 Sr1 2.591136 1_555
O2 Sr0 2.604092 1_555
O2 Sr1 3.144942 1_545
O3 Os1 2.003436 1_555
O3 Zn0 2.014191 1_555
O3 Sr1 2.506493 1_555
O3 Sr0 2.511356 1_555
O3 Sr1 3.238001 1_655
O4 Os1 1.852570 1_555
O4 Sr2 2.456499 1_665
O4 Sr0 2.474058 1_565
O4 Sr1 2.477549 1_655
O5 Os1 1.828925 1_555
O5 Sr2 2.619352 1_565
O5 Sr1 2.653438 1_555
O5 Sr0 2.781395 1_565
O6 Os1 1.828676 1_555
O6 Sr2 2.620031 1_655
O6 Sr0 2.659481 1_555
O6 Sr1 2.776166 1_655
O7 Os2 1.943582 1_555
O7 Os1 2.090627 1_555
O7 Sr2 2.681645 1_555
O7 Sr1 3.162789 1_555
O8 Os1 1.943507 1_555
O8 Os2 2.090736 1_555
O8 Sr2 2.681853 1_665
O8 Sr3 3.163484 1_555
O9 Os2 1.828762 1_555
O9 Sr2 2.620267 1_565
O9 Sr4 2.659680 1_555
O9 Sr3 2.776760 1_455
O10 Os2 1.829273 1_555
O10 Sr2 2.619323 1_655
O10 Sr3 2.653589 1_555
O10 Sr4 2.781979 1_545
O11 Os2 1.852836 1_555
O11 Sr2 2.456660 1_555
O11 Sr4 2.474162 1_545
O11 Sr3 2.477710 1_455
O12 Os2 2.004027 1_555
O12 Zn0 2.013972 1_556
O12 Sr3 2.506437 1_555
O12 Sr4 2.511559 1_555
O12 Sr3 3.238082 1_455
O13 Os0 1.837119 1_556
O13 Sr3 2.591288 1_555
O13 Sr4 2.604185 1_555
O13 Sr3 3.144836 1_565
O14 Os0 1.929239 1_446
O14 Zn0 2.146651 1_556
O14 Sr3 2.625901 1_455
O14 Sr4 2.678659 1_545
O14 Sr1 2.944030 1_556
O14 Sr0 3.005950 1_556
O15 Os0 1.934869 1_456
O15 Zn0 2.126601 1_556
O15 Sr4 2.755331 1_555
O15 Sr0 2.756822 1_566
O15 Sr3 2.820714 1_455
O15 Sr1 2.824284 1_556
