# generated using pymatgen
data_Sn3Pb4WO13
_symmetry_space_group_name_H-M   'P 1'
_cell_length_a   7.54937238
_cell_length_b   7.54937243
_cell_length_c   7.54937269
_cell_angle_alpha   59.43560736
_cell_angle_beta   59.43560658
_cell_angle_gamma   59.43560936
_symmetry_Int_Tables_number   1
_chemical_formula_structural   Sn3Pb4WO13
_chemical_formula_sum   'Sn3 Pb4 W1 O13'
_cell_volume   300.33418319
_cell_formula_units_Z   1
loop_
 _symmetry_equiv_pos_site_id
 _symmetry_equiv_pos_as_xyz
  1  'x, y, z'
loop_
 _atom_site_type_symbol
 _atom_site_label
 _atom_site_symmetry_multiplicity
 _atom_site_fract_x
 _atom_site_fract_y
 _atom_site_fract_z
 _atom_site_occupancy
  Sn  Sn0  1  0.99999961  0.49954333  0.49954333  1
  Sn  Sn1  1  0.49954333  0.99999961  0.49954333  1
  Sn  Sn2  1  0.49954333  0.49954333  0.99999961  1
  Pb  Pb0  1  0.50202836  0.99895878  0.99895878  1
  Pb  Pb1  1  0.99895878  0.50202836  0.99895878  1
  Pb  Pb2  1  0.99895878  0.99895878  0.50202836  1
  Pb  Pb3  1  0.99915099  0.99915099  0.99915099  1
  W  W0  1  0.49909147  0.49909147  0.49909147  1
  O  O0  1  0.82981685  0.82981685  0.42646408  1
  O  O1  1  0.43312730  0.43312730  0.80504991  1
  O  O2  1  0.82981685  0.42646408  0.82981685  1
  O  O3  1  0.43312730  0.80504991  0.43312730  1
  O  O4  1  0.42646408  0.82981685  0.82981685  1
  O  O5  1  0.80504991  0.43312730  0.43312730  1
  O  O6  1  0.17309380  0.17309380  0.57040350  1
  O  O7  1  0.56420967  0.56420967  0.19697405  1
  O  O8  1  0.17309380  0.57040350  0.17309380  1
  O  O9  1  0.56420967  0.19697405  0.56420967  1
  O  O10  1  0.57040350  0.17309380  0.17309380  1
  O  O11  1  0.19697405  0.56420967  0.56420967  1
  O  O12  1  0.12834055  0.12834055  0.12834055  1
loop_
_geom_bond_atom_site_label_1
_geom_bond_atom_site_label_2
_geom_bond_distance
_geom_bond_site_symmetry_2
O0 Sn1 2.058113 1_555
O0 Sn0 2.058113 1_555
O0 Pb2 2.593522 1_555
O0 Pb3 2.636094 1_554
O1 W0 1.934866 1_555
O1 Sn2 2.103687 1_555
O1 Pb1 2.705090 1_455
O1 Pb0 2.705090 1_545
O2 Sn2 2.058113 1_555
O2 Sn0 2.058113 1_555
O2 Pb1 2.593522 1_555
O2 Pb3 2.636094 1_545
O3 W0 1.934866 1_555
O3 Sn1 2.103687 1_555
O3 Pb2 2.705090 1_455
O3 Pb0 2.705090 1_554
O4 Sn2 2.058113 1_555
O4 Sn1 2.058113 1_555
O4 Pb0 2.593522 1_555
O4 Pb3 2.636094 1_455
O5 W0 1.934866 1_555
O5 Sn0 2.103687 1_555
O5 Pb2 2.705090 1_545
O5 Pb1 2.705090 1_554
O6 Sn1 2.040183 1_545
O6 Sn0 2.040183 1_455
O6 Pb2 2.619297 1_445
O6 Pb3 2.652128 1_445
O7 W0 1.910635 1_555
O7 Sn2 2.099267 1_554
O7 Pb1 2.717365 1_554
O7 Pb0 2.717365 1_554
O8 Sn2 2.040183 1_554
O8 Sn0 2.040183 1_455
O8 Pb1 2.619297 1_454
O8 Pb3 2.652128 1_454
O9 W0 1.910635 1_555
O9 Sn1 2.099267 1_545
O9 Pb2 2.717365 1_545
O9 Pb0 2.717365 1_545
O10 Sn2 2.040183 1_554
O10 Sn1 2.040183 1_545
O10 Pb0 2.619297 1_544
O10 Pb3 2.652128 1_544
O11 W0 1.910635 1_555
O11 Sn0 2.099267 1_455
O11 Pb2 2.717365 1_455
O11 Pb1 2.717365 1_455
O12 Pb0 2.287403 1_544
O12 Pb1 2.287403 1_454
O12 Pb2 2.287403 1_445
O12 Pb3 2.399127 1_444
