# generated using pymatgen
data_Rb4HfSnAs4
_symmetry_space_group_name_H-M   'P 1'
_cell_length_a   8.68176330
_cell_length_b   8.68176402
_cell_length_c   8.68176329
_cell_angle_alpha   135.40495255
_cell_angle_beta   126.93183566
_cell_angle_gamma   71.76282675
_symmetry_Int_Tables_number   1
_chemical_formula_structural   Rb4HfSnAs4
_chemical_formula_sum   'Rb4 Hf1 Sn1 As4'
_cell_volume   359.46298791
_cell_formula_units_Z   1
loop_
 _symmetry_equiv_pos_site_id
 _symmetry_equiv_pos_as_xyz
  1  'x, y, z'
loop_
 _atom_site_type_symbol
 _atom_site_label
 _atom_site_symmetry_multiplicity
 _atom_site_fract_x
 _atom_site_fract_y
 _atom_site_fract_z
 _atom_site_occupancy
  Rb  Rb0  1  0.00239924  0.84411801  0.14259618  1
  Rb  Rb1  1  0.29847818  0.65588199  0.65828223  1
  Rb  Rb2  1  0.99760076  0.14019695  0.84171777  1
  Rb  Rb3  1  0.70152182  0.35980305  0.35740382  1
  Hf  Hf0  1  0.50000000  0.25000000  0.75000000  1
  Sn  Sn0  1  0.50000000  0.75000000  0.25000000  1
  As  As0  1  0.21132372  0.39352396  0.80896711  1
  As  As1  1  0.41544415  0.10647604  0.31779976  1
  As  As2  1  0.78867628  0.59764339  0.18220024  1
  As  As3  1  0.58455585  0.90235661  0.69103289  1
loop_
_geom_bond_atom_site_label_1
_geom_bond_atom_site_label_2
_geom_bond_distance
_geom_bond_site_symmetry_2
As0 Hf0 2.602809 1_555
As0 Sn0 2.639373 1_556
As0 Rb2 3.526972 1_455
As0 Rb0 3.566260 1_556
As0 Rb0 3.607716 1_545
As0 Rb3 3.656361 1_455
As0 Rb1 3.739511 1_555
As1 Hf0 2.602812 1_555
As1 Sn0 2.639373 1_545
As1 Rb3 3.526972 1_555
As1 Rb1 3.566251 1_544
As1 Rb1 3.607720 1_555
As1 Rb2 3.656369 1_454
As1 Rb0 3.739526 1_545
As2 Hf0 2.602809 1_554
As2 Sn0 2.639373 1_555
As2 Rb0 3.526979 1_655
As2 Rb2 3.566257 1_565
As2 Rb2 3.607719 1_554
As2 Rb1 3.656364 1_655
As2 Rb3 3.739519 1_555
As3 Hf0 2.602808 1_565
As3 Sn0 2.639377 1_555
As3 Rb1 3.526979 1_555
As3 Rb3 3.566263 1_555
As3 Rb3 3.607713 1_566
As3 Rb0 3.656364 1_656
As3 Rb2 3.739532 1_565
