# generated using pymatgen
data_TlAuF6
_symmetry_space_group_name_H-M   'P 1'
_cell_length_a   5.75117948
_cell_length_b   5.75117948
_cell_length_c   27.97936576
_cell_angle_alpha   90.00000000
_cell_angle_beta   90.00000000
_cell_angle_gamma   90.00000000
_symmetry_Int_Tables_number   1
_chemical_formula_structural   TlAuF6
_chemical_formula_sum   'Tl8 Au8 F48'
_cell_volume   925.44733204
_cell_formula_units_Z   8
loop_
 _symmetry_equiv_pos_site_id
 _symmetry_equiv_pos_as_xyz
  1  'x, y, z'
loop_
 _atom_site_type_symbol
 _atom_site_label
 _atom_site_symmetry_multiplicity
 _atom_site_fract_x
 _atom_site_fract_y
 _atom_site_fract_z
 _atom_site_occupancy
  Tl  Tl0  1  0.66400193  0.82518131  0.26749347  1
  Tl  Tl1  1  0.33599807  0.17481869  0.76749347  1
  Tl  Tl2  1  0.82518131  0.66400193  0.73250653  1
  Tl  Tl3  1  0.32518131  0.83599807  0.01749347  1
  Tl  Tl4  1  0.67481869  0.16400193  0.51749347  1
  Tl  Tl5  1  0.83599807  0.32518131  0.98250653  1
  Tl  Tl6  1  0.16400193  0.67481869  0.48250653  1
  Tl  Tl7  1  0.17481869  0.33599807  0.23250653  1
  Au  Au0  1  0.81462043  0.99311664  0.38292763  1
  Au  Au1  1  0.18537957  0.00688336  0.88292763  1
  Au  Au2  1  0.99311664  0.81462043  0.61707237  1
  Au  Au3  1  0.49311664  0.68537957  0.13292763  1
  Au  Au4  1  0.50688336  0.31462043  0.63292763  1
  Au  Au5  1  0.68537957  0.49311664  0.86707237  1
  Au  Au6  1  0.31462043  0.50688336  0.36707237  1
  Au  Au7  1  0.00688336  0.18537957  0.11707237  1
  F  F0  1  0.45024158  0.45024158  0.50000000  1
  F  F1  1  0.04975842  0.95024158  0.75000000  1
  F  F2  1  0.95024158  0.04975842  0.25000000  1
  F  F3  1  0.54975842  0.54975842  -0.00000000  1
  F  F4  1  0.97543640  0.35847107  0.49904501  1
  F  F5  1  0.02456360  0.64152893  0.99904501  1
  F  F6  1  0.35847107  0.97543640  0.50095499  1
  F  F7  1  0.85847107  0.52456360  0.24904501  1
  F  F8  1  0.14152893  0.47543640  0.74904501  1
  F  F9  1  0.52456360  0.85847107  0.75095499  1
  F  F10  1  0.47543640  0.14152893  0.25095499  1
  F  F11  1  0.64152893  0.02456360  0.00095499  1
  F  F12  1  0.08795691  0.97126825  0.42312786  1
  F  F13  1  0.91204309  0.02873175  0.92312786  1
  F  F14  1  0.97126825  0.08795691  0.57687214  1
  F  F15  1  0.52873175  0.58795691  0.67312786  1
  F  F16  1  0.47126825  0.41204309  0.17312786  1
  F  F17  1  0.17464708  0.65450495  0.56879735  1
  F  F18  1  0.82535292  0.34549505  0.06879735  1
  F  F19  1  0.65450495  0.17464708  0.43120265  1
  F  F20  1  0.34549505  0.82535292  0.93120265  1
  F  F21  1  0.84549505  0.67464708  0.81879735  1
  F  F22  1  0.32535292  0.15450495  0.68120265  1
  F  F23  1  0.67464708  0.84549505  0.18120265  1
  F  F24  1  0.18213919  0.04009418  0.16813020  1
  F  F25  1  0.45990582  0.68213919  0.41813020  1
  F  F26  1  0.54009418  0.31786081  0.91813020  1
  F  F27  1  0.68213919  0.45990582  0.58186980  1
  F  F28  1  0.31786081  0.54009418  0.08186980  1
  F  F29  1  0.81786081  0.95990582  0.66813020  1
  F  F30  1  0.04009418  0.18213919  0.83186980  1
  F  F31  1  0.95990582  0.81786081  0.33186980  1
  F  F32  1  0.04935068  0.49095456  0.41013655  1
  F  F33  1  0.00904544  0.54935068  0.66013655  1
  F  F34  1  0.99095456  0.45064932  0.16013655  1
  F  F35  1  0.54935068  0.00904544  0.33986345  1
  F  F36  1  0.45064932  0.99095456  0.83986345  1
  F  F37  1  0.95064932  0.50904544  0.91013655  1
  F  F38  1  0.49095456  0.04935068  0.58986345  1
  F  F39  1  0.50904544  0.95064932  0.08986345  1
  F  F40  1  0.17240244  0.17240244  -0.00000000  1
  F  F41  1  0.32759756  0.67240244  0.25000000  1
  F  F42  1  0.67240244  0.32759756  0.75000000  1
  F  F43  1  0.82759756  0.82759756  0.50000000  1
  F  F44  1  0.02873175  0.91204309  0.07687214  1
  F  F45  1  0.58795691  0.52873175  0.32687214  1
  F  F46  1  0.41204309  0.47126825  0.82687214  1
  F  F47  1  0.15450495  0.32535292  0.31879735  1
loop_
_geom_bond_atom_site_label_1
_geom_bond_atom_site_label_2
_geom_bond_distance
_geom_bond_site_symmetry_2
Au0 F12 1.937039 1_655
Au0 F31 1.937752 1_555
Au0 F19 1.939675 1_565
Au0 F35 1.946200 1_565
Au1 F13 1.937039 1_455
Au1 F30 1.937752 1_555
Au1 F20 1.939675 1_545
Au1 F36 1.946200 1_545
Au2 F14 1.937039 1_565
Au2 F29 1.937752 1_555
Au2 F17 1.939675 1_655
Au2 F33 1.946200 1_655
Au3 F16 1.937039 1_555
Au3 F28 1.937752 1_555
Au3 F23 1.939675 1_555
Au3 F39 1.946200 1_555
Au4 F15 1.937039 1_555
Au4 F27 1.937752 1_555
Au4 F22 1.939675 1_555
Au4 F38 1.946200 1_555
Au5 F46 1.937039 1_555
Au5 F26 1.937752 1_555
Au5 F21 1.939675 1_555
Au5 F37 1.946200 1_555
Au6 F45 1.937039 1_555
Au6 F25 1.937752 1_555
Au6 F47 1.939675 1_555
Au6 F32 1.946200 1_555
Au7 F44 1.937039 1_545
Au7 F24 1.937752 1_555
Au7 F18 1.939675 1_455
Au7 F34 1.946200 1_455
F0 Tl4 2.148902 1_555
F0 Tl6 2.148902 1_555
F1 Tl1 2.148902 1_565
F1 Tl2 2.148902 1_455
F2 Tl7 2.148902 1_655
F2 Tl0 2.148902 1_545
F3 Tl3 2.148902 1_555
F3 Tl5 2.148902 1_554
F4 Tl4 2.122836 1_555
F4 Tl6 2.168023 1_655
F5 Tl3 2.122836 1_556
F5 Tl5 2.168023 1_455
F6 Tl6 2.122836 1_555
F6 Tl4 2.168023 1_565
F7 Tl0 2.122836 1_555
F7 Tl7 2.168023 1_655
F8 Tl1 2.122836 1_555
F8 Tl2 2.168023 1_455
F9 Tl2 2.122836 1_555
F9 Tl1 2.168023 1_565
F10 Tl7 2.122836 1_555
F10 Tl0 2.168023 1_545
F11 Tl5 2.122836 1_554
F11 Tl3 2.168023 1_545
F12 Tl6 2.420382 1_555
F13 Tl5 2.420382 1_555
F14 Tl4 2.420382 1_555
F15 Tl2 2.420382 1_555
F16 Tl7 2.420382 1_555
F17 Tl6 2.417963 1_555
F18 Tl5 2.417963 1_554
F19 Tl4 2.417963 1_555
F20 Tl3 2.417963 1_556
F21 Tl2 2.417963 1_555
F22 Tl1 2.417963 1_555
F23 Tl0 2.417963 1_555
F24 Tl7 2.478354 1_555
F25 Tl6 2.478354 1_555
F26 Tl5 2.478354 1_555
F27 Tl4 2.478354 1_555
F28 Tl3 2.478354 1_555
F29 Tl2 2.478354 1_555
F30 Tl1 2.478354 1_555
F31 Tl0 2.478354 1_555
F32 Tl6 2.377611 1_555
F33 Tl2 2.377611 1_455
F34 Tl7 2.377611 1_655
F35 Tl0 2.377611 1_545
F36 Tl1 2.377611 1_565
F37 Tl5 2.377611 1_555
F38 Tl4 2.377611 1_555
F39 Tl3 2.377611 1_555
F40 Tl3 2.180541 1_545
F40 Tl5 2.180541 1_454
F41 Tl0 2.180541 1_555
F41 Tl7 2.180541 1_555
F42 Tl2 2.180541 1_555
F42 Tl1 2.180541 1_555
F43 Tl6 2.180541 1_655
F43 Tl4 2.180541 1_565
F44 Tl3 2.420382 1_555
F45 Tl0 2.420382 1_555
F46 Tl1 2.420382 1_555
F47 Tl7 2.417963 1_555
