# generated using pymatgen
data_K2RbAs2Pd3
_symmetry_space_group_name_H-M   'P 1'
_cell_length_a   7.77020640
_cell_length_b   7.77020595
_cell_length_c   7.77020692
_cell_angle_alpha   43.71120915
_cell_angle_beta   43.71121296
_cell_angle_gamma   43.71120123
_symmetry_Int_Tables_number   1
_chemical_formula_structural   K2RbAs2Pd3
_chemical_formula_sum   'K2 Rb1 As2 Pd3'
_cell_volume   203.34765630
_cell_formula_units_Z   1
loop_
 _symmetry_equiv_pos_site_id
 _symmetry_equiv_pos_as_xyz
  1  'x, y, z'
loop_
 _atom_site_type_symbol
 _atom_site_label
 _atom_site_symmetry_multiplicity
 _atom_site_fract_x
 _atom_site_fract_y
 _atom_site_fract_z
 _atom_site_occupancy
  K  K0  1  0.08444268  0.08444268  0.08444268  1
  K  K1  1  0.91555732  0.91555732  0.91555732  1
  Rb  Rb0  1  0.50000000  0.50000000  0.50000000  1
  As  As0  1  0.75168602  0.75168602  0.75168602  1
  As  As1  1  0.24831398  0.24831398  0.24831398  1
  Pd  Pd0  1  0.00000000  0.50000000  0.50000000  1
  Pd  Pd1  1  0.50000000  0.50000000  0.00000000  1
  Pd  Pd2  1  0.50000000  0.00000000  0.50000000  1
loop_
_geom_bond_atom_site_label_1
_geom_bond_atom_site_label_2
_geom_bond_distance
_geom_bond_site_symmetry_2
K0 Pd1 3.394974 1_545
K0 Pd1 3.394975 1_455
K0 Pd0 3.394975 1_545
K0 Pd0 3.394975 1_554
K0 Pd2 3.394975 1_455
K0 Pd2 3.394975 1_554
K0 Rb0 3.761795 1_545
K0 Rb0 3.761795 1_455
K0 Rb0 3.761795 1_554
K1 Pd1 3.394974 1_566
K1 Pd1 3.394975 1_656
K1 Pd0 3.394975 1_665
K1 Pd0 3.394975 1_656
K1 Pd2 3.394975 1_665
K1 Pd2 3.394975 1_566
K1 Rb0 3.761795 1_565
K1 Rb0 3.761795 1_655
K1 Rb0 3.761795 1_556
As0 Pd2 2.447659 1_565
As0 Pd0 2.447659 1_655
As0 Pd1 2.447659 1_556
As0 K0 3.340114 1_656
As0 K0 3.340114 1_566
As0 K0 3.340115 1_665
As0 K1 3.449010 1_555
As0 Rb0 3.756226 1_565
As0 Rb0 3.756227 1_655
As0 Rb0 3.756228 1_556
As1 Pd2 2.447659 1_555
As1 Pd0 2.447659 1_555
As1 Pd1 2.447659 1_555
As1 K1 3.340114 1_454
As1 K1 3.340114 1_544
As1 K1 3.340115 1_445
As1 K0 3.449010 1_555
As1 Rb0 3.756226 1_545
As1 Rb0 3.756227 1_455
As1 Rb0 3.756228 1_554
Pd0 Pd2 2.892604 1_555
Pd0 Pd2 2.892604 1_465
Pd0 Pd1 2.892605 1_555
Pd0 Pd1 2.892605 1_456
Pd0 Rb0 3.885103 1_555
Pd0 Rb0 3.885103 1_455
Pd1 Pd2 2.892605 1_555
Pd1 Pd2 2.892605 1_564
Pd1 Rb0 3.885103 1_555
Pd1 Rb0 3.885103 1_554
Pd2 Rb0 3.885103 1_545
Pd2 Rb0 3.885103 1_555
