# generated using pymatgen
data_AgBiRu2O7
_symmetry_space_group_name_H-M   'P 1'
_cell_length_a   7.10730920
_cell_length_b   7.18926385
_cell_length_c   7.18926413
_cell_angle_alpha   61.30429486
_cell_angle_beta   60.37638253
_cell_angle_gamma   60.37637924
_symmetry_Int_Tables_number   1
_chemical_formula_structural   AgBiRu2O7
_chemical_formula_sum   'Ag2 Bi2 Ru4 O14'
_cell_volume   263.72695729
_cell_formula_units_Z   2
loop_
 _symmetry_equiv_pos_site_id
 _symmetry_equiv_pos_as_xyz
  1  'x, y, z'
loop_
 _atom_site_type_symbol
 _atom_site_label
 _atom_site_symmetry_multiplicity
 _atom_site_fract_x
 _atom_site_fract_y
 _atom_site_fract_z
 _atom_site_occupancy
  Ag  Ag0  1  0.62500000  0.12500000  0.12500000  1
  Ag  Ag1  1  0.12500000  0.12500000  0.12500000  1
  Bi  Bi0  1  0.12500000  0.12500000  0.62500000  1
  Bi  Bi1  1  0.12500000  0.62500000  0.12500000  1
  Ru  Ru0  1  0.62500000  0.62500000  0.12500000  1
  Ru  Ru1  1  0.62500000  0.12500000  0.62500000  1
  Ru  Ru2  1  0.12500000  0.62500000  0.62500000  1
  Ru  Ru3  1  0.62500000  0.62500000  0.62500000  1
  O  O0  1  0.25993248  0.24006752  0.24006752  1
  O  O1  1  0.99006752  0.00993248  0.00993248  1
  O  O2  1  0.54161804  0.94441303  0.56647407  1
  O  O3  1  0.30250514  0.68352593  0.30558697  1
  O  O4  1  0.54161804  0.56647407  0.94441303  1
  O  O5  1  0.95503938  0.54496062  0.54496062  1
  O  O6  1  0.55201176  0.94798824  0.94798824  1
  O  O7  1  0.94749486  0.94441303  0.56647407  1
  O  O8  1  0.94749486  0.56647407  0.94441303  1
  O  O9  1  0.69798824  0.30201176  0.30201176  1
  O  O10  1  0.29496062  0.70503938  0.70503938  1
  O  O11  1  0.70838196  0.30558697  0.68352593  1
  O  O12  1  0.30250514  0.30558697  0.68352593  1
  O  O13  1  0.70838196  0.68352593  0.30558697  1
loop_
_geom_bond_atom_site_label_1
_geom_bond_atom_site_label_2
_geom_bond_distance
_geom_bond_site_symmetry_2
Ag0 O1 2.124655 1_555
Ag0 O0 2.124655 1_555
Ag0 O9 2.523589 1_555
Ag0 O6 2.523589 1_544
Ag0 O4 2.655994 1_554
Ag0 O13 2.655994 1_545
Ag0 O2 2.655994 1_545
Ag0 O11 2.655994 1_554
Ag1 O0 2.124655 1_555
Ag1 O1 2.124655 1_455
Ag1 O6 2.523589 1_544
Ag1 O9 2.523589 1_455
Ag1 O8 2.655994 1_454
Ag1 O3 2.655994 1_545
Ag1 O7 2.655994 1_445
Ag1 O12 2.655994 1_554
Bi0 O1 2.285734 1_456
Bi0 O0 2.285734 1_555
Bi0 O2 2.474422 1_545
Bi0 O11 2.474422 1_455
Bi0 O12 2.474423 1_555
Bi0 O7 2.474423 1_445
Bi0 O5 2.513797 1_455
Bi0 O10 2.513797 1_545
Bi1 O1 2.285734 1_465
Bi1 O0 2.285734 1_555
Bi1 O4 2.474422 1_554
Bi1 O13 2.474422 1_455
Bi1 O3 2.474423 1_555
Bi1 O8 2.474423 1_454
Bi1 O5 2.513797 1_455
Bi1 O10 2.513797 1_554
O2 Ru1 1.935331 1_565
O2 Ru3 1.942867 1_555
O3 Ru0 1.935331 1_555
O3 Ru2 1.942867 1_555
O4 Ru0 1.935331 1_556
O4 Ru3 1.942867 1_555
O5 Ru3 1.952871 1_555
O5 Ru2 1.952872 1_655
O6 Ru0 1.975991 1_556
O6 Ru1 1.975991 1_565
O7 Ru1 1.935331 1_565
O7 Ru2 1.942867 1_655
O8 Ru0 1.935331 1_556
O8 Ru2 1.942867 1_655
O9 Ru0 1.975991 1_555
O9 Ru1 1.975991 1_555
O10 Ru3 1.952871 1_555
O10 Ru2 1.952872 1_555
O11 Ru1 1.935331 1_555
O11 Ru3 1.942867 1_555
O12 Ru1 1.935331 1_555
O12 Ru2 1.942867 1_555
O13 Ru0 1.935331 1_555
O13 Ru3 1.942867 1_555
