# generated using pymatgen
data_SrCuBi
_symmetry_space_group_name_H-M   'P 1'
_cell_length_a   4.68198033
_cell_length_b   4.68198033
_cell_length_c   8.92532100
_cell_angle_alpha   90.00000000
_cell_angle_beta   90.00000000
_cell_angle_gamma   120.00000465
_symmetry_Int_Tables_number   1
_chemical_formula_structural   SrCuBi
_chemical_formula_sum   'Sr2 Cu2 Bi2'
_cell_volume   169.43909584
_cell_formula_units_Z   2
loop_
 _symmetry_equiv_pos_site_id
 _symmetry_equiv_pos_as_xyz
  1  'x, y, z'
loop_
 _atom_site_type_symbol
 _atom_site_label
 _atom_site_symmetry_multiplicity
 _atom_site_fract_x
 _atom_site_fract_y
 _atom_site_fract_z
 _atom_site_occupancy
  Sr  Sr0  1  0.00000000  0.00000000  0.00000000  1
  Sr  Sr1  1  0.00000000  0.00000000  0.50000000  1
  Cu  Cu0  1  0.66666700  0.33333300  0.25000000  1
  Cu  Cu1  1  0.33333300  0.66666700  0.75000000  1
  Bi  Bi0  1  0.66666700  0.33333300  0.75000000  1
  Bi  Bi1  1  0.33333300  0.66666700  0.25000000  1
loop_
_geom_bond_atom_site_label_1
_geom_bond_atom_site_label_2
_geom_bond_distance
_geom_bond_site_symmetry_2
Cu0 Sr1 3.505111 1_655
Cu0 Sr0 3.505111 1_655
Cu0 Sr0 3.505114 1_555
Cu0 Sr0 3.505114 1_665
Cu0 Sr1 3.505114 1_555
Cu0 Sr1 3.505114 1_665
Cu1 Sr1 3.505111 1_565
Cu1 Sr0 3.505111 1_566
Cu1 Sr0 3.505114 1_556
Cu1 Sr1 3.505114 1_555
Cu1 Sr0 3.505114 1_666
Cu1 Sr1 3.505114 1_665
Bi0 Cu1 2.703140 1_545
Bi0 Cu1 2.703140 1_655
Bi0 Cu1 2.703148 1_555
Bi0 Sr1 3.505111 1_655
Bi0 Sr0 3.505111 1_656
Bi0 Sr0 3.505114 1_556
Bi0 Sr1 3.505114 1_665
Bi0 Sr1 3.505114 1_555
Bi0 Sr0 3.505114 1_666
Bi1 Cu0 2.703140 1_565
Bi1 Cu0 2.703140 1_455
Bi1 Cu0 2.703148 1_555
Bi1 Sr1 3.505111 1_565
Bi1 Sr0 3.505111 1_565
Bi1 Sr0 3.505114 1_555
Bi1 Sr0 3.505114 1_665
Bi1 Sr1 3.505114 1_555
Bi1 Sr1 3.505114 1_665
