# generated using pymatgen
data_K2Si2PbS6
_symmetry_space_group_name_H-M   'P 1'
_cell_length_a   8.54985306
_cell_length_b   8.54985392
_cell_length_c   8.92585077
_cell_angle_alpha   89.80618285
_cell_angle_beta   89.80618272
_cell_angle_gamma   114.88063058
_symmetry_Int_Tables_number   1
_chemical_formula_structural   K2Si2PbS6
_chemical_formula_sum   'K4 Si4 Pb2 S12'
_cell_volume   591.90889991
_cell_formula_units_Z   2
loop_
 _symmetry_equiv_pos_site_id
 _symmetry_equiv_pos_as_xyz
  1  'x, y, z'
loop_
 _atom_site_type_symbol
 _atom_site_label
 _atom_site_symmetry_multiplicity
 _atom_site_fract_x
 _atom_site_fract_y
 _atom_site_fract_z
 _atom_site_occupancy
  K  K0  1  0.25836180  0.53126854  0.51731954  1
  K  K1  1  0.74163820  0.46873146  0.48268046  1
  K  K2  1  0.46873146  0.74163820  0.98268046  1
  K  K3  1  0.53126854  0.25836180  0.01731954  1
  Si  Si0  1  0.97888509  0.65144318  0.05287953  1
  Si  Si1  1  0.02111491  0.34855682  0.94712047  1
  Si  Si2  1  0.34855682  0.02111491  0.44712047  1
  Si  Si3  1  0.65144318  0.97888509  0.55287953  1
  Pb  Pb0  1  0.99421642  0.00578358  0.25000000  1
  Pb  Pb1  1  0.00578358  0.99421642  0.75000000  1
  S  S0  1  0.64790500  0.75887778  0.65580115  1
  S  S1  1  0.91931823  0.51555471  0.84036944  1
  S  S2  1  0.24112222  0.35209500  0.84419885  1
  S  S3  1  0.51555471  0.91931823  0.34036944  1
  S  S4  1  0.35209500  0.24112222  0.34419885  1
  S  S5  1  0.90024210  0.17511907  0.53001323  1
  S  S6  1  0.82488093  0.09975790  0.96998677  1
  S  S7  1  0.17511907  0.90024210  0.03001323  1
  S  S8  1  0.08068177  0.48444529  0.15963056  1
  S  S9  1  0.48444529  0.08068177  0.65963056  1
  S  S10  1  0.09975790  0.82488093  0.46998677  1
  S  S11  1  0.75887778  0.64790500  0.15580115  1
loop_
_geom_bond_atom_site_label_1
_geom_bond_atom_site_label_2
_geom_bond_distance
_geom_bond_site_symmetry_2
K0 S2 3.264682 1_555
K0 S5 3.287868 1_455
K0 S4 3.297633 1_555
K0 S0 3.316282 1_555
K0 S10 3.343694 1_555
K0 S3 3.484205 1_555
K0 S8 3.491556 1_555
K1 S11 3.264682 1_555
K1 S10 3.287868 1_655
K1 S0 3.297633 1_555
K1 S4 3.316282 1_555
K1 S5 3.343694 1_555
K1 S9 3.484205 1_555
K1 S1 3.491556 1_555
K2 S0 3.264682 1_555
K2 S6 3.287868 1_565
K2 S11 3.297632 1_556
K2 S2 3.316282 1_555
K2 S7 3.343694 1_556
K2 S8 3.484205 1_556
K2 S3 3.491556 1_556
K3 S4 3.264682 1_555
K3 S7 3.287868 1_545
K3 S2 3.297632 1_554
K3 S11 3.316282 1_555
K3 S6 3.343694 1_554
K3 S1 3.484205 1_554
K3 S9 3.491556 1_554
Pb0 S7 2.868443 1_645
Pb0 S10 2.868443 1_645
Pb0 S4 2.994368 1_655
Pb0 S11 2.994368 1_545
Pb0 S6 3.158824 1_554
Pb0 S5 3.158824 1_555
Pb1 S6 2.868443 1_465
Pb1 S5 2.868443 1_465
Pb1 S0 2.994368 1_455
Pb1 S2 2.994368 1_565
Pb1 S7 3.158824 1_556
Pb1 S10 3.158824 1_555
S0 Si3 2.079272 1_555
S1 Si0 2.175027 1_556
S1 Si1 2.178560 1_655
S2 Si1 2.079272 1_555
S3 Si3 2.175027 1_555
S3 Si2 2.178560 1_565
S4 Si2 2.079272 1_555
S5 Si3 2.091209 1_545
S6 Si1 2.091210 1_655
S7 Si0 2.091210 1_455
S8 Si1 2.175027 1_554
S8 Si0 2.178560 1_455
S9 Si2 2.175027 1_555
S9 Si3 2.178560 1_545
S10 Si2 2.091209 1_565
S11 Si0 2.079272 1_555
