# generated using pymatgen
data_Dy(SiPd)2
_symmetry_space_group_name_H-M   'P 1'
_cell_length_a   4.12913714
_cell_length_b   4.12913649
_cell_length_c   5.75820785
_cell_angle_alpha   111.01079216
_cell_angle_beta   111.01079293
_cell_angle_gamma   89.99998151
_symmetry_Int_Tables_number   1
_chemical_formula_structural   Dy(SiPd)2
_chemical_formula_sum   'Dy1 Si2 Pd2'
_cell_volume   84.61920699
_cell_formula_units_Z   1
loop_
 _symmetry_equiv_pos_site_id
 _symmetry_equiv_pos_as_xyz
  1  'x, y, z'
loop_
 _atom_site_type_symbol
 _atom_site_label
 _atom_site_symmetry_multiplicity
 _atom_site_fract_x
 _atom_site_fract_y
 _atom_site_fract_z
 _atom_site_occupancy
  Dy  Dy0  1  -0.00000000  -0.00000000  0.00000000  1
  Si  Si0  1  0.61644562  0.61644562  0.23289124  1
  Si  Si1  1  0.38355438  0.38355438  0.76710876  1
  Pd  Pd0  1  0.75000000  0.25000000  0.50000000  1
  Pd  Pd1  1  0.25000000  0.75000000  0.50000000  1
loop_
_geom_bond_atom_site_label_1
_geom_bond_atom_site_label_2
_geom_bond_distance
_geom_bond_site_symmetry_2
Dy0 Si0 3.140205 1_455
Dy0 Si1 3.140205 1_544
Dy0 Si0 3.140205 1_545
Dy0 Si1 3.140205 1_454
Dy0 Si1 3.140205 1_444
Dy0 Si0 3.140205 1_555
Dy0 Si0 3.140206 1_445
Dy0 Si1 3.140206 1_554
Dy0 Pd1 3.228073 1_555
Dy0 Pd0 3.228073 1_444
Dy0 Pd0 3.228073 1_555
Dy0 Pd1 3.228073 1_444
Dy0 Pd0 3.228074 1_454
Dy0 Pd1 3.228074 1_545
Dy0 Pd0 3.228074 1_455
Dy0 Pd1 3.228074 1_544
Si0 Si1 2.311711 1_554
Pd0 Si0 2.453542 1_545
Pd0 Si1 2.453542 1_655
Pd0 Si0 2.453542 1_555
Pd0 Si1 2.453542 1_555
Pd1 Si1 2.453542 1_565
Pd1 Si0 2.453542 1_455
Pd1 Si1 2.453542 1_555
Pd1 Si0 2.453542 1_555
