# generated using pymatgen
data_MnTc5S8
_symmetry_space_group_name_H-M   'P 1'
_cell_length_a   6.41465908
_cell_length_b   6.43809092
_cell_length_c   6.40117606
_cell_angle_alpha   92.96059680
_cell_angle_beta   93.20450298
_cell_angle_gamma   94.26595348
_symmetry_Int_Tables_number   1
_chemical_formula_structural   MnTc5S8
_chemical_formula_sum   'Mn1 Tc5 S8'
_cell_volume   262.79839556
_cell_formula_units_Z   1
loop_
 _symmetry_equiv_pos_site_id
 _symmetry_equiv_pos_as_xyz
  1  'x, y, z'
loop_
 _atom_site_type_symbol
 _atom_site_label
 _atom_site_symmetry_multiplicity
 _atom_site_fract_x
 _atom_site_fract_y
 _atom_site_fract_z
 _atom_site_occupancy
  Mn  Mn0  1  0.40351932  0.22539958  0.54379404  1
  Tc  Tc0  1  0.44774443  0.58771343  0.76859104  1
  Tc  Tc1  1  0.77036921  0.45359955  0.59664463  1
  Tc  Tc2  1  0.59116780  0.76781933  0.44973579  1
  Tc  Tc3  1  0.55444823  0.40976397  0.23314313  1
  Tc  Tc4  1  0.23350564  0.54668729  0.40951900  1
  S  S0  1  0.77834703  0.78204615  0.77964721  1
  S  S1  1  0.22334749  0.22027062  0.22322392  1
  S  S2  1  0.28160549  0.86726561  0.61845009  1
  S  S3  1  0.60924519  0.27978022  0.87584166  1
  S  S4  1  0.87529876  0.62570050  0.27654536  1
  S  S5  1  0.73063193  0.13159642  0.37902269  1
  S  S6  1  0.37910415  0.72777683  0.12733604  1
  S  S7  1  0.12166433  0.37458150  0.71850939  1
loop_
_geom_bond_atom_site_label_1
_geom_bond_atom_site_label_2
_geom_bond_distance
_geom_bond_site_symmetry_2
Mn0 S1 2.295608 1_555
Mn0 S7 2.411548 1_555
Mn0 S3 2.433642 1_555
Mn0 S2 2.458363 1_545
Mn0 S5 2.500051 1_555
Mn0 Tc3 2.566815 1_555
S0 Tc1 2.359575 1_555
S0 Tc2 2.364320 1_555
S0 Tc0 2.376354 1_555
S1 Tc4 2.356839 1_555
S1 Tc3 2.365323 1_555
S2 Tc0 2.376590 1_555
S2 Tc4 2.391146 1_555
S2 Tc2 2.424227 1_555
S3 Tc1 2.399088 1_555
S3 Tc0 2.416921 1_555
S3 Tc3 2.447622 1_556
S4 Tc3 2.390891 1_555
S4 Tc2 2.399442 1_555
S4 Tc1 2.481314 1_555
S4 Tc4 2.502603 1_655
S5 Tc3 2.390046 1_555
S5 Tc1 2.426227 1_555
S5 Tc2 2.516625 1_545
S6 Tc4 2.395501 1_555
S6 Tc2 2.398946 1_555
S6 Tc0 2.497722 1_554
S6 Tc3 2.513233 1_555
S7 Tc0 2.411094 1_555
S7 Tc4 2.433371 1_555
S7 Tc1 2.441377 1_455
