# generated using pymatgen
data_Hf6Zr3ScSn6
_symmetry_space_group_name_H-M   'P 1'
_cell_length_a   8.44720687
_cell_length_b   8.44720774
_cell_length_c   5.75514760
_cell_angle_alpha   90.00000000
_cell_angle_beta   90.00000000
_cell_angle_gamma   120.10233625
_symmetry_Int_Tables_number   1
_chemical_formula_structural   Hf6Zr3ScSn6
_chemical_formula_sum   'Hf6 Zr3 Sc1 Sn6'
_cell_volume   355.27498563
_cell_formula_units_Z   1
loop_
 _symmetry_equiv_pos_site_id
 _symmetry_equiv_pos_as_xyz
  1  'x, y, z'
loop_
 _atom_site_type_symbol
 _atom_site_label
 _atom_site_symmetry_multiplicity
 _atom_site_fract_x
 _atom_site_fract_y
 _atom_site_fract_z
 _atom_site_occupancy
  Hf  Hf0  1  0.24989776  0.00210095  0.75000000  1
  Hf  Hf1  1  0.00210095  0.24989776  0.75000000  1
  Hf  Hf2  1  0.66543507  0.33133833  0.00007916  1
  Hf  Hf3  1  0.33133833  0.66543507  0.00007916  1
  Hf  Hf4  1  0.33133833  0.66543507  0.49992084  1
  Hf  Hf5  1  0.66543507  0.33133833  0.49992084  1
  Zr  Zr0  1  0.24484927  0.24484927  0.25000000  1
  Zr  Zr1  1  0.75296812  0.00043528  0.25000000  1
  Zr  Zr2  1  0.00043528  0.75296812  0.25000000  1
  Sc  Sc0  1  0.75606524  0.75606524  0.75000000  1
  Sn  Sn0  1  0.39403079  0.39403079  0.75000000  1
  Sn  Sn1  1  0.60844131  0.99856712  0.75000000  1
  Sn  Sn2  1  0.99856712  0.60844131  0.75000000  1
  Sn  Sn3  1  0.60734921  0.60734921  0.25000000  1
  Sn  Sn4  1  0.39229699  0.99945116  0.25000000  1
  Sn  Sn5  1  0.99945116  0.39229699  0.25000000  1
loop_
_geom_bond_atom_site_label_1
_geom_bond_atom_site_label_2
_geom_bond_distance
_geom_bond_site_symmetry_2
Hf0 Sn0 2.898250 1_555
Hf0 Sn2 2.912638 1_445
Hf0 Sn1 3.043773 1_545
Hf0 Sn4 3.123275 1_546
Hf0 Sn4 3.123275 1_545
Hf1 Sn0 2.898249 1_555
Hf1 Sn1 2.912637 1_445
Hf1 Sn2 3.043773 1_455
Hf1 Sn5 3.123275 1_456
Hf1 Sn5 3.123275 1_455
Hf2 Sn4 2.960322 1_545
Hf2 Sn0 2.970823 1_554
Hf2 Sn5 2.972786 1_555
Hf2 Sn1 2.974450 1_544
Hf2 Sn2 2.976911 1_554
Hf2 Sn3 2.982125 1_555
Hf3 Sn5 2.960322 1_455
Hf3 Sn0 2.970823 1_554
Hf3 Sn4 2.972787 1_555
Hf3 Sn2 2.974450 1_454
Hf3 Sn1 2.976911 1_554
Hf3 Sn3 2.982125 1_555
Hf4 Sn5 2.960322 1_455
Hf4 Sn0 2.970823 1_555
Hf4 Sn4 2.972787 1_555
Hf4 Sn2 2.974450 1_455
Hf4 Sn1 2.976911 1_555
Hf4 Sn3 2.982125 1_555
Hf5 Sn4 2.960322 1_545
Hf5 Sn0 2.970823 1_555
Hf5 Sn5 2.972786 1_555
Hf5 Sn1 2.974450 1_545
Hf5 Sn2 2.976911 1_555
Hf5 Sn3 2.982125 1_555
Sc0 Sn2 2.883330 1_555
Sc0 Sn1 2.883330 1_555
Sc0 Sn0 3.053448 1_555
Sc0 Sn3 3.139057 1_555
Sc0 Sn3 3.139057 1_556
Sn0 Zr0 3.140628 1_556
Sn0 Zr0 3.140628 1_555
Sn1 Zr1 3.122791 1_565
Sn1 Zr1 3.122791 1_566
Sn2 Zr2 3.122791 1_656
Sn2 Zr2 3.122791 1_655
Sn3 Zr2 2.905443 1_655
Sn3 Zr1 2.905444 1_565
Sn3 Zr0 3.057374 1_555
Sn4 Zr2 2.894615 1_555
Sn4 Zr0 2.904861 1_565
Sn4 Zr1 3.042503 1_565
Sn5 Zr1 2.894615 1_555
Sn5 Zr0 2.904861 1_655
Sn5 Zr2 3.042503 1_655
