# generated using pymatgen
data_K6AlTe4Cl
_symmetry_space_group_name_H-M   'P 1'
_cell_length_a   11.17094833
_cell_length_b   11.17094787
_cell_length_c   8.10412159
_cell_angle_alpha   90.00000000
_cell_angle_beta   90.00000000
_cell_angle_gamma   120.00000137
_symmetry_Int_Tables_number   1
_chemical_formula_structural   K6AlTe4Cl
_chemical_formula_sum   'K12 Al2 Te8 Cl2'
_cell_volume   875.82359732
_cell_formula_units_Z   2
loop_
 _symmetry_equiv_pos_site_id
 _symmetry_equiv_pos_as_xyz
  1  'x, y, z'
loop_
 _atom_site_type_symbol
 _atom_site_label
 _atom_site_symmetry_multiplicity
 _atom_site_fract_x
 _atom_site_fract_y
 _atom_site_fract_z
 _atom_site_occupancy
  K  K0  1  0.12489470  0.87510530  0.51483462  1
  K  K1  1  0.75020860  0.87510530  0.51483462  1
  K  K2  1  0.95361360  0.47680630  0.31852263  1
  K  K3  1  0.52319370  0.47680630  0.31852263  1
  K  K4  1  0.87510530  0.75020860  0.01483462  1
  K  K5  1  0.24979140  0.12489470  0.01483462  1
  K  K6  1  0.52319370  0.04638640  0.31852263  1
  K  K7  1  0.12489470  0.24979140  0.51483462  1
  K  K8  1  0.87510530  0.12489470  0.01483462  1
  K  K9  1  0.04638640  0.52319370  0.81852263  1
  K  K10  1  0.47680630  0.95361360  0.81852263  1
  K  K11  1  0.47680630  0.52319370  0.81852263  1
  Al  Al0  1  0.66666700  0.33333300  0.70941470  1
  Al  Al1  1  0.33333300  0.66666700  0.20941470  1
  Te  Te0  1  0.40821062  0.20410581  0.60738406  1
  Te  Te1  1  0.59178938  0.79589419  0.10738406  1
  Te  Te2  1  0.66666700  0.33333300  0.03525331  1
  Te  Te3  1  0.79589419  0.59178938  0.60738406  1
  Te  Te4  1  0.20410581  0.40821062  0.10738406  1
  Te  Te5  1  0.33333300  0.66666700  0.53525331  1
  Te  Te6  1  0.20410581  0.79589419  0.10738406  1
  Te  Te7  1  0.79589419  0.20410581  0.60738406  1
  Cl  Cl0  1  0.00000000  0.00000000  0.27370905  1
  Cl  Cl1  1  0.00000000  0.00000000  0.77370905  1
loop_
_geom_bond_atom_site_label_1
_geom_bond_atom_site_label_2
_geom_bond_distance
_geom_bond_site_symmetry_2
K0 Te0 3.529138 1_565
K0 Te3 3.529138 1_455
K0 Te6 3.640377 1_555
K1 Te7 3.529133 1_565
K1 Te3 3.529144 1_555
K1 Te1 3.640365 1_555
K2 Te7 3.535135 1_555
K2 Te3 3.535149 1_555
K2 Te2 3.602258 1_555
K2 Te6 3.672788 1_655
K2 Te4 3.672788 1_655
K3 Te0 3.535133 1_555
K3 Te3 3.535133 1_555
K3 Te2 3.602258 1_555
K3 Te1 3.672788 1_555
K3 Te4 3.672788 1_555
K4 Te6 3.529134 1_655
K4 Te1 3.529144 1_555
K4 Te3 3.640365 1_554
K5 Te6 3.529133 1_545
K5 Te4 3.529144 1_555
K5 Te0 3.640365 1_554
K6 Te7 3.535135 1_555
K6 Te0 3.535149 1_555
K6 Te2 3.602258 1_555
K6 Te1 3.672788 1_545
K6 Te6 3.672788 1_545
K7 Te7 3.529134 1_455
K7 Te0 3.529144 1_555
K7 Te4 3.640365 1_555
K8 Te1 3.529138 1_545
K8 Te4 3.529138 1_655
K8 Te7 3.640377 1_554
K9 Te6 3.535135 1_556
K9 Te4 3.535149 1_556
K9 Te5 3.602258 1_555
K9 Te7 3.672788 1_455
K9 Te3 3.672788 1_455
K10 Te6 3.535135 1_556
K10 Te1 3.535149 1_556
K10 Te5 3.602258 1_555
K10 Te0 3.672788 1_565
K10 Te7 3.672788 1_565
K11 Te1 3.535133 1_556
K11 Te4 3.535133 1_556
K11 Te5 3.602258 1_555
K11 Te0 3.672788 1_555
K11 Te3 3.672788 1_555
Al0 Te7 2.633547 1_555
Al0 Te3 2.633565 1_555
Al0 Te0 2.633565 1_555
Al0 Te2 2.640636 1_556
Al1 Te6 2.633547 1_555
Al1 Te4 2.633565 1_555
Al1 Te1 2.633565 1_555
Al1 Te5 2.640636 1_555
Cl0 K0 3.107770 1_545
Cl0 K7 3.107785 1_555
Cl0 K1 3.107785 1_445
Cl0 K8 3.200168 1_455
Cl0 K4 3.200183 1_445
Cl0 K5 3.200183 1_555
Cl1 K8 3.107770 1_456
Cl1 K4 3.107785 1_446
Cl1 K5 3.107785 1_556
Cl1 K0 3.200168 1_545
Cl1 K7 3.200183 1_555
Cl1 K1 3.200183 1_445
