# generated using pymatgen
data_Cr2Hg(P2O7)2
_symmetry_space_group_name_H-M   'P 1'
_cell_length_a   4.80089395
_cell_length_b   6.85536429
_cell_length_c   7.90479919
_cell_angle_alpha   91.52927439
_cell_angle_beta   92.80649965
_cell_angle_gamma   105.83928496
_symmetry_Int_Tables_number   1
_chemical_formula_structural   Cr2Hg(P2O7)2
_chemical_formula_sum   'Cr2 Hg1 P4 O14'
_cell_volume   249.76626510
_cell_formula_units_Z   1
loop_
 _symmetry_equiv_pos_site_id
 _symmetry_equiv_pos_as_xyz
  1  'x, y, z'
loop_
 _atom_site_type_symbol
 _atom_site_label
 _atom_site_symmetry_multiplicity
 _atom_site_fract_x
 _atom_site_fract_y
 _atom_site_fract_z
 _atom_site_occupancy
  Cr  Cr0  1  0.50000000  0.50000000  0.50000000  1
  Cr  Cr1  1  0.00000000  0.00000000  0.00000000  1
  Hg  Hg0  1  0.00000000  0.00000000  0.50000000  1
  P  P0  1  0.02778321  0.63177492  0.25377455  1
  P  P1  1  0.97221679  0.36822508  0.74622545  1
  P  P2  1  0.61580930  0.23510363  0.19671815  1
  P  P3  1  0.38419070  0.76489637  0.80328185  1
  O  O0  1  0.79413988  0.46024245  0.14910138  1
  O  O1  1  0.20586012  0.53975755  0.85089862  1
  O  O2  1  0.53167866  0.25160868  0.38073281  1
  O  O3  1  0.46832134  0.74839132  0.61926719  1
  O  O4  1  0.27580188  0.55098697  0.30721348  1
  O  O5  1  0.72419812  0.44901303  0.69278652  1
  O  O6  1  0.86496184  0.68371832  0.41060905  1
  O  O7  1  0.17771116  0.89911666  0.80326297  1
  O  O8  1  0.82228884  0.10088334  0.19673703  1
  O  O9  1  0.88292751  0.18584708  0.84933498  1
  O  O10  1  0.11707249  0.81415292  0.15066502  1
  O  O11  1  0.62696571  0.81145718  0.93560913  1
  O  O12  1  0.37303429  0.18854282  0.06439087  1
  O  O13  1  0.13503816  0.31628168  0.58939095  1
loop_
_geom_bond_atom_site_label_1
_geom_bond_atom_site_label_2
_geom_bond_distance
_geom_bond_site_symmetry_2
Cr0 O4 1.917360 1_555
Cr0 O5 1.917360 1_555
Cr0 O2 1.970092 1_555
Cr0 O3 1.970092 1_555
Cr0 O6 2.029696 1_555
Cr0 O13 2.029696 1_555
Cr1 O12 1.936246 1_555
Cr1 O11 1.936246 1_444
Cr1 O10 1.940068 1_545
Cr1 O9 1.940068 1_454
Cr1 O8 2.004835 1_455
Cr1 O7 2.004835 1_544
Hg0 O6 2.174131 1_445
Hg0 O13 2.174131 1_555
O0 P0 1.569319 1_655
O0 P2 1.611838 1_555
O1 P1 1.569319 1_455
O1 P3 1.611838 1_555
O2 P2 1.538016 1_555
O3 P3 1.538016 1_555
O4 P0 1.492038 1_555
O5 P1 1.492038 1_555
O6 P0 1.580534 1_655
O7 P3 1.525510 1_555
O8 P2 1.525510 1_555
O9 P1 1.485695 1_555
O10 P0 1.485695 1_555
O11 P3 1.488027 1_555
O12 P2 1.488027 1_555
O13 P1 1.580534 1_455
