# generated using pymatgen
data_Ca10NbWN10
_symmetry_space_group_name_H-M   'P 1'
_cell_length_a   6.92465997
_cell_length_b   6.92465972
_cell_length_c   8.88772631
_cell_angle_alpha   80.45867928
_cell_angle_beta   80.45867924
_cell_angle_gamma   59.71270114
_symmetry_Int_Tables_number   1
_chemical_formula_structural   Ca10NbWN10
_chemical_formula_sum   'Ca10 Nb1 W1 N10'
_cell_volume   361.22094154
_cell_formula_units_Z   1
loop_
 _symmetry_equiv_pos_site_id
 _symmetry_equiv_pos_as_xyz
  1  'x, y, z'
loop_
 _atom_site_type_symbol
 _atom_site_label
 _atom_site_symmetry_multiplicity
 _atom_site_fract_x
 _atom_site_fract_y
 _atom_site_fract_z
 _atom_site_occupancy
  Ca  Ca0  1  0.87478091  0.35240581  0.83409649  1
  Ca  Ca1  1  0.87289512  0.87289512  0.82582929  1
  Ca  Ca2  1  0.73910394  0.73910394  0.52959027  1
  Ca  Ca3  1  0.75381062  0.24711464  0.50687583  1
  Ca  Ca4  1  0.63096527  0.13700102  0.15217827  1
  Ca  Ca5  1  0.35240581  0.87478091  0.83409649  1
  Ca  Ca6  1  0.24711464  0.75381062  0.50687583  1
  Ca  Ca7  1  0.24065218  0.24065218  0.49490757  1
  Ca  Ca8  1  0.14193670  0.14193670  0.15963122  1
  Ca  Ca9  1  0.13700102  0.63096527  0.15217827  1
  Nb  Nb0  1  0.36932361  0.36932361  0.77422222  1
  W  W0  1  0.63250220  0.63250220  0.22515801  1
  N  N0  1  0.90832501  0.47016587  0.31863602  1
  N  N1  1  0.99732237  0.99732237  0.01702237  1
  N  N2  1  0.67897243  0.67897243  0.01351457  1
  N  N3  1  0.53618304  0.53618304  0.69128048  1
  N  N4  1  0.47016587  0.90832501  0.31863602  1
  N  N5  1  0.53834228  0.08334119  0.67591401  1
  N  N6  1  0.47303575  0.47303575  0.29611732  1
  N  N7  1  0.32237031  0.32237031  0.99641219  1
  N  N8  1  0.06173573  0.06173573  0.64671926  1
  N  N9  1  0.08334119  0.53834228  0.67591401  1
loop_
_geom_bond_atom_site_label_1
_geom_bond_atom_site_label_2
_geom_bond_distance
_geom_bond_site_symmetry_2
Ca0 N3 2.483863 1_555
Ca0 N8 2.503774 1_655
Ca0 N9 2.514445 1_655
Ca0 N1 2.537056 1_546
Ca0 N2 2.623153 1_556
Ca1 N1 2.468172 1_556
Ca1 N9 2.498039 1_655
Ca1 N5 2.498039 1_565
Ca1 N8 2.509705 1_665
Ca1 N2 2.592819 1_556
Ca2 N5 2.528204 1_565
Ca2 N9 2.528204 1_655
Ca2 N0 2.566043 1_555
Ca2 N4 2.566043 1_555
Ca2 N3 2.582016 1_555
Ca3 N8 2.308240 1_655
Ca3 N5 2.483591 1_555
Ca3 N3 2.487978 1_555
Ca3 N0 2.558575 1_555
Ca3 N6 2.627583 1_555
Ca4 N1 2.390441 1_545
Ca4 N7 2.399066 1_554
Ca4 N6 2.490661 1_555
Ca4 N4 2.528196 1_545
Ca5 N3 2.483863 1_555
Ca5 N8 2.503774 1_565
Ca5 N5 2.514445 1_565
Ca5 N1 2.537056 1_456
Ca5 N2 2.623153 1_556
Ca6 N8 2.308240 1_565
Ca6 N9 2.483591 1_555
Ca6 N3 2.487978 1_555
Ca6 N4 2.558575 1_555
Ca6 N6 2.627583 1_555
Ca7 N8 2.308753 1_555
Ca7 N9 2.505486 1_555
Ca7 N5 2.505486 1_555
Ca7 N4 2.637558 1_545
Ca7 N0 2.637558 1_455
Ca7 N6 3.004547 1_555
Ca8 N1 2.337770 1_445
Ca8 N7 2.366321 1_554
Ca8 N0 2.525519 1_455
Ca8 N4 2.525519 1_545
Ca9 N1 2.390441 1_455
Ca9 N7 2.399066 1_554
Ca9 N6 2.490661 1_555
Ca9 N0 2.528196 1_455
N0 W0 1.911201 1_555
N2 W0 1.857009 1_555
N3 Nb0 1.998851 1_555
N4 W0 1.911201 1_555
N5 Nb0 1.987885 1_555
N6 W0 1.898599 1_555
N7 Nb0 1.947315 1_555
N9 Nb0 1.987885 1_555
