# generated using pymatgen
data_Co2SiMo3N
_symmetry_space_group_name_H-M   'P 1'
_cell_length_a   7.76216550
_cell_length_b   7.76216521
_cell_length_c   7.76216486
_cell_angle_alpha   59.99999731
_cell_angle_beta   59.99999855
_cell_angle_gamma   60.00000021
_symmetry_Int_Tables_number   1
_chemical_formula_structural   Co2SiMo3N
_chemical_formula_sum   'Co8 Si4 Mo12 N4'
_cell_volume   330.69957095
_cell_formula_units_Z   4
loop_
 _symmetry_equiv_pos_site_id
 _symmetry_equiv_pos_as_xyz
  1  'x, y, z'
loop_
 _atom_site_type_symbol
 _atom_site_label
 _atom_site_symmetry_multiplicity
 _atom_site_fract_x
 _atom_site_fract_y
 _atom_site_fract_z
 _atom_site_occupancy
  Co  Co0  1  0.24471460  0.91842880  0.91842880  1
  Co  Co1  1  0.91842880  0.24471460  0.91842880  1
  Co  Co2  1  0.91842880  0.91842880  0.91842880  1
  Co  Co3  1  0.91842880  0.91842880  0.24471460  1
  Co  Co4  1  0.00528540  0.33157120  0.33157120  1
  Co  Co5  1  0.33157120  0.33157120  0.00528540  1
  Co  Co6  1  0.33157120  0.00528540  0.33157120  1
  Co  Co7  1  0.33157120  0.33157120  0.33157120  1
  Si  Si0  1  0.62500000  0.12500000  0.12500000  1
  Si  Si1  1  0.12500000  0.12500000  0.62500000  1
  Si  Si2  1  0.12500000  0.62500000  0.12500000  1
  Si  Si3  1  0.12500000  0.12500000  0.12500000  1
  Mo  Mo0  1  0.69572707  0.30427293  0.69572707  1
  Mo  Mo1  1  0.55427293  0.55427293  0.94572707  1
  Mo  Mo2  1  0.55427293  0.94572707  0.55427293  1
  Mo  Mo3  1  0.94572707  0.94572707  0.55427293  1
  Mo  Mo4  1  0.94572707  0.55427293  0.55427293  1
  Mo  Mo5  1  0.94572707  0.55427293  0.94572707  1
  Mo  Mo6  1  0.69572707  0.30427293  0.30427293  1
  Mo  Mo7  1  0.30427293  0.69572707  0.30427293  1
  Mo  Mo8  1  0.30427293  0.30427293  0.69572707  1
  Mo  Mo9  1  0.30427293  0.69572707  0.69572707  1
  Mo  Mo10  1  0.69572707  0.69572707  0.30427293  1
  Mo  Mo11  1  0.55427293  0.94572707  0.94572707  1
  N  N0  1  0.62500000  0.62500000  0.62500000  1
  N  N1  1  0.12500000  0.62500000  0.62500000  1
  N  N2  1  0.62500000  0.12500000  0.62500000  1
  N  N3  1  0.62500000  0.62500000  0.12500000  1
loop_
_geom_bond_atom_site_label_1
_geom_bond_atom_site_label_2
_geom_bond_distance
_geom_bond_site_symmetry_2
Co0 Si3 2.365709 1_566
Co0 Si1 2.365715 1_565
Co0 Si2 2.365715 1_556
Co0 Co3 2.532684 1_456
Co0 Co1 2.532684 1_465
Co0 Co2 2.532684 1_455
Co0 Mo11 2.631852 1_555
Co0 Mo2 2.631856 1_555
Co0 Mo1 2.631857 1_555
Co0 Mo7 2.753187 1_556
Co0 Mo8 2.753187 1_565
Co0 Mo9 2.753194 1_555
Co1 Si3 2.365709 1_656
Co1 Si1 2.365715 1_655
Co1 Si0 2.365715 1_556
Co1 Co3 2.532684 1_546
Co1 Co2 2.532684 1_545
Co1 Mo5 2.631852 1_555
Co1 Mo4 2.631856 1_555
Co1 Mo1 2.631857 1_555
Co1 Mo6 2.753187 1_556
Co1 Mo8 2.753187 1_655
Co1 Mo0 2.753194 1_555
Co2 Si1 2.365711 1_665
Co2 Si2 2.365711 1_656
Co2 Si0 2.365711 1_566
Co2 Co3 2.532684 1_556
Co2 Mo3 2.631860 1_555
Co2 Mo5 2.631860 1_555
Co2 Mo11 2.631860 1_555
Co2 Mo10 2.753190 1_556
Co2 Mo0 2.753190 1_565
Co2 Mo9 2.753190 1_655
Co3 Si3 2.365709 1_665
Co3 Si2 2.365715 1_655
Co3 Si0 2.365715 1_565
Co3 Mo3 2.631852 1_555
Co3 Mo4 2.631856 1_555
Co3 Mo2 2.631856 1_555
Co3 Mo6 2.753187 1_565
Co3 Mo7 2.753187 1_655
Co3 Mo10 2.753194 1_555
Co4 Si3 2.365709 1_555
Co4 Si1 2.365715 1_555
Co4 Si2 2.365715 1_555
Co4 Co5 2.532684 1_555
Co4 Co6 2.532684 1_555
Co4 Co7 2.532684 1_555
Co4 Mo6 2.631852 1_455
Co4 Mo0 2.631856 1_455
Co4 Mo10 2.631857 1_455
Co4 Mo5 2.753187 1_454
Co4 Mo3 2.753187 1_445
Co4 Mo4 2.753194 1_455
Co5 Si3 2.365709 1_555
Co5 Si2 2.365715 1_555
Co5 Si0 2.365715 1_555
Co5 Co6 2.532684 1_555
Co5 Co7 2.532684 1_555
Co5 Mo8 2.631852 1_554
Co5 Mo9 2.631856 1_554
Co5 Mo0 2.631856 1_554
Co5 Mo11 2.753187 1_544
Co5 Mo5 2.753187 1_454
Co5 Mo1 2.753194 1_554
Co6 Si3 2.365709 1_555
Co6 Si1 2.365715 1_555
Co6 Si0 2.365715 1_555
Co6 Co7 2.532684 1_555
Co6 Mo7 2.631852 1_545
Co6 Mo9 2.631856 1_545
Co6 Mo10 2.631857 1_545
Co6 Mo11 2.753187 1_544
Co6 Mo3 2.753187 1_445
Co6 Mo2 2.753194 1_545
Co7 Si1 2.365711 1_555
Co7 Si2 2.365711 1_555
Co7 Si0 2.365711 1_555
Co7 Mo8 2.631860 1_555
Co7 Mo7 2.631860 1_555
Co7 Mo6 2.631860 1_555
Co7 Mo1 2.753190 1_554
Co7 Mo2 2.753190 1_545
Co7 Mo4 2.753190 1_455
Mo0 N0 2.090094 1_555
Mo0 N2 2.090094 1_555
Mo0 Si0 2.763784 1_556
Mo0 Si1 2.763784 1_655
Mo1 N0 2.090094 1_555
Mo1 N3 2.090094 1_556
Mo1 Si0 2.763784 1_556
Mo1 Si2 2.763784 1_556
Mo2 N0 2.090094 1_555
Mo2 N2 2.090094 1_565
Mo2 Si0 2.763784 1_565
Mo2 Si1 2.763784 1_565
Mo3 N1 2.090094 1_655
Mo3 N2 2.090094 1_565
Mo3 Si3 2.763784 1_665
Mo3 Si1 2.763784 1_665
Mo4 N1 2.090094 1_655
Mo4 N0 2.090094 1_555
Mo4 Si2 2.763784 1_655
Mo4 Si1 2.763784 1_655
Mo5 N1 2.090094 1_655
Mo5 N3 2.090094 1_556
Mo5 Si3 2.763784 1_656
Mo5 Si2 2.763784 1_656
Mo6 N2 2.090094 1_555
Mo6 N3 2.090094 1_555
Mo6 Si0 2.763784 1_555
Mo6 Si3 2.763784 1_655
Mo7 N1 2.090094 1_555
Mo7 N3 2.090094 1_555
Mo7 Si3 2.763784 1_565
Mo7 Si2 2.763784 1_555
Mo8 N1 2.090094 1_555
Mo8 N2 2.090094 1_555
Mo8 Si3 2.763784 1_556
Mo8 Si1 2.763784 1_555
Mo9 N1 2.090094 1_555
Mo9 N0 2.090094 1_555
Mo9 Si2 2.763784 1_556
Mo9 Si1 2.763784 1_565
Mo10 N0 2.090094 1_555
Mo10 N3 2.090094 1_555
Mo10 Si0 2.763784 1_565
Mo10 Si2 2.763784 1_655
Mo11 N2 2.090094 1_565
Mo11 N3 2.090094 1_556
Mo11 Si0 2.763784 1_566
Mo11 Si3 2.763784 1_566
