# generated using pymatgen
data_Ba(HfSe2)8
_symmetry_space_group_name_H-M   'P 1'
_cell_length_a   7.50922359
_cell_length_b   7.50922320
_cell_length_c   15.37651948
_cell_angle_alpha   90.00000000
_cell_angle_beta   90.00000000
_cell_angle_gamma   119.99999300
_symmetry_Int_Tables_number   1
_chemical_formula_structural   Ba(HfSe2)8
_chemical_formula_sum   'Ba1 Hf8 Se16'
_cell_volume   750.89420780
_cell_formula_units_Z   1
loop_
 _symmetry_equiv_pos_site_id
 _symmetry_equiv_pos_as_xyz
  1  'x, y, z'
loop_
 _atom_site_type_symbol
 _atom_site_label
 _atom_site_symmetry_multiplicity
 _atom_site_fract_x
 _atom_site_fract_y
 _atom_site_fract_z
 _atom_site_occupancy
  Ba  Ba0  1  0.00000000  0.00000000  0.00000000  1
  Hf  Hf0  1  0.50187708  0.49812292  0.73759833  1
  Hf  Hf1  1  0.49812292  0.50187708  0.26240167  1
  Hf  Hf2  1  0.50187708  0.00375317  0.73759833  1
  Hf  Hf3  1  0.49812292  0.99624683  0.26240167  1
  Hf  Hf4  1  0.99624683  0.49812292  0.73759833  1
  Hf  Hf5  1  0.00375317  0.50187708  0.26240167  1
  Hf  Hf6  1  0.00000000  0.00000000  0.73498820  1
  Hf  Hf7  1  0.00000000  0.00000000  0.26501180  1
  Se  Se0  1  0.83251821  0.66503942  0.15891328  1
  Se  Se1  1  0.83314093  0.66628187  0.63643759  1
  Se  Se2  1  0.83251821  0.16748179  0.15891328  1
  Se  Se3  1  0.83314093  0.16685907  0.63643759  1
  Se  Se4  1  0.33333300  0.66666700  0.15806334  1
  Se  Se5  1  0.33333300  0.66666700  0.63917570  1
  Se  Se6  1  0.33496058  0.16748179  0.15891328  1
  Se  Se7  1  0.33371813  0.16685907  0.63643759  1
  Se  Se8  1  0.66503942  0.83251821  0.84108672  1
  Se  Se9  1  0.66628187  0.83314093  0.36356241  1
  Se  Se10  1  0.66666700  0.33333300  0.84193666  1
  Se  Se11  1  0.66666700  0.33333300  0.36082430  1
  Se  Se12  1  0.16748179  0.83251821  0.84108672  1
  Se  Se13  1  0.16685907  0.83314093  0.36356241  1
  Se  Se14  1  0.16748179  0.33496058  0.84108672  1
  Se  Se15  1  0.16685907  0.33371813  0.36356241  1
loop_
_geom_bond_atom_site_label_1
_geom_bond_atom_site_label_2
_geom_bond_distance
_geom_bond_site_symmetry_2
Ba0 Se14 3.273512 1_554
Ba0 Se0 3.273512 1_445
Ba0 Se6 3.273512 1_555
Ba0 Se8 3.273512 1_444
Ba0 Se12 3.273525 1_544
Ba0 Se2 3.273525 1_455
Hf0 Se7 2.657219 1_555
Hf0 Se1 2.657219 1_555
Hf0 Se5 2.663807 1_555
Hf0 Se10 2.677270 1_555
Hf0 Se8 2.694838 1_555
Hf0 Se14 2.694838 1_555
Hf1 Se9 2.657219 1_555
Hf1 Se15 2.657219 1_555
Hf1 Se11 2.663807 1_555
Hf1 Se4 2.677270 1_555
Hf1 Se6 2.694838 1_555
Hf1 Se0 2.694838 1_555
Hf2 Se3 2.657219 1_555
Hf2 Se7 2.657224 1_555
Hf2 Se5 2.663797 1_545
Hf2 Se10 2.677271 1_555
Hf2 Se12 2.694838 1_545
Hf2 Se8 2.694848 1_545
Hf3 Se13 2.657219 1_555
Hf3 Se9 2.657224 1_555
Hf3 Se11 2.663797 1_565
Hf3 Se4 2.677271 1_555
Hf3 Se2 2.694838 1_565
Hf3 Se6 2.694848 1_565
Hf4 Se3 2.657219 1_555
Hf4 Se1 2.657224 1_555
Hf4 Se5 2.663797 1_655
Hf4 Se10 2.677271 1_555
Hf4 Se12 2.694838 1_655
Hf4 Se14 2.694848 1_655
Hf5 Se13 2.657219 1_555
Hf5 Se15 2.657224 1_555
Hf5 Se11 2.663797 1_455
Hf5 Se4 2.677271 1_555
Hf5 Se2 2.694838 1_455
Hf5 Se0 2.694848 1_455
Hf6 Se3 2.646927 1_455
Hf6 Se1 2.646927 1_445
Hf6 Se7 2.646927 1_555
Hf6 Se14 2.721503 1_555
Hf6 Se8 2.721503 1_445
Hf6 Se12 2.721518 1_545
Hf7 Se13 2.646927 1_545
Hf7 Se15 2.646927 1_555
Hf7 Se9 2.646927 1_445
Hf7 Se0 2.721503 1_445
Hf7 Se6 2.721503 1_555
Hf7 Se2 2.721518 1_455
