# generated using pymatgen
data_LiTa2(AsRu)3
_symmetry_space_group_name_H-M   'P 1'
_cell_length_a   7.45184860
_cell_length_b   7.45184693
_cell_length_c   7.45184728
_cell_angle_alpha   127.96558725
_cell_angle_beta   119.86449593
_cell_angle_gamma   83.50372533
_symmetry_Int_Tables_number   1
_chemical_formula_structural   LiTa2(AsRu)3
_chemical_formula_sum   'Li2 Ta4 As6 Ru6'
_cell_volume   271.38076664
_cell_formula_units_Z   2
loop_
 _symmetry_equiv_pos_site_id
 _symmetry_equiv_pos_as_xyz
  1  'x, y, z'
loop_
 _atom_site_type_symbol
 _atom_site_label
 _atom_site_symmetry_multiplicity
 _atom_site_fract_x
 _atom_site_fract_y
 _atom_site_fract_z
 _atom_site_occupancy
  Li  Li0  1  0.48229340  0.23558085  0.25328645  1
  Li  Li1  1  0.51770660  0.77099205  0.75328645  1
  Ta  Ta0  1  0.75292777  0.67911188  0.42618411  1
  Ta  Ta1  1  0.24707223  0.67325634  0.92618411  1
  Ta  Ta2  1  0.05899842  0.84863020  0.28963278  1
  Ta  Ta3  1  0.94100158  0.23063436  0.78963278  1
  As  As0  1  0.82371688  0.57790181  0.73945557  1
  As  As1  1  0.17628312  0.91573869  0.75418493  1
  As  As2  1  0.66155275  0.91573869  0.23945557  1
  As  As3  1  0.33844725  0.57790181  0.25418493  1
  As  As4  1  0.29530739  0.30342484  0.50811745  1
  As  As5  1  0.70469261  0.21281006  0.00811745  1
  Ru  Ru0  1  0.66820396  0.49365440  0.91805067  1
  Ru  Ru1  1  0.33179604  0.24984471  0.82545044  1
  Ru  Ru2  1  0.92439627  0.24984471  0.41805067  1
  Ru  Ru3  1  0.07560373  0.49365440  0.32545044  1
  Ru  Ru4  1  0.00000000  0.00583860  0.00583860  1
  Ru  Ru5  1  0.50000000  0.00583860  0.50583860  1
loop_
_geom_bond_atom_site_label_1
_geom_bond_atom_site_label_2
_geom_bond_distance
_geom_bond_site_symmetry_2
Li0 Ru1 2.874473 1_554
Li0 Ru2 2.874490 1_555
Li0 Ru4 3.186847 1_555
Li0 Ru5 3.186851 1_555
Li1 Ru0 2.874481 1_555
Li1 Ru3 2.874487 1_555
Li1 Ru4 3.186847 1_666
Li1 Ru5 3.186851 1_565
As0 Ru0 2.497371 1_555
As0 Ru4 2.529375 1_666
As0 Ru2 2.538901 1_555
As0 Li1 2.567120 1_555
As0 Li0 2.650229 1_555
As0 Ta0 2.673310 1_555
As0 Ta1 2.704195 1_655
As0 Ta2 2.723554 1_656
As0 Ta3 2.820210 1_555
As1 Ru1 2.497358 1_565
As1 Ru4 2.529376 1_566
As1 Ru3 2.538896 1_555
As1 Li0 2.567125 1_566
As1 Li1 2.650233 1_555
As1 Ta1 2.673310 1_555
As1 Ta0 2.704195 1_455
As1 Ta3 2.723553 1_465
As1 Ta2 2.820206 1_555
As2 Ru2 2.497365 1_565
As2 Ru5 2.529369 1_565
As2 Ru0 2.538898 1_554
As2 Li0 2.567126 1_565
As2 Li1 2.650229 1_554
As2 Ta1 2.673305 1_554
As2 Ta0 2.704193 1_555
As2 Ta3 2.723554 1_565
As2 Ta2 2.820219 1_655
As3 Ru3 2.497378 1_555
As3 Ru5 2.529374 1_565
As3 Ru1 2.538895 1_554
As3 Li1 2.567127 1_555
As3 Li0 2.650221 1_555
As3 Ta0 2.673303 1_555
As3 Ta1 2.704192 1_554
As3 Ta2 2.723554 1_555
As3 Ta3 2.820215 1_454
As4 Ru3 2.484417 1_555
As4 Ru0 2.484418 1_555
As4 Ru2 2.514350 1_455
As4 Ru1 2.514358 1_555
As4 Ru5 2.541382 1_555
As4 Ru4 2.541382 1_555
As4 Li0 2.664155 1_555
As4 Ta1 2.785181 1_555
As4 Li1 2.946775 1_555
As4 Ta2 2.990585 1_545
As5 Ru1 2.484413 1_554
As5 Ru2 2.484426 1_555
As5 Ru0 2.514347 1_554
As5 Ru3 2.514348 1_655
As5 Ru5 2.541382 1_554
As5 Ru4 2.541382 1_655
As5 Li1 2.664159 1_544
As5 Ta0 2.785181 1_555
As5 Li0 2.946779 1_555
As5 Ta3 2.990578 1_554
Ru0 Ta3 2.760045 1_555
Ru0 Ru5 2.771069 1_555
Ru0 Ta2 2.800986 1_656
Ru0 Ta0 2.832741 1_556
Ru1 Ta2 2.760043 1_545
Ru1 Ru5 2.771068 1_555
Ru1 Ta3 2.800988 1_455
Ru1 Ta1 2.832754 1_555
Ru2 Ta2 2.760039 1_645
Ru2 Ru4 2.771069 1_655
Ru2 Ta3 2.800979 1_555
Ru2 Ta1 2.832747 1_655
Ru3 Ta3 2.760045 1_454
Ru3 Ru4 2.771068 1_555
Ru3 Ta2 2.800981 1_555
Ru3 Ta0 2.832741 1_455
Ru4 Ta3 2.836143 1_454
Ru4 Ta2 2.836149 1_545
Ru4 Ta1 2.851361 1_544
Ru4 Ta0 2.851361 1_444
Ru5 Ta3 2.836144 1_555
Ru5 Ta2 2.836145 1_545
Ru5 Ta0 2.851361 1_545
Ru5 Ta1 2.851361 1_544
