# generated using pymatgen
data_Ba4Be10AgAs10
_symmetry_space_group_name_H-M   'P 1'
_cell_length_a   9.06025786
_cell_length_b   9.06025452
_cell_length_c   9.06008053
_cell_angle_alpha   124.09004572
_cell_angle_beta   124.08813823
_cell_angle_gamma   83.05246985
_symmetry_Int_Tables_number   1
_chemical_formula_structural   Ba4Be10AgAs10
_chemical_formula_sum   'Ba4 Be10 Ag1 As10'
_cell_volume   489.44112372
_cell_formula_units_Z   1
loop_
 _symmetry_equiv_pos_site_id
 _symmetry_equiv_pos_as_xyz
  1  'x, y, z'
loop_
 _atom_site_type_symbol
 _atom_site_label
 _atom_site_symmetry_multiplicity
 _atom_site_fract_x
 _atom_site_fract_y
 _atom_site_fract_z
 _atom_site_occupancy
  Ba  Ba0  1  0.37687881  0.80571362  0.18259643  1
  Ba  Ba1  1  0.80571131  0.62311027  0.42882790  1
  Ba  Ba2  1  0.19428734  0.37688995  0.57117257  1
  Ba  Ba3  1  0.62311767  0.19428638  0.81740109  1
  Be  Be0  1  0.94727418  0.64739087  0.09845569  1
  Be  Be1  1  0.35264101  0.45106477  0.29991091  1
  Be  Be2  1  0.74998285  0.24999040  0.49998031  1
  Be  Be3  1  0.15116111  0.05274177  0.70013267  1
  Be  Be4  1  0.54893973  0.84883095  0.90158354  1
  Be  Be5  1  0.64735655  0.54893561  0.70008812  1
  Be  Be6  1  0.05272467  0.35260937  0.90154354  1
  Be  Be7  1  0.45105964  0.15116773  0.09841589  1
  Be  Be8  1  0.84884063  0.94725668  0.29986637  1
  Be  Be9  1  0.25001884  0.75001158  0.50002442  1
  Ag  Ag0  1  0.00000732  0.00002278  0.99999732  1
  As  As0  1  0.94466932  0.55166161  0.80013163  1
  As  As1  1  0.35099449  0.35100425  0.00001474  1
  As  As2  1  0.75152767  0.14452731  0.19985374  1
  As  As3  1  0.14453647  0.94467548  0.39300683  1
  As  As4  1  0.55166734  0.75151950  0.60698771  1
  As  As5  1  0.64900281  0.64898912  0.99998598  1
  As  As6  1  0.05532550  0.44833801  0.19986923  1
  As  As7  1  0.44832846  0.24847593  0.39300825  1
  As  As8  1  0.85547096  0.05531636  0.60699846  1
  As  As9  1  0.24847231  0.85546967  0.80014668  1
loop_
_geom_bond_atom_site_label_1
_geom_bond_atom_site_label_2
_geom_bond_distance
_geom_bond_site_symmetry_2
Ag0 As8 3.355293 1_455
Ag0 As6 3.355415 1_556
Ag0 As9 3.355434 1_545
Ag0 As7 3.355514 1_556
Ag0 As2 3.355591 1_456
Ag0 As4 3.355733 1_445
Ag0 As3 3.355736 1_546
Ag0 As0 3.355812 1_445
Ag0 Ba2 3.601757 1_556
Ag0 Ba1 3.601777 1_445
Ag0 Ba3 3.601778 1_455
Ag0 Ba0 3.601940 1_546
As0 Be5 2.309216 1_555
As0 Be0 2.315971 1_556
As0 Be2 2.331192 1_555
As0 Be6 2.340344 1_655
As0 Ba0 3.266376 1_656
As0 Ba1 3.288980 1_555
As0 Ba2 3.554659 1_655
As1 Be1 2.324051 1_555
As1 Be7 2.324061 1_555
As1 Be6 2.324140 1_554
As1 Be3 2.324146 1_554
As1 Ba0 3.453023 1_555
As1 Ba1 3.453051 1_555
As1 Ba2 3.453131 1_554
As1 Ba3 3.453160 1_554
As2 Be8 2.309039 1_545
As2 Be4 2.315835 1_544
As2 Be2 2.331083 1_555
As2 Be7 2.340330 1_555
As2 Ba3 3.266312 1_554
As2 Ba2 3.289113 1_655
As2 Ba1 3.554715 1_555
As3 Be0 2.308979 1_455
As3 Be8 2.315796 1_455
As3 Be9 2.331225 1_555
As3 Be3 2.340503 1_565
As3 Ba2 3.266364 1_565
As3 Ba0 3.288957 1_555
As3 Ba3 3.554753 1_565
As4 Be4 2.309235 1_555
As4 Be5 2.315789 1_555
As4 Be9 2.331101 1_555
As4 Be1 2.340175 1_555
As4 Ba1 3.266261 1_555
As4 Ba3 3.289099 1_565
As4 Ba0 3.554707 1_555
As5 Be5 2.324084 1_555
As5 Be4 2.324113 1_555
As5 Be0 2.324152 1_556
As5 Be8 2.324183 1_556
As5 Ba3 3.452960 1_555
As5 Ba2 3.453029 1_555
As5 Ba1 3.453086 1_556
As5 Ba0 3.453151 1_556
As6 Be1 2.309244 1_555
As6 Be6 2.316009 1_554
As6 Be9 2.331223 1_555
As6 Be0 2.340354 1_455
As6 Ba3 3.266364 1_454
As6 Ba2 3.288966 1_555
As6 Ba1 3.554626 1_455
As7 Be7 2.309232 1_555
As7 Be1 2.315813 1_555
As7 Be2 2.331126 1_555
As7 Be5 2.340208 1_555
As7 Ba2 3.266265 1_555
As7 Ba0 3.289064 1_545
As7 Ba3 3.554690 1_555
As8 Be6 2.309001 1_655
As8 Be3 2.315758 1_655
As8 Be2 2.331319 1_555
As8 Be8 2.340541 1_545
As8 Ba1 3.266282 1_545
As8 Ba3 3.288996 1_555
As8 Ba0 3.554812 1_545
As9 Be3 2.309058 1_565
As9 Be7 2.315842 1_566
As9 Be9 2.331066 1_555
As9 Be4 2.340326 1_555
As9 Ba0 3.266276 1_556
As9 Ba1 3.289116 1_455
As9 Ba2 3.554688 1_555
