# generated using pymatgen
data_Cs3Rb9(AlSe3)4
_symmetry_space_group_name_H-M   'P 1'
_cell_length_a   13.71917554
_cell_length_b   8.40901072
_cell_length_c   10.80030987
_cell_angle_alpha   53.50635434
_cell_angle_beta   89.68838656
_cell_angle_gamma   89.69476630
_symmetry_Int_Tables_number   1
_chemical_formula_structural   Cs3Rb9(AlSe3)4
_chemical_formula_sum   'Cs3 Rb9 Al4 Se12'
_cell_volume   1001.64908632
_cell_formula_units_Z   1
loop_
 _symmetry_equiv_pos_site_id
 _symmetry_equiv_pos_as_xyz
  1  'x, y, z'
loop_
 _atom_site_type_symbol
 _atom_site_label
 _atom_site_symmetry_multiplicity
 _atom_site_fract_x
 _atom_site_fract_y
 _atom_site_fract_z
 _atom_site_occupancy
  Cs  Cs0  1  0.31270654  0.16359549  0.06333248  1
  Cs  Cs1  1  0.68555054  0.83838411  0.93715093  1
  Cs  Cs2  1  0.81456825  0.83880130  0.43799101  1
  Rb  Rb0  1  0.90526745  0.32427535  0.39651147  1
  Rb  Rb1  1  0.62139045  0.37631361  0.47674055  1
  Rb  Rb2  1  0.12090725  0.62095353  0.02412691  1
  Rb  Rb3  1  0.37737762  0.62647151  0.52328628  1
  Rb  Rb4  1  0.88039215  0.37455369  0.97708680  1
  Rb  Rb5  1  0.59948810  0.32228645  0.89723442  1
  Rb  Rb6  1  0.09951621  0.67540605  0.60334051  1
  Rb  Rb7  1  0.39943715  0.67991225  0.10175217  1
  Rb  Rb8  1  0.18945948  0.15873331  0.56982906  1
  Al  Al0  1  0.06254996  0.94205499  0.15474555  1
  Al  Al1  1  0.55955789  0.05370976  0.34597727  1
  Al  Al2  1  0.43634469  0.95228068  0.65221400  1
  Al  Al3  1  0.94014376  0.05198945  0.84503256  1
  Se  Se0  1  0.40404408  0.17314871  0.37411989  1
  Se  Se1  1  0.90632669  0.83205812  0.12370119  1
  Se  Se2  1  0.59131227  0.83220162  0.62485635  1
  Se  Se3  1  0.09625253  0.16349819  0.87477174  1
  Se  Se4  1  0.67828818  0.30803026  0.20898430  1
  Se  Se5  1  0.17814693  0.67955915  0.29571065  1
  Se  Se6  1  0.31665779  0.70012557  0.78722208  1
  Se  Se7  1  0.82188860  0.30827565  0.70898957  1
  Se  Se8  1  0.54837645  0.87347585  0.24209545  1
  Se  Se9  1  0.05237981  0.12436588  0.25707733  1
  Se  Se10  1  0.44869316  0.13153304  0.75654774  1
  Se  Se11  1  0.95297602  0.87400341  0.73956873  1
loop_
_geom_bond_atom_site_label_1
_geom_bond_atom_site_label_2
_geom_bond_distance
_geom_bond_site_symmetry_2
Cs0 Se3 3.610198 1_554
Cs0 Se0 3.634691 1_555
Cs0 Se6 3.639857 1_554
Cs0 Se5 3.762000 1_545
Cs0 Se8 3.809746 1_545
Cs0 Se10 3.939753 1_554
Cs1 Se4 3.598084 1_556
Cs1 Se1 3.629527 1_556
Cs1 Se2 3.647910 1_555
Cs1 Se7 3.691985 1_565
Cs1 Se10 3.834686 1_565
Cs1 Se8 3.944421 1_556
Cs2 Se7 3.598064 1_555
Cs2 Se2 3.641271 1_555
Cs2 Se1 3.645787 1_555
Cs2 Se4 3.680411 1_565
Cs2 Se9 3.829063 1_665
Cs2 Se11 3.939827 1_555
Rb0 Se11 3.435961 1_545
Rb0 Se1 3.456808 1_555
Rb0 Se9 3.479809 1_655
Rb0 Se7 3.483651 1_555
Rb0 Se4 3.770907 1_555
Rb1 Se4 3.353742 1_555
Rb1 Se10 3.399694 1_555
Rb1 Se8 3.504913 1_555
Rb1 Se7 3.540714 1_555
Rb1 Se2 3.869216 1_545
Rb1 Se0 3.921833 1_555
Rb2 Se5 3.348388 1_555
Rb2 Se11 3.395158 1_454
Rb2 Se6 3.481397 1_554
Rb2 Se9 3.488648 1_555
Rb2 Se3 3.842725 1_564
Rb2 Se1 3.892925 1_455
Rb3 Se6 3.357396 1_555
Rb3 Se8 3.392953 1_555
Rb3 Se10 3.483896 1_555
Rb3 Se5 3.530760 1_555
Rb3 Se0 3.881259 1_565
Rb3 Se2 3.893195 1_555
Rb4 Se7 3.359838 1_555
Rb4 Se9 3.405195 1_656
Rb4 Se11 3.523188 1_555
Rb4 Se4 3.542334 1_556
Rb4 Se1 3.852413 1_546
Rb4 Se3 3.922004 1_655
Rb5 Se8 3.447822 1_546
Rb5 Se2 3.470892 1_555
Rb5 Se4 3.475319 1_556
Rb5 Se10 3.482844 1_555
Rb5 Se7 3.697367 1_555
Rb6 Se11 3.442398 1_455
Rb6 Se9 3.444331 1_565
Rb6 Se5 3.468041 1_555
Rb6 Se3 3.480851 1_555
Rb6 Se6 3.663846 1_555
Rb7 Se0 3.450400 1_555
Rb7 Se10 3.455097 1_564
Rb7 Se8 3.482203 1_555
Rb7 Se6 3.494494 1_554
Rb7 Se5 3.678121 1_555
Rb8 Se5 3.541906 1_555
Rb8 Se3 3.548849 1_555
Rb8 Se6 3.554260 1_545
Rb8 Se0 3.574988 1_555
Rb8 Se11 3.796894 1_445
Rb8 Se9 4.033101 1_555
Rb8 Se10 4.035872 1_555
Al0 Se9 2.366991 1_565
Al0 Se5 2.386825 1_555
Al0 Se1 2.441177 1_455
Al0 Se3 2.474089 1_564
Al1 Se8 2.367757 1_545
Al1 Se4 2.379733 1_555
Al1 Se0 2.446686 1_555
Al1 Se2 2.462454 1_545
Al2 Se10 2.365513 1_565
Al2 Se6 2.377350 1_555
Al2 Se2 2.439684 1_555
Al2 Se0 2.457099 1_565
Al2 Rb8 3.662042 1_565
Al3 Se11 2.364589 1_545
Al3 Se7 2.378579 1_555
Al3 Se3 2.440560 1_655
Al3 Se1 2.463140 1_546
