# generated using pymatgen
data_LaScO3
_symmetry_space_group_name_H-M   'P 1'
_cell_length_a   5.68506091
_cell_length_b   5.80353077
_cell_length_c   8.10225831
_cell_angle_alpha   90.00000000
_cell_angle_beta   90.00000000
_cell_angle_gamma   90.00000000
_symmetry_Int_Tables_number   1
_chemical_formula_structural   LaScO3
_chemical_formula_sum   'La4 Sc4 O12'
_cell_volume   267.32125934
_cell_formula_units_Z   4
loop_
 _symmetry_equiv_pos_site_id
 _symmetry_equiv_pos_as_xyz
  1  'x, y, z'
loop_
 _atom_site_type_symbol
 _atom_site_label
 _atom_site_symmetry_multiplicity
 _atom_site_fract_x
 _atom_site_fract_y
 _atom_site_fract_z
 _atom_site_occupancy
  La  La0  1  0.01146135  0.95538491  0.25000000  1
  La  La1  1  0.51146135  0.54461509  0.75000000  1
  La  La2  1  0.48853865  0.45538491  0.25000000  1
  La  La3  1  0.98853865  0.04461509  0.75000000  1
  Sc  Sc0  1  0.00000000  0.50000000  -0.00000000  1
  Sc  Sc1  1  0.50000000  -0.00000000  -0.00000000  1
  Sc  Sc2  1  0.50000000  -0.00000000  0.50000000  1
  Sc  Sc3  1  0.00000000  0.50000000  0.50000000  1
  O  O0  1  0.89948015  0.53377341  0.25000000  1
  O  O1  1  0.39948015  0.96622659  0.75000000  1
  O  O2  1  0.60051985  0.03377341  0.25000000  1
  O  O3  1  0.10051985  0.46622659  0.75000000  1
  O  O4  1  0.70362041  0.29627833  0.94647568  1
  O  O5  1  0.20362041  0.20372167  0.05352432  1
  O  O6  1  0.79637959  0.79627833  0.55352432  1
  O  O7  1  0.29637959  0.70372167  0.44647568  1
  O  O8  1  0.29637959  0.70372167  0.05352432  1
  O  O9  1  0.79637959  0.79627833  0.94647568  1
  O  O10  1  0.20362041  0.20372167  0.44647568  1
  O  O11  1  0.70362041  0.29627833  0.55352432  1
loop_
_geom_bond_atom_site_label_1
_geom_bond_atom_site_label_2
_geom_bond_distance
_geom_bond_site_symmetry_2
La0 O2 2.380109 1_465
La0 O10 2.409294 1_565
La0 O5 2.409294 1_565
La0 O0 2.528297 1_455
La0 O7 2.700181 1_555
La0 O8 2.700181 1_555
La0 O6 2.897513 1_455
La0 O9 2.897513 1_454
La1 O3 2.380109 1_555
La1 O4 2.409294 1_555
La1 O11 2.409294 1_555
La1 O1 2.528297 1_555
La1 O9 2.700181 1_555
La1 O6 2.700181 1_555
La1 O8 2.897513 1_556
La1 O7 2.897513 1_555
La2 O0 2.380109 1_555
La2 O7 2.409294 1_555
La2 O8 2.409294 1_555
La2 O2 2.528297 1_555
La2 O5 2.700181 1_555
La2 O10 2.700181 1_555
La2 O4 2.897513 1_554
La2 O11 2.897513 1_555
La3 O1 2.380109 1_645
La3 O9 2.409294 1_545
La3 O6 2.409294 1_545
La3 O3 2.528297 1_655
La3 O4 2.700181 1_555
La3 O11 2.700181 1_555
La3 O5 2.897513 1_656
La3 O10 2.897513 1_655
O0 Sc3 2.113740 1_655
O0 Sc0 2.113740 1_655
O1 Sc1 2.113740 1_566
O1 Sc2 2.113740 1_565
O2 Sc1 2.113740 1_555
O2 Sc2 2.113740 1_555
O3 Sc0 2.113740 1_556
O3 Sc3 2.113740 1_555
O4 Sc0 2.103550 1_656
O4 Sc1 2.117696 1_556
O5 Sc1 2.103550 1_555
O5 Sc0 2.117696 1_555
O6 Sc2 2.103550 1_565
O6 Sc3 2.117696 1_655
O7 Sc3 2.103550 1_555
O7 Sc2 2.117696 1_565
O8 Sc0 2.103550 1_555
O8 Sc1 2.117696 1_565
O9 Sc1 2.103550 1_566
O9 Sc0 2.117696 1_656
O10 Sc2 2.103550 1_555
O10 Sc3 2.117696 1_555
O11 Sc3 2.103550 1_655
O11 Sc2 2.117696 1_555
