# generated using pymatgen
data_Pr5CuSe8
_symmetry_space_group_name_H-M   'P 1'
_cell_length_a   7.75442748
_cell_length_b   7.75442748
_cell_length_c   7.75442748
_cell_angle_alpha   110.34789230
_cell_angle_beta   110.34789230
_cell_angle_gamma   107.73175562
_symmetry_Int_Tables_number   1
_chemical_formula_structural   Pr5CuSe8
_chemical_formula_sum   'Pr5 Cu1 Se8'
_cell_volume   358.69731972
_cell_formula_units_Z   1
loop_
 _symmetry_equiv_pos_site_id
 _symmetry_equiv_pos_as_xyz
  1  'x, y, z'
loop_
 _atom_site_type_symbol
 _atom_site_label
 _atom_site_symmetry_multiplicity
 _atom_site_fract_x
 _atom_site_fract_y
 _atom_site_fract_z
 _atom_site_occupancy
  Pr  Pr0  1  0.23893100  0.62050300  0.12220400  1
  Pr  Pr1  1  0.37949700  0.50170100  0.61842700  1
  Pr  Pr2  1  0.49829900  0.11672700  0.87779600  1
  Pr  Pr3  1  0.75000000  0.25000000  0.50000000  1
  Pr  Pr4  1  0.88327300  0.76106900  0.38157300  1
  Cu  Cu0  1  0.00000000  0.00000000  0.00000000  1
  Se  Se0  1  0.60566000  0.86498000  0.10380400  1
  Se  Se1  1  0.65218500  0.89130600  0.63044200  1
  Se  Se2  1  0.26086400  0.02174300  0.36955800  1
  Se  Se3  1  0.49814400  0.39434000  0.25932000  1
  Se  Se4  1  0.76117600  0.50185600  0.89619600  1
  Se  Se5  1  0.10869400  0.73913600  0.76087900  1
  Se  Se6  1  0.97825700  0.34781500  0.23912100  1
  Se  Se7  1  0.13502000  0.23882400  0.74068000  1
loop_
_geom_bond_atom_site_label_1
_geom_bond_atom_site_label_2
_geom_bond_distance
_geom_bond_site_symmetry_2
Pr0 Se2 2.947744 1_565
Pr0 Se0 2.981240 1_555
Pr0 Se7 2.993639 1_554
Pr0 Se6 3.063226 1_455
Pr0 Se4 3.151196 1_454
Pr0 Se5 3.179188 1_554
Pr0 Se3 3.194408 1_555
Pr0 Se1 3.402002 1_555
Pr1 Se6 2.947740 1_455
Pr1 Se7 2.981246 1_555
Pr1 Se4 2.993641 1_555
Pr1 Se1 3.063222 1_555
Pr1 Se3 3.151189 1_555
Pr1 Se2 3.179187 1_555
Pr1 Se0 3.194413 1_556
Pr1 Se5 3.402005 1_555
Pr2 Se1 2.947744 1_545
Pr2 Se4 2.981240 1_555
Pr2 Se3 2.993639 1_556
Pr2 Se5 3.063226 1_545
Pr2 Se0 3.151196 1_546
Pr2 Se6 3.179188 1_556
Pr2 Se7 3.194408 1_555
Pr2 Se2 3.402002 1_555
Pr3 Se0 2.966409 1_545
Pr3 Se4 2.966409 1_555
Pr3 Se3 2.966409 1_555
Pr3 Se7 2.966409 1_655
Pr3 Se6 3.246548 1_555
Pr3 Se2 3.246548 1_555
Pr3 Se5 3.246548 1_655
Pr3 Se1 3.246548 1_545
Pr4 Se5 2.947737 1_655
Pr4 Se3 2.981238 1_555
Pr4 Se0 2.993643 1_555
Pr4 Se2 3.063231 1_665
Pr4 Se7 3.151194 1_665
Pr4 Se1 3.179183 1_555
Pr4 Se4 3.194415 1_554
Pr4 Se6 3.402003 1_555
Cu0 Se1 2.785228 1_444
Cu0 Se2 2.785228 1_555
Cu0 Se5 2.785228 1_544
Cu0 Se6 2.785228 1_455
