# generated using pymatgen
data_Zr6Al16Pd6Rh
_symmetry_space_group_name_H-M   'P 1'
_cell_length_a   8.72546358
_cell_length_b   8.72546388
_cell_length_c   8.72546385
_cell_angle_alpha   59.99996763
_cell_angle_beta   59.99997531
_cell_angle_gamma   59.99997566
_symmetry_Int_Tables_number   1
_chemical_formula_structural   Zr6Al16Pd6Rh
_chemical_formula_sum   'Zr6 Al16 Pd6 Rh1'
_cell_volume   469.73215840
_cell_formula_units_Z   1
loop_
 _symmetry_equiv_pos_site_id
 _symmetry_equiv_pos_as_xyz
  1  'x, y, z'
loop_
 _atom_site_type_symbol
 _atom_site_label
 _atom_site_symmetry_multiplicity
 _atom_site_fract_x
 _atom_site_fract_y
 _atom_site_fract_z
 _atom_site_occupancy
  Zr  Zr0  1  0.68767672  0.68767676  0.31232324  1
  Zr  Zr1  1  0.31232328  0.68767676  0.31232324  1
  Zr  Zr2  1  0.68767696  0.31232297  0.31232297  1
  Zr  Zr3  1  0.31232328  0.31232324  0.68767676  1
  Zr  Zr4  1  0.68767672  0.31232324  0.68767676  1
  Zr  Zr5  1  0.31232304  0.68767703  0.68767703  1
  Al  Al0  1  0.88121470  0.88121464  0.35635504  1
  Al  Al1  1  0.88121470  0.35635504  0.88121464  1
  Al  Al2  1  0.35635522  0.88121462  0.88121462  1
  Al  Al3  1  0.88121474  0.88121474  0.88121474  1
  Al  Al4  1  0.11878530  0.11878536  0.64364496  1
  Al  Al5  1  0.11878530  0.64364496  0.11878536  1
  Al  Al6  1  0.64364478  0.11878538  0.11878538  1
  Al  Al7  1  0.11878526  0.11878526  0.11878526  1
  Al  Al8  1  0.66699949  0.66699926  0.99900085  1
  Al  Al9  1  0.66699949  0.99900085  0.66699926  1
  Al  Al10  1  0.99900151  0.66699912  0.66699912  1
  Al  Al11  1  0.66699887  0.66699873  0.66699873  1
  Al  Al12  1  0.33300051  0.33300074  0.00099915  1
  Al  Al13  1  0.33300051  0.00099915  0.33300074  1
  Al  Al14  1  0.00099849  0.33300088  0.33300088  1
  Al  Al15  1  0.33300113  0.33300127  0.33300127  1
  Pd  Pd0  1  0.00000000  0.00000000  0.50000000  1
  Pd  Pd1  1  0.50000000  0.00000000  0.50000000  1
  Pd  Pd2  1  0.00000000  0.50000000  0.50000000  1
  Pd  Pd3  1  0.50000000  0.50000000  0.00000000  1
  Pd  Pd4  1  0.00000000  0.50000000  0.00000000  1
  Pd  Pd5  1  0.50000000  0.00000000  0.00000000  1
  Rh  Rh0  1  0.00000000  0.00000000  0.00000000  1
loop_
_geom_bond_atom_site_label_1
_geom_bond_atom_site_label_2
_geom_bond_distance
_geom_bond_site_symmetry_2
Zr0 Zr4 3.275132 1_555
Zr0 Zr1 3.275133 1_555
Zr0 Zr5 3.275134 1_555
Zr0 Zr2 3.275136 1_555
Zr1 Zr3 3.275132 1_555
Zr1 Zr2 3.275134 1_555
Zr1 Zr5 3.275136 1_555
Zr2 Zr3 3.275134 1_555
Zr2 Zr4 3.275136 1_555
Zr3 Zr4 3.275133 1_555
Zr3 Zr5 3.275136 1_555
Zr4 Zr5 3.275134 1_555
Al0 Rh0 2.538783 1_665
Al0 Pd2 2.718777 1_655
Al0 Pd1 2.718777 1_565
Al0 Pd0 2.718785 1_665
Al0 Zr0 3.162343 1_555
Al0 Zr2 3.162346 1_565
Al0 Zr1 3.162349 1_655
Al1 Rh0 2.538783 1_656
Al1 Pd2 2.718777 1_655
Al1 Pd3 2.718777 1_556
Al1 Pd4 2.718785 1_656
Al1 Zr4 3.162343 1_555
Al1 Zr2 3.162346 1_556
Al1 Zr3 3.162349 1_655
Al2 Rh0 2.538785 1_566
Al2 Pd1 2.718777 1_565
Al2 Pd3 2.718777 1_556
Al2 Pd5 2.718785 1_566
Al2 Zr5 3.162340 1_555
Al2 Zr1 3.162348 1_556
Al2 Zr3 3.162348 1_565
Al3 Rh0 2.538790 1_666
Al3 Pd0 2.718777 1_665
Al3 Pd4 2.718777 1_656
Al3 Pd5 2.718777 1_566
Al3 Zr5 3.162344 1_655
Al3 Zr0 3.162346 1_556
Al3 Zr4 3.162346 1_565
Al4 Rh0 2.538783 1_556
Al4 Pd2 2.718777 1_555
Al4 Pd1 2.718777 1_555
Al4 Pd0 2.718785 1_555
Al4 Zr3 3.162343 1_555
Al4 Zr5 3.162346 1_545
Al4 Zr4 3.162349 1_455
Al5 Rh0 2.538783 1_565
Al5 Pd2 2.718777 1_555
Al5 Pd3 2.718777 1_555
Al5 Pd4 2.718785 1_555
Al5 Zr1 3.162343 1_555
Al5 Zr5 3.162346 1_554
Al5 Zr0 3.162349 1_455
Al6 Rh0 2.538785 1_655
Al6 Pd1 2.718777 1_555
Al6 Pd3 2.718777 1_555
Al6 Pd5 2.718785 1_555
Al6 Zr2 3.162340 1_555
Al6 Zr4 3.162348 1_554
Al6 Zr0 3.162348 1_545
Al7 Rh0 2.538790 1_555
Al7 Pd0 2.718777 1_555
Al7 Pd4 2.718777 1_555
Al7 Pd5 2.718777 1_555
Al7 Zr2 3.162344 1_455
Al7 Zr3 3.162346 1_554
Al7 Zr1 3.162346 1_545
Al8 Pd3 2.518830 1_556
Al8 Pd4 2.518836 1_656
Al8 Pd5 2.518837 1_566
Al8 Zr2 2.925444 1_556
Al8 Zr1 2.925445 1_556
Al8 Zr0 2.925451 1_556
Al9 Pd1 2.518830 1_565
Al9 Pd0 2.518836 1_665
Al9 Pd5 2.518837 1_566
Al9 Zr2 2.925444 1_565
Al9 Zr3 2.925445 1_565
Al9 Zr4 2.925451 1_565
Al10 Pd2 2.518829 1_655
Al10 Pd4 2.518836 1_656
Al10 Pd0 2.518836 1_665
Al10 Zr1 2.925441 1_655
Al10 Zr3 2.925441 1_655
Al10 Zr5 2.925449 1_655
Al11 Pd2 2.518833 1_655
Al11 Pd3 2.518834 1_556
Al11 Pd1 2.518834 1_565
Al11 Zr0 2.925432 1_555
Al11 Zr4 2.925432 1_555
Al11 Zr5 2.925432 1_555
Al12 Pd3 2.518830 1_555
Al12 Pd4 2.518836 1_555
Al12 Pd5 2.518837 1_555
Al12 Zr5 2.925444 1_554
Al12 Zr4 2.925445 1_554
Al12 Zr3 2.925451 1_554
Al13 Pd1 2.518830 1_555
Al13 Pd0 2.518836 1_555
Al13 Pd5 2.518837 1_555
Al13 Zr5 2.925444 1_545
Al13 Zr0 2.925445 1_545
Al13 Zr1 2.925451 1_545
Al14 Pd2 2.518829 1_555
Al14 Pd4 2.518836 1_555
Al14 Pd0 2.518836 1_555
Al14 Zr4 2.925441 1_455
Al14 Zr0 2.925441 1_455
Al14 Zr2 2.925449 1_455
Al15 Pd2 2.518833 1_555
Al15 Pd3 2.518834 1_555
Al15 Pd1 2.518834 1_555
Al15 Zr3 2.925432 1_555
Al15 Zr1 2.925432 1_555
Al15 Zr2 2.925432 1_555
Pd0 Zr2 3.179330 1_455
Pd0 Zr5 3.179330 1_545
Pd0 Zr4 3.179331 1_455
Pd0 Zr1 3.179331 1_545
Pd1 Zr2 3.179330 1_555
Pd1 Zr5 3.179330 1_545
Pd1 Zr3 3.179332 1_555
Pd1 Zr0 3.179332 1_545
Pd2 Zr1 3.179332 1_555
Pd2 Zr4 3.179332 1_455
Pd2 Zr3 3.179332 1_555
Pd2 Zr0 3.179332 1_455
Pd3 Zr2 3.179330 1_555
Pd3 Zr5 3.179330 1_554
Pd3 Zr1 3.179332 1_555
Pd3 Zr4 3.179332 1_554
Pd4 Zr5 3.179330 1_554
Pd4 Zr2 3.179330 1_455
Pd4 Zr0 3.179331 1_455
Pd4 Zr3 3.179331 1_554
Pd5 Zr4 3.179330 1_554
Pd5 Zr1 3.179330 1_545
Pd5 Zr0 3.179330 1_545
Pd5 Zr3 3.179330 1_554
