# generated using pymatgen
data_Sr8Si12Hg3Pt
_symmetry_space_group_name_H-M   'P 1'
_cell_length_a   11.91425056
_cell_length_b   10.31687355
_cell_length_c   8.41890100
_cell_angle_alpha   78.25300634
_cell_angle_beta   58.03267139
_cell_angle_gamma   43.77474856
_symmetry_Int_Tables_number   1
_chemical_formula_structural   Sr8Si12Hg3Pt
_chemical_formula_sum   'Sr8 Si12 Hg3 Pt1'
_cell_volume   578.51757986
_cell_formula_units_Z   1
loop_
 _symmetry_equiv_pos_site_id
 _symmetry_equiv_pos_as_xyz
  1  'x, y, z'
loop_
 _atom_site_type_symbol
 _atom_site_label
 _atom_site_symmetry_multiplicity
 _atom_site_fract_x
 _atom_site_fract_y
 _atom_site_fract_z
 _atom_site_occupancy
  Sr  Sr0  1  0.12341219  0.13163707  0.87919411  1
  Sr  Sr1  1  0.87919511  0.86575763  0.12341119  1
  Sr  Sr2  1  0.12448752  0.13304733  0.36870520  1
  Sr  Sr3  1  0.36870620  0.37376094  0.12448652  1
  Sr  Sr4  1  0.63276489  0.62011178  0.37019500  1
  Sr  Sr5  1  0.37019500  0.37692933  0.63276489  1
  Sr  Sr6  1  0.62771537  0.62894811  0.87255281  1
  Sr  Sr7  1  0.87255381  0.87078471  0.62771437  1
  Si  Si0  1  0.92128791  0.58403358  0.40889979  1
  Si  Si1  1  0.06227786  0.43310587  0.59515631  1
  Si  Si2  1  0.40889979  0.08577872  0.92128791  1
  Si  Si3  1  0.59515631  0.90945997  0.06227786  1
  Si  Si4  1  0.34027248  0.65958911  0.81971572  1
  Si  Si5  1  0.65621985  0.33688350  0.18391385  1
  Si  Si6  1  0.81971572  0.18042369  0.34027248  1
  Si  Si7  1  0.18391385  0.82298380  0.65621985  1
  Si  Si8  1  0.91957646  0.58042454  0.91957546  1
  Si  Si9  1  0.59227945  0.90772155  0.59227845  1
  Si  Si10  1  0.34027321  0.65972779  0.34027321  1
  Si  Si11  1  0.66015846  0.33984154  0.66015846  1
  Hg  Hg0  1  0.83344365  0.16655635  0.83344365  1
  Hg  Hg1  1  0.16720280  0.83279720  0.16720280  1
  Hg  Hg2  1  0.41703424  0.08296576  0.41703424  1
  Pt  Pt0  1  0.08326190  0.41673810  0.08326190  1
loop_
_geom_bond_atom_site_label_1
_geom_bond_atom_site_label_2
_geom_bond_distance
_geom_bond_site_symmetry_2
Si0 Si9 2.384981 1_555
Si0 Si1 2.392229 1_655
Si0 Sr3 3.279477 1_655
Si0 Sr1 3.286787 1_555
Si0 Sr7 3.329955 1_555
Si0 Sr2 3.336238 1_655
Si0 Sr4 3.369020 1_555
Si0 Sr6 3.409483 1_555
Si1 Si8 2.387869 1_455
Si1 Sr6 3.217721 1_455
Si1 Sr7 3.268335 1_455
Si1 Sr2 3.370535 1_555
Si1 Sr0 3.386238 1_555
Si1 Sr3 3.441917 1_555
Si1 Sr5 3.461142 1_555
Si2 Si9 2.384982 1_545
Si2 Si3 2.392229 1_546
Si2 Sr2 3.279464 1_556
Si2 Sr0 3.286774 1_555
Si2 Sr6 3.329943 1_545
Si2 Sr3 3.336251 1_556
Si2 Sr5 3.369027 1_555
Si2 Sr7 3.409496 1_545
Si3 Si8 2.387868 1_554
Si3 Sr7 3.217735 1_554
Si3 Sr6 3.268322 1_554
Si3 Sr3 3.370548 1_565
Si3 Sr1 3.386250 1_555
Si3 Sr2 3.441905 1_565
Si3 Sr4 3.461136 1_555
Si4 Si7 2.332808 1_555
Si4 Sr5 3.298746 1_555
Si4 Sr4 3.353420 1_555
Si4 Sr1 3.421520 1_456
Si4 Sr3 3.433790 1_556
Si4 Sr6 3.466778 1_555
Si4 Sr0 3.477863 1_565
Si5 Si6 2.332808 1_555
Si5 Sr5 3.321168 1_555
Si5 Sr4 3.361328 1_555
Si5 Sr1 3.445258 1_545
Si5 Sr3 3.461835 1_555
Si5 Sr0 3.481162 1_654
Si5 Sr6 3.509229 1_554
Si6 Sr4 3.298746 1_555
Si6 Sr5 3.353420 1_555
Si6 Sr0 3.421530 1_654
Si6 Sr2 3.433796 1_655
Si6 Sr7 3.466772 1_545
Si6 Sr1 3.477859 1_545
Si7 Sr4 3.321167 1_555
Si7 Sr5 3.361328 1_555
Si7 Sr0 3.445262 1_565
Si7 Sr2 3.461842 1_565
Si7 Sr1 3.481153 1_456
Si7 Sr7 3.509222 1_455
Si8 Sr1 3.313524 1_556
Si8 Sr0 3.313524 1_655
Si8 Sr5 3.334943 1_655
Si8 Sr4 3.334952 1_556
Si8 Sr6 3.370759 1_555
Si8 Sr7 3.370759 1_555
Si9 Sr7 3.248965 1_555
Si9 Sr6 3.248965 1_555
Si9 Sr0 3.424182 1_565
Si9 Sr1 3.424183 1_555
Si9 Sr5 3.430742 1_565
Si9 Sr4 3.430745 1_555
Si10 Si7 2.329922 1_555
Si10 Si5 2.329926 1_555
Si10 Sr4 3.347420 1_555
Si10 Sr5 3.347427 1_555
Si10 Sr7 3.463237 1_455
Si10 Sr6 3.463242 1_554
Si10 Sr2 3.493805 1_565
Si10 Sr3 3.493810 1_555
Si11 Si6 2.332154 1_555
Si11 Si4 2.332158 1_555
Si11 Sr5 3.321638 1_555
Si11 Sr4 3.321645 1_555
Si11 Sr3 3.448248 1_556
Si11 Sr2 3.448261 1_655
Si11 Sr7 3.466687 1_545
Si11 Sr6 3.466700 1_555
Hg0 Si11 2.526634 1_555
Hg0 Si7 2.531435 1_645
Hg0 Si5 2.531438 1_556
Hg0 Sr1 3.430530 1_546
Hg0 Sr0 3.430543 1_655
Hg0 Sr7 3.431084 1_545
Hg0 Sr6 3.431097 1_555
Hg0 Sr3 3.450434 1_556
Hg0 Sr2 3.450448 1_655
Hg1 Si10 2.523503 1_555
Hg1 Si4 2.534439 1_554
Hg1 Si6 2.534442 1_465
Hg1 Sr1 3.410201 1_455
Hg1 Sr0 3.410214 1_564
Hg1 Sr3 3.417762 1_555
Hg1 Sr2 3.417775 1_565
Hg1 Sr7 3.424730 1_455
Hg1 Sr6 3.424743 1_554
Hg2 Si9 2.555206 1_545
Hg2 Si1 2.570521 1_555
Hg2 Si3 2.570521 1_545
Hg2 Sr2 3.375851 1_555
Hg2 Sr3 3.375864 1_555
Hg2 Sr0 3.387492 1_555
Hg2 Sr1 3.387505 1_545
Hg2 Sr4 3.396066 1_545
Hg2 Sr5 3.396075 1_555
Pt0 Si8 2.386670 1_454
Pt0 Si2 2.394486 1_554
Pt0 Si0 2.394486 1_455
Pt0 Sr2 3.300351 1_555
Pt0 Sr3 3.300364 1_555
Pt0 Sr0 3.314733 1_554
Pt0 Sr1 3.314747 1_455
Pt0 Sr4 3.334309 1_455
Pt0 Sr5 3.334313 1_554
