# generated using pymatgen
data_Y2P4O13
_symmetry_space_group_name_H-M   'P 1'
_cell_length_a   9.35162600
_cell_length_b   9.35162600
_cell_length_c   8.57000744
_cell_angle_alpha   90.00000000
_cell_angle_beta   90.00000000
_cell_angle_gamma   135.93124048
_symmetry_Int_Tables_number   1
_chemical_formula_structural   Y2P4O13
_chemical_formula_sum   'Y4 P8 O26'
_cell_volume   521.27367140
_cell_formula_units_Z   2
loop_
 _symmetry_equiv_pos_site_id
 _symmetry_equiv_pos_as_xyz
  1  'x, y, z'
loop_
 _atom_site_type_symbol
 _atom_site_label
 _atom_site_symmetry_multiplicity
 _atom_site_fract_x
 _atom_site_fract_y
 _atom_site_fract_z
 _atom_site_occupancy
  Y  Y0  1  0.89637812  0.60276850  0.85372869  1
  Y  Y1  1  0.60276850  0.89637812  0.14627131  1
  Y  Y2  1  0.10362188  0.39723150  0.35372869  1
  Y  Y3  1  0.39723150  0.10362188  0.64627131  1
  P  P0  1  0.41820865  0.09957773  0.00135744  1
  P  P1  1  0.09957773  0.41820865  0.99864256  1
  P  P2  1  0.58179135  0.90042227  0.50135744  1
  P  P3  1  0.90042227  0.58179135  0.49864256  1
  P  P4  1  0.27831616  0.15195274  0.27338615  1
  P  P5  1  0.15195274  0.27831616  0.72661385  1
  P  P6  1  0.72168384  0.84804726  0.77338615  1
  P  P7  1  0.84804726  0.72168384  0.22661385  1
  O  O0  1  0.48222759  0.02741133  0.10787787  1
  O  O1  1  0.02741133  0.48222759  0.89212213  1
  O  O2  1  0.51777241  0.97258867  0.60787787  1
  O  O3  1  0.97258867  0.51777241  0.39212213  1
  O  O4  1  0.22624194  0.93021135  0.90384881  1
  O  O5  1  0.93021135  0.22624194  0.09615119  1
  O  O6  1  0.77375806  0.06978865  0.40384881  1
  O  O7  1  0.06978865  0.77375806  0.59615119  1
  O  O8  1  0.57906655  0.26299571  0.88350309  1
  O  O9  1  0.26299571  0.57906655  0.11649691  1
  O  O10  1  0.42093345  0.73700429  0.38350309  1
  O  O11  1  0.73700429  0.42093345  0.61649691  1
  O  O12  1  0.08585611  0.91414389  0.25000000  1
  O  O13  1  0.91414389  0.08585611  0.75000000  1
  O  O14  1  0.78822452  0.62081606  0.39399388  1
  O  O15  1  0.62081606  0.78822452  0.60600612  1
  O  O16  1  0.21177548  0.37918394  0.89399388  1
  O  O17  1  0.37918394  0.21177548  0.10600612  1
  O  O18  1  0.73993124  0.78164654  0.20218247  1
  O  O19  1  0.78164654  0.73993124  0.79781753  1
  O  O20  1  0.26006876  0.21835346  0.70218247  1
  O  O21  1  0.21835346  0.26006876  0.29781753  1
  O  O22  1  0.82567787  0.59417794  0.10429504  1
  O  O23  1  0.59417794  0.82567787  0.89570496  1
  O  O24  1  0.17432213  0.40582206  0.60429504  1
  O  O25  1  0.40582206  0.17432213  0.39570496  1
loop_
_geom_bond_atom_site_label_1
_geom_bond_atom_site_label_2
_geom_bond_distance
_geom_bond_site_symmetry_2
O0 P0 1.492590 1_555
O0 Y1 2.205778 1_545
O1 P1 1.492590 1_555
O1 Y0 2.205778 1_455
O2 P2 1.492590 1_555
O2 Y3 2.205778 1_565
O3 P3 1.492590 1_555
O3 Y2 2.205778 1_655
O4 P0 1.530929 1_566
O4 Y0 2.345838 1_455
O4 Y3 2.516584 1_565
O5 P1 1.530929 1_654
O5 Y1 2.345838 1_545
O5 Y2 2.516584 1_655
O6 P2 1.530929 1_545
O6 Y2 2.345838 1_655
O6 Y1 2.516584 1_545
O7 P3 1.530929 1_455
O7 Y3 2.345838 1_565
O7 Y0 2.516584 1_455
O8 P0 1.521494 1_556
O8 Y0 2.327541 1_555
O8 Y3 2.367350 1_555
O9 P1 1.521494 1_554
O9 Y1 2.327541 1_555
O9 Y2 2.367350 1_555
O10 P2 1.521494 1_555
O10 Y2 2.327541 1_555
O10 Y1 2.367350 1_555
O11 P3 1.521494 1_555
O11 Y3 2.327541 1_555
O11 Y0 2.367350 1_555
O12 P7 1.572717 1_455
O12 P4 1.572717 1_565
O13 P6 1.572717 1_545
O13 P5 1.572717 1_655
O14 P7 1.581792 1_555
O14 P3 1.608925 1_555
O15 P6 1.581792 1_555
O15 P2 1.608925 1_555
O16 P5 1.581792 1_555
O16 P1 1.608925 1_555
O17 P4 1.581792 1_555
O17 P0 1.608925 1_555
O18 P7 1.481633 1_555
O18 Y1 2.236904 1_555
O19 P6 1.481633 1_555
O19 Y0 2.236904 1_555
O20 P5 1.481633 1_555
O20 Y3 2.236904 1_555
O21 P4 1.481633 1_555
O21 Y2 2.236904 1_555
O22 P7 1.485255 1_555
O22 Y0 2.231232 1_554
O23 P6 1.485255 1_555
O23 Y1 2.231232 1_556
O24 P5 1.485255 1_555
O24 Y2 2.231232 1_555
O25 P4 1.485255 1_555
O25 Y3 2.231232 1_555
