# generated using pymatgen
data_Pd13Pb9
_symmetry_space_group_name_H-M   'P 1'
_cell_length_a   9.26511641
_cell_length_b   9.26511641
_cell_length_c   14.20450356
_cell_angle_alpha   60.91879950
_cell_angle_beta   60.91879950
_cell_angle_gamma   60.02327712
_symmetry_Int_Tables_number   1
_chemical_formula_structural   Pd13Pb9
_chemical_formula_sum   'Pd26 Pb18'
_cell_volume   874.14798158
_cell_formula_units_Z   2
loop_
 _symmetry_equiv_pos_site_id
 _symmetry_equiv_pos_as_xyz
  1  'x, y, z'
loop_
 _atom_site_type_symbol
 _atom_site_label
 _atom_site_symmetry_multiplicity
 _atom_site_fract_x
 _atom_site_fract_y
 _atom_site_fract_z
 _atom_site_occupancy
  Pd  Pd0  1  0.26376000  0.50015200  0.50031400  1
  Pd  Pd1  1  0.98004800  0.25618300  0.00556700  1
  Pd  Pd2  1  0.39665700  0.65589000  0.85967400  1
  Pd  Pd3  1  0.49984800  0.73624000  0.99968600  1
  Pd  Pd4  1  0.90200300  0.65688200  0.86981200  1
  Pd  Pd5  1  0.13317800  0.90081300  0.37489000  1
  Pd  Pd6  1  0.50015200  0.26376000  0.00031400  1
  Pd  Pd7  1  0.34311800  0.09799700  0.63018800  1
  Pd  Pd8  1  0.34411000  0.60334300  0.64032600  1
  Pd  Pd9  1  0.90081300  0.13317800  0.87489000  1
  Pd  Pd10  1  0.09799700  0.34311800  0.13018800  1
  Pd  Pd11  1  0.86682200  0.09918700  0.62511000  1
  Pd  Pd12  1  0.87708000  0.62374500  0.24935500  1
  Pd  Pd13  1  0.25618300  0.98004800  0.50556700  1
  Pd  Pd14  1  0.37625500  0.12292000  0.25064500  1
  Pd  Pd15  1  0.65589000  0.39665700  0.35967400  1
  Pd  Pd16  1  0.65688200  0.90200300  0.36981200  1
  Pd  Pd17  1  0.62374500  0.87708000  0.74935500  1
  Pd  Pd18  1  0.74381700  0.01995200  0.49443300  1
  Pd  Pd19  1  0.37518100  0.62481900  0.25000000  1
  Pd  Pd20  1  0.73624000  0.49984800  0.49968600  1
  Pd  Pd21  1  0.12292000  0.37625500  0.75064500  1
  Pd  Pd22  1  0.60334300  0.34411000  0.14032600  1
  Pd  Pd23  1  0.01995200  0.74381700  0.99443300  1
  Pd  Pd24  1  0.62481900  0.37518100  0.75000000  1
  Pd  Pd25  1  0.09918700  0.86682200  0.12511000  1
  Pb  Pb0  1  0.42042800  0.24560800  0.38673300  1
  Pb  Pb1  1  0.24560800  0.42042800  0.88673300  1
  Pb  Pb2  1  0.99276100  0.75002900  0.61840400  1
  Pb  Pb3  1  0.00723900  0.24997100  0.38159600  1
  Pb  Pb4  1  0.24997100  0.00723900  0.88159600  1
  Pb  Pb5  1  0.47312400  0.72801100  0.38368300  1
  Pb  Pb6  1  0.67165300  0.00856300  0.87486000  1
  Pb  Pb7  1  0.87626700  0.12373300  0.25000000  1
  Pb  Pb8  1  0.75002900  0.99276100  0.11840400  1
  Pb  Pb9  1  0.00856300  0.67165300  0.37486000  1
  Pb  Pb10  1  0.27198900  0.52687600  0.11631700  1
  Pb  Pb11  1  0.52687600  0.27198900  0.61631700  1
  Pb  Pb12  1  0.32834700  0.99143700  0.12514000  1
  Pb  Pb13  1  0.75439200  0.57957200  0.11326700  1
  Pb  Pb14  1  0.72801100  0.47312400  0.88368300  1
  Pb  Pb15  1  0.57957200  0.75439200  0.61326700  1
  Pb  Pb16  1  0.99143700  0.32834700  0.62514000  1
  Pb  Pb17  1  0.12373300  0.87626700  0.75000000  1
loop_
_geom_bond_atom_site_label_1
_geom_bond_atom_site_label_2
_geom_bond_distance
_geom_bond_site_symmetry_2
Pd0 Pd19 2.945027 1_555
Pd0 Pd21 2.946662 1_555
Pd0 Pd8 3.069612 1_555
Pd0 Pd15 3.071702 1_555
Pd0 Pd5 3.097787 1_555
Pd0 Pd7 3.118655 1_555
Pd1 Pd22 2.947785 1_555
Pd1 Pd21 2.999654 1_654
Pd1 Pd25 3.000627 1_645
Pd1 Pd10 3.020375 1_655
Pd1 Pd9 3.082264 1_554
Pd1 Pd4 3.120541 1_554
Pd2 Pd23 2.947785 1_555
Pd2 Pd24 2.983804 1_555
Pd2 Pd3 3.069612 1_555
Pd2 Pd6 3.071702 1_556
Pd3 Pd4 3.118655 1_555
Pd6 Pd9 3.097787 1_554
Pd10 Pd14 3.061889 1_555
Pd10 Pd12 3.067115 1_455
Pd10 Pd6 3.118655 1_555
Pd10 Pd23 3.120541 1_554
Pd11 Pd13 3.000627 1_645
Pd11 Pd18 3.082264 1_555
Pd11 Pd24 3.086571 1_555
Pd11 Pd20 3.097787 1_555
Pd11 Pd17 3.107831 1_545
Pd12 Pd20 2.946662 1_555
Pd12 Pd23 2.999654 1_654
Pd12 Pd15 3.010682 1_555
Pd12 Pd16 3.061889 1_555
Pd12 Pd25 3.107831 1_655
Pd13 Pd8 2.947785 1_555
Pd13 Pd14 2.999654 1_565
Pd13 Pd7 3.020375 1_565
Pd13 Pd5 3.082264 1_555
Pd13 Pd16 3.120541 1_555
Pd14 Pd6 2.946662 1_555
Pd14 Pd22 3.010682 1_555
Pd14 Pd16 3.067115 1_545
Pd14 Pd5 3.107831 1_545
Pd15 Pd18 2.947785 1_555
Pd15 Pd19 2.983804 1_555
Pd15 Pd20 3.069612 1_555
Pd16 Pd18 3.020375 1_565
Pd16 Pd20 3.118655 1_555
Pd17 Pd3 2.946662 1_555
Pd17 Pd18 2.999654 1_565
Pd17 Pd2 3.010682 1_555
Pd17 Pd4 3.061889 1_555
Pd17 Pd7 3.067115 1_565
Pd18 Pd5 3.000627 1_645
Pd18 Pd7 3.120541 1_555
Pd19 Pd3 2.945027 1_554
Pd19 Pd22 2.983804 1_555
Pd19 Pd25 3.086571 1_555
Pd19 Pd5 3.086571 1_555
Pd20 Pd24 2.945027 1_555
Pd20 Pd8 3.071702 1_555
Pd21 Pd8 3.010682 1_555
Pd21 Pd7 3.061889 1_555
Pd21 Pd4 3.067115 1_455
Pd21 Pd9 3.107831 1_455
Pd22 Pd6 3.069612 1_555
Pd22 Pd3 3.071702 1_554
Pd23 Pd9 3.000627 1_465
Pd23 Pd4 3.020375 1_455
Pd23 Pd25 3.082264 1_556
Pd24 Pd6 2.945027 1_556
Pd24 Pd8 2.983804 1_555
Pd24 Pd9 3.086571 1_555
Pd25 Pd3 3.097787 1_554
Pb0 Pd16 2.873089 1_545
Pb0 Pd0 2.876320 1_555
Pb0 Pd7 2.883717 1_555
Pb0 Pd13 2.902761 1_545
Pb0 Pd14 2.926834 1_555
Pb0 Pd15 2.928913 1_555
Pb0 Pd22 2.937660 1_555
Pb0 Pd19 2.996392 1_555
Pb0 Pd18 3.282629 1_555
Pb1 Pd4 2.873089 1_455
Pb1 Pd6 2.876320 1_556
Pb1 Pd10 2.883717 1_556
Pb1 Pd1 2.902761 1_456
Pb1 Pd21 2.926834 1_555
Pb1 Pd2 2.928913 1_555
Pb1 Pd8 2.937660 1_555
Pb1 Pd24 2.996392 1_555
Pb1 Pd23 3.282629 1_555
Pb2 Pd11 2.873185 1_565
Pb2 Pd0 2.889624 1_655
Pb2 Pd5 2.890176 1_655
Pb2 Pd17 2.908532 1_555
Pb2 Pd18 2.928871 1_565
Pb2 Pd21 2.946305 1_655
Pb2 Pd8 2.948540 1_655
Pb2 Pd4 3.002490 1_555
Pb3 Pd5 2.873185 1_545
Pb3 Pd20 2.889624 1_455
Pb3 Pd11 2.890176 1_455
Pb3 Pd14 2.908532 1_555
Pb3 Pd13 2.928871 1_545
Pb3 Pd12 2.946305 1_455
Pb3 Pd15 2.948540 1_455
Pb3 Pd10 3.002490 1_555
Pb4 Pd9 2.873185 1_455
Pb4 Pd3 2.889624 1_545
Pb4 Pd25 2.890176 1_546
Pb4 Pd21 2.908532 1_555
Pb4 Pd1 2.928871 1_456
Pb4 Pd17 2.946305 1_545
Pb4 Pd2 2.948540 1_545
Pb4 Pd7 3.002490 1_555
Pb5 Pd16 2.764776 1_555
Pb5 Pd5 2.765507 1_555
Pb5 Pd15 2.769524 1_555
Pb5 Pd13 2.889172 1_555
Pb5 Pd20 2.914749 1_555
Pb5 Pd0 2.921078 1_555
Pb5 Pd8 3.017121 1_555
Pb5 Pd14 3.067539 1_565
Pb5 Pd19 3.106497 1_555
Pb5 Pd12 3.133444 1_555
Pb6 Pd17 2.877484 1_545
Pb6 Pd24 2.879365 1_555
Pb6 Pd9 2.879584 1_555
Pb6 Pd4 2.882042 1_545
Pb6 Pd6 2.979911 1_556
Pb6 Pd11 2.990952 1_555
Pb6 Pd3 2.994101 1_545
Pb7 Pd18 2.877066 1_555
Pb7 Pd1 2.877066 1_555
Pb7 Pd22 2.927112 1_555
Pb7 Pd15 2.927112 1_555
Pb7 Pd16 2.942732 1_545
Pb7 Pd10 2.942732 1_655
Pb7 Pd25 2.951112 1_645
Pb7 Pd5 2.951112 1_645
Pb8 Pd25 2.873185 1_655
Pb8 Pd6 2.889624 1_565
Pb8 Pd9 2.890176 1_564
Pb8 Pd12 2.908532 1_555
Pb8 Pd23 2.928871 1_654
Pb8 Pd14 2.946305 1_565
Pb8 Pd22 2.948540 1_565
Pb8 Pd16 3.002490 1_555
Pb9 Pd12 2.877484 1_455
Pb9 Pd19 2.879365 1_555
Pb9 Pd5 2.879584 1_555
Pb9 Pd16 2.882042 1_455
Pb9 Pd0 2.979911 1_555
Pb9 Pd25 2.990952 1_555
Pb9 Pd20 2.994101 1_455
Pb10 Pd10 2.764776 1_555
Pb10 Pd25 2.765507 1_555
Pb10 Pd22 2.769524 1_555
Pb10 Pd23 2.889172 1_554
Pb10 Pd6 2.914749 1_555
Pb10 Pd3 2.921078 1_554
Pb10 Pd2 3.017121 1_554
Pb10 Pd12 3.067539 1_455
Pb10 Pd19 3.106497 1_555
Pb10 Pd14 3.133444 1_555
Pb11 Pd7 2.764776 1_555
Pb11 Pd11 2.765507 1_555
Pb11 Pd8 2.769524 1_555
Pb11 Pd18 2.889172 1_555
Pb11 Pd0 2.914749 1_555
Pb11 Pd20 2.921078 1_555
Pb11 Pd15 3.017121 1_555
Pb11 Pd17 3.067539 1_545
Pb11 Pd24 3.106497 1_555
Pb11 Pd21 3.133444 1_555
Pb12 Pd14 2.877484 1_565
Pb12 Pd19 2.879365 1_555
Pb12 Pd25 2.879584 1_555
Pb12 Pd10 2.882042 1_565
Pb12 Pd3 2.979911 1_554
Pb12 Pd5 2.990952 1_555
Pb12 Pd6 2.994101 1_565
Pb13 Pd10 2.873089 1_655
Pb13 Pd3 2.876320 1_554
Pb13 Pd4 2.883717 1_554
Pb13 Pd23 2.902761 1_654
Pb13 Pd12 2.926834 1_555
Pb13 Pd22 2.928913 1_555
Pb13 Pd15 2.937660 1_555
Pb13 Pd19 2.996392 1_555
Pb13 Pd1 3.282629 1_555
Pb14 Pd4 2.764776 1_555
Pb14 Pd9 2.765507 1_555
Pb14 Pd2 2.769524 1_555
Pb14 Pd1 2.889172 1_556
Pb14 Pd3 2.914749 1_555
Pb14 Pd6 2.921078 1_556
Pb14 Pd22 3.017121 1_556
Pb14 Pd21 3.067539 1_655
Pb14 Pd24 3.106497 1_555
Pb14 Pd17 3.133444 1_555
Pb15 Pd7 2.873089 1_565
Pb15 Pd20 2.876320 1_555
Pb15 Pd16 2.883717 1_555
Pb15 Pd18 2.902761 1_565
Pb15 Pd17 2.926834 1_555
Pb15 Pd8 2.928913 1_555
Pb15 Pd2 2.937660 1_555
Pb15 Pd24 2.996392 1_555
Pb15 Pd13 3.282629 1_555
Pb16 Pd21 2.877484 1_655
Pb16 Pd24 2.879365 1_555
Pb16 Pd11 2.879584 1_555
Pb16 Pd7 2.882042 1_655
Pb16 Pd20 2.979911 1_555
Pb16 Pd9 2.990952 1_555
Pb16 Pd0 2.994101 1_655
Pb17 Pd23 2.877066 1_555
Pb17 Pd13 2.877066 1_555
Pb17 Pd2 2.927112 1_555
Pb17 Pd8 2.927112 1_555
Pb17 Pd4 2.942732 1_455
Pb17 Pd7 2.942732 1_565
Pb17 Pd11 2.951112 1_465
Pb17 Pd9 2.951112 1_465
