# generated using pymatgen
data_Cs6K2ZrSb4
_symmetry_space_group_name_H-M   'P 1'
_cell_length_a   12.27041839
_cell_length_b   12.27041827
_cell_length_c   12.27041782
_cell_angle_alpha   59.99999854
_cell_angle_beta   59.99999887
_cell_angle_gamma   60.00000046
_symmetry_Int_Tables_number   1
_chemical_formula_structural   Cs6K2ZrSb4
_chemical_formula_sum   'Cs12 K4 Zr2 Sb8'
_cell_volume   1306.36063382
_cell_formula_units_Z   2
loop_
 _symmetry_equiv_pos_site_id
 _symmetry_equiv_pos_as_xyz
  1  'x, y, z'
loop_
 _atom_site_type_symbol
 _atom_site_label
 _atom_site_symmetry_multiplicity
 _atom_site_fract_x
 _atom_site_fract_y
 _atom_site_fract_z
 _atom_site_occupancy
  Cs  Cs0  1  0.02662897  0.02662897  0.47337103  1
  Cs  Cs1  1  0.77662897  0.22337103  0.22337103  1
  Cs  Cs2  1  0.22337103  0.77662897  0.77662897  1
  Cs  Cs3  1  0.77662897  0.77662897  0.22337103  1
  Cs  Cs4  1  0.77662897  0.22337103  0.77662897  1
  Cs  Cs5  1  0.22337103  0.77662897  0.22337103  1
  Cs  Cs6  1  0.47337103  0.02662897  0.47337103  1
  Cs  Cs7  1  0.47337103  0.02662897  0.02662897  1
  Cs  Cs8  1  0.02662897  0.47337103  0.47337103  1
  Cs  Cs9  1  0.02662897  0.47337103  0.02662897  1
  Cs  Cs10  1  0.22337103  0.22337103  0.77662897  1
  Cs  Cs11  1  0.47337103  0.47337103  0.02662897  1
  K  K0  1  0.62500000  0.12500000  0.62500000  1
  K  K1  1  0.62500000  0.62500000  0.12500000  1
  K  K2  1  0.12500000  0.62500000  0.62500000  1
  K  K3  1  0.62500000  0.62500000  0.62500000  1
  Zr  Zr0  1  0.75000000  0.75000000  0.75000000  1
  Zr  Zr1  1  0.50000000  0.50000000  0.50000000  1
  Sb  Sb0  1  0.40471105  0.78586686  0.40471105  1
  Sb  Sb1  1  0.84528895  0.84528895  0.46413314  1
  Sb  Sb2  1  0.46413314  0.84528895  0.84528895  1
  Sb  Sb3  1  0.84528895  0.84528895  0.84528895  1
  Sb  Sb4  1  0.78586686  0.40471105  0.40471105  1
  Sb  Sb5  1  0.40471105  0.40471105  0.40471105  1
  Sb  Sb6  1  0.40471105  0.40471105  0.78586686  1
  Sb  Sb7  1  0.84528895  0.46413314  0.84528895  1
loop_
_geom_bond_atom_site_label_1
_geom_bond_atom_site_label_2
_geom_bond_distance
_geom_bond_site_symmetry_2
Cs0 Sb3 3.920554 1_445
Cs0 Sb1 3.920554 1_445
Cs0 Sb4 3.979295 1_455
Cs0 Sb0 3.979295 1_545
Cs0 K2 4.041472 1_545
Cs0 K0 4.041472 1_455
Cs1 Sb4 3.920554 1_555
Cs1 Sb5 3.920554 1_555
Cs1 Sb7 3.979295 1_554
Cs1 Sb1 3.979295 1_545
Cs1 K0 4.041472 1_555
Cs1 K1 4.041472 1_555
Cs2 Sb0 3.920554 1_555
Cs2 Sb6 3.920554 1_555
Cs2 Sb2 3.979295 1_555
Cs2 Sb3 3.979295 1_455
Cs2 K2 4.041472 1_555
Cs2 K3 4.041472 1_555
Cs3 Sb4 3.920554 1_555
Cs3 Sb0 3.920554 1_555
Cs3 Sb3 3.979295 1_554
Cs3 Sb1 3.979295 1_555
Cs3 K3 4.041472 1_555
Cs3 K1 4.041472 1_555
Cs4 Sb4 3.920554 1_555
Cs4 Sb6 3.920554 1_555
Cs4 Sb3 3.979295 1_545
Cs4 Sb7 3.979295 1_555
Cs4 K3 4.041472 1_555
Cs4 K0 4.041472 1_555
Cs5 Sb5 3.920554 1_555
Cs5 Sb0 3.920554 1_555
Cs5 Sb2 3.979295 1_554
Cs5 Sb1 3.979295 1_455
Cs5 K2 4.041472 1_555
Cs5 K1 4.041472 1_555
Cs6 Sb2 3.920554 1_545
Cs6 Sb1 3.920554 1_545
Cs6 Sb5 3.979295 1_555
Cs6 Sb0 3.979295 1_545
Cs6 K3 4.041472 1_545
Cs6 K0 4.041472 1_555
Cs7 Sb2 3.920554 1_544
Cs7 Sb3 3.920554 1_544
Cs7 Sb0 3.979295 1_545
Cs7 Sb6 3.979295 1_554
Cs7 K0 4.041472 1_554
Cs7 K1 4.041472 1_545
Cs8 Sb7 3.920554 1_455
Cs8 Sb1 3.920554 1_455
Cs8 Sb4 3.979295 1_455
Cs8 Sb5 3.979295 1_555
Cs8 K2 4.041472 1_555
Cs8 K3 4.041472 1_455
Cs9 Sb3 3.920554 1_454
Cs9 Sb7 3.920554 1_454
Cs9 Sb4 3.979295 1_455
Cs9 Sb6 3.979295 1_554
Cs9 K2 4.041472 1_554
Cs9 K1 4.041472 1_455
Cs10 Sb5 3.920554 1_555
Cs10 Sb6 3.920554 1_555
Cs10 Sb2 3.979295 1_545
Cs10 Sb7 3.979295 1_455
Cs10 K2 4.041472 1_555
Cs10 K0 4.041472 1_555
Cs11 Sb2 3.920554 1_554
Cs11 Sb7 3.920554 1_554
Cs11 Sb5 3.979295 1_555
Cs11 Sb6 3.979295 1_554
Cs11 K3 4.041472 1_554
Cs11 K1 4.041472 1_555
K0 Zr0 3.757033 1_545
K0 Zr1 3.757033 1_555
K0 Sb4 3.891588 1_555
K0 Sb2 3.891588 1_545
K0 Sb3 3.891588 1_545
K0 Sb5 3.891588 1_555
K0 Sb6 3.891588 1_555
K0 Sb1 3.891588 1_545
K1 Zr1 3.757033 1_555
K1 Zr0 3.757033 1_554
K1 Sb3 3.891588 1_554
K1 Sb5 3.891588 1_555
K1 Sb4 3.891588 1_555
K1 Sb2 3.891588 1_554
K1 Sb0 3.891588 1_555
K1 Sb7 3.891588 1_554
K2 Zr1 3.757033 1_555
K2 Zr0 3.757033 1_455
K2 Sb0 3.891588 1_555
K2 Sb7 3.891588 1_455
K2 Sb3 3.891588 1_455
K2 Sb5 3.891588 1_555
K2 Sb6 3.891588 1_555
K2 Sb1 3.891588 1_455
K3 Zr1 3.757033 1_555
K3 Zr0 3.757033 1_555
K3 Sb2 3.891588 1_555
K3 Sb4 3.891588 1_555
K3 Sb7 3.891588 1_555
K3 Sb0 3.891588 1_555
K3 Sb1 3.891588 1_555
K3 Sb6 3.891588 1_555
Sb0 Zr1 2.864030 1_555
Sb1 Zr0 2.864030 1_555
Sb2 Zr0 2.864030 1_555
Sb3 Zr0 2.864030 1_555
Sb4 Zr1 2.864030 1_555
Sb5 Zr1 2.864030 1_555
Sb6 Zr1 2.864030 1_555
Sb7 Zr0 2.864030 1_555
