# generated using pymatgen
data_Sr2Li2Si2Bi
_symmetry_space_group_name_H-M   'P 1'
_cell_length_a   10.22323000
_cell_length_b   10.22323124
_cell_length_c   7.19533427
_cell_angle_alpha   90.00000000
_cell_angle_beta   90.00000000
_cell_angle_gamma   153.00146347
_symmetry_Int_Tables_number   1
_chemical_formula_structural   Sr2Li2Si2Bi
_chemical_formula_sum   'Sr4 Li4 Si4 Bi2'
_cell_volume   341.39116921
_cell_formula_units_Z   2
loop_
 _symmetry_equiv_pos_site_id
 _symmetry_equiv_pos_as_xyz
  1  'x, y, z'
loop_
 _atom_site_type_symbol
 _atom_site_label
 _atom_site_symmetry_multiplicity
 _atom_site_fract_x
 _atom_site_fract_y
 _atom_site_fract_z
 _atom_site_occupancy
  Sr  Sr0  1  0.55067715  0.44932285  0.75000000  1
  Sr  Sr1  1  0.44932285  0.55067715  0.25000000  1
  Sr  Sr2  1  0.34562677  0.65437323  0.75000000  1
  Sr  Sr3  1  0.65437323  0.34562677  0.25000000  1
  Li  Li0  1  0.81817296  0.18182704  0.44557936  1
  Li  Li1  1  0.18182704  0.81817296  0.55442064  1
  Li  Li2  1  0.81817296  0.18182704  0.05442064  1
  Li  Li3  1  0.18182704  0.81817296  0.94557936  1
  Si  Si0  1  0.94828000  0.05172000  0.91570406  1
  Si  Si1  1  0.05172000  0.94828000  0.08429594  1
  Si  Si2  1  0.94828000  0.05172000  0.58429594  1
  Si  Si3  1  0.05172000  0.94828000  0.41570406  1
  Bi  Bi0  1  0.71876535  0.28123465  0.75000000  1
  Bi  Bi1  1  0.28123465  0.71876535  0.25000000  1
loop_
_geom_bond_atom_site_label_1
_geom_bond_atom_site_label_2
_geom_bond_distance
_geom_bond_site_symmetry_2
Li0 Si2 2.772620 1_555
Li0 Sr2 3.284951 1_655
Li0 Sr2 3.284951 1_545
Li0 Sr3 3.547648 1_555
Li1 Si3 2.772620 1_555
Li1 Sr3 3.284951 1_455
Li1 Sr3 3.284951 1_565
Li1 Sr2 3.547648 1_555
Li2 Si0 2.772620 1_554
Li2 Sr2 3.284951 1_654
Li2 Sr2 3.284951 1_544
Li2 Sr3 3.547648 1_555
Li3 Si1 2.772620 1_556
Li3 Sr3 3.284951 1_456
Li3 Sr3 3.284951 1_566
Li3 Sr2 3.547648 1_555
Si0 Si2 2.384592 1_555
Si0 Si1 2.387667 1_646
Si0 Sr0 3.355773 1_655
Si0 Sr0 3.355774 1_545
Si0 Sr2 3.358864 1_545
Si0 Sr2 3.358865 1_655
Si0 Sr1 3.388411 1_656
Si0 Sr1 3.388411 1_546
Si1 Si3 2.384592 1_555
Si1 Sr1 3.355773 1_455
Si1 Sr1 3.355774 1_565
Si1 Sr3 3.358864 1_565
Si1 Sr3 3.358865 1_455
Si1 Sr0 3.388411 1_454
Si1 Sr0 3.388411 1_564
Si2 Si3 2.387667 1_645
Si2 Sr0 3.355773 1_655
Si2 Sr0 3.355774 1_545
Si2 Sr2 3.358864 1_545
Si2 Sr2 3.358865 1_655
Si2 Sr1 3.388411 1_655
Si2 Sr1 3.388411 1_545
Si3 Sr1 3.355773 1_455
Si3 Sr1 3.355774 1_565
Si3 Sr3 3.358864 1_565
Si3 Sr3 3.358865 1_455
Si3 Sr0 3.388411 1_455
Si3 Sr0 3.388411 1_565
Bi0 Li3 2.866147 1_545
Bi0 Li1 2.866147 1_545
Bi0 Li3 2.866147 1_655
Bi0 Li1 2.866147 1_655
Bi0 Li2 2.950249 1_556
Bi0 Li0 2.950249 1_555
Bi0 Sr0 3.341860 1_555
Bi0 Sr2 3.472263 1_655
Bi0 Sr2 3.472264 1_545
Bi0 Sr3 3.818660 1_555
Bi0 Sr3 3.818660 1_556
Bi1 Li0 2.866147 1_565
Bi1 Li2 2.866147 1_565
Bi1 Li0 2.866147 1_455
Bi1 Li2 2.866147 1_455
Bi1 Li1 2.950249 1_555
Bi1 Li3 2.950249 1_554
Bi1 Sr1 3.341860 1_555
Bi1 Sr3 3.472263 1_455
Bi1 Sr3 3.472264 1_565
Bi1 Sr2 3.818660 1_555
Bi1 Sr2 3.818660 1_554
