# generated using pymatgen
data_CsV2Tc4S7
_symmetry_space_group_name_H-M   'P 1'
_cell_length_a   9.38796956
_cell_length_b   9.43093099
_cell_length_c   9.46983911
_cell_angle_alpha   60.42907810
_cell_angle_beta   60.14540184
_cell_angle_gamma   60.51758840
_symmetry_Int_Tables_number   1
_chemical_formula_structural   CsV2Tc4S7
_chemical_formula_sum   'Cs2 V4 Tc8 S14'
_cell_volume   597.73043449
_cell_formula_units_Z   2
loop_
 _symmetry_equiv_pos_site_id
 _symmetry_equiv_pos_as_xyz
  1  'x, y, z'
loop_
 _atom_site_type_symbol
 _atom_site_label
 _atom_site_symmetry_multiplicity
 _atom_site_fract_x
 _atom_site_fract_y
 _atom_site_fract_z
 _atom_site_occupancy
  Cs  Cs0  1  0.37323054  0.38161596  0.37693751  1
  Cs  Cs1  1  0.62719466  0.62609111  0.61862281  1
  V  V0  1  0.29758491  0.12125763  0.99891895  1
  V  V1  1  0.19601638  0.88931883  0.05662202  1
  V  V2  1  0.88543947  0.06093925  0.19776642  1
  V  V3  1  0.94349069  0.80484714  0.11167204  1
  Tc  Tc0  1  0.80190875  0.11919628  0.93914265  1
  Tc  Tc1  1  0.12166007  0.94560729  0.79620577  1
  Tc  Tc2  1  0.99145956  0.29748101  0.13042030  1
  Tc  Tc3  1  0.87459524  0.00714223  0.70025595  1
  Tc  Tc4  1  0.12553311  0.98555442  0.30039353  1
  Tc  Tc5  1  0.01209735  0.69877208  0.87665680  1
  Tc  Tc6  1  0.69756601  0.87303163  0.01366139  1
  Tc  Tc7  1  0.05877138  0.20300982  0.88263710  1
  S  S0  1  0.97721964  0.23493494  0.64355890  1
  S  S1  1  0.23583738  0.65491432  0.96863023  1
  S  S2  1  0.64858960  0.97989062  0.22827719  1
  S  S3  1  0.01660018  0.76886558  0.34596616  1
  S  S4  1  0.76317809  0.35308191  0.01877539  1
  S  S5  1  0.34976081  0.02673773  0.76318720  1
  S  S6  1  0.16664899  0.41170042  0.83393898  1
  S  S7  1  0.41216529  0.81864157  0.16350706  1
  S  S8  1  0.82102817  0.15797936  0.41710603  1
  S  S9  1  0.83997165  0.58736114  0.17846309  1
  S  S10  1  0.58448514  0.16956358  0.83996734  1
  S  S11  1  0.17661393  0.83246268  0.58799318  1
  S  S12  1  0.78145479  0.77734012  0.78739868  1
  S  S13  1  0.21989621  0.21265935  0.22332033  1
loop_
_geom_bond_atom_site_label_1
_geom_bond_atom_site_label_2
_geom_bond_distance
_geom_bond_site_symmetry_2
Cs0 S5 3.531231 1_555
Cs0 S3 3.538102 1_555
Cs0 S4 3.542195 1_555
Cs0 S13 3.654839 1_555
Cs0 S7 3.705570 1_555
Cs0 S8 3.786651 1_555
Cs0 S0 3.792034 1_455
Cs0 S6 3.858115 1_555
Cs0 S2 3.875444 1_545
Cs0 S1 3.887694 1_554
Cs1 S1 3.512924 1_555
Cs1 S0 3.527475 1_555
Cs1 S2 3.547483 1_555
Cs1 S12 3.643399 1_555
Cs1 S3 3.722942 1_655
Cs1 S9 3.740687 1_555
Cs1 S11 3.784976 1_555
Cs1 S4 3.816999 1_556
Cs1 S5 3.847518 1_565
Cs1 S10 3.878999 1_555
Tc2 V0 2.519996 1_654
Tc2 V2 2.554059 1_555
Tc2 Tc4 2.554989 1_645
Tc4 V0 2.496967 1_564
Tc4 V2 2.540094 1_465
Tc4 V1 2.558638 1_555
Tc7 V1 2.584084 1_546
Tc7 V2 2.591068 1_456
Tc7 V0 2.598459 1_555
S0 Tc1 2.406289 1_645
S0 Tc0 2.429267 1_555
S0 Tc3 2.493087 1_555
S0 Tc7 2.574622 1_655
S1 V3 2.395001 1_456
S1 Tc1 2.400570 1_555
S1 Tc5 2.439733 1_555
S1 V1 2.532903 1_556
S2 Tc0 2.383675 1_564
S2 V3 2.422018 1_555
S2 Tc6 2.447998 1_555
S2 V2 2.535190 1_565
S3 V2 2.374791 1_465
S3 V1 2.419017 1_555
S3 V3 2.460231 1_455
S3 Tc4 2.481030 1_555
S4 Tc7 2.395637 1_654
S4 V2 2.448743 1_555
S4 Tc0 2.479031 1_554
S4 Tc2 2.566739 1_555
S5 V1 2.403772 1_546
S5 Tc7 2.411481 1_555
S5 Tc1 2.445160 1_545
S5 V0 2.542346 1_555
S6 Tc7 2.390206 1_555
S6 V0 2.414285 1_555
S6 Tc2 2.430958 1_456
S6 Tc5 2.495727 1_555
S7 V1 2.373625 1_555
S7 Tc4 2.402289 1_555
S7 V0 2.447129 1_564
S7 Tc6 2.510904 1_555
S8 V2 2.366137 1_555
S8 Tc2 2.425566 1_555
S8 Tc4 2.467900 1_645
S8 Tc3 2.517914 1_555
S9 V3 2.370892 1_555
S9 Tc6 2.421429 1_555
S9 Tc5 2.448033 1_654
S9 Tc2 2.541628 1_555
S10 Tc0 2.405813 1_555
S10 Tc3 2.412638 1_555
S10 Tc6 2.435041 1_546
S10 V0 2.494457 1_555
S11 Tc5 2.399838 1_555
S11 Tc1 2.411332 1_555
S11 Tc3 2.452181 1_465
S11 Tc4 2.543578 1_555
S12 Tc3 2.350366 1_565
S12 Tc6 2.356827 1_556
S12 Tc5 2.361491 1_655
S13 V0 2.331715 1_554
S13 Tc2 2.346943 1_455
S13 Tc4 2.363431 1_545
