# generated using pymatgen
data_K10SrSn12
_symmetry_space_group_name_H-M   'P 1'
_cell_length_a   10.48517611
_cell_length_b   10.48517678
_cell_length_c   10.48517640
_cell_angle_alpha   109.47121803
_cell_angle_beta   109.47121932
_cell_angle_gamma   109.47122066
_symmetry_Int_Tables_number   1
_chemical_formula_structural   K10SrSn12
_chemical_formula_sum   'K10 Sr1 Sn12'
_cell_volume   887.37125883
_cell_formula_units_Z   1
loop_
 _symmetry_equiv_pos_site_id
 _symmetry_equiv_pos_as_xyz
  1  'x, y, z'
loop_
 _atom_site_type_symbol
 _atom_site_label
 _atom_site_symmetry_multiplicity
 _atom_site_fract_x
 _atom_site_fract_y
 _atom_site_fract_z
 _atom_site_occupancy
  K  K0  1  0.50000000  0.25000000  0.75000000  1
  K  K1  1  0.75000000  0.25000000  0.50000000  1
  K  K2  1  0.25000000  0.75000000  0.50000000  1
  K  K3  1  0.50000000  0.75000000  0.25000000  1
  K  K4  1  0.60033416  0.00000000  0.00000000  1
  K  K5  1  0.39966584  0.39966584  0.39966584  1
  K  K6  1  1.00000000  0.60033416  1.00000000  1
  K  K7  1  1.00000000  1.00000000  0.60033416  1
  K  K8  1  0.75000000  0.50000000  0.25000000  1
  K  K9  1  0.25000000  0.50000000  0.75000000  1
  Sr  Sr0  1  0.00000000  0.00000000  0.00000000  1
  Sn  Sn0  1  0.00000000  0.17676996  0.34864789  1
  Sn  Sn1  1  0.82323004  0.17187793  0.82323004  1
  Sn  Sn2  1  0.65135211  0.65135211  0.82812207  1
  Sn  Sn3  1  0.34864789  0.17676996  1.00000000  1
  Sn  Sn4  1  0.17676996  0.34864789  0.00000000  1
  Sn  Sn5  1  0.34864789  1.00000000  0.17676996  1
  Sn  Sn6  1  0.65135211  0.82812207  0.65135211  1
  Sn  Sn7  1  0.82812207  0.65135211  0.65135211  1
  Sn  Sn8  1  0.00000000  0.34864789  0.17676996  1
  Sn  Sn9  1  0.82323004  0.82323004  0.17187793  1
  Sn  Sn10  1  0.17187793  0.82323004  0.82323004  1
  Sn  Sn11  1  0.17676996  0.00000000  0.34864789  1
loop_
_geom_bond_atom_site_label_1
_geom_bond_atom_site_label_2
_geom_bond_distance
_geom_bond_site_symmetry_2
K0 Sn3 3.644431 1_555
K0 Sn1 3.644431 1_555
K0 Sn11 3.644432 1_555
K0 Sn2 3.644432 1_555
K0 K1 4.280555 1_555
K0 K9 4.280555 1_555
K0 K8 4.280556 1_556
K0 K2 4.280556 1_545
K0 K7 4.407936 1_445
K0 K5 4.407936 1_555
K0 K4 4.407936 1_556
K0 K6 4.407936 1_555
K1 Sn0 3.644431 1_655
K1 Sn1 3.644431 1_555
K1 Sn5 3.644431 1_545
K1 Sn7 3.644432 1_555
K1 K8 4.280555 1_555
K1 K9 4.280555 1_655
K1 K3 4.280556 1_545
K1 K5 4.407936 1_555
K1 K7 4.407936 1_545
K1 K4 4.407937 1_555
K1 K6 4.407937 1_555
K2 Sn6 3.644431 1_555
K2 Sn10 3.644431 1_555
K2 Sn11 3.644431 1_565
K2 Sn8 3.644432 1_555
K2 K3 4.280555 1_555
K2 K9 4.280555 1_555
K2 K8 4.280555 1_455
K2 K7 4.407936 1_455
K2 K5 4.407936 1_555
K2 K6 4.407937 1_454
K2 K4 4.407937 1_566
K3 Sn9 3.644431 1_555
K3 Sn5 3.644431 1_555
K3 Sn6 3.644431 1_555
K3 Sn4 3.644432 1_555
K3 K8 4.280555 1_555
K3 K9 4.280556 1_554
K3 K6 4.407936 1_454
K3 K4 4.407936 1_565
K3 K5 4.407936 1_555
K3 K7 4.407936 1_555
K4 Sn5 3.695991 1_545
K4 Sn10 3.695991 1_544
K4 Sn3 3.695991 1_554
K4 Sn1 3.801573 1_554
K4 Sn9 3.801573 1_545
K4 Sn6 3.801573 1_544
K4 Sn0 3.801573 1_655
K4 Sn8 3.801573 1_655
K4 Sn2 3.801573 1_544
K4 Sr0 4.190567 1_655
K4 K9 4.407937 1_544
K4 K8 4.407937 1_555
K5 Sn7 3.695991 1_555
K5 Sn2 3.695991 1_555
K5 Sn6 3.695991 1_555
K5 Sn0 3.801573 1_555
K5 Sn8 3.801573 1_555
K5 Sn4 3.801573 1_555
K5 Sn11 3.801573 1_555
K5 Sn3 3.801573 1_554
K5 Sn5 3.801573 1_545
K5 Sr0 4.190567 1_555
K5 K8 4.407936 1_555
K5 K9 4.407936 1_555
K6 Sn8 3.695991 1_656
K6 Sn4 3.695991 1_656
K6 Sn1 3.695991 1_555
K6 Sn2 3.801573 1_555
K6 Sn10 3.801573 1_655
K6 Sn7 3.801573 1_555
K6 Sn9 3.801573 1_556
K6 Sn5 3.801573 1_656
K6 Sn11 3.801573 1_666
K6 Sr0 4.190567 1_666
K6 K8 4.407936 1_556
K6 K9 4.407936 1_655
K7 Sn11 3.695991 1_665
K7 Sn0 3.695991 1_665
K7 Sn9 3.695991 1_555
K7 Sn6 3.801573 1_555
K7 Sn1 3.801573 1_565
K7 Sn10 3.801573 1_655
K7 Sn7 3.801573 1_555
K7 Sn3 3.801573 1_665
K7 Sn4 3.801573 1_666
K7 Sr0 4.190567 1_666
K7 K9 4.407937 1_665
K7 K8 4.407937 1_555
K8 Sn8 3.644431 1_655
K8 Sn9 3.644431 1_555
K8 Sn7 3.644431 1_555
K8 Sn3 3.644432 1_554
K9 Sn2 3.644431 1_555
K9 Sn4 3.644431 1_556
K9 Sn10 3.644431 1_555
K9 Sn0 3.644432 1_555
Sn0 Sn8 2.942932 1_555
Sn0 Sn11 3.026694 1_555
Sn0 Sn9 3.026695 1_445
Sn0 Sr0 3.504559 1_555
Sn1 Sn6 2.942932 1_545
Sn1 Sn4 3.026694 1_656
Sn1 Sn8 3.026695 1_656
Sn1 Sr0 3.504559 1_656
Sn2 Sn9 2.942932 1_556
Sn2 Sn7 3.026694 1_555
Sn2 Sn6 3.026694 1_555
Sn2 Sr0 3.504559 1_666
Sn3 Sn4 2.942932 1_556
Sn3 Sn5 3.026694 1_546
Sn3 Sr0 3.504559 1_556
Sn4 Sn8 3.026694 1_555
Sn4 Sr0 3.504559 1_555
Sn5 Sr0 3.504559 1_565
Sn6 Sn7 3.026694 1_555
Sn6 Sr0 3.504559 1_666
Sn7 Sr0 3.504560 1_666
Sn8 Sr0 3.504559 1_555
Sn9 Sr0 3.504559 1_665
Sn10 Sn7 2.942932 1_455
Sn10 Sn5 3.026695 1_556
Sn10 Sn3 3.026695 1_565
Sn10 Sr0 3.504559 1_566
Sn11 Sn5 2.942932 1_545
Sn11 Sn9 3.026694 1_445
Sn11 Sr0 3.504559 1_555
