# generated using pymatgen
data_Ba(AlI4)2
_symmetry_space_group_name_H-M   'P 1'
_cell_length_a   8.23557427
_cell_length_b   8.75392048
_cell_length_c   14.70943469
_cell_angle_alpha   84.87234717
_cell_angle_beta   90.00000000
_cell_angle_gamma   90.00000000
_symmetry_Int_Tables_number   1
_chemical_formula_structural   Ba(AlI4)2
_chemical_formula_sum   'Ba2 Al4 I16'
_cell_volume   1056.21165256
_cell_formula_units_Z   2
loop_
 _symmetry_equiv_pos_site_id
 _symmetry_equiv_pos_as_xyz
  1  'x, y, z'
loop_
 _atom_site_type_symbol
 _atom_site_label
 _atom_site_symmetry_multiplicity
 _atom_site_fract_x
 _atom_site_fract_y
 _atom_site_fract_z
 _atom_site_occupancy
  Ba  Ba0  1  0.14906441  0.50000000  0.25000000  1
  Ba  Ba1  1  0.85093559  0.50000000  0.75000000  1
  Al  Al0  1  0.26063358  0.68195716  0.57637488  1
  Al  Al1  1  0.73936642  0.68195716  0.07637488  1
  Al  Al2  1  0.73936642  0.31804284  0.42362512  1
  Al  Al3  1  0.26063358  0.31804284  0.92362512  1
  I  I0  1  0.52598390  0.74820348  0.65344298  1
  I  I1  1  0.30452553  0.75775500  0.40655035  1
  I  I2  1  0.81282021  0.40014441  0.10745191  1
  I  I3  1  0.18717979  0.59985559  0.89254809  1
  I  I4  1  0.47401610  0.25179652  0.34655702  1
  I  I5  1  0.30452553  0.24224500  0.09344965  1
  I  I6  1  0.69547447  0.24224500  0.59344965  1
  I  I7  1  0.47401610  0.74820348  0.15344298  1
  I  I8  1  0.18717979  0.40014441  0.60745191  1
  I  I9  1  0.52598390  0.25179652  0.84655702  1
  I  I10  1  0.81282021  0.59985559  0.39254809  1
  I  I11  1  0.97037129  0.84162844  0.13560482  1
  I  I12  1  0.69547447  0.75775500  0.90655035  1
  I  I13  1  0.02962871  0.15837156  0.86439518  1
  I  I14  1  0.97037129  0.15837156  0.36439518  1
  I  I15  1  0.02962871  0.84162844  0.63560482  1
loop_
_geom_bond_atom_site_label_1
_geom_bond_atom_site_label_2
_geom_bond_distance
_geom_bond_site_symmetry_2
Ba0 I1 3.600263 1_555
Ba0 I5 3.600263 1_555
Ba0 I11 3.611270 1_455
Ba0 I14 3.611270 1_455
Ba0 I10 3.627199 1_455
Ba0 I2 3.627199 1_455
Ba0 I4 3.653539 1_555
Ba0 I7 3.653539 1_555
Ba1 I12 3.600263 1_555
Ba1 I6 3.600263 1_555
Ba1 I15 3.611270 1_655
Ba1 I13 3.611270 1_655
Ba1 I3 3.627199 1_655
Ba1 I8 3.627199 1_655
Ba1 I9 3.653539 1_555
Ba1 I0 3.653539 1_555
Al0 I8 2.541506 1_555
Al0 I0 2.552355 1_555
Al0 I1 2.552405 1_555
Al0 I15 2.559255 1_555
Al1 I2 2.541506 1_555
Al1 I7 2.552355 1_555
Al1 I12 2.552405 1_554
Al1 I11 2.559255 1_555
Al2 I10 2.541506 1_555
Al2 I4 2.552355 1_555
Al2 I6 2.552405 1_555
Al2 I14 2.559255 1_555
Al3 I3 2.541506 1_555
Al3 I9 2.552355 1_555
Al3 I5 2.552405 1_556
Al3 I13 2.559255 1_555
