# generated using pymatgen
data_Ta6Re5Si6Tc
_symmetry_space_group_name_H-M   'P 1'
_cell_length_a   7.51624995
_cell_length_b   7.50905824
_cell_length_c   7.50905805
_cell_angle_alpha   127.26959091
_cell_angle_beta   124.49047266
_cell_angle_gamma   80.08349972
_symmetry_Int_Tables_number   1
_chemical_formula_structural   Ta6Re5Si6Tc
_chemical_formula_sum   'Ta6 Re5 Si6 Tc1'
_cell_volume   268.40310478
_cell_formula_units_Z   1
loop_
 _symmetry_equiv_pos_site_id
 _symmetry_equiv_pos_as_xyz
  1  'x, y, z'
loop_
 _atom_site_type_symbol
 _atom_site_label
 _atom_site_symmetry_multiplicity
 _atom_site_fract_x
 _atom_site_fract_y
 _atom_site_fract_z
 _atom_site_occupancy
  Ta  Ta0  1  0.55448825  0.09530759  0.04207942  1
  Ta  Ta1  1  0.44551175  0.48759217  0.54082034  1
  Ta  Ta2  1  0.96685432  0.50041806  0.03643844  1
  Ta  Ta3  1  0.03314568  0.06958412  0.53356374  1
  Ta  Ta4  1  0.75333945  0.91058725  0.65797216  1
  Ta  Ta5  1  0.24666055  0.90463271  0.15724780  1
  Re  Re0  1  0.00000000  0.24492414  0.24492414  1
  Re  Re1  1  0.16063859  0.74983632  0.65683884  1
  Re  Re2  1  0.83936141  0.49620025  0.58919773  1
  Re  Re3  1  0.59356535  0.74962935  0.08929866  1
  Re  Re4  1  0.40643465  0.49573330  0.15606400  1
  Si  Si0  1  0.77574938  0.53378346  0.25688863  1
  Si  Si1  1  0.22425062  0.48113925  0.75803408  1
  Si  Si2  1  0.33752387  0.82812054  0.49978641  1
  Si  Si3  1  0.66247613  0.16226255  0.49059668  1
  Si  Si4  1  0.82806240  0.82596524  0.98933730  1
  Si  Si5  1  0.17193760  0.16127490  0.99790384  1
  Tc  Tc0  1  0.50000000  0.24520479  0.74520479  1
loop_
_geom_bond_atom_site_label_1
_geom_bond_atom_site_label_2
_geom_bond_distance
_geom_bond_site_symmetry_2
Ta0 Tc0 2.872360 1_554
Ta1 Tc0 2.872361 1_555
Ta2 Tc0 3.052478 1_554
Ta3 Tc0 3.052478 1_555
Ta4 Tc0 2.853015 1_565
Ta5 Tc0 2.853015 1_565
Re0 Si0 2.496027 1_455
Re0 Si1 2.496027 1_555
Re0 Si5 2.555272 1_554
Re0 Si4 2.555279 1_444
Re0 Ta5 2.848371 1_545
Re0 Ta4 2.848371 1_444
Re0 Ta0 2.870881 1_455
Re0 Ta1 2.870882 1_555
Re0 Re2 2.922977 1_455
Re0 Re1 2.922977 1_555
Re0 Ta3 3.037263 1_555
Re0 Ta2 3.037263 1_455
Re1 Si0 2.428235 1_455
Re1 Si1 2.447475 1_555
Re1 Si5 2.524363 1_565
Re1 Si2 2.527544 1_555
Re1 Ta0 2.778292 1_566
Re1 Ta1 2.793562 1_555
Re1 Ta5 2.847126 1_556
Re1 Ta3 2.904260 1_565
Re1 Re2 2.956346 1_455
Re1 Re3 3.028330 1_556
Re1 Ta4 3.094086 1_455
Re1 Ta2 3.165364 1_455
Re2 Si1 2.428235 1_655
Re2 Si0 2.447475 1_555
Re2 Si4 2.524361 1_555
Re2 Si3 2.527544 1_555
Re2 Ta1 2.778294 1_555
Re2 Ta0 2.793568 1_555
Re2 Ta4 2.847126 1_555
Re2 Ta2 2.904260 1_556
Re2 Re4 3.028330 1_555
Re2 Ta5 3.094086 1_656
Re2 Ta3 3.165364 1_655
Re3 Si0 2.416615 1_555
Re3 Si1 2.447710 1_554
Re3 Si4 2.523083 1_554
Re3 Si3 2.534996 1_565
Re3 Ta0 2.771984 1_565
Re3 Ta1 2.796636 1_554
Re3 Ta5 2.855855 1_555
Re3 Ta3 2.891627 1_665
Re3 Tc0 2.919609 1_554
Re3 Re4 2.957077 1_555
Re3 Ta4 3.094985 1_555
Re3 Ta2 3.175670 1_555
Re4 Si1 2.416615 1_554
Re4 Si0 2.447709 1_555
Re4 Si5 2.523087 1_554
Re4 Si2 2.534996 1_555
Re4 Ta1 2.771987 1_555
Re4 Ta0 2.796642 1_555
Re4 Ta4 2.855855 1_555
Re4 Ta2 2.891627 1_455
Re4 Tc0 2.919609 1_554
Re4 Ta5 3.094985 1_555
Re4 Ta3 3.175670 1_554
Si0 Tc0 2.489660 1_554
Si0 Ta2 2.633042 1_555
Si0 Ta4 2.682240 1_555
Si0 Ta0 2.936675 1_555
Si1 Tc0 2.489660 1_555
Si1 Ta3 2.633042 1_555
Si1 Ta5 2.682240 1_556
Si1 Ta1 2.936672 1_555
Si2 Tc0 2.544528 1_565
Si2 Ta2 2.633736 1_455
Si2 Ta0 2.641592 1_566
Si2 Ta5 2.660377 1_555
Si2 Ta4 2.670891 1_555
Si2 Ta1 2.692283 1_555
Si2 Ta3 2.693940 1_565
Si3 Tc0 2.544528 1_555
Si3 Ta3 2.633736 1_655
Si3 Ta1 2.641597 1_555
Si3 Ta4 2.660377 1_545
Si3 Ta5 2.670891 1_545
Si3 Ta0 2.692287 1_555
Si3 Ta2 2.693941 1_556
Si4 Ta2 2.634414 1_556
Si4 Ta0 2.644872 1_566
Si4 Ta5 2.661414 1_656
Si4 Ta4 2.668305 1_555
Si4 Ta3 2.684369 1_666
Si4 Ta1 2.692809 1_555
Si5 Ta3 2.634421 1_555
Si5 Ta1 2.644873 1_556
Si5 Ta4 2.661413 1_445
Si5 Ta5 2.668299 1_546
Si5 Ta2 2.684370 1_456
Si5 Ta0 2.692815 1_556
