# generated using pymatgen
data_Y3SiPdPt4
_symmetry_space_group_name_H-M   'P 1'
_cell_length_a   8.16153027
_cell_length_b   8.16153040
_cell_length_c   8.16152941
_cell_angle_alpha   126.98564184
_cell_angle_beta   125.62093837
_cell_angle_gamma   79.39512746
_symmetry_Int_Tables_number   1
_chemical_formula_structural   Y3SiPdPt4
_chemical_formula_sum   'Y6 Si2 Pd2 Pt8'
_cell_volume   341.21913098
_cell_formula_units_Z   2
loop_
 _symmetry_equiv_pos_site_id
 _symmetry_equiv_pos_as_xyz
  1  'x, y, z'
loop_
 _atom_site_type_symbol
 _atom_site_label
 _atom_site_symmetry_multiplicity
 _atom_site_fract_x
 _atom_site_fract_y
 _atom_site_fract_z
 _atom_site_occupancy
  Y  Y0  1  0.82733536  0.54864458  0.27869278  1
  Y  Y1  1  0.60567360  0.25000000  0.35567360  1
  Y  Y2  1  0.17266464  0.45135542  0.72130722  1
  Y  Y3  1  0.39432640  0.75000000  0.64432640  1
  Y  Y4  1  0.23004819  0.95135542  0.27869278  1
  Y  Y5  1  0.76995181  0.04864458  0.72130722  1
  Si  Si0  1  0.21568842  0.25000000  0.96568842  1
  Si  Si1  1  0.78431158  0.75000000  0.03431158  1
  Pd  Pd0  1  0.00000000  0.00000000  0.50000000  1
  Pd  Pd1  1  0.00000000  0.50000000  0.00000000  1
  Pt  Pt0  1  0.16742980  0.90117094  0.85455186  1
  Pt  Pt1  1  0.83257020  0.09882906  0.14544814  1
  Pt  Pt2  1  0.45338091  0.18712205  0.85455186  1
  Pt  Pt3  1  0.54661909  0.40117094  0.73374114  1
  Pt  Pt4  1  0.83257020  0.68712205  0.73374114  1
  Pt  Pt5  1  0.45338091  0.59882906  0.26625886  1
  Pt  Pt6  1  0.54661909  0.81287795  0.14544814  1
  Pt  Pt7  1  0.16742980  0.31287795  0.26625886  1
loop_
_geom_bond_atom_site_label_1
_geom_bond_atom_site_label_2
_geom_bond_distance
_geom_bond_site_symmetry_2
Si0 Y1 2.908737 1_556
Si0 Y5 3.117326 1_455
Si0 Y2 3.117332 1_555
Si1 Y3 2.908737 1_554
Si1 Y4 3.117326 1_655
Si1 Y0 3.117332 1_555
Pd0 Si1 2.430040 1_445
Pd0 Si0 2.430040 1_555
Pd0 Pt1 2.947542 1_455
Pd0 Pt0 2.947542 1_545
Pd0 Pt2 2.947542 1_555
Pd0 Pt6 2.947542 1_445
Pd0 Y4 3.123817 1_545
Pd0 Y5 3.123817 1_455
Pd0 Y2 3.123823 1_555
Pd0 Y0 3.123823 1_445
Pd0 Y3 3.459371 1_545
Pd0 Y1 3.459371 1_455
Pd1 Si0 2.430040 1_554
Pd1 Si1 2.430040 1_455
Pd1 Pt4 2.947542 1_454
Pd1 Pt7 2.947542 1_555
Pd1 Pt5 2.947543 1_555
Pd1 Pt3 2.947543 1_454
Pd1 Y4 3.123817 1_555
Pd1 Y5 3.123817 1_454
Pd1 Y2 3.123831 1_554
Pd1 Y0 3.123831 1_455
Pd1 Y3 3.459371 1_555
Pd1 Y1 3.459371 1_454
Pt0 Si0 2.443888 1_565
Pt0 Pt4 2.835319 1_455
Pt0 Y3 2.865013 1_555
Pt0 Pt6 2.900438 1_556
Pt0 Y4 2.953342 1_556
Pt0 Pt7 2.999345 1_566
Pt0 Y5 3.030418 1_465
Pt0 Y0 3.089431 1_455
Pt0 Y2 3.139222 1_555
Pt0 Y1 3.213030 1_566
Pt1 Si1 2.443888 1_545
Pt1 Pt7 2.835319 1_655
Pt1 Y1 2.865013 1_555
Pt1 Pt2 2.900438 1_554
Pt1 Y5 2.953342 1_554
Pt1 Pt4 2.999345 1_544
Pt1 Y4 3.030418 1_645
Pt1 Y2 3.089431 1_655
Pt1 Y0 3.139222 1_555
Pt1 Y3 3.213030 1_544
Pt2 Si0 2.443888 1_555
Pt2 Pt3 2.835319 1_555
Pt2 Y3 2.865014 1_545
Pt2 Y0 2.953333 1_556
Pt2 Pt5 2.999345 1_556
Pt2 Y2 3.030412 1_555
Pt2 Y4 3.089428 1_545
Pt2 Y5 3.139221 1_555
Pt2 Y1 3.213029 1_556
Pt3 Si1 2.443888 1_556
Pt3 Y1 2.865013 1_555
Pt3 Pt7 2.900438 1_555
Pt3 Y2 2.953326 1_555
Pt3 Pt6 2.999345 1_556
Pt3 Y0 3.030418 1_556
Pt3 Y5 3.089429 1_555
Pt3 Y4 3.139222 1_545
Pt3 Y3 3.213030 1_555
Pt4 Si1 2.443887 1_556
Pt4 Y1 2.865013 1_555
Pt4 Pt5 2.900438 1_555
Pt4 Y5 2.953342 1_565
Pt4 Y4 3.030418 1_656
Pt4 Y2 3.089442 1_655
Pt4 Y0 3.139211 1_555
Pt4 Y3 3.213030 1_555
Pt5 Si0 2.443888 1_554
Pt5 Pt6 2.835319 1_555
Pt5 Y3 2.865013 1_555
Pt5 Y0 2.953326 1_555
Pt5 Y2 3.030418 1_554
Pt5 Y4 3.089429 1_555
Pt5 Y5 3.139222 1_565
Pt5 Y1 3.213030 1_555
Pt6 Si1 2.443888 1_555
Pt6 Y1 2.865014 1_565
Pt6 Y2 2.953333 1_554
Pt6 Y0 3.030412 1_555
Pt6 Y5 3.089428 1_565
Pt6 Y4 3.139221 1_555
Pt6 Y3 3.213029 1_554
Pt7 Si0 2.443887 1_554
Pt7 Y3 2.865013 1_555
Pt7 Y4 2.953342 1_545
Pt7 Y5 3.030418 1_454
Pt7 Y0 3.089442 1_455
Pt7 Y2 3.139211 1_555
Pt7 Y1 3.213030 1_555
