# generated using pymatgen
data_K2Rb6TiBi4
_symmetry_space_group_name_H-M   'P 1'
_cell_length_a   11.99995582
_cell_length_b   11.99987425
_cell_length_c   11.99987429
_cell_angle_alpha   59.99956960
_cell_angle_beta   59.99980404
_cell_angle_gamma   59.99980381
_symmetry_Int_Tables_number   1
_chemical_formula_structural   K2Rb6TiBi4
_chemical_formula_sum   'K4 Rb12 Ti2 Bi8'
_cell_volume   1221.84281886
_cell_formula_units_Z   2
loop_
 _symmetry_equiv_pos_site_id
 _symmetry_equiv_pos_as_xyz
  1  'x, y, z'
loop_
 _atom_site_type_symbol
 _atom_site_label
 _atom_site_symmetry_multiplicity
 _atom_site_fract_x
 _atom_site_fract_y
 _atom_site_fract_z
 _atom_site_occupancy
  K  K0  1  0.62500000  0.12500000  0.62500000  1
  K  K1  1  0.62500000  0.62500000  0.12500000  1
  K  K2  1  0.12500000  0.62500000  0.62500000  1
  K  K3  1  0.62500000  0.62500000  0.62500000  1
  Rb  Rb0  1  0.02767821  0.02768441  0.47231527  1
  Rb  Rb1  1  0.77767910  0.22232071  0.22232071  1
  Rb  Rb2  1  0.22231729  0.77768234  0.77768234  1
  Rb  Rb3  1  0.77767709  0.77768514  0.22231617  1
  Rb  Rb4  1  0.77767709  0.22231617  0.77768514  1
  Rb  Rb5  1  0.22232179  0.77768473  0.22231559  1
  Rb  Rb6  1  0.47232291  0.02768383  0.47231486  1
  Rb  Rb7  1  0.47232090  0.02767929  0.02767929  1
  Rb  Rb8  1  0.02768271  0.47231766  0.47231766  1
  Rb  Rb9  1  0.02767821  0.47231527  0.02768441  1
  Rb  Rb10  1  0.22232179  0.22231559  0.77768473  1
  Rb  Rb11  1  0.47232291  0.47231486  0.02768383  1
  Ti  Ti0  1  0.74999561  0.75000529  0.75000529  1
  Ti  Ti1  1  0.50000439  0.49999471  0.49999471  1
  Bi  Bi0  1  0.40359919  0.78921095  0.40358945  1
  Bi  Bi1  1  0.84640081  0.84641055  0.46078905  1
  Bi  Bi2  1  0.46078270  0.84640940  0.84640940  1
  Bi  Bi3  1  0.84639952  0.84640985  0.84640985  1
  Bi  Bi4  1  0.78921730  0.40359060  0.40359060  1
  Bi  Bi5  1  0.40360048  0.40359015  0.40359015  1
  Bi  Bi6  1  0.40359919  0.40358945  0.78921095  1
  Bi  Bi7  1  0.84640081  0.46078905  0.84641055  1
loop_
_geom_bond_atom_site_label_1
_geom_bond_atom_site_label_2
_geom_bond_distance
_geom_bond_site_symmetry_2
K0 Ti1 3.674129 1_555
K0 Ti0 3.674129 1_545
K0 Rb7 3.963977 1_556
K0 Rb1 3.963977 1_555
K0 Rb4 3.964005 1_555
K0 Rb6 3.964005 1_555
K0 Rb0 3.964006 1_655
K0 Rb10 3.964006 1_555
K1 Ti1 3.674129 1_555
K1 Ti0 3.674129 1_554
K1 Rb7 3.963977 1_565
K1 Rb1 3.963977 1_555
K1 Rb3 3.964005 1_555
K1 Rb11 3.964005 1_555
K1 Rb9 3.964006 1_655
K1 Rb5 3.964006 1_555
K2 Ti1 3.674257 1_555
K2 Ti0 3.674257 1_455
K2 Rb0 3.964024 1_565
K2 Rb10 3.964024 1_555
K2 Rb9 3.964024 1_556
K2 Rb5 3.964024 1_555
K2 Rb2 3.964037 1_555
K2 Rb8 3.964037 1_555
K3 Ti0 3.674273 1_555
K3 Ti1 3.674273 1_555
K3 Rb6 3.964019 1_565
K3 Rb4 3.964019 1_555
K3 Rb11 3.964019 1_556
K3 Rb3 3.964019 1_555
K3 Rb8 3.964046 1_655
K3 Rb2 3.964046 1_555
Rb0 Rb1 4.294246 1_455
Rb0 Rb5 4.294280 1_545
Rb0 Rb4 4.294322 1_455
Rb0 Rb2 4.294344 1_545
Rb1 Rb11 4.294239 1_555
Rb1 Rb6 4.294239 1_555
Rb1 Rb9 4.294246 1_655
Rb2 Rb9 4.294344 1_556
Rb2 Rb6 4.294352 1_565
Rb3 Rb7 4.294239 1_565
Rb3 Rb6 4.294263 1_565
Rb3 Rb9 4.294322 1_655
Rb3 Rb8 4.294352 1_655
Rb4 Rb7 4.294239 1_556
Rb4 Rb8 4.294352 1_655
Rb5 Rb7 4.294246 1_565
Rb5 Rb8 4.294344 1_555
Rb10 Rb7 4.294246 1_556
Rb10 Rb9 4.294280 1_556
Rb10 Rb6 4.294322 1_555
Rb10 Rb8 4.294344 1_555
Rb11 Rb4 4.294263 1_554
Rb11 Rb5 4.294322 1_555
Rb11 Rb2 4.294352 1_554
Bi0 Ti1 2.833687 1_555
Bi0 K1 3.819406 1_555
Bi0 K2 3.819505 1_555
Bi0 K3 3.819516 1_555
Bi0 Rb5 3.849233 1_555
Bi0 Rb3 3.849241 1_555
Bi0 Rb2 3.849360 1_555
Bi0 Rb7 3.866291 1_565
Bi0 Rb0 3.866431 1_565
Bi0 Rb6 3.866436 1_565
Bi1 Ti0 2.833687 1_555
Bi1 K0 3.819406 1_565
Bi1 K2 3.819505 1_655
Bi1 K3 3.819516 1_555
Bi1 Rb0 3.849233 1_665
Bi1 Rb6 3.849241 1_565
Bi1 Rb8 3.849360 1_655
Bi1 Rb1 3.866291 1_565
Bi1 Rb5 3.866431 1_655
Bi1 Rb3 3.866436 1_555
Bi2 Ti0 2.833680 1_555
Bi2 K1 3.819457 1_556
Bi2 K0 3.819457 1_565
Bi2 K3 3.819567 1_555
Bi2 Rb7 3.849192 1_566
Bi2 Rb11 3.849332 1_556
Bi2 Rb6 3.849332 1_565
Bi2 Rb10 3.866248 1_565
Bi2 Rb5 3.866248 1_556
Bi2 Rb2 3.866405 1_555
Bi3 Ti0 2.833680 1_555
Bi3 K0 3.819467 1_565
Bi3 K1 3.819467 1_556
Bi3 K2 3.819572 1_655
Bi3 Rb7 3.849196 1_566
Bi3 Rb9 3.849329 1_656
Bi3 Rb0 3.849329 1_665
Bi3 Rb4 3.866243 1_565
Bi3 Rb3 3.866243 1_556
Bi3 Rb2 3.866383 1_655
Bi4 Ti1 2.833680 1_555
Bi4 K1 3.819457 1_555
Bi4 K0 3.819457 1_555
Bi4 K3 3.819567 1_555
Bi4 Rb1 3.849192 1_555
Bi4 Rb3 3.849332 1_555
Bi4 Rb4 3.849332 1_555
Bi4 Rb0 3.866248 1_655
Bi4 Rb9 3.866248 1_655
Bi4 Rb8 3.866405 1_655
Bi5 Ti1 2.833680 1_555
Bi5 K0 3.819467 1_555
Bi5 K1 3.819467 1_555
Bi5 K2 3.819572 1_555
Bi5 Rb1 3.849196 1_555
Bi5 Rb5 3.849329 1_555
Bi5 Rb10 3.849329 1_555
Bi5 Rb6 3.866243 1_555
Bi5 Rb11 3.866243 1_555
Bi5 Rb8 3.866383 1_555
Bi6 Ti1 2.833687 1_555
Bi6 K0 3.819406 1_555
Bi6 K2 3.819505 1_555
Bi6 K3 3.819516 1_555
Bi6 Rb10 3.849233 1_555
Bi6 Rb4 3.849241 1_555
Bi6 Rb2 3.849360 1_555
Bi6 Rb7 3.866291 1_556
Bi6 Rb9 3.866431 1_556
Bi6 Rb11 3.866436 1_556
Bi7 Ti0 2.833687 1_555
Bi7 K1 3.819406 1_556
Bi7 K2 3.819505 1_655
Bi7 K3 3.819516 1_555
Bi7 Rb9 3.849233 1_656
Bi7 Rb11 3.849241 1_556
Bi7 Rb8 3.849360 1_655
Bi7 Rb1 3.866291 1_556
Bi7 Rb10 3.866431 1_655
Bi7 Rb4 3.866436 1_555
