# generated using pymatgen
data_HoInNi
_symmetry_space_group_name_H-M   'P 1'
_cell_length_a   7.39318222
_cell_length_b   7.39318141
_cell_length_c   3.73477142
_cell_angle_alpha   90.00000000
_cell_angle_beta   90.00000000
_cell_angle_gamma   119.99999905
_symmetry_Int_Tables_number   1
_chemical_formula_structural   HoInNi
_chemical_formula_sum   'Ho3 In3 Ni3'
_cell_volume   176.78989424
_cell_formula_units_Z   3
loop_
 _symmetry_equiv_pos_site_id
 _symmetry_equiv_pos_as_xyz
  1  'x, y, z'
loop_
 _atom_site_type_symbol
 _atom_site_label
 _atom_site_symmetry_multiplicity
 _atom_site_fract_x
 _atom_site_fract_y
 _atom_site_fract_z
 _atom_site_occupancy
  Ho  Ho0  1  1.00000000  0.58857861  0.50000000  1
  Ho  Ho1  1  0.41142139  0.41142139  0.50000000  1
  Ho  Ho2  1  0.58857861  0.00000000  0.50000000  1
  In  In0  1  0.25453358  1.00000000  0.00000000  1
  In  In1  1  0.74546642  0.74546642  0.00000000  1
  In  In2  1  0.00000000  0.25453358  -0.00000000  1
  Ni  Ni0  1  0.33333300  0.66666700  0.00000000  1
  Ni  Ni1  1  0.00000000  0.00000000  0.50000000  1
  Ni  Ni2  1  0.66666700  0.33333300  -0.00000000  1
loop_
_geom_bond_atom_site_label_1
_geom_bond_atom_site_label_2
_geom_bond_distance
_geom_bond_site_symmetry_2
Ho0 Ni0 2.910483 1_655
Ho0 Ni0 2.910483 1_656
Ho0 Ni2 2.910484 1_556
Ho0 Ni2 2.910484 1_555
Ho0 Ni1 3.041713 1_665
Ho0 In2 3.096180 1_655
Ho0 In2 3.096180 1_656
Ho0 In0 3.249066 1_655
Ho0 In0 3.249066 1_656
Ho0 In1 3.249067 1_555
Ho0 In1 3.249067 1_556
Ho1 Ni0 2.910488 1_555
Ho1 Ni0 2.910488 1_556
Ho1 Ni2 2.910488 1_555
Ho1 Ni2 2.910488 1_556
Ho1 Ni1 3.041713 1_555
Ho1 In1 3.096180 1_555
Ho1 In1 3.096180 1_556
Ho1 In0 3.249066 1_545
Ho1 In0 3.249066 1_546
Ho1 In2 3.249067 1_555
Ho1 In2 3.249067 1_556
Ho2 Ni2 2.910482 1_556
Ho2 Ni2 2.910482 1_555
Ho2 Ni0 2.910484 1_545
Ho2 Ni0 2.910484 1_546
Ho2 Ni1 3.041713 1_655
Ho2 In0 3.096180 1_546
Ho2 In0 3.096180 1_545
Ho2 In1 3.249066 1_545
Ho2 In1 3.249066 1_546
Ho2 In2 3.249067 1_656
Ho2 In2 3.249067 1_655
In0 Ni1 2.651104 1_565
In0 Ni1 2.651104 1_564
In0 Ni0 2.801486 1_555
In0 Ni2 2.801491 1_565
In0 In2 3.259396 1_565
In0 In1 3.259396 1_455
In1 Ni1 2.651104 1_664
In1 Ni1 2.651104 1_665
In1 Ni2 2.801493 1_555
In1 Ni0 2.801494 1_555
In1 In2 3.259396 1_665
In2 Ni1 2.651103 1_555
In2 Ni1 2.651103 1_554
In2 Ni2 2.801486 1_455
In2 Ni0 2.801491 1_555
