# generated using pymatgen
data_MgAl2Cu
_symmetry_space_group_name_H-M   'P 1'
_cell_length_a   3.98317563
_cell_length_b   5.01862835
_cell_length_c   7.04954201
_cell_angle_alpha   90.00000000
_cell_angle_beta   90.00000000
_cell_angle_gamma   113.38072162
_symmetry_Int_Tables_number   1
_chemical_formula_structural   MgAl2Cu
_chemical_formula_sum   'Mg2 Al4 Cu2'
_cell_volume   129.34962772
_cell_formula_units_Z   2
loop_
 _symmetry_equiv_pos_site_id
 _symmetry_equiv_pos_as_xyz
  1  'x, y, z'
loop_
 _atom_site_type_symbol
 _atom_site_label
 _atom_site_symmetry_multiplicity
 _atom_site_fract_x
 _atom_site_fract_y
 _atom_site_fract_z
 _atom_site_occupancy
  Mg  Mg0  1  0.06450079  0.12899957  0.75000000  1
  Mg  Mg1  1  0.93549921  0.87100043  0.25000000  1
  Al  Al0  1  0.35420859  0.70841618  0.94433291  1
  Al  Al1  1  0.35420859  0.70841618  0.55566709  1
  Al  Al2  1  0.64579141  0.29158382  0.05566709  1
  Al  Al3  1  0.64579141  0.29158382  0.44433291  1
  Cu  Cu0  1  0.78000525  0.56000849  0.75000000  1
  Cu  Cu1  1  0.21999475  0.43999151  0.25000000  1
loop_
_geom_bond_atom_site_label_1
_geom_bond_atom_site_label_2
_geom_bond_distance
_geom_bond_site_symmetry_2
Al0 Cu1 2.484386 1_556
Al0 Cu0 2.512085 1_455
Al0 Cu0 2.512088 1_555
Al0 Al1 2.739916 1_555
Al0 Al2 2.798689 1_566
Al0 Al2 2.875656 1_556
Al0 Al2 2.875662 1_456
Al0 Mg0 3.000152 1_555
Al0 Mg1 3.028291 1_556
Al0 Mg1 3.028299 1_456
Al0 Mg0 3.097878 1_565
Al0 Mg0 3.097881 1_665
Al1 Cu1 2.484386 1_555
Al1 Cu0 2.512085 1_455
Al1 Cu0 2.512088 1_555
Al1 Al3 2.798689 1_565
Al1 Al3 2.875656 1_555
Al1 Al3 2.875662 1_455
Al1 Mg0 3.000152 1_555
Al1 Mg1 3.028291 1_555
Al1 Mg1 3.028299 1_455
Al1 Mg0 3.097878 1_565
Al1 Mg0 3.097881 1_665
Al2 Cu0 2.484386 1_554
Al2 Cu1 2.512085 1_655
Al2 Cu1 2.512088 1_555
Al2 Al3 2.739916 1_555
Al2 Mg1 3.000152 1_555
Al2 Mg0 3.028291 1_554
Al2 Mg0 3.028299 1_654
Al2 Mg1 3.097878 1_545
Al2 Mg1 3.097881 1_445
Al3 Cu0 2.484386 1_555
Al3 Cu1 2.512085 1_655
Al3 Cu1 2.512088 1_555
Al3 Mg1 3.000152 1_555
Al3 Mg0 3.028291 1_555
Al3 Mg0 3.028299 1_655
Al3 Mg1 3.097878 1_545
Al3 Mg1 3.097881 1_445
Cu0 Mg0 2.621080 1_665
Cu0 Mg0 2.812201 1_655
Cu0 Mg0 2.812201 1_555
Cu1 Mg1 2.621080 1_445
Cu1 Mg1 2.812201 1_455
Cu1 Mg1 2.812201 1_555
