# generated using pymatgen
data_K3Ba3GaP4
_symmetry_space_group_name_H-M   'P 1'
_cell_length_a   10.15230282
_cell_length_b   10.15230145
_cell_length_c   7.85336532
_cell_angle_alpha   90.00000000
_cell_angle_beta   90.00000000
_cell_angle_gamma   119.99999475
_symmetry_Int_Tables_number   1
_chemical_formula_structural   K3Ba3GaP4
_chemical_formula_sum   'K6 Ba6 Ga2 P8'
_cell_volume   700.99597302
_cell_formula_units_Z   2
loop_
 _symmetry_equiv_pos_site_id
 _symmetry_equiv_pos_as_xyz
  1  'x, y, z'
loop_
 _atom_site_type_symbol
 _atom_site_label
 _atom_site_symmetry_multiplicity
 _atom_site_fract_x
 _atom_site_fract_y
 _atom_site_fract_z
 _atom_site_occupancy
  K  K0  1  0.13439213  0.86560787  0.17284448  1
  K  K1  1  0.26878326  0.13439213  0.67284448  1
  K  K2  1  0.86560787  0.73121674  0.67284448  1
  K  K3  1  0.13439213  0.26878326  0.17284448  1
  K  K4  1  0.73121674  0.86560787  0.17284448  1
  K  K5  1  0.86560787  0.13439213  0.67284448  1
  Ba  Ba0  1  0.95330533  0.47665266  0.99839285  1
  Ba  Ba1  1  0.52334734  0.04669467  0.99839285  1
  Ba  Ba2  1  0.47665266  0.95330533  0.49839285  1
  Ba  Ba3  1  0.04669467  0.52334734  0.49839285  1
  Ba  Ba4  1  0.52334734  0.47665266  0.99839285  1
  Ba  Ba5  1  0.47665266  0.52334734  0.49839285  1
  Ga  Ga0  1  0.66666700  0.33333300  0.37768147  1
  Ga  Ga1  1  0.33333300  0.66666700  0.87768147  1
  P  P0  1  0.33333300  0.66666700  0.20218022  1
  P  P1  1  0.79943217  0.20056783  0.28147543  1
  P  P2  1  0.59886335  0.79943217  0.78147543  1
  P  P3  1  0.20056783  0.40113665  0.78147543  1
  P  P4  1  0.79943217  0.59886335  0.28147543  1
  P  P5  1  0.66666700  0.33333300  0.70218022  1
  P  P6  1  0.40113665  0.20056783  0.28147543  1
  P  P7  1  0.20056783  0.79943217  0.78147543  1
loop_
_geom_bond_atom_site_label_1
_geom_bond_atom_site_label_2
_geom_bond_distance
_geom_bond_site_symmetry_2
K0 P6 3.227466 1_565
K0 P4 3.227466 1_455
K0 P7 3.286470 1_554
K0 P0 3.505815 1_555
K1 P3 3.227465 1_555
K1 P7 3.227465 1_545
K1 P6 3.286476 1_555
K1 P5 3.505833 1_555
K2 P2 3.227466 1_555
K2 P7 3.227466 1_655
K2 P4 3.286476 1_555
K2 P5 3.505832 1_555
K3 P6 3.227466 1_555
K3 P1 3.227466 1_455
K3 P3 3.286476 1_554
K3 P0 3.505832 1_555
K4 P4 3.227465 1_555
K4 P1 3.227465 1_565
K4 P2 3.286476 1_554
K4 P0 3.505833 1_555
K5 P2 3.227466 1_545
K5 P3 3.227466 1_655
K5 P1 3.286470 1_555
K5 P5 3.505815 1_555
Ba0 P4 3.295506 1_556
Ba0 P1 3.295513 1_556
Ba0 P3 3.422843 1_655
Ba0 P7 3.422849 1_655
Ba0 P5 3.429688 1_555
Ba0 P0 3.704775 1_656
Ba1 P6 3.295506 1_556
Ba1 P1 3.295513 1_556
Ba1 P2 3.422842 1_545
Ba1 P7 3.422849 1_545
Ba1 P5 3.429688 1_555
Ba1 P0 3.704775 1_546
Ba2 P2 3.295506 1_555
Ba2 P7 3.295513 1_555
Ba2 P6 3.422842 1_565
Ba2 P1 3.422849 1_565
Ba2 P0 3.429688 1_555
Ba2 P5 3.704775 1_565
Ba3 P3 3.295506 1_555
Ba3 P7 3.295513 1_555
Ba3 P4 3.422843 1_455
Ba3 P1 3.422849 1_455
Ba3 P0 3.429688 1_555
Ba3 P5 3.704775 1_455
Ba4 P6 3.295513 1_556
Ba4 P4 3.295513 1_556
Ba4 P2 3.422851 1_555
Ba4 P3 3.422851 1_555
Ba4 P5 3.429694 1_555
Ba4 P0 3.704783 1_556
Ba5 P2 3.295513 1_555
Ba5 P3 3.295513 1_555
Ba5 P6 3.422851 1_555
Ba5 P4 3.422851 1_555
Ba5 P0 3.429694 1_555
Ba5 P5 3.704783 1_555
Ga0 P1 2.453797 1_555
Ga0 P4 2.453797 1_555
Ga0 P6 2.453797 1_555
Ga0 P5 2.548407 1_555
Ga1 P7 2.453797 1_555
Ga1 P3 2.453797 1_555
Ga1 P2 2.453797 1_555
Ga1 P0 2.548407 1_556
