# generated using pymatgen
data_ZrScBIr6
_symmetry_space_group_name_H-M   'P 1'
_cell_length_a   5.69478382
_cell_length_b   5.69478375
_cell_length_c   5.69478303
_cell_angle_alpha   59.99999846
_cell_angle_beta   59.99999888
_cell_angle_gamma   59.99999554
_symmetry_Int_Tables_number   1
_chemical_formula_structural   ZrScBIr6
_chemical_formula_sum   'Zr1 Sc1 B1 Ir6'
_cell_volume   130.59202013
_cell_formula_units_Z   1
loop_
 _symmetry_equiv_pos_site_id
 _symmetry_equiv_pos_as_xyz
  1  'x, y, z'
loop_
 _atom_site_type_symbol
 _atom_site_label
 _atom_site_symmetry_multiplicity
 _atom_site_fract_x
 _atom_site_fract_y
 _atom_site_fract_z
 _atom_site_occupancy
  Zr  Zr0  1  0.25000000  0.25000000  0.25000000  1
  Sc  Sc0  1  0.75000000  0.75000000  0.75000000  1
  B  B0  1  0.00000000  0.00000000  0.00000000  1
  Ir  Ir0  1  0.74140092  0.74140092  0.25859908  1
  Ir  Ir1  1  0.25859908  0.74140092  0.25859908  1
  Ir  Ir2  1  0.74140092  0.25859908  0.25859908  1
  Ir  Ir3  1  0.25859908  0.25859908  0.74140092  1
  Ir  Ir4  1  0.74140092  0.25859908  0.74140092  1
  Ir  Ir5  1  0.25859908  0.74140092  0.74140092  1
loop_
_geom_bond_atom_site_label_1
_geom_bond_atom_site_label_2
_geom_bond_distance
_geom_bond_site_symmetry_2
B0 Ir2 2.082664 1_455
B0 Ir1 2.082664 1_545
B0 Ir4 2.082664 1_454
B0 Ir5 2.082664 1_544
B0 Ir3 2.082664 1_554
B0 Ir0 2.082664 1_445
Ir0 Sc0 2.848234 1_554
Ir0 Sc0 2.848234 1_555
Ir0 Zr0 2.848234 1_565
Ir0 Zr0 2.848234 1_655
Ir1 Sc0 2.848234 1_554
Ir1 Sc0 2.848234 1_455
Ir1 Zr0 2.848234 1_565
Ir1 Zr0 2.848234 1_555
Ir2 Sc0 2.848234 1_554
Ir2 Sc0 2.848234 1_545
Ir2 Zr0 2.848234 1_655
Ir2 Zr0 2.848234 1_555
Ir3 Zr0 2.848234 1_556
Ir3 Zr0 2.848234 1_555
Ir3 Sc0 2.848234 1_545
Ir3 Sc0 2.848234 1_455
Ir4 Zr0 2.848234 1_556
Ir4 Zr0 2.848234 1_655
Ir4 Sc0 2.848234 1_545
Ir4 Sc0 2.848234 1_555
Ir5 Zr0 2.848234 1_556
Ir5 Zr0 2.848234 1_565
Ir5 Sc0 2.848234 1_455
Ir5 Sc0 2.848234 1_555
