# generated using pymatgen
data_Cs2KLuSb2
_symmetry_space_group_name_H-M   'P 1'
_cell_length_a   10.32547472
_cell_length_b   10.32429865
_cell_length_c   10.32547467
_cell_angle_alpha   133.33055349
_cell_angle_beta   65.53055005
_cell_angle_gamma   136.73259291
_symmetry_Int_Tables_number   1
_chemical_formula_structural   Cs2KLuSb2
_chemical_formula_sum   'Cs4 K2 Lu2 Sb4'
_cell_volume   540.66564682
_cell_formula_units_Z   2
loop_
 _symmetry_equiv_pos_site_id
 _symmetry_equiv_pos_as_xyz
  1  'x, y, z'
loop_
 _atom_site_type_symbol
 _atom_site_label
 _atom_site_symmetry_multiplicity
 _atom_site_fract_x
 _atom_site_fract_y
 _atom_site_fract_z
 _atom_site_occupancy
  Cs  Cs0  1  0.32072928  0.73702474  0.05772390  1
  Cs  Cs1  1  0.17929984  0.23702374  0.41629447  1
  Cs  Cs2  1  0.82070016  0.76297626  0.58370453  1
  Cs  Cs3  1  0.67927072  0.26297626  0.94227610  1
  K  K0  1  0.24997769  0.25000000  0.99997769  1
  K  K1  1  0.75002231  0.75000000  0.00002231  1
  Lu  Lu0  1  0.75012246  0.25000000  0.50012346  1
  Lu  Lu1  1  0.24987654  0.75000000  0.49987654  1
  Sb  Sb0  1  0.90583388  0.30069356  0.20655830  1
  Sb  Sb1  1  0.59413526  0.80069356  0.39485968  1
  Sb  Sb2  1  0.40586574  0.19930644  0.60514132  1
  Sb  Sb3  1  0.09416712  0.69930644  0.79344170  1
loop_
_geom_bond_atom_site_label_1
_geom_bond_atom_site_label_2
_geom_bond_distance
_geom_bond_site_symmetry_2
Cs0 Sb3 3.946407 1_554
Cs0 Sb2 4.059940 1_565
Cs0 Sb0 4.116208 1_565
Cs0 Sb0 4.117014 1_455
Cs1 Sb2 3.946441 1_555
Cs1 Sb3 4.059927 1_555
Cs1 Sb1 4.116209 1_555
Cs1 Sb1 4.117007 1_445
Cs2 Sb1 3.946416 1_555
Cs2 Sb0 4.059934 1_555
Cs2 Sb2 4.116222 1_555
Cs2 Sb2 4.117013 1_665
Cs3 Sb0 3.946424 1_556
Cs3 Sb1 4.059934 1_545
Cs3 Sb3 4.116203 1_545
Cs3 Sb3 4.117008 1_655
K0 Sb1 3.513166 1_556
K0 Sb3 3.513171 1_545
K0 Sb2 3.513964 1_555
K0 Sb0 3.513972 1_456
K1 Sb2 3.513158 1_554
K1 Sb0 3.513166 1_565
K1 Sb1 3.513972 1_555
K1 Sb3 3.513981 1_654
Lu0 Sb1 2.990591 1_545
Lu0 Sb3 2.990597 1_655
Lu0 Sb2 2.993570 1_555
Lu0 Sb0 2.993589 1_555
Lu1 Sb2 2.990577 1_565
Lu1 Sb0 2.990587 1_455
Lu1 Sb1 2.993589 1_555
Lu1 Sb3 2.993589 1_555
