# generated using pymatgen
data_RbP2RuPt
_symmetry_space_group_name_H-M   'P 1'
_cell_length_a   7.46347749
_cell_length_b   7.46347748
_cell_length_c   7.46347668
_cell_angle_alpha   149.37609637
_cell_angle_beta   149.37609949
_cell_angle_gamma   43.85800244
_symmetry_Int_Tables_number   1
_chemical_formula_structural   RbP2RuPt
_chemical_formula_sum   'Rb1 P2 Ru1 Pt1'
_cell_volume   107.57679338
_cell_formula_units_Z   1
loop_
 _symmetry_equiv_pos_site_id
 _symmetry_equiv_pos_as_xyz
  1  'x, y, z'
loop_
 _atom_site_type_symbol
 _atom_site_label
 _atom_site_symmetry_multiplicity
 _atom_site_fract_x
 _atom_site_fract_y
 _atom_site_fract_z
 _atom_site_occupancy
  Rb  Rb0  1  0.00000000  0.00000000  0.00000000  1
  P  P0  1  0.34304209  0.34304209  0.00000000  1
  P  P1  1  0.65695791  0.65695791  1.00000000  1
  Ru  Ru0  1  0.25000000  0.75000000  0.50000000  1
  Pt  Pt0  1  0.75000000  0.25000000  0.50000000  1
loop_
_geom_bond_atom_site_label_1
_geom_bond_atom_site_label_2
_geom_bond_distance
_geom_bond_site_symmetry_2
P0 Pt0 2.354641 1_555
P0 Ru0 2.354642 1_555
P0 Pt0 2.354642 1_454
P0 Ru0 2.354642 1_544
P0 Rb0 3.534487 1_554
P0 Rb0 3.534488 1_565
P0 Rb0 3.534488 1_655
P0 Rb0 3.534488 1_666
P1 Ru0 2.354641 1_555
P1 Pt0 2.354642 1_555
P1 Ru0 2.354642 1_656
P1 Pt0 2.354642 1_566
P1 Rb0 3.534487 1_667
P1 Rb0 3.534488 1_656
P1 Rb0 3.534488 1_566
P1 Rb0 3.534488 1_555
Pt0 Ru0 2.787290 1_544
Pt0 Ru0 2.787290 1_656
Pt0 Ru0 2.787291 1_555
Pt0 Ru0 2.787291 1_645
