# generated using pymatgen
data_K20Hf3ZrP12
_symmetry_space_group_name_H-M   'P 1'
_cell_length_a   8.19954728
_cell_length_b   8.84911160
_cell_length_c   17.37660132
_cell_angle_alpha   60.04579610
_cell_angle_beta   89.95480276
_cell_angle_gamma   89.98587502
_symmetry_Int_Tables_number   1
_chemical_formula_structural   K20Hf3ZrP12
_chemical_formula_sum   'K20 Hf3 Zr1 P12'
_cell_volume   1092.40858249
_cell_formula_units_Z   1
loop_
 _symmetry_equiv_pos_site_id
 _symmetry_equiv_pos_as_xyz
  1  'x, y, z'
loop_
 _atom_site_type_symbol
 _atom_site_label
 _atom_site_symmetry_multiplicity
 _atom_site_fract_x
 _atom_site_fract_y
 _atom_site_fract_z
 _atom_site_occupancy
  K  K0  1  0.17270216  0.84181476  0.74252384  1
  K  K1  1  0.67313951  0.15835472  0.75679424  1
  K  K2  1  0.82606190  0.15770093  0.25734177  1
  K  K3  1  0.32688947  0.84134200  0.24366175  1
  K  K4  1  0.16669075  0.16424182  0.41894337  1
  K  K5  1  0.66699196  0.83548687  0.08147546  1
  K  K6  1  0.83360935  0.83525222  0.58145478  1
  K  K7  1  0.33389653  0.16591480  0.91760487  1
  K  K8  1  0.00869807  0.07797250  0.09252484  1
  K  K9  1  0.50770334  0.92271741  0.40758598  1
  K  K10  1  0.99201998  0.92311424  0.90689966  1
  K  K11  1  0.49235776  0.07682239  0.59303487  1
  K  K12  1  0.51549239  0.25305942  0.07854968  1
  K  K13  1  0.01611009  0.74438562  0.42159997  1
  K  K14  1  0.48439414  0.74439772  0.92116229  1
  K  K15  1  0.98415081  0.25621887  0.57846278  1
  K  K16  1  0.98397950  0.54163089  0.26012793  1
  K  K17  1  0.48466676  0.45846839  0.24102402  1
  K  K18  1  0.01683224  0.45830362  0.74071181  1
  K  K19  1  0.51669238  0.54181049  0.75870494  1
  Hf  Hf0  1  0.36942254  0.49543582  0.58072265  1
  Hf  Hf1  1  0.86832165  0.50433675  0.91868595  1
  Hf  Hf2  1  0.63070494  0.50419607  0.41945226  1
  Zr  Zr0  1  0.13092983  0.49648474  0.08130950  1
  P  P0  1  0.31983675  0.48606293  0.43763379  1
  P  P1  1  0.81693050  0.51323442  0.06169908  1
  P  P2  1  0.68029035  0.51366162  0.56250302  1
  P  P3  1  0.17901898  0.48688588  0.93662351  1
  P  P4  1  0.21323452  0.21701410  0.21914138  1
  P  P5  1  0.71248328  0.78079841  0.28265687  1
  P  P6  1  0.78718785  0.78143880  0.78198801  1
  P  P7  1  0.28764126  0.21867726  0.71732981  1
  P  P8  1  0.25086951  0.76376122  0.07777091  1
  P  P9  1  0.75024347  0.23983104  0.42259285  1
  P  P10  1  0.74979563  0.23947204  0.92205283  1
  P  P11  1  0.25000887  0.75969724  0.57764675  1
loop_
_geom_bond_atom_site_label_1
_geom_bond_atom_site_label_2
_geom_bond_distance
_geom_bond_site_symmetry_2
K0 P6 3.221713 1_455
K0 P3 3.265678 1_555
K0 P7 3.277859 1_565
K0 P11 3.348734 1_555
K1 P7 3.222360 1_555
K1 P2 3.269061 1_555
K1 P6 3.275945 1_545
K1 P10 3.349347 1_555
K2 P4 3.231722 1_655
K2 P5 3.274216 1_545
K2 P1 3.283386 1_555
K2 P9 3.352795 1_555
K3 P5 3.222190 1_555
K3 P0 3.265876 1_555
K3 P4 3.268949 1_565
K3 P8 3.338956 1_555
K4 P0 3.273913 1_555
K4 P4 3.285816 1_555
K4 P11 3.321195 1_545
K4 P9 3.486025 1_455
K5 P1 3.276841 1_555
K5 P5 3.302547 1_555
K5 P10 3.320202 1_564
K5 P8 3.477221 1_555
K6 P2 3.275009 1_555
K6 P6 3.294681 1_555
K6 P9 3.322283 1_565
K6 P11 3.485894 1_655
K7 P3 3.274783 1_555
K7 P7 3.294286 1_555
K7 P8 3.313797 1_546
K7 P10 3.480054 1_555
K8 P10 3.332372 1_454
K8 P4 3.446367 1_555
K8 P8 3.528197 1_545
K8 P3 3.548284 1_554
K9 P11 3.318557 1_555
K9 P5 3.438725 1_555
K9 P2 3.553124 1_555
K9 P9 3.554143 1_565
K10 P8 3.337145 1_656
K10 P6 3.439196 1_555
K10 P10 3.547353 1_565
K10 P1 3.564523 1_556
K11 P9 3.324016 1_555
K11 P7 3.429128 1_555
K11 P0 3.556059 1_555
K11 P11 3.556456 1_545
K12 P1 3.289977 1_555
K12 P10 3.379141 1_554
K12 P4 3.380096 1_555
K12 P3 3.589883 1_554
K13 P0 3.296599 1_555
K13 P5 3.370947 1_455
K13 P11 3.379994 1_555
K13 P2 3.570092 1_455
K14 P3 3.305295 1_555
K14 P6 3.364441 1_555
K14 P8 3.399807 1_556
K14 P1 3.549915 1_556
K15 P2 3.292700 1_555
K15 P7 3.366631 1_655
K15 P9 3.381714 1_555
K15 P0 3.566950 1_655
K16 P5 3.226747 1_555
K16 P9 3.352649 1_555
K16 P8 3.530565 1_655
K17 P4 3.237018 1_555
K17 P8 3.372492 1_555
K17 P9 3.514620 1_555
K18 P7 3.232460 1_555
K18 P11 3.353332 1_555
K18 P10 3.517272 1_455
K19 P6 3.231086 1_555
K19 P10 3.360114 1_555
K19 P11 3.514060 1_555
Hf0 P7 2.505035 1_555
Hf0 P11 2.510814 1_555
Hf0 P0 2.561623 1_555
Hf0 P2 2.563486 1_555
Hf1 P6 2.506555 1_555
Hf1 P10 2.511078 1_555
Hf1 P1 2.559907 1_556
Hf1 P3 2.562058 1_655
Hf2 P5 2.505836 1_555
Hf2 P9 2.511559 1_555
Hf2 P2 2.561394 1_555
Hf2 P0 2.563427 1_555
P1 Zr0 2.591849 1_655
P3 Zr0 2.587533 1_556
P4 Zr0 2.528749 1_555
P8 Zr0 2.533922 1_555
