# generated using pymatgen
data_RbLi6RuO6
_symmetry_space_group_name_H-M   'P 1'
_cell_length_a   5.28678180
_cell_length_b   5.28678094
_cell_length_c   5.28678148
_cell_angle_alpha   101.29994848
_cell_angle_beta   101.29994412
_cell_angle_gamma   101.29994776
_symmetry_Int_Tables_number   1
_chemical_formula_structural   RbLi6RuO6
_chemical_formula_sum   'Rb1 Li6 Ru1 O6'
_cell_volume   137.80858045
_cell_formula_units_Z   1
loop_
 _symmetry_equiv_pos_site_id
 _symmetry_equiv_pos_as_xyz
  1  'x, y, z'
loop_
 _atom_site_type_symbol
 _atom_site_label
 _atom_site_symmetry_multiplicity
 _atom_site_fract_x
 _atom_site_fract_y
 _atom_site_fract_z
 _atom_site_occupancy
  Rb  Rb0  1  0.50000000  0.50000000  0.50000000  1
  Li  Li0  1  1.00000000  0.33897212  0.66102788  1
  Li  Li1  1  0.66102788  1.00000000  0.33897212  1
  Li  Li2  1  0.66102788  0.33897212  1.00000000  1
  Li  Li3  1  0.33897212  0.00000000  0.66102788  1
  Li  Li4  1  0.00000000  0.66102788  0.33897212  1
  Li  Li5  1  0.33897212  0.66102788  0.00000000  1
  Ru  Ru0  1  0.00000000  0.00000000  0.00000000  1
  O  O0  1  0.08062049  0.72867598  0.72867598  1
  O  O1  1  0.72867598  0.72867598  0.08062049  1
  O  O2  1  0.91937951  0.27132402  0.27132402  1
  O  O3  1  0.27132402  0.27132402  0.91937951  1
  O  O4  1  0.27132402  0.91937951  0.27132402  1
  O  O5  1  0.72867598  0.08062049  0.72867598  1
loop_
_geom_bond_atom_site_label_1
_geom_bond_atom_site_label_2
_geom_bond_distance
_geom_bond_site_symmetry_2
Li0 O5 1.917216 1_555
Li0 O3 1.917217 1_655
Li0 O0 1.965118 1_655
Li0 O2 1.965119 1_555
Li0 Rb0 2.953138 1_655
Li0 Rb0 2.953138 1_555
Li1 O1 1.917216 1_555
Li1 O2 1.917216 1_565
Li1 O5 1.965119 1_565
Li1 O4 1.965119 1_555
Li1 Rb0 2.953138 1_565
Li1 Rb0 2.953138 1_555
Li2 O5 1.917216 1_555
Li2 O2 1.917217 1_556
Li2 O1 1.965118 1_556
Li2 O3 1.965119 1_555
Li2 Rb0 2.953138 1_556
Li2 Rb0 2.953138 1_555
Li3 O3 1.917216 1_555
Li3 O0 1.917216 1_545
Li3 O4 1.965119 1_545
Li3 O5 1.965119 1_555
Li3 Rb0 2.953138 1_545
Li3 Rb0 2.953138 1_555
Li4 O4 1.917216 1_555
Li4 O1 1.917217 1_455
Li4 O2 1.965118 1_455
Li4 O0 1.965119 1_555
Li4 Rb0 2.953138 1_455
Li4 Rb0 2.953138 1_555
Li5 O4 1.917216 1_555
Li5 O0 1.917217 1_554
Li5 O3 1.965118 1_554
Li5 O1 1.965119 1_555
Li5 Rb0 2.953138 1_554
Li5 Rb0 2.953138 1_555
O0 Ru0 1.992409 1_566
O0 Rb0 2.977293 1_455
O0 Rb0 3.060575 1_555
O1 Ru0 1.992409 1_665
O1 Rb0 2.977293 1_554
O1 Rb0 3.060575 1_555
O2 Ru0 1.992409 1_655
O2 Rb0 2.977293 1_655
O2 Rb0 3.060575 1_555
O3 Ru0 1.992409 1_556
O3 Rb0 2.977293 1_556
O3 Rb0 3.060575 1_555
O4 Ru0 1.992409 1_565
O4 Rb0 2.977293 1_565
O4 Rb0 3.060575 1_555
O5 Ru0 1.992409 1_656
O5 Rb0 2.977293 1_545
O5 Rb0 3.060575 1_555
