# generated using pymatgen
data_Hf5CuSn3
_symmetry_space_group_name_H-M   'P 1'
_cell_length_a   8.52860458
_cell_length_b   8.52860403
_cell_length_c   5.79356715
_cell_angle_alpha   90.00000000
_cell_angle_beta   90.00000000
_cell_angle_gamma   120.00000213
_symmetry_Int_Tables_number   1
_chemical_formula_structural   Hf5CuSn3
_chemical_formula_sum   'Hf10 Cu2 Sn6'
_cell_volume   364.94935284
_cell_formula_units_Z   2
loop_
 _symmetry_equiv_pos_site_id
 _symmetry_equiv_pos_as_xyz
  1  'x, y, z'
loop_
 _atom_site_type_symbol
 _atom_site_label
 _atom_site_symmetry_multiplicity
 _atom_site_fract_x
 _atom_site_fract_y
 _atom_site_fract_z
 _atom_site_occupancy
  Hf  Hf0  1  0.33333300  0.66666700  -0.00000000  1
  Hf  Hf1  1  0.66666700  0.33333300  0.50000000  1
  Hf  Hf2  1  0.66666700  0.33333300  -0.00000000  1
  Hf  Hf3  1  0.33333300  0.66666700  0.50000000  1
  Hf  Hf4  1  0.26181358  -0.00000000  0.25000000  1
  Hf  Hf5  1  0.26181358  0.26181358  0.75000000  1
  Hf  Hf6  1  0.00000000  0.73818642  0.75000000  1
  Hf  Hf7  1  1.00000000  0.26181358  0.25000000  1
  Hf  Hf8  1  0.73818642  0.73818642  0.25000000  1
  Hf  Hf9  1  0.73818642  -0.00000000  0.75000000  1
  Cu  Cu0  1  0.00000000  -0.00000000  -0.00000000  1
  Cu  Cu1  1  0.00000000  -0.00000000  0.50000000  1
  Sn  Sn0  1  0.61235712  -0.00000000  0.25000000  1
  Sn  Sn1  1  0.61235712  0.61235712  0.75000000  1
  Sn  Sn2  1  1.00000000  0.38764288  0.75000000  1
  Sn  Sn3  1  0.00000000  0.61235712  0.25000000  1
  Sn  Sn4  1  0.38764288  0.38764288  0.25000000  1
  Sn  Sn5  1  0.38764288  -0.00000000  0.75000000  1
loop_
_geom_bond_atom_site_label_1
_geom_bond_atom_site_label_2
_geom_bond_distance
_geom_bond_site_symmetry_2
Hf0 Sn5 3.012886 1_564
Hf0 Sn3 3.012887 1_555
Hf0 Sn0 3.012889 1_565
Hf0 Sn2 3.012889 1_454
Hf0 Sn4 3.012894 1_555
Hf0 Sn1 3.012894 1_554
Hf1 Sn0 3.012886 1_555
Hf1 Sn2 3.012887 1_555
Hf1 Sn5 3.012889 1_555
Hf1 Sn3 3.012889 1_655
Hf1 Sn1 3.012894 1_555
Hf1 Sn4 3.012894 1_555
Hf2 Sn0 3.012886 1_555
Hf2 Sn2 3.012887 1_554
Hf2 Sn5 3.012889 1_554
Hf2 Sn3 3.012889 1_655
Hf2 Sn1 3.012894 1_554
Hf2 Sn4 3.012894 1_555
Hf3 Sn5 3.012886 1_565
Hf3 Sn3 3.012887 1_555
Hf3 Sn0 3.012889 1_565
Hf3 Sn2 3.012889 1_455
Hf3 Sn4 3.012894 1_555
Hf3 Sn1 3.012894 1_555
Hf4 Sn3 2.921258 1_545
Hf4 Sn4 2.921258 1_555
Hf4 Sn0 2.989647 1_555
Hf4 Sn5 3.089175 1_554
Hf4 Sn5 3.089175 1_555
Hf5 Sn5 2.921258 1_555
Hf5 Sn2 2.921258 1_455
Hf5 Sn1 2.989647 1_555
Hf5 Sn4 3.089175 1_556
Hf5 Sn4 3.089175 1_555
Hf6 Sn5 2.921258 1_565
Hf6 Sn1 2.921258 1_455
Hf6 Sn2 2.989647 1_455
Hf6 Sn3 3.089175 1_556
Hf6 Sn3 3.089175 1_555
Hf7 Sn0 2.921258 1_555
Hf7 Sn4 2.921258 1_655
Hf7 Sn3 2.989647 1_655
Hf7 Sn2 3.089175 1_554
Hf7 Sn2 3.089175 1_555
Hf8 Sn0 2.921258 1_565
Hf8 Sn3 2.921258 1_655
Hf8 Sn4 2.989647 1_555
Hf8 Sn1 3.089175 1_555
Hf8 Sn1 3.089175 1_554
Hf9 Sn1 2.921258 1_545
Hf9 Sn2 2.921258 1_555
Hf9 Sn5 2.989647 1_555
Hf9 Sn0 3.089175 1_556
Hf9 Sn0 3.089175 1_555
Cu0 Hf6 2.661522 1_544
Cu0 Hf5 2.661522 1_554
Cu0 Hf8 2.661522 1_445
Cu0 Hf7 2.661522 1_455
Cu0 Hf9 2.661522 1_454
Cu0 Hf4 2.661522 1_555
Cu1 Hf6 2.661522 1_545
Cu1 Hf5 2.661522 1_555
Cu1 Hf8 2.661522 1_445
Cu1 Hf7 2.661522 1_455
Cu1 Hf4 2.661522 1_555
Cu1 Hf9 2.661522 1_455
