# generated using pymatgen
data_Na4Si2SnSe6
_symmetry_space_group_name_H-M   'P 1'
_cell_length_a   7.02922832
_cell_length_b   7.02922900
_cell_length_c   7.90633748
_cell_angle_alpha   81.40385425
_cell_angle_beta   81.40385379
_cell_angle_gamma   119.98689157
_symmetry_Int_Tables_number   1
_chemical_formula_structural   Na4Si2SnSe6
_chemical_formula_sum   'Na4 Si2 Sn1 Se6'
_cell_volume   322.89371051
_cell_formula_units_Z   1
loop_
 _symmetry_equiv_pos_site_id
 _symmetry_equiv_pos_as_xyz
  1  'x, y, z'
loop_
 _atom_site_type_symbol
 _atom_site_label
 _atom_site_symmetry_multiplicity
 _atom_site_fract_x
 _atom_site_fract_y
 _atom_site_fract_z
 _atom_site_occupancy
  Na  Na0  1  0.49934013  0.50065987  0.00000000  1
  Na  Na1  1  0.82762187  0.17237813  0.00000000  1
  Na  Na2  1  0.17294817  0.82705183  1.00000000  1
  Na  Na3  1  0.66615241  0.33384759  0.50000000  1
  Si  Si0  1  0.05058731  0.05020209  0.34593325  1
  Si  Si1  1  0.94979791  0.94941269  0.65406675  1
  Sn  Sn0  1  0.33508285  0.66491715  0.50000000  1
  Se  Se0  1  0.77057918  0.77287374  0.25483203  1
  Se  Se1  1  0.22712626  0.22942082  0.74516797  1
  Se  Se2  1  0.08272948  0.39188716  0.25487842  1
  Se  Se3  1  0.39041593  0.08049433  0.25204595  1
  Se  Se4  1  0.91950567  0.60958407  0.74795405  1
  Se  Se5  1  0.60811284  0.91727052  0.74512158  1
loop_
_geom_bond_atom_site_label_1
_geom_bond_atom_site_label_2
_geom_bond_distance
_geom_bond_site_symmetry_2
Na0 Se2 2.959458 1_555
Na0 Se5 2.959458 1_554
Na0 Se4 2.967188 1_554
Na0 Se3 2.967188 1_555
Na0 Se1 3.163836 1_554
Na0 Se0 3.163836 1_555
Na1 Se2 2.983485 1_655
Na1 Se5 2.983485 1_544
Na1 Se1 3.007948 1_654
Na1 Se0 3.007948 1_545
Na1 Se3 3.103756 1_555
Na1 Se4 3.103756 1_554
Na2 Se4 2.954872 1_455
Na2 Se3 2.954872 1_566
Na2 Se0 3.032221 1_456
Na2 Se1 3.032221 1_565
Na2 Se5 3.107400 1_555
Na2 Se2 3.107401 1_556
Na3 Se1 3.056422 1_555
Na3 Se0 3.056422 1_555
Na3 Se2 3.061016 1_655
Na3 Se5 3.061016 1_545
Na3 Se3 3.082302 1_555
Na3 Se4 3.082302 1_555
Se0 Si0 2.280595 1_665
Se0 Sn0 3.027955 1_555
Se1 Si1 2.280595 1_445
Se1 Sn0 3.027955 1_555
Se2 Si0 2.286906 1_555
Se2 Sn0 3.053239 1_555
Se3 Si0 2.283999 1_555
Se3 Sn0 3.074444 1_545
Se4 Si1 2.283999 1_555
Se4 Sn0 3.074443 1_655
Se5 Si1 2.286906 1_555
Se5 Sn0 3.053239 1_555
