# generated using pymatgen
data_Nb4Hg3PbO14
_symmetry_space_group_name_H-M   'P 1'
_cell_length_a   7.55215101
_cell_length_b   7.45842063
_cell_length_c   7.45842083
_cell_angle_alpha   60.00000344
_cell_angle_beta   60.40971643
_cell_angle_gamma   60.40971882
_symmetry_Int_Tables_number   1
_chemical_formula_structural   Nb4Hg3PbO14
_chemical_formula_sum   'Nb4 Hg3 Pb1 O14'
_cell_volume   298.89000409
_cell_formula_units_Z   1
loop_
 _symmetry_equiv_pos_site_id
 _symmetry_equiv_pos_as_xyz
  1  'x, y, z'
loop_
 _atom_site_type_symbol
 _atom_site_label
 _atom_site_symmetry_multiplicity
 _atom_site_fract_x
 _atom_site_fract_y
 _atom_site_fract_z
 _atom_site_occupancy
  Nb  Nb0  1  0.12500000  0.62500000  0.12500000  1
  Nb  Nb1  1  0.12500000  0.12500000  0.62500000  1
  Nb  Nb2  1  0.62500000  0.12500000  0.12500000  1
  Nb  Nb3  1  0.12500000  0.12500000  0.12500000  1
  Hg  Hg0  1  0.62500000  0.62500000  0.62500000  1
  Hg  Hg1  1  0.62500000  0.12500000  0.62500000  1
  Hg  Hg2  1  0.62500000  0.62500000  0.12500000  1
  Pb  Pb0  1  0.12500000  0.62500000  0.62500000  1
  O  O0  1  0.71034903  0.76321666  0.76321666  1
  O  O1  1  0.18717838  0.80853531  0.80853531  1
  O  O2  1  0.18717838  0.80853531  0.19575101  1
  O  O3  1  0.81391505  0.81070547  0.18768974  1
  O  O4  1  0.81391505  0.18768974  0.81070547  1
  O  O5  1  0.18717838  0.19575101  0.80853531  1
  O  O6  1  0.43608495  0.06231026  0.06231026  1
  O  O7  1  0.81391505  0.18768974  0.18768974  1
  O  O8  1  0.06282162  0.44146469  0.05424899  1
  O  O9  1  0.06282162  0.05424899  0.44146469  1
  O  O10  1  0.43608495  0.43929453  0.06231026  1
  O  O11  1  0.43608495  0.06231026  0.43929453  1
  O  O12  1  0.06282162  0.44146469  0.44146469  1
  O  O13  1  0.53965097  0.48678334  0.48678334  1
loop_
_geom_bond_atom_site_label_1
_geom_bond_atom_site_label_2
_geom_bond_distance
_geom_bond_site_symmetry_2
Nb0 O2 1.993663 1_555
Nb0 O8 1.993663 1_555
Nb0 O12 1.993664 1_555
Nb0 O1 1.993664 1_554
Nb0 O10 2.001413 1_555
Nb0 O3 2.001413 1_455
Nb1 O5 1.993663 1_555
Nb1 O9 1.993663 1_555
Nb1 O12 1.993664 1_555
Nb1 O1 1.993664 1_545
Nb1 O11 2.001413 1_555
Nb1 O4 2.001413 1_455
Nb2 O7 2.002244 1_555
Nb2 O6 2.002244 1_555
Nb2 O11 2.002244 1_555
Nb2 O4 2.002244 1_554
Nb2 O3 2.002244 1_545
Nb2 O10 2.002244 1_555
Nb3 O8 1.993663 1_555
Nb3 O2 1.993663 1_545
Nb3 O9 1.993664 1_555
Nb3 O5 1.993664 1_554
Nb3 O6 2.001413 1_555
Nb3 O7 2.001413 1_455
Hg0 O0 2.217216 1_555
Hg0 O13 2.217216 1_555
Hg1 O13 2.217222 1_555
Hg1 O0 2.217222 1_545
Hg2 O13 2.217222 1_555
Hg2 O0 2.217222 1_554
O0 Pb0 2.572585 1_655
O1 Pb0 2.666773 1_555
O2 Pb0 2.666773 1_555
O5 Pb0 2.666773 1_555
O8 Pb0 2.666773 1_554
O9 Pb0 2.666773 1_545
O12 Pb0 2.666773 1_555
O13 Pb0 2.572585 1_555
