# generated using pymatgen
data_MgZr(Si7Ir3)2
_symmetry_space_group_name_H-M   'P 1'
_cell_length_a   7.94112958
_cell_length_b   7.94112976
_cell_length_c   7.94112951
_cell_angle_alpha   56.60015968
_cell_angle_beta   56.60015752
_cell_angle_gamma   56.60015665
_symmetry_Int_Tables_number   1
_chemical_formula_structural   MgZr(Si7Ir3)2
_chemical_formula_sum   'Mg1 Zr1 Si14 Ir6'
_cell_volume   326.29164327
_cell_formula_units_Z   1
loop_
 _symmetry_equiv_pos_site_id
 _symmetry_equiv_pos_as_xyz
  1  'x, y, z'
loop_
 _atom_site_type_symbol
 _atom_site_label
 _atom_site_symmetry_multiplicity
 _atom_site_fract_x
 _atom_site_fract_y
 _atom_site_fract_z
 _atom_site_occupancy
  Mg  Mg0  1  0.50000000  0.50000000  0.50000000  1
  Zr  Zr0  1  0.00000000  0.00000000  0.00000000  1
  Si  Si0  1  0.84818300  0.06330017  0.67308366  1
  Si  Si1  1  0.67308366  0.84818300  0.06330017  1
  Si  Si2  1  0.06330017  0.67308366  0.84818300  1
  Si  Si3  1  0.64723904  0.82551466  0.43743303  1
  Si  Si4  1  0.24978240  0.24978240  0.24978240  1
  Si  Si5  1  0.75021760  0.75021760  0.75021760  1
  Si  Si6  1  0.17448534  0.56256697  0.35276096  1
  Si  Si7  1  0.56256697  0.35276096  0.17448534  1
  Si  Si8  1  0.35276096  0.17448534  0.56256697  1
  Si  Si9  1  0.93669983  0.32691634  0.15181700  1
  Si  Si10  1  0.32691634  0.15181700  0.93669983  1
  Si  Si11  1  0.15181700  0.93669983  0.32691634  1
  Si  Si12  1  0.82551466  0.43743303  0.64723904  1
  Si  Si13  1  0.43743303  0.64723904  0.82551466  1
  Ir  Ir0  1  0.75277955  0.07107171  0.42368509  1
  Ir  Ir1  1  0.42368509  0.75277955  0.07107171  1
  Ir  Ir2  1  0.07107171  0.42368509  0.75277955  1
  Ir  Ir3  1  0.24722045  0.92892829  0.57631491  1
  Ir  Ir4  1  0.57631491  0.24722045  0.92892829  1
  Ir  Ir5  1  0.92892829  0.57631491  0.24722045  1
loop_
_geom_bond_atom_site_label_1
_geom_bond_atom_site_label_2
_geom_bond_distance
_geom_bond_site_symmetry_2
Mg0 Si13 3.093536 1_555
Mg0 Si7 3.093536 1_555
Mg0 Si12 3.093536 1_555
Mg0 Si6 3.093536 1_555
Mg0 Si3 3.093536 1_555
Mg0 Si8 3.093536 1_555
Mg0 Si2 3.152803 1_555
Mg0 Si9 3.152803 1_555
Mg0 Si0 3.152803 1_555
Mg0 Si11 3.152803 1_555
Mg0 Si1 3.152803 1_555
Mg0 Si10 3.152803 1_555
Si0 Zr0 3.128527 1_656
Si1 Zr0 3.128527 1_665
Si2 Zr0 3.128527 1_566
Si3 Zr0 3.177242 1_665
Si6 Zr0 3.177242 1_565
Si7 Zr0 3.177242 1_655
Si8 Zr0 3.177242 1_556
Si9 Zr0 3.128527 1_655
Si10 Zr0 3.128527 1_556
Si11 Zr0 3.128527 1_565
Si12 Zr0 3.177242 1_656
Si13 Zr0 3.177242 1_566
Ir0 Si9 2.426567 1_555
Ir0 Si7 2.428774 1_555
Ir0 Si5 2.437486 1_545
Ir0 Si0 2.442556 1_555
Ir0 Si3 2.445617 1_545
Ir0 Si8 2.499904 1_555
Ir0 Si11 2.503928 1_645
Ir0 Zr0 3.015202 1_655
Ir0 Mg0 3.066658 1_555
Ir1 Si11 2.426567 1_555
Ir1 Si6 2.428774 1_555
Ir1 Si5 2.437486 1_554
Ir1 Si1 2.442556 1_555
Ir1 Si13 2.445617 1_554
Ir1 Si7 2.499904 1_555
Ir1 Si10 2.503928 1_564
Ir1 Zr0 3.015202 1_565
Ir1 Mg0 3.066658 1_555
Ir2 Si10 2.426567 1_555
Ir2 Si8 2.428773 1_555
Ir2 Si5 2.437486 1_455
Ir2 Si2 2.442556 1_555
Ir2 Si12 2.445617 1_455
Ir2 Si6 2.499904 1_555
Ir2 Si9 2.503928 1_456
Ir2 Zr0 3.015202 1_556
Ir2 Mg0 3.066658 1_555
Ir3 Si2 2.426567 1_555
Ir3 Si13 2.428774 1_555
Ir3 Si4 2.437486 1_565
Ir3 Si11 2.442556 1_555
Ir3 Si8 2.445617 1_565
Ir3 Si3 2.499904 1_555
Ir3 Si0 2.503928 1_465
Ir3 Zr0 3.015202 1_566
Ir3 Mg0 3.066658 1_555
Ir4 Si0 2.426567 1_555
Ir4 Si12 2.428774 1_555
Ir4 Si4 2.437486 1_556
Ir4 Si10 2.442556 1_555
Ir4 Si7 2.445617 1_556
Ir4 Si13 2.499904 1_555
Ir4 Si1 2.503928 1_546
Ir4 Zr0 3.015202 1_656
Ir4 Mg0 3.066658 1_555
Ir5 Si1 2.426567 1_555
Ir5 Si3 2.428773 1_555
Ir5 Si4 2.437486 1_655
Ir5 Si9 2.442556 1_555
Ir5 Si6 2.445617 1_655
Ir5 Si12 2.499904 1_555
Ir5 Si2 2.503928 1_654
Ir5 Zr0 3.015202 1_665
Ir5 Mg0 3.066658 1_555
