# generated using pymatgen
data_RbV(NiS2)2
_symmetry_space_group_name_H-M   'P 1'
_cell_length_a   9.56882691
_cell_length_b   9.56882661
_cell_length_c   7.26532315
_cell_angle_alpha   90.00000000
_cell_angle_beta   90.00000000
_cell_angle_gamma   147.69324229
_symmetry_Int_Tables_number   1
_chemical_formula_structural   RbV(NiS2)2
_chemical_formula_sum   'Rb2 V2 Ni4 S8'
_cell_volume   355.53393418
_cell_formula_units_Z   2
loop_
 _symmetry_equiv_pos_site_id
 _symmetry_equiv_pos_as_xyz
  1  'x, y, z'
loop_
 _atom_site_type_symbol
 _atom_site_label
 _atom_site_symmetry_multiplicity
 _atom_site_fract_x
 _atom_site_fract_y
 _atom_site_fract_z
 _atom_site_occupancy
  Rb  Rb0  1  0.16691349  0.53233090  0.75000000  1
  Rb  Rb1  1  0.53233090  0.16691349  0.25000000  1
  V  V0  1  0.71310321  0.50105064  0.75000000  1
  V  V1  1  0.50105064  0.71310321  0.25000000  1
  Ni  Ni0  1  0.61594459  0.61594459  0.50000000  1
  Ni  Ni1  1  0.00107254  0.20293570  0.25000000  1
  Ni  Ni2  1  0.20293570  0.00107254  0.75000000  1
  Ni  Ni3  1  0.61594459  0.61594459  0.00000000  1
  S  S0  1  0.74849510  0.94812213  0.00693476  1
  S  S1  1  0.37870523  0.36387939  0.75000000  1
  S  S2  1  0.36387939  0.37870523  0.25000000  1
  S  S3  1  0.94812213  0.74849510  0.50693476  1
  S  S4  1  0.55200113  0.15468413  0.75000000  1
  S  S5  1  0.94812213  0.74849510  0.99306524  1
  S  S6  1  0.15468413  0.55200113  0.25000000  1
  S  S7  1  0.74849510  0.94812213  0.49306524  1
loop_
_geom_bond_atom_site_label_1
_geom_bond_atom_site_label_2
_geom_bond_distance
_geom_bond_site_symmetry_2
Rb0 S4 3.425997 1_455
Rb0 S4 3.456644 1_565
Rb0 S1 3.496740 1_555
Rb0 S0 3.585576 1_556
Rb0 S7 3.585576 1_555
Rb0 S7 3.595946 1_445
Rb0 S0 3.595946 1_446
Rb0 S6 3.644528 1_555
Rb0 S6 3.644528 1_556
Rb1 S6 3.425997 1_545
Rb1 S6 3.456644 1_655
Rb1 S2 3.496740 1_555
Rb1 S5 3.585575 1_554
Rb1 S3 3.585575 1_555
Rb1 S5 3.595946 1_444
Rb1 S3 3.595946 1_445
Rb1 S4 3.644528 1_555
Rb1 S4 3.644528 1_554
Ni0 S7 2.213494 1_555
Ni0 S3 2.213495 1_555
Ni0 S1 2.239282 1_555
Ni0 S2 2.239282 1_555
Ni1 S0 2.223400 1_445
Ni1 S7 2.223400 1_445
Ni1 S2 2.238501 1_555
Ni1 S6 2.240071 1_555
Ni2 S3 2.223400 1_445
Ni2 S5 2.223400 1_445
Ni2 S1 2.238501 1_555
Ni2 S4 2.240071 1_555
Ni3 S0 2.213494 1_555
Ni3 S5 2.213495 1_554
Ni3 S1 2.239282 1_554
Ni3 S2 2.239282 1_555
S0 V1 2.186609 1_555
S1 V0 2.204982 1_555
S2 V1 2.204982 1_555
S3 V0 2.186609 1_555
S4 V0 2.173595 1_555
S5 V0 2.186609 1_555
S6 V1 2.173595 1_555
S7 V1 2.186609 1_555
