# generated using pymatgen
data_Nb3Ni2WC
_symmetry_space_group_name_H-M   'P 1'
_cell_length_a   8.19597264
_cell_length_b   8.19597274
_cell_length_c   8.19597259
_cell_angle_alpha   60.00000061
_cell_angle_beta   60.00000021
_cell_angle_gamma   59.99999824
_symmetry_Int_Tables_number   1
_chemical_formula_structural   Nb3Ni2WC
_chemical_formula_sum   'Nb12 Ni8 W4 C4'
_cell_volume   389.30188074
_cell_formula_units_Z   4
loop_
 _symmetry_equiv_pos_site_id
 _symmetry_equiv_pos_as_xyz
  1  'x, y, z'
loop_
 _atom_site_type_symbol
 _atom_site_label
 _atom_site_symmetry_multiplicity
 _atom_site_fract_x
 _atom_site_fract_y
 _atom_site_fract_z
 _atom_site_occupancy
  Nb  Nb0  1  0.43833497  0.06166503  0.06166503  1
  Nb  Nb1  1  0.06166503  0.43833497  0.43833497  1
  Nb  Nb2  1  0.06166503  0.43833497  0.06166503  1
  Nb  Nb3  1  0.06166503  0.06166503  0.43833497  1
  Nb  Nb4  1  0.43833497  0.06166503  0.43833497  1
  Nb  Nb5  1  0.43833497  0.43833497  0.06166503  1
  Nb  Nb6  1  0.18833497  0.81166503  0.18833497  1
  Nb  Nb7  1  0.81166503  0.18833497  0.81166503  1
  Nb  Nb8  1  0.81166503  0.18833497  0.18833497  1
  Nb  Nb9  1  0.18833497  0.18833497  0.81166503  1
  Nb  Nb10  1  0.18833497  0.81166503  0.81166503  1
  Nb  Nb11  1  0.81166503  0.81166503  0.18833497  1
  Ni  Ni0  1  0.82746268  0.82746268  0.82746268  1
  Ni  Ni1  1  0.82746268  0.82746268  0.51760997  1
  Ni  Ni2  1  0.51760997  0.82746268  0.82746268  1
  Ni  Ni3  1  0.82746268  0.51760997  0.82746268  1
  Ni  Ni4  1  0.42253732  0.42253732  0.42253732  1
  Ni  Ni5  1  0.42253732  0.42253732  0.73239003  1
  Ni  Ni6  1  0.42253732  0.73239003  0.42253732  1
  Ni  Ni7  1  0.73239003  0.42253732  0.42253732  1
  W  W0  1  0.62500000  0.62500000  0.62500000  1
  W  W1  1  0.62500000  0.62500000  0.12500000  1
  W  W2  1  0.12500000  0.62500000  0.62500000  1
  W  W3  1  0.62500000  0.12500000  0.62500000  1
  C  C0  1  0.12500000  0.12500000  0.12500000  1
  C  C1  1  0.12500000  0.12500000  0.62500000  1
  C  C2  1  0.62500000  0.12500000  0.12500000  1
  C  C3  1  0.12500000  0.62500000  0.12500000  1
loop_
_geom_bond_atom_site_label_1
_geom_bond_atom_site_label_2
_geom_bond_distance
_geom_bond_site_symmetry_2
Nb0 Ni5 2.834136 1_554
Nb0 Ni6 2.834136 1_545
Nb0 W1 2.979861 1_545
Nb0 W3 2.979861 1_554
Nb0 Ni0 2.996896 1_544
Nb0 Ni2 2.996903 1_544
Nb1 Ni7 2.834127 1_455
Nb1 Ni4 2.834144 1_555
Nb1 W0 2.979861 1_455
Nb1 W2 2.979861 1_555
Nb1 Ni1 2.996889 1_455
Nb1 Ni3 2.996889 1_455
Nb2 Ni5 2.834136 1_554
Nb2 Ni7 2.834136 1_455
Nb2 W1 2.979861 1_455
Nb2 W2 2.979861 1_554
Nb2 Ni0 2.996896 1_454
Nb2 Ni3 2.996903 1_454
Nb3 Ni6 2.834136 1_545
Nb3 Ni7 2.834136 1_455
Nb3 W3 2.979861 1_455
Nb3 W2 2.979861 1_545
Nb3 Ni0 2.996896 1_445
Nb3 Ni1 2.996903 1_445
Nb4 Ni6 2.834127 1_545
Nb4 Ni4 2.834144 1_555
Nb4 W0 2.979861 1_545
Nb4 W3 2.979861 1_555
Nb4 Ni1 2.996889 1_545
Nb4 Ni2 2.996889 1_545
Nb5 Ni5 2.834127 1_554
Nb5 Ni4 2.834144 1_555
Nb5 W0 2.979861 1_554
Nb5 W1 2.979861 1_555
Nb5 Ni3 2.996889 1_554
Nb5 Ni2 2.996889 1_554
Nb6 Ni1 2.834136 1_455
Nb6 Ni2 2.834136 1_554
Nb6 W1 2.979861 1_555
Nb6 W2 2.979861 1_555
Nb6 Ni4 2.996896 1_555
Nb6 Ni6 2.996903 1_555
Nb7 Ni3 2.834127 1_555
Nb7 Ni0 2.834144 1_545
Nb7 W0 2.979861 1_555
Nb7 W3 2.979861 1_555
Nb7 Ni5 2.996889 1_555
Nb7 Ni7 2.996889 1_555
Nb8 Ni1 2.834136 1_545
Nb8 Ni3 2.834136 1_554
Nb8 W1 2.979861 1_555
Nb8 W3 2.979861 1_555
Nb8 Ni4 2.996896 1_555
Nb8 Ni7 2.996903 1_555
Nb9 Ni3 2.834136 1_455
Nb9 Ni2 2.834136 1_545
Nb9 W3 2.979861 1_555
Nb9 W2 2.979861 1_555
Nb9 Ni4 2.996896 1_555
Nb9 Ni5 2.996903 1_555
Nb10 Ni2 2.834127 1_555
Nb10 Ni0 2.834144 1_455
Nb10 W0 2.979861 1_555
Nb10 W2 2.979861 1_555
Nb10 Ni5 2.996889 1_555
Nb10 Ni6 2.996889 1_555
Nb11 Ni1 2.834127 1_555
Nb11 Ni0 2.834144 1_554
Nb11 W0 2.979861 1_555
Nb11 W1 2.979861 1_555
Nb11 Ni6 2.996889 1_555
Nb11 Ni7 2.996889 1_555
Ni0 W2 2.472705 1_655
Ni0 W3 2.472705 1_565
Ni0 W1 2.472706 1_556
Ni0 Ni1 2.539544 1_555
Ni0 Ni2 2.539544 1_555
Ni0 Ni3 2.539544 1_555
Ni1 W0 2.472700 1_555
Ni1 W2 2.472714 1_655
Ni1 W3 2.472714 1_565
Ni1 Ni2 2.539544 1_555
Ni1 Ni3 2.539544 1_555
Ni2 W0 2.472700 1_555
Ni2 W1 2.472714 1_556
Ni2 W3 2.472714 1_565
Ni2 Ni3 2.539544 1_555
Ni3 W0 2.472700 1_555
Ni3 W1 2.472714 1_556
Ni3 W2 2.472714 1_655
Ni4 W2 2.472705 1_555
Ni4 W3 2.472705 1_555
Ni4 W1 2.472706 1_555
Ni4 Ni5 2.539544 1_555
Ni4 Ni7 2.539544 1_555
Ni4 Ni6 2.539544 1_555
Ni5 W0 2.472700 1_555
Ni5 W2 2.472714 1_555
Ni5 W3 2.472714 1_555
Ni5 Ni7 2.539544 1_555
Ni5 Ni6 2.539544 1_555
Ni6 W0 2.472700 1_555
Ni6 W1 2.472714 1_555
Ni6 W2 2.472714 1_555
Ni6 Ni7 2.539544 1_555
Ni7 W0 2.472700 1_555
Ni7 W1 2.472714 1_555
Ni7 W3 2.472714 1_555
C0 Nb0 2.176531 1_555
C0 Nb8 2.176531 1_455
C0 Nb3 2.176531 1_555
C0 Nb9 2.176531 1_554
C0 Nb2 2.176531 1_555
C0 Nb6 2.176531 1_545
C1 Nb7 2.176531 1_455
C1 Nb4 2.176531 1_555
C1 Nb9 2.176531 1_555
C1 Nb3 2.176531 1_555
C1 Nb1 2.176531 1_555
C1 Nb10 2.176531 1_545
C2 Nb11 2.176531 1_545
C2 Nb5 2.176531 1_555
C2 Nb8 2.176531 1_555
C2 Nb4 2.176531 1_555
C2 Nb7 2.176531 1_554
C2 Nb0 2.176531 1_555
C3 Nb5 2.176531 1_555
C3 Nb11 2.176531 1_455
C3 Nb6 2.176531 1_555
C3 Nb1 2.176531 1_555
C3 Nb10 2.176531 1_554
C3 Nb2 2.176531 1_555
