# generated using pymatgen
data_Lu2S2IBr
_symmetry_space_group_name_H-M   'P 1'
_cell_length_a   4.00729305
_cell_length_b   5.22692343
_cell_length_c   9.82558273
_cell_angle_alpha   90.00000000
_cell_angle_beta   90.00000000
_cell_angle_gamma   90.00000000
_symmetry_Int_Tables_number   1
_chemical_formula_structural   Lu2S2IBr
_chemical_formula_sum   'Lu2 S2 I1 Br1'
_cell_volume   205.80482799
_cell_formula_units_Z   1
loop_
 _symmetry_equiv_pos_site_id
 _symmetry_equiv_pos_as_xyz
  1  'x, y, z'
loop_
 _atom_site_type_symbol
 _atom_site_label
 _atom_site_symmetry_multiplicity
 _atom_site_fract_x
 _atom_site_fract_y
 _atom_site_fract_z
 _atom_site_occupancy
  Lu  Lu0  1  0.00000000  0.00000000  0.11671859  1
  Lu  Lu1  1  0.50000000  0.50000000  0.89333640  1
  S  S0  1  0.50000000  0.00000000  0.93535500  1
  S  S1  1  0.00000000  0.50000000  0.07352476  1
  I  I0  1  0.00000000  0.50000000  0.67127521  1
  Br  Br0  1  0.50000000  0.00000000  0.30978904  1
loop_
_geom_bond_atom_site_label_1
_geom_bond_atom_site_label_2
_geom_bond_distance
_geom_bond_site_symmetry_2
Lu0 S1 2.647697 1_545
Lu0 S1 2.647697 1_555
Lu0 S0 2.681443 1_554
Lu0 S0 2.681443 1_454
Lu1 S0 2.645871 1_555
Lu1 S0 2.645871 1_565
Lu1 S1 2.673782 1_656
Lu1 S1 2.673782 1_556
I0 Lu1 2.962297 1_455
I0 Lu1 2.962297 1_555
Br0 Lu0 2.759225 1_655
Br0 Lu0 2.759225 1_555
