# generated using pymatgen
data_LaGa6Pd
_symmetry_space_group_name_H-M   'P 1'
_cell_length_a   4.37590104
_cell_length_b   4.37590104
_cell_length_c   7.92674987
_cell_angle_alpha   90.00000000
_cell_angle_beta   90.00000000
_cell_angle_gamma   90.00000000
_symmetry_Int_Tables_number   1
_chemical_formula_structural   LaGa6Pd
_chemical_formula_sum   'La1 Ga6 Pd1'
_cell_volume   151.78544845
_cell_formula_units_Z   1
loop_
 _symmetry_equiv_pos_site_id
 _symmetry_equiv_pos_as_xyz
  1  'x, y, z'
loop_
 _atom_site_type_symbol
 _atom_site_label
 _atom_site_symmetry_multiplicity
 _atom_site_fract_x
 _atom_site_fract_y
 _atom_site_fract_z
 _atom_site_occupancy
  La  La0  1  -0.00000000  0.00000000  -0.00000000  1
  Ga  Ga0  1  0.50000000  -0.00000000  0.67052774  1
  Ga  Ga1  1  0.00000000  0.50000000  0.67052774  1
  Ga  Ga2  1  0.50000000  0.50000000  0.15229540  1
  Ga  Ga3  1  0.50000000  0.50000000  0.84770460  1
  Ga  Ga4  1  -0.00000000  0.50000000  0.32947226  1
  Ga  Ga5  1  0.50000000  -0.00000000  0.32947226  1
  Pd  Pd0  1  0.00000000  -0.00000000  0.50000000  1
loop_
_geom_bond_atom_site_label_1
_geom_bond_atom_site_label_2
_geom_bond_distance
_geom_bond_site_symmetry_2
Ga0 Pd0 2.571829 1_555
Ga0 Pd0 2.571829 1_655
Ga0 Ga3 2.599917 1_545
Ga0 Ga3 2.599917 1_555
Ga0 La0 3.407024 1_556
Ga0 La0 3.407024 1_656
Ga1 Pd0 2.571829 1_555
Ga1 Pd0 2.571829 1_565
Ga1 Ga3 2.599917 1_555
Ga1 Ga3 2.599917 1_455
Ga1 La0 3.407024 1_556
Ga1 La0 3.407024 1_566
Ga2 Ga3 2.414415 1_554
Ga2 Ga4 2.599917 1_655
Ga2 Ga5 2.599917 1_565
Ga2 Ga5 2.599917 1_555
Ga2 Ga4 2.599917 1_555
Ga2 La0 3.321386 1_665
Ga2 La0 3.321386 1_555
Ga2 La0 3.321386 1_565
Ga2 La0 3.321386 1_655
Ga3 La0 3.321386 1_556
Ga3 La0 3.321386 1_566
Ga3 La0 3.321386 1_656
Ga3 La0 3.321386 1_666
Ga4 Pd0 2.571829 1_555
Ga4 Pd0 2.571829 1_565
Ga4 La0 3.407024 1_565
Ga4 La0 3.407024 1_555
Ga5 Pd0 2.571829 1_555
Ga5 Pd0 2.571829 1_655
Ga5 La0 3.407024 1_655
Ga5 La0 3.407024 1_555
