# generated using pymatgen
data_K2Mg(PS3)2
_symmetry_space_group_name_H-M   'P 1'
_cell_length_a   12.39753930
_cell_length_b   6.18603186
_cell_length_c   8.56583285
_cell_angle_alpha   58.30517540
_cell_angle_beta   90.00000000
_cell_angle_gamma   90.00000000
_symmetry_Int_Tables_number   1
_chemical_formula_structural   K2Mg(PS3)2
_chemical_formula_sum   'K4 Mg2 P4 S12'
_cell_volume   558.95213480
_cell_formula_units_Z   2
loop_
 _symmetry_equiv_pos_site_id
 _symmetry_equiv_pos_as_xyz
  1  'x, y, z'
loop_
 _atom_site_type_symbol
 _atom_site_label
 _atom_site_symmetry_multiplicity
 _atom_site_fract_x
 _atom_site_fract_y
 _atom_site_fract_z
 _atom_site_occupancy
  K  K0  1  0.18940880  0.66342265  0.03898173  1
  K  K1  1  0.68940880  0.33657735  0.46101827  1
  K  K2  1  0.81059120  0.33657735  0.96101827  1
  K  K3  1  0.31059120  0.66342265  0.53898173  1
  Mg  Mg0  1  0.50000000  0.00000000  0.00000000  1
  Mg  Mg1  1  0.00000000  0.00000000  0.50000000  1
  P  P0  1  0.02773047  0.34858245  0.63915959  1
  P  P1  1  0.97226953  0.65141755  0.36084041  1
  P  P2  1  0.47226953  0.34858245  0.13915959  1
  P  P3  1  0.52773047  0.65141755  0.86084041  1
  S  S0  1  0.90774222  0.08921770  0.73913766  1
  S  S1  1  0.40774222  0.91078230  0.76086234  1
  S  S2  1  0.34116585  0.19348387  0.09481290  1
  S  S3  1  0.15883415  0.19348387  0.59481290  1
  S  S4  1  0.84116585  0.80651613  0.40518710  1
  S  S5  1  0.65883415  0.80651613  0.90518710  1
  S  S6  1  0.55374757  0.46029188  0.73320542  1
  S  S7  1  0.05374757  0.53970812  0.76679458  1
  S  S8  1  0.44625243  0.53970812  0.26679458  1
  S  S9  1  0.94625243  0.46029188  0.23320542  1
  S  S10  1  0.59225778  0.08921770  0.23913766  1
  S  S11  1  0.09225778  0.91078230  0.26086234  1
loop_
_geom_bond_atom_site_label_1
_geom_bond_atom_site_label_2
_geom_bond_distance
_geom_bond_site_symmetry_2
K0 S11 3.234237 1_555
K0 S7 3.274940 1_554
K0 S2 3.280019 1_555
K0 S9 3.352248 1_455
K0 S1 3.393101 1_554
K0 S3 3.501693 1_564
K0 S8 3.600517 1_555
K1 S10 3.234237 1_555
K1 S6 3.274940 1_555
K1 S4 3.280019 1_555
K1 S8 3.352248 1_555
K1 S0 3.393101 1_555
K1 S5 3.501693 1_545
K1 S9 3.600517 1_555
K2 S0 3.234237 1_555
K2 S9 3.274940 1_556
K2 S5 3.280019 1_555
K2 S7 3.352248 1_655
K2 S10 3.393101 1_556
K2 S4 3.501693 1_546
K2 S6 3.600517 1_555
K3 S1 3.234237 1_555
K3 S8 3.274940 1_555
K3 S3 3.280019 1_555
K3 S6 3.352248 1_555
K3 S11 3.393101 1_555
K3 S2 3.501693 1_565
K3 S7 3.600517 1_555
Mg0 S8 2.633741 1_545
Mg0 S6 2.633741 1_554
Mg0 S2 2.644078 1_555
Mg0 S5 2.644078 1_544
Mg0 S10 2.645137 1_555
Mg0 S1 2.645137 1_544
Mg1 S9 2.633741 1_455
Mg1 S7 2.633741 1_545
Mg1 S3 2.644078 1_555
Mg1 S4 2.644078 1_445
Mg1 S0 2.645137 1_455
Mg1 S11 2.645137 1_545
P0 S7 2.013819 1_555
P0 S0 2.019071 1_455
P0 S3 2.022278 1_555
P1 S9 2.013819 1_555
P1 S11 2.019071 1_655
P1 S4 2.022278 1_555
P2 S8 2.013819 1_555
P2 S10 2.019071 1_555
P2 S2 2.022278 1_555
P3 S6 2.013819 1_555
P3 S1 2.019071 1_555
P3 S5 2.022278 1_555
