# generated using pymatgen
data_CsAs2IrRh
_symmetry_space_group_name_H-M   'P 1'
_cell_length_a   7.97888229
_cell_length_b   7.97888225
_cell_length_c   7.97888207
_cell_angle_alpha   150.78321794
_cell_angle_beta   150.78321533
_cell_angle_gamma   41.79292811
_symmetry_Int_Tables_number   1
_chemical_formula_structural   CsAs2IrRh
_chemical_formula_sum   'Cs1 As2 Ir1 Rh1'
_cell_volume   120.74431206
_cell_formula_units_Z   1
loop_
 _symmetry_equiv_pos_site_id
 _symmetry_equiv_pos_as_xyz
  1  'x, y, z'
loop_
 _atom_site_type_symbol
 _atom_site_label
 _atom_site_symmetry_multiplicity
 _atom_site_fract_x
 _atom_site_fract_y
 _atom_site_fract_z
 _atom_site_occupancy
  Cs  Cs0  1  0.00000000  0.00000000  0.00000000  1
  As  As0  1  0.34212659  0.34212659  0.00000000  1
  As  As1  1  0.65787341  0.65787341  1.00000000  1
  Ir  Ir0  1  0.75000000  0.25000000  0.50000000  1
  Rh  Rh0  1  0.25000000  0.75000000  0.50000000  1
loop_
_geom_bond_atom_site_label_1
_geom_bond_atom_site_label_2
_geom_bond_distance
_geom_bond_site_symmetry_2
As0 Rh0 2.436378 1_555
As0 Rh0 2.436378 1_544
As0 Ir0 2.436378 1_555
As0 Ir0 2.436378 1_454
As0 Cs0 3.693055 1_554
As0 Cs0 3.693055 1_565
As0 Cs0 3.693055 1_666
As0 Cs0 3.693055 1_655
As1 Ir0 2.436378 1_555
As1 Ir0 2.436378 1_566
As1 Rh0 2.436378 1_555
As1 Rh0 2.436378 1_656
As1 Cs0 3.693055 1_667
As1 Cs0 3.693055 1_656
As1 Cs0 3.693055 1_555
As1 Cs0 3.693055 1_566
Ir0 Rh0 2.845910 1_656
Ir0 Rh0 2.845910 1_544
Ir0 Rh0 2.845910 1_645
Ir0 Rh0 2.845910 1_555
