# generated using pymatgen
data_Cs3Na2NbP3
_symmetry_space_group_name_H-M   'P 1'
_cell_length_a   10.47014879
_cell_length_b   10.47014937
_cell_length_c   16.54409063
_cell_angle_alpha   90.00000000
_cell_angle_beta   90.00000000
_cell_angle_gamma   141.94213231
_symmetry_Int_Tables_number   1
_chemical_formula_structural   Cs3Na2NbP3
_chemical_formula_sum   'Cs12 Na8 Nb4 P12'
_cell_volume   1118.02482262
_cell_formula_units_Z   4
loop_
 _symmetry_equiv_pos_site_id
 _symmetry_equiv_pos_as_xyz
  1  'x, y, z'
loop_
 _atom_site_type_symbol
 _atom_site_label
 _atom_site_symmetry_multiplicity
 _atom_site_fract_x
 _atom_site_fract_y
 _atom_site_fract_z
 _atom_site_occupancy
  Cs  Cs0  1  0.94793006  0.61430164  0.82591251  1
  Cs  Cs1  1  0.55206994  0.88569836  0.32591251  1
  Cs  Cs2  1  0.38569836  0.05206994  0.17408749  1
  Cs  Cs3  1  0.05206994  0.38569836  0.17408749  1
  Cs  Cs4  1  0.88569836  0.55206994  0.32591251  1
  Cs  Cs5  1  0.44793006  0.11430164  0.67408749  1
  Cs  Cs6  1  0.61430164  0.94793006  0.82591251  1
  Cs  Cs7  1  0.28863051  0.28863051  0.31198783  1
  Cs  Cs8  1  0.78863051  0.78863051  0.18801217  1
  Cs  Cs9  1  0.21136949  0.21136949  0.81198783  1
  Cs  Cs10  1  0.71136949  0.71136949  0.68801217  1
  Cs  Cs11  1  0.11430164  0.44793006  0.67408749  1
  Na  Na0  1  0.92208550  0.07791450  0.00000000  1
  Na  Na1  1  0.57791450  0.42208550  0.50000000  1
  Na  Na2  1  0.07791450  0.92208550  0.00000000  1
  Na  Na3  1  0.42208550  0.57791450  0.50000000  1
  Na  Na4  1  0.75608516  0.24391484  0.00000000  1
  Na  Na5  1  0.74391484  0.25608516  0.50000000  1
  Na  Na6  1  0.24391484  0.75608516  0.00000000  1
  Na  Na7  1  0.25608516  0.74391484  0.50000000  1
  Nb  Nb0  1  0.58142048  0.41857952  0.00000000  1
  Nb  Nb1  1  0.91857952  0.08142048  0.50000000  1
  Nb  Nb2  1  0.41857952  0.58142048  0.00000000  1
  Nb  Nb3  1  0.08142048  0.91857952  0.50000000  1
  P  P0  1  0.85947656  0.55476437  0.08582107  1
  P  P1  1  0.44523563  0.14052344  0.91417893  1
  P  P2  1  0.64052344  0.94523563  0.58582107  1
  P  P3  1  0.94523563  0.64052344  0.58582107  1
  P  P4  1  0.14052344  0.44523563  0.91417893  1
  P  P5  1  0.55476437  0.85947656  0.08582107  1
  P  P6  1  0.35947656  0.05476437  0.41417893  1
  P  P7  1  0.19470823  0.19470823  0.58208490  1
  P  P8  1  0.69470823  0.69470823  0.91791510  1
  P  P9  1  0.30529177  0.30529177  0.08208490  1
  P  P10  1  0.05476437  0.35947656  0.41417893  1
  P  P11  1  0.80529177  0.80529177  0.41791510  1
loop_
_geom_bond_atom_site_label_1
_geom_bond_atom_site_label_2
_geom_bond_distance
_geom_bond_site_symmetry_2
Cs0 P1 3.650494 1_555
Cs0 P8 3.683707 1_555
Cs0 P1 3.797740 1_665
Cs0 P4 3.866933 1_655
Cs0 P3 3.983203 1_555
Cs1 P10 3.650494 1_665
Cs1 P11 3.683707 1_555
Cs1 P10 3.797740 1_555
Cs1 P6 3.866933 1_565
Cs1 P5 3.983203 1_555
Cs2 P0 3.650495 1_555
Cs2 P9 3.683708 1_555
Cs2 P0 3.797740 1_445
Cs2 P5 3.866933 1_545
Cs2 P6 3.983203 1_555
Cs3 P5 3.650494 1_555
Cs3 P9 3.683707 1_555
Cs3 P5 3.797740 1_445
Cs3 P0 3.866933 1_455
Cs3 P10 3.983203 1_555
Cs4 P6 3.650495 1_665
Cs4 P11 3.683708 1_555
Cs4 P6 3.797740 1_555
Cs4 P10 3.866933 1_655
Cs4 P0 3.983203 1_555
Cs5 P3 3.650494 1_445
Cs5 P7 3.683707 1_555
Cs5 P3 3.797740 1_555
Cs5 P2 3.866933 1_545
Cs5 P1 3.983203 1_555
Cs6 P4 3.650495 1_555
Cs6 P8 3.683708 1_555
Cs6 P4 3.797740 1_665
Cs6 P1 3.866933 1_565
Cs6 P2 3.983203 1_555
Cs7 P10 3.502075 1_555
Cs7 P6 3.502075 1_555
Cs7 P11 3.736455 1_445
Cs7 P9 3.805236 1_555
Cs7 P11 3.938834 1_555
Cs8 P5 3.502075 1_555
Cs8 P0 3.502075 1_555
Cs8 P9 3.736455 1_555
Cs8 P11 3.805236 1_555
Cs8 P9 3.938834 1_665
Cs9 P1 3.502075 1_555
Cs9 P4 3.502075 1_555
Cs9 P8 3.736455 1_555
Cs9 P7 3.805236 1_555
Cs9 P8 3.938834 1_445
Cs10 P3 3.502075 1_555
Cs10 P2 3.502075 1_555
Cs10 P7 3.736455 1_665
Cs10 P8 3.805236 1_555
Cs10 P7 3.938834 1_555
Cs11 P2 3.650495 1_445
Cs11 P7 3.683708 1_555
Cs11 P2 3.797740 1_555
Cs11 P3 3.866933 1_455
Cs11 P4 3.983203 1_555
Na0 P5 2.861133 1_545
Na0 P4 2.861133 1_654
Na0 P9 2.927085 1_655
Na0 P8 2.927086 1_544
Na1 P3 2.861133 1_555
Na1 P6 2.861133 1_555
Na1 P7 2.927085 1_555
Na1 P11 2.927086 1_555
Na2 P1 2.861133 1_564
Na2 P0 2.861133 1_455
Na2 P8 2.927085 1_454
Na2 P9 2.927086 1_565
Na3 P10 2.861133 1_555
Na3 P2 2.861133 1_555
Na3 P11 2.927085 1_555
Na3 P7 2.927086 1_555
Na4 P1 2.869176 1_554
Na4 P0 2.869176 1_555
Na4 P4 3.049524 1_654
Na4 P5 3.049524 1_545
Na5 P10 2.869176 1_655
Na5 P2 2.869176 1_545
Na5 P6 3.049524 1_555
Na5 P3 3.049524 1_555
Na6 P5 2.869176 1_555
Na6 P4 2.869176 1_554
Na6 P0 3.049524 1_455
Na6 P1 3.049524 1_564
Na7 P3 2.869176 1_455
Na7 P6 2.869176 1_565
Na7 P2 3.049524 1_555
Na7 P10 3.049524 1_555
Nb0 P0 2.446943 1_555
Nb0 P1 2.446943 1_554
Nb0 P9 2.491854 1_555
Nb0 P8 2.491854 1_554
Nb1 P2 2.446943 1_545
Nb1 P10 2.446943 1_655
Nb1 P7 2.491854 1_655
Nb1 P11 2.491854 1_545
Nb2 P4 2.446943 1_554
Nb2 P5 2.446943 1_555
Nb2 P8 2.491854 1_554
Nb2 P9 2.491854 1_555
Nb3 P6 2.446943 1_565
Nb3 P3 2.446943 1_455
Nb3 P11 2.491854 1_455
Nb3 P7 2.491854 1_565
