# generated using pymatgen
data_NbNi20(SnB3)2
_symmetry_space_group_name_H-M   'P 1'
_cell_length_a   7.46893629
_cell_length_b   7.46893591
_cell_length_c   7.46893655
_cell_angle_alpha   60.00000152
_cell_angle_beta   60.00000319
_cell_angle_gamma   60.00000295
_symmetry_Int_Tables_number   1
_chemical_formula_structural   NbNi20(SnB3)2
_chemical_formula_sum   'Nb1 Ni20 Sn2 B6'
_cell_volume   294.61936223
_cell_formula_units_Z   1
loop_
 _symmetry_equiv_pos_site_id
 _symmetry_equiv_pos_as_xyz
  1  'x, y, z'
loop_
 _atom_site_type_symbol
 _atom_site_label
 _atom_site_symmetry_multiplicity
 _atom_site_fract_x
 _atom_site_fract_y
 _atom_site_fract_z
 _atom_site_occupancy
  Nb  Nb0  1  0.00000000  0.00000000  0.00000000  1
  Ni  Ni0  1  0.38549635  0.38549635  0.38549635  1
  Ni  Ni1  1  0.61450365  0.61450365  0.61450365  1
  Ni  Ni2  1  0.38549635  0.38549635  0.84350995  1
  Ni  Ni3  1  0.38549635  0.84350995  0.38549635  1
  Ni  Ni4  1  0.61450365  0.61450365  0.15649005  1
  Ni  Ni5  1  0.61450365  0.15649005  0.61450365  1
  Ni  Ni6  1  0.84350995  0.38549635  0.38549635  1
  Ni  Ni7  1  0.15649005  0.61450365  0.61450365  1
  Ni  Ni8  1  0.34047835  0.00000000  0.00000000  1
  Ni  Ni9  1  0.65952165  1.00000000  1.00000000  1
  Ni  Ni10  1  1.00000000  0.34047835  0.65952165  1
  Ni  Ni11  1  0.00000000  0.65952165  0.34047835  1
  Ni  Ni12  1  0.00000000  0.34047835  1.00000000  1
  Ni  Ni13  1  0.65952165  1.00000000  0.34047835  1
  Ni  Ni14  1  1.00000000  0.65952165  0.00000000  1
  Ni  Ni15  1  0.34047835  0.00000000  0.65952165  1
  Ni  Ni16  1  0.00000000  0.00000000  0.34047835  1
  Ni  Ni17  1  1.00000000  1.00000000  0.65952165  1
  Ni  Ni18  1  0.65952165  0.34047835  1.00000000  1
  Ni  Ni19  1  0.34047835  0.65952165  0.00000000  1
  Sn  Sn0  1  0.25000000  0.25000000  0.25000000  1
  Sn  Sn1  1  0.75000000  0.75000000  0.75000000  1
  B  B0  1  0.72829807  0.27170193  0.27170193  1
  B  B1  1  0.27170193  0.72829807  0.72829807  1
  B  B2  1  0.27170193  0.72829807  0.27170193  1
  B  B3  1  0.72829807  0.27170193  0.72829807  1
  B  B4  1  0.27170193  0.27170193  0.72829807  1
  B  B5  1  0.72829807  0.72829807  0.27170193  1
loop_
_geom_bond_atom_site_label_1
_geom_bond_atom_site_label_2
_geom_bond_distance
_geom_bond_site_symmetry_2
Nb0 Ni12 2.543011 1_554
Nb0 Ni14 2.543011 1_445
Nb0 Ni8 2.543011 1_555
Nb0 Ni9 2.543011 1_444
Nb0 Ni11 2.543011 1_545
Nb0 Ni10 2.543011 1_454
Nb0 Ni18 2.543011 1_454
Nb0 Ni19 2.543011 1_545
Nb0 Ni16 2.543011 1_555
Nb0 Ni17 2.543011 1_444
Nb0 Ni15 2.543011 1_554
Nb0 Ni13 2.543011 1_445
Ni0 Sn0 2.478917 1_555
Ni1 Sn1 2.478917 1_555
Ni2 Sn0 2.478923 1_556
Ni3 Sn0 2.478923 1_565
Ni4 Sn1 2.478923 1_554
Ni5 Sn1 2.478923 1_545
Ni6 Sn0 2.478923 1_655
Ni7 Sn1 2.478923 1_455
B0 Ni6 2.090531 1_555
B0 Ni4 2.090538 1_555
B0 Ni0 2.090538 1_555
B0 Ni5 2.090538 1_555
B0 Ni13 2.093330 1_545
B0 Ni16 2.093330 1_655
B0 Ni18 2.093330 1_554
B0 Ni12 2.093330 1_654
B1 Ni7 2.090531 1_555
B1 Ni2 2.090538 1_555
B1 Ni1 2.090538 1_555
B1 Ni3 2.090538 1_555
B1 Ni15 2.093330 1_565
B1 Ni17 2.093330 1_455
B1 Ni19 2.093330 1_556
B1 Ni14 2.093330 1_456
B2 Ni3 2.090531 1_555
B2 Ni0 2.090538 1_555
B2 Ni4 2.090538 1_555
B2 Ni7 2.090538 1_555
B2 Ni11 2.093330 1_555
B2 Ni8 2.093330 1_565
B2 Ni16 2.093330 1_565
B2 Ni19 2.093330 1_555
B3 Ni5 2.090531 1_555
B3 Ni1 2.090538 1_555
B3 Ni2 2.090538 1_555
B3 Ni6 2.090538 1_555
B3 Ni10 2.093330 1_555
B3 Ni9 2.093330 1_545
B3 Ni17 2.093330 1_545
B3 Ni18 2.093330 1_555
B4 Ni2 2.090531 1_555
B4 Ni7 2.090538 1_555
B4 Ni5 2.090538 1_555
B4 Ni0 2.090538 1_555
B4 Ni15 2.093330 1_555
B4 Ni10 2.093330 1_455
B4 Ni8 2.093330 1_556
B4 Ni12 2.093330 1_555
B5 Ni4 2.090531 1_555
B5 Ni6 2.090538 1_555
B5 Ni3 2.090538 1_555
B5 Ni1 2.090538 1_555
B5 Ni13 2.093330 1_555
B5 Ni11 2.093330 1_655
B5 Ni9 2.093330 1_554
B5 Ni14 2.093330 1_555
