# generated using pymatgen
data_ZrAl3CuMo
_symmetry_space_group_name_H-M   'P 1'
_cell_length_a   4.97490026
_cell_length_b   4.97490053
_cell_length_c   4.97490096
_cell_angle_alpha   62.34426302
_cell_angle_beta   62.34427169
_cell_angle_gamma   62.34428216
_symmetry_Int_Tables_number   1
_chemical_formula_structural   ZrAl3CuMo
_chemical_formula_sum   'Zr1 Al3 Cu1 Mo1'
_cell_volume   91.61766289
_cell_formula_units_Z   1
loop_
 _symmetry_equiv_pos_site_id
 _symmetry_equiv_pos_as_xyz
  1  'x, y, z'
loop_
 _atom_site_type_symbol
 _atom_site_label
 _atom_site_symmetry_multiplicity
 _atom_site_fract_x
 _atom_site_fract_y
 _atom_site_fract_z
 _atom_site_occupancy
  Zr  Zr0  1  0.87699697  0.87699697  0.87699697  1
  Al  Al0  1  0.00243418  0.49905758  0.49905758  1
  Al  Al1  1  0.49905758  0.49905758  0.00243418  1
  Al  Al2  1  0.49905758  0.00243418  0.49905758  1
  Cu  Cu0  1  0.50086354  0.50086354  0.50086354  1
  Mo  Mo0  1  0.12159015  0.12159015  0.12159015  1
loop_
_geom_bond_atom_site_label_1
_geom_bond_atom_site_label_2
_geom_bond_distance
_geom_bond_site_symmetry_2
Al0 Cu0 2.486957 1_455
Al0 Cu0 2.488010 1_555
Al0 Al1 2.557673 1_555
Al0 Al2 2.557673 1_555
Al0 Al1 2.592453 1_456
Al0 Al2 2.592453 1_465
Al0 Zr0 2.926288 1_455
Al0 Mo0 2.934444 1_555
Al0 Mo0 2.956587 1_565
Al0 Mo0 2.956587 1_556
Al0 Zr0 2.967104 1_445
Al0 Zr0 2.967105 1_454
Al1 Cu0 2.486957 1_554
Al1 Cu0 2.488011 1_555
Al1 Al2 2.557673 1_555
Al1 Al2 2.592453 1_564
Al1 Zr0 2.926287 1_554
Al1 Mo0 2.934444 1_555
Al1 Mo0 2.956587 1_655
Al1 Mo0 2.956588 1_565
Al1 Zr0 2.967105 1_454
Al1 Zr0 2.967105 1_544
Al2 Cu0 2.486957 1_545
Al2 Cu0 2.488010 1_555
Al2 Zr0 2.926287 1_545
Al2 Mo0 2.934444 1_555
Al2 Mo0 2.956587 1_655
Al2 Mo0 2.956588 1_556
Al2 Zr0 2.967105 1_445
Al2 Zr0 2.967105 1_544
Cu0 Zr0 3.017207 1_554
Cu0 Zr0 3.017208 1_545
Cu0 Zr0 3.017208 1_455
Cu0 Mo0 3.023811 1_556
Cu0 Mo0 3.023812 1_565
Cu0 Mo0 3.023812 1_655
Mo0 Zr0 2.926702 1_444
Mo0 Zr0 3.157332 1_445
Mo0 Zr0 3.157332 1_454
Mo0 Zr0 3.157332 1_544
