# generated using pymatgen
data_BeV2B5Mo8
_symmetry_space_group_name_H-M   'P 1'
_cell_length_a   5.83905171
_cell_length_b   5.83905125
_cell_length_c   6.81098386
_cell_angle_alpha   115.38188580
_cell_angle_beta   115.38189042
_cell_angle_gamma   89.99999534
_symmetry_Int_Tables_number   1
_chemical_formula_structural   BeV2B5Mo8
_chemical_formula_sum   'Be1 V2 B5 Mo8'
_cell_volume   184.68486122
_cell_formula_units_Z   1
loop_
 _symmetry_equiv_pos_site_id
 _symmetry_equiv_pos_as_xyz
  1  'x, y, z'
loop_
 _atom_site_type_symbol
 _atom_site_label
 _atom_site_symmetry_multiplicity
 _atom_site_fract_x
 _atom_site_fract_y
 _atom_site_fract_z
 _atom_site_occupancy
  Be  Be0  1  0.25000000  0.25000000  0.50000000  1
  V  V0  1  0.49902368  0.49902368  0.99804637  1
  V  V1  1  0.00097632  0.00097632  0.00195363  1
  B  B0  1  0.75000000  0.75000000  0.50000000  1
  B  B1  1  0.61954087  0.11954087  1.00000000  1
  B  B2  1  0.38045913  0.88045913  0.00000000  1
  B  B3  1  0.88045913  0.61954087  1.00000000  1
  B  B4  1  0.11954087  0.38045913  0.00000000  1
  Mo  Mo0  1  0.02369415  0.53000934  0.71502110  1
  Mo  Mo1  1  0.69132696  0.18501177  0.71502110  1
  Mo  Mo2  1  0.18501177  0.02369415  0.71502110  1
  Mo  Mo3  1  0.53000934  0.69132696  0.71502110  1
  Mo  Mo4  1  0.96999066  0.47630585  0.28497890  1
  Mo  Mo5  1  0.31498823  0.80867304  0.28497890  1
  Mo  Mo6  1  0.80867304  0.96999066  0.28497890  1
  Mo  Mo7  1  0.47630585  0.31498823  0.28497890  1
loop_
_geom_bond_atom_site_label_1
_geom_bond_atom_site_label_2
_geom_bond_distance
_geom_bond_site_symmetry_2
Be0 Mo4 2.484027 1_455
Be0 Mo2 2.484027 1_555
Be0 Mo7 2.484027 1_555
Be0 Mo0 2.484027 1_555
Be0 Mo5 2.484027 1_545
Be0 Mo1 2.484027 1_555
Be0 Mo3 2.484027 1_555
Be0 Mo6 2.484027 1_445
Be0 V0 2.697842 1_555
Be0 V1 2.697842 1_555
B0 Mo0 2.440303 1_655
B0 Mo6 2.440303 1_555
B0 Mo3 2.440303 1_555
B0 Mo4 2.440303 1_555
B0 Mo1 2.440303 1_565
B0 Mo5 2.440303 1_555
B0 Mo7 2.440303 1_555
B0 Mo2 2.440303 1_665
B0 V1 2.719007 1_666
B0 V0 2.719007 1_554
B1 B2 1.974257 1_546
B1 Mo7 2.293908 1_556
B1 Mo3 2.293908 1_545
B1 Mo6 2.316240 1_546
B1 Mo2 2.316241 1_555
B1 V1 2.328619 1_656
B1 V0 2.328623 1_555
B1 Mo1 2.328710 1_555
B1 Mo4 2.328710 1_556
B2 Mo2 2.293908 1_564
B2 Mo6 2.293908 1_555
B2 Mo3 2.316240 1_554
B2 Mo7 2.316241 1_565
B2 V0 2.328619 1_554
B2 V1 2.328623 1_565
B2 Mo5 2.328710 1_555
B2 Mo0 2.328710 1_554
B3 B4 1.974257 1_656
B3 Mo4 2.293908 1_556
B3 Mo0 2.293908 1_655
B3 Mo1 2.316241 1_555
B3 Mo5 2.316241 1_656
B3 V1 2.328617 1_666
B3 V0 2.328618 1_555
B3 Mo3 2.328710 1_555
B3 Mo6 2.328710 1_556
B4 Mo5 2.293908 1_555
B4 Mo1 2.293909 1_454
B4 Mo0 2.316240 1_554
B4 Mo4 2.316240 1_455
B4 V1 2.328625 1_555
B4 V0 2.328625 1_554
B4 Mo7 2.328710 1_555
B4 Mo2 2.328710 1_554
Mo0 V1 2.648436 1_566
Mo0 V0 2.676601 1_555
Mo1 V1 2.648438 1_656
Mo1 V0 2.676599 1_555
Mo2 V1 2.648441 1_556
Mo2 V0 2.676604 1_555
Mo3 V1 2.648435 1_666
Mo3 V0 2.676597 1_555
Mo4 V0 2.648436 1_554
Mo4 V1 2.676601 1_655
Mo5 V0 2.648438 1_554
Mo5 V1 2.676599 1_565
Mo6 V0 2.648435 1_554
Mo6 V1 2.676597 1_665
Mo7 V0 2.648440 1_554
Mo7 V1 2.676604 1_555
