# generated using pymatgen
data_Rb4MgMo3N8
_symmetry_space_group_name_H-M   'P 1'
_cell_length_a   5.94292259
_cell_length_b   8.54488411
_cell_length_c   11.92153949
_cell_angle_alpha   90.00000000
_cell_angle_beta   90.00000000
_cell_angle_gamma   90.00000000
_symmetry_Int_Tables_number   1
_chemical_formula_structural   Rb4MgMo3N8
_chemical_formula_sum   'Rb8 Mg2 Mo6 N16'
_cell_volume   605.39466893
_cell_formula_units_Z   2
loop_
 _symmetry_equiv_pos_site_id
 _symmetry_equiv_pos_as_xyz
  1  'x, y, z'
loop_
 _atom_site_type_symbol
 _atom_site_label
 _atom_site_symmetry_multiplicity
 _atom_site_fract_x
 _atom_site_fract_y
 _atom_site_fract_z
 _atom_site_occupancy
  Rb  Rb0  1  0.25000000  0.17161861  0.00000000  1
  Rb  Rb1  1  0.75000000  0.82838139  0.50000000  1
  Rb  Rb2  1  0.75000000  0.89021944  0.00000000  1
  Rb  Rb3  1  0.25000000  0.10978056  0.50000000  1
  Rb  Rb4  1  0.26246843  0.38646703  0.73819655  1
  Rb  Rb5  1  0.76246843  0.61353297  0.76180345  1
  Rb  Rb6  1  0.73753157  0.61353297  0.23819655  1
  Rb  Rb7  1  0.23753157  0.38646703  0.26180345  1
  Mg  Mg0  1  0.75000000  0.36856855  0.00000000  1
  Mg  Mg1  1  0.25000000  0.63143145  0.50000000  1
  Mo  Mo0  1  0.25000000  0.62248503  0.00000000  1
  Mo  Mo1  1  0.75000000  0.37751497  0.50000000  1
  Mo  Mo2  1  0.77041338  0.12137343  0.74773965  1
  Mo  Mo3  1  0.27041338  0.87862657  0.75226035  1
  Mo  Mo4  1  0.22958662  0.87862657  0.24773965  1
  Mo  Mo5  1  0.72958662  0.12137343  0.25226035  1
  N  N0  1  0.04458850  0.02321933  0.79459959  1
  N  N1  1  0.54458850  0.97678067  0.70540041  1
  N  N2  1  0.95541150  0.97678067  0.29459959  1
  N  N3  1  0.45541150  0.02321933  0.20540041  1
  N  N4  1  0.83946349  0.25007224  0.62669778  1
  N  N5  1  0.33946349  0.74992776  0.87330222  1
  N  N6  1  0.16053651  0.74992776  0.12669778  1
  N  N7  1  0.66053651  0.25007224  0.37330222  1
  N  N8  1  0.32726638  0.76587659  0.36141337  1
  N  N9  1  0.82726638  0.23412341  0.13858663  1
  N  N10  1  0.67273362  0.23412341  0.86141337  1
  N  N11  1  0.17273362  0.76587659  0.63858663  1
  N  N12  1  0.51934863  0.49742941  0.54018915  1
  N  N13  1  0.01934863  0.50257059  0.95981085  1
  N  N14  1  0.48065137  0.50257059  0.04018915  1
  N  N15  1  0.98065137  0.49742941  0.45981085  1
loop_
_geom_bond_atom_site_label_1
_geom_bond_atom_site_label_2
_geom_bond_distance
_geom_bond_site_symmetry_2
Mg0 N14 2.025574 1_555
Mg0 N13 2.025574 1_654
Mg0 N9 2.064047 1_555
Mg0 N10 2.064047 1_554
Mg1 N12 2.025574 1_555
Mg1 N15 2.025574 1_455
Mg1 N11 2.064047 1_555
Mg1 N8 2.064047 1_555
Mo0 N14 1.777191 1_555
Mo0 N13 1.777191 1_554
Mo0 N6 1.936484 1_555
Mo0 N5 1.936484 1_554
Mo1 N12 1.777191 1_555
Mo1 N15 1.777191 1_555
Mo1 N4 1.936484 1_555
Mo1 N7 1.936484 1_555
Mo2 N10 1.761155 1_555
Mo2 N4 1.860117 1_555
Mo2 N1 1.892730 1_545
Mo2 N0 1.915848 1_655
Mo3 N11 1.761155 1_555
Mo3 N5 1.860117 1_555
Mo3 N0 1.892730 1_565
Mo3 N1 1.915848 1_555
Mo4 N8 1.761155 1_555
Mo4 N6 1.860117 1_555
Mo4 N3 1.892730 1_565
Mo4 N2 1.915848 1_455
Mo5 N9 1.761155 1_555
Mo5 N7 1.860117 1_555
Mo5 N2 1.892730 1_545
Mo5 N3 1.915848 1_555
N0 Rb0 3.015669 1_556
N0 Rb2 3.217553 1_446
N0 Rb4 3.429725 1_555
N1 Rb1 3.015669 1_555
N1 Rb3 3.217553 1_565
N1 Rb5 3.429725 1_555
N2 Rb1 3.015669 1_555
N2 Rb3 3.217553 1_665
N2 Rb6 3.429725 1_555
N3 Rb0 3.015669 1_555
N3 Rb2 3.217553 1_545
N3 Rb7 3.429725 1_555
N4 Rb4 3.073244 1_655
N4 Rb3 3.109828 1_655
N4 Rb5 3.528340 1_555
N5 Rb5 3.073244 1_555
N5 Rb2 3.109828 1_556
N5 Rb4 3.528340 1_555
N6 Rb6 3.073244 1_455
N6 Rb2 3.109828 1_455
N6 Rb7 3.528340 1_555
N7 Rb7 3.073244 1_555
N7 Rb3 3.109828 1_555
N7 Rb6 3.528340 1_555
N8 Rb1 3.053920 1_555
N8 Rb6 3.130022 1_555
N8 Rb3 3.402351 1_565
N8 Rb7 3.493593 1_555
N9 Rb0 3.053920 1_655
N9 Rb7 3.130022 1_655
N9 Rb2 3.402351 1_545
N9 Rb6 3.493593 1_555
N10 Rb0 3.053920 1_556
N10 Rb4 3.130022 1_555
N10 Rb2 3.402351 1_546
N10 Rb5 3.493593 1_555
N11 Rb1 3.053920 1_455
N11 Rb5 3.130022 1_455
N11 Rb3 3.402351 1_565
N11 Rb4 3.493593 1_555
N12 Rb4 2.966780 1_555
N12 Rb5 3.170472 1_555
N12 Rb1 3.178957 1_555
N13 Rb5 2.966780 1_455
N13 Rb4 3.170472 1_555
N13 Rb0 3.178957 1_556
N14 Rb6 2.966780 1_555
N14 Rb7 3.170472 1_555
N14 Rb0 3.178957 1_555
N15 Rb7 2.966780 1_655
N15 Rb6 3.170472 1_555
N15 Rb1 3.178957 1_555
