# generated using pymatgen
data_BaCd11
_symmetry_space_group_name_H-M   'P 1'
_cell_length_a   7.77557410
_cell_length_b   9.38575328
_cell_length_c   9.38575268
_cell_angle_alpha   80.14433431
_cell_angle_beta   65.48962381
_cell_angle_gamma   65.48962547
_symmetry_Int_Tables_number   1
_chemical_formula_structural   BaCd11
_chemical_formula_sum   'Ba2 Cd22'
_cell_volume   567.08027835
_cell_formula_units_Z   2
loop_
 _symmetry_equiv_pos_site_id
 _symmetry_equiv_pos_as_xyz
  1  'x, y, z'
loop_
 _atom_site_type_symbol
 _atom_site_label
 _atom_site_symmetry_multiplicity
 _atom_site_fract_x
 _atom_site_fract_y
 _atom_site_fract_z
 _atom_site_occupancy
  Ba  Ba0  1  0.62490276  0.75018731  0.25018731  1
  Ba  Ba1  1  0.37509724  0.24981269  0.74981269  1
  Cd  Cd0  1  0.86750532  0.33437976  0.07665942  1
  Cd  Cd1  1  0.27843029  0.16561403  0.42353276  1
  Cd  Cd2  1  0.12494939  0.74993186  0.24993186  1
  Cd  Cd3  1  0.87505061  0.25006814  0.75006814  1
  Cd  Cd4  1  -0.00000000  -0.00000000  0.00000000  1
  Cd  Cd5  1  0.50000000  0.50000000  0.00000000  1
  Cd  Cd6  1  -0.00000000  -0.00000000  0.50000000  1
  Cd  Cd7  1  -0.00000000  0.50000000  0.50000000  1
  Cd  Cd8  1  0.27843029  0.92353276  0.66561403  1
  Cd  Cd9  1  0.44397284  0.83441773  0.92330030  1
  Cd  Cd10  1  0.20186713  0.66574733  0.57677628  1
  Cd  Cd11  1  0.86750532  0.57665942  0.83437976  1
  Cd  Cd12  1  0.79813287  0.92322372  0.83425267  1
  Cd  Cd13  1  0.55602716  0.57669970  0.66558227  1
  Cd  Cd14  1  0.72156971  0.83438597  0.57646724  1
  Cd  Cd15  1  0.13249468  0.66562024  0.92334058  1
  Cd  Cd16  1  0.72156971  0.07646724  0.33438597  1
  Cd  Cd17  1  0.55602716  0.16558227  0.07669970  1
  Cd  Cd18  1  0.79813287  0.33425267  0.42322372  1
  Cd  Cd19  1  0.13249468  0.42334058  0.16562024  1
  Cd  Cd20  1  0.20186713  0.07677628  0.16574733  1
  Cd  Cd21  1  0.44397284  0.42330030  0.33441773  1
loop_
_geom_bond_atom_site_label_1
_geom_bond_atom_site_label_2
_geom_bond_distance
_geom_bond_site_symmetry_2
Ba0 Cd14 3.714681 1_555
Ba0 Cd16 3.714682 1_565
Ba0 Cd15 3.715718 1_654
Ba0 Cd19 3.715718 1_655
Ba0 Cd10 3.716097 1_555
Ba0 Cd20 3.716097 1_565
Ba0 Cd9 3.720946 1_554
Ba0 Cd21 3.720946 1_555
Ba0 Cd8 3.863564 1_555
Ba0 Cd1 3.863565 1_565
Ba0 Cd13 3.867380 1_555
Ba0 Cd17 3.867380 1_565
Ba0 Cd11 3.867864 1_554
Ba0 Cd0 3.867864 1_555
Ba0 Cd12 3.869590 1_554
Ba0 Cd18 3.869590 1_555
Ba0 Cd2 3.886162 1_655
Ba0 Cd2 3.889415 1_555
Ba1 Cd1 3.714681 1_555
Ba1 Cd8 3.714682 1_545
Ba1 Cd0 3.715718 1_456
Ba1 Cd11 3.715718 1_455
Ba1 Cd18 3.716097 1_555
Ba1 Cd12 3.716097 1_545
Ba1 Cd17 3.720946 1_556
Ba1 Cd13 3.720946 1_555
Ba1 Cd16 3.863564 1_555
Ba1 Cd14 3.863565 1_545
Ba1 Cd21 3.867380 1_555
Ba1 Cd9 3.867380 1_545
Ba1 Cd19 3.867864 1_556
Ba1 Cd15 3.867864 1_555
Ba1 Cd20 3.869590 1_556
Ba1 Cd10 3.869590 1_555
Ba1 Cd3 3.886162 1_455
Ba1 Cd3 3.889415 1_555
Cd0 Cd11 2.927754 1_554
Cd0 Cd19 2.955217 1_655
Cd0 Cd5 2.955874 1_555
Cd0 Cd4 2.983949 1_655
Cd0 Cd21 3.032303 1_555
Cd0 Cd20 3.033193 1_655
Cd0 Cd18 3.068365 1_555
Cd0 Cd3 3.266250 1_554
Cd0 Cd16 3.316001 1_555
Cd0 Cd17 3.399759 1_555
Cd1 Cd8 2.925357 1_545
Cd1 Cd16 2.954361 1_555
Cd1 Cd6 2.956247 1_555
Cd1 Cd7 2.982677 1_555
Cd1 Cd20 3.033361 1_555
Cd1 Cd21 3.033679 1_555
Cd1 Cd17 3.070139 1_555
Cd1 Cd3 3.263720 1_455
Cd1 Cd19 3.316001 1_555
Cd1 Cd18 3.399307 1_455
Cd2 Cd5 3.168871 1_555
Cd2 Cd6 3.172268 1_565
Cd2 Cd4 3.173266 1_565
Cd2 Cd7 3.173266 1_555
Cd2 Cd9 3.266596 1_554
Cd2 Cd21 3.266596 1_555
Cd2 Cd20 3.270031 1_565
Cd3 Cd5 3.168871 1_556
Cd3 Cd6 3.172268 1_655
Cd3 Cd4 3.173266 1_656
Cd3 Cd7 3.173266 1_655
Cd3 Cd8 3.263720 1_645
Cd4 Cd9 2.953030 1_544
Cd4 Cd8 2.982677 1_544
Cd5 Cd9 2.985297 1_554
Cd6 Cd8 2.956247 1_545
Cd8 Cd9 3.033679 1_555
Cd10 Cd21 2.925922 1_555
Cd10 Cd13 2.955166 1_555
Cd10 Cd7 2.958270 1_555
Cd10 Cd6 2.983948 1_565
Cd10 Cd11 3.033193 1_455
Cd10 Cd8 3.033361 1_555
Cd10 Cd15 3.068365 1_555
Cd10 Cd2 3.270031 1_555
Cd10 Cd12 3.308344 1_455
Cd10 Cd14 3.399307 1_455
Cd11 Cd15 2.955217 1_655
Cd11 Cd5 2.955874 1_556
Cd11 Cd7 2.983949 1_655
Cd11 Cd9 3.032303 1_555
Cd11 Cd12 3.068365 1_555
Cd11 Cd3 3.266250 1_555
Cd11 Cd14 3.316001 1_555
Cd11 Cd13 3.399759 1_555
Cd12 Cd17 2.925922 1_566
Cd12 Cd9 2.955166 1_555
Cd12 Cd4 2.958270 1_666
Cd12 Cd6 2.983947 1_665
Cd12 Cd15 3.033193 1_655
Cd12 Cd14 3.033361 1_555
Cd12 Cd3 3.270031 1_565
Cd12 Cd8 3.399307 1_655
Cd13 Cd18 2.925922 1_555
Cd13 Cd7 2.953030 1_655
Cd13 Cd5 2.985297 1_556
Cd13 Cd15 3.032303 1_555
Cd13 Cd14 3.033679 1_555
Cd13 Cd8 3.070139 1_555
Cd13 Cd3 3.266596 1_555
Cd13 Cd9 3.311608 1_555
Cd14 Cd16 2.925357 1_565
Cd14 Cd8 2.954361 1_555
Cd14 Cd6 2.956247 1_665
Cd14 Cd7 2.982677 1_655
Cd14 Cd9 3.070139 1_555
Cd14 Cd2 3.263720 1_655
Cd15 Cd19 2.927754 1_556
Cd15 Cd5 2.955874 1_556
Cd15 Cd4 2.983949 1_566
Cd15 Cd2 3.266250 1_556
Cd15 Cd8 3.316001 1_555
Cd15 Cd9 3.399759 1_555
Cd16 Cd6 2.956247 1_655
Cd16 Cd4 2.982677 1_655
Cd16 Cd18 3.033361 1_555
Cd16 Cd17 3.033679 1_555
Cd16 Cd21 3.070139 1_555
Cd16 Cd2 3.263720 1_645
Cd16 Cd20 3.399307 1_655
Cd17 Cd4 2.953030 1_655
Cd17 Cd20 2.955166 1_555
Cd17 Cd5 2.985297 1_555
Cd17 Cd19 3.032303 1_555
Cd17 Cd3 3.266596 1_554
Cd17 Cd21 3.311608 1_555
Cd18 Cd21 2.955166 1_555
Cd18 Cd7 2.958270 1_655
Cd18 Cd6 2.983948 1_655
Cd18 Cd19 3.033193 1_655
Cd18 Cd3 3.270031 1_555
Cd18 Cd20 3.308344 1_655
Cd19 Cd5 2.955874 1_555
Cd19 Cd7 2.983949 1_555
Cd19 Cd20 3.068365 1_555
Cd19 Cd2 3.266250 1_555
Cd19 Cd21 3.399759 1_555
Cd20 Cd9 2.925922 1_544
Cd20 Cd4 2.958270 1_555
Cd20 Cd6 2.983947 1_555
Cd21 Cd7 2.953030 1_555
Cd21 Cd5 2.985297 1_555
