# generated using pymatgen
data_Rb2Ta3Cl7O5
_symmetry_space_group_name_H-M   'P 1'
_cell_length_a   9.56520014
_cell_length_b   9.56520050
_cell_length_c   11.09400539
_cell_angle_alpha   72.02591910
_cell_angle_beta   72.02591696
_cell_angle_gamma   55.08685901
_symmetry_Int_Tables_number   1
_chemical_formula_structural   Rb2Ta3Cl7O5
_chemical_formula_sum   'Rb4 Ta6 Cl14 O10'
_cell_volume   780.30508319
_cell_formula_units_Z   2
loop_
 _symmetry_equiv_pos_site_id
 _symmetry_equiv_pos_as_xyz
  1  'x, y, z'
loop_
 _atom_site_type_symbol
 _atom_site_label
 _atom_site_symmetry_multiplicity
 _atom_site_fract_x
 _atom_site_fract_y
 _atom_site_fract_z
 _atom_site_occupancy
  Rb  Rb0  1  0.75481025  0.84210974  0.85423297  1
  Rb  Rb1  1  0.15789026  0.24518975  0.64576703  1
  Rb  Rb2  1  0.24518975  0.15789026  0.14576703  1
  Rb  Rb3  1  0.84210974  0.75481025  0.35423297  1
  Ta  Ta0  1  0.21610905  0.78881435  0.52760727  1
  Ta  Ta1  1  0.21118565  0.78389095  0.97239273  1
  Ta  Ta2  1  0.78389095  0.21118565  0.47239273  1
  Ta  Ta3  1  0.78881435  0.21610905  0.02760727  1
  Ta  Ta4  1  0.45817070  0.54182930  0.25000000  1
  Ta  Ta5  1  0.54182930  0.45817070  0.75000000  1
  Cl  Cl0  1  0.05812965  0.64250895  0.61852107  1
  Cl  Cl1  1  0.35749105  0.94187035  0.88147893  1
  Cl  Cl2  1  0.94187035  0.35749105  0.38147893  1
  Cl  Cl3  1  0.64250895  0.05812965  0.11852107  1
  Cl  Cl4  1  0.36435403  0.94236818  0.45736629  1
  Cl  Cl5  1  0.05763182  0.63564597  0.04263371  1
  Cl  Cl6  1  0.63564597  0.05763182  0.54263371  1
  Cl  Cl7  1  0.94236818  0.36435403  0.95736629  1
  Cl  Cl8  1  0.28820735  0.41107143  0.32976018  1
  Cl  Cl9  1  0.58892857  0.71179265  0.17023982  1
  Cl  Cl10  1  0.71179265  0.58892857  0.67023982  1
  Cl  Cl11  1  0.41107143  0.28820735  0.82976018  1
  Cl  Cl12  1  0.08962192  0.91037808  0.75000000  1
  Cl  Cl13  1  0.91037808  0.08962192  0.25000000  1
  O  O0  1  0.29086821  0.71139037  0.37581759  1
  O  O1  1  0.28860963  0.70913179  0.12418241  1
  O  O2  1  0.70913179  0.28860963  0.62418241  1
  O  O3  1  0.71139037  0.29086821  0.87581759  1
  O  O4  1  0.39710658  0.60420934  0.62492651  1
  O  O5  1  0.39579066  0.60289342  0.87507349  1
  O  O6  1  0.60289342  0.39579066  0.37507349  1
  O  O7  1  0.60420934  0.39710658  0.12492651  1
  O  O8  1  0.00000000  0.00000000  0.50000000  1
  O  O9  1  0.00000000  0.00000000  0.00000000  1
loop_
_geom_bond_atom_site_label_1
_geom_bond_atom_site_label_2
_geom_bond_distance
_geom_bond_site_symmetry_2
Cl0 Ta0 2.422399 1_555
Cl0 Rb1 3.280725 1_555
Cl0 Rb0 3.310463 1_455
Cl0 Rb3 3.643439 1_455
Cl1 Ta1 2.422399 1_555
Cl1 Rb0 3.280725 1_555
Cl1 Rb1 3.310464 1_565
Cl1 Rb2 3.643439 1_566
Cl2 Ta2 2.422399 1_555
Cl2 Rb3 3.280725 1_555
Cl2 Rb2 3.310463 1_655
Cl2 Rb1 3.643439 1_655
Cl3 Ta3 2.422399 1_555
Cl3 Rb2 3.280725 1_555
Cl3 Rb3 3.310464 1_545
Cl3 Rb0 3.643439 1_544
Cl4 Ta0 2.402270 1_555
Cl4 Rb1 3.361516 1_565
Cl4 Rb2 3.583710 1_565
Cl4 Rb3 3.750521 1_555
Cl5 Ta1 2.402270 1_554
Cl5 Rb0 3.361516 1_454
Cl5 Rb3 3.583710 1_455
Cl5 Rb2 3.750521 1_555
Cl6 Ta2 2.402270 1_555
Cl6 Rb3 3.361516 1_545
Cl6 Rb0 3.583710 1_545
Cl6 Rb1 3.750521 1_555
Cl7 Ta3 2.402270 1_556
Cl7 Rb2 3.361516 1_656
Cl7 Rb1 3.583710 1_655
Cl7 Rb0 3.750521 1_555
Cl8 Ta4 2.397277 1_555
Cl8 Rb1 3.534927 1_555
Cl8 Rb3 3.587236 1_455
Cl8 Rb2 3.861415 1_555
Cl9 Ta4 2.397277 1_555
Cl9 Rb0 3.534927 1_554
Cl9 Rb2 3.587236 1_565
Cl9 Rb3 3.861415 1_555
Cl10 Ta5 2.397277 1_555
Cl10 Rb3 3.534927 1_555
Cl10 Rb1 3.587236 1_655
Cl10 Rb0 3.861415 1_555
Cl11 Ta5 2.397277 1_555
Cl11 Rb2 3.534927 1_556
Cl11 Rb0 3.587236 1_545
Cl11 Rb1 3.861415 1_555
Cl12 Ta0 2.687194 1_555
Cl12 Ta1 2.687194 1_555
Cl12 Rb0 3.414973 1_455
Cl12 Rb1 3.414973 1_565
Cl13 Ta2 2.687194 1_555
Cl13 Ta3 2.687194 1_555
Cl13 Rb2 3.414973 1_655
Cl13 Rb3 3.414973 1_545
O0 Ta0 1.820937 1_555
O0 Ta4 2.046310 1_555
O1 Ta1 1.820937 1_554
O1 Ta4 2.046310 1_555
O2 Ta2 1.820937 1_555
O2 Ta5 2.046310 1_555
O3 Ta3 1.820937 1_556
O3 Ta5 2.046310 1_555
O4 Ta5 1.889097 1_555
O4 Ta0 1.938728 1_555
O5 Ta5 1.889097 1_555
O5 Ta1 1.938728 1_555
O6 Ta4 1.889097 1_555
O6 Ta2 1.938728 1_555
O7 Ta4 1.889097 1_555
O7 Ta3 1.938728 1_555
O8 Ta0 1.917421 1_545
O8 Ta2 1.917421 1_455
O9 Ta3 1.917421 1_455
O9 Ta1 1.917421 1_544
