# generated using pymatgen
data_Sn2PBrO4
_symmetry_space_group_name_H-M   'P 1'
_cell_length_a   5.08479997
_cell_length_b   5.08479913
_cell_length_c   13.95710096
_cell_angle_alpha   90.00000000
_cell_angle_beta   90.00000000
_cell_angle_gamma   123.52859528
_symmetry_Int_Tables_number   1
_chemical_formula_structural   Sn2PBrO4
_chemical_formula_sum   'Sn4 P2 Br2 O8'
_cell_volume   300.81947139
_cell_formula_units_Z   2
loop_
 _symmetry_equiv_pos_site_id
 _symmetry_equiv_pos_as_xyz
  1  'x, y, z'
loop_
 _atom_site_type_symbol
 _atom_site_label
 _atom_site_symmetry_multiplicity
 _atom_site_fract_x
 _atom_site_fract_y
 _atom_site_fract_z
 _atom_site_occupancy
  Sn  Sn0  1  0.83572133  0.23155155  0.88289625  1
  Sn  Sn1  1  0.23155155  0.83572133  0.38289625  1
  Sn  Sn2  1  0.23155155  0.83572133  0.11710375  1
  Sn  Sn3  1  0.83572133  0.23155155  0.61710375  1
  P  P0  1  0.18509721  0.91773396  0.75000000  1
  P  P1  1  0.91773396  0.18509721  0.25000000  1
  Br  Br0  1  0.46161762  0.46161762  0.00000000  1
  Br  Br1  1  0.46161762  0.46161762  0.50000000  1
  O  O0  1  0.10860694  0.72181985  0.84096760  1
  O  O1  1  0.17819410  0.54550848  0.25000000  1
  O  O2  1  0.01291579  0.09191590  0.75000000  1
  O  O3  1  0.72181985  0.10860694  0.15903240  1
  O  O4  1  0.10860694  0.72181985  0.65903240  1
  O  O5  1  0.72181985  0.10860694  0.34096760  1
  O  O6  1  0.54550848  0.17819410  0.75000000  1
  O  O7  1  0.09191590  0.01291579  0.25000000  1
loop_
_geom_bond_atom_site_label_1
_geom_bond_atom_site_label_2
_geom_bond_distance
_geom_bond_site_symmetry_2
Br0 Sn2 3.171063 1_545
Br0 Sn0 3.171063 1_454
Br0 Sn2 3.180681 1_555
Br0 Sn0 3.180681 1_554
Br1 Sn1 3.171063 1_545
Br1 Sn3 3.171063 1_455
Br1 Sn1 3.180681 1_555
Br1 Sn3 3.180681 1_555
O0 P0 1.525657 1_555
O0 Sn0 2.158971 1_455
O1 P1 1.559251 1_455
O1 Sn1 2.291155 1_555
O1 Sn2 2.291155 1_555
O2 P0 1.551630 1_545
O2 Sn0 2.337325 1_455
O2 Sn3 2.337325 1_455
O3 P1 1.525657 1_555
O3 Sn2 2.158972 1_545
O4 P0 1.525657 1_555
O4 Sn3 2.158971 1_455
O5 P1 1.525657 1_555
O5 Sn1 2.158972 1_545
O6 P0 1.559252 1_545
O6 Sn0 2.291155 1_555
O6 Sn3 2.291155 1_555
O7 P1 1.551630 1_455
O7 Sn1 2.337325 1_545
O7 Sn2 2.337325 1_545
