# generated using pymatgen
data_LiTi2Ag3F12
_symmetry_space_group_name_H-M   'P 1'
_cell_length_a   5.23061191
_cell_length_b   5.23061191
_cell_length_c   18.73158715
_cell_angle_alpha   90.00000000
_cell_angle_beta   90.00000000
_cell_angle_gamma   90.00000000
_symmetry_Int_Tables_number   1
_chemical_formula_structural   LiTi2Ag3F12
_chemical_formula_sum   'Li2 Ti4 Ag6 F24'
_cell_volume   512.48313078
_cell_formula_units_Z   2
loop_
 _symmetry_equiv_pos_site_id
 _symmetry_equiv_pos_as_xyz
  1  'x, y, z'
loop_
 _atom_site_type_symbol
 _atom_site_label
 _atom_site_symmetry_multiplicity
 _atom_site_fract_x
 _atom_site_fract_y
 _atom_site_fract_z
 _atom_site_occupancy
  Li  Li0  1  0.00000000  0.00000000  0.00000000  1
  Li  Li1  1  0.50000000  0.50000000  0.50000000  1
  Ti  Ti0  1  0.00000000  0.50000000  0.12357934  1
  Ti  Ti1  1  0.50000000  0.00000000  0.87642066  1
  Ti  Ti2  1  0.50000000  0.00000000  0.37642066  1
  Ti  Ti3  1  0.00000000  0.50000000  0.62357934  1
  Ag  Ag0  1  0.00000000  0.50000000  0.31248777  1
  Ag  Ag1  1  0.50000000  0.00000000  0.68751223  1
  Ag  Ag2  1  0.50000000  0.00000000  0.18751223  1
  Ag  Ag3  1  0.00000000  0.50000000  0.81248777  1
  Ag  Ag4  1  0.00000000  0.00000000  0.50000000  1
  Ag  Ag5  1  0.50000000  0.50000000  0.00000000  1
  F  F0  1  0.19852125  0.18992218  0.38530082  1
  F  F1  1  0.80147875  0.81007782  0.38530082  1
  F  F2  1  0.18992218  0.80147875  0.61469918  1
  F  F3  1  0.30147875  0.68992218  0.11469918  1
  F  F4  1  0.81007782  0.19852125  0.61469918  1
  F  F5  1  0.69852125  0.31007782  0.11469918  1
  F  F6  1  0.31007782  0.30147875  0.88530082  1
  F  F7  1  0.68992218  0.69852125  0.88530082  1
  F  F8  1  0.13315591  0.29236765  0.19557266  1
  F  F9  1  0.86684409  0.70763235  0.19557266  1
  F  F10  1  0.29236765  0.86684409  0.80442734  1
  F  F11  1  0.36684409  0.79236765  0.30442734  1
  F  F12  1  0.70763235  0.13315591  0.80442734  1
  F  F13  1  0.63315591  0.20763235  0.30442734  1
  F  F14  1  0.20763235  0.36684409  0.69557266  1
  F  F15  1  0.79236765  0.63315591  0.69557266  1
  F  F16  1  0.13543755  0.27240747  0.05293483  1
  F  F17  1  0.86456245  0.72759253  0.05293483  1
  F  F18  1  0.27240747  0.86456245  0.94706517  1
  F  F19  1  0.36456245  0.77240747  0.44706517  1
  F  F20  1  0.72759253  0.13543755  0.94706517  1
  F  F21  1  0.63543755  0.22759253  0.44706517  1
  F  F22  1  0.22759253  0.36456245  0.55293483  1
  F  F23  1  0.77240747  0.63543755  0.55293483  1
loop_
_geom_bond_atom_site_label_1
_geom_bond_atom_site_label_2
_geom_bond_distance
_geom_bond_site_symmetry_2
Ag0 F1 2.359880 1_455
Ag0 F0 2.359880 1_555
Ag0 F11 2.458313 1_555
Ag0 F13 2.458313 1_455
Ag0 F8 2.541793 1_555
Ag0 F9 2.541793 1_455
Ag1 F4 2.359880 1_555
Ag1 F2 2.359880 1_545
Ag1 F14 2.458313 1_555
Ag1 F15 2.458313 1_545
Ag1 F12 2.541793 1_555
Ag1 F10 2.541793 1_545
Ag2 F5 2.359880 1_555
Ag2 F3 2.359880 1_545
Ag2 F9 2.458313 1_545
Ag2 F8 2.458313 1_555
Ag2 F13 2.541793 1_555
Ag2 F11 2.541793 1_545
Ag3 F6 2.359880 1_555
Ag3 F7 2.359880 1_455
Ag3 F10 2.458313 1_555
Ag3 F12 2.458313 1_455
Ag3 F14 2.541793 1_555
Ag3 F15 2.541793 1_455
Ag4 F22 2.456940 1_555
Ag4 F23 2.456940 1_445
Ag4 F19 2.456940 1_545
Ag4 F21 2.456940 1_455
Ag4 F2 2.584793 1_545
Ag4 F0 2.584793 1_555
Ag4 F4 2.584793 1_455
Ag4 F1 2.584793 1_445
Ag5 F16 2.456940 1_555
Ag5 F20 2.456940 1_554
Ag5 F17 2.456940 1_555
Ag5 F18 2.456940 1_554
Ag5 F3 2.584793 1_555
Ag5 F5 2.584793 1_555
Ag5 F7 2.584793 1_554
Ag5 F6 2.584793 1_554
F0 Ti2 1.871150 1_555
F1 Ti2 1.871150 1_565
F2 Ti3 1.871150 1_555
F3 Ti0 1.871150 1_555
F4 Ti3 1.871150 1_655
F5 Ti0 1.871150 1_655
F6 Ti1 1.871150 1_555
F7 Ti1 1.871150 1_565
F8 Ti0 1.866326 1_555
F9 Ti0 1.866326 1_655
F10 Ti1 1.866326 1_565
F11 Ti2 1.866326 1_565
F12 Ti1 1.866326 1_555
F13 Ti2 1.866326 1_555
F14 Ti3 1.866326 1_555
F15 Ti3 1.866326 1_655
F16 Li0 1.874902 1_555
F16 Ti0 1.915753 1_555
F17 Li0 1.874902 1_665
F17 Ti0 1.915753 1_655
F18 Li0 1.874902 1_566
F18 Ti1 1.915753 1_565
F19 Li1 1.874902 1_555
F19 Ti2 1.915753 1_565
F20 Li0 1.874902 1_656
F20 Ti1 1.915753 1_555
F21 Li1 1.874902 1_555
F21 Ti2 1.915753 1_555
F22 Li1 1.874902 1_555
F22 Ti3 1.915753 1_555
F23 Li1 1.874902 1_555
F23 Ti3 1.915753 1_655
