# generated using pymatgen
data_Sm2Cr2Fe15
_symmetry_space_group_name_H-M   'P 1'
_cell_length_a   6.40080617
_cell_length_b   6.40080617
_cell_length_c   6.40080672
_cell_angle_alpha   82.28631614
_cell_angle_beta   82.28631614
_cell_angle_gamma   82.28632622
_symmetry_Int_Tables_number   1
_chemical_formula_structural   Sm2Cr2Fe15
_chemical_formula_sum   'Sm2 Cr2 Fe15'
_cell_volume   255.70907063
_cell_formula_units_Z   1
loop_
 _symmetry_equiv_pos_site_id
 _symmetry_equiv_pos_as_xyz
  1  'x, y, z'
loop_
 _atom_site_type_symbol
 _atom_site_label
 _atom_site_symmetry_multiplicity
 _atom_site_fract_x
 _atom_site_fract_y
 _atom_site_fract_z
 _atom_site_occupancy
  Sm  Sm0  1  0.65751600  0.65751600  0.65751600  1
  Sm  Sm1  1  0.34248400  0.34248400  0.34248400  1
  Cr  Cr0  1  0.08606700  0.08606700  0.08606700  1
  Cr  Cr1  1  0.91393300  0.91393300  0.91393300  1
  Fe  Fe0  1  0.33855900  0.33855900  0.84452000  1
  Fe  Fe1  1  0.84452000  0.33855900  0.33855900  1
  Fe  Fe2  1  0.00000000  0.00000000  0.50000000  1
  Fe  Fe3  1  0.00000000  0.50000000  0.00000000  1
  Fe  Fe4  1  0.50000000  0.00000000  0.00000000  1
  Fe  Fe5  1  0.70190600  0.29809400  0.00000000  1
  Fe  Fe6  1  0.29809400  0.00000000  0.70190600  1
  Fe  Fe7  1  0.00000000  0.70190600  0.29809400  1
  Fe  Fe8  1  0.29809400  0.70190600  0.00000000  1
  Fe  Fe9  1  0.70190600  0.00000000  0.29809400  1
  Fe  Fe10  1  0.00000000  0.29809400  0.70190600  1
  Fe  Fe11  1  0.15548000  0.66144100  0.66144100  1
  Fe  Fe12  1  0.66144100  0.66144100  0.15548000  1
  Fe  Fe13  1  0.66144100  0.15548000  0.66144100  1
  Fe  Fe14  1  0.33855900  0.84452000  0.33855900  1
loop_
_geom_bond_atom_site_label_1
_geom_bond_atom_site_label_2
_geom_bond_distance
_geom_bond_site_symmetry_2
Cr0 Cr1 2.149304 1_444
Cr0 Fe3 2.631478 1_555
Cr0 Fe4 2.631478 1_555
Cr0 Fe2 2.631478 1_555
Cr0 Fe0 2.640820 1_554
Cr0 Fe1 2.640820 1_455
Cr0 Fe14 2.640820 1_545
Cr0 Fe9 2.731083 1_455
Cr0 Fe7 2.731083 1_545
Cr0 Fe8 2.731083 1_545
Cr0 Fe5 2.731083 1_455
Cr0 Fe10 2.731083 1_554
Cr0 Fe6 2.731083 1_554
Cr0 Sm1 3.201681 1_555
Cr1 Fe4 2.631478 1_566
Cr1 Fe3 2.631478 1_656
Cr1 Fe2 2.631478 1_665
Cr1 Fe12 2.640820 1_556
Cr1 Fe11 2.640820 1_655
Cr1 Fe13 2.640820 1_565
Cr1 Fe6 2.731083 1_665
Cr1 Fe10 2.731083 1_665
Cr1 Fe5 2.731083 1_566
Cr1 Fe8 2.731083 1_656
Cr1 Fe9 2.731083 1_566
Cr1 Fe7 2.731083 1_656
Cr1 Sm0 3.201681 1_555
Fe0 Fe3 2.418746 1_556
Fe0 Fe4 2.418746 1_556
Fe0 Fe13 2.467004 1_555
Fe0 Fe11 2.467004 1_555
Fe0 Fe10 2.518265 1_555
Fe0 Fe6 2.518265 1_555
Fe0 Fe5 2.618564 1_556
Fe0 Fe8 2.618564 1_556
Fe0 Sm0 3.094470 1_555
Fe0 Sm1 3.194333 1_556
Fe0 Sm1 3.206907 1_555
Fe1 Fe3 2.418746 1_655
Fe1 Fe2 2.418746 1_655
Fe1 Fe13 2.467004 1_555
Fe1 Fe12 2.467004 1_555
Fe1 Fe9 2.518265 1_555
Fe1 Fe5 2.518265 1_555
Fe1 Fe7 2.618563 1_655
Fe1 Fe10 2.618564 1_655
Fe1 Sm0 3.094471 1_555
Fe1 Sm1 3.194332 1_655
Fe1 Sm1 3.206907 1_555
Fe2 Fe6 2.443926 1_555
Fe2 Fe9 2.443926 1_455
Fe2 Fe7 2.443926 1_545
Fe2 Sm0 3.275848 1_445
Fe2 Sm1 3.275848 1_555
Fe3 Fe8 2.443926 1_555
Fe3 Fe5 2.443926 1_455
Fe3 Fe7 2.443927 1_555
Fe3 Sm0 3.275849 1_454
Fe3 Sm1 3.275849 1_555
Fe4 Fe5 2.443926 1_555
Fe4 Fe8 2.443926 1_545
Fe4 Fe9 2.443927 1_555
Fe4 Fe6 2.443927 1_554
Fe4 Sm0 3.275849 1_544
Fe4 Sm1 3.275849 1_555
Fe5 Fe9 2.510765 1_555
Fe5 Sm1 2.969336 1_555
Fe5 Sm0 2.969336 1_554
Fe6 Fe8 2.510765 1_546
Fe6 Sm1 2.969336 1_555
Fe6 Sm0 2.969336 1_545
Fe7 Fe8 2.510765 1_555
Fe7 Fe9 2.510765 1_465
Fe7 Sm0 2.969336 1_455
Fe7 Sm1 2.969336 1_555
Fe8 Sm1 2.969336 1_555
Fe8 Sm0 2.969336 1_554
Fe9 Sm0 2.969336 1_545
Fe9 Sm1 2.969336 1_555
Fe10 Fe2 2.443926 1_555
Fe10 Fe3 2.443927 1_556
Fe10 Fe5 2.510765 1_456
Fe10 Fe6 2.510765 1_555
Fe10 Fe13 2.518265 1_455
Fe10 Fe11 2.618563 1_555
Fe10 Sm1 2.969336 1_555
Fe10 Sm0 2.969336 1_455
Fe11 Fe3 2.418746 1_556
Fe11 Fe2 2.418746 1_565
Fe11 Fe14 2.467004 1_555
Fe11 Fe6 2.518265 1_565
Fe11 Fe8 2.518265 1_556
Fe11 Fe7 2.618564 1_555
Fe11 Sm1 3.094471 1_555
Fe11 Sm0 3.194332 1_455
Fe11 Sm0 3.206907 1_555
Fe12 Fe3 2.418746 1_655
Fe12 Fe4 2.418746 1_565
Fe12 Fe14 2.467004 1_555
Fe12 Fe9 2.518265 1_565
Fe12 Fe7 2.518265 1_655
Fe12 Fe8 2.618564 1_555
Fe12 Fe5 2.618564 1_555
Fe12 Sm1 3.094470 1_555
Fe12 Sm0 3.194333 1_554
Fe12 Sm0 3.206907 1_555
Fe13 Fe4 2.418746 1_556
Fe13 Fe2 2.418746 1_655
Fe13 Fe5 2.518265 1_556
Fe13 Fe6 2.618563 1_555
Fe13 Fe9 2.618564 1_555
Fe13 Sm1 3.094471 1_555
Fe13 Sm0 3.194332 1_545
Fe13 Sm0 3.206907 1_555
Fe14 Fe4 2.418746 1_565
Fe14 Fe2 2.418746 1_565
Fe14 Fe7 2.518265 1_555
Fe14 Fe8 2.518265 1_555
Fe14 Fe9 2.618563 1_565
Fe14 Fe6 2.618564 1_565
Fe14 Sm0 3.094471 1_555
Fe14 Sm1 3.194332 1_565
Fe14 Sm1 3.206907 1_555
