# generated using pymatgen
data_Hf8Al15Os6Rh
_symmetry_space_group_name_H-M   'P 1'
_cell_length_a   8.82280395
_cell_length_b   8.82277457
_cell_length_c   8.82280408
_cell_angle_alpha   120.24728090
_cell_angle_beta   119.92125095
_cell_angle_gamma   89.85430858
_symmetry_Int_Tables_number   1
_chemical_formula_structural   Hf8Al15Os6Rh
_chemical_formula_sum   'Hf8 Al15 Os6 Rh1'
_cell_volume   485.00268275
_cell_formula_units_Z   1
loop_
 _symmetry_equiv_pos_site_id
 _symmetry_equiv_pos_as_xyz
  1  'x, y, z'
loop_
 _atom_site_type_symbol
 _atom_site_label
 _atom_site_symmetry_multiplicity
 _atom_site_fract_x
 _atom_site_fract_y
 _atom_site_fract_z
 _atom_site_occupancy
  Hf  Hf0  1  0.80062624  0.28699384  0.07196026  1
  Hf  Hf1  1  0.21502669  0.28698875  0.48636511  1
  Hf  Hf2  1  0.20372424  0.70372364  0.49999956  1
  Hf  Hf3  1  0.21503162  0.72866412  0.92803933  1
  Hf  Hf4  1  0.80061896  0.72866123  0.51363080  1
  Hf  Hf5  1  0.77430768  0.27431014  0.50000256  1
  Hf  Hf6  1  0.37867353  0.12017494  0.74149967  1
  Hf  Hf7  1  0.37867557  0.63717712  0.25850200  1
  Al  Al0  1  0.98808486  0.48808421  0.50000386  1
  Al  Al1  1  0.16346974  0.33338487  0.16992431  1
  Al  Al2  1  0.16345580  0.99353628  0.83007076  1
  Al  Al3  1  0.15344271  0.34366920  0.80976027  1
  Al  Al4  1  0.53390716  0.34367733  0.19023470  1
  Al  Al5  1  0.83889511  0.65789688  0.81900288  1
  Al  Al6  1  0.83889657  0.01989723  0.18099775  1
  Al  Al7  1  0.83580991  0.66095212  0.17486482  1
  Al  Al8  1  0.48608463  0.66094498  0.82513203  1
  Al  Al9  1  0.37902757  0.12249377  0.25653483  1
  Al  Al10  1  0.86595893  0.12248674  0.74346088  1
  Al  Al11  1  0.62100801  0.87269276  0.25168745  1
  Al  Al12  1  0.62100979  0.36932336  0.74832116  1
  Al  Al13  1  0.62029963  0.87581599  0.74448827  1
  Al  Al14  1  0.13133003  0.87581584  0.25551669  1
  Os  Os0  1  0.99616939  0.99730379  0.50021177  1
  Os  Os1  1  0.49708350  0.99729856  0.00112512  1
  Os  Os2  1  0.49947832  0.49947958  0.00000150  1
  Os  Os3  1  0.49709114  0.49595910  0.49978829  1
  Os  Os4  1  0.99617209  0.49595945  0.99887422  1
  Os  Os5  1  0.99996262  0.99996456  0.00000061  1
  Rh  Rh0  1  0.50667095  0.00667164  0.50000054  1
loop_
_geom_bond_atom_site_label_1
_geom_bond_atom_site_label_2
_geom_bond_distance
_geom_bond_site_symmetry_2
Hf0 Os4 3.019127 1_554
Hf0 Os5 3.062782 1_545
Hf0 Hf6 3.066346 1_554
Hf0 Os2 3.235435 1_555
Hf0 Os1 3.294130 1_545
Hf1 Os3 3.019223 1_555
Hf1 Os5 3.062780 1_445
Hf1 Hf6 3.066312 1_555
Hf1 Os2 3.235459 1_556
Hf1 Os0 3.294036 1_445
Hf2 Hf7 3.046835 1_555
Hf2 Hf6 3.046837 1_565
Hf2 Os1 3.168046 1_556
Hf2 Os4 3.168046 1_454
Hf2 Os3 3.168083 1_555
Hf2 Os0 3.168100 1_455
Hf3 Os1 3.019144 1_556
Hf3 Os5 3.062806 1_456
Hf3 Hf7 3.066325 1_556
Hf3 Os2 3.235422 1_556
Hf3 Os4 3.294107 1_455
Hf4 Os0 3.019220 1_555
Hf4 Os5 3.062812 1_556
Hf4 Hf7 3.066284 1_555
Hf4 Os2 3.235413 1_555
Hf4 Os3 3.294028 1_555
Hf6 Rh0 2.657647 1_555
Hf6 Os2 2.727724 1_556
Hf6 Os1 2.760871 1_546
Hf6 Os0 2.760891 1_445
Hf7 Rh0 2.657624 1_565
Hf7 Os2 2.727722 1_555
Hf7 Os4 2.760887 1_454
Hf7 Os3 2.760888 1_555
Al0 Hf5 2.670725 1_555
Al0 Hf3 2.679287 1_655
Al0 Hf1 2.679291 1_655
Al0 Hf4 2.679322 1_555
Al0 Hf0 2.679340 1_555
Al0 Hf2 2.694045 1_655
Al1 Os5 2.530436 1_445
Al1 Os3 2.541892 1_555
Al1 Os4 2.541924 1_454
Al1 Al9 2.761787 1_555
Al1 Al10 2.761886 1_454
Al1 Hf7 2.799125 1_555
Al1 Hf1 2.837717 1_555
Al1 Hf0 2.837743 1_455
Al1 Hf2 2.944604 1_555
Al1 Al2 2.987159 1_544
Al2 Os5 2.530436 1_456
Al2 Os0 2.541905 1_455
Al2 Os1 2.541927 1_556
Al2 Al9 2.761880 1_566
Al2 Hf6 2.799156 1_565
Al2 Hf4 2.837690 1_455
Al2 Hf3 2.837697 1_555
Al2 Hf2 2.944585 1_555
Al3 Os0 2.560371 1_445
Al3 Os4 2.560508 1_455
Al3 Os2 2.571466 1_556
Al3 Hf6 2.859594 1_555
Al3 Hf7 2.859714 1_556
Al3 Hf5 2.870226 1_455
Al3 Hf1 2.965479 1_555
Al3 Hf3 2.965563 1_555
Al4 Os3 2.560410 1_555
Al4 Os1 2.560457 1_545
Al4 Os2 2.571464 1_555
Al4 Al9 2.824641 1_555
Al4 Hf7 2.859639 1_555
Al4 Hf6 2.859669 1_554
Al4 Hf5 2.870228 1_555
Al4 Hf4 2.965492 1_555
Al4 Hf0 2.965574 1_555
Al5 Os3 2.561736 1_555
Al5 Os4 2.561757 1_555
Al5 Os5 2.565202 1_556
Al5 Hf5 2.917731 1_555
Al5 Hf4 2.923812 1_555
Al5 Hf3 2.923828 1_655
Al6 Os0 2.561753 1_545
Al6 Os1 2.561786 1_545
Al6 Os5 2.565170 1_545
Al6 Hf5 2.917778 1_555
Al6 Hf1 2.923763 1_655
Al6 Hf0 2.923796 1_555
Al7 Os0 2.536858 1_555
Al7 Os4 2.536886 1_554
Al7 Os2 2.540710 1_555
Al7 Hf0 2.917627 1_555
Al7 Hf4 2.917635 1_555
Al7 Hf2 2.921345 1_655
Al8 Os3 2.536848 1_555
Al8 Os1 2.536883 1_556
Al8 Os2 2.540724 1_556
Al8 Hf1 2.917629 1_555
Al8 Hf3 2.917645 1_555
Al8 Hf2 2.921317 1_555
Al9 Rh0 2.592077 1_555
Al9 Os3 2.685312 1_555
Al9 Os1 2.685323 1_545
Al9 Os5 2.734649 1_445
Al9 Hf5 2.867468 1_555
Al9 Hf3 2.874567 1_544
Al9 Hf1 2.874583 1_555
Al10 Rh0 2.592082 1_555
Al10 Os0 2.685278 1_545
Al10 Os4 2.685366 1_555
Al10 Os5 2.734624 1_546
Al10 Al2 2.761772 1_645
Al10 Al3 2.824661 1_655
Al10 Hf5 2.867475 1_555
Al10 Hf4 2.874526 1_545
Al10 Hf0 2.874594 1_556
Al10 Al11 3.064164 1_545
Al10 Al12 3.064234 1_555
Al10 Al13 3.081810 1_545
Al11 Rh0 2.608500 1_565
Al11 Os2 2.683135 1_555
Al11 Os0 2.705902 1_555
Al11 Os1 2.705947 1_555
Al11 Al7 2.743857 1_555
Al11 Al8 2.743942 1_554
Al11 Al6 2.792161 1_565
Al11 Hf5 2.903787 1_565
Al11 Hf4 2.960068 1_555
Al11 Hf3 2.960092 1_554
Al11 Hf7 3.028077 1_555
Al11 Al9 3.064207 1_565
Al12 Rh0 2.608504 1_555
Al12 Os2 2.683133 1_556
Al12 Os4 2.705909 1_555
Al12 Os3 2.705950 1_555
Al12 Al8 2.743869 1_555
Al12 Al7 2.743875 1_556
Al12 Al5 2.792120 1_555
Al12 Hf5 2.903791 1_555
Al12 Hf0 2.960030 1_556
Al12 Hf1 2.960136 1_555
Al12 Hf6 3.028081 1_555
Al12 Al9 3.064245 1_555
Al13 Rh0 2.708614 1_565
Al13 Os1 2.731700 1_556
Al13 Os3 2.731720 1_555
Al13 Os5 2.738585 1_556
Al13 Al8 2.777266 1_555
Al13 Al6 2.799625 1_566
Al13 Al5 2.799655 1_555
Al13 Hf4 2.987184 1_555
Al13 Hf0 2.987186 1_566
Al13 Hf6 3.028395 1_565
Al13 Hf7 3.028410 1_555
Al13 Hf2 3.047329 1_555
Al14 Rh0 2.708600 1_565
Al14 Os4 2.731717 1_454
Al14 Os0 2.731721 1_455
Al14 Os5 2.738595 1_455
Al14 Al7 2.777291 1_455
Al14 Al6 2.799658 1_465
Al14 Al5 2.799660 1_454
Al14 Hf1 2.987154 1_565
Al14 Hf3 2.987205 1_554
Al14 Hf6 3.028389 1_565
Al14 Hf7 3.028391 1_555
Al14 Hf2 3.047325 1_555
Al14 Al9 3.081810 1_565
