# generated using pymatgen
data_ZrGaIrRu
_symmetry_space_group_name_H-M   'P 1'
_cell_length_a   4.44743944
_cell_length_b   4.44743940
_cell_length_c   4.44743882
_cell_angle_alpha   59.99999711
_cell_angle_beta   59.99999740
_cell_angle_gamma   59.99999380
_symmetry_Int_Tables_number   1
_chemical_formula_structural   ZrGaIrRu
_chemical_formula_sum   'Zr1 Ga1 Ir1 Ru1'
_cell_volume   62.20352961
_cell_formula_units_Z   1
loop_
 _symmetry_equiv_pos_site_id
 _symmetry_equiv_pos_as_xyz
  1  'x, y, z'
loop_
 _atom_site_type_symbol
 _atom_site_label
 _atom_site_symmetry_multiplicity
 _atom_site_fract_x
 _atom_site_fract_y
 _atom_site_fract_z
 _atom_site_occupancy
  Zr  Zr0  1  0.00000000  0.00000000  0.00000000  1
  Ga  Ga0  1  0.50000000  0.50000000  0.50000000  1
  Ir  Ir0  1  0.25000000  0.25000000  0.25000000  1
  Ru  Ru0  1  0.75000000  0.75000000  0.75000000  1
loop_
_geom_bond_atom_site_label_1
_geom_bond_atom_site_label_2
_geom_bond_distance
_geom_bond_site_symmetry_2
Ga0 Ir0 2.723489 1_556
Ga0 Ru0 2.723489 1_554
Ga0 Ru0 2.723489 1_545
Ga0 Ir0 2.723489 1_565
Ga0 Ru0 2.723489 1_455
Ga0 Ir0 2.723489 1_655
Ga0 Ir0 2.723489 1_555
Ga0 Ru0 2.723489 1_555
Ir0 Zr0 2.723489 1_556
Ir0 Zr0 2.723489 1_565
Ir0 Zr0 2.723489 1_655
Ir0 Zr0 2.723489 1_555
Ru0 Zr0 2.723489 1_665
Ru0 Zr0 2.723489 1_656
Ru0 Zr0 2.723489 1_566
Ru0 Zr0 2.723489 1_666
