# generated using pymatgen
data_Ba(LaSe2)2
_symmetry_space_group_name_H-M   'P 1'
_cell_length_a   8.06829684
_cell_length_b   8.06846596
_cell_length_c   8.06843643
_cell_angle_alpha   109.27609862
_cell_angle_beta   109.27398811
_cell_angle_gamma   109.86388531
_symmetry_Int_Tables_number   1
_chemical_formula_structural   Ba(LaSe2)2
_chemical_formula_sum   'Ba2 La4 Se8'
_cell_volume   404.32182130
_cell_formula_units_Z   2
loop_
 _symmetry_equiv_pos_site_id
 _symmetry_equiv_pos_as_xyz
  1  'x, y, z'
loop_
 _atom_site_type_symbol
 _atom_site_label
 _atom_site_symmetry_multiplicity
 _atom_site_fract_x
 _atom_site_fract_y
 _atom_site_fract_z
 _atom_site_occupancy
  Ba  Ba0  1  0.62499578  0.37499941  0.24999880  1
  Ba  Ba1  1  0.87499525  0.12499917  0.74999736  1
  La  La0  1  0.12392348  0.74999878  0.87392687  1
  La  La1  1  0.25000426  0.62392723  0.37392997  1
  La  La2  1  0.37607556  0.25000128  0.62607795  1
  La  La3  1  0.75000133  0.87608038  0.12608733  1
  Se  Se0  1  0.01436673  0.85702434  0.49683246  1
  Se  Se1  1  0.14295709  0.13978494  0.15731367  1
  Se  Se2  1  0.35704280  0.51436859  0.99683074  1
  Se  Se3  1  0.48564026  0.98245905  0.84264338  1
  Se  Se4  1  0.63979430  0.64297072  0.65735264  1
  Se  Se5  1  0.48247137  0.98565193  0.34265415  1
  Se  Se6  1  0.86020358  0.51753228  0.00317840  1
  Se  Se7  1  0.01752823  0.36019988  0.50317827  1
loop_
_geom_bond_atom_site_label_1
_geom_bond_atom_site_label_2
_geom_bond_distance
_geom_bond_site_symmetry_2
Ba0 Se2 3.219344 1_554
Ba0 Se7 3.219392 1_655
Ba0 Se4 3.219490 1_555
Ba0 Se3 3.219519 1_544
Ba0 Se5 3.378318 1_545
Ba0 Se6 3.378421 1_555
Ba0 Se1 3.378459 1_555
Ba0 Se0 3.378472 1_655
Ba1 Se1 3.219338 1_656
Ba1 Se6 3.219341 1_556
Ba1 Se0 3.219383 1_645
Ba1 Se5 3.219443 1_545
Ba1 Se3 3.378264 1_545
Ba1 Se7 3.378408 1_655
Ba1 Se4 3.378540 1_545
Ba1 Se2 3.378571 1_655
La0 Se6 3.029393 1_456
La0 Se3 3.029501 1_555
La0 Se1 3.136033 1_566
La0 Se7 3.136097 1_555
La0 Se5 3.252450 1_556
La0 Se2 3.252537 1_555
La0 Se0 3.355911 1_555
La0 Se4 3.355913 1_455
La1 Se7 3.029458 1_555
La1 Se5 3.029569 1_555
La1 Se6 3.136149 1_455
La1 Se4 3.136149 1_555
La1 Se3 3.252331 1_555
La1 Se0 3.252416 1_555
La1 Se2 3.355949 1_554
La1 Se1 3.356003 1_555
La2 Se4 3.029315 1_555
La2 Se0 3.029411 1_545
La2 Se2 3.136064 1_555
La2 Se5 3.136151 1_545
La2 Se7 3.252512 1_555
La2 Se1 3.252662 1_555
La2 Se3 3.355875 1_545
La2 Se6 3.355944 1_556
La3 Se2 3.029298 1_554
La3 Se1 3.029350 1_665
La3 Se0 3.136184 1_655
La3 Se3 3.136260 1_554
La3 Se4 3.252437 1_554
La3 Se6 3.252546 1_555
La3 Se5 3.355720 1_555
La3 Se7 3.355877 1_665
