# generated using pymatgen
data_K4Al3GaI16
_symmetry_space_group_name_H-M   'P 1'
_cell_length_a   8.08345529
_cell_length_b   8.32348178
_cell_length_c   16.37553544
_cell_angle_alpha   84.66401232
_cell_angle_beta   90.00905106
_cell_angle_gamma   90.01796201
_symmetry_Int_Tables_number   1
_chemical_formula_structural   K4Al3GaI16
_chemical_formula_sum   'K4 Al3 Ga1 I16'
_cell_volume   1097.01217079
_cell_formula_units_Z   1
loop_
 _symmetry_equiv_pos_site_id
 _symmetry_equiv_pos_as_xyz
  1  'x, y, z'
loop_
 _atom_site_type_symbol
 _atom_site_label
 _atom_site_symmetry_multiplicity
 _atom_site_fract_x
 _atom_site_fract_y
 _atom_site_fract_z
 _atom_site_occupancy
  K  K0  1  0.49581243  0.25683532  0.64082002  1
  K  K1  1  0.99784253  0.74242221  0.85954794  1
  K  K2  1  0.50433292  0.74351919  0.36014686  1
  K  K3  1  0.00415114  0.25666176  0.13950891  1
  Al  Al0  1  0.35901021  0.24844775  0.36070696  1
  Al  Al1  1  0.85919021  0.75221817  0.13884433  1
  Al  Al2  1  0.64026297  0.75278976  0.63990629  1
  Ga  Ga0  1  0.14135170  0.24710228  0.86079903  1
  I  I0  1  0.85731642  0.13967617  0.90974274  1
  I  I1  1  0.35806348  0.85848076  0.59065123  1
  I  I2  1  0.14260975  0.85773996  0.09106032  1
  I  I3  1  0.64169444  0.14195410  0.40853918  1
  I  I4  1  0.38970471  0.42170524  0.22437795  1
  I  I5  1  0.88931445  0.57878314  0.27519709  1
  I  I6  1  0.60690130  0.58171002  0.77670270  1
  I  I7  1  0.10636414  0.41950494  0.72323654  1
  I  I8  1  0.65767350  0.98128563  0.15953997  1
  I  I9  1  0.15769982  0.01906617  0.34001694  1
  I  I10  1  0.34443477  0.01664843  0.83989847  1
  I  I11  1  0.84238159  0.98175771  0.65977347  1
  I  I12  1  0.24413876  0.42492018  0.46709584  1
  I  I13  1  0.74299906  0.57651876  0.03235352  1
  I  I14  1  0.75719118  0.57533282  0.53431290  1
  I  I15  1  0.25956051  0.42491853  0.96722280  1
loop_
_geom_bond_atom_site_label_1
_geom_bond_atom_site_label_2
_geom_bond_distance
_geom_bond_site_symmetry_2
Al0 I3 2.548003 1_555
Al0 I4 2.554657 1_555
Al0 I9 2.554659 1_555
Al0 I12 2.555833 1_555
Al1 I2 2.550278 1_655
Al1 I8 2.554586 1_555
Al1 I5 2.555266 1_555
Al1 I13 2.556323 1_555
Al2 I1 2.548883 1_555
Al2 I11 2.553530 1_555
Al2 I6 2.554450 1_555
Al2 I14 2.557627 1_555
Ga0 I0 2.565043 1_455
Ga0 I7 2.571475 1_555
Ga0 I10 2.572100 1_555
Ga0 I15 2.572759 1_555
I0 K1 3.661600 1_545
I1 K0 3.662330 1_565
I2 K3 3.660581 1_565
I3 K2 3.653130 1_545
I4 K3 3.725976 1_555
I4 K2 3.752597 1_555
I5 K2 3.722703 1_555
I5 K3 3.754700 1_655
I6 K1 3.734966 1_555
I6 K0 3.766527 1_555
I7 K0 3.729485 1_555
I7 K1 3.754244 1_455
I8 K3 3.614114 1_665
I8 K2 3.877515 1_555
I9 K2 3.617062 1_545
I9 K3 3.876210 1_555
I10 K1 3.608657 1_445
I10 K0 3.861262 1_555
I11 K0 3.613649 1_565
I11 K1 3.877885 1_555
I12 K0 3.667265 1_555
I12 K2 3.695556 1_555
I13 K1 3.664899 1_554
I13 K3 3.709025 1_655
I14 K2 3.678198 1_555
I14 K0 3.697508 1_555
I15 K3 3.667238 1_556
I15 K1 3.701945 1_455
