# generated using pymatgen
data_Ba3ZrTc2O9
_symmetry_space_group_name_H-M   'P 1'
_cell_length_a   5.87415088
_cell_length_b   5.87415156
_cell_length_c   14.19504220
_cell_angle_alpha   90.00000000
_cell_angle_beta   90.00000000
_cell_angle_gamma   119.99999614
_symmetry_Int_Tables_number   1
_chemical_formula_structural   Ba3ZrTc2O9
_chemical_formula_sum   'Ba6 Zr2 Tc4 O18'
_cell_volume   424.18722116
_cell_formula_units_Z   2
loop_
 _symmetry_equiv_pos_site_id
 _symmetry_equiv_pos_as_xyz
  1  'x, y, z'
loop_
 _atom_site_type_symbol
 _atom_site_label
 _atom_site_symmetry_multiplicity
 _atom_site_fract_x
 _atom_site_fract_y
 _atom_site_fract_z
 _atom_site_occupancy
  Ba  Ba0  1  0.33333300  0.66666700  0.90601618  1
  Ba  Ba1  1  0.66666700  0.33333300  0.09398382  1
  Ba  Ba2  1  0.66666700  0.33333300  0.40601618  1
  Ba  Ba3  1  0.33333300  0.66666700  0.59398382  1
  Ba  Ba4  1  0.00000000  0.00000000  0.25000000  1
  Ba  Ba5  1  0.00000000  0.00000000  0.75000000  1
  Zr  Zr0  1  0.00000000  0.00000000  0.50000000  1
  Zr  Zr1  1  0.00000000  0.00000000  0.00000000  1
  Tc  Tc0  1  0.33333300  0.66666700  0.33568144  1
  Tc  Tc1  1  0.66666700  0.33333300  0.83568144  1
  Tc  Tc2  1  0.33333300  0.66666700  0.16431856  1
  Tc  Tc3  1  0.66666700  0.33333300  0.66431856  1
  O  O0  1  0.66080456  0.83040178  0.41583718  1
  O  O1  1  0.33919544  0.16959822  0.58416282  1
  O  O2  1  0.49255394  0.50744606  0.25000000  1
  O  O3  1  0.33919544  0.16959822  0.91583718  1
  O  O4  1  0.83040178  0.66080456  0.91583718  1
  O  O5  1  0.50744606  0.01489212  0.75000000  1
  O  O6  1  0.16959822  0.33919544  0.08416282  1
  O  O7  1  0.16959822  0.83040178  0.08416282  1
  O  O8  1  0.16959822  0.33919544  0.41583718  1
  O  O9  1  0.01489212  0.50744606  0.25000000  1
  O  O10  1  0.98510788  0.49255394  0.75000000  1
  O  O11  1  0.66080456  0.83040178  0.08416282  1
  O  O12  1  0.50744606  0.49255394  0.75000000  1
  O  O13  1  0.49255394  0.98510788  0.25000000  1
  O  O14  1  0.83040178  0.66080456  0.58416282  1
  O  O15  1  0.83040178  0.16959822  0.58416282  1
  O  O16  1  0.83040178  0.16959822  0.91583718  1
  O  O17  1  0.16959822  0.83040178  0.41583718  1
loop_
_geom_bond_atom_site_label_1
_geom_bond_atom_site_label_2
_geom_bond_distance
_geom_bond_site_symmetry_2
Ba0 O10 2.835990 1_455
Ba0 O5 2.835990 1_565
Ba0 O12 2.835993 1_555
Ba0 O4 2.940533 1_555
Ba0 O4 2.940533 1_455
Ba0 O3 2.940534 1_555
Ba0 O16 2.940534 1_455
Ba0 O16 2.940534 1_565
Ba0 O3 2.940534 1_565
Ba0 O7 3.028204 1_556
Ba0 O11 3.028210 1_556
Ba0 O6 3.028210 1_556
Ba1 O9 2.835990 1_655
Ba1 O13 2.835990 1_545
Ba1 O2 2.835993 1_555
Ba1 O6 2.940533 1_555
Ba1 O6 2.940533 1_655
Ba1 O11 2.940534 1_555
Ba1 O7 2.940534 1_655
Ba1 O7 2.940534 1_545
Ba1 O11 2.940534 1_545
Ba1 O16 3.028204 1_554
Ba1 O3 3.028210 1_554
Ba1 O4 3.028210 1_554
Ba2 O9 2.835990 1_655
Ba2 O13 2.835990 1_545
Ba2 O2 2.835993 1_555
Ba2 O8 2.940533 1_555
Ba2 O8 2.940533 1_655
Ba2 O0 2.940534 1_555
Ba2 O17 2.940534 1_655
Ba2 O17 2.940534 1_545
Ba2 O0 2.940534 1_545
Ba2 O15 3.028204 1_555
Ba2 O1 3.028210 1_555
Ba2 O14 3.028210 1_555
Ba3 O10 2.835990 1_455
Ba3 O5 2.835990 1_565
Ba3 O12 2.835993 1_555
Ba3 O14 2.940533 1_555
Ba3 O14 2.940533 1_455
Ba3 O1 2.940534 1_555
Ba3 O15 2.940534 1_455
Ba3 O15 2.940534 1_565
Ba3 O1 2.940534 1_565
Ba3 O17 3.028204 1_555
Ba3 O0 3.028210 1_555
Ba3 O8 3.028210 1_555
Ba4 O0 2.918754 1_445
Ba4 O11 2.918754 1_445
Ba4 O8 2.918754 1_555
Ba4 O6 2.918754 1_555
Ba4 O17 2.918757 1_545
Ba4 O7 2.918757 1_545
Ba4 O13 2.938052 1_545
Ba4 O13 2.938052 1_445
Ba4 O9 2.938053 1_545
Ba4 O2 2.938053 1_445
Ba4 O2 2.938053 1_555
Ba4 O9 2.938053 1_555
Ba5 O3 2.918754 1_555
Ba5 O1 2.918754 1_555
Ba5 O4 2.918754 1_445
Ba5 O14 2.918754 1_445
Ba5 O16 2.918757 1_455
Ba5 O15 2.918757 1_455
Ba5 O5 2.938052 1_455
Ba5 O5 2.938052 1_555
Ba5 O10 2.938053 1_455
Ba5 O12 2.938053 1_555
Ba5 O12 2.938053 1_445
Ba5 O10 2.938053 1_445
O0 Tc0 2.017387 1_555
O0 Zr0 2.098760 1_665
O1 Tc3 2.017387 1_555
O1 Zr0 2.098760 1_555
O2 Tc0 2.025724 1_555
O2 Tc2 2.025724 1_555
O3 Tc1 2.017387 1_555
O3 Zr1 2.098760 1_556
O4 Tc1 2.017387 1_555
O4 Zr1 2.098760 1_666
O5 Tc1 2.025720 1_555
O5 Tc3 2.025720 1_555
O6 Tc2 2.017387 1_555
O6 Zr1 2.098760 1_555
O7 Tc2 2.017378 1_555
O7 Zr1 2.098764 1_565
O8 Tc0 2.017387 1_555
O8 Zr0 2.098760 1_555
O9 Tc0 2.025720 1_555
O9 Tc2 2.025720 1_555
O10 Tc1 2.025720 1_555
O10 Tc3 2.025720 1_555
O11 Tc2 2.017387 1_555
O11 Zr1 2.098760 1_665
O12 Tc1 2.025724 1_555
O12 Tc3 2.025724 1_555
O13 Tc0 2.025720 1_555
O13 Tc2 2.025720 1_555
O14 Tc3 2.017387 1_555
O14 Zr0 2.098760 1_665
O15 Tc3 2.017378 1_555
O15 Zr0 2.098764 1_655
O16 Tc1 2.017378 1_555
O16 Zr1 2.098764 1_656
O17 Tc0 2.017378 1_555
O17 Zr0 2.098764 1_565
