# generated using pymatgen
data_Cs4Sr(SnS3)3
_symmetry_space_group_name_H-M   'P 1'
_cell_length_a   8.82231416
_cell_length_b   8.82231417
_cell_length_c   8.82231420
_cell_angle_alpha   108.11739687
_cell_angle_beta   108.11739515
_cell_angle_gamma   108.11740167
_symmetry_Int_Tables_number   1
_chemical_formula_structural   Cs4Sr(SnS3)3
_chemical_formula_sum   'Cs4 Sr1 Sn3 S9'
_cell_volume   553.50905763
_cell_formula_units_Z   1
loop_
 _symmetry_equiv_pos_site_id
 _symmetry_equiv_pos_as_xyz
  1  'x, y, z'
loop_
 _atom_site_type_symbol
 _atom_site_label
 _atom_site_symmetry_multiplicity
 _atom_site_fract_x
 _atom_site_fract_y
 _atom_site_fract_z
 _atom_site_occupancy
  Cs  Cs0  1  0.62457579  0.73852035  0.19064325  1
  Cs  Cs1  1  0.19064325  0.62457579  0.73852035  1
  Cs  Cs2  1  0.73852035  0.19064325  0.62457579  1
  Cs  Cs3  1  0.84718656  0.84718656  0.84718656  1
  Sr  Sr0  1  0.31806153  0.31806153  0.31806153  1
  Sn  Sn0  1  0.20054232  0.78598554  0.33096125  1
  Sn  Sn1  1  0.33096125  0.20054232  0.78598554  1
  Sn  Sn2  1  0.78598554  0.33096125  0.20054232  1
  S  S0  1  0.91667052  0.53739875  0.08992856  1
  S  S1  1  0.08992856  0.91667052  0.53739875  1
  S  S2  1  0.53739875  0.08992856  0.91667052  1
  S  S3  1  0.41846831  0.71263308  0.47907309  1
  S  S4  1  0.47907309  0.41846831  0.71263208  1
  S  S5  1  0.71263308  0.47907309  0.41846831  1
  S  S6  1  0.30130124  0.95076185  0.18755001  1
  S  S7  1  0.18755001  0.30130124  0.95076185  1
  S  S8  1  0.95076185  0.18755001  0.30130124  1
loop_
_geom_bond_atom_site_label_1
_geom_bond_atom_site_label_2
_geom_bond_distance
_geom_bond_site_symmetry_2
Cs0 S3 3.579727 1_555
Cs0 S5 3.588681 1_555
Cs0 S8 3.699341 1_565
Cs0 S0 3.723678 1_555
Cs0 S1 3.724167 1_655
Cs0 S4 3.791873 1_554
Cs0 S7 3.849918 1_554
Cs0 S6 3.865955 1_555
Cs1 S4 3.579729 1_555
Cs1 S3 3.588681 1_555
Cs1 S6 3.699341 1_556
Cs1 S1 3.723678 1_555
Cs1 S2 3.724167 1_565
Cs1 S5 3.791866 1_455
Cs1 S8 3.849918 1_455
Cs1 S7 3.865955 1_555
Cs2 S5 3.579727 1_555
Cs2 S4 3.588679 1_555
Cs2 S7 3.699341 1_655
Cs2 S2 3.723678 1_555
Cs2 S0 3.724167 1_556
Cs2 S3 3.791866 1_545
Cs2 S6 3.849918 1_545
Cs2 S8 3.865955 1_555
Cs3 S4 3.665021 1_555
Cs3 S5 3.665024 1_555
Cs3 S3 3.665024 1_555
Cs3 S7 3.799639 1_665
Cs3 S8 3.799639 1_566
Cs3 S6 3.799639 1_656
Cs3 S1 4.036975 1_655
Cs3 S0 4.036975 1_556
Cs3 S2 4.036975 1_565
S0 Sn0 2.444422 1_655
S0 Sn2 2.469363 1_555
S1 Sn1 2.444422 1_565
S1 Sn0 2.469363 1_555
S2 Sn2 2.444423 1_556
S2 Sn1 2.469363 1_555
S3 Sn0 2.357949 1_555
S3 Sr0 3.023975 1_555
S4 Sn1 2.357955 1_555
S4 Sr0 3.023967 1_555
S5 Sn2 2.357949 1_555
S5 Sr0 3.023975 1_555
S6 Sn0 2.354554 1_555
S6 Sr0 3.020542 1_565
S7 Sn1 2.354554 1_555
S7 Sr0 3.020542 1_556
S8 Sn2 2.354554 1_555
S8 Sr0 3.020542 1_655
