# generated using pymatgen
data_KPt4Pb
_symmetry_space_group_name_H-M   'P 1'
_cell_length_a   5.46243684
_cell_length_b   5.46243587
_cell_length_c   5.46243670
_cell_angle_alpha   60.00000089
_cell_angle_beta   60.00000672
_cell_angle_gamma   59.99999865
_symmetry_Int_Tables_number   1
_chemical_formula_structural   KPt4Pb
_chemical_formula_sum   'K1 Pt4 Pb1'
_cell_volume   115.25087191
_cell_formula_units_Z   1
loop_
 _symmetry_equiv_pos_site_id
 _symmetry_equiv_pos_as_xyz
  1  'x, y, z'
loop_
 _atom_site_type_symbol
 _atom_site_label
 _atom_site_symmetry_multiplicity
 _atom_site_fract_x
 _atom_site_fract_y
 _atom_site_fract_z
 _atom_site_occupancy
  K  K0  1  0.50000000  0.50000000  0.50000000  1
  Pt  Pt0  1  0.12472203  0.62583390  0.12472203  1
  Pt  Pt1  1  0.12472203  0.12472203  0.62583390  1
  Pt  Pt2  1  0.62583390  0.12472203  0.12472203  1
  Pt  Pt3  1  0.12472203  0.12472203  0.12472203  1
  Pb  Pb0  1  0.75000000  0.75000000  0.75000000  1
loop_
_geom_bond_atom_site_label_1
_geom_bond_atom_site_label_2
_geom_bond_distance
_geom_bond_site_symmetry_2
K0 Pt1 3.203286 1_565
K0 Pt3 3.203287 1_565
K0 Pt2 3.203287 1_565
K0 Pt2 3.203287 1_555
K0 Pt1 3.203287 1_555
K0 Pt0 3.203287 1_555
K0 Pt2 3.203287 1_556
K0 Pt1 3.203287 1_655
K0 Pt3 3.203287 1_655
K0 Pt0 3.203287 1_556
K0 Pt3 3.203287 1_556
K0 Pt0 3.203287 1_655
K0 Pb0 3.345045 1_545
K0 Pb0 3.345045 1_555
K0 Pb0 3.345046 1_554
K0 Pb0 3.345046 1_455
Pt0 Pt3 2.725144 1_565
Pt0 Pt2 2.725145 1_465
Pt0 Pt1 2.725145 1_564
Pt0 Pt3 2.737291 1_555
Pt0 Pt2 2.737292 1_555
Pt0 Pt1 2.737292 1_555
Pt1 Pt3 2.725145 1_556
Pt1 Pt2 2.725145 1_456
Pt1 Pt3 2.737292 1_555
Pt1 Pt2 2.737292 1_555
Pt2 Pt3 2.725145 1_655
Pt2 Pt3 2.737292 1_555
Pb0 Pt1 3.201992 1_655
Pb0 Pt3 3.201992 1_656
Pb0 Pt2 3.201992 1_556
Pb0 Pt2 3.201992 1_566
Pb0 Pt1 3.201992 1_665
Pb0 Pt0 3.201992 1_656
Pb0 Pt2 3.201992 1_565
Pb0 Pt1 3.201992 1_565
Pb0 Pt3 3.201992 1_566
Pb0 Pt0 3.201992 1_655
Pb0 Pt3 3.201992 1_665
Pb0 Pt0 3.201992 1_556
