# generated using pymatgen
data_Y4Fe(Si2Pt)5
_symmetry_space_group_name_H-M   'P 1'
_cell_length_a   8.09123215
_cell_length_b   8.09123151
_cell_length_c   5.91408009
_cell_angle_alpha   68.57707508
_cell_angle_beta   68.57708377
_cell_angle_gamma   88.77774295
_symmetry_Int_Tables_number   1
_chemical_formula_structural   Y4Fe(Si2Pt)5
_chemical_formula_sum   'Y4 Fe1 Si10 Pt5'
_cell_volume   332.71234446
_cell_formula_units_Z   1
loop_
 _symmetry_equiv_pos_site_id
 _symmetry_equiv_pos_as_xyz
  1  'x, y, z'
loop_
 _atom_site_type_symbol
 _atom_site_label
 _atom_site_symmetry_multiplicity
 _atom_site_fract_x
 _atom_site_fract_y
 _atom_site_fract_z
 _atom_site_occupancy
  Y  Y0  1  0.86077396  0.60077979  0.76966803  1
  Y  Y1  1  0.39922021  0.13922604  0.73033197  1
  Y  Y2  1  0.13927551  0.39915494  0.23057402  1
  Y  Y3  1  0.60084506  0.86072449  0.26942598  1
  Fe  Fe0  1  0.00012842  0.99987158  0.75000000  1
  Si  Si0  1  0.77606966  0.22393034  0.75000000  1
  Si  Si1  1  0.22617204  0.77382796  0.25000000  1
  Si  Si2  1  0.50021837  0.49978163  0.75000000  1
  Si  Si3  1  0.49987594  0.50012406  0.25000000  1
  Si  Si4  1  0.22373799  0.77626201  0.75000000  1
  Si  Si5  1  0.77384913  0.22615087  0.25000000  1
  Si  Si6  1  0.04274240  0.25313740  0.83664714  1
  Si  Si7  1  0.25303371  0.04265282  0.36703057  1
  Si  Si8  1  0.95734718  0.74696629  0.13296943  1
  Si  Si9  1  0.74686260  0.95725760  0.66335286  1
  Pt  Pt0  1  0.52294204  0.24672626  0.11449759  1
  Pt  Pt1  1  0.99978978  0.00021022  0.25000000  1
  Pt  Pt2  1  0.24681750  0.52297323  0.61576746  1
  Pt  Pt3  1  0.47702677  0.75318250  0.88423254  1
  Pt  Pt4  1  0.75327374  0.47705796  0.38550241  1
loop_
_geom_bond_atom_site_label_1
_geom_bond_atom_site_label_2
_geom_bond_distance
_geom_bond_site_symmetry_2
Fe0 Si6 2.346731 1_565
Fe0 Si9 2.346731 1_455
Fe0 Si8 2.347104 1_456
Fe0 Si7 2.347105 1_565
Fe0 Si4 2.531267 1_555
Fe0 Si0 2.536352 1_465
Fe0 Pt1 2.957043 1_465
Fe0 Pt1 2.957043 1_466
Fe0 Y0 3.390783 1_455
Fe0 Y1 3.390783 1_565
Fe0 Y2 3.394198 1_565
Fe0 Y3 3.394199 1_456
Si0 Si9 2.427361 1_545
Si0 Si6 2.427361 1_655
Si0 Y0 3.191740 1_555
Si0 Y1 3.191740 1_555
Si0 Y3 3.238015 1_546
Si0 Y2 3.238015 1_655
Si1 Si7 2.547006 1_565
Si1 Si8 2.547007 1_455
Si1 Y2 3.178412 1_555
Si1 Y3 3.178413 1_555
Si1 Y1 3.246920 1_564
Si1 Y0 3.246921 1_455
Si2 Y1 3.100200 1_555
Si2 Y0 3.100201 1_555
Si2 Y3 3.101205 1_555
Si2 Y2 3.101206 1_556
Si3 Y3 3.099796 1_555
Si3 Y2 3.099796 1_555
Si3 Y1 3.100289 1_555
Si3 Y0 3.100289 1_554
Si4 Si7 2.428027 1_565
Si4 Si8 2.428027 1_456
Si4 Y2 3.192203 1_556
Si4 Y3 3.192203 1_555
Si4 Y1 3.234533 1_565
Si4 Y0 3.234533 1_455
Si5 Si9 2.549978 1_545
Si5 Si6 2.549978 1_654
Si5 Y0 3.177082 1_554
Si5 Y1 3.177083 1_555
Si5 Y3 3.244380 1_545
Si5 Y2 3.244380 1_655
Si6 Y1 2.923936 1_555
Si6 Y0 3.110032 1_455
Si6 Y2 3.123191 1_555
Si6 Y2 3.288284 1_556
Si7 Y2 2.923682 1_555
Si7 Y3 3.110822 1_545
Si7 Y1 3.122257 1_555
Si7 Y1 3.290141 1_554
Si8 Y3 2.923683 1_555
Si8 Y2 3.110821 1_655
Si8 Y0 3.122257 1_554
Si8 Y0 3.290140 1_555
Si9 Y0 2.923936 1_555
Si9 Y1 3.110032 1_565
Si9 Y3 3.123191 1_556
Si9 Y3 3.288284 1_555
Pt0 Si7 2.386662 1_555
Pt0 Si5 2.422393 1_555
Pt0 Si2 2.433575 1_554
Pt0 Si0 2.434100 1_554
Pt0 Si3 2.440375 1_555
Pt0 Y3 3.039550 1_545
Pt0 Y1 3.172194 1_554
Pt0 Y1 3.175398 1_555
Pt0 Y2 3.244638 1_555
Pt0 Y0 3.439724 1_554
Pt1 Si8 2.456675 1_545
Pt1 Si7 2.456675 1_655
Pt1 Si6 2.457667 1_654
Pt1 Si9 2.457667 1_545
Pt1 Si5 2.557655 1_555
Pt1 Si1 2.562654 1_645
Pt1 Y2 3.390641 1_655
Pt1 Y3 3.390641 1_545
Pt1 Y0 3.395548 1_545
Pt1 Y1 3.395549 1_654
Pt2 Si6 2.386308 1_555
Pt2 Si1 2.422635 1_555
Pt2 Si4 2.434968 1_555
Pt2 Si2 2.435784 1_555
Pt2 Si3 2.438535 1_555
Pt2 Y0 3.039624 1_455
Pt2 Y2 3.169612 1_556
Pt2 Y2 3.178496 1_555
Pt2 Y1 3.245119 1_555
Pt2 Y3 3.439201 1_555
Pt3 Si9 2.386308 1_555
Pt3 Si1 2.422635 1_556
Pt3 Si4 2.434968 1_555
Pt3 Si2 2.435784 1_555
Pt3 Si3 2.438534 1_556
Pt3 Y1 3.039623 1_565
Pt3 Y3 3.169612 1_555
Pt3 Y3 3.178496 1_556
Pt3 Y0 3.245119 1_555
Pt3 Y2 3.439201 1_556
Pt4 Si8 2.386661 1_555
Pt4 Si5 2.422393 1_555
Pt4 Si2 2.433575 1_555
Pt4 Si0 2.434100 1_555
Pt4 Si3 2.440375 1_555
Pt4 Y2 3.039550 1_655
Pt4 Y0 3.172194 1_555
Pt4 Y0 3.175398 1_554
Pt4 Y3 3.244638 1_555
Pt4 Y1 3.439724 1_555
