# generated using pymatgen
data_Ca6ZnSi3Pd4
_symmetry_space_group_name_H-M   'P 1'
_cell_length_a   5.67625107
_cell_length_b   8.02372776
_cell_length_c   13.40952318
_cell_angle_alpha   90.00000000
_cell_angle_beta   90.00000000
_cell_angle_gamma   90.00000000
_symmetry_Int_Tables_number   1
_chemical_formula_structural   Ca6ZnSi3Pd4
_chemical_formula_sum   'Ca12 Zn2 Si6 Pd8'
_cell_volume   610.73262006
_cell_formula_units_Z   2
loop_
 _symmetry_equiv_pos_site_id
 _symmetry_equiv_pos_as_xyz
  1  'x, y, z'
loop_
 _atom_site_type_symbol
 _atom_site_label
 _atom_site_symmetry_multiplicity
 _atom_site_fract_x
 _atom_site_fract_y
 _atom_site_fract_z
 _atom_site_occupancy
  Ca  Ca0  1  0.13502442  0.61482547  0.10386842  1
  Ca  Ca1  1  0.13502442  0.88517453  0.89613158  1
  Ca  Ca2  1  0.86497558  0.11482547  0.39613158  1
  Ca  Ca3  1  0.86497558  0.38517453  0.60386842  1
  Ca  Ca4  1  0.86110944  0.39467052  0.89551104  1
  Ca  Ca5  1  0.86110944  0.10532948  0.10448896  1
  Ca  Ca6  1  0.13889056  0.89467052  0.60448896  1
  Ca  Ca7  1  0.13889056  0.60532948  0.39551104  1
  Ca  Ca8  1  0.34879716  0.25690386  0.24881498  1
  Ca  Ca9  1  0.34879716  0.24309614  0.75118502  1
  Ca  Ca10  1  0.65120284  0.75690386  0.25118502  1
  Ca  Ca11  1  0.65120284  0.74309614  0.74881498  1
  Zn  Zn0  1  0.37388096  0.25000000  0.00000000  1
  Zn  Zn1  1  0.62611904  0.75000000  0.50000000  1
  Si  Si0  1  0.62749701  0.75000000  0.00000000  1
  Si  Si1  1  0.37250299  0.25000000  0.50000000  1
  Si  Si2  1  0.83615175  0.40595770  0.24771165  1
  Si  Si3  1  0.83615175  0.09404230  0.75228835  1
  Si  Si4  1  0.16384825  0.90595770  0.25228835  1
  Si  Si5  1  0.16384825  0.59404230  0.74771165  1
  Pd  Pd0  1  0.63167625  0.47808943  0.09024983  1
  Pd  Pd1  1  0.63167625  0.02191057  0.90975017  1
  Pd  Pd2  1  0.36832375  0.97808943  0.40975017  1
  Pd  Pd3  1  0.36832375  0.52191057  0.59024983  1
  Pd  Pd4  1  0.37813993  0.54142099  0.90822267  1
  Pd  Pd5  1  0.37813993  0.95857901  0.09177733  1
  Pd  Pd6  1  0.62186007  0.04142099  0.59177733  1
  Pd  Pd7  1  0.62186007  0.45857901  0.40822267  1
loop_
_geom_bond_atom_site_label_1
_geom_bond_atom_site_label_2
_geom_bond_distance
_geom_bond_site_symmetry_2
Ca0 Pd4 3.022266 1_554
Ca0 Pd0 3.030592 1_555
Ca0 Pd0 3.065982 1_455
Ca0 Si2 3.067116 1_455
Ca0 Si4 3.073201 1_555
Ca0 Pd5 3.088402 1_555
Ca1 Pd5 3.022266 1_556
Ca1 Pd1 3.030592 1_565
Ca1 Pd1 3.065982 1_465
Ca1 Si3 3.067116 1_465
Ca1 Si5 3.073201 1_555
Ca1 Pd4 3.088402 1_555
Ca2 Pd6 3.022266 1_555
Ca2 Pd2 3.030592 1_545
Ca2 Pd2 3.065982 1_645
Ca2 Si4 3.067116 1_645
Ca2 Si2 3.073201 1_555
Ca2 Pd7 3.088402 1_555
Ca3 Pd7 3.022266 1_555
Ca3 Pd3 3.030592 1_555
Ca3 Pd3 3.065982 1_655
Ca3 Si5 3.067116 1_655
Ca3 Si3 3.073201 1_555
Ca3 Pd6 3.088402 1_555
Ca4 Pd4 2.988496 1_555
Ca4 Pd0 2.993863 1_556
Ca4 Si5 3.072464 1_655
Ca4 Si3 3.086598 1_555
Ca4 Pd4 3.166788 1_655
Ca4 Pd1 3.267740 1_555
Ca4 Zn0 3.310495 1_556
Ca4 Zn0 3.432546 1_656
Ca4 Si0 3.442410 1_556
Ca5 Pd5 2.988496 1_545
Ca5 Pd1 2.993863 1_554
Ca5 Si4 3.072464 1_645
Ca5 Si2 3.086598 1_555
Ca5 Pd5 3.166788 1_645
Ca5 Pd0 3.267740 1_555
Ca5 Zn0 3.310495 1_555
Ca5 Zn0 3.432546 1_655
Ca5 Si0 3.442410 1_545
Ca6 Pd6 2.988496 1_565
Ca6 Pd2 2.993863 1_555
Ca6 Si3 3.072464 1_465
Ca6 Si5 3.086598 1_555
Ca6 Pd6 3.166788 1_465
Ca6 Pd3 3.267740 1_555
Ca6 Zn1 3.310495 1_555
Ca6 Zn1 3.432546 1_455
Ca6 Si1 3.442410 1_565
Ca7 Pd7 2.988496 1_555
Ca7 Pd3 2.993863 1_555
Ca7 Si2 3.072464 1_455
Ca7 Si4 3.086598 1_555
Ca7 Pd7 3.166788 1_455
Ca7 Pd2 3.267740 1_555
Ca7 Zn1 3.310495 1_555
Ca7 Zn1 3.432546 1_455
Ca7 Si1 3.442410 1_555
Ca8 Si4 3.005588 1_545
Ca8 Si2 3.013840 1_555
Ca8 Pd7 3.096805 1_555
Ca8 Pd2 3.110351 1_545
Ca8 Si2 3.146124 1_455
Ca8 Pd5 3.192464 1_545
Ca8 Pd0 3.201407 1_555
Ca8 Zn0 3.339986 1_555
Ca8 Si1 3.371413 1_555
Ca9 Si5 3.005588 1_555
Ca9 Si3 3.013840 1_555
Ca9 Pd6 3.096805 1_555
Ca9 Pd3 3.110351 1_555
Ca9 Si3 3.146124 1_455
Ca9 Pd4 3.192464 1_555
Ca9 Pd1 3.201407 1_555
Ca9 Zn0 3.339986 1_556
Ca9 Si1 3.371413 1_555
Ca10 Si2 3.005588 1_555
Ca10 Si4 3.013840 1_555
Ca10 Pd5 3.096805 1_555
Ca10 Pd0 3.110351 1_555
Ca10 Si4 3.146124 1_655
Ca10 Pd7 3.192464 1_555
Ca10 Pd2 3.201407 1_555
Ca10 Zn1 3.339986 1_555
Ca10 Si0 3.371413 1_555
Ca11 Si3 3.005588 1_565
Ca11 Si5 3.013840 1_555
Ca11 Pd4 3.096805 1_555
Ca11 Pd1 3.110351 1_565
Ca11 Si5 3.146124 1_655
Ca11 Pd6 3.192464 1_565
Ca11 Pd3 3.201407 1_555
Ca11 Zn1 3.339986 1_555
Ca11 Si0 3.371413 1_556
Pd0 Si2 2.477997 1_555
Pd0 Si0 2.495023 1_555
Pd0 Zn0 2.637280 1_555
Pd1 Si3 2.477997 1_555
Pd1 Si0 2.495023 1_546
Pd1 Zn0 2.637280 1_556
Pd2 Si4 2.477997 1_555
Pd2 Si1 2.495023 1_565
Pd2 Zn1 2.637280 1_555
Pd3 Si5 2.477997 1_555
Pd3 Si1 2.495023 1_555
Pd3 Zn1 2.637280 1_555
Pd4 Si5 2.508098 1_555
Pd4 Si0 2.513736 1_556
Pd4 Zn0 2.642489 1_556
Pd5 Si4 2.508098 1_555
Pd5 Si0 2.513736 1_555
Pd5 Zn0 2.642489 1_565
Pd6 Si3 2.508098 1_555
Pd6 Si1 2.513736 1_555
Pd6 Zn1 2.642489 1_545
Pd7 Si2 2.508098 1_555
Pd7 Si1 2.513736 1_555
Pd7 Zn1 2.642489 1_555
