# generated using pymatgen
data_Y3Sc(Si5Os3)2
_symmetry_space_group_name_H-M   'P 1'
_cell_length_a   8.07317991
_cell_length_b   8.06084613
_cell_length_c   5.76315726
_cell_angle_alpha   70.70879495
_cell_angle_beta   70.57361127
_cell_angle_gamma   94.11090557
_symmetry_Int_Tables_number   1
_chemical_formula_structural   Y3Sc(Si5Os3)2
_chemical_formula_sum   'Y3 Sc1 Si10 Os6'
_cell_volume   326.81711587
_cell_formula_units_Z   1
loop_
 _symmetry_equiv_pos_site_id
 _symmetry_equiv_pos_as_xyz
  1  'x, y, z'
loop_
 _atom_site_type_symbol
 _atom_site_label
 _atom_site_symmetry_multiplicity
 _atom_site_fract_x
 _atom_site_fract_y
 _atom_site_fract_z
 _atom_site_occupancy
  Y  Y0  1  0.86998051  0.60112945  0.75235792  1
  Y  Y1  1  0.39837250  0.13230401  0.74583533  1
  Y  Y2  1  0.13239602  0.39750499  0.24687094  1
  Sc  Sc0  1  0.59911735  0.86968583  0.25209459  1
  Si  Si0  1  0.06665113  0.26255646  0.83412460  1
  Si  Si1  1  0.73845100  0.93287515  0.66694783  1
  Si  Si2  1  0.92622510  0.74040324  0.16771020  1
  Si  Si3  1  0.26151851  0.06425344  0.33414505  1
  Si  Si4  1  0.20647220  0.79264379  0.75186386  1
  Si  Si5  1  0.79046829  0.20372882  0.25095586  1
  Si  Si6  1  0.51421706  0.48874608  0.74998171  1
  Si  Si7  1  0.49001619  0.51654723  0.24697580  1
  Si  Si8  1  0.77355133  0.22366832  0.75299876  1
  Si  Si9  1  0.23085934  0.77450996  0.24913134  1
  Os  Os0  1  0.25841274  0.54447518  0.63058702  1
  Os  Os1  1  0.45814181  0.74621427  0.86546476  1
  Os  Os2  1  0.74445983  0.45565680  0.36961674  1
  Os  Os3  1  0.54284082  0.25378194  0.13129825  1
  Os  Os4  1  0.00225196  0.99686824  0.75075782  1
  Os  Os5  1  0.99560031  0.00244580  0.25028060  1
loop_
_geom_bond_atom_site_label_1
_geom_bond_atom_site_label_2
_geom_bond_distance
_geom_bond_site_symmetry_2
Sc0 Si2 2.858586 1_555
Sc0 Si7 2.931394 1_555
Sc0 Si5 3.003688 1_565
Sc0 Si9 3.023756 1_555
Sc0 Si1 3.026004 1_554
Sc0 Si8 3.115284 1_564
Sc0 Si1 3.122895 1_555
Sc0 Si3 3.218284 1_565
Sc0 Si6 3.271179 1_555
Sc0 Si4 3.345501 1_555
Si0 Si5 2.549504 1_456
Si0 Si8 2.577283 1_455
Si0 Y1 2.895328 1_555
Si0 Y2 3.034659 1_555
Si0 Y2 3.096791 1_556
Si0 Y0 3.234301 1_455
Si1 Si5 2.535975 1_565
Si1 Si8 2.566533 1_565
Si1 Y0 2.899310 1_555
Si1 Y1 3.257947 1_565
Si2 Si4 2.574791 1_654
Si2 Si9 2.664623 1_655
Si2 Y0 3.037981 1_555
Si2 Y0 3.101956 1_554
Si2 Y2 3.309086 1_655
Si3 Si4 2.540223 1_545
Si3 Si9 2.551492 1_545
Si3 Y2 2.900569 1_555
Si3 Y1 3.034739 1_554
Si3 Y1 3.109305 1_555
Si4 Y0 3.025490 1_455
Si4 Y1 3.031652 1_565
Si4 Y2 3.351043 1_556
Si5 Y2 3.061816 1_655
Si5 Y1 3.336798 1_555
Si5 Y0 3.365543 1_554
Si6 Y0 2.954889 1_555
Si6 Y1 2.967426 1_555
Si6 Y2 3.264174 1_556
Si7 Y2 2.976686 1_555
Si7 Y0 3.255715 1_554
Si7 Y1 3.283173 1_555
Si8 Y1 3.082482 1_555
Si8 Y0 3.084618 1_555
Si8 Y2 3.156070 1_655
Si9 Y2 3.090977 1_555
Si9 Y1 3.140761 1_564
Si9 Y0 3.157522 1_455
Os0 Si0 2.337355 1_555
Os0 Si4 2.348466 1_555
Os0 Si6 2.411255 1_555
Os0 Si9 2.451879 1_555
Os0 Si7 2.464532 1_555
Os0 Y0 3.080262 1_455
Os0 Y2 3.113964 1_556
Os0 Y2 3.222373 1_555
Os0 Sc0 3.223779 1_555
Os1 Si1 2.312179 1_555
Os1 Si4 2.351334 1_555
Os1 Si6 2.408772 1_555
Os1 Si9 2.449976 1_556
Os1 Si7 2.466377 1_556
Os1 Y1 3.068041 1_565
Os1 Sc0 3.101371 1_555
Os1 Sc0 3.200101 1_556
Os1 Y2 3.265142 1_556
Os2 Si2 2.322123 1_555
Os2 Si5 2.363551 1_555
Os2 Si7 2.416858 1_555
Os2 Si6 2.465472 1_555
Os2 Si8 2.472268 1_555
Os2 Y2 3.079718 1_655
Os2 Y0 3.119649 1_554
Os2 Y0 3.208278 1_555
Os2 Y1 3.239371 1_555
Os3 Si3 2.327057 1_555
Os3 Si5 2.341743 1_555
Os3 Si7 2.446653 1_555
Os3 Si8 2.448401 1_554
Os3 Si6 2.473955 1_554
Os3 Sc0 3.043853 1_545
Os3 Y1 3.108001 1_555
Os3 Y1 3.201749 1_554
Os3 Y0 3.262969 1_554
Os4 Si1 2.392999 1_455
Os4 Si0 2.402978 1_565
Os4 Si4 2.411953 1_555
Os4 Si2 2.445286 1_456
Os4 Si3 2.464401 1_565
Os4 Si8 2.689825 1_465
Os4 Y0 3.286646 1_455
Os4 Y1 3.292142 1_565
Os4 Y2 3.354668 1_565
Os4 Sc0 3.361646 1_456
Os5 Si2 2.381954 1_545
Os5 Si5 2.400052 1_555
Os5 Si3 2.405527 1_655
Os5 Si1 2.453132 1_545
Os5 Si0 2.463170 1_654
Os5 Si9 2.735547 1_645
Os5 Y2 3.286507 1_655
Os5 Sc0 3.296998 1_545
Os5 Y0 3.355416 1_545
Os5 Y1 3.366577 1_654
