# generated using pymatgen
data_Nb3AlZnN
_symmetry_space_group_name_H-M   'P 1'
_cell_length_a   7.03617528
_cell_length_b   7.03617528
_cell_length_c   7.03617528
_cell_angle_alpha   90.00000000
_cell_angle_beta   90.00000000
_cell_angle_gamma   90.00000000
_symmetry_Int_Tables_number   1
_chemical_formula_structural   Nb3AlZnN
_chemical_formula_sum   'Nb12 Al4 Zn4 N4'
_cell_volume   348.34529571
_cell_formula_units_Z   4
loop_
 _symmetry_equiv_pos_site_id
 _symmetry_equiv_pos_as_xyz
  1  'x, y, z'
loop_
 _atom_site_type_symbol
 _atom_site_label
 _atom_site_symmetry_multiplicity
 _atom_site_fract_x
 _atom_site_fract_y
 _atom_site_fract_z
 _atom_site_occupancy
  Nb  Nb0  1  0.79306853  0.95603770  0.37381854  1
  Nb  Nb1  1  0.70693147  0.04396230  0.87381854  1
  Nb  Nb2  1  0.20693147  0.45603770  0.12618146  1
  Nb  Nb3  1  0.29306853  0.54396230  0.62618146  1
  Nb  Nb4  1  0.95603770  0.37381854  0.79306853  1
  Nb  Nb5  1  0.04396230  0.87381854  0.70693147  1
  Nb  Nb6  1  0.45603770  0.12618146  0.20693147  1
  Nb  Nb7  1  0.54396230  0.62618146  0.29306853  1
  Nb  Nb8  1  0.37381854  0.79306853  0.95603770  1
  Nb  Nb9  1  0.87381854  0.70693147  0.04396230  1
  Nb  Nb10  1  0.12618146  0.20693147  0.45603770  1
  Nb  Nb11  1  0.62618146  0.29306853  0.54396230  1
  Al  Al0  1  0.57344927  0.42655073  0.92655073  1
  Al  Al1  1  0.42655073  0.92655073  0.57344927  1
  Al  Al2  1  0.92655073  0.57344927  0.42655073  1
  Al  Al3  1  0.07344927  0.07344927  0.07344927  1
  Zn  Zn0  1  0.17913209  0.82086791  0.32086791  1
  Zn  Zn1  1  0.32086791  0.17913209  0.82086791  1
  Zn  Zn2  1  0.82086791  0.32086791  0.17913209  1
  Zn  Zn3  1  0.67913209  0.67913209  0.67913209  1
  N  N0  1  0.87669313  0.12330687  0.62330687  1
  N  N1  1  0.62330687  0.87669313  0.12330687  1
  N  N2  1  0.12330687  0.62330687  0.87669313  1
  N  N3  1  0.37669313  0.37669313  0.37669313  1
loop_
_geom_bond_atom_site_label_1
_geom_bond_atom_site_label_2
_geom_bond_distance
_geom_bond_site_symmetry_2
Nb0 Zn0 2.902111 1_655
Nb0 Zn2 2.916210 1_565
Nb0 Zn3 3.008939 1_555
Nb1 Zn1 2.902111 1_555
Nb1 Zn3 2.916210 1_545
Nb1 Zn2 3.008939 1_556
Nb2 Zn2 2.902111 1_455
Nb2 Zn0 2.916210 1_555
Nb2 Zn1 3.008939 1_554
Nb3 Zn3 2.902111 1_555
Nb3 Zn1 2.916210 1_555
Nb3 Zn0 3.008939 1_555
Nb4 Zn2 2.902111 1_556
Nb4 Zn1 2.916210 1_655
Nb4 Zn3 3.008939 1_555
Nb5 Zn0 2.902111 1_555
Nb5 Zn3 2.916210 1_455
Nb5 Zn1 3.008939 1_565
Nb6 Zn1 2.902111 1_554
Nb6 Zn2 2.916210 1_555
Nb6 Zn0 3.008939 1_545
Nb7 Zn3 2.902111 1_555
Nb7 Zn0 2.916210 1_555
Nb7 Zn2 3.008939 1_555
Nb8 Zn1 2.902111 1_565
Nb8 Zn0 2.916210 1_556
Nb8 Zn3 3.008939 1_555
Nb9 Zn2 2.902111 1_555
Nb9 Zn3 2.916210 1_554
Nb9 Zn0 3.008939 1_655
Nb10 Zn0 2.902111 1_545
Nb10 Zn1 2.916210 1_555
Nb10 Zn2 3.008939 1_455
Nb11 Zn3 2.902111 1_555
Nb11 Zn2 2.916210 1_555
Nb11 Zn1 3.008939 1_555
Al0 Zn1 2.596551 1_555
Al0 Zn3 2.596551 1_555
Al0 Zn2 2.596551 1_556
Al0 Nb11 2.875137 1_555
Al0 Nb4 2.875137 1_555
Al0 Nb1 2.875137 1_555
Al0 Nb7 2.943924 1_556
Al0 Nb2 2.943924 1_556
Al0 Nb8 2.943924 1_555
Al0 Nb6 3.006848 1_556
Al0 Nb9 3.006848 1_556
Al0 Nb3 3.006848 1_555
Al1 Zn0 2.596551 1_555
Al1 Zn3 2.596551 1_555
Al1 Zn1 2.596551 1_565
Al1 Nb5 2.875137 1_555
Al1 Nb8 2.875137 1_555
Al1 Nb3 2.875137 1_555
Al1 Nb6 2.943924 1_565
Al1 Nb11 2.943924 1_565
Al1 Nb0 2.943924 1_555
Al1 Nb10 3.006848 1_565
Al1 Nb1 3.006848 1_565
Al1 Nb7 3.006848 1_555
Al2 Zn2 2.596551 1_555
Al2 Zn0 2.596551 1_655
Al2 Zn3 2.596551 1_555
Al2 Nb9 2.875137 1_555
Al2 Nb0 2.875137 1_555
Al2 Nb7 2.875137 1_555
Al2 Nb10 2.943924 1_655
Al2 Nb3 2.943924 1_655
Al2 Nb4 2.943924 1_555
Al2 Nb2 3.006848 1_655
Al2 Nb5 3.006848 1_655
Al2 Nb11 3.006848 1_555
Al3 Zn0 2.596551 1_545
Al3 Zn1 2.596551 1_554
Al3 Zn2 2.596551 1_455
Al3 Nb6 2.875137 1_555
Al3 Nb10 2.875137 1_555
Al3 Nb2 2.875137 1_555
Al3 Nb9 2.943924 1_445
Al3 Nb5 2.943924 1_544
Al3 Nb1 2.943924 1_454
Al3 Nb0 3.006848 1_445
Al3 Nb8 3.006848 1_544
Al3 Nb4 3.006848 1_454
N0 Nb10 2.193848 1_655
N0 Nb5 2.193848 1_645
N0 Nb0 2.193848 1_545
N0 Nb4 2.201217 1_555
N0 Nb1 2.201217 1_555
N0 Nb11 2.201217 1_555
N1 Nb6 2.193848 1_565
N1 Nb1 2.193848 1_564
N1 Nb8 2.193848 1_554
N1 Nb0 2.201217 1_555
N1 Nb9 2.201217 1_555
N1 Nb7 2.201217 1_555
N2 Nb2 2.193848 1_556
N2 Nb9 2.193848 1_456
N2 Nb4 2.193848 1_455
N2 Nb8 2.201217 1_555
N2 Nb5 2.201217 1_555
N2 Nb3 2.201217 1_555
N3 Nb3 2.193848 1_555
N3 Nb7 2.193848 1_555
N3 Nb11 2.193848 1_555
N3 Nb6 2.201217 1_555
N3 Nb10 2.201217 1_555
N3 Nb2 2.201217 1_555
