# generated using pymatgen
data_SrNiPd3O8
_symmetry_space_group_name_H-M   'P 1'
_cell_length_a   6.05551366
_cell_length_b   6.85240307
_cell_length_c   10.48574223
_cell_angle_alpha   104.79135497
_cell_angle_beta   89.99770552
_cell_angle_gamma   63.80087695
_symmetry_Int_Tables_number   1
_chemical_formula_structural   SrNiPd3O8
_chemical_formula_sum   'Sr2 Ni2 Pd6 O16'
_cell_volume   374.26472077
_cell_formula_units_Z   2
loop_
 _symmetry_equiv_pos_site_id
 _symmetry_equiv_pos_as_xyz
  1  'x, y, z'
loop_
 _atom_site_type_symbol
 _atom_site_label
 _atom_site_symmetry_multiplicity
 _atom_site_fract_x
 _atom_site_fract_y
 _atom_site_fract_z
 _atom_site_occupancy
  Sr  Sr0  1  0.75000727  0.49998777  0.74999951  1
  Sr  Sr1  1  0.25000293  0.49999771  0.24999261  1
  Ni  Ni0  1  0.50002214  0.99996547  0.50000269  1
  Ni  Ni1  1  0.00002084  0.99996676  0.00000329  1
  Pd  Pd0  1  0.24998876  0.99999158  0.74999511  1
  Pd  Pd1  1  0.74999668  0.99998578  0.24999153  1
  Pd  Pd2  1  0.00001232  0.00000118  0.50000796  1
  Pd  Pd3  1  0.50001107  0.00000215  0.00000785  1
  Pd  Pd4  1  0.74998805  0.00000067  0.74999511  1
  Pd  Pd5  1  0.24998800  0.99997772  0.24998972  1
  O  O0  1  0.08533580  0.82933414  0.63820275  1
  O  O1  1  0.58533108  0.82934260  0.13820434  1
  O  O2  1  0.41465561  0.17069141  0.86179931  1
  O  O3  1  0.91465159  0.17069897  0.36180114  1
  O  O4  1  0.83152828  0.82433854  0.88529489  1
  O  O5  1  0.33152626  0.82434708  0.38529195  1
  O  O6  1  0.91214879  0.17568097  0.85844862  1
  O  O7  1  0.41214374  0.17569411  0.35844962  1
  O  O8  1  0.66845849  0.17566247  0.61470125  1
  O  O9  1  0.16845443  0.17567244  0.11469919  1
  O  O10  1  0.15594616  0.17561002  0.61470237  1
  O  O11  1  0.65594159  0.17561870  0.11469892  1
  O  O12  1  0.58785576  0.82431654  0.64156146  1
  O  O13  1  0.08785028  0.82432991  0.14156228  1
  O  O14  1  0.34407041  0.82438962  0.88530024  1
  O  O15  1  0.84406669  0.82439668  0.38529628  1
loop_
_geom_bond_atom_site_label_1
_geom_bond_atom_site_label_2
_geom_bond_distance
_geom_bond_site_symmetry_2
Ni0 O5 2.069120 1_555
Ni0 O8 2.069145 1_565
Ni0 O12 2.069277 1_555
Ni0 O15 2.069367 1_555
Ni0 O10 2.069473 1_565
Ni0 O7 2.069581 1_565
Ni1 O4 2.069138 1_454
Ni1 O9 2.069159 1_565
Ni1 O13 2.069225 1_555
Ni1 O14 2.069374 1_554
Ni1 O11 2.069469 1_465
Ni1 O6 2.069531 1_464
O0 Pd0 2.016298 1_555
O0 Pd2 2.016500 1_565
O0 Pd4 2.017031 1_465
O1 Pd1 2.016268 1_555
O1 Pd3 2.016482 1_565
O1 Pd5 2.016981 1_555
O2 Pd0 2.016604 1_545
O2 Pd3 2.016724 1_556
O2 Pd4 2.017013 1_555
O3 Pd1 2.016634 1_545
O3 Pd2 2.016747 1_655
O3 Pd5 2.017061 1_645
O4 Pd3 2.013126 1_566
O4 Pd4 2.013131 1_565
O4 Sr0 2.560286 1_555
O5 Pd5 2.013009 1_555
O5 Pd2 2.013125 1_565
O5 Sr1 2.560300 1_555
O6 Pd4 2.012858 1_555
O6 Pd0 2.013438 1_645
O6 Sr0 2.561157 1_555
O7 Pd5 2.013028 1_545
O7 Pd1 2.013518 1_545
O7 Sr1 2.561194 1_555
O8 Pd4 2.013077 1_555
O8 Pd2 2.013197 1_655
O8 Sr0 2.560251 1_555
O9 Pd5 2.013198 1_545
O9 Pd3 2.013201 1_555
O9 Sr1 2.560233 1_555
O10 Pd2 2.012584 1_555
O10 Pd0 2.012882 1_545
O10 Sr0 2.561442 1_455
O11 Pd3 2.012588 1_555
O11 Pd1 2.012947 1_545
O11 Sr1 2.561432 1_555
O12 Pd4 2.012660 1_565
O12 Pd0 2.013475 1_555
O12 Sr0 2.561202 1_555
O13 Pd5 2.012491 1_555
O13 Pd1 2.013395 1_455
O13 Sr1 2.561167 1_555
O14 Pd3 2.012692 1_566
O14 Pd0 2.012924 1_555
O14 Sr0 2.561498 1_555
O15 Pd2 2.012698 1_665
O15 Pd1 2.012862 1_555
O15 Sr1 2.561500 1_655
