# generated using pymatgen
data_CrInF6
_symmetry_space_group_name_H-M   'P 1'
_cell_length_a   5.49450609
_cell_length_b   5.49449915
_cell_length_c   5.49450796
_cell_angle_alpha   54.90309564
_cell_angle_beta   54.90319592
_cell_angle_gamma   54.90303448
_symmetry_Int_Tables_number   1
_chemical_formula_structural   CrInF6
_chemical_formula_sum   'Cr1 In1 F6'
_cell_volume   103.37745202
_cell_formula_units_Z   1
loop_
 _symmetry_equiv_pos_site_id
 _symmetry_equiv_pos_as_xyz
  1  'x, y, z'
loop_
 _atom_site_type_symbol
 _atom_site_label
 _atom_site_symmetry_multiplicity
 _atom_site_fract_x
 _atom_site_fract_y
 _atom_site_fract_z
 _atom_site_occupancy
  Cr  Cr0  1  0.50000000  0.50000000  0.50000000  1
  In  In0  1  0.00000000  0.00000000  0.00000000  1
  F  F0  1  0.87774526  0.59721250  0.26455051  1
  F  F1  1  0.59721250  0.26455052  0.87774526  1
  F  F2  1  0.26455252  0.87774426  0.59721150  1
  F  F3  1  0.73544748  0.12225574  0.40278850  1
  F  F4  1  0.40278750  0.73544948  0.12225474  1
  F  F5  1  0.12225474  0.40278750  0.73544949  1
loop_
_geom_bond_atom_site_label_1
_geom_bond_atom_site_label_2
_geom_bond_distance
_geom_bond_site_symmetry_2
Cr0 F2 1.912924 1_555
Cr0 F3 1.912924 1_555
Cr0 F1 1.912932 1_555
Cr0 F4 1.912932 1_555
Cr0 F0 1.912935 1_555
Cr0 F5 1.912935 1_555
F0 In0 2.085537 1_665
F1 In0 2.085536 1_656
F2 In0 2.085547 1_566
F3 In0 2.085547 1_655
F4 In0 2.085536 1_565
F5 In0 2.085537 1_556
