# generated using pymatgen
data_BaMg2(H6Ir)2
_symmetry_space_group_name_H-M   'P 1'
_cell_length_a   4.81276889
_cell_length_b   4.81277071
_cell_length_c   8.27464933
_cell_angle_alpha   90.00000000
_cell_angle_beta   90.00000000
_cell_angle_gamma   120.00000108
_symmetry_Int_Tables_number   1
_chemical_formula_structural   BaMg2(H6Ir)2
_chemical_formula_sum   'Ba1 Mg2 H12 Ir2'
_cell_volume   165.98559640
_cell_formula_units_Z   1
loop_
 _symmetry_equiv_pos_site_id
 _symmetry_equiv_pos_as_xyz
  1  'x, y, z'
loop_
 _atom_site_type_symbol
 _atom_site_label
 _atom_site_symmetry_multiplicity
 _atom_site_fract_x
 _atom_site_fract_y
 _atom_site_fract_z
 _atom_site_occupancy
  Ba  Ba0  1  0.00000000  0.00000000  0.00000000  1
  Mg  Mg0  1  0.66666700  0.33333300  0.37561870  1
  Mg  Mg1  1  0.33333300  0.66666700  0.62438130  1
  H  H0  1  0.16705466  0.83294534  0.38996156  1
  H  H1  1  0.66589168  0.83294534  0.38996156  1
  H  H2  1  0.16705466  0.33410832  0.38996156  1
  H  H3  1  0.83294534  0.16705466  0.61003844  1
  H  H4  1  0.33410832  0.16705466  0.61003844  1
  H  H5  1  0.83294534  0.66589168  0.61003844  1
  H  H6  1  0.50361431  0.00722861  0.83455933  1
  H  H7  1  0.50361431  0.49638569  0.83455933  1
  H  H8  1  0.99277139  0.49638569  0.83455933  1
  H  H9  1  0.49638569  0.99277139  0.16544067  1
  H  H10  1  0.49638569  0.50361431  0.16544067  1
  H  H11  1  0.00722861  0.50361431  0.16544067  1
  Ir  Ir0  1  0.66666700  0.33333300  0.71699790  1
  Ir  Ir1  1  0.33333300  0.66666700  0.28300210  1
loop_
_geom_bond_atom_site_label_1
_geom_bond_atom_site_label_2
_geom_bond_distance
_geom_bond_site_symmetry_2
Ba0 H6 2.768692 1_554
Ba0 H9 2.768692 1_445
Ba0 H9 2.768692 1_545
Ba0 H6 2.768692 1_454
Ba0 H7 2.768692 1_554
Ba0 H10 2.768692 1_445
Ba0 H10 2.768692 1_555
Ba0 H7 2.768692 1_444
Ba0 H8 2.768693 1_454
Ba0 H11 2.768693 1_545
Ba0 H11 2.768693 1_555
Ba0 H8 2.768693 1_444
H0 Ir1 1.644555 1_555
H0 Mg1 2.384081 1_555
H0 Mg0 2.409312 1_455
H0 Mg0 2.409312 1_565
H1 Ir1 1.644562 1_555
H1 Mg1 2.384085 1_555
H1 Mg0 2.409312 1_555
H1 Mg0 2.409312 1_565
H2 Ir1 1.644563 1_555
H2 Mg1 2.384086 1_555
H2 Mg0 2.409312 1_455
H2 Mg0 2.409312 1_555
H3 Ir0 1.644555 1_555
H3 Mg0 2.384081 1_555
H3 Mg1 2.409312 1_655
H3 Mg1 2.409312 1_545
H4 Ir0 1.644562 1_555
H4 Mg0 2.384085 1_555
H4 Mg1 2.409312 1_555
H4 Mg1 2.409312 1_545
H5 Ir0 1.644563 1_555
H5 Mg0 2.384086 1_555
H5 Mg1 2.409312 1_655
H5 Mg1 2.409312 1_555
H6 Ir0 1.671442 1_555
H6 Mg1 2.244881 1_545
H7 Ir0 1.671445 1_555
H7 Mg1 2.244884 1_555
H8 Ir0 1.671441 1_555
H8 Mg1 2.244881 1_655
H9 Ir1 1.671442 1_555
H9 Mg0 2.244881 1_565
H10 Ir1 1.671445 1_555
H10 Mg0 2.244884 1_555
H11 Ir1 1.671441 1_555
H11 Mg0 2.244881 1_455
