# generated using pymatgen
data_RbScSn3O8
_symmetry_space_group_name_H-M   'P 1'
_cell_length_a   7.59899064
_cell_length_b   7.59899116
_cell_length_c   10.58719736
_cell_angle_alpha   46.93859367
_cell_angle_beta   46.93859133
_cell_angle_gamma   24.37073113
_symmetry_Int_Tables_number   1
_chemical_formula_structural   RbScSn3O8
_chemical_formula_sum   'Rb1 Sc1 Sn3 O8'
_cell_volume   180.52117294
_cell_formula_units_Z   1
loop_
 _symmetry_equiv_pos_site_id
 _symmetry_equiv_pos_as_xyz
  1  'x, y, z'
loop_
 _atom_site_type_symbol
 _atom_site_label
 _atom_site_symmetry_multiplicity
 _atom_site_fract_x
 _atom_site_fract_y
 _atom_site_fract_z
 _atom_site_occupancy
  Rb  Rb0  1  0.00190127  0.00190127  0.00189135  1
  Sc  Sc0  1  0.15039345  0.15039345  0.18489756  1
  Sn  Sn0  1  0.84638886  0.84638886  0.82329596  1
  Sn  Sn1  1  0.66211632  0.66211632  0.48455346  1
  Sn  Sn2  1  0.33599063  0.33599063  0.51373601  1
  O  O0  1  0.33683448  0.33683448  0.70457758  1
  O  O1  1  0.66529800  0.66529800  0.29443494  1
  O  O2  1  0.95459701  0.95459701  0.37924206  1
  O  O3  1  0.04005447  0.04005447  0.62364468  1
  O  O4  1  0.35349372  0.35349372  0.94183794  1
  O  O5  1  0.65706327  0.65706327  0.04423842  1
  O  O6  1  0.70214743  0.70214743  0.64163841  1
  O  O7  1  0.29372009  0.29372009  0.36201361  1
loop_
_geom_bond_atom_site_label_1
_geom_bond_atom_site_label_2
_geom_bond_distance
_geom_bond_site_symmetry_2
O0 Sn2 2.029254 1_555
O0 Sn0 2.102817 1_545
O0 Sn0 2.102818 1_455
O1 Sn1 1.980095 1_555
O1 Sc0 2.079740 1_565
O1 Sc0 2.079740 1_655
O2 Sn2 2.049322 1_565
O2 Sn2 2.049322 1_655
O2 Sc0 2.081576 1_665
O3 Sn0 2.061394 1_445
O3 Sn1 2.073358 1_545
O3 Sn1 2.073359 1_455
O4 Sn0 2.084220 1_455
O4 Sn0 2.084220 1_545
O4 Sc0 2.208728 1_556
O4 Rb0 3.129824 1_656
O4 Rb0 3.129824 1_566
O5 Sn0 2.047183 1_554
O5 Sc0 2.143370 1_655
O5 Sc0 2.143370 1_565
O5 Rb0 3.087157 1_565
O5 Rb0 3.087157 1_655
O6 Sn1 2.121605 1_555
O6 Sn2 2.144367 1_655
O6 Sn2 2.144367 1_565
O6 Rb0 3.180925 1_566
O6 Rb0 3.180925 1_656
O7 Sn2 2.093741 1_555
O7 Sn1 2.129457 1_455
O7 Sn1 2.129457 1_545
O7 Rb0 3.193873 1_655
O7 Rb0 3.193873 1_565
