# generated using pymatgen
data_Rb2NaAgF6
_symmetry_space_group_name_H-M   'P 1'
_cell_length_a   6.07964358
_cell_length_b   6.07964413
_cell_length_c   6.07964358
_cell_angle_alpha   120.00000206
_cell_angle_beta   90.00000000
_cell_angle_gamma   120.00000206
_symmetry_Int_Tables_number   1
_chemical_formula_structural   Rb2NaAgF6
_chemical_formula_sum   'Rb2 Na1 Ag1 F6'
_cell_volume   158.89834488
_cell_formula_units_Z   1
loop_
 _symmetry_equiv_pos_site_id
 _symmetry_equiv_pos_as_xyz
  1  'x, y, z'
loop_
 _atom_site_type_symbol
 _atom_site_label
 _atom_site_symmetry_multiplicity
 _atom_site_fract_x
 _atom_site_fract_y
 _atom_site_fract_z
 _atom_site_occupancy
  Rb  Rb0  1  0.74999800  0.49999900  0.24999900  1
  Rb  Rb1  1  0.24999900  0.49999900  0.75000100  1
  Na  Na0  1  0.50000000  0.00000000  0.50000000  1
  Ag  Ag0  1  0.00000000  0.00000000  0.00000000  1
  F  F0  1  0.75878284  0.00000000  0.24121616  1
  F  F1  1  0.24121716  0.48243532  0.24121716  1
  F  F2  1  0.24121816  1.00000000  0.24121816  1
  F  F3  1  0.75878184  0.00000000  0.75878184  1
  F  F4  1  0.24121616  0.00000000  0.75878284  1
  F  F5  1  0.75878284  0.51756568  0.75878284  1
loop_
_geom_bond_atom_site_label_1
_geom_bond_atom_site_label_2
_geom_bond_distance
_geom_bond_site_symmetry_2
Ag0 F4 2.073960 1_554
Ag0 F0 2.073960 1_455
Ag0 F5 2.073965 1_444
Ag0 F1 2.073969 1_555
Ag0 F2 2.073973 1_545
Ag0 F3 2.073973 1_454
F0 Na0 2.224997 1_555
F0 Rb1 3.040757 1_544
F0 Rb0 3.040760 1_555
F0 Rb0 3.040760 1_545
F0 Rb1 3.040763 1_655
F1 Na0 2.224988 1_565
F1 Rb1 3.040747 1_554
F1 Rb0 3.040753 1_555
F1 Rb0 3.040765 1_455
F1 Rb1 3.040772 1_555
F2 Na0 2.224984 1_565
F2 Rb0 3.040753 1_565
F2 Rb1 3.040756 1_554
F2 Rb1 3.040763 1_565
F2 Rb0 3.040765 1_455
F3 Na0 2.224984 1_555
F3 Rb1 3.040750 1_655
F3 Rb0 3.040760 1_545
F3 Rb0 3.040760 1_556
F3 Rb1 3.040768 1_545
F4 Na0 2.224997 1_555
F4 Rb1 3.040751 1_555
F4 Rb0 3.040753 1_556
F4 Rb0 3.040765 1_445
F4 Rb1 3.040769 1_545
F5 Na0 2.224993 1_555
F5 Rb0 3.040757 1_556
F5 Rb1 3.040757 1_655
F5 Rb0 3.040763 1_555
F5 Rb1 3.040763 1_555
