# generated using pymatgen
data_Ba2CrH9
_symmetry_space_group_name_H-M   'P 1'
_cell_length_a   9.48949611
_cell_length_b   9.48949455
_cell_length_c   5.29958999
_cell_angle_alpha   90.00000000
_cell_angle_beta   90.00000000
_cell_angle_gamma   120.00001268
_symmetry_Int_Tables_number   1
_chemical_formula_structural   Ba2CrH9
_chemical_formula_sum   'Ba6 Cr3 H27'
_cell_volume   413.29398081
_cell_formula_units_Z   3
loop_
 _symmetry_equiv_pos_site_id
 _symmetry_equiv_pos_as_xyz
  1  'x, y, z'
loop_
 _atom_site_type_symbol
 _atom_site_label
 _atom_site_symmetry_multiplicity
 _atom_site_fract_x
 _atom_site_fract_y
 _atom_site_fract_z
 _atom_site_occupancy
  Ba  Ba0  1  1.00000000  0.26864339  0.50000000  1
  Ba  Ba1  1  0.73135661  0.73135661  0.50000000  1
  Ba  Ba2  1  0.26864339  1.00000000  0.50000000  1
  Ba  Ba3  1  0.00000000  0.59126795  0.00000000  1
  Ba  Ba4  1  0.40873205  0.40873205  0.00000000  1
  Ba  Ba5  1  0.59126795  0.00000000  0.00000000  1
  Cr  Cr0  1  0.66666700  0.33333300  0.50000000  1
  Cr  Cr1  1  0.33333300  0.66666700  0.50000000  1
  Cr  Cr2  1  0.00000000  0.00000000  0.00000000  1
  H  H0  1  0.77178688  0.31191192  0.72133841  1
  H  H1  1  0.68808808  0.45987396  0.72133841  1
  H  H2  1  0.54012604  0.22821312  0.72133841  1
  H  H3  1  0.22821312  0.54012604  0.27866159  1
  H  H4  1  0.54012604  0.22821312  0.27866159  1
  H  H5  1  0.77178688  0.31191192  0.27866159  1
  H  H6  1  0.68808808  0.45987396  0.27866159  1
  H  H7  1  0.31191192  0.77178688  0.72133841  1
  H  H8  1  0.45987396  0.68808808  0.72133841  1
  H  H9  1  0.31638613  0.00000000  0.00000000  1
  H  H10  1  0.68361387  0.68361387  0.00000000  1
  H  H11  1  0.00000000  0.31638613  0.00000000  1
  H  H12  1  0.85966110  1.00000000  0.21391124  1
  H  H13  1  0.14033890  0.14033890  0.78608876  1
  H  H14  1  1.00000000  0.85966110  0.78608876  1
  H  H15  1  1.00000000  0.85966110  0.21391124  1
  H  H16  1  0.14033890  0.14033890  0.21391124  1
  H  H17  1  0.85966110  1.00000000  0.78608876  1
  H  H18  1  0.15142486  0.63867420  0.50000000  1
  H  H19  1  0.48724934  0.84857514  0.50000000  1
  H  H20  1  0.36132580  0.51275066  0.50000000  1
  H  H21  1  0.51275066  0.36132580  0.50000000  1
  H  H22  1  0.84857514  0.48724934  0.50000000  1
  H  H23  1  0.63867420  0.15142486  0.50000000  1
  H  H24  1  0.22821312  0.54012604  0.72133841  1
  H  H25  1  0.31191192  0.77178688  0.27866159  1
  H  H26  1  0.45987396  0.68808808  0.27866159  1
loop_
_geom_bond_atom_site_label_1
_geom_bond_atom_site_label_2
_geom_bond_distance
_geom_bond_site_symmetry_2
Ba0 H0 2.669020 1_555
Ba0 H5 2.669020 1_555
Ba0 H24 2.669025 1_655
Ba0 H3 2.669025 1_655
Ba0 H17 2.678832 1_545
Ba0 H12 2.678832 1_545
Ba0 H16 2.678832 1_655
Ba0 H13 2.678832 1_655
Ba0 H11 2.688247 1_655
Ba0 H11 2.688247 1_656
Ba1 H1 2.669028 1_555
Ba1 H6 2.669028 1_555
Ba1 H8 2.669028 1_555
Ba1 H26 2.669028 1_555
Ba1 H12 2.678832 1_555
Ba1 H17 2.678832 1_555
Ba1 H15 2.678832 1_555
Ba1 H14 2.678832 1_555
Ba1 H10 2.688247 1_556
Ba1 H10 2.688247 1_555
Ba2 H7 2.669020 1_555
Ba2 H25 2.669020 1_555
Ba2 H2 2.669025 1_565
Ba2 H4 2.669025 1_565
Ba2 H15 2.678832 1_455
Ba2 H14 2.678832 1_455
Ba2 H16 2.678832 1_565
Ba2 H13 2.678832 1_565
Ba2 H9 2.688247 1_565
Ba2 H9 2.688247 1_566
Ba3 H11 2.608490 1_555
Ba3 H14 2.787817 1_454
Ba3 H15 2.787817 1_455
Ba3 H3 2.856114 1_555
Ba3 H24 2.856114 1_554
Ba3 H5 2.856119 1_455
Ba3 H0 2.856119 1_454
Ba3 H22 2.939758 1_455
Ba3 H22 2.939758 1_454
Ba3 H18 2.939758 1_555
Ba3 H18 2.939758 1_554
Ba3 H6 2.967480 1_455
Ba3 H1 2.967480 1_454
Ba3 H25 2.967481 1_555
Ba3 H7 2.967481 1_554
Ba4 H10 2.608489 1_555
Ba4 H16 2.787816 1_555
Ba4 H13 2.787816 1_554
Ba4 H26 2.856122 1_555
Ba4 H8 2.856122 1_554
Ba4 H6 2.856122 1_555
Ba4 H1 2.856122 1_554
Ba4 H20 2.939758 1_555
Ba4 H20 2.939758 1_554
Ba4 H21 2.939758 1_554
Ba4 H21 2.939758 1_555
Ba4 H4 2.967488 1_555
Ba4 H2 2.967488 1_554
Ba4 H3 2.967488 1_555
Ba4 H24 2.967488 1_554
Ba5 H9 2.608490 1_555
Ba5 H17 2.787817 1_544
Ba5 H12 2.787817 1_545
Ba5 H4 2.856114 1_555
Ba5 H2 2.856114 1_554
Ba5 H25 2.856119 1_545
Ba5 H7 2.856119 1_544
Ba5 H19 2.939758 1_544
Ba5 H19 2.939758 1_545
Ba5 H23 2.939758 1_554
Ba5 H23 2.939758 1_555
Ba5 H26 2.967480 1_545
Ba5 H8 2.967480 1_544
Ba5 H5 2.967480 1_555
Ba5 H0 2.967480 1_554
Cr0 H23 1.609919 1_555
Cr0 H22 1.609922 1_555
Cr0 H21 1.609928 1_555
Cr0 H2 1.617129 1_555
Cr0 H4 1.617129 1_555
Cr0 H1 1.617129 1_555
Cr0 H6 1.617129 1_555
Cr0 H0 1.617129 1_555
Cr0 H5 1.617129 1_555
Cr1 H18 1.609919 1_555
Cr1 H19 1.609922 1_555
Cr1 H20 1.609928 1_555
Cr1 H24 1.617129 1_555
Cr1 H3 1.617129 1_555
Cr1 H7 1.617129 1_555
Cr1 H25 1.617129 1_555
Cr1 H8 1.617129 1_555
Cr1 H26 1.617129 1_555
Cr2 H13 1.748911 1_554
Cr2 H16 1.748911 1_555
Cr2 H14 1.748911 1_444
Cr2 H15 1.748911 1_445
Cr2 H17 1.748911 1_444
Cr2 H12 1.748911 1_445
