# generated using pymatgen
data_K4P21I
_symmetry_space_group_name_H-M   'P 1'
_cell_length_a   12.74503530
_cell_length_b   12.74503530
_cell_length_c   9.81020825
_cell_angle_alpha   90.00000000
_cell_angle_beta   90.00000000
_cell_angle_gamma   118.11537296
_symmetry_Int_Tables_number   1
_chemical_formula_structural   K4P21I
_chemical_formula_sum   'K8 P42 I2'
_cell_volume   1405.49441026
_cell_formula_units_Z   2
loop_
 _symmetry_equiv_pos_site_id
 _symmetry_equiv_pos_as_xyz
  1  'x, y, z'
loop_
 _atom_site_type_symbol
 _atom_site_label
 _atom_site_symmetry_multiplicity
 _atom_site_fract_x
 _atom_site_fract_y
 _atom_site_fract_z
 _atom_site_occupancy
  K  K0  1  0.24589721  0.06954762  0.25000000  1
  K  K1  1  0.75410279  0.93045238  0.75000000  1
  K  K2  1  0.06954762  0.24589721  0.25000000  1
  K  K3  1  0.93045238  0.75410279  0.75000000  1
  K  K4  1  0.37938004  0.62061996  0.50000000  1
  K  K5  1  0.62061996  0.37938004  -0.00000000  1
  K  K6  1  0.62061996  0.37938004  0.50000000  1
  K  K7  1  0.37938004  0.62061996  -0.00000000  1
  P  P0  1  0.96086356  0.96086356  0.25000000  1
  P  P1  1  0.03913644  0.03913644  0.75000000  1
  P  P2  1  0.66417364  0.20995422  0.25000000  1
  P  P3  1  0.33582636  0.79004578  0.75000000  1
  P  P4  1  0.20995422  0.66417364  0.25000000  1
  P  P5  1  0.79004578  0.33582636  0.75000000  1
  P  P6  1  0.31021982  0.00785995  0.92410676  1
  P  P7  1  0.68978018  0.99214005  0.42410676  1
  P  P8  1  0.00785995  0.31021982  0.57589324  1
  P  P9  1  0.99214005  0.68978018  0.07589324  1
  P  P10  1  0.05993533  0.50224983  0.91633896  1
  P  P11  1  0.94006467  0.49775017  0.41633896  1
  P  P12  1  0.50224983  0.05993533  0.58366104  1
  P  P13  1  0.49775017  0.94006467  0.08366104  1
  P  P14  1  0.94006467  0.49775017  0.08366104  1
  P  P15  1  0.05993533  0.50224983  0.58366104  1
  P  P16  1  0.49775017  0.94006467  0.41633896  1
  P  P17  1  0.50224983  0.05993533  0.91633896  1
  P  P18  1  0.14648613  0.14648613  0.91374328  1
  P  P19  1  0.85351387  0.85351387  0.41374328  1
  P  P20  1  0.14648613  0.14648613  0.58625672  1
  P  P21  1  0.85351387  0.85351387  0.08625672  1
  P  P22  1  0.94523792  0.50669756  0.75000000  1
  P  P23  1  0.05476208  0.49330244  0.25000000  1
  P  P24  1  0.50669756  0.94523792  0.75000000  1
  P  P25  1  0.49330244  0.05476208  0.25000000  1
  P  P26  1  0.87991661  0.23053779  0.75000000  1
  P  P27  1  0.12008339  0.76946221  0.25000000  1
  P  P28  1  0.23053779  0.87991661  0.75000000  1
  P  P29  1  0.76946221  0.12008339  0.25000000  1
  P  P30  1  0.18125354  0.33005092  0.86501393  1
  P  P31  1  0.81874646  0.66994908  0.36501393  1
  P  P32  1  0.33005092  0.18125354  0.63498607  1
  P  P33  1  0.66994908  0.81874646  0.13498607  1
  P  P34  1  0.81874646  0.66994908  0.13498607  1
  P  P35  1  0.18125354  0.33005092  0.63498607  1
  P  P36  1  0.66994908  0.81874646  0.36501393  1
  P  P37  1  0.33005092  0.18125354  0.86501393  1
  P  P38  1  0.00785995  0.31021982  0.92410676  1
  P  P39  1  0.99214005  0.68978018  0.42410676  1
  P  P40  1  0.31021982  0.00785995  0.57589324  1
  P  P41  1  0.68978018  0.99214005  0.07589324  1
  I  I0  1  0.39814928  0.39814928  0.25000000  1
  I  I1  1  0.60185072  0.60185072  0.75000000  1
loop_
_geom_bond_atom_site_label_1
_geom_bond_atom_site_label_2
_geom_bond_distance
_geom_bond_site_symmetry_2
K0 P0 3.220717 1_445
K0 P25 3.246249 1_555
K0 P27 3.379153 1_545
K0 P6 3.481233 1_554
K0 P40 3.481233 1_555
K1 P1 3.220717 1_665
K1 P24 3.246249 1_555
K1 P26 3.379153 1_565
K1 P7 3.481233 1_555
K1 P41 3.481233 1_556
K2 P0 3.220717 1_445
K2 P23 3.246249 1_555
K2 P29 3.379153 1_455
K2 P8 3.481233 1_555
K2 P38 3.481233 1_554
K3 P1 3.220717 1_665
K3 P22 3.246249 1_555
K3 P28 3.379153 1_655
K3 P39 3.481233 1_555
K3 P9 3.481233 1_556
K4 P4 3.480746 1_555
K4 P3 3.480746 1_555
K4 P35 3.609821 1_555
K4 P36 3.609821 1_555
K4 P15 3.706262 1_555
K4 P16 3.706262 1_555
K5 P2 3.480746 1_555
K5 P5 3.480746 1_554
K5 P37 3.609821 1_554
K5 P34 3.609821 1_555
K5 P17 3.706262 1_554
K5 P14 3.706262 1_555
K6 P2 3.480746 1_555
K6 P5 3.480746 1_555
K6 P32 3.609821 1_555
K6 P31 3.609821 1_555
K6 P12 3.706262 1_555
K6 P11 3.706262 1_555
K7 P4 3.480746 1_555
K7 P3 3.480746 1_554
K7 P30 3.609821 1_554
K7 P33 3.609821 1_555
K7 P10 3.706262 1_554
K7 P13 3.706262 1_555
P0 P21 2.135398 1_555
P0 P19 2.135398 1_555
P1 P18 2.135398 1_555
P1 P20 2.135398 1_555
P2 P29 2.135724 1_555
P2 P25 2.143613 1_555
P10 P22 2.209316 1_455
P10 P38 2.214782 1_555
P10 P14 2.224670 1_456
P11 P23 2.209316 1_655
P11 P39 2.214782 1_555
P11 P15 2.224670 1_655
P12 P24 2.209316 1_545
P12 P40 2.214782 1_555
P12 P16 2.224670 1_545
P13 P25 2.209316 1_565
P13 P41 2.214782 1_555
P13 P17 2.224670 1_564
P14 P23 2.209316 1_655
P14 P9 2.214782 1_555
P15 P22 2.209316 1_455
P15 P8 2.214782 1_555
P16 P25 2.209316 1_565
P16 P7 2.214782 1_555
P17 P24 2.209316 1_545
P17 P6 2.214782 1_555
P18 P37 2.218390 1_555
P18 P30 2.218390 1_555
P19 P36 2.218390 1_555
P19 P31 2.218390 1_555
P20 P35 2.218390 1_555
P20 P32 2.218390 1_555
P21 P33 2.218390 1_555
P21 P34 2.218390 1_555
P22 P5 2.143613 1_555
P23 P4 2.143613 1_555
P24 P3 2.143613 1_555
P26 P5 2.135724 1_555
P26 P38 2.246532 1_655
P26 P8 2.246532 1_655
P27 P4 2.135724 1_555
P27 P9 2.246532 1_455
P27 P39 2.246532 1_455
P28 P3 2.135724 1_555
P28 P40 2.246532 1_565
P28 P6 2.246532 1_565
P29 P41 2.246532 1_545
P29 P7 2.246532 1_545
P30 P38 2.181102 1_555
P30 P35 2.256621 1_555
P31 P39 2.181102 1_555
P31 P34 2.256621 1_555
P32 P40 2.181102 1_555
P32 P37 2.256621 1_555
P33 P41 2.181102 1_555
P33 P36 2.256621 1_555
P34 P9 2.181102 1_555
P35 P8 2.181102 1_555
P36 P7 2.181102 1_555
P37 P6 2.181102 1_555
I0 K0 3.694002 1_555
I0 K2 3.694002 1_555
I0 K4 3.840700 1_555
I0 K7 3.840700 1_555
I0 K6 3.840700 1_555
I0 K5 3.840700 1_555
I1 K3 3.694002 1_555
I1 K1 3.694002 1_555
I1 K5 3.840700 1_556
I1 K7 3.840700 1_556
I1 K4 3.840700 1_555
I1 K6 3.840700 1_555
