# generated using pymatgen
data_Na16TiGeAs8
_symmetry_space_group_name_H-M   'P 1'
_cell_length_a   9.69274936
_cell_length_b   9.69274946
_cell_length_c   9.69275029
_cell_angle_alpha   60.00000047
_cell_angle_beta   60.00000012
_cell_angle_gamma   60.00000043
_symmetry_Int_Tables_number   1
_chemical_formula_structural   Na16TiGeAs8
_chemical_formula_sum   'Na16 Ti1 Ge1 As8'
_cell_volume   643.91123023
_cell_formula_units_Z   1
loop_
 _symmetry_equiv_pos_site_id
 _symmetry_equiv_pos_as_xyz
  1  'x, y, z'
loop_
 _atom_site_type_symbol
 _atom_site_label
 _atom_site_symmetry_multiplicity
 _atom_site_fract_x
 _atom_site_fract_y
 _atom_site_fract_z
 _atom_site_occupancy
  Na  Na0  1  0.62735291  0.62735291  0.11794027  1
  Na  Na1  1  0.62735291  0.11794027  0.62735291  1
  Na  Na2  1  0.11794027  0.62735291  0.62735291  1
  Na  Na3  1  0.62735291  0.62735291  0.62735291  1
  Na  Na4  1  0.03073006  0.46926994  0.46926994  1
  Na  Na5  1  0.77208476  0.22791524  0.22791524  1
  Na  Na6  1  0.46926994  0.03073006  0.46926994  1
  Na  Na7  1  0.46926994  0.46926994  0.03073006  1
  Na  Na8  1  0.03073006  0.03073006  0.46926994  1
  Na  Na9  1  0.03073006  0.46926994  0.03073006  1
  Na  Na10  1  0.46926994  0.03073006  0.03073006  1
  Na  Na11  1  0.77208476  0.22791524  0.77208476  1
  Na  Na12  1  0.22791524  0.77208476  0.22791524  1
  Na  Na13  1  0.22791524  0.22791524  0.77208476  1
  Na  Na14  1  0.77208476  0.77208476  0.22791524  1
  Na  Na15  1  0.22791524  0.77208476  0.77208476  1
  Ti  Ti0  1  0.50000000  0.50000000  0.50000000  1
  Ge  Ge0  1  0.75000000  0.75000000  0.75000000  1
  As  As0  1  0.85569716  0.85569716  0.43291052  1
  As  As1  1  0.85569716  0.43291052  0.85569716  1
  As  As2  1  0.39492182  0.39492182  0.81523353  1
  As  As3  1  0.39492182  0.81523353  0.39492182  1
  As  As4  1  0.81523353  0.39492182  0.39492182  1
  As  As5  1  0.85569716  0.85569716  0.85569716  1
  As  As6  1  0.43291052  0.85569716  0.85569716  1
  As  As7  1  0.39492182  0.39492182  0.39492182  1
loop_
_geom_bond_atom_site_label_1
_geom_bond_atom_site_label_2
_geom_bond_distance
_geom_bond_site_symmetry_2
Na0 Ti0 3.023658 1_555
Na1 Ti0 3.023658 1_555
Na2 Ti0 3.023658 1_555
Na3 Ti0 3.023650 1_555
Ge0 Na2 2.911915 1_655
Ge0 Na1 2.911915 1_565
Ge0 Na0 2.911915 1_556
Ge0 Na3 2.911923 1_555
As0 Ge0 2.509477 1_555
As0 Na12 3.023074 1_655
As0 Na5 3.023074 1_565
As0 Na14 3.023089 1_555
As0 Na2 3.147235 1_655
As0 Na1 3.147235 1_565
As0 Na3 3.147257 1_555
As0 Na8 3.155131 1_665
As0 Na6 3.155148 1_565
As0 Na4 3.155148 1_655
As1 Ge0 2.509477 1_555
As1 Na13 3.023074 1_655
As1 Na5 3.023075 1_556
As1 Na11 3.023089 1_555
As1 Na2 3.147235 1_655
As1 Na0 3.147235 1_556
As1 Na3 3.147257 1_555
As1 Na9 3.155131 1_656
As1 Na7 3.155148 1_556
As1 Na4 3.155148 1_655
As2 Ti0 2.494789 1_555
As2 Na9 2.988524 1_556
As2 Na10 2.988524 1_556
As2 Na7 2.988531 1_556
As2 Na13 3.064314 1_555
As2 Na11 3.064323 1_555
As2 Na15 3.064323 1_555
As2 Na3 3.215206 1_555
As2 Na2 3.215206 1_555
As2 Na1 3.215206 1_555
As3 Ti0 2.494789 1_555
As3 Na8 2.988524 1_565
As3 Na10 2.988524 1_565
As3 Na6 2.988531 1_565
As3 Na12 3.064315 1_555
As3 Na14 3.064323 1_555
As3 Na15 3.064323 1_555
As3 Na2 3.215206 1_555
As3 Na3 3.215206 1_555
As3 Na0 3.215206 1_555
As4 Ti0 2.494789 1_555
As4 Na8 2.988524 1_655
As4 Na9 2.988524 1_655
As4 Na4 2.988531 1_655
As4 Na5 3.064315 1_555
As4 Na14 3.064323 1_555
As4 Na11 3.064323 1_555
As4 Na1 3.215206 1_555
As4 Na3 3.215206 1_555
As4 Na0 3.215206 1_555
As5 Ge0 2.509493 1_555
As5 Na15 3.023071 1_655
As5 Na11 3.023071 1_565
As5 Na14 3.023071 1_556
As5 Na0 3.147254 1_556
As5 Na2 3.147254 1_655
As5 Na1 3.147254 1_565
As5 Na10 3.155144 1_566
As5 Na9 3.155144 1_656
As5 Na8 3.155144 1_665
As6 Ge0 2.509477 1_555
As6 Na13 3.023074 1_565
As6 Na12 3.023075 1_556
As6 Na15 3.023089 1_555
As6 Na1 3.147235 1_565
As6 Na0 3.147235 1_556
As6 Na3 3.147257 1_555
As6 Na10 3.155131 1_566
As6 Na7 3.155148 1_556
As6 Na6 3.155148 1_565
As7 Ti0 2.494797 1_555
As7 Na4 2.988522 1_555
As7 Na6 2.988522 1_555
As7 Na7 2.988522 1_555
As7 Na5 3.064321 1_555
As7 Na12 3.064321 1_555
As7 Na13 3.064321 1_555
As7 Na0 3.215206 1_555
As7 Na2 3.215206 1_555
As7 Na1 3.215206 1_555
