# generated using pymatgen
data_CsCrSn3O8
_symmetry_space_group_name_H-M   'P 1'
_cell_length_a   7.54164000
_cell_length_b   7.54163946
_cell_length_c   10.50393965
_cell_angle_alpha   46.60540266
_cell_angle_beta   46.60540578
_cell_angle_gamma   24.48309022
_symmetry_Int_Tables_number   1
_chemical_formula_structural   CsCrSn3O8
_chemical_formula_sum   'Cs1 Cr1 Sn3 O8'
_cell_volume   176.08110808
_cell_formula_units_Z   1
loop_
 _symmetry_equiv_pos_site_id
 _symmetry_equiv_pos_as_xyz
  1  'x, y, z'
loop_
 _atom_site_type_symbol
 _atom_site_label
 _atom_site_symmetry_multiplicity
 _atom_site_fract_x
 _atom_site_fract_y
 _atom_site_fract_z
 _atom_site_occupancy
  Cs  Cs0  1  0.49627044  0.49627044  0.99934845  1
  Cr  Cr0  1  0.16512836  0.16512836  0.18259847  1
  Sn  Sn0  1  0.82841987  0.82841987  0.82924840  1
  Sn  Sn1  1  0.65251422  0.65251422  0.50389391  1
  Sn  Sn2  1  0.35792372  0.35792372  0.47917208  1
  O  O0  1  0.16410315  0.16410315  0.37197077  1
  O  O1  1  0.83299062  0.83299062  0.62863303  1
  O  O2  1  0.45761343  0.45761343  0.71036580  1
  O  O3  1  0.54760238  0.54760238  0.29157916  1
  O  O4  1  0.20040535  0.20040535  0.95692549  1
  O  O5  1  0.78817676  0.78817676  0.05983336  1
  O  O6  1  0.84897349  0.84897349  0.35562096  1
  O  O7  1  0.15987821  0.15987821  0.63081111  1
loop_
_geom_bond_atom_site_label_1
_geom_bond_atom_site_label_2
_geom_bond_distance
_geom_bond_site_symmetry_2
Cs0 O5 3.103132 1_546
Cs0 O5 3.103133 1_456
Cs0 O6 3.138728 1_546
Cs0 O6 3.138728 1_456
Cs0 O4 3.150326 1_565
Cs0 O4 3.150327 1_655
Cs0 O7 3.198812 1_565
Cs0 O7 3.198812 1_655
Cr0 O0 1.978561 1_555
Cr0 O3 2.019981 1_545
Cr0 O3 2.019982 1_455
Cr0 O4 2.038719 1_554
Cr0 O5 2.054552 1_455
Cr0 O5 2.054553 1_545
O0 Sn1 2.042943 1_455
O0 Sn1 2.042943 1_545
O1 Sn0 2.060445 1_555
O1 Sn2 2.084601 1_565
O1 Sn2 2.084601 1_655
O2 Sn1 2.048601 1_555
O2 Sn0 2.097481 1_545
O2 Sn0 2.097482 1_455
O3 Sn2 1.988429 1_555
O4 Sn0 2.087632 1_455
O4 Sn0 2.087633 1_545
O5 Sn0 2.048933 1_554
O6 Sn1 2.114329 1_555
O6 Sn2 2.121180 1_565
O6 Sn2 2.121181 1_655
O7 Sn2 2.126362 1_555
O7 Sn1 2.132964 1_545
O7 Sn1 2.132964 1_455
