# generated using pymatgen
data_Li16TiSiAs8
_symmetry_space_group_name_H-M   'P 1'
_cell_length_a   8.67846110
_cell_length_b   8.67845621
_cell_length_c   8.67844370
_cell_angle_alpha   59.99906062
_cell_angle_beta   59.99907052
_cell_angle_gamma   59.99899430
_symmetry_Int_Tables_number   1
_chemical_formula_structural   Li16TiSiAs8
_chemical_formula_sum   'Li16 Ti1 Si1 As8'
_cell_volume   462.17091904
_cell_formula_units_Z   1
loop_
 _symmetry_equiv_pos_site_id
 _symmetry_equiv_pos_as_xyz
  1  'x, y, z'
loop_
 _atom_site_type_symbol
 _atom_site_label
 _atom_site_symmetry_multiplicity
 _atom_site_fract_x
 _atom_site_fract_y
 _atom_site_fract_z
 _atom_site_occupancy
  Li  Li0  1  0.62911609  0.62911474  0.11266483  1
  Li  Li1  1  0.62911459  0.11266521  0.62911566  1
  Li  Li2  1  0.11266631  0.62911320  0.62911537  1
  Li  Li3  1  0.62911138  0.62911185  0.62911020  1
  Li  Li4  1  0.02477489  0.47524043  0.47523806  1
  Li  Li5  1  0.76445728  0.23552049  0.23552139  1
  Li  Li6  1  0.47523808  0.02477627  0.47523879  1
  Li  Li7  1  0.47523753  0.47523938  0.02477646  1
  Li  Li8  1  0.02477506  0.02477513  0.47520286  1
  Li  Li9  1  0.02477586  0.47520318  0.02477632  1
  Li  Li10  1  0.47520254  0.02477673  0.02477457  1
  Li  Li11  1  0.76449782  0.23551063  0.76449366  1
  Li  Li12  1  0.23552343  0.76445875  0.23551469  1
  Li  Li13  1  0.23552008  0.23551841  0.76446083  1
  Li  Li14  1  0.76449273  0.76449593  0.23551121  1
  Li  Li15  1  0.23551223  0.76449368  0.76449461  1
  Ti  Ti0  1  0.50000046  0.50000008  0.50000036  1
  Si  Si0  1  0.74999024  0.74999032  0.74999086  1
  As  As0  1  0.86172514  0.86172586  0.41483257  1
  As  As1  1  0.86172419  0.41483318  0.86172631  1
  As  As2  1  0.38622868  0.38623055  0.84132219  1
  As  As3  1  0.38623077  0.84132008  0.38622938  1
  As  As4  1  0.84132007  0.38623004  0.38623248  1
  As  As5  1  0.86170744  0.86170662  0.86170679  1
  As  As6  1  0.41483300  0.86172512  0.86172301  1
  As  As7  1  0.38622508  0.38622515  0.38622754  1
loop_
_geom_bond_atom_site_label_1
_geom_bond_atom_site_label_2
_geom_bond_distance
_geom_bond_site_symmetry_2
Li0 Si0 2.569849 1_554
Li0 Ti0 2.744597 1_555
Li0 Li12 2.789643 1_555
Li0 Li5 2.789652 1_555
Li0 Li14 2.789778 1_555
Li0 Li7 2.822943 1_555
Li0 Li9 2.823021 1_655
Li0 Li10 2.823033 1_565
Li1 Si0 2.569857 1_545
Li1 Ti0 2.744594 1_555
Li1 Li5 2.789650 1_555
Li1 Li13 2.789656 1_555
Li1 Li11 2.789796 1_555
Li1 Li6 2.822942 1_555
Li1 Li10 2.823010 1_556
Li1 Li8 2.823025 1_655
Li2 Si0 2.569867 1_455
Li2 Ti0 2.744590 1_555
Li2 Li4 2.822933 1_555
Li2 Li9 2.823023 1_556
Li2 Li8 2.823033 1_565
Li3 Si0 2.569645 1_555
Li3 Ti0 2.744630 1_555
Li3 Li4 2.823014 1_655
Li3 Li6 2.823019 1_565
Li3 Li7 2.823031 1_556
Li11 Li3 2.789704 1_555
Li12 Li2 2.789696 1_555
Li13 Li2 2.789656 1_555
Li14 Li3 2.789686 1_555
Li15 Li3 2.789691 1_555
Li15 Li2 2.789788 1_555
As0 Si0 2.374877 1_555
As0 Li14 2.680368 1_555
As0 Li5 2.680377 1_565
As0 Li12 2.680411 1_655
As0 Li8 2.786422 1_665
As0 Li4 2.786442 1_655
As0 Li6 2.786455 1_565
As0 Li1 2.859286 1_565
As0 Li2 2.859296 1_655
As0 Li3 2.859332 1_555
As1 Si0 2.374871 1_555
As1 Li11 2.680357 1_555
As1 Li5 2.680380 1_556
As1 Li13 2.680391 1_655
As1 Li9 2.786437 1_656
As1 Li7 2.786453 1_556
As1 Li4 2.786458 1_655
As1 Li0 2.859271 1_556
As1 Li2 2.859291 1_655
As1 Li3 2.859333 1_555
As2 Ti0 2.418551 1_555
As2 Li9 2.604554 1_556
As2 Li10 2.604557 1_556
As2 Li7 2.604728 1_556
As2 Li15 2.705763 1_555
As2 Li11 2.705808 1_555
As2 Li13 2.705918 1_555
As2 Li3 2.992784 1_555
As2 Li2 2.992810 1_555
As2 Li1 2.992827 1_555
As3 Ti0 2.418540 1_555
As3 Li10 2.604568 1_565
As3 Li8 2.604574 1_565
As3 Li6 2.604738 1_565
As3 Li14 2.705761 1_555
As3 Li15 2.705778 1_555
As3 Li12 2.705926 1_555
As3 Li3 2.992764 1_555
As3 Li0 2.992815 1_555
As3 Li2 2.992830 1_555
As4 Ti0 2.418539 1_555
As4 Li8 2.604567 1_655
As4 Li9 2.604575 1_655
As4 Li4 2.604723 1_655
As4 Li11 2.705752 1_555
As4 Li14 2.705785 1_555
As4 Li5 2.705925 1_555
As4 Li3 2.992751 1_555
As4 Li1 2.992824 1_555
As4 Li0 2.992828 1_555
As5 Si0 2.374862 1_555
As5 Li14 2.680527 1_556
As5 Li11 2.680530 1_565
As5 Li15 2.680535 1_655
As5 Li9 2.786622 1_656
As5 Li8 2.786622 1_665
As5 Li10 2.786632 1_566
As5 Li1 2.859066 1_565
As5 Li0 2.859066 1_556
As5 Li2 2.859071 1_655
As6 Si0 2.374873 1_555
As6 Li15 2.680349 1_555
As6 Li12 2.680354 1_556
As6 Li13 2.680370 1_565
As6 Li6 2.786431 1_565
As6 Li10 2.786445 1_566
As6 Li7 2.786446 1_556
As6 Li1 2.859287 1_565
As6 Li0 2.859302 1_556
As6 Li3 2.859314 1_555
As7 Ti0 2.418609 1_555
As7 Li6 2.604498 1_555
As7 Li4 2.604508 1_555
As7 Li7 2.604509 1_555
As7 Li5 2.705537 1_555
As7 Li13 2.705542 1_555
As7 Li12 2.705548 1_555
As7 Li2 2.992840 1_555
As7 Li1 2.992851 1_555
As7 Li0 2.992876 1_555
