# generated using pymatgen
data_Y4Hf3IrF28
_symmetry_space_group_name_H-M   'P 1'
_cell_length_a   5.59338228
_cell_length_b   8.89781638
_cell_length_c   11.96116070
_cell_angle_alpha   62.49295700
_cell_angle_beta   90.12206352
_cell_angle_gamma   90.01238092
_symmetry_Int_Tables_number   1
_chemical_formula_structural   Y4Hf3IrF28
_chemical_formula_sum   'Y4 Hf3 Ir1 F28'
_cell_volume   527.99674774
_cell_formula_units_Z   1
loop_
 _symmetry_equiv_pos_site_id
 _symmetry_equiv_pos_as_xyz
  1  'x, y, z'
loop_
 _atom_site_type_symbol
 _atom_site_label
 _atom_site_symmetry_multiplicity
 _atom_site_fract_x
 _atom_site_fract_y
 _atom_site_fract_z
 _atom_site_occupancy
  Y  Y0  1  0.25989602  0.81374197  0.26931390  1
  Y  Y1  1  0.74186381  0.18564183  0.73286114  1
  Y  Y2  1  0.75781512  0.18545316  0.23387745  1
  Y  Y3  1  0.23871317  0.81375178  0.76174157  1
  Hf  Hf0  1  0.75495456  0.72726763  0.04384622  1
  Hf  Hf1  1  0.24549348  0.27304942  0.95503176  1
  Hf  Hf2  1  0.25510246  0.27363406  0.45611721  1
  Ir  Ir0  1  0.74196203  0.72770201  0.54472603  1
  F  F0  1  0.93324949  0.70963984  0.41705840  1
  F  F1  1  0.04149390  0.28798482  0.58273520  1
  F  F2  1  0.45988924  0.28883870  0.08161582  1
  F  F3  1  0.53537565  0.71306704  0.91865712  1
  F  F4  1  0.48080683  0.72946644  0.14841090  1
  F  F5  1  0.52345342  0.27102699  0.85267754  1
  F  F6  1  0.97437319  0.26756051  0.35637416  1
  F  F7  1  0.03399291  0.72720290  0.63918341  1
  F  F8  1  0.96329378  0.74813729  0.17201034  1
  F  F9  1  0.04201870  0.25145325  0.82616285  1
  F  F10  1  0.45960110  0.25451628  0.32626164  1
  F  F11  1  0.55571550  0.74265045  0.67587588  1
  F  F12  1  0.77306732  0.47638802  0.13995533  1
  F  F13  1  0.23111943  0.52355779  0.85855737  1
  F  F14  1  0.26182714  0.52448296  0.36027811  1
  F  F15  1  0.73546685  0.48369269  0.64142753  1
  F  F16  1  0.94918015  0.27784422  0.04670824  1
  F  F17  1  0.04773148  0.72185558  0.95019825  1
  F  F18  1  0.44138364  0.72059240  0.45737476  1
  F  F19  1  0.55259761  0.28472246  0.54477465  1
  F  F20  1  0.74344412  0.97214811  0.45137729  1
  F  F21  1  0.26582466  0.02339964  0.55482536  1
  F  F22  1  0.24405465  0.02319775  0.05832585  1
  F  F23  1  0.75869406  0.97782082  0.94228810  1
  F  F24  1  0.58560403  0.96715441  0.23495455  1
  F  F25  1  0.41429641  0.03263359  0.76404220  1
  F  F26  1  0.08335033  0.03056749  0.27056277  1
  F  F27  1  0.91329678  0.96815170  0.72981012  1
loop_
_geom_bond_atom_site_label_1
_geom_bond_atom_site_label_2
_geom_bond_distance
_geom_bond_site_symmetry_2
F0 Ir0 1.932934 1_555
F0 Y0 2.412488 1_655
F1 Hf2 1.980897 1_555
F1 Y1 2.316077 1_455
F2 Hf1 1.984683 1_554
F2 Y2 2.319526 1_555
F3 Hf0 1.983307 1_556
F3 Y3 2.347963 1_555
F4 Hf0 1.986659 1_555
F4 Y0 2.278186 1_555
F5 Hf1 1.986165 1_555
F5 Y1 2.266531 1_555
F6 Hf2 1.985804 1_655
F6 Y2 2.264648 1_555
F7 Ir0 1.982964 1_455
F7 Y3 2.255768 1_555
F8 Hf0 1.999441 1_555
F8 Y0 2.250902 1_655
F9 Hf1 1.993549 1_555
F9 Y1 2.236568 1_455
F10 Hf2 2.000380 1_555
F10 Y2 2.239765 1_555
F11 Ir0 1.939980 1_555
F11 Y3 2.281985 1_555
F12 Hf0 1.985964 1_555
F12 Y2 2.298831 1_555
F13 Hf1 1.982466 1_555
F13 Y3 2.290887 1_555
F14 Hf2 1.983447 1_555
F14 Y0 2.285055 1_555
F15 Ir0 1.932229 1_555
F15 Y1 2.356105 1_555
F16 Hf1 2.000550 1_654
F16 Y2 2.267898 1_555
F17 Hf0 1.999120 1_456
F17 Y3 2.279972 1_555
F18 Ir0 1.993936 1_555
F18 Y0 2.246293 1_555
F19 Hf2 1.998060 1_555
F19 Y1 2.262172 1_555
F20 Ir0 1.932432 1_555
F20 Y2 2.411766 1_565
F21 Hf2 1.981550 1_555
F21 Y3 2.316252 1_545
F22 Hf1 1.982862 1_554
F22 Y0 2.346201 1_545
F23 Hf0 1.986131 1_556
F23 Y1 2.328846 1_565
F24 Y2 2.162633 1_565
F24 Y0 2.198892 1_555
F25 Y3 2.192460 1_545
F25 Y1 2.209618 1_555
F26 Y0 2.173697 1_545
F26 Y2 2.201449 1_455
F27 Y1 2.175302 1_565
F27 Y3 2.204483 1_655
