# generated using pymatgen
data_TaSbF10
_symmetry_space_group_name_H-M   'P 1'
_cell_length_a   5.61246401
_cell_length_b   7.28568156
_cell_length_c   9.31921555
_cell_angle_alpha   87.17113916
_cell_angle_beta   106.44844964
_cell_angle_gamma   100.06007404
_symmetry_Int_Tables_number   1
_chemical_formula_structural   TaSbF10
_chemical_formula_sum   'Ta2 Sb2 F20'
_cell_volume   359.85417582
_cell_formula_units_Z   2
loop_
 _symmetry_equiv_pos_site_id
 _symmetry_equiv_pos_as_xyz
  1  'x, y, z'
loop_
 _atom_site_type_symbol
 _atom_site_label
 _atom_site_symmetry_multiplicity
 _atom_site_fract_x
 _atom_site_fract_y
 _atom_site_fract_z
 _atom_site_occupancy
  Ta  Ta0  1  0.33538326  0.37027127  0.22089957  1
  Ta  Ta1  1  0.66461674  0.62972873  0.77910043  1
  Sb  Sb0  1  0.97158629  0.76753478  0.31942245  1
  Sb  Sb1  1  0.02841371  0.23246522  0.68057755  1
  F  F0  1  0.01445478  0.23794536  0.17163594  1
  F  F1  1  0.98554522  0.76205464  0.82836406  1
  F  F2  1  0.49454502  0.20673845  0.15621726  1
  F  F3  1  0.50545498  0.79326155  0.84378274  1
  F  F4  1  0.10768500  0.21666344  0.88920279  1
  F  F5  1  0.89231500  0.78333656  0.11079721  1
  F  F6  1  0.95312787  0.29536730  0.47818903  1
  F  F7  1  0.04687213  0.70463270  0.52181097  1
  F  F8  1  0.74722145  0.04526305  0.65541844  1
  F  F9  1  0.25277855  0.95473695  0.34458156  1
  F  F10  1  0.25621120  0.08213615  0.66610959  1
  F  F11  1  0.74378880  0.91786385  0.33389041  1
  F  F12  1  0.30681036  0.44959182  0.71357533  1
  F  F13  1  0.69318964  0.55040818  0.28642467  1
  F  F14  1  0.82159756  0.41950839  0.69845848  1
  F  F15  1  0.17840244  0.58049161  0.30154152  1
  F  F16  1  0.69813341  0.45846143  0.93646977  1
  F  F17  1  0.30186659  0.54153857  0.06353023  1
  F  F18  1  0.56818624  0.67308591  0.57437699  1
  F  F19  1  0.43181376  0.32691409  0.42562301  1
loop_
_geom_bond_atom_site_label_1
_geom_bond_atom_site_label_2
_geom_bond_distance
_geom_bond_site_symmetry_2
F0 Ta0 1.831195 1_555
F1 Ta1 1.831195 1_555
F2 Ta0 1.824424 1_555
F3 Ta1 1.824424 1_555
F4 Sb1 1.870067 1_555
F5 Sb0 1.870067 1_555
F6 Sb1 1.864661 1_655
F7 Sb0 1.864661 1_455
F8 Sb1 1.864367 1_655
F9 Sb0 1.864367 1_455
F10 Sb1 1.858421 1_555
F11 Sb0 1.858421 1_555
F12 Sb1 1.987659 1_555
F12 Ta1 2.142893 1_555
F13 Sb0 1.987659 1_555
F13 Ta0 2.142893 1_555
F14 Sb1 1.979072 1_655
F14 Ta1 2.155652 1_555
F15 Sb0 1.979072 1_455
F15 Ta0 2.155652 1_555
F16 Ta1 1.867707 1_555
F17 Ta0 1.867707 1_555
F18 Ta1 1.856914 1_555
F19 Ta0 1.856914 1_555
