# generated using pymatgen
data_Rb6InTe4Cl
_symmetry_space_group_name_H-M   'P 1'
_cell_length_a   11.73130640
_cell_length_b   11.73130511
_cell_length_c   8.42624875
_cell_angle_alpha   90.00000000
_cell_angle_beta   90.00000000
_cell_angle_gamma   120.00000093
_symmetry_Int_Tables_number   1
_chemical_formula_structural   Rb6InTe4Cl
_chemical_formula_sum   'Rb12 In2 Te8 Cl2'
_cell_volume   1004.28646950
_cell_formula_units_Z   2
loop_
 _symmetry_equiv_pos_site_id
 _symmetry_equiv_pos_as_xyz
  1  'x, y, z'
loop_
 _atom_site_type_symbol
 _atom_site_label
 _atom_site_symmetry_multiplicity
 _atom_site_fract_x
 _atom_site_fract_y
 _atom_site_fract_z
 _atom_site_occupancy
  Rb  Rb0  1  0.12525201  0.87474799  0.51707224  1
  Rb  Rb1  1  0.74949498  0.87474799  0.51707224  1
  Rb  Rb2  1  0.95715761  0.47857881  0.31890987  1
  Rb  Rb3  1  0.52142119  0.47857881  0.31890987  1
  Rb  Rb4  1  0.87474799  0.74949498  0.01707224  1
  Rb  Rb5  1  0.25050502  0.12525201  0.01707224  1
  Rb  Rb6  1  0.52142119  0.04284239  0.31890987  1
  Rb  Rb7  1  0.12525201  0.25050502  0.51707224  1
  Rb  Rb8  1  0.87474799  0.12525201  0.01707224  1
  Rb  Rb9  1  0.04284239  0.52142119  0.81890987  1
  Rb  Rb10  1  0.47857881  0.95715761  0.81890987  1
  Rb  Rb11  1  0.47857881  0.52142119  0.81890987  1
  In  In0  1  0.66666700  0.33333300  0.70660991  1
  In  In1  1  0.33333300  0.66666700  0.20660991  1
  Te  Te0  1  0.40351903  0.20176001  0.60336144  1
  Te  Te1  1  0.59648097  0.79823999  0.10336144  1
  Te  Te2  1  0.66666700  0.33333300  0.04156043  1
  Te  Te3  1  0.79823999  0.59648097  0.60336144  1
  Te  Te4  1  0.20176001  0.40351903  0.10336144  1
  Te  Te5  1  0.33333300  0.66666700  0.54156043  1
  Te  Te6  1  0.20176001  0.79823999  0.10336144  1
  Te  Te7  1  0.79823999  0.20176001  0.60336144  1
  Cl  Cl0  1  0.00000000  0.00000000  0.27440203  1
  Cl  Cl1  1  0.00000000  0.00000000  0.77440203  1
loop_
_geom_bond_atom_site_label_1
_geom_bond_atom_site_label_2
_geom_bond_distance
_geom_bond_site_symmetry_2
Rb0 Te0 3.657725 1_565
Rb0 Te3 3.657725 1_455
Rb0 Te6 3.816953 1_555
Rb1 Te7 3.657725 1_565
Rb1 Te3 3.657725 1_555
Rb1 Te1 3.816945 1_555
Rb2 Te7 3.703005 1_555
Rb2 Te3 3.703013 1_555
Rb2 Te2 3.764524 1_555
Rb2 Te6 3.851614 1_655
Rb2 Te4 3.851621 1_655
Rb3 Te0 3.703004 1_555
Rb3 Te3 3.703005 1_555
Rb3 Te2 3.764532 1_555
Rb3 Te1 3.851611 1_555
Rb3 Te4 3.851611 1_555
Rb4 Te1 3.657725 1_555
Rb4 Te6 3.657725 1_655
Rb4 Te3 3.816945 1_554
Rb5 Te6 3.657725 1_545
Rb5 Te4 3.657725 1_555
Rb5 Te0 3.816945 1_554
Rb6 Te7 3.703005 1_555
Rb6 Te0 3.703013 1_555
Rb6 Te2 3.764524 1_555
Rb6 Te6 3.851614 1_545
Rb6 Te1 3.851621 1_545
Rb7 Te0 3.657725 1_555
Rb7 Te7 3.657725 1_455
Rb7 Te4 3.816945 1_555
Rb8 Te1 3.657725 1_545
Rb8 Te4 3.657725 1_655
Rb8 Te7 3.816953 1_554
Rb9 Te6 3.703005 1_556
Rb9 Te4 3.703013 1_556
Rb9 Te5 3.764524 1_555
Rb9 Te7 3.851614 1_455
Rb9 Te3 3.851621 1_455
Rb10 Te6 3.703005 1_556
Rb10 Te1 3.703013 1_556
Rb10 Te5 3.764524 1_555
Rb10 Te7 3.851614 1_565
Rb10 Te0 3.851621 1_565
Rb11 Te1 3.703004 1_556
Rb11 Te4 3.703005 1_556
Rb11 Te5 3.764532 1_555
Rb11 Te0 3.851611 1_555
Rb11 Te3 3.851611 1_555
In0 Te7 2.811456 1_555
In0 Te3 2.811475 1_555
In0 Te0 2.811475 1_555
In0 Te2 2.822376 1_556
In1 Te6 2.811456 1_555
In1 Te4 2.811475 1_555
In1 Te1 2.811475 1_555
In1 Te5 2.822376 1_555
Cl0 Rb0 3.264712 1_545
Cl0 Rb7 3.264720 1_555
Cl0 Rb1 3.264720 1_445
Cl0 Rb8 3.343467 1_455
Cl0 Rb4 3.343475 1_445
Cl0 Rb5 3.343475 1_555
Cl1 Rb8 3.264712 1_456
Cl1 Rb4 3.264720 1_446
Cl1 Rb5 3.264720 1_556
Cl1 Rb0 3.343467 1_545
Cl1 Rb7 3.343475 1_555
Cl1 Rb1 3.343475 1_445
