# generated using pymatgen
data_Mg2GeO4
_symmetry_space_group_name_H-M   'P 1'
_cell_length_a   5.83355940
_cell_length_b   5.83355941
_cell_length_c   5.83355944
_cell_angle_alpha   59.99999981
_cell_angle_beta   59.99999976
_cell_angle_gamma   60.00000648
_symmetry_Int_Tables_number   1
_chemical_formula_structural   Mg2GeO4
_chemical_formula_sum   'Mg4 Ge2 O8'
_cell_volume   140.37374889
_cell_formula_units_Z   2
loop_
 _symmetry_equiv_pos_site_id
 _symmetry_equiv_pos_as_xyz
  1  'x, y, z'
loop_
 _atom_site_type_symbol
 _atom_site_label
 _atom_site_symmetry_multiplicity
 _atom_site_fract_x
 _atom_site_fract_y
 _atom_site_fract_z
 _atom_site_occupancy
  Mg  Mg0  1  0.00000000  0.50000000  0.00000000  1
  Mg  Mg1  1  0.50000000  -0.00000000  0.00000000  1
  Mg  Mg2  1  0.00000000  -0.00000000  0.50000000  1
  Mg  Mg3  1  0.00000000  -0.00000000  0.00000000  1
  Ge  Ge0  1  0.37500000  0.37500000  0.37500000  1
  Ge  Ge1  1  0.62500000  0.62500000  0.62500000  1
  O  O0  1  0.25006193  0.25006193  0.74981121  1
  O  O1  1  0.74993807  0.74993807  0.74993807  1
  O  O2  1  0.74993807  0.25018879  0.74993807  1
  O  O3  1  0.25018879  0.74993807  0.74993807  1
  O  O4  1  0.74981121  0.25006193  0.25006193  1
  O  O5  1  0.25006193  0.25006193  0.25006193  1
  O  O6  1  0.74993807  0.74993807  0.25018879  1
  O  O7  1  0.25006193  0.74981121  0.25006193  1
loop_
_geom_bond_atom_site_label_1
_geom_bond_atom_site_label_2
_geom_bond_distance
_geom_bond_site_symmetry_2
Mg0 O5 2.062986 1_555
Mg0 O1 2.062986 1_454
Mg0 O3 2.062998 1_554
Mg0 O4 2.062998 1_455
Mg0 O6 2.062998 1_455
Mg0 O0 2.062998 1_554
Mg1 O5 2.062986 1_555
Mg1 O1 2.062986 1_544
Mg1 O7 2.062998 1_545
Mg1 O2 2.062998 1_554
Mg1 O0 2.062998 1_554
Mg1 O6 2.062998 1_545
Mg2 O5 2.062986 1_555
Mg2 O1 2.062986 1_445
Mg2 O4 2.062998 1_455
Mg2 O3 2.062998 1_545
Mg2 O7 2.062998 1_545
Mg2 O2 2.062998 1_455
Mg3 O0 2.062986 1_554
Mg3 O6 2.062986 1_445
Mg3 O4 2.062986 1_455
Mg3 O3 2.062986 1_544
Mg3 O2 2.062986 1_454
Mg3 O7 2.062986 1_545
Ge0 O0 1.785256 1_555
Ge0 O4 1.785256 1_555
Ge0 O7 1.785256 1_555
Ge0 O5 1.785271 1_555
Ge1 O6 1.785256 1_555
Ge1 O3 1.785256 1_555
Ge1 O2 1.785256 1_555
Ge1 O1 1.785271 1_555
