# generated using pymatgen
data_Na4Sr(SiSe3)2
_symmetry_space_group_name_H-M   'P 1'
_cell_length_a   7.09208179
_cell_length_b   7.09208204
_cell_length_c   7.93610887
_cell_angle_alpha   81.29885757
_cell_angle_beta   81.29885626
_cell_angle_gamma   119.82063140
_symmetry_Int_Tables_number   1
_chemical_formula_structural   Na4Sr(SiSe3)2
_chemical_formula_sum   'Na4 Sr1 Si2 Se6'
_cell_volume   330.17035773
_cell_formula_units_Z   1
loop_
 _symmetry_equiv_pos_site_id
 _symmetry_equiv_pos_as_xyz
  1  'x, y, z'
loop_
 _atom_site_type_symbol
 _atom_site_label
 _atom_site_symmetry_multiplicity
 _atom_site_fract_x
 _atom_site_fract_y
 _atom_site_fract_z
 _atom_site_occupancy
  Na  Na0  1  0.49978151  0.50021849  0.00000000  1
  Na  Na1  1  0.82840714  0.17159286  0.00000000  1
  Na  Na2  1  0.17159054  0.82840946  1.00000000  1
  Na  Na3  1  0.66641405  0.33358595  0.50000000  1
  Sr  Sr0  1  0.33381593  0.66618407  0.50000000  1
  Si  Si0  1  0.05030687  0.05037716  0.34559972  1
  Si  Si1  1  0.94962284  0.94969313  0.65440028  1
  Se  Se0  1  0.77929853  0.77446615  0.25261499  1
  Se  Se1  1  0.22553385  0.22070147  0.74738501  1
  Se  Se2  1  0.07765557  0.38666424  0.25127520  1
  Se  Se3  1  0.39074031  0.08650290  0.25111497  1
  Se  Se4  1  0.91349710  0.60925969  0.74888503  1
  Se  Se5  1  0.61333576  0.92234443  0.74872480  1
loop_
_geom_bond_atom_site_label_1
_geom_bond_atom_site_label_2
_geom_bond_distance
_geom_bond_site_symmetry_2
Na0 Se4 2.947268 1_554
Na0 Se3 2.947268 1_555
Na0 Se2 2.982895 1_555
Na0 Se5 2.982895 1_554
Na0 Se0 3.206139 1_555
Na0 Se1 3.206139 1_554
Na1 Se2 2.955183 1_655
Na1 Se5 2.955183 1_544
Na1 Se1 3.029461 1_654
Na1 Se0 3.029461 1_545
Na1 Se3 3.141961 1_555
Na1 Se4 3.141961 1_554
Na2 Se0 2.987930 1_456
Na2 Se1 2.987931 1_565
Na2 Se4 2.991487 1_455
Na2 Se3 2.991487 1_566
Na2 Se5 3.141255 1_555
Na2 Se2 3.141255 1_556
Na3 Se1 3.073998 1_555
Na3 Se0 3.073998 1_555
Na3 Se2 3.079890 1_655
Na3 Se5 3.079890 1_545
Na3 Se3 3.098812 1_555
Na3 Se4 3.098812 1_555
Se0 Si0 2.278850 1_665
Se0 Sr0 3.111274 1_555
Se1 Si1 2.278850 1_445
Se1 Sr0 3.111274 1_555
Se2 Si0 2.289522 1_555
Se2 Sr0 3.132671 1_555
Se3 Si0 2.288239 1_555
Se3 Sr0 3.119403 1_545
Se4 Si1 2.288239 1_555
Se4 Sr0 3.119403 1_655
Se5 Si1 2.289522 1_555
Se5 Sr0 3.132671 1_555
