# generated using pymatgen
data_K4LuIn3I16
_symmetry_space_group_name_H-M   'P 1'
_cell_length_a   8.22369227
_cell_length_b   8.35128346
_cell_length_c   16.92842527
_cell_angle_alpha   81.41033556
_cell_angle_beta   89.42028615
_cell_angle_gamma   90.56313198
_symmetry_Int_Tables_number   1
_chemical_formula_structural   K4LuIn3I16
_chemical_formula_sum   'K4 Lu1 In3 I16'
_cell_volume   1149.44179013
_cell_formula_units_Z   1
loop_
 _symmetry_equiv_pos_site_id
 _symmetry_equiv_pos_as_xyz
  1  'x, y, z'
loop_
 _atom_site_type_symbol
 _atom_site_label
 _atom_site_symmetry_multiplicity
 _atom_site_fract_x
 _atom_site_fract_y
 _atom_site_fract_z
 _atom_site_occupancy
  K  K0  1  0.49286688  0.25535592  0.64211436  1
  K  K1  1  0.98157628  0.73819963  0.85289436  1
  K  K2  1  0.50963318  0.74327381  0.35633012  1
  K  K3  1  0.00725335  0.26309481  0.15027324  1
  Lu  Lu0  1  0.14407788  0.23557990  0.86612250  1
  In  In0  1  0.36154715  0.24255301  0.36340312  1
  In  In1  1  0.86161731  0.76333967  0.13640558  1
  In  In2  1  0.63985628  0.75598576  0.63685815  1
  I  I0  1  0.83239595  0.11507826  0.91050390  1
  I  I1  1  0.34361911  0.87495374  0.58736120  1
  I  I2  1  0.16141705  0.88897696  0.08782360  1
  I  I3  1  0.66125528  0.12625825  0.41018144  1
  I  I4  1  0.39042593  0.44337634  0.21967805  1
  I  I5  1  0.88914926  0.56347754  0.28036187  1
  I  I6  1  0.61289483  0.54970750  0.77924597  1
  I  I7  1  0.11366481  0.44173353  0.72015177  1
  I  I8  1  0.64866565  0.00159877  0.16217600  1
  I  I9  1  0.14910658  0.99854978  0.34014255  1
  I  I10  1  0.35219165  0.98763941  0.83320487  1
  I  I11  1  0.85177581  0.00037310  0.65989364  1
  I  I12  1  0.24260819  0.42393548  0.47293991  1
  I  I13  1  0.74380884  0.57514034  0.02984907  1
  I  I14  1  0.75851064  0.57506611  0.52689935  1
  I  I15  1  0.25008512  0.43675339  0.97518639  1
loop_
_geom_bond_atom_site_label_1
_geom_bond_atom_site_label_2
_geom_bond_distance
_geom_bond_site_symmetry_2
I0 Lu0 2.798489 1_655
I0 K1 3.651165 1_545
I1 In2 2.732087 1_555
I1 K0 3.644703 1_565
I2 In1 2.739729 1_455
I2 K3 3.677494 1_565
I3 In0 2.738964 1_555
I3 K2 3.664861 1_545
I4 In0 2.747803 1_555
I4 K3 3.753219 1_555
I4 K2 3.783302 1_555
I5 In1 2.753086 1_555
I5 K3 3.706858 1_655
I5 K2 3.773188 1_555
I6 In2 2.751029 1_555
I6 K1 3.714003 1_555
I6 K0 3.756252 1_555
I7 Lu0 2.807649 1_555
I7 K1 3.744977 1_455
I7 K0 3.810352 1_555
I8 In1 2.743848 1_545
I8 K3 3.638097 1_655
I8 K2 3.810692 1_545
I9 In0 2.746494 1_565
I9 K2 3.657401 1_555
I9 K3 3.818137 1_565
I10 Lu0 2.814628 1_565
I10 K1 3.658833 1_455
I10 K0 3.809774 1_565
I11 In2 2.745237 1_545
I11 K0 3.645111 1_555
I11 K1 3.819362 1_545
I12 In0 2.742461 1_555
I12 K0 3.659391 1_555
I12 K2 3.749098 1_555
I13 In1 2.741351 1_555
I13 K1 3.641661 1_554
I13 K3 3.775457 1_655
I14 In2 2.744496 1_555
I14 K2 3.669361 1_555
I14 K0 3.734816 1_555
I15 Lu0 2.814547 1_555
I15 K3 3.662708 1_556
I15 K1 3.760880 1_455
