# generated using pymatgen
data_SrScSi4N7
_symmetry_space_group_name_H-M   'P 1'
_cell_length_a   5.90299347
_cell_length_b   5.90299330
_cell_length_c   9.60968790
_cell_angle_alpha   90.00000000
_cell_angle_beta   90.00000000
_cell_angle_gamma   119.99998445
_symmetry_Int_Tables_number   1
_chemical_formula_structural   SrScSi4N7
_chemical_formula_sum   'Sr2 Sc2 Si8 N14'
_cell_volume   289.99103715
_cell_formula_units_Z   2
loop_
 _symmetry_equiv_pos_site_id
 _symmetry_equiv_pos_as_xyz
  1  'x, y, z'
loop_
 _atom_site_type_symbol
 _atom_site_label
 _atom_site_symmetry_multiplicity
 _atom_site_fract_x
 _atom_site_fract_y
 _atom_site_fract_z
 _atom_site_occupancy
  Sr  Sr0  1  0.66666700  0.33333300  0.57865213  1
  Sr  Sr1  1  0.33333300  0.66666700  0.07865213  1
  Sc  Sc0  1  0.66666700  0.33333300  0.95100876  1
  Sc  Sc1  1  0.33333300  0.66666700  0.45100876  1
  Si  Si0  1  0.17366039  0.34731979  0.76087427  1
  Si  Si1  1  0.82633961  0.17366039  0.26087427  1
  Si  Si2  1  0.34731979  0.17366039  0.26087427  1
  Si  Si3  1  0.65268021  0.82633961  0.76087427  1
  Si  Si4  1  0.17366039  0.82633961  0.76087427  1
  Si  Si5  1  0.82633961  0.65268021  0.26087427  1
  Si  Si6  1  0.00000000  0.00000000  0.02466151  1
  Si  Si7  1  0.00000000  0.00000000  0.52466151  1
  N  N0  1  0.00000000  0.00000000  0.83299222  1
  N  N1  1  0.00000000  0.00000000  0.33299222  1
  N  N2  1  0.84298337  0.68596773  0.08351359  1
  N  N3  1  0.15701663  0.84298337  0.58351359  1
  N  N4  1  0.68596773  0.84298337  0.58351359  1
  N  N5  1  0.31403227  0.15701663  0.08351359  1
  N  N6  1  0.84298337  0.15701663  0.08351359  1
  N  N7  1  0.15701663  0.31403227  0.58351359  1
  N  N8  1  0.49201732  0.50798268  0.81744827  1
  N  N9  1  0.98403664  0.49201732  0.31744827  1
  N  N10  1  0.50798268  0.01596336  0.31744827  1
  N  N11  1  0.49201732  0.98403664  0.81744827  1
  N  N12  1  0.50798268  0.49201732  0.31744827  1
  N  N13  1  0.01596336  0.50798268  0.81744827  1
loop_
_geom_bond_atom_site_label_1
_geom_bond_atom_site_label_2
_geom_bond_distance
_geom_bond_site_symmetry_2
N0 Si6 1.841882 1_556
N0 Si0 1.906007 1_555
N0 Si3 1.906007 1_445
N0 Si4 1.906012 1_545
N1 Si7 1.841882 1_555
N1 Si5 1.906007 1_445
N1 Si2 1.906007 1_555
N1 Si1 1.906012 1_455
N2 Si6 1.702083 1_665
N2 Si5 1.712855 1_555
N2 Sc0 2.207072 1_554
N2 Sr1 2.953515 1_655
N2 Sr1 2.953515 1_555
N3 Si7 1.702087 1_565
N3 Si4 1.712855 1_555
N3 Sc1 2.207063 1_555
N3 Sr0 2.953516 1_455
N3 Sr0 2.953516 1_565
N4 Si7 1.702083 1_665
N4 Si3 1.712855 1_555
N4 Sc1 2.207072 1_555
N4 Sr0 2.953515 1_565
N4 Sr0 2.953515 1_555
N5 Si6 1.702083 1_555
N5 Si2 1.712855 1_555
N5 Sc0 2.207072 1_554
N5 Sr1 2.953515 1_545
N5 Sr1 2.953515 1_555
N6 Si6 1.702087 1_655
N6 Si1 1.712855 1_555
N6 Sc0 2.207063 1_554
N6 Sr1 2.953516 1_655
N6 Sr1 2.953516 1_545
N7 Si7 1.702083 1_555
N7 Si0 1.712855 1_555
N7 Sc1 2.207072 1_555
N7 Sr0 2.953515 1_455
N7 Sr0 2.953515 1_555
N8 Si3 1.715912 1_555
N8 Si0 1.715912 1_555
N8 Sc0 2.199072 1_555
N8 Sr0 2.907665 1_555
N8 Sr1 2.988784 1_556
N9 Si1 1.715911 1_555
N9 Si5 1.715926 1_555
N9 Sc1 2.199060 1_655
N9 Sr1 2.907656 1_655
N9 Sr0 2.988787 1_555
N10 Si1 1.715911 1_555
N10 Si2 1.715926 1_555
N10 Sc1 2.199060 1_545
N10 Sr1 2.907656 1_545
N10 Sr0 2.988787 1_555
N11 Si4 1.715911 1_555
N11 Si3 1.715926 1_555
N11 Sc0 2.199060 1_565
N11 Sr0 2.907656 1_565
N11 Sr1 2.988787 1_556
N12 Si2 1.715912 1_555
N12 Si5 1.715912 1_555
N12 Sc1 2.199072 1_555
N12 Sr1 2.907665 1_555
N12 Sr0 2.988784 1_555
N13 Si4 1.715911 1_555
N13 Si0 1.715926 1_555
N13 Sc0 2.199060 1_455
N13 Sr0 2.907656 1_455
N13 Sr1 2.988787 1_556
