# generated using pymatgen
data_Cu2GeIr3S8
_symmetry_space_group_name_H-M   'P 1'
_cell_length_a   6.96368275
_cell_length_b   7.02992487
_cell_length_c   7.02992434
_cell_angle_alpha   60.00000253
_cell_angle_beta   59.68482908
_cell_angle_gamma   59.68483254
_symmetry_Int_Tables_number   1
_chemical_formula_structural   Cu2GeIr3S8
_chemical_formula_sum   'Cu2 Ge1 Ir3 S8'
_cell_volume   242.18092211
_cell_formula_units_Z   1
loop_
 _symmetry_equiv_pos_site_id
 _symmetry_equiv_pos_as_xyz
  1  'x, y, z'
loop_
 _atom_site_type_symbol
 _atom_site_label
 _atom_site_symmetry_multiplicity
 _atom_site_fract_x
 _atom_site_fract_y
 _atom_site_fract_z
 _atom_site_occupancy
  Cu  Cu0  1  0.00026992  0.99990969  0.99990969  1
  Cu  Cu1  1  0.24973008  0.25009031  0.25009031  1
  Ge  Ge0  1  0.12500000  0.62500000  0.62500000  1
  Ir  Ir0  1  0.62500000  0.62500000  0.62500000  1
  Ir  Ir1  1  0.62500000  0.62500000  0.12500000  1
  Ir  Ir2  1  0.62500000  0.12500000  0.62500000  1
  S  S0  1  0.39084188  0.38104046  0.84707720  1
  S  S1  1  0.39084188  0.38104046  0.38104046  1
  S  S2  1  0.85915812  0.86895954  0.86895954  1
  S  S3  1  0.85915812  0.86895954  0.40292280  1
  S  S4  1  0.39084188  0.84707720  0.38104046  1
  S  S5  1  0.84441757  0.38519448  0.38519448  1
  S  S6  1  0.40558243  0.86480552  0.86480552  1
  S  S7  1  0.85915812  0.40292280  0.86895954  1
loop_
_geom_bond_atom_site_label_1
_geom_bond_atom_site_label_2
_geom_bond_distance
_geom_bond_site_symmetry_2
Cu0 S6 2.293496 1_555
Cu0 S2 2.309628 1_455
Cu0 S3 2.309634 1_456
Cu0 S7 2.309634 1_465
Cu1 S5 2.293496 1_455
Cu1 S1 2.309628 1_555
Cu1 S0 2.309634 1_554
Cu1 S4 2.309634 1_545
Ge0 S4 2.416759 1_555
Ge0 S7 2.416759 1_455
Ge0 S2 2.416759 1_455
Ge0 S1 2.416759 1_555
Ge0 S0 2.416759 1_555
Ge0 S3 2.416759 1_455
Ir0 S3 2.369222 1_555
Ir0 S0 2.369222 1_555
Ir0 S7 2.369222 1_555
Ir0 S4 2.369222 1_555
Ir0 S6 2.379045 1_555
Ir0 S5 2.379045 1_555
Ir1 S2 2.369222 1_554
Ir1 S1 2.369222 1_555
Ir1 S4 2.369222 1_555
Ir1 S7 2.369222 1_554
Ir1 S5 2.379051 1_555
Ir1 S6 2.379051 1_554
Ir2 S2 2.369222 1_545
Ir2 S1 2.369222 1_555
Ir2 S0 2.369222 1_555
Ir2 S3 2.369222 1_545
Ir2 S5 2.379051 1_555
Ir2 S6 2.379051 1_545
