# generated using pymatgen
data_BeB2Mo5
_symmetry_space_group_name_H-M   'P 1'
_cell_length_a   6.89438596
_cell_length_b   6.89438634
_cell_length_c   6.89438588
_cell_angle_alpha   128.80472470
_cell_angle_beta   128.80473059
_cell_angle_gamma   75.32498235
_symmetry_Int_Tables_number   1
_chemical_formula_structural   BeB2Mo5
_chemical_formula_sum   'Be2 B4 Mo10'
_cell_volume   193.70046468
_cell_formula_units_Z   2
loop_
 _symmetry_equiv_pos_site_id
 _symmetry_equiv_pos_as_xyz
  1  'x, y, z'
loop_
 _atom_site_type_symbol
 _atom_site_label
 _atom_site_symmetry_multiplicity
 _atom_site_fract_x
 _atom_site_fract_y
 _atom_site_fract_z
 _atom_site_occupancy
  Be  Be0  1  0.75000000  0.75000000  0.00000000  1
  Be  Be1  1  0.25000000  0.25000000  0.00000000  1
  B  B0  1  0.38122840  0.88122840  0.26245879  1
  B  B1  1  0.88122840  0.61877160  0.50000000  1
  B  B2  1  0.61877160  0.11877160  0.73754121  1
  B  B3  1  0.11877160  0.38122840  0.50000000  1
  Mo  Mo0  1  0.00000000  0.00000000  0.00000000  1
  Mo  Mo1  1  0.81016158  0.97629934  0.50000000  1
  Mo  Mo2  1  0.31016158  0.81016158  0.83386224  1
  Mo  Mo3  1  0.18983842  0.02370066  0.50000000  1
  Mo  Mo4  1  0.52370066  0.68983842  0.50000000  1
  Mo  Mo5  1  0.02370066  0.52370066  0.83386224  1
  Mo  Mo6  1  0.68983842  0.18983842  0.16613776  1
  Mo  Mo7  1  0.97629934  0.47629934  0.16613776  1
  Mo  Mo8  1  0.50000000  0.50000000  0.00000000  1
  Mo  Mo9  1  0.47629934  0.31016158  0.50000000  1
loop_
_geom_bond_atom_site_label_1
_geom_bond_atom_site_label_2
_geom_bond_distance
_geom_bond_site_symmetry_2
Be0 Mo3 2.506875 1_665
Be0 Mo4 2.506875 1_554
Be0 Mo2 2.506875 1_554
Be0 Mo1 2.506875 1_555
Be0 Mo9 2.506875 1_554
Be0 Mo7 2.506875 1_555
Be0 Mo5 2.506875 1_654
Be0 Mo6 2.506875 1_565
Be0 Mo8 2.728880 1_555
Be0 Mo0 2.728880 1_665
Be1 Mo1 2.506875 1_444
Be1 Mo9 2.506875 1_555
Be1 Mo6 2.506875 1_555
Be1 Mo3 2.506875 1_554
Be1 Mo4 2.506875 1_555
Be1 Mo5 2.506875 1_554
Be1 Mo7 2.506875 1_455
Be1 Mo2 2.506875 1_544
Be1 Mo8 2.728880 1_555
Be1 Mo0 2.728880 1_555
B0 B2 2.001299 1_565
B0 Mo4 2.328856 1_555
B0 Mo3 2.328856 1_565
B0 Mo1 2.328870 1_555
B0 Mo9 2.328871 1_565
B0 Mo0 2.378811 1_565
B0 Mo8 2.378811 1_555
B0 Mo5 2.388313 1_554
B0 Mo2 2.388327 1_554
B1 B3 2.001317 1_655
B1 Mo2 2.328867 1_655
B1 Mo5 2.328867 1_655
B1 Mo7 2.328867 1_555
B1 Mo6 2.328867 1_555
B1 Mo8 2.378807 1_555
B1 Mo0 2.378807 1_666
B1 Mo4 2.388314 1_555
B1 Mo1 2.388314 1_555
B2 Mo9 2.328856 1_555
B2 Mo1 2.328856 1_545
B2 Mo3 2.328870 1_555
B2 Mo4 2.328871 1_545
B2 Mo0 2.378811 1_656
B2 Mo8 2.378811 1_556
B2 Mo7 2.388313 1_556
B2 Mo6 2.388327 1_556
B3 Mo6 2.328867 1_455
B3 Mo7 2.328867 1_455
B3 Mo5 2.328867 1_555
B3 Mo2 2.328867 1_555
B3 Mo8 2.378807 1_556
B3 Mo0 2.378807 1_555
B3 Mo9 2.388314 1_555
B3 Mo3 2.388314 1_555
