# generated using pymatgen
data_Ba5Sb3Cl
_symmetry_space_group_name_H-M   'P 1'
_cell_length_a   10.15570306
_cell_length_b   10.15570252
_cell_length_c   7.92115054
_cell_angle_alpha   90.00000000
_cell_angle_beta   90.00000000
_cell_angle_gamma   119.99999853
_symmetry_Int_Tables_number   1
_chemical_formula_structural   Ba5Sb3Cl
_chemical_formula_sum   'Ba10 Sb6 Cl2'
_cell_volume   707.52024330
_cell_formula_units_Z   2
loop_
 _symmetry_equiv_pos_site_id
 _symmetry_equiv_pos_as_xyz
  1  'x, y, z'
loop_
 _atom_site_type_symbol
 _atom_site_label
 _atom_site_symmetry_multiplicity
 _atom_site_fract_x
 _atom_site_fract_y
 _atom_site_fract_z
 _atom_site_occupancy
  Ba  Ba0  1  0.25671245  0.00000000  0.25000000  1
  Ba  Ba1  1  0.00000000  0.74328755  0.75000000  1
  Ba  Ba2  1  0.74328755  0.74328755  0.25000000  1
  Ba  Ba3  1  0.25671245  0.25671245  0.75000000  1
  Ba  Ba4  1  0.74328755  1.00000000  0.75000000  1
  Ba  Ba5  1  0.00000000  0.25671245  0.25000000  1
  Ba  Ba6  1  0.66666700  0.33333300  0.50000000  1
  Ba  Ba7  1  0.33333300  0.66666700  0.00000000  1
  Ba  Ba8  1  0.33333300  0.66666700  0.50000000  1
  Ba  Ba9  1  0.66666700  0.33333300  0.00000000  1
  Sb  Sb0  1  0.60779843  0.60779843  0.75000000  1
  Sb  Sb1  1  0.00000000  0.60779843  0.25000000  1
  Sb  Sb2  1  0.60779843  0.00000000  0.25000000  1
  Sb  Sb3  1  0.39220157  0.00000000  0.75000000  1
  Sb  Sb4  1  0.00000000  0.39220157  0.75000000  1
  Sb  Sb5  1  0.39220157  0.39220157  0.25000000  1
  Cl  Cl0  1  0.00000000  0.00000000  0.50000000  1
  Cl  Cl1  1  0.00000000  0.00000000  0.00000000  1
loop_
_geom_bond_atom_site_label_1
_geom_bond_atom_site_label_2
_geom_bond_distance
_geom_bond_site_symmetry_2
Ba0 Cl1 3.273910 1_555
Ba0 Cl0 3.273910 1_555
Ba0 Sb5 3.503943 1_555
Ba0 Sb1 3.503943 1_545
Ba0 Sb2 3.565525 1_555
Ba0 Sb3 4.192791 1_555
Ba0 Sb3 4.192791 1_554
Ba1 Cl1 3.273910 1_566
Ba1 Cl0 3.273910 1_565
Ba1 Sb3 3.503943 1_565
Ba1 Sb0 3.503943 1_455
Ba1 Sb4 3.565525 1_555
Ba1 Sb1 4.192791 1_556
Ba1 Sb1 4.192791 1_555
Ba2 Cl0 3.273910 1_665
Ba2 Cl1 3.273910 1_665
Ba2 Sb2 3.503943 1_565
Ba2 Sb1 3.503943 1_655
Ba2 Sb5 3.565525 1_555
Ba2 Sb0 4.192791 1_554
Ba2 Sb0 4.192791 1_555
Ba3 Cl1 3.273910 1_556
Ba3 Cl0 3.273910 1_555
Ba3 Sb3 3.503943 1_555
Ba3 Sb4 3.503943 1_555
Ba3 Sb0 3.565525 1_555
Ba3 Sb5 4.192791 1_555
Ba3 Sb5 4.192791 1_556
Ba4 Cl1 3.273910 1_666
Ba4 Cl0 3.273910 1_665
Ba4 Sb0 3.503943 1_555
Ba4 Sb4 3.503943 1_665
Ba4 Sb3 3.565525 1_565
Ba4 Sb2 4.192791 1_565
Ba4 Sb2 4.192791 1_566
Ba5 Cl1 3.273910 1_555
Ba5 Cl0 3.273910 1_555
Ba5 Sb2 3.503943 1_455
Ba5 Sb5 3.503943 1_555
Ba5 Sb1 3.565525 1_555
Ba5 Sb4 4.192791 1_554
Ba5 Sb4 4.192791 1_555
Ba6 Sb2 3.703362 1_555
Ba6 Sb4 3.703362 1_655
Ba6 Sb3 3.703365 1_555
Ba6 Sb1 3.703365 1_655
Ba6 Sb0 3.703370 1_555
Ba6 Sb5 3.703370 1_555
Ba7 Sb3 3.703362 1_564
Ba7 Sb1 3.703362 1_555
Ba7 Sb2 3.703365 1_565
Ba7 Sb4 3.703365 1_554
Ba7 Sb5 3.703370 1_555
Ba7 Sb0 3.703370 1_554
Ba8 Sb3 3.703362 1_565
Ba8 Sb1 3.703362 1_555
Ba8 Sb2 3.703365 1_565
Ba8 Sb4 3.703365 1_555
Ba8 Sb5 3.703370 1_555
Ba8 Sb0 3.703370 1_555
Ba9 Sb2 3.703362 1_555
Ba9 Sb4 3.703362 1_654
Ba9 Sb3 3.703365 1_554
Ba9 Sb1 3.703365 1_655
Ba9 Sb0 3.703370 1_554
Ba9 Sb5 3.703370 1_555
