# generated using pymatgen
data_Sr3GeO
_symmetry_space_group_name_H-M   'P 1'
_cell_length_a   7.16585385
_cell_length_b   7.13911044
_cell_length_c   10.12552174
_cell_angle_alpha   90.00000000
_cell_angle_beta   90.00000000
_cell_angle_gamma   90.00000000
_symmetry_Int_Tables_number   1
_chemical_formula_structural   Sr3GeO
_chemical_formula_sum   'Sr12 Ge4 O4'
_cell_volume   517.99963916
_cell_formula_units_Z   4
loop_
 _symmetry_equiv_pos_site_id
 _symmetry_equiv_pos_as_xyz
  1  'x, y, z'
loop_
 _atom_site_type_symbol
 _atom_site_label
 _atom_site_symmetry_multiplicity
 _atom_site_fract_x
 _atom_site_fract_y
 _atom_site_fract_z
 _atom_site_occupancy
  Sr  Sr0  1  0.21934821  0.78143826  0.03073041  1
  Sr  Sr1  1  0.71934821  0.71856174  0.46926959  1
  Sr  Sr2  1  0.28065179  0.28143826  0.96926959  1
  Sr  Sr3  1  0.78065179  0.21856174  0.53073041  1
  Sr  Sr4  1  0.21934821  0.78143826  0.46926959  1
  Sr  Sr5  1  0.71934821  0.71856174  0.03073041  1
  Sr  Sr6  1  0.28065179  0.28143826  0.53073041  1
  Sr  Sr7  1  0.78065179  0.21856174  0.96926959  1
  Sr  Sr8  1  0.51004170  0.05914436  0.25000000  1
  Sr  Sr9  1  0.01004170  0.44085564  0.25000000  1
  Sr  Sr10  1  0.98995830  0.55914436  0.75000000  1
  Sr  Sr11  1  0.48995730  0.94085564  0.75000000  1
  Ge  Ge0  1  0.97529646  0.99455853  0.25000000  1
  Ge  Ge1  1  0.47529646  0.50544147  0.25000000  1
  Ge  Ge2  1  0.52470354  0.49455853  0.75000000  1
  Ge  Ge3  1  0.02470354  0.00544147  0.75000000  1
  O  O0  1  -0.00000000  0.50000000  0.50000000  1
  O  O1  1  0.50000000  -0.00000000  -0.00000000  1
  O  O2  1  0.50000000  -0.00000000  0.50000000  1
  O  O3  1  -0.00000000  0.50000000  -0.00000000  1
loop_
_geom_bond_atom_site_label_1
_geom_bond_atom_site_label_2
_geom_bond_distance
_geom_bond_site_symmetry_2
Ge0 Sr9 3.195878 1_665
Ge0 Sr4 3.209788 1_655
Ge0 Sr0 3.209788 1_655
Ge0 Sr8 3.365681 1_565
Ge0 Sr1 3.489357 1_555
Ge0 Sr5 3.489357 1_555
Ge0 Sr7 3.547236 1_564
Ge0 Sr3 3.547236 1_565
Ge1 Sr8 3.195878 1_555
Ge1 Sr1 3.209788 1_555
Ge1 Sr5 3.209788 1_555
Ge1 Sr9 3.365681 1_555
Ge1 Sr0 3.489357 1_555
Ge1 Sr4 3.489357 1_555
Ge1 Sr6 3.547236 1_555
Ge1 Sr2 3.547236 1_554
Ge2 Sr11 3.195878 1_555
Ge2 Sr2 3.209788 1_555
Ge2 Sr6 3.209788 1_555
Ge2 Sr10 3.365681 1_555
Ge2 Sr3 3.489357 1_555
Ge2 Sr7 3.489357 1_555
Ge2 Sr1 3.547236 1_555
Ge2 Sr5 3.547236 1_556
Ge3 Sr10 3.195878 1_445
Ge3 Sr3 3.209788 1_455
Ge3 Sr7 3.209788 1_455
Ge3 Sr11 3.365674 1_545
Ge3 Sr6 3.489357 1_555
Ge3 Sr2 3.489357 1_555
Ge3 Sr4 3.547236 1_545
Ge3 Sr0 3.547236 1_546
O0 Sr1 2.564378 1_455
O0 Sr6 2.564378 1_555
O0 Sr9 2.567362 1_555
O0 Sr10 2.567362 1_455
O0 Sr3 2.569901 1_455
O0 Sr4 2.569901 1_555
O1 Sr0 2.564378 1_545
O1 Sr7 2.564378 1_554
O1 Sr8 2.567362 1_555
O1 Sr11 2.567363 1_544
O1 Sr2 2.569901 1_554
O1 Sr5 2.569901 1_545
O2 Sr4 2.564378 1_545
O2 Sr3 2.564378 1_555
O2 Sr8 2.567362 1_555
O2 Sr11 2.567363 1_545
O2 Sr6 2.569901 1_555
O2 Sr1 2.569901 1_545
O3 Sr5 2.564378 1_455
O3 Sr2 2.564378 1_554
O3 Sr9 2.567362 1_555
O3 Sr10 2.567362 1_454
O3 Sr7 2.569901 1_454
O3 Sr0 2.569901 1_555
