# generated using pymatgen
data_Lu3ZrCdIr
_symmetry_space_group_name_H-M   'P 1'
_cell_length_a   9.27948692
_cell_length_b   9.27948718
_cell_length_c   9.27948739
_cell_angle_alpha   60.00000275
_cell_angle_beta   60.00000181
_cell_angle_gamma   60.00000013
_symmetry_Int_Tables_number   1
_chemical_formula_structural   Lu3ZrCdIr
_chemical_formula_sum   'Lu12 Zr4 Cd4 Ir4'
_cell_volume   565.01105294
_cell_formula_units_Z   4
loop_
 _symmetry_equiv_pos_site_id
 _symmetry_equiv_pos_as_xyz
  1  'x, y, z'
loop_
 _atom_site_type_symbol
 _atom_site_label
 _atom_site_symmetry_multiplicity
 _atom_site_fract_x
 _atom_site_fract_y
 _atom_site_fract_z
 _atom_site_occupancy
  Lu  Lu0  1  0.80943375  0.19056625  0.19056625  1
  Lu  Lu1  1  0.19056625  0.80943375  0.80943375  1
  Lu  Lu2  1  0.19056625  0.80943375  0.19056625  1
  Lu  Lu3  1  0.80943375  0.19056625  0.80943375  1
  Lu  Lu4  1  0.19056625  0.19056625  0.80943375  1
  Lu  Lu5  1  0.80943375  0.80943375  0.19056625  1
  Lu  Lu6  1  0.94088411  0.55911589  0.55911589  1
  Lu  Lu7  1  0.55911589  0.94088411  0.94088411  1
  Lu  Lu8  1  0.55911589  0.94088411  0.55911589  1
  Lu  Lu9  1  0.94088411  0.55911589  0.94088411  1
  Lu  Lu10  1  0.55911589  0.55911589  0.94088411  1
  Lu  Lu11  1  0.94088411  0.94088411  0.55911589  1
  Zr  Zr0  1  0.34969521  0.34969521  0.34969521  1
  Zr  Zr1  1  0.34969521  0.34969521  0.95091336  1
  Zr  Zr2  1  0.34969521  0.95091336  0.34969521  1
  Zr  Zr3  1  0.95091336  0.34969521  0.34969521  1
  Cd  Cd0  1  0.58122274  0.58122274  0.58122274  1
  Cd  Cd1  1  0.58122274  0.58122274  0.25633178  1
  Cd  Cd2  1  0.58122274  0.25633178  0.58122274  1
  Cd  Cd3  1  0.25633178  0.58122274  0.58122274  1
  Ir  Ir0  1  0.14545278  0.14545278  0.14545278  1
  Ir  Ir1  1  0.14545278  0.14545278  0.56364166  1
  Ir  Ir2  1  0.14545278  0.56364166  0.14545278  1
  Ir  Ir3  1  0.56364166  0.14545278  0.14545278  1
loop_
_geom_bond_atom_site_label_1
_geom_bond_atom_site_label_2
_geom_bond_distance
_geom_bond_site_symmetry_2
Lu0 Lu10 3.460317 1_554
Lu0 Lu9 3.460317 1_554
Lu0 Lu11 3.460317 1_545
Lu0 Lu8 3.460317 1_545
Lu1 Lu10 3.460317 1_555
Lu1 Lu11 3.460317 1_455
Lu1 Lu9 3.460317 1_455
Lu1 Lu8 3.460317 1_555
Lu2 Lu7 3.460317 1_554
Lu2 Lu6 3.460317 1_455
Lu3 Lu7 3.460317 1_545
Lu3 Lu6 3.460317 1_555
Lu4 Lu7 3.460317 1_545
Lu4 Lu9 3.460317 1_455
Lu4 Lu8 3.460317 1_545
Lu4 Lu6 3.460317 1_455
Lu5 Lu7 3.460317 1_554
Lu5 Lu9 3.460317 1_554
Lu5 Lu8 3.460317 1_555
Lu5 Lu6 3.460317 1_555
Lu6 Zr0 3.313057 1_655
Lu6 Zr3 3.313063 1_555
Lu6 Lu8 3.542613 1_555
Lu6 Lu9 3.542613 1_555
Lu7 Zr1 3.313055 1_565
Lu7 Zr2 3.313055 1_556
Lu7 Lu9 3.542613 1_555
Lu7 Lu8 3.542613 1_555
Lu8 Zr0 3.313057 1_565
Lu8 Zr2 3.313063 1_555
Lu9 Zr1 3.313054 1_655
Lu9 Zr3 3.313055 1_556
Lu10 Zr0 3.313058 1_556
Lu10 Zr1 3.313063 1_555
Lu10 Lu3 3.460317 1_555
Lu10 Lu2 3.460317 1_556
Lu10 Lu9 3.542613 1_555
Lu10 Lu7 3.542613 1_555
Lu10 Lu6 3.542613 1_555
Lu10 Lu8 3.542614 1_555
Lu11 Zr2 3.313055 1_655
Lu11 Zr3 3.313055 1_565
Lu11 Lu3 3.460317 1_565
Lu11 Lu2 3.460317 1_655
Lu11 Lu8 3.542613 1_555
Lu11 Lu6 3.542613 1_555
Lu11 Lu7 3.542613 1_555
Lu11 Lu9 3.542614 1_555
Cd0 Cd3 3.014821 1_555
Cd0 Cd2 3.014821 1_555
Cd0 Cd1 3.014822 1_555
Cd0 Lu6 3.145739 1_555
Cd0 Lu8 3.145739 1_555
Cd0 Lu10 3.145739 1_555
Cd0 Zr3 3.297798 1_555
Cd0 Zr2 3.297798 1_555
Cd0 Zr1 3.297798 1_555
Cd0 Lu1 3.352825 1_555
Cd0 Lu3 3.352825 1_555
Cd0 Lu5 3.352825 1_555
Cd1 Cd3 3.014822 1_555
Cd1 Cd2 3.014822 1_555
Cd1 Lu10 3.145739 1_554
Cd1 Lu9 3.145739 1_554
Cd1 Lu7 3.145739 1_554
Cd1 Zr3 3.297793 1_555
Cd1 Zr2 3.297793 1_555
Cd1 Zr0 3.297801 1_555
Cd1 Lu2 3.352825 1_555
Cd1 Lu5 3.352825 1_555
Cd1 Lu0 3.352825 1_555
Cd2 Cd3 3.014821 1_555
Cd2 Lu11 3.145739 1_545
Cd2 Lu8 3.145739 1_545
Cd2 Lu7 3.145739 1_545
Cd2 Zr3 3.297793 1_555
Cd2 Zr1 3.297793 1_555
Cd2 Zr0 3.297801 1_555
Cd2 Lu3 3.352825 1_555
Cd2 Lu4 3.352825 1_555
Cd2 Lu0 3.352825 1_555
Cd3 Lu6 3.145739 1_455
Cd3 Lu11 3.145739 1_455
Cd3 Lu9 3.145739 1_455
Cd3 Zr2 3.297793 1_555
Cd3 Zr1 3.297793 1_555
Cd3 Zr0 3.297801 1_555
Cd3 Lu1 3.352825 1_555
Cd3 Lu4 3.352825 1_555
Cd3 Lu2 3.352825 1_555
Ir0 Zr2 2.681821 1_545
Ir0 Zr3 2.681821 1_455
Ir0 Zr1 2.681821 1_554
Ir0 Lu0 2.763613 1_455
Ir0 Lu2 2.763613 1_545
Ir0 Lu4 2.763613 1_554
Ir0 Lu7 3.312363 1_544
Ir0 Lu9 3.312363 1_454
Ir0 Lu11 3.312363 1_445
Ir1 Zr0 2.681822 1_555
Ir1 Zr2 2.681828 1_545
Ir1 Zr3 2.681828 1_455
Ir1 Lu3 2.763613 1_455
Ir1 Lu4 2.763613 1_555
Ir1 Lu1 2.763613 1_545
Ir1 Lu8 3.312363 1_545
Ir1 Lu11 3.312363 1_445
Ir1 Lu6 3.312363 1_455
Ir2 Zr0 2.681822 1_555
Ir2 Zr1 2.681828 1_554
Ir2 Zr3 2.681828 1_455
Ir2 Lu5 2.763613 1_455
Ir2 Lu2 2.763613 1_555
Ir2 Lu1 2.763613 1_554
Ir2 Lu9 3.312363 1_454
Ir2 Lu10 3.312363 1_554
Ir2 Lu6 3.312363 1_455
Ir3 Zr0 2.681822 1_555
Ir3 Zr1 2.681828 1_554
Ir3 Zr2 2.681828 1_545
Ir3 Lu0 2.763613 1_555
Ir3 Lu5 2.763613 1_545
Ir3 Lu3 2.763613 1_554
Ir3 Lu7 3.312363 1_544
Ir3 Lu10 3.312363 1_554
Ir3 Lu8 3.312363 1_545
