# generated using pymatgen
data_K8Hf6BeCl20
_symmetry_space_group_name_H-M   'P 1'
_cell_length_a   10.96490222
_cell_length_b   10.96490199
_cell_length_c   10.96490205
_cell_angle_alpha   59.99999981
_cell_angle_beta   60.00000051
_cell_angle_gamma   60.00000295
_symmetry_Int_Tables_number   1
_chemical_formula_structural   K8Hf6BeCl20
_chemical_formula_sum   'K8 Hf6 Be1 Cl20'
_cell_volume   932.17893822
_cell_formula_units_Z   1
loop_
 _symmetry_equiv_pos_site_id
 _symmetry_equiv_pos_as_xyz
  1  'x, y, z'
loop_
 _atom_site_type_symbol
 _atom_site_label
 _atom_site_symmetry_multiplicity
 _atom_site_fract_x
 _atom_site_fract_y
 _atom_site_fract_z
 _atom_site_occupancy
  K  K0  1  0.35996837  0.35996837  0.35996837  1
  K  K1  1  0.64003163  0.64003163  0.64003163  1
  K  K2  1  0.35996837  0.35996837  0.92009488  1
  K  K3  1  0.35996837  0.92009488  0.35996837  1
  K  K4  1  0.64003163  0.64003163  0.07990512  1
  K  K5  1  0.64003163  0.07990512  0.64003163  1
  K  K6  1  0.92009488  0.35996837  0.35996837  1
  K  K7  1  0.07990512  0.64003163  0.64003163  1
  Hf  Hf0  1  0.85256145  0.14743855  0.14743855  1
  Hf  Hf1  1  0.14743855  0.85256145  0.85256145  1
  Hf  Hf2  1  0.14743855  0.85256145  0.14743855  1
  Hf  Hf3  1  0.85256145  0.14743855  0.85256145  1
  Hf  Hf4  1  0.14743855  0.14743855  0.85256145  1
  Hf  Hf5  1  0.85256145  0.85256145  0.14743855  1
  Be  Be0  1  0.00000000  0.00000000  0.00000000  1
  Cl  Cl0  1  0.32998161  1.00000000  0.00000000  1
  Cl  Cl1  1  0.67001839  0.00000000  1.00000000  1
  Cl  Cl2  1  1.00000000  0.32998161  0.67001839  1
  Cl  Cl3  1  0.00000000  0.67001839  0.32998161  1
  Cl  Cl4  1  1.00000000  0.32998161  0.00000000  1
  Cl  Cl5  1  0.67001839  0.00000000  0.32998161  1
  Cl  Cl6  1  0.00000000  0.67001839  1.00000000  1
  Cl  Cl7  1  0.32998161  1.00000000  0.67001839  1
  Cl  Cl8  1  0.00000000  0.00000000  0.32998161  1
  Cl  Cl9  1  0.00000000  0.00000000  0.67001839  1
  Cl  Cl10  1  0.67001839  0.32998161  0.00000000  1
  Cl  Cl11  1  0.32998161  0.67001839  1.00000000  1
  Cl  Cl12  1  0.68162217  0.31837783  0.31837783  1
  Cl  Cl13  1  0.31837783  0.68162217  0.68162217  1
  Cl  Cl14  1  0.31837783  0.68162217  0.31837783  1
  Cl  Cl15  1  0.68162217  0.31837783  0.68162217  1
  Cl  Cl16  1  0.31837783  0.31837783  0.68162217  1
  Cl  Cl17  1  0.68162217  0.68162217  0.31837783  1
  Cl  Cl18  1  0.25000000  0.25000000  0.25000000  1
  Cl  Cl19  1  0.75000000  0.75000000  0.75000000  1
loop_
_geom_bond_atom_site_label_1
_geom_bond_atom_site_label_2
_geom_bond_distance
_geom_bond_site_symmetry_2
Be0 Hf4 2.286287 1_554
Be0 Hf5 2.286287 1_445
Be0 Hf2 2.286287 1_545
Be0 Hf0 2.286287 1_455
Be0 Hf3 2.286287 1_454
Be0 Hf1 2.286287 1_544
Cl0 Hf2 2.572902 1_555
Cl0 Hf4 2.572902 1_564
Cl1 Hf3 2.572902 1_555
Cl1 Hf5 2.572902 1_546
Cl2 Hf3 2.572902 1_555
Cl2 Hf4 2.572902 1_655
Cl3 Hf2 2.572902 1_555
Cl3 Hf5 2.572902 1_455
Cl4 Hf0 2.572902 1_555
Cl4 Hf4 2.572902 1_654
Cl5 Hf0 2.572902 1_555
Cl5 Hf5 2.572902 1_545
Cl6 Hf1 2.572902 1_555
Cl6 Hf5 2.572902 1_456
Cl7 Hf1 2.572902 1_555
Cl7 Hf4 2.572902 1_565
Cl8 Hf0 2.572902 1_455
Cl8 Hf2 2.572902 1_545
Cl9 Hf3 2.572902 1_455
Cl9 Hf1 2.572902 1_545
Cl10 Hf0 2.572902 1_555
Cl10 Hf3 2.572902 1_554
Cl11 Hf1 2.572902 1_555
Cl11 Hf2 2.572902 1_556
Cl12 Hf0 2.650706 1_555
Cl12 K5 3.137859 1_555
Cl12 K4 3.137859 1_555
Cl12 K6 3.137859 1_555
Cl12 K0 3.137859 1_555
Cl13 Hf1 2.650706 1_555
Cl13 K3 3.137859 1_555
Cl13 K2 3.137859 1_555
Cl13 K7 3.137859 1_555
Cl13 K1 3.137859 1_555
Cl14 Hf2 2.650706 1_555
Cl14 K3 3.137859 1_555
Cl14 K0 3.137859 1_555
Cl14 K7 3.137859 1_555
Cl14 K4 3.137859 1_555
Cl15 Hf3 2.650706 1_555
Cl15 K5 3.137859 1_555
Cl15 K1 3.137859 1_555
Cl15 K6 3.137859 1_555
Cl15 K2 3.137859 1_555
Cl16 Hf4 2.650706 1_555
Cl16 K0 3.137859 1_555
Cl16 K2 3.137859 1_555
Cl16 K7 3.137859 1_555
Cl16 K5 3.137859 1_555
Cl17 Hf5 2.650706 1_555
Cl17 K1 3.137859 1_555
Cl17 K4 3.137859 1_555
Cl17 K6 3.137859 1_555
Cl17 K3 3.137859 1_555
Cl18 K0 2.953576 1_555
Cl18 K2 2.953576 1_554
Cl18 K3 2.953576 1_545
Cl18 K6 2.953576 1_455
Cl19 K4 2.953576 1_556
Cl19 K1 2.953576 1_555
Cl19 K5 2.953576 1_565
Cl19 K7 2.953576 1_655
