# generated using pymatgen
data_Ca4ZnSi6Pd
_symmetry_space_group_name_H-M   'P 1'
_cell_length_a   8.29797908
_cell_length_b   8.15186543
_cell_length_c   5.97432752
_cell_angle_alpha   70.01565973
_cell_angle_beta   67.40415393
_cell_angle_gamma   42.58018628
_symmetry_Int_Tables_number   1
_chemical_formula_structural   Ca4ZnSi6Pd
_chemical_formula_sum   'Ca4 Zn1 Si6 Pd1'
_cell_volume   251.32886724
_cell_formula_units_Z   1
loop_
 _symmetry_equiv_pos_site_id
 _symmetry_equiv_pos_as_xyz
  1  'x, y, z'
loop_
 _atom_site_type_symbol
 _atom_site_label
 _atom_site_symmetry_multiplicity
 _atom_site_fract_x
 _atom_site_fract_y
 _atom_site_fract_z
 _atom_site_occupancy
  Ca  Ca0  1  0.75254501  0.75254501  0.74745499  1
  Ca  Ca1  1  0.75003954  0.24485280  0.75514720  1
  Ca  Ca2  1  0.25254501  0.25254501  0.24745499  1
  Ca  Ca3  1  0.24485280  0.75003954  0.24996046  1
  Zn  Zn0  1  0.66624481  0.66624481  0.33375519  1
  Si  Si0  1  0.83706136  0.32529595  0.16293864  1
  Si  Si1  1  0.66294673  0.16904758  0.33705327  1
  Si  Si2  1  0.16904758  0.66294673  0.83095242  1
  Si  Si3  1  0.32529595  0.83706136  0.67470405  1
  Si  Si4  1  0.16804742  0.16804742  0.83195258  1
  Si  Si5  1  0.83775258  0.83775258  0.16224742  1
  Pd  Pd0  1  0.33362220  0.33362220  0.66637780  1
loop_
_geom_bond_atom_site_label_1
_geom_bond_atom_site_label_2
_geom_bond_distance
_geom_bond_site_symmetry_2
Ca0 Si1 3.175764 1_565
Ca0 Si2 3.175764 1_655
Ca0 Pd0 3.198876 1_565
Ca0 Pd0 3.198877 1_655
Ca0 Si4 3.216464 1_655
Ca0 Si4 3.216465 1_565
Ca0 Si5 3.220194 1_555
Ca0 Si5 3.220194 1_556
Ca0 Zn0 3.225986 1_556
Ca0 Zn0 3.225986 1_555
Ca0 Si0 3.258082 1_556
Ca0 Si3 3.258082 1_555
Ca1 Si5 3.121633 1_546
Ca1 Si0 3.166732 1_556
Ca1 Si3 3.166732 1_645
Ca1 Pd0 3.195061 1_555
Ca1 Si1 3.200505 1_555
Ca1 Si2 3.200506 1_555
Ca1 Si2 3.201364 1_645
Ca1 Si1 3.201364 1_556
Ca1 Si4 3.234560 1_655
Ca1 Zn0 3.246241 1_555
Ca1 Si3 3.258442 1_555
Ca1 Si0 3.258442 1_555
Ca2 Si2 3.175764 1_554
Ca2 Si1 3.175764 1_555
Ca2 Pd0 3.198877 1_554
Ca2 Pd0 3.198877 1_555
Ca2 Si4 3.216464 1_555
Ca2 Si4 3.216464 1_554
Ca2 Si5 3.220194 1_455
Ca2 Si5 3.220194 1_545
Ca2 Zn0 3.225986 1_545
Ca2 Zn0 3.225986 1_455
Ca2 Si3 3.258082 1_545
Ca2 Si0 3.258082 1_455
Ca3 Si5 3.121633 1_455
Ca3 Si0 3.166731 1_465
Ca3 Si3 3.166732 1_554
Ca3 Pd0 3.195061 1_555
Ca3 Si1 3.200505 1_555
Ca3 Si2 3.200505 1_555
Ca3 Si2 3.201364 1_554
Ca3 Si1 3.201364 1_465
Ca3 Si4 3.234560 1_564
Ca3 Zn0 3.246242 1_555
Ca3 Si3 3.258442 1_555
Ca3 Si0 3.258442 1_555
Si0 Si1 2.332678 1_555
Si0 Si4 2.339030 1_654
Si0 Zn0 2.408520 1_555
Si1 Si5 2.341591 1_545
Si2 Si3 2.332678 1_555
Si2 Si5 2.341591 1_456
Si3 Si4 2.339029 1_565
Si3 Zn0 2.408520 1_555
Si5 Zn0 2.420834 1_555
Pd0 Si2 2.326399 1_555
Pd0 Si1 2.326399 1_555
Pd0 Si4 2.337090 1_555
