# generated using pymatgen
data_Ta6Co4As2C
_symmetry_space_group_name_H-M   'P 1'
_cell_length_a   7.97103644
_cell_length_b   7.97103620
_cell_length_c   7.97103609
_cell_angle_alpha   59.99999632
_cell_angle_beta   59.99999730
_cell_angle_gamma   60.00000200
_symmetry_Int_Tables_number   1
_chemical_formula_structural   Ta6Co4As2C
_chemical_formula_sum   'Ta12 Co8 As4 C2'
_cell_volume   358.12062943
_cell_formula_units_Z   2
loop_
 _symmetry_equiv_pos_site_id
 _symmetry_equiv_pos_as_xyz
  1  'x, y, z'
loop_
 _atom_site_type_symbol
 _atom_site_label
 _atom_site_symmetry_multiplicity
 _atom_site_fract_x
 _atom_site_fract_y
 _atom_site_fract_z
 _atom_site_occupancy
  Ta  Ta0  1  0.05659656  0.05659656  0.44340344  1
  Ta  Ta1  1  0.44340344  0.05659656  0.44340344  1
  Ta  Ta2  1  0.05659656  0.44340344  0.44340344  1
  Ta  Ta3  1  0.44340344  0.44340344  0.05659656  1
  Ta  Ta4  1  0.05659656  0.44340344  0.05659656  1
  Ta  Ta5  1  0.44340344  0.05659656  0.05659656  1
  Ta  Ta6  1  0.19340344  0.19340344  0.80659656  1
  Ta  Ta7  1  0.80659656  0.19340344  0.80659656  1
  Ta  Ta8  1  0.19340344  0.80659656  0.80659656  1
  Ta  Ta9  1  0.80659656  0.80659656  0.19340344  1
  Ta  Ta10  1  0.19340344  0.80659656  0.19340344  1
  Ta  Ta11  1  0.80659656  0.19340344  0.19340344  1
  Co  Co0  1  0.41654422  0.41654422  0.75037035  1
  Co  Co1  1  0.41654422  0.75037035  0.41654422  1
  Co  Co2  1  0.75037035  0.41654422  0.41654422  1
  Co  Co3  1  0.41654422  0.41654422  0.41654422  1
  Co  Co4  1  0.83345578  0.83345578  0.49962965  1
  Co  Co5  1  0.83345578  0.49962965  0.83345578  1
  Co  Co6  1  0.49962965  0.83345578  0.83345578  1
  Co  Co7  1  0.83345578  0.83345578  0.83345578  1
  As  As0  1  0.62500000  0.62500000  0.12500000  1
  As  As1  1  0.62500000  0.12500000  0.62500000  1
  As  As2  1  0.12500000  0.62500000  0.62500000  1
  As  As3  1  0.62500000  0.62500000  0.62500000  1
  C  C0  1  0.25000000  0.25000000  0.25000000  1
  C  C1  1  0.00000000  0.00000000  0.00000000  1
loop_
_geom_bond_atom_site_label_1
_geom_bond_atom_site_label_2
_geom_bond_distance
_geom_bond_site_symmetry_2
Co0 Co1 2.660940 1_555
Co0 Co2 2.660940 1_555
Co0 Co3 2.660940 1_555
Co0 Ta3 2.672244 1_556
Co0 Ta5 2.672258 1_556
Co0 Ta4 2.672258 1_556
Co0 Ta8 2.845585 1_555
Co0 Ta7 2.845585 1_555
Co0 Ta6 2.845605 1_555
Co1 Co3 2.660940 1_555
Co1 Co2 2.660940 1_555
Co1 Ta1 2.672244 1_565
Co1 Ta5 2.672258 1_565
Co1 Ta0 2.672258 1_565
Co1 Ta8 2.845584 1_555
Co1 Ta9 2.845584 1_555
Co1 Ta10 2.845605 1_555
Co2 Co3 2.660940 1_555
Co2 Ta2 2.672245 1_655
Co2 Ta4 2.672258 1_655
Co2 Ta0 2.672258 1_655
Co2 Ta9 2.845584 1_555
Co2 Ta7 2.845584 1_555
Co2 Ta11 2.845605 1_555
Co3 Ta3 2.672268 1_555
Co3 Ta1 2.672268 1_555
Co3 Ta2 2.672268 1_555
Co3 Ta6 2.845594 1_555
Co3 Ta10 2.845594 1_555
Co3 Ta11 2.845594 1_555
Co4 Co5 2.660940 1_555
Co4 Co6 2.660940 1_555
Co4 Co7 2.660940 1_555
Co4 Ta9 2.672244 1_555
Co4 Ta11 2.672258 1_565
Co4 Ta10 2.672258 1_655
Co4 Ta2 2.845585 1_655
Co4 Ta1 2.845585 1_565
Co4 Ta0 2.845605 1_665
Co5 Co7 2.660940 1_555
Co5 Co6 2.660940 1_555
Co5 Ta7 2.672244 1_555
Co5 Ta11 2.672258 1_556
Co5 Ta6 2.672258 1_655
Co5 Ta2 2.845584 1_655
Co5 Ta3 2.845584 1_556
Co5 Ta4 2.845605 1_656
Co6 Co7 2.660940 1_555
Co6 Ta8 2.672245 1_555
Co6 Ta10 2.672258 1_556
Co6 Ta6 2.672258 1_565
Co6 Ta3 2.845584 1_556
Co6 Ta1 2.845584 1_565
Co6 Ta5 2.845605 1_566
Co7 Ta9 2.672268 1_556
Co7 Ta7 2.672268 1_565
Co7 Ta8 2.672268 1_655
Co7 Ta0 2.845594 1_665
Co7 Ta4 2.845594 1_656
Co7 Ta5 2.845594 1_566
As0 Co7 2.441419 1_554
As0 Co3 2.441419 1_555
As0 Co2 2.441432 1_555
As0 Co6 2.441432 1_554
As0 Co1 2.441432 1_555
As0 Co5 2.441432 1_554
As0 Ta5 2.856865 1_565
As0 Ta11 2.856865 1_555
As0 Ta9 2.856865 1_555
As0 Ta3 2.856865 1_555
As0 Ta4 2.856865 1_655
As0 Ta10 2.856865 1_555
As1 Co7 2.441419 1_545
As1 Co3 2.441419 1_555
As1 Co2 2.441432 1_555
As1 Co6 2.441432 1_545
As1 Co0 2.441432 1_555
As1 Co4 2.441432 1_545
As1 Ta5 2.856864 1_556
As1 Ta11 2.856864 1_555
As1 Ta0 2.856865 1_655
As1 Ta6 2.856865 1_555
As1 Ta7 2.856865 1_555
As1 Ta1 2.856865 1_555
As2 Co7 2.441419 1_455
As2 Co3 2.441419 1_555
As2 Co1 2.441432 1_555
As2 Co5 2.441432 1_455
As2 Co0 2.441433 1_555
As2 Co4 2.441433 1_455
As2 Ta4 2.856864 1_556
As2 Ta10 2.856864 1_555
As2 Ta0 2.856864 1_565
As2 Ta6 2.856864 1_555
As2 Ta8 2.856865 1_555
As2 Ta2 2.856865 1_555
As3 Co4 2.441413 1_555
As3 Co0 2.441413 1_555
As3 Co6 2.441413 1_555
As3 Co2 2.441413 1_555
As3 Co5 2.441413 1_555
As3 Co1 2.441413 1_555
As3 Ta3 2.856864 1_556
As3 Ta9 2.856864 1_555
As3 Ta1 2.856865 1_565
As3 Ta7 2.856865 1_555
As3 Ta2 2.856865 1_655
As3 Ta8 2.856865 1_555
C0 Ta3 2.180188 1_555
C0 Ta0 2.180188 1_555
C0 Ta2 2.180188 1_555
C0 Ta1 2.180188 1_555
C0 Ta4 2.180188 1_555
C0 Ta5 2.180188 1_555
C1 Ta6 2.180188 1_554
C1 Ta9 2.180188 1_445
C1 Ta11 2.180188 1_455
C1 Ta10 2.180188 1_545
C1 Ta8 2.180188 1_544
C1 Ta7 2.180188 1_454
