# generated using pymatgen
data_Hf6Si5Tc6As
_symmetry_space_group_name_H-M   'P 1'
_cell_length_a   7.71312613
_cell_length_b   7.71389533
_cell_length_c   7.71231626
_cell_angle_alpha   126.60900903
_cell_angle_beta   127.93011206
_cell_angle_gamma   77.81466508
_symmetry_Int_Tables_number   1
_chemical_formula_structural   Hf6Si5Tc6As
_chemical_formula_sum   'Hf6 Si5 Tc6 As1'
_cell_volume   281.63780090
_cell_formula_units_Z   1
loop_
 _symmetry_equiv_pos_site_id
 _symmetry_equiv_pos_as_xyz
  1  'x, y, z'
loop_
 _atom_site_type_symbol
 _atom_site_label
 _atom_site_symmetry_multiplicity
 _atom_site_fract_x
 _atom_site_fract_y
 _atom_site_fract_z
 _atom_site_occupancy
  Hf  Hf0  1  0.44794296  0.65726259  0.70524585  1
  Hf  Hf1  1  0.54634383  0.24956189  0.19982762  1
  Hf  Hf2  1  0.74959763  0.85303857  0.59931831  1
  Hf  Hf3  1  0.25398538  0.85313008  0.10332495  1
  Hf  Hf4  1  0.04962814  0.24993050  0.70297550  1
  Hf  Hf5  1  0.95195009  0.65682850  0.20884357  1
  Si  Si0  1  0.25027437  0.25327625  0.50339593  1
  Si  Si1  1  0.74977118  0.25312839  0.00302108  1
  Si  Si2  1  0.33321591  0.58636211  0.25298210  1
  Si  Si3  1  0.66758133  0.91992627  0.25316920  1
  Si  Si4  1  0.16597688  0.92021623  0.75383603  1
  Tc  Tc0  1  0.49999646  0.50713421  0.00752736  1
  Tc  Tc1  1  0.00168777  0.50773451  0.50620430  1
  Tc  Tc2  1  0.12721642  0.25374813  0.12643934  1
  Tc  Tc3  1  0.87315238  0.00237209  0.12937202  1
  Tc  Tc4  1  0.37272053  0.99884819  0.62600731  1
  Tc  Tc5  1  0.62564579  0.25010775  0.62458078  1
  As  As0  1  0.83331196  0.58698973  0.75352773  1
loop_
_geom_bond_atom_site_label_1
_geom_bond_atom_site_label_2
_geom_bond_distance
_geom_bond_site_symmetry_2
Hf0 Si4 2.686602 1_555
Hf0 Si3 2.695975 1_556
Hf0 Si2 2.717126 1_555
Hf0 Si0 2.785863 1_555
Hf0 Tc4 2.914163 1_555
Hf0 Tc1 2.933043 1_555
Hf0 Tc3 2.941747 1_566
Hf0 Tc0 2.968217 1_556
Hf0 Tc2 2.972760 1_555
Hf0 Tc5 3.005094 1_555
Hf1 Si4 2.685244 1_544
Hf1 Si3 2.698204 1_545
Hf1 Si2 2.715784 1_555
Hf1 Si1 2.786120 1_555
Hf1 Tc2 2.915567 1_555
Hf1 Tc5 2.937089 1_555
Hf1 Tc3 2.950291 1_555
Hf1 Tc4 2.952589 1_544
Hf1 Tc0 2.972868 1_555
Hf1 Tc1 3.003682 1_655
Hf2 Si3 2.687394 1_555
Hf2 Si4 2.695142 1_655
Hf2 Si2 2.714756 1_555
Hf2 Si1 2.784723 1_566
Hf2 Tc0 2.915138 1_555
Hf2 Tc5 2.935082 1_565
Hf2 Tc1 2.939422 1_655
Hf2 Tc2 2.969974 1_666
Hf2 Tc4 2.972667 1_555
Hf2 Tc3 3.000645 1_566
Hf3 Si3 2.688717 1_555
Hf3 Si4 2.694355 1_554
Hf3 Si2 2.715708 1_555
Hf3 Si0 2.785806 1_565
Hf3 Tc0 2.916085 1_555
Hf3 Tc5 2.934513 1_565
Hf3 Tc1 2.937757 1_554
Hf3 Tc2 2.969780 1_565
Hf3 Tc4 2.973807 1_555
Hf3 Tc3 3.002689 1_465
Hf4 Si4 2.687302 1_545
Hf4 Si3 2.695274 1_445
Hf4 Si2 2.715232 1_556
Hf4 Si0 2.785278 1_555
Hf4 Tc2 2.918037 1_556
Hf4 Tc5 2.937394 1_455
Hf4 Tc3 2.947574 1_455
Hf4 Tc4 2.953605 1_545
Hf4 Tc0 2.973333 1_556
Hf4 Tc1 2.998956 1_555
Hf5 Si4 2.686982 1_655
Hf5 Si3 2.694772 1_555
Hf5 Si2 2.715612 1_655
Hf5 Si1 2.785713 1_555
Hf5 Tc4 2.915216 1_655
Hf5 Tc1 2.933810 1_655
Hf5 Tc3 2.942199 1_565
Hf5 Tc0 2.966989 1_555
Hf5 Tc2 2.970557 1_655
Hf5 Tc5 3.001901 1_554
Si0 Tc5 2.434632 1_555
Si0 Tc3 2.435198 1_455
Si0 Tc1 2.437461 1_555
Si0 Tc0 2.442548 1_556
Si0 Tc4 2.443599 1_545
Si0 Tc2 2.443671 1_555
Si1 Tc3 2.434691 1_555
Si1 Tc5 2.434885 1_554
Si1 Tc1 2.437829 1_655
Si1 Tc0 2.441206 1_555
Si1 Tc4 2.443261 1_544
Si1 Tc2 2.444438 1_655
Si2 Tc2 2.624535 1_555
Si2 Tc0 2.625629 1_555
Si2 Tc4 2.628189 1_555
Si3 Tc3 2.615572 1_565
Si3 Tc5 2.624210 1_565
Si3 Tc0 2.632734 1_555
Si4 Tc1 2.618468 1_555
Si4 Tc2 2.622976 1_566
Si4 Tc4 2.633810 1_555
As0 Tc3 2.646972 1_566
As0 Tc1 2.649177 1_655
As0 Tc5 2.650324 1_555
As0 Hf2 2.729622 1_555
As0 Hf4 2.730454 1_655
As0 Hf5 2.731272 1_556
As0 Hf1 2.732141 1_555
As0 Hf3 2.732333 1_656
As0 Hf0 2.732671 1_555
