# generated using pymatgen
data_YMg3P7N12
_symmetry_space_group_name_H-M   'P 1'
_cell_length_a   7.26920228
_cell_length_b   7.26920277
_cell_length_c   7.26920277
_cell_angle_alpha   109.51098533
_cell_angle_beta   109.51098508
_cell_angle_gamma   109.51096989
_symmetry_Int_Tables_number   1
_chemical_formula_structural   YMg3P7N12
_chemical_formula_sum   'Y1 Mg3 P7 N12'
_cell_volume   295.25514470
_cell_formula_units_Z   1
loop_
 _symmetry_equiv_pos_site_id
 _symmetry_equiv_pos_as_xyz
  1  'x, y, z'
loop_
 _atom_site_type_symbol
 _atom_site_label
 _atom_site_symmetry_multiplicity
 _atom_site_fract_x
 _atom_site_fract_y
 _atom_site_fract_z
 _atom_site_occupancy
  Y  Y0  1  0.32851714  0.32851714  0.32851714  1
  Mg  Mg0  1  0.00364880  0.65319561  0.00364880  1
  Mg  Mg1  1  0.65319561  0.00364880  0.00364880  1
  Mg  Mg2  1  0.00364880  0.00364880  0.65319561  1
  P  P0  1  0.50497713  0.25139590  0.75631710  1
  P  P1  1  0.50497713  0.75631710  0.25139590  1
  P  P2  1  0.75631710  0.25139590  0.50497713  1
  P  P3  1  0.25139590  0.50497713  0.75631710  1
  P  P4  1  0.75631710  0.50497713  0.25139590  1
  P  P5  1  0.25139590  0.75631710  0.50497713  1
  P  P6  1  0.96638300  0.96638300  0.96638300  1
  N  N0  1  0.00255237  0.72693008  0.43159270  1
  N  N1  1  0.28386064  0.70660635  0.28386064  1
  N  N2  1  0.27919000  0.57177975  0.57177975  1
  N  N3  1  0.57177975  0.57177975  0.27919000  1
  N  N4  1  0.57177975  0.27919000  0.57177975  1
  N  N5  1  0.72693008  0.00255237  0.43159270  1
  N  N6  1  0.43159270  0.00255237  0.72693008  1
  N  N7  1  0.72693008  0.43159270  0.00255237  1
  N  N8  1  0.28386064  0.28386064  0.70660635  1
  N  N9  1  0.70660635  0.28386064  0.28386064  1
  N  N10  1  0.00255237  0.43159270  0.72693008  1
  N  N11  1  0.43159270  0.72693008  0.00255237  1
loop_
_geom_bond_atom_site_label_1
_geom_bond_atom_site_label_2
_geom_bond_distance
_geom_bond_site_symmetry_2
Mg0 N10 2.111275 1_554
Mg0 N7 2.111275 1_455
Mg0 N1 2.149611 1_555
Mg0 P6 2.470762 1_454
Mg1 N6 2.111275 1_554
Mg1 N11 2.111275 1_545
Mg1 N9 2.149611 1_555
Mg1 P6 2.470762 1_544
Mg2 N5 2.111275 1_455
Mg2 N0 2.111275 1_545
Mg2 N8 2.149612 1_555
Mg2 P6 2.470762 1_445
P6 Y0 2.627255 1_666
N0 P4 1.617374 1_455
N0 P5 1.619722 1_555
N1 P5 1.640786 1_555
N1 P1 1.640786 1_555
N2 P5 1.620714 1_555
N2 P3 1.620714 1_555
N2 Y0 2.267346 1_555
N3 P4 1.620714 1_555
N3 P1 1.620714 1_555
N3 Y0 2.267347 1_555
N4 P2 1.620714 1_555
N4 P0 1.620714 1_555
N4 Y0 2.267346 1_555
N5 P1 1.617374 1_545
N5 P2 1.619722 1_555
N6 P5 1.617374 1_545
N6 P0 1.619722 1_555
N7 P0 1.617374 1_554
N7 P4 1.619722 1_555
N8 P0 1.640786 1_555
N8 P3 1.640786 1_555
N9 P2 1.640786 1_555
N9 P4 1.640786 1_555
N10 P2 1.617374 1_455
N10 P3 1.619722 1_555
N11 P3 1.617374 1_554
N11 P1 1.619722 1_555
