# generated using pymatgen
data_Ti6Si6Tc5Ir
_symmetry_space_group_name_H-M   'P 1'
_cell_length_a   7.49564941
_cell_length_b   7.49552310
_cell_length_c   7.49552258
_cell_angle_alpha   126.40881099
_cell_angle_beta   129.09510122
_cell_angle_gamma   77.04657673
_symmetry_Int_Tables_number   1
_chemical_formula_structural   Ti6Si6Tc5Ir
_chemical_formula_sum   'Ti6 Si6 Tc5 Ir1'
_cell_volume   255.32738608
_cell_formula_units_Z   1
loop_
 _symmetry_equiv_pos_site_id
 _symmetry_equiv_pos_as_xyz
  1  'x, y, z'
loop_
 _atom_site_type_symbol
 _atom_site_label
 _atom_site_symmetry_multiplicity
 _atom_site_fract_x
 _atom_site_fract_y
 _atom_site_fract_z
 _atom_site_occupancy
  Ti  Ti0  1  0.45218014  0.40537032  0.44789885  1
  Ti  Ti1  1  0.54781986  0.99571871  0.95319018  1
  Ti  Ti2  1  0.04231674  0.99579582  0.44817086  1
  Ti  Ti3  1  0.95768326  0.40585312  0.95347908  1
  Ti  Ti4  1  0.24598946  0.60947748  0.85571680  1
  Ti  Ti5  1  0.75401054  0.60972834  0.36348702  1
  Si  Si0  1  0.16616285  0.66736031  0.50177403  1
  Si  Si1  1  0.83383715  0.33561118  0.50119846  1
  Si  Si2  1  0.66422967  0.66443230  0.99982228  1
  Si  Si3  1  0.33577033  0.33559161  0.00020263  1
  Si  Si4  1  0.24787137  0.00504353  0.25313381  1
  Si  Si5  1  0.75212863  0.00526243  0.75717316  1
  Tc  Tc0  1  0.37108033  0.74545238  0.37452156  1
  Tc  Tc1  1  0.62891967  0.00344123  0.37437205  1
  Tc  Tc2  1  0.86973425  0.74325677  0.87335273  1
  Tc  Tc3  1  0.13026575  0.00361748  0.87352252  1
  Tc  Tc4  1  1.00000000  0.26500851  0.26500851  1
  Ir  Ir0  1  0.50000000  0.26397747  0.76397747  1
loop_
_geom_bond_atom_site_label_1
_geom_bond_atom_site_label_2
_geom_bond_distance
_geom_bond_site_symmetry_2
Si0 Tc4 2.517698 1_455
Si0 Tc3 2.548306 1_565
Si0 Tc0 2.554461 1_555
Si0 Ti1 2.598640 1_555
Si0 Ti2 2.600544 1_555
Si0 Ti4 2.613905 1_555
Si0 Ti5 2.614032 1_455
Si0 Ti0 2.622733 1_555
Si0 Ti3 2.623889 1_454
Si1 Tc4 2.517705 1_555
Si1 Tc2 2.548306 1_555
Si1 Tc1 2.554456 1_555
Si1 Ti0 2.598638 1_555
Si1 Ti3 2.600541 1_555
Si1 Ti5 2.613923 1_555
Si1 Ti4 2.614038 1_655
Si1 Ti1 2.622736 1_544
Si1 Ti2 2.623890 1_645
Si2 Tc2 2.556373 1_555
Si2 Tc1 2.564347 1_566
Si2 Ti1 2.593056 1_555
Si2 Ti2 2.594157 1_656
Si2 Ti5 2.634542 1_556
Si2 Ti4 2.635238 1_555
Si2 Ti0 2.639294 1_555
Si2 Ti3 2.639834 1_555
Si3 Tc3 2.556373 1_554
Si3 Tc0 2.564351 1_555
Si3 Ti0 2.593052 1_555
Si3 Ti3 2.594157 1_454
Si3 Ti4 2.634562 1_554
Si3 Ti5 2.635246 1_555
Si3 Ti1 2.639289 1_544
Si3 Ti2 2.639829 1_544
Si4 Tc4 2.374126 1_455
Si4 Tc2 2.382008 1_444
Si4 Tc3 2.382863 1_554
Si4 Tc0 2.388093 1_545
Si4 Tc1 2.389116 1_555
Si4 Ti4 2.673196 1_544
Si4 Ti0 2.742408 1_555
Si4 Ti2 2.743162 1_545
Si5 Tc4 2.374121 1_556
Si5 Tc3 2.382010 1_655
Si5 Tc2 2.382864 1_545
Si5 Tc1 2.388100 1_555
Si5 Tc0 2.389115 1_545
Si5 Ti5 2.673200 1_545
Si5 Ti1 2.742401 1_545
Si5 Ti3 2.743159 1_555
Tc0 Ti3 2.776204 1_454
Tc0 Ti0 2.778098 1_555
Tc0 Ti4 2.857432 1_554
Tc0 Ti5 2.858478 1_555
Tc0 Ti1 2.880193 1_555
Tc0 Ti2 2.882981 1_555
Tc1 Ti2 2.776201 1_645
Tc1 Ti1 2.778097 1_544
Tc1 Ti5 2.857423 1_545
Tc1 Ti4 2.858476 1_544
Tc1 Ti0 2.880194 1_555
Tc1 Ti3 2.882978 1_555
Tc2 Ti3 2.783432 1_555
Tc2 Ti0 2.785261 1_555
Tc2 Ti4 2.832302 1_655
Tc2 Ti5 2.833236 1_555
Tc2 Ti1 2.862030 1_555
Tc2 Ti2 2.864778 1_656
Tc3 Ti2 2.783428 1_545
Tc3 Ti1 2.785262 1_545
Tc3 Ti5 2.832295 1_445
Tc3 Ti4 2.833219 1_545
Tc3 Ti0 2.862032 1_556
Tc3 Ti3 2.864778 1_455
Tc4 Ti4 2.817359 1_655
Tc4 Ti5 2.817363 1_555
Tc4 Ti1 2.915571 1_544
Tc4 Ti0 2.915571 1_655
Tc4 Ti3 2.917152 1_554
Tc4 Ti2 2.917158 1_645
Ir0 Si4 2.386600 1_555
Ir0 Si5 2.386600 1_555
Ir0 Si2 2.502632 1_555
Ir0 Si3 2.502634 1_556
Ir0 Ti5 2.851539 1_556
Ir0 Ti4 2.851543 1_555
Ir0 Ti0 2.933250 1_555
Ir0 Ti1 2.933251 1_545
Ir0 Ti3 2.935022 1_555
Ir0 Ti2 2.935025 1_545
