# generated using pymatgen
data_Ga2PdI8
_symmetry_space_group_name_H-M   'P 1'
_cell_length_a   7.66057061
_cell_length_b   8.25988108
_cell_length_c   8.25988195
_cell_angle_alpha   65.13821362
_cell_angle_beta   85.25723322
_cell_angle_gamma   85.25723635
_symmetry_Int_Tables_number   1
_chemical_formula_structural   Ga2PdI8
_chemical_formula_sum   'Ga2 Pd1 I8'
_cell_volume   471.92297023
_cell_formula_units_Z   1
loop_
 _symmetry_equiv_pos_site_id
 _symmetry_equiv_pos_as_xyz
  1  'x, y, z'
loop_
 _atom_site_type_symbol
 _atom_site_label
 _atom_site_symmetry_multiplicity
 _atom_site_fract_x
 _atom_site_fract_y
 _atom_site_fract_z
 _atom_site_occupancy
  Ga  Ga0  1  0.66008903  0.21060276  0.21060276  1
  Ga  Ga1  1  0.33991097  0.78939724  0.78939724  1
  Pd  Pd0  1  -0.00000000  0.00000000  -0.00000000  1
  I  I0  1  0.14893244  0.67599201  0.09429512  1
  I  I1  1  0.85106756  0.90570488  0.32400799  1
  I  I2  1  0.34898190  0.16729082  0.16729082  1
  I  I3  1  0.65101810  0.83270918  0.83270918  1
  I  I4  1  0.14893244  0.09429512  0.67599201  1
  I  I5  1  0.85106756  0.32400799  0.90570488  1
  I  I6  1  0.69197714  0.38755176  0.38755176  1
  I  I7  1  0.30802286  0.61244824  0.61244824  1
loop_
_geom_bond_atom_site_label_1
_geom_bond_atom_site_label_2
_geom_bond_distance
_geom_bond_site_symmetry_2
Ga0 I6 2.499286 1_555
Ga0 I2 2.515054 1_555
Ga0 I1 2.644611 1_545
Ga0 I5 2.644611 1_554
Ga1 I7 2.499286 1_555
Ga1 I3 2.515054 1_555
Ga1 I4 2.644611 1_565
Ga1 I0 2.644611 1_556
I0 Pd0 2.638181 1_565
I1 Pd0 2.638181 1_665
I4 Pd0 2.638181 1_556
I5 Pd0 2.638181 1_656
