# generated using pymatgen
data_Ca8TaNbN8
_symmetry_space_group_name_H-M   'P 1'
_cell_length_a   6.05520656
_cell_length_b   6.06028025
_cell_length_c   9.20602754
_cell_angle_alpha   72.04326937
_cell_angle_beta   82.28692598
_cell_angle_gamma   69.23337312
_symmetry_Int_Tables_number   1
_chemical_formula_structural   Ca8TaNbN8
_chemical_formula_sum   'Ca8 Ta1 Nb1 N8'
_cell_volume   300.37451699
_cell_formula_units_Z   1
loop_
 _symmetry_equiv_pos_site_id
 _symmetry_equiv_pos_as_xyz
  1  'x, y, z'
loop_
 _atom_site_type_symbol
 _atom_site_label
 _atom_site_symmetry_multiplicity
 _atom_site_fract_x
 _atom_site_fract_y
 _atom_site_fract_z
 _atom_site_occupancy
  Ca  Ca0  1  0.24107880  0.95302735  0.60105509  1
  Ca  Ca1  1  0.74157933  0.61891694  0.19610714  1
  Ca  Ca2  1  0.76157561  0.23712241  0.98828028  1
  Ca  Ca3  1  0.25535647  0.53330004  0.41943026  1
  Ca  Ca4  1  0.75851316  0.04691150  0.39882599  1
  Ca  Ca5  1  0.25844009  0.38168168  0.80327595  1
  Ca  Ca6  1  0.74518679  0.46593411  0.58077433  1
  Ca  Ca7  1  0.23757148  0.76273737  0.01093542  1
  Ta  Ta0  1  0.71973287  0.84817772  0.76139777  1
  Nb  Nb0  1  0.27970682  0.15131002  0.23821787  1
  N  N0  1  0.97495022  0.71255314  0.62409679  1
  N  N1  1  0.52772565  0.17138249  0.62891511  1
  N  N2  1  0.02354147  0.28894980  0.37724055  1
  N  N3  1  0.51938696  0.63582468  0.79832624  1
  N  N4  1  0.16648402  0.15940086  0.04747112  1
  N  N5  1  0.47454977  0.82581092  0.37304820  1
  N  N6  1  0.48207287  0.36598397  0.20150598  1
  N  N7  1  0.83254761  0.84097599  0.95109694  1
loop_
_geom_bond_atom_site_label_1
_geom_bond_atom_site_label_2
_geom_bond_distance
_geom_bond_site_symmetry_2
Ca0 N0 2.479644 1_455
Ca0 N3 2.491010 1_555
Ca0 N2 2.522993 1_565
Ca0 N5 2.535221 1_555
Ca0 N1 2.605203 1_565
Ca1 N7 2.350013 1_554
Ca1 N5 2.440212 1_555
Ca1 N2 2.445708 1_655
Ca1 N6 2.541923 1_555
Ca2 N7 2.408551 1_545
Ca2 N4 2.431372 1_656
Ca2 N6 2.538437 1_556
Ca2 N3 2.572395 1_555
Ca3 N5 2.477097 1_555
Ca3 N2 2.507796 1_555
Ca3 N6 2.542758 1_555
Ca3 N0 2.590069 1_455
Ca3 N1 2.632561 1_555
Ca4 N2 2.484020 1_655
Ca4 N6 2.489156 1_555
Ca4 N0 2.525798 1_545
Ca4 N1 2.540048 1_555
Ca4 N5 2.597624 1_545
Ca5 N4 2.346724 1_556
Ca5 N1 2.438202 1_555
Ca5 N0 2.442970 1_455
Ca5 N3 2.556176 1_555
Ca6 N1 2.477727 1_555
Ca6 N0 2.513854 1_555
Ca6 N3 2.545346 1_555
Ca6 N2 2.571321 1_655
Ca6 N5 2.614234 1_555
Ca7 N4 2.408948 1_565
Ca7 N7 2.433113 1_454
Ca7 N3 2.536824 1_554
Ca7 N6 2.573516 1_555
N0 Ta0 1.969014 1_555
N1 Ta0 1.992124 1_545
N2 Nb0 1.986877 1_555
N3 Ta0 1.992500 1_555
N4 Nb0 1.949941 1_555
N5 Nb0 2.014167 1_565
N6 Nb0 2.014077 1_555
N7 Ta0 1.941769 1_555
