# generated using pymatgen
data_CaMgPd3O8
_symmetry_space_group_name_H-M   'P 1'
_cell_length_a   6.06542716
_cell_length_b   10.50279345
_cell_length_c   6.52742915
_cell_angle_alpha   105.56303523
_cell_angle_beta   62.30638268
_cell_angle_gamma   90.00576005
_symmetry_Int_Tables_number   1
_chemical_formula_structural   CaMgPd3O8
_chemical_formula_sum   'Ca2 Mg2 Pd6 O16'
_cell_volume   350.88518586
_cell_formula_units_Z   2
loop_
 _symmetry_equiv_pos_site_id
 _symmetry_equiv_pos_as_xyz
  1  'x, y, z'
loop_
 _atom_site_type_symbol
 _atom_site_label
 _atom_site_symmetry_multiplicity
 _atom_site_fract_x
 _atom_site_fract_y
 _atom_site_fract_z
 _atom_site_occupancy
  Ca  Ca0  1  0.74999650  0.74999906  0.50000241  1
  Ca  Ca1  1  0.24999680  0.24999857  0.50000358  1
  Mg  Mg0  1  0.50000168  0.49999911  0.99999961  1
  Mg  Mg1  1  0.00000233  0.99999825  0.99999800  1
  Pd  Pd0  1  0.74996341  0.75001653  0.00001544  1
  Pd  Pd1  1  0.74999696  0.25001588  0.00001492  1
  Pd  Pd2  1  0.00001417  0.49998619  0.99999627  1
  Pd  Pd3  1  0.24997393  0.25001757  0.00001383  1
  Pd  Pd4  1  0.25000105  0.75001474  0.00001386  1
  Pd  Pd5  1  0.50001258  0.99998316  0.99999865  1
  O  O0  1  0.09012315  0.63661580  0.81972315  1
  O  O1  1  0.59012067  0.13661718  0.81972550  1
  O  O2  1  0.40989349  0.86337769  0.18025317  1
  O  O3  1  0.90989377  0.36337838  0.18025168  1
  O  O4  1  0.35479335  0.88172933  0.80939144  1
  O  O5  1  0.85479273  0.38172817  0.80939110  1
  O  O6  1  0.90472660  0.85874861  0.19058026  1
  O  O7  1  0.40472817  0.35874580  0.19057954  1
  O  O8  1  0.14520274  0.61826982  0.19060803  1
  O  O9  1  0.64520556  0.11827078  0.19061190  1
  O  O10  1  0.66421964  0.61825961  0.19057413  1
  O  O11  1  0.16421262  0.11826145  0.19057938  1
  O  O12  1  0.83578968  0.88173643  0.80942161  1
  O  O13  1  0.33578628  0.38173597  0.80942377  1
  O  O14  1  0.59527661  0.64124870  0.80941901  1
  O  O15  1  0.09527852  0.14124621  0.80941676  1
loop_
_geom_bond_atom_site_label_1
_geom_bond_atom_site_label_2
_geom_bond_distance
_geom_bond_site_symmetry_2
Ca0 O14 2.395901 1_555
Ca0 O4 2.395909 1_555
Ca0 O6 2.395924 1_555
Ca0 O8 2.395925 1_655
Ca0 O10 2.396165 1_555
Ca0 O12 2.396170 1_555
Ca1 O15 2.395898 1_555
Ca1 O5 2.395908 1_455
Ca1 O7 2.395916 1_555
Ca1 O9 2.395925 1_555
Ca1 O13 2.396162 1_555
Ca1 O11 2.396162 1_555
Mg0 O14 2.098624 1_555
Mg0 O7 2.098655 1_556
Mg0 O5 2.098693 1_555
Mg0 O10 2.098722 1_556
Mg0 O13 2.098728 1_555
Mg0 O8 2.098728 1_556
Mg1 O15 2.098612 1_565
Mg1 O6 2.098632 1_456
Mg1 O4 2.098684 1_555
Mg1 O12 2.098712 1_455
Mg1 O9 2.098725 1_466
Mg1 O11 2.098729 1_566
O0 Pd2 2.012644 1_555
O0 Pd0 2.012923 1_456
O0 Pd4 2.013010 1_556
O1 Pd5 2.012684 1_545
O1 Pd3 2.012863 1_556
O1 Pd1 2.012996 1_556
O2 Pd5 2.012344 1_554
O2 Pd0 2.012349 1_555
O2 Pd4 2.012694 1_555
O3 Pd2 2.012370 1_654
O3 Pd3 2.012394 1_655
O3 Pd1 2.012702 1_555
O4 Pd4 2.013527 1_556
O4 Pd5 2.013846 1_555
O5 Pd1 2.013513 1_556
O5 Pd2 2.013867 1_655
O6 Pd4 2.013502 1_655
O6 Pd0 2.013814 1_555
O7 Pd1 2.013459 1_555
O7 Pd3 2.013761 1_555
O8 Pd4 2.013679 1_555
O8 Pd2 2.013872 1_554
O9 Pd1 2.013691 1_555
O9 Pd5 2.013917 1_544
O10 Pd0 2.013655 1_555
O10 Pd2 2.013744 1_654
O11 Pd3 2.013675 1_555
O11 Pd5 2.013791 1_544
O12 Pd0 2.013466 1_556
O12 Pd5 2.013541 1_555
O13 Pd3 2.013438 1_556
O13 Pd2 2.013536 1_555
O14 Pd4 2.013639 1_556
O14 Pd0 2.013757 1_556
O15 Pd1 2.013681 1_456
O15 Pd3 2.013814 1_556
