# generated using pymatgen
data_Sc6AlCrO12
_symmetry_space_group_name_H-M   'P 1'
_cell_length_a   6.08056100
_cell_length_b   6.08056114
_cell_length_c   6.08056164
_cell_angle_alpha   91.92733620
_cell_angle_beta   91.92734095
_cell_angle_gamma   91.92732987
_symmetry_Int_Tables_number   1
_chemical_formula_structural   Sc6AlCrO12
_chemical_formula_sum   'Sc6 Al1 Cr1 O12'
_cell_volume   224.42762843
_cell_formula_units_Z   1
loop_
 _symmetry_equiv_pos_site_id
 _symmetry_equiv_pos_as_xyz
  1  'x, y, z'
loop_
 _atom_site_type_symbol
 _atom_site_label
 _atom_site_symmetry_multiplicity
 _atom_site_fract_x
 _atom_site_fract_y
 _atom_site_fract_z
 _atom_site_occupancy
  Sc  Sc0  1  0.74508492  0.92930675  0.43702124  1
  Sc  Sc1  1  0.07069325  0.56297876  0.25491508  1
  Sc  Sc2  1  0.56297876  0.25491508  0.07069325  1
  Sc  Sc3  1  0.43702124  0.74508492  0.92930675  1
  Sc  Sc4  1  0.92930675  0.43702124  0.74508492  1
  Sc  Sc5  1  0.25491508  0.07069325  0.56297876  1
  Al  Al0  1  0.50000000  0.50000000  0.50000000  1
  Cr  Cr0  1  0.00000000  0.00000000  0.00000000  1
  O  O0  1  0.69188968  0.92618335  0.08446483  1
  O  O1  1  0.07381665  0.91553517  0.30811032  1
  O  O2  1  0.41220058  0.54097413  0.20079873  1
  O  O3  1  0.91553517  0.30811032  0.07381665  1
  O  O4  1  0.45902587  0.79920127  0.58779942  1
  O  O5  1  0.79920127  0.58779942  0.45902587  1
  O  O6  1  0.20079873  0.41220058  0.54097413  1
  O  O7  1  0.54097413  0.20079873  0.41220058  1
  O  O8  1  0.08446483  0.69188968  0.92618335  1
  O  O9  1  0.58779942  0.45902587  0.79920127  1
  O  O10  1  0.92618335  0.08446483  0.69188968  1
  O  O11  1  0.30811032  0.07381665  0.91553517  1
loop_
_geom_bond_atom_site_label_1
_geom_bond_atom_site_label_2
_geom_bond_distance
_geom_bond_site_symmetry_2
Al0 O4 1.905542 1_555
Al0 O7 1.905542 1_555
Al0 O5 1.905542 1_555
Al0 O6 1.905542 1_555
Al0 O2 1.905542 1_555
Al0 O9 1.905542 1_555
Cr0 O3 1.999712 1_455
Cr0 O8 1.999712 1_544
Cr0 O11 1.999712 1_554
Cr0 O0 1.999712 1_445
Cr0 O1 1.999712 1_545
Cr0 O10 1.999712 1_454
O0 Sc3 2.054599 1_554
O0 Sc0 2.156575 1_555
O0 Sc2 2.174664 1_565
O1 Sc5 2.054599 1_565
O1 Sc1 2.156575 1_555
O1 Sc0 2.174664 1_455
O2 Sc3 2.104832 1_554
O2 Sc1 2.121310 1_555
O2 Sc2 2.134343 1_555
O3 Sc1 2.054599 1_655
O3 Sc2 2.156575 1_555
O3 Sc4 2.174664 1_554
O4 Sc5 2.104832 1_565
O4 Sc3 2.121310 1_555
O4 Sc0 2.134343 1_555
O5 Sc1 2.104832 1_655
O5 Sc0 2.121310 1_555
O5 Sc4 2.134343 1_555
O6 Sc4 2.104832 1_455
O6 Sc5 2.121310 1_555
O6 Sc1 2.134343 1_555
O7 Sc0 2.104832 1_545
O7 Sc2 2.121310 1_555
O7 Sc5 2.134343 1_555
O8 Sc4 2.054599 1_455
O8 Sc3 2.156575 1_555
O8 Sc1 2.174664 1_556
O9 Sc2 2.104832 1_556
O9 Sc4 2.121310 1_555
O9 Sc3 2.134343 1_555
O10 Sc0 2.054599 1_545
O10 Sc4 2.156575 1_555
O10 Sc5 2.174664 1_655
O11 Sc2 2.054599 1_556
O11 Sc5 2.156575 1_555
O11 Sc3 2.174664 1_545
