# generated using pymatgen
data_Zr2Mn3V
_symmetry_space_group_name_H-M   'P 1'
_cell_length_a   5.12079182
_cell_length_b   5.32353424
_cell_length_c   5.32353462
_cell_angle_alpha   59.99999762
_cell_angle_beta   58.68142878
_cell_angle_gamma   58.68143252
_symmetry_Int_Tables_number   1
_chemical_formula_structural   Zr2Mn3V
_chemical_formula_sum   'Zr2 Mn3 V1'
_cell_volume   100.52471441
_cell_formula_units_Z   1
loop_
 _symmetry_equiv_pos_site_id
 _symmetry_equiv_pos_as_xyz
  1  'x, y, z'
loop_
 _atom_site_type_symbol
 _atom_site_label
 _atom_site_symmetry_multiplicity
 _atom_site_fract_x
 _atom_site_fract_y
 _atom_site_fract_z
 _atom_site_occupancy
  Zr  Zr0  1  0.75401566  0.74866145  0.74866145  1
  Zr  Zr1  1  0.49598434  0.50133855  0.50133855  1
  Mn  Mn0  1  0.12500000  0.62500000  0.12500000  1
  Mn  Mn1  1  0.12500000  0.12500000  0.62500000  1
  Mn  Mn2  1  0.12500000  0.12500000  0.12500000  1
  V  V0  1  0.62500000  0.12500000  0.12500000  1
loop_
_geom_bond_atom_site_label_1
_geom_bond_atom_site_label_2
_geom_bond_distance
_geom_bond_site_symmetry_2
Zr0 Zr1 3.038979 1_655
Zr0 Zr1 3.250171 1_565
Zr0 Zr1 3.250171 1_556
Zr0 Zr1 3.250171 1_555
Mn0 V0 2.560396 1_465
Mn0 V0 2.560396 1_555
Mn0 Mn1 2.661767 1_555
Mn0 Mn1 2.661767 1_564
Mn0 Mn2 2.661767 1_565
Mn0 Mn2 2.661767 1_555
Mn0 Zr0 2.999868 1_554
Mn0 Zr1 2.999868 1_455
Mn0 Zr1 3.064939 1_555
Mn0 Zr0 3.064939 1_455
Mn0 Zr1 3.064939 1_554
Mn0 Zr0 3.064939 1_454
Mn1 V0 2.560396 1_555
Mn1 V0 2.560396 1_456
Mn1 Mn2 2.661767 1_556
Mn1 Mn2 2.661767 1_555
Mn1 Zr0 2.999868 1_545
Mn1 Zr1 2.999868 1_455
Mn1 Zr1 3.064939 1_555
Mn1 Zr0 3.064939 1_445
Mn1 Zr0 3.064939 1_455
Mn1 Zr1 3.064939 1_545
Mn2 V0 2.560396 1_555
Mn2 V0 2.560396 1_455
Mn2 Zr1 2.999868 1_455
Mn2 Zr0 2.999868 1_544
Mn2 Zr1 3.064939 1_554
Mn2 Zr0 3.064939 1_445
Mn2 Zr1 3.064939 1_545
Mn2 Zr0 3.064939 1_454
V0 Zr0 3.118638 1_554
V0 Zr1 3.118638 1_545
V0 Zr1 3.118639 1_555
V0 Zr0 3.118639 1_545
V0 Zr1 3.118639 1_554
V0 Zr0 3.118639 1_544
