# generated using pymatgen
data_Dy5Sn3
_symmetry_space_group_name_H-M   'P 1'
_cell_length_a   8.92765376
_cell_length_b   8.92765606
_cell_length_c   6.56040022
_cell_angle_alpha   90.00000000
_cell_angle_beta   90.00000000
_cell_angle_gamma   120.00003565
_symmetry_Int_Tables_number   1
_chemical_formula_structural   Dy5Sn3
_chemical_formula_sum   'Dy10 Sn6'
_cell_volume   452.83042601
_cell_formula_units_Z   2
loop_
 _symmetry_equiv_pos_site_id
 _symmetry_equiv_pos_as_xyz
  1  'x, y, z'
loop_
 _atom_site_type_symbol
 _atom_site_label
 _atom_site_symmetry_multiplicity
 _atom_site_fract_x
 _atom_site_fract_y
 _atom_site_fract_z
 _atom_site_occupancy
  Dy  Dy0  1  0.00000414  0.76106168  0.75000000  1
  Dy  Dy1  1  0.99999586  0.23893832  0.25000000  1
  Dy  Dy2  1  0.76105781  0.76105970  0.25000000  1
  Dy  Dy3  1  0.76106076  0.00000199  0.75000000  1
  Dy  Dy4  1  0.23894219  0.23894030  0.75000000  1
  Dy  Dy5  1  0.23893924  0.99999801  0.25000000  1
  Dy  Dy6  1  0.33333304  0.66666683  0.50000061  1
  Dy  Dy7  1  0.66666696  0.33333317  0.00000061  1
  Dy  Dy8  1  0.66666696  0.33333317  0.49999939  1
  Dy  Dy9  1  0.33333304  0.66666683  -0.00000061  1
  Sn  Sn0  1  0.39392074  0.00000091  0.75000000  1
  Sn  Sn1  1  0.39391867  0.39391897  0.25000000  1
  Sn  Sn2  1  -0.00000174  0.60607981  0.25000000  1
  Sn  Sn3  1  0.00000174  0.39392019  0.75000000  1
  Sn  Sn4  1  0.60608133  0.60608103  0.75000000  1
  Sn  Sn5  1  0.60607926  -0.00000091  0.25000000  1
loop_
_geom_bond_atom_site_label_1
_geom_bond_atom_site_label_2
_geom_bond_distance
_geom_bond_site_symmetry_2
Dy0 Sn0 3.068569 1_565
Dy0 Sn4 3.068617 1_455
Dy0 Sn3 3.277702 1_555
Dy0 Sn2 3.560064 1_555
Dy0 Sn2 3.560064 1_556
Dy0 Dy4 3.694754 1_565
Dy0 Dy3 3.694795 1_465
Dy0 Dy9 3.842340 1_556
Dy0 Dy6 3.842340 1_555
Dy0 Dy8 3.842388 1_455
Dy0 Dy7 3.842388 1_456
Dy0 Dy5 3.912796 1_556
Dy0 Dy5 3.912796 1_555
Dy0 Dy2 3.912844 1_456
Dy0 Dy2 3.912844 1_455
Dy1 Sn5 3.068569 1_555
Dy1 Sn1 3.068617 1_655
Dy1 Sn2 3.277702 1_655
Dy1 Sn3 3.560064 1_654
Dy1 Sn3 3.560064 1_655
Dy1 Dy2 3.694754 1_545
Dy1 Dy5 3.694795 1_645
Dy1 Dy7 3.842340 1_555
Dy1 Dy8 3.842340 1_555
Dy1 Dy9 3.842388 1_655
Dy1 Dy6 3.842388 1_655
Dy1 Dy3 3.912796 1_554
Dy1 Dy3 3.912796 1_555
Dy1 Dy4 3.912844 1_654
Dy1 Dy4 3.912844 1_655
Dy2 Sn5 3.068581 1_565
Dy2 Sn2 3.068599 1_655
Dy2 Sn1 3.277697 1_555
Dy2 Sn4 3.560059 1_555
Dy2 Sn4 3.560059 1_554
Dy2 Dy5 3.694775 1_655
Dy2 Dy9 3.842355 1_555
Dy2 Dy6 3.842355 1_555
Dy2 Dy8 3.842372 1_555
Dy2 Dy7 3.842372 1_555
Dy2 Dy3 3.912822 1_565
Dy2 Dy3 3.912822 1_564
Dy3 Sn3 3.068583 1_655
Dy3 Sn4 3.068604 1_545
Dy3 Sn0 3.277694 1_555
Dy3 Sn5 3.560068 1_556
Dy3 Sn5 3.560068 1_555
Dy3 Dy4 3.694775 1_655
Dy3 Dy7 3.842356 1_556
Dy3 Dy8 3.842356 1_555
Dy3 Dy9 3.842375 1_546
Dy3 Dy6 3.842375 1_545
Dy4 Sn0 3.068581 1_555
Dy4 Sn3 3.068599 1_555
Dy4 Sn4 3.277697 1_555
Dy4 Sn1 3.560059 1_555
Dy4 Sn1 3.560059 1_556
Dy4 Dy7 3.842355 1_556
Dy4 Dy8 3.842355 1_555
Dy4 Dy6 3.842372 1_555
Dy4 Dy9 3.842372 1_556
Dy4 Dy5 3.912822 1_545
Dy4 Dy5 3.912822 1_546
Dy5 Sn2 3.068583 1_555
Dy5 Sn1 3.068604 1_565
Dy5 Sn5 3.277694 1_565
Dy5 Sn0 3.560068 1_565
Dy5 Sn0 3.560068 1_564
Dy5 Dy6 3.842356 1_555
Dy5 Dy9 3.842356 1_555
Dy5 Dy8 3.842375 1_565
Dy5 Dy7 3.842375 1_565
Dy6 Sn3 3.198227 1_555
Dy6 Sn5 3.198235 1_565
Dy6 Sn0 3.198241 1_565
Dy6 Sn4 3.198246 1_555
Dy6 Sn1 3.198247 1_555
Dy6 Sn2 3.198252 1_555
Dy6 Dy9 3.280192 1_556
Dy6 Dy9 3.280208 1_555
Dy7 Sn2 3.198227 1_655
Dy7 Sn0 3.198235 1_554
Dy7 Sn5 3.198241 1_555
Dy7 Sn1 3.198246 1_555
Dy7 Sn4 3.198247 1_554
Dy7 Sn3 3.198252 1_654
Dy7 Dy8 3.280192 1_555
Dy7 Dy8 3.280208 1_554
Dy8 Sn2 3.198227 1_655
Dy8 Sn0 3.198235 1_555
Dy8 Sn5 3.198241 1_555
Dy8 Sn1 3.198246 1_555
Dy8 Sn4 3.198247 1_555
Dy8 Sn3 3.198252 1_655
Dy9 Sn3 3.198227 1_554
Dy9 Sn5 3.198235 1_565
Dy9 Sn0 3.198241 1_564
Dy9 Sn4 3.198246 1_554
Dy9 Sn1 3.198247 1_555
Dy9 Sn2 3.198252 1_555
