# generated using pymatgen
data_Y4AlGa5Pt18
_symmetry_space_group_name_H-M   'P 1'
_cell_length_a   7.68613795
_cell_length_b   7.70189584
_cell_length_c   10.13391518
_cell_angle_alpha   67.87992279
_cell_angle_beta   67.93276108
_cell_angle_gamma   60.03810233
_symmetry_Int_Tables_number   1
_chemical_formula_structural   Y4AlGa5Pt18
_chemical_formula_sum   'Y4 Al1 Ga5 Pt18'
_cell_volume   468.13595152
_cell_formula_units_Z   1
loop_
 _symmetry_equiv_pos_site_id
 _symmetry_equiv_pos_as_xyz
  1  'x, y, z'
loop_
 _atom_site_type_symbol
 _atom_site_label
 _atom_site_symmetry_multiplicity
 _atom_site_fract_x
 _atom_site_fract_y
 _atom_site_fract_z
 _atom_site_occupancy
  Y  Y0  1  0.41396965  0.24650979  0.25055696  1
  Y  Y1  1  0.58603035  0.75349021  0.74944304  1
  Y  Y2  1  0.75392689  0.58562661  0.24993806  1
  Y  Y3  1  0.24607311  0.41437339  0.75006194  1
  Al  Al0  1  0.50000000  0.00000000  0.00000000  1
  Ga  Ga0  1  0.00000000  0.50000000  0.50000000  1
  Ga  Ga1  1  0.63991816  0.18063213  0.49968905  1
  Ga  Ga2  1  0.36008184  0.81936787  0.50031095  1
  Ga  Ga3  1  0.81913111  0.36123917  0.00000157  1
  Ga  Ga4  1  0.18086889  0.63876083  0.99999843  1
  Pt  Pt0  1  0.29507985  0.91852204  0.25133456  1
  Pt  Pt1  1  0.70492015  0.08147796  0.74866544  1
  Pt  Pt2  1  0.08184755  0.70610467  0.24693897  1
  Pt  Pt3  1  0.91815245  0.29389533  0.75306103  1
  Pt  Pt4  1  0.47019111  0.64824221  0.07652627  1
  Pt  Pt5  1  0.52980889  0.35175779  0.92347373  1
  Pt  Pt6  1  0.35421116  0.53090392  0.42245590  1
  Pt  Pt7  1  0.64578884  0.46909608  0.57754410  1
  Pt  Pt8  1  0.86454611  0.13599805  0.24955704  1
  Pt  Pt9  1  0.13545389  0.86400195  0.75044296  1
  Pt  Pt10  1  0.80732158  0.97832918  0.07385767  1
  Pt  Pt11  1  0.19267842  0.02167082  0.92614233  1
  Pt  Pt12  1  0.02301761  0.19072284  0.42533087  1
  Pt  Pt13  1  0.97698239  0.80927716  0.57466913  1
  Pt  Pt14  1  0.69768546  0.85956643  0.42463075  1
  Pt  Pt15  1  0.30231454  0.14043357  0.57536925  1
  Pt  Pt16  1  0.14321722  0.30042956  0.07427064  1
  Pt  Pt17  1  0.85678278  0.69957044  0.92572936  1
loop_
_geom_bond_atom_site_label_1
_geom_bond_atom_site_label_2
_geom_bond_distance
_geom_bond_site_symmetry_2
Al0 Pt0 2.476094 1_545
Al0 Pt1 2.476094 1_554
Al0 Pt16 2.619795 1_555
Al0 Pt17 2.619795 1_544
Al0 Pt5 2.626388 1_554
Al0 Pt4 2.626388 1_545
Al0 Pt10 2.647302 1_545
Al0 Pt11 2.647302 1_554
Ga0 Pt3 2.492332 1_455
Ga0 Pt2 2.492332 1_555
Ga0 Pt15 2.639122 1_555
Ga0 Pt14 2.639122 1_455
Ga0 Pt6 2.642940 1_555
Ga0 Pt7 2.642940 1_455
Ga0 Pt13 2.667171 1_455
Ga0 Pt12 2.667171 1_555
Ga1 Pt8 2.509852 1_555
Ga1 Pt1 2.512740 1_555
Ga1 Pt6 2.548865 1_555
Ga1 Pt15 2.558454 1_555
Ga1 Pt14 2.637533 1_545
Ga1 Pt7 2.647175 1_555
Ga1 Pt12 2.785953 1_655
Ga1 Pt13 2.812609 1_545
Ga2 Pt9 2.509852 1_555
Ga2 Pt0 2.512740 1_555
Ga2 Pt7 2.548865 1_555
Ga2 Pt14 2.558454 1_555
Ga2 Pt15 2.637533 1_565
Ga2 Pt6 2.647175 1_555
Ga2 Pt13 2.785953 1_455
Ga2 Pt12 2.812609 1_565
Ga3 Pt3 2.502549 1_554
Ga3 Pt8 2.506287 1_555
Ga3 Pt4 2.547000 1_555
Ga3 Pt17 2.559870 1_554
Ga3 Pt16 2.639826 1_655
Ga3 Pt5 2.655677 1_554
Ga3 Pt10 2.796398 1_545
Ga3 Pt11 2.828910 1_654
Ga4 Pt2 2.502549 1_556
Ga4 Pt9 2.506287 1_555
Ga4 Pt5 2.547000 1_555
Ga4 Pt16 2.559870 1_556
Ga4 Pt17 2.639826 1_455
Ga4 Pt4 2.655677 1_556
Ga4 Pt11 2.796398 1_565
Ga4 Pt10 2.828910 1_456
Pt0 Pt16 2.720958 1_565
Pt0 Pt6 2.732114 1_555
Pt0 Pt4 2.733153 1_555
Pt0 Pt12 2.740715 1_565
Pt0 Pt2 2.855277 1_555
Pt0 Pt8 2.870890 1_465
Pt0 Y0 3.082489 1_565
Pt0 Y2 3.157507 1_555
Pt1 Pt17 2.720958 1_545
Pt1 Pt7 2.732114 1_555
Pt1 Pt5 2.733153 1_555
Pt1 Pt13 2.740715 1_545
Pt1 Pt3 2.855277 1_555
Pt1 Pt9 2.870890 1_645
Pt1 Y1 3.082489 1_545
Pt1 Y3 3.157507 1_555
Pt2 Pt4 2.732781 1_555
Pt2 Pt6 2.745115 1_555
Pt2 Pt8 2.874398 1_465
Pt2 Y2 3.077633 1_455
Pt2 Y0 3.161423 1_555
Pt3 Pt5 2.732781 1_555
Pt3 Pt7 2.745115 1_555
Pt3 Pt9 2.874398 1_645
Pt3 Y3 3.077633 1_655
Pt3 Y1 3.161423 1_555
Pt4 Y1 2.986057 1_554
Pt4 Pt5 2.986314 1_554
Pt4 Y2 3.044300 1_555
Pt4 Y0 3.086080 1_555
Pt4 Pt6 3.157756 1_555
Pt5 Y0 2.986057 1_556
Pt5 Y3 3.044300 1_555
Pt5 Y1 3.086080 1_555
Pt5 Pt7 3.157756 1_555
Pt6 Pt7 2.955801 1_555
Pt6 Y3 2.990995 1_555
Pt6 Y0 3.051352 1_555
Pt6 Y2 3.061955 1_555
Pt7 Y2 2.990995 1_555
Pt7 Y1 3.051352 1_555
Pt7 Y3 3.061955 1_555
Pt8 Y0 3.123154 1_555
Pt8 Y2 3.127598 1_555
Pt9 Y1 3.123154 1_555
Pt9 Y3 3.127598 1_555
Pt10 Pt2 2.741742 1_655
Pt10 Pt8 2.754747 1_565
Pt10 Pt5 2.856239 1_564
Pt10 Pt17 2.861894 1_554
Pt10 Pt11 2.899121 1_664
Pt10 Y0 3.015530 1_565
Pt10 Y2 3.020850 1_555
Pt10 Pt14 3.202056 1_555
Pt11 Pt3 2.741742 1_455
Pt11 Pt9 2.754747 1_545
Pt11 Pt4 2.856239 1_546
Pt11 Pt16 2.861894 1_556
Pt11 Y1 3.015530 1_545
Pt11 Y3 3.020850 1_555
Pt11 Pt15 3.202056 1_555
Pt12 Pt8 2.746391 1_455
Pt12 Pt15 2.872069 1_555
Pt12 Pt7 2.881608 1_455
Pt12 Pt13 2.886888 1_445
Pt12 Y0 3.011408 1_555
Pt12 Y2 3.015837 1_455
Pt12 Pt16 3.204740 1_555
Pt13 Pt9 2.746391 1_655
Pt13 Pt14 2.872069 1_555
Pt13 Pt6 2.881608 1_655
Pt13 Y1 3.011408 1_555
Pt13 Y3 3.015837 1_655
Pt13 Pt17 3.204740 1_555
Pt14 Pt2 2.734943 1_655
Pt14 Pt8 2.738318 1_565
Pt14 Pt15 2.946544 1_565
Pt14 Y1 2.965005 1_555
Pt14 Pt7 2.971325 1_555
Pt14 Y2 3.016503 1_555
Pt14 Y0 3.031288 1_565
Pt15 Pt3 2.734943 1_455
Pt15 Pt9 2.738318 1_545
Pt15 Y0 2.965005 1_555
Pt15 Pt6 2.971325 1_555
Pt15 Y3 3.016503 1_555
Pt15 Y1 3.031288 1_545
Pt16 Pt8 2.739237 1_455
Pt16 Pt5 2.937214 1_554
Pt16 Y3 2.959662 1_554
Pt16 Pt17 2.967865 1_454
Pt16 Y0 3.011009 1_555
Pt16 Y2 3.053610 1_455
Pt17 Pt9 2.739237 1_655
Pt17 Pt4 2.937214 1_556
Pt17 Y2 2.959662 1_556
Pt17 Y1 3.011009 1_555
Pt17 Y3 3.053610 1_655
