# generated using pymatgen
data_SrCa4(InBi3)2
_symmetry_space_group_name_H-M   'P 1'
_cell_length_a   4.76877980
_cell_length_b   12.41345229
_cell_length_c   14.61501965
_cell_angle_alpha   90.00000000
_cell_angle_beta   90.00000000
_cell_angle_gamma   90.00000000
_symmetry_Int_Tables_number   1
_chemical_formula_structural   SrCa4(InBi3)2
_chemical_formula_sum   'Sr2 Ca8 In4 Bi12'
_cell_volume   865.16561864
_cell_formula_units_Z   2
loop_
 _symmetry_equiv_pos_site_id
 _symmetry_equiv_pos_as_xyz
  1  'x, y, z'
loop_
 _atom_site_type_symbol
 _atom_site_label
 _atom_site_symmetry_multiplicity
 _atom_site_fract_x
 _atom_site_fract_y
 _atom_site_fract_z
 _atom_site_occupancy
  Sr  Sr0  1  0.00000000  0.67057453  0.97399735  1
  Sr  Sr1  1  0.00000000  0.82942547  0.47399735  1
  Ca  Ca0  1  0.00000000  0.41024416  0.74714323  1
  Ca  Ca1  1  0.00000000  0.91498016  0.75160761  1
  Ca  Ca2  1  0.00000000  0.58501984  0.25160761  1
  Ca  Ca3  1  0.00000000  0.17445712  0.52265214  1
  Ca  Ca4  1  0.00000000  0.08975584  0.24714323  1
  Ca  Ca5  1  0.00000000  0.00001573  0.00038754  1
  Ca  Ca6  1  0.00000000  0.32554288  0.02265214  1
  Ca  Ca7  1  0.00000000  0.49998427  0.50038754  1
  In  In0  1  0.50000000  0.66224860  0.78635168  1
  In  In1  1  0.50000000  0.16673011  0.71688414  1
  In  In2  1  0.50000000  0.83775140  0.28635168  1
  In  In3  1  0.50000000  0.33326989  0.21688414  1
  Bi  Bi0  1  0.50000000  0.96427104  0.60086731  1
  Bi  Bi1  1  0.50000000  0.85888859  0.90122238  1
  Bi  Bi2  1  0.00000000  0.66458576  0.67038648  1
  Bi  Bi3  1  0.50000000  0.45469625  0.90219102  1
  Bi  Bi4  1  0.50000000  0.64111141  0.40122238  1
  Bi  Bi5  1  0.50000000  0.14759002  0.09240678  1
  Bi  Bi6  1  0.50000000  0.04530375  0.40219102  1
  Bi  Bi7  1  0.00000000  0.16741469  0.83390534  1
  Bi  Bi8  1  0.00000000  0.83541424  0.17038648  1
  Bi  Bi9  1  0.50000000  0.53572896  0.10086731  1
  Bi  Bi10  1  0.50000000  0.35240998  0.59240678  1
  Bi  Bi11  1  0.00000000  0.33258531  0.33390534  1
loop_
_geom_bond_atom_site_label_1
_geom_bond_atom_site_label_2
_geom_bond_distance
_geom_bond_site_symmetry_2
Ca3 In1 3.708471 1_555
Ca3 In1 3.708471 1_455
Ca6 In3 3.708471 1_455
Ca6 In3 3.708471 1_555
In0 Sr0 3.635520 1_555
In0 Sr0 3.635520 1_655
In2 Sr1 3.635520 1_555
In2 Sr1 3.635520 1_655
Bi0 In1 3.031711 1_565
Bi0 Bi6 3.072955 1_565
Bi0 Ca1 3.303518 1_655
Bi0 Ca1 3.303518 1_555
Bi0 Sr1 3.453308 1_655
Bi0 Sr1 3.453308 1_555
Bi0 Ca3 3.714783 1_565
Bi0 Ca3 3.714783 1_665
Bi1 In0 2.962581 1_555
Bi1 Ca5 3.294671 1_566
Bi1 Ca5 3.294671 1_666
Bi1 Ca1 3.309298 1_655
Bi1 Ca1 3.309298 1_555
Bi1 Sr0 3.504437 1_655
Bi1 Sr0 3.504437 1_555
Bi2 In0 2.925512 1_555
Bi2 In0 2.925512 1_455
Bi2 Ca7 3.216814 1_555
Bi2 Ca1 3.327215 1_555
Bi2 Ca0 3.350629 1_555
Bi2 Sr1 3.524951 1_555
Bi3 Bi9 3.072955 1_556
Bi3 In0 3.082901 1_555
Bi3 Ca0 3.335368 1_655
Bi3 Ca0 3.335368 1_555
Bi3 Ca6 3.369748 1_556
Bi3 Ca6 3.369748 1_656
Bi3 Sr0 3.737374 1_655
Bi3 Sr0 3.737374 1_555
Bi4 In2 2.962581 1_555
Bi4 Ca7 3.294671 1_555
Bi4 Ca7 3.294671 1_655
Bi4 Ca2 3.309298 1_555
Bi4 Ca2 3.309298 1_655
Bi4 Sr1 3.504437 1_655
Bi4 Sr1 3.504437 1_555
Bi5 In3 2.936380 1_555
Bi5 Ca5 3.293911 1_555
Bi5 Ca5 3.293911 1_655
Bi5 Ca4 3.363778 1_555
Bi5 Ca4 3.363778 1_655
Bi5 Ca6 3.406515 1_555
Bi5 Ca6 3.406515 1_655
Bi6 In2 3.082901 1_545
Bi6 Ca4 3.335368 1_555
Bi6 Ca4 3.335368 1_655
Bi6 Ca3 3.369748 1_555
Bi6 Ca3 3.369748 1_655
Bi6 Sr1 3.737374 1_645
Bi6 Sr1 3.737374 1_545
Bi7 In1 2.934349 1_555
Bi7 In1 2.934349 1_455
Bi7 Ca5 3.199727 1_556
Bi7 Ca0 3.270202 1_555
Bi7 Ca1 3.356492 1_545
Bi7 Ca6 3.385643 1_556
Bi8 In2 2.925512 1_455
Bi8 In2 2.925512 1_555
Bi8 Ca5 3.216814 1_565
Bi8 Ca2 3.327215 1_555
Bi8 Ca4 3.350629 1_565
Bi8 Sr0 3.524951 1_554
Bi9 In3 3.031711 1_555
Bi9 Ca2 3.303518 1_655
Bi9 Ca2 3.303518 1_555
Bi9 Sr0 3.453308 1_654
Bi9 Sr0 3.453308 1_554
Bi9 Ca6 3.714783 1_655
Bi9 Ca6 3.714783 1_555
Bi10 In1 2.936380 1_555
Bi10 Ca7 3.293911 1_555
Bi10 Ca7 3.293911 1_655
Bi10 Ca0 3.363778 1_555
Bi10 Ca0 3.363778 1_655
Bi10 Ca3 3.406515 1_555
Bi10 Ca3 3.406515 1_655
Bi11 In3 2.934349 1_555
Bi11 In3 2.934349 1_455
Bi11 Ca7 3.199727 1_555
Bi11 Ca4 3.270202 1_555
Bi11 Ca2 3.356492 1_555
Bi11 Ca3 3.385643 1_555
