# generated using pymatgen
data_Lu2HfB2Ir5
_symmetry_space_group_name_H-M   'P 1'
_cell_length_a   9.55408819
_cell_length_b   9.55408819
_cell_length_c   3.22546514
_cell_angle_alpha   90.00000000
_cell_angle_beta   90.00000000
_cell_angle_gamma   90.00000000
_symmetry_Int_Tables_number   1
_chemical_formula_structural   Lu2HfB2Ir5
_chemical_formula_sum   'Lu4 Hf2 B4 Ir10'
_cell_volume   294.42239703
_cell_formula_units_Z   2
loop_
 _symmetry_equiv_pos_site_id
 _symmetry_equiv_pos_as_xyz
  1  'x, y, z'
loop_
 _atom_site_type_symbol
 _atom_site_label
 _atom_site_symmetry_multiplicity
 _atom_site_fract_x
 _atom_site_fract_y
 _atom_site_fract_z
 _atom_site_occupancy
  Lu  Lu0  1  0.17566594  0.67566594  0.00000000  1
  Lu  Lu1  1  0.32433406  0.17566594  0.00000000  1
  Lu  Lu2  1  0.82433406  0.32433406  0.00000000  1
  Lu  Lu3  1  0.67566594  0.82433406  0.00000000  1
  Hf  Hf0  1  0.50000000  0.50000000  0.00000000  1
  Hf  Hf1  1  0.00000000  0.00000000  0.00000000  1
  B  B0  1  0.38087726  0.88087726  0.00000000  1
  B  B1  1  0.11912274  0.38087726  0.00000000  1
  B  B2  1  0.88087726  0.61912274  0.00000000  1
  B  B3  1  0.61912274  0.11912274  0.00000000  1
  Ir  Ir0  1  0.22306142  0.92948525  0.50000000  1
  Ir  Ir1  1  0.92948525  0.77693858  0.50000000  1
  Ir  Ir2  1  0.42948525  0.72306142  0.50000000  1
  Ir  Ir3  1  0.57051475  0.27693858  0.50000000  1
  Ir  Ir4  1  0.72306142  0.57051475  0.50000000  1
  Ir  Ir5  1  0.27693858  0.42948525  0.50000000  1
  Ir  Ir6  1  0.07051475  0.22306142  0.50000000  1
  Ir  Ir7  1  0.00000000  0.50000000  0.50000000  1
  Ir  Ir8  1  0.50000000  0.00000000  0.50000000  1
  Ir  Ir9  1  0.77693858  0.07051475  0.50000000  1
loop_
_geom_bond_atom_site_label_1
_geom_bond_atom_site_label_2
_geom_bond_distance
_geom_bond_site_symmetry_2
Hf0 Ir5 2.756189 1_555
Hf0 Ir5 2.756189 1_554
Hf0 Ir3 2.756189 1_554
Hf0 Ir3 2.756189 1_555
Hf0 Ir4 2.756189 1_555
Hf0 Ir4 2.756189 1_554
Hf0 Ir2 2.756189 1_555
Hf0 Ir2 2.756189 1_554
Hf1 Ir1 2.756189 1_444
Hf1 Ir1 2.756189 1_445
Hf1 Ir6 2.756189 1_554
Hf1 Ir9 2.756189 1_455
Hf1 Ir9 2.756189 1_454
Hf1 Ir0 2.756189 1_544
Hf1 Ir6 2.756189 1_555
Hf1 Ir0 2.756189 1_545
B0 Ir2 2.256103 1_554
B0 Ir2 2.256103 1_555
B0 Ir0 2.256103 1_554
B0 Ir0 2.256103 1_555
B0 Ir8 2.278484 1_565
B0 Ir8 2.278484 1_564
B0 Lu0 2.772717 1_555
B0 Lu1 2.867779 1_565
B0 Lu3 2.867779 1_555
B1 Ir6 2.256103 1_555
B1 Ir6 2.256103 1_554
B1 Ir5 2.256103 1_555
B1 Ir5 2.256103 1_554
B1 Ir7 2.278484 1_555
B1 Ir7 2.278484 1_554
B1 Lu1 2.772717 1_555
B1 Lu2 2.867779 1_455
B1 Lu0 2.867779 1_555
B2 Ir4 2.256103 1_555
B2 Ir4 2.256103 1_554
B2 Ir1 2.256103 1_555
B2 Ir1 2.256103 1_554
B2 Ir7 2.278484 1_655
B2 Ir7 2.278484 1_654
B2 Lu3 2.772717 1_555
B2 Lu0 2.867779 1_655
B2 Lu2 2.867779 1_555
B3 Ir9 2.256103 1_554
B3 Ir9 2.256103 1_555
B3 Ir3 2.256103 1_555
B3 Ir3 2.256103 1_554
B3 Ir8 2.278484 1_555
B3 Ir8 2.278484 1_554
B3 Lu2 2.772717 1_555
B3 Lu3 2.867779 1_545
B3 Lu1 2.867779 1_555
Ir0 Lu0 2.947310 1_556
Ir0 Lu0 2.947310 1_555
Ir0 Lu1 3.011503 1_566
Ir0 Lu1 3.011503 1_565
Ir1 Lu3 2.947310 1_556
Ir1 Lu3 2.947310 1_555
Ir1 Lu0 3.011503 1_655
Ir1 Lu0 3.011503 1_656
Ir2 Lu0 2.947310 1_556
Ir2 Lu0 2.947310 1_555
Ir2 Lu3 3.011503 1_555
Ir2 Lu3 3.011503 1_556
Ir3 Lu2 2.947310 1_556
Ir3 Lu2 2.947310 1_555
Ir3 Lu1 3.011503 1_556
Ir3 Lu1 3.011503 1_555
Ir4 Lu3 2.947310 1_555
Ir4 Lu3 2.947310 1_556
Ir4 Lu2 3.011503 1_556
Ir4 Lu2 3.011503 1_555
Ir5 Lu1 2.947310 1_556
Ir5 Lu1 2.947310 1_555
Ir5 Lu0 3.011503 1_556
Ir5 Lu0 3.011503 1_555
Ir6 Lu1 2.947310 1_556
Ir6 Lu1 2.947310 1_555
Ir6 Lu2 3.011503 1_455
Ir6 Lu2 3.011503 1_456
Ir7 Lu0 2.869578 1_556
Ir7 Lu0 2.869578 1_555
Ir7 Lu2 2.869578 1_456
Ir7 Lu2 2.869578 1_455
Ir8 Lu3 2.869578 1_546
Ir8 Lu3 2.869578 1_545
Ir8 Lu1 2.869578 1_556
Ir8 Lu1 2.869578 1_555
Ir9 Lu2 2.947310 1_556
Ir9 Lu2 2.947310 1_555
Ir9 Lu3 3.011503 1_546
Ir9 Lu3 3.011503 1_545
