# generated using pymatgen
data_Sr3C3Cl2
_symmetry_space_group_name_H-M   'P 1'
_cell_length_a   7.47389781
_cell_length_b   7.47389798
_cell_length_c   11.92092291
_cell_angle_alpha   90.00000000
_cell_angle_beta   90.00000000
_cell_angle_gamma   148.34331674
_symmetry_Int_Tables_number   1
_chemical_formula_structural   Sr3C3Cl2
_chemical_formula_sum   'Sr6 C6 Cl4'
_cell_volume   349.47927145
_cell_formula_units_Z   2
loop_
 _symmetry_equiv_pos_site_id
 _symmetry_equiv_pos_as_xyz
  1  'x, y, z'
loop_
 _atom_site_type_symbol
 _atom_site_label
 _atom_site_symmetry_multiplicity
 _atom_site_fract_x
 _atom_site_fract_y
 _atom_site_fract_z
 _atom_site_occupancy
  Sr  Sr0  1  0.65510440  0.34489560  0.56310630  1
  Sr  Sr1  1  0.34489560  0.65510440  0.43689370  1
  Sr  Sr2  1  0.34489560  0.65510440  0.06310630  1
  Sr  Sr3  1  0.65510440  0.34489560  0.93689370  1
  Sr  Sr4  1  0.12031079  0.87968921  0.25000000  1
  Sr  Sr5  1  0.87968921  0.12031079  0.75000000  1
  C  C0  1  0.26724351  0.73275649  0.63875812  1
  C  C1  1  0.73275649  0.26724351  0.36124188  1
  C  C2  1  0.73275649  0.26724351  0.13875812  1
  C  C3  1  0.26724351  0.73275649  0.86124188  1
  C  C4  1  0.74173775  0.25826225  0.25000000  1
  C  C5  1  0.25826225  0.74173775  0.75000000  1
  Cl  Cl0  1  0.52595061  0.47404939  0.75000000  1
  Cl  Cl1  1  0.47404939  0.52595061  0.25000000  1
  Cl  Cl2  1  0.00000000  0.00000000  0.00000000  1
  Cl  Cl3  1  0.00000000  0.00000000  0.50000000  1
loop_
_geom_bond_atom_site_label_1
_geom_bond_atom_site_label_2
_geom_bond_distance
_geom_bond_site_symmetry_2
C0 C5 1.332381 1_555
C0 Sr1 2.652898 1_555
C0 Sr0 2.751314 1_455
C0 Sr0 2.751314 1_565
C0 Sr5 2.920481 1_565
C0 Sr5 2.920481 1_455
C1 C4 1.332381 1_555
C1 Sr0 2.652898 1_555
C1 Sr1 2.751314 1_655
C1 Sr1 2.751314 1_545
C1 Sr4 2.920481 1_545
C1 Sr4 2.920481 1_655
C2 C4 1.332381 1_555
C2 Sr3 2.652898 1_554
C2 Sr2 2.751314 1_655
C2 Sr2 2.751314 1_545
C2 Sr4 2.920481 1_545
C2 Sr4 2.920481 1_655
C3 C5 1.332381 1_555
C3 Sr2 2.652898 1_556
C3 Sr3 2.751314 1_455
C3 Sr3 2.751314 1_565
C3 Sr5 2.920481 1_565
C3 Sr5 2.920481 1_455
C4 Sr4 2.684224 1_545
C4 Sr4 2.684225 1_655
C5 Sr5 2.684224 1_565
C5 Sr5 2.684225 1_455
Cl0 Sr3 2.900610 1_555
Cl0 Sr0 2.900610 1_555
Cl0 Sr5 2.929153 1_455
Cl0 Sr5 2.929153 1_565
Cl1 Sr1 2.900610 1_555
Cl1 Sr2 2.900610 1_555
Cl1 Sr4 2.929153 1_655
Cl1 Sr4 2.929153 1_545
Cl2 Sr2 3.114004 1_445
Cl2 Sr3 3.114004 1_554
Cl2 Sr2 3.114005 1_555
Cl2 Sr3 3.114005 1_444
Cl2 Sr5 3.446062 1_454
Cl2 Sr4 3.446062 1_545
Cl3 Sr0 3.114004 1_555
Cl3 Sr1 3.114004 1_445
Cl3 Sr1 3.114005 1_555
Cl3 Sr0 3.114005 1_445
Cl3 Sr4 3.446062 1_545
Cl3 Sr5 3.446062 1_455
