# generated using pymatgen
data_BaLu(ZnSn)2
_symmetry_space_group_name_H-M   'P 1'
_cell_length_a   4.49125730
_cell_length_b   4.49125783
_cell_length_c   18.31476702
_cell_angle_alpha   90.00000000
_cell_angle_beta   90.00000000
_cell_angle_gamma   120.00001033
_symmetry_Int_Tables_number   1
_chemical_formula_structural   BaLu(ZnSn)2
_chemical_formula_sum   'Ba2 Lu2 Zn4 Sn4'
_cell_volume   319.93953456
_cell_formula_units_Z   2
loop_
 _symmetry_equiv_pos_site_id
 _symmetry_equiv_pos_as_xyz
  1  'x, y, z'
loop_
 _atom_site_type_symbol
 _atom_site_label
 _atom_site_symmetry_multiplicity
 _atom_site_fract_x
 _atom_site_fract_y
 _atom_site_fract_z
 _atom_site_occupancy
  Ba  Ba0  1  0.00000000  0.00000000  0.00000000  1
  Ba  Ba1  1  0.00000000  0.00000000  0.50000000  1
  Lu  Lu0  1  0.00000000  0.00000000  0.25000000  1
  Lu  Lu1  1  0.00000000  0.00000000  0.75000000  1
  Zn  Zn0  1  0.33333300  0.66666700  0.17382188  1
  Zn  Zn1  1  0.66666700  0.33333300  0.82617812  1
  Zn  Zn2  1  0.66666700  0.33333300  0.67382188  1
  Zn  Zn3  1  0.33333300  0.66666700  0.32617812  1
  Sn  Sn0  1  0.33333300  0.66666700  0.63470467  1
  Sn  Sn1  1  0.66666700  0.33333300  0.36529533  1
  Sn  Sn2  1  0.66666700  0.33333300  0.13470467  1
  Sn  Sn3  1  0.33333300  0.66666700  0.86529533  1
loop_
_geom_bond_atom_site_label_1
_geom_bond_atom_site_label_2
_geom_bond_distance
_geom_bond_site_symmetry_2
Ba0 Sn3 3.579147 1_544
Ba0 Sn2 3.579147 1_455
Ba0 Sn3 3.579149 1_444
Ba0 Sn2 3.579149 1_555
Ba0 Sn3 3.579149 1_554
Ba0 Sn2 3.579149 1_445
Ba1 Sn0 3.579147 1_545
Ba1 Sn1 3.579147 1_455
Ba1 Sn0 3.579149 1_445
Ba1 Sn1 3.579149 1_555
Ba1 Sn0 3.579149 1_555
Ba1 Sn1 3.579149 1_445
Lu0 Zn3 2.944542 1_545
Lu0 Zn0 2.944542 1_545
Lu0 Zn3 2.944545 1_445
Lu0 Zn0 2.944545 1_445
Lu0 Zn3 2.944545 1_555
Lu0 Zn0 2.944545 1_555
Lu0 Sn2 3.344050 1_455
Lu0 Sn1 3.344050 1_455
Lu0 Sn2 3.344053 1_555
Lu0 Sn1 3.344053 1_555
Lu0 Sn2 3.344053 1_445
Lu0 Sn1 3.344053 1_445
Lu1 Zn1 2.944542 1_455
Lu1 Zn2 2.944542 1_455
Lu1 Zn1 2.944545 1_555
Lu1 Zn2 2.944545 1_555
Lu1 Zn1 2.944545 1_445
Lu1 Zn2 2.944545 1_445
Lu1 Sn3 3.344050 1_545
Lu1 Sn0 3.344050 1_545
Lu1 Sn3 3.344053 1_445
Lu1 Sn0 3.344053 1_445
Lu1 Sn3 3.344053 1_555
Lu1 Sn0 3.344053 1_555
Zn0 Zn3 2.790369 1_555
Zn1 Zn2 2.790369 1_555
Sn0 Zn2 2.690175 1_455
Sn0 Zn2 2.690176 1_565
Sn0 Zn2 2.690183 1_555
Sn1 Zn3 2.690175 1_655
Sn1 Zn3 2.690176 1_545
Sn1 Zn3 2.690183 1_555
Sn2 Zn0 2.690175 1_655
Sn2 Zn0 2.690176 1_545
Sn2 Zn0 2.690183 1_555
Sn3 Zn1 2.690175 1_455
Sn3 Zn1 2.690176 1_565
Sn3 Zn1 2.690183 1_555
