# generated using pymatgen
data_MnZn(AgO2)2
_symmetry_space_group_name_H-M   'P 1'
_cell_length_a   2.95361793
_cell_length_b   12.43176789
_cell_length_c   5.29005732
_cell_angle_alpha   85.23838806
_cell_angle_beta   89.99105434
_cell_angle_gamma   96.50700174
_symmetry_Int_Tables_number   1
_chemical_formula_structural   MnZn(AgO2)2
_chemical_formula_sum   'Mn2 Zn2 Ag4 O8'
_cell_volume   192.31762427
_cell_formula_units_Z   2
loop_
 _symmetry_equiv_pos_site_id
 _symmetry_equiv_pos_as_xyz
  1  'x, y, z'
loop_
 _atom_site_type_symbol
 _atom_site_label
 _atom_site_symmetry_multiplicity
 _atom_site_fract_x
 _atom_site_fract_y
 _atom_site_fract_z
 _atom_site_occupancy
  Mn  Mn0  1  0.12571686  0.25018539  0.62664489  1
  Mn  Mn1  1  0.87428200  0.74981477  0.37335806  1
  Zn  Zn0  1  0.37459095  0.75060732  0.87541656  1
  Zn  Zn1  1  0.62540716  0.24939270  0.12458781  1
  Ag  Ag0  1  0.24968391  0.49733816  0.25964918  1
  Ag  Ag1  1  0.99999930  0.00000025  0.99999857  1
  Ag  Ag2  1  0.75031470  0.50266252  0.74033009  1
  Ag  Ag3  1  0.50000827  0.00000011  0.49999888  1
  O  O0  1  0.83684721  0.67082760  0.69775835  1
  O  O1  1  0.58656702  0.16820919  0.50396871  1
  O  O2  1  0.33511253  0.66720901  0.25065699  1
  O  O3  1  0.08702298  0.16893677  0.94688750  1
  O  O4  1  0.91297683  0.83106358  0.05311715  1
  O  O5  1  0.66488760  0.33279190  0.74934545  1
  O  O6  1  0.41343387  0.83179046  0.49603639  1
  O  O7  1  0.16315282  0.32917227  0.30224441  1
loop_
_geom_bond_atom_site_label_1
_geom_bond_atom_site_label_2
_geom_bond_distance
_geom_bond_site_symmetry_2
Mn0 O3 1.895511 1_555
Mn0 O7 1.901842 1_555
Mn0 O1 1.932994 1_555
Mn0 O1 1.933368 1_455
Mn0 O5 1.937094 1_555
Mn0 O5 1.937980 1_455
Mn1 O4 1.895504 1_555
Mn1 O0 1.901843 1_555
Mn1 O6 1.932989 1_555
Mn1 O6 1.933374 1_655
Mn1 O2 1.937087 1_555
Mn1 O2 1.937978 1_655
Ag0 O7 2.070597 1_555
Ag0 O2 2.094792 1_555
Ag1 O3 2.082168 1_655
Ag1 O4 2.082172 1_546
Ag2 O0 2.070584 1_555
Ag2 O5 2.094782 1_555
Ag3 O1 2.079609 1_555
Ag3 O6 2.079613 1_545
O0 Zn0 2.046408 1_655
O0 Zn0 2.047517 1_555
O1 Zn1 2.167256 1_555
O2 Zn0 2.158650 1_554
O3 Zn1 2.051304 1_456
O3 Zn1 2.051550 1_556
O4 Zn0 2.051304 1_654
O4 Zn0 2.051556 1_554
O5 Zn1 2.158663 1_556
O6 Zn0 2.167251 1_555
O7 Zn1 2.046407 1_455
O7 Zn1 2.047507 1_555
