# generated using pymatgen
data_K5SrVP4
_symmetry_space_group_name_H-M   'P 1'
_cell_length_a   10.02103208
_cell_length_b   10.02103086
_cell_length_c   7.69978079
_cell_angle_alpha   88.59993751
_cell_angle_beta   88.59993308
_cell_angle_gamma   120.87296112
_symmetry_Int_Tables_number   1
_chemical_formula_structural   K5SrVP4
_chemical_formula_sum   'K10 Sr2 V2 P8'
_cell_volume   662.84619550
_cell_formula_units_Z   2
loop_
 _symmetry_equiv_pos_site_id
 _symmetry_equiv_pos_as_xyz
  1  'x, y, z'
loop_
 _atom_site_type_symbol
 _atom_site_label
 _atom_site_symmetry_multiplicity
 _atom_site_fract_x
 _atom_site_fract_y
 _atom_site_fract_z
 _atom_site_occupancy
  K  K0  1  0.46757415  0.52490348  0.49838544  1
  K  K1  1  0.05715179  0.52662413  0.50072922  1
  K  K2  1  0.52490348  0.46757415  0.99838544  1
  K  K3  1  0.52662413  0.05715179  0.00072922  1
  K  K4  1  0.86584059  0.14299962  0.67996909  1
  K  K5  1  0.29352149  0.15409326  0.71560604  1
  K  K6  1  0.85474861  0.71483907  0.65972527  1
  K  K7  1  0.14299962  0.86584059  0.17996909  1
  K  K8  1  0.71483907  0.85474861  0.15972527  1
  K  K9  1  0.15409326  0.29352149  0.21560604  1
  Sr  Sr0  1  0.46703253  0.94012439  0.49730364  1
  Sr  Sr1  1  0.94012439  0.46703253  0.99730364  1
  V  V0  1  0.66952798  0.33089520  0.39144699  1
  V  V1  1  0.33089520  0.66952798  0.89144699  1
  P  P0  1  0.68143301  0.33439833  0.68833717  1
  P  P1  1  0.33439833  0.68143301  0.18833717  1
  P  P2  1  0.78971746  0.20101007  0.28995300  1
  P  P3  1  0.41268383  0.19545754  0.31911683  1
  P  P4  1  0.79593360  0.57948887  0.27371532  1
  P  P5  1  0.20101007  0.78971746  0.78995300  1
  P  P6  1  0.57948887  0.79593360  0.77371532  1
  P  P7  1  0.19545754  0.41268383  0.81911683  1
loop_
_geom_bond_atom_site_label_1
_geom_bond_atom_site_label_2
_geom_bond_distance
_geom_bond_site_symmetry_2
K0 P6 3.224945 1_555
K0 P7 3.344756 1_555
K0 P3 3.391631 1_555
K0 P4 3.456529 1_555
K0 P1 3.473011 1_555
K1 P5 3.245262 1_555
K1 P7 3.299675 1_555
K1 P1 3.313468 1_555
K1 P4 3.433619 1_455
K1 P2 3.458337 1_455
K1 P0 3.482562 1_455
K2 P4 3.224945 1_556
K2 P3 3.344755 1_556
K2 P7 3.391631 1_555
K2 P6 3.456529 1_555
K2 P0 3.473010 1_555
K3 P2 3.245262 1_555
K3 P3 3.299675 1_555
K3 P0 3.313467 1_554
K3 P6 3.433619 1_544
K3 P5 3.458337 1_544
K3 P1 3.482561 1_545
K4 P6 3.222615 1_545
K4 P2 3.227976 1_555
K4 P7 3.242715 1_655
K4 P0 3.276522 1_555
K5 P3 3.189024 1_555
K5 P5 3.304228 1_545
K5 P7 3.315429 1_555
K5 P0 3.339613 1_555
K6 P4 3.237772 1_555
K6 P0 3.277861 1_555
K6 P5 3.338173 1_655
K6 P6 3.355070 1_555
K7 P4 3.222615 1_455
K7 P5 3.227976 1_554
K7 P3 3.242715 1_565
K7 P1 3.276522 1_555
K8 P6 3.237772 1_554
K8 P1 3.277862 1_555
K8 P2 3.338173 1_565
K8 P4 3.355070 1_555
K9 P7 3.189024 1_554
K9 P2 3.304228 1_455
K9 P3 3.315429 1_555
K9 P1 3.339613 1_555
P0 V0 2.292196 1_555
P0 Sr1 3.326588 1_555
P1 V1 2.292196 1_554
P1 Sr0 3.326588 1_555
P2 V0 2.316898 1_555
P2 Sr1 3.142099 1_554
P2 Sr0 3.272307 1_545
P3 V0 2.301916 1_555
P3 Sr0 3.165609 1_545
P4 V0 2.286320 1_555
P4 Sr1 3.086353 1_554
P5 V1 2.316898 1_555
P5 Sr0 3.142099 1_555
P5 Sr1 3.272307 1_455
P6 V1 2.286320 1_555
P6 Sr0 3.086353 1_555
P7 V1 2.301916 1_555
P7 Sr1 3.165609 1_455
