# generated using pymatgen
data_Cs2TiMnTe4
_symmetry_space_group_name_H-M   'P 1'
_cell_length_a   15.58179133
_cell_length_b   13.96723103
_cell_length_c   8.30969771
_cell_angle_alpha   84.72461802
_cell_angle_beta   63.19986974
_cell_angle_gamma   32.07551158
_symmetry_Int_Tables_number   1
_chemical_formula_structural   Cs2TiMnTe4
_chemical_formula_sum   'Cs4 Ti2 Mn2 Te8'
_cell_volume   677.89601532
_cell_formula_units_Z   2
loop_
 _symmetry_equiv_pos_site_id
 _symmetry_equiv_pos_as_xyz
  1  'x, y, z'
loop_
 _atom_site_type_symbol
 _atom_site_label
 _atom_site_symmetry_multiplicity
 _atom_site_fract_x
 _atom_site_fract_y
 _atom_site_fract_z
 _atom_site_occupancy
  Cs  Cs0  1  0.81972823  0.81972823  0.18027177  1
  Cs  Cs1  1  0.18027177  0.18027177  0.81972823  1
  Cs  Cs2  1  0.43027177  0.43027177  0.06972823  1
  Cs  Cs3  1  0.06972823  0.06972823  0.43027177  1
  Ti  Ti0  1  0.25000000  0.25000000  0.25000000  1
  Ti  Ti1  1  0.00000000  0.00000000  0.00000000  1
  Mn  Mn0  1  0.75000000  0.75000000  0.75000000  1
  Mn  Mn1  1  0.50000000  0.50000000  0.50000000  1
  Te  Te0  1  0.39006415  0.72001258  0.80529402  1
  Te  Te1  1  0.08462925  0.80529402  0.72001258  1
  Te  Te2  1  0.80529402  0.08462925  0.39006415  1
  Te  Te3  1  0.72001258  0.39006415  0.08462925  1
  Te  Te4  1  0.85993585  0.52998742  0.44470598  1
  Te  Te5  1  0.16537075  0.44470598  0.52998742  1
  Te  Te6  1  0.44470598  0.16537075  0.85993585  1
  Te  Te7  1  0.52998742  0.85993585  0.16537075  1
loop_
_geom_bond_atom_site_label_1
_geom_bond_atom_site_label_2
_geom_bond_distance
_geom_bond_site_symmetry_2
Cs0 Te6 3.964233 1_654
Cs0 Te5 3.964233 1_565
Cs0 Te2 4.025108 1_565
Cs0 Te1 4.025108 1_654
Cs0 Te5 4.098213 1_654
Cs0 Te6 4.098213 1_565
Cs0 Te7 4.111891 1_555
Cs0 Te4 4.111891 1_555
Cs1 Te4 3.964233 1_456
Cs1 Te7 3.964233 1_545
Cs1 Te3 4.025108 1_456
Cs1 Te0 4.025108 1_545
Cs1 Te7 4.098213 1_456
Cs1 Te4 4.098213 1_545
Cs1 Te6 4.111891 1_555
Cs1 Te5 4.111891 1_555
Cs2 Te2 3.964233 1_465
Cs2 Te1 3.964233 1_644
Cs2 Te6 4.025108 1_554
Cs2 Te5 4.025108 1_555
Cs2 Te1 4.098213 1_555
Cs2 Te2 4.098213 1_554
Cs2 Te3 4.111891 1_555
Cs2 Te0 4.111891 1_554
Cs3 Te0 3.964233 1_544
Cs3 Te3 3.964233 1_456
Cs3 Te7 4.025108 1_545
Cs3 Te4 4.025108 1_455
Cs3 Te3 4.098213 1_545
Cs3 Te0 4.098213 1_455
Cs3 Te2 4.111891 1_455
Cs3 Te1 4.111891 1_545
Mn0 Te5 2.721625 1_655
Mn0 Te6 2.721625 1_565
Mn0 Te4 2.721625 1_555
Mn0 Te7 2.721626 1_556
Mn1 Te1 2.721625 1_555
Mn1 Te2 2.721625 1_555
Mn1 Te0 2.721625 1_555
Mn1 Te3 2.721626 1_555
Te0 Ti1 2.620523 1_566
Te1 Ti1 2.620523 1_566
Te2 Ti1 2.620523 1_655
Te3 Ti1 2.620523 1_655
Te4 Ti0 2.620523 1_655
Te5 Ti0 2.620523 1_555
Te6 Ti0 2.620523 1_556
Te7 Ti0 2.620523 1_565
