# generated using pymatgen
data_MgCd(Ni7B2)3
_symmetry_space_group_name_H-M   'P 1'
_cell_length_a   7.39144219
_cell_length_b   7.39144226
_cell_length_c   7.39144200
_cell_angle_alpha   60.00000555
_cell_angle_beta   60.00000524
_cell_angle_gamma   60.00000128
_symmetry_Int_Tables_number   1
_chemical_formula_structural   MgCd(Ni7B2)3
_chemical_formula_sum   'Mg1 Cd1 Ni21 B6'
_cell_volume   285.54370407
_cell_formula_units_Z   1
loop_
 _symmetry_equiv_pos_site_id
 _symmetry_equiv_pos_as_xyz
  1  'x, y, z'
loop_
 _atom_site_type_symbol
 _atom_site_label
 _atom_site_symmetry_multiplicity
 _atom_site_fract_x
 _atom_site_fract_y
 _atom_site_fract_z
 _atom_site_occupancy
  Mg  Mg0  1  0.75000000  0.75000000  0.75000000  1
  Cd  Cd0  1  0.25000000  0.25000000  0.25000000  1
  Ni  Ni0  1  0.66425354  0.99909030  0.99909030  1
  Ni  Ni1  1  0.15314402  0.61561899  0.61561899  1
  Ni  Ni2  1  0.61561899  0.61561899  0.61561899  1
  Ni  Ni3  1  0.61561899  0.61561899  0.15314402  1
  Ni  Ni4  1  0.38716830  0.83849511  0.38716830  1
  Ni  Ni5  1  0.66425354  0.33756586  0.99909030  1
  Ni  Ni6  1  0.99909030  0.33756586  0.66425354  1
  Ni  Ni7  1  0.99909030  0.99909030  0.33756586  1
  Ni  Ni8  1  0.33756586  0.99909030  0.99909030  1
  Ni  Ni9  1  0.99909030  0.99909030  0.66425354  1
  Ni  Ni10  1  0.99909030  0.33756586  0.99909030  1
  Ni  Ni11  1  0.66425354  0.99909030  0.33756586  1
  Ni  Ni12  1  0.00000000  0.00000000  0.00000000  1
  Ni  Ni13  1  0.99909030  0.66425354  0.99909030  1
  Ni  Ni14  1  0.33756586  0.99909030  0.66425354  1
  Ni  Ni15  1  0.99909030  0.66425354  0.33756586  1
  Ni  Ni16  1  0.33756586  0.66425354  0.99909030  1
  Ni  Ni17  1  0.83849511  0.38716830  0.38716830  1
  Ni  Ni18  1  0.38716830  0.38716830  0.83849511  1
  Ni  Ni19  1  0.61561899  0.15314402  0.61561899  1
  Ni  Ni20  1  0.38716830  0.38716830  0.38716830  1
  B  B0  1  0.72700771  0.72700771  0.27299229  1
  B  B1  1  0.72700771  0.27299229  0.72700771  1
  B  B2  1  0.27299229  0.72700771  0.27299229  1
  B  B3  1  0.72700771  0.27299229  0.27299229  1
  B  B4  1  0.27299229  0.72700771  0.72700771  1
  B  B5  1  0.27299229  0.27299229  0.72700771  1
loop_
_geom_bond_atom_site_label_1
_geom_bond_atom_site_label_2
_geom_bond_distance
_geom_bond_site_symmetry_2
Mg0 Ni2 2.433003 1_555
Mg0 Ni1 2.433009 1_655
Mg0 Ni19 2.433009 1_565
Mg0 Ni3 2.433009 1_556
Cd0 Ni20 2.483468 1_555
Cd0 Ni17 2.483468 1_455
Cd0 Ni4 2.483468 1_545
Cd0 Ni18 2.483468 1_554
Cd0 Ni10 2.887326 1_454
Cd0 Ni8 2.887326 1_544
Cd0 Ni11 2.887326 1_545
Cd0 Ni15 2.887326 1_455
Cd0 Ni6 2.887326 1_455
Cd0 Ni14 2.887326 1_545
Cd0 Ni7 2.887326 1_445
Cd0 Ni0 2.887326 1_544
Cd0 Ni13 2.887326 1_454
Cd0 Ni5 2.887327 1_554
Cd0 Ni16 2.887327 1_554
Cd0 Ni9 2.887327 1_445
Ni0 Ni12 2.488393 1_666
Ni10 Ni12 2.488393 1_656
Ni11 Ni12 2.488393 1_665
Ni12 Ni9 2.488393 1_444
Ni12 Ni7 2.488393 1_445
Ni12 Ni8 2.488393 1_544
Ni12 Ni13 2.488393 1_444
Ni12 Ni16 2.488393 1_544
Ni12 Ni5 2.488393 1_454
Ni12 Ni14 2.488393 1_544
Ni12 Ni6 2.488393 1_454
Ni12 Ni15 2.488393 1_445
B0 Ni4 2.050993 1_555
B0 Ni17 2.050993 1_555
B0 Ni3 2.068091 1_555
B0 Ni2 2.068097 1_555
B0 Ni15 2.071972 1_555
B0 Ni11 2.071972 1_555
B0 Ni13 2.071972 1_554
B0 Ni0 2.071972 1_554
B1 Ni18 2.050993 1_555
B1 Ni17 2.050993 1_555
B1 Ni19 2.068091 1_555
B1 Ni2 2.068097 1_555
B1 Ni5 2.071972 1_555
B1 Ni6 2.071972 1_555
B1 Ni9 2.071972 1_545
B1 Ni0 2.071972 1_545
B2 Ni4 2.050993 1_555
B2 Ni20 2.050993 1_555
B2 Ni3 2.068097 1_555
B2 Ni1 2.068097 1_555
B2 Ni16 2.071972 1_554
B2 Ni15 2.071972 1_455
B2 Ni7 2.071972 1_455
B2 Ni8 2.071972 1_554
B3 Ni17 2.050993 1_555
B3 Ni20 2.050993 1_555
B3 Ni3 2.068097 1_555
B3 Ni19 2.068097 1_555
B3 Ni5 2.071972 1_554
B3 Ni7 2.071972 1_545
B3 Ni11 2.071972 1_545
B3 Ni10 2.071972 1_554
B4 Ni18 2.050993 1_555
B4 Ni4 2.050993 1_555
B4 Ni1 2.068091 1_555
B4 Ni2 2.068097 1_555
B4 Ni16 2.071972 1_555
B4 Ni9 2.071972 1_455
B4 Ni14 2.071972 1_555
B4 Ni13 2.071972 1_455
B5 Ni18 2.050993 1_555
B5 Ni20 2.050993 1_555
B5 Ni19 2.068097 1_555
B5 Ni1 2.068097 1_555
B5 Ni6 2.071972 1_455
B5 Ni14 2.071972 1_545
B5 Ni10 2.071972 1_455
B5 Ni8 2.071972 1_545
