# generated using pymatgen
data_Ti2Nb2AsP2
_symmetry_space_group_name_H-M   'P 1'
_cell_length_a   7.24804125
_cell_length_b   7.24804100
_cell_length_c   18.56598760
_cell_angle_alpha   90.00000000
_cell_angle_beta   90.00000000
_cell_angle_gamma   152.49773106
_symmetry_Int_Tables_number   1
_chemical_formula_structural   Ti2Nb2AsP2
_chemical_formula_sum   'Ti8 Nb8 As4 P8'
_cell_volume   450.39959268
_cell_formula_units_Z   4
loop_
 _symmetry_equiv_pos_site_id
 _symmetry_equiv_pos_as_xyz
  1  'x, y, z'
loop_
 _atom_site_type_symbol
 _atom_site_label
 _atom_site_symmetry_multiplicity
 _atom_site_fract_x
 _atom_site_fract_y
 _atom_site_fract_z
 _atom_site_occupancy
  Ti  Ti0  1  0.73524154  0.26475846  0.15475076  1
  Ti  Ti1  1  0.26475846  0.73524154  0.84524924  1
  Ti  Ti2  1  0.26475846  0.73524154  0.65475076  1
  Ti  Ti3  1  0.73524154  0.26475846  0.34524924  1
  Ti  Ti4  1  0.53319856  0.46680144  0.11892147  1
  Ti  Ti5  1  0.46680144  0.53319856  0.88107853  1
  Ti  Ti6  1  0.46680144  0.53319856  0.61892147  1
  Ti  Ti7  1  0.53319856  0.46680144  0.38107853  1
  Nb  Nb0  1  0.66743982  0.33256018  0.97314029  1
  Nb  Nb1  1  0.33256018  0.66743982  0.02685971  1
  Nb  Nb2  1  0.33256018  0.66743982  0.47314029  1
  Nb  Nb3  1  0.66743982  0.33256018  0.52685971  1
  Nb  Nb4  1  0.00000000  0.00000000  0.00000000  1
  Nb  Nb5  1  0.00000000  0.00000000  0.50000000  1
  Nb  Nb6  1  0.06235775  0.93764225  0.75000000  1
  Nb  Nb7  1  0.93764225  0.06235775  0.25000000  1
  As  As0  1  0.70601340  0.29398660  0.75000000  1
  As  As1  1  0.29398660  0.70601340  0.25000000  1
  As  As2  1  0.41596091  0.58403909  0.75000000  1
  As  As3  1  0.58403909  0.41596091  0.25000000  1
  P  P0  1  0.90237843  0.09762157  0.11764819  1
  P  P1  1  0.09762157  0.90237843  0.88235181  1
  P  P2  1  0.09762157  0.90237843  0.61764819  1
  P  P3  1  0.90237843  0.09762157  0.38235181  1
  P  P4  1  0.84362457  0.15637543  0.92254525  1
  P  P5  1  0.15637543  0.84362457  0.07745475  1
  P  P6  1  0.15637543  0.84362457  0.42254525  1
  P  P7  1  0.84362457  0.15637543  0.57745475  1
loop_
_geom_bond_atom_site_label_1
_geom_bond_atom_site_label_2
_geom_bond_distance
_geom_bond_site_symmetry_2
Nb0 P5 2.596816 1_656
Nb0 P5 2.596816 1_546
Nb0 P1 2.603074 1_655
Nb0 P1 2.603074 1_545
Nb0 P4 2.652671 1_555
Nb1 P4 2.596816 1_454
Nb1 P4 2.596816 1_564
Nb1 P0 2.603074 1_455
Nb1 P0 2.603074 1_565
Nb1 P5 2.652671 1_555
Nb2 P7 2.596816 1_455
Nb2 P7 2.596816 1_565
Nb2 P3 2.603074 1_455
Nb2 P3 2.603074 1_565
Nb2 P6 2.652671 1_555
Nb3 P6 2.596816 1_655
Nb3 P6 2.596816 1_545
Nb3 P2 2.603074 1_655
Nb3 P2 2.603074 1_545
Nb3 P7 2.652671 1_555
Nb4 P0 2.580777 1_455
Nb4 P1 2.580777 1_544
Nb4 P5 2.629846 1_545
Nb4 P4 2.629846 1_454
Nb5 P2 2.580777 1_545
Nb5 P3 2.580777 1_455
Nb5 P6 2.629846 1_545
Nb5 P7 2.629846 1_455
Nb6 P1 2.506908 1_555
Nb6 P2 2.506908 1_555
Nb7 P3 2.506908 1_555
Nb7 P0 2.506908 1_555
As0 Ti1 2.603805 1_545
As0 Ti2 2.603805 1_545
As0 Ti1 2.603805 1_655
As0 Ti2 2.603805 1_655
As0 Nb6 2.657050 1_655
As0 Nb6 2.657050 1_545
As1 Ti3 2.603805 1_565
As1 Ti0 2.603805 1_565
As1 Ti3 2.603805 1_455
As1 Ti0 2.603805 1_455
As1 Nb7 2.657050 1_455
As1 Nb7 2.657050 1_565
As2 Ti5 2.536707 1_555
As2 Ti6 2.536707 1_555
As2 Nb6 2.686550 1_545
As2 Nb6 2.686550 1_655
As2 Ti1 2.767661 1_555
As2 Ti2 2.767661 1_555
As3 Ti7 2.536707 1_555
As3 Ti4 2.536707 1_555
As3 Nb7 2.686550 1_565
As3 Nb7 2.686550 1_455
As3 Ti3 2.767661 1_555
As3 Ti0 2.767661 1_555
P0 Ti0 2.452128 1_555
P0 Ti4 2.522297 1_545
P0 Ti4 2.522298 1_655
P1 Ti1 2.452128 1_555
P1 Ti5 2.522297 1_565
P1 Ti5 2.522298 1_455
P2 Ti2 2.452128 1_555
P2 Ti6 2.522297 1_565
P2 Ti6 2.522298 1_455
P3 Ti3 2.452128 1_555
P3 Ti7 2.522297 1_545
P3 Ti7 2.522298 1_655
P4 Ti1 2.502196 1_655
P4 Ti1 2.502196 1_545
P4 Ti5 2.563050 1_545
P4 Ti5 2.563050 1_655
P5 Ti0 2.502196 1_455
P5 Ti0 2.502196 1_565
P5 Ti4 2.563050 1_565
P5 Ti4 2.563050 1_455
P6 Ti3 2.502196 1_455
P6 Ti3 2.502196 1_565
P6 Ti7 2.563050 1_565
P6 Ti7 2.563050 1_455
P7 Ti2 2.502196 1_655
P7 Ti2 2.502196 1_545
P7 Ti6 2.563050 1_545
P7 Ti6 2.563050 1_655
