# generated using pymatgen
data_Hf15Nb(Ir2N)4
_symmetry_space_group_name_H-M   'P 1'
_cell_length_a   8.68762114
_cell_length_b   8.68762135
_cell_length_c   8.68762026
_cell_angle_alpha   59.57537081
_cell_angle_beta   59.57537936
_cell_angle_gamma   59.57536764
_symmetry_Int_Tables_number   1
_chemical_formula_structural   Hf15Nb(Ir2N)4
_chemical_formula_sum   'Hf15 Nb1 Ir8 N4'
_cell_volume   459.17167999
_cell_formula_units_Z   1
loop_
 _symmetry_equiv_pos_site_id
 _symmetry_equiv_pos_as_xyz
  1  'x, y, z'
loop_
 _atom_site_type_symbol
 _atom_site_label
 _atom_site_symmetry_multiplicity
 _atom_site_fract_x
 _atom_site_fract_y
 _atom_site_fract_z
 _atom_site_occupancy
  Hf  Hf0  1  0.12500000  0.62500000  0.62500000  1
  Hf  Hf1  1  0.62500000  0.12500000  0.62500000  1
  Hf  Hf2  1  0.62500000  0.62500000  0.12500000  1
  Hf  Hf3  1  0.81510304  0.81510304  0.18551554  1
  Hf  Hf4  1  0.18383253  0.18383253  0.81640833  1
  Hf  Hf5  1  0.81510304  0.18551554  0.81510304  1
  Hf  Hf6  1  0.18383253  0.81640833  0.18383253  1
  Hf  Hf7  1  0.18551554  0.81510304  0.81510304  1
  Hf  Hf8  1  0.81640833  0.18383253  0.18383253  1
  Hf  Hf9  1  0.43489696  0.43489696  0.06448446  1
  Hf  Hf10  1  0.06616747  0.06616747  0.43359167  1
  Hf  Hf11  1  0.43489696  0.06448446  0.43489696  1
  Hf  Hf12  1  0.06616747  0.43359167  0.06616747  1
  Hf  Hf13  1  0.06448446  0.43489696  0.43489696  1
  Hf  Hf14  1  0.43359167  0.06616747  0.06616747  1
  Nb  Nb0  1  0.62500000  0.62500000  0.62500000  1
  Ir  Ir0  1  0.76487478  0.41402081  0.41402081  1
  Ir  Ir1  1  0.41402081  0.76487478  0.41402081  1
  Ir  Ir2  1  0.41402081  0.41402081  0.76487478  1
  Ir  Ir3  1  0.40906313  0.40906313  0.40906313  1
  Ir  Ir4  1  0.48512522  0.83597919  0.83597919  1
  Ir  Ir5  1  0.83597919  0.48512522  0.83597919  1
  Ir  Ir6  1  0.83597919  0.83597919  0.48512522  1
  Ir  Ir7  1  0.84093687  0.84093687  0.84093687  1
  N  N0  1  0.62500000  0.12500000  0.12500000  1
  N  N1  1  0.12500000  0.62500000  0.12500000  1
  N  N2  1  0.12500000  0.12500000  0.62500000  1
  N  N3  1  0.12500000  0.12500000  0.12500000  1
loop_
_geom_bond_atom_site_label_1
_geom_bond_atom_site_label_2
_geom_bond_distance
_geom_bond_site_symmetry_2
Hf0 Ir2 2.704456 1_555
Hf0 Ir6 2.704456 1_455
Hf0 Ir1 2.704456 1_555
Hf0 Ir5 2.704456 1_455
Hf0 Ir7 2.704691 1_455
Hf0 Ir3 2.704691 1_555
Hf1 Ir2 2.704456 1_555
Hf1 Ir6 2.704456 1_545
Hf1 Ir0 2.704456 1_555
Hf1 Ir4 2.704456 1_545
Hf1 Ir7 2.704691 1_545
Hf1 Ir3 2.704691 1_555
Hf2 Ir0 2.704455 1_555
Hf2 Ir4 2.704455 1_554
Hf2 Ir1 2.704456 1_555
Hf2 Ir5 2.704456 1_554
Hf2 Ir7 2.704692 1_554
Hf2 Ir3 2.704692 1_555
Hf3 N0 2.279209 1_565
Hf3 N1 2.279209 1_655
Hf3 Ir7 2.784291 1_554
Hf3 Ir6 2.798285 1_555
Hf4 N3 2.280089 1_556
Hf4 N2 2.296489 1_555
Hf4 Ir4 2.816334 1_545
Hf4 Ir5 2.816334 1_455
Hf4 Ir3 3.167383 1_555
Hf5 N0 2.279209 1_556
Hf5 N2 2.279209 1_655
Hf5 Ir7 2.784292 1_545
Hf5 Ir5 2.798286 1_555
Hf6 N3 2.280089 1_565
Hf6 N1 2.296489 1_555
Hf6 Ir4 2.816334 1_554
Hf6 Ir6 2.816334 1_455
Hf6 Ir3 3.167383 1_555
Hf7 N1 2.279209 1_556
Hf7 N2 2.279209 1_565
Hf7 Ir7 2.784292 1_455
Hf7 Ir4 2.798286 1_555
Hf8 N3 2.280089 1_655
Hf8 N0 2.296489 1_555
Hf8 Ir5 2.816334 1_554
Hf8 Ir6 2.816334 1_545
Hf8 Ir3 3.167383 1_555
Hf9 N0 2.279209 1_555
Hf9 N1 2.279209 1_555
Hf9 Ir3 2.784291 1_555
Hf9 Ir2 2.798285 1_554
Hf10 N3 2.280089 1_555
Hf10 N2 2.296489 1_555
Hf10 Ir0 2.816334 1_455
Hf10 Ir1 2.816334 1_545
Hf10 Ir7 3.167383 1_445
Hf11 N0 2.279209 1_555
Hf11 N2 2.279209 1_555
Hf11 Ir3 2.784292 1_555
Hf11 Ir1 2.798286 1_545
Hf12 N3 2.280089 1_555
Hf12 N1 2.296489 1_555
Hf12 Ir0 2.816334 1_455
Hf12 Ir2 2.816334 1_554
Hf12 Ir7 3.167383 1_454
Hf13 N1 2.279209 1_555
Hf13 N2 2.279209 1_555
Hf13 Ir3 2.784292 1_555
Hf13 Ir0 2.798286 1_455
Hf14 N3 2.280089 1_555
Hf14 N0 2.296489 1_555
Hf14 Ir1 2.816334 1_545
Hf14 Ir2 2.816334 1_554
Hf14 Ir7 3.167383 1_544
Ir0 Nb0 2.662078 1_555
Ir1 Nb0 2.662078 1_555
Ir2 Nb0 2.662078 1_555
Ir4 Nb0 2.662078 1_555
Ir5 Nb0 2.662078 1_555
Ir6 Nb0 2.662078 1_555
