# generated using pymatgen
data_Sc12Si12OsRu3
_symmetry_space_group_name_H-M   'P 1'
_cell_length_a   3.99052230
_cell_length_b   10.27869517
_cell_length_c   11.70463453
_cell_angle_alpha   90.02898422
_cell_angle_beta   90.00000000
_cell_angle_gamma   90.00000000
_symmetry_Int_Tables_number   1
_chemical_formula_structural   Sc12Si12OsRu3
_chemical_formula_sum   'Sc12 Si12 Os1 Ru3'
_cell_volume   480.09317441
_cell_formula_units_Z   1
loop_
 _symmetry_equiv_pos_site_id
 _symmetry_equiv_pos_as_xyz
  1  'x, y, z'
loop_
 _atom_site_type_symbol
 _atom_site_label
 _atom_site_symmetry_multiplicity
 _atom_site_fract_x
 _atom_site_fract_y
 _atom_site_fract_z
 _atom_site_occupancy
  Sc  Sc0  1  0.25000000  0.87719495  0.01936759  1
  Sc  Sc1  1  0.25000000  0.62241599  0.51943998  1
  Sc  Sc2  1  0.75000000  0.12250052  0.98075133  1
  Sc  Sc3  1  0.75000000  0.37709408  0.48162296  1
  Sc  Sc4  1  0.25000000  0.92138965  0.60507823  1
  Sc  Sc5  1  0.25000000  0.57876670  0.10485175  1
  Sc  Sc6  1  0.75000000  0.07881199  0.39483008  1
  Sc  Sc7  1  0.75000000  0.42101800  0.89369487  1
  Sc  Sc8  1  0.25000000  0.66093255  0.79825329  1
  Sc  Sc9  1  0.25000000  0.83993460  0.29838722  1
  Sc  Sc10  1  0.75000000  0.33982815  0.20159324  1
  Sc  Sc11  1  0.75000000  0.15983491  0.70188477  1
  Si  Si0  1  0.25000000  0.01429073  0.82268465  1
  Si  Si1  1  0.25000000  0.48559633  0.32230643  1
  Si  Si2  1  0.75000000  0.98526047  0.17739402  1
  Si  Si3  1  0.75000000  0.51487609  0.67764718  1
  Si  Si4  1  0.25000000  0.25082083  0.84248756  1
  Si  Si5  1  0.25000000  0.24867982  0.34273604  1
  Si  Si6  1  0.75000000  0.74832273  0.15769557  1
  Si  Si7  1  0.75000000  0.75173194  0.65721146  1
  Si  Si8  1  0.25000000  0.19555049  0.54560410  1
  Si  Si9  1  0.25000000  0.30546375  0.04452421  1
  Si  Si10  1  0.75000000  0.80510160  0.45501452  1
  Si  Si11  1  0.75000000  0.69453229  0.95510993  1
  Os  Os0  1  0.25000000  0.38999112  0.67749761  1
  Ru  Ru0  1  0.25000000  0.11032450  0.17786721  1
  Ru  Ru1  1  0.75000000  0.61009258  0.32239598  1
  Ru  Ru2  1  0.75000000  0.88964266  0.82206921  1
loop_
_geom_bond_atom_site_label_1
_geom_bond_atom_site_label_2
_geom_bond_distance
_geom_bond_site_symmetry_2
Sc0 Si0 2.699760 1_564
Sc0 Si11 2.840853 1_554
Sc0 Si11 2.840853 1_454
Sc0 Si6 2.891249 1_555
Sc0 Si6 2.891249 1_455
Sc0 Si2 2.938363 1_555
Sc0 Si2 2.938363 1_455
Sc1 Si1 2.701566 1_555
Sc1 Si10 2.842033 1_555
Sc1 Si10 2.842033 1_455
Sc1 Si7 2.888950 1_555
Sc1 Si7 2.888950 1_455
Sc1 Si3 2.938365 1_455
Sc1 Si3 2.938365 1_555
Sc2 Si2 2.700133 1_546
Sc2 Si9 2.841401 1_656
Sc2 Si9 2.841401 1_556
Sc2 Si4 2.888231 1_655
Sc2 Si4 2.888231 1_555
Sc2 Si0 2.939220 1_655
Sc2 Si0 2.939220 1_555
Sc3 Si3 2.695668 1_555
Sc3 Si8 2.832908 1_655
Sc3 Si8 2.832908 1_555
Sc3 Si5 2.892016 1_555
Sc3 Si5 2.892016 1_655
Sc3 Si1 2.950295 1_555
Sc3 Si1 2.950295 1_655
Sc4 Si7 2.719473 1_455
Sc4 Si7 2.719473 1_555
Sc4 Si0 2.719670 1_565
Sc4 Si8 2.903065 1_565
Sc4 Si10 2.914231 1_455
Sc4 Si10 2.914231 1_555
Sc5 Si1 2.719886 1_555
Sc5 Si6 2.720284 1_455
Sc5 Si6 2.720284 1_555
Sc5 Si9 2.896235 1_555
Sc5 Si11 2.910489 1_554
Sc5 Si11 2.910489 1_454
Sc6 Si2 2.720156 1_545
Sc6 Si5 2.720756 1_655
Sc6 Si5 2.720756 1_555
Sc6 Si10 2.900582 1_545
Sc6 Si8 2.921145 1_655
Sc6 Si8 2.921145 1_555
Sc7 Si3 2.706993 1_555
Sc7 Si4 2.720232 1_655
Sc7 Si4 2.720232 1_555
Sc7 Si11 2.901463 1_555
Sc7 Si9 2.917289 1_656
Sc7 Si9 2.917289 1_556
Sc8 Si11 2.733205 1_555
Sc8 Si11 2.733205 1_455
Sc8 Si7 2.752990 1_555
Sc8 Si7 2.752990 1_455
Sc8 Si3 2.868012 1_455
Sc8 Si3 2.868012 1_555
Sc9 Si10 2.733274 1_455
Sc9 Si10 2.733274 1_555
Sc9 Si6 2.752811 1_555
Sc9 Si6 2.752811 1_455
Sc9 Si2 2.867071 1_555
Sc9 Si2 2.867071 1_455
Sc10 Si9 2.735877 1_555
Sc10 Si9 2.735877 1_655
Sc10 Si5 2.754918 1_555
Sc10 Si5 2.754918 1_655
Sc10 Si1 2.867080 1_655
Sc10 Si1 2.867080 1_555
Sc11 Si8 2.731761 1_555
Sc11 Si8 2.731761 1_655
Sc11 Si4 2.749997 1_655
Sc11 Si4 2.749997 1_555
Sc11 Si0 2.867124 1_555
Sc11 Si0 2.867124 1_655
Si0 Si4 2.442128 1_555
Si1 Si5 2.447025 1_555
Si2 Si6 2.446184 1_555
Si3 Si7 2.446411 1_555
Si4 Si9 2.430274 1_556
Si5 Si8 2.436754 1_555
Si10 Si7 2.429657 1_555
Si11 Si6 2.434525 1_556
Os0 Si3 2.372517 1_555
Os0 Si3 2.372517 1_455
Os0 Si4 2.403835 1_555
Os0 Si8 2.524772 1_555
Os0 Sc1 3.022323 1_555
Os0 Sc3 3.042127 1_555
Os0 Sc3 3.042127 1_455
Os0 Sc11 3.108020 1_555
Os0 Sc11 3.108020 1_455
Os0 Sc8 3.122423 1_555
Ru0 Si2 2.373518 1_545
Ru0 Si2 2.373518 1_445
Ru0 Si5 2.396556 1_555
Ru0 Si9 2.542084 1_555
Ru0 Sc0 3.029735 1_545
Ru0 Sc2 3.052876 1_454
Ru0 Sc2 3.052876 1_554
Ru0 Sc10 3.101999 1_555
Ru0 Sc10 3.101999 1_455
Ru0 Sc9 3.117393 1_545
Ru1 Si1 2.370357 1_555
Ru1 Si1 2.370357 1_655
Ru1 Si6 2.395364 1_555
Ru1 Si10 2.534583 1_555
Ru1 Sc3 3.035377 1_555
Ru1 Sc1 3.052207 1_555
Ru1 Sc1 3.052207 1_655
Ru1 Sc9 3.105157 1_655
Ru1 Sc9 3.105157 1_555
Ru1 Sc10 3.116469 1_555
Ru2 Si0 2.371209 1_565
Ru2 Si0 2.371209 1_665
Ru2 Si7 2.393745 1_555
Ru2 Si11 2.539677 1_555
Ru2 Sc2 3.028836 1_565
Ru2 Sc0 3.054608 1_556
Ru2 Sc0 3.054608 1_656
Ru2 Sc8 3.095895 1_555
Ru2 Sc8 3.095895 1_655
Ru2 Sc11 3.113803 1_565
