# generated using pymatgen
data_Sr7TaRu3O19
_symmetry_space_group_name_H-M   'P 1'
_cell_length_a   7.35452441
_cell_length_b   7.35452349
_cell_length_c   10.39768855
_cell_angle_alpha   82.09060939
_cell_angle_beta   82.09061544
_cell_angle_gamma   44.84874581
_symmetry_Int_Tables_number   1
_chemical_formula_structural   Sr7TaRu3O19
_chemical_formula_sum   'Sr7 Ta1 Ru3 O19'
_cell_volume   392.20692488
_cell_formula_units_Z   1
loop_
 _symmetry_equiv_pos_site_id
 _symmetry_equiv_pos_as_xyz
  1  'x, y, z'
loop_
 _atom_site_type_symbol
 _atom_site_label
 _atom_site_symmetry_multiplicity
 _atom_site_fract_x
 _atom_site_fract_y
 _atom_site_fract_z
 _atom_site_occupancy
  Sr  Sr0  1  0.86267530  0.86267530  0.94905836  1
  Sr  Sr1  1  0.41741864  0.41742164  0.16837622  1
  Sr  Sr2  1  0.79962684  0.79962684  0.59148049  1
  Sr  Sr3  1  0.20578432  0.20578432  0.40867134  1
  Sr  Sr4  1  0.57919293  0.57918993  0.83070875  1
  Sr  Sr5  1  0.13766640  0.13766640  0.05089716  1
  Sr  Sr6  1  0.49653306  0.49653306  0.49961513  1
  Ta  Ta0  1  0.96058046  0.96058046  0.31789383  1
  Ru  Ru0  1  0.32546175  0.32546075  0.78805083  1
  Ru  Ru1  1  0.67317882  0.67317982  0.21482416  1
  Ru  Ru2  1  0.03818985  0.03818985  0.67679873  1
  O  O0  1  0.68633680  0.17328697  0.71538991  1
  O  O1  1  0.17328697  0.68633780  0.71538991  1
  O  O2  1  0.39678043  0.39678043  0.93134273  1
  O  O3  1  0.95268551  0.95268551  0.13666858  1
  O  O4  1  0.61910476  0.12215744  0.37930386  1
  O  O5  1  0.12215644  0.61910576  0.37930486  1
  O  O6  1  0.30017701  0.30017701  0.62421688  1
  O  O7  1  0.00102827  0.47806834  0.85089183  1
  O  O8  1  0.47806834  0.00102927  0.85089183  1
  O  O9  1  0.52069481  0.99719359  0.14924409  1
  O  O10  1  0.99719459  0.52069481  0.14924409  1
  O  O11  1  0.69786928  0.69786928  0.37836566  1
  O  O12  1  0.37146396  0.88625222  0.62615779  1
  O  O13  1  0.88625322  0.37146296  0.62615679  1
  O  O14  1  0.05006956  0.05006956  0.85165904  1
  O  O15  1  0.60303671  0.60303671  0.06998498  1
  O  O16  1  0.82577989  0.31835862  0.28326914  1
  O  O17  1  0.31835962  0.82577989  0.28326914  1
  O  O18  1  0.00334444  0.00334444  0.50287487  1
loop_
_geom_bond_atom_site_label_1
_geom_bond_atom_site_label_2
_geom_bond_distance
_geom_bond_site_symmetry_2
O0 Ru2 2.005682 1_655
O0 Ru0 2.082419 1_555
O0 Sr6 2.705978 1_555
O0 Sr2 2.708957 1_545
O0 Sr0 2.818207 1_545
O0 Sr4 2.891334 1_555
O1 Ru2 2.005675 1_565
O1 Ru0 2.082428 1_555
O1 Sr6 2.705979 1_555
O1 Sr2 2.708961 1_455
O1 Sr0 2.818208 1_455
O1 Sr4 2.891339 1_555
O2 Ru0 1.894811 1_555
O2 Sr1 2.521693 1_556
O2 Sr4 2.544335 1_555
O2 Sr0 2.845044 1_545
O2 Sr0 2.845044 1_455
O3 Ta0 1.903266 1_555
O3 Sr0 2.452321 1_554
O3 Sr5 2.540375 1_665
O3 Sr1 2.856962 1_655
O3 Sr1 2.856979 1_565
O4 Ta0 1.913839 1_545
O4 Sr1 2.596734 1_555
O4 Sr3 2.618593 1_555
O4 Sr6 2.660203 1_555
O4 Sr2 2.675220 1_545
O5 Ta0 1.913837 1_455
O5 Sr1 2.596737 1_555
O5 Sr3 2.618596 1_555
O5 Sr6 2.660201 1_555
O5 Sr2 2.675209 1_455
O6 Ru0 1.787300 1_555
O6 Sr3 2.743441 1_555
O6 Sr6 2.788655 1_555
O6 Sr2 2.826201 1_455
O6 Sr2 2.826201 1_545
O7 Ru0 1.831768 1_555
O7 Sr0 2.550659 1_455
O7 Sr4 2.662081 1_455
O7 Sr5 2.679012 1_556
O7 Sr2 3.072320 1_455
O8 Ru0 1.831757 1_555
O8 Sr0 2.550656 1_545
O8 Sr4 2.662098 1_545
O8 Sr5 2.679014 1_556
O8 Sr2 3.072320 1_545
O9 Ru1 1.837152 1_555
O9 Sr5 2.534537 1_565
O9 Sr1 2.639553 1_565
O9 Sr0 2.689757 1_554
O9 Sr3 3.061890 1_565
O10 Ru1 1.837163 1_555
O10 Sr5 2.534540 1_655
O10 Sr1 2.639537 1_655
O10 Sr0 2.689755 1_554
O10 Sr3 3.061889 1_655
O11 Ru1 1.781628 1_555
O11 Sr2 2.781600 1_555
O11 Sr3 2.826961 1_655
O11 Sr3 2.826961 1_565
O11 Sr6 2.838299 1_555
O12 Ru2 1.859246 1_565
O12 Sr4 2.576386 1_555
O12 Sr3 2.712297 1_565
O12 Sr2 2.712529 1_555
O12 Sr6 2.785484 1_555
O13 Ru2 1.859243 1_655
O13 Sr4 2.576388 1_555
O13 Sr3 2.712286 1_655
O13 Sr2 2.712532 1_555
O13 Sr6 2.785481 1_555
O14 Ru2 1.849100 1_555
O14 Sr5 2.538654 1_556
O14 Sr0 2.597977 1_445
O14 Sr4 2.837120 1_455
O14 Sr4 2.837137 1_545
O15 Ru1 1.898739 1_555
O15 Sr4 2.556368 1_554
O15 Sr1 2.578261 1_555
O15 Sr5 2.846754 1_565
O15 Sr5 2.846754 1_655
O16 Ru1 2.032664 1_555
O16 Ta0 2.043223 1_545
O16 Sr6 2.730156 1_555
O16 Sr3 2.760637 1_655
O16 Sr5 2.810927 1_655
O16 Sr1 2.936502 1_555
O17 Ru1 2.032654 1_555
O17 Ta0 2.043231 1_455
O17 Sr6 2.730156 1_555
O17 Sr3 2.760633 1_565
O17 Sr5 2.810927 1_565
O17 Sr1 2.936497 1_555
O18 Ru2 1.936465 1_555
O18 Ta0 2.090556 1_445
O18 Sr3 2.780858 1_555
O18 Sr2 2.785930 1_445
O18 Sr6 2.807383 1_545
O18 Sr6 2.807383 1_455
