# generated using pymatgen
data_Li3LuSb2
_symmetry_space_group_name_H-M   'P 1'
_cell_length_a   4.49725727
_cell_length_b   4.49725700
_cell_length_c   7.05594569
_cell_angle_alpha   90.00000000
_cell_angle_beta   90.00000000
_cell_angle_gamma   120.00000200
_symmetry_Int_Tables_number   1
_chemical_formula_structural   Li3LuSb2
_chemical_formula_sum   'Li3 Lu1 Sb2'
_cell_volume   123.58941909
_cell_formula_units_Z   1
loop_
 _symmetry_equiv_pos_site_id
 _symmetry_equiv_pos_as_xyz
  1  'x, y, z'
loop_
 _atom_site_type_symbol
 _atom_site_label
 _atom_site_symmetry_multiplicity
 _atom_site_fract_x
 _atom_site_fract_y
 _atom_site_fract_z
 _atom_site_occupancy
  Li  Li0  1  0.66666700  0.33333300  0.34983358  1
  Li  Li1  1  0.33333300  0.66666700  0.65016642  1
  Li  Li2  1  0.00000000  0.00000000  0.50000000  1
  Lu  Lu0  1  0.00000000  0.00000000  0.00000000  1
  Sb  Sb0  1  0.66666700  0.33333300  0.75666364  1
  Sb  Sb1  1  0.33333300  0.66666700  0.24333636  1
loop_
_geom_bond_atom_site_label_1
_geom_bond_atom_site_label_2
_geom_bond_distance
_geom_bond_site_symmetry_2
Li0 Sb1 2.703039 1_545
Li0 Sb1 2.703039 1_655
Li0 Sb1 2.703047 1_555
Li0 Li2 2.804361 1_655
Li0 Li2 2.804365 1_665
Li0 Li2 2.804365 1_555
Li0 Sb0 2.870571 1_555
Li1 Sb0 2.703039 1_565
Li1 Sb0 2.703039 1_455
Li1 Sb0 2.703047 1_555
Li1 Li2 2.804361 1_565
Li1 Li2 2.804365 1_555
Li1 Li2 2.804365 1_665
Li1 Sb1 2.870571 1_555
Li2 Sb0 3.165675 1_455
Li2 Sb1 3.165675 1_545
Li2 Sb0 3.165678 1_445
Li2 Sb1 3.165678 1_555
Li2 Sb0 3.165678 1_555
Li2 Sb1 3.165678 1_445
Li2 Lu0 3.527973 1_555
Li2 Lu0 3.527973 1_556
Lu0 Sb1 3.112835 1_545
Lu0 Sb0 3.112835 1_454
Lu0 Sb1 3.112838 1_555
Lu0 Sb0 3.112838 1_444
Lu0 Sb0 3.112838 1_554
Lu0 Sb1 3.112838 1_445
