# generated using pymatgen
data_Sr6In4SbAs7
_symmetry_space_group_name_H-M   'P 1'
_cell_length_a   4.49199559
_cell_length_b   7.06001869
_cell_length_c   16.92043099
_cell_angle_alpha   90.15153522
_cell_angle_beta   90.00000000
_cell_angle_gamma   90.00000000
_symmetry_Int_Tables_number   1
_chemical_formula_structural   Sr6In4SbAs7
_chemical_formula_sum   'Sr6 In4 Sb1 As7'
_cell_volume   536.60544375
_cell_formula_units_Z   1
loop_
 _symmetry_equiv_pos_site_id
 _symmetry_equiv_pos_as_xyz
  1  'x, y, z'
loop_
 _atom_site_type_symbol
 _atom_site_label
 _atom_site_symmetry_multiplicity
 _atom_site_fract_x
 _atom_site_fract_y
 _atom_site_fract_z
 _atom_site_occupancy
  Sr  Sr0  1  0.50000000  0.49391365  0.50742450  1
  Sr  Sr1  1  0.00000000  0.29584402  0.80147610  1
  Sr  Sr2  1  0.50000000  0.22029904  0.30356792  1
  Sr  Sr3  1  0.50000000  0.79675907  0.70015706  1
  Sr  Sr4  1  0.00000000  0.71104386  0.18762589  1
  Sr  Sr5  1  0.00000000  0.00169068  0.99639293  1
  In  In0  1  0.50000000  0.36424970  0.08327303  1
  In  In1  1  0.00000000  0.13217876  0.58785026  1
  In  In2  1  0.00000000  0.86799059  0.42054048  1
  In  In3  1  0.50000000  0.63293010  0.91236968  1
  Sb  Sb0  1  0.50000000  0.72963375  0.33216083  1
  As  As0  1  0.50000000  0.25758034  0.92960958  1
  As  As1  1  0.00000000  0.24247359  0.43516673  1
  As  As2  1  0.00000000  0.75673840  0.57286047  1
  As  As3  1  0.50000000  0.74200930  0.06363754  1
  As  As4  1  0.00000000  0.75698608  0.83271169  1
  As  As5  1  0.50000000  0.25518267  0.66905599  1
  As  As6  1  0.00000000  0.24249842  0.16411831  1
loop_
_geom_bond_atom_site_label_1
_geom_bond_atom_site_label_2
_geom_bond_distance
_geom_bond_site_symmetry_2
In2 Sb0 2.868311 1_455
In2 Sb0 2.868311 1_555
Sb0 Sr4 3.322794 1_555
Sb0 Sr4 3.322794 1_655
Sb0 Sr0 3.404414 1_555
Sb0 Sr2 3.498995 1_565
Sb0 Sr2 3.627044 1_555
As0 In3 2.666750 1_555
As0 In0 2.705005 1_556
As0 Sr5 3.097735 1_655
As0 Sr5 3.097735 1_555
As0 Sr1 3.133867 1_555
As0 Sr1 3.133867 1_655
As1 In2 2.654763 1_545
As1 In1 2.700243 1_555
As1 Sr0 3.111124 1_455
As1 Sr0 3.111124 1_555
As1 Sr2 3.166292 1_455
As1 Sr2 3.166292 1_555
As2 In1 2.662055 1_565
As2 In2 2.696332 1_555
As2 Sr0 3.114899 1_555
As2 Sr0 3.114899 1_455
As2 Sr3 3.124174 1_555
As2 Sr3 3.124174 1_455
As3 In3 2.670910 1_554
As3 In0 2.688476 1_555
As3 Sr4 3.081568 1_555
As3 Sr4 3.081568 1_655
As3 Sr5 3.116302 1_564
As3 Sr5 3.116302 1_664
As4 In3 2.763066 1_455
As4 In3 2.763066 1_555
As4 Sr3 3.187037 1_455
As4 Sr3 3.187037 1_555
As4 Sr5 3.260338 1_565
As4 Sr1 3.296912 1_555
As5 In1 2.771336 1_555
As5 In1 2.771336 1_655
As5 Sr1 3.184937 1_655
As5 Sr1 3.184937 1_555
As5 Sr0 3.216309 1_555
As5 Sr3 3.280356 1_545
As6 In0 2.767821 1_455
As6 In0 2.767821 1_555
As6 Sr2 3.261670 1_555
As6 Sr2 3.261670 1_455
As6 Sr5 3.304392 1_554
As6 Sr4 3.330723 1_555
As6 Sr4 3.774149 1_545
