# generated using pymatgen
data_K5Ir2PtN3
_symmetry_space_group_name_H-M   'P 1'
_cell_length_a   9.08296632
_cell_length_b   9.06673128
_cell_length_c   3.70521976
_cell_angle_alpha   90.00000000
_cell_angle_beta   90.00000000
_cell_angle_gamma   120.05924384
_symmetry_Int_Tables_number   1
_chemical_formula_structural   K5Ir2PtN3
_chemical_formula_sum   'K5 Ir2 Pt1 N3'
_cell_volume   264.09700542
_cell_formula_units_Z   1
loop_
 _symmetry_equiv_pos_site_id
 _symmetry_equiv_pos_as_xyz
  1  'x, y, z'
loop_
 _atom_site_type_symbol
 _atom_site_label
 _atom_site_symmetry_multiplicity
 _atom_site_fract_x
 _atom_site_fract_y
 _atom_site_fract_z
 _atom_site_occupancy
  K  K0  1  0.73729051  1.00000000  0.50000000  1
  K  K1  1  0.26723820  0.26978845  0.50000000  1
  K  K2  1  0.66775198  0.33408272  0.50000000  1
  K  K3  1  0.33367026  0.66591728  0.50000000  1
  K  K4  1  0.99744976  0.73021255  0.50000000  1
  Ir  Ir0  1  0.99999374  0.36491306  0.00000000  1
  Ir  Ir1  1  0.63508068  0.63508694  0.00000000  1
  Pt  Pt0  1  0.36337760  0.00000000  0.00000000  1
  N  N0  1  0.36383443  1.00000000  0.50000000  1
  N  N1  1  0.99981238  0.36531093  0.50000000  1
  N  N2  1  0.63450245  0.63468907  0.50000000  1
loop_
_geom_bond_atom_site_label_1
_geom_bond_atom_site_label_2
_geom_bond_distance
_geom_bond_site_symmetry_2
K0 N1 2.957075 1_565
K0 N2 2.957077 1_555
K1 N1 2.959343 1_455
K1 N0 2.983823 1_545
K2 N1 2.884699 1_555
K2 N2 2.888640 1_555
K2 N0 2.901506 1_545
K3 N2 2.884699 1_555
K3 N1 2.888651 1_455
K3 N0 2.901509 1_555
K4 N2 2.959332 1_555
K4 N0 2.983821 1_655
Ir0 N1 1.852616 1_554
Ir0 N1 1.852616 1_555
Ir1 N2 1.852616 1_554
Ir1 N2 1.852616 1_555
N0 Pt0 1.852615 1_566
N0 Pt0 1.852615 1_565
