# generated using pymatgen
data_Ti8Al14Co7As
_symmetry_space_group_name_H-M   'P 1'
_cell_length_a   8.35268033
_cell_length_b   8.35266054
_cell_length_c   8.35267961
_cell_angle_alpha   120.04452835
_cell_angle_beta   119.93481953
_cell_angle_gamma   90.01798379
_symmetry_Int_Tables_number   1
_chemical_formula_structural   Ti8Al14Co7As
_chemical_formula_sum   'Ti8 Al14 Co7 As1'
_cell_volume   412.12456810
_cell_formula_units_Z   1
loop_
 _symmetry_equiv_pos_site_id
 _symmetry_equiv_pos_as_xyz
  1  'x, y, z'
loop_
 _atom_site_type_symbol
 _atom_site_label
 _atom_site_symmetry_multiplicity
 _atom_site_fract_x
 _atom_site_fract_y
 _atom_site_fract_z
 _atom_site_occupancy
  Ti  Ti0  1  0.79551438  0.29188032  0.08184727  1
  Ti  Ti1  1  0.21003205  0.29188032  0.49636494  1
  Ti  Ti2  1  0.20710563  0.70710261  0.49999699  1
  Ti  Ti3  1  0.21003529  0.71365985  0.91814141  1
  Ti  Ti4  1  0.79552043  0.71365985  0.50362456  1
  Ti  Ti5  1  0.78919435  0.28918576  0.49999141  1
  Ti  Ti6  1  0.38074770  0.12060473  0.73985702  1
  Ti  Ti7  1  0.38073187  0.64088152  0.26014865  1
  Al  Al0  1  0.16176146  0.33571171  0.17394925  1
  Al  Al1  1  0.16177200  0.98782849  0.82605549  1
  Al  Al2  1  0.15811297  0.33770318  0.82040271  1
  Al  Al3  1  0.51729847  0.33770318  0.17959021  1
  Al  Al4  1  0.83708687  0.66146281  0.82437694  1
  Al  Al5  1  0.83709199  0.01271702  0.17562503  1
  Al  Al6  1  0.83670262  0.66213221  0.17456643  1
  Al  Al7  1  0.48756577  0.66213221  0.82542959  1
  Al  Al8  1  0.38138222  0.11869575  0.26269659  1
  Al  Al9  1  0.85600116  0.11869575  0.73731353  1
  Al  Al10  1  0.61964335  0.88085375  0.26121041  1
  Al  Al11  1  0.61963865  0.35843454  0.73879588  1
  Al  Al12  1  0.62083425  0.88037350  0.74047119  1
  Al  Al13  1  0.13990031  0.88037350  0.25953925  1
  Co  Co0  1  0.00366800  0.00034866  0.50242581  1
  Co  Co1  1  0.49792285  0.00034866  0.99668166  1
  Co  Co2  1  0.49738770  0.49738334  0.99999464  1
  Co  Co3  1  0.49790901  0.50123350  0.49757288  1
  Co  Co4  1  0.00366062  0.50123350  0.00332449  1
  Co  Co5  1  0.00049066  0.00049789  0.00000823  1
  Co  Co6  1  0.49728208  0.99729550  0.50001342  1
  As  As0  1  0.99800028  0.49798539  0.49998512  1
loop_
_geom_bond_atom_site_label_1
_geom_bond_atom_site_label_2
_geom_bond_distance
_geom_bond_site_symmetry_2
Ti0 Ti6 2.869963 1_554
Ti1 Ti6 2.869970 1_555
Ti2 Ti7 2.865873 1_555
Ti2 Ti6 2.866064 1_565
Ti3 Ti7 2.870097 1_556
Ti4 Ti7 2.870118 1_555
Al0 Co5 2.394985 1_555
Al0 Co4 2.404640 1_555
Al0 Co3 2.404647 1_555
Al0 Al9 2.681551 1_454
Al0 Al8 2.681563 1_555
Al0 Ti7 2.684395 1_555
Al1 Co5 2.395141 1_566
Al1 Co0 2.404674 1_565
Al1 Co1 2.404681 1_565
Al1 Al9 2.681588 1_465
Al1 Al8 2.681608 1_566
Al1 Ti6 2.684453 1_565
Al2 Co0 2.396349 1_555
Al2 Co4 2.396468 1_556
Al2 Co2 2.410693 1_555
Al2 Al9 2.678379 1_455
Al2 Ti6 2.688509 1_555
Al2 Ti7 2.688559 1_556
Al3 Co1 2.396353 1_554
Al3 Co3 2.396457 1_555
Al3 Co2 2.410702 1_554
Al3 Al8 2.678384 1_555
Al3 Ti6 2.688513 1_554
Al3 Ti7 2.688555 1_555
Al4 Co5 2.423562 1_666
Al4 Co4 2.426896 1_656
Al4 Co3 2.426904 1_555
Al5 Co5 2.423446 1_655
Al5 Co0 2.426854 1_655
Al5 Co1 2.426854 1_554
Al6 Co4 2.421530 1_655
Al6 Co0 2.421613 1_665
Al6 Co2 2.432333 1_554
Al7 Co3 2.421530 1_555
Al7 Co1 2.421614 1_565
Al7 Co2 2.432328 1_555
Al8 Co6 2.448021 1_545
Al8 Co5 2.602453 1_555
Al8 Co3 2.611687 1_555
Al8 Co1 2.611817 1_554
Al8 Ti1 2.812897 1_555
Al8 Ti3 2.813018 1_544
Al8 Ti5 2.826996 1_555
Al9 Co6 2.448034 1_545
Al9 Co5 2.602459 1_656
Al9 Co4 2.611687 1_656
Al9 Co0 2.611810 1_655
Al9 Ti0 2.812907 1_556
Al9 Ti4 2.813018 1_545
Al9 Ti5 2.826993 1_555
Al10 Co6 2.462063 1_555
Al10 Co2 2.615127 1_554
Al10 Co1 2.622750 1_564
Al10 Co0 2.622757 1_665
Al10 Al5 2.665710 1_565
Al10 Al7 2.671344 1_554
Al10 Al6 2.671344 1_555
Al10 Al9 2.812437 1_565
Al10 Al8 2.812437 1_565
Al10 Ti7 2.821697 1_555
Al10 Ti5 2.825331 1_565
Al10 Ti3 2.841174 1_554
Al10 Ti4 2.841177 1_555
Al11 Co6 2.461884 1_545
Al11 Co2 2.614993 1_555
Al11 Co3 2.622736 1_555
Al11 Co4 2.622736 1_656
Al11 Al4 2.665684 1_555
Al11 Al6 2.671281 1_556
Al11 Al7 2.671282 1_555
Al11 Al8 2.812414 1_555
Al11 Al9 2.812426 1_555
Al11 Ti6 2.821461 1_555
Al11 Ti5 2.825518 1_555
Al11 Ti0 2.841139 1_556
Al11 Ti1 2.841147 1_555
Al12 Co6 2.439024 1_555
Al12 Co1 2.585329 1_565
Al12 Co3 2.585445 1_555
Al12 Co5 2.592567 1_666
Al12 Al9 2.814868 1_565
Al12 Ti6 2.837324 1_565
Al12 Ti7 2.837352 1_555
Al13 Co6 2.439037 1_555
Al13 Co0 2.585308 1_565
Al13 Co4 2.585444 1_555
Al13 Co5 2.592559 1_565
Al13 Al8 2.814868 1_565
Al13 Ti6 2.837324 1_565
Al13 Ti7 2.837358 1_555
Co0 Ti6 2.575157 1_555
Co0 Ti4 2.965762 1_445
Co0 Ti2 2.979028 1_545
Co0 Ti5 3.007582 1_455
Co0 Ti1 3.018463 1_555
Co1 Ti6 2.575163 1_555
Co1 Ti3 2.965767 1_545
Co1 Ti2 2.979032 1_545
Co1 Ti5 3.007577 1_556
Co1 Ti0 3.018466 1_556
Co2 Ti6 2.571510 1_555
Co2 Ti7 2.571726 1_556
Co2 Ti3 3.015515 1_555
Co2 Ti1 3.015518 1_555
Co2 Ti0 3.015518 1_556
Co2 Ti4 3.015523 1_556
Co3 Ti7 2.575106 1_555
Co3 Ti1 2.965672 1_555
Co3 Ti2 2.978943 1_555
Co3 Ti5 3.007733 1_555
Co3 Ti4 3.018653 1_555
Co4 Ti7 2.575099 1_555
Co4 Ti0 2.965671 1_455
Co4 Ti2 2.978943 1_555
Co4 Ti5 3.007733 1_454
Co4 Ti3 3.018639 1_554
Co5 Ti1 2.970976 1_555
Co5 Ti0 2.970986 1_455
Co5 Ti3 2.971153 1_544
Co5 Ti4 2.971160 1_444
Co6 Ti6 2.429461 1_565
Co6 Ti7 2.429699 1_555
As0 Ti5 2.466124 1_555
As0 Ti2 2.469661 1_655
As0 Ti1 2.470700 1_655
As0 Ti0 2.470706 1_555
As0 Ti4 2.470805 1_555
As0 Ti3 2.470816 1_655
