# generated using pymatgen
data_MgAg2(PSe3)2
_symmetry_space_group_name_H-M   'P 1'
_cell_length_a   6.65674266
_cell_length_b   6.65674243
_cell_length_c   14.43176388
_cell_angle_alpha   85.62258799
_cell_angle_beta   85.62258912
_cell_angle_gamma   119.92911048
_symmetry_Int_Tables_number   1
_chemical_formula_structural   MgAg2(PSe3)2
_chemical_formula_sum   'Mg2 Ag4 P4 Se12'
_cell_volume   547.73999463
_cell_formula_units_Z   2
loop_
 _symmetry_equiv_pos_site_id
 _symmetry_equiv_pos_as_xyz
  1  'x, y, z'
loop_
 _atom_site_type_symbol
 _atom_site_label
 _atom_site_symmetry_multiplicity
 _atom_site_fract_x
 _atom_site_fract_y
 _atom_site_fract_z
 _atom_site_occupancy
  Mg  Mg0  1  0.42163620  0.57836380  0.25000000  1
  Mg  Mg1  1  0.57836380  0.42163620  0.75000000  1
  Ag  Ag0  1  0.05288723  0.87692214  0.35317570  1
  Ag  Ag1  1  0.94711277  0.12307786  0.64682430  1
  Ag  Ag2  1  0.12307786  0.94711277  0.14682430  1
  Ag  Ag3  1  0.87692214  0.05288723  0.85317570  1
  P  P0  1  0.21761987  0.72747463  0.82965235  1
  P  P1  1  0.78238013  0.27252537  0.17034765  1
  P  P2  1  0.27252537  0.78238013  0.67034765  1
  P  P3  1  0.72747463  0.21761987  0.32965235  1
  Se  Se0  1  0.48652236  0.65776638  0.87678956  1
  Se  Se1  1  0.51347764  0.34223362  0.12321044  1
  Se  Se2  1  0.34223362  0.51347764  0.62321044  1
  Se  Se3  1  0.65776638  0.48652236  0.37678956  1
  Se  Se4  1  0.04942482  0.25586890  0.37817762  1
  Se  Se5  1  0.95057518  0.74413110  0.62182238  1
  Se  Se6  1  0.74413110  0.95057518  0.12182238  1
  Se  Se7  1  0.25586890  0.04942482  0.87817762  1
  Se  Se8  1  0.13602028  0.57208912  0.12360066  1
  Se  Se9  1  0.86397972  0.42791088  0.87639934  1
  Se  Se10  1  0.42791088  0.86397972  0.37639934  1
  Se  Se11  1  0.57208912  0.13602028  0.62360066  1
loop_
_geom_bond_atom_site_label_1
_geom_bond_atom_site_label_2
_geom_bond_distance
_geom_bond_site_symmetry_2
Mg0 Se10 2.721393 1_555
Mg0 Se8 2.721393 1_555
Mg0 Se1 2.723943 1_555
Mg0 Se3 2.723943 1_555
Mg0 Se6 2.748820 1_555
Mg0 Se4 2.748820 1_555
Mg1 Se11 2.721393 1_555
Mg1 Se9 2.721393 1_555
Mg1 Se0 2.723943 1_555
Mg1 Se2 2.723943 1_555
Mg1 Se7 2.748820 1_555
Mg1 Se5 2.748820 1_555
Ag0 Se4 2.586441 1_565
Ag0 Se10 2.586480 1_555
Ag0 Se3 2.587497 1_455
Ag1 Se5 2.586441 1_545
Ag1 Se11 2.586480 1_555
Ag1 Se2 2.587497 1_655
Ag2 Se6 2.586441 1_455
Ag2 Se8 2.586480 1_555
Ag2 Se1 2.587497 1_565
Ag3 Se7 2.586441 1_655
Ag3 Se9 2.586480 1_555
Ag3 Se0 2.587497 1_545
P0 Se9 2.200300 1_455
P0 Se0 2.201995 1_555
P0 Se7 2.204569 1_565
P0 P2 2.272213 1_555
P1 Se8 2.200300 1_655
P1 Se1 2.201995 1_555
P1 Se6 2.204569 1_545
P1 P3 2.272213 1_555
P2 Se11 2.200300 1_565
P2 Se2 2.201995 1_555
P2 Se5 2.204569 1_455
P3 Se10 2.200300 1_545
P3 Se3 2.201995 1_555
P3 Se4 2.204569 1_655
