# generated using pymatgen
data_Lu3GeS2
_symmetry_space_group_name_H-M   'P 1'
_cell_length_a   6.72496423
_cell_length_b   6.72496507
_cell_length_c   6.72496460
_cell_angle_alpha   146.20755709
_cell_angle_beta   131.82333094
_cell_angle_gamma   60.13924495
_symmetry_Int_Tables_number   1
_chemical_formula_structural   Lu3GeS2
_chemical_formula_sum   'Lu3 Ge1 S2'
_cell_volume   124.88883305
_cell_formula_units_Z   1
loop_
 _symmetry_equiv_pos_site_id
 _symmetry_equiv_pos_as_xyz
  1  'x, y, z'
loop_
 _atom_site_type_symbol
 _atom_site_label
 _atom_site_symmetry_multiplicity
 _atom_site_fract_x
 _atom_site_fract_y
 _atom_site_fract_z
 _atom_site_occupancy
  Lu  Lu0  1  0.33492863  0.33492863  1.00000000  1
  Lu  Lu1  1  0.00000000  0.00000000  0.00000000  1
  Lu  Lu2  1  0.66507137  0.66507137  0.00000000  1
  Ge  Ge0  1  0.50000000  0.00000000  0.50000000  1
  S  S0  1  0.16722165  0.66722165  0.50000000  1
  S  S1  1  0.83277835  0.33277835  0.50000000  1
loop_
_geom_bond_atom_site_label_1
_geom_bond_atom_site_label_2
_geom_bond_distance
_geom_bond_site_symmetry_2
Lu0 S1 2.744872 1_455
Lu0 S1 2.744872 1_556
Lu0 S0 2.762393 1_556
Lu0 S0 2.762394 1_545
Lu1 S1 2.758404 1_455
Lu1 S0 2.758404 1_544
Lu1 S1 2.758404 1_444
Lu1 S0 2.758404 1_555
Lu2 S0 2.744872 1_655
Lu2 S0 2.744872 1_554
Lu2 S1 2.762393 1_554
Lu2 S1 2.762394 1_565
Ge0 Lu2 2.740800 1_545
Ge0 Lu0 2.740800 1_555
Ge0 Lu2 2.740801 1_556
Ge0 Lu0 2.740801 1_544
Ge0 Lu1 2.744758 1_555
Ge0 Lu1 2.744758 1_656
