# generated using pymatgen
data_TiCr3GaS8
_symmetry_space_group_name_H-M   'P 1'
_cell_length_a   6.98935810
_cell_length_b   6.98935765
_cell_length_c   6.98935790
_cell_angle_alpha   60.44610352
_cell_angle_beta   60.44611053
_cell_angle_gamma   60.44610481
_symmetry_Int_Tables_number   1
_chemical_formula_structural   TiCr3GaS8
_chemical_formula_sum   'Ti1 Cr3 Ga1 S8'
_cell_volume   243.86808814
_cell_formula_units_Z   1
loop_
 _symmetry_equiv_pos_site_id
 _symmetry_equiv_pos_as_xyz
  1  'x, y, z'
loop_
 _atom_site_type_symbol
 _atom_site_label
 _atom_site_symmetry_multiplicity
 _atom_site_fract_x
 _atom_site_fract_y
 _atom_site_fract_z
 _atom_site_occupancy
  Ti  Ti0  1  0.39437292  0.39437292  0.39437292  1
  Cr  Cr0  1  0.85770931  0.37965614  0.37965614  1
  Cr  Cr1  1  0.37965614  0.85770931  0.37965614  1
  Cr  Cr2  1  0.37965614  0.37965614  0.85770931  1
  Ga  Ga0  1  0.99646039  0.99646039  0.99646039  1
  S  S0  1  0.13101378  0.13101378  0.13101378  1
  S  S1  1  0.59581961  0.13344102  0.13344102  1
  S  S2  1  0.13344102  0.59581961  0.13344102  1
  S  S3  1  0.13344102  0.13344102  0.59581961  1
  S  S4  1  0.61608349  0.61608349  0.61608349  1
  S  S5  1  0.13345203  0.62444607  0.62444607  1
  S  S6  1  0.62444607  0.13345203  0.62444607  1
  S  S7  1  0.62444607  0.62444607  0.13345203  1
loop_
_geom_bond_atom_site_label_1
_geom_bond_atom_site_label_2
_geom_bond_distance
_geom_bond_site_symmetry_2
Cr0 S4 2.345464 1_555
Cr0 S7 2.378663 1_555
Cr0 S6 2.378663 1_555
Cr0 S3 2.448261 1_655
Cr0 S2 2.448261 1_655
Cr0 S0 2.473637 1_655
Cr1 S4 2.345464 1_555
Cr1 S5 2.378663 1_555
Cr1 S7 2.378663 1_555
Cr1 S1 2.448261 1_565
Cr1 S3 2.448261 1_565
Cr1 S0 2.473636 1_565
Cr2 S4 2.345464 1_555
Cr2 S5 2.378663 1_555
Cr2 S6 2.378663 1_555
Cr2 S1 2.448261 1_556
Cr2 S2 2.448261 1_556
Cr2 S0 2.473637 1_556
Ga0 S0 2.295806 1_666
Ga0 S2 2.299849 1_656
Ga0 S3 2.299849 1_665
Ga0 S1 2.299849 1_566
S1 Ti0 2.617140 1_555
S2 Ti0 2.617140 1_555
S3 Ti0 2.617140 1_555
S5 Ti0 2.294024 1_555
S6 Ti0 2.294024 1_555
S7 Ti0 2.294024 1_555
