# generated using pymatgen
data_LiPt2
_symmetry_space_group_name_H-M   'P 1'
_cell_length_a   5.21655633
_cell_length_b   5.21655554
_cell_length_c   5.21655614
_cell_angle_alpha   60.00000256
_cell_angle_beta   60.00000752
_cell_angle_gamma   60.00000382
_symmetry_Int_Tables_number   1
_chemical_formula_structural   LiPt2
_chemical_formula_sum   'Li2 Pt4'
_cell_volume   100.37756825
_cell_formula_units_Z   2
loop_
 _symmetry_equiv_pos_site_id
 _symmetry_equiv_pos_as_xyz
  1  'x, y, z'
loop_
 _atom_site_type_symbol
 _atom_site_label
 _atom_site_symmetry_multiplicity
 _atom_site_fract_x
 _atom_site_fract_y
 _atom_site_fract_z
 _atom_site_occupancy
  Li  Li0  1  0.87500000  0.87500000  0.87500000  1
  Li  Li1  1  0.12500000  0.12500000  0.12500000  1
  Pt  Pt0  1  0.50000000  0.50000000  0.50000000  1
  Pt  Pt1  1  0.50000000  0.50000000  0.00000000  1
  Pt  Pt2  1  0.00000000  0.50000000  0.50000000  1
  Pt  Pt3  1  0.50000000  -0.00000000  0.50000000  1
loop_
_geom_bond_atom_site_label_1
_geom_bond_atom_site_label_2
_geom_bond_distance
_geom_bond_site_symmetry_2
Li0 Pt2 3.058477 1_665
Li0 Pt2 3.058477 1_655
Li0 Pt1 3.058477 1_566
Li0 Pt1 3.058477 1_556
Li0 Pt0 3.058477 1_565
Li0 Pt3 3.058477 1_565
Li0 Pt2 3.058477 1_656
Li0 Pt1 3.058477 1_656
Li0 Pt0 3.058477 1_556
Li0 Pt3 3.058477 1_566
Li0 Pt0 3.058477 1_655
Li0 Pt3 3.058477 1_665
Li1 Pt2 3.058477 1_545
Li1 Pt2 3.058477 1_555
Li1 Pt1 3.058477 1_545
Li1 Pt1 3.058477 1_555
Li1 Pt0 3.058477 1_545
Li1 Pt3 3.058477 1_555
Li1 Pt2 3.058477 1_554
Li1 Pt1 3.058477 1_455
Li1 Pt0 3.058477 1_554
Li1 Pt3 3.058477 1_554
Li1 Pt0 3.058477 1_455
Li1 Pt3 3.058477 1_455
Pt0 Pt3 2.608278 1_555
Pt0 Pt3 2.608278 1_565
Pt0 Pt1 2.608278 1_556
Pt0 Pt1 2.608278 1_555
Pt0 Pt2 2.608278 1_655
Pt0 Pt2 2.608278 1_555
Pt1 Pt3 2.608278 1_555
Pt1 Pt3 2.608278 1_564
Pt1 Pt2 2.608278 1_654
Pt1 Pt2 2.608278 1_555
Pt2 Pt3 2.608278 1_555
Pt2 Pt3 2.608278 1_465
