# generated using pymatgen
data_HfMg2(NbN2)3
_symmetry_space_group_name_H-M   'P 1'
_cell_length_a   5.29160471
_cell_length_b   5.29160461
_cell_length_c   10.55069197
_cell_angle_alpha   90.00000000
_cell_angle_beta   90.00000000
_cell_angle_gamma   120.00000683
_symmetry_Int_Tables_number   1
_chemical_formula_structural   HfMg2(NbN2)3
_chemical_formula_sum   'Hf2 Mg4 Nb6 N12'
_cell_volume   255.85053317
_cell_formula_units_Z   2
loop_
 _symmetry_equiv_pos_site_id
 _symmetry_equiv_pos_as_xyz
  1  'x, y, z'
loop_
 _atom_site_type_symbol
 _atom_site_label
 _atom_site_symmetry_multiplicity
 _atom_site_fract_x
 _atom_site_fract_y
 _atom_site_fract_z
 _atom_site_occupancy
  Hf  Hf0  1  0.00000000  0.00000000  0.50000000  1
  Hf  Hf1  1  0.00000000  0.00000000  0.00000000  1
  Mg  Mg0  1  0.33333300  0.66666700  0.00000000  1
  Mg  Mg1  1  0.33333300  0.66666700  0.50000000  1
  Mg  Mg2  1  0.66666700  0.33333300  0.50000000  1
  Mg  Mg3  1  0.66666700  0.33333300  0.00000000  1
  Nb  Nb0  1  0.00000000  0.34188101  0.25000000  1
  Nb  Nb1  1  0.65811899  1.00000000  0.75000000  1
  Nb  Nb2  1  0.34188101  0.34188101  0.75000000  1
  Nb  Nb3  1  0.65811899  0.65811899  0.25000000  1
  Nb  Nb4  1  0.34188101  0.00000000  0.25000000  1
  Nb  Nb5  1  1.00000000  0.65811899  0.75000000  1
  N  N0  1  0.66895335  0.66895335  0.62251372  1
  N  N1  1  0.66895335  0.66895335  0.87748628  1
  N  N2  1  0.33104665  0.33104665  0.12251372  1
  N  N3  1  0.33104665  0.33104665  0.37748628  1
  N  N4  1  0.33104665  1.00000000  0.87748628  1
  N  N5  1  0.33104665  1.00000000  0.62251372  1
  N  N6  1  0.00000000  0.66895335  0.37748628  1
  N  N7  1  0.00000000  0.66895335  0.12251372  1
  N  N8  1  0.66895335  0.00000000  0.12251372  1
  N  N9  1  0.66895335  0.00000000  0.37748628  1
  N  N10  1  1.00000000  0.33104665  0.87748628  1
  N  N11  1  1.00000000  0.33104665  0.62251372  1
loop_
_geom_bond_atom_site_label_1
_geom_bond_atom_site_label_2
_geom_bond_distance
_geom_bond_site_symmetry_2
Hf0 N0 2.177043 1_445
Hf0 N3 2.177043 1_555
Hf0 N11 2.177043 1_455
Hf0 N6 2.177043 1_545
Hf0 N5 2.177043 1_545
Hf0 N9 2.177043 1_455
Hf1 N2 2.177043 1_555
Hf1 N1 2.177043 1_444
Hf1 N7 2.177043 1_545
Hf1 N10 2.177043 1_454
Hf1 N8 2.177043 1_455
Hf1 N4 2.177043 1_544
Mg0 N4 2.191697 1_554
Mg0 N7 2.191697 1_555
Mg0 N10 2.191699 1_454
Mg0 N8 2.191699 1_565
Mg0 N2 2.191702 1_555
Mg0 N1 2.191702 1_554
Mg1 N5 2.191697 1_555
Mg1 N6 2.191697 1_555
Mg1 N11 2.191699 1_455
Mg1 N9 2.191699 1_565
Mg1 N3 2.191702 1_555
Mg1 N0 2.191702 1_555
Mg2 N9 2.191697 1_555
Mg2 N11 2.191697 1_555
Mg2 N6 2.191699 1_655
Mg2 N5 2.191699 1_545
Mg2 N0 2.191702 1_555
Mg2 N3 2.191702 1_555
Mg3 N8 2.191697 1_555
Mg3 N10 2.191697 1_554
Mg3 N7 2.191699 1_655
Mg3 N4 2.191699 1_544
Mg3 N1 2.191702 1_554
Mg3 N2 2.191702 1_555
N0 Nb2 2.191954 1_555
N0 Nb1 2.231954 1_555
N0 Nb5 2.231954 1_555
N1 Nb2 2.191954 1_555
N1 Nb1 2.231954 1_555
N1 Nb5 2.231954 1_555
N2 Nb3 2.191954 1_555
N2 Nb4 2.231954 1_555
N2 Nb0 2.231954 1_555
N3 Nb3 2.191954 1_555
N3 Nb4 2.231954 1_555
N3 Nb0 2.231954 1_555
N4 Nb1 2.191954 1_555
N4 Nb5 2.231954 1_455
N4 Nb2 2.231954 1_565
N5 Nb1 2.191954 1_555
N5 Nb5 2.231954 1_455
N5 Nb2 2.231954 1_565
N6 Nb0 2.191954 1_555
N6 Nb4 2.231954 1_565
N6 Nb3 2.231954 1_455
N7 Nb0 2.191954 1_555
N7 Nb4 2.231954 1_565
N7 Nb3 2.231954 1_455
N8 Nb4 2.191954 1_555
N8 Nb0 2.231954 1_655
N8 Nb3 2.231954 1_545
N9 Nb4 2.191954 1_555
N9 Nb0 2.231954 1_655
N9 Nb3 2.231954 1_545
N10 Nb5 2.191954 1_555
N10 Nb1 2.231954 1_545
N10 Nb2 2.231954 1_655
N11 Nb5 2.191954 1_555
N11 Nb1 2.231954 1_545
N11 Nb2 2.231954 1_655
