# generated using pymatgen
data_K4Hf6CBr18
_symmetry_space_group_name_H-M   'P 1'
_cell_length_a   10.22571204
_cell_length_b   10.38324023
_cell_length_c   10.43779615
_cell_angle_alpha   118.50715298
_cell_angle_beta   100.65410390
_cell_angle_gamma   103.74488872
_symmetry_Int_Tables_number   1
_chemical_formula_structural   K4Hf6CBr18
_chemical_formula_sum   'K4 Hf6 C1 Br18'
_cell_volume   886.35308777
_cell_formula_units_Z   1
loop_
 _symmetry_equiv_pos_site_id
 _symmetry_equiv_pos_as_xyz
  1  'x, y, z'
loop_
 _atom_site_type_symbol
 _atom_site_label
 _atom_site_symmetry_multiplicity
 _atom_site_fract_x
 _atom_site_fract_y
 _atom_site_fract_z
 _atom_site_occupancy
  K  K0  1  0.18815296  0.72715952  0.56831473  1
  K  K1  1  0.84810746  0.96228369  0.77008149  1
  K  K2  1  0.15189254  0.03771631  0.22991851  1
  K  K3  1  0.81184704  0.27284048  0.43168527  1
  Hf  Hf0  1  0.35059374  0.44546174  0.77519242  1
  Hf  Hf1  1  0.36887506  0.62611657  0.13250330  1
  Hf  Hf2  1  0.64242491  0.73131467  0.04293890  1
  Hf  Hf3  1  0.64940626  0.55453826  0.22480758  1
  Hf  Hf4  1  0.35757509  0.26868533  0.95706110  1
  Hf  Hf5  1  0.63112494  0.37388343  0.86749670  1
  C  C0  1  0.50000000  0.50000000  0.00000000  1
  Br  Br0  1  0.82221339  0.41887215  0.10801974  1
  Br  Br1  1  0.52257894  0.70876874  0.41448321  1
  Br  Br2  1  0.17820506  0.98092237  0.90313687  1
  Br  Br3  1  0.17778661  0.58112785  0.89198026  1
  Br  Br4  1  0.83570220  0.83299871  0.31202448  1
  Br  Br5  1  0.50709956  0.29591404  0.21186185  1
  Br  Br6  1  0.78915354  0.21794503  0.70399782  1
  Br  Br7  1  0.16429780  0.16700129  0.68797552  1
  Br  Br8  1  0.51295876  0.91347726  0.20089137  1
  Br  Br9  1  0.81559559  0.62311911  0.89816371  1
  Br  Br10  1  0.21084646  0.78205497  0.29600218  1
  Br  Br11  1  0.16175948  0.37839398  0.49576633  1
  Br  Br12  1  0.49290044  0.70408596  0.78813815  1
  Br  Br13  1  0.82179494  0.01907763  0.09686313  1
  Br  Br14  1  0.47742106  0.29123126  0.58551679  1
  Br  Br15  1  0.18440441  0.37688089  0.10183629  1
  Br  Br16  1  0.83824052  0.62160602  0.50423367  1
  Br  Br17  1  0.48704124  0.08652274  0.79910863  1
loop_
_geom_bond_atom_site_label_1
_geom_bond_atom_site_label_2
_geom_bond_distance
_geom_bond_site_symmetry_2
C0 Hf3 2.270636 1_555
C0 Hf0 2.270636 1_554
C0 Hf4 2.271450 1_554
C0 Hf2 2.271450 1_555
C0 Hf1 2.284026 1_555
C0 Hf5 2.284026 1_554
Br0 Hf3 2.633079 1_555
Br0 Hf5 2.640470 1_554
Br1 Hf3 2.660084 1_555
Br1 Hf1 2.665900 1_555
Br1 K1 3.705101 1_555
Br2 Hf4 2.831496 1_565
Br2 K2 3.247926 1_566
Br2 K0 3.261238 1_555
Br2 K1 3.325620 1_455
Br3 Hf0 2.633079 1_555
Br3 Hf1 2.640470 1_556
Br4 Hf2 2.652305 1_555
Br4 Hf3 2.654515 1_555
Br5 Hf4 2.657865 1_554
Br5 Hf3 2.659130 1_555
Br5 K3 3.642627 1_555
Br6 Hf5 2.787615 1_555
Br6 K3 3.191418 1_555
Br6 K1 3.200091 1_545
Br7 Hf4 2.652305 1_555
Br7 Hf0 2.654515 1_555
Br8 Hf2 2.658705 1_555
Br8 Hf1 2.659337 1_555
Br8 K3 3.513632 1_565
Br9 Hf2 2.644924 1_556
Br9 Hf5 2.650308 1_555
Br10 Hf1 2.787615 1_555
Br10 K0 3.191418 1_555
Br10 K2 3.200091 1_565
Br11 Hf0 2.839005 1_555
Br11 K2 3.252738 1_555
Br11 K0 3.256168 1_555
Br11 K3 3.317108 1_455
Br12 Hf2 2.657865 1_556
Br12 Hf0 2.659130 1_555
Br12 K0 3.642627 1_555
Br13 Hf2 2.831496 1_545
Br13 K1 3.247926 1_544
Br13 K3 3.261238 1_555
Br13 K2 3.325620 1_655
Br14 Hf0 2.660084 1_555
Br14 Hf5 2.665900 1_555
Br14 K2 3.705101 1_555
Br15 Hf4 2.644924 1_554
Br15 Hf1 2.650308 1_555
Br16 Hf3 2.839005 1_555
Br16 K1 3.252738 1_555
Br16 K3 3.256168 1_555
Br16 K0 3.317108 1_655
Br17 Hf4 2.658705 1_555
Br17 Hf5 2.659337 1_555
Br17 K0 3.513632 1_545
