# generated using pymatgen
data_Hf2Be8ReRu
_symmetry_space_group_name_H-M   'P 1'
_cell_length_a   4.53509642
_cell_length_b   4.53509556
_cell_length_c   7.41010402
_cell_angle_alpha   90.00000000
_cell_angle_beta   90.00000000
_cell_angle_gamma   120.00001362
_symmetry_Int_Tables_number   1
_chemical_formula_structural   Hf2Be8ReRu
_chemical_formula_sum   'Hf2 Be8 Re1 Ru1'
_cell_volume   131.98599308
_cell_formula_units_Z   1
loop_
 _symmetry_equiv_pos_site_id
 _symmetry_equiv_pos_as_xyz
  1  'x, y, z'
loop_
 _atom_site_type_symbol
 _atom_site_label
 _atom_site_symmetry_multiplicity
 _atom_site_fract_x
 _atom_site_fract_y
 _atom_site_fract_z
 _atom_site_occupancy
  Hf  Hf0  1  0.33333300  0.66666700  0.06189930  1
  Hf  Hf1  1  0.66666700  0.33333300  0.56781256  1
  Be  Be0  1  0.00000000  0.00000000  0.99456450  1
  Be  Be1  1  0.00000000  0.00000000  0.49728469  1
  Be  Be2  1  0.83162967  0.66325934  0.25383922  1
  Be  Be3  1  0.16927026  0.83072974  0.74785785  1
  Be  Be4  1  0.66146047  0.83072974  0.74785785  1
  Be  Be5  1  0.33674066  0.16837033  0.25383922  1
  Be  Be6  1  0.83162967  0.16837033  0.25383922  1
  Be  Be7  1  0.16927026  0.33853953  0.74785785  1
  Re  Re0  1  0.33333300  0.66666700  0.43746618  1
  Ru  Ru0  1  0.66666700  0.33333300  0.93587956  1
loop_
_geom_bond_atom_site_label_1
_geom_bond_atom_site_label_2
_geom_bond_distance
_geom_bond_site_symmetry_2
Hf0 Ru0 2.779874 1_564
Hf0 Ru0 2.779875 1_454
Hf0 Ru0 2.779882 1_554
Hf0 Re0 2.782990 1_555
Hf1 Ru0 2.727415 1_555
Hf1 Re0 2.790807 1_545
Hf1 Re0 2.790808 1_655
Hf1 Re0 2.790816 1_555
Be0 Be7 2.260511 1_555
Be0 Be4 2.260511 1_445
Be0 Be3 2.260514 1_545
Be0 Be2 2.332457 1_446
Be0 Be5 2.332457 1_556
Be0 Be6 2.332457 1_456
Be0 Ru0 2.654202 1_455
Be0 Ru0 2.654205 1_445
Be0 Ru0 2.654206 1_555
Be0 Hf0 2.665454 1_546
Be0 Hf0 2.665457 1_556
Be0 Hf0 2.665458 1_446
Be1 Be2 2.236828 1_445
Be1 Be5 2.236828 1_555
Be1 Be6 2.236828 1_455
Be1 Be7 2.283744 1_555
Be1 Be4 2.283744 1_445
Be1 Be3 2.283747 1_545
Be1 Re0 2.655592 1_545
Be1 Re0 2.655595 1_555
Be1 Re0 2.655595 1_445
Be1 Hf1 2.669984 1_455
Be1 Hf1 2.669987 1_445
Be1 Hf1 2.669988 1_555
Be2 Be5 2.244369 1_555
Be2 Be6 2.244369 1_555
Be2 Be5 2.290726 1_665
Be2 Be6 2.290727 1_565
Be2 Re0 2.644510 1_655
Be2 Re0 2.644514 1_555
Be2 Hf1 2.663084 1_555
Be2 Hf0 2.676727 1_655
Be2 Hf0 2.676731 1_555
Be2 Ru0 2.688929 1_554
Be3 Be7 2.232130 1_555
Be3 Be4 2.232130 1_555
Be3 Be7 2.302966 1_565
Be3 Be4 2.302966 1_455
Be3 Hf1 2.630999 1_565
Be3 Hf1 2.630999 1_455
Be3 Re0 2.636465 1_555
Be3 Hf0 2.660092 1_556
Be3 Ru0 2.661459 1_565
Be3 Ru0 2.661459 1_455
Be4 Be7 2.232129 1_555
Be4 Be7 2.302966 1_665
Be4 Hf1 2.631000 1_565
Be4 Hf1 2.631000 1_555
Be4 Re0 2.636469 1_555
Be4 Hf0 2.660096 1_556
Be4 Ru0 2.661459 1_565
Be4 Ru0 2.661459 1_555
Be5 Be6 2.244369 1_555
Be5 Be6 2.290727 1_455
Be5 Re0 2.644510 1_545
Be5 Re0 2.644514 1_555
Be5 Hf1 2.663085 1_555
Be5 Hf0 2.676726 1_545
Be5 Hf0 2.676730 1_555
Be5 Ru0 2.688929 1_554
Be6 Re0 2.644512 1_545
Be6 Re0 2.644512 1_655
Be6 Hf1 2.663083 1_555
Be6 Hf0 2.676728 1_545
Be6 Hf0 2.676728 1_655
Be6 Ru0 2.688928 1_554
Be7 Hf1 2.631000 1_455
Be7 Hf1 2.631000 1_555
Be7 Re0 2.636469 1_555
Be7 Hf0 2.660095 1_556
Be7 Ru0 2.661460 1_455
Be7 Ru0 2.661460 1_555
