# generated using pymatgen
data_Be14VPIr16
_symmetry_space_group_name_H-M   'P 1'
_cell_length_a   8.45369235
_cell_length_b   8.44463261
_cell_length_c   8.44463272
_cell_angle_alpha   141.05236635
_cell_angle_beta   96.34196618
_cell_angle_gamma   96.40633229
_symmetry_Int_Tables_number   1
_chemical_formula_structural   Be14VPIr16
_chemical_formula_sum   'Be14 V1 P1 Ir16'
_cell_volume   357.32546708
_cell_formula_units_Z   1
loop_
 _symmetry_equiv_pos_site_id
 _symmetry_equiv_pos_as_xyz
  1  'x, y, z'
loop_
 _atom_site_type_symbol
 _atom_site_label
 _atom_site_symmetry_multiplicity
 _atom_site_fract_x
 _atom_site_fract_y
 _atom_site_fract_z
 _atom_site_occupancy
  Be  Be0  1  0.12493994  0.24994870  0.87499024  1
  Be  Be1  1  0.37728094  0.25015824  0.12712270  1
  Be  Be2  1  0.87339342  0.25044966  0.62294276  1
  Be  Be3  1  0.62491350  0.24993844  0.37497506  1
  Be  Be4  1  0.37290876  0.49784628  0.87506248  1
  Be  Be5  1  0.63300005  0.50590423  0.12709682  1
  Be  Be6  1  0.12793746  0.50548332  0.62245514  1
  Be  Be7  1  0.87608137  0.50081418  0.37526720  1
  Be  Be8  1  0.87727546  0.00217500  0.87509946  1
  Be  Be9  1  0.12105671  0.99397877  0.12707694  1
  Be  Be10  1  0.61693842  0.99395270  0.62298471  1
  Be  Be11  1  0.37427333  0.99930044  0.37497289  1
  Be  Be12  1  0.88217854  0.75014279  0.13203475  1
  Be  Be13  1  0.36798167  0.75000287  0.61797880  1
  V  V0  1  0.12488758  0.74991595  0.37497263  1
  P  P0  1  0.62483048  0.74990177  0.87492871  1
  Ir  Ir0  1  0.12495135  0.36601361  0.24656879  1
  Ir  Ir1  1  0.12495135  0.87838256  0.75893675  1
  Ir  Ir2  1  0.86951190  0.36622130  0.99131668  1
  Ir  Ir3  1  0.37583483  0.87489747  0.99986796  1
  Ir  Ir4  1  0.86951190  0.87819521  0.50328860  1
  Ir  Ir5  1  0.37583483  0.37596687  0.50093736  1
  Ir  Ir6  1  0.62508371  0.87511399  0.24926181  1
  Ir  Ir7  1  0.62508371  0.37582290  0.74996972  1
  Ir  Ir8  1  0.87403734  0.12397831  0.24896113  1
  Ir  Ir9  1  0.87403734  0.62507621  0.75005802  1
  Ir  Ir10  1  0.62503376  0.12422585  0.00010025  1
  Ir  Ir11  1  0.12520168  0.62171356  0.99121057  1
  Ir  Ir12  1  0.62503376  0.62493350  0.50080691  1
  Ir  Ir13  1  0.12520168  0.13399311  0.50348911  1
  Ir  Ir14  1  0.38040613  0.62181176  0.24666568  1
  Ir  Ir15  1  0.38040613  0.13374045  0.75859337  1
loop_
_geom_bond_atom_site_label_1
_geom_bond_atom_site_label_2
_geom_bond_distance
_geom_bond_site_symmetry_2
Be0 Ir1 2.454150 1_545
Be0 Ir0 2.454158 1_556
Be0 Ir13 2.454505 1_555
Be0 Ir11 2.454506 1_555
Be0 Ir4 2.456250 1_445
Be0 Ir2 2.456250 1_455
Be0 Ir15 2.456571 1_555
Be0 Ir14 2.456573 1_556
Be1 Ir12 2.426353 1_555
Be1 Ir10 2.426355 1_555
Be1 Ir3 2.426660 1_544
Be1 Ir5 2.426660 1_555
Be1 Ir14 2.432560 1_555
Be1 Ir15 2.432568 1_554
Be1 Ir0 2.435340 1_555
Be1 Ir1 2.435342 1_544
Be2 Ir8 2.423476 1_555
Be2 Ir9 2.423484 1_555
Be2 Ir6 2.429985 1_545
Be2 Ir7 2.429991 1_555
Be2 Ir13 2.432000 1_655
Be2 Ir11 2.432007 1_655
Be2 Ir4 2.435774 1_545
Be2 Ir2 2.435787 1_555
Be3 Ir7 2.433210 1_555
Be3 Ir6 2.433215 1_545
Be3 Ir10 2.433544 1_555
Be3 Ir12 2.433549 1_555
Be3 Ir3 2.435543 1_544
Be3 Ir5 2.435543 1_555
Be3 Ir9 2.435881 1_555
Be3 Ir8 2.435883 1_555
Be4 Ir15 2.403914 1_555
Be4 Ir14 2.403918 1_556
Be4 Ir13 2.405802 1_555
Be4 Ir11 2.405807 1_555
Be4 Ir3 2.450825 1_555
Be4 Ir5 2.450825 1_555
Be4 Ir7 2.452941 1_555
Be4 Ir6 2.452942 1_556
Be5 Ir4 2.373330 1_555
Be5 Ir2 2.373337 1_554
Be5 Ir6 2.418357 1_555
Be5 Ir7 2.418365 1_554
Be5 Ir14 2.437784 1_555
Be5 Ir15 2.437788 1_554
Be5 Ir12 2.470271 1_555
Be5 Ir10 2.470282 1_555
Be6 Ir0 2.371519 1_555
Be6 Ir1 2.371520 1_555
Be6 Ir3 2.425246 1_555
Be6 Ir5 2.425250 1_555
Be6 Ir13 2.434693 1_555
Be6 Ir11 2.434701 1_555
Be6 Ir9 2.467807 1_455
Be6 Ir8 2.467812 1_455
Be7 Ir9 2.443100 1_555
Be7 Ir8 2.443108 1_555
Be7 Ir12 2.447786 1_555
Be7 Ir10 2.447788 1_555
Be7 Ir1 2.453262 1_655
Be7 Ir0 2.453265 1_655
Be7 Ir2 2.453897 1_554
Be7 Ir4 2.453906 1_555
Be8 Ir2 2.405152 1_555
Be8 Ir4 2.405165 1_545
Be8 Ir1 2.405438 1_645
Be8 Ir0 2.405439 1_656
Be8 Ir9 2.449574 1_545
Be8 Ir8 2.449582 1_556
Be8 Ir12 2.453370 1_545
Be8 Ir10 2.453372 1_556
Be9 Ir11 2.371362 1_554
Be9 Ir13 2.371364 1_565
Be9 Ir9 2.419528 1_454
Be9 Ir8 2.419529 1_465
Be9 Ir0 2.434771 1_565
Be9 Ir1 2.434777 1_554
Be9 Ir3 2.473530 1_554
Be9 Ir5 2.473533 1_565
Be10 Ir14 2.373417 1_555
Be10 Ir15 2.373419 1_565
Be10 Ir12 2.417080 1_555
Be10 Ir10 2.417089 1_566
Be10 Ir2 2.437607 1_565
Be10 Ir4 2.437607 1_555
Be10 Ir6 2.471638 1_555
Be10 Ir7 2.471650 1_565
Be11 Ir5 2.444160 1_565
Be11 Ir3 2.444160 1_554
Be11 Ir6 2.446246 1_555
Be11 Ir7 2.446247 1_565
Be11 Ir15 2.452606 1_565
Be11 Ir14 2.452614 1_555
Be11 Ir11 2.454425 1_554
Be11 Ir13 2.454431 1_565
Be12 Ir4 2.415879 1_555
Be12 Ir2 2.415892 1_554
Be12 Ir11 2.417030 1_654
Be12 Ir13 2.417038 1_665
Be12 Ir8 2.482081 1_565
Be12 Ir9 2.482086 1_554
Be12 Ir7 2.485867 1_554
Be12 Ir6 2.485872 1_555
Be13 Ir14 2.415219 1_555
Be13 Ir15 2.415224 1_565
Be13 Ir1 2.417288 1_555
Be13 Ir0 2.417290 1_555
Be13 Ir5 2.482625 1_555
Be13 Ir3 2.482625 1_555
Be13 Ir10 2.485621 1_566
Be13 Ir12 2.485623 1_555
Ir0 V0 2.493685 1_555
Ir1 V0 2.493674 1_555
Ir2 V0 2.494246 1_656
Ir3 P0 2.431521 1_555
Ir4 V0 2.494240 1_655
Ir5 P0 2.431520 1_555
Ir6 P0 2.430971 1_554
Ir7 P0 2.430963 1_555
Ir8 P0 2.432848 1_544
Ir9 P0 2.432850 1_555
Ir10 P0 2.431175 1_544
Ir11 V0 2.493934 1_556
Ir12 P0 2.431183 1_555
Ir13 V0 2.493942 1_545
Ir14 V0 2.495102 1_555
Ir15 V0 2.495097 1_545
