# generated using pymatgen
data_CsBaH9W
_symmetry_space_group_name_H-M   'P 1'
_cell_length_a   9.77237648
_cell_length_b   9.77237665
_cell_length_c   5.86746008
_cell_angle_alpha   90.00000000
_cell_angle_beta   90.00000000
_cell_angle_gamma   120.00000946
_symmetry_Int_Tables_number   1
_chemical_formula_structural   CsBaH9W
_chemical_formula_sum   'Cs3 Ba3 H27 W3'
_cell_volume   485.26740515
_cell_formula_units_Z   3
loop_
 _symmetry_equiv_pos_site_id
 _symmetry_equiv_pos_as_xyz
  1  'x, y, z'
loop_
 _atom_site_type_symbol
 _atom_site_label
 _atom_site_symmetry_multiplicity
 _atom_site_fract_x
 _atom_site_fract_y
 _atom_site_fract_z
 _atom_site_occupancy
  Cs  Cs0  1  1.00000000  0.58690735  0.00000000  1
  Cs  Cs1  1  0.41309265  0.41309265  0.00000000  1
  Cs  Cs2  1  0.58690735  1.00000000  0.00000000  1
  Ba  Ba0  1  1.00000000  0.27233968  0.50000000  1
  Ba  Ba1  1  0.72766032  0.72766032  0.50000000  1
  Ba  Ba2  1  0.27233968  1.00000000  0.50000000  1
  H  H0  1  0.77817371  0.30641818  0.71594478  1
  H  H1  1  0.69358182  0.47175452  0.71594478  1
  H  H2  1  0.52824548  0.22182629  0.71594478  1
  H  H3  1  0.22182629  0.52824548  0.28405522  1
  H  H4  1  0.52824548  0.22182629  0.28405522  1
  H  H5  1  0.77817371  0.30641818  0.28405522  1
  H  H6  1  0.69358182  0.47175452  0.28405522  1
  H  H7  1  0.30641818  0.77817371  0.71594478  1
  H  H8  1  0.47175452  0.69358182  0.71594478  1
  H  H9  1  0.17935212  1.00000000  0.00000000  1
  H  H10  1  0.82064788  0.82064788  0.00000000  1
  H  H11  1  1.00000000  0.17935212  0.00000000  1
  H  H12  1  0.87277065  0.00000000  0.21715009  1
  H  H13  1  0.12722935  0.12722935  0.78284991  1
  H  H14  1  0.00000000  0.87277065  0.78284991  1
  H  H15  1  0.00000000  0.87277065  0.21715009  1
  H  H16  1  0.12722935  0.12722935  0.21715009  1
  H  H17  1  0.87277065  0.00000000  0.78284991  1
  H  H18  1  0.13976513  0.63099296  0.50000000  1
  H  H19  1  0.49122684  0.86023487  0.50000000  1
  H  H20  1  0.36900704  0.50877316  0.50000000  1
  H  H21  1  0.50877316  0.36900704  0.50000000  1
  H  H22  1  0.86023487  0.49122684  0.50000000  1
  H  H23  1  0.63099296  0.13976513  0.50000000  1
  H  H24  1  0.22182629  0.52824548  0.71594478  1
  H  H25  1  0.30641818  0.77817371  0.28405522  1
  H  H26  1  0.47175452  0.69358182  0.28405522  1
  W  W0  1  0.66666700  0.33333300  0.50000000  1
  W  W1  1  0.33333300  0.66666700  0.50000000  1
  W  W2  1  0.00000000  0.00000000  0.00000000  1
loop_
_geom_bond_atom_site_label_1
_geom_bond_atom_site_label_2
_geom_bond_distance
_geom_bond_site_symmetry_2
Cs0 H3 3.008056 1_655
Cs0 H24 3.008056 1_654
Cs0 H5 3.008061 1_555
Cs0 H0 3.008061 1_554
Cs0 H15 3.070404 1_655
Cs0 H14 3.070404 1_654
Cs0 H6 3.105015 1_555
Cs0 H1 3.105015 1_554
Cs0 H25 3.105016 1_655
Cs0 H7 3.105016 1_654
Cs0 H18 3.173241 1_654
Cs0 H18 3.173241 1_655
Cs0 H22 3.173242 1_555
Cs0 H22 3.173242 1_554
Cs1 H6 3.008064 1_555
Cs1 H1 3.008064 1_554
Cs1 H26 3.008064 1_555
Cs1 H8 3.008064 1_554
Cs1 H16 3.070403 1_555
Cs1 H13 3.070403 1_554
Cs1 H3 3.105022 1_555
Cs1 H24 3.105022 1_554
Cs1 H4 3.105022 1_555
Cs1 H2 3.105022 1_554
Cs1 H21 3.173245 1_555
Cs1 H21 3.173245 1_554
Cs1 H20 3.173245 1_555
Cs1 H20 3.173245 1_554
Cs2 H4 3.008056 1_565
Cs2 H2 3.008056 1_564
Cs2 H25 3.008061 1_555
Cs2 H7 3.008061 1_554
Cs2 H12 3.070404 1_565
Cs2 H17 3.070404 1_564
Cs2 H26 3.105015 1_555
Cs2 H8 3.105015 1_554
Cs2 H5 3.105016 1_565
Cs2 H0 3.105016 1_564
Cs2 H23 3.173241 1_565
Cs2 H23 3.173241 1_564
Cs2 H19 3.173242 1_555
Cs2 H19 3.173242 1_554
Ba0 H0 2.671605 1_555
Ba0 H5 2.671605 1_555
Ba0 H24 2.671610 1_655
Ba0 H3 2.671610 1_655
Ba0 H17 2.841523 1_555
Ba0 H12 2.841523 1_555
Ba0 H13 2.841523 1_655
Ba0 H16 2.841523 1_655
Ba1 H8 2.671613 1_555
Ba1 H26 2.671613 1_555
Ba1 H1 2.671613 1_555
Ba1 H6 2.671613 1_555
Ba1 H14 2.841523 1_655
Ba1 H15 2.841523 1_655
Ba1 H17 2.841523 1_565
Ba1 H12 2.841523 1_565
Ba2 H7 2.671605 1_555
Ba2 H25 2.671605 1_555
Ba2 H2 2.671610 1_565
Ba2 H4 2.671610 1_565
Ba2 H14 2.841523 1_555
Ba2 H15 2.841523 1_555
Ba2 H13 2.841523 1_565
Ba2 H16 2.841523 1_565
H0 W0 1.774434 1_555
H1 W0 1.774434 1_555
H2 W0 1.774434 1_555
H3 W1 1.774434 1_555
H4 W0 1.774434 1_555
H5 W0 1.774434 1_555
H6 W0 1.774434 1_555
H7 W1 1.774434 1_555
H8 W1 1.774434 1_555
H9 W2 1.752696 1_565
H10 W2 1.752696 1_665
H11 W2 1.752696 1_655
H12 W2 1.780241 1_655
H13 W2 1.780241 1_556
H14 W2 1.780241 1_566
H15 W2 1.780241 1_565
H16 W2 1.780241 1_555
H17 W2 1.780241 1_656
H18 W1 1.743645 1_555
H19 W1 1.743645 1_555
H20 W1 1.743645 1_555
H21 W0 1.743645 1_555
H22 W0 1.743645 1_555
H23 W0 1.743645 1_555
H24 W1 1.774434 1_555
H25 W1 1.774434 1_555
H26 W1 1.774434 1_555
