# generated using pymatgen
data_BaCu
_symmetry_space_group_name_H-M   'P 1'
_cell_length_a   4.43487811
_cell_length_b   4.43487767
_cell_length_c   16.86084828
_cell_angle_alpha   90.00000000
_cell_angle_beta   90.00000000
_cell_angle_gamma   120.00000321
_symmetry_Int_Tables_number   1
_chemical_formula_structural   BaCu
_chemical_formula_sum   'Ba4 Cu4'
_cell_volume   287.19268304
_cell_formula_units_Z   4
loop_
 _symmetry_equiv_pos_site_id
 _symmetry_equiv_pos_as_xyz
  1  'x, y, z'
loop_
 _atom_site_type_symbol
 _atom_site_label
 _atom_site_symmetry_multiplicity
 _atom_site_fract_x
 _atom_site_fract_y
 _atom_site_fract_z
 _atom_site_occupancy
  Ba  Ba0  1  0.33333300  0.66666700  0.37622791  1
  Ba  Ba1  1  0.66666700  0.33333300  0.87622791  1
  Ba  Ba2  1  0.66666700  0.33333300  0.62377209  1
  Ba  Ba3  1  0.33333300  0.66666700  0.12377209  1
  Cu  Cu0  1  0.66666700  0.33333300  0.25000000  1
  Cu  Cu1  1  0.33333300  0.66666700  0.75000000  1
  Cu  Cu2  1  0.00000000  0.00000000  0.75000000  1
  Cu  Cu3  1  0.00000000  -0.00000000  0.25000000  1
loop_
_geom_bond_atom_site_label_1
_geom_bond_atom_site_label_2
_geom_bond_distance
_geom_bond_site_symmetry_2
Ba0 Cu0 3.329525 1_565
Ba0 Cu3 3.329525 1_565
Ba0 Cu0 3.329525 1_455
Ba0 Cu3 3.329528 1_555
Ba0 Cu3 3.329528 1_665
Ba0 Cu0 3.329531 1_555
Ba1 Cu1 3.329525 1_545
Ba1 Cu2 3.329525 1_655
Ba1 Cu1 3.329525 1_655
Ba1 Cu2 3.329528 1_665
Ba1 Cu2 3.329528 1_555
Ba1 Cu1 3.329531 1_555
Ba2 Cu1 3.329525 1_545
Ba2 Cu2 3.329525 1_655
Ba2 Cu1 3.329525 1_655
Ba2 Cu2 3.329528 1_665
Ba2 Cu2 3.329528 1_555
Ba2 Cu1 3.329531 1_555
Ba3 Cu0 3.329525 1_565
Ba3 Cu3 3.329525 1_565
Ba3 Cu0 3.329525 1_455
Ba3 Cu3 3.329528 1_555
Ba3 Cu3 3.329528 1_665
Ba3 Cu0 3.329531 1_555
Cu0 Cu3 2.560475 1_655
Cu0 Cu3 2.560479 1_665
Cu0 Cu3 2.560479 1_555
Cu1 Cu2 2.560475 1_565
Cu1 Cu2 2.560479 1_555
Cu1 Cu2 2.560479 1_665
