# generated using pymatgen
data_Cs2Ti(SeO3)3
_symmetry_space_group_name_H-M   'P 1'
_cell_length_a   8.14622502
_cell_length_b   8.14622410
_cell_length_c   9.81442226
_cell_angle_alpha   90.00000000
_cell_angle_beta   90.00000000
_cell_angle_gamma   119.99999702
_symmetry_Int_Tables_number   1
_chemical_formula_structural   Cs2Ti(SeO3)3
_chemical_formula_sum   'Cs4 Ti2 Se6 O18'
_cell_volume   564.03770846
_cell_formula_units_Z   2
loop_
 _symmetry_equiv_pos_site_id
 _symmetry_equiv_pos_as_xyz
  1  'x, y, z'
loop_
 _atom_site_type_symbol
 _atom_site_label
 _atom_site_symmetry_multiplicity
 _atom_site_fract_x
 _atom_site_fract_y
 _atom_site_fract_z
 _atom_site_occupancy
  Cs  Cs0  1  0.33333300  0.66666700  0.45660362  1
  Cs  Cs1  1  0.66666700  0.33333300  0.95660362  1
  Cs  Cs2  1  0.66666700  0.33333300  0.54339638  1
  Cs  Cs3  1  0.33333300  0.66666700  0.04339638  1
  Ti  Ti0  1  0.00000000  0.00000000  0.50000000  1
  Ti  Ti1  1  0.00000000  0.00000000  0.00000000  1
  Se  Se0  1  0.22295622  0.91823118  0.75000000  1
  Se  Se1  1  0.69527596  0.77704378  0.75000000  1
  Se  Se2  1  0.08176882  0.30472404  0.75000000  1
  Se  Se3  1  0.30472404  0.22295622  0.25000000  1
  Se  Se4  1  0.91823118  0.69527596  0.25000000  1
  Se  Se5  1  0.77704378  0.08176882  0.25000000  1
  O  O0  1  0.16412989  0.22033644  0.38592190  1
  O  O1  1  0.94379344  0.16412989  0.88592190  1
  O  O2  1  0.22033644  0.05620656  0.88592190  1
  O  O3  1  0.77966356  0.94379344  0.38592190  1
  O  O4  1  0.05620656  0.83587011  0.38592190  1
  O  O5  1  0.83587011  0.77966356  0.88592190  1
  O  O6  1  0.83587011  0.77966356  0.61407810  1
  O  O7  1  0.05620656  0.83587011  0.11407810  1
  O  O8  1  0.77966356  0.94379344  0.11407810  1
  O  O9  1  0.22033644  0.05620656  0.61407810  1
  O  O10  1  0.94379344  0.16412989  0.61407810  1
  O  O11  1  0.16412989  0.22033644  0.11407810  1
  O  O12  1  0.55109153  0.02451695  0.25000000  1
  O  O13  1  0.52657358  0.55109153  0.75000000  1
  O  O14  1  0.02451696  0.47342642  0.75000000  1
  O  O15  1  0.97548304  0.52657358  0.25000000  1
  O  O16  1  0.47342642  0.44890847  0.25000000  1
  O  O17  1  0.44890847  0.97548305  0.75000000  1
loop_
_geom_bond_atom_site_label_1
_geom_bond_atom_site_label_2
_geom_bond_distance
_geom_bond_site_symmetry_2
Cs0 O15 3.253473 1_455
Cs0 O12 3.253474 1_565
Cs0 O16 3.253484 1_555
Cs0 O4 3.254118 1_555
Cs0 O3 3.254125 1_555
Cs0 O0 3.254125 1_555
Cs0 O17 3.624663 1_555
Cs0 O13 3.624663 1_555
Cs0 O14 3.624664 1_555
Cs1 O14 3.253473 1_655
Cs1 O17 3.253474 1_545
Cs1 O13 3.253484 1_555
Cs1 O1 3.254118 1_555
Cs1 O2 3.254125 1_555
Cs1 O5 3.254125 1_555
Cs1 O12 3.624663 1_556
Cs1 O16 3.624663 1_556
Cs1 O15 3.624664 1_556
Cs2 O14 3.253473 1_655
Cs2 O17 3.253474 1_545
Cs2 O13 3.253484 1_555
Cs2 O10 3.254118 1_555
Cs2 O9 3.254125 1_555
Cs2 O6 3.254125 1_555
Cs2 O12 3.624663 1_555
Cs2 O16 3.624663 1_555
Cs2 O15 3.624664 1_555
Cs3 O15 3.253473 1_455
Cs3 O12 3.253474 1_565
Cs3 O16 3.253484 1_555
Cs3 O7 3.254118 1_555
Cs3 O8 3.254125 1_555
Cs3 O11 3.254125 1_555
Cs3 O17 3.624663 1_554
Cs3 O13 3.624663 1_554
Cs3 O14 3.624664 1_554
O0 Se3 1.751369 1_555
O0 Ti0 1.965461 1_555
O1 Se2 1.751372 1_655
O1 Ti1 1.965461 1_656
O2 Se0 1.751374 1_545
O2 Ti1 1.965462 1_556
O3 Se5 1.751374 1_565
O3 Ti0 1.965462 1_665
O4 Se4 1.751372 1_455
O4 Ti0 1.965461 1_565
O5 Se1 1.751369 1_555
O5 Ti1 1.965461 1_666
O6 Se1 1.751369 1_555
O6 Ti0 1.965461 1_665
O7 Se4 1.751372 1_455
O7 Ti1 1.965461 1_565
O8 Se5 1.751374 1_565
O8 Ti1 1.965462 1_665
O9 Se0 1.751374 1_545
O9 Ti0 1.965462 1_555
O10 Se2 1.751372 1_655
O10 Ti0 1.965461 1_655
O11 Se3 1.751369 1_555
O11 Ti1 1.965461 1_555
O12 Se5 1.657432 1_555
O13 Se1 1.657436 1_555
O14 Se2 1.657447 1_555
O15 Se4 1.657447 1_555
O16 Se3 1.657436 1_555
O17 Se0 1.657432 1_555
