# generated using pymatgen
data_Zr6AlIn5Pd6
_symmetry_space_group_name_H-M   'P 1'
_cell_length_a   7.47087855
_cell_length_b   7.43937715
_cell_length_c   7.15967040
_cell_angle_alpha   89.99999744
_cell_angle_beta   89.93416573
_cell_angle_gamma   119.86060201
_symmetry_Int_Tables_number   1
_chemical_formula_structural   Zr6AlIn5Pd6
_chemical_formula_sum   'Zr6 Al1 In5 Pd6'
_cell_volume   345.09594818
_cell_formula_units_Z   1
loop_
 _symmetry_equiv_pos_site_id
 _symmetry_equiv_pos_as_xyz
  1  'x, y, z'
loop_
 _atom_site_type_symbol
 _atom_site_label
 _atom_site_symmetry_multiplicity
 _atom_site_fract_x
 _atom_site_fract_y
 _atom_site_fract_z
 _atom_site_occupancy
  Zr  Zr0  1  0.38878117  0.40952260  0.74892362  1
  Zr  Zr1  1  0.01898063  0.60457719  0.74736418  1
  Zr  Zr2  1  0.59373610  0.98517031  0.75157237  1
  Zr  Zr3  1  0.61121883  0.02074143  0.25107638  1
  Zr  Zr4  1  0.98101937  0.58559555  0.25263582  1
  Zr  Zr5  1  0.40626390  0.39143421  0.24842763  1
  Al  Al0  1  0.00000000  0.27112289  0.50000000  1
  In  In0  1  0.25852452  0.99719484  0.00025686  1
  In  In1  1  0.74147548  0.73867132  0.99974314  1
  In  In2  1  0.00000000  0.26587352  0.00000000  1
  In  In3  1  0.72371844  0.72410519  0.49983734  1
  In  In4  1  0.27628156  0.00038775  0.50016266  1
  Pd  Pd0  1  0.66394595  0.33147553  0.96525047  1
  Pd  Pd1  1  0.00028567  0.01226988  0.73113656  1
  Pd  Pd2  1  0.67819845  0.33026972  0.53219580  1
  Pd  Pd3  1  0.32180155  0.65207227  0.46780420  1
  Pd  Pd4  1  0.33605405  0.66753158  0.03474953  1
  Pd  Pd5  1  0.99971433  0.01198322  0.26886344  1
loop_
_geom_bond_atom_site_label_1
_geom_bond_atom_site_label_2
_geom_bond_distance
_geom_bond_site_symmetry_2
Al0 Pd1 2.539884 1_555
Al0 Pd5 2.539890 1_455
Al0 Pd2 2.660595 1_455
Al0 Pd3 2.660600 1_555
Al0 Zr4 2.993460 1_455
Al0 Zr1 2.993466 1_555
Al0 Zr0 3.115554 1_555
Al0 Zr3 3.115554 1_455
Al0 Zr5 3.246501 1_555
Al0 Zr2 3.246501 1_445
In0 Pd5 2.766298 1_465
In0 Pd1 2.769705 1_564
In0 Pd4 2.797505 1_555
In0 Pd0 2.814053 1_564
In0 Zr2 3.108481 1_554
In0 Zr3 3.122446 1_565
In0 Zr5 3.123814 1_565
In0 Zr1 3.132837 1_554
In0 Zr4 3.257188 1_455
In0 Zr0 3.258511 1_564
In1 Pd1 2.766298 1_665
In1 Pd5 2.769700 1_566
In1 Pd0 2.797527 1_555
In1 Pd4 2.814055 1_556
In1 Zr5 3.108485 1_556
In1 Zr0 3.122450 1_555
In1 Zr2 3.123808 1_555
In1 Zr4 3.132846 1_556
In1 Zr1 3.257187 1_655
In1 Zr3 3.258505 1_566
In2 Pd1 2.696106 1_554
In2 Pd5 2.696111 1_455
In2 Pd0 2.797291 1_454
In2 Pd4 2.797300 1_555
In2 Zr4 3.047050 1_455
In2 Zr1 3.047056 1_554
In2 Zr0 3.115598 1_554
In2 Zr3 3.115598 1_455
In2 Zr5 3.230718 1_555
In2 Zr2 3.230718 1_444
In3 Pd5 2.677266 1_565
In3 Pd1 2.684107 1_665
In3 Pd3 2.784799 1_555
In3 Pd2 2.785897 1_555
In3 Zr0 3.012835 1_555
In3 Zr5 3.025690 1_555
In3 Zr2 3.136470 1_555
In3 Zr4 3.139098 1_555
In3 Zr3 3.255579 1_565
In3 Zr1 3.280166 1_655
In4 Pd1 2.677266 1_555
In4 Pd5 2.684100 1_455
In4 Pd2 2.784794 1_555
In4 Pd3 2.785897 1_545
In4 Zr3 3.012838 1_555
In4 Zr2 3.025693 1_545
In4 Zr5 3.136465 1_555
In4 Zr1 3.139098 1_545
In4 Zr0 3.255574 1_555
In4 Zr4 3.280175 1_445
Pd0 Zr2 2.812315 1_545
Pd0 Zr0 2.856198 1_555
Pd0 Zr1 2.867233 1_655
Pd0 Zr3 2.962801 1_556
Pd0 Zr5 2.976862 1_556
Pd0 Zr4 2.995124 1_556
Pd1 Zr0 2.938290 1_555
Pd1 Zr2 2.945568 1_445
Pd1 Zr1 3.107062 1_545
Pd2 Zr2 2.800154 1_545
Pd2 Zr1 2.802661 1_655
Pd2 Zr4 2.905659 1_555
Pd2 Zr3 2.908398 1_555
Pd2 Zr0 2.948260 1_555
Pd2 Zr5 3.064665 1_555
Pd3 Zr5 2.800160 1_555
Pd3 Zr4 2.802656 1_455
Pd3 Zr1 2.905659 1_555
Pd3 Zr0 2.908403 1_555
Pd3 Zr3 2.948256 1_565
Pd3 Zr2 3.064662 1_555
Pd4 Zr5 2.812327 1_555
Pd4 Zr3 2.856190 1_565
Pd4 Zr4 2.867227 1_455
Pd4 Zr0 2.962812 1_554
Pd4 Zr2 2.976855 1_554
Pd4 Zr1 2.995122 1_554
Pd5 Zr3 2.938293 1_555
Pd5 Zr5 2.945572 1_655
Pd5 Zr4 3.107062 1_545
