# generated using pymatgen
data_Ti3Fe7O15
_symmetry_space_group_name_H-M   'P 1'
_cell_length_a   5.51204646
_cell_length_b   5.51204646
_cell_length_c   21.48371025
_cell_angle_alpha   85.57152601
_cell_angle_beta   85.57152601
_cell_angle_gamma   55.75423098
_symmetry_Int_Tables_number   1
_chemical_formula_structural   Ti3Fe7O15
_chemical_formula_sum   'Ti6 Fe14 O30'
_cell_volume   537.50638499
_cell_formula_units_Z   2
loop_
 _symmetry_equiv_pos_site_id
 _symmetry_equiv_pos_as_xyz
  1  'x, y, z'
loop_
 _atom_site_type_symbol
 _atom_site_label
 _atom_site_symmetry_multiplicity
 _atom_site_fract_x
 _atom_site_fract_y
 _atom_site_fract_z
 _atom_site_occupancy
  Ti  Ti0  1  0.20492300  0.69994000  0.97367600  1
  Ti  Ti1  1  0.90059700  0.40963700  0.86628300  1
  Ti  Ti2  1  0.29664700  0.80394900  0.67164400  1
  Ti  Ti3  1  0.40963700  0.90059700  0.36628300  1
  Ti  Ti4  1  0.69994000  0.20492300  0.47367600  1
  Ti  Ti5  1  0.80394900  0.29664700  0.17164400  1
  Fe  Fe0  1  0.49527600  0.99446700  0.92897000  1
  Fe  Fe1  1  0.60613000  0.10860100  0.77089900  1
  Fe  Fe2  1  0.90474200  0.40272200  0.72726400  1
  Fe  Fe3  1  0.00685700  0.51018500  0.57036500  1
  Fe  Fe4  1  0.19371400  0.70393900  0.83067900  1
  Fe  Fe5  1  0.30740400  0.80389900  0.52797200  1
  Fe  Fe6  1  0.59222600  0.09041300  0.63057600  1
  Fe  Fe7  1  0.70393900  0.19371400  0.33067900  1
  Fe  Fe8  1  0.99446700  0.49527600  0.42897000  1
  Fe  Fe9  1  0.09041300  0.59222600  0.13057600  1
  Fe  Fe10  1  0.10860100  0.60613000  0.27089900  1
  Fe  Fe11  1  0.40272200  0.90474200  0.22726400  1
  Fe  Fe12  1  0.51018500  0.00685700  0.07036500  1
  Fe  Fe13  1  0.80389900  0.30740400  0.02797200  1
  O  O0  1  0.23296800  0.43435900  0.91867700  1
  O  O1  1  0.73443700  0.85078700  0.84930200  1
  O  O2  1  0.79239800  0.94709900  0.98794600  1
  O  O3  1  0.65113500  0.40762200  0.81504900  1
  O  O4  1  0.64897900  0.55048200  0.94212300  1
  O  O5  1  0.60575600  0.85024900  0.71159000  1
  O  O6  1  0.14514100  0.00157300  0.89275600  1
  O  O7  1  0.15606600  0.23909300  0.64418300  1
  O  O8  1  0.18519200  0.35478600  0.79545400  1
  O  O9  1  0.03122000  0.82961400  0.61448200  1
  O  O10  1  0.05321800  0.93537300  0.74298500  1
  O  O11  1  0.00212300  0.25849500  0.50956000  1
  O  O12  1  0.53846500  0.39248200  0.68777000  1
  O  O13  1  0.55048200  0.64897900  0.44212300  1
  O  O14  1  0.58656300  0.75562700  0.59290700  1
  O  O15  1  0.43435900  0.23296800  0.41867700  1
  O  O16  1  0.46610900  0.32632100  0.54688600  1
  O  O17  1  0.40762200  0.65113500  0.31504900  1
  O  O18  1  0.94709900  0.79239800  0.48794600  1
  O  O19  1  0.93537300  0.05321800  0.24298500  1
  O  O20  1  0.00157300  0.14514100  0.39275600  1
  O  O21  1  0.85024900  0.60575600  0.21159000  1
  O  O22  1  0.85078700  0.73443700  0.34930200  1
  O  O23  1  0.82961400  0.03122000  0.11448200  1
  O  O24  1  0.35478600  0.18519200  0.29545400  1
  O  O25  1  0.32632100  0.46610900  0.04688600  1
  O  O26  1  0.39248200  0.53846500  0.18777000  1
  O  O27  1  0.25849500  0.00212300  0.00956000  1
  O  O28  1  0.23909300  0.15606600  0.14418300  1
  O  O29  1  0.75562700  0.58656300  0.09290700  1
loop_
_geom_bond_atom_site_label_1
_geom_bond_atom_site_label_2
_geom_bond_distance
_geom_bond_site_symmetry_2
Fe0 O1 1.995081 1_555
Fe0 O0 2.009841 1_565
Fe0 O2 2.035643 1_555
Fe0 O27 2.074409 1_566
Fe0 O4 2.093649 1_555
Fe0 O6 2.115107 1_565
Fe1 O8 1.970045 1_555
Fe1 O5 1.983776 1_545
Fe1 O1 2.009969 1_545
Fe1 O3 2.101373 1_555
Fe1 O10 2.134552 1_645
Fe1 O12 2.188964 1_555
Fe2 O5 2.072769 1_555
Fe2 O7 2.092583 1_655
Fe2 O8 2.106150 1_655
Fe2 O10 2.226073 1_645
Fe2 O3 2.251639 1_555
Fe2 O12 2.280218 1_555
Fe3 O14 1.957614 1_455
Fe3 O7 1.968904 1_555
Fe3 O11 1.989397 1_555
Fe3 O9 2.135398 1_555
Fe3 O16 2.164241 1_555
Fe3 O18 2.179812 1_455
Fe4 O6 2.080901 1_565
Fe4 O3 2.111070 1_555
Fe4 O10 2.125744 1_555
Fe4 O8 2.147308 1_555
Fe4 O1 2.193482 1_455
Fe4 O0 2.257520 1_555
Fe5 O14 2.048911 1_555
Fe5 O11 2.114461 1_565
Fe5 O13 2.121305 1_555
Fe5 O18 2.258667 1_455
Fe5 O9 2.269962 1_555
Fe5 O16 2.271118 1_555
Fe6 O9 2.018375 1_645
Fe6 O12 2.018489 1_555
Fe6 O16 2.054608 1_555
Fe6 O7 2.061045 1_555
Fe6 O5 2.083360 1_545
Fe6 O14 2.088201 1_545
Fe7 O20 2.080901 1_655
Fe7 O17 2.111070 1_555
Fe7 O19 2.125744 1_555
Fe7 O24 2.147308 1_555
Fe7 O22 2.193482 1_545
Fe7 O15 2.257520 1_555
Fe8 O22 1.995081 1_555
Fe8 O15 2.009841 1_655
Fe8 O18 2.035643 1_555
Fe8 O11 2.074409 1_655
Fe8 O13 2.093649 1_555
Fe8 O20 2.115107 1_655
Fe9 O23 2.018375 1_465
Fe9 O26 2.018489 1_555
Fe9 O25 2.054608 1_555
Fe9 O28 2.061045 1_555
Fe9 O21 2.083360 1_455
Fe9 O29 2.088201 1_455
Fe10 O24 1.970045 1_555
Fe10 O21 1.983776 1_455
Fe10 O22 2.009969 1_455
Fe10 O17 2.101373 1_555
Fe10 O19 2.134552 1_465
Fe10 O26 2.188964 1_555
Fe11 O21 2.072769 1_555
Fe11 O28 2.092583 1_565
Fe11 O24 2.106150 1_565
Fe11 O19 2.226073 1_465
Fe11 O17 2.251639 1_555
Fe11 O26 2.280218 1_555
Fe12 O29 1.957614 1_545
Fe12 O28 1.968904 1_555
Fe12 O27 1.989397 1_555
Fe12 O23 2.135398 1_555
Fe12 O25 2.164241 1_555
Fe12 O2 2.179812 1_544
Fe13 O29 2.048911 1_555
Fe13 O27 2.114461 1_655
Fe13 O4 2.121305 1_554
Fe13 O2 2.258667 1_544
Fe13 O23 2.269962 1_555
Fe13 O25 2.271118 1_555
O0 Ti0 1.883411 1_555
O0 Ti1 2.294580 1_455
O1 Ti1 2.071916 1_555
O2 Ti0 1.894923 1_655
O3 Ti1 1.831724 1_555
O4 Ti1 1.953330 1_555
O4 Ti0 2.165587 1_555
O5 Ti2 2.110368 1_555
O6 Ti1 1.925644 1_455
O6 Ti0 2.218245 1_545
O7 Ti2 2.112279 1_545
O8 Ti1 2.009062 1_455
O9 Ti2 1.919978 1_555
O10 Ti2 1.853144 1_555
O11 Ti4 2.059836 1_455
O12 Ti2 1.894241 1_555
O13 Ti3 1.953330 1_555
O13 Ti4 2.165587 1_555
O14 Ti2 2.158497 1_555
O15 Ti4 1.883411 1_555
O15 Ti3 2.294580 1_545
O16 Ti4 1.860524 1_555
O17 Ti3 1.831724 1_555
O18 Ti4 1.894923 1_565
O19 Ti5 1.853144 1_555
O20 Ti3 1.925644 1_545
O20 Ti4 2.218245 1_455
O21 Ti5 2.110368 1_555
O22 Ti3 2.071916 1_555
O23 Ti5 1.919978 1_555
O24 Ti3 2.009062 1_545
O25 Ti0 1.860524 1_554
O26 Ti5 1.894241 1_555
O27 Ti0 2.059836 1_544
O28 Ti5 2.112279 1_455
O29 Ti5 2.158497 1_555
