# generated using pymatgen
data_Sn7IrOsRu
_symmetry_space_group_name_H-M   'P 1'
_cell_length_a   9.40634394
_cell_length_b   8.16500909
_cell_length_c   8.16147120
_cell_angle_alpha   70.59810099
_cell_angle_beta   54.80952023
_cell_angle_gamma   54.78027436
_symmetry_Int_Tables_number   1
_chemical_formula_structural   Sn7IrOsRu
_chemical_formula_sum   'Sn14 Ir2 Os2 Ru2'
_cell_volume   418.49425222
_cell_formula_units_Z   2
loop_
 _symmetry_equiv_pos_site_id
 _symmetry_equiv_pos_as_xyz
  1  'x, y, z'
loop_
 _atom_site_type_symbol
 _atom_site_label
 _atom_site_symmetry_multiplicity
 _atom_site_fract_x
 _atom_site_fract_y
 _atom_site_fract_z
 _atom_site_occupancy
  Sn  Sn0  1  0.67614631  0.32403525  0.00074897  1
  Sn  Sn1  1  0.00011148  0.00292763  0.32262072  1
  Sn  Sn2  1  0.32375413  0.00240481  0.67726062  1
  Sn  Sn3  1  0.99775411  0.67593594  0.00035969  1
  Sn  Sn4  1  0.32574141  0.67756282  0.00034871  1
  Sn  Sn5  1  0.99766772  0.00260661  0.67589621  1
  Sn  Sn6  1  0.67404764  0.00318739  0.32393606  1
  Sn  Sn7  1  0.00003410  0.32288925  0.00068741  1
  Sn  Sn8  1  0.25269282  0.49498616  0.49983525  1
  Sn  Sn9  1  0.50268676  0.24653467  0.74785333  1
  Sn  Sn10  1  0.74931569  0.74796845  0.75319393  1
  Sn  Sn11  1  0.50252211  0.74795262  0.24692844  1
  Sn  Sn12  1  0.75177653  0.49505498  0.49956529  1
  Sn  Sn13  1  0.25138199  0.24569450  0.25127678  1
  Ir  Ir0  1  0.99972056  0.65822007  0.34161245  1
  Ir  Ir1  1  0.34103555  0.65890942  0.65832801  1
  Os  Os0  1  0.65651088  0.00020188  0.99967459  1
  Os  Os1  1  0.99973952  0.34583348  0.65401027  1
  Ru  Ru0  1  0.65317432  0.34684189  0.34618892  1
  Ru  Ru1  1  0.34418338  0.00025118  0.99967435  1
loop_
_geom_bond_atom_site_label_1
_geom_bond_atom_site_label_2
_geom_bond_distance
_geom_bond_site_symmetry_2
Sn0 Sn4 2.868495 1_555
Sn0 Sn6 3.038001 1_555
Sn0 Sn7 3.040924 1_655
Sn0 Sn5 3.047894 1_554
Sn1 Sn5 2.869200 1_455
Sn1 Sn7 3.027894 1_555
Sn1 Sn4 3.054270 1_545
Sn1 Sn6 3.059672 1_455
Sn2 Sn6 2.869316 1_555
Sn2 Sn7 3.036693 1_556
Sn2 Sn4 3.056362 1_546
Sn2 Sn5 3.072762 1_455
Sn3 Sn7 2.869435 1_655
Sn3 Sn6 3.069348 1_565
Sn3 Sn5 3.071491 1_564
Sn3 Sn4 3.092790 1_655
Ir0 Sn3 2.750785 1_555
Ir0 Sn4 2.758354 1_655
Ir0 Sn6 2.761482 1_565
Ir0 Sn1 2.768956 1_665
Ir0 Sn8 2.801120 1_655
Ir0 Sn12 2.802420 1_555
Ir0 Sn10 2.809575 1_555
Ir0 Sn13 2.816748 1_655
Ir0 Os1 2.947158 1_555
Ir1 Sn3 2.754840 1_456
Ir1 Sn5 2.758030 1_465
Ir1 Sn4 2.762263 1_556
Ir1 Sn2 2.765762 1_565
Ir1 Sn12 2.795647 1_555
Ir1 Sn8 2.797716 1_555
Ir1 Sn11 2.807680 1_555
Ir1 Sn9 2.814905 1_555
Ir1 Ru0 2.943702 1_555
Os0 Sn3 2.742550 1_546
Os0 Sn5 2.746904 1_555
Os0 Sn6 2.753574 1_556
Os0 Sn0 2.757902 1_556
Os0 Sn13 2.767915 1_556
Os0 Sn9 2.772612 1_555
Os0 Sn10 2.775799 1_545
Os0 Sn11 2.779020 1_546
Os0 Ru1 2.937629 1_555
Os1 Sn8 2.757020 1_655
Os1 Sn12 2.757538 1_555
Os1 Sn5 2.759061 1_555
Os1 Sn10 2.762608 1_555
Os1 Sn2 2.764696 1_655
Os1 Sn13 2.767831 1_655
Os1 Sn0 2.768937 1_556
Os1 Sn7 2.774321 1_656
Ru0 Sn12 2.744248 1_555
Ru0 Sn8 2.744765 1_555
Ru0 Sn11 2.756417 1_555
Ru0 Sn6 2.758055 1_555
Ru0 Sn9 2.761505 1_555
Ru0 Sn0 2.762253 1_555
Ru0 Sn1 2.763615 1_655
Ru0 Sn7 2.767857 1_655
Ru1 Sn4 2.736511 1_546
Ru1 Sn2 2.740351 1_555
Ru1 Sn1 2.747138 1_556
Ru1 Sn7 2.750739 1_556
Ru1 Sn13 2.764980 1_556
Ru1 Sn9 2.769680 1_555
Ru1 Sn10 2.770415 1_545
Ru1 Sn11 2.774433 1_546
