# generated using pymatgen
data_Hf5Zr3(Ir2N)2
_symmetry_space_group_name_H-M   'P 1'
_cell_length_a   8.71497872
_cell_length_b   8.71497897
_cell_length_c   8.71497910
_cell_angle_alpha   59.99999577
_cell_angle_beta   59.99999482
_cell_angle_gamma   59.99999319
_symmetry_Int_Tables_number   1
_chemical_formula_structural   Hf5Zr3(Ir2N)2
_chemical_formula_sum   'Hf10 Zr6 Ir8 N4'
_cell_volume   468.04108003
_cell_formula_units_Z   2
loop_
 _symmetry_equiv_pos_site_id
 _symmetry_equiv_pos_as_xyz
  1  'x, y, z'
loop_
 _atom_site_type_symbol
 _atom_site_label
 _atom_site_symmetry_multiplicity
 _atom_site_fract_x
 _atom_site_fract_y
 _atom_site_fract_z
 _atom_site_occupancy
  Hf  Hf0  1  0.12507876  0.62497341  0.62497341  1
  Hf  Hf1  1  0.62497341  0.12507876  0.62497341  1
  Hf  Hf2  1  0.62497341  0.62497341  0.12507876  1
  Hf  Hf3  1  0.62497341  0.62497341  0.62497341  1
  Hf  Hf4  1  0.81641885  0.81641885  0.18358115  1
  Hf  Hf5  1  0.18358115  0.18358115  0.81641885  1
  Hf  Hf6  1  0.81641885  0.18358115  0.81641885  1
  Hf  Hf7  1  0.18358115  0.81641885  0.18358115  1
  Hf  Hf8  1  0.18358115  0.81641885  0.81641885  1
  Hf  Hf9  1  0.81641885  0.18358115  0.18358115  1
  Zr  Zr0  1  0.43579630  0.43579630  0.06420370  1
  Zr  Zr1  1  0.06420370  0.06420370  0.43579630  1
  Zr  Zr2  1  0.43579630  0.06420370  0.43579630  1
  Zr  Zr3  1  0.06420370  0.43579630  0.06420370  1
  Zr  Zr4  1  0.06420370  0.43579630  0.43579630  1
  Zr  Zr5  1  0.43579630  0.06420370  0.06420370  1
  Ir  Ir0  1  0.76211368  0.41262844  0.41262844  1
  Ir  Ir1  1  0.41262844  0.76211368  0.41262844  1
  Ir  Ir2  1  0.41262844  0.41262844  0.76211368  1
  Ir  Ir3  1  0.41262844  0.41262844  0.41262844  1
  Ir  Ir4  1  0.48575441  0.83808153  0.83808153  1
  Ir  Ir5  1  0.83808153  0.48575441  0.83808153  1
  Ir  Ir6  1  0.83808153  0.83808153  0.48575441  1
  Ir  Ir7  1  0.83808153  0.83808153  0.83808153  1
  N  N0  1  0.63053755  0.12315348  0.12315348  1
  N  N1  1  0.12315348  0.63053755  0.12315348  1
  N  N2  1  0.12315348  0.12315348  0.63053755  1
  N  N3  1  0.12315348  0.12315348  0.12315348  1
loop_
_geom_bond_atom_site_label_1
_geom_bond_atom_site_label_2
_geom_bond_distance
_geom_bond_site_symmetry_2
Hf0 Ir3 2.697937 1_555
Hf0 Ir2 2.697937 1_555
Hf0 Ir1 2.697937 1_555
Hf0 Ir7 2.704309 1_455
Hf0 Ir6 2.704309 1_455
Hf0 Ir5 2.704309 1_455
Hf1 Ir3 2.697937 1_555
Hf1 Ir2 2.697937 1_555
Hf1 Ir0 2.697937 1_555
Hf1 Ir7 2.704309 1_545
Hf1 Ir6 2.704309 1_545
Hf1 Ir4 2.704309 1_545
Hf2 Ir3 2.697937 1_555
Hf2 Ir1 2.697937 1_555
Hf2 Ir0 2.697937 1_555
Hf2 Ir7 2.704309 1_554
Hf2 Ir5 2.704309 1_554
Hf2 Ir4 2.704309 1_554
Hf3 Ir1 2.697937 1_555
Hf3 Ir0 2.697937 1_555
Hf3 Ir2 2.697937 1_555
Hf3 Ir5 2.704309 1_555
Hf3 Ir4 2.704309 1_555
Hf3 Ir6 2.704309 1_555
Hf4 N1 2.272093 1_655
Hf4 N0 2.272093 1_565
Hf4 Ir6 2.834824 1_555
Hf4 Ir7 2.834833 1_554
Hf5 N3 2.272089 1_556
Hf5 N2 2.272106 1_555
Hf5 Ir5 2.834829 1_455
Hf5 Ir4 2.834829 1_545
Hf6 N2 2.272093 1_655
Hf6 N0 2.272093 1_556
Hf6 Ir5 2.834824 1_555
Hf6 Ir7 2.834833 1_545
Hf7 N3 2.272089 1_565
Hf7 N1 2.272106 1_555
Hf7 Ir6 2.834829 1_455
Hf7 Ir4 2.834829 1_554
Hf8 N2 2.272093 1_565
Hf8 N1 2.272093 1_556
Hf8 Ir4 2.834824 1_555
Hf8 Ir7 2.834833 1_455
Hf9 N3 2.272089 1_655
Hf9 N0 2.272106 1_555
Hf9 Ir6 2.834829 1_545
Hf9 Ir5 2.834829 1_554
Ir0 Zr1 2.848956 1_655
Ir0 Zr3 2.848956 1_655
Ir0 Zr4 2.848961 1_655
Ir1 Zr1 2.848956 1_565
Ir1 Zr5 2.848956 1_565
Ir1 Zr2 2.848961 1_565
Ir2 Zr3 2.848956 1_556
Ir2 Zr5 2.848956 1_556
Ir2 Zr0 2.848961 1_556
Ir3 Zr4 2.848952 1_555
Ir3 Zr2 2.848952 1_555
Ir3 Zr0 2.848952 1_555
N0 Zr5 2.327231 1_555
N0 Zr0 2.327242 1_555
N0 Zr2 2.327243 1_555
N1 Zr3 2.327231 1_555
N1 Zr0 2.327242 1_555
N1 Zr4 2.327243 1_555
N2 Zr1 2.327231 1_555
N2 Zr2 2.327242 1_555
N2 Zr4 2.327243 1_555
N3 Zr5 2.327247 1_555
N3 Zr3 2.327247 1_555
N3 Zr1 2.327247 1_555
