# generated using pymatgen
data_CaBeAsH
_symmetry_space_group_name_H-M   'P 1'
_cell_length_a   3.78836900
_cell_length_b   3.78836900
_cell_length_c   8.41294765
_cell_angle_alpha   90.00000000
_cell_angle_beta   90.00000000
_cell_angle_gamma   90.00000000
_symmetry_Int_Tables_number   1
_chemical_formula_structural   CaBeAsH
_chemical_formula_sum   'Ca2 Be2 As2 H2'
_cell_volume   120.74043453
_cell_formula_units_Z   2
loop_
 _symmetry_equiv_pos_site_id
 _symmetry_equiv_pos_as_xyz
  1  'x, y, z'
loop_
 _atom_site_type_symbol
 _atom_site_label
 _atom_site_symmetry_multiplicity
 _atom_site_fract_x
 _atom_site_fract_y
 _atom_site_fract_z
 _atom_site_occupancy
  Ca  Ca0  1  0.00000000  0.50000000  0.84786318  1
  Ca  Ca1  1  0.50000000  0.00000000  0.15213682  1
  Be  Be0  1  0.00000000  0.00000000  0.50000000  1
  Be  Be1  1  0.50000000  0.50000000  0.50000000  1
  As  As0  1  0.00000000  0.50000000  0.33903675  1
  As  As1  1  0.50000000  0.00000000  0.66096325  1
  H  H0  1  0.00000000  0.00000000  0.00000000  1
  H  H1  1  0.50000000  0.50000000  0.00000000  1
loop_
_geom_bond_atom_site_label_1
_geom_bond_atom_site_label_2
_geom_bond_distance
_geom_bond_site_symmetry_2
Ca0 H0 2.286073 1_566
Ca0 H0 2.286073 1_556
Ca0 H1 2.286073 1_556
Ca0 H1 2.286073 1_456
Ca1 H1 2.286073 1_545
Ca1 H0 2.286073 1_655
Ca1 H1 2.286073 1_555
Ca1 H0 2.286073 1_555
As0 Be1 2.328460 1_555
As0 Be1 2.328460 1_455
As0 Be0 2.328460 1_555
As0 Be0 2.328460 1_565
As0 Ca1 3.106163 1_455
As0 Ca1 3.106163 1_555
As0 Ca1 3.106163 1_565
As0 Ca1 3.106163 1_465
As1 Be0 2.328460 1_555
As1 Be1 2.328460 1_545
As1 Be0 2.328460 1_655
As1 Be1 2.328460 1_555
As1 Ca0 3.106163 1_645
As1 Ca0 3.106163 1_555
As1 Ca0 3.106163 1_545
As1 Ca0 3.106163 1_655
