# generated using pymatgen
data_Lu12Co4RhPb
_symmetry_space_group_name_H-M   'P 1'
_cell_length_a   8.07193234
_cell_length_b   8.07193335
_cell_length_c   8.07193182
_cell_angle_alpha   111.15571773
_cell_angle_beta   110.58958084
_cell_angle_gamma   106.70383788
_symmetry_Int_Tables_number   1
_chemical_formula_structural   Lu12Co4RhPb
_chemical_formula_sum   'Lu12 Co4 Rh1 Pb1'
_cell_volume   404.15096532
_cell_formula_units_Z   1
loop_
 _symmetry_equiv_pos_site_id
 _symmetry_equiv_pos_as_xyz
  1  'x, y, z'
loop_
 _atom_site_type_symbol
 _atom_site_label
 _atom_site_symmetry_multiplicity
 _atom_site_fract_x
 _atom_site_fract_y
 _atom_site_fract_z
 _atom_site_occupancy
  Lu  Lu0  1  0.41227349  0.21401168  0.19826181  1
  Lu  Lu1  1  0.58772651  0.78598832  0.80173819  1
  Lu  Lu2  1  0.01574986  0.21401168  0.80173819  1
  Lu  Lu3  1  0.98425014  0.78598832  0.19826181  1
  Lu  Lu4  1  0.18437250  0.28687033  0.47124283  1
  Lu  Lu5  1  0.81562750  0.71312967  0.52875717  1
  Lu  Lu6  1  0.18437250  0.71312967  0.89750117  1
  Lu  Lu7  1  0.81562750  0.28687033  0.10249883  1
  Lu  Lu8  1  0.31243740  0.61762068  0.30518229  1
  Lu  Lu9  1  0.68756260  0.38237932  0.69481771  1
  Lu  Lu10  1  0.31243740  0.00725511  0.69481771  1
  Lu  Lu11  1  0.68756260  0.99274489  0.30518229  1
  Co  Co0  1  0.37902529  0.00000000  0.37902529  1
  Co  Co1  1  0.62097471  1.00000000  0.62097471  1
  Co  Co2  1  0.11161434  0.61161434  0.50000000  1
  Co  Co3  1  0.88838566  0.38838566  0.50000000  1
  Rh  Rh0  1  0.00000000  0.00000000  0.00000000  1
  Pb  Pb0  1  0.50000000  0.50000000  0.00000000  1
loop_
_geom_bond_atom_site_label_1
_geom_bond_atom_site_label_2
_geom_bond_distance
_geom_bond_site_symmetry_2
Lu0 Rh0 2.752067 1_555
Lu0 Pb0 3.303884 1_555
Lu0 Lu4 3.335103 1_555
Lu0 Lu6 3.335104 1_544
Lu0 Lu7 3.541395 1_555
Lu0 Lu5 3.541400 1_555
Lu1 Rh0 2.752067 1_666
Lu1 Pb0 3.303884 1_556
Lu1 Lu5 3.335103 1_555
Lu1 Lu7 3.335104 1_566
Lu1 Lu6 3.541395 1_555
Lu1 Lu4 3.541400 1_555
Lu2 Rh0 2.752067 1_556
Lu2 Pb0 3.303884 1_556
Lu2 Lu5 3.335103 1_445
Lu2 Lu7 3.335109 1_456
Lu2 Lu4 3.541400 1_555
Lu2 Lu6 3.541403 1_555
Lu3 Rh0 2.752067 1_665
Lu3 Pb0 3.303884 1_555
Lu3 Lu4 3.335103 1_665
Lu3 Lu6 3.335109 1_654
Lu3 Lu5 3.541400 1_555
Lu3 Lu7 3.541403 1_555
Lu4 Rh0 3.118586 1_555
Lu4 Lu7 3.389344 1_455
Lu4 Lu8 3.458953 1_555
Lu4 Pb0 3.492777 1_556
Lu4 Lu9 3.519784 1_555
Lu5 Rh0 3.118586 1_666
Lu5 Lu6 3.389344 1_655
Lu5 Lu9 3.458953 1_555
Lu5 Pb0 3.492777 1_555
Lu5 Lu8 3.519784 1_555
Lu6 Rh0 3.118588 1_566
Lu6 Lu9 3.458950 1_455
Lu6 Pb0 3.492778 1_556
Lu6 Lu8 3.519784 1_556
Lu7 Rh0 3.118588 1_655
Lu7 Lu8 3.458950 1_655
Lu7 Pb0 3.492778 1_555
Lu7 Lu9 3.519784 1_554
Lu8 Pb0 3.320131 1_555
Lu9 Pb0 3.320131 1_556
Lu10 Pb0 3.320131 1_556
Lu10 Lu6 3.458939 1_545
Lu10 Lu5 3.458946 1_445
Lu10 Lu4 3.519782 1_555
Lu10 Lu7 3.519784 1_556
Lu11 Pb0 3.320131 1_555
Lu11 Lu7 3.458939 1_565
Lu11 Lu4 3.458946 1_665
Lu11 Lu5 3.519782 1_555
Lu11 Lu6 3.519784 1_554
Co0 Co1 2.223897 1_545
Co0 Lu3 2.648309 1_445
Co0 Lu0 2.648309 1_555
Co0 Lu8 2.768386 1_545
Co0 Lu9 2.768390 1_555
Co0 Lu10 2.768393 1_555
Co0 Lu11 2.768394 1_545
Co0 Lu4 3.170927 1_555
Co0 Lu6 3.170933 1_544
Co1 Lu2 2.648309 1_665
Co1 Lu1 2.648309 1_555
Co1 Lu9 2.768386 1_565
Co1 Lu8 2.768390 1_555
Co1 Lu11 2.768393 1_555
Co1 Lu10 2.768394 1_565
Co1 Lu5 3.170927 1_555
Co1 Lu7 3.170933 1_566
Co2 Co3 2.151087 1_455
Co2 Lu10 2.627890 1_565
Co2 Lu8 2.627890 1_555
Co2 Lu6 2.794941 1_555
Co2 Lu7 2.794944 1_455
Co2 Lu5 2.794949 1_455
Co2 Lu4 2.794949 1_555
Co2 Lu1 3.242756 1_555
Co2 Lu3 3.242757 1_455
Co3 Lu11 2.627890 1_545
Co3 Lu9 2.627890 1_555
Co3 Lu7 2.794941 1_555
Co3 Lu6 2.794944 1_655
Co3 Lu4 2.794949 1_655
Co3 Lu5 2.794949 1_555
Co3 Lu0 3.242756 1_555
Co3 Lu2 3.242757 1_655
