# generated using pymatgen
data_LiGa3Te5
_symmetry_space_group_name_H-M   'P 1'
_cell_length_a   10.38486780
_cell_length_b   10.38486780
_cell_length_c   10.38486801
_cell_angle_alpha   90.03979480
_cell_angle_beta   90.03979480
_cell_angle_gamma   90.03979301
_symmetry_Int_Tables_number   1
_chemical_formula_structural   LiGa3Te5
_chemical_formula_sum   'Li4 Ga12 Te20'
_cell_volume   1119.96025669
_cell_formula_units_Z   4
loop_
 _symmetry_equiv_pos_site_id
 _symmetry_equiv_pos_as_xyz
  1  'x, y, z'
loop_
 _atom_site_type_symbol
 _atom_site_label
 _atom_site_symmetry_multiplicity
 _atom_site_fract_x
 _atom_site_fract_y
 _atom_site_fract_z
 _atom_site_occupancy
  Li  Li0  1  0.73290000  0.26497500  0.00392100  1
  Li  Li1  1  0.55440400  0.55440400  0.55440400  1
  Li  Li2  1  0.00392100  0.73290000  0.26497500  1
  Li  Li3  1  0.26497500  0.00392100  0.73290000  1
  Ga  Ga0  1  0.42969200  0.12714800  0.15847600  1
  Ga  Ga1  1  0.12714800  0.15847600  0.42969200  1
  Ga  Ga2  1  0.75016900  0.16723000  0.33729500  1
  Ga  Ga3  1  0.83329800  0.24810900  0.65965800  1
  Ga  Ga4  1  0.16723000  0.33729500  0.75016900  1
  Ga  Ga5  1  0.15847600  0.42969200  0.12714800  1
  Ga  Ga6  1  0.87538000  0.57174000  0.84232200  1
  Ga  Ga7  1  0.24810900  0.65965800  0.83329800  1
  Ga  Ga8  1  0.33729500  0.75016900  0.16723000  1
  Ga  Ga9  1  0.65965800  0.83329800  0.24810900  1
  Ga  Ga10  1  0.57174000  0.84232200  0.87538000  1
  Ga  Ga11  1  0.84232200  0.87538000  0.57174000  1
  Te  Te0  1  0.83376200  0.99793200  0.16822500  1
  Te  Te1  1  0.67141000  0.06769700  0.56628600  1
  Te  Te2  1  0.49981500  0.08431800  0.91527900  1
  Te  Te3  1  0.99793200  0.16822500  0.83376200  1
  Te  Te4  1  0.17232400  0.17232400  0.17232400  1
  Te  Te5  1  0.32041600  0.24013000  0.57437700  1
  Te  Te6  1  0.57437700  0.32041600  0.24013000  1
  Te  Te7  1  0.93219200  0.32745900  0.43236900  1
  Te  Te8  1  0.68051400  0.42491600  0.76194000  1
  Te  Te9  1  0.32745900  0.43236900  0.93219200  1
  Te  Te10  1  0.91527900  0.49981500  0.08431800  1
  Te  Te11  1  0.06769700  0.56628600  0.67141000  1
  Te  Te12  1  0.24013000  0.57437700  0.32041600  1
  Te  Te13  1  0.56628600  0.67141000  0.06769700  1
  Te  Te14  1  0.76194000  0.68051400  0.42491600  1
  Te  Te15  1  0.42491600  0.76194000  0.68051400  1
  Te  Te16  1  0.82805900  0.82805900  0.82805900  1
  Te  Te17  1  0.16822500  0.83376200  0.99793200  1
  Te  Te18  1  0.08431800  0.91527900  0.49981500  1
  Te  Te19  1  0.43236900  0.93219200  0.32745900  1
loop_
_geom_bond_atom_site_label_1
_geom_bond_atom_site_label_2
_geom_bond_distance
_geom_bond_site_symmetry_2
Li0 Te6 3.010608 1_555
Li0 Te8 3.061828 1_554
Li0 Te2 3.196002 1_554
Li0 Te10 3.196946 1_555
Li1 Te15 2.858494 1_555
Li1 Te8 2.858494 1_555
Li1 Te14 2.858495 1_555
Li2 Te12 3.010608 1_555
Li2 Te14 3.061828 1_455
Li2 Te10 3.196002 1_455
Li2 Te18 3.196946 1_555
Li3 Te5 3.010608 1_555
Li3 Te15 3.061828 1_545
Li3 Te18 3.196002 1_545
Li3 Te2 3.196946 1_555
Ga0 Te6 2.645115 1_555
Ga0 Te2 2.666098 1_554
Ga0 Te19 2.680345 1_545
Ga0 Te4 2.717805 1_555
Ga1 Te5 2.645115 1_555
Ga1 Te18 2.666098 1_545
Ga1 Te7 2.680345 1_455
Ga1 Te4 2.717805 1_555
Ga2 Te6 2.623986 1_555
Ga2 Te0 2.631981 1_545
Ga2 Te7 2.703240 1_555
Ga2 Te1 2.719815 1_555
Ga3 Te3 2.622992 1_555
Ga3 Te8 2.649655 1_555
Ga3 Te1 2.695860 1_555
Ga3 Te7 2.703700 1_555
Ga4 Te5 2.623987 1_555
Ga4 Te3 2.631981 1_455
Ga4 Te9 2.703240 1_555
Ga4 Te11 2.719815 1_555
Ga5 Te12 2.645115 1_555
Ga5 Te10 2.666097 1_455
Ga5 Te9 2.680345 1_554
Ga5 Te4 2.717805 1_555
Ga6 Te10 2.654587 1_556
Ga6 Te8 2.666170 1_555
Ga6 Te11 2.673419 1_655
Ga6 Te16 2.711288 1_555
Ga7 Te17 2.622992 1_555
Ga7 Te15 2.649656 1_555
Ga7 Te11 2.695860 1_555
Ga7 Te9 2.703700 1_555
Ga8 Te12 2.623987 1_555
Ga8 Te17 2.631981 1_554
Ga8 Te19 2.703240 1_555
Ga8 Te13 2.719815 1_555
Ga9 Te0 2.622992 1_555
Ga9 Te14 2.649656 1_555
Ga9 Te13 2.695860 1_555
Ga9 Te19 2.703700 1_555
Ga10 Te2 2.654587 1_565
Ga10 Te15 2.666170 1_555
Ga10 Te13 2.673419 1_556
Ga10 Te16 2.711289 1_555
Ga11 Te18 2.654587 1_655
Ga11 Te14 2.666170 1_555
Ga11 Te1 2.673419 1_565
Ga11 Te16 2.711289 1_555
