# generated using pymatgen
data_RbCaPbF7
_symmetry_space_group_name_H-M   'P 1'
_cell_length_a   6.59996530
_cell_length_b   6.59996616
_cell_length_c   8.65057826
_cell_angle_alpha   90.00000000
_cell_angle_beta   90.00000000
_cell_angle_gamma   116.36941090
_symmetry_Int_Tables_number   1
_chemical_formula_structural   RbCaPbF7
_chemical_formula_sum   'Rb2 Ca2 Pb2 F14'
_cell_volume   337.60727538
_cell_formula_units_Z   2
loop_
 _symmetry_equiv_pos_site_id
 _symmetry_equiv_pos_as_xyz
  1  'x, y, z'
loop_
 _atom_site_type_symbol
 _atom_site_label
 _atom_site_symmetry_multiplicity
 _atom_site_fract_x
 _atom_site_fract_y
 _atom_site_fract_z
 _atom_site_occupancy
  Rb  Rb0  1  0.00000000  0.00000000  0.00000000  1
  Rb  Rb1  1  0.00000000  0.00000000  0.50000000  1
  Ca  Ca0  1  0.30951572  0.69048428  0.75000000  1
  Ca  Ca1  1  0.69048428  0.30951572  0.25000000  1
  Pb  Pb0  1  0.69696808  0.30303192  0.75000000  1
  Pb  Pb1  1  0.30303192  0.69696808  0.25000000  1
  F  F0  1  0.50972240  0.49027760  0.75000000  1
  F  F1  1  0.49027760  0.50972240  0.25000000  1
  F  F2  1  0.70818633  0.29181367  0.99094482  1
  F  F3  1  0.29181367  0.70818633  0.00905518  1
  F  F4  1  0.29181367  0.70818633  0.49094482  1
  F  F5  1  0.70818633  0.29181367  0.50905518  1
  F  F6  1  0.67598801  0.96637258  0.75000000  1
  F  F7  1  0.32401199  0.03362742  0.25000000  1
  F  F8  1  0.03362742  0.32401199  0.75000000  1
  F  F9  1  0.96637258  0.67598801  0.25000000  1
  F  F10  1  0.34456716  0.05809187  0.75000000  1
  F  F11  1  0.65543284  0.94190813  0.25000000  1
  F  F12  1  0.94190813  0.65543284  0.75000000  1
  F  F13  1  0.05809187  0.34456716  0.25000000  1
loop_
_geom_bond_atom_site_label_1
_geom_bond_atom_site_label_2
_geom_bond_distance
_geom_bond_site_symmetry_2
Ca0 F0 2.245652 1_555
Ca0 F3 2.249756 1_556
Ca0 F4 2.249756 1_555
Ca0 F6 2.292032 1_555
Ca0 F8 2.292032 1_555
Ca0 F12 2.332673 1_455
Ca0 F10 2.332674 1_565
Ca1 F1 2.245652 1_555
Ca1 F5 2.249756 1_555
Ca1 F2 2.249756 1_554
Ca1 F7 2.292032 1_555
Ca1 F9 2.292032 1_555
Ca1 F13 2.332673 1_655
Ca1 F11 2.332674 1_545
F0 Pb0 2.100273 1_555
F1 Pb1 2.100273 1_555
F2 Pb0 2.088107 1_555
F2 Rb0 3.274114 1_656
F3 Pb1 2.088107 1_555
F3 Rb0 3.274114 1_565
F4 Pb1 2.088107 1_555
F4 Rb1 3.274114 1_565
F5 Pb0 2.088107 1_555
F5 Rb1 3.274114 1_655
F6 Pb0 2.163998 1_565
F6 Rb1 2.979552 1_665
F6 Rb0 2.979552 1_666
F7 Pb1 2.163998 1_545
F7 Rb1 2.979552 1_555
F7 Rb0 2.979552 1_555
F8 Pb0 2.163998 1_455
F8 Rb0 2.979552 1_556
F8 Rb1 2.979552 1_555
F9 Pb1 2.163998 1_655
F9 Rb0 2.979552 1_665
F9 Rb1 2.979552 1_665
F10 Pb0 2.163997 1_555
F10 Rb0 3.036638 1_556
F10 Rb1 3.036638 1_555
F11 Pb1 2.163997 1_555
F11 Rb0 3.036638 1_665
F11 Rb1 3.036638 1_665
F12 Pb0 2.163998 1_555
F12 Rb1 3.036639 1_665
F12 Rb0 3.036639 1_666
F13 Pb1 2.163998 1_555
F13 Rb1 3.036639 1_555
F13 Rb0 3.036639 1_555
