# generated using pymatgen
data_BeNb4SiH2
_symmetry_space_group_name_H-M   'P 1'
_cell_length_a   5.09644432
_cell_length_b   5.09644359
_cell_length_c   5.09644453
_cell_angle_alpha   104.75817361
_cell_angle_beta   104.75816544
_cell_angle_gamma   119.37476690
_symmetry_Int_Tables_number   1
_chemical_formula_structural   BeNb4SiH2
_chemical_formula_sum   'Be1 Nb4 Si1 H2'
_cell_volume   99.58370386
_cell_formula_units_Z   1
loop_
 _symmetry_equiv_pos_site_id
 _symmetry_equiv_pos_as_xyz
  1  'x, y, z'
loop_
 _atom_site_type_symbol
 _atom_site_label
 _atom_site_symmetry_multiplicity
 _atom_site_fract_x
 _atom_site_fract_y
 _atom_site_fract_z
 _atom_site_occupancy
  Be  Be0  1  0.25000000  0.25000000  0.00000000  1
  Nb  Nb0  1  0.16881090  0.66881090  0.83762381  1
  Nb  Nb1  1  0.83118910  0.33118910  0.16237619  1
  Nb  Nb2  1  0.33118910  0.16881090  0.50000000  1
  Nb  Nb3  1  0.66881090  0.83118910  0.50000000  1
  Si  Si0  1  0.75000000  0.75000000  0.00000000  1
  H  H0  1  0.75000000  0.25000000  0.50000000  1
  H  H1  1  0.25000000  0.75000000  0.50000000  1
loop_
_geom_bond_atom_site_label_1
_geom_bond_atom_site_label_2
_geom_bond_distance
_geom_bond_site_symmetry_2
Be0 Si0 2.572266 1_445
Be0 Si0 2.572266 1_555
Be0 Nb0 2.646468 1_554
Be0 Nb1 2.646468 1_455
Be0 Nb0 2.646473 1_544
Be0 Nb2 2.646473 1_554
Be0 Nb2 2.646473 1_555
Be0 Nb1 2.646474 1_555
Be0 Nb3 2.646474 1_555
Be0 Nb3 2.646474 1_444
Nb0 Si0 2.646468 1_456
Nb0 Si0 2.646474 1_556
Nb1 Si0 2.646468 1_555
Nb1 Si0 2.646473 1_545
Nb2 Si0 2.646474 1_556
Nb2 Si0 2.646474 1_445
Nb3 Si0 2.646473 1_555
Nb3 Si0 2.646473 1_556
H0 Nb3 1.964850 1_545
H0 Nb2 1.964850 1_555
H0 Nb0 1.964854 1_655
H0 Nb1 1.964860 1_555
H1 Nb2 1.964850 1_565
H1 Nb3 1.964850 1_555
H1 Nb1 1.964854 1_455
H1 Nb0 1.964860 1_555
