# generated using pymatgen
data_CsScZnSe3
_symmetry_space_group_name_H-M   'P 1'
_cell_length_a   8.28566461
_cell_length_b   8.28566534
_cell_length_c   10.56301556
_cell_angle_alpha   90.00000000
_cell_angle_beta   90.00000000
_cell_angle_gamma   151.97592161
_symmetry_Int_Tables_number   1
_chemical_formula_structural   CsScZnSe3
_chemical_formula_sum   'Cs2 Sc2 Zn2 Se6'
_cell_volume   340.71796069
_cell_formula_units_Z   2
loop_
 _symmetry_equiv_pos_site_id
 _symmetry_equiv_pos_as_xyz
  1  'x, y, z'
loop_
 _atom_site_type_symbol
 _atom_site_label
 _atom_site_symmetry_multiplicity
 _atom_site_fract_x
 _atom_site_fract_y
 _atom_site_fract_z
 _atom_site_occupancy
  Cs  Cs0  1  0.74479230  0.25520770  0.25000000  1
  Cs  Cs1  1  0.25520770  0.74479230  0.75000000  1
  Sc  Sc0  1  0.00000000  0.00000000  0.00000000  1
  Sc  Sc1  1  0.00000000  0.00000000  0.50000000  1
  Zn  Zn0  1  0.46307382  0.53692618  0.25000000  1
  Zn  Zn1  1  0.53692618  0.46307382  0.75000000  1
  Se  Se0  1  0.38830577  0.61169423  0.05159001  1
  Se  Se1  1  0.94477711  0.05522289  0.75000000  1
  Se  Se2  1  0.38830577  0.61169423  0.44840999  1
  Se  Se3  1  0.05522289  0.94477711  0.25000000  1
  Se  Se4  1  0.61169423  0.38830577  0.94840999  1
  Se  Se5  1  0.61169423  0.38830577  0.55159001  1
loop_
_geom_bond_atom_site_label_1
_geom_bond_atom_site_label_2
_geom_bond_distance
_geom_bond_site_symmetry_2
Cs0 Se3 3.648930 1_545
Cs0 Se3 3.648931 1_655
Cs0 Se2 3.706945 1_655
Cs0 Se0 3.706945 1_655
Cs0 Se0 3.706946 1_545
Cs0 Se2 3.706946 1_545
Cs0 Se4 3.837736 1_554
Cs0 Se5 3.837736 1_555
Cs1 Se1 3.648930 1_565
Cs1 Se1 3.648931 1_455
Cs1 Se5 3.706945 1_455
Cs1 Se4 3.706945 1_455
Cs1 Se5 3.706946 1_565
Cs1 Se4 3.706946 1_565
Cs1 Se0 3.837736 1_556
Cs1 Se2 3.837736 1_555
Sc0 Se4 2.747137 1_554
Sc0 Se0 2.747137 1_445
Sc0 Se0 2.747138 1_555
Sc0 Se4 2.747138 1_444
Sc0 Se1 2.786023 1_454
Sc0 Se3 2.786023 1_545
Sc1 Se5 2.747137 1_555
Sc1 Se2 2.747137 1_445
Sc1 Se2 2.747138 1_555
Sc1 Se5 2.747138 1_445
Sc1 Se3 2.786023 1_545
Sc1 Se1 2.786023 1_455
Se0 Zn0 2.416102 1_555
Se1 Zn1 2.493964 1_655
Se1 Zn1 2.493964 1_545
Se2 Zn0 2.416102 1_555
Se3 Zn0 2.493964 1_455
Se3 Zn0 2.493964 1_565
Se4 Zn1 2.416102 1_555
Se5 Zn1 2.416102 1_555
