# generated using pymatgen
data_Hf6Zn16GeAu7
_symmetry_space_group_name_H-M   'P 1'
_cell_length_a   8.77889656
_cell_length_b   8.78594318
_cell_length_c   8.78594439
_cell_angle_alpha   60.00004861
_cell_angle_beta   59.97348029
_cell_angle_gamma   59.97347039
_symmetry_Int_Tables_number   1
_chemical_formula_structural   Hf6Zn16GeAu7
_chemical_formula_sum   'Hf6 Zn16 Ge1 Au7'
_cell_volume   478.99138244
_cell_formula_units_Z   1
loop_
 _symmetry_equiv_pos_site_id
 _symmetry_equiv_pos_as_xyz
  1  'x, y, z'
loop_
 _atom_site_type_symbol
 _atom_site_label
 _atom_site_symmetry_multiplicity
 _atom_site_fract_x
 _atom_site_fract_y
 _atom_site_fract_z
 _atom_site_occupancy
  Hf  Hf0  1  0.71413529  0.28672843  0.28673043  1
  Hf  Hf1  1  0.28615906  0.70999677  0.70999577  1
  Hf  Hf2  1  0.28616006  0.70999677  0.29384739  1
  Hf  Hf3  1  0.71413629  0.28672843  0.71240586  1
  Hf  Hf4  1  0.28616006  0.29384839  0.70999577  1
  Hf  Hf5  1  0.71413629  0.71240686  0.28672843  1
  Zn  Zn0  1  0.36984118  0.87671994  0.87671994  1
  Zn  Zn1  1  0.49762725  0.99808722  0.99808622  1
  Zn  Zn2  1  0.99979663  0.49955285  0.49955185  1
  Zn  Zn3  1  0.99979763  0.49955185  0.00109767  1
  Zn  Zn4  1  0.49762725  0.99808722  0.50619931  1
  Zn  Zn5  1  0.99979763  0.00109767  0.49955285  1
  Zn  Zn6  1  0.49762825  0.50619831  0.99808722  1
  Zn  Zn7  1  0.33849225  0.33721764  0.33721764  1
  Zn  Zn8  1  0.66005830  0.66237214  0.66237314  1
  Zn  Zn9  1  0.33849125  0.33721764  0.98707448  1
  Zn  Zn10  1  0.33849125  0.98707448  0.33721664  1
  Zn  Zn11  1  0.66006030  0.66237314  0.01519342  1
  Zn  Zn12  1  0.66005930  0.01519442  0.66237314  1
  Zn  Zn13  1  0.98791774  0.33736042  0.33736042  1
  Zn  Zn14  1  0.00917222  0.66360959  0.66360859  1
  Zn  Zn15  1  0.00133334  0.99955589  0.99955589  1
  Ge  Ge0  1  0.50552189  0.49816004  0.49815904  1
  Au  Au0  1  0.12535276  0.11898740  0.11898740  1
  Au  Au1  1  0.87658706  0.87816806  0.87816906  1
  Au  Au2  1  0.12535276  0.11898740  0.63667343  1
  Au  Au3  1  0.12535376  0.63667143  0.11898740  1
  Au  Au4  1  0.87658706  0.87816906  0.36707481  1
  Au  Au5  1  0.87658806  0.36707481  0.87816806  1
  Au  Au6  1  0.63157785  0.12280772  0.12280772  1
loop_
_geom_bond_atom_site_label_1
_geom_bond_atom_site_label_2
_geom_bond_distance
_geom_bond_site_symmetry_2
Hf0 Zn12 2.915667 1_555
Hf0 Zn11 2.915686 1_555
Hf0 Zn13 2.917289 1_555
Hf0 Zn7 2.921872 1_555
Hf0 Zn5 3.128133 1_555
Hf0 Zn3 3.128140 1_555
Hf0 Zn4 3.166715 1_545
Hf0 Zn6 3.166722 1_554
Hf1 Zn14 2.897380 1_555
Hf1 Zn10 2.916268 1_555
Hf1 Zn9 2.916271 1_555
Hf1 Zn8 2.924118 1_555
Hf1 Zn0 3.021717 1_555
Hf1 Zn5 3.125376 1_465
Hf1 Zn3 3.125388 1_456
Hf1 Zn4 3.146913 1_555
Hf1 Zn6 3.146924 1_555
Hf2 Zn14 2.897386 1_555
Hf2 Zn10 2.916260 1_555
Hf2 Zn7 2.916263 1_555
Hf2 Zn11 2.924131 1_555
Hf2 Zn0 3.021706 1_554
Hf2 Zn5 3.125387 1_465
Hf2 Zn2 3.125395 1_455
Hf2 Zn1 3.146908 1_554
Hf2 Zn6 3.146910 1_554
Hf3 Zn8 2.915668 1_555
Hf3 Zn12 2.915670 1_555
Hf3 Zn13 2.917294 1_555
Hf3 Zn9 2.921890 1_555
Hf3 Zn5 3.128126 1_555
Hf3 Zn2 3.128131 1_555
Hf3 Zn1 3.166721 1_545
Hf3 Zn6 3.166728 1_555
Hf4 Zn14 2.897385 1_555
Hf4 Zn7 2.916258 1_555
Hf4 Zn9 2.916268 1_555
Hf4 Zn12 2.924125 1_555
Hf4 Zn0 3.021713 1_545
Hf4 Zn3 3.125383 1_456
Hf4 Zn2 3.125395 1_455
Hf4 Zn4 3.146906 1_545
Hf4 Zn1 3.146907 1_545
Hf5 Zn8 2.915671 1_555
Hf5 Zn11 2.915678 1_555
Hf5 Zn13 2.917298 1_555
Hf5 Zn10 2.921887 1_555
Hf5 Zn2 3.128124 1_555
Hf5 Zn3 3.128137 1_555
Hf5 Zn4 3.166726 1_555
Hf5 Zn1 3.166727 1_554
Zn0 Zn15 2.640382 1_555
Zn0 Zn1 2.657813 1_555
Zn0 Zn4 2.657822 1_555
Zn0 Zn6 2.657829 1_555
Zn0 Zn12 2.743554 1_565
Zn0 Zn11 2.743556 1_556
Zn0 Zn8 2.743561 1_555
Zn1 Zn12 2.513501 1_565
Zn1 Zn11 2.513508 1_556
Zn1 Zn10 2.553437 1_556
Zn1 Zn9 2.553439 1_565
Zn2 Zn7 2.540709 1_655
Zn2 Zn8 2.548467 1_555
Zn3 Zn9 2.540700 1_654
Zn4 Zn8 2.513510 1_555
Zn4 Zn7 2.553435 1_565
Zn6 Zn8 2.513503 1_555
Zn6 Zn9 2.553435 1_555
Zn6 Zn7 2.553436 1_556
Zn10 Zn5 2.540701 1_465
Zn10 Zn4 2.553443 1_555
Zn11 Zn6 2.513501 1_554
Zn11 Zn3 2.548464 1_555
Zn12 Zn4 2.513499 1_545
Zn12 Zn5 2.548469 1_555
Zn13 Zn5 2.529876 1_555
Zn13 Zn3 2.529876 1_555
Zn13 Zn2 2.529876 1_555
Zn14 Zn5 2.545007 1_465
Zn14 Zn2 2.545011 1_455
Zn14 Zn3 2.545015 1_456
Ge0 Hf0 2.626153 1_555
Ge0 Hf3 2.626160 1_555
Ge0 Hf5 2.626160 1_555
Ge0 Hf1 2.631813 1_555
Ge0 Hf2 2.631814 1_555
Ge0 Hf4 2.631814 1_555
Au0 Zn15 2.602945 1_544
Au0 Zn1 2.667812 1_544
Au0 Zn3 2.731021 1_455
Au0 Zn5 2.731029 1_455
Au0 Zn10 2.778224 1_545
Au0 Zn9 2.778232 1_554
Au0 Zn13 2.804550 1_455
Au0 Hf2 2.972987 1_545
Au0 Hf4 2.972995 1_554
Au0 Hf0 2.983135 1_455
Au0 Zn0 3.009056 1_544
Au1 Zn15 2.636171 1_655
Au1 Zn3 2.716151 1_556
Au1 Zn5 2.716152 1_565
Au1 Zn1 2.717018 1_555
Au1 Zn14 2.761123 1_655
Au1 Zn11 2.773334 1_556
Au1 Zn12 2.773344 1_565
Au1 Hf5 2.961001 1_556
Au1 Hf3 2.961009 1_565
Au1 Hf1 2.973867 1_655
Au2 Zn15 2.602947 1_545
Au2 Zn4 2.667812 1_545
Au2 Zn5 2.731026 1_455
Au2 Zn2 2.731029 1_455
Au2 Zn7 2.778238 1_555
Au2 Zn10 2.778239 1_545
Au2 Zn13 2.804565 1_455
Au2 Hf4 2.972986 1_555
Au2 Hf1 2.972988 1_545
Au2 Hf3 2.983129 1_455
Au2 Zn0 3.009057 1_545
Au3 Zn15 2.602961 1_554
Au3 Zn6 2.667812 1_554
Au3 Zn2 2.731022 1_455
Au3 Zn3 2.731026 1_455
Au3 Zn9 2.778217 1_554
Au3 Zn7 2.778228 1_555
Au3 Zn13 2.804556 1_455
Au3 Hf2 2.972990 1_555
Au3 Hf1 2.972992 1_554
Au3 Hf5 2.983133 1_455
Au3 Zn0 3.009063 1_554
Au4 Zn15 2.636159 1_654
Au4 Zn2 2.716151 1_555
Au4 Zn5 2.716157 1_565
Au4 Zn4 2.717018 1_555
Au4 Zn14 2.761125 1_655
Au4 Zn12 2.773346 1_565
Au4 Zn8 2.773357 1_555
Au4 Hf5 2.960999 1_555
Au4 Hf0 2.961003 1_565
Au4 Hf2 2.973874 1_655
Au5 Zn15 2.636159 1_645
Au5 Zn3 2.716149 1_556
Au5 Zn2 2.716152 1_555
Au5 Zn6 2.717018 1_555
Au5 Zn14 2.761127 1_655
Au5 Zn11 2.773346 1_556
Au5 Zn8 2.773350 1_555
Au5 Hf3 2.961007 1_555
Au5 Hf0 2.961024 1_556
Au5 Hf4 2.973868 1_655
Au6 Zn15 2.649321 1_644
Au6 Zn6 2.750322 1_554
Au6 Zn4 2.750330 1_545
Au6 Zn1 2.750335 1_544
Au6 Zn7 2.750371 1_555
Au6 Zn9 2.750373 1_554
Au6 Zn10 2.750373 1_545
Au6 Hf0 2.972736 1_555
Au6 Hf5 2.972737 1_545
Au6 Hf3 2.972745 1_554
