# generated using pymatgen
data_Ba6Mn4CdO15
_symmetry_space_group_name_H-M   'P 1'
_cell_length_a   7.27866347
_cell_length_b   7.27865091
_cell_length_c   7.27865827
_cell_angle_alpha   87.63426512
_cell_angle_beta   87.63456337
_cell_angle_gamma   87.63431952
_symmetry_Int_Tables_number   1
_chemical_formula_structural   Ba6Mn4CdO15
_chemical_formula_sum   'Ba6 Mn4 Cd1 O15'
_cell_volume   384.65540449
_cell_formula_units_Z   1
loop_
 _symmetry_equiv_pos_site_id
 _symmetry_equiv_pos_as_xyz
  1  'x, y, z'
loop_
 _atom_site_type_symbol
 _atom_site_label
 _atom_site_symmetry_multiplicity
 _atom_site_fract_x
 _atom_site_fract_y
 _atom_site_fract_z
 _atom_site_occupancy
  Ba  Ba0  1  0.33216423  0.66783596  0.99999774  1
  Ba  Ba1  1  0.99999774  0.33216623  0.66783296  1
  Ba  Ba2  1  0.66783596  0.99999874  0.33216223  1
  Ba  Ba3  1  0.14531897  0.85468166  0.50000077  1
  Ba  Ba4  1  0.49999777  0.14531897  0.85468066  1
  Ba  Ba5  1  0.85468266  0.49999877  0.14531697  1
  Mn  Mn0  1  0.28962349  0.28962249  0.28962549  1
  Mn  Mn1  1  0.71037633  0.71037833  0.71037633  1
  Mn  Mn2  1  0.09494793  0.09494393  0.09494593  1
  Mn  Mn3  1  0.90505428  0.90505528  0.90505428  1
  Cd  Cd0  1  0.50000196  0.49999896  0.49999996  1
  O  O0  1  0.14466613  0.99999777  0.85533634  1
  O  O1  1  0.85533734  0.14466613  0.99999977  1
  O  O2  1  0.00000177  0.85533234  0.14466313  1
  O  O3  1  0.03225852  0.19054848  0.32778354  1
  O  O4  1  0.32778454  0.03225852  0.19054848  1
  O  O5  1  0.19055048  0.32778654  0.03225952  1
  O  O6  1  0.80944919  0.96774236  0.67221513  1
  O  O7  1  0.67221613  0.80945419  0.96774136  1
  O  O8  1  0.96773836  0.67221513  0.80945119  1
  O  O9  1  0.35975619  0.21588062  0.52256884  1
  O  O10  1  0.52256984  0.35975619  0.21588562  1
  O  O11  1  0.21588262  0.52256784  0.35975919  1
  O  O12  1  0.78411981  0.64024249  0.47743126  1
  O  O13  1  0.47743126  0.78411781  0.64024149  1
  O  O14  1  0.64024049  0.47743526  0.78411981  1
loop_
_geom_bond_atom_site_label_1
_geom_bond_atom_site_label_2
_geom_bond_distance
_geom_bond_site_symmetry_2
Ba0 O5 2.717790 1_556
Ba0 O7 2.717823 1_555
Ba0 O13 2.890237 1_555
Ba0 O11 2.890272 1_556
Ba0 O0 2.907315 1_555
Ba0 O2 2.907332 1_556
Ba0 O14 3.008365 1_555
Ba0 O10 3.008425 1_556
Ba0 O4 3.041960 1_566
Ba0 O8 3.041965 1_455
Ba1 O8 2.717800 1_555
Ba1 O3 2.717805 1_655
Ba1 O9 2.890254 1_655
Ba1 O14 2.890260 1_555
Ba1 O1 2.907354 1_555
Ba1 O0 2.907388 1_645
Ba1 O12 3.008357 1_555
Ba1 O11 3.008379 1_655
Ba1 O6 3.041960 1_545
Ba1 O5 3.041990 1_656
Ba2 O4 2.717802 1_565
Ba2 O6 2.717809 1_555
Ba2 O10 2.890225 1_565
Ba2 O12 2.890239 1_555
Ba2 O1 2.907353 1_564
Ba2 O2 2.907365 1_655
Ba2 O13 3.008401 1_555
Ba2 O9 3.008416 1_565
Ba2 O7 3.041929 1_554
Ba2 O3 3.041960 1_665
Ba3 O13 2.684616 1_555
Ba3 O11 2.684630 1_555
Ba3 O3 2.809080 1_565
Ba3 O6 2.809101 1_455
Ba3 O0 2.834160 1_555
Ba3 O2 2.834174 1_555
Ba3 O4 2.856958 1_565
Ba3 O8 2.856962 1_455
Ba3 O9 3.125790 1_565
Ba3 O12 3.125802 1_455
Ba4 O9 2.684611 1_555
Ba4 O14 2.684646 1_555
Ba4 O7 2.809073 1_545
Ba4 O4 2.809083 1_556
Ba4 O0 2.834149 1_545
Ba4 O1 2.834194 1_555
Ba4 O5 2.856945 1_556
Ba4 O6 2.856954 1_545
Ba4 O13 3.125811 1_545
Ba4 O10 3.125832 1_556
Ba5 O10 2.684635 1_555
Ba5 O12 2.684642 1_555
Ba5 O8 2.809068 1_554
Ba5 O5 2.809074 1_655
Ba5 O1 2.834141 1_554
Ba5 O2 2.834153 1_655
Ba5 O3 2.856939 1_655
Ba5 O7 2.856966 1_554
Ba5 O14 3.125791 1_554
Ba5 O11 3.125814 1_655
Mn0 O9 1.843133 1_555
Mn0 O11 1.843149 1_555
Mn0 O10 1.843157 1_555
Mn0 O3 2.039203 1_555
Mn0 O4 2.039204 1_555
Mn0 O5 2.039206 1_555
Mn1 O14 1.843142 1_555
Mn1 O13 1.843146 1_555
Mn1 O12 1.843159 1_555
Mn1 O8 2.039185 1_555
Mn1 O6 2.039192 1_555
Mn1 O7 2.039210 1_555
Mn2 O4 1.889931 1_555
Mn2 O3 1.889952 1_555
Mn2 O5 1.889972 1_555
Mn2 O0 1.917543 1_544
Mn2 O1 1.917550 1_454
Mn2 O2 1.917553 1_545
Mn3 O7 1.889943 1_555
Mn3 O8 1.889955 1_555
Mn3 O6 1.889956 1_555
Mn3 O2 1.917542 1_656
Mn3 O1 1.917546 1_565
Mn3 O0 1.917548 1_655
Cd0 O10 2.340484 1_555
Cd0 O14 2.340500 1_555
Cd0 O11 2.340506 1_555
Cd0 O13 2.340508 1_555
Cd0 O12 2.340510 1_555
Cd0 O9 2.340518 1_555
