# generated using pymatgen
data_Sr2Bi2Te3O2
_symmetry_space_group_name_H-M   'P 1'
_cell_length_a   4.29674918
_cell_length_b   9.74069828
_cell_length_c   12.50523764
_cell_angle_alpha   100.01788909
_cell_angle_beta   90.00000000
_cell_angle_gamma   90.00000000
_symmetry_Int_Tables_number   1
_chemical_formula_structural   Sr2Bi2Te3O2
_chemical_formula_sum   'Sr4 Bi4 Te6 O4'
_cell_volume   515.40611904
_cell_formula_units_Z   2
loop_
 _symmetry_equiv_pos_site_id
 _symmetry_equiv_pos_as_xyz
  1  'x, y, z'
loop_
 _atom_site_type_symbol
 _atom_site_label
 _atom_site_symmetry_multiplicity
 _atom_site_fract_x
 _atom_site_fract_y
 _atom_site_fract_z
 _atom_site_occupancy
  Sr  Sr0  1  0.50157361  0.71201267  0.62254768  1
  Sr  Sr1  1  0.00157361  0.78798733  0.87745232  1
  Sr  Sr2  1  0.49842639  0.28798733  0.37745232  1
  Sr  Sr3  1  0.99842639  0.21201267  0.12254768  1
  Bi  Bi0  1  0.50073560  0.45149078  0.81174049  1
  Bi  Bi1  1  0.00073560  0.04850922  0.68825951  1
  Bi  Bi2  1  0.49926440  0.54850922  0.18825951  1
  Bi  Bi3  1  0.99926440  0.95149078  0.31174049  1
  Te  Te0  1  0.50000000  0.00000000  0.50000000  1
  Te  Te1  1  0.00000000  0.50000000  0.00000000  1
  Te  Te2  1  0.50024233  0.09324660  0.86837689  1
  Te  Te3  1  0.00024233  0.40675340  0.63162311  1
  Te  Te4  1  0.49975767  0.90675340  0.13162311  1
  Te  Te5  1  0.99975767  0.59324660  0.36837689  1
  O  O0  1  0.49854733  0.32908857  0.18793611  1
  O  O1  1  0.99854733  0.17091143  0.31206389  1
  O  O2  1  0.50145267  0.67091143  0.81206389  1
  O  O3  1  0.00145267  0.82908857  0.68793611  1
loop_
_geom_bond_atom_site_label_1
_geom_bond_atom_site_label_2
_geom_bond_distance
_geom_bond_site_symmetry_2
Sr0 Te0 3.422477 1_565
Sr0 Te3 3.682742 1_655
Sr0 Te3 3.689410 1_555
Sr0 Te5 3.839758 1_555
Sr0 Te5 3.848479 1_455
Sr1 Te1 3.422477 1_556
Sr1 Te2 3.682742 1_565
Sr1 Te2 3.689410 1_465
Sr1 Te4 3.839758 1_556
Sr1 Te4 3.848479 1_456
Sr2 Te0 3.422477 1_555
Sr2 Te5 3.682742 1_455
Sr2 Te5 3.689410 1_555
Sr2 Te3 3.839758 1_555
Sr2 Te3 3.848479 1_655
Sr3 Te1 3.422477 1_655
Sr3 Te4 3.682742 1_545
Sr3 Te4 3.689410 1_645
Sr3 Te2 3.839758 1_554
Sr3 Te2 3.848479 1_654
Bi0 O2 2.136613 1_555
Bi0 Te3 3.086774 1_655
Bi0 Te3 3.089723 1_555
Bi0 Te1 3.159207 1_656
Bi0 Te1 3.163503 1_556
Bi1 O3 2.136613 1_545
Bi1 Te2 3.086774 1_555
Bi1 Te2 3.089723 1_455
Bi1 Te0 3.159207 1_555
Bi1 Te0 3.163503 1_455
Bi2 O0 2.136613 1_555
Bi2 Te5 3.086774 1_455
Bi2 Te5 3.089723 1_555
Bi2 Te1 3.159207 1_555
Bi2 Te1 3.163503 1_655
Bi3 O1 2.136613 1_565
Bi3 Te4 3.086774 1_555
Bi3 Te4 3.089723 1_655
Bi3 Te0 3.159207 1_565
Bi3 Te0 3.163503 1_665
O0 Sr2 2.471240 1_555
O0 Sr3 2.501599 1_555
O0 Sr3 2.502491 1_455
O1 Sr3 2.471240 1_555
O1 Sr2 2.501599 1_655
O1 Sr2 2.502491 1_555
O2 Sr0 2.471240 1_555
O2 Sr1 2.501599 1_555
O2 Sr1 2.502491 1_655
O3 Sr1 2.471240 1_555
O3 Sr0 2.501599 1_455
O3 Sr0 2.502491 1_555
