# generated using pymatgen
data_Ti8Al15Co6Pd
_symmetry_space_group_name_H-M   'P 1'
_cell_length_a   8.39523125
_cell_length_b   8.38625217
_cell_length_c   8.40418719
_cell_angle_alpha   120.04732822
_cell_angle_beta   119.80549945
_cell_angle_gamma   90.00307446
_symmetry_Int_Tables_number   1
_chemical_formula_structural   Ti8Al15Co6Pd
_chemical_formula_sum   'Ti8 Al15 Co6 Pd1'
_cell_volume   419.30597424
_cell_formula_units_Z   1
loop_
 _symmetry_equiv_pos_site_id
 _symmetry_equiv_pos_as_xyz
  1  'x, y, z'
loop_
 _atom_site_type_symbol
 _atom_site_label
 _atom_site_symmetry_multiplicity
 _atom_site_fract_x
 _atom_site_fract_y
 _atom_site_fract_z
 _atom_site_occupancy
  Ti  Ti0  1  0.79205753  0.28872857  0.07522462  1
  Ti  Ti1  1  0.21682694  0.28974344  0.49690588  1
  Ti  Ti2  1  0.21258755  0.70803896  0.50011885  1
  Ti  Ti3  1  0.21415562  0.71712224  0.92586968  1
  Ti  Ti4  1  0.78861388  0.71560745  0.50301358  1
  Ti  Ti5  1  0.78179998  0.28544312  0.49978016  1
  Ti  Ti6  1  0.39058734  0.12525005  0.74922050  1
  Ti  Ti7  1  0.38058924  0.63916408  0.26081766  1
  Al  Al0  1  0.99719387  0.49715691  0.50051342  1
  Al  Al1  1  0.15813415  0.33965522  0.18159544  1
  Al  Al2  1  0.16158615  0.97381004  0.82422321  1
  Al  Al3  1  0.15757829  0.35192612  0.81778824  1
  Al  Al4  1  0.53078621  0.34279577  0.18886048  1
  Al  Al5  1  0.84175378  0.65709090  0.81614209  1
  Al  Al6  1  0.83742902  0.02811206  0.17669610  1
  Al  Al7  1  0.83663175  0.64841366  0.17513630  1
  Al  Al8  1  0.47572217  0.65793638  0.81757139  1
  Al  Al9  1  0.38081157  0.12065273  0.26106052  1
  Al  Al10  1  0.85839361  0.12356627  0.74637056  1
  Al  Al11  1  0.61232308  0.87628786  0.25241826  1
  Al  Al12  1  0.61996526  0.36127746  0.73932112  1
  Al  Al13  1  0.62070523  0.87749113  0.74004383  1
  Al  Al14  1  0.13934661  0.87716133  0.25312699  1
  Co  Co0  1  0.49799515  0.00079858  0.99612844  1
  Co  Co1  1  0.49745213  0.49617269  0.99961721  1
  Co  Co2  1  0.49771900  0.50076773  0.49723274  1
  Co  Co3  1  0.00394328  0.50129027  0.00390101  1
  Co  Co4  1  0.00034950  0.00018135  0.00017278  1
  Co  Co5  1  0.49810885  0.99854209  0.50124959  1
  Pd  Pd0  1  0.99884924  0.99981452  0.49987732  1
loop_
_geom_bond_atom_site_label_1
_geom_bond_atom_site_label_2
_geom_bond_distance
_geom_bond_site_symmetry_2
Ti0 Ti6 2.793541 1_554
Ti1 Ti6 2.895163 1_555
Ti2 Ti7 2.832696 1_555
Ti2 Ti6 2.900315 1_565
Ti3 Ti7 2.869981 1_556
Ti4 Ti7 2.837168 1_555
Al0 Ti5 2.529800 1_555
Al0 Ti2 2.531601 1_655
Al0 Ti0 2.533811 1_555
Al0 Ti4 2.534017 1_555
Al0 Ti3 2.534260 1_655
Al0 Ti1 2.535640 1_655
Al1 Co4 2.414372 1_555
Al1 Co3 2.418442 1_555
Al1 Co2 2.425324 1_555
Al1 Al10 2.684513 1_454
Al1 Ti1 2.693115 1_555
Al1 Al9 2.702122 1_555
Al1 Ti0 2.704257 1_455
Al1 Ti7 2.707153 1_555
Al1 Ti2 2.724068 1_555
Al2 Co4 2.393775 1_566
Al2 Co0 2.393949 1_565
Al2 Pd0 2.497514 1_455
Al2 Ti3 2.650524 1_555
Al2 Al9 2.671552 1_566
Al2 Ti4 2.742816 1_455
Al2 Ti2 2.765885 1_555
Al3 Co3 2.392233 1_556
Al3 Co1 2.398710 1_555
Al3 Pd0 2.488609 1_445
Al3 Ti3 2.686155 1_555
Al3 Ti7 2.694205 1_556
Al3 Ti5 2.744432 1_455
Al3 Ti1 2.777957 1_555
Al4 Co2 2.413631 1_555
Al4 Co0 2.414469 1_554
Al4 Co1 2.422493 1_554
Al4 Ti5 2.699013 1_555
Al4 Al9 2.704677 1_555
Al4 Ti7 2.717755 1_555
Al4 Ti4 2.735422 1_555
Al4 Ti0 2.752762 1_555
Al5 Co4 2.437089 1_666
Al5 Co3 2.445418 1_656
Al5 Co2 2.455495 1_555
Al5 Ti5 2.721646 1_555
Al5 Ti4 2.737023 1_555
Al5 Ti3 2.747185 1_655
Al6 Co4 2.407428 1_655
Al6 Co0 2.414254 1_554
Al6 Pd0 2.501259 1_545
Al6 Ti0 2.681947 1_555
Al6 Ti5 2.764160 1_555
Al6 Ti1 2.786822 1_655
Al7 Co3 2.407861 1_655
Al7 Co1 2.419126 1_554
Al7 Pd0 2.497596 1_555
Al7 Ti0 2.663625 1_555
Al7 Ti4 2.760866 1_555
Al7 Ti2 2.780998 1_655
Al8 Co0 2.440162 1_565
Al8 Co2 2.441306 1_555
Al8 Co1 2.452632 1_555
Al8 Ti1 2.713689 1_555
Al8 Ti3 2.726052 1_555
Al8 Ti2 2.727295 1_555
Al9 Co5 2.487414 1_545
Al9 Co2 2.606036 1_555
Al9 Co4 2.617148 1_555
Al9 Co0 2.621464 1_554
Al9 Ti1 2.780818 1_555
Al9 Ti5 2.788612 1_555
Al9 Ti3 2.807119 1_544
Al10 Co5 2.476714 1_545
Al10 Co3 2.591611 1_656
Al10 Co4 2.593065 1_656
Al10 Pd0 2.652240 1_545
Al10 Ti0 2.750199 1_556
Al10 Al2 2.766208 1_645
Al10 Al3 2.772411 1_655
Al10 Al12 2.825781 1_555
Al10 Al13 2.833282 1_545
Al10 Ti4 2.834172 1_545
Al10 Ti5 2.836181 1_555
Al10 Al11 2.941821 1_545
Al11 Co5 2.488002 1_555
Al11 Co1 2.605014 1_554
Al11 Co0 2.616883 1_564
Al11 Pd0 2.657339 1_555
Al11 Al8 2.675021 1_554
Al11 Al7 2.755586 1_555
Al11 Al6 2.757581 1_565
Al11 Ti3 2.774602 1_554
Al11 Al9 2.823860 1_565
Al11 Ti7 2.832124 1_555
Al11 Ti5 2.834680 1_565
Al11 Ti4 2.860979 1_555
Al12 Co5 2.484594 1_545
Al12 Co2 2.620863 1_555
Al12 Co1 2.623302 1_555
Al12 Co3 2.640789 1_656
Al12 Al7 2.658270 1_556
Al12 Al5 2.690443 1_555
Al12 Al8 2.691075 1_555
Al12 Ti5 2.782109 1_555
Al12 Ti1 2.808241 1_555
Al12 Ti6 2.820799 1_555
Al12 Ti0 2.844707 1_556
Al12 Al9 2.848383 1_555
Al13 Co5 2.470700 1_555
Al13 Co2 2.580757 1_555
Al13 Co0 2.595760 1_565
Al13 Co4 2.610853 1_666
Al13 Al6 2.663247 1_566
Al13 Al5 2.696937 1_555
Al13 Al8 2.699208 1_555
Al13 Ti4 2.807463 1_555
Al13 Ti6 2.836081 1_565
Al13 Ti2 2.843657 1_555
Al13 Ti0 2.853172 1_566
Al13 Ti7 2.854203 1_555
Al14 Co5 2.467054 1_555
Al14 Co3 2.576093 1_555
Al14 Co4 2.583749 1_565
Al14 Pd0 2.654292 1_455
Al14 Al5 2.688108 1_454
Al14 Al6 2.763293 1_465
Al14 Al7 2.766319 1_455
Al14 Ti3 2.789395 1_554
Al14 Al9 2.830606 1_565
Al14 Ti7 2.844133 1_555
Al14 Ti1 2.858026 1_565
Al14 Ti2 2.894478 1_555
Al14 Ti6 2.954805 1_565
Co0 Ti6 2.552849 1_555
Co0 Ti3 2.979989 1_545
Co0 Ti2 2.994446 1_545
Co0 Ti0 3.021187 1_556
Co0 Ti5 3.024347 1_556
Co1 Ti6 2.544986 1_555
Co1 Ti7 2.593128 1_556
Co1 Ti0 3.015378 1_556
Co1 Ti3 3.026413 1_555
Co1 Ti1 3.029379 1_555
Co1 Ti4 3.030237 1_556
Co2 Ti7 2.574657 1_555
Co2 Ti1 2.946352 1_555
Co2 Ti2 2.961078 1_555
Co2 Ti5 2.989572 1_555
Co2 Ti4 3.001067 1_555
Co3 Ti7 2.590305 1_555
Co3 Ti0 2.971679 1_455
Co3 Ti2 2.993780 1_555
Co3 Ti3 3.026475 1_554
Co3 Ti5 3.028087 1_454
Co4 Ti3 2.979433 1_544
Co4 Ti0 2.979877 1_455
Co4 Ti1 2.988753 1_555
Co4 Ti4 2.990527 1_444
Co5 Ti6 2.437114 1_565
Co5 Ti7 2.461469 1_555
Pd0 Ti6 2.693438 1_665
Pd0 Ti4 2.984173 1_555
Pd0 Ti5 3.009818 1_565
Pd0 Ti2 3.034629 1_655
Pd0 Ti1 3.060551 1_665
