# generated using pymatgen
data_Bi4Rh
_symmetry_space_group_name_H-M   'P 1'
_cell_length_a   13.11963599
_cell_length_b   13.11963540
_cell_length_c   13.11963591
_cell_angle_alpha   109.47122302
_cell_angle_beta   109.47122213
_cell_angle_gamma   109.47121316
_symmetry_Int_Tables_number   1
_chemical_formula_structural   Bi4Rh
_chemical_formula_sum   'Bi48 Rh12'
_cell_volume   1738.37498031
_cell_formula_units_Z   12
loop_
 _symmetry_equiv_pos_site_id
 _symmetry_equiv_pos_as_xyz
  1  'x, y, z'
loop_
 _atom_site_type_symbol
 _atom_site_label
 _atom_site_symmetry_multiplicity
 _atom_site_fract_x
 _atom_site_fract_y
 _atom_site_fract_z
 _atom_site_occupancy
  Bi  Bi0  1  0.58644317  0.91163122  0.37020975  1
  Bi  Bi1  1  0.45857854  0.58836878  0.17481295  1
  Bi  Bi2  1  0.17481295  0.45857854  0.58836878  1
  Bi  Bi3  1  0.21623441  0.12979025  0.04142146  1
  Bi  Bi4  1  0.32518705  0.91163122  0.04142146  1
  Bi  Bi5  1  0.28376559  0.32518705  0.91355683  1
  Bi  Bi6  1  0.04142146  0.32518705  0.91163122  1
  Bi  Bi7  1  0.91163122  0.37020975  0.58644317  1
  Bi  Bi8  1  0.91163122  0.04142146  0.32518705  1
  Bi  Bi9  1  0.37020975  0.28376559  0.45857854  1
  Bi  Bi10  1  0.58644317  0.17481295  0.21623441  1
  Bi  Bi11  1  0.58836878  0.91355683  0.12979025  1
  Bi  Bi12  1  0.41163122  0.82518705  0.54142146  1
  Bi  Bi13  1  0.82518705  0.78376559  0.41355683  1
  Bi  Bi14  1  0.87020975  0.41163122  0.08644317  1
  Bi  Bi15  1  0.08644317  0.87020975  0.41163122  1
  Bi  Bi16  1  0.54142146  0.62979025  0.71623441  1
  Bi  Bi17  1  0.71623441  0.54142146  0.62979025  1
  Bi  Bi18  1  0.78376559  0.41355683  0.82518705  1
  Bi  Bi19  1  0.87020975  0.95857854  0.78376559  1
  Bi  Bi20  1  0.08644317  0.71623441  0.67481295  1
  Bi  Bi21  1  0.62979025  0.41355683  0.08836878  1
  Bi  Bi22  1  0.95857854  0.78376559  0.87020975  1
  Bi  Bi23  1  0.67481295  0.08644317  0.71623441  1
  Bi  Bi24  1  0.41355683  0.08836878  0.62979025  1
  Bi  Bi25  1  0.54142146  0.41163122  0.82518705  1
  Bi  Bi26  1  0.82518705  0.54142146  0.41163122  1
  Bi  Bi27  1  0.78376559  0.87020975  0.95857854  1
  Bi  Bi28  1  0.67481295  0.08836878  0.95857854  1
  Bi  Bi29  1  0.71623441  0.67481295  0.08644317  1
  Bi  Bi30  1  0.95857854  0.67481295  0.08836878  1
  Bi  Bi31  1  0.08836878  0.62979025  0.41355683  1
  Bi  Bi32  1  0.08836878  0.95857854  0.67481295  1
  Bi  Bi33  1  0.62979025  0.71623441  0.54142146  1
  Bi  Bi34  1  0.41355683  0.82518705  0.78376559  1
  Bi  Bi35  1  0.41163122  0.08644317  0.87020975  1
  Bi  Bi36  1  0.32518705  0.91355683  0.28376559  1
  Bi  Bi37  1  0.04142146  0.21623441  0.12979025  1
  Bi  Bi38  1  0.37020975  0.58644317  0.91163122  1
  Bi  Bi39  1  0.91355683  0.28376559  0.32518705  1
  Bi  Bi40  1  0.12979025  0.04142146  0.21623441  1
  Bi  Bi41  1  0.21623441  0.58644317  0.17481295  1
  Bi  Bi42  1  0.28376559  0.45857854  0.37020975  1
  Bi  Bi43  1  0.45857854  0.37020975  0.28376559  1
  Bi  Bi44  1  0.91355683  0.12979025  0.58836878  1
  Bi  Bi45  1  0.12979025  0.58836878  0.91355683  1
  Bi  Bi46  1  0.17481295  0.21623441  0.58644317  1
  Bi  Bi47  1  0.58836878  0.17481295  0.45857854  1
  Rh  Rh0  1  0.25000000  0.87500000  0.62500000  1
  Rh  Rh1  1  0.87500000  0.62500000  0.25000000  1
  Rh  Rh2  1  0.62500000  0.87500000  0.75000000  1
  Rh  Rh3  1  0.87500000  0.75000000  0.62500000  1
  Rh  Rh4  1  0.62500000  0.25000000  0.87500000  1
  Rh  Rh5  1  0.75000000  0.62500000  0.87500000  1
  Rh  Rh6  1  0.75000000  0.12500000  0.37500000  1
  Rh  Rh7  1  0.12500000  0.37500000  0.75000000  1
  Rh  Rh8  1  0.37500000  0.12500000  0.25000000  1
  Rh  Rh9  1  0.12500000  0.25000000  0.37500000  1
  Rh  Rh10  1  0.37500000  0.75000000  0.12500000  1
  Rh  Rh11  1  0.25000000  0.37500000  0.12500000  1
loop_
_geom_bond_atom_site_label_1
_geom_bond_atom_site_label_2
_geom_bond_distance
_geom_bond_site_symmetry_2
Bi0 Rh10 2.849987 1_555
Bi0 Rh6 2.869305 1_565
Bi1 Rh10 2.849992 1_555
Bi1 Rh11 2.869299 1_555
Bi2 Rh7 2.849992 1_555
Bi2 Rh9 2.869299 1_555
Bi3 Rh11 2.849991 1_555
Bi3 Rh8 2.869299 1_555
Bi4 Rh10 2.849992 1_555
Bi4 Rh8 2.869299 1_565
Bi5 Rh11 2.849979 1_556
Bi5 Rh7 2.869307 1_555
Bi6 Rh7 2.849992 1_555
Bi6 Rh11 2.869299 1_556
Bi7 Rh6 2.849987 1_555
Bi7 Rh7 2.869304 1_655
Bi8 Rh6 2.849992 1_555
Bi8 Rh9 2.869299 1_655
Bi9 Rh9 2.849992 1_555
Bi9 Rh8 2.869299 1_555
Bi10 Rh8 2.849979 1_555
Bi10 Rh6 2.869307 1_555
Bi11 Rh6 2.849987 1_565
Bi11 Rh10 2.869305 1_555
Bi12 Rh0 2.849992 1_555
Bi12 Rh2 2.869299 1_555
Bi13 Rh3 2.849979 1_555
Bi13 Rh1 2.869307 1_555
Bi14 Rh4 2.849987 1_554
Bi14 Rh1 2.869304 1_555
Bi15 Rh1 2.849987 1_455
Bi15 Rh0 2.869304 1_555
Bi16 Rh2 2.849992 1_555
Bi16 Rh5 2.869299 1_555
Bi17 Rh5 2.849992 1_555
Bi17 Rh3 2.869299 1_555
Bi18 Rh5 2.849979 1_555
Bi18 Rh4 2.869307 1_555
Bi19 Rh2 2.849992 1_555
Bi19 Rh3 2.869299 1_555
Bi20 Rh3 2.849979 1_455
Bi20 Rh0 2.869307 1_555
Bi21 Rh1 2.849987 1_555
Bi21 Rh4 2.869304 1_554
Bi22 Rh3 2.849992 1_555
Bi22 Rh5 2.869299 1_555
Bi23 Rh2 2.849979 1_545
Bi23 Rh4 2.869307 1_555
Bi24 Rh4 2.849987 1_555
Bi24 Rh0 2.869305 1_545
Bi25 Rh4 2.849992 1_555
Bi25 Rh5 2.869299 1_555
Bi26 Rh1 2.849992 1_555
Bi26 Rh3 2.869299 1_555
Bi27 Rh5 2.849991 1_555
Bi27 Rh2 2.869299 1_555
Bi28 Rh4 2.849992 1_555
Bi28 Rh2 2.869299 1_545
Bi29 Rh5 2.849979 1_554
Bi29 Rh1 2.869307 1_555
Bi30 Rh1 2.849992 1_555
Bi30 Rh5 2.869299 1_554
Bi31 Rh0 2.849987 1_555
Bi31 Rh1 2.869304 1_455
Bi32 Rh0 2.849992 1_555
Bi32 Rh3 2.869299 1_455
Bi33 Rh3 2.849992 1_555
Bi33 Rh2 2.869299 1_555
Bi34 Rh2 2.849979 1_555
Bi34 Rh0 2.869307 1_555
Bi35 Rh0 2.849987 1_545
Bi35 Rh4 2.869305 1_555
Bi36 Rh8 2.849979 1_565
Bi36 Rh10 2.869307 1_555
Bi37 Rh9 2.849992 1_555
Bi37 Rh11 2.869299 1_555
Bi38 Rh7 2.849987 1_555
Bi38 Rh10 2.869304 1_556
Bi39 Rh9 2.849979 1_655
Bi39 Rh6 2.869307 1_555
Bi40 Rh8 2.849992 1_555
Bi40 Rh9 2.869299 1_555
Bi41 Rh11 2.849979 1_555
Bi41 Rh10 2.869307 1_555
Bi42 Rh11 2.849992 1_555
Bi42 Rh9 2.869299 1_555
Bi43 Rh8 2.849992 1_555
Bi43 Rh11 2.869299 1_555
Bi44 Rh7 2.849987 1_655
Bi44 Rh6 2.869304 1_555
Bi45 Rh10 2.849987 1_556
Bi45 Rh7 2.869304 1_555
Bi46 Rh9 2.849979 1_555
Bi46 Rh7 2.869307 1_555
Bi47 Rh6 2.849992 1_555
Bi47 Rh8 2.869299 1_555
