# generated using pymatgen
data_LuNb2(Ni10B3)2
_symmetry_space_group_name_H-M   'P 1'
_cell_length_a   7.46768646
_cell_length_b   7.46768630
_cell_length_c   7.46768580
_cell_angle_alpha   60.00000221
_cell_angle_beta   60.00000293
_cell_angle_gamma   59.99999875
_symmetry_Int_Tables_number   1
_chemical_formula_structural   LuNb2(Ni10B3)2
_chemical_formula_sum   'Lu1 Nb2 Ni20 B6'
_cell_volume   294.47144916
_cell_formula_units_Z   1
loop_
 _symmetry_equiv_pos_site_id
 _symmetry_equiv_pos_as_xyz
  1  'x, y, z'
loop_
 _atom_site_type_symbol
 _atom_site_label
 _atom_site_symmetry_multiplicity
 _atom_site_fract_x
 _atom_site_fract_y
 _atom_site_fract_z
 _atom_site_occupancy
  Lu  Lu0  1  0.25000000  0.25000000  0.25000000  1
  Nb  Nb0  1  0.75000000  0.75000000  0.75000000  1
  Nb  Nb1  1  0.00000000  0.00000000  0.00000000  1
  Ni  Ni0  1  0.38933936  0.38933936  0.38933936  1
  Ni  Ni1  1  0.61712133  0.61712133  0.61712133  1
  Ni  Ni2  1  0.38933936  0.38933936  0.83198293  1
  Ni  Ni3  1  0.38933936  0.83198293  0.38933936  1
  Ni  Ni4  1  0.61712133  0.61712133  0.14863701  1
  Ni  Ni5  1  0.61712133  0.14863701  0.61712133  1
  Ni  Ni6  1  0.83198293  0.38933936  0.38933936  1
  Ni  Ni7  1  0.14863701  0.61712133  0.61712133  1
  Ni  Ni8  1  0.34531015  0.99790266  0.99790266  1
  Ni  Ni9  1  0.65888352  0.99790266  0.99790266  1
  Ni  Ni10  1  0.99790266  0.34531015  0.65888352  1
  Ni  Ni11  1  0.99790266  0.65888352  0.34531015  1
  Ni  Ni12  1  0.99790266  0.34531015  0.99790266  1
  Ni  Ni13  1  0.65888352  0.99790266  0.34531015  1
  Ni  Ni14  1  0.99790266  0.65888352  0.99790266  1
  Ni  Ni15  1  0.34531015  0.99790266  0.65888352  1
  Ni  Ni16  1  0.99790266  0.99790266  0.34531015  1
  Ni  Ni17  1  0.99790266  0.99790266  0.65888352  1
  Ni  Ni18  1  0.65888352  0.34531015  0.99790266  1
  Ni  Ni19  1  0.34531015  0.65888352  0.99790266  1
  B  B0  1  0.73207737  0.26792263  0.26792263  1
  B  B1  1  0.26792263  0.73207737  0.73207737  1
  B  B2  1  0.26792263  0.73207737  0.26792263  1
  B  B3  1  0.73207737  0.26792263  0.73207737  1
  B  B4  1  0.26792263  0.26792263  0.73207737  1
  B  B5  1  0.73207737  0.73207737  0.26792263  1
loop_
_geom_bond_atom_site_label_1
_geom_bond_atom_site_label_2
_geom_bond_distance
_geom_bond_site_symmetry_2
Lu0 Ni2 2.548792 1_554
Lu0 Ni3 2.548792 1_545
Lu0 Ni6 2.548792 1_455
Lu0 Ni0 2.548798 1_555
Lu0 Ni15 2.908447 1_545
Lu0 Ni10 2.908447 1_455
Lu0 Ni11 2.908448 1_455
Lu0 Ni13 2.908448 1_545
Lu0 Ni19 2.908448 1_554
Lu0 Ni18 2.908448 1_554
Lu0 Ni14 2.908451 1_454
Lu0 Ni9 2.908451 1_544
Lu0 Ni17 2.908451 1_445
Lu0 Ni8 2.908454 1_544
Lu0 Ni12 2.908454 1_454
Lu0 Ni16 2.908454 1_445
Nb0 Ni1 2.430619 1_555
Nb0 Ni4 2.430625 1_556
Nb0 Ni5 2.430626 1_565
Nb0 Ni7 2.430626 1_655
Nb1 Ni16 2.563101 1_445
Nb1 Ni12 2.563101 1_454
Nb1 Ni8 2.563101 1_544
Nb1 Ni18 2.563105 1_454
Nb1 Ni19 2.563105 1_544
Nb1 Ni11 2.563105 1_445
Nb1 Ni10 2.563105 1_454
Nb1 Ni13 2.563105 1_445
Nb1 Ni15 2.563105 1_544
Nb1 Ni17 2.563109 1_444
Nb1 Ni14 2.563109 1_444
Nb1 Ni9 2.563109 1_444
B0 Ni16 2.078379 1_545
B0 Ni12 2.078379 1_554
B0 Ni18 2.078383 1_554
B0 Ni13 2.078383 1_545
B0 Ni0 2.091848 1_555
B0 Ni6 2.091853 1_555
B0 Ni5 2.129265 1_555
B0 Ni4 2.129265 1_555
B1 Ni19 2.078376 1_555
B1 Ni15 2.078376 1_555
B1 Ni17 2.078381 1_455
B1 Ni14 2.078381 1_455
B1 Ni3 2.091847 1_555
B1 Ni2 2.091847 1_555
B1 Ni7 2.129259 1_555
B1 Ni1 2.129265 1_555
B2 Ni16 2.078379 1_455
B2 Ni8 2.078379 1_554
B2 Ni19 2.078383 1_554
B2 Ni11 2.078383 1_455
B2 Ni0 2.091848 1_555
B2 Ni3 2.091853 1_555
B2 Ni7 2.129265 1_555
B2 Ni4 2.129265 1_555
B3 Ni18 2.078376 1_555
B3 Ni10 2.078376 1_555
B3 Ni17 2.078381 1_545
B3 Ni9 2.078381 1_545
B3 Ni6 2.091847 1_555
B3 Ni2 2.091847 1_555
B3 Ni5 2.129259 1_555
B3 Ni1 2.129265 1_555
B4 Ni8 2.078379 1_545
B4 Ni12 2.078379 1_455
B4 Ni15 2.078383 1_545
B4 Ni10 2.078383 1_455
B4 Ni0 2.091847 1_555
B4 Ni2 2.091853 1_555
B4 Ni7 2.129265 1_555
B4 Ni5 2.129265 1_555
B5 Ni13 2.078376 1_555
B5 Ni11 2.078376 1_555
B5 Ni9 2.078381 1_554
B5 Ni14 2.078381 1_554
B5 Ni6 2.091847 1_555
B5 Ni3 2.091847 1_555
B5 Ni4 2.129259 1_555
B5 Ni1 2.129265 1_555
