# generated using pymatgen
data_RbCrTe3O8
_symmetry_space_group_name_H-M   'P 1'
_cell_length_a   5.53463523
_cell_length_b   7.51471414
_cell_length_c   10.83104234
_cell_angle_alpha   99.22381535
_cell_angle_beta   89.47242014
_cell_angle_gamma   108.52159713
_symmetry_Int_Tables_number   1
_chemical_formula_structural   RbCrTe3O8
_chemical_formula_sum   'Rb2 Cr2 Te6 O16'
_cell_volume   421.20122779
_cell_formula_units_Z   2
loop_
 _symmetry_equiv_pos_site_id
 _symmetry_equiv_pos_as_xyz
  1  'x, y, z'
loop_
 _atom_site_type_symbol
 _atom_site_label
 _atom_site_symmetry_multiplicity
 _atom_site_fract_x
 _atom_site_fract_y
 _atom_site_fract_z
 _atom_site_occupancy
  Rb  Rb0  1  0.83333181  0.11563991  0.16379862  1
  Rb  Rb1  1  0.16666819  0.88436009  0.83620138  1
  Cr  Cr0  1  0.50000000  0.50000000  0.00000000  1
  Cr  Cr1  1  0.00000000  0.50000000  0.50000000  1
  Te  Te0  1  0.22507744  0.98072156  0.41455620  1
  Te  Te1  1  0.77492256  0.01927844  0.58544380  1
  Te  Te2  1  0.05117936  0.65532313  0.14646892  1
  Te  Te3  1  0.94882064  0.34467687  0.85353108  1
  Te  Te4  1  0.52184522  0.53258764  0.33680935  1
  Te  Te5  1  0.47815478  0.46741236  0.66319065  1
  O  O0  1  0.15927774  0.72065284  0.41491575  1
  O  O1  1  0.84072226  0.27934716  0.58508425  1
  O  O2  1  0.23270011  0.91425337  0.22184400  1
  O  O3  1  0.76729989  0.08574663  0.77815600  1
  O  O4  1  0.88347809  0.97770863  0.39531311  1
  O  O5  1  0.11652191  0.02229137  0.60468689  1
  O  O6  1  0.26311432  0.65554009  0.00947399  1
  O  O7  1  0.73688568  0.34445991  0.99052601  1
  O  O8  1  0.79879109  0.72377203  0.07042124  1
  O  O9  1  0.20120891  0.27622797  0.92957876  1
  O  O10  1  0.40226098  0.43025568  0.16949816  1
  O  O11  1  0.59773902  0.56974432  0.83050184  1
  O  O12  1  0.24025718  0.37655025  0.41146306  1
  O  O13  1  0.75974282  0.62344975  0.58853694  1
  O  O14  1  0.73822989  0.38957077  0.35658949  1
  O  O15  1  0.26177011  0.61042923  0.64341051  1
loop_
_geom_bond_atom_site_label_1
_geom_bond_atom_site_label_2
_geom_bond_distance
_geom_bond_site_symmetry_2
Cr0 O8 1.997380 1_555
Cr0 O9 1.997380 1_554
Cr0 O6 2.007063 1_555
Cr0 O7 2.007063 1_554
Cr0 O10 2.011884 1_555
Cr0 O11 2.011884 1_554
Cr1 O1 1.980418 1_455
Cr1 O0 1.980418 1_555
Cr1 O13 2.005850 1_455
Cr1 O12 2.005850 1_555
Cr1 O15 2.016121 1_555
Cr1 O14 2.016121 1_455
O0 Te0 1.871451 1_555
O1 Te1 1.871451 1_555
O2 Te2 1.930233 1_555
O2 Te0 2.070149 1_555
O2 Rb0 3.166546 1_465
O2 Rb0 3.287348 1_565
O3 Te3 1.930233 1_555
O3 Te1 2.070149 1_555
O3 Rb1 3.166546 1_645
O3 Rb1 3.287348 1_545
O4 Te0 1.896569 1_655
O4 Te1 2.142326 1_565
O4 Rb0 2.909979 1_565
O5 Te1 1.896569 1_455
O5 Te0 2.142326 1_545
O5 Rb1 2.909979 1_545
O6 Te2 1.882832 1_555
O6 Rb1 2.898257 1_554
O7 Te3 1.882832 1_555
O7 Rb0 2.898257 1_556
O8 Te2 1.872910 1_655
O8 Rb0 2.902110 1_565
O8 Rb1 3.370864 1_654
O9 Te3 1.872910 1_455
O9 Rb1 2.902110 1_545
O9 Rb0 3.370864 1_456
O10 Te4 1.888199 1_555
O10 Rb0 3.276520 1_455
O11 Te5 1.888199 1_555
O11 Rb1 3.276520 1_655
O12 Te4 1.891385 1_555
O12 Rb0 3.425184 1_455
O13 Te5 1.891385 1_555
O13 Rb1 3.425184 1_655
O14 Te4 1.879225 1_555
O14 Rb0 2.857433 1_555
O15 Te5 1.879225 1_555
O15 Rb1 2.857433 1_555
