# generated using pymatgen
data_La2Mg17
_symmetry_space_group_name_H-M   'P 1'
_cell_length_a   10.31176899
_cell_length_b   10.31176899
_cell_length_c   10.15250546
_cell_angle_alpha   90.00000000
_cell_angle_beta   90.00000000
_cell_angle_gamma   119.99999675
_symmetry_Int_Tables_number   1
_chemical_formula_structural   La2Mg17
_chemical_formula_sum   'La4 Mg34'
_cell_volume   934.91091066
_cell_formula_units_Z   2
loop_
 _symmetry_equiv_pos_site_id
 _symmetry_equiv_pos_as_xyz
  1  'x, y, z'
loop_
 _atom_site_type_symbol
 _atom_site_label
 _atom_site_symmetry_multiplicity
 _atom_site_fract_x
 _atom_site_fract_y
 _atom_site_fract_z
 _atom_site_occupancy
  La  La0  1  0.66666700  0.33333300  0.25000000  1
  La  La1  1  0.33333300  0.66666700  0.75000000  1
  La  La2  1  -0.00000000  -0.00000000  0.75000000  1
  La  La3  1  -0.00000000  -0.00000000  0.25000000  1
  Mg  Mg0  1  0.16252747  0.83747253  0.52162895  1
  Mg  Mg1  1  0.16252747  0.32505494  0.52162895  1
  Mg  Mg2  1  0.67494506  0.83747253  0.52162895  1
  Mg  Mg3  1  0.32505494  0.16252747  0.02162895  1
  Mg  Mg4  1  0.33333300  0.66666700  0.10174425  1
  Mg  Mg5  1  0.66666700  0.33333300  0.60174425  1
  Mg  Mg6  1  0.66666700  0.33333300  0.89825575  1
  Mg  Mg7  1  0.33333300  0.66666700  0.39825575  1
  Mg  Mg8  1  0.50000000  -0.00000000  -0.00000000  1
  Mg  Mg9  1  0.50000000  0.50000000  0.50000000  1
  Mg  Mg10  1  -0.00000000  0.50000000  0.50000000  1
  Mg  Mg11  1  -0.00000000  0.50000000  -0.00000000  1
  Mg  Mg12  1  0.50000000  0.50000000  -0.00000000  1
  Mg  Mg13  1  0.50000000  -0.00000000  0.50000000  1
  Mg  Mg14  1  0.32829690  0.96408878  0.25000000  1
  Mg  Mg15  1  0.36420812  0.32829690  0.75000000  1
  Mg  Mg16  1  0.96408878  0.63579188  0.75000000  1
  Mg  Mg17  1  0.03591122  0.36420812  0.25000000  1
  Mg  Mg18  1  0.63579188  0.67170310  0.25000000  1
  Mg  Mg19  1  0.36420812  0.03591122  0.75000000  1
  Mg  Mg20  1  0.67170310  0.63579188  0.75000000  1
  Mg  Mg21  1  0.67170310  0.03591122  0.75000000  1
  Mg  Mg22  1  0.96408878  0.32829690  0.75000000  1
  Mg  Mg23  1  0.03591122  0.67170310  0.25000000  1
  Mg  Mg24  1  0.63579188  0.96408878  0.25000000  1
  Mg  Mg25  1  0.32829690  0.36420812  0.25000000  1
  Mg  Mg26  1  0.16252747  0.32505494  0.97837105  1
  Mg  Mg27  1  0.83747253  0.16252747  0.47837105  1
  Mg  Mg28  1  0.32505494  0.16252747  0.47837105  1
  Mg  Mg29  1  0.67494506  0.83747253  0.97837105  1
  Mg  Mg30  1  0.16252747  0.83747253  0.97837105  1
  Mg  Mg31  1  0.83747253  0.67494506  0.02162895  1
  Mg  Mg32  1  0.83747253  0.16252747  0.02162895  1
  Mg  Mg33  1  0.83747253  0.67494506  0.47837105  1
loop_
_geom_bond_atom_site_label_1
_geom_bond_atom_site_label_2
_geom_bond_distance
_geom_bond_site_symmetry_2
La0 Mg5 3.571085 1_555
La0 Mg6 3.571085 1_554
La0 Mg17 3.658776 1_655
La0 Mg24 3.658776 1_545
La0 Mg23 3.658781 1_655
La0 Mg14 3.658781 1_545
La0 Mg25 3.658787 1_555
La0 Mg18 3.658787 1_555
La0 Mg27 3.831740 1_555
La0 Mg32 3.831740 1_555
La0 Mg3 3.831747 1_555
La0 Mg28 3.831747 1_555
La0 Mg31 3.831747 1_555
La0 Mg33 3.831747 1_555
La0 Mg11 3.911920 1_655
La0 Mg10 3.911920 1_655
La0 Mg8 3.911920 1_555
La0 Mg13 3.911920 1_555
La0 Mg12 3.911926 1_555
La0 Mg9 3.911926 1_555
La1 Mg7 3.571085 1_555
La1 Mg4 3.571085 1_556
La1 Mg16 3.658776 1_455
La1 Mg19 3.658776 1_565
La1 Mg22 3.658781 1_455
La1 Mg21 3.658781 1_565
La1 Mg20 3.658787 1_555
La1 Mg15 3.658787 1_555
La1 Mg30 3.831740 1_555
La1 Mg0 3.831740 1_555
La1 Mg29 3.831747 1_555
La1 Mg2 3.831747 1_555
La1 Mg26 3.831747 1_555
La1 Mg1 3.831747 1_555
La1 Mg11 3.911920 1_556
La1 Mg10 3.911920 1_555
La1 Mg13 3.911920 1_565
La1 Mg8 3.911920 1_566
La1 Mg12 3.911926 1_556
La1 Mg9 3.911926 1_555
La2 Mg21 3.584849 1_455
La2 Mg22 3.584849 1_455
La2 Mg19 3.584849 1_555
La2 Mg16 3.584849 1_445
La2 Mg15 3.584849 1_555
La2 Mg20 3.584849 1_445
La2 Mg0 3.715105 1_545
La2 Mg30 3.715105 1_545
La2 Mg29 3.715105 1_445
La2 Mg2 3.715105 1_445
La2 Mg1 3.715105 1_555
La2 Mg26 3.715105 1_555
La2 Mg32 4.003919 1_456
La2 Mg27 4.003919 1_455
La2 Mg28 4.003920 1_555
La2 Mg3 4.003920 1_556
La2 Mg31 4.003920 1_446
La2 Mg33 4.003920 1_445
La3 Mg14 3.584849 1_545
La3 Mg23 3.584849 1_545
La3 Mg24 3.584849 1_445
La3 Mg17 3.584849 1_555
La3 Mg18 3.584849 1_445
La3 Mg25 3.584849 1_555
La3 Mg27 3.715105 1_455
La3 Mg32 3.715105 1_455
La3 Mg28 3.715105 1_555
La3 Mg3 3.715105 1_555
La3 Mg33 3.715105 1_445
La3 Mg31 3.715105 1_445
La3 Mg0 4.003919 1_545
La3 Mg30 4.003919 1_544
La3 Mg29 4.003920 1_444
La3 Mg2 4.003920 1_445
La3 Mg1 4.003920 1_555
La3 Mg26 4.003920 1_554
Mg0 Mg33 2.935857 1_455
Mg0 Mg28 2.935857 1_565
Mg0 Mg13 3.022383 1_565
Mg0 Mg10 3.022383 1_555
Mg0 Mg19 3.103595 1_565
Mg0 Mg16 3.103595 1_455
Mg0 Mg14 3.162249 1_555
Mg0 Mg23 3.162249 1_555
Mg0 Mg7 3.297800 1_555
Mg1 Mg28 2.935857 1_555
Mg1 Mg27 2.935857 1_455
Mg1 Mg10 3.022383 1_555
Mg1 Mg9 3.022383 1_555
Mg1 Mg22 3.103595 1_455
Mg1 Mg15 3.103595 1_555
Mg1 Mg17 3.162249 1_555
Mg1 Mg25 3.162249 1_555
Mg1 Mg7 3.297808 1_555
Mg2 Mg33 2.935857 1_555
Mg2 Mg27 2.935857 1_565
Mg2 Mg9 3.022383 1_555
Mg2 Mg21 3.103595 1_565
Mg2 Mg20 3.103595 1_555
Mg2 Mg24 3.162249 1_555
Mg2 Mg7 3.297808 1_555
Mg3 Mg30 2.935857 1_544
Mg3 Mg8 3.022383 1_555
Mg3 Mg6 3.297808 1_554
Mg4 Mg7 3.010335 1_555
Mg4 Mg8 3.150879 1_565
Mg5 Mg6 3.010335 1_555
Mg5 Mg9 3.150887 1_555
Mg6 Mg8 3.150879 1_556
Mg7 Mg9 3.150887 1_555
Mg10 Mg16 3.009726 1_455
Mg10 Mg17 3.009726 1_555
Mg10 Mg23 3.009726 1_555
Mg10 Mg22 3.009726 1_455
Mg10 Mg33 3.022383 1_455
Mg10 Mg27 3.022383 1_455
Mg10 Mg7 3.150879 1_555
Mg10 Mg5 3.150879 1_455
Mg11 Mg16 3.009726 1_454
Mg11 Mg17 3.009726 1_555
Mg11 Mg23 3.009726 1_555
Mg11 Mg22 3.009726 1_454
Mg11 Mg26 3.022383 1_554
Mg11 Mg31 3.022383 1_455
Mg11 Mg32 3.022383 1_455
Mg11 Mg30 3.022383 1_554
Mg11 Mg6 3.150879 1_454
Mg11 Mg4 3.150879 1_555
Mg12 Mg20 3.009726 1_554
Mg12 Mg25 3.009726 1_555
Mg12 Mg15 3.009726 1_554
Mg12 Mg18 3.009726 1_555
Mg12 Mg26 3.022383 1_554
Mg12 Mg31 3.022383 1_555
Mg12 Mg29 3.022383 1_554
Mg12 Mg3 3.022383 1_555
Mg12 Mg4 3.150887 1_555
Mg12 Mg6 3.150887 1_554
Mg13 Mg19 3.009726 1_555
Mg13 Mg24 3.009726 1_545
Mg13 Mg14 3.009726 1_545
Mg13 Mg21 3.009726 1_555
Mg13 Mg2 3.022383 1_545
Mg13 Mg28 3.022383 1_555
Mg13 Mg27 3.022383 1_555
Mg13 Mg7 3.150879 1_545
Mg13 Mg5 3.150879 1_555
Mg14 Mg8 3.009726 1_565
Mg14 Mg23 3.015014 1_555
Mg14 Mg28 3.103595 1_565
Mg14 Mg3 3.103595 1_565
Mg14 Mg30 3.162249 1_554
Mg14 Mg24 3.170817 1_555
Mg14 Mg7 3.440007 1_555
Mg14 Mg4 3.440007 1_555
Mg15 Mg9 3.009726 1_555
Mg15 Mg19 3.015014 1_555
Mg15 Mg26 3.103595 1_555
Mg15 Mg3 3.162249 1_556
Mg15 Mg28 3.162249 1_555
Mg15 Mg20 3.170817 1_555
Mg15 Mg5 3.440016 1_555
Mg15 Mg6 3.440016 1_555
Mg16 Mg20 3.015014 1_555
Mg16 Mg30 3.103595 1_655
Mg16 Mg33 3.162249 1_555
Mg16 Mg31 3.162249 1_556
Mg16 Mg22 3.170817 1_555
Mg16 Mg6 3.440011 1_555
Mg16 Mg5 3.440011 1_555
Mg17 Mg25 3.015014 1_555
Mg17 Mg27 3.103595 1_455
Mg17 Mg32 3.103595 1_455
Mg17 Mg26 3.162249 1_554
Mg17 Mg23 3.170817 1_555
Mg17 Mg4 3.440011 1_555
Mg17 Mg7 3.440011 1_555
Mg18 Mg9 3.009726 1_555
Mg18 Mg24 3.015014 1_555
Mg18 Mg33 3.103595 1_555
Mg18 Mg31 3.103595 1_555
Mg18 Mg29 3.162249 1_554
Mg18 Mg2 3.162249 1_555
Mg18 Mg25 3.170817 1_555
Mg18 Mg4 3.440016 1_555
Mg18 Mg7 3.440016 1_555
Mg19 Mg8 3.009726 1_556
Mg19 Mg30 3.103595 1_545
Mg19 Mg3 3.162249 1_556
Mg19 Mg28 3.162249 1_555
Mg19 Mg21 3.170817 1_555
Mg19 Mg6 3.440011 1_555
Mg19 Mg5 3.440011 1_555
Mg20 Mg9 3.009726 1_555
Mg20 Mg29 3.103595 1_555
Mg20 Mg33 3.162249 1_555
Mg20 Mg31 3.162249 1_556
Mg20 Mg5 3.440016 1_555
Mg20 Mg6 3.440016 1_555
Mg21 Mg8 3.009726 1_556
Mg21 Mg22 3.015014 1_555
Mg21 Mg29 3.103595 1_545
Mg21 Mg32 3.162249 1_556
Mg21 Mg27 3.162249 1_555
Mg21 Mg5 3.440007 1_555
Mg21 Mg6 3.440007 1_555
Mg22 Mg26 3.103595 1_655
Mg22 Mg32 3.162249 1_556
Mg22 Mg27 3.162249 1_555
Mg22 Mg5 3.440007 1_555
Mg22 Mg6 3.440007 1_555
Mg23 Mg31 3.103595 1_455
Mg23 Mg33 3.103595 1_455
Mg23 Mg30 3.162249 1_554
Mg23 Mg4 3.440007 1_555
Mg23 Mg7 3.440007 1_555
Mg24 Mg8 3.009726 1_565
Mg24 Mg27 3.103595 1_565
Mg24 Mg32 3.103595 1_565
Mg24 Mg29 3.162249 1_554
Mg24 Mg4 3.440011 1_555
Mg24 Mg7 3.440011 1_555
Mg25 Mg9 3.009726 1_555
Mg25 Mg3 3.103595 1_555
Mg25 Mg28 3.103595 1_555
Mg25 Mg26 3.162249 1_554
Mg25 Mg4 3.440016 1_555
Mg25 Mg7 3.440016 1_555
Mg26 Mg3 2.935857 1_556
Mg26 Mg32 2.935857 1_456
Mg26 Mg4 3.297808 1_556
Mg27 Mg5 3.297800 1_555
Mg28 Mg9 3.022383 1_555
Mg28 Mg5 3.297808 1_555
Mg29 Mg31 2.935857 1_556
Mg29 Mg32 2.935857 1_566
Mg29 Mg8 3.022383 1_566
Mg29 Mg4 3.297808 1_556
Mg30 Mg31 2.935857 1_456
Mg30 Mg8 3.022383 1_566
Mg30 Mg4 3.297800 1_556
Mg31 Mg6 3.297808 1_554
Mg32 Mg8 3.022383 1_555
Mg32 Mg6 3.297800 1_554
Mg33 Mg9 3.022383 1_555
Mg33 Mg5 3.297808 1_555
