# generated using pymatgen
data_KSrH6Ir
_symmetry_space_group_name_H-M   'P 1'
_cell_length_a   5.47522046
_cell_length_b   5.47522040
_cell_length_c   5.47522052
_cell_angle_alpha   60.00000528
_cell_angle_beta   60.00000565
_cell_angle_gamma   59.99999647
_symmetry_Int_Tables_number   1
_chemical_formula_structural   KSrH6Ir
_chemical_formula_sum   'K1 Sr1 H6 Ir1'
_cell_volume   116.06194889
_cell_formula_units_Z   1
loop_
 _symmetry_equiv_pos_site_id
 _symmetry_equiv_pos_as_xyz
  1  'x, y, z'
loop_
 _atom_site_type_symbol
 _atom_site_label
 _atom_site_symmetry_multiplicity
 _atom_site_fract_x
 _atom_site_fract_y
 _atom_site_fract_z
 _atom_site_occupancy
  K  K0  1  0.25000000  0.25000000  0.25000000  1
  Sr  Sr0  1  0.75000000  0.75000000  0.75000000  1
  H  H0  1  0.78305421  0.21694579  0.21694579  1
  H  H1  1  0.21694579  0.78305421  0.21694579  1
  H  H2  1  0.78305421  0.78305421  0.21694579  1
  H  H3  1  0.21694579  0.78305421  0.78305421  1
  H  H4  1  0.78305421  0.21694579  0.78305421  1
  H  H5  1  0.21694579  0.21694579  0.78305421  1
  Ir  Ir0  1  0.00000000  0.00000000  0.00000000  1
loop_
_geom_bond_atom_site_label_1
_geom_bond_atom_site_label_2
_geom_bond_distance
_geom_bond_site_symmetry_2
H0 Ir0 1.679840 1_655
H0 K0 2.749548 1_655
H0 K0 2.749548 1_555
H0 Sr0 2.749549 1_554
H0 Sr0 2.749549 1_545
H1 Ir0 1.679840 1_565
H1 K0 2.749548 1_565
H1 K0 2.749548 1_555
H1 Sr0 2.749549 1_554
H1 Sr0 2.749549 1_455
H2 Ir0 1.679840 1_665
H2 K0 2.749548 1_655
H2 K0 2.749548 1_565
H2 Sr0 2.749548 1_554
H2 Sr0 2.749549 1_555
H3 Ir0 1.679840 1_566
H3 Sr0 2.749548 1_455
H3 Sr0 2.749548 1_555
H3 K0 2.749549 1_556
H3 K0 2.749549 1_565
H4 Ir0 1.679840 1_656
H4 Sr0 2.749548 1_545
H4 Sr0 2.749548 1_555
H4 K0 2.749549 1_556
H4 K0 2.749549 1_655
H5 Ir0 1.679840 1_556
H5 Sr0 2.749548 1_455
H5 Sr0 2.749548 1_545
H5 K0 2.749548 1_556
H5 K0 2.749549 1_555
