# generated using pymatgen
data_Ti8Al15FePt6
_symmetry_space_group_name_H-M   'P 1'
_cell_length_a   8.62697439
_cell_length_b   8.62697525
_cell_length_c   8.62697528
_cell_angle_alpha   120.21688427
_cell_angle_beta   119.84565308
_cell_angle_gamma   89.94615700
_symmetry_Int_Tables_number   1
_chemical_formula_structural   Ti8Al15FePt6
_chemical_formula_sum   'Ti8 Al15 Fe1 Pt6'
_cell_volume   453.78420319
_cell_formula_units_Z   1
loop_
 _symmetry_equiv_pos_site_id
 _symmetry_equiv_pos_as_xyz
  1  'x, y, z'
loop_
 _atom_site_type_symbol
 _atom_site_label
 _atom_site_symmetry_multiplicity
 _atom_site_fract_x
 _atom_site_fract_y
 _atom_site_fract_z
 _atom_site_occupancy
  Ti  Ti0  1  0.78727444  0.28842338  0.07510058  1
  Ti  Ti1  1  0.21332280  0.28842338  0.50114794  1
  Ti  Ti2  1  0.21516255  0.71516255  0.50000000  1
  Ti  Ti3  1  0.21332280  0.71217386  0.92489942  1
  Ti  Ti4  1  0.78727444  0.71217386  0.49885206  1
  Ti  Ti5  1  0.79091931  0.29091931  0.50000000  1
  Ti  Ti6  1  0.38337784  0.11720462  0.73382678  1
  Ti  Ti7  1  0.38337784  0.64955107  0.26617322  1
  Al  Al0  1  0.00300180  0.50300180  0.50000000  1
  Al  Al1  1  0.15506505  0.34612139  0.19105534  1
  Al  Al2  1  0.15506505  0.96400872  0.80894466  1
  Al  Al3  1  0.15720254  0.34358177  0.81362077  1
  Al  Al4  1  0.52996100  0.34358177  0.18637923  1
  Al  Al5  1  0.84525721  0.65443829  0.80918208  1
  Al  Al6  1  0.84525721  0.03607413  0.19081792  1
  Al  Al7  1  0.84498486  0.65345999  0.19152387  1
  Al  Al8  1  0.46193713  0.65345999  0.80847613  1
  Al  Al9  1  0.38442715  0.11749216  0.26693599  1
  Al  Al10  1  0.85055817  0.11749216  0.73306401  1
  Al  Al11  1  0.61862430  0.88286748  0.26424418  1
  Al  Al12  1  0.61862430  0.35438011  0.73575582  1
  Al  Al13  1  0.62076662  0.88118690  0.73958072  1
  Al  Al14  1  0.14160518  0.88118690  0.26041928  1
  Fe  Fe0  1  0.49584579  0.99584579  0.50000000  1
  Pt  Pt0  1  0.99723788  0.99977667  0.49885124  1
  Pt  Pt1  1  0.50092643  0.99977667  0.00253879  1
  Pt  Pt2  1  0.50085657  0.50085657  1.00000000  1
  Pt  Pt3  1  0.50092643  0.49838764  0.50114876  1
  Pt  Pt4  1  0.99723788  0.49838764  0.99746121  1
  Pt  Pt5  1  0.00060140  0.00060140  1.00000000  1
loop_
_geom_bond_atom_site_label_1
_geom_bond_atom_site_label_2
_geom_bond_distance
_geom_bond_site_symmetry_2
Ti0 Ti6 2.900451 1_554
Ti1 Ti6 2.900457 1_555
Ti2 Ti6 2.873739 1_565
Ti2 Ti7 2.873739 1_555
Ti3 Ti7 2.900451 1_556
Ti4 Ti7 2.900451 1_555
Al0 Ti5 2.588704 1_455
Al0 Ti2 2.589659 1_555
Al0 Ti0 2.591009 1_455
Al0 Ti3 2.591009 1_555
Al0 Ti1 2.591009 1_555
Al0 Ti4 2.591009 1_455
Al1 Pt5 2.500729 1_554
Al1 Pt4 2.512022 1_454
Al1 Pt3 2.512028 1_555
Al1 Ti2 2.755930 1_555
Al1 Ti1 2.767392 1_555
Al1 Ti0 2.767394 1_455
Al1 Ti7 2.860680 1_555
Al1 Al10 2.870028 1_454
Al1 Al9 2.870034 1_555
Al2 Pt5 2.500720 1_565
Al2 Pt1 2.512027 1_556
Al2 Pt0 2.512028 1_455
Al2 Ti2 2.755933 1_555
Al2 Ti3 2.767386 1_555
Al2 Ti4 2.767391 1_455
Al2 Ti6 2.860692 1_565
Al2 Al9 2.870030 1_566
Al3 Pt0 2.499276 1_445
Al3 Pt4 2.499278 1_455
Al3 Pt2 2.506528 1_555
Al3 Ti3 2.781187 1_555
Al3 Ti1 2.781195 1_555
Al3 Ti5 2.787049 1_455
Al3 Ti7 2.841066 1_556
Al3 Ti6 2.841067 1_555
Al4 Pt3 2.499270 1_555
Al4 Pt1 2.499278 1_545
Al4 Pt2 2.506528 1_554
Al4 Ti4 2.781187 1_555
Al4 Ti0 2.781187 1_555
Al4 Ti5 2.787049 1_555
Al4 Ti6 2.841067 1_554
Al4 Ti7 2.841067 1_555
Al4 Al9 2.846237 1_555
Al5 Pt4 2.499542 1_555
Al5 Pt3 2.499551 1_555
Al5 Pt5 2.507506 1_665
Al5 Ti5 2.740037 1_555
Al5 Ti4 2.770300 1_555
Al5 Ti3 2.770302 1_655
Al6 Pt1 2.499551 1_545
Al6 Pt0 2.499551 1_545
Al6 Pt5 2.507500 1_654
Al6 Ti5 2.740045 1_555
Al6 Ti1 2.770305 1_655
Al6 Ti0 2.770311 1_555
Al7 Pt2 2.492472 1_554
Al7 Pt4 2.499772 1_554
Al7 Pt0 2.499781 1_555
Al7 Ti0 2.737779 1_555
Al7 Ti4 2.737793 1_555
Al7 Ti2 2.771703 1_655
Al8 Pt2 2.492467 1_555
Al8 Pt1 2.499781 1_556
Al8 Pt3 2.499781 1_555
Al8 Ti1 2.737781 1_555
Al8 Ti3 2.737787 1_555
Al8 Ti2 2.771712 1_555
Al9 Fe0 2.503250 1_545
Al9 Pt3 2.681858 1_555
Al9 Pt1 2.681864 1_545
Al9 Pt5 2.713586 1_554
Al9 Ti1 2.898531 1_555
Al9 Ti3 2.898544 1_544
Al9 Ti5 2.922795 1_555
Al10 Fe0 2.503264 1_545
Al10 Pt0 2.681836 1_545
Al10 Pt4 2.681856 1_555
Al10 Pt5 2.713593 1_655
Al10 Al3 2.846218 1_655
Al10 Al11 2.858535 1_545
Al10 Al12 2.858548 1_555
Al10 Al2 2.870023 1_645
Al10 Al13 2.884938 1_545
Al10 Ti4 2.898542 1_545
Al10 Ti0 2.898556 1_556
Al10 Ti5 2.922785 1_555
Al11 Fe0 2.521000 1_555
Al11 Pt0 2.674664 1_555
Al11 Pt1 2.674671 1_555
Al11 Pt2 2.688680 1_554
Al11 Al6 2.837443 1_565
Al11 Al8 2.843630 1_554
Al11 Al7 2.843630 1_555
Al11 Al9 2.858548 1_565
Al11 Ti7 2.871487 1_555
Al11 Ti4 2.906310 1_555
Al11 Ti3 2.906311 1_554
Al11 Ti5 2.921022 1_565
Al12 Fe0 2.521000 1_545
Al12 Pt4 2.674664 1_555
Al12 Pt3 2.674671 1_555
Al12 Pt2 2.688687 1_555
Al12 Al5 2.837436 1_555
Al12 Al8 2.843623 1_555
Al12 Al7 2.843628 1_556
Al12 Al9 2.858535 1_555
Al12 Ti6 2.871493 1_555
Al12 Ti1 2.906311 1_555
Al12 Ti0 2.906311 1_556
Al12 Ti5 2.921014 1_555
Al13 Fe0 2.500111 1_555
Al13 Pt5 2.682446 1_665
Al13 Pt1 2.694088 1_556
Al13 Pt3 2.694094 1_555
Al13 Al6 2.820537 1_566
Al13 Al5 2.820547 1_555
Al13 Al8 2.842775 1_555
Al13 Ti6 2.887048 1_565
Al13 Ti7 2.887053 1_555
Al13 Ti2 2.898026 1_555
Al13 Ti0 2.901677 1_566
Al13 Ti4 2.901678 1_555
Al14 Fe0 2.500118 1_555
Al14 Pt5 2.682439 1_564
Al14 Pt4 2.694094 1_454
Al14 Pt0 2.694094 1_455
Al14 Al6 2.820523 1_465
Al14 Al5 2.820533 1_454
Al14 Al7 2.842771 1_455
Al14 Al9 2.884920 1_565
Al14 Ti6 2.887054 1_565
Al14 Ti7 2.887060 1_555
Al14 Ti2 2.898033 1_555
Al14 Ti1 2.901676 1_565
Al14 Ti3 2.901683 1_554
Fe0 Ti7 2.434561 1_555
Fe0 Ti6 2.434561 1_565
Pt0 Ti6 2.729575 1_665
Pt0 Ti4 3.073358 1_555
Pt0 Ti5 3.075841 1_565
Pt0 Ti1 3.098164 1_665
Pt1 Ti6 2.729575 1_564
Pt1 Ti3 3.073358 1_554
Pt1 Ti5 3.075840 1_565
Pt1 Ti0 3.098152 1_565
Pt2 Ti6 2.700844 1_555
Pt2 Ti7 2.700844 1_556
Pt2 Ti3 3.078482 1_555
Pt2 Ti0 3.078482 1_556
Pt2 Ti1 3.078488 1_555
Pt2 Ti4 3.078488 1_556
Pt3 Ti7 2.729568 1_555
Pt3 Ti1 3.073358 1_555
Pt3 Ti5 3.075839 1_555
Pt3 Ti4 3.098139 1_555
Pt4 Ti7 2.729574 1_656
Pt4 Ti0 3.073358 1_556
Pt4 Ti5 3.075840 1_555
Pt4 Ti3 3.098152 1_655
Pt5 Ti1 3.087241 1_556
Pt5 Ti4 3.087241 1_445
Pt5 Ti0 3.087247 1_456
Pt5 Ti3 3.087247 1_545
