# generated using pymatgen
data_Ba(GaCl4)2
_symmetry_space_group_name_H-M   'P 1'
_cell_length_a   7.26426208
_cell_length_b   7.62365772
_cell_length_c   12.76805458
_cell_angle_alpha   84.18037504
_cell_angle_beta   90.00000000
_cell_angle_gamma   90.00000000
_symmetry_Int_Tables_number   1
_chemical_formula_structural   Ba(GaCl4)2
_chemical_formula_sum   'Ba2 Ga4 Cl16'
_cell_volume   703.45366746
_cell_formula_units_Z   2
loop_
 _symmetry_equiv_pos_site_id
 _symmetry_equiv_pos_as_xyz
  1  'x, y, z'
loop_
 _atom_site_type_symbol
 _atom_site_label
 _atom_site_symmetry_multiplicity
 _atom_site_fract_x
 _atom_site_fract_y
 _atom_site_fract_z
 _atom_site_occupancy
  Ba  Ba0  1  0.15997618  0.50000000  0.25000000  1
  Ba  Ba1  1  0.84002382  0.50000000  0.75000000  1
  Ga  Ga0  1  0.26090245  0.69741814  0.57273267  1
  Ga  Ga1  1  0.73909755  0.69741814  0.07273267  1
  Ga  Ga2  1  0.73909755  0.30258186  0.42726733  1
  Ga  Ga3  1  0.26090245  0.30258186  0.92726733  1
  Cl  Cl0  1  0.52036745  0.75118036  0.64968086  1
  Cl  Cl1  1  0.29818336  0.77320145  0.40461966  1
  Cl  Cl2  1  0.81390552  0.41759715  0.10176912  1
  Cl  Cl3  1  0.18609448  0.58240285  0.89823088  1
  Cl  Cl4  1  0.47963255  0.24881964  0.35031914  1
  Cl  Cl5  1  0.29818336  0.22679855  0.09538034  1
  Cl  Cl6  1  0.70181664  0.22679855  0.59538034  1
  Cl  Cl7  1  0.47963255  0.75118036  0.14968086  1
  Cl  Cl8  1  0.18609448  0.41759715  0.60176912  1
  Cl  Cl9  1  0.52036745  0.24881964  0.85031914  1
  Cl  Cl10  1  0.81390552  0.58240285  0.39823088  1
  Cl  Cl11  1  0.96359477  0.84483457  0.13686435  1
  Cl  Cl12  1  0.70181664  0.77320145  0.90461966  1
  Cl  Cl13  1  0.03640523  0.15516543  0.86313565  1
  Cl  Cl14  1  0.96359477  0.15516543  0.36313565  1
  Cl  Cl15  1  0.03640523  0.84483457  0.63686435  1
loop_
_geom_bond_atom_site_label_1
_geom_bond_atom_site_label_2
_geom_bond_distance
_geom_bond_site_symmetry_2
Ba0 Cl1 3.174474 1_555
Ba0 Cl5 3.174474 1_555
Ba0 Cl4 3.194078 1_555
Ba0 Cl7 3.194078 1_555
Ba0 Cl11 3.203552 1_455
Ba0 Cl14 3.203552 1_455
Ba0 Cl10 3.246184 1_455
Ba0 Cl2 3.246184 1_455
Ba1 Cl12 3.174474 1_555
Ba1 Cl6 3.174474 1_555
Ba1 Cl0 3.194078 1_555
Ba1 Cl9 3.194078 1_555
Ba1 Cl15 3.203552 1_655
Ba1 Cl13 3.203552 1_655
Ba1 Cl3 3.246184 1_655
Ba1 Cl8 3.246184 1_655
Cl0 Ga0 2.183453 1_555
Cl1 Ga0 2.182431 1_555
Cl2 Ga1 2.196171 1_555
Cl3 Ga3 2.196171 1_555
Cl4 Ga2 2.183453 1_555
Cl5 Ga3 2.182431 1_554
Cl6 Ga2 2.182431 1_555
Cl7 Ga1 2.183453 1_555
Cl8 Ga0 2.196171 1_555
Cl9 Ga3 2.183453 1_555
Cl10 Ga2 2.196171 1_555
Cl11 Ga1 2.186250 1_555
Cl12 Ga1 2.182431 1_556
Cl13 Ga3 2.186250 1_555
Cl14 Ga2 2.186250 1_555
Cl15 Ga0 2.186250 1_555
