# generated using pymatgen
data_Zr6InSbC4
_symmetry_space_group_name_H-M   'P 1'
_cell_length_a   3.38545162
_cell_length_b   3.38545150
_cell_length_c   19.92468094
_cell_angle_alpha   90.00000000
_cell_angle_beta   90.00000000
_cell_angle_gamma   120.00000116
_symmetry_Int_Tables_number   1
_chemical_formula_structural   Zr6InSbC4
_chemical_formula_sum   'Zr6 In1 Sb1 C4'
_cell_volume   197.76763071
_cell_formula_units_Z   1
loop_
 _symmetry_equiv_pos_site_id
 _symmetry_equiv_pos_as_xyz
  1  'x, y, z'
loop_
 _atom_site_type_symbol
 _atom_site_label
 _atom_site_symmetry_multiplicity
 _atom_site_fract_x
 _atom_site_fract_y
 _atom_site_fract_z
 _atom_site_occupancy
  Zr  Zr0  1  0.00000000  0.00000000  0.00483302  1
  Zr  Zr1  1  0.66666800  0.33333500  0.13335233  1
  Zr  Zr2  1  0.66666800  0.33333500  0.36664767  1
  Zr  Zr3  1  0.00000000  0.00000000  0.49516698  1
  Zr  Zr4  1  0.33333300  0.66666600  0.62393403  1
  Zr  Zr5  1  0.33333300  0.66666600  0.87606597  1
  In  In0  1  0.00000000  0.00000000  0.75000000  1
  Sb  Sb0  1  0.00000000  0.00000000  0.25000000  1
  C  C0  1  0.33333300  0.66666600  0.07482033  1
  C  C1  1  0.33333300  0.66666600  0.42518067  1
  C  C2  1  0.66666800  0.33333500  0.56630931  1
  C  C3  1  0.66666800  0.33333500  0.93369069  1
loop_
_geom_bond_atom_site_label_1
_geom_bond_atom_site_label_2
_geom_bond_distance
_geom_bond_site_symmetry_2
In0 Zr5 3.182716 1_555
In0 Zr4 3.182716 1_555
In0 Zr5 3.182718 1_445
In0 Zr5 3.182718 1_545
In0 Zr4 3.182718 1_445
In0 Zr4 3.182718 1_545
Sb0 Zr2 3.036801 1_445
Sb0 Zr1 3.036801 1_445
Sb0 Zr2 3.036805 1_455
Sb0 Zr1 3.036805 1_455
Sb0 Zr2 3.036807 1_555
Sb0 Zr1 3.036807 1_555
C0 Zr1 2.276072 1_455
C0 Zr1 2.276075 1_555
C0 Zr1 2.276082 1_565
C0 Zr0 2.401037 1_555
C0 Zr0 2.401040 1_665
C0 Zr0 2.401040 1_565
C1 Zr2 2.276082 1_455
C1 Zr2 2.276085 1_555
C1 Zr2 2.276092 1_565
C1 Zr3 2.401026 1_555
C1 Zr3 2.401028 1_665
C1 Zr3 2.401028 1_565
C2 Zr4 2.266863 1_655
C2 Zr4 2.266865 1_555
C2 Zr4 2.266873 1_545
C2 Zr3 2.414473 1_665
C2 Zr3 2.414478 1_655
C2 Zr3 2.414480 1_555
C3 Zr5 2.266863 1_655
C3 Zr5 2.266865 1_555
C3 Zr5 2.266873 1_545
C3 Zr0 2.414473 1_666
C3 Zr0 2.414478 1_656
C3 Zr0 2.414480 1_556
