# generated using pymatgen
data_Y12In2CoRu3
_symmetry_space_group_name_H-M   'P 1'
_cell_length_a   8.48155260
_cell_length_b   8.48155299
_cell_length_c   8.48155339
_cell_angle_alpha   112.85202377
_cell_angle_beta   110.03647498
_cell_angle_gamma   105.60650937
_symmetry_Int_Tables_number   1
_chemical_formula_structural   Y12In2CoRu3
_chemical_formula_sum   'Y12 In2 Co1 Ru3'
_cell_volume   467.78959983
_cell_formula_units_Z   1
loop_
 _symmetry_equiv_pos_site_id
 _symmetry_equiv_pos_as_xyz
  1  'x, y, z'
loop_
 _atom_site_type_symbol
 _atom_site_label
 _atom_site_symmetry_multiplicity
 _atom_site_fract_x
 _atom_site_fract_y
 _atom_site_fract_z
 _atom_site_occupancy
  Y  Y0  1  0.44415840  0.24147616  0.20268223  1
  Y  Y1  1  0.55859791  0.76028085  0.79831705  1
  Y  Y2  1  0.03879393  0.24147616  0.79731777  1
  Y  Y3  1  0.96196380  0.76028085  0.20168295  1
  Y  Y4  1  0.18475416  0.28573522  0.46908827  1
  Y  Y5  1  0.81664695  0.71566589  0.53091173  1
  Y  Y6  1  0.18475416  0.71566589  0.89901994  1
  Y  Y7  1  0.81664695  0.28573522  0.10098006  1
  Y  Y8  1  0.32573927  0.64171761  0.31597934  1
  Y  Y9  1  0.67602057  0.35861158  0.68258901  1
  Y  Y10  1  0.32573927  0.00975993  0.68402066  1
  Y  Y11  1  0.67602057  0.99343156  0.31741099  1
  In  In0  1  0.50060747  0.50060747  1.00000000  1
  In  In1  1  0.00040308  0.00040308  0.00000000  1
  Co  Co0  1  0.87956202  0.37956202  0.50000000  1
  Ru  Ru0  1  0.32994389  0.00061372  0.32932916  1
  Ru  Ru1  1  0.67128456  0.00061372  0.67067084  1
  Ru  Ru2  1  0.10836406  0.60836406  0.50000000  1
loop_
_geom_bond_atom_site_label_1
_geom_bond_atom_site_label_2
_geom_bond_distance
_geom_bond_site_symmetry_2
In0 Y3 3.307354 1_556
In0 Y1 3.307354 1_555
In0 Y2 3.308660 1_555
In0 Y0 3.308660 1_556
In0 Y8 3.464398 1_556
In0 Y10 3.464400 1_555
In0 Y9 3.478781 1_555
In0 Y11 3.478784 1_556
In0 Y6 3.675272 1_555
In0 Y7 3.675272 1_556
In0 Y5 3.675274 1_556
In0 Y4 3.675274 1_555
In1 Y1 3.148164 1_444
In1 Y3 3.148164 1_445
In1 Y0 3.161846 1_555
In1 Y2 3.161847 1_554
In1 Ru1 3.202797 1_454
In1 Ru0 3.202802 1_555
In1 Y6 3.217684 1_544
In1 Y7 3.217684 1_455
In1 Y4 3.217685 1_555
In1 Y5 3.217685 1_444
Co0 Ru2 2.346390 1_655
Co0 Y9 2.700145 1_555
Co0 Y11 2.700147 1_545
Co0 Y4 2.968792 1_655
Co0 Y5 2.968792 1_555
Co0 Y6 2.968796 1_655
Co0 Y7 2.968800 1_555
Co0 Y0 3.219619 1_555
Co0 Y2 3.219620 1_655
Ru0 Y3 2.759625 1_445
Ru0 Y0 2.760117 1_555
Ru0 Y11 2.987384 1_545
Ru0 Y9 2.987396 1_555
Ru0 Y10 2.991841 1_555
Ru0 Y8 2.991844 1_545
Ru0 Y6 3.024167 1_544
Ru0 Y4 3.024181 1_555
Ru1 Y1 2.759618 1_545
Ru1 Y2 2.760119 1_655
Ru1 Y11 2.987393 1_545
Ru1 Y9 2.987410 1_555
Ru1 Y10 2.991838 1_555
Ru1 Y8 2.991841 1_545
Ru1 Y7 3.024169 1_556
Ru1 Y5 3.024175 1_545
Ru2 Y8 2.819459 1_555
Ru2 Y10 2.819460 1_565
Ru2 Y5 2.913671 1_455
Ru2 Y4 2.913671 1_555
Ru2 Y7 2.913676 1_455
Ru2 Y6 2.913680 1_555
Ru2 Y1 3.293034 1_555
Ru2 Y3 3.293034 1_455
