# generated using pymatgen
data_Cs8ZrAs4
_symmetry_space_group_name_H-M   'P 1'
_cell_length_a   11.87491910
_cell_length_b   11.87490610
_cell_length_c   11.87492276
_cell_angle_alpha   59.99994816
_cell_angle_beta   59.99998438
_cell_angle_gamma   59.99993925
_symmetry_Int_Tables_number   1
_chemical_formula_structural   Cs8ZrAs4
_chemical_formula_sum   'Cs16 Zr2 As8'
_cell_volume   1184.06683911
_cell_formula_units_Z   2
loop_
 _symmetry_equiv_pos_site_id
 _symmetry_equiv_pos_as_xyz
  1  'x, y, z'
loop_
 _atom_site_type_symbol
 _atom_site_label
 _atom_site_symmetry_multiplicity
 _atom_site_fract_x
 _atom_site_fract_y
 _atom_site_fract_z
 _atom_site_occupancy
  Cs  Cs0  1  0.62500000  0.12500000  0.62500000  1
  Cs  Cs1  1  0.62500000  0.62500000  0.12500000  1
  Cs  Cs2  1  0.12500000  0.62500000  0.62500000  1
  Cs  Cs3  1  0.62500000  0.62500000  0.62500000  1
  Cs  Cs4  1  0.02574834  0.02574834  0.47425166  1
  Cs  Cs5  1  0.77574934  0.22425166  0.22425066  1
  Cs  Cs6  1  0.22425166  0.77574834  0.77574834  1
  Cs  Cs7  1  0.77574934  0.77574834  0.22425166  1
  Cs  Cs8  1  0.77574934  0.22425166  0.77574834  1
  Cs  Cs9  1  0.22425166  0.77574834  0.22425166  1
  Cs  Cs10  1  0.47425066  0.02574834  0.47425166  1
  Cs  Cs11  1  0.47425066  0.02574834  0.02574934  1
  Cs  Cs12  1  0.02574834  0.47425166  0.47425166  1
  Cs  Cs13  1  0.02574834  0.47425166  0.02574834  1
  Cs  Cs14  1  0.22425166  0.22425166  0.77574834  1
  Cs  Cs15  1  0.47425066  0.47425166  0.02574834  1
  Zr  Zr0  1  0.75000000  0.75000000  0.75000000  1
  Zr  Zr1  1  0.50000000  0.50000000  0.50000000  1
  As  As0  1  0.40710378  0.77868967  0.40710378  1
  As  As1  1  0.84289622  0.84289622  0.47131133  1
  As  As2  1  0.47131133  0.84289622  0.84289622  1
  As  As3  1  0.84289622  0.84289622  0.84289622  1
  As  As4  1  0.77868867  0.40710378  0.40710378  1
  As  As5  1  0.40710378  0.40710378  0.40710378  1
  As  As6  1  0.40710378  0.40710378  0.77868867  1
  As  As7  1  0.84289622  0.47131033  0.84289622  1
loop_
_geom_bond_atom_site_label_1
_geom_bond_atom_site_label_2
_geom_bond_distance
_geom_bond_site_symmetry_2
Cs0 Zr1 3.635930 1_555
Cs0 Zr0 3.635930 1_545
Cs1 Zr0 3.635936 1_554
Cs1 Zr1 3.635936 1_555
Cs2 Zr0 3.635935 1_455
Cs2 Zr1 3.635935 1_555
Cs3 Zr1 3.635937 1_555
Cs3 Zr0 3.635937 1_555
As0 Zr1 2.702123 1_555
As0 Cs3 3.737865 1_555
As0 Cs2 3.737874 1_555
As0 Cs1 3.737874 1_555
As0 Cs6 3.781159 1_555
As0 Cs7 3.781168 1_555
As0 Cs9 3.781170 1_555
As0 Cs10 3.897849 1_565
As0 Cs11 3.897856 1_565
As0 Cs4 3.897863 1_565
As1 Zr0 2.702118 1_555
As1 Cs0 3.737864 1_565
As1 Cs2 3.737866 1_655
As1 Cs3 3.737866 1_555
As1 Cs12 3.781155 1_655
As1 Cs4 3.781161 1_665
As1 Cs10 3.781170 1_565
As1 Cs7 3.897863 1_555
As1 Cs5 3.897867 1_565
As1 Cs9 3.897869 1_655
As2 Zr0 2.702117 1_555
As2 Cs0 3.737864 1_565
As2 Cs1 3.737866 1_556
As2 Cs3 3.737866 1_555
As2 Cs15 3.781159 1_556
As2 Cs10 3.781164 1_565
As2 Cs11 3.781165 1_566
As2 Cs14 3.897863 1_565
As2 Cs9 3.897870 1_556
As2 Cs6 3.897870 1_555
As3 Zr0 2.702118 1_555
As3 Cs0 3.737864 1_565
As3 Cs2 3.737866 1_655
As3 Cs1 3.737866 1_556
As3 Cs13 3.781155 1_656
As3 Cs4 3.781161 1_665
As3 Cs11 3.781170 1_566
As3 Cs8 3.897867 1_565
As3 Cs6 3.897869 1_655
As3 Cs7 3.897874 1_556
As4 Zr1 2.702117 1_555
As4 Cs0 3.737864 1_555
As4 Cs1 3.737866 1_555
As4 Cs3 3.737866 1_555
As4 Cs7 3.781159 1_555
As4 Cs8 3.781164 1_555
As4 Cs5 3.781165 1_555
As4 Cs4 3.897863 1_655
As4 Cs13 3.897870 1_655
As4 Cs12 3.897870 1_655
As5 Zr1 2.702118 1_555
As5 Cs0 3.737864 1_555
As5 Cs2 3.737866 1_555
As5 Cs1 3.737866 1_555
As5 Cs9 3.781155 1_555
As5 Cs14 3.781161 1_555
As5 Cs5 3.781170 1_555
As5 Cs10 3.897867 1_555
As5 Cs12 3.897869 1_555
As5 Cs15 3.897874 1_555
As6 Zr1 2.702118 1_555
As6 Cs0 3.737864 1_555
As6 Cs2 3.737866 1_555
As6 Cs3 3.737866 1_555
As6 Cs6 3.781155 1_555
As6 Cs14 3.781161 1_555
As6 Cs8 3.781170 1_555
As6 Cs15 3.897863 1_556
As6 Cs11 3.897867 1_556
As6 Cs13 3.897869 1_556
As7 Zr0 2.702123 1_555
As7 Cs3 3.737865 1_555
As7 Cs2 3.737874 1_655
As7 Cs1 3.737874 1_556
As7 Cs12 3.781159 1_655
As7 Cs15 3.781168 1_556
As7 Cs13 3.781170 1_656
As7 Cs8 3.897849 1_555
As7 Cs5 3.897856 1_556
As7 Cs14 3.897863 1_655
