# generated using pymatgen
data_RbAlPd3O8
_symmetry_space_group_name_H-M   'P 1'
_cell_length_a   3.04377821
_cell_length_b   7.26263685
_cell_length_c   7.19881902
_cell_angle_alpha   87.51451320
_cell_angle_beta   102.19980819
_cell_angle_gamma   102.08991311
_symmetry_Int_Tables_number   1
_chemical_formula_structural   RbAlPd3O8
_chemical_formula_sum   'Rb1 Al1 Pd3 O8'
_cell_volume   152.09224823
_cell_formula_units_Z   1
loop_
 _symmetry_equiv_pos_site_id
 _symmetry_equiv_pos_as_xyz
  1  'x, y, z'
loop_
 _atom_site_type_symbol
 _atom_site_label
 _atom_site_symmetry_multiplicity
 _atom_site_fract_x
 _atom_site_fract_y
 _atom_site_fract_z
 _atom_site_occupancy
  Rb  Rb0  1  0.02932894  0.00910142  0.00785691  1
  Al  Al0  1  0.16733218  0.48628295  0.81178747  1
  Pd  Pd0  1  0.86350945  0.51475120  0.17551519  1
  Pd  Pd1  1  0.68833061  0.81424346  0.52578036  1
  Pd  Pd2  1  0.35487795  0.18388683  0.48972773  1
  O  O0  1  0.33875184  0.36456024  0.27642692  1
  O  O1  1  0.67872810  0.60963120  0.71142048  1
  O  O2  1  0.98080691  0.29516884  0.63025644  1
  O  O3  1  0.06478589  0.71780252  0.37517862  1
  O  O4  1  0.35871579  0.64193774  0.03885263  1
  O  O5  1  0.66922059  0.36124185  0.94039989  1
  O  O6  1  0.72188630  0.05001861  0.35711667  1
  O  O7  1  0.32372244  0.95137314  0.65967869  1
loop_
_geom_bond_atom_site_label_1
_geom_bond_atom_site_label_2
_geom_bond_distance
_geom_bond_site_symmetry_2
Al0 O2 1.862862 1_455
Al0 O1 1.892765 1_555
Al0 O1 1.893180 1_455
Al0 O4 1.941954 1_556
Al0 O5 1.980958 1_455
Al0 O5 1.981416 1_555
O0 Pd2 1.975440 1_555
O0 Pd0 1.989494 1_455
O0 Pd0 1.990120 1_555
O1 Pd1 1.954772 1_555
O2 Pd2 1.978937 1_655
O2 Pd2 1.979312 1_555
O3 Pd1 1.976367 1_455
O3 Pd1 1.976734 1_555
O3 Pd0 2.012264 1_455
O4 Pd0 2.014387 1_455
O4 Pd0 2.014627 1_555
O4 Rb0 3.023131 1_565
O4 Rb0 3.031132 1_665
O5 Pd0 1.980370 1_556
O5 Rb0 2.962332 1_556
O5 Rb0 2.969755 1_656
O6 Pd2 2.021676 1_655
O6 Pd2 2.022535 1_555
O6 Pd1 2.053200 1_545
O6 Rb0 2.901000 1_555
O6 Rb0 2.908812 1_655
O7 Pd1 2.037118 1_455
O7 Pd1 2.037394 1_555
O7 Pd2 2.039647 1_565
O7 Rb0 2.908415 1_566
O7 Rb0 2.917127 1_666
