# generated using pymatgen
data_Cs12LuMgSe8
_symmetry_space_group_name_H-M   'P 1'
_cell_length_a   11.36299330
_cell_length_b   11.36299171
_cell_length_c   8.64888933
_cell_angle_alpha   90.00000000
_cell_angle_beta   90.00000000
_cell_angle_gamma   119.99999892
_symmetry_Int_Tables_number   1
_chemical_formula_structural   Cs12LuMgSe8
_chemical_formula_sum   'Cs12 Lu1 Mg1 Se8'
_cell_volume   967.11120898
_cell_formula_units_Z   1
loop_
 _symmetry_equiv_pos_site_id
 _symmetry_equiv_pos_as_xyz
  1  'x, y, z'
loop_
 _atom_site_type_symbol
 _atom_site_label
 _atom_site_symmetry_multiplicity
 _atom_site_fract_x
 _atom_site_fract_y
 _atom_site_fract_z
 _atom_site_occupancy
  Cs  Cs0  1  0.13819489  0.86180511  0.54603462  1
  Cs  Cs1  1  0.28771903  0.14385952  0.05240118  1
  Cs  Cs2  1  0.85614048  0.71228097  0.05240118  1
  Cs  Cs3  1  0.13819489  0.27639079  0.54603462  1
  Cs  Cs4  1  0.72360921  0.86180511  0.54603462  1
  Cs  Cs5  1  0.85614048  0.14385952  0.05240118  1
  Cs  Cs6  1  0.53479803  0.46520197  0.36577194  1
  Cs  Cs7  1  0.05085486  0.52542643  0.85347767  1
  Cs  Cs8  1  0.47457357  0.94914514  0.85347767  1
  Cs  Cs9  1  0.53479803  0.06959706  0.36577194  1
  Cs  Cs10  1  0.93040294  0.46520197  0.36577194  1
  Cs  Cs11  1  0.47457357  0.52542643  0.85347767  1
  Lu  Lu0  1  0.33333300  0.66666700  0.25132121  1
  Mg  Mg0  1  0.66666700  0.33333300  0.75640048  1
  Se  Se0  1  0.33333300  0.66666700  0.55994506  1
  Se  Se1  1  0.66666700  0.33333300  0.06211360  1
  Se  Se2  1  0.20531800  0.79468200  0.15289181  1
  Se  Se3  1  0.40970965  0.20485632  0.65929865  1
  Se  Se4  1  0.79514368  0.59029035  0.65929865  1
  Se  Se5  1  0.20531800  0.41063400  0.15289181  1
  Se  Se6  1  0.58936600  0.79468200  0.15289181  1
  Se  Se7  1  0.79514368  0.20485632  0.65929865  1
loop_
_geom_bond_atom_site_label_1
_geom_bond_atom_site_label_2
_geom_bond_distance
_geom_bond_site_symmetry_2
Cs0 Se2 3.647864 1_555
Cs0 Se3 3.694164 1_565
Cs0 Se4 3.694164 1_455
Cs0 Se0 3.842452 1_555
Cs1 Se3 3.605612 1_554
Cs1 Se5 3.695881 1_555
Cs1 Se2 3.695903 1_545
Cs1 Se1 3.730037 1_555
Cs2 Se4 3.605612 1_554
Cs2 Se6 3.695881 1_555
Cs2 Se2 3.695903 1_655
Cs2 Se1 3.730036 1_555
Cs3 Se5 3.647853 1_555
Cs3 Se3 3.694150 1_555
Cs3 Se7 3.694171 1_455
Cs3 Se0 3.842452 1_555
Cs4 Se6 3.647854 1_555
Cs4 Se4 3.694149 1_555
Cs4 Se7 3.694171 1_565
Cs4 Se0 3.842452 1_555
Cs5 Se7 3.605622 1_554
Cs5 Se6 3.695896 1_545
Cs5 Se5 3.695897 1_655
Cs5 Se1 3.730027 1_555
Cs6 Se3 3.607203 1_555
Cs6 Se4 3.607203 1_555
Cs6 Se1 3.692334 1_555
Cs6 Se6 3.933143 1_555
Cs6 Se5 3.933144 1_555
Cs7 Se2 3.711800 1_556
Cs7 Se5 3.711800 1_556
Cs7 Se7 3.734683 1_455
Cs7 Se4 3.734716 1_455
Cs7 Se0 3.764605 1_555
Cs8 Se6 3.711800 1_556
Cs8 Se2 3.711800 1_556
Cs8 Se7 3.734683 1_565
Cs8 Se3 3.734716 1_565
Cs8 Se0 3.764605 1_555
Cs9 Se7 3.607204 1_555
Cs9 Se3 3.607217 1_555
Cs9 Se1 3.692320 1_555
Cs9 Se2 3.933155 1_545
Cs9 Se6 3.933173 1_545
Cs10 Se7 3.607203 1_555
Cs10 Se4 3.607217 1_555
Cs10 Se1 3.692321 1_555
Cs10 Se2 3.933154 1_655
Cs10 Se5 3.933173 1_655
Cs11 Se6 3.711800 1_556
Cs11 Se5 3.711800 1_556
Cs11 Se3 3.734666 1_555
Cs11 Se4 3.734666 1_555
Cs11 Se0 3.764627 1_555
Lu0 Se2 2.659435 1_555
Lu0 Se5 2.659463 1_555
Lu0 Se6 2.659463 1_555
Lu0 Se0 2.669253 1_555
Mg0 Se1 2.644079 1_556
Mg0 Se7 2.664404 1_555
Mg0 Se4 2.664441 1_555
Mg0 Se3 2.664441 1_555
