# generated using pymatgen
data_CsKAs2Pd
_symmetry_space_group_name_H-M   'P 1'
_cell_length_a   7.74196993
_cell_length_b   7.74197015
_cell_length_c   6.26326934
_cell_angle_alpha   90.00000000
_cell_angle_beta   90.00000000
_cell_angle_gamma   125.54488632
_symmetry_Int_Tables_number   1
_chemical_formula_structural   CsKAs2Pd
_chemical_formula_sum   'Cs2 K2 As4 Pd2'
_cell_volume   305.45497826
_cell_formula_units_Z   2
loop_
 _symmetry_equiv_pos_site_id
 _symmetry_equiv_pos_as_xyz
  1  'x, y, z'
loop_
 _atom_site_type_symbol
 _atom_site_label
 _atom_site_symmetry_multiplicity
 _atom_site_fract_x
 _atom_site_fract_y
 _atom_site_fract_z
 _atom_site_occupancy
  Cs  Cs0  1  0.40062598  0.59937402  0.25000000  1
  Cs  Cs1  1  0.59937402  0.40062598  0.75000000  1
  K  K0  1  0.79443191  0.20556809  0.25000000  1
  K  K1  1  0.20556809  0.79443191  0.75000000  1
  As  As0  1  0.05678511  0.28243884  0.75000000  1
  As  As1  1  0.94321489  0.71756116  0.25000000  1
  As  As2  1  0.28243884  0.05678511  0.25000000  1
  As  As3  1  0.71756116  0.94321489  0.75000000  1
  Pd  Pd0  1  0.00000000  0.00000000  0.00000000  1
  Pd  Pd1  1  0.00000000  0.00000000  0.50000000  1
loop_
_geom_bond_atom_site_label_1
_geom_bond_atom_site_label_2
_geom_bond_distance
_geom_bond_site_symmetry_2
K0 Pd0 3.234574 1_655
K0 Pd1 3.234574 1_655
K1 Pd1 3.234574 1_565
K1 Pd0 3.234574 1_566
As0 As3 2.403164 1_445
As0 Pd0 2.511718 1_556
As0 Pd1 2.511718 1_555
As0 K1 3.424936 1_555
As0 K0 3.589063 1_455
As0 K0 3.589063 1_456
As0 Cs1 3.743558 1_555
As0 Cs0 3.914039 1_556
As0 Cs0 3.914039 1_555
As0 Cs1 4.140671 1_455
As1 As2 2.403164 1_665
As1 Pd1 2.511718 1_665
As1 Pd0 2.511718 1_665
As1 K0 3.424936 1_555
As1 K1 3.589063 1_654
As1 K1 3.589063 1_655
As1 Cs0 3.743558 1_555
As1 Cs1 3.914039 1_554
As1 Cs1 3.914039 1_555
As1 Cs0 4.140671 1_655
As2 Pd1 2.511718 1_555
As2 Pd0 2.511718 1_555
As2 K0 3.424936 1_555
As2 K1 3.589063 1_544
As2 K1 3.589063 1_545
As2 Cs0 3.743558 1_555
As2 Cs1 3.914039 1_555
As2 Cs1 3.914039 1_554
As2 Cs0 4.140672 1_545
As3 Pd0 2.511718 1_666
As3 Pd1 2.511718 1_665
As3 K1 3.424936 1_555
As3 K0 3.589063 1_566
As3 K0 3.589063 1_565
As3 Cs1 3.743558 1_555
As3 Cs0 3.914039 1_555
As3 Cs0 3.914039 1_556
As3 Cs1 4.140672 1_565
