# generated using pymatgen
data_RePN3
_symmetry_space_group_name_H-M   'P 1'
_cell_length_a   6.44598719
_cell_length_b   6.44598640
_cell_length_c   4.80292065
_cell_angle_alpha   82.23947324
_cell_angle_beta   82.23947914
_cell_angle_gamma   81.75700094
_symmetry_Int_Tables_number   1
_chemical_formula_structural   RePN3
_chemical_formula_sum   'Re4 P4 N12'
_cell_volume   194.32801094
_cell_formula_units_Z   4
loop_
 _symmetry_equiv_pos_site_id
 _symmetry_equiv_pos_as_xyz
  1  'x, y, z'
loop_
 _atom_site_type_symbol
 _atom_site_label
 _atom_site_symmetry_multiplicity
 _atom_site_fract_x
 _atom_site_fract_y
 _atom_site_fract_z
 _atom_site_occupancy
  Re  Re0  1  0.76538486  0.23461514  0.75000000  1
  Re  Re1  1  0.90745259  0.09254741  0.25000000  1
  Re  Re2  1  0.23461514  0.76538486  0.25000000  1
  Re  Re3  1  0.09254741  0.90745259  0.75000000  1
  P  P0  1  0.23465710  0.39703640  0.80830832  1
  P  P1  1  0.39703640  0.23465710  0.30830832  1
  P  P2  1  0.76534290  0.60296360  0.19169168  1
  P  P3  1  0.60296360  0.76534290  0.69169168  1
  N  N0  1  0.29084960  0.44372142  0.11436961  1
  N  N1  1  0.06440072  0.21866353  0.86487637  1
  N  N2  1  0.93559928  0.78133647  0.13512363  1
  N  N3  1  0.44372142  0.29084960  0.61436961  1
  N  N4  1  0.61270681  0.14316817  0.13730085  1
  N  N5  1  0.38729319  0.85683183  0.86269915  1
  N  N6  1  0.85683183  0.38729319  0.36269915  1
  N  N7  1  0.70915040  0.55627858  0.88563039  1
  N  N8  1  0.78133647  0.93559928  0.63512363  1
  N  N9  1  0.14316817  0.61270681  0.63730085  1
  N  N10  1  0.21866353  0.06440072  0.36487637  1
  N  N11  1  0.55627858  0.70915040  0.38563039  1
loop_
_geom_bond_atom_site_label_1
_geom_bond_atom_site_label_2
_geom_bond_distance
_geom_bond_site_symmetry_2
N0 P0 1.636199 1_554
N0 P1 1.649524 1_555
N0 Re2 2.222697 1_555
N1 P0 1.672486 1_555
N1 Re0 2.060368 1_455
N1 Re1 2.104801 1_456
N1 Re3 2.128177 1_545
N2 P2 1.672486 1_555
N2 Re2 2.060368 1_655
N2 Re3 2.104801 1_654
N2 Re1 2.128177 1_565
N3 P1 1.636199 1_555
N3 P0 1.649524 1_555
N3 Re0 2.222697 1_555
N4 P1 1.594496 1_555
N4 Re1 2.015306 1_555
N4 Re0 2.037670 1_554
N5 P3 1.594496 1_555
N5 Re3 2.015306 1_555
N5 Re2 2.037670 1_556
N6 P2 1.594495 1_555
N6 Re1 2.015306 1_555
N6 Re0 2.037670 1_555
N7 P2 1.636199 1_556
N7 P3 1.649524 1_555
N7 Re0 2.222697 1_555
N8 P3 1.672486 1_555
N8 Re0 2.060368 1_565
N8 Re1 2.104801 1_565
N8 Re3 2.128177 1_655
N9 P0 1.594495 1_555
N9 Re3 2.015306 1_555
N9 Re2 2.037670 1_555
N10 P1 1.672486 1_555
N10 Re2 2.060368 1_545
N10 Re3 2.104801 1_545
N10 Re1 2.128177 1_455
N11 P3 1.636199 1_555
N11 P2 1.649524 1_555
N11 Re2 2.222697 1_555
