# generated using pymatgen
data_Ta4Sn2PbO13
_symmetry_space_group_name_H-M   'P 1'
_cell_length_a   7.53442769
_cell_length_b   7.50231099
_cell_length_c   7.50231111
_cell_angle_alpha   59.70260951
_cell_angle_beta   59.62967872
_cell_angle_gamma   59.62969004
_symmetry_Int_Tables_number   1
_chemical_formula_structural   Ta4Sn2PbO13
_chemical_formula_sum   'Ta4 Sn2 Pb1 O13'
_cell_volume   297.50695773
_cell_formula_units_Z   1
loop_
 _symmetry_equiv_pos_site_id
 _symmetry_equiv_pos_as_xyz
  1  'x, y, z'
loop_
 _atom_site_type_symbol
 _atom_site_label
 _atom_site_symmetry_multiplicity
 _atom_site_fract_x
 _atom_site_fract_y
 _atom_site_fract_z
 _atom_site_occupancy
  Ta  Ta0  1  0.49868239  0.49804112  0.49804112  1
  Ta  Ta1  1  0.99849185  0.50334536  0.50334536  1
  Ta  Ta2  1  0.50327639  0.49881732  0.99881492  1
  Ta  Ta3  1  0.50327639  0.99881492  0.49881732  1
  Sn  Sn0  1  0.03328677  0.02618885  0.50064126  1
  Sn  Sn1  1  0.03328677  0.50064126  0.02618885  1
  Pb  Pb0  1  0.51204730  0.00476299  0.00476299  1
  O  O0  1  0.81145981  0.42709464  0.42709464  1
  O  O1  1  0.43931598  0.80535180  0.80535180  1
  O  O2  1  0.41929493  0.43334548  0.81528811  1
  O  O3  1  0.80119207  0.80208010  0.43353381  1
  O  O4  1  0.80119207  0.43353381  0.80208010  1
  O  O5  1  0.41929493  0.81528811  0.43334548  1
  O  O6  1  0.18712783  0.55466617  0.55466617  1
  O  O7  1  0.55405662  0.18262322  0.18262322  1
  O  O8  1  0.54861689  0.56209459  0.18845576  1
  O  O9  1  0.18010345  0.18107504  0.54800064  1
  O  O10  1  0.18010345  0.54800064  0.18107504  1
  O  O11  1  0.54861689  0.18845576  0.56209459  1
  O  O12  1  0.15227222  0.16077681  0.16077681  1
loop_
_geom_bond_atom_site_label_1
_geom_bond_atom_site_label_2
_geom_bond_distance
_geom_bond_site_symmetry_2
O0 Ta0 1.967059 1_555
O0 Ta1 2.144935 1_555
O0 Sn1 2.513791 1_655
O0 Sn0 2.513792 1_655
O1 Ta3 1.961216 1_555
O1 Ta2 1.961216 1_555
O2 Ta0 1.986607 1_555
O2 Ta2 2.101199 1_555
O2 Sn1 2.425903 1_556
O2 Pb0 2.639751 1_556
O3 Ta3 1.929876 1_555
O3 Ta1 1.934204 1_555
O4 Ta2 1.929876 1_555
O4 Ta1 1.934204 1_555
O5 Ta0 1.986607 1_555
O5 Ta3 2.101199 1_555
O5 Sn0 2.425903 1_565
O5 Pb0 2.639751 1_565
O6 Ta1 1.890166 1_455
O6 Ta0 2.009114 1_555
O7 Ta3 1.997607 1_545
O7 Ta2 1.997607 1_554
O7 Pb0 2.512344 1_555
O8 Ta2 1.924367 1_554
O8 Ta0 1.984956 1_555
O8 Pb0 2.800933 1_565
O9 Ta1 2.032532 1_455
O9 Ta3 2.041724 1_545
O9 Sn0 2.194054 1_555
O10 Ta1 2.032532 1_455
O10 Ta2 2.041724 1_554
O10 Sn1 2.194054 1_555
O11 Ta3 1.924367 1_545
O11 Ta0 1.984956 1_555
O11 Pb0 2.800933 1_556
O12 Sn0 2.081062 1_555
O12 Sn1 2.081063 1_555
O12 Pb0 2.248042 1_555
