# generated using pymatgen
data_CsRbHg6Se7
_symmetry_space_group_name_H-M   'P 1'
_cell_length_a   14.69338967
_cell_length_b   14.69338967
_cell_length_c   4.34082336
_cell_angle_alpha   90.00000000
_cell_angle_beta   90.00000000
_cell_angle_gamma   89.49919672
_symmetry_Int_Tables_number   1
_chemical_formula_structural   CsRbHg6Se7
_chemical_formula_sum   'Cs2 Rb2 Hg12 Se14'
_cell_volume   937.12929898
_cell_formula_units_Z   2
loop_
 _symmetry_equiv_pos_site_id
 _symmetry_equiv_pos_as_xyz
  1  'x, y, z'
loop_
 _atom_site_type_symbol
 _atom_site_label
 _atom_site_symmetry_multiplicity
 _atom_site_fract_x
 _atom_site_fract_y
 _atom_site_fract_z
 _atom_site_occupancy
  Cs  Cs0  1  0.82965113  0.17034787  0.00563234  1
  Cs  Cs1  1  0.17034787  0.82965113  0.00563234  1
  Rb  Rb0  1  0.32939265  0.32939265  0.48642406  1
  Rb  Rb1  1  0.67060735  0.67060735  0.48642406  1
  Hg  Hg0  1  0.34895361  0.07370704  0.99590660  1
  Hg  Hg1  1  0.07370704  0.34895361  0.99590660  1
  Hg  Hg2  1  0.92629396  0.65104639  0.99590660  1
  Hg  Hg3  1  0.65104639  0.92629396  0.99590660  1
  Hg  Hg4  1  0.09963630  0.09963630  0.40970760  1
  Hg  Hg5  1  0.90036370  0.90036370  0.40970760  1
  Hg  Hg6  1  0.57072014  0.15625902  0.49048272  1
  Hg  Hg7  1  0.84374098  0.42927986  0.49048272  1
  Hg  Hg8  1  0.15625902  0.57072014  0.49048272  1
  Hg  Hg9  1  0.42927986  0.84374098  0.49048272  1
  Hg  Hg10  1  0.59876320  0.40123680  0.92084233  1
  Hg  Hg11  1  0.40123680  0.59876320  0.92084233  1
  Se  Se0  1  0.50000000  0.50000000  0.25744757  1
  Se  Se1  1  0.68272974  0.31727026  0.50421329  1
  Se  Se2  1  0.31727026  0.68272974  0.50421329  1
  Se  Se3  1  0.69019090  0.02428909  0.49450745  1
  Se  Se4  1  0.97571191  0.30980910  0.49450745  1
  Se  Se5  1  0.02428909  0.69019090  0.49450745  1
  Se  Se6  1  0.30980910  0.97571191  0.49450745  1
  Se  Se7  1  0.00000000  0.00000000  0.73497407  1
  Se  Se8  1  0.18372742  0.18372742  0.99786433  1
  Se  Se9  1  0.81627258  0.81627258  0.99786433  1
  Se  Se10  1  0.47235026  0.19984627  0.99011410  1
  Se  Se11  1  0.19984627  0.47235026  0.99011410  1
  Se  Se12  1  0.80015373  0.52764974  0.99011410  1
  Se  Se13  1  0.52764974  0.80015373  0.99011410  1
loop_
_geom_bond_atom_site_label_1
_geom_bond_atom_site_label_2
_geom_bond_distance
_geom_bond_site_symmetry_2
Cs0 Se3 3.658552 1_555
Cs0 Se4 3.658577 1_555
Cs0 Se7 3.714942 1_654
Cs0 Se3 3.715407 1_554
Cs0 Se4 3.715432 1_554
Cs0 Se1 3.731378 1_555
Cs0 Se1 3.738537 1_554
Cs1 Se5 3.658552 1_555
Cs1 Se6 3.658577 1_555
Cs1 Se7 3.714942 1_564
Cs1 Se5 3.715407 1_554
Cs1 Se6 3.715432 1_554
Cs1 Se2 3.731378 1_555
Cs1 Se2 3.738537 1_554
Rb0 Se10 3.550630 1_554
Rb0 Se11 3.550630 1_554
Rb0 Se10 3.570158 1_555
Rb0 Se11 3.570158 1_555
Rb0 Se0 3.696739 1_555
Rb0 Se8 3.706693 1_554
Rb0 Se8 3.764400 1_555
Rb1 Se13 3.550630 1_554
Rb1 Se12 3.550630 1_554
Rb1 Se13 3.570158 1_555
Rb1 Se12 3.570158 1_555
Rb1 Se0 3.696739 1_555
Rb1 Se9 3.706693 1_554
Rb1 Se9 3.764400 1_555
Hg0 Se10 2.604209 1_555
Hg0 Se6 2.665128 1_546
Hg0 Se6 2.675002 1_545
Hg0 Se8 2.904937 1_555
Hg1 Se11 2.604209 1_555
Hg1 Se4 2.665128 1_456
Hg1 Se4 2.675002 1_455
Hg1 Se8 2.904937 1_555
Hg2 Se12 2.604219 1_555
Hg2 Se5 2.665128 1_656
Hg2 Se5 2.675002 1_655
Hg2 Se9 2.904945 1_555
Hg3 Se13 2.604219 1_555
Hg3 Se3 2.665128 1_566
Hg3 Se3 2.675002 1_565
Hg3 Se9 2.904945 1_555
Hg4 Se8 2.505201 1_554
Hg4 Se7 2.513476 1_555
Hg4 Se8 3.098106 1_555
Hg5 Se9 2.505201 1_554
Hg5 Se7 2.513476 1_665
Hg5 Se9 3.098106 1_555
Hg6 Se3 2.604302 1_555
Hg6 Se10 2.680835 1_555
Hg6 Se10 2.683424 1_554
Hg6 Se1 2.894355 1_555
Hg7 Se4 2.604313 1_555
Hg7 Se12 2.680835 1_555
Hg7 Se12 2.683424 1_554
Hg7 Se1 2.894355 1_555
Hg8 Se5 2.604302 1_555
Hg8 Se11 2.680835 1_555
Hg8 Se11 2.683424 1_554
Hg8 Se2 2.894355 1_555
Hg9 Se6 2.604313 1_555
Hg9 Se13 2.680835 1_555
Hg9 Se13 2.683424 1_554
Hg9 Se2 2.894355 1_555
Hg10 Se1 2.507669 1_555
Hg10 Se0 2.511950 1_556
Hg10 Se1 3.070876 1_556
Hg11 Se2 2.507669 1_555
Hg11 Se0 2.511950 1_556
Hg11 Se2 3.070876 1_556
