# generated using pymatgen
data_Sr4TiPtO8
_symmetry_space_group_name_H-M   'P 1'
_cell_length_a   6.89267855
_cell_length_b   6.89267680
_cell_length_c   5.52867018
_cell_angle_alpha   90.00000000
_cell_angle_beta   90.00000000
_cell_angle_gamma   132.67533308
_symmetry_Int_Tables_number   1
_chemical_formula_structural   Sr4TiPtO8
_chemical_formula_sum   'Sr4 Ti1 Pt1 O8'
_cell_volume   193.11052887
_cell_formula_units_Z   1
loop_
 _symmetry_equiv_pos_site_id
 _symmetry_equiv_pos_as_xyz
  1  'x, y, z'
loop_
 _atom_site_type_symbol
 _atom_site_label
 _atom_site_symmetry_multiplicity
 _atom_site_fract_x
 _atom_site_fract_y
 _atom_site_fract_z
 _atom_site_occupancy
  Sr  Sr0  1  0.64568682  0.35431318  0.00000000  1
  Sr  Sr1  1  0.14484016  0.85515984  0.50000000  1
  Sr  Sr2  1  0.85515984  0.14484016  0.50000000  1
  Sr  Sr3  1  0.35431318  0.64568682  0.00000000  1
  Ti  Ti0  1  0.00000000  0.00000000  0.00000000  1
  Pt  Pt0  1  0.50000000  0.50000000  0.50000000  1
  O  O0  1  0.75373264  0.75373264  0.75317216  1
  O  O1  1  0.24626736  0.24626736  0.24682784  1
  O  O2  1  0.24626736  0.24626736  0.75317216  1
  O  O3  1  0.75373264  0.75373264  0.24682784  1
  O  O4  1  0.84144191  0.15855809  0.00000000  1
  O  O5  1  0.33727342  0.66272658  0.50000000  1
  O  O6  1  0.66272658  0.33727342  0.50000000  1
  O  O7  1  0.15855809  0.84144191  0.00000000  1
loop_
_geom_bond_atom_site_label_1
_geom_bond_atom_site_label_2
_geom_bond_distance
_geom_bond_site_symmetry_2
O0 Ti0 1.928388 1_666
O0 Pt0 1.982397 1_555
O0 Sr2 2.675849 1_565
O0 Sr1 2.675850 1_655
O0 Sr0 2.686389 1_556
O0 Sr3 2.686389 1_556
O1 Ti0 1.928388 1_555
O1 Pt0 1.982397 1_555
O1 Sr1 2.675849 1_545
O1 Sr2 2.675850 1_455
O1 Sr3 2.686389 1_555
O1 Sr0 2.686389 1_555
O2 Ti0 1.928388 1_556
O2 Pt0 1.982397 1_555
O2 Sr1 2.675849 1_545
O2 Sr2 2.675850 1_455
O2 Sr3 2.686389 1_556
O2 Sr0 2.686389 1_556
O3 Ti0 1.928388 1_665
O3 Pt0 1.982397 1_555
O3 Sr2 2.675849 1_565
O3 Sr1 2.675850 1_655
O3 Sr0 2.686389 1_555
O3 Sr3 2.686389 1_555
O4 Ti0 2.002014 1_655
O4 Sr0 2.471677 1_555
O4 Sr2 2.769756 1_554
O4 Sr2 2.769756 1_555
O4 Sr3 2.771116 1_545
O4 Sr3 2.771116 1_655
O5 Pt0 2.054647 1_555
O5 Sr1 2.429734 1_555
O5 Sr3 2.772695 1_556
O5 Sr3 2.772695 1_555
O5 Sr2 2.775550 1_455
O5 Sr2 2.775550 1_565
O6 Pt0 2.054647 1_555
O6 Sr2 2.429734 1_555
O6 Sr0 2.772695 1_555
O6 Sr0 2.772695 1_556
O6 Sr1 2.775550 1_655
O6 Sr1 2.775550 1_545
O7 Ti0 2.002014 1_565
O7 Sr3 2.471677 1_555
O7 Sr1 2.769756 1_554
O7 Sr1 2.769756 1_555
O7 Sr0 2.771116 1_565
O7 Sr0 2.771116 1_455
