# generated using pymatgen
data_Os3PdPb4O13
_symmetry_space_group_name_H-M   'P 1'
_cell_length_a   7.34749369
_cell_length_b   7.29996205
_cell_length_c   7.34749371
_cell_angle_alpha   59.78437583
_cell_angle_beta   59.99999992
_cell_angle_gamma   59.78437585
_symmetry_Int_Tables_number   1
_chemical_formula_structural   Os3PdPb4O13
_chemical_formula_sum   'Os3 Pd1 Pb4 O13'
_cell_volume   277.75436886
_cell_formula_units_Z   1
loop_
 _symmetry_equiv_pos_site_id
 _symmetry_equiv_pos_as_xyz
  1  'x, y, z'
loop_
 _atom_site_type_symbol
 _atom_site_label
 _atom_site_symmetry_multiplicity
 _atom_site_fract_x
 _atom_site_fract_y
 _atom_site_fract_z
 _atom_site_occupancy
  Os  Os0  1  0.87402290  0.87604392  0.37591028  1
  Os  Os1  1  0.87402290  0.87604392  0.87402290  1
  Os  Os2  1  0.37591028  0.87604392  0.87402290  1
  Pd  Pd0  1  0.87386990  0.37838931  0.87386990  1
  Pb  Pb0  1  0.88003227  0.37347841  0.37324416  1
  Pb  Pb1  1  0.37324416  0.37347841  0.37324416  1
  Pb  Pb2  1  0.37324416  0.37347841  0.88003227  1
  Pb  Pb3  1  0.37268915  0.88193455  0.37268915  1
  O  O0  1  0.19518343  0.81634717  0.79328497  1
  O  O1  1  0.19518343  0.81634717  0.19518343  1
  O  O2  1  0.56115379  0.92648399  0.95120843  1
  O  O3  1  0.56115379  0.92648399  0.56115379  1
  O  O4  1  0.95120843  0.92648399  0.56115379  1
  O  O5  1  0.79328497  0.81634717  0.19518343  1
  O  O6  1  0.53649582  0.55632631  0.95358843  1
  O  O7  1  0.79362936  0.19751298  0.79362936  1
  O  O8  1  0.79362936  0.19751298  0.21522729  1
  O  O9  1  0.95358843  0.55632631  0.95358843  1
  O  O10  1  0.95358843  0.55632631  0.53649582  1
  O  O11  1  0.21522729  0.19751298  0.79362936  1
  O  O12  1  0.49963573  0.50109180  0.49963573  1
loop_
_geom_bond_atom_site_label_1
_geom_bond_atom_site_label_2
_geom_bond_distance
_geom_bond_site_symmetry_2
O0 Os1 1.983798 1_455
O0 Os2 1.983805 1_555
O0 Pb3 2.566932 1_555
O0 Pb2 2.659398 1_555
O1 Os0 1.983800 1_455
O1 Os2 1.983800 1_554
O1 Pb3 2.566951 1_555
O1 Pb1 2.659398 1_555
O2 Os1 1.948391 1_555
O2 Os2 1.948391 1_555
O2 Pb3 2.600940 1_556
O2 Pb2 2.701322 1_565
O3 Os0 1.948391 1_555
O3 Os2 1.948391 1_555
O3 Pb3 2.600928 1_555
O3 Pb1 2.701323 1_565
O4 Os1 1.948391 1_555
O4 Os0 1.948391 1_555
O4 Pb3 2.600940 1_655
O4 Pb0 2.701322 1_565
O5 Os1 1.983798 1_554
O5 Os0 1.983805 1_555
O5 Pb3 2.566932 1_555
O5 Pb0 2.659398 1_555
O6 Os2 1.930253 1_555
O6 Pd0 2.061075 1_555
O6 Pb1 2.549186 1_556
O6 Pb2 2.549186 1_555
O7 Os1 1.939946 1_545
O7 Pd0 2.086445 1_555
O7 Pb2 2.541658 1_555
O7 Pb0 2.541658 1_555
O8 Os0 1.939947 1_545
O8 Pd0 2.086445 1_554
O8 Pb1 2.541658 1_555
O8 Pb0 2.541658 1_555
O9 Os1 1.930254 1_555
O9 Pd0 2.061075 1_555
O9 Pb2 2.549186 1_655
O9 Pb0 2.549186 1_556
O10 Os0 1.930253 1_555
O10 Pd0 2.061075 1_555
O10 Pb1 2.549186 1_655
O10 Pb0 2.549186 1_555
O11 Os2 1.939947 1_545
O11 Pd0 2.086445 1_455
O11 Pb2 2.541658 1_555
O11 Pb1 2.541658 1_555
O12 Pb3 2.262547 1_555
O12 Pb0 2.279597 1_555
O12 Pb2 2.279597 1_555
O12 Pb1 2.279597 1_555
