# generated using pymatgen
data_Ba2ScCrH10
_symmetry_space_group_name_H-M   'P 1'
_cell_length_a   4.77313631
_cell_length_b   5.45238254
_cell_length_c   13.21216649
_cell_angle_alpha   89.99472086
_cell_angle_beta   90.00000000
_cell_angle_gamma   90.00000000
_symmetry_Int_Tables_number   1
_chemical_formula_structural   Ba2ScCrH10
_chemical_formula_sum   'Ba4 Sc2 Cr2 H20'
_cell_volume   343.84616962
_cell_formula_units_Z   2
loop_
 _symmetry_equiv_pos_site_id
 _symmetry_equiv_pos_as_xyz
  1  'x, y, z'
loop_
 _atom_site_type_symbol
 _atom_site_label
 _atom_site_symmetry_multiplicity
 _atom_site_fract_x
 _atom_site_fract_y
 _atom_site_fract_z
 _atom_site_occupancy
  Ba  Ba0  1  0.27596491  0.24988062  0.65696156  1
  Ba  Ba1  1  0.77596491  0.25011938  0.34303844  1
  Ba  Ba2  1  0.23874809  0.75000896  0.14076557  1
  Ba  Ba3  1  0.73874809  0.74999104  0.85923443  1
  Sc  Sc0  1  0.26579927  0.75013852  0.43550493  1
  Sc  Sc1  1  0.76579927  0.74986148  0.56449507  1
  Cr  Cr0  1  0.29395946  0.25004957  0.92975887  1
  Cr  Cr1  1  0.79395946  0.24995043  0.07024113  1
  H  H0  1  0.52365102  0.50183240  0.49591749  1
  H  H1  1  0.02365102  0.99816760  0.50408251  1
  H  H2  1  0.00410295  0.44425478  0.99643869  1
  H  H3  1  0.50410295  0.05574522  0.00356131  1
  H  H4  1  0.21742563  0.01611128  0.84377668  1
  H  H5  1  0.71742563  0.48388872  0.15622332  1
  H  H6  1  0.27266870  0.98738060  0.32159222  1
  H  H7  1  0.77266870  0.51261940  0.67840778  1
  H  H8  1  0.21744059  0.48404664  0.84378000  1
  H  H9  1  0.71744059  0.01595336  0.15622000  1
  H  H10  1  0.27229946  0.51319793  0.32152396  1
  H  H11  1  0.77229946  0.98680207  0.67847604  1
  H  H12  1  0.58294180  0.25010371  0.85808811  1
  H  H13  1  0.08294180  0.24989629  0.14191189  1
  H  H14  1  0.80726333  0.75028563  0.40005165  1
  H  H15  1  0.30726333  0.74971437  0.59994835  1
  H  H16  1  0.00408550  0.05571217  0.99641345  1
  H  H17  1  0.50408550  0.44428783  0.00358655  1
  H  H18  1  0.52365029  0.99820697  0.49609588  1
  H  H19  1  0.02365029  0.50179303  0.50390412  1
loop_
_geom_bond_atom_site_label_1
_geom_bond_atom_site_label_2
_geom_bond_distance
_geom_bond_site_symmetry_2
Ba0 H1 2.722930 1_545
Ba0 H19 2.725040 1_555
Ba0 H11 2.784016 1_545
Ba0 H7 2.784498 1_555
Ba0 H4 2.791822 1_555
Ba0 H18 2.792574 1_545
Ba0 H8 2.793049 1_555
Ba0 H0 2.794922 1_555
Ba0 H7 2.811338 1_455
Ba0 H11 2.813852 1_445
Ba0 H15 2.831348 1_555
Ba0 H15 2.833226 1_545
Ba0 H12 3.034514 1_555
Ba1 H0 2.722930 1_555
Ba1 H18 2.725040 1_545
Ba1 H10 2.784016 1_655
Ba1 H6 2.784498 1_645
Ba1 H5 2.791822 1_555
Ba1 H19 2.792574 1_655
Ba1 H9 2.793049 1_555
Ba1 H1 2.794922 1_645
Ba1 H6 2.811338 1_545
Ba1 H10 2.813852 1_555
Ba1 H14 2.831348 1_545
Ba1 H14 2.833226 1_555
Ba1 H13 3.034514 1_655
Ba2 H9 2.713843 1_565
Ba2 H5 2.714278 1_555
Ba2 H10 2.719519 1_555
Ba2 H6 2.722076 1_555
Ba2 H17 2.769125 1_555
Ba2 H3 2.769230 1_565
Ba2 H16 2.769417 1_564
Ba2 H2 2.769533 1_554
Ba2 H13 2.825256 1_565
Ba2 H13 2.826439 1_555
Ba2 H9 2.887184 1_465
Ba2 H5 2.887711 1_455
Ba3 H8 2.713843 1_655
Ba3 H4 2.714278 1_665
Ba3 H11 2.719519 1_555
Ba3 H7 2.722076 1_555
Ba3 H16 2.769125 1_665
Ba3 H2 2.769230 1_655
Ba3 H17 2.769417 1_556
Ba3 H3 2.769533 1_566
Ba3 H12 2.825256 1_555
Ba3 H12 2.826439 1_565
Ba3 H8 2.887184 1_555
Ba3 H4 2.887711 1_565
Cr0 H12 1.673105 1_555
Cr0 H4 1.746766 1_555
Cr0 H8 1.746804 1_555
Cr0 H3 1.754731 1_556
Cr0 H17 1.754760 1_556
Cr0 H2 1.952351 1_555
Cr0 H16 1.952563 1_555
Cr1 H13 1.673105 1_655
Cr1 H5 1.746766 1_555
Cr1 H9 1.746804 1_555
Cr1 H2 1.754731 1_654
Cr1 H16 1.754760 1_654
Cr1 H3 1.952351 1_555
Cr1 H17 1.952563 1_555
H0 Sc0 1.996147 1_555
H0 Sc1 1.996473 1_555
H1 Sc1 1.996147 1_455
H1 Sc0 1.996473 1_555
H6 Sc0 1.984710 1_555
H7 Sc1 1.984710 1_555
H10 Sc0 1.984476 1_555
H11 Sc1 1.984476 1_555
H14 Sc1 2.181650 1_555
H14 Sc0 2.238218 1_655
H14 Sc0 2.626587 1_555
H15 Sc0 2.181650 1_555
H15 Sc1 2.238218 1_555
H15 Sc1 2.626587 1_455
H18 Sc0 1.996310 1_555
H18 Sc1 1.996463 1_555
H19 Sc1 1.996310 1_455
H19 Sc0 1.996463 1_555
