# generated using pymatgen
data_Ba4FeSbO8
_symmetry_space_group_name_H-M   'P 1'
_cell_length_a   7.26177240
_cell_length_b   7.26177304
_cell_length_c   5.80503183
_cell_angle_alpha   90.00000000
_cell_angle_beta   90.00000000
_cell_angle_gamma   132.87470648
_symmetry_Int_Tables_number   1
_chemical_formula_structural   Ba4FeSbO8
_chemical_formula_sum   'Ba4 Fe1 Sb1 O8'
_cell_volume   224.33707470
_cell_formula_units_Z   1
loop_
 _symmetry_equiv_pos_site_id
 _symmetry_equiv_pos_as_xyz
  1  'x, y, z'
loop_
 _atom_site_type_symbol
 _atom_site_label
 _atom_site_symmetry_multiplicity
 _atom_site_fract_x
 _atom_site_fract_y
 _atom_site_fract_z
 _atom_site_occupancy
  Ba  Ba0  1  0.35423917  0.64576083  0.00000000  1
  Ba  Ba1  1  0.85609801  0.14390199  0.50000000  1
  Ba  Ba2  1  0.14390199  0.85609801  0.50000000  1
  Ba  Ba3  1  0.64576083  0.35423917  0.00000000  1
  Fe  Fe0  1  0.00000000  0.00000000  0.00000000  1
  Sb  Sb0  1  0.50000000  0.50000000  0.50000000  1
  O  O0  1  0.25577604  0.25577604  0.74323863  1
  O  O1  1  0.74422396  0.74422396  0.25676137  1
  O  O2  1  0.74422396  0.74422396  0.74323863  1
  O  O3  1  0.25577604  0.25577604  0.25676137  1
  O  O4  1  0.14963046  0.85036954  0.00000000  1
  O  O5  1  0.65147447  0.34852553  0.50000000  1
  O  O6  1  0.34852553  0.65147447  0.50000000  1
  O  O7  1  0.85036954  0.14963046  0.00000000  1
loop_
_geom_bond_atom_site_label_1
_geom_bond_atom_site_label_2
_geom_bond_distance
_geom_bond_site_symmetry_2
Ba0 O4 2.723879 1_555
Ba0 O1 2.827983 1_555
Ba0 O2 2.827983 1_554
Ba0 O3 2.827983 1_555
Ba0 O0 2.827983 1_554
Ba0 O7 2.903362 1_455
Ba0 O7 2.903362 1_565
Ba0 O6 2.903512 1_554
Ba0 O6 2.903512 1_555
Ba1 O5 2.724076 1_555
Ba1 O0 2.805157 1_655
Ba1 O3 2.805157 1_655
Ba1 O2 2.805158 1_545
Ba1 O1 2.805158 1_545
Ba1 O7 2.903518 1_556
Ba1 O7 2.903518 1_555
Ba1 O6 2.904655 1_545
Ba1 O6 2.904655 1_655
Ba2 O6 2.724076 1_555
Ba2 O2 2.805157 1_455
Ba2 O1 2.805157 1_455
Ba2 O0 2.805158 1_565
Ba2 O3 2.805158 1_565
Ba2 O4 2.903518 1_556
Ba2 O4 2.903518 1_555
Ba2 O5 2.904655 1_565
Ba2 O5 2.904655 1_455
Ba3 O7 2.723879 1_555
Ba3 O3 2.827983 1_555
Ba3 O0 2.827983 1_554
Ba3 O1 2.827983 1_555
Ba3 O2 2.827983 1_554
Ba3 O4 2.903362 1_655
Ba3 O4 2.903362 1_545
Ba3 O5 2.903512 1_555
Ba3 O5 2.903512 1_554
Fe0 O7 1.991974 1_455
Fe0 O4 1.991974 1_545
Fe0 O3 2.103996 1_555
Fe0 O1 2.103996 1_445
Fe0 O0 2.103996 1_554
Fe0 O2 2.103996 1_444
O0 Sb0 2.001064 1_555
O1 Sb0 2.001064 1_555
O2 Sb0 2.001064 1_555
O3 Sb0 2.001064 1_555
O5 Sb0 2.016523 1_555
O6 Sb0 2.016523 1_555
