# generated using pymatgen
data_CdAs2F12
_symmetry_space_group_name_H-M   'P 1'
_cell_length_a   9.39782547
_cell_length_b   9.39782565
_cell_length_c   9.39782592
_cell_angle_alpha   132.17101986
_cell_angle_beta   132.17102621
_cell_angle_gamma   69.95905174
_symmetry_Int_Tables_number   1
_chemical_formula_structural   CdAs2F12
_chemical_formula_sum   'Cd2 As4 F24'
_cell_volume   447.01739170
_cell_formula_units_Z   2
loop_
 _symmetry_equiv_pos_site_id
 _symmetry_equiv_pos_as_xyz
  1  'x, y, z'
loop_
 _atom_site_type_symbol
 _atom_site_label
 _atom_site_symmetry_multiplicity
 _atom_site_fract_x
 _atom_site_fract_y
 _atom_site_fract_z
 _atom_site_occupancy
  Cd  Cd0  1  0.75000000  0.25000000  0.50000000  1
  Cd  Cd1  1  0.00000000  0.00000000  0.00000000  1
  As  As0  1  0.77975822  0.77975822  1.00000000  1
  As  As1  1  0.22024178  0.22024178  0.00000000  1
  As  As2  1  0.97024178  0.47024178  0.50000000  1
  As  As3  1  0.52975822  0.02975822  0.50000000  1
  F  F0  1  0.85967633  0.76081016  0.21053082  1
  F  F1  1  0.55027734  0.64914551  0.78946918  1
  F  F2  1  0.39914551  0.80027734  0.28946918  1
  F  F3  1  0.35085449  0.14032367  0.90113283  1
  F  F4  1  0.23918984  0.44972266  0.09886717  1
  F  F5  1  0.19972266  0.48918984  0.59886717  1
  F  F6  1  0.66579393  0.26254969  0.69825598  1
  F  F7  1  0.73745031  0.43570628  0.40324424  1
  F  F8  1  0.03246304  0.33420607  0.59675576  1
  F  F9  1  0.08420607  0.28246304  0.09675576  1
  F  F10  1  0.18570628  0.98745031  0.90324424  1
  F  F11  1  0.56429372  0.96753696  0.30174402  1
  F  F12  1  0.71753696  0.81429372  0.80174402  1
  F  F13  1  0.01254969  0.91579393  0.19825598  1
  F  F14  1  0.31439957  0.11172464  0.35861890  1
  F  F15  1  0.88827536  0.24689426  0.20267493  1
  F  F16  1  0.04421933  0.68560043  0.79732507  1
  F  F17  1  0.43560043  0.29421933  0.29732507  1
  F  F18  1  0.99689426  0.13827536  0.70267493  1
  F  F19  1  0.75310574  0.95578067  0.64138110  1
  F  F20  1  0.70578067  0.00310574  0.14138110  1
  F  F21  1  0.86172464  0.56439957  0.85861890  1
  F  F22  1  0.51081016  0.10967633  0.71053082  1
  F  F23  1  0.89032367  0.60085449  0.40113283  1
loop_
_geom_bond_atom_site_label_1
_geom_bond_atom_site_label_2
_geom_bond_distance
_geom_bond_site_symmetry_2
Cd0 F17 2.279372 1_555
Cd0 F18 2.279372 1_555
Cd0 F21 2.279372 1_555
Cd0 F20 2.279372 1_555
Cd0 F7 2.394215 1_555
Cd0 F6 2.394215 1_555
Cd0 F11 2.394222 1_545
Cd0 F8 2.394224 1_655
Cd1 F14 2.279372 1_555
Cd1 F19 2.279372 1_444
Cd1 F16 2.279372 1_544
Cd1 F15 2.279372 1_455
Cd1 F10 2.394215 1_544
Cd1 F13 2.394215 1_545
Cd1 F12 2.394222 1_444
Cd1 F9 2.394224 1_555
As0 F0 1.701925 1_556
As0 F1 1.701939 1_555
As0 F12 1.771359 1_555
As0 F13 1.771363 1_656
As0 F20 1.774820 1_566
As0 F21 1.774820 1_555
As1 F3 1.701932 1_554
As1 F4 1.701939 1_555
As1 F9 1.771360 1_555
As1 F10 1.771363 1_544
As1 F18 1.774819 1_454
As1 F17 1.774819 1_555
As2 F23 1.701932 1_555
As2 F5 1.701939 1_655
As2 F8 1.771360 1_655
As2 F7 1.771363 1_555
As2 F15 1.774820 1_555
As2 F16 1.774820 1_655
As3 F22 1.701925 1_555
As3 F2 1.701939 1_545
As3 F11 1.771359 1_545
As3 F6 1.771363 1_555
As3 F19 1.774819 1_545
As3 F14 1.774820 1_555
