# generated using pymatgen
data_BaMgSbH
_symmetry_space_group_name_H-M   'P 1'
_cell_length_a   4.65667814
_cell_length_b   4.65683612
_cell_length_c   19.32927787
_cell_angle_alpha   90.00000000
_cell_angle_beta   90.00000000
_cell_angle_gamma   90.00000000
_symmetry_Int_Tables_number   1
_chemical_formula_structural   BaMgSbH
_chemical_formula_sum   'Ba4 Mg4 Sb4 H4'
_cell_volume   419.16286959
_cell_formula_units_Z   4
loop_
 _symmetry_equiv_pos_site_id
 _symmetry_equiv_pos_as_xyz
  1  'x, y, z'
loop_
 _atom_site_type_symbol
 _atom_site_label
 _atom_site_symmetry_multiplicity
 _atom_site_fract_x
 _atom_site_fract_y
 _atom_site_fract_z
 _atom_site_occupancy
  Ba  Ba0  1  0.25000000  0.75076086  0.57046832  1
  Ba  Ba1  1  0.75000000  0.24923914  0.42953168  1
  Ba  Ba2  1  0.75000000  0.25076086  0.92953168  1
  Ba  Ba3  1  0.25000000  0.74923914  0.07046832  1
  Mg  Mg0  1  0.25000000  0.25400471  0.75032346  1
  Mg  Mg1  1  0.75000000  0.74599529  0.24967654  1
  Mg  Mg2  1  0.75000000  0.75400471  0.74967654  1
  Mg  Mg3  1  0.25000000  0.24599529  0.25032346  1
  Sb  Sb0  1  0.25000000  0.74695036  0.33897531  1
  Sb  Sb1  1  0.75000000  0.25304964  0.66102469  1
  Sb  Sb2  1  0.75000000  0.24695036  0.16102469  1
  Sb  Sb3  1  0.25000000  0.75304964  0.83897531  1
  H  H0  1  0.25000000  0.24969274  0.00005513  1
  H  H1  1  0.75000000  0.75030726  0.99994487  1
  H  H2  1  0.75000000  0.74969274  0.49994487  1
  H  H3  1  0.25000000  0.25030726  0.50005513  1
loop_
_geom_bond_atom_site_label_1
_geom_bond_atom_site_label_2
_geom_bond_distance
_geom_bond_site_symmetry_2
Ba0 H3 2.695203 1_565
Ba0 H2 2.698039 1_555
Ba0 H2 2.698039 1_455
Ba0 H3 2.698850 1_555
Ba0 Sb1 3.722504 1_455
Ba0 Sb1 3.722504 1_555
Ba0 Sb1 3.735814 1_565
Ba0 Sb1 3.735814 1_465
Ba1 H2 2.695203 1_545
Ba1 H3 2.698039 1_655
Ba1 H3 2.698039 1_555
Ba1 H2 2.698850 1_555
Ba1 Sb0 3.722504 1_555
Ba1 Sb0 3.722504 1_655
Ba1 Sb0 3.735814 1_645
Ba1 Sb0 3.735814 1_545
Ba2 H1 2.695203 1_555
Ba2 H0 2.698039 1_556
Ba2 H0 2.698039 1_656
Ba2 H1 2.698850 1_545
Ba2 Sb3 3.722504 1_645
Ba2 Sb3 3.722504 1_545
Ba2 Sb3 3.735814 1_655
Ba2 Sb3 3.735814 1_555
Ba3 H0 2.695203 1_555
Ba3 H1 2.698039 1_554
Ba3 H1 2.698039 1_454
Ba3 H0 2.698850 1_565
Ba3 Sb2 3.722504 1_465
Ba3 Sb2 3.722504 1_565
Ba3 Sb2 3.735814 1_455
Ba3 Sb2 3.735814 1_555
Mg0 Sb3 2.887418 1_555
Mg0 Sb3 2.894582 1_545
Mg0 Sb1 2.898368 1_555
Mg0 Sb1 2.898368 1_455
Mg1 Sb2 2.887418 1_555
Mg1 Sb2 2.894582 1_565
Mg1 Sb0 2.898368 1_655
Mg1 Sb0 2.898368 1_555
Mg2 Sb1 2.887418 1_565
Mg2 Sb1 2.894582 1_555
Mg2 Sb3 2.898368 1_555
Mg2 Sb3 2.898368 1_655
Mg3 Sb0 2.887418 1_545
Mg3 Sb0 2.894582 1_555
Mg3 Sb2 2.898368 1_455
Mg3 Sb2 2.898368 1_555
