# generated using pymatgen
data_LaPd5
_symmetry_space_group_name_H-M   'P 1'
_cell_length_a   5.34115546
_cell_length_b   5.34115568
_cell_length_c   4.48770342
_cell_angle_alpha   90.00000000
_cell_angle_beta   90.00000000
_cell_angle_gamma   119.99999863
_symmetry_Int_Tables_number   1
_chemical_formula_structural   LaPd5
_chemical_formula_sum   'La1 Pd5'
_cell_volume   110.87285762
_cell_formula_units_Z   1
loop_
 _symmetry_equiv_pos_site_id
 _symmetry_equiv_pos_as_xyz
  1  'x, y, z'
loop_
 _atom_site_type_symbol
 _atom_site_label
 _atom_site_symmetry_multiplicity
 _atom_site_fract_x
 _atom_site_fract_y
 _atom_site_fract_z
 _atom_site_occupancy
  La  La0  1  -0.00000000  -0.00000000  0.00000000  1
  Pd  Pd0  1  -0.00000000  0.50000000  0.50000000  1
  Pd  Pd1  1  0.33333300  0.66666700  0.00000000  1
  Pd  Pd2  1  0.66666700  0.33333300  -0.00000000  1
  Pd  Pd3  1  0.50000000  -0.00000000  0.50000000  1
  Pd  Pd4  1  0.50000000  0.50000000  0.50000000  1
loop_
_geom_bond_atom_site_label_1
_geom_bond_atom_site_label_2
_geom_bond_distance
_geom_bond_site_symmetry_2
La0 Pd2 3.083715 1_455
La0 Pd1 3.083715 1_545
La0 Pd1 3.083719 1_445
La0 Pd2 3.083719 1_555
La0 Pd1 3.083719 1_555
La0 Pd2 3.083719 1_445
La0 Pd3 3.488102 1_555
La0 Pd3 3.488102 1_455
La0 Pd3 3.488102 1_454
La0 Pd3 3.488102 1_554
La0 Pd0 3.488102 1_545
La0 Pd0 3.488102 1_555
La0 Pd0 3.488102 1_544
La0 Pd0 3.488102 1_554
La0 Pd4 3.488102 1_445
La0 Pd4 3.488102 1_555
La0 Pd4 3.488102 1_554
La0 Pd4 3.488102 1_444
Pd0 Pd4 2.670578 1_555
Pd0 Pd4 2.670578 1_455
Pd0 Pd3 2.670578 1_565
Pd0 Pd3 2.670578 1_455
Pd0 Pd1 2.722535 1_556
Pd0 Pd2 2.722535 1_456
Pd0 Pd2 2.722535 1_455
Pd0 Pd1 2.722535 1_555
Pd1 Pd3 2.722535 1_565
Pd1 Pd3 2.722535 1_564
Pd1 Pd4 2.722537 1_555
Pd1 Pd4 2.722537 1_554
Pd1 Pd2 3.083715 1_455
Pd1 Pd2 3.083715 1_565
Pd1 Pd2 3.083724 1_555
Pd2 Pd3 2.722535 1_554
Pd2 Pd3 2.722535 1_555
Pd2 Pd4 2.722537 1_555
Pd2 Pd4 2.722537 1_554
Pd3 Pd4 2.670578 1_555
Pd3 Pd4 2.670578 1_545
