# generated using pymatgen
data_Nb6Si7Ni16
_symmetry_space_group_name_H-M   'P 1'
_cell_length_a   7.90857692
_cell_length_b   7.90857806
_cell_length_c   7.90857780
_cell_angle_alpha   60.00386917
_cell_angle_beta   60.00386642
_cell_angle_gamma   60.00387828
_symmetry_Int_Tables_number   1
_chemical_formula_structural   Nb6Si7Ni16
_chemical_formula_sum   'Nb6 Si7 Ni16'
_cell_volume   349.79875386
_cell_formula_units_Z   1
loop_
 _symmetry_equiv_pos_site_id
 _symmetry_equiv_pos_as_xyz
  1  'x, y, z'
loop_
 _atom_site_type_symbol
 _atom_site_label
 _atom_site_symmetry_multiplicity
 _atom_site_fract_x
 _atom_site_fract_y
 _atom_site_fract_z
 _atom_site_occupancy
  Nb  Nb0  1  0.79583964  0.79583974  0.20416057  1
  Nb  Nb1  1  0.79583929  0.20416087  0.79583973  1
  Nb  Nb2  1  0.20416069  0.79583924  0.20416107  1
  Nb  Nb3  1  0.79583928  0.20416057  0.20416085  1
  Nb  Nb4  1  0.20416092  0.79583911  0.79583889  1
  Nb  Nb5  1  0.20416090  0.20416077  0.79583980  1
  Si  Si0  1  0.49999994  0.50000034  0.49999925  1
  Si  Si1  1  0.50000397  -0.00000282  0.50000192  1
  Si  Si2  1  -0.00000456  0.50000396  -0.00000352  1
  Si  Si3  1  -0.00000358  -0.00000253  0.50000128  1
  Si  Si4  1  0.50000387  -0.00000451  -0.00000435  1
  Si  Si5  1  -0.00000255  0.50000424  0.50000104  1
  Si  Si6  1  0.50000316  0.50000466  -0.00000357  1
  Ni  Ni0  1  0.16855920  0.16855949  0.49432124  1
  Ni  Ni1  1  0.49432013  0.16856100  0.16855958  1
  Ni  Ni2  1  0.16856033  0.16855997  0.16856109  1
  Ni  Ni3  1  0.50572022  0.83142651  0.83142697  1
  Ni  Ni4  1  0.83142685  0.83142742  0.83142565  1
  Ni  Ni5  1  0.83142696  0.83142694  0.50572059  1
  Ni  Ni6  1  0.16856124  0.49431908  0.16856020  1
  Ni  Ni7  1  0.61677510  0.14968057  0.61677489  1
  Ni  Ni8  1  0.38323957  0.38323866  0.85028109  1
  Ni  Ni9  1  0.85028217  0.38323682  0.38324005  1
  Ni  Ni10  1  0.38324100  0.38324089  0.38324106  1
  Ni  Ni11  1  0.14968032  0.61677496  0.61677473  1
  Ni  Ni12  1  0.61677097  0.61676974  0.61677307  1
  Ni  Ni13  1  0.61677438  0.61677445  0.14967939  1
  Ni  Ni14  1  0.38323711  0.85028257  0.38323922  1
  Ni  Ni15  1  0.83142650  0.50571933  0.83142723  1
loop_
_geom_bond_atom_site_label_1
_geom_bond_atom_site_label_2
_geom_bond_distance
_geom_bond_site_symmetry_2
Nb0 Ni1 2.695868 1_565
Nb0 Ni5 2.695869 1_555
Nb0 Ni6 2.695873 1_655
Nb0 Ni4 2.695936 1_554
Nb0 Ni13 2.724349 1_555
Nb0 Ni14 2.724527 1_555
Nb0 Ni9 2.724530 1_555
Nb0 Ni12 2.724589 1_555
Nb0 Si2 2.842773 1_655
Nb0 Si4 2.842777 1_565
Nb0 Si5 2.842821 1_655
Nb0 Si1 2.842824 1_565
Nb1 Ni15 2.695857 1_555
Nb1 Ni0 2.695858 1_655
Nb1 Ni1 2.695859 1_556
Nb1 Ni4 2.695929 1_545
Nb1 Ni7 2.724334 1_555
Nb1 Ni9 2.724507 1_555
Nb1 Ni8 2.724510 1_555
Nb1 Ni12 2.724565 1_555
Nb1 Si4 2.842777 1_556
Nb1 Si3 2.842785 1_655
Nb1 Si6 2.842835 1_556
Nb1 Si5 2.842841 1_655
Nb2 Ni6 2.695679 1_555
Nb2 Ni2 2.695746 1_565
Nb2 Ni5 2.696050 1_455
Nb2 Ni3 2.696052 1_554
Nb2 Ni14 2.724309 1_555
Nb2 Ni10 2.724545 1_555
Nb2 Ni13 2.724547 1_555
Nb2 Ni11 2.724549 1_555
Nb2 Si3 2.842761 1_565
Nb2 Si4 2.842768 1_565
Nb2 Si5 2.842819 1_555
Nb2 Si6 2.842826 1_555
Nb3 Ni1 2.695673 1_555
Nb3 Ni2 2.695748 1_655
Nb3 Ni15 2.696047 1_554
Nb3 Ni5 2.696050 1_545
Nb3 Ni9 2.724313 1_555
Nb3 Ni10 2.724544 1_555
Nb3 Ni13 2.724549 1_555
Nb3 Ni7 2.724552 1_555
Nb3 Si3 2.842757 1_655
Nb3 Si2 2.842770 1_655
Nb3 Si1 2.842822 1_555
Nb3 Si6 2.842835 1_555
Nb4 Ni0 2.695858 1_565
Nb4 Ni3 2.695867 1_555
Nb4 Ni6 2.695869 1_556
Nb4 Ni4 2.695928 1_455
Nb4 Ni11 2.724331 1_555
Nb4 Ni14 2.724507 1_555
Nb4 Ni8 2.724514 1_555
Nb4 Ni12 2.724571 1_555
Nb4 Si2 2.842774 1_556
Nb4 Si3 2.842784 1_565
Nb4 Si6 2.842828 1_556
Nb4 Si1 2.842837 1_565
Nb5 Ni0 2.695679 1_555
Nb5 Ni2 2.695747 1_556
Nb5 Ni15 2.696050 1_455
Nb5 Ni3 2.696052 1_545
Nb5 Ni8 2.724312 1_555
Nb5 Ni10 2.724546 1_555
Nb5 Ni11 2.724552 1_555
Nb5 Ni7 2.724552 1_555
Nb5 Si4 2.842765 1_556
Nb5 Si2 2.842771 1_556
Nb5 Si1 2.842840 1_555
Nb5 Si5 2.842845 1_555
Ni0 Si3 2.283294 1_555
Ni0 Si5 2.283425 1_555
Ni0 Si1 2.283427 1_555
Ni0 Ni10 2.537037 1_555
Ni0 Ni9 2.537081 1_455
Ni0 Ni14 2.537084 1_545
Ni0 Ni2 2.576293 1_555
Ni0 Ni6 2.576452 1_555
Ni0 Ni1 2.576459 1_555
Ni1 Si4 2.283310 1_555
Ni1 Si1 2.283418 1_555
Ni1 Si6 2.283425 1_555
Ni1 Ni10 2.537028 1_555
Ni1 Ni8 2.537088 1_554
Ni1 Ni14 2.537098 1_545
Ni1 Ni2 2.576295 1_555
Ni1 Ni6 2.576437 1_555
Ni2 Si3 2.283454 1_555
Ni2 Si4 2.283477 1_555
Ni2 Si2 2.283479 1_555
Ni2 Ni9 2.537123 1_455
Ni2 Ni8 2.537136 1_554
Ni2 Ni6 2.576291 1_555
Ni3 Si4 2.283221 1_566
Ni3 Si6 2.283357 1_556
Ni3 Si1 2.283377 1_565
Ni3 Ni7 2.536825 1_565
Ni3 Ni4 2.575874 1_555
Ni3 Ni5 2.576026 1_555
Ni4 Si4 2.283405 1_566
Ni4 Si2 2.283411 1_656
Ni4 Si3 2.283415 1_665
Ni4 Ni7 2.536845 1_565
Ni4 Ni5 2.575865 1_555
Ni5 Si3 2.283223 1_665
Ni5 Si1 2.283368 1_565
Ni5 Si5 2.283369 1_655
Ni5 Ni7 2.536820 1_565
Ni6 Si2 2.283305 1_555
Ni6 Si5 2.283410 1_555
Ni6 Si6 2.283419 1_555
Ni6 Ni8 2.537092 1_554
Ni6 Ni9 2.537099 1_455
Ni7 Si0 2.262240 1_555
Ni7 Si1 2.479112 1_555
Ni7 Si4 2.479267 1_556
Ni7 Si3 2.479269 1_655
Ni7 Ni9 2.611992 1_555
Ni7 Ni8 2.611998 1_555
Ni8 Si0 2.261994 1_555
Ni8 Si6 2.479235 1_556
Ni8 Si4 2.479421 1_556
Ni8 Si2 2.479427 1_556
Ni9 Si0 2.261997 1_555
Ni9 Si5 2.479227 1_655
Ni9 Si3 2.479396 1_655
Ni9 Si2 2.479422 1_655
Ni10 Si0 2.261784 1_555
Ni10 Si5 2.479412 1_555
Ni10 Si1 2.479413 1_555
Ni10 Si6 2.479418 1_555
Ni10 Ni6 2.537025 1_555
Ni10 Ni13 2.612012 1_555
Ni10 Ni11 2.612017 1_555
Ni10 Ni7 2.612018 1_555
Ni11 Si0 2.262238 1_555
Ni11 Si5 2.479110 1_555
Ni11 Si2 2.479273 1_556
Ni11 Si3 2.479278 1_565
Ni11 Ni5 2.536817 1_455
Ni11 Ni15 2.536826 1_455
Ni11 Ni4 2.536850 1_455
Ni11 Ni14 2.611998 1_555
Ni11 Ni8 2.612005 1_555
Ni12 Si0 2.262027 1_555
Ni12 Si6 2.479272 1_556
Ni12 Si5 2.479291 1_655
Ni12 Si1 2.479298 1_565
Ni12 Ni15 2.536761 1_555
Ni12 Ni3 2.536767 1_555
Ni12 Ni5 2.536779 1_555
Ni12 Ni8 2.611987 1_555
Ni12 Ni9 2.612007 1_555
Ni12 Ni14 2.612017 1_555
Ni13 Si0 2.262240 1_555
Ni13 Si6 2.479090 1_555
Ni13 Si2 2.479268 1_655
Ni13 Si4 2.479268 1_565
Ni13 Ni3 2.536811 1_554
Ni13 Ni15 2.536813 1_554
Ni13 Ni4 2.536858 1_554
Ni13 Ni14 2.612018 1_555
Ni13 Ni9 2.612021 1_555
Ni14 Si0 2.261997 1_555
Ni14 Si1 2.479230 1_565
Ni14 Si3 2.479405 1_565
Ni14 Si4 2.479422 1_565
Ni14 Ni2 2.537118 1_565
Ni15 Si2 2.283229 1_656
Ni15 Si6 2.283361 1_556
Ni15 Si5 2.283381 1_655
Ni15 Ni4 2.575883 1_555
Ni15 Ni3 2.576028 1_555
Ni15 Ni5 2.576031 1_555
