# generated using pymatgen
data_Zr9TaRe3Ir
_symmetry_space_group_name_H-M   'P 1'
_cell_length_a   8.82671632
_cell_length_b   8.82671598
_cell_length_c   8.52576558
_cell_angle_alpha   90.00000000
_cell_angle_beta   90.00000000
_cell_angle_gamma   120.00000496
_symmetry_Int_Tables_number   1
_chemical_formula_structural   Zr9TaRe3Ir
_chemical_formula_sum   'Zr18 Ta2 Re6 Ir2'
_cell_volume   575.25753845
_cell_formula_units_Z   2
loop_
 _symmetry_equiv_pos_site_id
 _symmetry_equiv_pos_as_xyz
  1  'x, y, z'
loop_
 _atom_site_type_symbol
 _atom_site_label
 _atom_site_symmetry_multiplicity
 _atom_site_fract_x
 _atom_site_fract_y
 _atom_site_fract_z
 _atom_site_occupancy
  Zr  Zr0  1  0.19737635  0.80262365  0.44478574  1
  Zr  Zr1  1  0.19737635  0.39475270  0.44478574  1
  Zr  Zr2  1  0.60524730  0.80262365  0.44478574  1
  Zr  Zr3  1  0.80262365  0.19737635  0.55521426  1
  Zr  Zr4  1  0.80262365  0.60524730  0.55521426  1
  Zr  Zr5  1  0.39475270  0.19737635  0.55521426  1
  Zr  Zr6  1  0.80262365  0.19737635  0.94478574  1
  Zr  Zr7  1  0.80262365  0.60524730  0.94478574  1
  Zr  Zr8  1  0.39475270  0.19737635  0.94478574  1
  Zr  Zr9  1  0.19737635  0.80262365  0.05521426  1
  Zr  Zr10  1  0.19737635  0.39475270  0.05521426  1
  Zr  Zr11  1  0.60524730  0.80262365  0.05521426  1
  Zr  Zr12  1  0.54230065  0.45769935  0.25000000  1
  Zr  Zr13  1  0.54230065  0.08460131  0.25000000  1
  Zr  Zr14  1  0.91539869  0.45769935  0.25000000  1
  Zr  Zr15  1  0.45769935  0.54230065  0.75000000  1
  Zr  Zr16  1  0.45769935  0.91539869  0.75000000  1
  Zr  Zr17  1  0.08460131  0.54230065  0.75000000  1
  Ta  Ta0  1  0.00000000  0.00000000  0.50000000  1
  Ta  Ta1  1  0.00000000  0.00000000  0.00000000  1
  Re  Re0  1  0.88832348  0.11167652  0.25000000  1
  Re  Re1  1  0.88832348  0.77664797  0.25000000  1
  Re  Re2  1  0.22335203  0.11167652  0.25000000  1
  Re  Re3  1  0.11167652  0.88832348  0.75000000  1
  Re  Re4  1  0.11167652  0.22335203  0.75000000  1
  Re  Re5  1  0.77664797  0.88832348  0.75000000  1
  Ir  Ir0  1  0.33333300  0.66666700  0.25000000  1
  Ir  Ir1  1  0.66666700  0.33333300  0.75000000  1
loop_
_geom_bond_atom_site_label_1
_geom_bond_atom_site_label_2
_geom_bond_distance
_geom_bond_site_symmetry_2
Zr0 Zr5 3.161016 1_565
Zr0 Zr4 3.161016 1_455
Zr0 Zr14 3.262562 1_455
Zr0 Zr13 3.262562 1_565
Zr0 Zr17 3.279455 1_555
Zr0 Zr16 3.279455 1_555
Zr0 Zr9 3.321395 1_555
Zr0 Zr1 3.600161 1_555
Zr0 Zr2 3.600161 1_555
Zr1 Zr3 3.161016 1_455
Zr1 Zr5 3.161017 1_555
Zr1 Zr12 3.262562 1_555
Zr1 Zr14 3.262562 1_455
Zr1 Zr15 3.279455 1_555
Zr1 Zr17 3.279455 1_555
Zr1 Zr10 3.321395 1_555
Zr1 Zr2 3.600161 1_555
Zr2 Zr3 3.161016 1_565
Zr2 Zr4 3.161017 1_555
Zr3 Zr6 3.321395 1_555
Zr3 Zr4 3.600161 1_555
Zr3 Zr5 3.600161 1_555
Zr4 Zr7 3.321395 1_555
Zr4 Zr5 3.600161 1_555
Zr5 Zr8 3.321395 1_555
Zr6 Zr7 3.600161 1_555
Zr6 Zr8 3.600161 1_555
Zr7 Zr9 3.161016 1_656
Zr7 Zr8 3.600161 1_555
Zr8 Zr9 3.161016 1_546
Zr10 Zr6 3.161016 1_454
Zr10 Zr8 3.161017 1_554
Zr10 Zr12 3.262562 1_555
Zr10 Zr14 3.262562 1_455
Zr10 Zr15 3.279455 1_554
Zr10 Zr17 3.279455 1_554
Zr10 Zr11 3.600161 1_555
Zr10 Zr9 3.600161 1_555
Zr11 Zr6 3.161016 1_564
Zr11 Zr7 3.161017 1_554
Zr11 Zr12 3.262562 1_555
Zr11 Zr13 3.262562 1_565
Zr11 Zr15 3.279455 1_554
Zr11 Zr16 3.279455 1_554
Zr11 Zr2 3.321395 1_555
Zr11 Zr9 3.600161 1_555
Zr12 Zr2 3.262562 1_555
Zr12 Zr5 3.279455 1_555
Zr12 Zr8 3.279455 1_554
Zr12 Zr4 3.279455 1_555
Zr12 Zr7 3.279455 1_554
Zr12 Zr13 3.293230 1_555
Zr12 Zr14 3.293231 1_555
Zr13 Zr9 3.262562 1_545
Zr13 Zr2 3.262562 1_545
Zr13 Zr3 3.279455 1_555
Zr13 Zr6 3.279455 1_554
Zr13 Zr5 3.279455 1_555
Zr13 Zr8 3.279455 1_554
Zr13 Zr14 3.293230 1_555
Zr14 Zr9 3.262562 1_655
Zr14 Zr3 3.279455 1_555
Zr14 Zr6 3.279455 1_554
Zr14 Zr4 3.279455 1_555
Zr14 Zr7 3.279455 1_554
Zr15 Zr8 3.262562 1_555
Zr15 Zr5 3.262562 1_555
Zr15 Zr7 3.262562 1_555
Zr15 Zr4 3.262562 1_555
Zr15 Zr2 3.279455 1_555
Zr15 Zr16 3.293230 1_555
Zr15 Zr17 3.293231 1_555
Zr16 Zr6 3.262562 1_565
Zr16 Zr3 3.262562 1_565
Zr16 Zr8 3.262562 1_565
Zr16 Zr5 3.262562 1_565
Zr16 Zr9 3.279455 1_556
Zr16 Zr2 3.279455 1_555
Zr16 Zr17 3.293230 1_555
Zr17 Zr6 3.262562 1_455
Zr17 Zr3 3.262562 1_455
Zr17 Zr7 3.262562 1_455
Zr17 Zr4 3.262562 1_455
Zr17 Zr9 3.279455 1_556
Ta0 Zr1 3.054050 1_555
Ta0 Zr4 3.054050 1_445
Ta0 Zr5 3.054051 1_555
Ta0 Zr2 3.054051 1_445
Ta0 Zr3 3.054051 1_455
Ta0 Zr0 3.054051 1_545
Ta1 Zr10 3.054050 1_555
Ta1 Zr7 3.054050 1_444
Ta1 Zr8 3.054051 1_554
Ta1 Zr11 3.054051 1_445
Ta1 Zr9 3.054051 1_545
Ta1 Zr6 3.054051 1_454
Re0 Ta0 2.730948 1_655
Re0 Ta1 2.730948 1_655
Re0 Zr3 2.913419 1_555
Re0 Zr6 2.913419 1_554
Re0 Zr14 2.942042 1_555
Re0 Zr13 2.942042 1_555
Re0 Re1 2.957202 1_545
Re0 Re2 2.957202 1_655
Re0 Zr2 3.102671 1_545
Re0 Zr11 3.102671 1_545
Re0 Zr1 3.102671 1_655
Re0 Zr10 3.102671 1_655
Re1 Ta0 2.730943 1_665
Re1 Ta1 2.730943 1_665
Re1 Zr4 2.913422 1_555
Re1 Zr7 2.913422 1_554
Re1 Zr12 2.942045 1_555
Re1 Zr14 2.942050 1_555
Re1 Re2 2.957202 1_665
Re1 Zr2 3.102667 1_555
Re1 Zr11 3.102667 1_555
Re1 Zr0 3.102674 1_655
Re1 Zr9 3.102674 1_655
Re2 Ta0 2.730943 1_555
Re2 Ta1 2.730943 1_555
Re2 Zr5 2.913422 1_555
Re2 Zr8 2.913422 1_554
Re2 Zr12 2.942045 1_555
Re2 Zr13 2.942050 1_555
Re2 Zr1 3.102667 1_555
Re2 Zr10 3.102667 1_555
Re2 Zr0 3.102674 1_545
Re2 Zr9 3.102674 1_545
Re3 Ta0 2.730948 1_565
Re3 Ta1 2.730948 1_566
Re3 Zr9 2.913419 1_556
Re3 Zr0 2.913419 1_555
Re3 Zr17 2.942042 1_555
Re3 Zr16 2.942042 1_555
Re3 Re4 2.957202 1_565
Re3 Re5 2.957202 1_455
Re3 Zr8 3.102671 1_565
Re3 Zr5 3.102671 1_565
Re3 Zr7 3.102671 1_455
Re3 Zr4 3.102671 1_455
Re4 Ta0 2.730943 1_555
Re4 Ta1 2.730943 1_556
Re4 Zr10 2.913422 1_556
Re4 Zr1 2.913422 1_555
Re4 Zr15 2.942045 1_555
Re4 Zr17 2.942050 1_555
Re4 Re5 2.957202 1_445
Re4 Zr8 3.102667 1_555
Re4 Zr5 3.102667 1_555
Re4 Zr6 3.102674 1_455
Re4 Zr3 3.102674 1_455
Re5 Ta1 2.730943 1_666
Re5 Ta0 2.730943 1_665
Re5 Zr11 2.913422 1_556
Re5 Zr2 2.913422 1_555
Re5 Zr15 2.942045 1_555
Re5 Zr16 2.942050 1_555
Re5 Zr7 3.102667 1_555
Re5 Zr4 3.102667 1_555
Re5 Zr6 3.102674 1_565
Re5 Zr3 3.102674 1_565
Ir0 Zr0 2.660504 1_555
Ir0 Zr9 2.660504 1_555
Ir0 Zr1 2.660510 1_555
Ir0 Zr10 2.660510 1_555
Ir0 Zr2 2.660510 1_555
Ir0 Zr11 2.660510 1_555
Ir0 Zr13 3.194757 1_565
Ir0 Zr14 3.194757 1_455
Ir0 Zr12 3.194765 1_555
Ir1 Zr6 2.660504 1_555
Ir1 Zr3 2.660504 1_555
Ir1 Zr7 2.660510 1_555
Ir1 Zr4 2.660510 1_555
Ir1 Zr8 2.660510 1_555
Ir1 Zr5 2.660510 1_555
Ir1 Zr16 3.194757 1_545
Ir1 Zr17 3.194757 1_655
Ir1 Zr15 3.194765 1_555
