# generated using pymatgen
data_Rb8Sb4Pb
_symmetry_space_group_name_H-M   'P 1'
_cell_length_a   12.08571245
_cell_length_b   12.08571295
_cell_length_c   12.08571203
_cell_angle_alpha   59.99999984
_cell_angle_beta   59.99999848
_cell_angle_gamma   59.99999881
_symmetry_Int_Tables_number   1
_chemical_formula_structural   Rb8Sb4Pb
_chemical_formula_sum   'Rb16 Sb8 Pb2'
_cell_volume   1248.25055309
_cell_formula_units_Z   2
loop_
 _symmetry_equiv_pos_site_id
 _symmetry_equiv_pos_as_xyz
  1  'x, y, z'
loop_
 _atom_site_type_symbol
 _atom_site_label
 _atom_site_symmetry_multiplicity
 _atom_site_fract_x
 _atom_site_fract_y
 _atom_site_fract_z
 _atom_site_occupancy
  Rb  Rb0  1  0.62500000  0.12500000  0.62500000  1
  Rb  Rb1  1  0.62500000  0.62500000  0.12500000  1
  Rb  Rb2  1  0.12500000  0.62500000  0.62500000  1
  Rb  Rb3  1  0.62500000  0.62500000  0.62500000  1
  Rb  Rb4  1  0.02252206  0.02252206  0.47747794  1
  Rb  Rb5  1  0.77252206  0.22747794  0.22747794  1
  Rb  Rb6  1  0.22747794  0.77252206  0.77252206  1
  Rb  Rb7  1  0.77252206  0.77252206  0.22747794  1
  Rb  Rb8  1  0.77252206  0.22747794  0.77252206  1
  Rb  Rb9  1  0.22747794  0.77252206  0.22747794  1
  Rb  Rb10  1  0.47747794  0.02252206  0.47747794  1
  Rb  Rb11  1  0.47747794  0.02252206  0.02252206  1
  Rb  Rb12  1  0.02252206  0.47747794  0.47747794  1
  Rb  Rb13  1  0.02252206  0.47747794  0.02252206  1
  Rb  Rb14  1  0.22747794  0.22747794  0.77252206  1
  Rb  Rb15  1  0.47747794  0.47747794  0.02252206  1
  Sb  Sb0  1  0.39786568  0.80640296  0.39786568  1
  Sb  Sb1  1  0.85213432  0.85213432  0.44359704  1
  Sb  Sb2  1  0.44359704  0.85213432  0.85213432  1
  Sb  Sb3  1  0.85213432  0.85213432  0.85213432  1
  Sb  Sb4  1  0.80640296  0.39786568  0.39786568  1
  Sb  Sb5  1  0.39786568  0.39786568  0.39786568  1
  Sb  Sb6  1  0.39786568  0.39786568  0.80640296  1
  Sb  Sb7  1  0.85213432  0.44359704  0.85213432  1
  Pb  Pb0  1  0.75000000  0.75000000  0.75000000  1
  Pb  Pb1  1  0.50000000  0.50000000  0.50000000  1
loop_
_geom_bond_atom_site_label_1
_geom_bond_atom_site_label_2
_geom_bond_distance
_geom_bond_site_symmetry_2
Rb0 Sb3 3.921276 1_545
Rb0 Sb5 3.921276 1_555
Rb0 Sb6 3.921276 1_555
Rb0 Sb1 3.921276 1_545
Rb0 Sb4 3.921276 1_555
Rb0 Sb2 3.921276 1_545
Rb1 Sb0 3.921275 1_555
Rb1 Sb7 3.921275 1_554
Rb1 Sb4 3.921276 1_555
Rb1 Sb2 3.921276 1_554
Rb1 Sb3 3.921276 1_554
Rb1 Sb5 3.921276 1_555
Rb2 Sb3 3.921276 1_455
Rb2 Sb5 3.921276 1_555
Rb2 Sb6 3.921276 1_555
Rb2 Sb1 3.921276 1_455
Rb2 Sb0 3.921276 1_555
Rb2 Sb7 3.921276 1_455
Rb3 Sb7 3.921276 1_555
Rb3 Sb0 3.921276 1_555
Rb3 Sb2 3.921276 1_555
Rb3 Sb4 3.921276 1_555
Rb3 Sb1 3.921276 1_555
Rb3 Sb6 3.921276 1_555
Rb4 Sb3 3.817816 1_445
Rb4 Sb1 3.817816 1_445
Rb4 Sb0 3.824383 1_545
Rb4 Sb4 3.824384 1_455
Rb5 Sb5 3.817816 1_555
Rb5 Sb4 3.817816 1_555
Rb5 Sb7 3.824383 1_554
Rb5 Sb1 3.824384 1_545
Rb6 Sb0 3.817816 1_555
Rb6 Sb6 3.817816 1_555
Rb6 Sb3 3.824383 1_455
Rb6 Sb2 3.824384 1_555
Rb7 Sb0 3.817816 1_555
Rb7 Sb4 3.817816 1_555
Rb7 Sb3 3.824383 1_554
Rb7 Sb1 3.824383 1_555
Rb8 Sb4 3.817816 1_555
Rb8 Sb6 3.817816 1_555
Rb8 Sb7 3.824384 1_555
Rb8 Sb3 3.824384 1_545
Rb9 Sb0 3.817816 1_555
Rb9 Sb5 3.817816 1_555
Rb9 Sb2 3.824383 1_554
Rb9 Sb1 3.824383 1_455
Rb10 Sb2 3.817816 1_545
Rb10 Sb1 3.817816 1_545
Rb10 Sb0 3.824384 1_545
Rb10 Sb5 3.824384 1_555
Rb11 Sb3 3.817816 1_544
Rb11 Sb2 3.817816 1_544
Rb11 Sb0 3.824383 1_545
Rb11 Sb6 3.824384 1_554
Rb12 Sb7 3.817816 1_455
Rb12 Sb1 3.817816 1_455
Rb12 Sb5 3.824383 1_555
Rb12 Sb4 3.824384 1_455
Rb13 Sb7 3.817816 1_454
Rb13 Sb3 3.817816 1_454
Rb13 Sb4 3.824383 1_455
Rb13 Sb6 3.824383 1_554
Rb14 Sb5 3.817816 1_555
Rb14 Sb6 3.817816 1_555
Rb14 Sb7 3.824383 1_455
Rb14 Sb2 3.824384 1_545
Rb15 Sb7 3.817816 1_554
Rb15 Sb2 3.817816 1_554
Rb15 Sb5 3.824383 1_555
Rb15 Sb6 3.824383 1_554
Pb0 Sb1 3.023567 1_555
Pb0 Sb2 3.023567 1_555
Pb0 Sb3 3.023567 1_555
Pb0 Sb7 3.023567 1_555
Pb0 Rb1 3.700478 1_556
Pb0 Rb2 3.700479 1_655
Pb0 Rb3 3.700479 1_555
Pb0 Rb0 3.700479 1_565
Pb1 Sb6 3.023567 1_555
Pb1 Sb4 3.023567 1_555
Pb1 Sb5 3.023567 1_555
Pb1 Sb0 3.023567 1_555
Pb1 Rb1 3.700478 1_555
Pb1 Rb2 3.700479 1_555
Pb1 Rb3 3.700479 1_555
Pb1 Rb0 3.700479 1_555
