# generated using pymatgen
data_Rb2BiSbPt
_symmetry_space_group_name_H-M   'P 1'
_cell_length_a   8.20078161
_cell_length_b   8.20078174
_cell_length_c   6.87103716
_cell_angle_alpha   90.00000000
_cell_angle_beta   90.00000000
_cell_angle_gamma   124.73514478
_symmetry_Int_Tables_number   1
_chemical_formula_structural   Rb2BiSbPt
_chemical_formula_sum   'Rb4 Bi2 Sb2 Pt2'
_cell_volume   379.74855584
_cell_formula_units_Z   2
loop_
 _symmetry_equiv_pos_site_id
 _symmetry_equiv_pos_as_xyz
  1  'x, y, z'
loop_
 _atom_site_type_symbol
 _atom_site_label
 _atom_site_symmetry_multiplicity
 _atom_site_fract_x
 _atom_site_fract_y
 _atom_site_fract_z
 _atom_site_occupancy
  Rb  Rb0  1  0.56428120  0.35545143  0.75000000  1
  Rb  Rb1  1  0.35545143  0.56428120  0.25000000  1
  Rb  Rb2  1  0.18283576  0.79580896  0.75000000  1
  Rb  Rb3  1  0.79580896  0.18283576  0.25000000  1
  Bi  Bi0  1  0.71976859  0.90034108  0.75000000  1
  Bi  Bi1  1  0.90034108  0.71976859  0.25000000  1
  Sb  Sb0  1  0.30487888  0.08118663  0.25000000  1
  Sb  Sb1  1  0.08118663  0.30487888  0.75000000  1
  Pt  Pt0  1  0.04772324  0.04772324  0.00000000  1
  Pt  Pt1  1  0.04772324  0.04772324  0.50000000  1
loop_
_geom_bond_atom_site_label_1
_geom_bond_atom_site_label_2
_geom_bond_distance
_geom_bond_site_symmetry_2
Rb0 Sb1 3.741002 1_555
Rb0 Sb0 3.991811 1_556
Rb0 Sb0 3.991811 1_555
Rb1 Sb0 3.741002 1_555
Rb1 Sb1 3.991811 1_555
Rb1 Sb1 3.991811 1_554
Rb2 Sb1 3.616512 1_555
Rb2 Sb0 3.951249 1_565
Rb2 Sb0 3.951249 1_566
Rb3 Sb0 3.616512 1_555
Rb3 Sb1 3.951249 1_655
Rb3 Sb1 3.951249 1_654
Bi0 Pt0 2.817895 1_666
Bi0 Pt1 2.817895 1_665
Bi0 Sb1 2.930111 1_665
Bi0 Rb0 3.885933 1_555
Bi0 Rb2 3.977706 1_555
Bi0 Rb3 3.989030 1_566
Bi0 Rb3 3.989030 1_565
Bi0 Rb1 4.352152 1_555
Bi0 Rb1 4.352152 1_556
Bi1 Pt1 2.817895 1_665
Bi1 Pt0 2.817895 1_665
Bi1 Sb0 2.930111 1_665
Bi1 Rb1 3.885933 1_555
Bi1 Rb3 3.977706 1_555
Bi1 Rb2 3.989030 1_655
Bi1 Rb2 3.989030 1_654
Bi1 Rb0 4.352152 1_555
Bi1 Rb0 4.352152 1_554
Pt0 Sb0 2.610339 1_555
Pt0 Sb1 2.610339 1_554
Pt0 Rb3 3.324889 1_455
Pt0 Rb2 3.324889 1_544
Pt0 Rb0 3.883557 1_554
Pt0 Rb1 3.883557 1_555
Pt1 Sb0 2.610339 1_555
Pt1 Sb1 2.610339 1_555
Pt1 Rb3 3.324889 1_455
Pt1 Rb2 3.324889 1_545
Pt1 Rb0 3.883557 1_555
Pt1 Rb1 3.883557 1_555
