# generated using pymatgen
data_Zr16Co4Os3Rh
_symmetry_space_group_name_H-M   'P 1'
_cell_length_a   8.65794295
_cell_length_b   8.65817162
_cell_length_c   8.65798981
_cell_angle_alpha   59.92683409
_cell_angle_beta   59.92769400
_cell_angle_gamma   59.92706696
_symmetry_Int_Tables_number   1
_chemical_formula_structural   Zr16Co4Os3Rh
_chemical_formula_sum   'Zr16 Co4 Os3 Rh1'
_cell_volume   458.16848973
_cell_formula_units_Z   1
loop_
 _symmetry_equiv_pos_site_id
 _symmetry_equiv_pos_as_xyz
  1  'x, y, z'
loop_
 _atom_site_type_symbol
 _atom_site_label
 _atom_site_symmetry_multiplicity
 _atom_site_fract_x
 _atom_site_fract_y
 _atom_site_fract_z
 _atom_site_occupancy
  Zr  Zr0  1  0.05438672  0.64892903  0.64892659  1
  Zr  Zr1  1  0.64891344  0.05443211  0.64892496  1
  Zr  Zr2  1  0.64892768  0.64894257  0.05438631  1
  Zr  Zr3  1  0.64940332  0.64937365  0.64938114  1
  Zr  Zr4  1  0.79885159  0.79882733  0.20108294  1
  Zr  Zr5  1  0.20108091  0.20110024  0.80022349  1
  Zr  Zr6  1  0.79884460  0.20108019  0.79883798  1
  Zr  Zr7  1  0.20111052  0.80018156  0.20111593  1
  Zr  Zr8  1  0.20108980  0.79882049  0.79884178  1
  Zr  Zr9  1  0.80019504  0.20111780  0.20110540  1
  Zr  Zr10  1  0.43583198  0.43580950  0.05961306  1
  Zr  Zr11  1  0.06351956  0.06350504  0.43597893  1
  Zr  Zr12  1  0.43583235  0.05958811  0.43583411  1
  Zr  Zr13  1  0.06351658  0.43597796  0.06351327  1
  Zr  Zr14  1  0.05962908  0.43580036  0.43582321  1
  Zr  Zr15  1  0.43598029  0.06351456  0.06352108  1
  Co  Co0  1  0.42036165  0.86046386  0.86042674  1
  Co  Co1  1  0.86043325  0.42037008  0.86045838  1
  Co  Co2  1  0.86042220  0.86048059  0.42036185  1
  Co  Co3  1  0.85950396  0.85950599  0.85948277  1
  Os  Os0  1  0.74741031  0.41857714  0.41857156  1
  Os  Os1  1  0.41857487  0.74740059  0.41857075  1
  Os  Os2  1  0.41857281  0.41857367  0.74740640  1
  Rh  Rh0  1  0.41760650  0.41762760  0.41761136  1
loop_
_geom_bond_atom_site_label_1
_geom_bond_atom_site_label_2
_geom_bond_distance
_geom_bond_site_symmetry_2
Co0 Zr5 2.532550 1_565
Co0 Zr7 2.532775 1_556
Co0 Zr8 2.547232 1_555
Co0 Zr3 2.587428 1_555
Co0 Zr2 2.589629 1_556
Co0 Zr1 2.589638 1_565
Co1 Zr9 2.532521 1_556
Co1 Zr5 2.532564 1_655
Co1 Zr6 2.547308 1_555
Co1 Zr3 2.587176 1_555
Co1 Zr2 2.589555 1_556
Co1 Zr0 2.589603 1_655
Co2 Zr9 2.532495 1_565
Co2 Zr7 2.532753 1_655
Co2 Zr4 2.547272 1_555
Co2 Zr3 2.587342 1_555
Co2 Zr1 2.589629 1_565
Co2 Zr0 2.589650 1_655
Co3 Zr8 2.541876 1_655
Co3 Zr6 2.541901 1_565
Co3 Zr4 2.541997 1_556
Co3 Zr0 2.580639 1_655
Co3 Zr1 2.580645 1_565
Co3 Zr2 2.580655 1_556
Os0 Os1 2.843885 1_555
Os0 Os2 2.843940 1_555
Os0 Zr14 2.860531 1_655
Os0 Rh0 2.863732 1_555
Os0 Zr13 2.912112 1_655
Os0 Zr11 2.912197 1_655
Os0 Zr4 2.999850 1_555
Os0 Zr6 2.999881 1_555
Os0 Zr9 3.021080 1_555
Os0 Zr3 3.051206 1_555
Os0 Zr1 3.055060 1_555
Os0 Zr2 3.055226 1_555
Os1 Os2 2.843899 1_555
Os1 Zr12 2.860552 1_565
Os1 Rh0 2.863619 1_555
Os1 Zr11 2.912088 1_565
Os1 Zr15 2.912096 1_565
Os1 Zr8 2.999905 1_555
Os1 Zr4 2.999952 1_555
Os1 Zr7 3.020981 1_555
Os1 Zr3 3.051303 1_555
Os1 Zr2 3.055170 1_555
Os1 Zr0 3.055232 1_555
Os2 Zr10 2.860538 1_556
Os2 Rh0 2.863683 1_555
Os2 Zr13 2.912103 1_556
Os2 Zr15 2.912152 1_556
Os2 Zr8 2.999815 1_555
Os2 Zr6 2.999904 1_555
Os2 Zr5 3.021229 1_555
Os2 Zr3 3.051307 1_555
Os2 Zr1 3.054985 1_555
Os2 Zr0 3.055214 1_555
Rh0 Zr14 2.949905 1_555
Rh0 Zr10 2.950014 1_555
Rh0 Zr12 2.950275 1_555
Rh0 Zr7 3.012374 1_555
Rh0 Zr9 3.012616 1_555
Rh0 Zr5 3.012830 1_555
Rh0 Zr1 3.050639 1_555
Rh0 Zr0 3.050739 1_555
Rh0 Zr2 3.050824 1_555
