# generated using pymatgen
data_Li3Ti(NbIr3)2
_symmetry_space_group_name_H-M   'P 1'
_cell_length_a   4.32244631
_cell_length_b   6.08375120
_cell_length_c   12.93054375
_cell_angle_alpha   90.00000000
_cell_angle_beta   90.00000000
_cell_angle_gamma   90.00000000
_symmetry_Int_Tables_number   1
_chemical_formula_structural   Li3Ti(NbIr3)2
_chemical_formula_sum   'Li6 Ti2 Nb4 Ir12'
_cell_volume   340.03047317
_cell_formula_units_Z   2
loop_
 _symmetry_equiv_pos_site_id
 _symmetry_equiv_pos_as_xyz
  1  'x, y, z'
loop_
 _atom_site_type_symbol
 _atom_site_label
 _atom_site_symmetry_multiplicity
 _atom_site_fract_x
 _atom_site_fract_y
 _atom_site_fract_z
 _atom_site_occupancy
  Li  Li0  1  0.99996231  0.00000000  0.99696425  1
  Li  Li1  1  0.49961915  0.50000000  0.16433664  1
  Li  Li2  1  0.99962015  0.00000000  0.33566336  1
  Li  Li3  1  0.49996031  0.50000000  0.50303575  1
  Li  Li4  1  0.00046003  0.00000000  0.66739325  1
  Li  Li5  1  0.50045803  0.50000000  0.83260675  1
  Ti  Ti0  1  0.00024121  0.50000000  0.66974199  1
  Ti  Ti1  1  0.50024221  0.00000000  0.83025701  1
  Nb  Nb0  1  0.00005776  0.50000000  0.99502618  1
  Nb  Nb1  1  0.49963495  0.00000000  0.16507371  1
  Nb  Nb2  1  0.99963295  0.50000000  0.33492629  1
  Nb  Nb3  1  0.50005576  0.00000000  0.50497382  1
  Ir  Ir0  1  0.50002946  0.24712290  0.99671599  1
  Ir  Ir1  1  0.50002946  0.75287710  0.99671599  1
  Ir  Ir2  1  0.99970271  0.25035664  0.16584428  1
  Ir  Ir3  1  0.99970271  0.74964236  0.16584428  1
  Ir  Ir4  1  0.49970171  0.24964336  0.33415572  1
  Ir  Ir5  1  0.49970171  0.75035764  0.33415572  1
  Ir  Ir6  1  0.00003146  0.25287610  0.50328401  1
  Ir  Ir7  1  0.00003146  0.74712290  0.50328401  1
  Ir  Ir8  1  0.50027663  0.25362729  0.66926966  1
  Ir  Ir9  1  0.50027663  0.74637371  0.66926966  1
  Ir  Ir10  1  0.00027863  0.24637271  0.83073034  1
  Ir  Ir11  1  0.00027863  0.75362629  0.83073034  1
loop_
_geom_bond_atom_site_label_1
_geom_bond_atom_site_label_2
_geom_bond_distance
_geom_bond_site_symmetry_2
Ir0 Li5 2.621027 1_555
Ir0 Ti1 2.625483 1_555
Ir0 Li0 2.632481 1_555
Ir0 Li0 2.632957 1_455
Ir0 Nb1 2.645649 1_556
Ir0 Nb0 2.652854 1_555
Ir0 Nb0 2.653054 1_655
Ir0 Li1 2.657920 1_556
Ir1 Li5 2.621027 1_555
Ir1 Ti1 2.625483 1_565
Ir1 Li0 2.632481 1_565
Ir1 Li0 2.632957 1_465
Ir1 Nb1 2.645649 1_566
Ir1 Nb0 2.652854 1_555
Ir1 Nb0 2.653054 1_655
Ir1 Li1 2.657920 1_556
Ir2 Li1 2.641280 1_655
Ir2 Li1 2.641871 1_555
Ir2 Nb1 2.643780 1_655
Ir2 Nb1 2.644259 1_555
Ir2 Nb2 2.662079 1_555
Ir2 Li0 2.662414 1_554
Ir2 Li2 2.672382 1_555
Ir2 Nb0 2.680546 1_654
Ir3 Li1 2.641277 1_655
Ir3 Li1 2.641868 1_555
Ir3 Nb1 2.643784 1_665
Ir3 Nb1 2.644263 1_565
Ir3 Nb2 2.662075 1_555
Ir3 Li0 2.662418 1_564
Ir3 Li2 2.672386 1_565
Ir3 Nb0 2.680543 1_654
Ir4 Li2 2.641287 1_555
Ir4 Li2 2.641864 1_455
Ir4 Nb2 2.643777 1_555
Ir4 Nb2 2.644263 1_455
Ir4 Nb1 2.662079 1_555
Ir4 Li3 2.662414 1_555
Ir4 Li1 2.672382 1_555
Ir4 Nb3 2.680546 1_555
Ir5 Li2 2.641284 1_565
Ir5 Li2 2.641861 1_465
Ir5 Nb2 2.643780 1_555
Ir5 Nb2 2.644266 1_455
Ir5 Nb1 2.662075 1_565
Ir5 Li3 2.662418 1_555
Ir5 Li1 2.672386 1_555
Ir5 Nb3 2.680543 1_565
Ir6 Li4 2.621023 1_555
Ir6 Ti0 2.625476 1_555
Ir6 Li3 2.632470 1_555
Ir6 Li3 2.632975 1_455
Ir6 Nb2 2.645652 1_455
Ir6 Nb3 2.652865 1_455
Ir6 Nb3 2.653036 1_555
Ir6 Li2 2.657917 1_455
Ir7 Li4 2.621027 1_565
Ir7 Ti0 2.625473 1_555
Ir7 Li3 2.632467 1_555
Ir7 Li3 2.632972 1_455
Ir7 Nb2 2.645649 1_455
Ir7 Nb3 2.652868 1_465
Ir7 Nb3 2.653040 1_565
Ir7 Li2 2.657920 1_465
Ir8 Li5 2.589848 1_555
Ir8 Ti1 2.591167 1_555
Ir8 Li3 2.620485 1_555
Ir8 Nb3 2.625660 1_555
Ir8 Ti0 2.629995 1_655
Ir8 Ti0 2.630247 1_555
Ir8 Li4 2.654979 1_555
Ir8 Li4 2.656269 1_655
Ir9 Li5 2.589852 1_555
Ir9 Ti1 2.591164 1_565
Ir9 Li3 2.620489 1_555
Ir9 Nb3 2.625656 1_565
Ir9 Ti0 2.629998 1_655
Ir9 Ti0 2.630250 1_555
Ir9 Li4 2.654975 1_565
Ir9 Li4 2.656266 1_665
Ir10 Li4 2.589848 1_555
Ir10 Ti0 2.591178 1_555
Ir10 Li0 2.620485 1_455
Ir10 Nb0 2.625660 1_555
Ir10 Ti1 2.629991 1_555
Ir10 Ti1 2.630250 1_455
Ir10 Li5 2.654993 1_455
Ir10 Li5 2.656255 1_555
Ir11 Li4 2.589852 1_565
Ir11 Ti0 2.591174 1_555
Ir11 Li0 2.620489 1_465
Ir11 Nb0 2.625656 1_555
Ir11 Ti1 2.629995 1_565
Ir11 Ti1 2.630254 1_465
Ir11 Li5 2.654990 1_455
Ir11 Li5 2.656252 1_555
