# generated using pymatgen
data_B4PdPt3Rh4
_symmetry_space_group_name_H-M   'P 1'
_cell_length_a   6.11086867
_cell_length_b   5.45913687
_cell_length_c   6.74272213
_cell_angle_alpha   58.35089343
_cell_angle_beta   49.99411125
_cell_angle_gamma   69.71100784
_symmetry_Int_Tables_number   1
_chemical_formula_structural   B4PdPt3Rh4
_chemical_formula_sum   'B4 Pd1 Pt3 Rh4'
_cell_volume   146.65754849
_cell_formula_units_Z   1
loop_
 _symmetry_equiv_pos_site_id
 _symmetry_equiv_pos_as_xyz
  1  'x, y, z'
loop_
 _atom_site_type_symbol
 _atom_site_label
 _atom_site_symmetry_multiplicity
 _atom_site_fract_x
 _atom_site_fract_y
 _atom_site_fract_z
 _atom_site_occupancy
  B  B0  1  0.46059055  0.10096397  0.99804276  1
  B  B1  1  0.80730294  0.24928861  0.15104929  1
  B  B2  1  0.10451574  0.45611132  0.43686054  1
  B  B3  1  0.25519100  0.81448743  0.79284268  1
  Pd  Pd0  1  0.02203668  0.63183910  0.71621437  1
  Pt  Pt0  1  0.53091660  0.61955386  0.22987924  1
  Pt  Pt1  1  0.61850262  0.53082662  0.61863193  1
  Pt  Pt2  1  0.62812967  0.01995476  0.63099495  1
  Rh  Rh0  1  0.09881302  0.41005130  0.13995422  1
  Rh  Rh1  1  0.10965423  0.90064570  0.14849998  1
  Rh  Rh2  1  0.40900640  0.10040488  0.34929174  1
  Rh  Rh3  1  0.90011356  0.11064146  0.84296531  1
loop_
_geom_bond_atom_site_label_1
_geom_bond_atom_site_label_2
_geom_bond_distance
_geom_bond_site_symmetry_2
B0 Rh1 2.118721 1_546
B0 Rh3 2.177051 1_555
B0 Rh2 2.177560 1_556
B0 Pt2 2.223888 1_555
B0 Rh0 2.244494 1_556
B0 Pt1 2.253668 1_555
B0 Pt0 2.303105 1_546
B1 Rh2 2.102420 1_555
B1 Rh1 2.142722 1_645
B1 Rh0 2.189318 1_655
B1 Pt0 2.196937 1_555
B1 Rh3 2.246632 1_554
B1 Pd0 2.282057 1_654
B1 Pt2 2.319912 1_555
B2 Rh3 2.105160 1_455
B2 Rh1 2.166403 1_555
B2 Rh0 2.167099 1_555
B2 Rh2 2.206015 1_555
B2 Pd0 2.250032 1_555
B2 Pt0 2.272309 1_555
B2 Pt1 2.343833 1_455
B3 Rh0 2.104846 1_556
B3 Rh3 2.152655 1_465
B3 Rh2 2.183697 1_565
B3 Pt1 2.208715 1_555
B3 Rh1 2.216866 1_556
B3 Pt2 2.221121 1_565
B3 Pd0 2.400739 1_555
