# generated using pymatgen
data_K(BiRh)2
_symmetry_space_group_name_H-M   'P 1'
_cell_length_a   7.92021504
_cell_length_b   7.92021509
_cell_length_c   7.92021580
_cell_angle_alpha   148.84482845
_cell_angle_beta   148.84483231
_cell_angle_gamma   44.63975728
_symmetry_Int_Tables_number   1
_chemical_formula_structural   K(BiRh)2
_chemical_formula_sum   'K1 Bi2 Rh2'
_cell_volume   132.57967866
_cell_formula_units_Z   1
loop_
 _symmetry_equiv_pos_site_id
 _symmetry_equiv_pos_as_xyz
  1  'x, y, z'
loop_
 _atom_site_type_symbol
 _atom_site_label
 _atom_site_symmetry_multiplicity
 _atom_site_fract_x
 _atom_site_fract_y
 _atom_site_fract_z
 _atom_site_occupancy
  K  K0  1  0.00000000  0.00000000  0.00000000  1
  Bi  Bi0  1  0.64069627  0.64069627  0.00000000  1
  Bi  Bi1  1  0.35930373  0.35930373  1.00000000  1
  Rh  Rh0  1  0.75000000  0.25000000  0.50000000  1
  Rh  Rh1  1  0.25000000  0.75000000  0.50000000  1
loop_
_geom_bond_atom_site_label_1
_geom_bond_atom_site_label_2
_geom_bond_distance
_geom_bond_site_symmetry_2
Bi0 Rh1 2.662558 1_655
Bi0 Rh0 2.662558 1_565
Bi0 Rh1 2.662558 1_554
Bi0 Rh0 2.662558 1_554
Bi0 K0 3.646672 1_554
Bi0 K0 3.646672 1_565
Bi0 K0 3.646672 1_655
Bi0 K0 3.646673 1_666
Bi1 Rh0 2.662558 1_455
Bi1 Rh1 2.662558 1_545
Bi1 Rh0 2.662558 1_556
Bi1 Rh1 2.662558 1_556
Bi1 K0 3.646672 1_667
Bi1 K0 3.646672 1_656
Bi1 K0 3.646672 1_566
Bi1 K0 3.646673 1_555
