# generated using pymatgen
data_Na2AgP2O7
_symmetry_space_group_name_H-M   'P 1'
_cell_length_a   5.87011851
_cell_length_b   8.88376084
_cell_length_c   8.16896737
_cell_angle_alpha   125.38397274
_cell_angle_beta   89.99673385
_cell_angle_gamma   109.28685744
_symmetry_Int_Tables_number   1
_chemical_formula_structural   Na2AgP2O7
_chemical_formula_sum   'Na4 Ag2 P4 O14'
_cell_volume   317.54174639
_cell_formula_units_Z   2
loop_
 _symmetry_equiv_pos_site_id
 _symmetry_equiv_pos_as_xyz
  1  'x, y, z'
loop_
 _atom_site_type_symbol
 _atom_site_label
 _atom_site_symmetry_multiplicity
 _atom_site_fract_x
 _atom_site_fract_y
 _atom_site_fract_z
 _atom_site_occupancy
  Na  Na0  1  0.60123032  0.96543975  0.16380204  1
  Na  Na1  1  0.13579232  0.03475759  0.33587664  1
  Na  Na2  1  0.86420868  0.96524241  0.66412336  1
  Na  Na3  1  0.39876968  0.03456025  0.83619796  1
  Ag  Ag0  1  0.49999900  0.49999900  0.00000000  1
  Ag  Ag1  1  0.49999900  0.49999900  0.49999900  1
  P  P0  1  0.03572686  0.28271041  0.13210650  1
  P  P1  1  0.25322634  0.71749720  0.36818787  1
  P  P2  1  0.74677466  0.28250280  0.63181313  1
  P  P3  1  0.96427314  0.71728959  0.86789350  1
  O  O0  1  0.20284695  0.26345844  0.98166184  1
  O  O1  1  0.77630351  0.12455763  0.01927217  1
  O  O2  1  0.36574508  0.71932984  0.20011807  1
  O  O3  1  0.02394727  0.50007931  0.25019972  1
  O  O4  1  0.14625767  0.28065196  0.30004659  1
  O  O5  1  0.15201795  0.87571029  0.48091260  1
  O  O6  1  0.43936071  0.73663377  0.51863335  1
  O  O7  1  0.56064029  0.26336623  0.48136765  1
  O  O8  1  0.84798205  0.12428971  0.51908840  1
  O  O9  1  0.85374333  0.71934804  0.69995341  1
  O  O10  1  0.97605273  0.49992069  0.74979928  1
  O  O11  1  0.63425592  0.28067016  0.79988193  1
  O  O12  1  0.22369649  0.87544237  0.98072883  1
  O  O13  1  0.79715405  0.73654156  0.01833916  1
loop_
_geom_bond_atom_site_label_1
_geom_bond_atom_site_label_2
_geom_bond_distance
_geom_bond_site_symmetry_2
Na0 O12 2.287436 1_554
Na0 O1 2.328369 1_565
Na0 O2 2.352384 1_555
Na0 O13 2.369842 1_555
Na0 O7 2.501305 1_565
Na0 O8 2.533748 1_565
Na1 O8 2.288171 1_455
Na1 O5 2.331702 1_545
Na1 O4 2.348012 1_555
Na1 O7 2.369772 1_555
Na1 O13 2.502365 1_445
Na1 O12 2.532442 1_544
Na2 O5 2.288163 1_655
Na2 O8 2.331696 1_565
Na2 O9 2.348012 1_555
Na2 O6 2.369772 1_555
Na2 O0 2.502369 1_665
Na2 O1 2.532451 1_566
Na3 O1 2.287439 1_556
Na3 O12 2.328376 1_545
Na3 O11 2.352386 1_555
Na3 O0 2.369838 1_555
Na3 O6 2.501305 1_545
Na3 O5 2.533741 1_545
Ag0 O2 2.101293 1_555
Ag0 O11 2.101294 1_554
Ag0 O0 2.166777 1_554
Ag0 O13 2.166793 1_555
Ag1 O4 2.101973 1_555
Ag1 O9 2.101991 1_555
Ag1 O6 2.166301 1_555
Ag1 O7 2.166304 1_555
O0 P0 1.539254 1_556
O1 P0 1.493196 1_655
O2 P1 1.529776 1_555
O3 P0 1.610954 1_555
O3 P1 1.611819 1_555
O4 P0 1.529839 1_555
O5 P1 1.493008 1_555
O6 P1 1.539034 1_555
O7 P2 1.539034 1_555
O8 P2 1.493004 1_555
O9 P3 1.529837 1_555
O10 P3 1.610953 1_555
O10 P2 1.611818 1_555
O11 P2 1.529768 1_555
O12 P3 1.493196 1_455
O13 P3 1.539256 1_554
