# generated using pymatgen
data_ScAlF6
_symmetry_space_group_name_H-M   'P 1'
_cell_length_a   9.33955852
_cell_length_b   7.62604778
_cell_length_c   5.38391616
_cell_angle_alpha   135.22822349
_cell_angle_beta   150.14275851
_cell_angle_gamma   35.05539661
_symmetry_Int_Tables_number   1
_chemical_formula_structural   ScAlF6
_chemical_formula_sum   'Sc1 Al1 F6'
_cell_volume   109.64905150
_cell_formula_units_Z   1
loop_
 _symmetry_equiv_pos_site_id
 _symmetry_equiv_pos_as_xyz
  1  'x, y, z'
loop_
 _atom_site_type_symbol
 _atom_site_label
 _atom_site_symmetry_multiplicity
 _atom_site_fract_x
 _atom_site_fract_y
 _atom_site_fract_z
 _atom_site_occupancy
  Sc  Sc0  1  0.50000737  0.24999560  0.99998539  1
  Al  Al0  1  0.49998569  0.75001480  0.99999045  1
  F  F0  1  0.48837703  0.98565032  0.97618016  1
  F  F1  1  0.02854172  0.95169180  0.47240516  1
  F  F2  1  0.44378183  0.01989925  0.41521014  1
  F  F3  1  0.51203078  0.51437657  0.02466117  1
  F  F4  1  0.97146350  0.54816002  0.52720210  1
  F  F5  1  0.55581309  0.48021064  0.58436542  1
loop_
_geom_bond_atom_site_label_1
_geom_bond_atom_site_label_2
_geom_bond_distance
_geom_bond_site_symmetry_2
Al0 F0 1.800354 1_555
Al0 F3 1.800410 1_556
Al0 F5 1.800786 1_555
Al0 F4 1.800808 1_556
Al0 F2 1.800830 1_566
Al0 F1 1.800852 1_555
F0 Sc0 2.014852 1_565
F1 Sc0 2.015959 1_464
F2 Sc0 2.015955 1_555
F3 Sc0 2.014877 1_554
F4 Sc0 2.015857 1_655
F5 Sc0 2.015901 1_554
