# generated using pymatgen
data_RbSrPS4
_symmetry_space_group_name_H-M   'P 1'
_cell_length_a   6.64373590
_cell_length_b   6.74944866
_cell_length_c   17.34385078
_cell_angle_alpha   90.00000000
_cell_angle_beta   90.00000000
_cell_angle_gamma   90.00000000
_symmetry_Int_Tables_number   1
_chemical_formula_structural   RbSrPS4
_chemical_formula_sum   'Rb4 Sr4 P4 S16'
_cell_volume   777.72522715
_cell_formula_units_Z   4
loop_
 _symmetry_equiv_pos_site_id
 _symmetry_equiv_pos_as_xyz
  1  'x, y, z'
loop_
 _atom_site_type_symbol
 _atom_site_label
 _atom_site_symmetry_multiplicity
 _atom_site_fract_x
 _atom_site_fract_y
 _atom_site_fract_z
 _atom_site_occupancy
  Rb  Rb0  1  0.97721269  0.00414909  0.03731919  1
  Rb  Rb1  1  0.47721269  0.49585091  0.96268081  1
  Rb  Rb2  1  0.02278731  0.50414909  0.46268081  1
  Rb  Rb3  1  0.52278731  0.99585091  0.53731919  1
  Sr  Sr0  1  0.28745255  0.49135926  0.22739264  1
  Sr  Sr1  1  0.78745255  0.00864074  0.77260736  1
  Sr  Sr2  1  0.71254745  0.99135926  0.27260736  1
  Sr  Sr3  1  0.21254745  0.50864074  0.72739264  1
  P  P0  1  0.22357513  0.00620472  0.34457385  1
  P  P1  1  0.27642487  0.99379528  0.84457385  1
  P  P2  1  0.72357513  0.49379528  0.65542615  1
  P  P3  1  0.77642487  0.50620472  0.15542615  1
  S  S0  1  0.34724277  0.98257920  0.72963608  1
  S  S1  1  0.15275723  0.01742080  0.22963608  1
  S  S2  1  0.40563382  0.24260353  0.36771503  1
  S  S3  1  0.90563382  0.25739647  0.63228497  1
  S  S4  1  0.89171155  0.74217760  0.63553359  1
  S  S5  1  0.97658947  0.00764463  0.41347209  1
  S  S6  1  0.02341053  0.50764463  0.08652791  1
  S  S7  1  0.10828845  0.24217760  0.86446641  1
  S  S8  1  0.65275723  0.48257920  0.77036392  1
  S  S9  1  0.09436618  0.75739647  0.86771503  1
  S  S10  1  0.59436618  0.74260353  0.13228497  1
  S  S11  1  0.84724277  0.51742080  0.27036392  1
  S  S12  1  0.39171155  0.75782240  0.36446641  1
  S  S13  1  0.47658947  0.49235537  0.58652791  1
  S  S14  1  0.52341053  0.99235537  0.91347209  1
  S  S15  1  0.60828845  0.25782240  0.13553359  1
loop_
_geom_bond_atom_site_label_1
_geom_bond_atom_site_label_2
_geom_bond_distance
_geom_bond_site_symmetry_2
Rb0 S15 3.441028 1_555
Rb0 S9 3.468784 1_644
Rb0 S6 3.471699 1_645
Rb0 S10 3.506942 1_545
Rb0 S7 3.510981 1_654
Rb0 S6 3.517268 1_655
Rb0 S1 3.534668 1_655
Rb0 S14 3.702709 1_544
Rb1 S7 3.441028 1_555
Rb1 S10 3.468784 1_556
Rb1 S14 3.471699 1_555
Rb1 S9 3.506942 1_555
Rb1 S15 3.510981 1_556
Rb1 S14 3.517268 1_545
Rb1 S8 3.534668 1_555
Rb1 S6 3.702709 1_556
Rb2 S12 3.441028 1_555
Rb2 S3 3.468784 1_455
Rb2 S5 3.471699 1_455
Rb2 S2 3.506942 1_555
Rb2 S4 3.510981 1_455
Rb2 S5 3.517268 1_465
Rb2 S11 3.534668 1_455
Rb2 S13 3.702709 1_555
Rb3 S4 3.441028 1_555
Rb3 S2 3.468784 1_565
Rb3 S13 3.471699 1_565
Rb3 S3 3.506942 1_565
Rb3 S12 3.510981 1_555
Rb3 S13 3.517268 1_555
Rb3 S0 3.534668 1_555
Rb3 S5 3.702709 1_565
P0 S5 2.029927 1_455
P0 S2 2.042037 1_555
P0 S12 2.043846 1_545
P0 S1 2.049633 1_555
P1 S14 2.029927 1_555
P1 S9 2.042037 1_555
P1 S7 2.043846 1_565
P1 S0 2.049633 1_555
P2 S13 2.029927 1_555
P2 S3 2.042037 1_555
P2 S4 2.043846 1_555
P2 S8 2.049633 1_555
P3 S6 2.029927 1_655
P3 S10 2.042037 1_555
P3 S15 2.043846 1_555
P3 S11 2.049633 1_555
S0 Sr1 3.023227 1_565
S0 Sr3 3.321866 1_555
S1 Sr2 3.023227 1_445
S1 Sr0 3.321866 1_555
S2 Sr0 3.059158 1_555
S2 Sr2 3.123188 1_545
S3 Sr1 3.059158 1_555
S3 Sr3 3.123188 1_655
S4 Sr1 3.060439 1_565
S4 Sr3 3.092944 1_655
S5 Sr2 3.009702 1_545
S6 Sr0 3.009702 1_555
S7 Sr3 3.060439 1_555
S7 Sr1 3.092944 1_455
S8 Sr3 3.023227 1_555
S8 Sr1 3.321866 1_555
S9 Sr3 3.059158 1_555
S9 Sr1 3.123188 1_465
S10 Sr2 3.059158 1_555
S10 Sr0 3.123188 1_555
S11 Sr0 3.023227 1_655
S11 Sr2 3.321866 1_555
S12 Sr0 3.060439 1_555
S12 Sr2 3.092944 1_555
S13 Sr3 3.009702 1_555
S14 Sr1 3.009702 1_565
S15 Sr2 3.060439 1_545
S15 Sr0 3.092944 1_555
