# generated using pymatgen
data_Y4Ga3Ge3Ir7
_symmetry_space_group_name_H-M   'P 1'
_cell_length_a   7.24795303
_cell_length_b   7.24795485
_cell_length_c   7.25310290
_cell_angle_alpha   109.48559576
_cell_angle_beta   109.48560084
_cell_angle_gamma   109.45683922
_symmetry_Int_Tables_number   1
_chemical_formula_structural   Y4Ga3Ge3Ir7
_chemical_formula_sum   'Y4 Ga3 Ge3 Ir7'
_cell_volume   293.26194188
_cell_formula_units_Z   1
loop_
 _symmetry_equiv_pos_site_id
 _symmetry_equiv_pos_as_xyz
  1  'x, y, z'
loop_
 _atom_site_type_symbol
 _atom_site_label
 _atom_site_symmetry_multiplicity
 _atom_site_fract_x
 _atom_site_fract_y
 _atom_site_fract_z
 _atom_site_occupancy
  Y  Y0  1  1.00000000  1.00000000  0.51301146  1
  Y  Y1  1  1.00000000  0.49608228  0.00218967  1
  Y  Y2  1  0.49608228  1.00000000  0.00218967  1
  Y  Y3  1  0.50391772  0.50391772  0.50610739  1
  Ga  Ga0  1  0.69143248  0.69143248  0.00556579  1
  Ga  Ga1  1  0.30856752  0.00000000  0.31413331  1
  Ga  Ga2  1  0.00000000  0.30856752  0.31413331  1
  Ge  Ge0  1  0.32735836  0.32735836  0.00506727  1
  Ge  Ge1  1  0.67264164  1.00000000  0.67770891  1
  Ge  Ge2  1  1.00000000  0.67264164  0.67770891  1
  Ir  Ir0  1  0.74737165  0.24759077  0.49849881  1
  Ir  Ir1  1  0.75240923  0.49978088  0.25090804  1
  Ir  Ir2  1  0.50021912  0.25262835  0.75112816  1
  Ir  Ir3  1  0.25262835  0.50021912  0.75112816  1
  Ir  Ir4  1  0.24759077  0.74737165  0.49849881  1
  Ir  Ir5  1  0.49978088  0.75240923  0.25090804  1
  Ir  Ir6  1  1.00000000  1.00000000  0.98111330  1
loop_
_geom_bond_atom_site_label_1
_geom_bond_atom_site_label_2
_geom_bond_distance
_geom_bond_site_symmetry_2
Ga0 Ir5 2.612442 1_555
Ga0 Ir1 2.612442 1_555
Ga0 Ir3 2.623583 1_554
Ga0 Ir2 2.623584 1_554
Ga0 Ir6 2.689278 1_554
Ga0 Y3 3.002967 1_554
Ga0 Y1 3.021619 1_555
Ga0 Y2 3.021619 1_555
Ga0 Y0 3.038894 1_555
Ga1 Ir4 2.612442 1_545
Ga1 Ir2 2.612449 1_555
Ga1 Ir0 2.623584 1_555
Ga1 Ir5 2.623584 1_545
Ga1 Ir6 2.689278 1_444
Ga1 Y2 3.002966 1_545
Ga1 Y3 3.021619 1_555
Ga1 Y1 3.021619 1_445
Ga1 Y0 3.038893 1_445
Ga2 Ir0 2.612442 1_455
Ga2 Ir3 2.612448 1_555
Ga2 Ir1 2.623584 1_455
Ga2 Ir4 2.623585 1_555
Ga2 Ir6 2.689279 1_444
Ga2 Y1 3.002966 1_455
Ga2 Y3 3.021618 1_555
Ga2 Y2 3.021619 1_445
Ga2 Y0 3.038893 1_445
Ge0 Ir1 2.552636 1_555
Ge0 Ir5 2.552637 1_555
Ge0 Ir2 2.565452 1_554
Ge0 Ir3 2.565452 1_554
Ge0 Ir6 2.643663 1_444
Ge0 Y0 2.991236 1_444
Ge0 Y1 3.007078 1_455
Ge0 Y2 3.007078 1_545
Ge0 Y3 3.030810 1_555
Ge1 Ir4 2.552636 1_555
Ge1 Ir2 2.552638 1_565
Ge1 Ir0 2.565458 1_565
Ge1 Ir5 2.565459 1_555
Ge1 Ir6 2.643664 1_555
Ge1 Y0 2.991234 1_555
Ge1 Y3 3.007078 1_555
Ge1 Y1 3.007078 1_566
Ge1 Y2 3.030809 1_556
Ge2 Ir0 2.552637 1_555
Ge2 Ir3 2.552637 1_655
Ge2 Ir4 2.565457 1_655
Ge2 Ir1 2.565458 1_555
Ge2 Ir6 2.643665 1_555
Ge2 Y0 2.991235 1_555
Ge2 Y3 3.007077 1_555
Ge2 Y2 3.007078 1_656
Ge2 Y1 3.030809 1_556
Ir0 Y2 2.938521 1_545
Ir0 Y3 2.957830 1_555
Ir0 Y0 2.961512 1_545
Ir0 Y1 2.982259 1_556
Ir1 Y1 2.938519 1_555
Ir1 Y2 2.957831 1_545
Ir1 Y0 2.961512 1_555
Ir1 Y3 2.982258 1_555
Ir2 Y3 2.938526 1_555
Ir2 Y1 2.957830 1_556
Ir2 Y0 2.961511 1_445
Ir2 Y2 2.982253 1_546
Ir3 Y3 2.938525 1_555
Ir3 Y2 2.957831 1_556
Ir3 Y0 2.961512 1_445
Ir3 Y1 2.982252 1_456
Ir4 Y1 2.938521 1_455
Ir4 Y3 2.957830 1_555
Ir4 Y0 2.961512 1_455
Ir4 Y2 2.982259 1_556
Ir5 Y2 2.938520 1_555
Ir5 Y1 2.957830 1_455
Ir5 Y0 2.961512 1_555
Ir5 Y3 2.982259 1_555
