# generated using pymatgen
data_Zr4Tc24Sn
_symmetry_space_group_name_H-M   'P 1'
_cell_length_a   8.36288747
_cell_length_b   8.36288730
_cell_length_c   8.36288721
_cell_angle_alpha   109.47122516
_cell_angle_beta   109.47122474
_cell_angle_gamma   109.47122030
_symmetry_Int_Tables_number   1
_chemical_formula_structural   Zr4Tc24Sn
_chemical_formula_sum   'Zr4 Tc24 Sn1'
_cell_volume   450.24282541
_cell_formula_units_Z   1
loop_
 _symmetry_equiv_pos_site_id
 _symmetry_equiv_pos_as_xyz
  1  'x, y, z'
loop_
 _atom_site_type_symbol
 _atom_site_label
 _atom_site_symmetry_multiplicity
 _atom_site_fract_x
 _atom_site_fract_y
 _atom_site_fract_z
 _atom_site_occupancy
  Zr  Zr0  1  0.62636165  1.00000000  1.00000000  1
  Zr  Zr1  1  1.00000000  0.62636165  1.00000000  1
  Zr  Zr2  1  1.00000000  1.00000000  0.62636165  1
  Zr  Zr3  1  0.37363835  0.37363835  0.37363835  1
  Tc  Tc0  1  0.39102185  0.67229841  1.00000000  1
  Tc  Tc1  1  0.71872344  0.32770159  0.32770159  1
  Tc  Tc2  1  0.39102185  1.00000000  0.67229841  1
  Tc  Tc3  1  0.67229841  0.39102185  1.00000000  1
  Tc  Tc4  1  1.00000000  0.39102185  0.67229841  1
  Tc  Tc5  1  0.32770159  0.71872344  0.32770159  1
  Tc  Tc6  1  0.32770159  0.32770159  0.71872344  1
  Tc  Tc7  1  1.00000000  0.67229841  0.39102185  1
  Tc  Tc8  1  0.67229841  1.00000000  0.39102185  1
  Tc  Tc9  1  0.60897815  0.60897815  0.28127656  1
  Tc  Tc10  1  0.28127656  0.60897815  0.60897815  1
  Tc  Tc11  1  0.60897815  0.28127656  0.60897815  1
  Tc  Tc12  1  0.37516124  0.19514106  0.00000000  1
  Tc  Tc13  1  0.18001918  0.80485894  0.80485894  1
  Tc  Tc14  1  0.37516124  0.00000000  0.19514106  1
  Tc  Tc15  1  0.19514106  0.37516124  0.00000000  1
  Tc  Tc16  1  0.00000000  0.37516124  0.19514106  1
  Tc  Tc17  1  0.80485894  0.18001918  0.80485894  1
  Tc  Tc18  1  0.80485894  0.80485894  0.18001918  1
  Tc  Tc19  1  0.00000000  0.19514106  0.37516124  1
  Tc  Tc20  1  0.19514106  0.00000000  0.37516124  1
  Tc  Tc21  1  0.62483876  0.62483876  0.81998082  1
  Tc  Tc22  1  0.81998082  0.62483876  0.62483876  1
  Tc  Tc23  1  0.62483876  0.81998082  0.62483876  1
  Sn  Sn0  1  0.00000000  0.00000000  0.00000000  1
loop_
_geom_bond_atom_site_label_1
_geom_bond_atom_site_label_2
_geom_bond_distance
_geom_bond_site_symmetry_2
Tc0 Tc15 2.478823 1_556
Tc0 Tc14 2.756156 1_566
Tc0 Tc13 2.756161 1_555
Tc0 Tc6 2.784158 1_555
Tc0 Tc9 2.784158 1_556
Tc0 Zr0 2.790737 1_555
Tc0 Tc21 2.886018 1_555
Tc0 Tc18 2.886024 1_556
Tc0 Tc8 2.887363 1_556
Tc0 Tc4 2.887363 1_455
Tc0 Tc10 2.887363 1_555
Tc0 Tc5 2.887364 1_556
Tc0 Zr1 3.162824 1_455
Tc1 Tc22 2.478820 1_555
Tc1 Tc12 2.756155 1_555
Tc1 Tc14 2.756156 1_555
Tc1 Tc4 2.784158 1_555
Tc1 Tc7 2.784158 1_555
Tc1 Zr0 2.790737 1_544
Tc1 Tc19 2.886024 1_655
Tc1 Tc16 2.886024 1_655
Tc1 Tc3 2.887364 1_554
Tc1 Tc9 2.887364 1_555
Tc1 Tc8 2.887364 1_545
Tc1 Tc11 2.887364 1_555
Tc1 Zr3 3.162824 1_555
Tc2 Tc20 2.478823 1_565
Tc2 Tc5 2.784158 1_555
Tc2 Zr0 2.790737 1_555
Tc2 Tc23 2.886018 1_555
Tc2 Tc3 2.887363 1_565
Tc2 Tc7 2.887363 1_455
Tc2 Tc6 2.887364 1_565
Tc2 Zr2 3.162824 1_455
Tc3 Tc6 2.784158 1_555
Tc3 Tc9 2.784158 1_556
Tc3 Zr1 2.790737 1_555
Tc3 Tc7 2.887363 1_556
Tc3 Zr0 3.162824 1_545
Tc4 Zr1 2.790737 1_555
Tc4 Tc8 2.887363 1_545
Tc4 Tc6 2.887364 1_655
Tc4 Zr2 3.162824 1_545
Tc5 Tc8 2.784158 1_555
Tc5 Zr1 2.790737 1_454
Tc5 Tc9 2.887364 1_555
Tc5 Tc7 2.887364 1_455
Tc5 Zr3 3.162824 1_555
Tc6 Zr2 2.790737 1_445
Tc6 Zr3 3.162824 1_555
Tc7 Zr2 2.790737 1_555
Tc7 Tc9 2.887364 1_555
Tc7 Zr1 3.162824 1_554
Tc8 Zr2 2.790737 1_555
Tc8 Tc9 2.887363 1_555
Tc8 Zr0 3.162824 1_554
Tc9 Zr3 2.790737 1_555
Tc9 Zr2 3.162823 1_555
Tc10 Tc13 2.478830 1_555
Tc10 Tc21 2.756158 1_555
Tc10 Tc23 2.756158 1_555
Tc10 Tc7 2.784158 1_455
Tc10 Tc4 2.784159 1_455
Tc10 Zr3 2.790737 1_555
Tc10 Tc16 2.886024 1_555
Tc10 Tc19 2.886024 1_555
Tc10 Tc2 2.887363 1_555
Tc10 Tc6 2.887364 1_555
Tc10 Tc5 2.887364 1_555
Tc10 Zr0 3.162823 1_555
Tc11 Tc17 2.478830 1_555
Tc11 Tc21 2.756158 1_555
Tc11 Tc22 2.756158 1_555
Tc11 Tc8 2.784158 1_545
Tc11 Tc2 2.784159 1_545
Tc11 Zr3 2.790737 1_555
Tc11 Tc14 2.886024 1_555
Tc11 Tc20 2.886024 1_555
Tc11 Tc3 2.887363 1_555
Tc11 Tc4 2.887364 1_555
Tc11 Tc6 2.887364 1_555
Tc11 Zr1 3.162823 1_555
Tc12 Tc15 2.458452 1_555
Tc12 Tc3 2.478823 1_554
Tc12 Tc13 2.664951 1_544
Tc12 Tc14 2.664951 1_555
Tc12 Tc2 2.756156 1_544
Tc12 Tc9 2.886024 1_555
Tc12 Tc6 2.886024 1_554
Tc12 Zr2 2.986938 1_444
Tc12 Zr3 2.986938 1_555
Tc12 Zr0 3.059735 1_544
Tc13 Tc22 2.458439 1_455
Tc13 Tc14 2.664951 1_566
Tc13 Tc2 2.756161 1_555
Tc13 Tc7 2.886024 1_455
Tc13 Tc4 2.886024 1_455
Tc13 Zr2 2.986934 1_455
Tc13 Zr1 2.986934 1_455
Tc13 Zr0 3.059742 1_555
Tc14 Tc20 2.458452 1_555
Tc14 Tc8 2.478823 1_545
Tc14 Tc5 2.886024 1_545
Tc14 Zr1 2.986938 1_444
Tc14 Zr3 2.986938 1_555
Tc14 Zr0 3.059735 1_544
Tc15 Tc17 2.664951 1_454
Tc15 Tc16 2.664951 1_555
Tc15 Tc5 2.756155 1_555
Tc15 Tc4 2.756156 1_454
Tc15 Tc9 2.886024 1_555
Tc15 Tc6 2.886024 1_554
Tc15 Zr2 2.986938 1_444
Tc15 Zr3 2.986938 1_555
Tc15 Zr1 3.059735 1_454
Tc16 Tc19 2.458452 1_555
Tc16 Tc7 2.478823 1_455
Tc16 Tc17 2.664951 1_454
Tc16 Tc5 2.756156 1_555
Tc16 Tc3 2.756156 1_454
Tc16 Zr0 2.986938 1_444
Tc16 Zr3 2.986938 1_555
Tc16 Zr1 3.059735 1_454
Tc17 Tc23 2.458439 1_545
Tc17 Tc3 2.756161 1_555
Tc17 Tc4 2.756161 1_555
Tc17 Tc8 2.886024 1_545
Tc17 Tc2 2.886024 1_545
Tc17 Zr2 2.986934 1_545
Tc17 Zr0 2.986934 1_545
Tc17 Zr1 3.059742 1_555
Tc18 Tc21 2.458438 1_554
Tc18 Tc9 2.478830 1_555
Tc18 Tc19 2.664951 1_665
Tc18 Tc20 2.664951 1_665
Tc18 Tc8 2.756161 1_555
Tc18 Tc7 2.756161 1_555
Tc18 Tc3 2.886024 1_554
Tc18 Zr0 2.986934 1_554
Tc18 Zr1 2.986934 1_554
Tc18 Zr2 3.059742 1_555
Tc19 Tc4 2.478823 1_455
Tc19 Tc20 2.664951 1_555
Tc19 Tc6 2.756155 1_555
Tc19 Tc8 2.756156 1_445
Tc19 Zr0 2.986938 1_444
Tc19 Zr3 2.986938 1_555
Tc19 Zr2 3.059735 1_445
Tc20 Tc6 2.756155 1_555
Tc20 Tc7 2.756156 1_445
Tc20 Tc5 2.886024 1_545
Tc20 Zr1 2.986938 1_444
Tc20 Zr3 2.986938 1_555
Tc20 Zr2 3.059735 1_445
Tc21 Tc6 2.478821 1_555
Tc21 Tc23 2.664965 1_555
Tc21 Tc22 2.664965 1_555
Tc21 Tc3 2.886018 1_555
Tc21 Zr0 2.986937 1_555
Tc21 Zr1 2.986937 1_555
Tc21 Zr3 3.059741 1_555
Tc22 Tc23 2.664965 1_555
Tc22 Tc9 2.756158 1_555
Tc22 Tc4 2.886018 1_555
Tc22 Tc7 2.886018 1_555
Tc22 Zr1 2.986937 1_555
Tc22 Zr2 2.986937 1_555
Tc22 Zr3 3.059741 1_555
Tc23 Tc5 2.478820 1_555
Tc23 Tc9 2.756158 1_555
Tc23 Tc8 2.886018 1_555
Tc23 Zr0 2.986937 1_555
Tc23 Zr2 2.986937 1_555
Tc23 Zr3 3.059741 1_555
Sn0 Tc13 3.015504 1_544
Sn0 Tc17 3.015504 1_454
Sn0 Tc18 3.015504 1_445
Sn0 Tc19 3.015511 1_555
Sn0 Tc20 3.015511 1_555
Sn0 Tc16 3.015511 1_555
Sn0 Tc14 3.015511 1_555
Sn0 Tc15 3.015511 1_555
Sn0 Tc12 3.015511 1_555
Sn0 Tc22 3.015512 1_444
Sn0 Tc23 3.015512 1_444
Sn0 Tc21 3.015512 1_444
Sn0 Zr3 3.124695 1_555
Sn0 Zr2 3.124695 1_444
Sn0 Zr1 3.124695 1_444
Sn0 Zr0 3.124695 1_444
