# generated using pymatgen
data_Li15PdPt3
_symmetry_space_group_name_H-M   'P 1'
_cell_length_a   9.02099070
_cell_length_b   9.03492347
_cell_length_c   9.02099004
_cell_angle_alpha   109.46118830
_cell_angle_beta   109.41233094
_cell_angle_gamma   109.47758397
_symmetry_Int_Tables_number   1
_chemical_formula_structural   Li15PdPt3
_chemical_formula_sum   'Li30 Pd2 Pt6'
_cell_volume   566.42936427
_cell_formula_units_Z   2
loop_
 _symmetry_equiv_pos_site_id
 _symmetry_equiv_pos_as_xyz
  1  'x, y, z'
loop_
 _atom_site_type_symbol
 _atom_site_label
 _atom_site_symmetry_multiplicity
 _atom_site_fract_x
 _atom_site_fract_y
 _atom_site_fract_z
 _atom_site_occupancy
  Li  Li0  1  0.87133338  0.25000000  0.12133338  1
  Li  Li1  1  0.62345459  0.75000000  0.37345459  1
  Li  Li2  1  0.25300410  0.12672004  0.87362010  1
  Li  Li3  1  0.74690006  0.37327996  0.62628406  1
  Li  Li4  1  0.12665466  0.87272284  0.25170040  1
  Li  Li5  1  0.37897756  0.62727716  0.75393082  1
  Li  Li6  1  0.77555032  0.69350086  0.15810803  1
  Li  Li7  1  0.46460818  0.80649914  0.58204946  1
  Li  Li8  1  0.03537168  0.61997658  0.34028712  1
  Li  Li9  1  0.72031054  0.88002342  0.91539610  1
  Li  Li10  1  0.65418785  0.19210541  0.27467728  1
  Li  Li11  1  0.08257287  0.30789459  0.96208443  1
  Li  Li12  1  0.83990954  0.11462688  0.53648902  1
  Li  Li13  1  0.42186314  0.38537312  0.22528266  1
  Li  Li14  1  0.69310771  0.15824352  0.77518142  1
  Li  Li15  1  0.80482063  0.58429970  0.46402737  1
  Li  Li16  1  0.61693790  0.34175648  0.03486319  1
  Li  Li17  1  0.87972668  0.91570030  0.72052093  1
  Li  Li18  1  0.19614859  0.27482465  0.65981014  1
  Li  Li19  1  0.30711137  0.96142584  0.08164701  1
  Li  Li20  1  0.12022217  0.53857416  0.84568653  1
  Li  Li21  1  0.38498448  0.22517535  0.42132393  1
  Li  Li22  1  0.16027366  0.78045091  0.69559565  1
  Li  Li23  1  0.58141133  0.46485173  0.80766504  1
  Li  Li24  1  0.34281430  0.03514827  0.61656059  1
  Li  Li25  1  0.91514474  0.71954909  0.87982275  1
  Li  Li26  1  0.27694964  0.65841718  0.19525344  1
  Li  Li27  1  0.96198551  0.07777370  0.30557172  1
  Li  Li28  1  0.53683526  0.84158282  0.11853246  1
  Li  Li29  1  0.22779802  0.42222630  0.38421080  1
  Pd  Pd0  1  0.99976130  0.41297149  0.49970860  1
  Pd  Pd1  1  0.08673711  0.08702851  0.08678981  1
  Pt  Pt0  1  0.91294452  0.49931369  0.99960733  1
  Pt  Pt1  1  0.50029465  0.00068631  0.91363183  1
  Pt  Pt2  1  0.00029841  0.91322529  0.49953329  1
  Pt  Pt3  1  0.58630900  0.58677471  0.58707312  1
  Pt  Pt4  1  0.49971316  0.99987808  0.41284848  1
  Pt  Pt5  1  0.41297039  0.50012192  0.99983508  1
loop_
_geom_bond_atom_site_label_1
_geom_bond_atom_site_label_2
_geom_bond_distance
_geom_bond_site_symmetry_2
Li0 Li14 2.659318 1_554
Li0 Li16 2.659319 1_555
Li0 Li29 2.742392 1_655
Li0 Li27 2.742395 1_555
Li0 Li9 2.761115 1_544
Li0 Li8 2.761116 1_655
Li0 Li11 2.761224 1_654
Li0 Li10 2.761232 1_555
Li0 Pt1 2.789060 1_554
Li0 Pt0 2.789067 1_554
Li0 Pd0 2.836518 1_555
Li0 Pd1 2.836518 1_655
Li1 Li26 2.662377 1_555
Li1 Li28 2.662378 1_555
Li1 Li17 2.673121 1_555
Li1 Li15 2.673124 1_555
Li1 Li13 2.720562 1_555
Li1 Li12 2.720563 1_565
Li1 Li7 2.737697 1_555
Li1 Li6 2.737704 1_555
Li1 Pt5 2.806945 1_554
Li1 Pt4 2.806945 1_555
Li1 Pt3 2.827361 1_555
Li1 Pt2 2.827362 1_655
Li2 Li22 2.660894 1_545
Li2 Li24 2.671289 1_555
Li2 Pt1 2.799299 1_555
Li2 Pt5 2.803933 1_555
Li2 Pt2 2.814617 1_545
Li2 Pd1 2.845049 1_556
Li3 Pt0 2.799291 1_555
Li3 Pt4 2.803933 1_545
Li3 Pt3 2.814611 1_555
Li3 Pd0 2.845049 1_555
Li4 Li8 2.632621 1_555
Li4 Li6 2.694054 1_455
Li4 Pt4 2.795634 1_555
Li4 Pt2 2.803307 1_555
Li4 Pt0 2.811812 1_454
Li4 Pd1 2.849565 1_565
Li5 Li9 2.632619 1_555
Li5 Li7 2.694048 1_555
Li5 Pt5 2.795642 1_555
Li5 Pt3 2.803309 1_555
Li5 Pt1 2.811810 1_565
Li5 Pd0 2.849564 1_455
Li6 Pt2 2.574618 1_655
Li6 Pt5 2.685511 1_554
Li6 Pt0 2.759595 1_554
Li6 Li8 2.800184 1_655
Li7 Pt3 2.574618 1_555
Li7 Pt4 2.685510 1_555
Li7 Pt1 2.759603 1_565
Li7 Li9 2.800187 1_555
Li8 Pt0 2.561558 1_454
Li8 Pd0 2.714417 1_455
Li8 Pt2 2.740173 1_555
Li9 Pt1 2.561550 1_565
Li9 Pd1 2.714418 1_666
Li9 Pt3 2.740181 1_555
Li10 Pd0 2.601312 1_555
Li10 Li19 2.604781 1_545
Li10 Li28 2.633414 1_545
Li10 Pt1 2.676970 1_554
Li10 Li3 2.702506 1_555
Li10 Pt4 2.737683 1_545
Li10 Li12 2.851058 1_555
Li10 Li16 2.896552 1_555
Li10 Li15 2.921157 1_555
Li10 Li13 3.158826 1_555
Li10 Li21 3.176930 1_555
Li10 Li27 3.231814 1_555
Li11 Pd1 2.601299 1_556
Li11 Li20 2.604787 1_555
Li11 Li26 2.633412 1_556
Li11 Pt0 2.676983 1_455
Li11 Li2 2.702504 1_555
Li11 Pt5 2.737684 1_555
Li11 Li13 2.851051 1_556
Li11 Li14 2.896552 1_455
Li11 Li17 2.921159 1_445
Li11 Li12 3.158848 1_455
Li11 Li18 3.176932 1_555
Li11 Li29 3.231789 1_556
Li12 Pt4 2.563093 1_545
Li12 Li27 2.640109 1_555
Li12 Li18 2.666210 1_655
Li12 Pt2 2.681015 1_645
Li12 Li3 2.705420 1_555
Li12 Pd0 2.788761 1_555
Li12 Li17 2.852661 1_545
Li12 Li14 2.867685 1_555
Li12 Li28 3.198214 1_545
Li12 Li20 3.252550 1_655
Li13 Pt5 2.563092 1_554
Li13 Li29 2.640110 1_555
Li13 Li21 2.666212 1_555
Li13 Pt3 2.681014 1_555
Li13 Li2 2.705419 1_554
Li13 Pd1 2.788767 1_555
Li13 Li15 2.852656 1_555
Li13 Li16 2.867684 1_555
Li13 Li26 3.198218 1_555
Li13 Li19 3.252545 1_545
Li14 Pt0 2.574146 1_555
Li14 Li24 2.619198 1_555
Li14 Li7 2.634155 1_545
Li14 Pt4 2.683862 1_545
Li14 Li3 2.712513 1_555
Li14 Pt1 2.754858 1_555
Li14 Li16 2.819671 1_556
Li14 Li17 3.189250 1_545
Li15 Pt3 2.566217 1_555
Li15 Li8 2.647908 1_655
Li15 Li22 2.660330 1_655
Li15 Pd0 2.713541 1_555
Li15 Pt2 2.745796 1_655
Li15 Li3 2.784593 1_555
Li15 Li17 2.787571 1_555
Li15 Li6 3.187900 1_555
Li15 Li16 3.189264 1_555
Li15 Li25 3.194724 1_555
Li16 Pt1 2.574149 1_554
Li16 Li23 2.619198 1_554
Li16 Li6 2.634155 1_555
Li16 Pt5 2.683862 1_554
Li16 Li2 2.712514 1_554
Li16 Pt0 2.754850 1_554
Li17 Pt2 2.566232 1_655
Li17 Li9 2.647909 1_555
Li17 Li25 2.660332 1_555
Li17 Pd1 2.713542 1_666
Li17 Pt3 2.745788 1_555
Li17 Li2 2.784600 1_665
Li17 Li7 3.187883 1_555
Li17 Li22 3.194733 1_655
Li18 Pt5 2.564025 1_555
Li18 Li27 2.656597 1_455
Li18 Pt2 2.681523 1_545
Li18 Li2 2.700676 1_555
Li18 Li5 2.710441 1_555
Li18 Pd0 2.785203 1_455
Li18 Li20 2.854580 1_555
Li18 Li23 2.866876 1_555
Li18 Li24 2.877976 1_555
Li18 Li21 3.167680 1_555
Li18 Li29 3.234302 1_555
Li19 Pd1 2.602454 1_565
Li19 Li28 2.618355 1_555
Li19 Pt1 2.676166 1_564
Li19 Li4 2.693480 1_555
Li19 Pt4 2.742504 1_555
Li19 Li2 2.781168 1_564
Li19 Li21 2.854586 1_565
Li19 Li22 2.872501 1_554
Li19 Li25 2.917135 1_454
Li19 Li20 3.141562 1_554
Li19 Li26 3.190180 1_555
Li20 Pd0 2.602460 1_455
Li20 Li26 2.618355 1_556
Li20 Pt0 2.676166 1_455
Li20 Li5 2.693485 1_555
Li20 Pt5 2.742495 1_555
Li20 Li3 2.781177 1_455
Li20 Li25 2.872508 1_455
Li20 Li22 2.917142 1_555
Li20 Li28 3.190168 1_556
Li21 Pt4 2.564031 1_545
Li21 Li29 2.656592 1_555
Li21 Pt3 2.681525 1_555
Li21 Li3 2.700684 1_555
Li21 Li4 2.710436 1_545
Li21 Pd1 2.785199 1_555
Li21 Li24 2.866882 1_555
Li21 Li23 2.877969 1_555
Li21 Li27 3.234285 1_455
Li22 Pt1 2.558917 1_565
Li22 Li8 2.656792 1_555
Li22 Pd0 2.725139 1_455
Li22 Pt2 2.742536 1_555
Li22 Li5 2.774982 1_555
Li22 Li24 2.803924 1_565
Li23 Pt3 2.581079 1_555
Li23 Li6 2.623768 1_556
Li23 Pt5 2.668612 1_555
Li23 Li3 2.671290 1_555
Li23 Li5 2.719576 1_555
Li23 Pt0 2.759919 1_555
Li23 Li25 2.803927 1_555
Li24 Pt2 2.581085 1_545
Li24 Li7 2.623768 1_545
Li24 Pt4 2.668612 1_545
Li24 Li4 2.719583 1_545
Li24 Pt1 2.759919 1_555
Li25 Pt0 2.558909 1_555
Li25 Li9 2.656794 1_555
Li25 Li3 2.660894 1_555
Li25 Pd1 2.725139 1_666
Li25 Pt3 2.742530 1_555
Li25 Li4 2.774982 1_656
Li26 Pt4 2.572432 1_555
Li26 Pt0 2.696880 1_454
Li26 Li4 2.720134 1_555
Li26 Pt5 2.754443 1_554
Li26 Li28 2.822840 1_555
Li26 Li8 2.876624 1_555
Li26 Li7 2.878076 1_555
Li26 Li29 3.154559 1_555
Li27 Pd1 2.586953 1_655
Li27 Pt2 2.658048 1_645
Li27 Li4 2.755036 1_645
Li27 Pd0 2.781342 1_555
Li27 Li6 2.862420 1_545
Li27 Li29 2.891354 1_655
Li27 Li9 2.906056 1_544
Li27 Li28 3.154574 1_545
Li28 Pt5 2.572433 1_554
Li28 Pt1 2.696871 1_564
Li28 Li5 2.720142 1_554
Li28 Pt4 2.754438 1_555
Li28 Li9 2.876623 1_554
Li28 Li6 2.878084 1_555
Li29 Pd0 2.586959 1_455
Li29 Pt3 2.658056 1_555
Li29 Li5 2.755036 1_555
Li29 Pd1 2.781338 1_555
Li29 Li7 2.862421 1_555
Li29 Li8 2.906061 1_555
