# generated using pymatgen
data_CaCdSb2O7
_symmetry_space_group_name_H-M   'P 1'
_cell_length_a   7.31193087
_cell_length_b   7.31193069
_cell_length_c   7.31193087
_cell_angle_alpha   119.90812744
_cell_angle_beta   119.90538077
_cell_angle_gamma   90.16158585
_symmetry_Int_Tables_number   1
_chemical_formula_structural   CaCdSb2O7
_chemical_formula_sum   'Ca2 Cd2 Sb4 O14'
_cell_volume   276.81588410
_cell_formula_units_Z   2
loop_
 _symmetry_equiv_pos_site_id
 _symmetry_equiv_pos_as_xyz
  1  'x, y, z'
loop_
 _atom_site_type_symbol
 _atom_site_label
 _atom_site_symmetry_multiplicity
 _atom_site_fract_x
 _atom_site_fract_y
 _atom_site_fract_z
 _atom_site_occupancy
  Ca  Ca0  1  0.00000000  0.00000000  0.50000000  1
  Ca  Ca1  1  0.00000000  0.50000000  0.00000000  1
  Cd  Cd0  1  0.00000000  0.00000000  0.00000000  1
  Cd  Cd1  1  0.50000000  0.50000000  0.00000000  1
  Sb  Sb0  1  0.50000000  0.00000000  0.00000000  1
  Sb  Sb1  1  0.50000000  0.50000000  0.50000000  1
  Sb  Sb2  1  0.50000000  0.00000000  0.50000000  1
  Sb  Sb3  1  0.00000000  0.50000000  0.50000000  1
  O  O0  1  0.43954054  0.08476993  0.76427057  1
  O  O1  1  0.56045946  0.32473003  0.64522840  1
  O  O2  1  0.17950164  0.41523007  0.35477160  1
  O  O3  1  0.82049836  0.17526997  0.23572943  1
  O  O4  1  0.56045946  0.91523007  0.23572943  1
  O  O5  1  0.43954054  0.67526997  0.35477160  1
  O  O6  1  0.82049836  0.58476993  0.64522840  1
  O  O7  1  0.17950164  0.82473003  0.76427057  1
  O  O8  1  0.59869867  0.75000000  0.84869867  1
  O  O9  1  0.40130133  0.25000000  0.15130133  1
  O  O10  1  0.17131211  0.90794046  0.26337265  1
  O  O11  1  0.82868789  0.09205954  0.73662735  1
  O  O12  1  0.85543219  0.59205954  0.26337265  1
  O  O13  1  0.14456781  0.40794046  0.73662735  1
loop_
_geom_bond_atom_site_label_1
_geom_bond_atom_site_label_2
_geom_bond_distance
_geom_bond_site_symmetry_2
Ca0 O11 2.453609 1_455
Ca0 O10 2.453609 1_545
Ca0 O13 2.453615 1_555
Ca0 O12 2.453615 1_445
Ca0 O0 2.655001 1_555
Ca0 O4 2.655001 1_445
Ca0 O7 2.655002 1_545
Ca0 O3 2.655002 1_455
Ca1 O10 2.453614 1_555
Ca1 O11 2.453614 1_454
Ca1 O13 2.453615 1_554
Ca1 O12 2.453615 1_455
Ca1 O5 2.655001 1_555
Ca1 O1 2.655001 1_454
Ca1 O2 2.655007 1_555
Ca1 O6 2.655007 1_454
Cd0 O11 2.150077 1_454
Cd0 O10 2.150077 1_545
Cd0 O2 2.529516 1_555
Cd0 O6 2.529516 1_444
Cd0 O3 2.529521 1_455
Cd0 O7 2.529521 1_544
Cd1 O12 2.150078 1_555
Cd1 O13 2.150078 1_554
Cd1 O4 2.529514 1_555
Cd1 O0 2.529514 1_554
Cd1 O5 2.529521 1_555
Cd1 O1 2.529521 1_554
O0 Sb0 1.964101 1_556
O0 Sb2 1.993103 1_555
O1 Sb1 1.964096 1_555
O1 Sb2 1.993104 1_555
O2 Sb1 1.964096 1_555
O2 Sb3 1.993105 1_555
O3 Sb0 1.964095 1_555
O3 Sb3 1.993104 1_655
O4 Sb0 1.964101 1_565
O4 Sb2 1.993103 1_565
O5 Sb1 1.964096 1_555
O5 Sb2 1.993104 1_565
O6 Sb1 1.964096 1_555
O6 Sb3 1.993105 1_655
O7 Sb0 1.964095 1_566
O7 Sb3 1.993104 1_555
O8 Sb1 1.968023 1_555
O8 Sb0 1.968023 1_566
O9 Sb1 1.968023 1_555
O9 Sb0 1.968023 1_555
O10 Sb2 1.976323 1_565
O11 Sb2 1.976323 1_555
O12 Sb3 1.976317 1_655
O13 Sb3 1.976317 1_555
