# generated using pymatgen
data_K2Te3RuO12
_symmetry_space_group_name_H-M   'P 1'
_cell_length_a   7.05861262
_cell_length_b   7.05861341
_cell_length_c   7.05948251
_cell_angle_alpha   61.36340066
_cell_angle_beta   61.36340260
_cell_angle_gamma   61.37198893
_symmetry_Int_Tables_number   1
_chemical_formula_structural   K2Te3RuO12
_chemical_formula_sum   'K2 Te3 Ru1 O12'
_cell_volume   256.34682042
_cell_formula_units_Z   1
loop_
 _symmetry_equiv_pos_site_id
 _symmetry_equiv_pos_as_xyz
  1  'x, y, z'
loop_
 _atom_site_type_symbol
 _atom_site_label
 _atom_site_symmetry_multiplicity
 _atom_site_fract_x
 _atom_site_fract_y
 _atom_site_fract_z
 _atom_site_occupancy
  K  K0  1  0.86326158  0.87802921  0.36840192  1
  K  K1  1  0.12197079  0.13673842  0.63159808  1
  Te  Te0  1  0.99628717  0.50384143  0.99998876  1
  Te  Te1  1  0.49615857  0.00371283  0.00001124  1
  Te  Te2  1  0.49632197  0.50367803  0.50000000  1
  Ru  Ru0  1  0.49628594  0.50371406  0.00000000  1
  O  O0  1  0.17523508  0.18262054  0.07218211  1
  O  O1  1  0.57410232  0.58072824  0.66931581  1
  O  O2  1  0.16568562  0.58108104  0.07743305  1
  O  O3  1  0.56893847  0.18246940  0.67888753  1
  O  O4  1  0.57405144  0.17304338  0.07687966  1
  O  O5  1  0.17527952  0.57563187  0.67892218  1
  O  O6  1  0.81737946  0.82476492  0.92781789  1
  O  O7  1  0.41927176  0.42589768  0.33068419  1
  O  O8  1  0.82695662  0.42594856  0.92312034  1
  O  O9  1  0.42436813  0.82472048  0.32107782  1
  O  O10  1  0.41891896  0.83431438  0.92256695  1
  O  O11  1  0.81753060  0.43106153  0.32111247  1
loop_
_geom_bond_atom_site_label_1
_geom_bond_atom_site_label_2
_geom_bond_distance
_geom_bond_site_symmetry_2
K0 O4 2.929977 1_565
K0 O1 2.959385 1_555
K0 O2 2.967479 1_655
K0 O3 3.100042 1_565
K0 O0 3.107761 1_665
K0 O5 3.138475 1_655
K1 O8 2.929977 1_455
K1 O7 2.959385 1_555
K1 O10 2.967478 1_545
K1 O11 3.100042 1_455
K1 O6 3.107761 1_445
K1 O9 3.138475 1_545
O0 Te1 1.937796 1_555
O0 Te0 1.939395 1_454
O1 Te2 1.887895 1_555
O1 Ru0 1.971701 1_556
O2 Te0 1.887558 1_454
O2 Ru0 1.971020 1_555
O3 Te1 1.938629 1_556
O3 Te2 1.939202 1_555
O4 Te1 1.887524 1_555
O4 Ru0 1.971651 1_555
O5 Te2 1.938327 1_555
O5 Te0 1.938592 1_455
O6 Te0 1.937796 1_555
O6 Te1 1.939394 1_566
O7 Te2 1.887895 1_555
O7 Ru0 1.971701 1_555
O8 Te0 1.887523 1_555
O8 Ru0 1.971651 1_556
O9 Te2 1.938327 1_555
O9 Te1 1.938592 1_565
O10 Te1 1.887558 1_566
O10 Ru0 1.971020 1_556
O11 Te0 1.938629 1_554
O11 Te2 1.939202 1_555
