# generated using pymatgen
data_Li11SnAsP4
_symmetry_space_group_name_H-M   'P 1'
_cell_length_a   7.34721094
_cell_length_b   7.34721086
_cell_length_c   10.43963388
_cell_angle_alpha   62.54053463
_cell_angle_beta   62.54053646
_cell_angle_gamma   32.98148630
_symmetry_Int_Tables_number   1
_chemical_formula_structural   Li11SnAsP4
_chemical_formula_sum   'Li11 Sn1 As1 P4'
_cell_volume   268.97415654
_cell_formula_units_Z   1
loop_
 _symmetry_equiv_pos_site_id
 _symmetry_equiv_pos_as_xyz
  1  'x, y, z'
loop_
 _atom_site_type_symbol
 _atom_site_label
 _atom_site_symmetry_multiplicity
 _atom_site_fract_x
 _atom_site_fract_y
 _atom_site_fract_z
 _atom_site_occupancy
  Li  Li0  1  0.19772095  0.19772095  0.91332864  1
  Li  Li1  1  0.63715042  0.63715042  0.07351140  1
  Li  Li2  1  0.59602139  0.59602139  0.35415645  1
  Li  Li3  1  0.59232892  0.59232892  0.84713768  1
  Li  Li4  1  0.00387846  0.00387846  0.23972062  1
  Li  Li5  1  0.01509863  0.01509863  0.73378611  1
  Li  Li6  1  0.37488052  0.37488052  0.93289139  1
  Li  Li7  1  0.41009869  0.41009869  0.64438465  1
  Li  Li8  1  0.39842129  0.39842129  0.16161347  1
  Li  Li9  1  0.79583568  0.79583568  0.13180437  1
  Li  Li10  1  0.18949167  0.18949167  0.43198406  1
  Sn  Sn0  1  0.79055424  0.79055424  0.56285328  1
  As  As0  1  0.99539631  0.99539631  0.99914596  1
  P  P0  1  0.39561731  0.39561731  0.40736542  1
  P  P1  1  0.80679218  0.80679218  0.79416069  1
  P  P2  1  0.19528500  0.19528500  0.18065393  1
  P  P3  1  0.60542734  0.60542734  0.59149887  1
loop_
_geom_bond_atom_site_label_1
_geom_bond_atom_site_label_2
_geom_bond_distance
_geom_bond_site_symmetry_2
Li0 P1 2.533826 1_455
Li0 P1 2.533826 1_545
Li0 P2 2.774436 1_556
Li1 P2 2.674494 1_655
Li1 P2 2.674494 1_565
Li1 P1 2.741117 1_554
Li2 P3 2.544157 1_555
Li2 P0 2.602533 1_555
Li2 P2 2.673957 1_565
Li2 P2 2.673957 1_655
Li3 P3 2.585091 1_555
Li3 P1 2.798151 1_555
Li3 Sn0 2.938754 1_555
Li4 P2 2.460506 1_555
Li4 P0 2.678023 1_545
Li4 P0 2.678024 1_455
Li4 Sn0 3.265263 1_445
Li5 P3 2.521438 1_455
Li5 P3 2.521438 1_545
Li5 P1 2.689316 1_445
Li6 P2 2.607373 1_556
Li6 P1 2.950249 1_455
Li6 P1 2.950249 1_545
Li7 P3 2.533345 1_555
Li7 P0 2.578731 1_555
Li7 P1 2.593110 1_545
Li7 P1 2.593110 1_455
Li7 Sn0 3.047978 1_455
Li7 Sn0 3.047978 1_545
Li8 P0 2.546796 1_555
Li8 P2 2.772078 1_555
Li9 P2 2.433519 1_655
Li9 P2 2.433519 1_565
Li10 P3 2.574613 1_545
Li10 P3 2.574613 1_455
Li10 P2 2.585530 1_555
Li10 P0 2.789824 1_555
Li10 Sn0 3.180421 1_545
Li10 Sn0 3.180421 1_455
As0 Li9 2.465534 1_556
As0 Li0 2.544203 1_665
As0 Li4 2.571122 1_666
As0 Li3 2.578508 1_565
As0 Li3 2.578508 1_655
As0 Li8 2.620000 1_656
As0 Li8 2.620000 1_566
As0 Li5 2.647969 1_665
P0 Sn0 2.620074 1_545
P0 Sn0 2.620074 1_455
P1 Sn0 2.532748 1_555
P3 Sn0 2.478528 1_555
