# generated using pymatgen
data_HfRuI6
_symmetry_space_group_name_H-M   'P 1'
_cell_length_a   7.37050320
_cell_length_b   7.37050289
_cell_length_c   6.52230929
_cell_angle_alpha   90.00000000
_cell_angle_beta   90.00000000
_cell_angle_gamma   120.00000140
_symmetry_Int_Tables_number   1
_chemical_formula_structural   HfRuI6
_chemical_formula_sum   'Hf1 Ru1 I6'
_cell_volume   306.85010367
_cell_formula_units_Z   1
loop_
 _symmetry_equiv_pos_site_id
 _symmetry_equiv_pos_as_xyz
  1  'x, y, z'
loop_
 _atom_site_type_symbol
 _atom_site_label
 _atom_site_symmetry_multiplicity
 _atom_site_fract_x
 _atom_site_fract_y
 _atom_site_fract_z
 _atom_site_occupancy
  Hf  Hf0  1  0.00000000  0.00000000  0.50000000  1
  Ru  Ru0  1  0.00000000  0.00000000  0.00000000  1
  I  I0  1  0.30580377  0.00000000  0.23780203  1
  I  I1  1  0.69419623  0.00000000  0.76219797  1
  I  I2  1  1.00000000  0.30580377  0.23780203  1
  I  I3  1  0.30580377  0.30580377  0.76219797  1
  I  I4  1  0.00000000  0.69419623  0.76219797  1
  I  I5  1  0.69419623  0.69419623  0.23780203  1
loop_
_geom_bond_atom_site_label_1
_geom_bond_atom_site_label_2
_geom_bond_distance
_geom_bond_site_symmetry_2
Hf0 I3 2.829268 1_555
Hf0 I4 2.829268 1_545
Hf0 I2 2.829268 1_455
Hf0 I5 2.829268 1_445
Hf0 I0 2.829268 1_555
Hf0 I1 2.829268 1_455
I0 Ru0 2.736028 1_555
I1 Ru0 2.736028 1_656
I2 Ru0 2.736028 1_655
I3 Ru0 2.736028 1_556
I4 Ru0 2.736028 1_566
I5 Ru0 2.736028 1_665
