# generated using pymatgen
data_Cs2RuOF5
_symmetry_space_group_name_H-M   'P 1'
_cell_length_a   6.44059473
_cell_length_b   6.44060210
_cell_length_c   6.44063501
_cell_angle_alpha   121.39824480
_cell_angle_beta   121.39841230
_cell_angle_gamma   87.59499043
_symmetry_Int_Tables_number   1
_chemical_formula_structural   Cs2RuOF5
_chemical_formula_sum   'Cs2 Ru1 O1 F5'
_cell_volume   184.74454975
_cell_formula_units_Z   1
loop_
 _symmetry_equiv_pos_site_id
 _symmetry_equiv_pos_as_xyz
  1  'x, y, z'
loop_
 _atom_site_type_symbol
 _atom_site_label
 _atom_site_symmetry_multiplicity
 _atom_site_fract_x
 _atom_site_fract_y
 _atom_site_fract_z
 _atom_site_occupancy
  Cs  Cs0  1  0.75674508  0.25674408  0.50000000  1
  Cs  Cs1  1  0.25674408  0.75674508  0.50000000  1
  Ru  Ru0  1  0.00020210  0.00020210  1.00000000  1
  O  O0  1  0.80963186  0.80963086  0.99999700  1
  F  F0  1  0.21635864  0.21635564  0.00000400  1
  F  F1  1  0.79466476  0.22546037  0.99999900  1
  F  F2  1  0.22546237  0.79466576  0.00000100  1
  F  F3  1  0.22546137  0.22546237  0.43079461  1
  F  F4  1  0.79466376  0.79466776  0.56920339  1
loop_
_geom_bond_atom_site_label_1
_geom_bond_atom_site_label_2
_geom_bond_distance
_geom_bond_site_symmetry_2
Cs0 F0 3.174270 1_555
Cs0 F0 3.174315 1_656
Cs0 O0 3.190124 1_555
Cs0 O0 3.190151 1_544
Cs0 F2 3.212916 1_545
Cs0 F4 3.212926 1_545
Cs0 F3 3.212936 1_555
Cs0 F1 3.212958 1_555
Cs0 F2 3.257266 1_656
Cs0 F3 3.257286 1_655
Cs0 F4 3.257301 1_555
Cs0 F1 3.257302 1_554
Cs1 F0 3.174299 1_555
Cs1 F0 3.174305 1_566
Cs1 O0 3.190120 1_555
Cs1 O0 3.190135 1_454
Cs1 F1 3.212927 1_454
Cs1 F3 3.212935 1_555
Cs1 F4 3.212948 1_455
Cs1 F2 3.212962 1_556
Cs1 F1 3.257255 1_565
Cs1 F4 3.257272 1_555
Cs1 F3 3.257295 1_565
Cs1 F2 3.257298 1_555
O0 Ru0 1.771822 1_665
F0 Ru0 2.009688 1_554
F1 Ru0 1.922508 1_655
F2 Ru0 1.922512 1_564
F3 Ru0 1.922501 1_554
F4 Ru0 1.922511 1_665
