# generated using pymatgen
data_Zr6Zn22CuGe
_symmetry_space_group_name_H-M   'P 1'
_cell_length_a   8.67677127
_cell_length_b   8.67677134
_cell_length_c   8.67677010
_cell_angle_alpha   60.00000106
_cell_angle_beta   60.00000079
_cell_angle_gamma   60.00000079
_symmetry_Int_Tables_number   1
_chemical_formula_structural   Zr6Zn22CuGe
_chemical_formula_sum   'Zr6 Zn22 Cu1 Ge1'
_cell_volume   461.91216817
_cell_formula_units_Z   1
loop_
 _symmetry_equiv_pos_site_id
 _symmetry_equiv_pos_as_xyz
  1  'x, y, z'
loop_
 _atom_site_type_symbol
 _atom_site_label
 _atom_site_symmetry_multiplicity
 _atom_site_fract_x
 _atom_site_fract_y
 _atom_site_fract_z
 _atom_site_occupancy
  Zr  Zr0  1  0.71408236  0.28591764  0.28591764  1
  Zr  Zr1  1  0.28591764  0.71408236  0.71408236  1
  Zr  Zr2  1  0.28591764  0.71408236  0.28591764  1
  Zr  Zr3  1  0.71408236  0.28591764  0.71408236  1
  Zr  Zr4  1  0.28591764  0.28591764  0.71408236  1
  Zr  Zr5  1  0.71408236  0.71408236  0.28591764  1
  Zn  Zn0  1  0.12218306  0.12218306  0.12218306  1
  Zn  Zn1  1  0.87781694  0.87781694  0.87781694  1
  Zn  Zn2  1  0.12218306  0.12218306  0.63345181  1
  Zn  Zn3  1  0.12218306  0.63345181  0.12218306  1
  Zn  Zn4  1  0.87781694  0.87781694  0.36654819  1
  Zn  Zn5  1  0.87781694  0.36654819  0.87781694  1
  Zn  Zn6  1  0.63345181  0.12218306  0.12218306  1
  Zn  Zn7  1  0.36654819  0.87781694  0.87781694  1
  Zn  Zn8  1  0.50000000  0.00000000  0.00000000  1
  Zn  Zn9  1  0.00000000  0.50000000  0.50000000  1
  Zn  Zn10  1  0.00000000  0.50000000  0.00000000  1
  Zn  Zn11  1  0.50000000  0.00000000  0.50000000  1
  Zn  Zn12  1  0.00000000  0.00000000  0.50000000  1
  Zn  Zn13  1  0.50000000  0.50000000  0.00000000  1
  Zn  Zn14  1  0.33416170  0.33416170  0.33416170  1
  Zn  Zn15  1  0.66583830  0.66583830  0.66583830  1
  Zn  Zn16  1  0.33416170  0.33416170  0.99751491  1
  Zn  Zn17  1  0.33416170  0.99751491  0.33416170  1
  Zn  Zn18  1  0.66583830  0.66583830  0.00248509  1
  Zn  Zn19  1  0.66583830  0.00248509  0.66583830  1
  Zn  Zn20  1  0.99751491  0.33416170  0.33416170  1
  Zn  Zn21  1  0.00248509  0.66583830  0.66583830  1
  Cu  Cu0  1  0.00000000  0.00000000  0.00000000  1
  Ge  Ge0  1  0.50000000  0.50000000  0.50000000  1
loop_
_geom_bond_atom_site_label_1
_geom_bond_atom_site_label_2
_geom_bond_distance
_geom_bond_site_symmetry_2
Zn0 Zn12 2.677259 1_555
Zn0 Zn8 2.677260 1_555
Zn0 Zn10 2.677260 1_555
Zn0 Zn17 2.709224 1_545
Zn0 Zn20 2.709224 1_455
Zn0 Zn16 2.709224 1_554
Zn0 Zr4 2.921030 1_554
Zn0 Zr0 2.921030 1_455
Zn0 Zr2 2.921030 1_545
Zn0 Zn5 2.998570 1_454
Zn0 Zn7 2.998570 1_544
Zn0 Zn4 2.998570 1_445
Zn1 Zn12 2.677259 1_665
Zn1 Zn8 2.677260 1_566
Zn1 Zn10 2.677260 1_656
Zn1 Zn19 2.709224 1_565
Zn1 Zn21 2.709224 1_655
Zn1 Zn18 2.709224 1_556
Zn1 Zr5 2.921030 1_556
Zn1 Zr1 2.921030 1_655
Zn1 Zr3 2.921030 1_565
Zn1 Zn3 2.998570 1_656
Zn1 Zn6 2.998570 1_566
Zn1 Zn2 2.998570 1_665
Zn2 Zn9 2.677260 1_555
Zn2 Zn20 2.709231 1_455
Zn2 Zr4 2.921024 1_555
Zn2 Zr3 2.921031 1_455
Zn2 Zr1 2.921031 1_545
Zn2 Zn5 2.998557 1_455
Zn2 Zn7 2.998557 1_545
Zn3 Zn9 2.677259 1_555
Zn3 Zr2 2.921023 1_555
Zn3 Zr1 2.921031 1_554
Zn3 Zr5 2.921031 1_455
Zn3 Zn4 2.998557 1_455
Zn3 Zn7 2.998557 1_554
Zn4 Zn9 2.677260 1_655
Zn4 Zr5 2.921024 1_555
Zn4 Zr2 2.921031 1_655
Zn4 Zr0 2.921031 1_565
Zn4 Zn6 2.998557 1_565
Zn5 Zn9 2.677259 1_655
Zn5 Zr3 2.921023 1_555
Zn5 Zr0 2.921031 1_556
Zn5 Zr4 2.921031 1_655
Zn5 Zn6 2.998557 1_556
Zn6 Zn8 2.677267 1_555
Zn6 Zr0 2.921023 1_555
Zn6 Zr3 2.921031 1_554
Zn6 Zr5 2.921031 1_545
Zn7 Zn8 2.677267 1_566
Zn7 Zr1 2.921023 1_555
Zn7 Zr2 2.921031 1_556
Zn7 Zr4 2.921031 1_565
Zn8 Zr5 3.099201 1_545
Zn8 Zr4 3.099201 1_554
Zn8 Zr3 3.099201 1_554
Zn8 Zr2 3.099201 1_545
Zn9 Zr4 3.099201 1_555
Zn9 Zr5 3.099201 1_455
Zn9 Zr2 3.099201 1_555
Zn9 Zr3 3.099201 1_455
Zn10 Zn20 2.504830 1_455
Zn10 Zn21 2.504830 1_554
Zn10 Zn16 2.504830 1_554
Zn10 Zn18 2.504830 1_455
Zn10 Zn3 2.677267 1_555
Zn10 Zn5 2.677267 1_454
Zn10 Zr5 3.099201 1_455
Zn10 Zr4 3.099201 1_554
Zn10 Zr1 3.099201 1_554
Zn10 Zr0 3.099201 1_455
Zn11 Zn19 2.504830 1_555
Zn11 Zn17 2.504830 1_545
Zn11 Zn14 2.504830 1_555
Zn11 Zn15 2.504830 1_545
Zn11 Zn7 2.677259 1_545
Zn11 Zn6 2.677259 1_555
Zn11 Zn4 2.677260 1_545
Zn11 Zn2 2.677260 1_555
Zn11 Zr4 3.099201 1_555
Zn11 Zr5 3.099201 1_545
Zn11 Zr0 3.099201 1_555
Zn11 Zr1 3.099201 1_545
Zn12 Zn17 2.504830 1_545
Zn12 Zn19 2.504830 1_455
Zn12 Zn20 2.504830 1_455
Zn12 Zn21 2.504830 1_545
Zn12 Zn2 2.677267 1_555
Zn12 Zn4 2.677267 1_445
Zn12 Zr3 3.099201 1_455
Zn12 Zr2 3.099201 1_545
Zn12 Zr1 3.099201 1_545
Zn12 Zr0 3.099201 1_455
Zn13 Zn14 2.504830 1_555
Zn13 Zn15 2.504830 1_554
Zn13 Zn18 2.504830 1_555
Zn13 Zn16 2.504830 1_554
Zn13 Zn5 2.677260 1_554
Zn13 Zn3 2.677260 1_555
Zn13 Zn7 2.677260 1_554
Zn13 Zn6 2.677260 1_555
Zn13 Zr0 3.099201 1_555
Zn13 Zr1 3.099201 1_554
Zn13 Zr2 3.099201 1_555
Zn13 Zr3 3.099201 1_554
Zn14 Zn9 2.504830 1_555
Zn14 Zn6 2.709226 1_555
Zn14 Zn3 2.709226 1_555
Zn14 Zn2 2.709226 1_555
Zn14 Zn16 2.921007 1_554
Zn14 Zn20 2.921007 1_455
Zn14 Zn17 2.921007 1_545
Zn14 Zr4 2.938139 1_555
Zn14 Zr0 2.938139 1_555
Zn14 Zr2 2.938139 1_555
Zn15 Zn9 2.504830 1_655
Zn15 Zn7 2.709226 1_555
Zn15 Zn5 2.709226 1_555
Zn15 Zn4 2.709226 1_555
Zn15 Zn18 2.921007 1_556
Zn15 Zn21 2.921007 1_655
Zn15 Zn19 2.921007 1_565
Zn15 Zr5 2.938139 1_555
Zn15 Zr1 2.938139 1_555
Zn15 Zr3 2.938139 1_555
Zn16 Zn8 2.504830 1_556
Zn16 Zn6 2.709231 1_556
Zn16 Zn3 2.709231 1_556
Zn16 Zn20 2.921007 1_456
Zn16 Zn17 2.921007 1_546
Zn16 Zr4 2.938139 1_555
Zn16 Zr3 2.938139 1_555
Zn16 Zr1 2.938139 1_555
Zn17 Zn8 2.504830 1_565
Zn17 Zn2 2.709231 1_565
Zn17 Zn6 2.709231 1_565
Zn17 Zn20 2.921007 1_465
Zn17 Zr1 2.938139 1_555
Zn17 Zr2 2.938139 1_555
Zn17 Zr5 2.938139 1_555
Zn18 Zn8 2.504830 1_565
Zn18 Zn7 2.709231 1_554
Zn18 Zn5 2.709231 1_554
Zn18 Zn21 2.921007 1_654
Zn18 Zn19 2.921007 1_564
Zn18 Zr5 2.938139 1_555
Zn18 Zr2 2.938139 1_555
Zn18 Zr0 2.938139 1_555
Zn19 Zn8 2.504830 1_556
Zn19 Zn4 2.709231 1_545
Zn19 Zn7 2.709231 1_545
Zn19 Zn21 2.921007 1_645
Zn19 Zr0 2.938139 1_555
Zn19 Zr3 2.938139 1_555
Zn19 Zr4 2.938139 1_555
Zn20 Zn9 2.504830 1_655
Zn20 Zn3 2.709231 1_655
Zn20 Zr3 2.938139 1_555
Zn20 Zr0 2.938139 1_555
Zn20 Zr5 2.938139 1_555
Zn21 Zn9 2.504830 1_555
Zn21 Zn4 2.709231 1_455
Zn21 Zn5 2.709231 1_455
Zn21 Zr2 2.938139 1_555
Zn21 Zr1 2.938139 1_555
Zn21 Zr4 2.938139 1_555
Cu0 Zn2 2.596830 1_554
Cu0 Zn4 2.596830 1_445
Cu0 Zn7 2.596830 1_544
Cu0 Zn6 2.596830 1_455
Cu0 Zn3 2.596830 1_545
Cu0 Zn5 2.596830 1_454
Cu0 Zn0 2.596837 1_555
Cu0 Zn1 2.596837 1_444
Ge0 Zr3 2.626963 1_555
Ge0 Zr2 2.626963 1_555
Ge0 Zr1 2.626963 1_555
Ge0 Zr0 2.626963 1_555
Ge0 Zr5 2.626963 1_555
Ge0 Zr4 2.626963 1_555
