# generated using pymatgen
data_Ca20MgCd3Ag8
_symmetry_space_group_name_H-M   'P 1'
_cell_length_a   8.16003080
_cell_length_b   8.16003080
_cell_length_c   14.77152714
_cell_angle_alpha   90.00000000
_cell_angle_beta   90.00000000
_cell_angle_gamma   90.00000000
_symmetry_Int_Tables_number   1
_chemical_formula_structural   Ca20MgCd3Ag8
_chemical_formula_sum   'Ca20 Mg1 Cd3 Ag8'
_cell_volume   983.57842146
_cell_formula_units_Z   1
loop_
 _symmetry_equiv_pos_site_id
 _symmetry_equiv_pos_as_xyz
  1  'x, y, z'
loop_
 _atom_site_type_symbol
 _atom_site_label
 _atom_site_symmetry_multiplicity
 _atom_site_fract_x
 _atom_site_fract_y
 _atom_site_fract_z
 _atom_site_occupancy
  Ca  Ca0  1  0.66138003  0.17138358  0.10832697  1
  Ca  Ca1  1  0.16720175  0.66706757  0.60616192  1
  Ca  Ca2  1  0.33861997  0.82861642  0.10832697  1
  Ca  Ca3  1  0.83279825  0.33293243  0.60616192  1
  Ca  Ca4  1  0.82861642  0.66138003  0.10832697  1
  Ca  Ca5  1  0.33293243  0.16720175  0.60616192  1
  Ca  Ca6  1  0.17138358  0.33861997  0.10832697  1
  Ca  Ca7  1  0.66706757  0.83279825  0.60616192  1
  Ca  Ca8  1  0.82861642  0.33861997  0.89167303  1
  Ca  Ca9  1  0.33293243  0.83279825  0.39383808  1
  Ca  Ca10  1  0.17138358  0.66138003  0.89167303  1
  Ca  Ca11  1  0.66706757  0.16720175  0.39383808  1
  Ca  Ca12  1  0.66138003  0.82861642  0.89167303  1
  Ca  Ca13  1  0.16720175  0.33293243  0.39383808  1
  Ca  Ca14  1  0.33861997  0.17138358  0.89167303  1
  Ca  Ca15  1  0.83279825  0.66706757  0.39383808  1
  Ca  Ca16  1  0.50000000  0.50000000  0.74662904  1
  Ca  Ca17  1  0.00000000  0.00000000  0.25097964  1
  Ca  Ca18  1  0.00000000  0.00000000  0.74902036  1
  Ca  Ca19  1  0.50000000  0.50000000  0.25337096  1
  Mg  Mg0  1  0.00000000  0.00000000  0.00000000  1
  Cd  Cd0  1  0.50000000  0.50000000  0.50000000  1
  Cd  Cd1  1  0.50000000  0.50000000  0.00000000  1
  Cd  Cd2  1  0.00000000  0.00000000  0.50000000  1
  Ag  Ag0  1  0.62503558  0.12378417  0.74901401  1
  Ag  Ag1  1  0.12378417  0.62503558  0.25098599  1
  Ag  Ag2  1  0.87621583  0.37496442  0.25098599  1
  Ag  Ag3  1  0.37496442  0.87621583  0.74901401  1
  Ag  Ag4  1  0.87621583  0.62503558  0.74901401  1
  Ag  Ag5  1  0.37496442  0.12378417  0.25098599  1
  Ag  Ag6  1  0.12378417  0.37496442  0.74901401  1
  Ag  Ag7  1  0.62503558  0.87621583  0.25098599  1
loop_
_geom_bond_atom_site_label_1
_geom_bond_atom_site_label_2
_geom_bond_distance
_geom_bond_site_symmetry_2
Ca0 Cd1 3.388979 1_555
Ca0 Mg0 3.485868 1_655
Ca0 Ca19 3.676287 1_555
Ca0 Ca17 3.745806 1_655
Ca1 Cd0 3.419417 1_555
Ca1 Cd2 3.420723 1_565
Ca1 Ca9 3.673482 1_555
Ca1 Ca16 3.679472 1_555
Ca1 Ca18 3.700714 1_565
Ca1 Ca3 3.857477 1_455
Ca1 Ca13 4.155811 1_555
Ca1 Ca15 4.157248 1_455
Ca2 Cd1 3.388979 1_555
Ca2 Mg0 3.485868 1_565
Ca3 Cd0 3.419417 1_555
Ca3 Cd2 3.420723 1_655
Ca4 Cd1 3.388979 1_555
Ca4 Mg0 3.485868 1_665
Ca5 Cd0 3.419417 1_555
Ca5 Cd2 3.420723 1_555
Ca5 Ca7 3.857477 1_545
Ca5 Ca9 4.157248 1_545
Ca6 Cd1 3.388979 1_555
Ca6 Mg0 3.485868 1_555
Ca7 Cd0 3.419417 1_555
Ca7 Cd2 3.420723 1_665
Ca7 Ca9 4.155811 1_555
Ca8 Cd1 3.388979 1_556
Ca8 Mg0 3.485868 1_656
Ca9 Cd0 3.419417 1_555
Ca9 Cd2 3.420723 1_565
Ca10 Cd1 3.388979 1_556
Ca10 Mg0 3.485868 1_566
Ca10 Ca16 3.676287 1_555
Ca10 Ca18 3.745806 1_565
Ca11 Cd0 3.419417 1_555
Ca11 Cd2 3.420723 1_655
Ca11 Ca3 3.673482 1_555
Ca11 Ca19 3.679472 1_555
Ca11 Ca17 3.700714 1_655
Ca11 Ca9 3.857477 1_545
Ca11 Ca5 4.155811 1_555
Ca11 Ca7 4.157248 1_545
Ca12 Cd1 3.388979 1_556
Ca12 Mg0 3.485868 1_666
Ca12 Ca16 3.676287 1_555
Ca12 Ca18 3.745806 1_665
Ca13 Cd0 3.419417 1_555
Ca13 Cd2 3.420723 1_555
Ca13 Ca5 3.673482 1_555
Ca13 Ca19 3.679472 1_555
Ca13 Ca17 3.700714 1_555
Ca13 Ca15 3.857477 1_455
Ca13 Ca3 4.157248 1_455
Ca14 Cd1 3.388979 1_556
Ca14 Mg0 3.485868 1_556
Ca14 Ca16 3.676287 1_555
Ca14 Ca18 3.745806 1_555
Ca15 Cd0 3.419417 1_555
Ca15 Cd2 3.420723 1_665
Ca15 Ca7 3.673482 1_555
Ca15 Ca19 3.679472 1_555
Ca15 Ca17 3.700714 1_665
Ca15 Ca3 4.155811 1_555
Ca16 Cd0 3.643088 1_555
Ca16 Ca8 3.676287 1_555
Ca16 Ca7 3.679472 1_555
Ca16 Ca3 3.679472 1_555
Ca16 Ca5 3.679472 1_555
Ca16 Cd1 3.742676 1_556
Ca17 Cd2 3.678411 1_555
Ca17 Ca9 3.700714 1_545
Ca17 Mg0 3.707353 1_555
Ca17 Ca6 3.745806 1_555
Ca17 Ca2 3.745806 1_545
Ca17 Ca4 3.745806 1_445
Ca18 Cd2 3.678411 1_555
Ca18 Ca5 3.700714 1_555
Ca18 Ca3 3.700714 1_455
Ca18 Ca7 3.700714 1_445
Ca18 Mg0 3.707353 1_556
Ca18 Ca8 3.745806 1_455
Ca19 Cd0 3.643088 1_555
Ca19 Ca4 3.676287 1_555
Ca19 Ca2 3.676287 1_555
Ca19 Ca6 3.676287 1_555
Ca19 Ca9 3.679472 1_555
Ca19 Cd1 3.742676 1_555
Ag0 Ag3 2.871423 1_545
Ag0 Ca14 3.170782 1_555
Ag0 Ca7 3.195055 1_545
Ag0 Ca3 3.199936 1_555
Ag0 Ca5 3.203066 1_555
Ag0 Ca8 3.205245 1_555
Ag0 Ca12 3.214013 1_545
Ag0 Ca18 3.222136 1_655
Ag0 Ca16 3.235232 1_555
Ag1 Ag2 2.871423 1_455
Ag1 Ca6 3.170782 1_555
Ag1 Ca15 3.195055 1_455
Ag1 Ca9 3.199936 1_555
Ag1 Ca13 3.203066 1_555
Ag1 Ca2 3.205245 1_555
Ag1 Ca4 3.214013 1_455
Ag1 Ca17 3.222136 1_565
Ag1 Ca19 3.235232 1_555
Ag2 Ca4 3.170782 1_555
Ag2 Ca13 3.195055 1_655
Ag2 Ca11 3.199936 1_555
Ag2 Ca15 3.203066 1_555
Ag2 Ca0 3.205245 1_555
Ag2 Ca6 3.214013 1_655
Ag2 Ca17 3.222136 1_655
Ag2 Ca19 3.235232 1_555
Ag3 Ca12 3.170782 1_555
Ag3 Ca5 3.195055 1_565
Ag3 Ca1 3.199936 1_555
Ag3 Ca7 3.203066 1_555
Ag3 Ca10 3.205245 1_555
Ag3 Ca14 3.214013 1_565
Ag3 Ca18 3.222136 1_565
Ag3 Ca16 3.235232 1_555
Ag4 Ag6 2.871423 1_655
Ag4 Ca8 3.170782 1_555
Ag4 Ca1 3.195055 1_655
Ag4 Ca7 3.199936 1_555
Ag4 Ca3 3.203066 1_555
Ag4 Ca12 3.205245 1_555
Ag4 Ca10 3.214013 1_655
Ag4 Ca18 3.222136 1_665
Ag4 Ca16 3.235232 1_555
Ag5 Ag7 2.871423 1_545
Ag5 Ca0 3.170782 1_555
Ag5 Ca9 3.195055 1_545
Ag5 Ca13 3.199936 1_555
Ag5 Ca11 3.203066 1_555
Ag5 Ca6 3.205245 1_555
Ag5 Ca2 3.214013 1_545
Ag5 Ca17 3.222136 1_555
Ag5 Ca19 3.235232 1_555
Ag6 Ca10 3.170782 1_555
Ag6 Ca3 3.195055 1_455
Ag6 Ca5 3.199936 1_555
Ag6 Ca1 3.203066 1_555
Ag6 Ca14 3.205245 1_555
Ag6 Ca8 3.214013 1_455
Ag6 Ca18 3.222136 1_555
Ag6 Ca16 3.235232 1_555
Ag7 Ca2 3.170782 1_555
Ag7 Ca11 3.195055 1_565
Ag7 Ca15 3.199936 1_555
Ag7 Ca9 3.203066 1_555
Ag7 Ca4 3.205245 1_555
Ag7 Ca0 3.214013 1_565
Ag7 Ca17 3.222136 1_665
Ag7 Ca19 3.235232 1_555
