# generated using pymatgen
data_Bi4Ru3RhO14
_symmetry_space_group_name_H-M   'P 1'
_cell_length_a   7.26003447
_cell_length_b   7.26003420
_cell_length_c   7.26003359
_cell_angle_alpha   60.16328600
_cell_angle_beta   60.16329004
_cell_angle_gamma   60.16328431
_symmetry_Int_Tables_number   1
_chemical_formula_structural   Bi4Ru3RhO14
_chemical_formula_sum   'Bi4 Ru3 Rh1 O14'
_cell_volume   271.58399073
_cell_formula_units_Z   1
loop_
 _symmetry_equiv_pos_site_id
 _symmetry_equiv_pos_as_xyz
  1  'x, y, z'
loop_
 _atom_site_type_symbol
 _atom_site_label
 _atom_site_symmetry_multiplicity
 _atom_site_fract_x
 _atom_site_fract_y
 _atom_site_fract_z
 _atom_site_occupancy
  Bi  Bi0  1  0.12500000  0.12500000  0.62500000  1
  Bi  Bi1  1  0.12500000  0.62500000  0.12500000  1
  Bi  Bi2  1  0.62500000  0.12500000  0.12500000  1
  Bi  Bi3  1  0.12500000  0.12500000  0.12500000  1
  Ru  Ru0  1  0.62500000  0.62500000  0.12500000  1
  Ru  Ru1  1  0.62500000  0.12500000  0.62500000  1
  Ru  Ru2  1  0.12500000  0.62500000  0.62500000  1
  Rh  Rh0  1  0.62500000  0.62500000  0.62500000  1
  O  O0  1  0.24986893  0.24986893  0.24986893  1
  O  O1  1  0.00013107  0.00013107  0.00013107  1
  O  O2  1  0.54294087  0.96037521  0.54294087  1
  O  O3  1  0.29781065  0.70555164  0.29781065  1
  O  O4  1  0.54294087  0.54294087  0.96037521  1
  O  O5  1  0.96037521  0.54294087  0.54294087  1
  O  O6  1  0.54444836  0.95218935  0.95218935  1
  O  O7  1  0.95218935  0.95218935  0.54444836  1
  O  O8  1  0.95218935  0.54444836  0.95218935  1
  O  O9  1  0.70555164  0.29781065  0.29781065  1
  O  O10  1  0.28962479  0.70705913  0.70705913  1
  O  O11  1  0.70705913  0.28962479  0.70705913  1
  O  O12  1  0.29781065  0.29781065  0.70555164  1
  O  O13  1  0.70705913  0.70705913  0.28962479  1
loop_
_geom_bond_atom_site_label_1
_geom_bond_atom_site_label_2
_geom_bond_distance
_geom_bond_site_symmetry_2
Bi0 O1 2.228268 1_556
Bi0 O0 2.228268 1_555
Bi0 O5 2.508254 1_455
Bi0 O10 2.508254 1_545
Bi0 O2 2.508254 1_545
Bi0 O11 2.508254 1_455
Bi0 O12 2.552750 1_555
Bi0 O7 2.552750 1_445
Bi1 O1 2.228268 1_565
Bi1 O0 2.228268 1_555
Bi1 O5 2.508254 1_455
Bi1 O10 2.508254 1_554
Bi1 O4 2.508254 1_554
Bi1 O13 2.508254 1_455
Bi1 O3 2.552750 1_555
Bi1 O8 2.552750 1_454
Bi2 O1 2.228268 1_655
Bi2 O0 2.228268 1_555
Bi2 O2 2.508254 1_545
Bi2 O11 2.508254 1_554
Bi2 O4 2.508254 1_554
Bi2 O13 2.508254 1_545
Bi2 O9 2.552750 1_555
Bi2 O6 2.552750 1_544
Bi3 O0 2.217847 1_555
Bi3 O1 2.217847 1_555
Bi3 O3 2.526720 1_545
Bi3 O8 2.526720 1_454
Bi3 O12 2.526720 1_554
Bi3 O7 2.526720 1_445
Bi3 O6 2.526720 1_544
Bi3 O9 2.526720 1_455
O2 Ru1 1.976992 1_565
O2 Rh0 2.025993 1_555
O3 Ru2 1.985171 1_555
O3 Ru0 1.985171 1_555
O4 Ru0 1.976992 1_556
O4 Rh0 2.025993 1_555
O5 Ru2 1.976992 1_655
O5 Rh0 2.025993 1_555
O6 Ru1 1.985171 1_565
O6 Ru0 1.985171 1_556
O7 Ru2 1.985171 1_655
O7 Ru1 1.985171 1_565
O8 Ru2 1.985171 1_655
O8 Ru0 1.985171 1_556
O9 Ru1 1.985171 1_555
O9 Ru0 1.985171 1_555
O10 Ru2 1.976992 1_555
O10 Rh0 2.025993 1_555
O11 Ru1 1.976992 1_555
O11 Rh0 2.025993 1_555
O12 Ru2 1.985171 1_555
O12 Ru1 1.985171 1_555
O13 Ru0 1.976992 1_555
O13 Rh0 2.025993 1_555
