# generated using pymatgen
data_Rb3In2As3
_symmetry_space_group_name_H-M   'P 1'
_cell_length_a   6.70998435
_cell_length_b   7.89925421
_cell_length_c   11.20272962
_cell_angle_alpha   69.33176654
_cell_angle_beta   90.00000000
_cell_angle_gamma   90.00000000
_symmetry_Int_Tables_number   1
_chemical_formula_structural   Rb3In2As3
_chemical_formula_sum   'Rb6 In4 As6'
_cell_volume   555.57176864
_cell_formula_units_Z   2
loop_
 _symmetry_equiv_pos_site_id
 _symmetry_equiv_pos_as_xyz
  1  'x, y, z'
loop_
 _atom_site_type_symbol
 _atom_site_label
 _atom_site_symmetry_multiplicity
 _atom_site_fract_x
 _atom_site_fract_y
 _atom_site_fract_z
 _atom_site_occupancy
  Rb  Rb0  1  0.25000000  0.40073029  0.45885448  1
  Rb  Rb1  1  0.75000000  0.13574200  0.89473041  1
  Rb  Rb2  1  0.75000000  0.48993467  0.14943331  1
  Rb  Rb3  1  0.25000000  0.51006533  0.85056669  1
  Rb  Rb4  1  0.75000000  0.59926971  0.54114552  1
  Rb  Rb5  1  0.25000000  0.86425800  0.10526959  1
  In  In0  1  0.00017133  0.05280641  0.33478488  1
  In  In1  1  0.50017133  0.94719359  0.66521512  1
  In  In2  1  0.49982867  0.05280641  0.33478488  1
  In  In3  1  0.99982867  0.94719359  0.66521512  1
  As  As0  1  0.25000000  0.80967673  0.51815677  1
  As  As1  1  0.75000000  0.19032327  0.48184323  1
  As  As2  1  0.25000000  0.29593266  0.18452307  1
  As  As3  1  0.75000000  0.70406734  0.81547693  1
  As  As4  1  0.25000000  0.10890982  0.77286691  1
  As  As5  1  0.75000000  0.89109018  0.22713309  1
loop_
_geom_bond_atom_site_label_1
_geom_bond_atom_site_label_2
_geom_bond_distance
_geom_bond_site_symmetry_2
In0 Rb2 3.740487 1_455
In0 Rb5 3.787187 1_545
In1 Rb3 3.740487 1_555
In1 Rb1 3.787187 1_565
In2 Rb2 3.740487 1_555
In2 Rb5 3.787187 1_545
In3 Rb3 3.740487 1_655
In3 Rb1 3.787187 1_565
As0 In2 2.816663 1_565
As0 In0 2.816663 1_565
As0 In1 2.824051 1_555
As0 In3 2.824051 1_455
As0 Rb0 3.520172 1_555
As0 Rb3 3.639677 1_555
As0 Rb4 3.712489 1_455
As0 Rb4 3.712489 1_555
As1 In3 2.816663 1_545
As1 In1 2.816663 1_545
As1 In0 2.824051 1_655
As1 In2 2.824051 1_555
As1 Rb4 3.520172 1_555
As1 Rb2 3.639677 1_555
As1 Rb0 3.712489 1_555
As1 Rb0 3.712489 1_655
As2 In2 2.655189 1_555
As2 In0 2.655189 1_555
As2 Rb0 3.453425 1_555
As2 Rb3 3.520043 1_554
As2 Rb2 3.651536 1_555
As2 Rb2 3.651536 1_455
As2 Rb5 3.814828 1_545
As3 In3 2.655189 1_555
As3 In1 2.655189 1_555
As3 Rb4 3.453425 1_555
As3 Rb2 3.520043 1_556
As3 Rb3 3.651536 1_555
As3 Rb3 3.651536 1_655
As3 Rb1 3.814828 1_565
As4 In1 2.644170 1_545
As4 In3 2.644170 1_445
As4 Rb0 3.458954 1_555
As4 Rb5 3.538575 1_546
As4 Rb3 3.570194 1_555
As4 Rb1 3.656356 1_455
As4 Rb1 3.656356 1_555
As5 In0 2.644170 1_665
As5 In2 2.644170 1_565
As5 Rb4 3.458954 1_555
As5 Rb1 3.538575 1_564
As5 Rb2 3.570194 1_555
As5 Rb5 3.656356 1_555
As5 Rb5 3.656356 1_655
