# generated using pymatgen
data_YCu3AgRh
_symmetry_space_group_name_H-M   'P 1'
_cell_length_a   5.17817955
_cell_length_b   5.17818006
_cell_length_c   5.17817979
_cell_angle_alpha   57.27786612
_cell_angle_beta   57.27786543
_cell_angle_gamma   57.27786602
_symmetry_Int_Tables_number   1
_chemical_formula_structural   YCu3AgRh
_chemical_formula_sum   'Y1 Cu3 Ag1 Rh1'
_cell_volume   92.02478040
_cell_formula_units_Z   1
loop_
 _symmetry_equiv_pos_site_id
 _symmetry_equiv_pos_as_xyz
  1  'x, y, z'
loop_
 _atom_site_type_symbol
 _atom_site_label
 _atom_site_symmetry_multiplicity
 _atom_site_fract_x
 _atom_site_fract_y
 _atom_site_fract_z
 _atom_site_occupancy
  Y  Y0  1  0.25163741  0.25163741  0.25163741  1
  Cu  Cu0  1  0.62272853  0.62272853  0.11979628  1
  Cu  Cu1  1  0.62272853  0.11979628  0.62272853  1
  Cu  Cu2  1  0.11979628  0.62272853  0.62272853  1
  Ag  Ag0  1  0.01077096  0.01077096  0.01077096  1
  Rh  Rh0  1  0.62233829  0.62233829  0.62233829  1
loop_
_geom_bond_atom_site_label_1
_geom_bond_atom_site_label_2
_geom_bond_distance
_geom_bond_site_symmetry_2
Cu0 Cu2 2.467286 1_654
Cu0 Cu1 2.467287 1_564
Cu0 Cu2 2.496396 1_555
Cu0 Cu1 2.496396 1_555
Cu0 Rh0 2.578113 1_554
Cu0 Rh0 2.600070 1_555
Cu0 Y0 2.997306 1_655
Cu0 Y0 2.997307 1_565
Cu0 Y0 3.001074 1_555
Cu1 Cu2 2.467287 1_645
Cu1 Cu2 2.496396 1_555
Cu1 Rh0 2.578113 1_545
Cu1 Rh0 2.600070 1_555
Cu1 Y0 2.997306 1_655
Cu1 Y0 2.997306 1_556
Cu1 Y0 3.001074 1_555
Cu2 Rh0 2.578113 1_455
Cu2 Rh0 2.600070 1_555
Cu2 Y0 2.997306 1_556
Cu2 Y0 2.997307 1_565
Cu2 Y0 3.001074 1_555
Ag0 Cu1 2.867315 1_554
Ag0 Cu0 2.867315 1_545
Ag0 Cu1 2.867315 1_455
Ag0 Cu2 2.867315 1_545
Ag0 Cu2 2.867315 1_554
Ag0 Cu0 2.867315 1_455
Ag0 Rh0 2.953126 1_544
Ag0 Rh0 2.953126 1_445
Ag0 Rh0 2.953126 1_454
Ag0 Y0 3.105490 1_455
Ag0 Y0 3.105490 1_554
Ag0 Y0 3.105490 1_545
Ag0 Y0 3.116476 1_555
Ag0 Cu1 3.210288 1_454
Ag0 Cu0 3.210288 1_445
Ag0 Cu2 3.210288 1_544
Rh0 Y0 2.906281 1_655
Rh0 Y0 2.906281 1_556
Rh0 Y0 2.906281 1_565
