# generated using pymatgen
data_Ag3AuSe2
_symmetry_space_group_name_H-M   'P 1'
_cell_length_a   8.69096013
_cell_length_b   8.69096013
_cell_length_c   8.69096013
_cell_angle_alpha   109.47122063
_cell_angle_beta   109.47122063
_cell_angle_gamma   109.47122063
_symmetry_Int_Tables_number   1
_chemical_formula_structural   Ag3AuSe2
_chemical_formula_sum   'Ag12 Au4 Se8'
_cell_volume   505.33733057
_cell_formula_units_Z   4
loop_
 _symmetry_equiv_pos_site_id
 _symmetry_equiv_pos_as_xyz
  1  'x, y, z'
loop_
 _atom_site_type_symbol
 _atom_site_label
 _atom_site_symmetry_multiplicity
 _atom_site_fract_x
 _atom_site_fract_y
 _atom_site_fract_z
 _atom_site_occupancy
  Ag  Ag0  1  0.25000000  0.12904596  0.87904596  1
  Ag  Ag1  1  0.12904596  0.87904596  0.25000000  1
  Ag  Ag2  1  0.87904596  0.25000000  0.12904596  1
  Ag  Ag3  1  0.12904596  0.75000000  0.87904596  1
  Ag  Ag4  1  0.62095404  0.75000000  0.37095404  1
  Ag  Ag5  1  0.37095404  0.25000000  0.62095404  1
  Ag  Ag6  1  0.87904596  0.12904596  0.75000000  1
  Ag  Ag7  1  0.62095404  0.37095404  0.25000000  1
  Ag  Ag8  1  0.75000000  0.87904596  0.12904596  1
  Ag  Ag9  1  0.25000000  0.62095404  0.37095404  1
  Ag  Ag10  1  0.75000000  0.37095404  0.62095404  1
  Ag  Ag11  1  0.37095404  0.62095404  0.75000000  1
  Au  Au0  1  0.25000000  0.25000000  0.25000000  1
  Au  Au1  1  0.00000000  0.25000000  0.50000000  1
  Au  Au2  1  0.25000000  0.50000000  -0.00000000  1
  Au  Au3  1  0.50000000  0.00000000  0.25000000  1
  Se  Se0  1  0.50000000  0.00000000  0.96483143  1
  Se  Se1  1  0.96483143  0.50000000  -0.00000000  1
  Se  Se2  1  0.50000000  0.00000000  0.53516857  1
  Se  Se3  1  -0.00000000  0.53516857  0.50000000  1
  Se  Se4  1  0.96483143  0.96483143  0.96483143  1
  Se  Se5  1  0.53516857  0.50000000  0.00000000  1
  Se  Se6  1  0.53516857  0.53516857  0.53516857  1
  Se  Se7  1  -0.00000000  0.96483143  0.50000000  1
loop_
_geom_bond_atom_site_label_1
_geom_bond_atom_site_label_2
_geom_bond_distance
_geom_bond_site_symmetry_2
Ag0 Se0 2.763428 1_555
Ag0 Se7 2.763428 1_545
Ag0 Se4 2.884140 1_445
Ag0 Se5 2.884140 1_556
Ag0 Au0 3.039657 1_556
Ag0 Au2 3.039657 1_556
Ag1 Se7 2.763428 1_555
Ag1 Se1 2.763428 1_455
Ag1 Se4 2.884140 1_454
Ag1 Se2 2.884140 1_565
Ag1 Au3 3.039657 1_565
Ag1 Au0 3.039657 1_565
Ag2 Se0 2.763428 1_554
Ag2 Se1 2.763428 1_555
Ag2 Se4 2.884140 1_544
Ag2 Se3 2.884140 1_655
Ag2 Au0 3.039657 1_655
Ag2 Au1 3.039657 1_655
Ag3 Se4 2.763428 1_455
Ag3 Se3 2.763428 1_555
Ag3 Se0 2.884140 1_565
Ag3 Se1 2.884140 1_456
Ag3 Au3 3.039657 1_566
Ag3 Au2 3.039657 1_556
Ag4 Se6 2.763428 1_555
Ag4 Se7 2.763428 1_655
Ag4 Se5 2.884140 1_555
Ag4 Se2 2.884140 1_565
Ag4 Au2 3.039657 1_555
Ag4 Au3 3.039657 1_565
Ag5 Se2 2.763428 1_555
Ag5 Se5 2.763428 1_556
Ag5 Se7 2.884140 1_545
Ag5 Se6 2.884140 1_555
Ag5 Au0 3.039657 1_555
Ag5 Au1 3.039657 1_555
Ag6 Se4 2.763428 1_545
Ag6 Se2 2.763428 1_555
Ag6 Se7 2.884140 1_645
Ag6 Se1 2.884140 1_556
Ag6 Au2 3.039657 1_656
Ag6 Au1 3.039657 1_655
Ag7 Se5 2.763428 1_555
Ag7 Se3 2.763428 1_655
Ag7 Se0 2.884140 1_554
Ag7 Se6 2.884140 1_555
Ag7 Au3 3.039657 1_555
Ag7 Au0 3.039657 1_555
Ag8 Se4 2.763428 1_554
Ag8 Se5 2.763428 1_555
Ag8 Se0 2.884140 1_564
Ag8 Se7 2.884140 1_655
Ag8 Au3 3.039657 1_565
Ag8 Au1 3.039657 1_665
Ag9 Se2 2.763428 1_565
Ag9 Se3 2.763428 1_555
Ag9 Se6 2.884140 1_555
Ag9 Se1 2.884140 1_455
Ag9 Au0 3.039657 1_555
Ag9 Au2 3.039657 1_555
Ag10 Se1 2.763428 1_556
Ag10 Se6 2.763428 1_555
Ag10 Se2 2.884140 1_555
Ag10 Se3 2.884140 1_655
Ag10 Au3 3.039657 1_555
Ag10 Au1 3.039657 1_655
Ag11 Se0 2.763428 1_565
Ag11 Se6 2.763428 1_555
Ag11 Se5 2.884140 1_556
Ag11 Se3 2.884140 1_555
Ag11 Au1 3.039657 1_555
Ag11 Au2 3.039657 1_556
Au0 Se6 2.478389 1_555
Au0 Se4 2.478389 1_444
Au1 Se7 2.478389 1_545
Au1 Se3 2.478389 1_555
Au2 Se5 2.478389 1_555
Au2 Se1 2.478389 1_455
Au3 Se2 2.478389 1_555
Au3 Se0 2.478389 1_554
