# generated using pymatgen
data_KBa(VN2)2
_symmetry_space_group_name_H-M   'P 1'
_cell_length_a   7.80022325
_cell_length_b   5.83778731
_cell_length_c   6.57483874
_cell_angle_alpha   64.03601841
_cell_angle_beta   90.00000000
_cell_angle_gamma   90.00000000
_symmetry_Int_Tables_number   1
_chemical_formula_structural   KBa(VN2)2
_chemical_formula_sum   'K2 Ba2 V4 N8'
_cell_volume   269.17433267
_cell_formula_units_Z   2
loop_
 _symmetry_equiv_pos_site_id
 _symmetry_equiv_pos_as_xyz
  1  'x, y, z'
loop_
 _atom_site_type_symbol
 _atom_site_label
 _atom_site_symmetry_multiplicity
 _atom_site_fract_x
 _atom_site_fract_y
 _atom_site_fract_z
 _atom_site_occupancy
  K  K0  1  0.06865280  0.33500415  0.32913113  1
  K  K1  1  0.56865280  0.16499585  0.67086887  1
  Ba  Ba0  1  0.93417843  0.67202613  0.65736236  1
  Ba  Ba1  1  0.43417843  0.82797387  0.34263764  1
  V  V0  1  0.64262802  0.44247272  0.11289879  1
  V  V1  1  0.14262802  0.05752728  0.88710121  1
  V  V2  1  0.35844065  0.55530674  0.89222694  1
  V  V3  1  0.85844065  0.94469326  0.10777306  1
  N  N0  1  0.08561347  0.90385633  0.19654483  1
  N  N1  1  0.58561347  0.59614367  0.80345517  1
  N  N2  1  0.91683775  0.09597149  0.80168072  1
  N  N3  1  0.41683775  0.40402851  0.19831928  1
  N  N4  1  0.74459305  0.13177437  0.22341704  1
  N  N5  1  0.24459305  0.36822563  0.77658296  1
  N  N6  1  0.24905684  0.86005430  0.77577023  1
  N  N7  1  0.74905684  0.63994570  0.22422977  1
loop_
_geom_bond_atom_site_label_1
_geom_bond_atom_site_label_2
_geom_bond_distance
_geom_bond_site_symmetry_2
K0 N3 2.823978 1_555
K0 N7 2.963835 1_455
K0 N4 3.000363 1_455
K0 N0 3.005602 1_545
K0 N2 3.034199 1_455
K0 N0 3.044764 1_555
K1 N2 2.823978 1_555
K1 N6 2.963835 1_545
K1 N5 3.000363 1_555
K1 N1 3.005602 1_555
K1 N3 3.034199 1_555
K1 N1 3.044764 1_545
Ba0 N1 2.852827 1_555
Ba0 N5 2.899182 1_655
Ba0 N6 2.931168 1_655
Ba0 N0 2.969210 1_655
Ba0 N2 3.016628 1_565
Ba0 N2 3.071419 1_555
Ba0 N7 3.270627 1_555
Ba0 N4 3.290218 1_565
Ba1 N0 2.852827 1_555
Ba1 N4 2.899182 1_565
Ba1 N7 2.931168 1_555
Ba1 N1 2.969210 1_555
Ba1 N3 3.016628 1_555
Ba1 N3 3.071419 1_565
Ba1 N6 3.270627 1_555
Ba1 N5 3.290218 1_555
N0 V3 1.848144 1_455
N0 V1 1.882492 1_564
N1 V2 1.848144 1_555
N1 V0 1.882492 1_556
N2 V1 1.832294 1_655
N2 V3 1.865842 1_546
N3 V0 1.832294 1_555
N3 V2 1.865842 1_554
N4 V3 1.812899 1_545
N4 V0 1.815597 1_555
N5 V2 1.812899 1_555
N5 V1 1.815597 1_555
N6 V2 1.812878 1_555
N6 V1 1.814610 1_565
N7 V3 1.812878 1_555
N7 V0 1.814610 1_555
