# generated using pymatgen
data_Y5TiRuO12
_symmetry_space_group_name_H-M   'P 1'
_cell_length_a   6.80612895
_cell_length_b   6.80612922
_cell_length_c   7.22729261
_cell_angle_alpha   74.48322796
_cell_angle_beta   74.48322511
_cell_angle_gamma   50.71445886
_symmetry_Int_Tables_number   1
_chemical_formula_structural   Y5TiRuO12
_chemical_formula_sum   'Y5 Ti1 Ru1 O12'
_cell_volume   247.51401706
_cell_formula_units_Z   1
loop_
 _symmetry_equiv_pos_site_id
 _symmetry_equiv_pos_as_xyz
  1  'x, y, z'
loop_
 _atom_site_type_symbol
 _atom_site_label
 _atom_site_symmetry_multiplicity
 _atom_site_fract_x
 _atom_site_fract_y
 _atom_site_fract_z
 _atom_site_occupancy
  Y  Y0  1  0.30375053  0.30040214  0.36022702  1
  Y  Y1  1  0.69959786  0.69624947  0.63977298  1
  Y  Y2  1  0.68919830  0.69635331  0.16852314  1
  Y  Y3  1  0.30364669  0.31080170  0.83147686  1
  Y  Y4  1  0.00156301  0.99843699  0.50000000  1
  Ti  Ti0  1  0.76368451  0.23631549  0.00000000  1
  Ru  Ru0  1  0.24891548  0.75108452  1.00000000  1
  O  O0  1  0.09710149  0.59759080  0.57331091  1
  O  O1  1  0.00332263  0.99656673  0.18364749  1
  O  O2  1  0.40240920  0.90289851  0.42668909  1
  O  O3  1  0.49741026  0.50278816  0.18554569  1
  O  O4  1  0.09622161  0.57685638  0.08311221  1
  O  O5  1  0.90283490  0.40238152  0.42483231  1
  O  O6  1  0.00343327  0.99667737  0.81635251  1
  O  O7  1  0.59761848  0.09716410  0.57516769  1
  O  O8  1  0.49721184  0.50258974  0.81445431  1
  O  O9  1  0.57218828  0.10324996  0.08152564  1
  O  O10  1  0.42314362  0.90377839  0.91688779  1
  O  O11  1  0.89675004  0.42781172  0.91847436  1
loop_
_geom_bond_atom_site_label_1
_geom_bond_atom_site_label_2
_geom_bond_distance
_geom_bond_site_symmetry_2
O0 Y1 2.275482 1_455
O0 Y3 2.290736 1_555
O0 Y4 2.304573 1_555
O0 Y0 2.312194 1_555
O1 Ti0 1.927074 1_465
O1 Ru0 1.951918 1_554
O1 Y4 2.286598 1_555
O2 Y0 2.275482 1_565
O2 Y2 2.290736 1_555
O2 Y4 2.304573 1_555
O2 Y1 2.312194 1_555
O3 Ru0 1.973846 1_554
O3 Ti0 2.051968 1_555
O3 Y2 2.336615 1_555
O3 Y0 2.388937 1_555
O4 Ru0 1.921602 1_554
O4 Y2 2.284132 1_455
O4 Y0 2.382917 1_555
O4 Y3 2.393834 1_554
O5 Y0 2.288835 1_655
O5 Y2 2.307124 1_555
O5 Y1 2.309992 1_555
O5 Y4 2.315595 1_645
O6 Ti0 1.927074 1_466
O6 Ru0 1.951918 1_555
O6 Y4 2.286598 1_555
O7 Y1 2.288829 1_545
O7 Y3 2.307126 1_555
O7 Y0 2.309992 1_555
O7 Y4 2.315598 1_645
O8 Ru0 1.973846 1_555
O8 Ti0 2.051968 1_556
O8 Y3 2.336615 1_555
O8 Y1 2.388937 1_555
O9 Ti0 1.914296 1_555
O9 Y2 2.289622 1_545
O9 Y0 2.359723 1_555
O9 Y3 2.394518 1_554
O10 Ru0 1.921602 1_555
O10 Y3 2.284133 1_565
O10 Y1 2.382917 1_555
O10 Y2 2.393835 1_556
O11 Ti0 1.914296 1_556
O11 Y3 2.289622 1_655
O11 Y1 2.359723 1_555
O11 Y2 2.394518 1_556
