# generated using pymatgen
data_Ca(DyS2)2
_symmetry_space_group_name_H-M   'P 1'
_cell_length_a   7.25334865
_cell_length_b   7.25334865
_cell_length_c   7.25334865
_cell_angle_alpha   109.50652483
_cell_angle_beta   109.50652483
_cell_angle_gamma   109.40063529
_symmetry_Int_Tables_number   1
_chemical_formula_structural   Ca(DyS2)2
_chemical_formula_sum   'Ca2 Dy4 S8'
_cell_volume   293.76041618
_cell_formula_units_Z   2
loop_
 _symmetry_equiv_pos_site_id
 _symmetry_equiv_pos_as_xyz
  1  'x, y, z'
loop_
 _atom_site_type_symbol
 _atom_site_label
 _atom_site_symmetry_multiplicity
 _atom_site_fract_x
 _atom_site_fract_y
 _atom_site_fract_z
 _atom_site_occupancy
  Ca  Ca0  1  0.75000000  0.25000000  0.50000000  1
  Ca  Ca1  1  0.00000000  0.00000000  0.00000000  1
  Dy  Dy0  1  0.37500000  0.75222700  0.87722700  1
  Dy  Dy1  1  0.50222700  0.62500000  0.37722700  1
  Dy  Dy2  1  0.87500000  0.49777300  0.12277300  1
  Dy  Dy3  1  0.24777300  0.12500000  0.62277300  1
  S  S0  1  0.98671400  0.73705300  0.60529400  1
  S  S1  1  0.13175800  0.38142000  0.39470600  1
  S  S2  1  0.61824200  0.51294700  0.74966200  1
  S  S3  1  0.48705300  0.23671400  0.10529400  1
  S  S4  1  0.13142000  0.38175800  0.89470600  1
  S  S5  1  0.26294700  0.86824200  0.24966200  1
  S  S6  1  0.61858000  0.01328600  0.75033800  1
  S  S7  1  0.76328600  0.86858000  0.25033800  1
loop_
_geom_bond_atom_site_label_1
_geom_bond_atom_site_label_2
_geom_bond_distance
_geom_bond_site_symmetry_2
Ca0 S2 2.808980 1_555
Ca0 S3 2.808982 1_555
Ca0 S7 2.808985 1_545
Ca0 S4 2.808985 1_655
Ca0 S6 3.050311 1_555
Ca0 S1 3.050311 1_655
Ca0 S5 3.050316 1_545
Ca0 S0 3.050318 1_555
Ca1 S5 2.808980 1_545
Ca1 S0 2.808982 1_444
Ca1 S1 2.808985 1_555
Ca1 S6 2.808985 1_454
Ca1 S7 3.050311 1_445
Ca1 S4 3.050311 1_554
Ca1 S2 3.050316 1_444
Ca1 S3 3.050318 1_555
Dy0 S4 2.753429 1_555
Dy0 S6 2.753429 1_565
Dy0 S7 2.788146 1_556
Dy0 S0 2.788150 1_455
Dy0 S1 3.005532 1_555
Dy0 S2 3.005537 1_555
Dy0 S3 3.011435 1_566
Dy0 S5 3.011442 1_556
Dy1 S1 2.753429 1_555
Dy1 S7 2.753429 1_555
Dy1 S6 2.788146 1_565
Dy1 S3 2.788150 1_555
Dy1 S4 3.005532 1_554
Dy1 S5 3.005537 1_555
Dy1 S0 3.011435 1_555
Dy1 S2 3.011442 1_555
Dy2 S3 2.753424 1_555
Dy2 S5 2.753425 1_655
Dy2 S2 2.788142 1_554
Dy2 S1 2.788146 1_655
Dy2 S7 3.005532 1_555
Dy2 S0 3.005533 1_555
Dy2 S6 3.011438 1_554
Dy2 S4 3.011438 1_654
Dy3 S0 2.753424 1_445
Dy3 S2 2.753425 1_555
Dy3 S5 2.788142 1_545
Dy3 S4 2.788146 1_555
Dy3 S6 3.005532 1_555
Dy3 S3 3.005533 1_556
Dy3 S7 3.011438 1_445
Dy3 S1 3.011438 1_555
