# generated using pymatgen
data_Hg2SeO5
_symmetry_space_group_name_H-M   'P 1'
_cell_length_a   7.18484319
_cell_length_b   9.70544370
_cell_length_c   14.93304450
_cell_angle_alpha   70.38842719
_cell_angle_beta   90.00000000
_cell_angle_gamma   90.00000000
_symmetry_Int_Tables_number   1
_chemical_formula_structural   Hg2SeO5
_chemical_formula_sum   'Hg16 Se8 O40'
_cell_volume   980.90555036
_cell_formula_units_Z   8
loop_
 _symmetry_equiv_pos_site_id
 _symmetry_equiv_pos_as_xyz
  1  'x, y, z'
loop_
 _atom_site_type_symbol
 _atom_site_label
 _atom_site_symmetry_multiplicity
 _atom_site_fract_x
 _atom_site_fract_y
 _atom_site_fract_z
 _atom_site_occupancy
  Hg  Hg0  1  0.88048993  0.66458870  0.14408933  1
  Hg  Hg1  1  0.38048993  0.33541130  0.35591067  1
  Hg  Hg2  1  0.11951007  0.33541130  0.85591067  1
  Hg  Hg3  1  0.61951007  0.66458870  0.64408933  1
  Hg  Hg4  1  0.63017826  0.36221295  0.11763107  1
  Hg  Hg5  1  0.13017826  0.63778705  0.38236893  1
  Hg  Hg6  1  0.36982174  0.63778705  0.88236893  1
  Hg  Hg7  1  0.86982174  0.36221295  0.61763107  1
  Hg  Hg8  1  0.87857321  0.33548746  0.35235235  1
  Hg  Hg9  1  0.37857321  0.66451254  0.14764765  1
  Hg  Hg10  1  0.12142679  0.66451254  0.64764765  1
  Hg  Hg11  1  0.62142679  0.33548746  0.85235235  1
  Hg  Hg12  1  0.63491918  0.00703230  0.37547282  1
  Hg  Hg13  1  0.13491918  0.99296770  0.12452718  1
  Hg  Hg14  1  0.36508082  0.99296770  0.62452718  1
  Hg  Hg15  1  0.86508082  0.00703230  0.87547282  1
  Se  Se0  1  0.64960622  0.65821281  0.38088556  1
  Se  Se1  1  0.14960622  0.34178719  0.11911444  1
  Se  Se2  1  0.35039378  0.34178719  0.61911444  1
  Se  Se3  1  0.85039378  0.65821281  0.88088556  1
  Se  Se4  1  0.65316408  0.03819523  0.11158090  1
  Se  Se5  1  0.15316408  0.96180477  0.38841910  1
  Se  Se6  1  0.34683592  0.96180477  0.88841910  1
  Se  Se7  1  0.84683592  0.03819523  0.61158090  1
  O  O0  1  0.81209613  0.73380378  0.30130391  1
  O  O1  1  0.31209613  0.26619622  0.19869609  1
  O  O2  1  0.18790387  0.26619622  0.69869609  1
  O  O3  1  0.68790387  0.73380378  0.80130391  1
  O  O4  1  0.62934788  0.55717264  0.15177879  1
  O  O5  1  0.12934788  0.44282736  0.34822121  1
  O  O6  1  0.37065212  0.44282736  0.84822121  1
  O  O7  1  0.87065212  0.55717264  0.65177879  1
  O  O8  1  0.72567668  0.50075232  0.45471363  1
  O  O9  1  0.22567668  0.49924768  0.04528637  1
  O  O10  1  0.27432332  0.49924768  0.54528637  1
  O  O11  1  0.77432332  0.50075232  0.95471363  1
  O  O12  1  0.95738009  0.37037947  0.17135746  1
  O  O13  1  0.45738009  0.62962053  0.32864254  1
  O  O14  1  0.04261991  0.62962053  0.82864254  1
  O  O15  1  0.59028041  0.20921436  0.04183940  1
  O  O16  1  0.54261991  0.37037947  0.67135746  1
  O  O17  1  0.12749080  0.75537978  0.16701186  1
  O  O18  1  0.37250920  0.75537978  0.66701186  1
  O  O19  1  0.87250920  0.24462022  0.83298814  1
  O  O20  1  0.10088005  0.22930203  0.05709945  1
  O  O21  1  0.60088005  0.77069797  0.44290055  1
  O  O22  1  0.89911995  0.77069797  0.94290055  1
  O  O23  1  0.39911995  0.22930203  0.55709945  1
  O  O24  1  0.18369354  0.02595699  0.94261375  1
  O  O25  1  0.68369354  0.97404301  0.55738625  1
  O  O26  1  0.81630646  0.97404301  0.05738625  1
  O  O27  1  0.31630646  0.02595699  0.44261375  1
  O  O28  1  0.76154462  0.05936257  0.70842644  1
  O  O29  1  0.26154462  0.94063743  0.79157356  1
  O  O30  1  0.23845538  0.94063743  0.29157356  1
  O  O31  1  0.73845538  0.05936257  0.20842644  1
  O  O32  1  0.53032685  0.06822435  0.87306295  1
  O  O33  1  0.03032685  0.93177565  0.62693705  1
  O  O34  1  0.46967315  0.93177565  0.12693705  1
  O  O35  1  0.96967315  0.06822435  0.37306295  1
  O  O36  1  0.90971959  0.20921436  0.54183940  1
  O  O37  1  0.40971959  0.79078564  0.95816060  1
  O  O38  1  0.09028041  0.79078564  0.45816060  1
  O  O39  1  0.62749080  0.24462022  0.33298814  1
loop_
_geom_bond_atom_site_label_1
_geom_bond_atom_site_label_2
_geom_bond_distance
_geom_bond_site_symmetry_2
Hg0 O17 2.060469 1_655
Hg0 O4 2.067751 1_555
Hg1 O39 2.060469 1_555
Hg1 O5 2.067751 1_555
Hg2 O19 2.060469 1_455
Hg2 O6 2.067751 1_555
Hg3 O18 2.060469 1_555
Hg3 O7 2.067751 1_555
Hg4 O4 2.118508 1_555
Hg4 O15 2.167098 1_555
Hg4 O12 2.493863 1_555
Hg4 O11 2.569706 1_554
Hg4 O1 2.607582 1_555
Hg5 O5 2.118508 1_555
Hg5 O38 2.167098 1_555
Hg5 O13 2.493863 1_555
Hg5 O10 2.569706 1_555
Hg5 O0 2.607582 1_455
Hg6 O6 2.118508 1_555
Hg6 O37 2.167098 1_555
Hg6 O14 2.493863 1_555
Hg6 O9 2.569706 1_556
Hg6 O3 2.607582 1_555
Hg7 O7 2.118508 1_555
Hg7 O36 2.167098 1_555
Hg7 O16 2.493863 1_555
Hg7 O8 2.569706 1_555
Hg7 O2 2.607582 1_655
Hg8 O39 2.070492 1_555
Hg8 O5 2.071804 1_655
Hg8 O35 2.591120 1_555
Hg9 O17 2.070492 1_555
Hg9 O4 2.071804 1_555
Hg9 O34 2.591120 1_555
Hg10 O18 2.070492 1_555
Hg10 O7 2.071804 1_455
Hg10 O33 2.591120 1_555
Hg11 O19 2.070492 1_555
Hg11 O6 2.071804 1_555
Hg11 O32 2.591120 1_555
Hg12 O39 2.177261 1_555
Hg12 O21 2.187347 1_545
Hg12 O35 2.474759 1_555
Hg12 O31 2.486652 1_555
Hg12 O27 2.530406 1_555
Hg12 O25 2.649707 1_545
Hg13 O17 2.177261 1_555
Hg13 O20 2.187347 1_565
Hg13 O34 2.474759 1_555
Hg13 O30 2.486652 1_555
Hg13 O26 2.530406 1_455
Hg13 O24 2.649707 1_564
Hg14 O18 2.177261 1_555
Hg14 O23 2.187347 1_565
Hg14 O33 2.474759 1_555
Hg14 O29 2.486652 1_555
Hg14 O25 2.530406 1_555
Hg14 O27 2.649707 1_565
Hg15 O19 2.177261 1_555
Hg15 O22 2.187347 1_545
Hg15 O32 2.474759 1_555
Hg15 O28 2.486652 1_555
Hg15 O24 2.530406 1_655
Hg15 O26 2.649707 1_546
O0 Se0 1.651735 1_555
O1 Se1 1.651735 1_555
O2 Se2 1.651735 1_555
O3 Se3 1.651735 1_555
O8 Se0 1.648832 1_555
O9 Se1 1.648832 1_555
O10 Se2 1.648832 1_555
O11 Se3 1.648832 1_555
O12 Se1 1.654824 1_655
O13 Se0 1.654824 1_555
O14 Se3 1.654824 1_455
O15 Se4 1.698044 1_555
O16 Se2 1.654824 1_555
O20 Se1 1.688401 1_555
O21 Se0 1.688401 1_555
O22 Se3 1.688401 1_555
O23 Se2 1.688401 1_555
O24 Se6 1.659761 1_545
O25 Se7 1.659761 1_565
O26 Se4 1.659761 1_565
O27 Se5 1.659761 1_545
O28 Se7 1.645803 1_555
O29 Se6 1.645803 1_555
O30 Se5 1.645803 1_555
O31 Se4 1.645803 1_555
O32 Se6 1.642689 1_545
O33 Se7 1.642689 1_465
O34 Se4 1.642689 1_565
O35 Se5 1.642689 1_645
O36 Se7 1.698044 1_555
O37 Se6 1.698044 1_555
O38 Se5 1.698044 1_555
