# generated using pymatgen
data_Cs2Os(Cl2F)2
_symmetry_space_group_name_H-M   'P 1'
_cell_length_a   7.15275742
_cell_length_b   7.15275774
_cell_length_c   7.15275787
_cell_angle_alpha   120.01086183
_cell_angle_beta   120.01086634
_cell_angle_gamma   89.98118367
_symmetry_Int_Tables_number   1
_chemical_formula_structural   Cs2Os(Cl2F)2
_chemical_formula_sum   'Cs2 Os1 Cl4 F2'
_cell_volume   258.72249593
_cell_formula_units_Z   1
loop_
 _symmetry_equiv_pos_site_id
 _symmetry_equiv_pos_as_xyz
  1  'x, y, z'
loop_
 _atom_site_type_symbol
 _atom_site_label
 _atom_site_symmetry_multiplicity
 _atom_site_fract_x
 _atom_site_fract_y
 _atom_site_fract_z
 _atom_site_occupancy
  Cs  Cs0  1  0.75000000  0.25000000  0.50000000  1
  Cs  Cs1  1  0.25000000  0.75000000  0.50000000  1
  Os  Os0  1  0.00000000  0.00000000  0.00000000  1
  Cl  Cl0  1  0.76656088  0.76656088  0.53312075  1
  Cl  Cl1  1  0.23343912  0.23343912  0.46687925  1
  Cl  Cl2  1  0.23343912  0.76656088  1.00000000  1
  Cl  Cl3  1  0.76656088  0.23343912  0.00000000  1
  F  F0  1  0.80949678  0.80949678  0.00000000  1
  F  F1  1  0.19050322  0.19050322  1.00000000  1
loop_
_geom_bond_atom_site_label_1
_geom_bond_atom_site_label_2
_geom_bond_distance
_geom_bond_site_symmetry_2
Cs0 F1 3.626102 1_554
Cs0 F1 3.626102 1_655
Cs0 F0 3.626102 1_545
Cs0 F0 3.626102 1_556
Cs1 F0 3.626102 1_556
Cs1 F0 3.626102 1_455
Cs1 F1 3.626102 1_565
Cs1 F1 3.626102 1_554
Cl0 Os0 2.360977 1_666
Cl0 Cs1 3.580295 1_655
Cl0 Cs0 3.580295 1_565
Cl0 Cs1 3.580302 1_555
Cl0 Cs0 3.580302 1_555
Cl1 Os0 2.360977 1_555
Cl1 Cs0 3.580295 1_455
Cl1 Cs1 3.580295 1_545
Cl1 Cs0 3.580302 1_555
Cl1 Cs1 3.580302 1_555
Cl2 Os0 2.360972 1_566
Cl2 Cs0 3.580299 1_566
Cl2 Cs0 3.580299 1_455
Cl2 Cs1 3.580299 1_556
Cl2 Cs1 3.580299 1_555
Cl3 Os0 2.360972 1_655
Cl3 Cs1 3.580299 1_544
Cl3 Cs1 3.580299 1_655
Cl3 Cs0 3.580299 1_554
Cl3 Cs0 3.580299 1_555
F0 Os0 1.927357 1_665
F1 Os0 1.927357 1_556
