# generated using pymatgen
data_Mg4GeP5Ir7
_symmetry_space_group_name_H-M   'P 1'
_cell_length_a   6.86097016
_cell_length_b   6.86094491
_cell_length_c   6.86097033
_cell_angle_alpha   109.98496827
_cell_angle_beta   108.44691770
_cell_angle_gamma   109.98496348
_symmetry_Int_Tables_number   1
_chemical_formula_structural   Mg4GeP5Ir7
_chemical_formula_sum   'Mg4 Ge1 P5 Ir7'
_cell_volume   248.56393315
_cell_formula_units_Z   1
loop_
 _symmetry_equiv_pos_site_id
 _symmetry_equiv_pos_as_xyz
  1  'x, y, z'
loop_
 _atom_site_type_symbol
 _atom_site_label
 _atom_site_symmetry_multiplicity
 _atom_site_fract_x
 _atom_site_fract_y
 _atom_site_fract_z
 _atom_site_occupancy
  Mg  Mg0  1  0.51261232  0.51248077  0.51261232  1
  Mg  Mg1  1  0.00015136  0.00000364  0.51264264  1
  Mg  Mg2  1  0.51264264  0.00000364  0.00015136  1
  Mg  Mg3  1  0.00012504  0.48758448  0.00012504  1
  Ge  Ge0  1  0.30287363  0.00003422  0.30287363  1
  P  P0  1  0.67137077  0.99996582  0.67137077  1
  P  P1  1  0.00014945  0.68183785  0.68201273  1
  P  P2  1  0.00021006  0.31814309  0.31833832  1
  P  P3  1  0.68201273  0.68183785  0.00014945  1
  P  P4  1  0.31833832  0.31814309  0.00021006  1
  Ir  Ir0  1  0.98712215  0.99998024  0.98712215  1
  Ir  Ir1  1  0.24896424  0.74655834  0.50240652  1
  Ir  Ir2  1  0.25136176  0.49999655  0.75136823  1
  Ir  Ir3  1  0.50240652  0.74655834  0.24896424  1
  Ir  Ir4  1  0.50241814  0.25343778  0.75587264  1
  Ir  Ir5  1  0.75587264  0.25343778  0.50241814  1
  Ir  Ir6  1  0.75136823  0.49999655  0.25136176  1
loop_
_geom_bond_atom_site_label_1
_geom_bond_atom_site_label_2
_geom_bond_distance
_geom_bond_site_symmetry_2
Mg0 P0 2.797859 1_555
Mg0 P1 2.801720 1_655
Mg0 P3 2.801720 1_556
Mg0 P4 2.920497 1_555
Mg0 P2 2.920497 1_555
Mg1 P0 2.798009 1_445
Mg1 P1 2.801675 1_545
Mg1 P4 2.801901 1_556
Mg1 P2 2.920667 1_555
Mg1 P3 2.921044 1_445
Mg2 P0 2.798009 1_544
Mg2 P3 2.801675 1_545
Mg2 P2 2.801901 1_655
Mg2 P4 2.920667 1_555
Mg2 P1 2.921044 1_544
Mg3 P0 2.798545 1_444
Mg3 P4 2.802253 1_555
Mg3 P2 2.802253 1_555
Mg3 P3 2.920312 1_455
Mg3 P1 2.920312 1_554
Ge0 Ir0 2.532804 1_444
Ge0 Ir4 2.557997 1_555
Ge0 Ir5 2.557997 1_555
Ge0 Ir3 2.558025 1_545
Ge0 Ir1 2.558025 1_545
Ge0 Mg0 2.876754 1_555
Ge0 Mg3 2.876835 1_545
Ge0 Mg1 2.876940 1_555
Ge0 Mg2 2.876941 1_555
Ir0 P1 2.506586 1_655
Ir0 P3 2.506586 1_556
Ir0 P2 2.506651 1_666
Ir0 P4 2.506652 1_666
Ir0 P0 2.532962 1_555
Ir1 P2 2.411834 1_555
Ir1 P1 2.411858 1_555
Ir1 P0 2.411989 1_555
Ir1 Mg0 2.799754 1_555
Ir1 Mg2 2.799932 1_566
Ir1 Mg1 2.822101 1_565
Ir1 Mg3 2.822292 1_555
Ir2 P3 2.456235 1_556
Ir2 P4 2.456466 1_556
Ir2 P2 2.471748 1_555
Ir2 P1 2.471885 1_555
Ir2 Mg3 2.784270 1_556
Ir2 Mg1 2.784329 1_555
Ir2 Mg0 2.784357 1_555
Ir2 Mg2 2.784413 1_566
Ir3 P4 2.411834 1_555
Ir3 P3 2.411858 1_555
Ir3 P0 2.411989 1_555
Ir3 Mg0 2.799754 1_555
Ir3 Mg1 2.799932 1_665
Ir3 Mg2 2.822101 1_565
Ir3 Mg3 2.822292 1_555
Ir4 P3 2.411750 1_556
Ir4 P4 2.411823 1_556
Ir4 P0 2.412098 1_545
Ir4 Mg3 2.799679 1_656
Ir4 Mg2 2.799687 1_556
Ir4 Mg1 2.822211 1_555
Ir4 Mg0 2.822354 1_555
Ir5 P1 2.411750 1_655
Ir5 P2 2.411823 1_655
Ir5 P0 2.412098 1_545
Ir5 Mg3 2.799679 1_656
Ir5 Mg1 2.799687 1_655
Ir5 Mg2 2.822211 1_555
Ir5 Mg0 2.822354 1_555
Ir6 P1 2.456235 1_655
Ir6 P2 2.456466 1_655
Ir6 P4 2.471748 1_555
Ir6 P3 2.471885 1_555
Ir6 Mg3 2.784270 1_655
Ir6 Mg2 2.784329 1_555
Ir6 Mg0 2.784357 1_555
Ir6 Mg1 2.784413 1_665
