# generated using pymatgen
data_HfBe9W2
_symmetry_space_group_name_H-M   'P 1'
_cell_length_a   7.49748518
_cell_length_b   7.49748515
_cell_length_c   7.49748506
_cell_angle_alpha   34.71804382
_cell_angle_beta   34.71804420
_cell_angle_gamma   34.71804184
_symmetry_Int_Tables_number   1
_chemical_formula_structural   HfBe9W2
_chemical_formula_sum   'Hf1 Be9 W2'
_cell_volume   122.00505603
_cell_formula_units_Z   1
loop_
 _symmetry_equiv_pos_site_id
 _symmetry_equiv_pos_as_xyz
  1  'x, y, z'
loop_
 _atom_site_type_symbol
 _atom_site_label
 _atom_site_symmetry_multiplicity
 _atom_site_fract_x
 _atom_site_fract_y
 _atom_site_fract_z
 _atom_site_occupancy
  Hf  Hf0  1  0.00000000  0.00000000  0.00000000  1
  Be  Be0  1  0.50000000  0.50000000  0.50000000  1
  Be  Be1  1  0.33422066  0.33422066  0.33422166  1
  Be  Be2  1  0.66577934  0.66577934  0.66577834  1
  Be  Be3  1  0.07834772  0.58623120  0.58623120  1
  Be  Be4  1  0.58623120  0.58623120  0.07834772  1
  Be  Be5  1  0.58623120  0.07834772  0.58623120  1
  Be  Be6  1  0.41376880  0.92165228  0.41376880  1
  Be  Be7  1  0.92165228  0.41376880  0.41376880  1
  Be  Be8  1  0.41376880  0.41376880  0.92165228  1
  W  W0  1  0.14482195  0.14482195  0.14482195  1
  W  W1  1  0.85517805  0.85517805  0.85517805  1
loop_
_geom_bond_atom_site_label_1
_geom_bond_atom_site_label_2
_geom_bond_distance
_geom_bond_site_symmetry_2
Hf0 W0 3.057987 1_555
Hf0 W1 3.057987 1_444
Be0 Be8 2.190255 1_555
Be0 Be4 2.190255 1_555
Be0 Be6 2.190255 1_555
Be0 Be5 2.190255 1_555
Be0 Be7 2.190255 1_555
Be0 Be3 2.190255 1_555
Be0 W1 2.623854 1_545
Be0 W0 2.623854 1_565
Be0 W1 2.623854 1_455
Be0 W0 2.623854 1_655
Be0 W1 2.623854 1_554
Be0 W0 2.623854 1_556
Be1 Be5 2.184381 1_555
Be1 Be3 2.184381 1_555
Be1 Be4 2.184384 1_555
Be1 Be6 2.190589 1_545
Be1 Be7 2.190589 1_455
Be1 Be8 2.190591 1_554
Be1 Hf0 2.583057 1_556
Be1 Hf0 2.583061 1_565
Be1 Hf0 2.583061 1_655
Be2 Be6 2.184381 1_555
Be2 Be7 2.184381 1_555
Be2 Be8 2.184384 1_555
Be2 Be5 2.190589 1_565
Be2 Be3 2.190589 1_655
Be2 Be4 2.190591 1_556
Be2 Hf0 2.583057 1_665
Be2 Hf0 2.583061 1_656
Be2 Hf0 2.583061 1_566
Be3 Be5 2.201667 1_465
Be3 Be4 2.201667 1_456
Be3 Be5 2.272206 1_555
Be3 Be4 2.272206 1_555
Be3 W1 2.553981 1_455
Be3 W0 2.583654 1_556
Be3 W0 2.583654 1_565
Be3 Hf0 2.849680 1_565
Be3 Hf0 2.849680 1_556
Be4 Be5 2.201667 1_564
Be4 Be5 2.272206 1_555
Be4 W1 2.553981 1_554
Be4 W0 2.583654 1_565
Be4 W0 2.583654 1_655
Be4 Hf0 2.849680 1_655
Be4 Hf0 2.849680 1_565
Be5 W1 2.553981 1_545
Be5 W0 2.583654 1_556
Be5 W0 2.583654 1_655
Be5 Hf0 2.849680 1_655
Be5 Hf0 2.849680 1_556
Be6 Be7 2.201667 1_465
Be6 Be8 2.201667 1_564
Be6 Be7 2.272206 1_555
Be6 Be8 2.272206 1_555
Be6 W0 2.553981 1_565
Be6 W1 2.583654 1_554
Be6 W1 2.583654 1_455
Be6 Hf0 2.849680 1_566
Be6 Hf0 2.849680 1_665
Be7 Be8 2.201667 1_654
Be7 Be8 2.272206 1_555
Be7 W0 2.553981 1_655
Be7 W1 2.583654 1_554
Be7 W1 2.583654 1_545
Be7 Hf0 2.849680 1_656
Be7 Hf0 2.849680 1_665
Be8 W0 2.553981 1_556
Be8 W1 2.583654 1_545
Be8 W1 2.583654 1_455
Be8 Hf0 2.849680 1_566
Be8 Hf0 2.849680 1_656
W0 W1 2.742790 1_454
W0 W1 2.742790 1_544
W0 W1 2.742790 1_445
