# generated using pymatgen
data_Sr2HfAs2Se
_symmetry_space_group_name_H-M   'P 1'
_cell_length_a   4.13757607
_cell_length_b   4.13757488
_cell_length_c   10.72196424
_cell_angle_alpha   90.00000000
_cell_angle_beta   90.00000000
_cell_angle_gamma   120.00000162
_symmetry_Int_Tables_number   1
_chemical_formula_structural   Sr2HfAs2Se
_chemical_formula_sum   'Sr2 Hf1 As2 Se1'
_cell_volume   158.96328799
_cell_formula_units_Z   1
loop_
 _symmetry_equiv_pos_site_id
 _symmetry_equiv_pos_as_xyz
  1  'x, y, z'
loop_
 _atom_site_type_symbol
 _atom_site_label
 _atom_site_symmetry_multiplicity
 _atom_site_fract_x
 _atom_site_fract_y
 _atom_site_fract_z
 _atom_site_occupancy
  Sr  Sr0  1  0.66666700  0.33333300  0.82247066  1
  Sr  Sr1  1  0.33333300  0.66666700  0.17752934  1
  Hf  Hf0  1  0.00000000  0.00000000  0.50000000  1
  As  As0  1  0.66666700  0.33333300  0.36625864  1
  As  As1  1  0.33333300  0.66666700  0.63374136  1
  Se  Se0  1  0.00000000  0.00000000  0.00000000  1
loop_
_geom_bond_atom_site_label_1
_geom_bond_atom_site_label_2
_geom_bond_distance
_geom_bond_site_symmetry_2
As0 Hf0 2.786175 1_655
As0 Hf0 2.786177 1_665
As0 Hf0 2.786178 1_555
As0 Sr1 3.130694 1_545
As0 Sr1 3.130695 1_655
As0 Sr1 3.130700 1_555
As1 Hf0 2.786175 1_565
As1 Hf0 2.786177 1_555
As1 Hf0 2.786178 1_665
As1 Sr0 3.130694 1_565
As1 Sr0 3.130695 1_455
As1 Sr0 3.130700 1_555
Se0 Sr1 3.054451 1_545
Se0 Sr0 3.054451 1_454
Se0 Sr1 3.054454 1_555
Se0 Sr0 3.054454 1_444
Se0 Sr1 3.054454 1_445
Se0 Sr0 3.054454 1_554
