# generated using pymatgen
data_Y3(ZnNi3)2
_symmetry_space_group_name_H-M   'P 1'
_cell_length_a   7.65710640
_cell_length_b   7.65710696
_cell_length_c   7.65710650
_cell_angle_alpha   109.47122458
_cell_angle_beta   109.47122605
_cell_angle_gamma   109.47121374
_symmetry_Int_Tables_number   1
_chemical_formula_structural   Y3(ZnNi3)2
_chemical_formula_sum   'Y6 Zn4 Ni12'
_cell_volume   345.59876328
_cell_formula_units_Z   2
loop_
 _symmetry_equiv_pos_site_id
 _symmetry_equiv_pos_as_xyz
  1  'x, y, z'
loop_
 _atom_site_type_symbol
 _atom_site_label
 _atom_site_symmetry_multiplicity
 _atom_site_fract_x
 _atom_site_fract_y
 _atom_site_fract_z
 _atom_site_occupancy
  Y  Y0  1  0.70394389  0.70394389  1.00000000  1
  Y  Y1  1  0.29605611  0.00000000  0.29605611  1
  Y  Y2  1  0.00000000  0.29605611  0.29605611  1
  Y  Y3  1  0.29605611  0.29605611  0.00000000  1
  Y  Y4  1  0.70394389  1.00000000  0.70394389  1
  Y  Y5  1  1.00000000  0.70394389  0.70394389  1
  Zn  Zn0  1  0.00000000  0.00000000  0.50000000  1
  Zn  Zn1  1  0.00000000  0.50000000  0.00000000  1
  Zn  Zn2  1  0.50000000  0.00000000  0.00000000  1
  Zn  Zn3  1  0.50000000  0.50000000  0.50000000  1
  Ni  Ni0  1  0.33674395  0.33674395  0.67348790  1
  Ni  Ni1  1  0.66325605  1.00000000  0.33674395  1
  Ni  Ni2  1  1.00000000  0.66325605  0.33674395  1
  Ni  Ni3  1  0.66325605  0.33674395  0.00000000  1
  Ni  Ni4  1  0.33674395  0.67348790  0.33674395  1
  Ni  Ni5  1  0.00000000  0.33674395  0.66325605  1
  Ni  Ni6  1  0.33674395  0.66325605  1.00000000  1
  Ni  Ni7  1  0.33674395  0.00000000  0.66325605  1
  Ni  Ni8  1  0.67348790  0.33674395  0.33674395  1
  Ni  Ni9  1  0.66325605  0.66325605  0.32651210  1
  Ni  Ni10  1  0.66325605  0.32651210  0.66325605  1
  Ni  Ni11  1  0.32651210  0.66325605  0.66325605  1
loop_
_geom_bond_atom_site_label_1
_geom_bond_atom_site_label_2
_geom_bond_distance
_geom_bond_site_symmetry_2
Y0 Zn0 3.152412 1_666
Y0 Zn3 3.152412 1_555
Y0 Zn1 3.152412 1_656
Y0 Zn2 3.152412 1_566
Y0 Y1 3.701886 1_666
Y0 Y5 3.701886 1_555
Y0 Y4 3.701887 1_555
Y0 Y2 3.701887 1_666
Y1 Zn0 3.152412 1_555
Y1 Zn2 3.152412 1_555
Y1 Zn1 3.152412 1_545
Y1 Zn3 3.152412 1_555
Y1 Y5 3.701886 1_444
Y1 Y2 3.701886 1_555
Y1 Y3 3.701887 1_555
Y2 Zn2 3.152412 1_455
Y2 Zn3 3.152412 1_555
Y2 Zn1 3.152412 1_555
Y2 Zn0 3.152412 1_555
Y2 Y4 3.701886 1_444
Y2 Y3 3.701886 1_555
Y3 Zn0 3.152412 1_554
Y3 Zn3 3.152412 1_555
Y3 Zn1 3.152412 1_555
Y3 Zn2 3.152412 1_555
Y3 Y4 3.701886 1_444
Y3 Y5 3.701887 1_444
Y4 Zn0 3.152412 1_665
Y4 Zn2 3.152412 1_566
Y4 Zn1 3.152412 1_666
Y4 Zn3 3.152412 1_555
Y4 Y5 3.701886 1_555
Y5 Zn2 3.152412 1_666
Y5 Zn3 3.152412 1_555
Y5 Zn1 3.152412 1_656
Y5 Zn0 3.152412 1_665
Ni0 Zn0 2.462194 1_555
Ni0 Zn3 2.462194 1_555
Ni0 Ni5 2.553437 1_555
Ni0 Ni10 2.553437 1_555
Ni0 Ni11 2.553438 1_555
Ni0 Ni7 2.553438 1_555
Ni0 Y0 2.723723 1_555
Ni0 Y3 2.723724 1_556
Ni0 Ni3 2.886910 1_556
Ni0 Ni6 2.886911 1_555
Ni0 Y2 2.999032 1_555
Ni0 Y1 2.999032 1_555
Ni1 Zn0 2.462194 1_665
Ni1 Zn2 2.462194 1_565
Ni1 Ni6 2.553437 1_554
Ni1 Ni5 2.553437 1_665
Ni1 Ni9 2.553438 1_555
Ni1 Ni8 2.553438 1_565
Ni1 Y1 2.723723 1_565
Ni1 Y4 2.723723 1_555
Ni1 Ni10 2.886911 1_565
Ni1 Ni4 2.886911 1_555
Ni1 Y0 2.999032 1_554
Ni1 Y2 2.999032 1_665
Ni2 Zn1 2.462194 1_655
Ni2 Zn0 2.462194 1_665
Ni2 Ni3 2.553437 1_555
Ni2 Ni7 2.553437 1_665
Ni2 Ni9 2.553437 1_555
Ni2 Ni4 2.553437 1_655
Ni2 Y5 2.723723 1_555
Ni2 Y2 2.723724 1_655
Ni2 Ni8 2.886911 1_555
Ni2 Y0 2.999032 1_554
Ni2 Y1 2.999032 1_665
Ni3 Zn1 2.462194 1_655
Ni3 Zn2 2.462194 1_555
Ni3 Ni7 2.553437 1_554
Ni3 Ni8 2.553437 1_555
Ni3 Y3 2.723723 1_555
Ni3 Y0 2.723724 1_554
Ni3 Ni9 2.886911 1_555
Ni3 Y2 2.999032 1_655
Ni3 Y4 2.999032 1_544
Ni4 Zn1 2.462194 1_555
Ni4 Zn3 2.462194 1_555
Ni4 Ni9 2.553437 1_555
Ni4 Ni6 2.553437 1_554
Ni4 Y4 2.723723 1_555
Ni4 Y1 2.723724 1_565
Ni4 Ni7 2.886911 1_565
Ni4 Y3 2.999032 1_555
Ni4 Y2 2.999032 1_555
Ni5 Zn1 2.462194 1_556
Ni5 Zn0 2.462194 1_555
Ni5 Ni6 2.553437 1_555
Ni5 Y2 2.723723 1_555
Ni5 Y5 2.723724 1_455
Ni5 Ni8 2.886910 1_455
Ni5 Y3 2.999032 1_556
Ni5 Y4 2.999032 1_445
Ni6 Zn1 2.462194 1_556
Ni6 Zn2 2.462194 1_566
Ni6 Y0 2.723723 1_555
Ni6 Y3 2.723724 1_556
Ni6 Ni9 2.886910 1_556
Ni6 Y5 2.999032 1_455
Ni6 Y1 2.999032 1_566
Ni7 Zn0 2.462194 1_555
Ni7 Zn2 2.462194 1_556
Ni7 Y4 2.723723 1_545
Ni7 Y1 2.723723 1_555
Ni7 Y3 2.999032 1_556
Ni7 Y5 2.999032 1_445
Ni8 Zn2 2.462194 1_555
Ni8 Zn3 2.462194 1_555
Ni8 Ni9 2.553438 1_555
Ni8 Y5 2.723723 1_555
Ni8 Y2 2.723723 1_655
Ni8 Y3 2.999032 1_555
Ni8 Y1 2.999032 1_555
Ni9 Zn0 2.462194 1_665
Ni9 Zn3 2.462194 1_555
Ni9 Y3 2.723723 1_555
Ni9 Y0 2.723724 1_554
Ni9 Y5 2.999032 1_555
Ni9 Y4 2.999032 1_555
Ni10 Zn1 2.462194 1_656
Ni10 Zn3 2.462194 1_555
Ni10 Ni5 2.553437 1_655
Ni10 Ni3 2.553437 1_556
Ni10 Ni8 2.553437 1_555
Ni10 Y1 2.723723 1_555
Ni10 Y4 2.723724 1_545
Ni10 Ni7 2.886911 1_555
Ni10 Y0 2.999032 1_555
Ni10 Y5 2.999032 1_555
Ni11 Zn2 2.462194 1_566
Ni11 Zn3 2.462194 1_555
Ni11 Ni6 2.553437 1_555
Ni11 Ni4 2.553437 1_555
Ni11 Ni7 2.553438 1_565
Ni11 Y2 2.723723 1_555
Ni11 Y5 2.723723 1_455
Ni11 Ni2 2.886910 1_455
Ni11 Ni5 2.886911 1_555
Ni11 Y0 2.999032 1_555
Ni11 Y4 2.999032 1_555
