# generated using pymatgen
data_KGe2PdPt2
_symmetry_space_group_name_H-M   'P 1'
_cell_length_a   7.09566336
_cell_length_b   7.09566422
_cell_length_c   7.09566406
_cell_angle_alpha   120.26442510
_cell_angle_beta   81.54761755
_cell_angle_gamma   130.01558489
_symmetry_Int_Tables_number   1
_chemical_formula_structural   KGe2PdPt2
_chemical_formula_sum   'K2 Ge4 Pd2 Pt4'
_cell_volume   227.69556860
_cell_formula_units_Z   2
loop_
 _symmetry_equiv_pos_site_id
 _symmetry_equiv_pos_as_xyz
  1  'x, y, z'
loop_
 _atom_site_type_symbol
 _atom_site_label
 _atom_site_symmetry_multiplicity
 _atom_site_fract_x
 _atom_site_fract_y
 _atom_site_fract_z
 _atom_site_occupancy
  K  K0  1  0.47880969  0.22880969  0.25000000  1
  K  K1  1  0.52119131  0.77119031  0.75000000  1
  Ge  Ge0  1  0.77431375  0.69495135  0.07936140  1
  Ge  Ge1  1  0.11558995  0.69495135  0.42063760  1
  Ge  Ge2  1  0.88441005  0.30504865  0.57936240  1
  Ge  Ge3  1  0.22568625  0.30504865  0.92063860  1
  Pd  Pd0  1  0.00000000  0.49999900  0.00000000  1
  Pd  Pd1  1  0.00000000  0.00000000  0.50000000  1
  Pt  Pt0  1  0.00000000  0.20464277  0.20464277  1
  Pt  Pt1  1  0.50000000  0.79535723  0.29535723  1
  Pt  Pt2  1  0.50000000  0.20464277  0.70464277  1
  Pt  Pt3  1  1.00000000  0.79535723  0.79535723  1
loop_
_geom_bond_atom_site_label_1
_geom_bond_atom_site_label_2
_geom_bond_distance
_geom_bond_site_symmetry_2
K0 Pt0 3.345505 1_555
K0 Pt3 3.345505 1_444
K0 Pt2 3.345505 1_555
K0 Pt1 3.345505 1_545
K0 Pd1 3.370953 1_555
K0 Pd0 3.370958 1_545
K0 K1 3.542764 1_555
K0 K1 3.542771 1_544
K0 Pd0 3.589828 1_655
K0 Pd1 3.589829 1_665
K0 Pt0 3.770890 1_655
K0 Pt3 3.770890 1_555
K0 Pt2 3.770890 1_554
K0 Pt1 3.770890 1_555
K1 Pt3 3.345497 1_555
K1 Pt0 3.345501 1_666
K1 Pt1 3.345506 1_555
K1 Pt2 3.345510 1_565
K1 Pd0 3.370948 1_666
K1 Pd1 3.370949 1_665
K1 Pd1 3.589830 1_555
K1 Pd0 3.589834 1_556
K1 Pt2 3.770886 1_555
K1 Pt1 3.770890 1_556
K1 Pt0 3.770893 1_555
K1 Pt3 3.770897 1_455
Ge0 Pt3 2.482812 1_554
Ge0 Pt0 2.482816 1_665
Ge0 Pt2 2.539853 1_554
Ge0 Pt1 2.539858 1_555
Ge0 Pd1 2.567802 1_665
Ge0 Pd0 2.567803 1_655
Ge0 K0 3.342805 1_555
Ge0 K1 3.569041 1_554
Ge0 K0 3.688993 1_665
Ge1 Pt1 2.482812 1_555
Ge1 Pt2 2.482816 1_565
Ge1 Pt0 2.539853 1_555
Ge1 Pt3 2.539858 1_455
Ge1 Pd0 2.567795 1_555
Ge1 Pd1 2.567802 1_565
Ge1 K0 3.342805 1_455
Ge1 K1 3.569052 1_555
Ge1 K0 3.688993 1_565
Ge2 Pt2 2.482812 1_555
Ge2 Pt1 2.482816 1_545
Ge2 Pt3 2.539853 1_555
Ge2 Pt0 2.539858 1_655
Ge2 Pd0 2.567799 1_656
Ge2 Pd1 2.567802 1_655
Ge2 K1 3.342810 1_655
Ge2 K0 3.569046 1_555
Ge2 K1 3.688993 1_545
Ge3 Pt0 2.482812 1_556
Ge3 Pt3 2.482816 1_445
Ge3 Pt1 2.539853 1_556
Ge3 Pt2 2.539858 1_555
Ge3 Pd0 2.567791 1_556
Ge3 Pd1 2.567802 1_555
Ge3 K1 3.342805 1_555
Ge3 K0 3.569046 1_556
Ge3 K1 3.688988 1_445
Pd0 Pt0 3.093246 1_555
Pd0 Pt1 3.093249 1_555
Pd0 Pt2 3.093255 1_454
Pd0 Pt3 3.093259 1_454
Pd1 Pt1 3.093252 1_445
Pd1 Pt2 3.093252 1_555
Pd1 Pt3 3.093252 1_445
Pd1 Pt0 3.093252 1_555
