# generated using pymatgen
data_Sr10RuW3N14
_symmetry_space_group_name_H-M   'P 1'
_cell_length_a   6.44313409
_cell_length_b   9.31420058
_cell_length_c   9.37951089
_cell_angle_alpha   115.72638260
_cell_angle_beta   97.61886197
_cell_angle_gamma   89.24172972
_symmetry_Int_Tables_number   1
_chemical_formula_structural   Sr10RuW3N14
_chemical_formula_sum   'Sr10 Ru1 W3 N14'
_cell_volume   501.99803795
_cell_formula_units_Z   1
loop_
 _symmetry_equiv_pos_site_id
 _symmetry_equiv_pos_as_xyz
  1  'x, y, z'
loop_
 _atom_site_type_symbol
 _atom_site_label
 _atom_site_symmetry_multiplicity
 _atom_site_fract_x
 _atom_site_fract_y
 _atom_site_fract_z
 _atom_site_occupancy
  Sr  Sr0  1  0.84332842  0.59417645  0.32076882  1
  Sr  Sr1  1  0.26899076  0.98980348  0.56227629  1
  Sr  Sr2  1  0.69007248  0.40616936  0.83904664  1
  Sr  Sr3  1  0.29151787  0.58921912  0.14640729  1
  Sr  Sr4  1  0.39816076  0.79239524  0.92533811  1
  Sr  Sr5  1  0.60579398  0.20896393  0.08206970  1
  Sr  Sr6  1  0.15062937  0.40121530  0.67492946  1
  Sr  Sr7  1  0.90165871  0.84523236  0.75873222  1
  Sr  Sr8  1  0.12786316  0.15037521  0.24555506  1
  Sr  Sr9  1  0.73190329  0.01205970  0.44137246  1
  Ru  Ru0  1  0.59121743  0.35439426  0.46645847  1
  W  W0  1  0.42168677  0.63702902  0.52450829  1
  W  W1  1  0.11930401  0.21743164  0.91852052  1
  W  W2  1  0.87868872  0.78509312  0.08198955  1
  N  N0  1  0.50528395  0.55151829  0.67437960  1
  N  N1  1  0.46169629  0.45298433  0.32671160  1
  N  N2  1  0.15053555  0.70416872  0.54242266  1
  N  N3  1  0.84145721  0.28119039  0.42689572  1
  N  N4  1  0.43119428  0.20486420  0.50411489  1
  N  N5  1  0.58989524  0.80497071  0.53808033  1
  N  N6  1  0.95355326  0.13939135  0.71676882  1
  N  N7  1  0.05410090  0.87118255  0.27999765  1
  N  N8  1  0.23253481  0.05177762  0.96248504  1
  N  N9  1  0.76787309  0.94605892  0.03221876  1
  N  N10  1  0.34998126  0.33219942  0.91046457  1
  N  N11  1  0.96405562  0.34979090  0.08006889  1
  N  N12  1  0.03107673  0.65086063  0.91844694  1
  N  N13  1  0.64594708  0.67548478  0.09897064  1
loop_
_geom_bond_atom_site_label_1
_geom_bond_atom_site_label_2
_geom_bond_distance
_geom_bond_site_symmetry_2
N0 W0 1.913211 1_555
N0 Ru0 2.152160 1_555
N0 Sr4 2.618353 1_555
N0 Sr2 2.630745 1_555
N0 Sr6 2.697328 1_555
N1 W0 1.949638 1_555
N1 Ru0 1.998093 1_555
N1 Sr3 2.647063 1_555
N1 Sr5 2.697134 1_555
N1 Sr0 2.822121 1_555
N2 W0 1.851819 1_555
N2 Sr0 2.530448 1_455
N2 Sr7 2.628061 1_455
N2 Sr1 2.698367 1_555
N3 Ru0 1.764114 1_555
N3 Sr8 2.599333 1_655
N3 Sr9 2.677343 1_555
N3 Sr6 2.683745 1_655
N4 Ru0 1.920731 1_555
N4 Sr1 2.560776 1_545
N4 Sr9 2.572548 1_555
N4 Sr6 2.704841 1_555
N4 Sr8 2.767597 1_555
N4 Sr2 3.121932 1_555
N5 W0 1.863619 1_555
N5 Sr7 2.588957 1_555
N5 Sr1 2.642239 1_555
N5 Sr9 2.676979 1_565
N5 Sr0 2.828295 1_555
N6 W1 1.881577 1_655
N6 Sr9 2.554503 1_555
N6 Sr1 2.669259 1_645
N6 Sr2 2.881366 1_555
N6 Sr6 2.959469 1_655
N6 Sr7 2.961229 1_545
N7 W2 1.882585 1_455
N7 Sr1 2.583909 1_555
N7 Sr9 2.712801 1_465
N7 Sr8 2.809868 1_565
N7 Sr3 2.890049 1_555
N7 Sr0 3.119997 1_455
N8 W1 1.877697 1_555
N8 Sr4 2.529140 1_545
N8 Sr8 2.586342 1_556
N8 Sr5 2.671642 1_556
N8 Sr7 2.781120 1_445
N9 W2 1.861833 1_555
N9 Sr5 2.524548 1_565
N9 Sr7 2.584302 1_554
N9 Sr4 2.634252 1_554
N9 Sr8 2.930137 1_665
N10 W1 1.870669 1_555
N10 Sr3 2.523523 1_556
N10 Sr2 2.560242 1_555
N10 Sr6 2.720703 1_555
N10 Sr5 2.734104 1_556
N11 W1 1.887837 1_654
N11 Sr0 2.615490 1_555
N11 Sr5 2.676240 1_555
N11 Sr3 2.895481 1_655
N11 Sr2 2.906983 1_554
N11 Sr8 2.998287 1_655
N12 W2 1.892648 1_456
N12 Sr6 2.650563 1_555
N12 Sr4 2.702609 1_555
N12 Sr3 2.793934 1_556
N12 Sr7 2.863630 1_455
N12 Sr2 2.966727 1_455
N13 W2 1.887170 1_555
N13 Sr3 2.585907 1_555
N13 Sr0 2.675727 1_555
N13 Sr2 2.678167 1_554
N13 Sr4 2.681616 1_554
