# generated using pymatgen
data_Zr10Be2AlSb5
_symmetry_space_group_name_H-M   'P 1'
_cell_length_a   8.51912059
_cell_length_b   8.54246374
_cell_length_c   5.77533978
_cell_angle_alpha   90.00000000
_cell_angle_beta   90.00000000
_cell_angle_gamma   119.90964355
_symmetry_Int_Tables_number   1
_chemical_formula_structural   Zr10Be2AlSb5
_chemical_formula_sum   'Zr10 Be2 Al1 Sb5'
_cell_volume   364.31812931
_cell_formula_units_Z   1
loop_
 _symmetry_equiv_pos_site_id
 _symmetry_equiv_pos_as_xyz
  1  'x, y, z'
loop_
 _atom_site_type_symbol
 _atom_site_label
 _atom_site_symmetry_multiplicity
 _atom_site_fract_x
 _atom_site_fract_y
 _atom_site_fract_z
 _atom_site_occupancy
  Zr  Zr0  1  0.26168424  1.00000000  0.25000000  1
  Zr  Zr1  1  0.25022006  0.24824265  0.75000000  1
  Zr  Zr2  1  0.00197641  0.75175735  0.75000000  1
  Zr  Zr3  1  0.99176891  0.25355377  0.25000000  1
  Zr  Zr4  1  0.73821514  0.74644623  0.25000000  1
  Zr  Zr5  1  0.75185843  1.00000000  0.75000000  1
  Zr  Zr6  1  0.33533031  0.66889694  0.00305684  1
  Zr  Zr7  1  0.66643437  0.33110306  0.49694316  1
  Zr  Zr8  1  0.66643437  0.33110306  0.00305684  1
  Zr  Zr9  1  0.33533031  0.66889694  0.49694316  1
  Be  Be0  1  0.99969118  1.00000000  0.01656042  1
  Be  Be1  1  0.99969118  1.00000000  0.48343958  1
  Al  Al0  1  0.61063375  0.00000000  0.25000000  1
  Sb  Sb0  1  0.60949383  0.60904634  0.75000000  1
  Sb  Sb1  1  0.00044649  0.39095366  0.75000000  1
  Sb  Sb2  1  0.99889014  0.61516297  0.25000000  1
  Sb  Sb3  1  0.38372617  0.38483703  0.25000000  1
  Sb  Sb4  1  0.39817769  1.00000000  0.75000000  1
loop_
_geom_bond_atom_site_label_1
_geom_bond_atom_site_label_2
_geom_bond_distance
_geom_bond_site_symmetry_2
Zr6 Zr9 2.852361 1_555
Zr6 Zr9 2.922978 1_554
Zr7 Zr8 2.852361 1_555
Zr7 Zr8 2.922978 1_556
Be0 Zr3 2.580582 1_565
Be0 Zr4 2.580583 1_555
Be0 Zr0 2.607533 1_655
Be0 Zr5 2.612977 1_554
Be0 Zr2 2.628403 1_654
Be0 Zr1 2.628406 1_664
Be1 Zr3 2.580582 1_565
Be1 Zr4 2.580583 1_555
Be1 Zr0 2.607533 1_655
Be1 Zr5 2.612977 1_555
Be1 Zr2 2.628403 1_655
Be1 Zr1 2.628406 1_665
Al0 Zr4 2.867137 1_545
Al0 Zr3 2.867138 1_555
Al0 Zr0 2.972743 1_545
Al0 Zr7 2.986492 1_555
Al0 Zr8 2.986492 1_555
Al0 Zr9 2.986495 1_545
Al0 Zr6 2.986495 1_545
Al0 Zr5 3.128276 1_544
Al0 Zr5 3.128276 1_545
Sb0 Zr5 2.930048 1_555
Sb0 Zr2 2.932721 1_655
Sb0 Zr6 3.007226 1_556
Sb0 Zr9 3.007226 1_555
Sb0 Zr8 3.026095 1_556
Sb0 Zr7 3.026095 1_555
Sb0 Zr1 3.075674 1_555
Sb0 Zr4 3.104064 1_555
Sb0 Zr4 3.104064 1_556
Sb1 Zr5 2.930047 1_445
Sb1 Zr1 2.932737 1_555
Sb1 Zr8 3.007211 1_456
Sb1 Zr7 3.007211 1_455
Sb1 Zr6 3.026095 1_556
Sb1 Zr9 3.026095 1_555
Sb1 Zr2 3.075674 1_555
Sb1 Zr3 3.104065 1_456
Sb1 Zr3 3.104065 1_455
Sb2 Zr0 2.911996 1_655
Sb2 Zr4 2.945000 1_555
Sb2 Zr7 3.014953 1_555
Sb2 Zr8 3.014953 1_555
Sb2 Zr9 3.024501 1_655
Sb2 Zr6 3.024501 1_655
Sb2 Zr3 3.059235 1_555
Sb2 Zr2 3.109707 1_655
Sb2 Zr2 3.109707 1_654
Sb3 Zr0 2.911997 1_545
Sb3 Zr3 2.944992 1_455
Sb3 Zr9 3.014953 1_555
Sb3 Zr6 3.014953 1_555
Sb3 Zr7 3.024516 1_555
Sb3 Zr8 3.024516 1_555
Sb3 Zr4 3.059239 1_555
Sb3 Zr1 3.109704 1_555
Sb3 Zr1 3.109704 1_554
Sb4 Zr1 2.958275 1_565
Sb4 Zr2 2.958282 1_555
Sb4 Zr6 2.985371 1_556
Sb4 Zr9 2.985371 1_555
Sb4 Zr8 2.985373 1_566
Sb4 Zr7 2.985373 1_565
Sb4 Zr5 3.013049 1_555
Sb4 Zr0 3.112997 1_555
Sb4 Zr0 3.112997 1_556
