# generated using pymatgen
data_SrCaTaN3
_symmetry_space_group_name_H-M   'P 1'
_cell_length_a   6.27498387
_cell_length_b   6.37605479
_cell_length_c   12.90826910
_cell_angle_alpha   90.21730585
_cell_angle_beta   89.73976609
_cell_angle_gamma   125.80083013
_symmetry_Int_Tables_number   1
_chemical_formula_structural   SrCaTaN3
_chemical_formula_sum   'Sr4 Ca4 Ta4 N12'
_cell_volume   418.86902812
_cell_formula_units_Z   4
loop_
 _symmetry_equiv_pos_site_id
 _symmetry_equiv_pos_as_xyz
  1  'x, y, z'
loop_
 _atom_site_type_symbol
 _atom_site_label
 _atom_site_symmetry_multiplicity
 _atom_site_fract_x
 _atom_site_fract_y
 _atom_site_fract_z
 _atom_site_occupancy
  Sr  Sr0  1  0.02910778  0.42924577  0.86463023  1
  Sr  Sr1  1  0.53257390  0.92540905  0.63188730  1
  Sr  Sr2  1  0.47115317  0.07174255  0.36900340  1
  Sr  Sr3  1  0.66277430  0.90293035  0.06553976  1
  Ca  Ca0  1  0.97592398  0.60029591  0.11849904  1
  Ca  Ca1  1  0.17927016  0.40970393  0.44149085  1
  Ca  Ca2  1  0.32213087  0.09001385  0.93597079  1
  Ca  Ca3  1  0.82826473  0.58952700  0.56177852  1
  Ta  Ta0  1  0.81941700  0.78400120  0.33538120  1
  Ta  Ta1  1  0.30177131  0.28572951  0.16879571  1
  Ta  Ta2  1  0.19217986  0.21025630  0.66716150  1
  Ta  Ta3  1  0.68986122  0.71264799  0.83093492  1
  N  N0  1  0.38452345  0.36200692  0.79847713  1
  N  N1  1  0.63560925  0.61314910  0.20436060  1
  N  N2  1  0.89019918  0.85776827  0.70136271  1
  N  N3  1  0.10867132  0.14059144  0.29993034  1
  N  N4  1  0.05401201  0.39769961  0.62550967  1
  N  N5  1  0.55656905  0.90813302  0.86903971  1
  N  N6  1  0.96998020  0.61521095  0.38546135  1
  N  N7  1  0.38164574  0.05482254  0.11872098  1
  N  N8  1  0.87766399  0.69579773  0.94488151  1
  N  N9  1  0.61985917  0.79849494  0.44538972  1
  N  N10  1  0.13115176  0.34744246  0.06103438  1
  N  N11  1  0.38568659  0.19738061  0.55475768  1
loop_
_geom_bond_atom_site_label_1
_geom_bond_atom_site_label_2
_geom_bond_distance
_geom_bond_site_symmetry_2
Ca0 N10 2.433068 1_655
Ca0 N1 2.444972 1_555
Ca0 N8 2.497129 1_554
Ca0 N7 2.499686 1_665
Ca1 N3 2.360882 1_555
Ca1 N9 2.402779 1_555
Ca1 N6 2.448235 1_455
Ca1 N4 2.485968 1_555
Ca1 N11 2.780614 1_555
Ca2 N0 2.352336 1_555
Ca2 N7 2.421714 1_556
Ca2 N8 2.430514 1_445
Ca2 N5 2.496436 1_545
Ca2 N10 3.000003 1_556
Ca3 N2 2.351174 1_555
Ca3 N6 2.410730 1_555
Ca3 N11 2.418525 1_555
Ca3 N4 2.494923 1_655
Ca3 N9 2.795381 1_555
N0 Ta3 1.957955 1_555
N0 Ta2 1.976366 1_555
N0 Sr0 2.643000 1_555
N1 Ta1 1.960190 1_555
N1 Ta0 1.977652 1_555
N1 Sr3 2.511535 1_555
N2 Ta2 1.963212 1_665
N2 Ta3 1.966141 1_555
N2 Sr1 2.679504 1_555
N3 Ta0 1.961006 1_445
N3 Ta1 1.967557 1_555
N3 Sr2 2.711257 1_555
N4 Ta2 1.921077 1_555
N4 Sr1 2.872787 1_445
N4 Sr1 2.919725 1_555
N4 Sr0 3.101590 1_555
N5 Ta3 1.925194 1_555
N5 Sr3 2.630742 1_556
N5 Sr0 2.882510 1_665
N5 Sr0 2.908290 1_555
N5 Sr1 3.071167 1_555
N6 Ta0 1.915504 1_555
N6 Sr2 2.774364 1_665
N6 Sr2 3.026730 1_555
N7 Ta1 1.920878 1_555
N7 Sr3 2.550277 1_545
N7 Sr2 3.272240 1_555
N8 Ta3 1.931008 1_555
N8 Sr0 2.594594 1_655
N8 Sr3 2.834972 1_556
N9 Ta0 1.926472 1_555
N9 Sr2 2.608018 1_565
N9 Sr1 2.691093 1_555
N10 Ta1 1.935602 1_555
N10 Sr3 2.632198 1_445
N10 Sr0 2.743175 1_554
N10 Sr3 3.139005 1_555
N11 Ta2 1.919919 1_555
N11 Sr1 2.596021 1_545
N11 Sr2 2.674883 1_555
