# generated using pymatgen
data_Rb4Mg5MnTe8
_symmetry_space_group_name_H-M   'P 1'
_cell_length_a   10.55688278
_cell_length_b   10.53611499
_cell_length_c   10.55688285
_cell_angle_alpha   143.53751527
_cell_angle_beta   105.06637762
_cell_angle_gamma   86.40374285
_symmetry_Int_Tables_number   1
_chemical_formula_structural   Rb4Mg5MnTe8
_chemical_formula_sum   'Rb4 Mg5 Mn1 Te8'
_cell_volume   651.57609699
_cell_formula_units_Z   1
loop_
 _symmetry_equiv_pos_site_id
 _symmetry_equiv_pos_as_xyz
  1  'x, y, z'
loop_
 _atom_site_type_symbol
 _atom_site_label
 _atom_site_symmetry_multiplicity
 _atom_site_fract_x
 _atom_site_fract_y
 _atom_site_fract_z
 _atom_site_occupancy
  Rb  Rb0  1  0.12378554  0.26404006  0.38851293  1
  Rb  Rb1  1  0.87799944  0.73763349  0.61247599  1
  Rb  Rb2  1  0.62447287  0.23595994  0.85974448  1
  Rb  Rb3  1  0.37484151  0.76236651  0.14036595  1
  Mg  Mg0  1  0.24939362  0.25000000  0.99939362  1
  Mg  Mg1  1  0.75064551  0.75000000  0.00064551  1
  Mg  Mg2  1  0.51775908  0.25000000  0.26775908  1
  Mg  Mg3  1  0.48229870  0.75000000  0.73229870  1
  Mg  Mg4  1  0.98339656  0.25000000  0.73339656  1
  Mn  Mn0  1  0.01325032  0.75000000  0.26325032  1
  Te  Te0  1  0.48922780  0.58474820  0.35759546  1
  Te  Te1  1  0.51125790  0.41460969  0.64219628  1
  Te  Te2  1  0.22415284  0.12207087  0.63487097  1
  Te  Te3  1  0.27284626  0.91525180  0.90447960  1
  Te  Te4  1  0.77399229  0.86603738  0.35632846  1
  Te  Te5  1  0.72758659  0.08539031  0.09664921  1
  Te  Te6  1  0.01280009  0.37792913  0.10208197  1
  Te  Te7  1  0.99029107  0.63396262  0.90795591  1
loop_
_geom_bond_atom_site_label_1
_geom_bond_atom_site_label_2
_geom_bond_distance
_geom_bond_site_symmetry_2
Rb0 Te1 3.834877 1_555
Rb0 Te2 3.840588 1_555
Rb0 Te7 3.883138 1_444
Rb0 Te3 3.916909 1_544
Rb0 Te5 3.935749 1_455
Rb0 Te6 3.971674 1_555
Rb0 Te3 4.000827 1_555
Rb0 Te7 4.024702 1_455
Rb1 Te4 3.808232 1_555
Rb1 Te0 3.846547 1_555
Rb1 Te3 3.924188 1_655
Rb1 Te5 3.929121 1_566
Rb1 Te6 3.942810 1_666
Rb1 Te7 3.965395 1_555
Rb1 Te6 3.985492 1_655
Rb1 Te5 4.010145 1_555
Rb2 Te5 3.834896 1_556
Rb2 Te6 3.840589 1_656
Rb2 Te4 3.883135 1_556
Rb2 Te0 3.916924 1_556
Rb2 Te1 3.935741 1_555
Rb2 Te2 3.971674 1_555
Rb2 Te0 4.000830 1_545
Rb2 Te4 4.024688 1_545
Rb3 Te7 3.808222 1_454
Rb3 Te3 3.846547 1_554
Rb3 Te0 3.924198 1_555
Rb3 Te1 3.929121 1_554
Rb3 Te2 3.942808 1_554
Rb3 Te4 3.965395 1_555
Rb3 Te2 3.985485 1_565
Rb3 Te1 4.010145 1_565
Mg0 Te3 2.799942 1_545
Mg0 Te0 2.799943 1_556
Mg0 Te6 2.804537 1_556
Mg0 Te2 2.804537 1_555
Mg1 Te7 2.797738 1_554
Mg1 Te4 2.797741 1_555
Mg1 Te5 2.798789 1_565
Mg1 Te1 2.798796 1_554
Mg2 Te5 2.781507 1_555
Mg2 Te1 2.781511 1_555
Mg2 Te0 2.839800 1_555
Mg2 Te3 2.839806 1_544
Mg3 Te0 2.782199 1_555
Mg3 Te3 2.782209 1_555
Mg3 Te1 2.845073 1_555
Mg3 Te5 2.845074 1_566
Mg4 Te7 2.782618 1_555
Mg4 Te4 2.782623 1_545
Mg4 Te2 2.836914 1_655
Mg4 Te6 2.836914 1_656
Mn0 Te6 2.744507 1_555
Mn0 Te2 2.744507 1_565
Mn0 Te7 2.794729 1_454
Mn0 Te4 2.794739 1_455
