# generated using pymatgen
data_In10Sn(BiIr2)3
_symmetry_space_group_name_H-M   'P 1'
_cell_length_a   8.26078365
_cell_length_b   8.25949588
_cell_length_c   8.25060225
_cell_angle_alpha   110.15752526
_cell_angle_beta   109.13652722
_cell_angle_gamma   109.14320258
_symmetry_Int_Tables_number   1
_chemical_formula_structural   In10Sn(BiIr2)3
_chemical_formula_sum   'In10 Sn1 Bi3 Ir6'
_cell_volume   433.18926300
_cell_formula_units_Z   1
loop_
 _symmetry_equiv_pos_site_id
 _symmetry_equiv_pos_as_xyz
  1  'x, y, z'
loop_
 _atom_site_type_symbol
 _atom_site_label
 _atom_site_symmetry_multiplicity
 _atom_site_fract_x
 _atom_site_fract_y
 _atom_site_fract_z
 _atom_site_occupancy
  In  In0  1  0.00074963  0.99866089  0.70342187  1
  In  In1  1  0.32613769  0.99774078  0.99883972  1
  In  In2  1  0.67395076  0.66848494  0.66943289  1
  In  In3  1  0.00308926  0.33189799  0.00250335  1
  In  In4  1  0.31785557  0.31864926  0.31181496  1
  In  In5  1  0.00086598  0.67892396  0.99094324  1
  In  In6  1  0.24739840  0.74292732  0.49893341  1
  In  In7  1  0.75079423  0.25626322  0.50174460  1
  In  In8  1  0.74942619  0.49662082  0.25150925  1
  In  In9  1  0.24664213  0.50291554  0.74695709  1
  Sn  Sn0  1  0.67894969  0.00126075  0.99462838  1
  Bi  Bi0  1  0.49709715  0.74961845  0.25077084  1
  Bi  Bi1  1  0.50539507  0.25598338  0.75235521  1
  Bi  Bi2  1  0.00310677  0.00038493  0.33867662  1
  Ir  Ir0  1  0.65437182  0.00014376  0.65612914  1
  Ir  Ir1  1  0.65642812  0.66315171  0.00193493  1
  Ir  Ir2  1  0.34766531  0.34734242  0.99565002  1
  Ir  Ir3  1  0.00031725  0.65235460  0.64780572  1
  Ir  Ir4  1  0.99387875  0.33569284  0.33885178  1
  Ir  Ir5  1  0.34587923  0.00098542  0.34709697  1
loop_
_geom_bond_atom_site_label_1
_geom_bond_atom_site_label_2
_geom_bond_distance
_geom_bond_site_symmetry_2
In0 Ir3 2.734889 1_555
In0 Ir2 2.755204 1_565
In0 Ir0 2.762970 1_465
In0 In1 2.982730 1_555
In0 In3 2.986287 1_566
In0 In2 2.991928 1_455
In1 Ir5 2.814283 1_566
In1 Ir3 2.815934 1_555
In1 Ir2 2.844085 1_565
In1 Sn0 2.916831 1_565
In1 In4 3.035723 1_566
In1 In5 3.047079 1_555
In2 Ir3 2.802293 1_655
In2 Ir1 2.808608 1_556
In2 Ir0 2.833431 1_565
In2 In4 2.926928 1_555
In2 In5 3.054499 1_655
In2 Sn0 3.086330 1_565
In3 Ir4 2.790677 1_455
In3 Ir2 2.827402 1_554
In3 Ir0 2.828807 1_454
In3 In5 2.906315 1_554
In3 In4 3.051925 1_555
In3 Sn0 3.098315 1_454
In4 Ir2 2.780341 1_554
In4 Ir4 2.801614 1_455
In4 Ir5 2.811215 1_555
In5 Ir3 2.761521 1_555
In5 Ir5 2.825439 1_566
In5 Ir1 2.838186 1_456
In6 Ir3 2.740420 1_555
In6 Ir4 2.819320 1_455
In6 Ir0 2.838285 1_565
In6 Ir5 2.854014 1_565
In7 Ir3 2.763204 1_655
In7 Ir4 2.789633 1_555
In7 Ir5 2.825632 1_555
In7 Ir0 2.854664 1_555
In8 Ir3 2.747865 1_655
In8 Ir4 2.798276 1_555
In8 Ir2 2.814284 1_554
In8 Ir1 2.886177 1_555
In9 Ir3 2.754091 1_555
In9 Ir4 2.810470 1_455
In9 Ir2 2.820542 1_555
In9 Ir1 2.847831 1_556
Bi0 Ir5 2.777986 1_565
Bi0 Ir0 2.788072 1_565
Bi0 Ir2 2.789330 1_554
Bi0 Ir1 2.799120 1_555
Bi1 Ir2 2.759026 1_555
Bi1 Ir5 2.790991 1_555
Bi1 Ir0 2.792849 1_555
Bi1 Ir1 2.810261 1_556
Bi2 Ir4 2.794920 1_455
Bi2 Ir5 2.807884 1_555
Bi2 Ir1 2.810161 1_445
Bi2 In0 3.020703 1_545
Bi2 In5 3.156590 1_544
Bi2 In4 3.164840 1_555
Bi2 Sn0 3.204919 1_454
Ir0 Sn0 2.729544 1_555
Ir0 Ir5 2.959568 1_555
Ir1 Sn0 2.760352 1_564
Ir1 Ir2 2.961216 1_554
Ir3 Ir4 2.926798 1_455
Ir4 Sn0 2.738592 1_554
