# generated using pymatgen
data_ScTa4(Re3Tc)6
_symmetry_space_group_name_H-M   'P 1'
_cell_length_a   8.35832614
_cell_length_b   8.36577412
_cell_length_c   8.36577560
_cell_angle_alpha   109.57038750
_cell_angle_beta   109.46811605
_cell_angle_gamma   109.41122392
_symmetry_Int_Tables_number   1
_chemical_formula_structural   ScTa4(Re3Tc)6
_chemical_formula_sum   'Sc1 Ta4 Re18 Tc6'
_cell_volume   450.10689814
_cell_formula_units_Z   1
loop_
 _symmetry_equiv_pos_site_id
 _symmetry_equiv_pos_as_xyz
  1  'x, y, z'
loop_
 _atom_site_type_symbol
 _atom_site_label
 _atom_site_symmetry_multiplicity
 _atom_site_fract_x
 _atom_site_fract_y
 _atom_site_fract_z
 _atom_site_occupancy
  Sc  Sc0  1  0.00000000  0.99960875  0.99960875  1
  Ta  Ta0  1  0.37070900  0.37136513  0.37088361  1
  Ta  Ta1  1  0.00123391  0.62897583  0.99991635  1
  Ta  Ta2  1  0.62929100  0.00017561  0.00065613  1
  Ta  Ta3  1  0.99876609  0.99868244  0.62774092  1
  Re  Re0  1  0.60111421  0.60161719  0.28105439  1
  Re  Re1  1  0.80596807  0.80643485  0.18058460  1
  Re  Re2  1  0.37548484  0.19382730  0.00033075  1
  Re  Re3  1  0.19403193  0.37461753  0.00046777  1
  Re  Re4  1  0.62259546  0.81689713  0.62314252  1
  Re  Re5  1  0.37740454  0.00054806  0.19430167  1
  Re  Re6  1  0.00002725  0.37712249  0.19532621  1
  Re  Re7  1  0.81834567  0.62274720  0.62288417  1
  Re  Re8  1  0.18165433  0.80453950  0.80440153  1
  Re  Re9  1  0.80476864  0.17970900  0.80541984  1
  Re  Re10  1  0.19523136  0.00065120  0.37493936  1
  Re  Re11  1  0.99997275  0.19529895  0.37709424  1
  Re  Re12  1  0.62451516  0.62484591  0.81834246  1
  Re  Re13  1  0.39965331  0.00002717  0.68042800  1
  Re  Re14  1  0.60034669  0.28077569  0.60037386  1
  Re  Re15  1  0.68162626  0.40094241  0.00157981  1
  Re  Re16  1  0.39888579  0.67993918  0.00050398  1
  Re  Re17  1  0.31837374  0.31995255  0.71931515  1
  Tc  Tc0  1  0.99885206  0.39958631  0.68254171  1
  Tc  Tc1  1  0.28111726  0.59921669  0.59950615  1
  Tc  Tc2  1  0.71888274  0.31838989  0.31810042  1
  Tc  Tc3  1  0.31769994  0.71847775  0.31904057  1
  Tc  Tc4  1  0.68230006  0.00133863  0.40077881  1
  Tc  Tc5  1  0.00114794  0.68369065  0.40073426  1
loop_
_geom_bond_atom_site_label_1
_geom_bond_atom_site_label_2
_geom_bond_distance
_geom_bond_site_symmetry_2
Sc0 Ta0 3.103008 1_566
Sc0 Ta2 3.103011 1_466
Sc0 Ta1 3.104933 1_555
Sc0 Ta3 3.104942 1_455
Ta0 Tc1 2.704315 1_555
Ta0 Tc3 3.222993 1_555
Ta0 Tc2 3.231577 1_555
Ta1 Tc0 2.694158 1_455
Ta1 Tc3 2.705921 1_556
Ta1 Tc5 3.229046 1_556
Ta2 Tc2 2.704319 1_555
Ta2 Tc4 3.223012 1_555
Ta2 Tc1 3.231586 1_544
Ta3 Tc5 2.694148 1_655
Ta3 Tc4 2.705905 1_565
Ta3 Tc0 3.229046 1_565
Re0 Re1 2.558933 1_555
Re0 Ta0 2.729937 1_555
Re0 Re4 2.730482 1_555
Re0 Re7 2.737284 1_555
Re0 Re15 2.812068 1_555
Re0 Re16 2.813707 1_555
Re0 Re3 2.844026 1_555
Re0 Re2 2.848539 1_555
Re0 Tc5 2.904421 1_655
Re0 Tc4 2.905295 1_565
Re0 Tc3 2.915695 1_555
Re0 Tc2 2.918561 1_555
Re0 Ta3 3.205402 1_555
Re1 Re12 2.472322 1_554
Re1 Re11 2.654985 1_565
Re1 Re10 2.656990 1_665
Re1 Tc5 2.735957 1_655
Re1 Tc4 2.738184 1_565
Re1 Re15 2.836560 1_555
Re1 Re16 2.844026 1_555
Re1 Ta2 2.969361 1_565
Re1 Ta1 2.983914 1_654
Re1 Sc0 3.011264 1_654
Re1 Ta3 3.066873 1_555
Re2 Re3 2.472329 1_555
Re2 Re5 2.646809 1_555
Re2 Re8 2.657860 1_544
Re2 Tc2 2.731526 1_555
Re2 Ta0 2.975686 1_555
Re2 Ta3 2.987898 1_444
Re2 Sc0 3.013474 1_544
Re2 Ta2 3.067305 1_555
Re3 Re6 2.654979 1_555
Re3 Re9 2.656990 1_454
Re3 Tc0 2.735966 1_454
Re3 Tc3 2.738178 1_555
Re3 Ta0 2.969351 1_555
Re3 Ta3 2.983926 1_444
Re3 Sc0 3.011267 1_544
Re3 Ta1 3.066873 1_554
Re4 Re9 2.477086 1_565
Re4 Tc3 2.554413 1_555
Re4 Re7 2.661096 1_555
Re4 Tc1 2.725708 1_555
Re4 Tc4 2.849611 1_565
Re4 Ta3 2.983602 1_555
Re4 Ta2 2.984853 1_566
Re4 Sc0 3.025533 1_655
Re4 Ta0 3.054715 1_555
Re5 Tc4 2.554430 1_555
Re5 Re8 2.661097 1_544
Re5 Tc2 2.725706 1_555
Re5 Tc3 2.849637 1_545
Re5 Ta1 2.983602 1_544
Re5 Ta0 2.984844 1_555
Re5 Sc0 3.025529 1_544
Re5 Ta2 3.054716 1_555
Re6 Tc5 2.559569 1_555
Re6 Re9 2.661183 1_454
Re6 Tc3 2.724802 1_555
Re6 Tc2 2.828040 1_455
Re6 Tc1 2.828337 1_555
Re6 Ta0 2.978611 1_555
Re6 Ta2 2.983146 1_455
Re6 Sc0 3.031519 1_544
Re6 Ta1 3.068565 1_554
Re7 Re8 2.479832 1_655
Re7 Tc2 2.550731 1_555
Re7 Tc0 2.829351 1_555
Re7 Tc5 2.838675 1_655
Re7 Ta3 2.981248 1_555
Re7 Ta1 2.985176 1_655
Re7 Sc0 3.024845 1_655
Re7 Ta0 3.067238 1_555
Re8 Tc1 2.550746 1_555
Re8 Tc5 2.829351 1_555
Re8 Tc0 2.838680 1_455
Re8 Ta1 2.981249 1_555
Re8 Ta3 2.985172 1_455
Re8 Sc0 3.024841 1_555
Re8 Ta2 3.067238 1_566
Re9 Tc0 2.732536 1_555
Re9 Tc4 2.832770 1_555
Re9 Ta2 2.975007 1_556
Re9 Ta3 2.977067 1_545
Re9 Sc0 3.013132 1_645
Re9 Ta1 3.080554 1_655
Re10 Re5 2.477079 1_555
Re10 Re13 2.560271 1_555
Re10 Re11 2.661183 1_455
Re10 Tc5 2.732534 1_545
Re10 Re17 2.745017 1_555
Re10 Re14 2.832354 1_555
Re10 Tc3 2.832777 1_545
Re10 Ta0 2.975007 1_555
Re10 Ta1 2.977058 1_544
Re10 Sc0 3.013125 1_544
Re10 Ta3 3.080555 1_445
Re11 Re6 2.485077 1_655
Re11 Tc0 2.559569 1_555
Re11 Tc4 2.724817 1_555
Re11 Re17 2.728183 1_655
Re11 Tc1 2.828034 1_655
Re11 Tc2 2.828343 1_555
Re11 Ta2 2.978608 1_555
Re11 Ta0 2.983147 1_655
Re11 Sc0 3.031512 1_644
Re11 Ta3 3.068565 1_545
Re12 Re17 2.563777 1_555
Re12 Re4 2.646816 1_555
Re12 Re7 2.657868 1_555
Re12 Tc1 2.731524 1_555
Re12 Re14 2.739131 1_555
Re12 Re16 2.848544 1_556
Re12 Re15 2.848947 1_556
Re12 Ta2 2.975693 1_566
Re12 Ta1 2.987894 1_655
Re12 Sc0 3.013474 1_655
Re12 Ta0 3.067312 1_555
Re13 Ta2 2.725729 1_556
Re13 Re8 2.735967 1_545
Re13 Re2 2.739139 1_556
Re13 Tc3 2.816717 1_545
Re13 Re14 2.821793 1_555
Re13 Re9 2.832353 1_555
Re13 Re4 2.837265 1_545
Re13 Tc5 2.893171 1_545
Re13 Re17 2.916025 1_555
Re13 Tc1 2.916701 1_545
Re13 Re15 2.917243 1_556
Re13 Ta3 3.226310 1_445
Re14 Re9 2.560271 1_555
Re14 Ta0 2.725727 1_555
Re14 Re7 2.735964 1_555
Re14 Tc4 2.816731 1_555
Re14 Re5 2.837265 1_555
Re14 Tc0 2.893174 1_555
Re14 Re15 2.916033 1_556
Re14 Tc2 2.916694 1_555
Re14 Re17 2.917234 1_555
Re14 Ta1 3.226309 1_655
Re15 Re2 2.563775 1_555
Re15 Ta1 2.725972 1_654
Re15 Re6 2.728181 1_655
Re15 Re9 2.745021 1_554
Re15 Re17 2.834669 1_554
Re15 Tc2 2.898954 1_555
Re15 Tc5 2.905711 1_655
Re15 Ta2 3.230747 1_555
Re16 Re3 2.558920 1_555
Re16 Ta2 2.729954 1_565
Re16 Re5 2.730493 1_565
Re16 Re8 2.737302 1_554
Re16 Re17 2.812075 1_554
Re16 Tc0 2.904424 1_454
Re16 Tc3 2.905303 1_555
Re16 Tc4 2.915693 1_565
Re16 Tc1 2.918578 1_554
Re16 Ta1 3.205403 1_554
Re17 Ta3 2.725967 1_445
Re17 Re3 2.836576 1_556
Re17 Re2 2.848949 1_556
Re17 Tc1 2.898953 1_555
Re17 Tc0 2.905716 1_455
Re17 Ta0 3.230751 1_555
Tc0 Tc2 2.834285 1_555
Tc0 Tc1 2.844018 1_655
Tc0 Tc4 2.894660 1_555
Tc1 Tc5 2.834294 1_555
Tc1 Tc3 2.904790 1_555
Tc2 Tc5 2.844021 1_655
Tc2 Tc4 2.904814 1_555
Tc3 Tc4 2.843901 1_565
Tc3 Tc5 2.894653 1_555
