# generated using pymatgen
data_Hf6Tc5As6Ru
_symmetry_space_group_name_H-M   'P 1'
_cell_length_a   7.67168901
_cell_length_b   7.71757530
_cell_length_c   7.69484160
_cell_angle_alpha   127.51524572
_cell_angle_beta   123.06452757
_cell_angle_gamma   81.03513861
_symmetry_Int_Tables_number   1
_chemical_formula_structural   Hf6Tc5As6Ru
_chemical_formula_sum   'Hf6 Tc5 As6 Ru1'
_cell_volume   291.98682469
_cell_formula_units_Z   1
loop_
 _symmetry_equiv_pos_site_id
 _symmetry_equiv_pos_as_xyz
  1  'x, y, z'
loop_
 _atom_site_type_symbol
 _atom_site_label
 _atom_site_symmetry_multiplicity
 _atom_site_fract_x
 _atom_site_fract_y
 _atom_site_fract_z
 _atom_site_occupancy
  Hf  Hf0  1  0.46188092  0.68481046  0.72048231  1
  Hf  Hf1  1  0.53493157  0.25380213  0.21835590  1
  Hf  Hf2  1  0.75026286  0.84126895  0.59611770  1
  Hf  Hf3  1  0.24680496  0.83792763  0.08631023  1
  Hf  Hf4  1  0.05269075  0.25536322  0.70241148  1
  Hf  Hf5  1  0.94860037  0.65602921  0.20908875  1
  Tc  Tc0  1  0.47821600  0.49748707  0.97634446  1
  Tc  Tc1  1  0.01569866  0.49958745  0.51808735  1
  Tc  Tc2  1  0.09814613  0.25288525  0.10174112  1
  Tc  Tc3  1  0.89771689  0.00591483  0.15488734  1
  Tc  Tc4  1  0.35053196  0.00691421  0.60352740  1
  As  As0  1  0.27807158  0.25895212  0.48196894  1
  As  As1  1  0.73240336  0.24252244  0.01188123  1
  As  As2  1  0.33027217  0.58580588  0.24974090  1
  As  As3  1  0.66813640  0.92070479  0.25841198  1
  As  As4  1  0.16354331  0.92228773  0.75126229  1
  As  As5  1  0.83393219  0.58523686  0.75696948  1
  Ru  Ru0  1  0.65815993  0.25210076  0.66201213  1
loop_
_geom_bond_atom_site_label_1
_geom_bond_atom_site_label_2
_geom_bond_distance
_geom_bond_site_symmetry_2
Hf0 Tc3 2.965165 1_566
Hf0 Tc4 2.990516 1_565
Hf0 Tc0 3.020411 1_555
Hf0 Tc1 3.030211 1_555
Hf0 Ru0 3.311194 1_555
Hf1 Tc2 2.958436 1_555
Hf1 Ru0 3.012889 1_555
Hf1 Tc1 3.176620 1_655
Hf1 Tc0 3.212552 1_554
Hf2 Ru0 2.922997 1_565
Hf2 Tc2 2.934334 1_666
Hf2 Tc1 3.031991 1_655
Hf2 Tc0 3.097299 1_554
Hf2 Tc3 3.141300 1_566
Hf2 Tc4 3.149894 1_565
Hf3 Tc1 2.856228 1_554
Hf3 Tc0 2.872032 1_554
Hf3 Tc4 2.952912 1_565
Hf3 Tc3 2.959421 1_465
Hf3 Tc2 3.180710 1_565
Hf3 Ru0 3.231673 1_565
Hf4 Tc0 2.861329 1_555
Hf4 Tc4 2.869005 1_555
Hf4 Tc3 2.870383 1_455
Hf4 Ru0 2.871555 1_455
Hf4 Tc1 2.880074 1_555
Hf4 Tc2 2.909331 1_556
Hf5 Ru0 2.889739 1_554
Hf5 Tc4 2.903974 1_665
Hf5 Tc2 2.910357 1_655
Hf5 Tc3 2.912606 1_565
Hf5 Tc1 3.056676 1_655
Hf5 Tc0 3.063006 1_554
Tc0 Tc4 2.895603 1_555
As0 Tc2 2.431938 1_555
As0 Ru0 2.461276 1_555
As0 Tc0 2.489185 1_555
As0 Tc4 2.505798 1_555
As0 Tc1 2.528728 1_555
As0 Tc3 2.537465 1_455
As0 Hf3 2.698524 1_545
As0 Hf0 2.726238 1_555
As0 Hf4 3.023275 1_555
As1 Ru0 2.476655 1_554
As1 Tc2 2.498591 1_655
As1 Tc3 2.521210 1_555
As1 Tc4 2.533593 1_554
As1 Tc1 2.554659 1_655
As1 Tc0 2.574287 1_554
As1 Hf1 2.691409 1_555
As1 Hf2 2.850129 1_544
As1 Hf5 2.871068 1_555
As2 Tc2 2.592100 1_555
As2 Tc0 2.606978 1_554
As2 Tc4 2.630096 1_565
As2 Hf3 2.736931 1_555
As2 Hf1 2.737697 1_555
As2 Hf2 2.753454 1_555
As2 Hf4 2.756981 1_554
As2 Hf0 2.757350 1_555
As2 Hf5 2.770852 1_455
As3 Tc3 2.588255 1_565
As3 Ru0 2.591597 1_565
As3 Tc0 2.626814 1_554
As3 Hf5 2.742827 1_555
As3 Hf0 2.743113 1_554
As3 Hf1 2.747806 1_565
As3 Hf3 2.748118 1_555
As3 Hf2 2.749340 1_555
As3 Hf4 2.770569 1_665
As4 Tc2 2.594518 1_566
As4 Tc4 2.598537 1_565
As4 Tc1 2.636571 1_555
As4 Hf0 2.721941 1_555
As4 Hf2 2.728952 1_455
As4 Hf5 2.730372 1_455
As4 Hf1 2.734926 1_566
As4 Hf3 2.756172 1_556
As4 Hf4 2.760238 1_565
As5 Ru0 2.584506 1_555
As5 Tc1 2.605776 1_655
As5 Tc3 2.628323 1_566
As5 Hf3 2.721234 1_656
As5 Hf0 2.742433 1_555
As5 Hf1 2.743162 1_555
As5 Hf2 2.750432 1_555
As5 Hf4 2.758531 1_655
As5 Hf5 2.769665 1_556
Ru0 Tc4 2.923791 1_555
Ru0 Tc0 2.931242 1_555
Ru0 Tc2 3.218939 1_656
