# generated using pymatgen
data_KSb12RuRh3
_symmetry_space_group_name_H-M   'P 1'
_cell_length_a   8.10535016
_cell_length_b   8.09304186
_cell_length_c   8.10534992
_cell_angle_alpha   109.44046226
_cell_angle_beta   109.50195997
_cell_angle_gamma   109.44046820
_symmetry_Int_Tables_number   1
_chemical_formula_structural   KSb12RuRh3
_chemical_formula_sum   'K1 Sb12 Ru1 Rh3'
_cell_volume   409.44742098
_cell_formula_units_Z   1
loop_
 _symmetry_equiv_pos_site_id
 _symmetry_equiv_pos_as_xyz
  1  'x, y, z'
loop_
 _atom_site_type_symbol
 _atom_site_label
 _atom_site_symmetry_multiplicity
 _atom_site_fract_x
 _atom_site_fract_y
 _atom_site_fract_z
 _atom_site_occupancy
  K  K0  1  0.00000000  0.00000000  0.00000000  1
  Sb  Sb0  1  0.84402193  0.65638501  0.50100654  1
  Sb  Sb1  1  0.15597807  0.34361499  0.49899346  1
  Sb  Sb2  1  0.15553468  0.65787658  0.81603149  1
  Sb  Sb3  1  0.84446532  0.34212342  0.18396851  1
  Sb  Sb4  1  0.66049580  0.50234189  0.84446532  1
  Sb  Sb5  1  0.33950420  0.49765811  0.15553468  1
  Sb  Sb6  1  0.65698461  0.81236409  0.15597807  1
  Sb  Sb7  1  0.34301539  0.18763591  0.84402193  1
  Sb  Sb8  1  0.50100654  0.84462253  0.65698461  1
  Sb  Sb9  1  0.49899346  0.15537747  0.34301539  1
  Sb  Sb10  1  0.18396851  0.84184609  0.33950420  1
  Sb  Sb11  1  0.81603149  0.15815391  0.66049580  1
  Ru  Ru0  1  0.00000000  0.50000000  0.00000000  1
  Rh  Rh0  1  0.50000000  0.50000000  0.50000000  1
  Rh  Rh1  1  0.50000000  0.00000000  0.00000000  1
  Rh  Rh2  1  0.00000000  0.00000000  0.50000000  1
loop_
_geom_bond_atom_site_label_1
_geom_bond_atom_site_label_2
_geom_bond_distance
_geom_bond_site_symmetry_2
K0 Sb10 3.508481 1_545
K0 Sb11 3.508481 1_454
K0 Sb3 3.508481 1_455
K0 Sb2 3.508481 1_544
K0 Sb5 3.508483 1_555
K0 Sb4 3.508483 1_444
K0 Sb7 3.528260 1_554
K0 Sb6 3.528260 1_445
K0 Sb1 3.528262 1_555
K0 Sb0 3.528262 1_444
K0 Sb9 3.528265 1_555
K0 Sb8 3.528265 1_444
Sb0 Sb2 2.923997 1_655
Sb0 Sb3 2.955287 1_555
Sb1 Sb3 2.923997 1_455
Sb1 Sb2 2.955287 1_555
Sb4 Sb6 2.923997 1_556
Sb4 Sb7 2.955287 1_555
Sb5 Sb7 2.923997 1_554
Sb5 Sb6 2.955287 1_555
Sb10 Sb9 2.923993 1_565
Sb10 Sb8 2.955283 1_555
Sb11 Sb8 2.923993 1_545
Sb11 Sb9 2.955283 1_555
Ru0 Sb2 2.626096 1_554
Ru0 Sb3 2.626096 1_455
Ru0 Sb5 2.626104 1_555
Ru0 Sb4 2.626104 1_454
Ru0 Sb10 2.626104 1_555
Ru0 Sb11 2.626104 1_454
Rh0 Sb0 2.646873 1_555
Rh0 Sb1 2.646873 1_555
Rh0 Sb4 2.647883 1_555
Rh0 Sb5 2.647883 1_555
Rh0 Sb8 2.648303 1_555
Rh0 Sb9 2.648303 1_555
Rh1 Sb9 2.646872 1_555
Rh1 Sb8 2.646872 1_544
Rh1 Sb3 2.647884 1_555
Rh1 Sb2 2.647884 1_544
Rh1 Sb6 2.648289 1_545
Rh1 Sb7 2.648289 1_554
Rh2 Sb7 2.646874 1_555
Rh2 Sb6 2.646874 1_445
Rh2 Sb11 2.647876 1_455
Rh2 Sb10 2.647876 1_545
Rh2 Sb1 2.648296 1_555
Rh2 Sb0 2.648296 1_445
