# generated using pymatgen
data_Sr12Al3Ga5N16
_symmetry_space_group_name_H-M   'P 1'
_cell_length_a   5.93181773
_cell_length_b   9.57561171
_cell_length_c   10.17108481
_cell_angle_alpha   90.00000000
_cell_angle_beta   89.87854617
_cell_angle_gamma   90.00000000
_symmetry_Int_Tables_number   1
_chemical_formula_structural   Sr12Al3Ga5N16
_chemical_formula_sum   'Sr12 Al3 Ga5 N16'
_cell_volume   577.72428640
_cell_formula_units_Z   1
loop_
 _symmetry_equiv_pos_site_id
 _symmetry_equiv_pos_as_xyz
  1  'x, y, z'
loop_
 _atom_site_type_symbol
 _atom_site_label
 _atom_site_symmetry_multiplicity
 _atom_site_fract_x
 _atom_site_fract_y
 _atom_site_fract_z
 _atom_site_occupancy
  Sr  Sr0  1  0.25000000  0.59530623  0.50000000  1
  Sr  Sr1  1  0.25000000  0.90366513  0.00000000  1
  Sr  Sr2  1  0.75000000  0.40447106  0.50000000  1
  Sr  Sr3  1  0.75000000  0.09455016  0.00000000  1
  Sr  Sr4  1  0.38547837  0.58626643  0.15551613  1
  Sr  Sr5  1  0.38905859  0.91218591  0.34441191  1
  Sr  Sr6  1  0.11452163  0.58626643  0.84448387  1
  Sr  Sr7  1  0.11094141  0.91218591  0.65558809  1
  Sr  Sr8  1  0.61455129  0.41314443  0.84687677  1
  Sr  Sr9  1  0.60772272  0.08713312  0.65408255  1
  Sr  Sr10  1  0.88544871  0.41314443  0.15312323  1
  Sr  Sr11  1  0.89227728  0.08713312  0.34591745  1
  Al  Al0  1  0.25000000  0.23025821  0.00000000  1
  Al  Al1  1  0.75000000  0.73095478  0.50000000  1
  Al  Al2  1  0.75000000  0.76849900  0.00000000  1
  Ga  Ga0  1  0.83434663  0.74959998  0.24984123  1
  Ga  Ga1  1  0.66565337  0.74959998  0.75015877  1
  Ga  Ga2  1  0.16343747  0.25018663  0.75269362  1
  Ga  Ga3  1  0.33656253  0.25018663  0.24730638  1
  Ga  Ga4  1  0.25000000  0.27078446  0.50000000  1
  N  N0  1  0.49139676  0.16798997  0.40251509  1
  N  N1  1  0.48279293  0.33202224  0.08984673  1
  N  N2  1  0.00860324  0.16798997  0.59748491  1
  N  N3  1  0.01720707  0.33202224  0.91015327  1
  N  N4  1  0.51739252  0.83179431  0.59237059  1
  N  N5  1  0.51775535  0.66790293  0.90817682  1
  N  N6  1  0.98260748  0.83179431  0.40762941  1
  N  N7  1  0.98224465  0.66790293  0.09182318  1
  N  N8  1  0.12414831  0.37571503  0.35237553  1
  N  N9  1  0.12616336  0.12714524  0.14145112  1
  N  N10  1  0.37585169  0.37571503  0.64762447  1
  N  N11  1  0.37383664  0.12714524  0.85854888  1
  N  N12  1  0.87570512  0.87109460  0.85868598  1
  N  N13  1  0.62358913  0.62857316  0.35887611  1
  N  N14  1  0.62429488  0.87109460  0.14131402  1
  N  N15  1  0.87641087  0.62857316  0.64112389  1
loop_
_geom_bond_atom_site_label_1
_geom_bond_atom_site_label_2
_geom_bond_distance
_geom_bond_site_symmetry_2
Al0 N9 1.892065 1_555
Al0 N11 1.892065 1_554
Al0 N1 1.922720 1_555
Al0 N3 1.922720 1_554
Al1 N15 1.894274 1_555
Al1 N13 1.894274 1_555
Al1 N4 1.927011 1_555
Al1 N6 1.927011 1_555
Al2 N14 1.892745 1_555
Al2 N12 1.892745 1_554
Al2 N7 1.924438 1_555
Al2 N5 1.924438 1_554
Ga0 N7 1.989678 1_555
Ga0 N6 1.993620 1_555
Ga0 N13 2.032243 1_555
Ga0 N14 2.032301 1_555
Ga1 N5 1.989678 1_555
Ga1 N4 1.993620 1_555
Ga1 N15 2.032243 1_555
Ga1 N12 2.032301 1_555
Ga2 N3 1.981287 1_555
Ga2 N2 1.990302 1_555
Ga2 N11 2.027480 1_555
Ga2 N10 2.041759 1_555
Ga3 N1 1.981287 1_555
Ga3 N0 1.990302 1_555
Ga3 N9 2.027480 1_555
Ga3 N8 2.041759 1_555
Ga4 N10 1.956051 1_555
Ga4 N8 1.956051 1_555
Ga4 N2 1.999098 1_555
Ga4 N0 1.999098 1_555
N0 Sr11 2.565092 1_555
N0 Sr5 2.592149 1_545
N0 Sr9 2.762265 1_555
N0 Sr2 2.910400 1_555
N1 Sr4 2.589347 1_555
N1 Sr10 2.594027 1_555
N1 Sr8 2.704299 1_554
N1 Sr3 2.917544 1_555
N2 Sr9 2.565092 1_455
N2 Sr7 2.592149 1_545
N2 Sr11 2.762265 1_455
N2 Sr2 2.910400 1_455
N3 Sr6 2.589347 1_555
N3 Sr8 2.594027 1_455
N3 Sr10 2.704299 1_456
N3 Sr3 2.917544 1_456
N4 Sr9 2.580825 1_565
N4 Sr7 2.610047 1_555
N4 Sr5 2.746045 1_555
N4 Sr0 2.921100 1_555
N5 Sr8 2.582228 1_555
N5 Sr6 2.599723 1_555
N5 Sr4 2.747212 1_556
N5 Sr1 2.912935 1_556
N6 Sr11 2.580825 1_565
N6 Sr5 2.610047 1_655
N6 Sr7 2.746045 1_655
N6 Sr0 2.921100 1_655
N7 Sr10 2.582228 1_555
N7 Sr4 2.599723 1_655
N7 Sr6 2.747212 1_654
N7 Sr1 2.912935 1_655
N8 Sr10 2.500523 1_455
N8 Sr0 2.690352 1_555
N8 Sr2 2.691067 1_455
N9 Sr11 2.526713 1_455
N9 Sr3 2.675773 1_455
N9 Sr1 2.680380 1_545
N10 Sr8 2.500523 1_555
N10 Sr0 2.690352 1_555
N10 Sr2 2.691067 1_555
N11 Sr9 2.526713 1_555
N11 Sr3 2.675773 1_556
N11 Sr1 2.680380 1_546
N12 Sr7 2.521291 1_655
N12 Sr1 2.665743 1_656
N12 Sr3 2.682492 1_566
N13 Sr4 2.539627 1_555
N13 Sr0 2.656924 1_555
N13 Sr2 2.689258 1_555
N14 Sr5 2.521291 1_555
N14 Sr1 2.665743 1_555
N14 Sr3 2.682492 1_565
N15 Sr6 2.539627 1_655
N15 Sr0 2.656924 1_655
N15 Sr2 2.689258 1_555
