# generated using pymatgen
data_Zr8CuIr3N2
_symmetry_space_group_name_H-M   'P 1'
_cell_length_a   8.76218508
_cell_length_b   8.76218510
_cell_length_c   8.73283823
_cell_angle_alpha   60.11073103
_cell_angle_beta   60.11073097
_cell_angle_gamma   60.28870401
_symmetry_Int_Tables_number   1
_chemical_formula_structural   Zr8CuIr3N2
_chemical_formula_sum   'Zr16 Cu2 Ir6 N4'
_cell_volume   475.91776974
_cell_formula_units_Z   2
loop_
 _symmetry_equiv_pos_site_id
 _symmetry_equiv_pos_as_xyz
  1  'x, y, z'
loop_
 _atom_site_type_symbol
 _atom_site_label
 _atom_site_symmetry_multiplicity
 _atom_site_fract_x
 _atom_site_fract_y
 _atom_site_fract_z
 _atom_site_occupancy
  Zr  Zr0  1  0.13841393  0.62247520  0.61955543  1
  Zr  Zr1  1  0.62247520  0.13841393  0.61955543  1
  Zr  Zr2  1  0.61962478  0.61962478  0.14157591  1
  Zr  Zr3  1  0.61962478  0.61962478  0.61917454  1
  Zr  Zr4  1  0.81808342  0.81808342  0.18191658  1
  Zr  Zr5  1  0.18403854  0.18403854  0.81596146  1
  Zr  Zr6  1  0.81776915  0.18312178  0.81703242  1
  Zr  Zr7  1  0.18312178  0.81776915  0.18207665  1
  Zr  Zr8  1  0.18312178  0.81776915  0.81703242  1
  Zr  Zr9  1  0.81776915  0.18312178  0.18207665  1
  Zr  Zr10  1  0.43682402  0.43682402  0.06317598  1
  Zr  Zr11  1  0.06741408  0.06741408  0.43258592  1
  Zr  Zr12  1  0.43584690  0.06668466  0.43501917  1
  Zr  Zr13  1  0.06668466  0.43584690  0.06245028  1
  Zr  Zr14  1  0.06668466  0.43584690  0.43501917  1
  Zr  Zr15  1  0.43584690  0.06668466  0.06245028  1
  Cu  Cu0  1  0.78687705  0.40314013  0.40499141  1
  Cu  Cu1  1  0.40314013  0.78687705  0.40499141  1
  Ir  Ir0  1  0.40124412  0.40124412  0.79065418  1
  Ir  Ir1  1  0.40124412  0.40124412  0.40685958  1
  Ir  Ir2  1  0.49264653  0.83322945  0.83706151  1
  Ir  Ir3  1  0.83322945  0.49264653  0.83706151  1
  Ir  Ir4  1  0.83481924  0.83481924  0.49139518  1
  Ir  Ir5  1  0.83481924  0.83481924  0.83896534  1
  N  N0  1  0.62514164  0.12409409  0.12538164  1
  N  N1  1  0.12409409  0.62514164  0.12538164  1
  N  N2  1  0.12470184  0.12470184  0.62581055  1
  N  N3  1  0.12470184  0.12470184  0.12478776  1
loop_
_geom_bond_atom_site_label_1
_geom_bond_atom_site_label_2
_geom_bond_distance
_geom_bond_site_symmetry_2
Cu0 Zr1 2.693844 1_555
Cu0 Zr3 2.700540 1_555
Cu0 Zr2 2.700540 1_555
Cu0 Zr11 2.733131 1_655
Cu0 Zr13 2.752083 1_655
Cu0 Zr14 2.752088 1_655
Cu1 Zr0 2.693844 1_555
Cu1 Zr3 2.700540 1_555
Cu1 Zr2 2.700540 1_555
Cu1 Zr11 2.733131 1_565
Cu1 Zr15 2.752083 1_565
Cu1 Zr12 2.752088 1_565
Ir0 Zr13 2.687137 1_556
Ir0 Zr15 2.687137 1_556
Ir0 Zr0 2.722402 1_555
Ir0 Zr1 2.722402 1_555
Ir0 Zr10 2.726450 1_556
Ir0 Zr3 2.735533 1_555
Ir1 Zr14 2.687140 1_555
Ir1 Zr12 2.687140 1_555
Ir1 Zr0 2.722391 1_555
Ir1 Zr1 2.722391 1_555
Ir1 Zr10 2.726467 1_555
Ir1 Zr2 2.735535 1_555
Ir2 Zr3 2.781496 1_555
Ir2 Zr2 2.781503 1_556
Ir2 Zr1 2.802197 1_565
Ir2 Zr8 2.874908 1_555
Ir2 Zr7 2.874913 1_556
Ir2 Zr5 2.913310 1_565
Ir2 Zr10 3.176250 1_556
Ir2 Zr12 3.214568 1_565
Ir2 Zr15 3.214582 1_566
Ir3 Zr3 2.781496 1_555
Ir3 Zr2 2.781503 1_556
Ir3 Zr0 2.802197 1_655
Ir3 Zr6 2.874908 1_555
Ir3 Zr9 2.874913 1_556
Ir3 Zr5 2.913310 1_655
Ir3 Zr10 3.176250 1_556
Ir3 Zr14 3.214568 1_655
Ir3 Zr13 3.214582 1_656
Ir4 Zr3 2.772405 1_555
Ir4 Zr0 2.788638 1_655
Ir4 Zr1 2.788638 1_565
Ir4 Zr4 2.856309 1_555
Ir4 Zr7 2.892576 1_655
Ir4 Zr9 2.892576 1_565
Ir5 Zr2 2.772407 1_556
Ir5 Zr0 2.788634 1_655
Ir5 Zr1 2.788634 1_565
Ir5 Zr4 2.856317 1_556
Ir5 Zr8 2.892580 1_655
Ir5 Zr6 2.892580 1_565
N0 Zr4 2.304439 1_545
N0 Zr6 2.305392 1_554
N0 Zr9 2.305398 1_555
N0 Zr15 2.305906 1_555
N0 Zr12 2.305918 1_555
N0 Zr10 2.335447 1_555
N1 Zr4 2.304439 1_455
N1 Zr8 2.305392 1_554
N1 Zr7 2.305398 1_555
N1 Zr13 2.305906 1_555
N1 Zr14 2.305918 1_555
N1 Zr10 2.335447 1_555
N2 Zr5 2.299340 1_555
N2 Zr11 2.299866 1_555
N2 Zr6 2.301042 1_455
N2 Zr8 2.301042 1_545
N2 Zr12 2.326018 1_555
N2 Zr14 2.326018 1_555
N3 Zr5 2.299356 1_554
N3 Zr11 2.299850 1_555
N3 Zr9 2.301046 1_455
N3 Zr7 2.301047 1_545
N3 Zr15 2.326016 1_555
N3 Zr13 2.326016 1_555
