# generated using pymatgen
data_Ti8Al14GaIr7
_symmetry_space_group_name_H-M   'P 1'
_cell_length_a   8.60479563
_cell_length_b   8.60479363
_cell_length_c   8.60479447
_cell_angle_alpha   120.07833100
_cell_angle_beta   119.87918005
_cell_angle_gamma   90.03688918
_symmetry_Int_Tables_number   1
_chemical_formula_structural   Ti8Al14GaIr7
_chemical_formula_sum   'Ti8 Al14 Ga1 Ir7'
_cell_volume   450.65501906
_cell_formula_units_Z   1
loop_
 _symmetry_equiv_pos_site_id
 _symmetry_equiv_pos_as_xyz
  1  'x, y, z'
loop_
 _atom_site_type_symbol
 _atom_site_label
 _atom_site_symmetry_multiplicity
 _atom_site_fract_x
 _atom_site_fract_y
 _atom_site_fract_z
 _atom_site_occupancy
  Ti  Ti0  1  0.79492532  0.29290576  0.07873421  1
  Ti  Ti1  1  0.21417154  0.29290576  0.49798143  1
  Ti  Ti2  1  0.20417471  0.70417471  0.50000000  1
  Ti  Ti3  1  0.21417154  0.71619011  0.92126579  1
  Ti  Ti4  1  0.79492532  0.71619011  0.50201857  1
  Ti  Ti5  1  0.78400313  0.28400313  0.50000000  1
  Ti  Ti6  1  0.37953378  0.12283070  0.74329592  1
  Ti  Ti7  1  0.37953378  0.63623786  0.25670408  1
  Al  Al0  1  0.15625424  0.34095349  0.18469726  1
  Al  Al1  1  0.15625424  0.97155698  0.81530274  1
  Al  Al2  1  0.15125767  0.34523261  0.80602507  1
  Al  Al3  1  0.53920754  0.34523261  0.19397493  1
  Al  Al4  1  0.84360010  0.65400859  0.81040948  1
  Al  Al5  1  0.84360010  0.03319162  0.18959052  1
  Al  Al6  1  0.84170824  0.65649084  0.18521740  1
  Al  Al7  1  0.47127244  0.65649084  0.81478260  1
  Al  Al8  1  0.37967694  0.12118526  0.25849168  1
  Al  Al9  1  0.86269458  0.12118526  0.74150832  1
  Al  Al10  1  0.62147196  0.87845401  0.25698305  1
  Al  Al11  1  0.62147196  0.36448991  0.74301695  1
  Al  Al12  1  0.62186237  0.87841543  0.74344694  1
  Al  Al13  1  0.13496748  0.87841543  0.25655306  1
  Ga  Ga0  1  0.99424279  0.49424279  0.50000000  1
  Ir  Ir0  1  0.00160535  0.99978194  0.50175900  1
  Ir  Ir1  1  0.49802293  0.99978194  0.99817658  1
  Ir  Ir2  1  0.49738438  0.49738438  1.00000000  1
  Ir  Ir3  1  0.49802293  0.49984535  0.49824100  1
  Ir  Ir4  1  0.00160535  0.49984535  0.00182342  1
  Ir  Ir5  1  0.99914108  0.99914108  0.00000000  1
  Ir  Ir6  1  0.49923319  0.99923319  0.50000000  1
loop_
_geom_bond_atom_site_label_1
_geom_bond_atom_site_label_2
_geom_bond_distance
_geom_bond_site_symmetry_2
Al0 Ir5 2.484546 1_445
Al0 Ir4 2.487745 1_555
Al0 Ir3 2.487767 1_555
Al1 Ir5 2.484531 1_456
Al1 Ir0 2.487767 1_555
Al1 Ir1 2.487768 1_555
Al2 Ir4 2.486737 1_556
Al2 Ir0 2.486738 1_545
Al2 Ir2 2.494416 1_555
Al2 Ti5 2.741230 1_455
Al3 Ir1 2.486738 1_544
Al3 Ir3 2.486738 1_555
Al3 Ir2 2.494415 1_554
Al3 Ti5 2.741230 1_555
Al4 Ir5 2.497093 1_556
Al4 Ir4 2.506457 1_656
Al4 Ir3 2.506457 1_555
Al4 Ti5 2.764598 1_555
Al5 Ir5 2.497084 1_545
Al5 Ir1 2.506455 1_544
Al5 Ir0 2.506463 1_645
Al5 Ti5 2.764602 1_555
Al6 Ir0 2.496748 1_655
Al6 Ir4 2.496750 1_655
Al6 Ir2 2.509120 1_554
Al7 Ir1 2.496746 1_555
Al7 Ir3 2.496753 1_555
Al7 Ir2 2.509118 1_555
Al8 Ir6 2.556433 1_545
Al8 Ir3 2.659747 1_555
Al8 Ir1 2.659755 1_544
Al8 Ir5 2.677634 1_445
Al8 Ti5 2.873597 1_555
Al9 Ir6 2.556441 1_545
Al9 Ir4 2.659747 1_656
Al9 Ir0 2.659748 1_645
Al9 Ir5 2.677633 1_546
Al9 Ti5 2.873596 1_555
Al10 Ir6 2.563923 1_555
Al10 Ir0 2.674442 1_655
Al10 Ir1 2.674449 1_554
Al10 Ir2 2.675234 1_554
Al10 Ti5 2.876071 1_565
Al11 Ir6 2.563930 1_545
Al11 Ir3 2.674428 1_555
Al11 Ir4 2.674442 1_656
Al11 Ir2 2.675241 1_555
Al11 Ti5 2.876063 1_555
Al12 Ir6 2.562121 1_555
Al12 Ir5 2.654836 1_556
Al12 Ir1 2.657949 1_555
Al12 Ir3 2.657956 1_555
Al13 Ir6 2.562128 1_555
Al13 Ir5 2.654835 1_455
Al13 Ir0 2.657942 1_555
Al13 Ir4 2.657956 1_555
Ga0 Ti2 2.553843 1_655
Ga0 Ti5 2.557586 1_555
Ga0 Ti4 2.567070 1_555
Ga0 Ti3 2.567076 1_655
Ga0 Ti1 2.567076 1_655
Ga0 Ti0 2.567076 1_555
Ir0 Ti6 2.659284 1_565
Ir0 Ti5 3.082570 1_465
Ir1 Ti6 2.659290 1_565
Ir1 Ti5 3.082570 1_566
Ir2 Ti6 2.631156 1_555
Ir2 Ti7 2.631164 1_556
Ir3 Ti7 2.659290 1_555
Ir3 Ti5 3.082565 1_555
Ir4 Ti7 2.659284 1_555
Ir4 Ti5 3.082570 1_454
Ir6 Ti7 2.548098 1_555
Ir6 Ti6 2.548098 1_565
