# generated using pymatgen
data_Be6Co2RuW3
_symmetry_space_group_name_H-M   'P 1'
_cell_length_a   4.48216112
_cell_length_b   4.48216239
_cell_length_c   7.22468033
_cell_angle_alpha   90.00000000
_cell_angle_beta   90.00000000
_cell_angle_gamma   119.99999785
_symmetry_Int_Tables_number   1
_chemical_formula_structural   Be6Co2RuW3
_chemical_formula_sum   'Be6 Co2 Ru1 W3'
_cell_volume   125.69683055
_cell_formula_units_Z   1
loop_
 _symmetry_equiv_pos_site_id
 _symmetry_equiv_pos_as_xyz
  1  'x, y, z'
loop_
 _atom_site_type_symbol
 _atom_site_label
 _atom_site_symmetry_multiplicity
 _atom_site_fract_x
 _atom_site_fract_y
 _atom_site_fract_z
 _atom_site_occupancy
  Be  Be0  1  0.83279049  0.16720951  0.25484307  1
  Be  Be1  1  0.83279049  0.66558198  0.25484307  1
  Be  Be2  1  0.33441802  0.16720951  0.25484307  1
  Be  Be3  1  0.16712284  0.83287716  0.74852726  1
  Be  Be4  1  0.16712284  0.33424568  0.74852726  1
  Be  Be5  1  0.66575432  0.83287716  0.74852726  1
  Co  Co0  1  0.00000000  0.00000000  0.50252095  1
  Co  Co1  1  0.00000000  0.00000000  0.00485310  1
  Ru  Ru0  1  0.33333300  0.66666700  0.41935206  1
  W  W0  1  0.66666700  0.33333300  0.56174323  1
  W  W1  1  0.66666700  0.33333300  0.93097864  1
  W  W2  1  0.33333300  0.66666700  0.07044102  1
loop_
_geom_bond_atom_site_label_1
_geom_bond_atom_site_label_2
_geom_bond_distance
_geom_bond_site_symmetry_2
Be0 Co0 2.210656 1_655
Be0 Co1 2.224199 1_655
Be0 Be2 2.233786 1_555
Be0 Be1 2.233786 1_555
Be0 Be2 2.248375 1_655
Be0 Be1 2.248376 1_545
Be0 Ru0 2.536741 1_655
Be0 Ru0 2.536741 1_545
Be0 W0 2.565049 1_555
Be0 W2 2.607171 1_655
Be0 W2 2.607171 1_545
Be0 W1 2.671703 1_554
Be1 Co0 2.210654 1_665
Be1 Co1 2.224197 1_665
Be1 Be2 2.233786 1_555
Be1 Be2 2.248376 1_665
Be1 Ru0 2.536740 1_655
Be1 Ru0 2.536740 1_555
Be1 W0 2.565053 1_555
Be1 W2 2.607171 1_655
Be1 W2 2.607171 1_555
Be1 W1 2.671707 1_554
Be2 Co0 2.210654 1_555
Be2 Co1 2.224196 1_555
Be2 Ru0 2.536741 1_555
Be2 Ru0 2.536741 1_545
Be2 W0 2.565053 1_555
Be2 W2 2.607171 1_555
Be2 W2 2.607171 1_545
Be2 W1 2.671707 1_554
Be3 Co0 2.200495 1_565
Be3 Be5 2.234947 1_555
Be3 Be4 2.234947 1_555
Be3 Be5 2.247214 1_455
Be3 Be4 2.247215 1_565
Be3 Co1 2.261140 1_566
Be3 W1 2.599997 1_455
Be3 W1 2.599997 1_565
Be3 W0 2.616006 1_455
Be3 W0 2.616006 1_565
Be3 W2 2.659696 1_556
Be3 Ru0 2.705690 1_555
Be4 Co0 2.200496 1_555
Be4 Be5 2.234947 1_555
Be4 Be5 2.247215 1_445
Be4 Co1 2.261140 1_556
Be4 W1 2.599995 1_455
Be4 W1 2.599998 1_555
Be4 W0 2.616003 1_455
Be4 W0 2.616007 1_555
Be4 W2 2.659698 1_556
Be4 Ru0 2.705692 1_555
Be5 Co0 2.200495 1_665
Be5 Co1 2.261140 1_666
Be5 W1 2.599995 1_565
Be5 W1 2.599999 1_555
Be5 W0 2.616004 1_565
Be5 W0 2.616008 1_555
Be5 W2 2.659698 1_556
Be5 Ru0 2.705691 1_555
Co0 W0 2.622907 1_455
Co0 W0 2.622911 1_555
Co0 W0 2.622912 1_445
Co0 Ru0 2.656618 1_545
Co0 Ru0 2.656622 1_445
Co0 Ru0 2.656623 1_555
Co1 W2 2.630801 1_545
Co1 W2 2.630804 1_445
Co1 W2 2.630805 1_555
Co1 W1 2.642240 1_454
Co1 W1 2.642244 1_554
Co1 W1 2.642245 1_444
Ru0 W2 2.520771 1_555
Ru0 W0 2.784756 1_455
Ru0 W0 2.784756 1_565
Ru0 W0 2.784763 1_555
W0 W1 2.667608 1_555
W1 W2 2.777008 1_656
W1 W2 2.777009 1_546
W1 W2 2.777016 1_556
