# generated using pymatgen
data_Cs6CaTe4
_symmetry_space_group_name_H-M   'P 1'
_cell_length_a   12.11946912
_cell_length_b   12.11946940
_cell_length_c   9.28578353
_cell_angle_alpha   90.00000000
_cell_angle_beta   90.00000000
_cell_angle_gamma   119.99999922
_symmetry_Int_Tables_number   1
_chemical_formula_structural   Cs6CaTe4
_chemical_formula_sum   'Cs12 Ca2 Te8'
_cell_volume   1181.18083958
_cell_formula_units_Z   2
loop_
 _symmetry_equiv_pos_site_id
 _symmetry_equiv_pos_as_xyz
  1  'x, y, z'
loop_
 _atom_site_type_symbol
 _atom_site_label
 _atom_site_symmetry_multiplicity
 _atom_site_fract_x
 _atom_site_fract_y
 _atom_site_fract_z
 _atom_site_occupancy
  Cs  Cs0  1  0.14730546  0.85269454  0.54514214  1
  Cs  Cs1  1  0.29460993  0.14730546  0.04514214  1
  Cs  Cs2  1  0.85269454  0.70539007  0.04514214  1
  Cs  Cs3  1  0.14730546  0.29460993  0.54514214  1
  Cs  Cs4  1  0.70539007  0.85269454  0.54514214  1
  Cs  Cs5  1  0.85269454  0.14730546  0.04514214  1
  Cs  Cs6  1  0.52825553  0.47174447  0.36489938  1
  Cs  Cs7  1  0.05651005  0.52825553  0.86489938  1
  Cs  Cs8  1  0.47174447  0.94348995  0.86489938  1
  Cs  Cs9  1  0.52825553  0.05651005  0.36489938  1
  Cs  Cs10  1  0.94348995  0.47174447  0.36489938  1
  Cs  Cs11  1  0.47174447  0.52825553  0.86489938  1
  Ca  Ca0  1  0.33333300  0.66666700  0.24827031  1
  Ca  Ca1  1  0.66666700  0.33333300  0.74827031  1
  Te  Te0  1  0.33333300  0.66666700  0.58018233  1
  Te  Te1  1  0.66666700  0.33333300  0.08018233  1
  Te  Te2  1  0.19357907  0.80642093  0.14764026  1
  Te  Te3  1  0.38715714  0.19357907  0.64764026  1
  Te  Te4  1  0.80642093  0.61284286  0.64764026  1
  Te  Te5  1  0.19357907  0.38715714  0.14764026  1
  Te  Te6  1  0.61284286  0.80642093  0.14764026  1
  Te  Te7  1  0.80642093  0.19357907  0.64764026  1
loop_
_geom_bond_atom_site_label_1
_geom_bond_atom_site_label_2
_geom_bond_distance
_geom_bond_site_symmetry_2
Cs0 Te4 3.796640 1_455
Cs0 Te3 3.796640 1_565
Cs0 Te2 3.816788 1_555
Cs0 Te0 3.918536 1_555
Cs1 Te5 3.796623 1_555
Cs1 Te2 3.796646 1_545
Cs1 Te3 3.816788 1_554
Cs1 Te1 3.918557 1_555
Cs2 Te6 3.796623 1_555
Cs2 Te2 3.796646 1_655
Cs2 Te4 3.816788 1_554
Cs2 Te1 3.918557 1_555
Cs3 Te3 3.796623 1_555
Cs3 Te7 3.796646 1_455
Cs3 Te5 3.816788 1_555
Cs3 Te0 3.918557 1_555
Cs4 Te4 3.796623 1_555
Cs4 Te7 3.796646 1_565
Cs4 Te6 3.816788 1_555
Cs4 Te0 3.918557 1_555
Cs5 Te5 3.796640 1_655
Cs5 Te6 3.796640 1_545
Cs5 Te7 3.816788 1_554
Cs5 Te1 3.918536 1_555
Cs6 Te4 3.926515 1_555
Cs6 Te3 3.926515 1_555
Cs6 Te1 3.928300 1_555
Cs6 Te5 4.173099 1_555
Cs6 Te6 4.173099 1_555
Cs7 Te2 3.926515 1_556
Cs7 Te5 3.926531 1_556
Cs7 Te0 3.928300 1_555
Cs7 Te4 4.173099 1_455
Cs7 Te7 4.173099 1_455
Cs8 Te2 3.926515 1_556
Cs8 Te6 3.926531 1_556
Cs8 Te0 3.928300 1_555
Cs8 Te7 4.173099 1_565
Cs8 Te3 4.173099 1_565
Cs9 Te7 3.926515 1_555
Cs9 Te3 3.926531 1_555
Cs9 Te1 3.928300 1_555
Cs9 Te2 4.173099 1_545
Cs9 Te6 4.173099 1_545
Cs10 Te7 3.926515 1_555
Cs10 Te4 3.926531 1_555
Cs10 Te1 3.928300 1_555
Cs10 Te5 4.173099 1_655
Cs10 Te2 4.173099 1_655
Cs11 Te5 3.926515 1_556
Cs11 Te6 3.926515 1_556
Cs11 Te0 3.928300 1_555
Cs11 Te4 4.173099 1_555
Cs11 Te3 4.173099 1_555
Ca0 Te2 3.078873 1_555
Ca0 Te6 3.078893 1_555
Ca0 Te5 3.078893 1_555
Ca0 Te0 3.082063 1_555
Ca1 Te7 3.078873 1_555
Ca1 Te3 3.078893 1_555
Ca1 Te4 3.078893 1_555
Ca1 Te1 3.082063 1_556
