# generated using pymatgen
data_Lu5Cu2Bi
_symmetry_space_group_name_H-M   'P 1'
_cell_length_a   8.37550982
_cell_length_b   8.37551009
_cell_length_c   8.37551009
_cell_angle_alpha   124.88632817
_cell_angle_beta   124.88633004
_cell_angle_gamma   81.72639231
_symmetry_Int_Tables_number   1
_chemical_formula_structural   Lu5Cu2Bi
_chemical_formula_sum   'Lu10 Cu4 Bi2'
_cell_volume   380.39711613
_cell_formula_units_Z   2
loop_
 _symmetry_equiv_pos_site_id
 _symmetry_equiv_pos_as_xyz
  1  'x, y, z'
loop_
 _atom_site_type_symbol
 _atom_site_label
 _atom_site_symmetry_multiplicity
 _atom_site_fract_x
 _atom_site_fract_y
 _atom_site_fract_z
 _atom_site_occupancy
  Lu  Lu0  1  0.00000000  0.00000000  0.00000000  1
  Lu  Lu1  1  0.50000000  0.50000000  0.00000000  1
  Lu  Lu2  1  0.79038201  0.29038201  0.80627517  1
  Lu  Lu3  1  0.20961799  0.70961799  0.19372483  1
  Lu  Lu4  1  0.48410684  0.98410684  0.19372483  1
  Lu  Lu5  1  0.29038201  0.48410684  0.50000000  1
  Lu  Lu6  1  0.01589316  0.20961799  0.50000000  1
  Lu  Lu7  1  0.51589316  0.01589316  0.80627517  1
  Lu  Lu8  1  0.70961799  0.51589316  0.50000000  1
  Lu  Lu9  1  0.98410684  0.79038201  0.50000000  1
  Cu  Cu0  1  0.13214099  0.63214099  0.76428398  1
  Cu  Cu1  1  0.86785901  0.36785901  0.23571602  1
  Cu  Cu2  1  0.63214099  0.86785901  0.50000000  1
  Cu  Cu3  1  0.36785901  0.13214099  0.50000000  1
  Bi  Bi0  1  0.25000000  0.25000000  0.00000000  1
  Bi  Bi1  1  0.75000000  0.75000000  0.00000000  1
loop_
_geom_bond_atom_site_label_1
_geom_bond_atom_site_label_2
_geom_bond_distance
_geom_bond_site_symmetry_2
Lu0 Lu4 3.414189 1_545
Lu0 Lu7 3.414189 1_454
Lu0 Lu2 3.414189 1_454
Lu0 Lu3 3.414189 1_545
Lu0 Lu6 3.414189 1_555
Lu0 Lu9 3.414189 1_444
Lu0 Lu5 3.414189 1_555
Lu0 Lu8 3.414189 1_444
Lu1 Lu2 3.414189 1_554
Lu1 Lu3 3.414189 1_555
Lu1 Lu8 3.414189 1_555
Lu1 Lu5 3.414189 1_554
Lu1 Lu4 3.414189 1_555
Lu1 Lu7 3.414189 1_554
Lu1 Lu9 3.414189 1_555
Lu1 Lu6 3.414189 1_554
Lu2 Lu4 3.356605 1_545
Lu2 Lu7 3.477323 1_555
Lu2 Lu3 3.559389 1_656
Lu2 Lu6 3.714165 1_655
Lu2 Lu8 3.714165 1_555
Lu3 Lu7 3.356605 1_565
Lu3 Lu4 3.477323 1_555
Lu3 Lu9 3.714165 1_455
Lu3 Lu5 3.714165 1_555
Lu4 Lu7 3.559389 1_564
Lu4 Lu6 3.714165 1_665
Lu4 Lu8 3.714166 1_565
Lu5 Lu9 3.356605 1_455
Lu5 Lu6 3.477323 1_555
Lu5 Lu8 3.559389 1_555
Lu5 Lu7 3.714166 1_565
Lu6 Lu8 3.356605 1_455
Lu6 Lu9 3.559389 1_445
Lu7 Lu9 3.714165 1_445
Lu8 Lu9 3.477323 1_555
Cu0 Lu8 2.817249 1_455
Cu0 Lu6 2.817249 1_555
Cu0 Lu9 2.817264 1_455
Cu0 Lu5 2.817264 1_555
Cu0 Cu1 2.896405 1_455
Cu0 Lu3 2.925838 1_556
Cu0 Lu4 2.925853 1_556
Cu0 Lu1 3.029062 1_556
Cu0 Lu0 3.029062 1_566
Cu1 Lu5 2.817249 1_655
Cu1 Lu9 2.817249 1_555
Cu1 Lu6 2.817264 1_655
Cu1 Lu8 2.817264 1_555
Cu1 Lu2 2.925838 1_554
Cu1 Lu7 2.925853 1_554
Cu1 Lu1 3.029062 1_555
Cu1 Lu0 3.029062 1_655
Cu2 Lu3 2.817251 1_555
Cu2 Lu4 2.817251 1_555
Cu2 Lu7 2.817251 1_565
Cu2 Lu2 2.817251 1_565
Cu2 Cu3 2.896383 1_565
Cu2 Lu9 2.925854 1_555
Cu2 Lu8 2.925854 1_555
Cu2 Lu0 3.029066 1_666
Cu2 Lu1 3.029067 1_555
Cu3 Lu2 2.817251 1_555
Cu3 Lu7 2.817251 1_555
Cu3 Lu4 2.817251 1_545
Cu3 Lu3 2.817251 1_545
Cu3 Lu6 2.925854 1_555
Cu3 Lu5 2.925854 1_555
Cu3 Lu0 3.029066 1_555
Cu3 Lu1 3.029067 1_556
Bi0 Lu1 3.167090 1_555
Bi0 Lu0 3.167090 1_555
Bi0 Lu2 3.267131 1_454
Bi0 Lu4 3.267131 1_545
Bi0 Lu7 3.267131 1_554
Bi0 Lu6 3.267131 1_554
Bi0 Lu3 3.267131 1_555
Bi0 Lu8 3.267131 1_555
Bi0 Lu5 3.267131 1_555
Bi0 Lu9 3.267131 1_444
Bi1 Lu0 3.167090 1_665
Bi1 Lu1 3.167090 1_555
Bi1 Lu3 3.267131 1_655
Bi1 Lu7 3.267131 1_564
Bi1 Lu4 3.267131 1_555
Bi1 Lu9 3.267131 1_555
Bi1 Lu2 3.267131 1_554
Bi1 Lu5 3.267131 1_554
Bi1 Lu8 3.267131 1_554
Bi1 Lu6 3.267131 1_665
