# generated using pymatgen
data_Y6AlNiRh
_symmetry_space_group_name_H-M   'P 1'
_cell_length_a   8.40640524
_cell_length_b   8.40640517
_cell_length_c   8.40640506
_cell_angle_alpha   112.11893129
_cell_angle_beta   109.85360828
_cell_angle_gamma   106.49020392
_symmetry_Int_Tables_number   1
_chemical_formula_structural   Y6AlNiRh
_chemical_formula_sum   'Y12 Al2 Ni2 Rh2'
_cell_volume   456.19734258
_cell_formula_units_Z   2
loop_
 _symmetry_equiv_pos_site_id
 _symmetry_equiv_pos_as_xyz
  1  'x, y, z'
loop_
 _atom_site_type_symbol
 _atom_site_label
 _atom_site_symmetry_multiplicity
 _atom_site_fract_x
 _atom_site_fract_y
 _atom_site_fract_z
 _atom_site_occupancy
  Y  Y0  1  0.43505484  0.24104179  0.19401206  1
  Y  Y1  1  0.56494516  0.75895821  0.80598794  1
  Y  Y2  1  0.04703073  0.24104179  0.80598794  1
  Y  Y3  1  0.95296927  0.75895821  0.19401206  1
  Y  Y4  1  0.18053041  0.27973771  0.46026912  1
  Y  Y5  1  0.81946959  0.72026229  0.53973088  1
  Y  Y6  1  0.18053041  0.72026229  0.90079270  1
  Y  Y7  1  0.81946959  0.27973771  0.09920730  1
  Y  Y8  1  0.32412201  0.63407760  0.30995658  1
  Y  Y9  1  0.67587799  0.36592240  0.69004342  1
  Y  Y10  1  0.32412201  0.01416543  0.69004342  1
  Y  Y11  1  0.67587799  0.98583457  0.30995658  1
  Al  Al0  1  0.50000000  0.50000000  0.00000000  1
  Al  Al1  1  0.00000000  0.00000000  0.00000000  1
  Ni  Ni0  1  0.11418264  0.61418264  0.50000000  1
  Ni  Ni1  1  0.88581736  0.38581736  0.50000000  1
  Rh  Rh0  1  0.33501926  0.00000000  0.33501926  1
  Rh  Rh1  1  0.66498074  1.00000000  0.66498074  1
loop_
_geom_bond_atom_site_label_1
_geom_bond_atom_site_label_2
_geom_bond_distance
_geom_bond_site_symmetry_2
Y0 Y11 3.514418 1_545
Y0 Y9 3.514421 1_555
Y0 Y7 3.540007 1_555
Y0 Y5 3.540013 1_555
Y0 Y10 3.560563 1_554
Y0 Y8 3.560563 1_555
Y0 Y6 3.576776 1_544
Y0 Y4 3.576790 1_555
Y0 Y2 3.748708 1_554
Y1 Y10 3.514418 1_565
Y1 Y8 3.514421 1_555
Y1 Y6 3.540007 1_555
Y1 Y4 3.540013 1_555
Y1 Y11 3.560563 1_556
Y1 Y9 3.560563 1_555
Y1 Y7 3.576776 1_566
Y1 Y5 3.576790 1_555
Y1 Y3 3.748708 1_556
Y2 Y9 3.514437 1_455
Y2 Y4 3.540003 1_555
Y2 Y6 3.540016 1_555
Y2 Y8 3.560564 1_556
Y2 Y5 3.576776 1_445
Y2 Y7 3.576783 1_456
Y3 Y8 3.514437 1_655
Y3 Y5 3.540003 1_555
Y3 Y7 3.540016 1_555
Y3 Y9 3.560564 1_554
Y3 Y4 3.576776 1_665
Y3 Y6 3.576783 1_654
Y4 Y7 3.488220 1_455
Y4 Y9 3.655916 1_555
Y4 Y8 3.708873 1_555
Y5 Y6 3.488220 1_655
Y5 Y8 3.655916 1_555
Y5 Y9 3.708873 1_555
Y6 Y8 3.655925 1_556
Y6 Y9 3.708872 1_455
Y7 Y9 3.655925 1_554
Y7 Y8 3.708872 1_655
Y10 Y3 3.514427 1_445
Y10 Y2 3.560558 1_555
Y10 Y4 3.655914 1_555
Y10 Y7 3.655920 1_556
Y10 Y5 3.708872 1_445
Y10 Y6 3.708874 1_545
Y11 Y2 3.514427 1_665
Y11 Y3 3.560558 1_555
Y11 Y5 3.655914 1_555
Y11 Y6 3.655920 1_554
Y11 Y4 3.708872 1_665
Y11 Y7 3.708874 1_565
Al0 Y3 3.209472 1_555
Al0 Y2 3.209472 1_554
Al0 Y0 3.209477 1_555
Al0 Y1 3.209477 1_554
Al0 Y8 3.405398 1_555
Al0 Y9 3.405398 1_554
Al0 Y11 3.405400 1_555
Al0 Y10 3.405400 1_554
Al0 Y4 3.714960 1_554
Al0 Y5 3.714960 1_555
Al0 Y6 3.714966 1_554
Al0 Y7 3.714966 1_555
Al1 Y2 3.064969 1_554
Al1 Y3 3.064969 1_445
Al1 Y0 3.064975 1_555
Al1 Y1 3.064975 1_444
Al1 Y7 3.152371 1_455
Al1 Y6 3.152371 1_544
Al1 Y5 3.152378 1_444
Al1 Y4 3.152378 1_555
Al1 Rh1 3.236627 1_444
Al1 Rh0 3.236627 1_555
Ni0 Ni1 2.297508 1_455
Ni0 Y8 2.764709 1_555
Ni0 Y10 2.764710 1_565
Ni0 Y5 2.938815 1_455
Ni0 Y6 2.938817 1_555
Ni0 Y7 2.938817 1_455
Ni0 Y4 2.938819 1_555
Ni0 Y1 3.295499 1_555
Ni0 Y3 3.295508 1_455
Ni1 Y9 2.764709 1_555
Ni1 Y11 2.764710 1_545
Ni1 Y4 2.938815 1_655
Ni1 Y7 2.938817 1_555
Ni1 Y6 2.938817 1_655
Ni1 Y5 2.938819 1_555
Ni1 Y0 3.295499 1_555
Ni1 Y2 3.295508 1_655
Rh0 Y0 2.781479 1_555
Rh0 Y3 2.781484 1_445
Rh0 Y10 2.975557 1_555
Rh0 Y11 2.975557 1_545
Rh0 Y9 2.975560 1_555
Rh0 Y8 2.975565 1_545
Rh0 Y6 3.020455 1_544
Rh0 Y4 3.020457 1_555
Rh0 Rh1 3.187764 1_545
Rh1 Y1 2.781479 1_555
Rh1 Y2 2.781484 1_665
Rh1 Y11 2.975557 1_555
Rh1 Y10 2.975557 1_565
Rh1 Y8 2.975560 1_555
Rh1 Y9 2.975565 1_565
Rh1 Y7 3.020455 1_566
Rh1 Y5 3.020457 1_555
