# generated using pymatgen
data_Cs2LiYAs2
_symmetry_space_group_name_H-M   'P 1'
_cell_length_a   10.90051789
_cell_length_b   10.90051815
_cell_length_c   6.91250785
_cell_angle_alpha   90.00000000
_cell_angle_beta   90.00000000
_cell_angle_gamma   101.29742999
_symmetry_Int_Tables_number   1
_chemical_formula_structural   Cs2LiYAs2
_chemical_formula_sum   'Cs8 Li4 Y4 As8'
_cell_volume   805.43812846
_cell_formula_units_Z   4
loop_
 _symmetry_equiv_pos_site_id
 _symmetry_equiv_pos_as_xyz
  1  'x, y, z'
loop_
 _atom_site_type_symbol
 _atom_site_label
 _atom_site_symmetry_multiplicity
 _atom_site_fract_x
 _atom_site_fract_y
 _atom_site_fract_z
 _atom_site_occupancy
  Cs  Cs0  1  0.06672610  0.43327390  0.75000000  1
  Cs  Cs1  1  0.67932163  0.32067837  0.79244195  1
  Cs  Cs2  1  0.32067837  0.67932163  0.20755805  1
  Cs  Cs3  1  0.56672610  0.93327390  0.75000000  1
  Cs  Cs4  1  0.43327390  0.06672610  0.25000000  1
  Cs  Cs5  1  0.93327390  0.56672610  0.25000000  1
  Cs  Cs6  1  0.82067837  0.17932163  0.29244195  1
  Cs  Cs7  1  0.17932163  0.82067837  0.70755805  1
  Li  Li0  1  0.11695441  0.11695441  0.50000000  1
  Li  Li1  1  0.88304559  0.88304559  0.50000000  1
  Li  Li2  1  0.38304559  0.38304559  0.00000000  1
  Li  Li3  1  0.61695441  0.61695441  0.00000000  1
  Y  Y0  1  0.86763905  0.86763905  0.00000000  1
  Y  Y1  1  0.36763905  0.36763905  0.50000000  1
  Y  Y2  1  0.63236095  0.63236095  0.50000000  1
  Y  Y3  1  0.13236095  0.13236095  0.00000000  1
  As  As0  1  0.83758533  0.66241467  0.75000000  1
  As  As1  1  0.08366717  0.91633283  0.23533764  1
  As  As2  1  0.41633283  0.58366717  0.73533764  1
  As  As3  1  0.58366717  0.41633283  0.26466236  1
  As  As4  1  0.66241467  0.83758533  0.25000000  1
  As  As5  1  0.16241467  0.33758533  0.25000000  1
  As  As6  1  0.33758533  0.16241467  0.75000000  1
  As  As7  1  0.91633283  0.08366717  0.76466236  1
loop_
_geom_bond_atom_site_label_1
_geom_bond_atom_site_label_2
_geom_bond_distance
_geom_bond_site_symmetry_2
As0 Y2 2.794818 1_555
As0 Y0 2.794818 1_556
As0 Li3 2.923872 1_556
As0 Li1 2.923872 1_555
As0 Cs7 3.797465 1_655
As0 Cs1 3.797465 1_555
As0 Cs5 3.814169 1_556
As0 Cs5 3.814169 1_555
As0 Cs0 3.862890 1_655
As1 Li1 2.819610 1_455
As1 Li0 2.819610 1_565
As1 Y0 2.825522 1_455
As1 Y3 2.825522 1_565
As1 Cs7 3.640813 1_555
As1 Cs4 3.843557 1_565
As1 Cs5 3.843557 1_455
As1 Cs7 3.988771 1_554
As1 Cs2 4.000183 1_555
As2 Li3 2.819610 1_556
As2 Li2 2.819610 1_556
As2 Y2 2.825522 1_555
As2 Y1 2.825522 1_555
As2 Cs2 3.640813 1_556
As2 Cs0 3.843557 1_555
As2 Cs3 3.843557 1_555
As2 Cs2 3.988771 1_555
As2 Cs7 4.000183 1_555
As3 Li2 2.819610 1_555
As3 Li3 2.819610 1_555
As3 Y1 2.825522 1_555
As3 Y2 2.825522 1_555
As3 Cs1 3.640813 1_554
As3 Cs5 3.843557 1_555
As3 Cs4 3.843557 1_555
As3 Cs1 3.988771 1_555
As3 Cs6 4.000183 1_555
As4 Y0 2.794818 1_555
As4 Y2 2.794818 1_555
As4 Li1 2.923872 1_555
As4 Li3 2.923872 1_555
As4 Cs2 3.797465 1_555
As4 Cs6 3.797465 1_565
As4 Cs3 3.814169 1_555
As4 Cs3 3.814169 1_554
As4 Cs4 3.862890 1_565
As5 Y1 2.794818 1_555
As5 Y3 2.794818 1_555
As5 Li2 2.923872 1_555
As5 Li0 2.923872 1_555
As5 Cs6 3.797465 1_455
As5 Cs2 3.797465 1_555
As5 Cs0 3.814169 1_555
As5 Cs0 3.814169 1_554
As5 Cs5 3.862890 1_455
As6 Y3 2.794818 1_556
As6 Y1 2.794818 1_555
As6 Li0 2.923872 1_555
As6 Li2 2.923872 1_556
As6 Cs1 3.797465 1_555
As6 Cs7 3.797465 1_545
As6 Cs4 3.814169 1_555
As6 Cs4 3.814169 1_556
As6 Cs3 3.862890 1_545
As7 Li0 2.819610 1_655
As7 Li1 2.819610 1_545
As7 Y3 2.825522 1_656
As7 Y0 2.825522 1_546
As7 Cs6 3.640813 1_555
As7 Cs3 3.843557 1_545
As7 Cs0 3.843557 1_655
As7 Cs6 3.988771 1_556
As7 Cs1 4.000183 1_555
