# generated using pymatgen
data_Cs4Sb4PdPt
_symmetry_space_group_name_H-M   'P 1'
_cell_length_a   8.50848196
_cell_length_b   8.50848225
_cell_length_c   6.89402084
_cell_angle_alpha   90.18613334
_cell_angle_beta   89.81386747
_cell_angle_gamma   126.44484102
_symmetry_Int_Tables_number   1
_chemical_formula_structural   Cs4Sb4PdPt
_chemical_formula_sum   'Cs4 Sb4 Pd1 Pt1'
_cell_volume   401.47793675
_cell_formula_units_Z   1
loop_
 _symmetry_equiv_pos_site_id
 _symmetry_equiv_pos_as_xyz
  1  'x, y, z'
loop_
 _atom_site_type_symbol
 _atom_site_label
 _atom_site_symmetry_multiplicity
 _atom_site_fract_x
 _atom_site_fract_y
 _atom_site_fract_z
 _atom_site_occupancy
  Cs  Cs0  1  0.60006381  0.39993619  0.74828544  1
  Cs  Cs1  1  0.39993619  0.60006381  0.25171456  1
  Cs  Cs2  1  0.19917687  0.80082313  0.74985563  1
  Cs  Cs3  1  0.80082313  0.19917687  0.25014437  1
  Sb  Sb0  1  0.71908197  0.91569981  0.74970607  1
  Sb  Sb1  1  0.91569981  0.71908197  0.25029393  1
  Sb  Sb2  1  0.28091803  0.08430019  0.25029393  1
  Sb  Sb3  1  0.08430019  0.28091803  0.74970607  1
  Pd  Pd0  1  0.00000000  0.00000000  0.00000000  1
  Pt  Pt0  1  0.00000000  0.00000000  0.50000000  1
loop_
_geom_bond_atom_site_label_1
_geom_bond_atom_site_label_2
_geom_bond_distance
_geom_bond_site_symmetry_2
Cs0 Sb3 3.873408 1_555
Cs0 Sb0 3.873408 1_555
Cs0 Sb2 4.208208 1_555
Cs0 Sb1 4.208209 1_555
Cs0 Sb1 4.230673 1_556
Cs0 Sb2 4.230674 1_556
Cs1 Sb1 3.873408 1_555
Cs1 Sb2 3.873408 1_555
Cs1 Sb0 4.208208 1_555
Cs1 Sb3 4.208209 1_555
Cs1 Sb3 4.230673 1_554
Cs1 Sb0 4.230674 1_554
Cs2 Pd0 3.477368 1_566
Cs2 Pt0 3.487282 1_565
Cs2 Sb0 3.922572 1_555
Cs2 Sb3 3.922573 1_555
Cs2 Sb1 4.021501 1_456
Cs2 Sb2 4.021501 1_566
Cs2 Sb1 4.025878 1_455
Cs2 Sb2 4.025878 1_565
Cs3 Pd0 3.477368 1_655
Cs3 Pt0 3.487282 1_655
Cs3 Sb2 3.922572 1_555
Cs3 Sb1 3.922573 1_555
Cs3 Sb3 4.021501 1_654
Cs3 Sb0 4.021501 1_544
Cs3 Sb3 4.025878 1_655
Cs3 Sb0 4.025878 1_545
Sb0 Sb3 2.799990 1_665
Sb1 Sb2 2.799990 1_665
Pd0 Sb2 2.680821 1_555
Pd0 Sb0 2.680821 1_444
Pd0 Sb1 2.680821 1_445
Pd0 Sb3 2.680821 1_554
Pt0 Sb0 2.671210 1_445
Pt0 Sb2 2.671210 1_555
Pt0 Sb3 2.671210 1_555
Pt0 Sb1 2.671210 1_445
