# generated using pymatgen
data_Ca10Cu4AgHg
_symmetry_space_group_name_H-M   'P 1'
_cell_length_a   9.20084439
_cell_length_b   9.20084392
_cell_length_c   9.20084273
_cell_angle_alpha   129.90702594
_cell_angle_beta   129.90702611
_cell_angle_gamma   73.55544194
_symmetry_Int_Tables_number   1
_chemical_formula_structural   Ca10Cu4AgHg
_chemical_formula_sum   'Ca10 Cu4 Ag1 Hg1'
_cell_volume   447.26229897
_cell_formula_units_Z   1
loop_
 _symmetry_equiv_pos_site_id
 _symmetry_equiv_pos_as_xyz
  1  'x, y, z'
loop_
 _atom_site_type_symbol
 _atom_site_label
 _atom_site_symmetry_multiplicity
 _atom_site_fract_x
 _atom_site_fract_y
 _atom_site_fract_z
 _atom_site_occupancy
  Ca  Ca0  1  0.53064307  0.02785870  0.84079094  1
  Ca  Ca1  1  0.18706676  0.68985313  0.15920906  1
  Ca  Ca2  1  0.02785870  0.18706676  0.49721463  1
  Ca  Ca3  1  0.68985313  0.53064307  0.50278537  1
  Ca  Ca4  1  0.47214130  0.96935693  0.15920906  1
  Ca  Ca5  1  0.81014687  0.31293324  0.84079094  1
  Ca  Ca6  1  0.96935693  0.81014687  0.49721463  1
  Ca  Ca7  1  0.31293324  0.47214130  0.50278537  1
  Ca  Ca8  1  0.49792674  0.49792674  1.00000000  1
  Ca  Ca9  1  0.00207326  0.00207326  0.00000000  1
  Cu  Cu0  1  0.61119066  0.88880934  0.50000000  1
  Cu  Cu1  1  0.38880934  0.11119066  0.50000000  1
  Cu  Cu2  1  0.11119066  0.61119066  0.72238132  1
  Cu  Cu3  1  0.88880934  0.38880934  0.27761868  1
  Ag  Ag0  1  0.75000000  0.75000000  0.00000000  1
  Hg  Hg0  1  0.25000000  0.25000000  0.00000000  1
loop_
_geom_bond_atom_site_label_1
_geom_bond_atom_site_label_2
_geom_bond_distance
_geom_bond_site_symmetry_2
Ca0 Cu0 3.052117 1_545
Ca0 Cu1 3.064405 1_555
Ca0 Cu3 3.180961 1_556
Ca0 Hg0 3.318799 1_556
Ca1 Cu1 3.052113 1_565
Ca1 Cu0 3.064410 1_555
Ca1 Cu2 3.180960 1_554
Ca1 Hg0 3.318809 1_555
Ca2 Cu3 3.052119 1_455
Ca2 Cu2 3.064411 1_555
Ca2 Cu1 3.180956 1_555
Ca2 Hg0 3.318802 1_556
Ca3 Cu2 3.052112 1_655
Ca3 Cu3 3.064404 1_555
Ca3 Cu0 3.180965 1_555
Ca3 Hg0 3.318805 1_555
Ca4 Cu0 3.052117 1_555
Ca4 Cu1 3.064405 1_565
Ca4 Cu2 3.180961 1_554
Ca4 Hg0 3.318799 1_565
Ca5 Cu1 3.052113 1_555
Ca5 Cu0 3.064410 1_545
Ca5 Cu3 3.180960 1_556
Ca5 Hg0 3.318809 1_656
Ca6 Cu3 3.052112 1_555
Ca6 Cu2 3.064404 1_655
Ca6 Cu0 3.180965 1_555
Ca6 Hg0 3.318805 1_666
Ca7 Cu2 3.052119 1_555
Ca7 Cu3 3.064411 1_455
Ca7 Cu1 3.180956 1_555
Ca7 Hg0 3.318802 1_555
Ca8 Cu1 3.150561 1_555
Ca8 Cu0 3.150561 1_556
Ca8 Cu2 3.150562 1_555
Ca8 Cu3 3.150562 1_556
Ca8 Hg0 3.654216 1_556
Ca9 Cu1 3.150561 1_555
Ca9 Cu0 3.150561 1_444
Ca9 Cu3 3.150561 1_455
Ca9 Cu2 3.150561 1_544
Ca9 Hg0 3.654216 1_555
Cu0 Cu1 2.450045 1_565
Cu2 Cu3 2.450045 1_455
Ag0 Ca5 3.293233 1_554
Ag0 Ca1 3.293233 1_655
Ag0 Ca2 3.293236 1_665
Ag0 Ca7 3.293236 1_554
Ag0 Ca6 3.293239 1_555
Ag0 Ca3 3.293239 1_554
Ag0 Ca0 3.293242 1_564
Ag0 Ca4 3.293242 1_555
Ag0 Ca9 3.715331 1_665
Ag0 Ca8 3.715331 1_554
