# generated using pymatgen
data_Pu5Os3
_symmetry_space_group_name_H-M   'P 1'
_cell_length_a   8.23288286
_cell_length_b   8.23288286
_cell_length_c   8.23288286
_cell_angle_alpha   96.50346547
_cell_angle_beta   96.50346547
_cell_angle_gamma   140.66682847
_symmetry_Int_Tables_number   1
_chemical_formula_structural   Pu5Os3
_chemical_formula_sum   'Pu10 Os6'
_cell_volume   333.06201506
_cell_formula_units_Z   2
loop_
 _symmetry_equiv_pos_site_id
 _symmetry_equiv_pos_as_xyz
  1  'x, y, z'
loop_
 _atom_site_type_symbol
 _atom_site_label
 _atom_site_symmetry_multiplicity
 _atom_site_fract_x
 _atom_site_fract_y
 _atom_site_fract_z
 _atom_site_occupancy
  Pu  Pu0  1  0.75000000  0.25000000  0.50000000  1
  Pu  Pu1  1  0.25000000  0.75000000  0.50000000  1
  Pu  Pu2  1  0.21943600  0.91296600  0.13240200  1
  Pu  Pu3  1  0.08703400  0.21943600  0.30646900  1
  Pu  Pu4  1  0.91296600  0.78056400  0.69353100  1
  Pu  Pu5  1  0.78056400  0.08703400  0.86759800  1
  Pu  Pu6  1  0.41296600  0.71943600  0.13240200  1
  Pu  Pu7  1  0.58703400  0.28056400  0.86759800  1
  Pu  Pu8  1  0.71943600  0.58703400  0.30646900  1
  Pu  Pu9  1  0.28056400  0.41296600  0.69353100  1
  Os  Os0  1  0.25000000  0.25000000  0.00000000  1
  Os  Os1  1  0.75000000  0.75000000  0.00000000  1
  Os  Os2  1  0.65046400  0.84953600  0.50000000  1
  Os  Os3  1  0.15046400  0.65046400  0.80092900  1
  Os  Os4  1  0.84953600  0.34953600  0.19907100  1
  Os  Os5  1  0.34953600  0.15046400  0.50000000  1
loop_
_geom_bond_atom_site_label_1
_geom_bond_atom_site_label_2
_geom_bond_distance
_geom_bond_site_symmetry_2
Os0 Os1 2.770745 1_445
Os0 Os1 2.770745 1_555
Os0 Pu9 2.935639 1_554
Os0 Pu3 2.935639 1_555
Os0 Pu8 2.935642 1_555
Os0 Pu4 2.935642 1_444
Os0 Pu6 2.935647 1_555
Os0 Pu7 2.935647 1_554
Os0 Pu2 2.935647 1_545
Os0 Pu5 2.935647 1_454
Os1 Pu4 2.935639 1_554
Os1 Pu8 2.935639 1_555
Os1 Pu3 2.935642 1_665
Os1 Pu9 2.935642 1_554
Os1 Pu6 2.935647 1_555
Os1 Pu7 2.935647 1_554
Os1 Pu2 2.935647 1_655
Os1 Pu5 2.935647 1_564
Os2 Pu1 2.713314 1_555
Os2 Pu0 2.713314 1_565
Os2 Pu6 2.968992 1_555
Os2 Pu5 2.968992 1_565
Os2 Pu4 2.975732 1_555
Os2 Pu8 2.975732 1_555
Os2 Pu3 3.193006 1_555
Os2 Pu9 3.193006 1_665
Os2 Pu9 3.193011 1_555
Os2 Pu3 3.193011 1_665
Os3 Pu0 2.713319 1_455
Os3 Pu1 2.713322 1_555
Os3 Pu9 2.968992 1_555
Os3 Pu4 2.968992 1_455
Os3 Pu6 2.975721 1_556
Os3 Pu2 2.975721 1_556
Os3 Pu5 3.193002 1_455
Os3 Pu7 3.193002 1_455
Os3 Pu5 3.193006 1_565
Os3 Pu7 3.193006 1_565
Os4 Pu1 2.713319 1_655
Os4 Pu0 2.713322 1_555
Os4 Pu3 2.968992 1_655
Os4 Pu8 2.968992 1_555
Os4 Pu5 2.975721 1_554
Os4 Pu7 2.975721 1_554
Os4 Pu6 3.193002 1_655
Os4 Pu2 3.193002 1_655
Os4 Pu6 3.193006 1_545
Os4 Pu2 3.193006 1_545
Os5 Pu1 2.713314 1_545
Os5 Pu0 2.713314 1_555
Os5 Pu7 2.968992 1_555
Os5 Pu2 2.968992 1_545
Os5 Pu9 2.975732 1_555
Os5 Pu3 2.975732 1_555
Os5 Pu4 3.193006 1_555
Os5 Pu8 3.193006 1_445
Os5 Pu4 3.193011 1_445
Os5 Pu8 3.193011 1_555
