# generated using pymatgen
data_Ba6Sn8AsAu
_symmetry_space_group_name_H-M   'P 1'
_cell_length_a   9.16332646
_cell_length_b   9.16332640
_cell_length_c   9.27520704
_cell_angle_alpha   119.60178908
_cell_angle_beta   119.60178831
_cell_angle_gamma   89.99999439
_symmetry_Int_Tables_number   1
_chemical_formula_structural   Ba6Sn8AsAu
_chemical_formula_sum   'Ba6 Sn8 As1 Au1'
_cell_volume   557.26319766
_cell_formula_units_Z   1
loop_
 _symmetry_equiv_pos_site_id
 _symmetry_equiv_pos_as_xyz
  1  'x, y, z'
loop_
 _atom_site_type_symbol
 _atom_site_label
 _atom_site_symmetry_multiplicity
 _atom_site_fract_x
 _atom_site_fract_y
 _atom_site_fract_z
 _atom_site_occupancy
  Ba  Ba0  1  0.24247163  0.24247163  0.48494226  1
  Ba  Ba1  1  0.75752837  0.75752837  0.51505774  1
  Ba  Ba2  1  0.67646114  0.15875928  0.00000000  1
  Ba  Ba3  1  0.32353886  0.84124072  1.00000000  1
  Ba  Ba4  1  0.84124072  0.67646114  0.00000000  1
  Ba  Ba5  1  0.15875928  0.32353886  1.00000000  1
  Sn  Sn0  1  0.33751993  0.83065337  0.38857051  1
  Sn  Sn1  1  0.66248007  0.16934663  0.61142949  1
  Sn  Sn2  1  0.05105158  0.55791815  0.38857051  1
  Sn  Sn3  1  0.55791815  0.33751993  0.38857051  1
  Sn  Sn4  1  0.16934663  0.94894842  0.61142949  1
  Sn  Sn5  1  0.94894842  0.44208185  0.61142949  1
  Sn  Sn6  1  0.44208185  0.66248007  0.61142949  1
  Sn  Sn7  1  0.83065337  0.05105158  0.38857051  1
  As  As0  1  0.00000000  0.00000000  0.00000000  1
  Au  Au0  1  0.50000000  0.50000000  0.00000000  1
loop_
_geom_bond_atom_site_label_1
_geom_bond_atom_site_label_2
_geom_bond_distance
_geom_bond_site_symmetry_2
Ba0 Sn6 3.599095 1_555
Ba0 Sn1 3.599101 1_555
Ba0 Sn5 3.599111 1_455
Ba0 Sn4 3.599118 1_545
Ba0 Sn0 3.637927 1_545
Ba0 Sn2 3.637927 1_555
Ba0 Sn7 3.637927 1_455
Ba0 Sn3 3.637927 1_555
Ba1 Sn3 3.599095 1_555
Ba1 Sn0 3.599101 1_555
Ba1 Sn2 3.599111 1_655
Ba1 Sn7 3.599118 1_565
Ba1 Sn1 3.637927 1_565
Ba1 Sn5 3.637927 1_555
Ba1 Sn4 3.637927 1_655
Ba1 Sn6 3.637927 1_555
Ba2 Sn1 3.592274 1_554
Ba2 Sn2 3.592282 1_655
Ba2 Sn7 3.800408 1_555
Ba2 Sn6 3.800415 1_544
Ba2 Sn3 3.858463 1_555
Ba2 Sn4 3.858469 1_544
Ba2 Sn0 4.074467 1_544
Ba2 Sn5 4.074468 1_555
Ba3 Sn0 3.592274 1_556
Ba3 Sn5 3.592282 1_455
Ba3 Sn4 3.800408 1_555
Ba3 Sn3 3.800415 1_566
Ba3 Sn6 3.858463 1_555
Ba3 Sn7 3.858469 1_566
Ba3 Sn1 4.074467 1_566
Ba3 Sn2 4.074468 1_555
Ba4 Sn7 3.592278 1_565
Ba4 Sn6 3.592278 1_554
Ba4 Sn5 3.800409 1_554
Ba4 Sn0 3.800414 1_655
Ba4 Sn2 3.858463 1_655
Ba4 Sn1 3.858469 1_554
Ba4 Sn3 4.074467 1_554
Ba4 Sn4 4.074468 1_655
Ba5 Sn4 3.592278 1_545
Ba5 Sn3 3.592278 1_556
Ba5 Sn2 3.800409 1_556
Ba5 Sn1 3.800414 1_455
Ba5 Sn5 3.858463 1_455
Ba5 Sn0 3.858469 1_556
Ba5 Sn6 4.074467 1_556
Ba5 Sn7 4.074468 1_455
Sn0 Sn4 2.959033 1_555
Sn0 Sn6 2.959033 1_555
Sn0 Sn1 3.217586 1_565
Sn1 Sn7 2.959033 1_555
Sn1 Sn3 2.959033 1_555
Sn2 Sn4 2.959016 1_555
Sn2 Sn6 2.959017 1_555
Sn2 Sn5 3.217609 1_455
Sn3 Sn5 2.959017 1_555
Sn3 Sn6 3.217598 1_555
Sn4 Sn7 3.217597 1_465
Sn5 Sn7 2.959016 1_555
As0 Ba0 3.218430 1_555
As0 Ba1 3.218430 1_444
As0 Ba2 3.302383 1_455
As0 Ba3 3.302383 1_544
As0 Ba5 3.302383 1_554
As0 Ba4 3.302383 1_445
Au0 Ba1 3.418298 1_555
Au0 Ba0 3.418298 1_554
Au0 Ba3 3.520241 1_554
Au0 Ba2 3.520241 1_555
Au0 Ba4 3.520242 1_555
Au0 Ba5 3.520242 1_554
