# generated using pymatgen
data_CuAsSe2
_symmetry_space_group_name_H-M   'P 1'
_cell_length_a   7.21979884
_cell_length_b   7.21979884
_cell_length_c   7.21979884
_cell_angle_alpha   132.68764358
_cell_angle_beta   132.68764358
_cell_angle_gamma   69.14511297
_symmetry_Int_Tables_number   1
_chemical_formula_structural   CuAsSe2
_chemical_formula_sum   'Cu2 As2 Se4'
_cell_volume   199.56060470
_cell_formula_units_Z   2
loop_
 _symmetry_equiv_pos_site_id
 _symmetry_equiv_pos_as_xyz
  1  'x, y, z'
loop_
 _atom_site_type_symbol
 _atom_site_label
 _atom_site_symmetry_multiplicity
 _atom_site_fract_x
 _atom_site_fract_y
 _atom_site_fract_z
 _atom_site_occupancy
  Cu  Cu0  1  0.25000000  0.75000000  0.50000000  1
  Cu  Cu1  1  0.50000000  0.50000000  0.00000000  1
  As  As0  1  0.75000000  0.25000000  0.50000000  1
  As  As1  1  0.00000000  0.00000000  0.00000000  1
  Se  Se0  1  0.87500000  0.40580200  0.03080200  1
  Se  Se1  1  0.15580200  0.12500000  0.53080200  1
  Se  Se2  1  0.37500000  0.84419800  0.96919800  1
  Se  Se3  1  0.59419800  0.62500000  0.46919800  1
loop_
_geom_bond_atom_site_label_1
_geom_bond_atom_site_label_2
_geom_bond_distance
_geom_bond_site_symmetry_2
Cu0 Se0 2.433057 1_455
Cu0 Se1 2.433057 1_565
Cu0 Se3 2.433057 1_555
Cu0 Se2 2.433057 1_555
Cu1 Se2 2.433057 1_554
Cu1 Se3 2.433057 1_555
Cu1 Se0 2.433057 1_555
Cu1 Se1 2.433057 1_554
As0 Se0 2.636996 1_556
As0 Se3 2.636996 1_555
As0 Se1 2.636996 1_655
As0 Se2 2.636996 1_544
As1 Se3 2.636996 1_444
As1 Se1 2.636996 1_555
As1 Se0 2.636996 1_455
As1 Se2 2.636996 1_544
