# generated using pymatgen
data_PdSe6IBr
_symmetry_space_group_name_H-M   'P 1'
_cell_length_a   4.65669939
_cell_length_b   7.77252488
_cell_length_c   8.29025263
_cell_angle_alpha   64.88182317
_cell_angle_beta   85.65888845
_cell_angle_gamma   81.59972807
_symmetry_Int_Tables_number   1
_chemical_formula_structural   PdSe6IBr
_chemical_formula_sum   'Pd1 Se6 I1 Br1'
_cell_volume   268.73848341
_cell_formula_units_Z   1
loop_
 _symmetry_equiv_pos_site_id
 _symmetry_equiv_pos_as_xyz
  1  'x, y, z'
loop_
 _atom_site_type_symbol
 _atom_site_label
 _atom_site_symmetry_multiplicity
 _atom_site_fract_x
 _atom_site_fract_y
 _atom_site_fract_z
 _atom_site_occupancy
  Pd  Pd0  1  0.99760132  0.00099089  0.00181126  1
  Se  Se0  1  0.05464366  0.51706033  0.75010213  1
  Se  Se1  1  0.93549248  0.48569707  0.24898618  1
  Se  Se2  1  0.14998671  0.73485125  0.27947377  1
  Se  Se3  1  0.15305653  0.22463274  0.49014149  1
  Se  Se4  1  0.83997683  0.77949885  0.50735873  1
  Se  Se5  1  0.84541149  0.26476363  0.72122167  1
  I  I0  1  0.40534376  0.83291181  0.86318049  1
  Br  Br0  1  0.61848722  0.15959443  0.13772329  1
loop_
_geom_bond_atom_site_label_1
_geom_bond_atom_site_label_2
_geom_bond_distance
_geom_bond_site_symmetry_2
Pd0 Se2 2.420159 1_645
Pd0 Se5 2.427503 1_554
Se0 Se4 2.331026 1_455
Se0 Se5 2.417491 1_455
Se1 Se3 2.324371 1_655
Se1 Se2 2.414689 1_655
Se2 Se4 2.402285 1_455
Se3 Se5 2.404346 1_455
I0 Pd0 2.617688 1_466
Br0 Pd0 2.479546 1_555
