# generated using pymatgen
data_Ba10ReTcN10
_symmetry_space_group_name_H-M   'P 1'
_cell_length_a   8.08414320
_cell_length_b   8.08414346
_cell_length_c   9.59389814
_cell_angle_alpha   76.27105874
_cell_angle_beta   76.27106483
_cell_angle_gamma   97.01604197
_symmetry_Int_Tables_number   1
_chemical_formula_structural   Ba10ReTcN10
_chemical_formula_sum   'Ba10 Re1 Tc1 N10'
_cell_volume   581.00025003
_cell_formula_units_Z   1
loop_
 _symmetry_equiv_pos_site_id
 _symmetry_equiv_pos_as_xyz
  1  'x, y, z'
loop_
 _atom_site_type_symbol
 _atom_site_label
 _atom_site_symmetry_multiplicity
 _atom_site_fract_x
 _atom_site_fract_y
 _atom_site_fract_z
 _atom_site_occupancy
  Ba  Ba0  1  0.38334651  0.38335534  0.39104808  1
  Ba  Ba1  1  0.61664466  0.61665349  0.60895192  1
  Ba  Ba2  1  0.66658196  0.66679996  0.01211461  1
  Ba  Ba3  1  0.33320004  0.33341804  0.98788539  1
  Ba  Ba4  1  0.92143520  0.91974903  0.21227846  1
  Ba  Ba5  1  0.08025097  0.07856480  0.78772154  1
  Ba  Ba6  1  0.56394482  0.09708692  0.74481006  1
  Ba  Ba7  1  0.90291308  0.43605518  0.25518994  1
  Ba  Ba8  1  0.43134229  0.89930116  0.25522577  1
  Ba  Ba9  1  0.10069884  0.56865771  0.74477423  1
  Re  Re0  1  0.75657511  0.24342489  0.00000000  1
  Tc  Tc0  1  0.24360845  0.75639155  1.00000000  1
  N  N0  1  0.65388113  0.65293093  0.30639447  1
  N  N1  1  0.34706907  0.34611887  0.69360553  1
  N  N2  1  0.71328425  0.01853513  0.99043815  1
  N  N3  1  0.98146487  0.28671575  0.00956185  1
  N  N4  1  0.28633809  0.98019120  0.00851699  1
  N  N5  1  0.01980880  0.71366191  0.99148301  1
  N  N6  1  0.39046271  0.72978049  0.83572085  1
  N  N7  1  0.27021951  0.60953729  0.16427815  1
  N  N8  1  0.60679449  0.26986484  0.16539280  1
  N  N9  1  0.73013516  0.39320551  0.83460620  1
loop_
_geom_bond_atom_site_label_1
_geom_bond_atom_site_label_2
_geom_bond_distance
_geom_bond_site_symmetry_2
Ba0 N0 2.710070 1_555
Ba0 N1 2.786026 1_555
Ba0 N8 2.878032 1_555
Ba0 N7 2.894428 1_555
Ba1 N1 2.710070 1_555
Ba1 N0 2.786026 1_555
Ba1 N9 2.878026 1_555
Ba1 N6 2.894421 1_555
Ba2 N2 2.773255 1_564
Ba2 N0 2.775505 1_555
Ba2 N5 2.787227 1_654
Ba2 N9 3.115492 1_554
Ba2 N7 3.115962 1_555
Ba2 N8 3.120407 1_555
Ba2 N6 3.125297 1_554
Ba3 N3 2.773255 1_456
Ba3 N1 2.775505 1_555
Ba3 N4 2.787227 1_546
Ba3 N8 3.115485 1_556
Ba3 N6 3.115963 1_555
Ba3 N9 3.120409 1_555
Ba3 N7 3.125291 1_556
Ba4 N0 2.674892 1_555
Ba4 N5 3.015706 1_654
Ba4 N4 3.036379 1_655
Ba4 N2 3.036524 1_564
Ba4 N3 3.046380 1_565
Ba5 N1 2.674892 1_555
Ba5 N4 3.015706 1_546
Ba5 N5 3.036379 1_545
Ba5 N3 3.036524 1_456
Ba5 N2 3.046380 1_455
Ba6 N4 2.825308 1_546
Ba6 N1 2.858305 1_555
Ba6 N2 2.870785 1_555
Ba6 N6 2.952533 1_545
Ba6 N9 3.003390 1_555
Ba7 N5 2.825308 1_654
Ba7 N0 2.858305 1_555
Ba7 N3 2.870785 1_555
Ba7 N7 2.952532 1_655
Ba7 N8 3.003395 1_555
Ba8 N2 2.851349 1_564
Ba8 N4 2.858939 1_555
Ba8 N0 2.876596 1_555
Ba8 N7 2.951177 1_555
Ba8 N8 2.980773 1_565
Ba9 N3 2.851349 1_456
Ba9 N5 2.858939 1_555
Ba9 N1 2.876596 1_555
Ba9 N6 2.951171 1_555
Ba9 N9 2.980774 1_455
N2 Re0 1.837154 1_556
N3 Re0 1.837154 1_555
N4 Tc0 1.824884 1_554
N5 Tc0 1.824884 1_555
N6 Tc0 1.809673 1_555
N7 Tc0 1.809666 1_554
N8 Re0 1.828084 1_555
N9 Re0 1.828091 1_556
