# generated using pymatgen
data_GaAgCl4
_symmetry_space_group_name_H-M   'P 1'
_cell_length_a   6.69035075
_cell_length_b   7.11728745
_cell_length_c   13.46829495
_cell_angle_alpha   88.31728773
_cell_angle_beta   90.00000000
_cell_angle_gamma   90.00000000
_symmetry_Int_Tables_number   1
_chemical_formula_structural   GaAgCl4
_chemical_formula_sum   'Ga4 Ag4 Cl16'
_cell_volume   641.04525311
_cell_formula_units_Z   4
loop_
 _symmetry_equiv_pos_site_id
 _symmetry_equiv_pos_as_xyz
  1  'x, y, z'
loop_
 _atom_site_type_symbol
 _atom_site_label
 _atom_site_symmetry_multiplicity
 _atom_site_fract_x
 _atom_site_fract_y
 _atom_site_fract_z
 _atom_site_occupancy
  Ga  Ga0  1  0.19270567  0.71251258  0.59802994  1
  Ga  Ga1  1  0.80729433  0.28748742  0.40197006  1
  Ga  Ga2  1  0.69270567  0.28748742  0.90197006  1
  Ga  Ga3  1  0.30729433  0.71251258  0.09802994  1
  Ag  Ag0  1  0.48712601  0.83045287  0.85457295  1
  Ag  Ag1  1  0.51287399  0.16954713  0.14542705  1
  Ag  Ag2  1  0.98712601  0.16954713  0.64542705  1
  Ag  Ag3  1  0.01287399  0.83045287  0.35457295  1
  Cl  Cl0  1  0.21858749  0.45830833  0.69102782  1
  Cl  Cl1  1  0.78141251  0.54169167  0.30897218  1
  Cl  Cl2  1  0.71858749  0.54169167  0.80897218  1
  Cl  Cl3  1  0.28141251  0.45830833  0.19102782  1
  Cl  Cl4  1  0.34094486  0.94538504  0.67522117  1
  Cl  Cl5  1  0.65905514  0.05461496  0.32477883  1
  Cl  Cl6  1  0.84094486  0.05461496  0.82477883  1
  Cl  Cl7  1  0.15905514  0.94538504  0.17522117  1
  Cl  Cl8  1  0.17524000  0.68353654  0.95140468  1
  Cl  Cl9  1  0.82476000  0.31646346  0.04859532  1
  Cl  Cl10  1  0.67524000  0.31646346  0.54859532  1
  Cl  Cl11  1  0.32476000  0.68353654  0.45140468  1
  Cl  Cl12  1  0.88222229  0.80436400  0.57661234  1
  Cl  Cl13  1  0.11777771  0.19563600  0.42338766  1
  Cl  Cl14  1  0.38222229  0.19563600  0.92338766  1
  Cl  Cl15  1  0.61777771  0.80436400  0.07661234  1
loop_
_geom_bond_atom_site_label_1
_geom_bond_atom_site_label_2
_geom_bond_distance
_geom_bond_site_symmetry_2
Ag0 Cl8 2.658595 1_555
Ag0 Cl2 2.659548 1_555
Ag0 Cl4 2.710078 1_555
Ag0 Cl14 2.872009 1_565
Ag0 Cl6 2.876163 1_565
Ag0 Cl15 3.115922 1_556
Ag1 Cl9 2.658595 1_555
Ag1 Cl3 2.659548 1_555
Ag1 Cl5 2.710078 1_555
Ag1 Cl15 2.872009 1_545
Ag1 Cl7 2.876163 1_545
Ag1 Cl14 3.115922 1_554
Ag2 Cl10 2.658595 1_555
Ag2 Cl0 2.659548 1_655
Ag2 Cl6 2.710078 1_555
Ag2 Cl12 2.872009 1_545
Ag2 Cl4 2.876163 1_645
Ag2 Cl13 3.115922 1_655
Ag3 Cl11 2.658595 1_555
Ag3 Cl1 2.659548 1_455
Ag3 Cl7 2.710078 1_555
Ag3 Cl13 2.872009 1_565
Ag3 Cl5 2.876163 1_465
Ag3 Cl12 3.115922 1_455
Cl0 Ga0 2.176942 1_555
Cl1 Ga1 2.176942 1_555
Cl2 Ga2 2.176942 1_555
Cl3 Ga3 2.176942 1_555
Cl4 Ga0 2.216459 1_555
Cl5 Ga1 2.216459 1_555
Cl6 Ga2 2.216459 1_555
Cl7 Ga3 2.216459 1_555
Cl8 Ga3 2.178717 1_556
Cl9 Ga2 2.178717 1_554
Cl10 Ga1 2.178717 1_555
Cl11 Ga0 2.178717 1_555
Cl12 Ga0 2.194183 1_655
Cl13 Ga1 2.194183 1_455
Cl14 Ga2 2.194183 1_555
Cl15 Ga3 2.194183 1_555
