# generated using pymatgen
data_SbP4AuO14
_symmetry_space_group_name_H-M   'P 1'
_cell_length_a   8.46669651
_cell_length_b   4.76335088
_cell_length_c   7.15411082
_cell_angle_alpha   69.76793124
_cell_angle_beta   96.30182133
_cell_angle_gamma   92.81823518
_symmetry_Int_Tables_number   1
_chemical_formula_structural   SbP4AuO14
_chemical_formula_sum   'Sb1 P4 Au1 O14'
_cell_volume   269.06685558
_cell_formula_units_Z   1
loop_
 _symmetry_equiv_pos_site_id
 _symmetry_equiv_pos_as_xyz
  1  'x, y, z'
loop_
 _atom_site_type_symbol
 _atom_site_label
 _atom_site_symmetry_multiplicity
 _atom_site_fract_x
 _atom_site_fract_y
 _atom_site_fract_z
 _atom_site_occupancy
  Sb  Sb0  1  0.05558171  0.21005678  0.28655054  1
  P  P0  1  0.86006887  0.60102295  0.47797184  1
  P  P1  1  0.26321980  0.80927123  0.10849009  1
  P  P2  1  0.78800078  0.22023378  0.88810342  1
  P  P3  1  0.37092222  0.39407775  0.50502313  1
  Au  Au0  1  0.56243517  0.77161595  0.73630158  1
  O  O0  1  0.75683423  0.92048619  0.85774200  1
  O  O1  1  0.33166217  0.91090374  0.91845876  1
  O  O2  1  0.01332365  0.79824368  0.45341920  1
  O  O3  1  0.70819370  0.75289556  0.41310236  1
  O  O4  1  0.37041625  0.59348758  0.63175065  1
  O  O5  1  0.63566881  0.36323175  0.90436841  1
  O  O6  1  0.88413781  0.43059065  0.71622886  1
  O  O7  1  0.38548508  0.59751238  0.27981829  1
  O  O8  1  0.10666456  0.61874724  0.11584256  1
  O  O9  1  0.88294946  0.35450881  0.38804003  1
  O  O10  1  0.20568051  0.24373250  0.50994178  1
  O  O11  1  0.50926767  0.18439905  0.55065141  1
  O  O12  1  0.90397273  0.15772844  0.07428326  1
  O  O13  1  0.22872584  0.06725299  0.18391086  1
loop_
_geom_bond_atom_site_label_1
_geom_bond_atom_site_label_2
_geom_bond_distance
_geom_bond_site_symmetry_2
Au0 O5 1.987831 1_555
Au0 O4 1.989686 1_555
Au0 O0 1.991011 1_555
Au0 O11 1.995566 1_565
O0 P2 1.523254 1_565
O1 P1 1.452092 1_556
O2 P0 1.553412 1_455
O2 Sb0 1.950937 1_565
O3 P0 1.456182 1_555
O4 P3 1.523512 1_555
O5 P2 1.521549 1_555
O6 P2 1.570301 1_555
O6 P0 1.609006 1_555
O7 P3 1.581780 1_555
O7 P1 1.600126 1_555
O8 P1 1.564399 1_555
O8 Sb0 1.963953 1_555
O9 P0 1.550016 1_555
O9 Sb0 1.953044 1_655
O10 P3 1.538279 1_555
O10 Sb0 1.976435 1_555
O11 P3 1.510537 1_555
O12 P2 1.514667 1_554
O12 Sb0 1.954055 1_655
O13 P1 1.554028 1_545
O13 Sb0 1.957236 1_555
