# generated using pymatgen
data_Nb3CrGa2N
_symmetry_space_group_name_H-M   'P 1'
_cell_length_a   8.26592201
_cell_length_b   8.26592169
_cell_length_c   8.26592291
_cell_angle_alpha   59.99999914
_cell_angle_beta   60.00000039
_cell_angle_gamma   59.99999670
_symmetry_Int_Tables_number   1
_chemical_formula_structural   Nb3CrGa2N
_chemical_formula_sum   'Nb12 Cr4 Ga8 N4'
_cell_volume   399.35481953
_cell_formula_units_Z   4
loop_
 _symmetry_equiv_pos_site_id
 _symmetry_equiv_pos_as_xyz
  1  'x, y, z'
loop_
 _atom_site_type_symbol
 _atom_site_label
 _atom_site_symmetry_multiplicity
 _atom_site_fract_x
 _atom_site_fract_y
 _atom_site_fract_z
 _atom_site_occupancy
  Nb  Nb0  1  0.80510808  0.80510808  0.19489192  1
  Nb  Nb1  1  0.19489192  0.19489192  0.80510808  1
  Nb  Nb2  1  0.80510808  0.19489192  0.80510808  1
  Nb  Nb3  1  0.19489192  0.80510808  0.19489192  1
  Nb  Nb4  1  0.19489192  0.80510808  0.80510808  1
  Nb  Nb5  1  0.80510808  0.19489192  0.19489192  1
  Nb  Nb6  1  0.44489192  0.44489192  0.05510808  1
  Nb  Nb7  1  0.05510808  0.05510808  0.44489192  1
  Nb  Nb8  1  0.44489192  0.05510808  0.44489192  1
  Nb  Nb9  1  0.05510808  0.44489192  0.05510808  1
  Nb  Nb10  1  0.05510808  0.44489192  0.44489192  1
  Nb  Nb11  1  0.44489192  0.05510808  0.05510808  1
  Cr  Cr0  1  0.12500000  0.62500000  0.62500000  1
  Cr  Cr1  1  0.62500000  0.12500000  0.62500000  1
  Cr  Cr2  1  0.62500000  0.62500000  0.12500000  1
  Cr  Cr3  1  0.62500000  0.62500000  0.62500000  1
  Ga  Ga0  1  0.75993913  0.41335462  0.41335462  1
  Ga  Ga1  1  0.41335462  0.75993913  0.41335462  1
  Ga  Ga2  1  0.41335462  0.41335462  0.75993913  1
  Ga  Ga3  1  0.41335462  0.41335462  0.41335462  1
  Ga  Ga4  1  0.49006087  0.83664538  0.83664538  1
  Ga  Ga5  1  0.83664538  0.49006087  0.83664538  1
  Ga  Ga6  1  0.83664538  0.83664538  0.49006087  1
  Ga  Ga7  1  0.83664538  0.83664538  0.83664538  1
  N  N0  1  0.62500000  0.12500000  0.12500000  1
  N  N1  1  0.12500000  0.62500000  0.12500000  1
  N  N2  1  0.12500000  0.12500000  0.62500000  1
  N  N3  1  0.12500000  0.12500000  0.12500000  1
loop_
_geom_bond_atom_site_label_1
_geom_bond_atom_site_label_2
_geom_bond_distance
_geom_bond_site_symmetry_2
Cr0 Ga7 2.554047 1_455
Cr0 Ga3 2.554047 1_555
Cr0 Ga2 2.554061 1_555
Cr0 Ga6 2.554061 1_455
Cr0 Ga1 2.554061 1_555
Cr0 Ga5 2.554061 1_455
Cr0 Nb7 2.950110 1_565
Cr0 Nb1 2.950110 1_555
Cr0 Nb4 2.950110 1_555
Cr0 Nb10 2.950110 1_555
Cr0 Nb9 2.950111 1_556
Cr0 Nb3 2.950111 1_555
Cr1 Ga7 2.554047 1_545
Cr1 Ga3 2.554047 1_555
Cr1 Ga2 2.554061 1_555
Cr1 Ga6 2.554061 1_545
Cr1 Ga0 2.554061 1_555
Cr1 Ga4 2.554061 1_545
Cr1 Nb7 2.950110 1_655
Cr1 Nb1 2.950110 1_555
Cr1 Nb2 2.950110 1_555
Cr1 Nb8 2.950110 1_555
Cr1 Nb11 2.950111 1_556
Cr1 Nb5 2.950111 1_555
Cr2 Ga7 2.554047 1_554
Cr2 Ga3 2.554047 1_555
Cr2 Ga0 2.554061 1_555
Cr2 Ga4 2.554061 1_554
Cr2 Ga1 2.554061 1_555
Cr2 Ga5 2.554061 1_554
Cr2 Nb11 2.950110 1_565
Cr2 Nb5 2.950110 1_555
Cr2 Nb9 2.950110 1_655
Cr2 Nb3 2.950110 1_555
Cr2 Nb0 2.950110 1_555
Cr2 Nb6 2.950110 1_555
Cr3 Ga6 2.554041 1_555
Cr3 Ga2 2.554041 1_555
Cr3 Ga4 2.554041 1_555
Cr3 Ga0 2.554041 1_555
Cr3 Ga5 2.554041 1_555
Cr3 Ga1 2.554041 1_555
Cr3 Nb8 2.950110 1_565
Cr3 Nb2 2.950110 1_555
Cr3 Nb10 2.950110 1_655
Cr3 Nb4 2.950110 1_555
Cr3 Nb0 2.950110 1_555
Cr3 Nb6 2.950110 1_556
Ga0 Nb10 2.725576 1_655
Ga0 Nb7 2.725591 1_655
Ga0 Nb9 2.725591 1_655
Ga0 Ga1 2.864840 1_555
Ga0 Ga3 2.864840 1_555
Ga0 Ga2 2.864841 1_555
Ga0 Nb0 2.928060 1_555
Ga0 Nb2 2.928060 1_555
Ga0 Nb5 2.928081 1_555
Ga1 Nb8 2.725576 1_565
Ga1 Nb7 2.725591 1_565
Ga1 Nb11 2.725591 1_565
Ga1 Ga3 2.864840 1_555
Ga1 Ga2 2.864841 1_555
Ga1 Nb0 2.928060 1_555
Ga1 Nb4 2.928060 1_555
Ga1 Nb3 2.928081 1_555
Ga2 Nb6 2.725577 1_556
Ga2 Nb11 2.725591 1_556
Ga2 Nb9 2.725591 1_556
Ga2 Ga3 2.864841 1_555
Ga2 Nb4 2.928060 1_555
Ga2 Nb2 2.928060 1_555
Ga2 Nb1 2.928081 1_555
Ga3 Nb8 2.725601 1_555
Ga3 Nb10 2.725601 1_555
Ga3 Nb6 2.725601 1_555
Ga3 Nb3 2.928069 1_555
Ga3 Nb5 2.928069 1_555
Ga3 Nb1 2.928069 1_555
Ga4 Nb4 2.725576 1_555
Ga4 Nb1 2.725591 1_565
Ga4 Nb3 2.725591 1_556
Ga4 Ga5 2.864840 1_555
Ga4 Ga7 2.864840 1_555
Ga4 Ga6 2.864841 1_555
Ga4 Nb6 2.928060 1_556
Ga4 Nb8 2.928060 1_565
Ga4 Nb11 2.928081 1_566
Ga5 Nb2 2.725576 1_555
Ga5 Nb1 2.725591 1_655
Ga5 Nb5 2.725591 1_556
Ga5 Ga7 2.864840 1_555
Ga5 Ga6 2.864841 1_555
Ga5 Nb6 2.928060 1_556
Ga5 Nb10 2.928060 1_655
Ga5 Nb9 2.928081 1_656
Ga6 Nb0 2.725577 1_555
Ga6 Nb5 2.725591 1_565
Ga6 Nb3 2.725591 1_655
Ga6 Ga7 2.864841 1_555
Ga6 Nb10 2.928060 1_655
Ga6 Nb8 2.928060 1_565
Ga6 Nb7 2.928081 1_665
Ga7 Nb2 2.725601 1_565
Ga7 Nb4 2.725601 1_655
Ga7 Nb0 2.725601 1_556
Ga7 Nb9 2.928069 1_656
Ga7 Nb11 2.928069 1_566
Ga7 Nb7 2.928069 1_665
N0 Nb6 2.222131 1_555
N0 Nb0 2.222131 1_545
N0 Nb5 2.222131 1_555
N0 Nb11 2.222131 1_555
N0 Nb2 2.222131 1_554
N0 Nb8 2.222131 1_555
N1 Nb6 2.222131 1_555
N1 Nb0 2.222131 1_455
N1 Nb3 2.222131 1_555
N1 Nb9 2.222131 1_555
N1 Nb10 2.222131 1_555
N1 Nb4 2.222131 1_554
N2 Nb10 2.222131 1_555
N2 Nb4 2.222131 1_545
N2 Nb8 2.222131 1_555
N2 Nb2 2.222131 1_455
N2 Nb1 2.222131 1_555
N2 Nb7 2.222131 1_555
N3 Nb9 2.222131 1_555
N3 Nb3 2.222131 1_545
N3 Nb11 2.222131 1_555
N3 Nb5 2.222131 1_455
N3 Nb7 2.222131 1_555
N3 Nb1 2.222131 1_554
