# generated using pymatgen
data_MnCu2Ir3S8
_symmetry_space_group_name_H-M   'P 1'
_cell_length_a   6.84352142
_cell_length_b   6.84352178
_cell_length_c   6.84352236
_cell_angle_alpha   62.21019384
_cell_angle_beta   62.21019134
_cell_angle_gamma   62.21018527
_symmetry_Int_Tables_number   1
_chemical_formula_structural   MnCu2Ir3S8
_chemical_formula_sum   'Mn1 Cu2 Ir3 S8'
_cell_volume   237.82023273
_cell_formula_units_Z   1
loop_
 _symmetry_equiv_pos_site_id
 _symmetry_equiv_pos_as_xyz
  1  'x, y, z'
loop_
 _atom_site_type_symbol
 _atom_site_label
 _atom_site_symmetry_multiplicity
 _atom_site_fract_x
 _atom_site_fract_y
 _atom_site_fract_z
 _atom_site_occupancy
  Mn  Mn0  1  0.50000000  0.50000000  0.50000000  1
  Cu  Cu0  1  0.12082807  0.12082807  0.12082807  1
  Cu  Cu1  1  0.87917193  0.87917193  0.87917193  1
  Ir  Ir0  1  0.00000000  0.50000000  0.50000000  1
  Ir  Ir1  1  0.50000000  0.50000000  0.00000000  1
  Ir  Ir2  1  0.50000000  0.00000000  0.50000000  1
  S  S0  1  0.74035039  0.74035039  0.74035039  1
  S  S1  1  0.27510449  0.74286069  0.74286069  1
  S  S2  1  0.74286069  0.74286069  0.27510449  1
  S  S3  1  0.74286069  0.27510449  0.74286069  1
  S  S4  1  0.25964961  0.25964961  0.25964961  1
  S  S5  1  0.72489551  0.25713931  0.25713931  1
  S  S6  1  0.25713931  0.25713931  0.72489551  1
  S  S7  1  0.25713931  0.72489551  0.25713931  1
loop_
_geom_bond_atom_site_label_1
_geom_bond_atom_site_label_2
_geom_bond_distance
_geom_bond_site_symmetry_2
Mn0 S1 2.387199 1_555
Mn0 S5 2.387199 1_555
Mn0 S3 2.387199 1_555
Mn0 S7 2.387199 1_555
Mn0 S2 2.387199 1_555
Mn0 S6 2.387199 1_555
Cu0 S5 2.275923 1_455
Cu0 S7 2.275923 1_545
Cu0 S6 2.275923 1_554
Cu0 S4 2.287453 1_555
Cu1 S1 2.275923 1_655
Cu1 S3 2.275923 1_565
Cu1 S2 2.275923 1_556
Cu1 S0 2.287453 1_555
Ir0 S0 2.374982 1_455
Ir0 S4 2.374982 1_555
Ir0 S6 2.375038 1_555
Ir0 S2 2.375038 1_455
Ir0 S7 2.375038 1_555
Ir0 S3 2.375038 1_455
Ir1 S0 2.374982 1_554
Ir1 S4 2.374982 1_555
Ir1 S7 2.375038 1_555
Ir1 S3 2.375038 1_554
Ir1 S5 2.375038 1_555
Ir1 S1 2.375038 1_554
Ir2 S0 2.374982 1_545
Ir2 S4 2.374982 1_555
Ir2 S6 2.375038 1_555
Ir2 S2 2.375038 1_545
Ir2 S5 2.375038 1_555
Ir2 S1 2.375038 1_545
