# generated using pymatgen
data_Hf3ZnRh2N
_symmetry_space_group_name_H-M   'P 1'
_cell_length_a   8.41049950
_cell_length_b   8.41049964
_cell_length_c   8.41049923
_cell_angle_alpha   59.99999779
_cell_angle_beta   59.99999724
_cell_angle_gamma   60.00000092
_symmetry_Int_Tables_number   1
_chemical_formula_structural   Hf3ZnRh2N
_chemical_formula_sum   'Hf12 Zn4 Rh8 N4'
_cell_volume   420.67853253
_cell_formula_units_Z   4
loop_
 _symmetry_equiv_pos_site_id
 _symmetry_equiv_pos_as_xyz
  1  'x, y, z'
loop_
 _atom_site_type_symbol
 _atom_site_label
 _atom_site_symmetry_multiplicity
 _atom_site_fract_x
 _atom_site_fract_y
 _atom_site_fract_z
 _atom_site_occupancy
  Hf  Hf0  1  0.80941728  0.19058272  0.19058272  1
  Hf  Hf1  1  0.19058272  0.80941728  0.19058272  1
  Hf  Hf2  1  0.80941728  0.80941728  0.19058272  1
  Hf  Hf3  1  0.19058272  0.80941728  0.80941728  1
  Hf  Hf4  1  0.80941728  0.19058272  0.80941728  1
  Hf  Hf5  1  0.19058272  0.19058272  0.80941728  1
  Hf  Hf6  1  0.44058272  0.05941728  0.05941728  1
  Hf  Hf7  1  0.05941728  0.44058272  0.05941728  1
  Hf  Hf8  1  0.44058272  0.44058272  0.05941728  1
  Hf  Hf9  1  0.05941728  0.44058272  0.44058272  1
  Hf  Hf10  1  0.44058272  0.05941728  0.44058272  1
  Hf  Hf11  1  0.05941728  0.05941728  0.44058272  1
  Zn  Zn0  1  0.62500000  0.62500000  0.12500000  1
  Zn  Zn1  1  0.62500000  0.62500000  0.62500000  1
  Zn  Zn2  1  0.12500000  0.62500000  0.62500000  1
  Zn  Zn3  1  0.62500000  0.12500000  0.62500000  1
  Rh  Rh0  1  0.41372730  0.41372730  0.75881510  1
  Rh  Rh1  1  0.41372730  0.41372730  0.41372730  1
  Rh  Rh2  1  0.75881510  0.41372730  0.41372730  1
  Rh  Rh3  1  0.41372730  0.75881510  0.41372730  1
  Rh  Rh4  1  0.83627270  0.83627270  0.49118490  1
  Rh  Rh5  1  0.83627270  0.83627270  0.83627270  1
  Rh  Rh6  1  0.49118490  0.83627270  0.83627270  1
  Rh  Rh7  1  0.83627270  0.49118490  0.83627270  1
  N  N0  1  0.12500000  0.12500000  0.62500000  1
  N  N1  1  0.12500000  0.12500000  0.12500000  1
  N  N2  1  0.62500000  0.12500000  0.12500000  1
  N  N3  1  0.12500000  0.62500000  0.12500000  1
loop_
_geom_bond_atom_site_label_1
_geom_bond_atom_site_label_2
_geom_bond_distance
_geom_bond_site_symmetry_2
Hf0 N1 2.242659 1_655
Hf0 N2 2.242659 1_555
Hf0 Rh7 2.772529 1_554
Hf0 Rh4 2.772529 1_545
Hf0 Rh2 3.024950 1_555
Hf0 Rh1 3.024962 1_555
Hf1 N3 2.242659 1_555
Hf1 N1 2.242659 1_565
Hf1 Rh6 2.772529 1_554
Hf1 Rh4 2.772529 1_455
Hf1 Rh3 3.024950 1_555
Hf1 Rh1 3.024962 1_555
Hf2 N3 2.242659 1_655
Hf2 N2 2.242659 1_565
Hf2 Rh5 2.772519 1_554
Hf2 Rh4 2.772544 1_555
Hf2 Rh3 3.024972 1_555
Hf2 Rh2 3.024972 1_555
Hf3 N3 2.242659 1_556
Hf3 N0 2.242659 1_565
Hf3 Rh5 2.772519 1_455
Hf3 Rh6 2.772544 1_555
Hf3 Rh3 3.024972 1_555
Hf3 Rh0 3.024972 1_555
Hf4 N2 2.242659 1_556
Hf4 N0 2.242659 1_655
Hf4 Rh5 2.772519 1_545
Hf4 Rh7 2.772544 1_555
Hf4 Rh2 3.024972 1_555
Hf4 Rh0 3.024972 1_555
Hf5 N1 2.242659 1_556
Hf5 N0 2.242659 1_555
Hf5 Rh7 2.772529 1_455
Hf5 Rh6 2.772529 1_545
Hf5 Rh0 3.024950 1_555
Hf5 Rh1 3.024962 1_555
Hf6 N1 2.242659 1_555
Hf6 N2 2.242659 1_555
Hf6 Rh3 2.772529 1_545
Hf6 Rh0 2.772529 1_554
Hf6 Rh6 3.024950 1_544
Hf6 Rh5 3.024962 1_544
Hf7 N3 2.242659 1_555
Hf7 N1 2.242659 1_555
Hf7 Rh2 2.772529 1_455
Hf7 Rh0 2.772529 1_554
Hf7 Rh7 3.024950 1_454
Hf7 Rh5 3.024962 1_454
Hf8 N3 2.242659 1_555
Hf8 N2 2.242659 1_555
Hf8 Rh1 2.772519 1_555
Hf8 Rh0 2.772544 1_554
Hf8 Rh7 3.024972 1_554
Hf8 Rh6 3.024972 1_554
Hf9 N3 2.242659 1_555
Hf9 N0 2.242659 1_555
Hf9 Rh1 2.772519 1_555
Hf9 Rh2 2.772544 1_455
Hf9 Rh7 3.024972 1_455
Hf9 Rh4 3.024972 1_455
Hf10 N2 2.242659 1_555
Hf10 N0 2.242659 1_555
Hf10 Rh1 2.772519 1_555
Hf10 Rh3 2.772544 1_545
Hf10 Rh6 3.024972 1_545
Hf10 Rh4 3.024972 1_545
Hf11 N1 2.242659 1_555
Hf11 N0 2.242659 1_555
Hf11 Rh3 2.772529 1_545
Hf11 Rh2 2.772529 1_455
Hf11 Rh4 3.024950 1_445
Hf11 Rh5 3.024962 1_445
Rh0 Zn2 2.595978 1_555
Rh0 Zn3 2.595978 1_555
Rh0 Zn1 2.595998 1_555
Rh1 Zn0 2.595992 1_555
Rh1 Zn2 2.595992 1_555
Rh1 Zn3 2.595992 1_555
Rh2 Zn3 2.595978 1_555
Rh2 Zn0 2.595978 1_555
Rh2 Zn1 2.595998 1_555
Rh3 Zn2 2.595978 1_555
Rh3 Zn0 2.595978 1_555
Rh3 Zn1 2.595998 1_555
Rh4 Zn2 2.595978 1_655
Rh4 Zn3 2.595978 1_565
Rh4 Zn1 2.595998 1_555
Rh5 Zn0 2.595992 1_556
Rh5 Zn2 2.595992 1_655
Rh5 Zn3 2.595992 1_565
Rh6 Zn3 2.595978 1_565
Rh6 Zn0 2.595978 1_556
Rh6 Zn1 2.595998 1_555
Rh7 Zn2 2.595978 1_655
Rh7 Zn0 2.595978 1_556
Rh7 Zn1 2.595998 1_555
