# generated using pymatgen
data_CdHg(CO3)2
_symmetry_space_group_name_H-M   'P 1'
_cell_length_a   6.21090799
_cell_length_b   6.21090786
_cell_length_c   6.21090816
_cell_angle_alpha   47.57483982
_cell_angle_beta   47.57484248
_cell_angle_gamma   47.57483962
_symmetry_Int_Tables_number   1
_chemical_formula_structural   CdHg(CO3)2
_chemical_formula_sum   'Cd1 Hg1 C2 O6'
_cell_volume   119.48469009
_cell_formula_units_Z   1
loop_
 _symmetry_equiv_pos_site_id
 _symmetry_equiv_pos_as_xyz
  1  'x, y, z'
loop_
 _atom_site_type_symbol
 _atom_site_label
 _atom_site_symmetry_multiplicity
 _atom_site_fract_x
 _atom_site_fract_y
 _atom_site_fract_z
 _atom_site_occupancy
  Cd  Cd0  1  0.00000000  0.00000000  0.00000000  1
  Hg  Hg0  1  0.50000000  0.50000000  0.50000000  1
  C  C0  1  0.74853583  0.74853583  0.74853583  1
  C  C1  1  0.25146417  0.25146417  0.25146417  1
  O  O0  1  0.48600787  0.75871575  0.00090379  1
  O  O1  1  0.75871575  0.00090379  0.48600787  1
  O  O2  1  0.99909621  0.51399213  0.24128425  1
  O  O3  1  0.51399213  0.24128425  0.99909621  1
  O  O4  1  0.24128425  0.99909621  0.51399213  1
  O  O5  1  0.00090379  0.48600787  0.75871575  1
loop_
_geom_bond_atom_site_label_1
_geom_bond_atom_site_label_2
_geom_bond_distance
_geom_bond_site_symmetry_2
Cd0 O5 2.294671 1_554
Cd0 O2 2.294671 1_445
Cd0 O0 2.294671 1_545
Cd0 O3 2.294671 1_454
Cd0 O1 2.294671 1_455
Cd0 O4 2.294671 1_544
Hg0 O4 2.377600 1_555
Hg0 O1 2.377600 1_555
Hg0 O2 2.377600 1_555
Hg0 O5 2.377600 1_555
Hg0 O3 2.377600 1_555
Hg0 O0 2.377600 1_555
C0 O5 1.290639 1_655
C0 O1 1.290639 1_565
C0 O0 1.290639 1_556
C1 O2 1.290639 1_455
C1 O4 1.290639 1_545
C1 O3 1.290639 1_554
