# generated using pymatgen
data_Y6Ti4Al12Rh7
_symmetry_space_group_name_H-M   'P 1'
_cell_length_a   8.95490402
_cell_length_b   8.95490445
_cell_length_c   8.95490482
_cell_angle_alpha   60.00000227
_cell_angle_beta   60.00000066
_cell_angle_gamma   59.99999786
_symmetry_Int_Tables_number   1
_chemical_formula_structural   Y6Ti4Al12Rh7
_chemical_formula_sum   'Y6 Ti4 Al12 Rh7'
_cell_volume   507.77097291
_cell_formula_units_Z   1
loop_
 _symmetry_equiv_pos_site_id
 _symmetry_equiv_pos_as_xyz
  1  'x, y, z'
loop_
 _atom_site_type_symbol
 _atom_site_label
 _atom_site_symmetry_multiplicity
 _atom_site_fract_x
 _atom_site_fract_y
 _atom_site_fract_z
 _atom_site_occupancy
  Y  Y0  1  0.70414723  0.29585277  0.29585277  1
  Y  Y1  1  0.70414723  0.29585277  0.70414723  1
  Y  Y2  1  0.70414723  0.70414723  0.29585277  1
  Y  Y3  1  0.29585277  0.70414723  0.70414723  1
  Y  Y4  1  0.29585277  0.70414723  0.29585277  1
  Y  Y5  1  0.29585277  0.29585277  0.70414723  1
  Ti  Ti0  1  0.64226332  0.11924556  0.11924556  1
  Ti  Ti1  1  0.11924556  0.64226332  0.11924556  1
  Ti  Ti2  1  0.11924556  0.11924556  0.64226332  1
  Ti  Ti3  1  0.11924556  0.11924556  0.11924556  1
  Al  Al0  1  0.35942138  0.88019354  0.88019354  1
  Al  Al1  1  0.88019354  0.35942138  0.88019354  1
  Al  Al2  1  0.88019354  0.88019354  0.35942138  1
  Al  Al3  1  0.88019354  0.88019354  0.88019354  1
  Al  Al4  1  0.01267744  0.32910819  0.32910819  1
  Al  Al5  1  0.32910819  0.01267744  0.32910819  1
  Al  Al6  1  0.32910819  0.32910819  0.01267744  1
  Al  Al7  1  0.32910819  0.32910819  0.32910819  1
  Al  Al8  1  0.98308298  0.67230634  0.67230634  1
  Al  Al9  1  0.67230634  0.98308298  0.67230634  1
  Al  Al10  1  0.67230634  0.67230634  0.98308298  1
  Al  Al11  1  0.67230634  0.67230634  0.67230634  1
  Rh  Rh0  1  0.00000000  0.00000000  0.00000000  1
  Rh  Rh1  1  0.49822283  0.00177717  0.00177717  1
  Rh  Rh2  1  0.49822283  0.00177717  0.49822283  1
  Rh  Rh3  1  0.49822283  0.49822283  0.00177717  1
  Rh  Rh4  1  0.00177717  0.49822283  0.49822283  1
  Rh  Rh5  1  0.00177717  0.49822283  0.00177717  1
  Rh  Rh6  1  0.00177717  0.00177717  0.49822283  1
loop_
_geom_bond_atom_site_label_1
_geom_bond_atom_site_label_2
_geom_bond_distance
_geom_bond_site_symmetry_2
Ti0 Y0 3.092467 1_555
Ti0 Y2 3.092467 1_545
Ti0 Y1 3.092468 1_554
Ti1 Y2 3.092467 1_455
Ti1 Y4 3.092467 1_555
Ti1 Y3 3.092468 1_554
Ti2 Y1 3.092467 1_455
Ti2 Y3 3.092467 1_545
Ti2 Y5 3.092467 1_555
Ti3 Y0 3.092467 1_455
Ti3 Y4 3.092467 1_545
Ti3 Y5 3.092468 1_554
Al0 Rh0 2.627963 1_566
Al0 Rh1 2.794239 1_566
Al0 Rh3 2.794254 1_556
Al0 Rh2 2.794254 1_565
Al0 Al10 2.795576 1_555
Al0 Al11 2.795576 1_555
Al0 Al9 2.795576 1_555
Al0 Ti3 3.027407 1_566
Al0 Ti2 3.027419 1_565
Al0 Ti1 3.027419 1_556
Al0 Y5 3.094289 1_565
Al0 Y4 3.094289 1_556
Al0 Y3 3.094304 1_555
Al1 Rh0 2.627963 1_656
Al1 Rh5 2.794239 1_656
Al1 Rh3 2.794254 1_556
Al1 Rh4 2.794254 1_655
Al1 Al10 2.795576 1_555
Al1 Al11 2.795576 1_555
Al1 Al8 2.795576 1_555
Al1 Ti3 3.027407 1_656
Al1 Ti2 3.027419 1_655
Al1 Ti0 3.027419 1_556
Al1 Y5 3.094288 1_655
Al1 Y0 3.094289 1_556
Al1 Y1 3.094304 1_555
Al2 Rh0 2.627963 1_665
Al2 Rh6 2.794239 1_665
Al2 Rh2 2.794254 1_565
Al2 Rh4 2.794254 1_655
Al2 Al9 2.795576 1_555
Al2 Al8 2.795576 1_555
Al2 Ti3 3.027407 1_665
Al2 Ti1 3.027419 1_655
Al2 Ti0 3.027419 1_565
Al2 Y4 3.094288 1_655
Al2 Y0 3.094289 1_565
Al2 Y2 3.094304 1_555
Al3 Rh0 2.627948 1_666
Al3 Rh1 2.794254 1_566
Al3 Rh5 2.794254 1_656
Al3 Rh6 2.794255 1_665
Al3 Al9 2.795576 1_555
Al3 Al8 2.795576 1_555
Al3 Ti1 3.027407 1_656
Al3 Ti0 3.027407 1_566
Al3 Ti2 3.027407 1_665
Al3 Y3 3.094291 1_655
Al3 Y1 3.094291 1_565
Al3 Y2 3.094292 1_556
Al4 Rh4 2.567909 1_555
Al4 Rh6 2.567924 1_555
Al4 Rh5 2.567924 1_555
Al4 Ti1 2.814083 1_555
Al4 Ti2 2.814083 1_555
Al4 Ti3 2.814098 1_555
Al4 Y2 3.089487 1_455
Al4 Y1 3.089487 1_455
Al4 Y0 3.089497 1_455
Al5 Rh2 2.567909 1_555
Al5 Rh6 2.567924 1_555
Al5 Rh1 2.567924 1_555
Al5 Ti0 2.814083 1_555
Al5 Ti2 2.814083 1_555
Al5 Ti3 2.814098 1_555
Al5 Y2 3.089487 1_545
Al5 Y3 3.089487 1_545
Al5 Y4 3.089497 1_545
Al6 Rh3 2.567909 1_555
Al6 Rh5 2.567924 1_555
Al6 Rh1 2.567924 1_555
Al6 Ti0 2.814083 1_555
Al6 Ti1 2.814083 1_555
Al6 Ti3 2.814098 1_555
Al6 Y1 3.089487 1_554
Al6 Y3 3.089487 1_554
Al6 Y5 3.089497 1_554
Al7 Rh4 2.567918 1_555
Al7 Rh2 2.567918 1_555
Al7 Rh3 2.567919 1_555
Al7 Ti0 2.814092 1_555
Al7 Ti1 2.814092 1_555
Al7 Ti2 2.814092 1_555
Al7 Y0 3.089479 1_555
Al7 Y4 3.089480 1_555
Al7 Y5 3.089480 1_555
Al8 Rh6 2.607015 1_665
Al8 Rh5 2.607015 1_656
Al8 Rh4 2.607031 1_655
Al8 Y3 3.112189 1_655
Al8 Y5 3.112200 1_655
Al8 Y4 3.112200 1_655
Al9 Rh6 2.607015 1_665
Al9 Rh1 2.607015 1_566
Al9 Rh2 2.607031 1_565
Al9 Y1 3.112189 1_565
Al9 Y5 3.112200 1_565
Al9 Y0 3.112200 1_565
Al10 Rh5 2.607015 1_656
Al10 Rh1 2.607015 1_566
Al10 Rh3 2.607031 1_556
Al10 Al3 2.795576 1_555
Al10 Y2 3.112190 1_556
Al10 Y4 3.112200 1_556
Al10 Y0 3.112200 1_556
Al11 Rh4 2.607021 1_655
Al11 Rh2 2.607021 1_565
Al11 Rh3 2.607021 1_556
Al11 Al2 2.795576 1_555
Al11 Y3 3.112207 1_555
Al11 Y1 3.112207 1_555
Al11 Y2 3.112207 1_555
Rh0 Ti0 2.615645 1_455
Rh0 Ti3 2.615645 1_555
Rh0 Ti1 2.615645 1_545
Rh0 Ti2 2.615645 1_554
Rh1 Ti3 2.774352 1_555
Rh1 Ti0 2.774352 1_555
Rh1 Y2 3.218927 1_545
Rh1 Y5 3.218927 1_554
Rh1 Y4 3.218927 1_545
Rh1 Y1 3.218927 1_554
Rh2 Ti2 2.774352 1_555
Rh2 Ti0 2.774352 1_555
Rh2 Y2 3.218927 1_545
Rh2 Y5 3.218927 1_555
Rh2 Y0 3.218927 1_555
Rh2 Y3 3.218927 1_545
Rh3 Ti1 2.774352 1_555
Rh3 Ti0 2.774352 1_555
Rh3 Y0 3.218927 1_555
Rh3 Y4 3.218927 1_555
Rh3 Y1 3.218927 1_554
Rh3 Y3 3.218927 1_554
Rh4 Ti2 2.774352 1_555
Rh4 Ti1 2.774352 1_555
Rh4 Y2 3.218927 1_455
Rh4 Y5 3.218927 1_555
Rh4 Y1 3.218927 1_455
Rh4 Y4 3.218927 1_555
Rh5 Ti1 2.774352 1_555
Rh5 Ti3 2.774352 1_555
Rh5 Y2 3.218927 1_455
Rh5 Y5 3.218927 1_554
Rh5 Y0 3.218927 1_455
Rh5 Y3 3.218927 1_554
Rh6 Ti2 2.774352 1_555
Rh6 Ti3 2.774352 1_555
Rh6 Y0 3.218927 1_455
Rh6 Y1 3.218927 1_455
Rh6 Y4 3.218927 1_545
Rh6 Y3 3.218927 1_545
