# generated using pymatgen
data_Ta3Ni2GeC
_symmetry_space_group_name_H-M   'P 1'
_cell_length_a   8.05348174
_cell_length_b   8.05265601
_cell_length_c   8.05417039
_cell_angle_alpha   60.00044018
_cell_angle_beta   60.00091409
_cell_angle_gamma   60.00269315
_symmetry_Int_Tables_number   1
_chemical_formula_structural   Ta3Ni2GeC
_chemical_formula_sum   'Ta12 Ni8 Ge4 C4'
_cell_volume   369.35324995
_cell_formula_units_Z   4
loop_
 _symmetry_equiv_pos_site_id
 _symmetry_equiv_pos_as_xyz
  1  'x, y, z'
loop_
 _atom_site_type_symbol
 _atom_site_label
 _atom_site_symmetry_multiplicity
 _atom_site_fract_x
 _atom_site_fract_y
 _atom_site_fract_z
 _atom_site_occupancy
  Ta  Ta0  1  0.44219627  0.05786623  0.05779009  1
  Ta  Ta1  1  0.05786972  0.44219042  0.44215814  1
  Ta  Ta2  1  0.05788497  0.44220686  0.05776869  1
  Ta  Ta3  1  0.05782786  0.05779233  0.44220949  1
  Ta  Ta4  1  0.44217869  0.05785134  0.44217348  1
  Ta  Ta5  1  0.44214882  0.44216485  0.05782094  1
  Ta  Ta6  1  0.19211503  0.80779314  0.19223131  1
  Ta  Ta7  1  0.80782131  0.19214866  0.80782652  1
  Ta  Ta8  1  0.80780373  0.19213377  0.19220991  1
  Ta  Ta9  1  0.19217214  0.19220767  0.80779051  1
  Ta  Ta10  1  0.19213028  0.80780958  0.80784186  1
  Ta  Ta11  1  0.80785118  0.80783515  0.19217906  1
  Ni  Ni0  1  0.83315800  0.83311952  0.83312108  1
  Ni  Ni1  1  0.83315152  0.83310916  0.50064699  1
  Ni  Ni2  1  0.50061759  0.83313148  0.83313416  1
  Ni  Ni3  1  0.83314996  0.50063920  0.83311269  1
  Ni  Ni4  1  0.41684200  0.41688048  0.41687892  1
  Ni  Ni5  1  0.41684848  0.41689084  0.74935301  1
  Ni  Ni6  1  0.41685004  0.74936080  0.41688731  1
  Ni  Ni7  1  0.74938241  0.41686852  0.41686584  1
  Ge  Ge0  1  0.62500000  0.62500000  0.62500000  1
  Ge  Ge1  1  0.62500000  0.62500000  0.12500000  1
  Ge  Ge2  1  0.12500000  0.62500000  0.62500000  1
  Ge  Ge3  1  0.62500000  0.12500000  0.62500000  1
  C  C0  1  0.12500000  0.12500000  0.12500000  1
  C  C1  1  0.12500000  0.12500000  0.62500000  1
  C  C2  1  0.62500000  0.12500000  0.12500000  1
  C  C3  1  0.12500000  0.62500000  0.12500000  1
loop_
_geom_bond_atom_site_label_1
_geom_bond_atom_site_label_2
_geom_bond_distance
_geom_bond_site_symmetry_2
Ni0 Ni3 2.677416 1_555
Ni0 Ni1 2.677871 1_555
Ni0 Ni2 2.678007 1_555
Ni0 Ta10 2.702679 1_655
Ni0 Ta7 2.702686 1_565
Ni0 Ta11 2.703603 1_556
Ni0 Ta3 2.887983 1_665
Ni0 Ta2 2.888031 1_656
Ni0 Ta0 2.888444 1_566
Ni1 Ni3 2.677519 1_555
Ni1 Ni2 2.678019 1_555
Ni1 Ta6 2.702870 1_655
Ni1 Ta8 2.703034 1_565
Ni1 Ta11 2.703471 1_555
Ni1 Ta3 2.887811 1_665
Ni1 Ta1 2.887990 1_655
Ni1 Ta4 2.888586 1_565
Ni2 Ni3 2.677854 1_555
Ni2 Ta9 2.703294 1_565
Ni2 Ta10 2.703603 1_555
Ni2 Ta6 2.703819 1_556
Ni2 Ta5 2.888156 1_556
Ni2 Ta0 2.888287 1_566
Ni2 Ta4 2.888550 1_565
Ni3 Ta9 2.703062 1_655
Ni3 Ta7 2.703392 1_555
Ni3 Ta8 2.703704 1_556
Ni3 Ta2 2.888420 1_656
Ni3 Ta1 2.888538 1_655
Ni3 Ta5 2.888683 1_556
Ni4 Ni6 2.677416 1_555
Ni4 Ni5 2.677871 1_555
Ni4 Ni7 2.678007 1_555
Ni4 Ta1 2.702679 1_555
Ni4 Ta4 2.702686 1_555
Ni4 Ta5 2.703603 1_555
Ni4 Ta9 2.887983 1_555
Ni4 Ta6 2.888031 1_555
Ni4 Ta8 2.888444 1_555
Ni5 Ni6 2.677519 1_555
Ni5 Ni7 2.678019 1_555
Ni5 Ta2 2.702870 1_556
Ni5 Ta0 2.703034 1_556
Ni5 Ta5 2.703471 1_556
Ni5 Ta9 2.887811 1_555
Ni5 Ta10 2.887990 1_555
Ni5 Ta7 2.888586 1_555
Ni6 Ni7 2.677854 1_555
Ni6 Ta3 2.703062 1_565
Ni6 Ta4 2.703392 1_565
Ni6 Ta0 2.703704 1_565
Ni6 Ta6 2.888420 1_555
Ni6 Ta10 2.888538 1_555
Ni6 Ta11 2.888683 1_555
Ni7 Ta3 2.703294 1_655
Ni7 Ta1 2.703603 1_655
Ni7 Ta2 2.703819 1_655
Ni7 Ta11 2.888156 1_555
Ni7 Ta8 2.888287 1_555
Ni7 Ta7 2.888550 1_555
Ge0 Ni1 2.464421 1_555
Ge0 Ni5 2.464421 1_555
Ge0 Ni2 2.464591 1_555
Ge0 Ni7 2.464591 1_555
Ge0 Ni3 2.464774 1_555
Ge0 Ni6 2.464774 1_555
Ge0 Ta4 2.896445 1_565
Ge0 Ta7 2.896445 1_555
Ge0 Ta5 2.896668 1_556
Ge0 Ta11 2.896668 1_555
Ge0 Ta1 2.896795 1_655
Ge0 Ta10 2.896795 1_555
Ge1 Ni0 2.464575 1_554
Ge1 Ni4 2.464575 1_555
Ge1 Ni7 2.464660 1_555
Ge1 Ni2 2.464660 1_554
Ge1 Ni6 2.464669 1_555
Ge1 Ni3 2.464669 1_554
Ge1 Ta0 2.896454 1_565
Ge1 Ta8 2.896454 1_555
Ge1 Ta11 2.896595 1_555
Ge1 Ta5 2.896595 1_555
Ge1 Ta2 2.896868 1_655
Ge1 Ta6 2.896868 1_555
Ge2 Ni6 2.464204 1_555
Ge2 Ni3 2.464204 1_455
Ge2 Ni5 2.464330 1_555
Ge2 Ni1 2.464330 1_455
Ge2 Ni0 2.464448 1_455
Ge2 Ni4 2.464448 1_555
Ge2 Ta3 2.895962 1_565
Ge2 Ta9 2.895962 1_555
Ge2 Ta10 2.896173 1_555
Ge2 Ta1 2.896173 1_555
Ge2 Ta2 2.896410 1_556
Ge2 Ta6 2.896410 1_555
Ge3 Ni7 2.464272 1_555
Ge3 Ni2 2.464272 1_545
Ge3 Ni5 2.464424 1_555
Ge3 Ni1 2.464424 1_545
Ge3 Ni0 2.464709 1_545
Ge3 Ni4 2.464709 1_555
Ge3 Ta7 2.896339 1_555
Ge3 Ta4 2.896339 1_555
Ge3 Ta3 2.896491 1_655
Ge3 Ta9 2.896491 1_555
Ge3 Ta0 2.896550 1_556
Ge3 Ta8 2.896550 1_555
C0 Ta2 2.153855 1_555
C0 Ta6 2.153855 1_545
C0 Ta8 2.154042 1_455
C0 Ta0 2.154042 1_555
C0 Ta3 2.154267 1_555
C0 Ta9 2.154267 1_554
C1 Ta9 2.153813 1_555
C1 Ta3 2.153813 1_555
C1 Ta1 2.153826 1_555
C1 Ta10 2.153826 1_545
C1 Ta4 2.153934 1_555
C1 Ta7 2.153934 1_455
C2 Ta0 2.153611 1_555
C2 Ta8 2.153611 1_555
C2 Ta5 2.153704 1_555
C2 Ta11 2.153704 1_545
C2 Ta4 2.153990 1_555
C2 Ta7 2.153990 1_554
C3 Ta6 2.153447 1_555
C3 Ta2 2.153447 1_555
C3 Ta5 2.153746 1_555
C3 Ta11 2.153746 1_455
C3 Ta1 2.153841 1_555
C3 Ta10 2.153841 1_554
