# generated using pymatgen
data_Y2MoIr2Ru
_symmetry_space_group_name_H-M   'P 1'
_cell_length_a   5.23084918
_cell_length_b   5.23084902
_cell_length_c   5.09104352
_cell_angle_alpha   65.44656022
_cell_angle_beta   65.44657314
_cell_angle_gamma   64.79749485
_symmetry_Int_Tables_number   1
_chemical_formula_structural   Y2MoIr2Ru
_chemical_formula_sum   'Y2 Mo1 Ir2 Ru1'
_cell_volume   109.71899671
_cell_formula_units_Z   1
loop_
 _symmetry_equiv_pos_site_id
 _symmetry_equiv_pos_as_xyz
  1  'x, y, z'
loop_
 _atom_site_type_symbol
 _atom_site_label
 _atom_site_symmetry_multiplicity
 _atom_site_fract_x
 _atom_site_fract_y
 _atom_site_fract_z
 _atom_site_occupancy
  Y  Y0  1  0.12916391  0.12916391  0.12330754  1
  Y  Y1  1  0.87083609  0.87083609  0.87669246  1
  Mo  Mo0  1  0.50000000  0.50000000  0.50000000  1
  Ir  Ir0  1  0.50000000  0.00000000  0.50000000  1
  Ir  Ir1  1  0.00000000  0.50000000  0.50000000  1
  Ru  Ru0  1  0.50000000  0.50000000  0.00000000  1
loop_
_geom_bond_atom_site_label_1
_geom_bond_atom_site_label_2
_geom_bond_distance
_geom_bond_site_symmetry_2
Y0 Y1 3.098910 1_444
Y0 Y1 3.362049 1_445
Y0 Y1 3.369072 1_454
Y0 Y1 3.369072 1_544
Mo0 Ru0 2.545522 1_555
Mo0 Ru0 2.545522 1_556
Mo0 Y1 3.250900 1_554
Mo0 Y0 3.250900 1_556
Mo0 Y1 3.268203 1_545
Mo0 Y0 3.268203 1_565
Mo0 Y1 3.268204 1_455
Mo0 Y0 3.268204 1_655
Ir0 Mo0 2.615425 1_545
Ir0 Mo0 2.615425 1_555
Ir0 Ru0 2.790535 1_546
Ir0 Ru0 2.790535 1_555
Ir0 Ir1 2.802733 1_555
Ir0 Ir1 2.802733 1_645
Ir0 Y1 2.965760 1_545
Ir0 Y0 2.965760 1_555
Ir0 Y0 3.136711 1_556
Ir0 Y1 3.136711 1_544
Ir0 Y0 3.246051 1_655
Ir0 Y1 3.246051 1_445
Ir1 Mo0 2.615425 1_555
Ir1 Mo0 2.615425 1_455
Ir1 Ru0 2.790536 1_456
Ir1 Ru0 2.790536 1_555
Ir1 Y1 2.965760 1_455
Ir1 Y0 2.965760 1_555
Ir1 Y0 3.136710 1_556
Ir1 Y1 3.136710 1_454
Ir1 Y0 3.246051 1_565
Ir1 Y1 3.246051 1_445
Ru0 Y1 3.016636 1_554
Ru0 Y0 3.016636 1_555
Ru0 Y0 3.202518 1_655
Ru0 Y1 3.202518 1_454
Ru0 Y0 3.202518 1_565
Ru0 Y1 3.202518 1_544
