# generated using pymatgen
data_TcNiF6
_symmetry_space_group_name_H-M   'P 1'
_cell_length_a   5.40406737
_cell_length_b   5.40406820
_cell_length_c   5.40406688
_cell_angle_alpha   55.50963447
_cell_angle_beta   55.50962988
_cell_angle_gamma   55.50963362
_symmetry_Int_Tables_number   1
_chemical_formula_structural   TcNiF6
_chemical_formula_sum   'Tc1 Ni1 F6'
_cell_volume   99.96137004
_cell_formula_units_Z   1
loop_
 _symmetry_equiv_pos_site_id
 _symmetry_equiv_pos_as_xyz
  1  'x, y, z'
loop_
 _atom_site_type_symbol
 _atom_site_label
 _atom_site_symmetry_multiplicity
 _atom_site_fract_x
 _atom_site_fract_y
 _atom_site_fract_z
 _atom_site_occupancy
  Tc  Tc0  1  0.50000000  0.50000000  0.50000000  1
  Ni  Ni0  1  0.00000000  0.00000000  0.00000000  1
  F  F0  1  0.88163450  0.61218427  0.25353706  1
  F  F1  1  0.61218427  0.25353706  0.88163450  1
  F  F2  1  0.25353706  0.88163450  0.61218427  1
  F  F3  1  0.74646294  0.11836550  0.38781573  1
  F  F4  1  0.38781573  0.74646294  0.11836550  1
  F  F5  1  0.11836550  0.38781573  0.74646294  1
loop_
_geom_bond_atom_site_label_1
_geom_bond_atom_site_label_2
_geom_bond_distance
_geom_bond_site_symmetry_2
F0 Tc0 1.945638 1_555
F0 Ni0 1.988048 1_665
F1 Tc0 1.945638 1_555
F1 Ni0 1.988048 1_656
F2 Tc0 1.945639 1_555
F2 Ni0 1.988048 1_566
F3 Tc0 1.945639 1_555
F3 Ni0 1.988048 1_655
F4 Tc0 1.945638 1_555
F4 Ni0 1.988048 1_565
F5 Tc0 1.945638 1_555
F5 Ni0 1.988048 1_556
