# generated using pymatgen
data_LiYB14
_symmetry_space_group_name_H-M   'P 1'
_cell_length_a   7.25217091
_cell_length_b   7.25217183
_cell_length_c   7.25217078
_cell_angle_alpha   132.23171182
_cell_angle_beta   110.92773775
_cell_angle_gamma   88.31980302
_symmetry_Int_Tables_number   1
_chemical_formula_structural   LiYB14
_chemical_formula_sum   'Li2 Y2 B28'
_cell_volume   251.23853274
_cell_formula_units_Z   2
loop_
 _symmetry_equiv_pos_site_id
 _symmetry_equiv_pos_as_xyz
  1  'x, y, z'
loop_
 _atom_site_type_symbol
 _atom_site_label
 _atom_site_symmetry_multiplicity
 _atom_site_fract_x
 _atom_site_fract_y
 _atom_site_fract_z
 _atom_site_occupancy
  Li  Li0  1  0.00000000  0.00000000  0.50000000  1
  Li  Li1  1  0.00000000  0.50000000  0.00000000  1
  Y  Y0  1  0.62126857  0.25000000  0.37126857  1
  Y  Y1  1  0.37873143  0.75000000  0.62873143  1
  B  B0  1  0.63870797  0.66592523  0.97278274  1
  B  B1  1  0.36129203  0.33407477  0.02721726  1
  B  B2  1  0.19314249  0.16592523  0.02721726  1
  B  B3  1  0.80685751  0.83407477  0.97278274  1
  B  B4  1  0.77768665  0.14927559  0.62841106  1
  B  B5  1  0.22231335  0.85072441  0.37158894  1
  B  B6  1  0.02086253  0.64927559  0.37158894  1
  B  B7  1  0.97913747  0.35072441  0.62841106  1
  B  B8  1  0.91577466  0.08897133  0.82680433  1
  B  B9  1  0.08422534  0.91102867  0.17319567  1
  B  B10  1  0.76216700  0.58897133  0.17319567  1
  B  B11  1  0.23783300  0.41102867  0.82680433  1
  B  B12  1  0.39890484  0.40075976  0.68193149  1
  B  B13  1  0.60109516  0.28302566  0.00185492  1
  B  B14  1  0.21882926  0.90075976  0.00185492  1
  B  B15  1  0.78117074  0.78302566  0.68193149  1
  B  B16  1  0.60109516  0.59924024  0.31806851  1
  B  B17  1  0.39890484  0.71697434  0.99814508  1
  B  B18  1  0.78117074  0.09924024  0.99814508  1
  B  B19  1  0.21882926  0.21697434  0.31806851  1
  B  B20  1  0.03339142  0.83020507  0.70361800  1
  B  B21  1  0.96660858  0.67022758  0.79681465  1
  B  B22  1  0.62658707  0.33020507  0.79681465  1
  B  B23  1  0.37341293  0.17022758  0.70361800  1
  B  B24  1  0.96660858  0.16979493  0.29638200  1
  B  B25  1  0.03339142  0.32977242  0.20318535  1
  B  B26  1  0.37341293  0.66979493  0.20318535  1
  B  B27  1  0.62658707  0.82977242  0.29638200  1
loop_
_geom_bond_atom_site_label_1
_geom_bond_atom_site_label_2
_geom_bond_distance
_geom_bond_site_symmetry_2
B0 B3 1.749662 1_555
B0 B12 1.815091 1_555
B0 B17 1.815091 1_555
B0 B27 1.822028 1_556
B0 B22 1.822028 1_555
B0 B10 1.832209 1_556
B1 B2 1.749662 1_555
B1 B16 1.815091 1_555
B1 B13 1.815091 1_555
B1 B23 1.822028 1_554
B1 B26 1.822028 1_555
B1 B11 1.832209 1_554
B2 B25 1.822022 1_555
B2 B20 1.822027 1_544
B2 B8 1.832215 1_454
B3 B9 1.832215 1_656
B4 B8 1.747881 1_555
B4 Li0 2.062422 1_655
B4 Li1 2.062422 1_656
B4 B7 2.096164 1_555
B4 Y0 2.359953 1_555
B5 B9 1.747881 1_555
B5 Li0 2.062422 1_565
B5 Li1 2.062422 1_555
B5 B6 2.096164 1_555
B5 Y1 2.359953 1_555
B6 Li0 2.062419 1_565
B6 Li1 2.062427 1_555
B6 Y1 2.359965 1_555
B7 Li0 2.062419 1_655
B7 Li1 2.062427 1_656
B7 Y0 2.359965 1_555
B8 Li1 2.315574 1_656
B8 Li0 2.315577 1_655
B9 Li1 2.315574 1_555
B9 Li0 2.315577 1_565
B10 B6 1.747872 1_655
B10 B16 1.800101 1_555
B10 B13 1.800107 1_555
B10 B22 1.801159 1_554
B10 B27 1.801159 1_555
B10 Li1 2.315573 1_655
B10 Li0 2.315573 1_665
B11 B7 1.747872 1_455
B11 B12 1.800101 1_555
B11 B17 1.800107 1_555
B11 B26 1.801159 1_556
B11 B23 1.801159 1_555
B11 Li1 2.315573 1_556
B11 Li0 2.315573 1_555
B12 B22 1.795309 1_555
B12 B23 1.801772 1_555
B12 B19 1.832357 1_555
B12 B17 1.857012 1_555
B12 Y1 2.799394 1_555
B12 Y0 2.837723 1_555
B13 B23 1.795311 1_554
B13 B22 1.801777 1_554
B13 B18 1.832347 1_554
B13 B16 1.857012 1_555
B13 Y0 2.799389 1_555
B13 Y1 2.837718 1_544
B14 B20 1.795309 1_554
B14 B9 1.800101 1_555
B14 B21 1.801783 1_454
B14 B2 1.815092 1_565
B14 B17 1.832347 1_554
B14 B19 1.857012 1_565
B14 Y0 2.799389 1_565
B14 Y1 2.837718 1_554
B15 B21 1.795303 1_555
B15 B8 1.800107 1_565
B15 B20 1.801787 1_655
B15 B3 1.815084 1_555
B15 B16 1.832357 1_555
B15 B18 1.857012 1_565
B15 Y1 2.799387 1_555
B15 Y0 2.837716 1_555
B16 B26 1.795309 1_555
B16 B27 1.801772 1_555
B16 Y0 2.799394 1_555
B16 Y1 2.837723 1_555
B17 B27 1.795311 1_556
B17 B26 1.801777 1_556
B17 Y1 2.799389 1_555
B17 Y0 2.837718 1_566
B18 B24 1.795309 1_556
B18 B8 1.800101 1_555
B18 B25 1.801783 1_656
B18 B3 1.815092 1_545
B18 Y1 2.799389 1_545
B18 Y0 2.837718 1_556
B19 B25 1.795303 1_555
B19 B9 1.800107 1_545
B19 B24 1.801787 1_455
B19 B2 1.815084 1_555
B19 Y0 2.799387 1_555
B19 Y1 2.837716 1_555
B20 B6 1.769618 1_555
B20 B8 1.801168 1_465
B20 B21 1.832565 1_455
B20 Li0 2.434522 1_565
B20 Y1 2.714261 1_555
B21 B7 1.769633 1_555
B21 B9 1.801159 1_656
B21 B3 1.822022 1_555
B21 Li1 2.434522 1_656
B21 Y0 2.714265 1_555
B22 B4 1.769627 1_555
B22 B23 1.832559 1_555
B22 Li1 2.434523 1_656
B22 Y0 2.714268 1_555
B23 B5 1.769627 1_545
B23 Li0 2.434523 1_555
B23 Y1 2.714269 1_545
B24 B7 1.769618 1_555
B24 B9 1.801168 1_645
B24 B3 1.822027 1_544
B24 B25 1.832565 1_655
B24 Li0 2.434522 1_655
B24 Y0 2.714261 1_555
B25 B6 1.769633 1_555
B25 B8 1.801159 1_454
B25 Li1 2.434522 1_555
B25 Y1 2.714265 1_555
B26 B5 1.769627 1_555
B26 B27 1.832559 1_555
B26 Li1 2.434523 1_555
B26 Y1 2.714268 1_555
B27 B4 1.769627 1_565
B27 Li0 2.434523 1_665
B27 Y0 2.714269 1_565
