# generated using pymatgen
data_YMgScCu9
_symmetry_space_group_name_H-M   'P 1'
_cell_length_a   4.98651108
_cell_length_b   4.98651161
_cell_length_c   16.07367555
_cell_angle_alpha   90.00000000
_cell_angle_beta   90.00000000
_cell_angle_gamma   120.00000300
_symmetry_Int_Tables_number   1
_chemical_formula_structural   YMgScCu9
_chemical_formula_sum   'Y2 Mg2 Sc2 Cu18'
_cell_volume   346.13015695
_cell_formula_units_Z   2
loop_
 _symmetry_equiv_pos_site_id
 _symmetry_equiv_pos_as_xyz
  1  'x, y, z'
loop_
 _atom_site_type_symbol
 _atom_site_label
 _atom_site_symmetry_multiplicity
 _atom_site_fract_x
 _atom_site_fract_y
 _atom_site_fract_z
 _atom_site_occupancy
  Y  Y0  1  0.66666700  0.33333300  0.24121047  1
  Y  Y1  1  0.33333300  0.66666700  0.74121047  1
  Mg  Mg0  1  0.66666700  0.33333300  0.03466883  1
  Mg  Mg1  1  0.33333300  0.66666700  0.53466883  1
  Sc  Sc0  1  0.66666700  0.33333300  0.46850102  1
  Sc  Sc1  1  0.33333300  0.66666700  0.96850102  1
  Cu  Cu0  1  0.33333300  0.66666700  0.25096378  1
  Cu  Cu1  1  0.66666700  0.33333300  0.75096378  1
  Cu  Cu2  1  0.16853867  0.83146133  0.37696829  1
  Cu  Cu3  1  0.16853867  0.33707834  0.37696829  1
  Cu  Cu4  1  0.00000000  0.00000000  0.75235918  1
  Cu  Cu5  1  0.00000000  0.00000000  0.25235918  1
  Cu  Cu6  1  0.00000000  0.00000000  0.00072552  1
  Cu  Cu7  1  0.00000000  0.00000000  0.50072552  1
  Cu  Cu8  1  0.16711095  0.33422190  0.12355578  1
  Cu  Cu9  1  0.83288905  0.16711095  0.62355578  1
  Cu  Cu10  1  0.33422190  0.16711095  0.62355578  1
  Cu  Cu11  1  0.66577810  0.83288905  0.12355578  1
  Cu  Cu12  1  0.16711095  0.83288905  0.12355578  1
  Cu  Cu13  1  0.83146133  0.66292166  0.87696829  1
  Cu  Cu14  1  0.83146133  0.16853867  0.87696829  1
  Cu  Cu15  1  0.83288905  0.66577810  0.62355578  1
  Cu  Cu16  1  0.33707834  0.16853867  0.87696829  1
  Cu  Cu17  1  0.66292166  0.83146133  0.37696829  1
loop_
_geom_bond_atom_site_label_1
_geom_bond_atom_site_label_2
_geom_bond_distance
_geom_bond_site_symmetry_2
Mg0 Sc1 3.069132 1_654
Mg0 Sc1 3.069133 1_544
Mg0 Sc1 3.069141 1_554
Mg0 Y0 3.319883 1_555
Mg1 Sc0 3.069132 1_455
Mg1 Sc0 3.069133 1_565
Mg1 Sc0 3.069141 1_555
Mg1 Y1 3.319883 1_555
Cu0 Cu17 2.475455 1_555
Cu0 Cu2 2.475455 1_555
Cu0 Cu3 2.475455 1_555
Cu0 Cu12 2.501004 1_555
Cu0 Cu11 2.501007 1_555
Cu0 Cu8 2.501007 1_555
Cu0 Cu5 2.879048 1_565
Cu0 Cu5 2.879052 1_665
Cu0 Cu5 2.879053 1_555
Cu0 Y0 2.883226 1_455
Cu0 Y0 2.883226 1_565
Cu0 Y0 2.883235 1_555
Cu1 Cu16 2.475455 1_555
Cu1 Cu14 2.475455 1_555
Cu1 Cu13 2.475455 1_555
Cu1 Cu9 2.501004 1_555
Cu1 Cu10 2.501007 1_555
Cu1 Cu15 2.501007 1_555
Cu1 Cu4 2.879048 1_655
Cu1 Cu4 2.879052 1_555
Cu1 Cu4 2.879053 1_665
Cu1 Y1 2.883226 1_655
Cu1 Y1 2.883226 1_545
Cu1 Y1 2.883235 1_555
Cu2 Cu7 2.464948 1_565
Cu2 Cu3 2.465247 1_555
Cu2 Cu5 2.476011 1_565
Cu2 Cu3 2.521265 1_565
Cu2 Sc0 2.895032 1_455
Cu2 Sc0 2.895032 1_565
Cu2 Mg1 2.907088 1_555
Cu2 Y0 3.313346 1_455
Cu2 Y0 3.313346 1_565
Cu3 Cu7 2.464950 1_555
Cu3 Cu5 2.476014 1_555
Cu3 Sc0 2.895028 1_455
Cu3 Sc0 2.895037 1_555
Cu3 Mg1 2.907088 1_555
Cu3 Y0 3.313343 1_455
Cu3 Y0 3.313350 1_555
Cu4 Cu9 2.523786 1_455
Cu4 Y1 2.884533 1_545
Cu4 Y1 2.884537 1_445
Cu4 Y1 2.884537 1_555
Cu5 Cu8 2.523786 1_555
Cu5 Y0 2.884533 1_455
Cu5 Y0 2.884537 1_555
Cu5 Y0 2.884537 1_445
Cu6 Cu8 2.445642 1_555
Cu6 Sc1 2.925184 1_544
Cu6 Sc1 2.925188 1_444
Cu6 Sc1 2.925189 1_554
Cu6 Mg0 2.930203 1_455
Cu6 Mg0 2.930207 1_555
Cu6 Mg0 2.930207 1_445
Cu7 Cu9 2.445642 1_455
Cu7 Sc0 2.925184 1_455
Cu7 Sc0 2.925188 1_555
Cu7 Sc0 2.925189 1_445
Cu7 Mg1 2.930203 1_545
Cu7 Mg1 2.930207 1_445
Cu7 Mg1 2.930207 1_555
Cu8 Mg0 2.873608 1_455
Cu8 Mg0 2.873612 1_555
Cu8 Sc1 2.876219 1_554
Cu8 Y0 3.129337 1_455
Cu8 Y0 3.129341 1_555
Cu9 Mg1 2.873610 1_655
Cu9 Mg1 2.873610 1_545
Cu9 Sc0 2.876217 1_555
Cu9 Y1 3.129339 1_655
Cu9 Y1 3.129339 1_545
Cu10 Cu7 2.445642 1_555
Cu10 Cu9 2.486609 1_555
Cu10 Cu15 2.486609 1_555
Cu10 Cu9 2.499902 1_455
Cu10 Cu15 2.499902 1_445
Cu10 Cu4 2.523786 1_555
Cu10 Mg1 2.873608 1_545
Cu10 Mg1 2.873613 1_555
Cu10 Sc0 2.876219 1_555
Cu10 Y1 3.129337 1_545
Cu10 Y1 3.129341 1_555
Cu11 Cu6 2.445642 1_665
Cu11 Cu12 2.486609 1_555
Cu11 Cu8 2.486609 1_555
Cu11 Cu12 2.499902 1_655
Cu11 Cu8 2.499902 1_665
Cu11 Cu5 2.523786 1_665
Cu11 Mg0 2.873608 1_565
Cu11 Mg0 2.873613 1_555
Cu11 Sc1 2.876219 1_554
Cu11 Y0 3.129337 1_565
Cu11 Y0 3.129341 1_555
Cu12 Cu6 2.445642 1_565
Cu12 Cu8 2.486610 1_555
Cu12 Cu8 2.499902 1_565
Cu12 Cu5 2.523786 1_565
Cu12 Mg0 2.873610 1_455
Cu12 Mg0 2.873610 1_565
Cu12 Sc1 2.876217 1_554
Cu12 Y0 3.129339 1_455
Cu12 Y0 3.129339 1_565
Cu13 Cu6 2.464950 1_666
Cu13 Cu16 2.465246 1_555
Cu13 Cu14 2.465247 1_555
Cu13 Cu4 2.476014 1_665
Cu13 Cu16 2.521265 1_665
Cu13 Cu14 2.521265 1_565
Cu13 Sc1 2.895028 1_655
Cu13 Sc1 2.895037 1_555
Cu13 Mg0 2.907088 1_556
Cu13 Y1 3.313343 1_655
Cu13 Y1 3.313350 1_555
Cu14 Cu6 2.464948 1_656
Cu14 Cu16 2.465246 1_555
Cu14 Cu4 2.476011 1_655
Cu14 Cu16 2.521265 1_655
Cu14 Sc1 2.895032 1_655
Cu14 Sc1 2.895032 1_545
Cu14 Mg0 2.907088 1_556
Cu14 Y1 3.313346 1_655
Cu14 Y1 3.313346 1_545
Cu15 Cu7 2.445642 1_665
Cu15 Cu9 2.486610 1_555
Cu15 Cu9 2.499902 1_565
Cu15 Cu4 2.523786 1_665
Cu15 Mg1 2.873608 1_655
Cu15 Mg1 2.873612 1_555
Cu15 Sc0 2.876219 1_555
Cu15 Y1 3.129337 1_655
Cu15 Y1 3.129341 1_555
Cu16 Cu6 2.464950 1_556
Cu16 Cu4 2.476014 1_555
Cu16 Sc1 2.895028 1_545
Cu16 Sc1 2.895037 1_555
Cu16 Mg0 2.907088 1_556
Cu16 Y1 3.313343 1_545
Cu16 Y1 3.313350 1_555
Cu17 Cu7 2.464950 1_665
Cu17 Cu2 2.465246 1_555
Cu17 Cu3 2.465246 1_555
Cu17 Cu5 2.476014 1_665
Cu17 Cu2 2.521265 1_655
Cu17 Cu3 2.521265 1_665
Cu17 Sc0 2.895028 1_565
Cu17 Sc0 2.895037 1_555
Cu17 Mg1 2.907088 1_555
Cu17 Y0 3.313343 1_565
Cu17 Y0 3.313350 1_555
