# generated using pymatgen
data_CaSb12(IrOs)2
_symmetry_space_group_name_H-M   'P 1'
_cell_length_a   8.11757956
_cell_length_b   8.09280588
_cell_length_c   8.11757944
_cell_angle_alpha   109.45900250
_cell_angle_beta   109.58954419
_cell_angle_gamma   109.48882679
_symmetry_Int_Tables_number   1
_chemical_formula_structural   CaSb12(IrOs)2
_chemical_formula_sum   'Ca1 Sb12 Ir2 Os2'
_cell_volume   409.88783300
_cell_formula_units_Z   1
loop_
 _symmetry_equiv_pos_site_id
 _symmetry_equiv_pos_as_xyz
  1  'x, y, z'
loop_
 _atom_site_type_symbol
 _atom_site_label
 _atom_site_symmetry_multiplicity
 _atom_site_fract_x
 _atom_site_fract_y
 _atom_site_fract_z
 _atom_site_occupancy
  Ca  Ca0  1  0.00000000  0.00000000  0.00000000  1
  Sb  Sb0  1  0.84303843  0.65795928  0.50401077  1
  Sb  Sb1  1  0.15696157  0.34204072  0.49598923  1
  Sb  Sb2  1  0.15394951  0.65795928  0.81492085  1
  Sb  Sb3  1  0.84605049  0.34204072  0.18507915  1
  Sb  Sb4  1  0.66158865  0.50455243  0.84296378  1
  Sb  Sb5  1  0.33841135  0.49544757  0.15703622  1
  Sb  Sb6  1  0.65794565  0.81205096  0.15410531  1
  Sb  Sb7  1  0.34205435  0.18794904  0.84589469  1
  Sb  Sb8  1  0.50405717  0.84379030  0.65867133  1
  Sb  Sb9  1  0.49594283  0.15620970  0.34132867  1
  Sb  Sb10  1  0.18511897  0.84379030  0.33973314  1
  Sb  Sb11  1  0.81488103  0.15620970  0.66026686  1
  Ir  Ir0  1  0.50000000  0.00000000  0.00000000  1
  Ir  Ir1  1  0.00000000  0.00000000  0.50000000  1
  Os  Os0  1  0.50000000  0.50000000  0.50000000  1
  Os  Os1  1  0.00000000  0.50000000  0.00000000  1
loop_
_geom_bond_atom_site_label_1
_geom_bond_atom_site_label_2
_geom_bond_distance
_geom_bond_site_symmetry_2
Ca0 Sb5 3.484964 1_555
Ca0 Sb4 3.484964 1_444
Ca0 Sb9 3.503324 1_555
Ca0 Sb8 3.503324 1_444
Ca0 Sb10 3.503324 1_545
Ca0 Sb11 3.503324 1_454
Ca0 Sb1 3.503919 1_555
Ca0 Sb0 3.503919 1_444
Ca0 Sb2 3.503926 1_544
Ca0 Sb3 3.503926 1_455
Ca0 Sb6 3.516694 1_445
Ca0 Sb7 3.516694 1_554
Sb0 Sb2 2.910024 1_655
Sb0 Sb3 2.985618 1_555
Sb1 Sb3 2.910024 1_455
Sb1 Sb2 2.985618 1_555
Sb4 Sb6 2.912797 1_556
Sb4 Sb7 2.990153 1_555
Sb5 Sb7 2.912797 1_554
Sb5 Sb6 2.990153 1_555
Sb10 Sb9 2.908367 1_565
Sb10 Sb8 2.985160 1_555
Sb11 Sb8 2.908367 1_545
Sb11 Sb9 2.985160 1_555
Ir0 Sb6 2.648736 1_545
Ir0 Sb7 2.648736 1_554
Ir0 Sb3 2.649760 1_555
Ir0 Sb2 2.649760 1_544
Ir0 Sb9 2.651712 1_555
Ir0 Sb8 2.651712 1_544
Ir1 Sb7 2.648735 1_555
Ir1 Sb6 2.648735 1_445
Ir1 Sb1 2.649765 1_555
Ir1 Sb0 2.649765 1_445
Ir1 Sb10 2.651712 1_545
Ir1 Sb11 2.651712 1_455
Os0 Sb4 2.631241 1_555
Os0 Sb5 2.631241 1_555
Os0 Sb8 2.631291 1_555
Os0 Sb9 2.631291 1_555
Os0 Sb1 2.631674 1_555
Os0 Sb0 2.631674 1_555
Os1 Sb4 2.631241 1_454
Os1 Sb5 2.631241 1_555
Os1 Sb10 2.631290 1_555
Os1 Sb11 2.631290 1_454
Os1 Sb3 2.631678 1_455
Os1 Sb2 2.631678 1_554
