# generated using pymatgen
data_TcBi2PtF14
_symmetry_space_group_name_H-M   'P 1'
_cell_length_a   5.50365437
_cell_length_b   9.08152230
_cell_length_c   12.14570870
_cell_angle_alpha   61.61979643
_cell_angle_beta   90.04738159
_cell_angle_gamma   90.11189661
_symmetry_Int_Tables_number   1
_chemical_formula_structural   TcBi2PtF14
_chemical_formula_sum   'Tc2 Bi4 Pt2 F28'
_cell_volume   534.09945965
_cell_formula_units_Z   2
loop_
 _symmetry_equiv_pos_site_id
 _symmetry_equiv_pos_as_xyz
  1  'x, y, z'
loop_
 _atom_site_type_symbol
 _atom_site_label
 _atom_site_symmetry_multiplicity
 _atom_site_fract_x
 _atom_site_fract_y
 _atom_site_fract_z
 _atom_site_occupancy
  Tc  Tc0  1  0.75594610  0.72883836  0.04047123  1
  Tc  Tc1  1  0.24405390  0.27116164  0.95952877  1
  Bi  Bi0  1  0.26132635  0.81325300  0.26474806  1
  Bi  Bi1  1  0.73867365  0.18674700  0.73525194  1
  Bi  Bi2  1  0.76274685  0.18535138  0.23989116  1
  Bi  Bi3  1  0.23725315  0.81464862  0.76010884  1
  Pt  Pt0  1  0.25732849  0.27099000  0.45872834  1
  Pt  Pt1  1  0.74267151  0.72901000  0.54127166  1
  F  F0  1  0.92005783  0.70986274  0.40949866  1
  F  F1  1  0.07994217  0.29013726  0.59050134  1
  F  F2  1  0.43784689  0.28912518  0.08571058  1
  F  F3  1  0.56215311  0.71087482  0.91428942  1
  F  F4  1  0.46589973  0.73068693  0.12974241  1
  F  F5  1  0.53410027  0.26931307  0.87025759  1
  F  F6  1  0.95507259  0.27463275  0.37413548  1
  F  F7  1  0.04492741  0.72536725  0.62586452  1
  F  F8  1  0.94267831  0.74709155  0.16931146  1
  F  F9  1  0.05732169  0.25290845  0.83068854  1
  F  F10  1  0.42844120  0.25908094  0.32260937  1
  F  F11  1  0.57155880  0.74091906  0.67739063  1
  F  F12  1  0.77209084  0.48880481  0.13727163  1
  F  F13  1  0.22790916  0.51119519  0.86272837  1
  F  F14  1  0.26893453  0.51338649  0.36337707  1
  F  F15  1  0.73106547  0.48661351  0.63662293  1
  F  F16  1  0.94448628  0.27469447  0.04446586  1
  F  F17  1  0.05551372  0.72530553  0.95553414  1
  F  F18  1  0.43379822  0.72577925  0.46256050  1
  F  F19  1  0.56620178  0.27422075  0.53743950  1
  F  F20  1  0.74251018  0.97443274  0.44999148  1
  F  F21  1  0.25748982  0.02556726  0.55000852  1
  F  F22  1  0.24265290  0.02712109  0.05609551  1
  F  F23  1  0.75734710  0.97287891  0.94390449  1
  F  F24  1  0.60520565  0.96616068  0.23024948  1
  F  F25  1  0.39479435  0.03383932  0.76975052  1
  F  F26  1  0.10518893  0.03293951  0.27392269  1
  F  F27  1  0.89481107  0.96706049  0.72607731  1
loop_
_geom_bond_atom_site_label_1
_geom_bond_atom_site_label_2
_geom_bond_distance
_geom_bond_site_symmetry_2
Bi0 F26 2.224732 1_565
Bi0 F24 2.263559 1_555
Bi0 F8 2.331268 1_455
Bi0 F18 2.342912 1_555
Bi0 F22 2.350834 1_565
Bi0 F4 2.386172 1_555
Bi0 F14 2.398329 1_555
Bi0 F0 2.435066 1_455
Bi1 F27 2.224732 1_545
Bi1 F25 2.263559 1_555
Bi1 F9 2.331268 1_655
Bi1 F19 2.342912 1_555
Bi1 F23 2.350834 1_545
Bi1 F5 2.386172 1_555
Bi1 F15 2.398329 1_555
Bi1 F1 2.435066 1_655
Bi2 F24 2.223199 1_545
Bi2 F26 2.259142 1_655
Bi2 F16 2.337226 1_555
Bi2 F10 2.343141 1_555
Bi2 F20 2.355029 1_545
Bi2 F6 2.384720 1_555
Bi2 F12 2.425890 1_555
Bi2 F2 2.432219 1_555
Bi3 F25 2.223199 1_565
Bi3 F27 2.259142 1_455
Bi3 F17 2.337226 1_555
Bi3 F11 2.343141 1_555
Bi3 F21 2.355029 1_565
Bi3 F7 2.384720 1_555
Bi3 F13 2.425890 1_555
Bi3 F3 2.432219 1_555
F0 Pt1 1.952609 1_555
F1 Pt0 1.952609 1_555
F2 Tc1 1.935779 1_554
F3 Tc0 1.935779 1_556
F4 Tc0 1.935045 1_555
F5 Tc1 1.935045 1_555
F6 Pt0 1.946555 1_655
F7 Pt1 1.946555 1_455
F8 Tc0 1.943119 1_555
F9 Tc1 1.943119 1_555
F10 Pt0 1.950591 1_555
F11 Pt1 1.950591 1_555
F12 Tc0 1.925153 1_555
F13 Tc1 1.925153 1_555
F14 Pt0 1.940922 1_555
F15 Pt1 1.940922 1_555
F16 Tc1 1.953976 1_654
F17 Tc0 1.953976 1_456
F18 Pt1 1.956618 1_555
F19 Pt0 1.956618 1_555
F20 Pt1 1.961558 1_555
F21 Pt0 1.961558 1_555
F22 Tc1 1.953550 1_554
F23 Tc0 1.953550 1_556
