# generated using pymatgen
data_Y16Cd4Pd3Ru
_symmetry_space_group_name_H-M   'P 1'
_cell_length_a   9.72356128
_cell_length_b   9.72356142
_cell_length_c   9.72356144
_cell_angle_alpha   59.65546775
_cell_angle_beta   59.65547079
_cell_angle_gamma   59.65546542
_symmetry_Int_Tables_number   1
_chemical_formula_structural   Y16Cd4Pd3Ru
_chemical_formula_sum   'Y16 Cd4 Pd3 Ru1'
_cell_volume   644.98257591
_cell_formula_units_Z   1
loop_
 _symmetry_equiv_pos_site_id
 _symmetry_equiv_pos_as_xyz
  1  'x, y, z'
loop_
 _atom_site_type_symbol
 _atom_site_label
 _atom_site_symmetry_multiplicity
 _atom_site_fract_x
 _atom_site_fract_y
 _atom_site_fract_z
 _atom_site_occupancy
  Y  Y0  1  0.35560669  0.35560669  0.35560669  1
  Y  Y1  1  0.34789273  0.34789273  0.94869761  1
  Y  Y2  1  0.34789273  0.94869761  0.34789273  1
  Y  Y3  1  0.94869761  0.34789273  0.34789273  1
  Y  Y4  1  0.81648752  0.18859491  0.18859491  1
  Y  Y5  1  0.18937723  0.80896058  0.80896058  1
  Y  Y6  1  0.18859491  0.81648752  0.18859491  1
  Y  Y7  1  0.80896058  0.18937723  0.80896058  1
  Y  Y8  1  0.18859491  0.18859491  0.81648752  1
  Y  Y9  1  0.80896058  0.80896058  0.18937723  1
  Y  Y10  1  0.93459379  0.56412069  0.56412069  1
  Y  Y11  1  0.56043815  0.93578498  0.93578498  1
  Y  Y12  1  0.56412069  0.93459379  0.56412069  1
  Y  Y13  1  0.93578498  0.56043815  0.93578498  1
  Y  Y14  1  0.56412069  0.56412069  0.93459379  1
  Y  Y15  1  0.93578498  0.93578498  0.56043815  1
  Cd  Cd0  1  0.58039896  0.58039896  0.58039896  1
  Cd  Cd1  1  0.58193844  0.58193844  0.25645216  1
  Cd  Cd2  1  0.58193844  0.25645216  0.58193844  1
  Cd  Cd3  1  0.25645216  0.58193844  0.58193844  1
  Pd  Pd0  1  0.14585274  0.14585274  0.56929753  1
  Pd  Pd1  1  0.14585274  0.56929753  0.14585274  1
  Pd  Pd2  1  0.56929753  0.14585274  0.14585274  1
  Ru  Ru0  1  0.14235823  0.14235823  0.14235823  1
loop_
_geom_bond_atom_site_label_1
_geom_bond_atom_site_label_2
_geom_bond_distance
_geom_bond_site_symmetry_2
Y1 Y13 3.496110 1_455
Y1 Y11 3.496110 1_545
Y10 Y15 3.601780 1_555
Y10 Y13 3.601780 1_555
Y11 Y2 3.496110 1_556
Y11 Y8 3.582932 1_565
Y11 Y6 3.582933 1_556
Y11 Y14 3.601780 1_555
Y11 Y12 3.601780 1_555
Y11 Y13 3.630685 1_555
Y11 Y15 3.630685 1_555
Y11 Y9 3.657571 1_556
Y11 Y7 3.657572 1_565
Y12 Y15 3.601780 1_555
Y13 Y3 3.496110 1_556
Y13 Y8 3.582933 1_655
Y13 Y4 3.582933 1_556
Y13 Y14 3.601780 1_555
Y13 Y15 3.630685 1_555
Y13 Y9 3.657572 1_556
Y13 Y5 3.657572 1_655
Y15 Y3 3.496110 1_565
Y15 Y2 3.496110 1_655
Y15 Y4 3.582933 1_565
Y15 Y6 3.582933 1_655
Y15 Y5 3.657571 1_655
Y15 Y7 3.657572 1_565
Cd0 Cd3 3.134863 1_555
Cd0 Cd2 3.134863 1_555
Cd0 Cd1 3.134863 1_555
Cd0 Y10 3.291687 1_555
Cd0 Y12 3.291687 1_555
Cd0 Y14 3.291687 1_555
Cd0 Y2 3.442460 1_555
Cd0 Y3 3.442461 1_555
Cd0 Y1 3.442461 1_555
Cd0 Y7 3.499926 1_555
Cd0 Y5 3.499926 1_555
Cd0 Y9 3.499926 1_555
Cd1 Cd2 3.148390 1_555
Cd1 Cd3 3.148390 1_555
Cd1 Y11 3.270495 1_554
Cd1 Y13 3.270495 1_554
Cd1 Y14 3.313686 1_554
Cd1 Y0 3.349934 1_555
Cd1 Y3 3.412703 1_555
Cd1 Y2 3.412703 1_555
Cd1 Y9 3.490751 1_555
Cd1 Y6 3.532836 1_555
Cd1 Y4 3.532837 1_555
Cd2 Cd3 3.148390 1_555
Cd2 Y15 3.270495 1_545
Cd2 Y11 3.270495 1_545
Cd2 Y12 3.313686 1_545
Cd2 Y0 3.349934 1_555
Cd2 Y1 3.412703 1_555
Cd2 Y3 3.412703 1_555
Cd2 Y7 3.490751 1_555
Cd2 Y8 3.532837 1_555
Cd2 Y4 3.532837 1_555
Cd3 Y15 3.270495 1_455
Cd3 Y13 3.270495 1_455
Cd3 Y10 3.313686 1_455
Cd3 Y0 3.349934 1_555
Cd3 Y1 3.412703 1_555
Cd3 Y2 3.412703 1_555
Cd3 Y5 3.490751 1_555
Cd3 Y6 3.532837 1_555
Cd3 Y8 3.532837 1_555
Pd0 Y5 2.867596 1_545
Pd0 Y7 2.867596 1_455
Pd0 Y3 2.874135 1_455
Pd0 Y2 2.874135 1_545
Pd0 Y0 2.876833 1_555
Pd0 Y8 2.883706 1_555
Pd0 Y12 3.495628 1_545
Pd0 Y10 3.495629 1_455
Pd0 Y15 3.594872 1_445
Pd1 Y9 2.867596 1_455
Pd1 Y5 2.867596 1_554
Pd1 Y1 2.874135 1_554
Pd1 Y3 2.874135 1_455
Pd1 Y0 2.876832 1_555
Pd1 Y6 2.883706 1_555
Pd1 Y14 3.495629 1_554
Pd1 Y10 3.495629 1_455
Pd1 Y13 3.594872 1_454
Pd2 Y9 2.867596 1_545
Pd2 Y7 2.867596 1_554
Pd2 Y1 2.874135 1_554
Pd2 Y2 2.874135 1_545
Pd2 Y0 2.876832 1_555
Pd2 Y4 2.883706 1_555
Pd2 Y14 3.495629 1_554
Pd2 Y12 3.495629 1_545
Pd2 Y11 3.594872 1_544
Ru0 Y4 2.787455 1_455
Ru0 Y6 2.787455 1_545
Ru0 Y8 2.787455 1_554
Ru0 Y2 2.822202 1_545
Ru0 Y3 2.822202 1_455
Ru0 Y1 2.822202 1_554
Ru0 Y13 3.488684 1_454
Ru0 Y11 3.488684 1_544
Ru0 Y15 3.488685 1_445
