# generated using pymatgen
data_Ta12Co9Si3C2
_symmetry_space_group_name_H-M   'P 1'
_cell_length_a   7.91938524
_cell_length_b   7.91938466
_cell_length_c   7.91938513
_cell_angle_alpha   59.59560896
_cell_angle_beta   59.59560954
_cell_angle_gamma   59.59561108
_symmetry_Int_Tables_number   1
_chemical_formula_structural   Ta12Co9Si3C2
_chemical_formula_sum   'Ta12 Co9 Si3 C2'
_cell_volume   347.97582191
_cell_formula_units_Z   1
loop_
 _symmetry_equiv_pos_site_id
 _symmetry_equiv_pos_as_xyz
  1  'x, y, z'
loop_
 _atom_site_type_symbol
 _atom_site_label
 _atom_site_symmetry_multiplicity
 _atom_site_fract_x
 _atom_site_fract_y
 _atom_site_fract_z
 _atom_site_occupancy
  Ta  Ta0  1  0.05405687  0.05405687  0.44663081  1
  Ta  Ta1  1  0.44856431  0.04964997  0.44856431  1
  Ta  Ta2  1  0.04964997  0.44856431  0.44856431  1
  Ta  Ta3  1  0.44856431  0.44856431  0.04964997  1
  Ta  Ta4  1  0.05405687  0.44663081  0.05405687  1
  Ta  Ta5  1  0.44663081  0.05405687  0.05405687  1
  Ta  Ta6  1  0.19594313  0.19594313  0.80336919  1
  Ta  Ta7  1  0.80143569  0.20035003  0.80143569  1
  Ta  Ta8  1  0.20035003  0.80143569  0.80143569  1
  Ta  Ta9  1  0.80143569  0.80143569  0.20035003  1
  Ta  Ta10  1  0.19594313  0.80336919  0.19594313  1
  Ta  Ta11  1  0.80336919  0.19594313  0.19594313  1
  Co  Co0  1  0.41847499  0.41847499  0.74003267  1
  Co  Co1  1  0.41847499  0.74003267  0.41847499  1
  Co  Co2  1  0.74003267  0.41847499  0.41847499  1
  Co  Co3  1  0.41880615  0.41880615  0.41880615  1
  Co  Co4  1  0.83152501  0.83152501  0.50996733  1
  Co  Co5  1  0.83152501  0.50996733  0.83152501  1
  Co  Co6  1  0.50996733  0.83152501  0.83152501  1
  Co  Co7  1  0.83119385  0.83119385  0.83119385  1
  Co  Co8  1  0.62500000  0.62500000  0.62500000  1
  Si  Si0  1  0.62500000  0.62500000  0.12500000  1
  Si  Si1  1  0.62500000  0.12500000  0.62500000  1
  Si  Si2  1  0.12500000  0.62500000  0.62500000  1
  C  C0  1  0.25079020  0.25079020  0.25079020  1
  C  C1  1  0.99920980  0.99920980  0.99920980  1
loop_
_geom_bond_atom_site_label_1
_geom_bond_atom_site_label_2
_geom_bond_distance
_geom_bond_site_symmetry_2
Co0 Si1 2.386186 1_555
Co0 Si2 2.386186 1_555
Co0 Co8 2.423082 1_555
Co0 Co1 2.530958 1_555
Co0 Co2 2.530958 1_555
Co0 Co3 2.541265 1_555
Co0 Ta5 2.684848 1_556
Co0 Ta4 2.684848 1_556
Co0 Ta3 2.714047 1_556
Co0 Ta8 2.785330 1_555
Co0 Ta7 2.785331 1_555
Co0 Ta6 2.795938 1_555
Co1 Si2 2.386186 1_555
Co1 Si0 2.386186 1_555
Co1 Co8 2.423082 1_555
Co1 Co2 2.530958 1_555
Co1 Co3 2.541264 1_555
Co1 Ta5 2.684848 1_565
Co1 Ta0 2.684848 1_565
Co1 Ta1 2.714047 1_565
Co1 Ta8 2.785331 1_555
Co1 Ta9 2.785331 1_555
Co1 Ta10 2.795938 1_555
Co2 Si1 2.386186 1_555
Co2 Si0 2.386186 1_555
Co2 Co8 2.423082 1_555
Co2 Co3 2.541265 1_555
Co2 Ta0 2.684848 1_655
Co2 Ta4 2.684848 1_655
Co2 Ta2 2.714047 1_655
Co2 Ta9 2.785330 1_555
Co2 Ta7 2.785331 1_555
Co2 Ta11 2.795938 1_555
Co3 Si0 2.398780 1_555
Co3 Si1 2.398780 1_555
Co3 Si2 2.398780 1_555
Co3 Ta1 2.705428 1_555
Co3 Ta3 2.705428 1_555
Co3 Ta2 2.705428 1_555
Co3 Ta6 2.788675 1_555
Co3 Ta10 2.788676 1_555
Co3 Ta11 2.788676 1_555
Co4 Si1 2.386186 1_565
Co4 Si2 2.386186 1_655
Co4 Co8 2.423082 1_555
Co4 Co5 2.530958 1_555
Co4 Co6 2.530958 1_555
Co4 Co7 2.541265 1_555
Co4 Ta11 2.684848 1_565
Co4 Ta10 2.684848 1_655
Co4 Ta9 2.714047 1_555
Co4 Ta2 2.785330 1_655
Co4 Ta1 2.785331 1_565
Co4 Ta0 2.795938 1_665
Co5 Si2 2.386186 1_655
Co5 Si0 2.386186 1_556
Co5 Co8 2.423082 1_555
Co5 Co6 2.530958 1_555
Co5 Co7 2.541264 1_555
Co5 Ta11 2.684848 1_556
Co5 Ta6 2.684848 1_655
Co5 Ta7 2.714047 1_555
Co5 Ta2 2.785331 1_655
Co5 Ta3 2.785331 1_556
Co5 Ta4 2.795938 1_656
Co6 Si1 2.386186 1_565
Co6 Si0 2.386186 1_556
Co6 Co8 2.423082 1_555
Co6 Co7 2.541265 1_555
Co6 Ta6 2.684848 1_565
Co6 Ta10 2.684848 1_556
Co6 Ta8 2.714047 1_555
Co6 Ta3 2.785330 1_556
Co6 Ta1 2.785331 1_565
Co6 Ta5 2.795938 1_566
Co7 Si0 2.398780 1_556
Co7 Si1 2.398780 1_565
Co7 Si2 2.398780 1_655
Co7 Ta7 2.705428 1_565
Co7 Ta9 2.705428 1_556
Co7 Ta8 2.705428 1_655
Co7 Ta0 2.788675 1_665
Co7 Ta4 2.788676 1_656
Co7 Ta5 2.788676 1_566
Co8 Ta1 2.770892 1_565
Co8 Ta7 2.770892 1_555
Co8 Ta3 2.770892 1_556
Co8 Ta9 2.770892 1_555
Co8 Ta2 2.770892 1_655
Co8 Ta8 2.770892 1_555
Si0 Ta11 2.805213 1_555
Si0 Ta5 2.805213 1_565
Si0 Ta10 2.805213 1_555
Si0 Ta4 2.805213 1_655
Si0 Ta9 2.815108 1_555
Si0 Ta3 2.815108 1_555
Si1 Ta11 2.805213 1_555
Si1 Ta5 2.805213 1_556
Si1 Ta0 2.805213 1_655
Si1 Ta6 2.805213 1_555
Si1 Ta7 2.815108 1_555
Si1 Ta1 2.815108 1_555
Si2 Ta0 2.805213 1_565
Si2 Ta6 2.805213 1_555
Si2 Ta10 2.805213 1_555
Si2 Ta4 2.805213 1_556
Si2 Ta8 2.815108 1_555
Si2 Ta2 2.815108 1_555
C0 Ta0 2.196697 1_555
C0 Ta5 2.196697 1_555
C0 Ta4 2.196697 1_555
C0 Ta3 2.208175 1_555
C0 Ta2 2.208175 1_555
C0 Ta1 2.208175 1_555
C1 Ta6 2.196697 1_665
C1 Ta11 2.196697 1_566
C1 Ta10 2.196697 1_656
C1 Ta9 2.208175 1_556
C1 Ta8 2.208175 1_655
C1 Ta7 2.208175 1_565
