# generated using pymatgen
data_Rb2Ba(SiSe3)2
_symmetry_space_group_name_H-M   'P 1'
_cell_length_a   8.96123584
_cell_length_b   8.96123545
_cell_length_c   9.95164664
_cell_angle_alpha   89.25703347
_cell_angle_beta   89.25703199
_cell_angle_gamma   113.35022841
_symmetry_Int_Tables_number   1
_chemical_formula_structural   Rb2Ba(SiSe3)2
_chemical_formula_sum   'Rb4 Ba2 Si4 Se12'
_cell_volume   733.49876091
_cell_formula_units_Z   2
loop_
 _symmetry_equiv_pos_site_id
 _symmetry_equiv_pos_as_xyz
  1  'x, y, z'
loop_
 _atom_site_type_symbol
 _atom_site_label
 _atom_site_symmetry_multiplicity
 _atom_site_fract_x
 _atom_site_fract_y
 _atom_site_fract_z
 _atom_site_occupancy
  Rb  Rb0  1  0.26284048  0.53469199  0.52564619  1
  Rb  Rb1  1  0.73715952  0.46530801  0.47435381  1
  Rb  Rb2  1  0.46530801  0.73715952  0.97435381  1
  Rb  Rb3  1  0.53469199  0.26284048  0.02564619  1
  Ba  Ba0  1  0.96864900  0.03135100  0.25000000  1
  Ba  Ba1  1  0.03135100  0.96864900  0.75000000  1
  Si  Si0  1  0.97924917  0.65308708  0.05826377  1
  Si  Si1  1  0.02075083  0.34691292  0.94173623  1
  Si  Si2  1  0.34691292  0.02075083  0.44173623  1
  Si  Si3  1  0.65308708  0.97924917  0.55826377  1
  Se  Se0  1  0.64895209  0.75482445  0.65913533  1
  Se  Se1  1  0.91772532  0.52742827  0.84857956  1
  Se  Se2  1  0.24517555  0.35104791  0.84086467  1
  Se  Se3  1  0.52742827  0.91772532  0.34857956  1
  Se  Se4  1  0.35104791  0.24517555  0.34086467  1
  Se  Se5  1  0.89986896  0.17969452  0.53805608  1
  Se  Se6  1  0.82030548  0.10013104  0.96194392  1
  Se  Se7  1  0.17969452  0.89986896  0.03805608  1
  Se  Se8  1  0.08227468  0.47257173  0.15142044  1
  Se  Se9  1  0.47257173  0.08227468  0.65142044  1
  Se  Se10  1  0.10013104  0.82030548  0.46194392  1
  Se  Se11  1  0.75482445  0.64895209  0.15913533  1
loop_
_geom_bond_atom_site_label_1
_geom_bond_atom_site_label_2
_geom_bond_distance
_geom_bond_site_symmetry_2
Rb0 Se10 3.466816 1_555
Rb0 Se2 3.495778 1_555
Rb0 Se0 3.522015 1_555
Rb0 Se4 3.528314 1_555
Rb0 Se5 3.534434 1_455
Rb0 Se3 3.713754 1_555
Rb0 Se8 4.036522 1_555
Rb1 Se5 3.466816 1_555
Rb1 Se11 3.495778 1_555
Rb1 Se4 3.522015 1_555
Rb1 Se0 3.528314 1_555
Rb1 Se10 3.534434 1_655
Rb1 Se9 3.713754 1_555
Rb1 Se1 4.036522 1_555
Rb2 Se7 3.466816 1_556
Rb2 Se0 3.495778 1_555
Rb2 Se2 3.522015 1_555
Rb2 Se11 3.528314 1_556
Rb2 Se6 3.534434 1_565
Rb2 Se8 3.713754 1_556
Rb2 Se3 4.036522 1_556
Rb3 Se6 3.466816 1_554
Rb3 Se4 3.495778 1_555
Rb3 Se11 3.522015 1_555
Rb3 Se2 3.528314 1_554
Rb3 Se7 3.534434 1_545
Rb3 Se1 3.713754 1_554
Rb3 Se9 4.036522 1_554
Ba0 Se5 3.326728 1_555
Ba0 Se6 3.326729 1_554
Ba0 Se7 3.337826 1_645
Ba0 Se10 3.337826 1_645
Ba0 Se11 3.339502 1_545
Ba0 Se4 3.339502 1_655
Ba0 Se8 3.783453 1_655
Ba0 Se3 3.783454 1_545
Ba1 Se10 3.326728 1_555
Ba1 Se7 3.326729 1_556
Ba1 Se6 3.337826 1_465
Ba1 Se5 3.337826 1_465
Ba1 Se2 3.339502 1_565
Ba1 Se0 3.339502 1_455
Ba1 Se1 3.783453 1_455
Ba1 Se9 3.783454 1_565
Se0 Si3 2.222900 1_555
Se1 Si1 2.344301 1_655
Se1 Si0 2.350520 1_556
Se2 Si1 2.222900 1_555
Se3 Si2 2.344301 1_565
Se3 Si3 2.350520 1_555
Se4 Si2 2.222900 1_555
Se5 Si3 2.233326 1_545
Se6 Si1 2.233326 1_655
Se7 Si0 2.233326 1_455
Se8 Si0 2.344301 1_455
Se8 Si1 2.350520 1_554
Se9 Si3 2.344301 1_545
Se9 Si2 2.350520 1_555
Se10 Si2 2.233326 1_565
Se11 Si0 2.222900 1_555
