# generated using pymatgen
data_Sr2TcNiN4
_symmetry_space_group_name_H-M   'P 1'
_cell_length_a   5.76258431
_cell_length_b   6.21615996
_cell_length_c   7.28901231
_cell_angle_alpha   68.68826740
_cell_angle_beta   90.00000000
_cell_angle_gamma   90.00000000
_symmetry_Int_Tables_number   1
_chemical_formula_structural   Sr2TcNiN4
_chemical_formula_sum   'Sr4 Tc2 Ni2 N8'
_cell_volume   243.24587290
_cell_formula_units_Z   2
loop_
 _symmetry_equiv_pos_site_id
 _symmetry_equiv_pos_as_xyz
  1  'x, y, z'
loop_
 _atom_site_type_symbol
 _atom_site_label
 _atom_site_symmetry_multiplicity
 _atom_site_fract_x
 _atom_site_fract_y
 _atom_site_fract_z
 _atom_site_occupancy
  Sr  Sr0  1  0.25000000  0.26659194  0.05653819  1
  Sr  Sr1  1  0.75000000  0.73340806  0.94346181  1
  Sr  Sr2  1  0.75000000  0.82756647  0.41389145  1
  Sr  Sr3  1  0.25000000  0.17243353  0.58610855  1
  Tc  Tc0  1  0.25000000  0.70584216  0.20895024  1
  Tc  Tc1  1  0.75000000  0.29415784  0.79104976  1
  Ni  Ni0  1  0.75000000  0.34707595  0.38428765  1
  Ni  Ni1  1  0.25000000  0.65292405  0.61571235  1
  N  N0  1  0.50144558  0.48536183  0.74375708  1
  N  N1  1  0.00144558  0.51463817  0.25624292  1
  N  N2  1  0.49855442  0.51463817  0.25624292  1
  N  N3  1  0.99855442  0.48536183  0.74375708  1
  N  N4  1  0.75000000  0.11256614  0.62836237  1
  N  N5  1  0.25000000  0.88743386  0.37163763  1
  N  N6  1  0.75000000  0.10510804  0.04157545  1
  N  N7  1  0.25000000  0.89489196  0.95842455  1
loop_
_geom_bond_atom_site_label_1
_geom_bond_atom_site_label_2
_geom_bond_distance
_geom_bond_site_symmetry_2
N0 Tc1 1.812513 1_555
N0 Ni1 1.830001 1_555
N0 Sr0 2.625459 1_556
N0 Sr1 2.859956 1_555
N0 Sr2 2.939367 1_555
N0 Sr3 2.971294 1_555
N1 Tc0 1.812513 1_555
N1 Ni0 1.830001 1_455
N1 Sr1 2.625459 1_454
N1 Sr0 2.859956 1_555
N1 Sr3 2.939367 1_555
N1 Sr2 2.971294 1_455
N2 Tc0 1.812513 1_555
N2 Ni0 1.830001 1_555
N2 Sr1 2.625459 1_554
N2 Sr0 2.859956 1_555
N2 Sr3 2.939367 1_555
N2 Sr2 2.971294 1_555
N3 Tc1 1.812513 1_555
N3 Ni1 1.830001 1_655
N3 Sr0 2.625459 1_656
N3 Sr1 2.859956 1_555
N3 Sr2 2.939367 1_555
N3 Sr3 2.971294 1_655
N4 Ni0 1.845259 1_555
N4 Tc1 1.911380 1_555
N4 Sr1 2.625895 1_545
N4 Sr2 2.756001 1_545
N4 Sr3 2.907212 1_655
N4 Sr3 2.907212 1_555
N5 Ni1 1.845259 1_555
N5 Tc0 1.911380 1_555
N5 Sr0 2.625895 1_565
N5 Sr3 2.756001 1_565
N5 Sr2 2.907212 1_555
N5 Sr2 2.907212 1_455
N6 Tc1 1.776440 1_554
N6 Sr2 2.634007 1_545
N6 Sr1 2.655403 1_544
N6 Sr0 3.066097 1_655
N6 Sr0 3.066097 1_555
N7 Tc0 1.776440 1_556
N7 Sr3 2.634007 1_565
N7 Sr0 2.655403 1_566
N7 Sr1 3.066097 1_455
N7 Sr1 3.066097 1_555
