# generated using pymatgen
data_Y(TaS2)3
_symmetry_space_group_name_H-M   'P 1'
_cell_length_a   5.78204151
_cell_length_b   5.78204130
_cell_length_c   13.82635965
_cell_angle_alpha   90.00000000
_cell_angle_beta   90.00000000
_cell_angle_gamma   120.00000690
_symmetry_Int_Tables_number   1
_chemical_formula_structural   Y(TaS2)3
_chemical_formula_sum   'Y2 Ta6 S12'
_cell_volume   400.31406162
_cell_formula_units_Z   2
loop_
 _symmetry_equiv_pos_site_id
 _symmetry_equiv_pos_as_xyz
  1  'x, y, z'
loop_
 _atom_site_type_symbol
 _atom_site_label
 _atom_site_symmetry_multiplicity
 _atom_site_fract_x
 _atom_site_fract_y
 _atom_site_fract_z
 _atom_site_occupancy
  Y  Y0  1  0.00000000  0.00000000  0.50000000  1
  Y  Y1  1  0.00000000  0.00000000  0.00000000  1
  Ta  Ta0  1  0.33333300  0.66666700  0.25000000  1
  Ta  Ta1  1  0.66666700  0.33333300  0.75000000  1
  Ta  Ta2  1  0.66666700  0.33333300  0.25000000  1
  Ta  Ta3  1  0.33333300  0.66666700  0.75000000  1
  Ta  Ta4  1  0.00000000  0.00000000  0.25000000  1
  Ta  Ta5  1  0.00000000  0.00000000  0.75000000  1
  S  S0  1  0.33762014  0.00000000  0.13631368  1
  S  S1  1  0.00000000  0.33762014  0.13631368  1
  S  S2  1  0.66237986  0.66237986  0.13631368  1
  S  S3  1  0.33762014  0.33762014  0.63631368  1
  S  S4  1  0.66237986  0.66237986  0.36368632  1
  S  S5  1  0.66237986  1.00000000  0.63631368  1
  S  S6  1  1.00000000  0.66237986  0.63631368  1
  S  S7  1  1.00000000  0.66237986  0.86368632  1
  S  S8  1  0.33762014  0.33762014  0.86368632  1
  S  S9  1  0.00000000  0.33762014  0.36368632  1
  S  S10  1  0.33762014  0.00000000  0.36368632  1
  S  S11  1  0.66237986  1.00000000  0.86368632  1
loop_
_geom_bond_atom_site_label_1
_geom_bond_atom_site_label_2
_geom_bond_distance
_geom_bond_site_symmetry_2
S0 Ta0 2.477553 1_545
S0 Ta2 2.477555 1_555
S0 Ta4 2.506311 1_555
S0 Y1 2.713485 1_555
S1 Ta2 2.477553 1_455
S1 Ta0 2.477555 1_555
S1 Ta4 2.506311 1_555
S1 Y1 2.713485 1_555
S2 Ta2 2.477557 1_555
S2 Ta0 2.477557 1_555
S2 Ta4 2.506311 1_665
S2 Y1 2.713485 1_665
S3 Ta3 2.477557 1_555
S3 Ta1 2.477557 1_555
S3 Ta5 2.506311 1_555
S3 Y0 2.713485 1_555
S4 Ta2 2.477557 1_555
S4 Ta0 2.477557 1_555
S4 Ta4 2.506311 1_665
S4 Y0 2.713485 1_665
S5 Ta1 2.477553 1_565
S5 Ta3 2.477555 1_555
S5 Ta5 2.506311 1_665
S5 Y0 2.713485 1_665
S6 Ta3 2.477553 1_655
S6 Ta1 2.477555 1_555
S6 Ta5 2.506311 1_665
S6 Y0 2.713485 1_665
S7 Ta3 2.477553 1_655
S7 Ta1 2.477555 1_555
S7 Ta5 2.506311 1_665
S7 Y1 2.713485 1_666
S8 Ta3 2.477557 1_555
S8 Ta1 2.477557 1_555
S8 Ta5 2.506311 1_555
S8 Y1 2.713485 1_556
S9 Ta2 2.477553 1_455
S9 Ta0 2.477555 1_555
S9 Ta4 2.506311 1_555
S9 Y0 2.713485 1_555
S10 Ta0 2.477553 1_545
S10 Ta2 2.477555 1_555
S10 Ta4 2.506311 1_555
S10 Y0 2.713485 1_555
S11 Ta1 2.477553 1_565
S11 Ta3 2.477555 1_555
S11 Ta5 2.506311 1_665
S11 Y1 2.713485 1_666
