# generated using pymatgen
data_Sr4ScSn3
_symmetry_space_group_name_H-M   'P 1'
_cell_length_a   9.61189156
_cell_length_b   9.61189167
_cell_length_c   9.61189229
_cell_angle_alpha   96.76747531
_cell_angle_beta   96.76747170
_cell_angle_gamma   139.84648833
_symmetry_Int_Tables_number   1
_chemical_formula_structural   Sr4ScSn3
_chemical_formula_sum   'Sr8 Sc2 Sn6'
_cell_volume   537.83703175
_cell_formula_units_Z   2
loop_
 _symmetry_equiv_pos_site_id
 _symmetry_equiv_pos_as_xyz
  1  'x, y, z'
loop_
 _atom_site_type_symbol
 _atom_site_label
 _atom_site_symmetry_multiplicity
 _atom_site_fract_x
 _atom_site_fract_y
 _atom_site_fract_z
 _atom_site_occupancy
  Sr  Sr0  1  0.08635817  0.21401672  0.30037489  1
  Sr  Sr1  1  0.91364183  0.78598328  0.69962511  1
  Sr  Sr2  1  0.78598328  0.08635817  0.87234145  1
  Sr  Sr3  1  0.41364183  0.71401672  0.12765855  1
  Sr  Sr4  1  0.21401672  0.91364183  0.12765855  1
  Sr  Sr5  1  0.58635817  0.28598328  0.87234145  1
  Sr  Sr6  1  0.71401672  0.58635817  0.30037489  1
  Sr  Sr7  1  0.28598328  0.41364183  0.69962511  1
  Sc  Sc0  1  0.25000000  0.75000000  0.50000000  1
  Sc  Sc1  1  0.75000000  0.25000000  0.50000000  1
  Sn  Sn0  1  0.13968615  0.63968615  0.77937029  1
  Sn  Sn1  1  0.86031385  0.36031385  0.22062971  1
  Sn  Sn2  1  0.36031385  0.13968615  0.50000000  1
  Sn  Sn3  1  0.63968615  0.86031385  0.50000000  1
  Sn  Sn4  1  0.25000000  0.25000000  0.00000000  1
  Sn  Sn5  1  0.75000000  0.75000000  0.00000000  1
loop_
_geom_bond_atom_site_label_1
_geom_bond_atom_site_label_2
_geom_bond_distance
_geom_bond_site_symmetry_2
Sr0 Sr7 3.604356 1_555
Sr0 Sr3 3.968577 1_445
Sr0 Sr3 3.968577 1_555
Sr0 Sr6 4.024909 1_555
Sr0 Sr6 4.024910 1_445
Sr0 Sr4 4.166935 1_545
Sr0 Sr2 4.166935 1_454
Sr1 Sr6 3.604356 1_555
Sr1 Sr5 3.968577 1_665
Sr1 Sr5 3.968577 1_555
Sr1 Sr7 4.024909 1_555
Sr1 Sr7 4.024910 1_665
Sr1 Sr2 4.166935 1_565
Sr1 Sr4 4.166935 1_656
Sr2 Sr5 3.604356 1_555
Sr2 Sr7 3.968577 1_655
Sr2 Sr7 3.968577 1_545
Sr2 Sr3 4.024910 1_546
Sr2 Sr3 4.024910 1_656
Sr3 Sr4 3.604356 1_555
Sr3 Sr6 4.166935 1_555
Sr3 Sr7 4.166935 1_554
Sr4 Sr6 3.968577 1_455
Sr4 Sr6 3.968577 1_565
Sr4 Sr5 4.024910 1_564
Sr4 Sr5 4.024910 1_454
Sr5 Sr7 4.166935 1_555
Sr5 Sr6 4.166935 1_556
Sc0 Sn0 3.013760 1_555
Sc0 Sn1 3.013767 1_455
Sc0 Sn3 3.013779 1_555
Sc0 Sn2 3.013779 1_565
Sc0 Sc1 3.299558 1_455
Sc0 Sc1 3.299558 1_565
Sc0 Sr1 4.155576 1_455
Sc0 Sr0 4.155577 1_555
Sc0 Sr6 4.155577 1_455
Sc0 Sr7 4.155577 1_555
Sc0 Sr3 4.155577 1_555
Sc0 Sr5 4.155577 1_565
Sc0 Sr2 4.155577 1_565
Sc0 Sr4 4.155577 1_555
Sc1 Sn1 3.013760 1_555
Sc1 Sn0 3.013767 1_655
Sc1 Sn2 3.013779 1_555
Sc1 Sn3 3.013779 1_545
Sc1 Sr0 4.155576 1_655
Sc1 Sr1 4.155577 1_555
Sc1 Sr7 4.155577 1_655
Sc1 Sr6 4.155577 1_555
Sc1 Sr5 4.155577 1_555
Sc1 Sr3 4.155577 1_545
Sc1 Sr4 4.155577 1_545
Sc1 Sr2 4.155577 1_555
Sn0 Sr7 3.437658 1_555
Sn0 Sr1 3.437658 1_455
Sn0 Sr4 3.624134 1_556
Sn0 Sr3 3.624134 1_556
Sn0 Sr2 3.852188 1_565
Sn0 Sr5 3.852188 1_565
Sn0 Sr5 3.852199 1_455
Sn0 Sr2 3.852199 1_455
Sn1 Sr6 3.437658 1_555
Sn1 Sr0 3.437658 1_655
Sn1 Sr2 3.624134 1_554
Sn1 Sr5 3.624134 1_554
Sn1 Sr4 3.852188 1_545
Sn1 Sr3 3.852188 1_545
Sn1 Sr3 3.852199 1_655
Sn1 Sr4 3.852199 1_655
Sn2 Sr4 3.437662 1_545
Sn2 Sr5 3.437662 1_555
Sn2 Sr7 3.624118 1_555
Sn2 Sr0 3.624118 1_555
Sn2 Sr1 3.852189 1_445
Sn2 Sr6 3.852189 1_445
Sn2 Sr1 3.852189 1_555
Sn2 Sr6 3.852189 1_555
Sn3 Sr2 3.437662 1_565
Sn3 Sr3 3.437662 1_555
Sn3 Sr6 3.624118 1_555
Sn3 Sr1 3.624118 1_555
Sn3 Sr0 3.852189 1_665
Sn3 Sr7 3.852189 1_665
Sn3 Sr0 3.852189 1_555
Sn3 Sr7 3.852189 1_555
Sn4 Sn5 3.299558 1_555
Sn4 Sn5 3.299558 1_445
Sn4 Sr5 3.376898 1_554
Sn4 Sr3 3.376898 1_555
Sn4 Sr2 3.376898 1_454
Sn4 Sr4 3.376898 1_545
Sn4 Sr0 3.376898 1_555
Sn4 Sr1 3.376898 1_444
Sn4 Sr6 3.376899 1_555
Sn4 Sr7 3.376899 1_554
Sn5 Sr3 3.376898 1_555
Sn5 Sr5 3.376898 1_554
Sn5 Sr4 3.376898 1_655
Sn5 Sr2 3.376898 1_564
Sn5 Sr1 3.376898 1_554
Sn5 Sr0 3.376898 1_665
Sn5 Sr7 3.376899 1_554
Sn5 Sr6 3.376899 1_555
