# generated using pymatgen
data_Nb3VCo2N
_symmetry_space_group_name_H-M   'P 1'
_cell_length_a   8.08939503
_cell_length_b   8.08939482
_cell_length_c   8.08939469
_cell_angle_alpha   59.99999642
_cell_angle_beta   59.99999731
_cell_angle_gamma   59.99999968
_symmetry_Int_Tables_number   1
_chemical_formula_structural   Nb3VCo2N
_chemical_formula_sum   'Nb12 V4 Co8 N4'
_cell_volume   374.31142447
_cell_formula_units_Z   4
loop_
 _symmetry_equiv_pos_site_id
 _symmetry_equiv_pos_as_xyz
  1  'x, y, z'
loop_
 _atom_site_type_symbol
 _atom_site_label
 _atom_site_symmetry_multiplicity
 _atom_site_fract_x
 _atom_site_fract_y
 _atom_site_fract_z
 _atom_site_occupancy
  Nb  Nb0  1  0.80830067  0.80830067  0.19169933  1
  Nb  Nb1  1  0.19169933  0.19169933  0.80830067  1
  Nb  Nb2  1  0.80830067  0.19169933  0.80830067  1
  Nb  Nb3  1  0.19169933  0.80830067  0.19169933  1
  Nb  Nb4  1  0.19169933  0.80830067  0.80830067  1
  Nb  Nb5  1  0.80830067  0.19169933  0.19169933  1
  Nb  Nb6  1  0.44169933  0.44169933  0.05830067  1
  Nb  Nb7  1  0.05830067  0.05830067  0.44169933  1
  Nb  Nb8  1  0.44169933  0.05830067  0.44169933  1
  Nb  Nb9  1  0.05830067  0.44169933  0.05830067  1
  Nb  Nb10  1  0.05830067  0.44169933  0.44169933  1
  Nb  Nb11  1  0.44169933  0.05830067  0.05830067  1
  V  V0  1  0.12500000  0.62500000  0.62500000  1
  V  V1  1  0.62500000  0.12500000  0.62500000  1
  V  V2  1  0.62500000  0.62500000  0.12500000  1
  V  V3  1  0.62500000  0.62500000  0.62500000  1
  Co  Co0  1  0.73786981  0.42071073  0.42071073  1
  Co  Co1  1  0.42071073  0.73786981  0.42071073  1
  Co  Co2  1  0.42071073  0.42071073  0.73786981  1
  Co  Co3  1  0.42071073  0.42071073  0.42071073  1
  Co  Co4  1  0.51213019  0.82928927  0.82928927  1
  Co  Co5  1  0.82928927  0.51213019  0.82928927  1
  Co  Co6  1  0.82928927  0.82928927  0.51213019  1
  Co  Co7  1  0.82928927  0.82928927  0.82928927  1
  N  N0  1  0.62500000  0.12500000  0.12500000  1
  N  N1  1  0.12500000  0.62500000  0.12500000  1
  N  N2  1  0.12500000  0.12500000  0.62500000  1
  N  N3  1  0.12500000  0.12500000  0.12500000  1
loop_
_geom_bond_atom_site_label_1
_geom_bond_atom_site_label_2
_geom_bond_distance
_geom_bond_site_symmetry_2
Co0 V3 2.451310 1_555
Co0 V1 2.451323 1_555
Co0 V2 2.451323 1_555
Co0 Co2 2.565625 1_555
Co0 Co1 2.565625 1_555
Co0 Co3 2.565625 1_555
Co0 Nb10 2.772295 1_655
Co0 Nb9 2.772304 1_655
Co0 Nb7 2.772304 1_655
Co0 Nb2 2.917110 1_555
Co0 Nb0 2.917110 1_555
Co0 Nb5 2.917124 1_555
Co1 V3 2.451310 1_555
Co1 V2 2.451323 1_555
Co1 V0 2.451323 1_555
Co1 Co2 2.565625 1_555
Co1 Co3 2.565625 1_555
Co1 Nb8 2.772295 1_565
Co1 Nb11 2.772304 1_565
Co1 Nb7 2.772304 1_565
Co1 Nb4 2.917110 1_555
Co1 Nb0 2.917110 1_555
Co1 Nb3 2.917124 1_555
Co2 V3 2.451310 1_555
Co2 V1 2.451323 1_555
Co2 V0 2.451323 1_555
Co2 Co3 2.565625 1_555
Co2 Nb6 2.772295 1_556
Co2 Nb11 2.772304 1_556
Co2 Nb9 2.772304 1_556
Co2 Nb4 2.917110 1_555
Co2 Nb2 2.917110 1_555
Co2 Nb1 2.917124 1_555
Co3 V2 2.451315 1_555
Co3 V1 2.451315 1_555
Co3 V0 2.451315 1_555
Co3 Nb6 2.772311 1_555
Co3 Nb8 2.772311 1_555
Co3 Nb10 2.772311 1_555
Co3 Nb1 2.917117 1_555
Co3 Nb3 2.917117 1_555
Co3 Nb5 2.917117 1_555
Co4 V3 2.451310 1_555
Co4 V1 2.451323 1_565
Co4 V2 2.451323 1_556
Co4 Co6 2.565625 1_555
Co4 Co5 2.565625 1_555
Co4 Co7 2.565625 1_555
Co4 Nb4 2.772295 1_555
Co4 Nb3 2.772304 1_556
Co4 Nb1 2.772304 1_565
Co4 Nb8 2.917110 1_565
Co4 Nb6 2.917110 1_556
Co4 Nb11 2.917124 1_566
Co5 V3 2.451310 1_555
Co5 V2 2.451323 1_556
Co5 V0 2.451323 1_655
Co5 Co6 2.565625 1_555
Co5 Co7 2.565625 1_555
Co5 Nb2 2.772295 1_555
Co5 Nb5 2.772304 1_556
Co5 Nb1 2.772304 1_655
Co5 Nb10 2.917110 1_655
Co5 Nb6 2.917110 1_556
Co5 Nb9 2.917124 1_656
Co6 V3 2.451310 1_555
Co6 V1 2.451323 1_565
Co6 V0 2.451323 1_655
Co6 Co7 2.565625 1_555
Co6 Nb0 2.772295 1_555
Co6 Nb5 2.772304 1_565
Co6 Nb3 2.772304 1_655
Co6 Nb10 2.917110 1_655
Co6 Nb8 2.917110 1_565
Co6 Nb7 2.917124 1_665
Co7 V2 2.451315 1_556
Co7 V1 2.451315 1_565
Co7 V0 2.451315 1_655
Co7 Nb0 2.772311 1_556
Co7 Nb2 2.772311 1_565
Co7 Nb4 2.772311 1_655
Co7 Nb7 2.917117 1_665
Co7 Nb9 2.917117 1_656
Co7 Nb11 2.917117 1_566
N0 Nb2 2.161513 1_554
N0 Nb8 2.161513 1_555
N0 Nb6 2.161513 1_555
N0 Nb0 2.161513 1_545
N0 Nb5 2.161513 1_555
N0 Nb11 2.161513 1_555
N1 Nb10 2.161513 1_555
N1 Nb4 2.161513 1_554
N1 Nb3 2.161513 1_555
N1 Nb9 2.161513 1_555
N1 Nb6 2.161513 1_555
N1 Nb0 2.161513 1_455
N2 Nb10 2.161513 1_555
N2 Nb4 2.161513 1_545
N2 Nb8 2.161513 1_555
N2 Nb2 2.161513 1_455
N2 Nb1 2.161513 1_555
N2 Nb7 2.161513 1_555
N3 Nb7 2.161513 1_555
N3 Nb1 2.161513 1_554
N3 Nb9 2.161513 1_555
N3 Nb3 2.161513 1_545
N3 Nb11 2.161513 1_555
N3 Nb5 2.161513 1_455
