# generated using pymatgen
data_Hf10ZnSn4Sb3
_symmetry_space_group_name_H-M   'P 1'
_cell_length_a   8.64452600
_cell_length_b   8.63678076
_cell_length_c   5.81923013
_cell_angle_alpha   89.98622054
_cell_angle_beta   90.00687988
_cell_angle_gamma   119.97035935
_symmetry_Int_Tables_number   1
_chemical_formula_structural   Hf10ZnSn4Sb3
_chemical_formula_sum   'Hf10 Zn1 Sn4 Sb3'
_cell_volume   376.37335397
_cell_formula_units_Z   1
loop_
 _symmetry_equiv_pos_site_id
 _symmetry_equiv_pos_as_xyz
  1  'x, y, z'
loop_
 _atom_site_type_symbol
 _atom_site_label
 _atom_site_symmetry_multiplicity
 _atom_site_fract_x
 _atom_site_fract_y
 _atom_site_fract_z
 _atom_site_occupancy
  Hf  Hf0  1  0.33440942  0.66720521  0.00000000  1
  Hf  Hf1  1  0.66649857  0.33324829  0.50000000  1
  Hf  Hf2  1  0.66717736  0.33358868  0.00000000  1
  Hf  Hf3  1  0.33436262  0.66718231  0.50000000  1
  Hf  Hf4  1  0.27533715  0.99994211  0.23427206  1
  Hf  Hf5  1  0.27533715  0.27539504  0.76572794  1
  Hf  Hf6  1  0.99955324  0.72540457  0.76646869  1
  Hf  Hf7  1  0.99955324  0.27414867  0.23353131  1
  Hf  Hf8  1  0.72513846  0.72510548  0.23453838  1
  Hf  Hf9  1  0.72513846  0.00003198  0.76546162  1
  Zn  Zn0  1  0.00087016  0.00043458  0.00000000  1
  Sn  Sn0  1  0.00069599  0.38903525  0.74576079  1
  Sn  Sn1  1  0.00069599  0.61166174  0.25423921  1
  Sn  Sn2  1  0.38680264  0.38660328  0.25341178  1
  Sn  Sn3  1  0.38680264  0.00019936  0.74658822  1
  Sb  Sb0  1  0.00070074  0.00034987  0.50000000  1
  Sb  Sb1  1  0.61046260  0.00057590  0.25200678  1
  Sb  Sb2  1  0.61046260  0.60988770  0.74799322  1
loop_
_geom_bond_atom_site_label_1
_geom_bond_atom_site_label_2
_geom_bond_distance
_geom_bond_site_symmetry_2
Hf0 Sb2 3.044958 1_554
Hf0 Sb1 3.044959 1_565
Hf0 Sn3 3.057421 1_564
Hf0 Sn2 3.057429 1_555
Hf0 Sn1 3.059258 1_555
Hf0 Sn0 3.059258 1_554
Hf1 Sb1 3.030500 1_555
Hf1 Sb2 3.030522 1_555
Hf1 Sn3 3.037986 1_555
Hf1 Sn2 3.037995 1_555
Hf1 Sn0 3.038464 1_655
Hf1 Sn1 3.038472 1_655
Hf2 Sb1 3.041799 1_555
Hf2 Sb2 3.041806 1_554
Hf2 Sn0 3.058065 1_654
Hf2 Sn1 3.058068 1_655
Hf2 Sn2 3.060813 1_555
Hf2 Sn3 3.060813 1_554
Hf3 Sb1 3.033626 1_565
Hf3 Sb2 3.033631 1_555
Hf3 Sn1 3.035193 1_555
Hf3 Sn0 3.035196 1_555
Hf3 Sn3 3.039120 1_565
Hf3 Sn2 3.039135 1_555
Hf4 Zn0 2.738114 1_565
Hf4 Sb0 2.834916 1_565
Hf4 Sb1 2.896097 1_565
Hf4 Sn2 2.979661 1_565
Hf4 Sn1 2.990202 1_555
Hf4 Sn3 2.996816 1_564
Hf4 Sn3 3.132683 1_565
Hf5 Zn0 2.738118 1_556
Hf5 Sb0 2.834920 1_555
Hf5 Sb2 2.896102 1_555
Hf5 Sn3 2.979660 1_555
Hf5 Sn0 2.990208 1_555
Hf5 Sn2 2.996817 1_556
Hf5 Sn2 3.132683 1_555
Hf6 Zn0 2.732008 1_666
Hf6 Sb0 2.831645 1_665
Hf6 Sn0 2.912618 1_655
Hf6 Sn3 2.985731 1_665
Hf6 Sb2 2.994551 1_555
Hf6 Sn1 3.005044 1_656
Hf6 Sn1 3.140274 1_655
Hf7 Zn0 2.732016 1_655
Hf7 Sb0 2.831653 1_655
Hf7 Sn1 2.912627 1_655
Hf7 Sn2 2.985731 1_655
Hf7 Sb1 2.994549 1_555
Hf7 Sn0 3.005047 1_654
Hf7 Sn0 3.140277 1_655
Hf8 Zn0 2.745018 1_665
Hf8 Sb0 2.838157 1_665
Hf8 Sn2 2.927519 1_555
Hf8 Sn1 2.996509 1_655
Hf8 Sb2 3.000736 1_554
Hf8 Sb1 3.001680 1_565
Hf8 Sb2 3.148693 1_555
Hf9 Zn0 2.745018 1_656
Hf9 Sb0 2.838157 1_655
Hf9 Sn3 2.927523 1_555
Hf9 Sn0 2.996522 1_655
Hf9 Sb1 3.000738 1_556
Hf9 Sb2 3.001663 1_545
Hf9 Sb1 3.148696 1_555
Sb0 Zn0 2.909615 1_555
Sb0 Zn0 2.909615 1_556
