# generated using pymatgen
data_K3Rb7(Sb2Au)2
_symmetry_space_group_name_H-M   'P 1'
_cell_length_a   6.11974591
_cell_length_b   6.11974442
_cell_length_c   21.18067003
_cell_angle_alpha   90.00000000
_cell_angle_beta   90.00000000
_cell_angle_gamma   120.00000284
_symmetry_Int_Tables_number   1
_chemical_formula_structural   K3Rb7(Sb2Au)2
_chemical_formula_sum   'K3 Rb7 Sb4 Au2'
_cell_volume   686.96876296
_cell_formula_units_Z   1
loop_
 _symmetry_equiv_pos_site_id
 _symmetry_equiv_pos_as_xyz
  1  'x, y, z'
loop_
 _atom_site_type_symbol
 _atom_site_label
 _atom_site_symmetry_multiplicity
 _atom_site_fract_x
 _atom_site_fract_y
 _atom_site_fract_z
 _atom_site_occupancy
  K  K0  1  0.00000000  0.00000000  0.65081284  1
  K  K1  1  0.00000000  0.00000000  0.84958557  1
  K  K2  1  0.00000000  0.00000000  0.35117899  1
  Rb  Rb0  1  0.33333300  0.66666700  0.54962127  1
  Rb  Rb1  1  0.66666700  0.33333300  0.04910881  1
  Rb  Rb2  1  0.66666700  0.33333300  0.44988600  1
  Rb  Rb3  1  0.33333300  0.66666700  0.94957762  1
  Rb  Rb4  1  0.00000000  0.00000000  0.15883256  1
  Rb  Rb5  1  0.33333300  0.66666700  0.75061177  1
  Rb  Rb6  1  0.66666700  0.33333300  0.25086537  1
  Sb  Sb0  1  0.33333300  0.66666700  0.12228830  1
  Sb  Sb1  1  0.66666700  0.33333300  0.62360320  1
  Sb  Sb2  1  0.33333300  0.66666700  0.37340536  1
  Sb  Sb3  1  0.66666700  0.33333300  0.87404646  1
  Au  Au0  1  0.66666700  0.33333300  0.74891797  1
  Au  Au1  1  0.33333300  0.66666700  0.24765690  1
loop_
_geom_bond_atom_site_label_1
_geom_bond_atom_site_label_2
_geom_bond_distance
_geom_bond_site_symmetry_2
K0 Sb1 3.579927 1_455
K0 Sb1 3.579932 1_445
K0 Sb1 3.579933 1_555
K1 Sb3 3.571017 1_455
K1 Sb3 3.571022 1_445
K1 Sb3 3.571022 1_555
K2 Sb2 3.564458 1_545
K2 Sb2 3.564463 1_555
K2 Sb2 3.564463 1_445
Rb0 Sb2 3.732371 1_555
Rb0 Sb1 3.865123 1_565
Rb0 Sb1 3.865124 1_455
Rb0 Sb1 3.865134 1_555
Rb1 Sb3 3.707938 1_554
Rb1 Sb0 3.858264 1_545
Rb1 Sb0 3.858265 1_655
Rb1 Sb0 3.858274 1_555
Rb2 Sb1 3.679447 1_555
Rb2 Sb2 3.886881 1_545
Rb2 Sb2 3.886882 1_655
Rb2 Sb2 3.886891 1_555
Rb3 Sb0 3.658128 1_556
Rb3 Sb3 3.878543 1_565
Rb3 Sb3 3.878543 1_455
Rb3 Sb3 3.878553 1_555
Rb4 Sb0 3.617024 1_545
Rb4 Sb0 3.617028 1_555
Rb4 Sb0 3.617029 1_445
Au0 Sb3 2.650305 1_555
Au0 Sb1 2.654251 1_555
Au0 Rb5 3.533415 1_545
Au0 Rb5 3.533415 1_655
Au0 Rb5 3.533426 1_555
Au1 Sb0 2.655391 1_555
Au1 Sb2 2.663437 1_555
Au1 Rb6 3.533886 1_565
Au1 Rb6 3.533887 1_455
Au1 Rb6 3.533897 1_555
