# generated using pymatgen
data_Li3Cr(PO4)2
_symmetry_space_group_name_H-M   'P 1'
_cell_length_a   17.50325810
_cell_length_b   4.84221686
_cell_length_c   7.68090855
_cell_angle_alpha   54.06663047
_cell_angle_beta   90.00000000
_cell_angle_gamma   90.00000000
_symmetry_Int_Tables_number   1
_chemical_formula_structural   Li3Cr(PO4)2
_chemical_formula_sum   'Li12 Cr4 P8 O32'
_cell_volume   527.10830994
_cell_formula_units_Z   4
loop_
 _symmetry_equiv_pos_site_id
 _symmetry_equiv_pos_as_xyz
  1  'x, y, z'
loop_
 _atom_site_type_symbol
 _atom_site_label
 _atom_site_symmetry_multiplicity
 _atom_site_fract_x
 _atom_site_fract_y
 _atom_site_fract_z
 _atom_site_occupancy
  Li  Li0  1  0.44304305  0.99455982  0.78476539  1
  Li  Li1  1  0.19830876  0.62715309  0.68861370  1
  Li  Li2  1  0.30169124  0.62715309  0.18861370  1
  Li  Li3  1  0.55695695  0.00544018  0.21523461  1
  Li  Li4  1  0.05695695  0.99455982  0.28476539  1
  Li  Li5  1  0.80169124  0.37284691  0.31138630  1
  Li  Li6  1  0.61643053  0.72005707  0.99869236  1
  Li  Li7  1  0.11643053  0.27994293  0.50130764  1
  Li  Li8  1  0.94304305  0.00544018  0.71523461  1
  Li  Li9  1  0.38356947  0.27994293  0.00130764  1
  Li  Li10  1  0.69830876  0.37284691  0.81138630  1
  Li  Li11  1  0.88356947  0.72005707  0.49869236  1
  Cr  Cr0  1  0.62752403  0.18011237  0.51646688  1
  Cr  Cr1  1  0.37247597  0.81988763  0.48353312  1
  Cr  Cr2  1  0.87247597  0.18011237  0.01646688  1
  Cr  Cr3  1  0.12752403  0.81988763  0.98353312  1
  P  P0  1  0.46468968  0.50959379  0.27160729  1
  P  P1  1  0.53531032  0.49040621  0.72839271  1
  P  P2  1  0.28443113  0.11687651  0.71075103  1
  P  P3  1  0.78443113  0.88312349  0.78924897  1
  P  P4  1  0.21556887  0.11687651  0.21075103  1
  P  P5  1  0.96468968  0.49040621  0.22839271  1
  P  P6  1  0.03531032  0.50959379  0.77160729  1
  P  P7  1  0.71556887  0.88312349  0.28924897  1
  O  O0  1  0.30316246  0.14756072  0.23532518  1
  O  O1  1  0.43298837  0.17562304  0.47076686  1
  O  O2  1  0.43602336  0.56692597  0.06891774  1
  O  O3  1  0.06701163  0.17562304  0.97076686  1
  O  O4  1  0.69217323  0.53334977  0.49394243  1
  O  O5  1  0.17299196  0.04224266  0.40408398  1
  O  O6  1  0.80110034  0.16674292  0.81973270  1
  O  O7  1  0.82700804  0.95775734  0.59591602  1
  O  O8  1  0.93984127  0.18185908  0.22657845  1
  O  O9  1  0.56397664  0.43307403  0.93108226  1
  O  O10  1  0.30782677  0.46665023  0.50605757  1
  O  O11  1  0.93298837  0.82437696  0.02923314  1
  O  O12  1  0.06015873  0.81814092  0.77342155  1
  O  O13  1  0.44633951  0.48943376  0.72141313  1
  O  O14  1  0.80316246  0.85243928  0.26467482  1
  O  O15  1  0.69683754  0.85243928  0.76467482  1
  O  O16  1  0.94633951  0.51056624  0.77858687  1
  O  O17  1  0.69889966  0.16674292  0.31973270  1
  O  O18  1  0.43984127  0.81814092  0.27342155  1
  O  O19  1  0.56015873  0.18185908  0.72657845  1
  O  O20  1  0.32700804  0.04224266  0.90408398  1
  O  O21  1  0.80782677  0.53334977  0.99394243  1
  O  O22  1  0.06397664  0.56692597  0.56891774  1
  O  O23  1  0.55366049  0.51056624  0.27858687  1
  O  O24  1  0.19683754  0.14756072  0.73532518  1
  O  O25  1  0.19217323  0.46665023  0.00605757  1
  O  O26  1  0.56701163  0.82437696  0.52923314  1
  O  O27  1  0.05366049  0.48943376  0.22141313  1
  O  O28  1  0.67299196  0.95775734  0.09591602  1
  O  O29  1  0.30110034  0.83325708  0.68026730  1
  O  O30  1  0.93602336  0.43307403  0.43108226  1
  O  O31  1  0.19889966  0.83325708  0.18026730  1
loop_
_geom_bond_atom_site_label_1
_geom_bond_atom_site_label_2
_geom_bond_distance
_geom_bond_site_symmetry_2
Li0 O2 1.939597 1_556
Li0 O1 2.033373 1_565
Li0 O13 2.147961 1_565
Li0 O19 2.179143 1_565
Li0 O20 2.294890 1_565
Li1 O5 1.963888 1_565
Li1 O29 2.040122 1_555
Li1 O25 2.082434 1_556
Li1 O24 2.131783 1_555
Li2 O20 1.963888 1_564
Li2 O31 2.040122 1_555
Li2 O10 2.082434 1_555
Li2 O0 2.131783 1_555
Li3 O9 1.939597 1_554
Li3 O26 2.033373 1_545
Li3 O23 2.147961 1_545
Li3 O18 2.179143 1_545
Li3 O28 2.294890 1_545
Li4 O22 1.939597 1_555
Li4 O3 2.033373 1_564
Li4 O27 2.147961 1_565
Li4 O8 2.179143 1_465
Li4 O5 2.294890 1_565
Li5 O7 1.963888 1_545
Li5 O17 2.040122 1_555
Li5 O21 2.082434 1_554
Li5 O14 2.131783 1_555
Li6 O28 1.967583 1_556
Li6 O9 1.972482 1_555
Li6 O15 2.066443 1_555
Li6 O23 2.073247 1_556
Li6 O19 2.203043 1_565
Li7 O5 1.967583 1_555
Li7 O22 1.972482 1_555
Li7 O24 2.066443 1_555
Li7 O27 2.073247 1_555
Li7 O12 2.203043 1_545
Li8 O30 1.939597 1_555
Li8 O11 2.033373 1_546
Li8 O16 2.147961 1_545
Li8 O12 2.179143 1_645
Li8 O7 2.294890 1_545
Li9 O20 1.967583 1_554
Li9 O2 1.972482 1_555
Li9 O0 2.066443 1_555
Li9 O13 2.073247 1_554
Li9 O18 2.203043 1_545
Li10 O28 1.963888 1_546
Li10 O6 2.040122 1_555
Li10 O4 2.082434 1_555
Li10 O15 2.131783 1_555
Li11 O7 1.967583 1_555
Li11 O30 1.972482 1_555
Li11 O14 2.066443 1_555
Li11 O16 2.073247 1_555
Li11 O8 2.203043 1_565
Cr0 O4 1.971982 1_555
Cr0 O26 1.974936 1_545
Cr0 O17 1.990776 1_555
Cr0 O19 2.002724 1_555
Cr0 O15 2.018336 1_545
Cr0 O23 2.034416 1_555
Cr1 O10 1.971982 1_555
Cr1 O1 1.974936 1_565
Cr1 O29 1.990776 1_555
Cr1 O18 2.002724 1_555
Cr1 O0 2.018336 1_565
Cr1 O13 2.034416 1_555
Cr2 O21 1.971982 1_554
Cr2 O11 1.974936 1_545
Cr2 O6 1.990776 1_554
Cr2 O8 2.002724 1_555
Cr2 O14 2.018336 1_545
Cr2 O16 2.034416 1_554
Cr3 O25 1.971982 1_556
Cr3 O3 1.974936 1_565
Cr3 O31 1.990776 1_556
Cr3 O12 2.002724 1_555
Cr3 O24 2.018336 1_565
Cr3 O27 2.034416 1_556
O0 P4 1.562446 1_555
O1 P0 1.536122 1_555
O2 P0 1.498435 1_555
O3 P6 1.536122 1_555
O4 P7 1.543629 1_555
O5 P4 1.503746 1_555
O6 P3 1.550304 1_545
O7 P3 1.503746 1_555
O8 P5 1.563964 1_555
O9 P1 1.498435 1_555
O10 P2 1.543629 1_555
O11 P5 1.536122 1_555
O12 P6 1.563964 1_555
O13 P1 1.558304 1_555
O14 P7 1.562446 1_555
O15 P3 1.562446 1_555
O16 P6 1.558304 1_655
O17 P7 1.550304 1_545
O18 P0 1.563964 1_555
O19 P1 1.563964 1_555
O20 P2 1.503746 1_555
O21 P3 1.543629 1_555
O22 P6 1.498435 1_555
O23 P0 1.558304 1_555
O24 P2 1.562446 1_555
O25 P4 1.543629 1_555
O26 P1 1.536122 1_555
O27 P5 1.558304 1_455
O28 P7 1.503746 1_555
O29 P2 1.550304 1_565
O30 P5 1.498435 1_555
O31 P4 1.550304 1_565
