# generated using pymatgen
data_CsK2Sb2Au3
_symmetry_space_group_name_H-M   'P 1'
_cell_length_a   8.16247047
_cell_length_b   8.16247035
_cell_length_c   8.16246966
_cell_angle_alpha   46.31943726
_cell_angle_beta   46.31943746
_cell_angle_gamma   46.31942907
_symmetry_Int_Tables_number   1
_chemical_formula_structural   CsK2Sb2Au3
_chemical_formula_sum   'Cs1 K2 Sb2 Au3'
_cell_volume   259.61973442
_cell_formula_units_Z   1
loop_
 _symmetry_equiv_pos_site_id
 _symmetry_equiv_pos_as_xyz
  1  'x, y, z'
loop_
 _atom_site_type_symbol
 _atom_site_label
 _atom_site_symmetry_multiplicity
 _atom_site_fract_x
 _atom_site_fract_y
 _atom_site_fract_z
 _atom_site_occupancy
  Cs  Cs0  1  0.50000000  0.50000000  0.50000000  1
  K  K0  1  0.91982338  0.91982338  0.91982338  1
  K  K1  1  0.08017662  0.08017662  0.08017662  1
  Sb  Sb0  1  0.24522031  0.24522031  0.24522031  1
  Sb  Sb1  1  0.75477969  0.75477969  0.75477969  1
  Au  Au0  1  0.00000000  0.50000000  0.50000000  1
  Au  Au1  1  0.50000000  0.00000000  0.50000000  1
  Au  Au2  1  0.50000000  0.50000000  0.00000000  1
loop_
_geom_bond_atom_site_label_1
_geom_bond_atom_site_label_2
_geom_bond_distance
_geom_bond_site_symmetry_2
Cs0 Sb1 4.083880 1_545
Cs0 Sb0 4.083880 1_565
Cs0 Sb1 4.083880 1_554
Cs0 Sb0 4.083880 1_556
Cs0 Sb1 4.083880 1_455
Cs0 Sb0 4.083880 1_655
Cs0 K0 4.159509 1_455
Cs0 K1 4.159509 1_655
Cs0 K0 4.159509 1_545
Cs0 K1 4.159509 1_565
Cs0 K0 4.159510 1_554
Cs0 K1 4.159510 1_556
K0 Sb1 3.600691 1_555
K0 Sb0 3.710934 1_656
K0 Sb0 3.710935 1_566
K0 Sb0 3.710935 1_665
K1 Sb0 3.600691 1_555
K1 Sb1 3.710934 1_454
K1 Sb1 3.710935 1_544
K1 Sb1 3.710935 1_445
Au0 Sb0 2.670318 1_555
Au0 Sb1 2.670318 1_455
Au0 K1 3.655875 1_556
Au0 K0 3.655875 1_454
Au0 K1 3.655876 1_565
Au0 K0 3.655876 1_445
Au0 Cs0 4.081235 1_555
Au0 Cs0 4.081235 1_455
Au1 Sb0 2.670318 1_555
Au1 Sb1 2.670318 1_545
Au1 K1 3.655875 1_556
Au1 K0 3.655875 1_544
Au1 K1 3.655876 1_655
Au1 K0 3.655876 1_445
Au1 Cs0 4.081235 1_555
Au1 Cs0 4.081235 1_545
Au2 Sb0 2.670319 1_555
Au2 Sb1 2.670319 1_554
Au2 K1 3.655875 1_565
Au2 K0 3.655875 1_544
Au2 K1 3.655875 1_655
Au2 K0 3.655875 1_454
Au2 Cs0 4.081235 1_555
Au2 Cs0 4.081235 1_554
