# generated using pymatgen
data_K2NaVOF5
_symmetry_space_group_name_H-M   'P 1'
_cell_length_a   6.01469432
_cell_length_b   11.96711976
_cell_length_c   8.37129409
_cell_angle_alpha   89.99362537
_cell_angle_beta   89.98820449
_cell_angle_gamma   89.99572896
_symmetry_Int_Tables_number   1
_chemical_formula_structural   K2NaVOF5
_chemical_formula_sum   'K8 Na4 V4 O4 F20'
_cell_volume   602.55373603
_cell_formula_units_Z   4
loop_
 _symmetry_equiv_pos_site_id
 _symmetry_equiv_pos_as_xyz
  1  'x, y, z'
loop_
 _atom_site_type_symbol
 _atom_site_label
 _atom_site_symmetry_multiplicity
 _atom_site_fract_x
 _atom_site_fract_y
 _atom_site_fract_z
 _atom_site_occupancy
  K  K0  1  0.49999700  0.49998100  0.25544400  1
  K  K1  1  0.00001000  0.74995900  0.75560100  1
  K  K2  1  0.50000100  0.00002600  0.25540400  1
  K  K3  1  0.00001500  0.24997500  0.75554000  1
  K  K4  1  0.50000100  0.49997100  0.75543400  1
  K  K5  1  0.00001300  0.74997700  0.25547400  1
  K  K6  1  0.50000400  0.00001900  0.75550300  1
  K  K7  1  0.00001800  0.24997900  0.25551000  1
  Na  Na0  1  0.99999900  0.49997600  0.50275600  1
  Na  Na1  1  0.50000300  0.74997800  0.00258900  1
  Na  Na2  1  0.00001000  0.00000400  0.50275900  1
  Na  Na3  1  0.50000400  0.24997800  0.00253900  1
  V  V0  1  0.99998200  0.49992700  0.01796000  1
  V  V1  1  0.49996500  0.75003700  0.51728800  1
  V  V2  1  0.00004700  0.00005700  0.01796200  1
  V  V3  1  0.50004100  0.24991400  0.51726800  1
  O  O0  1  0.99999000  0.49997900  0.21918800  1
  O  O1  1  0.49999800  0.75002100  0.71860600  1
  O  O2  1  0.99999100  0.00010300  0.21918200  1
  O  O3  1  0.49999800  0.24997400  0.71855200  1
  F  F0  1  0.99996400  0.49999400  0.77472700  1
  F  F1  1  0.49999500  0.75000600  0.27417300  1
  F  F2  1  0.00001000  0.00021000  0.77482300  1
  F  F3  1  0.50001000  0.24999300  0.27406200  1
  F  F4  1  0.73038900  0.63403500  0.49345400  1
  F  F5  1  0.23108500  0.88434300  0.99421500  1
  F  F6  1  0.73048000  0.13399700  0.49347700  1
  F  F7  1  0.23110300  0.38430500  0.99421400  1
  F  F8  1  0.73038200  0.36594200  0.49344300  1
  F  F9  1  0.23106000  0.61561000  0.99427100  1
  F  F10  1  0.73040100  0.86602100  0.49346400  1
  F  F11  1  0.23118900  0.11570800  0.99424500  1
  F  F12  1  0.26953200  0.63404100  0.49352100  1
  F  F13  1  0.76892900  0.88434600  0.99422300  1
  F  F14  1  0.26954000  0.13400400  0.49348400  1
  F  F15  1  0.76887700  0.38423300  0.99421900  1
  F  F16  1  0.26963100  0.36594300  0.49344700  1
  F  F17  1  0.76893000  0.61561100  0.99428600  1
  F  F18  1  0.26954000  0.86614600  0.49347600  1
  F  F19  1  0.76886900  0.11567900  0.99421800  1
loop_
_geom_bond_atom_site_label_1
_geom_bond_atom_site_label_2
_geom_bond_distance
_geom_bond_site_symmetry_2
K0 O0 3.022520 1_555
K0 O0 3.022728 1_455
K1 O1 3.023116 1_555
K1 O1 3.023387 1_455
K2 O2 3.022474 1_555
K2 O2 3.022717 1_455
K3 O3 3.023080 1_555
K3 O3 3.023410 1_455
K4 O3 3.007668 1_555
K4 O1 3.008184 1_555
K5 O0 3.007171 1_455
K5 O2 3.008633 1_465
K6 O3 3.007159 1_555
K6 O1 3.007692 1_545
K7 O2 3.005754 1_455
K7 O0 3.007158 1_455
Na0 O0 2.373831 1_555
Na1 O1 2.377305 1_554
Na2 O2 2.373907 1_455
Na3 O3 2.377339 1_554
O0 V0 1.684539 1_555
O1 V1 1.685292 1_555
O2 V2 1.684472 1_655
O3 V3 1.685008 1_555
F0 V0 2.036175 1_556
F0 Na0 2.276749 1_555
F0 K1 2.995625 1_655
F0 K3 2.996333 1_655
F0 K4 3.011492 1_555
F0 K4 3.011870 1_655
F1 V1 2.035187 1_555
F1 Na1 2.273510 1_555
F1 K2 2.996124 1_565
F1 K0 2.996202 1_555
F1 K5 3.011342 1_555
F1 K5 3.011494 1_655
F2 V2 2.035389 1_556
F2 Na2 2.277529 1_555
F2 K3 2.993306 1_555
F2 K1 2.999121 1_545
F2 K6 3.011624 1_555
F2 K6 3.011763 1_455
F3 V3 2.035949 1_555
F3 Na3 2.272999 1_555
F3 K2 2.995477 1_555
F3 K0 2.995676 1_555
F3 K7 3.011338 1_555
F3 K7 3.011371 1_655
F4 V1 1.971649 1_555
F4 Na0 2.282353 1_555
F4 K0 2.909622 1_555
F4 K5 2.919301 1_655
F4 K4 3.049952 1_555
F4 K1 3.061496 1_655
F5 V2 1.971751 1_566
F5 Na1 2.281724 1_556
F5 K1 2.917220 1_555
F5 K6 2.919625 1_565
F5 K5 3.049394 1_556
F5 K2 3.052193 1_566
F6 V3 1.970960 1_555
F6 Na2 2.281450 1_655
F6 K2 2.909685 1_555
F6 K7 2.919167 1_655
F6 K6 3.049928 1_555
F6 K3 3.061011 1_655
F7 V0 1.971329 1_456
F7 Na3 2.281319 1_556
F7 K3 2.917245 1_555
F7 K4 2.919888 1_555
F7 K7 3.049399 1_556
F7 K0 3.052331 1_556
F8 V3 1.971623 1_555
F8 Na0 2.282358 1_555
F8 K0 2.909081 1_555
F8 K7 2.919288 1_655
F8 K4 3.049927 1_555
F8 K3 3.061137 1_655
F9 V0 1.971725 1_456
F9 Na1 2.282023 1_556
F9 K1 2.916879 1_555
F9 K4 2.920301 1_555
F9 K5 3.049143 1_556
F9 K0 3.051541 1_556
F10 V1 1.971653 1_555
F10 Na2 2.281890 1_665
F10 K2 2.909250 1_565
F10 K5 2.919994 1_655
F10 K6 3.050065 1_565
F10 K1 3.061816 1_655
F11 V2 1.971751 1_556
F11 Na3 2.280644 1_556
F11 K3 2.916895 1_555
F11 K6 2.919621 1_555
F11 K7 3.049249 1_556
F11 K2 3.051346 1_556
F12 V1 1.971782 1_555
F12 Na0 2.282203 1_455
F12 K0 2.909750 1_555
F12 K5 2.919639 1_555
F12 K4 3.050110 1_555
F12 K1 3.060158 1_555
F13 V2 1.972261 1_666
F13 Na1 2.281931 1_556
F13 K1 2.916797 1_655
F13 K6 2.920015 1_565
F13 K5 3.049698 1_656
F13 K2 3.051580 1_566
F14 V3 1.971360 1_555
F14 Na2 2.281654 1_555
F14 K2 2.909215 1_555
F14 K7 2.919454 1_555
F14 K6 3.050199 1_555
F14 K3 3.060311 1_555
F15 V0 1.972065 1_556
F15 Na3 2.280741 1_556
F15 K3 2.916436 1_655
F15 K4 2.920593 1_555
F15 K7 3.049370 1_656
F15 K0 3.052060 1_556
F16 V3 1.971832 1_555
F16 Na0 2.282220 1_455
F16 K0 2.908766 1_555
F16 K7 2.919810 1_555
F16 K4 3.050385 1_555
F16 K3 3.060695 1_555
F17 V0 1.971523 1_556
F17 Na1 2.281752 1_556
F17 K1 2.916767 1_655
F17 K4 2.920923 1_555
F17 K5 3.049664 1_656
F17 K0 3.051075 1_556
F18 V1 1.972562 1_555
F18 Na2 2.280305 1_565
F18 K2 2.908392 1_565
F18 K5 2.921061 1_555
F18 K6 3.049908 1_565
F18 K1 3.061802 1_555
F19 V2 1.971596 1_656
F19 Na3 2.280919 1_556
F19 K3 2.916573 1_655
F19 K6 2.920038 1_555
F19 K7 3.050053 1_656
F19 K2 3.051161 1_556
