# generated using pymatgen
data_NaLu(PSe3)2
_symmetry_space_group_name_H-M   'P 1'
_cell_length_a   13.01614147
_cell_length_b   12.40377302
_cell_length_c   7.29076747
_cell_angle_alpha   78.00492463
_cell_angle_beta   68.77183746
_cell_angle_gamma   33.22323910
_symmetry_Int_Tables_number   1
_chemical_formula_structural   NaLu(PSe3)2
_chemical_formula_sum   'Na2 Lu2 P4 Se12'
_cell_volume   590.66170891
_cell_formula_units_Z   2
loop_
 _symmetry_equiv_pos_site_id
 _symmetry_equiv_pos_as_xyz
  1  'x, y, z'
loop_
 _atom_site_type_symbol
 _atom_site_label
 _atom_site_symmetry_multiplicity
 _atom_site_fract_x
 _atom_site_fract_y
 _atom_site_fract_z
 _atom_site_occupancy
  Na  Na0  1  0.84594084  0.84594084  0.65405916  1
  Na  Na1  1  0.59594084  0.59594084  0.40405916  1
  Lu  Lu0  1  0.17889843  0.17889843  0.32110157  1
  Lu  Lu1  1  0.92889843  0.92889843  0.07110157  1
  P  P0  1  0.96760126  0.06676254  0.64411132  1
  P  P1  1  0.06676254  0.96760126  0.32152588  1
  P  P2  1  0.92847412  0.60588868  0.18323746  1
  P  P3  1  0.60588868  0.92847412  0.28239874  1
  Se  Se0  1  0.09282180  0.59962092  0.93607272  1
  Se  Se1  1  0.59962092  0.09282180  0.37148356  1
  Se  Se2  1  0.87851644  0.31392728  0.65037908  1
  Se  Se3  1  0.31392728  0.87851644  0.15717820  1
  Se  Se4  1  0.22411167  0.79820083  0.73661273  1
  Se  Se5  1  0.79820083  0.22411167  0.24107477  1
  Se  Se6  1  0.00892523  0.51338727  0.45179917  1
  Se  Se7  1  0.51338727  0.00892523  0.02588833  1
  Se  Se8  1  0.17451400  0.70948869  0.30083028  1
  Se  Se9  1  0.70948869  0.17451400  0.81516702  1
  Se  Se10  1  0.43483298  0.94916972  0.54051131  1
  Se  Se11  1  0.94916972  0.43483298  0.07548600  1
loop_
_geom_bond_atom_site_label_1
_geom_bond_atom_site_label_2
_geom_bond_distance
_geom_bond_site_symmetry_2
Na0 Se6 3.051582 1_655
Na0 Se7 3.051583 1_566
Na0 Se9 3.084261 1_565
Na0 Se8 3.084261 1_655
Na0 Se0 3.104145 1_655
Na0 Se1 3.104151 1_565
Na1 Se5 3.051582 1_555
Na1 Se4 3.051583 1_555
Na1 Se10 3.084261 1_555
Na1 Se11 3.084261 1_555
Na1 Se3 3.104145 1_555
Na1 Se2 3.104151 1_555
Lu0 Se3 2.788034 1_545
Lu0 Se2 2.788037 1_455
Lu0 Se6 2.788463 1_555
Lu0 Se7 2.788464 1_555
Lu0 Se11 2.803329 1_455
Lu0 Se10 2.803329 1_545
Lu1 Se1 2.788042 1_565
Lu1 Se0 2.788045 1_654
Lu1 Se5 2.788463 1_565
Lu1 Se4 2.788464 1_654
Lu1 Se9 2.803329 1_564
Lu1 Se8 2.803329 1_655
P0 Se9 2.185144 1_555
P0 Se4 2.188071 1_645
P0 Se2 2.194955 1_555
P0 P1 2.249048 1_645
P1 Se8 2.185145 1_555
P1 Se5 2.188075 1_465
P1 Se3 2.194956 1_555
P2 Se11 2.185134 1_555
P2 Se6 2.188076 1_655
P2 Se0 2.194955 1_654
P2 P3 2.249048 1_555
P3 Se10 2.185137 1_555
P3 Se7 2.188069 1_565
P3 Se1 2.194955 1_565
