# generated using pymatgen
data_Ca7NbGe2N9
_symmetry_space_group_name_H-M   'P 1'
_cell_length_a   10.09870697
_cell_length_b   6.08219184
_cell_length_c   9.08782512
_cell_angle_alpha   87.17868650
_cell_angle_beta   90.00000000
_cell_angle_gamma   90.00000000
_symmetry_Int_Tables_number   1
_chemical_formula_structural   Ca7NbGe2N9
_chemical_formula_sum   'Ca14 Nb2 Ge4 N18'
_cell_volume   557.51828643
_cell_formula_units_Z   2
loop_
 _symmetry_equiv_pos_site_id
 _symmetry_equiv_pos_as_xyz
  1  'x, y, z'
loop_
 _atom_site_type_symbol
 _atom_site_label
 _atom_site_symmetry_multiplicity
 _atom_site_fract_x
 _atom_site_fract_y
 _atom_site_fract_z
 _atom_site_occupancy
  Ca  Ca0  1  0.94051532  0.42896704  0.16510433  1
  Ca  Ca1  1  0.07740354  0.24802757  0.49379522  1
  Ca  Ca2  1  0.25000000  0.08641903  0.80026231  1
  Ca  Ca3  1  0.44051532  0.57103296  0.83489567  1
  Ca  Ca4  1  0.57740354  0.75197243  0.50620478  1
  Ca  Ca5  1  0.57685686  0.06836367  0.82964121  1
  Ca  Ca6  1  0.92314314  0.06836367  0.82964121  1
  Ca  Ca7  1  0.42314314  0.93163633  0.17035879  1
  Ca  Ca8  1  0.42259646  0.24802757  0.49379522  1
  Ca  Ca9  1  0.07685686  0.93163633  0.17035879  1
  Ca  Ca10  1  0.92259646  0.75197243  0.50620478  1
  Ca  Ca11  1  0.05948468  0.57103296  0.83489567  1
  Ca  Ca12  1  0.75000000  0.91358097  0.19973769  1
  Ca  Ca13  1  0.55948468  0.42896704  0.16510433  1
  Nb  Nb0  1  0.75000000  0.27786480  0.43579486  1
  Nb  Nb1  1  0.25000000  0.72213520  0.56420514  1
  Ge  Ge0  1  0.25000000  0.32080029  0.05512413  1
  Ge  Ge1  1  0.75000000  0.45558103  0.72127667  1
  Ge  Ge2  1  0.75000000  0.67919971  0.94487587  1
  Ge  Ge3  1  0.25000000  0.54441897  0.27872333  1
  N  N0  1  0.40744197  0.22802182  0.97589094  1
  N  N1  1  0.25000000  0.23038172  0.26387930  1
  N  N2  1  0.89984656  0.11587825  0.34195915  1
  N  N3  1  0.60397975  0.36040173  0.62594528  1
  N  N4  1  0.75000000  0.55731482  0.33112546  1
  N  N5  1  0.25000000  0.63723885  0.07284153  1
  N  N6  1  0.89602025  0.36040173  0.62594528  1
  N  N7  1  0.39602025  0.63959827  0.37405472  1
  N  N8  1  0.75000000  0.36276115  0.92715847  1
  N  N9  1  0.10015344  0.88412175  0.65804085  1
  N  N10  1  0.75000000  0.76961828  0.73612070  1
  N  N11  1  0.10397975  0.63959827  0.37405472  1
  N  N12  1  0.59255803  0.77197818  0.02410906  1
  N  N13  1  0.25000000  0.44268518  0.66887454  1
  N  N14  1  0.39984656  0.88412175  0.65804085  1
  N  N15  1  0.60015344  0.11587825  0.34195915  1
  N  N16  1  0.09255803  0.22802182  0.97589094  1
  N  N17  1  0.90744197  0.77197818  0.02410906  1
loop_
_geom_bond_atom_site_label_1
_geom_bond_atom_site_label_2
_geom_bond_distance
_geom_bond_site_symmetry_2
Ca0 N17 2.417170 1_555
Ca0 N2 2.465114 1_555
Ca0 N4 2.589082 1_555
Ca0 N16 2.648585 1_654
Ca0 N11 2.865590 1_655
Ca0 N8 2.936920 1_554
Ca1 N6 2.312035 1_455
Ca1 N2 2.423719 1_455
Ca1 N11 2.583234 1_555
Ca1 N9 2.618093 1_545
Ca1 N13 2.675218 1_555
Ca1 N1 2.727158 1_555
Ca2 N14 2.372956 1_545
Ca2 N9 2.372956 1_545
Ca2 N13 2.422059 1_555
Ca2 N16 2.439782 1_555
Ca2 N0 2.439782 1_555
Ca3 N0 2.417170 1_555
Ca3 N14 2.465114 1_555
Ca3 N13 2.589082 1_555
Ca3 N12 2.648585 1_556
Ca3 N3 2.865590 1_555
Ca3 N5 2.936920 1_556
Ca4 N7 2.312035 1_555
Ca4 N14 2.423719 1_555
Ca4 N3 2.583234 1_555
Ca4 N15 2.618093 1_565
Ca4 N4 2.675218 1_555
Ca4 N10 2.727158 1_555
Ca5 N0 2.400750 1_555
Ca5 N12 2.466671 1_546
Ca5 N3 2.516566 1_555
Ca5 N14 2.656153 1_545
Ca5 N8 2.684234 1_555
Ca5 N10 2.689473 1_545
Ca6 N16 2.400750 1_655
Ca6 N17 2.466671 1_546
Ca6 N6 2.516566 1_555
Ca6 N9 2.656153 1_645
Ca6 N8 2.684234 1_555
Ca6 N10 2.689473 1_545
Ca7 N12 2.400750 1_555
Ca7 N0 2.466671 1_564
Ca7 N7 2.516566 1_555
Ca7 N15 2.656153 1_565
Ca7 N5 2.684234 1_555
Ca7 N1 2.689473 1_565
Ca8 N3 2.312035 1_555
Ca8 N15 2.423719 1_555
Ca8 N7 2.583234 1_555
Ca8 N14 2.618093 1_545
Ca8 N13 2.675218 1_555
Ca8 N1 2.727158 1_555
Ca9 N17 2.400750 1_455
Ca9 N16 2.466671 1_564
Ca9 N11 2.516566 1_555
Ca9 N2 2.656153 1_465
Ca9 N5 2.684234 1_555
Ca9 N1 2.689473 1_565
Ca10 N11 2.312035 1_655
Ca10 N9 2.423719 1_655
Ca10 N6 2.583234 1_555
Ca10 N2 2.618093 1_565
Ca10 N4 2.675218 1_555
Ca10 N10 2.727158 1_555
Ca11 N16 2.417170 1_555
Ca11 N9 2.465114 1_555
Ca11 N13 2.589082 1_555
Ca11 N17 2.648585 1_456
Ca11 N6 2.865590 1_455
Ca11 N5 2.936920 1_556
Ca12 N2 2.372956 1_565
Ca12 N15 2.372956 1_565
Ca12 N4 2.422059 1_555
Ca12 N17 2.439782 1_555
Ca12 N12 2.439782 1_555
Ca13 N12 2.417170 1_555
Ca13 N15 2.465114 1_555
Ca13 N4 2.589082 1_555
Ca13 N0 2.648585 1_554
Ca13 N7 2.865590 1_555
Ca13 N8 2.936920 1_554
Ge0 N16 1.845233 1_554
Ge0 N0 1.845233 1_554
Ge0 N5 1.939245 1_555
Ge0 N1 1.949060 1_555
Ge1 N6 1.819219 1_555
Ge1 N3 1.819219 1_555
Ge1 N10 1.921405 1_555
Ge1 N8 1.927548 1_555
Ge2 N17 1.845233 1_556
Ge2 N12 1.845233 1_556
Ge2 N8 1.939245 1_555
Ge2 N10 1.949060 1_555
Ge3 N7 1.819219 1_555
Ge3 N11 1.819219 1_555
Ge3 N1 1.921405 1_555
Ge3 N5 1.927548 1_555
N2 Nb0 2.017559 1_555
N3 Nb0 2.344796 1_555
N4 Nb0 1.906444 1_555
N6 Nb0 2.344796 1_555
N7 Nb1 2.344796 1_555
N9 Nb1 2.017559 1_555
N11 Nb1 2.344796 1_555
N13 Nb1 1.906444 1_555
N14 Nb1 2.017559 1_555
N15 Nb0 2.017559 1_555
