# generated using pymatgen
data_Li8Mn3TcBr24
_symmetry_space_group_name_H-M   'P 1'
_cell_length_a   6.54737818
_cell_length_b   6.54737840
_cell_length_c   25.08187696
_cell_angle_alpha   90.00000000
_cell_angle_beta   90.00000000
_cell_angle_gamma   120.00000384
_symmetry_Int_Tables_number   1
_chemical_formula_structural   Li8Mn3TcBr24
_chemical_formula_sum   'Li8 Mn3 Tc1 Br24'
_cell_volume   931.16258198
_cell_formula_units_Z   1
loop_
 _symmetry_equiv_pos_site_id
 _symmetry_equiv_pos_as_xyz
  1  'x, y, z'
loop_
 _atom_site_type_symbol
 _atom_site_label
 _atom_site_symmetry_multiplicity
 _atom_site_fract_x
 _atom_site_fract_y
 _atom_site_fract_z
 _atom_site_occupancy
  Li  Li0  1  0.00000000  0.00000000  0.25000000  1
  Li  Li1  1  0.00000000  0.00000000  0.75000000  1
  Li  Li2  1  0.33333300  0.66666700  0.99883028  1
  Li  Li3  1  0.33333300  0.66666700  0.50116972  1
  Li  Li4  1  0.33333300  0.66666700  0.25000000  1
  Li  Li5  1  0.66666700  0.33333300  0.75000000  1
  Li  Li6  1  0.66666700  0.33333300  0.00081069  1
  Li  Li7  1  0.66666700  0.33333300  0.49918931  1
  Mn  Mn0  1  0.00000000  0.00000000  0.99987820  1
  Mn  Mn1  1  0.00000000  0.00000000  0.50012180  1
  Mn  Mn2  1  0.33333300  0.66666700  0.75000000  1
  Tc  Tc0  1  0.66666700  0.33333300  0.25000000  1
  Br  Br0  1  0.35364538  0.01943933  0.30872449  1
  Br  Br1  1  0.33437836  0.97312301  0.80714570  1
  Br  Br2  1  0.00291696  0.30751954  0.05701165  1
  Br  Br3  1  0.99709416  0.30443411  0.55722353  1
  Br  Br4  1  0.98056067  0.33420605  0.30872449  1
  Br  Br5  1  0.02687699  0.36125535  0.80714570  1
  Br  Br6  1  0.35364538  0.33420605  0.19127551  1
  Br  Br7  1  0.33437836  0.36125535  0.69285430  1
  Br  Br8  1  0.30460259  0.30751954  0.44298835  1
  Br  Br9  1  0.30733996  0.30443411  0.94277647  1
  Br  Br10  1  0.69248046  0.99708304  0.44298835  1
  Br  Br11  1  0.30460259  0.99708304  0.05701165  1
  Br  Br12  1  0.30733996  0.00290584  0.55722353  1
  Br  Br13  1  0.69248046  0.69539741  0.05701165  1
  Br  Br14  1  0.69556589  0.69266004  0.55722353  1
  Br  Br15  1  0.66579395  0.64635462  0.30872449  1
  Br  Br16  1  0.63874465  0.66562164  0.80714570  1
  Br  Br17  1  0.98056067  0.64635462  0.19127551  1
  Br  Br18  1  0.02687699  0.66562164  0.69285430  1
  Br  Br19  1  0.00291696  0.69539741  0.44298835  1
  Br  Br20  1  0.99709416  0.69266004  0.94277647  1
  Br  Br21  1  0.69556589  0.00290584  0.94277647  1
  Br  Br22  1  0.66579395  0.01943933  0.19127551  1
  Br  Br23  1  0.63874465  0.97312301  0.69285430  1
loop_
_geom_bond_atom_site_label_1
_geom_bond_atom_site_label_2
_geom_bond_distance
_geom_bond_site_symmetry_2
Br0 Tc0 2.526175 1_555
Br0 Li4 2.686052 1_545
Br0 Li0 2.693009 1_555
Br1 Mn2 2.463067 1_555
Br1 Li5 2.686797 1_565
Br1 Li1 2.695121 1_565
Br2 Mn0 2.463617 1_554
Br2 Li6 2.689710 1_455
Br2 Li2 2.692957 1_554
Br3 Mn1 2.462227 1_655
Br3 Li3 2.688275 1_655
Br3 Li7 2.691538 1_555
Br4 Tc0 2.526172 1_555
Br4 Li4 2.686054 1_655
Br4 Li0 2.693009 1_655
Br5 Mn2 2.463070 1_555
Br5 Li5 2.686795 1_455
Br5 Li1 2.695121 1_555
Br6 Tc0 2.526178 1_555
Br6 Li4 2.686057 1_555
Br6 Li0 2.693009 1_555
Br7 Mn2 2.463073 1_555
Br7 Li5 2.686800 1_555
Br7 Li1 2.695121 1_555
Br8 Mn1 2.463617 1_555
Br8 Li7 2.689716 1_555
Br8 Li3 2.692960 1_555
Br9 Mn0 2.462227 1_555
Br9 Li2 2.688277 1_555
Br9 Li6 2.691543 1_556
Br10 Mn1 2.463617 1_665
Br10 Li7 2.689710 1_565
Br10 Li3 2.692957 1_555
Br11 Mn0 2.463617 1_564
Br11 Li6 2.689713 1_565
Br11 Li2 2.692955 1_554
Br12 Mn1 2.462227 1_555
Br12 Li3 2.688272 1_545
Br12 Li7 2.691541 1_555
Br13 Mn0 2.463617 1_664
Br13 Li6 2.689716 1_555
Br13 Li2 2.692960 1_554
Br14 Mn1 2.462227 1_665
Br14 Li3 2.688277 1_555
Br14 Li7 2.691544 1_555
Br15 Tc0 2.526178 1_555
Br15 Li4 2.686057 1_555
Br15 Li0 2.693009 1_665
Br16 Mn2 2.463072 1_555
Br16 Li5 2.686800 1_555
Br16 Li1 2.695121 1_665
Br17 Tc0 2.526175 1_555
Br17 Li4 2.686052 1_655
Br17 Li0 2.693009 1_665
Br18 Mn2 2.463067 1_555
Br18 Li5 2.686797 1_455
Br18 Li1 2.695121 1_565
Br19 Mn1 2.463617 1_565
Br19 Li7 2.689713 1_455
Br19 Li3 2.692954 1_555
Br20 Mn0 2.462227 1_665
Br20 Li2 2.688272 1_655
Br20 Li6 2.691541 1_556
Br21 Mn0 2.462227 1_655
Br21 Li2 2.688275 1_545
Br21 Li6 2.691538 1_556
Br22 Tc0 2.526172 1_555
Br22 Li4 2.686054 1_545
Br22 Li0 2.693009 1_655
Br23 Mn2 2.463070 1_555
Br23 Li5 2.686795 1_565
Br23 Li1 2.695121 1_665
