# generated using pymatgen
data_NaAsO2
_symmetry_space_group_name_H-M   'P 1'
_cell_length_a   5.05524144
_cell_length_b   6.78585282
_cell_length_c   14.37772037
_cell_angle_alpha   90.00000000
_cell_angle_beta   90.00000000
_cell_angle_gamma   90.00000000
_symmetry_Int_Tables_number   1
_chemical_formula_structural   NaAsO2
_chemical_formula_sum   'Na8 As8 O16'
_cell_volume   493.21510789
_cell_formula_units_Z   8
loop_
 _symmetry_equiv_pos_site_id
 _symmetry_equiv_pos_as_xyz
  1  'x, y, z'
loop_
 _atom_site_type_symbol
 _atom_site_label
 _atom_site_symmetry_multiplicity
 _atom_site_fract_x
 _atom_site_fract_y
 _atom_site_fract_z
 _atom_site_occupancy
  Na  Na0  1  0.24799452  0.10194131  0.94561958  1
  Na  Na1  1  0.74799452  0.39805869  0.94561958  1
  Na  Na2  1  0.25200548  0.10194131  0.44561958  1
  Na  Na3  1  0.75200548  0.89805869  0.05438042  1
  Na  Na4  1  0.75200548  0.39805869  0.44561958  1
  Na  Na5  1  0.25200548  0.60194131  0.05438042  1
  Na  Na6  1  0.74799452  0.89805869  0.55438042  1
  Na  Na7  1  0.24799452  0.60194131  0.55438042  1
  As  As0  1  0.26905128  0.60401824  0.32926505  1
  As  As1  1  0.76905128  0.39598176  0.17073495  1
  As  As2  1  0.23094872  0.10401824  0.67073495  1
  As  As3  1  0.73094872  0.89598176  0.82926505  1
  As  As4  1  0.73094872  0.39598176  0.67073495  1
  As  As5  1  0.23094872  0.60401824  0.82926505  1
  As  As6  1  0.76905128  0.89598176  0.32926505  1
  As  As7  1  0.26905128  0.10401824  0.17073495  1
  O  O0  1  0.07706225  0.30740323  0.11874535  1
  O  O1  1  0.57706225  0.69259677  0.38125465  1
  O  O2  1  0.42293775  0.80740323  0.88125465  1
  O  O3  1  0.92293775  0.19259677  0.61874535  1
  O  O4  1  0.92293775  0.69259677  0.88125465  1
  O  O5  1  0.42293775  0.30740323  0.61874535  1
  O  O6  1  0.57706225  0.19259677  0.11874535  1
  O  O7  1  0.07706225  0.80740323  0.38125465  1
  O  O8  1  0.21342101  0.92855392  0.08822622  1
  O  O9  1  0.71342101  0.07144608  0.41177378  1
  O  O10  1  0.28657899  0.42855392  0.91177378  1
  O  O11  1  0.21342101  0.42855392  0.41177378  1
  O  O12  1  0.78657899  0.07144608  0.91177378  1
  O  O13  1  0.28657899  0.92855392  0.58822622  1
  O  O14  1  0.71342101  0.57144608  0.08822622  1
  O  O15  1  0.78657899  0.57144608  0.58822622  1
loop_
_geom_bond_atom_site_label_1
_geom_bond_atom_site_label_2
_geom_bond_distance
_geom_bond_site_symmetry_2
Na0 O10 2.277507 1_555
Na0 O8 2.370414 1_546
Na0 O2 2.373458 1_545
Na0 O12 2.391756 1_455
Na0 O12 2.773551 1_555
Na1 O12 2.277507 1_555
Na1 O14 2.370414 1_556
Na1 O4 2.373458 1_555
Na1 O10 2.391756 1_555
Na1 O10 2.773551 1_655
Na2 O11 2.277507 1_555
Na2 O13 2.370414 1_545
Na2 O7 2.373458 1_545
Na2 O9 2.391756 1_555
Na2 O9 2.773551 1_455
Na3 O14 2.277507 1_555
Na3 O12 2.370414 1_564
Na3 O6 2.373458 1_565
Na3 O8 2.391756 1_655
Na3 O8 2.773551 1_555
Na4 O9 2.277507 1_555
Na4 O15 2.370414 1_555
Na4 O1 2.373458 1_555
Na4 O11 2.391756 1_655
Na4 O11 2.773551 1_555
Na5 O8 2.277507 1_555
Na5 O10 2.370414 1_554
Na5 O0 2.373458 1_555
Na5 O14 2.391756 1_555
Na5 O14 2.773551 1_455
Na6 O15 2.277507 1_555
Na6 O9 2.370414 1_565
Na6 O3 2.373458 1_565
Na6 O13 2.391756 1_555
Na6 O13 2.773551 1_655
Na7 O13 2.277507 1_555
Na7 O11 2.370414 1_555
Na7 O5 2.373458 1_555
Na7 O15 2.391756 1_455
Na7 O15 2.773551 1_555
As0 O11 1.704134 1_555
As0 O1 1.828800 1_555
As0 O7 1.845400 1_555
As1 O14 1.704134 1_555
As1 O0 1.828800 1_655
As1 O6 1.845400 1_555
As2 O13 1.704134 1_545
As2 O3 1.828800 1_455
As2 O5 1.845400 1_555
As3 O12 1.704134 1_565
As3 O2 1.828800 1_555
As3 O4 1.845400 1_555
As4 O15 1.704134 1_555
As4 O5 1.828800 1_555
As4 O3 1.845400 1_555
As5 O10 1.704134 1_555
As5 O4 1.828800 1_455
As5 O2 1.845400 1_555
As6 O9 1.704134 1_565
As6 O7 1.828800 1_655
As6 O1 1.845400 1_555
As7 O8 1.704134 1_545
As7 O6 1.828800 1_555
As7 O0 1.845400 1_555
