# generated using pymatgen
data_Y4Fe(NiO4)3
_symmetry_space_group_name_H-M   'P 1'
_cell_length_a   5.17130475
_cell_length_b   5.51343138
_cell_length_c   7.42685879
_cell_angle_alpha   90.25377587
_cell_angle_beta   90.25722269
_cell_angle_gamma   90.12902107
_symmetry_Int_Tables_number   1
_chemical_formula_structural   Y4Fe(NiO4)3
_chemical_formula_sum   'Y4 Fe1 Ni3 O12'
_cell_volume   211.74712146
_cell_formula_units_Z   1
loop_
 _symmetry_equiv_pos_site_id
 _symmetry_equiv_pos_as_xyz
  1  'x, y, z'
loop_
 _atom_site_type_symbol
 _atom_site_label
 _atom_site_symmetry_multiplicity
 _atom_site_fract_x
 _atom_site_fract_y
 _atom_site_fract_z
 _atom_site_occupancy
  Y  Y0  1  0.48198479  0.42660238  0.74840959  1
  Y  Y1  1  0.01859129  0.92954767  0.74740302  1
  Y  Y2  1  0.51801521  0.57339762  0.25159041  1
  Y  Y3  1  0.98140871  0.07045233  0.25259698  1
  Fe  Fe0  1  0.00000000  0.50000000  0.00000000  1
  Ni  Ni0  1  0.50000000  0.00000000  0.50000000  1
  Ni  Ni1  1  0.00000000  0.50000000  0.50000000  1
  Ni  Ni2  1  0.50000000  0.00000000  0.00000000  1
  O  O0  1  0.68709980  0.29555660  0.44815806  1
  O  O1  1  0.81449187  0.79362572  0.05366697  1
  O  O2  1  0.31290020  0.70444340  0.55184194  1
  O  O3  1  0.18550813  0.20637428  0.94633303  1
  O  O4  1  0.19971826  0.19198433  0.54896111  1
  O  O5  1  0.29566692  0.68715398  0.95126086  1
  O  O6  1  0.80028174  0.80801567  0.45103889  1
  O  O7  1  0.70433308  0.31284602  0.04873914  1
  O  O8  1  0.09898372  0.46815859  0.24392147  1
  O  O9  1  0.39962724  0.96942288  0.25537647  1
  O  O10  1  0.90101628  0.53184141  0.75607853  1
  O  O11  1  0.60037276  0.03057712  0.74462353  1
loop_
_geom_bond_atom_site_label_1
_geom_bond_atom_site_label_2
_geom_bond_distance
_geom_bond_site_symmetry_2
Fe0 O7 1.880087 1_455
Fe0 O5 1.880087 1_554
Fe0 O8 1.889317 1_555
Fe0 O10 1.889317 1_454
Fe0 O1 1.924749 1_455
Fe0 O3 1.924749 1_554
Ni0 O11 1.893931 1_555
Ni0 O9 1.893931 1_545
Ni0 O6 1.916516 1_545
Ni0 O4 1.916516 1_555
Ni0 O0 1.934314 1_555
Ni0 O2 1.934314 1_545
Ni1 O10 1.978912 1_455
Ni1 O8 1.978912 1_555
Ni1 O2 2.004842 1_555
Ni1 O0 2.004842 1_455
Ni1 O6 2.023084 1_455
Ni1 O4 2.023084 1_555
Ni2 O11 1.976457 1_554
Ni2 O9 1.976457 1_545
Ni2 O1 2.026083 1_545
Ni2 O3 2.026083 1_554
Ni2 O7 2.050739 1_555
Ni2 O5 2.050739 1_544
O0 Y2 2.292765 1_555
O0 Y3 2.445108 1_555
O0 Y0 2.574902 1_555
O1 Y3 2.284729 1_565
O1 Y2 2.452211 1_555
O1 Y1 2.623432 1_654
O2 Y0 2.292765 1_555
O2 Y1 2.445108 1_555
O2 Y2 2.574902 1_555
O3 Y1 2.284729 1_545
O3 Y0 2.452211 1_555
O3 Y3 2.623432 1_456
O4 Y1 2.273368 1_545
O4 Y0 2.439927 1_555
O4 Y3 2.555260 1_455
O5 Y0 2.293851 1_555
O5 Y1 2.477579 1_555
O5 Y2 2.585197 1_556
O6 Y3 2.273368 1_565
O6 Y2 2.439927 1_555
O6 Y1 2.555260 1_655
O7 Y2 2.293851 1_555
O7 Y3 2.477579 1_555
O7 Y0 2.585197 1_554
O8 Y2 2.242425 1_555
O8 Y3 2.275408 1_455
O9 Y3 2.234558 1_465
O9 Y2 2.269080 1_555
O10 Y0 2.242425 1_555
O10 Y1 2.275408 1_655
O11 Y1 2.234558 1_645
O11 Y0 2.269080 1_555
