# generated using pymatgen
data_CuB4Ir4Pt3
_symmetry_space_group_name_H-M   'P 1'
_cell_length_a   6.72478303
_cell_length_b   6.06348038
_cell_length_c   5.48723018
_cell_angle_alpha   70.49649112
_cell_angle_beta   59.12652803
_cell_angle_gamma   50.35164256
_symmetry_Int_Tables_number   1
_chemical_formula_structural   CuB4Ir4Pt3
_chemical_formula_sum   'Cu1 B4 Ir4 Pt3'
_cell_volume   147.85970697
_cell_formula_units_Z   1
loop_
 _symmetry_equiv_pos_site_id
 _symmetry_equiv_pos_as_xyz
  1  'x, y, z'
loop_
 _atom_site_type_symbol
 _atom_site_label
 _atom_site_symmetry_multiplicity
 _atom_site_fract_x
 _atom_site_fract_y
 _atom_site_fract_z
 _atom_site_occupancy
  Cu  Cu0  1  0.87293731  0.38778648  0.78736185  1
  B  B0  1  0.04978546  0.99008098  0.55664004  1
  B  B1  1  0.68566156  0.85810720  0.20473812  1
  B  B2  1  0.38946842  0.56913891  0.99153794  1
  B  B3  1  0.25712483  0.20208871  0.85654756  1
  Ir  Ir0  1  0.09538004  0.63977846  0.86489709  1
  Ir  Ir1  1  0.38896532  0.85068517  0.15129481  1
  Ir  Ir2  1  0.61583126  0.15638384  0.84386354  1
  Ir  Ir3  1  0.38601323  0.87553703  0.64147589  1
  Pt  Pt0  1  0.96149088  0.75899029  0.39244555  1
  Pt  Pt1  1  0.48215258  0.28767626  0.36561900  1
  Pt  Pt2  1  0.86558711  0.37334667  0.29317962  1
loop_
_geom_bond_atom_site_label_1
_geom_bond_atom_site_label_2
_geom_bond_distance
_geom_bond_site_symmetry_2
Cu0 Pt0 2.691809 1_555
Cu0 Ir2 2.703601 1_555
Cu0 Ir3 2.709672 1_645
Cu0 Pt2 2.723267 1_556
Cu0 Pt2 2.768573 1_555
Cu0 Ir1 2.805936 1_556
Cu0 Ir0 2.959277 1_655
Cu0 Ir3 2.976653 1_555
Cu0 Pt1 3.087806 1_556
Cu0 Pt1 3.246900 1_655
B0 Ir1 2.110107 1_555
B0 Ir2 2.145369 1_465
B0 Ir3 2.161426 1_555
B0 Ir0 2.183770 1_555
B0 Pt2 2.223933 1_465
B0 Pt0 2.362509 1_455
B0 Cu0 2.380316 1_465
B1 Ir0 2.131206 1_654
B1 Ir3 2.180853 1_555
B1 Ir1 2.189248 1_555
B1 Ir2 2.211749 1_564
B1 Pt0 2.233271 1_555
B1 Pt1 2.276637 1_565
B1 Pt2 2.334687 1_555
B2 Ir2 2.112801 1_555
B2 Ir1 2.161412 1_556
B2 Ir0 2.169852 1_555
B2 Ir3 2.179372 1_555
B2 Pt1 2.265160 1_556
B2 Pt0 2.326579 1_456
B2 Cu0 2.357281 1_555
B3 Ir3 2.094032 1_545
B3 Ir0 2.138861 1_555
B3 Ir1 2.168329 1_546
B3 Ir2 2.210867 1_555
B3 Cu0 2.257349 1_455
B3 Pt2 2.334352 1_456
B3 Pt1 2.387699 1_555
