# generated using pymatgen
data_TiZn8Pt3O16
_symmetry_space_group_name_H-M   'P 1'
_cell_length_a   6.06650677
_cell_length_b   6.03425004
_cell_length_c   8.49589212
_cell_angle_alpha   89.01726211
_cell_angle_beta   90.00000000
_cell_angle_gamma   90.00000000
_symmetry_Int_Tables_number   1
_chemical_formula_structural   TiZn8Pt3O16
_chemical_formula_sum   'Ti1 Zn8 Pt3 O16'
_cell_volume   310.96183632
_cell_formula_units_Z   1
loop_
 _symmetry_equiv_pos_site_id
 _symmetry_equiv_pos_as_xyz
  1  'x, y, z'
loop_
 _atom_site_type_symbol
 _atom_site_label
 _atom_site_symmetry_multiplicity
 _atom_site_fract_x
 _atom_site_fract_y
 _atom_site_fract_z
 _atom_site_occupancy
  Ti  Ti0  1  0.77890093  0.50000000  0.75000000  1
  Zn  Zn0  1  0.99810103  0.23308959  0.00060578  1
  Zn  Zn1  1  0.99810103  0.76691041  0.49939422  1
  Zn  Zn2  1  0.26178421  0.24281403  0.62712941  1
  Zn  Zn3  1  0.26178421  0.75718597  0.87287059  1
  Zn  Zn4  1  0.23143502  0.00000000  0.25000000  1
  Zn  Zn5  1  0.75885814  0.00000000  0.75000000  1
  Zn  Zn6  1  0.74516477  0.25323231  0.37472523  1
  Zn  Zn7  1  0.74516477  0.74676769  0.12527477  1
  Pt  Pt0  1  0.24302473  0.50000000  0.25000000  1
  Pt  Pt1  1  0.49955596  0.74879016  0.50226523  1
  Pt  Pt2  1  0.49955596  0.25120984  0.99773477  1
  O  O0  1  0.52503460  0.73715808  0.73898568  1
  O  O1  1  0.52503460  0.26284192  0.76101432  1
  O  O2  1  0.74003934  0.97949058  0.50774445  1
  O  O3  1  0.74003934  0.02050942  0.99225555  1
  O  O4  1  0.73932652  0.51137158  0.51841893  1
  O  O5  1  0.73932652  0.48862842  0.98158107  1
  O  O6  1  0.98317317  0.73358929  0.75279048  1
  O  O7  1  0.98317317  0.26641071  0.74720952  1
  O  O8  1  0.01261158  0.74002955  0.25574885  1
  O  O9  1  0.01261158  0.25997045  0.24425115  1
  O  O10  1  0.25189915  0.51982859  0.48827155  1
  O  O11  1  0.25189915  0.48017141  0.01172845  1
  O  O12  1  0.26059244  0.98007014  0.49492551  1
  O  O13  1  0.26059244  0.01992986  0.00507449  1
  O  O14  1  0.47660785  0.74390270  0.26301459  1
  O  O15  1  0.47660785  0.25609730  0.23698541  1
loop_
_geom_bond_atom_site_label_1
_geom_bond_atom_site_label_2
_geom_bond_distance
_geom_bond_site_symmetry_2
O0 Zn3 1.965605 1_555
O0 Pt1 2.017103 1_555
O0 Ti0 2.103326 1_555
O0 Zn5 2.131088 1_565
O1 Zn2 1.965605 1_555
O1 Pt2 2.017103 1_555
O1 Ti0 2.103326 1_555
O1 Zn5 2.131088 1_555
O2 Zn6 1.985605 1_565
O2 Pt1 2.017601 1_555
O2 Zn1 2.025963 1_555
O2 Zn5 2.067167 1_565
O3 Zn7 1.985605 1_546
O3 Pt2 2.017601 1_555
O3 Zn0 2.025963 1_556
O3 Zn5 2.067167 1_555
O4 Ti0 1.982101 1_555
O4 Zn6 1.995798 1_555
O4 Pt1 2.044585 1_555
O4 Zn1 2.204483 1_555
O5 Ti0 1.982101 1_555
O5 Zn7 1.995798 1_556
O5 Pt2 2.044585 1_555
O5 Zn0 2.204483 1_556
O6 Ti0 1.877276 1_555
O6 Zn3 1.980606 1_655
O6 Zn5 2.106038 1_565
O6 Zn1 2.160659 1_555
O7 Ti0 1.877276 1_555
O7 Zn2 1.980606 1_655
O7 Zn5 2.106038 1_555
O7 Zn0 2.160659 1_556
O8 Zn7 1.965011 1_455
O8 Pt0 2.014081 1_555
O8 Zn4 2.054970 1_565
O8 Zn1 2.080965 1_455
O9 Zn6 1.965011 1_455
O9 Pt0 2.014081 1_555
O9 Zn4 2.054970 1_555
O9 Zn0 2.080965 1_455
O10 Zn2 2.030236 1_555
O10 Pt0 2.030624 1_555
O10 Pt1 2.045937 1_555
O10 Zn1 2.146458 1_455
O11 Zn3 2.030236 1_554
O11 Pt0 2.030624 1_555
O11 Pt2 2.045937 1_554
O11 Zn0 2.146458 1_455
O12 Zn2 1.958669 1_565
O12 Pt1 2.012501 1_555
O12 Zn1 2.046945 1_455
O12 Zn4 2.089772 1_565
O13 Zn3 1.958669 1_544
O13 Pt2 2.012501 1_554
O13 Zn0 2.046945 1_455
O13 Zn4 2.089772 1_555
O14 Zn7 2.005823 1_555
O14 Pt1 2.038127 1_555
O14 Pt0 2.047413 1_555
O14 Zn4 2.146317 1_565
O15 Zn6 2.005823 1_555
O15 Pt2 2.038127 1_554
O15 Pt0 2.047413 1_555
O15 Zn4 2.146317 1_555
