# generated using pymatgen
data_Ta2Zn(Co10B3)2
_symmetry_space_group_name_H-M   'P 1'
_cell_length_a   7.40185039
_cell_length_b   7.40185106
_cell_length_c   7.40185147
_cell_angle_alpha   60.00000699
_cell_angle_beta   60.00000397
_cell_angle_gamma   60.00000313
_symmetry_Int_Tables_number   1
_chemical_formula_structural   Ta2Zn(Co10B3)2
_chemical_formula_sum   'Ta2 Zn1 Co20 B6'
_cell_volume   286.75173814
_cell_formula_units_Z   1
loop_
 _symmetry_equiv_pos_site_id
 _symmetry_equiv_pos_as_xyz
  1  'x, y, z'
loop_
 _atom_site_type_symbol
 _atom_site_label
 _atom_site_symmetry_multiplicity
 _atom_site_fract_x
 _atom_site_fract_y
 _atom_site_fract_z
 _atom_site_occupancy
  Ta  Ta0  1  0.75000000  0.75000000  0.75000000  1
  Ta  Ta1  1  0.25000000  0.25000000  0.25000000  1
  Zn  Zn0  1  0.00000000  0.00000000  0.00000000  1
  Co  Co0  1  0.61616521  0.61616521  0.15150538  1
  Co  Co1  1  0.61616521  0.15150538  0.61616521  1
  Co  Co2  1  0.15150538  0.61616521  0.61616521  1
  Co  Co3  1  0.61616521  0.61616521  0.61616521  1
  Co  Co4  1  0.38383479  0.38383479  0.84849462  1
  Co  Co5  1  0.38383479  0.84849462  0.38383479  1
  Co  Co6  1  0.84849462  0.38383479  0.38383479  1
  Co  Co7  1  0.38383479  0.38383479  0.38383479  1
  Co  Co8  1  0.00000000  0.00000000  0.34452429  1
  Co  Co9  1  0.65547571  0.00000000  0.34452429  1
  Co  Co10  1  0.00000000  0.65547571  0.34452429  1
  Co  Co11  1  0.65547571  0.34452429  0.00000000  1
  Co  Co12  1  0.00000000  0.34452429  0.00000000  1
  Co  Co13  1  1.00000000  0.34452429  0.65547571  1
  Co  Co14  1  0.34452429  0.65547571  1.00000000  1
  Co  Co15  1  0.34452429  1.00000000  0.65547571  1
  Co  Co16  1  0.34452429  0.00000000  1.00000000  1
  Co  Co17  1  1.00000000  1.00000000  0.65547571  1
  Co  Co18  1  1.00000000  0.65547571  1.00000000  1
  Co  Co19  1  0.65547571  1.00000000  0.00000000  1
  B  B0  1  0.72441141  0.72441141  0.27558859  1
  B  B1  1  0.27558859  0.72441141  0.27558859  1
  B  B2  1  0.72441141  0.27558859  0.27558859  1
  B  B3  1  0.27558859  0.27558859  0.72441141  1
  B  B4  1  0.72441141  0.27558859  0.72441141  1
  B  B5  1  0.27558859  0.72441141  0.72441141  1
loop_
_geom_bond_atom_site_label_1
_geom_bond_atom_site_label_2
_geom_bond_distance
_geom_bond_site_symmetry_2
Co0 Ta0 2.426533 1_554
Co1 Ta0 2.426533 1_545
Co2 Ta0 2.426532 1_455
Co3 Ta0 2.426526 1_555
Co4 Ta1 2.426533 1_556
Co5 Ta1 2.426533 1_565
Co6 Ta1 2.426532 1_655
Co7 Ta1 2.426526 1_555
Co8 Zn0 2.550118 1_555
Co9 Zn0 2.550118 1_655
Co10 Zn0 2.550118 1_565
Co11 Zn0 2.550117 1_655
Co12 Zn0 2.550117 1_555
Co13 Zn0 2.550118 1_656
Co14 Zn0 2.550117 1_566
Co15 Zn0 2.550118 1_566
Co16 Zn0 2.550117 1_556
Co17 Zn0 2.550118 1_666
Co18 Zn0 2.550117 1_666
Co19 Zn0 2.550117 1_665
B0 Co0 2.059410 1_555
B0 Co5 2.059416 1_555
B0 Co6 2.059417 1_555
B0 Co3 2.059417 1_555
B0 Co10 2.102715 1_655
B0 Co9 2.102715 1_565
B0 Co18 2.102715 1_554
B0 Co19 2.102715 1_555
B1 Co5 2.059410 1_555
B1 Co0 2.059416 1_555
B1 Co2 2.059417 1_555
B1 Co7 2.059417 1_555
B1 Co10 2.102714 1_555
B1 Co8 2.102715 1_565
B1 Co14 2.102715 1_554
B1 Co16 2.102715 1_564
B2 Co6 2.059410 1_555
B2 Co7 2.059416 1_555
B2 Co0 2.059417 1_555
B2 Co1 2.059417 1_555
B2 Co9 2.102715 1_555
B2 Co8 2.102715 1_655
B2 Co12 2.102715 1_655
B2 Co11 2.102715 1_555
B3 Co4 2.059410 1_555
B3 Co1 2.059416 1_555
B3 Co2 2.059417 1_555
B3 Co7 2.059417 1_555
B3 Co13 2.102715 1_455
B3 Co15 2.102715 1_545
B3 Co12 2.102715 1_556
B3 Co16 2.102715 1_555
B4 Co1 2.059410 1_555
B4 Co4 2.059416 1_555
B4 Co6 2.059417 1_555
B4 Co3 2.059417 1_555
B4 Co13 2.102714 1_555
B4 Co17 2.102715 1_545
B4 Co11 2.102715 1_556
B4 Co19 2.102715 1_546
B5 Co2 2.059410 1_555
B5 Co3 2.059416 1_555
B5 Co4 2.059417 1_555
B5 Co5 2.059417 1_555
B5 Co15 2.102715 1_555
B5 Co17 2.102715 1_455
B5 Co18 2.102715 1_455
B5 Co14 2.102715 1_555
