# generated using pymatgen
data_Ir2Pt(RhS2)6
_symmetry_space_group_name_H-M   'P 1'
_cell_length_a   7.55368107
_cell_length_b   7.54422235
_cell_length_c   6.28042183
_cell_angle_alpha   77.18555955
_cell_angle_beta   77.04381659
_cell_angle_gamma   91.75822741
_symmetry_Int_Tables_number   1
_chemical_formula_structural   Ir2Pt(RhS2)6
_chemical_formula_sum   'Ir2 Pt1 Rh6 S12'
_cell_volume   338.88181812
_cell_formula_units_Z   1
loop_
 _symmetry_equiv_pos_site_id
 _symmetry_equiv_pos_as_xyz
  1  'x, y, z'
loop_
 _atom_site_type_symbol
 _atom_site_label
 _atom_site_symmetry_multiplicity
 _atom_site_fract_x
 _atom_site_fract_y
 _atom_site_fract_z
 _atom_site_occupancy
  Ir  Ir0  1  0.16281379  0.83866741  0.99923100  1
  Ir  Ir1  1  0.83847721  0.16114772  0.00035185  1
  Pt  Pt0  1  0.77465073  0.49045458  0.45208184  1
  Rh  Rh0  1  0.00139318  0.00127057  0.49889889  1
  Rh  Rh1  1  0.34922718  0.34921863  0.94552455  1
  Rh  Rh2  1  0.64977405  0.64800640  0.05543636  1
  Rh  Rh3  1  0.50899971  0.22042849  0.54892668  1
  Rh  Rh4  1  0.22034311  0.51101780  0.54944654  1
  Rh  Rh5  1  0.48843192  0.77942036  0.45211724  1
  S  S0  1  0.85761959  0.43980059  0.09432590  1
  S  S1  1  0.55932116  0.14127949  0.90149336  1
  S  S2  1  0.14517895  0.56067195  0.89866008  1
  S  S3  1  0.44008082  0.85605044  0.10130577  1
  S  S4  1  0.11670581  0.11673442  0.10854452  1
  S  S5  1  0.88439154  0.88322692  0.89035980  1
  S  S6  1  0.03489091  0.71780131  0.38763139  1
  S  S7  1  0.28776897  0.97037558  0.61051199  1
  S  S8  1  0.97156194  0.28373389  0.61268739  1
  S  S9  1  0.57920543  0.58565470  0.73451584  1
  S  S10  1  0.41351093  0.41458082  0.26977575  1
  S  S11  1  0.71565205  0.03045792  0.38817326  1
loop_
_geom_bond_atom_site_label_1
_geom_bond_atom_site_label_2
_geom_bond_distance
_geom_bond_site_symmetry_2
Ir0 S2 2.328819 1_555
Ir0 S3 2.331765 1_556
Ir0 S4 2.360058 1_566
Ir0 S5 2.364289 1_455
Ir0 S6 2.370183 1_556
Ir0 S7 2.381465 1_555
Ir1 S0 2.314854 1_555
Ir1 S1 2.337377 1_554
Ir1 S5 2.360784 1_544
Ir1 S4 2.360825 1_655
Ir1 S11 2.372914 1_555
Ir1 S8 2.374922 1_554
Pt0 S9 2.301669 1_555
Pt0 S0 2.313293 1_555
Pt0 S8 2.404013 1_555
Pt0 S6 2.469453 1_655
Rh0 S4 2.361435 1_555
Rh0 S5 2.371654 1_445
Rh0 S8 2.394846 1_455
Rh0 S6 2.396373 1_545
Rh0 S11 2.413512 1_455
Rh0 S7 2.421468 1_545
Rh1 S2 2.270052 1_555
Rh1 S1 2.281303 1_555
Rh1 S4 2.327532 1_556
Rh1 S10 2.345244 1_556
Rh1 S9 2.384254 1_555
Rh2 S0 2.268239 1_555
Rh2 S3 2.281193 1_555
Rh2 S9 2.335521 1_554
Rh2 S5 2.351958 1_554
Rh2 S10 2.403453 1_555
Rh3 S1 2.282292 1_555
Rh3 S10 2.287382 1_555
Rh3 S11 2.362714 1_555
Rh3 S7 2.386203 1_545
Rh4 S2 2.256539 1_555
Rh4 S10 2.286102 1_555
Rh4 S6 2.344792 1_555
Rh4 S8 2.407240 1_455
Rh5 S3 2.265098 1_555
Rh5 S9 2.282409 1_555
Rh5 S7 2.335808 1_555
Rh5 S11 2.418263 1_565
S0 S2 2.290031 1_654
S1 S3 2.278776 1_546
