# generated using pymatgen
data_HfAl3(NiPt3)3
_symmetry_space_group_name_H-M   'P 1'
_cell_length_a   3.92669359
_cell_length_b   3.92669359
_cell_length_c   14.69819891
_cell_angle_alpha   90.00000000
_cell_angle_beta   90.00000000
_cell_angle_gamma   90.00000000
_symmetry_Int_Tables_number   1
_chemical_formula_structural   HfAl3(NiPt3)3
_chemical_formula_sum   'Hf1 Al3 Ni3 Pt9'
_cell_volume   226.63039055
_cell_formula_units_Z   1
loop_
 _symmetry_equiv_pos_site_id
 _symmetry_equiv_pos_as_xyz
  1  'x, y, z'
loop_
 _atom_site_type_symbol
 _atom_site_label
 _atom_site_symmetry_multiplicity
 _atom_site_fract_x
 _atom_site_fract_y
 _atom_site_fract_z
 _atom_site_occupancy
  Hf  Hf0  1  0.00000000  0.00000000  0.00000000  1
  Al  Al0  1  0.00000000  0.00000000  0.26009370  1
  Al  Al1  1  0.00000000  0.00000000  0.50000000  1
  Al  Al2  1  0.00000000  0.00000000  0.73990630  1
  Ni  Ni0  1  0.50000000  0.50000000  0.25856927  1
  Ni  Ni1  1  0.50000000  0.50000000  0.50000000  1
  Ni  Ni2  1  0.50000000  0.50000000  0.74143073  1
  Pt  Pt0  1  0.50000000  0.50000000  0.00000000  1
  Pt  Pt1  1  0.50000000  0.00000000  0.13949390  1
  Pt  Pt2  1  0.50000000  0.00000000  0.37889569  1
  Pt  Pt3  1  0.50000000  0.00000000  0.62110431  1
  Pt  Pt4  1  0.50000000  0.00000000  0.86050610  1
  Pt  Pt5  1  0.00000000  0.50000000  0.13949390  1
  Pt  Pt6  1  0.00000000  0.50000000  0.37889569  1
  Pt  Pt7  1  0.00000000  0.50000000  0.62110431  1
  Pt  Pt8  1  0.00000000  0.50000000  0.86050610  1
loop_
_geom_bond_atom_site_label_1
_geom_bond_atom_site_label_2
_geom_bond_distance
_geom_bond_site_symmetry_2
Hf0 Pt0 2.776592 1_455
Hf0 Pt0 2.776592 1_555
Hf0 Pt0 2.776592 1_545
Hf0 Pt0 2.776592 1_445
Hf0 Pt5 2.838749 1_555
Hf0 Pt1 2.838749 1_455
Hf0 Pt1 2.838749 1_555
Hf0 Pt5 2.838749 1_545
Hf0 Pt4 2.838749 1_554
Hf0 Pt8 2.838749 1_554
Hf0 Pt8 2.838749 1_544
Hf0 Pt4 2.838749 1_454
Al0 Pt2 2.627520 1_455
Al0 Pt6 2.627520 1_545
Al0 Pt2 2.627520 1_555
Al0 Pt6 2.627520 1_555
Al0 Pt1 2.645154 1_555
Al0 Pt5 2.645154 1_545
Al0 Pt5 2.645154 1_555
Al0 Pt1 2.645154 1_455
Al0 Ni0 2.776682 1_455
Al0 Ni0 2.776682 1_555
Al0 Ni0 2.776682 1_545
Al0 Ni0 2.776682 1_445
Al1 Pt7 2.650129 1_555
Al1 Pt3 2.650129 1_455
Al1 Pt3 2.650129 1_555
Al1 Pt7 2.650129 1_545
Al1 Pt2 2.650129 1_455
Al1 Pt6 2.650129 1_545
Al1 Pt2 2.650129 1_555
Al1 Pt6 2.650129 1_555
Al1 Ni1 2.776592 1_455
Al1 Ni1 2.776592 1_445
Al1 Ni1 2.776592 1_555
Al1 Ni1 2.776592 1_545
Al2 Pt7 2.627520 1_545
Al2 Pt3 2.627520 1_555
Al2 Pt7 2.627520 1_555
Al2 Pt3 2.627520 1_455
Al2 Pt4 2.645154 1_555
Al2 Pt8 2.645154 1_545
Al2 Pt8 2.645154 1_555
Al2 Pt4 2.645154 1_455
Al2 Ni2 2.776682 1_555
Al2 Ni2 2.776682 1_545
Al2 Ni2 2.776682 1_445
Al2 Ni2 2.776682 1_455
Ni0 Pt5 2.630192 1_655
Ni0 Pt5 2.630192 1_555
Ni0 Pt1 2.630192 1_555
Ni0 Pt1 2.630192 1_565
Ni0 Pt2 2.642463 1_555
Ni0 Pt6 2.642463 1_555
Ni0 Pt2 2.642463 1_565
Ni0 Pt6 2.642463 1_655
Ni1 Pt7 2.650129 1_555
Ni1 Pt7 2.650129 1_655
Ni1 Pt3 2.650129 1_555
Ni1 Pt3 2.650129 1_565
Ni1 Pt2 2.650129 1_565
Ni1 Pt6 2.650129 1_555
Ni1 Pt6 2.650129 1_655
Ni1 Pt2 2.650129 1_555
Ni2 Pt4 2.630192 1_565
Ni2 Pt8 2.630192 1_655
Ni2 Pt4 2.630192 1_555
Ni2 Pt8 2.630192 1_555
Ni2 Pt7 2.642463 1_655
Ni2 Pt3 2.642463 1_555
Ni2 Pt3 2.642463 1_565
Ni2 Pt7 2.642463 1_555
