# generated using pymatgen
data_Ta10Al2Si3Ge
_symmetry_space_group_name_H-M   'P 1'
_cell_length_a   7.58776171
_cell_length_b   7.58776130
_cell_length_c   7.58215157
_cell_angle_alpha   128.25949206
_cell_angle_beta   128.25947912
_cell_angle_gamma   76.25905804
_symmetry_Int_Tables_number   1
_chemical_formula_structural   Ta10Al2Si3Ge
_chemical_formula_sum   'Ta10 Al2 Si3 Ge1'
_cell_volume   261.50632183
_cell_formula_units_Z   1
loop_
 _symmetry_equiv_pos_site_id
 _symmetry_equiv_pos_as_xyz
  1  'x, y, z'
loop_
 _atom_site_type_symbol
 _atom_site_label
 _atom_site_symmetry_multiplicity
 _atom_site_fract_x
 _atom_site_fract_y
 _atom_site_fract_z
 _atom_site_occupancy
  Ta  Ta0  1  0.01062992  0.18842938  0.50000000  1
  Ta  Ta1  1  0.68717353  0.51713920  0.50000000  1
  Ta  Ta2  1  0.51838985  0.01390864  0.83068978  1
  Ta  Ta3  1  0.18769907  0.68321785  0.16931022  1
  Ta  Ta4  1  0.98286080  0.81282647  0.50000000  1
  Ta  Ta5  1  0.31157062  0.48937008  0.50000000  1
  Ta  Ta6  1  0.48609136  0.98161015  0.16931022  1
  Ta  Ta7  1  0.81678215  0.31230093  0.83068978  1
  Ta  Ta8  1  0.99729215  0.99923274  0.99652489  1
  Ta  Ta9  1  0.50076726  0.50270785  0.00347511  1
  Al  Al0  1  0.75136724  0.74863276  1.00000000  1
  Al  Al1  1  0.25136724  0.24863276  1.00000000  1
  Si  Si0  1  0.63065948  0.86934052  0.50000000  1
  Si  Si1  1  0.87022244  0.37034153  0.24056497  1
  Si  Si2  1  0.12965847  0.62977756  0.75943503  1
  Ge  Ge0  1  0.36746843  0.13253157  0.50000000  1
loop_
_geom_bond_atom_site_label_1
_geom_bond_atom_site_label_2
_geom_bond_distance
_geom_bond_site_symmetry_2
Al0 Ta6 2.742954 1_556
Al0 Ta2 2.742954 1_565
Al0 Ta1 2.750906 1_555
Al0 Ta4 2.750906 1_556
Al0 Ta0 2.755545 1_666
Al0 Ta5 2.755545 1_555
Al0 Ta7 2.756891 1_555
Al0 Ta3 2.756891 1_656
Al0 Ta8 2.984455 1_555
Al0 Ta9 2.984455 1_556
Al1 Ta3 2.742949 1_556
Al1 Ta7 2.742949 1_455
Al1 Ta4 2.750906 1_445
Al1 Ta1 2.750906 1_556
Al1 Ta5 2.755545 1_556
Al1 Ta0 2.755545 1_555
Al1 Ta2 2.756896 1_555
Al1 Ta6 2.756896 1_546
Al1 Ta9 2.984455 1_556
Al1 Ta8 2.984455 1_445
Si0 Ta9 2.573028 1_555
Si0 Ta8 2.573029 1_555
Si0 Ta1 2.604092 1_555
Si0 Ta4 2.604092 1_555
Si0 Ta2 2.647793 1_565
Si0 Ta6 2.647793 1_555
Si0 Ta7 2.647801 1_565
Si0 Ta3 2.647801 1_555
Si1 Si2 2.426188 1_655
Si1 Ta8 2.597984 1_544
Si1 Ta9 2.599302 1_555
Si1 Ta2 2.616393 1_554
Si1 Ta7 2.616409 1_554
Si1 Ta1 2.640898 1_555
Si1 Ta4 2.640906 1_555
Si1 Ta0 2.641640 1_655
Si1 Ta5 2.641648 1_655
Si2 Ta9 2.597985 1_556
Si2 Ta8 2.599302 1_455
Si2 Ta6 2.616393 1_556
Si2 Ta3 2.616409 1_556
Si2 Ta4 2.640898 1_455
Si2 Ta1 2.640907 1_455
Si2 Ta5 2.641639 1_555
Si2 Ta0 2.641647 1_555
Ge0 Si0 2.466099 1_545
Ge0 Ta9 2.602664 1_556
Ge0 Ta8 2.602664 1_444
Ge0 Ta5 2.639215 1_555
Ge0 Ta0 2.639215 1_555
Ge0 Ta6 2.675372 1_545
Ge0 Ta2 2.675372 1_555
Ge0 Ta3 2.675380 1_545
Ge0 Ta7 2.675380 1_555
