# generated using pymatgen
data_LuAl2Pd4Au
_symmetry_space_group_name_H-M   'P 1'
_cell_length_a   7.80762889
_cell_length_b   7.80762906
_cell_length_c   7.80762914
_cell_angle_alpha   149.02842417
_cell_angle_beta   149.02843212
_cell_angle_gamma   44.36946454
_symmetry_Int_Tables_number   1
_chemical_formula_structural   LuAl2Pd4Au
_chemical_formula_sum   'Lu1 Al2 Pd4 Au1'
_cell_volume   125.67105761
_cell_formula_units_Z   1
loop_
 _symmetry_equiv_pos_site_id
 _symmetry_equiv_pos_as_xyz
  1  'x, y, z'
loop_
 _atom_site_type_symbol
 _atom_site_label
 _atom_site_symmetry_multiplicity
 _atom_site_fract_x
 _atom_site_fract_y
 _atom_site_fract_z
 _atom_site_occupancy
  Lu  Lu0  1  0.00000000  0.00000000  0.00000000  1
  Al  Al0  1  0.25267490  0.25267490  0.00000000  1
  Al  Al1  1  0.74732510  0.74732510  1.00000000  1
  Pd  Pd0  1  0.64305887  0.14305887  0.50000000  1
  Pd  Pd1  1  0.35694113  0.85694113  0.50000000  1
  Pd  Pd2  1  0.14305887  0.64305887  0.50000000  1
  Pd  Pd3  1  0.85694113  0.35694113  0.50000000  1
  Au  Au0  1  0.50000000  0.50000000  0.00000000  1
loop_
_geom_bond_atom_site_label_1
_geom_bond_atom_site_label_2
_geom_bond_distance
_geom_bond_site_symmetry_2
Lu0 Pd0 2.936749 1_555
Lu0 Pd1 2.936749 1_444
Lu0 Pd0 2.936749 1_454
Lu0 Pd1 2.936749 1_545
Lu0 Pd2 2.936750 1_555
Lu0 Pd3 2.936750 1_444
Lu0 Pd2 2.936750 1_544
Lu0 Pd3 2.936750 1_455
Al0 Pd3 2.572662 1_555
Al0 Pd3 2.572662 1_454
Al0 Pd1 2.572662 1_555
Al0 Pd1 2.572662 1_544
Al0 Pd0 2.618743 1_454
Al0 Pd0 2.618743 1_555
Al0 Pd2 2.618743 1_544
Al0 Pd2 2.618743 1_555
Al1 Pd2 2.572662 1_555
Al1 Pd2 2.572662 1_656
Al1 Pd0 2.572662 1_555
Al1 Pd0 2.572662 1_566
Al1 Pd1 2.618743 1_656
Al1 Pd1 2.618743 1_555
Al1 Pd3 2.618743 1_566
Al1 Pd3 2.618743 1_555
Pd0 Pd2 2.948114 1_656
Pd0 Pd2 2.948114 1_544
Pd0 Pd2 2.948114 1_555
Pd0 Pd2 2.948114 1_645
Pd1 Pd3 2.948114 1_566
Pd1 Pd3 2.948114 1_454
Pd1 Pd3 2.948114 1_465
Pd1 Pd3 2.948114 1_555
Au0 Pd2 2.936749 1_655
Au0 Pd3 2.936749 1_454
Au0 Pd2 2.936749 1_554
Au0 Pd3 2.936749 1_555
Au0 Pd0 2.936750 1_565
Au0 Pd1 2.936750 1_544
Au0 Pd0 2.936750 1_554
Au0 Pd1 2.936750 1_555
Au0 Lu0 2.948114 1_554
Au0 Lu0 2.948114 1_666
Au0 Lu0 2.948114 1_565
Au0 Lu0 2.948114 1_655
