# generated using pymatgen
data_ScBi(BO3)2
_symmetry_space_group_name_H-M   'P 1'
_cell_length_a   6.09272687
_cell_length_b   6.09272662
_cell_length_c   6.09272787
_cell_angle_alpha   47.92197551
_cell_angle_beta   47.92198132
_cell_angle_gamma   47.92197215
_symmetry_Int_Tables_number   1
_chemical_formula_structural   ScBi(BO3)2
_chemical_formula_sum   'Sc1 Bi1 B2 O6'
_cell_volume   114.12913103
_cell_formula_units_Z   1
loop_
 _symmetry_equiv_pos_site_id
 _symmetry_equiv_pos_as_xyz
  1  'x, y, z'
loop_
 _atom_site_type_symbol
 _atom_site_label
 _atom_site_symmetry_multiplicity
 _atom_site_fract_x
 _atom_site_fract_y
 _atom_site_fract_z
 _atom_site_occupancy
  Sc  Sc0  1  0.00000000  0.00000000  0.00000000  1
  Bi  Bi0  1  0.50000000  0.50000000  0.50000000  1
  B  B0  1  0.74383864  0.74383864  0.74383864  1
  B  B1  1  0.25616136  0.25616136  0.25616136  1
  O  O0  1  0.00581281  0.45144919  0.77732757  1
  O  O1  1  0.45144919  0.77732757  0.00581281  1
  O  O2  1  0.77732757  0.00581281  0.45144919  1
  O  O3  1  0.54855081  0.22267243  0.99418719  1
  O  O4  1  0.22267243  0.99418719  0.54855081  1
  O  O5  1  0.99418719  0.54855081  0.22267243  1
loop_
_geom_bond_atom_site_label_1
_geom_bond_atom_site_label_2
_geom_bond_distance
_geom_bond_site_symmetry_2
Bi0 O4 2.390275 1_555
Bi0 O2 2.390275 1_555
Bi0 O5 2.390275 1_555
Bi0 O0 2.390275 1_555
Bi0 O3 2.390276 1_555
Bi0 O1 2.390276 1_555
B0 O0 1.378824 1_655
B0 O2 1.378824 1_565
B0 O1 1.378824 1_556
B1 O5 1.378824 1_455
B1 O4 1.378824 1_545
B1 O3 1.378824 1_554
O0 Sc0 2.114739 1_556
O1 Sc0 2.114739 1_565
O2 Sc0 2.114739 1_655
O3 Sc0 2.114739 1_656
O4 Sc0 2.114739 1_566
O5 Sc0 2.114739 1_665
