# generated using pymatgen
data_CeSbO3
_symmetry_space_group_name_H-M   'P 1'
_cell_length_a   7.76795831
_cell_length_b   7.76795831
_cell_length_c   7.76795831
_cell_angle_alpha   60.00000000
_cell_angle_beta   60.00000000
_cell_angle_gamma   60.00000000
_symmetry_Int_Tables_number   1
_chemical_formula_structural   CeSbO3
_chemical_formula_sum   'Ce4 Sb4 O12'
_cell_volume   331.44056539
_cell_formula_units_Z   4
loop_
 _symmetry_equiv_pos_site_id
 _symmetry_equiv_pos_as_xyz
  1  'x, y, z'
loop_
 _atom_site_type_symbol
 _atom_site_label
 _atom_site_symmetry_multiplicity
 _atom_site_fract_x
 _atom_site_fract_y
 _atom_site_fract_z
 _atom_site_occupancy
  Ce  Ce0  1  0.62500000  0.12500000  0.62500000  1
  Ce  Ce1  1  0.12500000  0.62500000  0.62500000  1
  Ce  Ce2  1  0.62500000  0.62500000  0.62500000  1
  Ce  Ce3  1  0.62500000  0.62500000  0.12500000  1
  Sb  Sb0  1  0.62500000  0.12500000  0.12500000  1
  Sb  Sb1  1  0.12500000  0.12500000  0.62500000  1
  Sb  Sb2  1  0.12500000  0.62500000  0.12500000  1
  Sb  Sb3  1  0.12500000  0.12500000  0.12500000  1
  O  O0  1  0.51786100  0.98213900  0.51786100  1
  O  O1  1  0.51786100  0.98213900  0.98213900  1
  O  O2  1  0.51786100  0.51786100  0.98213900  1
  O  O3  1  0.98213900  0.98213900  0.51786100  1
  O  O4  1  0.26786100  0.73213900  0.73213900  1
  O  O5  1  0.26786100  0.73213900  0.26786100  1
  O  O6  1  0.98213900  0.51786100  0.98213900  1
  O  O7  1  0.98213900  0.51786100  0.51786100  1
  O  O8  1  0.73213900  0.73213900  0.26786100  1
  O  O9  1  0.26786100  0.26786100  0.73213900  1
  O  O10  1  0.73213900  0.26786100  0.73213900  1
  O  O11  1  0.73213900  0.26786100  0.26786100  1
loop_
_geom_bond_atom_site_label_1
_geom_bond_atom_site_label_2
_geom_bond_distance
_geom_bond_site_symmetry_2
Ce0 O0 2.270817 1_545
Ce0 O10 2.270817 1_555
Ce0 O11 2.270817 1_555
Ce0 O1 2.270817 1_545
Ce0 O3 2.270817 1_545
Ce0 O9 2.270817 1_555
Ce1 O9 2.270817 1_555
Ce1 O7 2.270817 1_455
Ce1 O4 2.270817 1_555
Ce1 O6 2.270817 1_455
Ce1 O3 2.270817 1_455
Ce1 O5 2.270817 1_555
Ce2 O10 2.270817 1_555
Ce2 O2 2.270817 1_555
Ce2 O0 2.270817 1_555
Ce2 O7 2.270817 1_555
Ce2 O4 2.270817 1_555
Ce2 O8 2.270817 1_555
Ce3 O2 2.270817 1_554
Ce3 O8 2.270817 1_555
Ce3 O5 2.270817 1_555
Ce3 O11 2.270817 1_555
Ce3 O6 2.270817 1_554
Ce3 O1 2.270817 1_554
O0 Sb0 2.496870 1_565
O0 Sb1 2.496870 1_565
O1 Sb3 2.496870 1_566
O1 Sb0 2.496870 1_566
O2 Sb2 2.496870 1_556
O2 Sb0 2.496870 1_556
O3 Sb3 2.496870 1_665
O3 Sb1 2.496870 1_665
O4 Sb2 2.496870 1_556
O4 Sb1 2.496870 1_565
O5 Sb2 2.496870 1_555
O5 Sb3 2.496870 1_565
O6 Sb2 2.496870 1_656
O6 Sb3 2.496870 1_656
O7 Sb2 2.496870 1_655
O7 Sb1 2.496870 1_655
O8 Sb0 2.496870 1_565
O8 Sb2 2.496870 1_655
O9 Sb1 2.496870 1_555
O9 Sb3 2.496870 1_556
O10 Sb0 2.496870 1_556
O10 Sb1 2.496870 1_655
O11 Sb3 2.496870 1_655
O11 Sb0 2.496870 1_555
