# generated using pymatgen
data_Y2TaIr3
_symmetry_space_group_name_H-M   'P 1'
_cell_length_a   5.64454085
_cell_length_b   5.23161501
_cell_length_c   5.64454102
_cell_angle_alpha   57.35280841
_cell_angle_beta   59.99999900
_cell_angle_gamma   57.35280878
_symmetry_Int_Tables_number   1
_chemical_formula_structural   Y2TaIr3
_chemical_formula_sum   'Y2 Ta1 Ir3'
_cell_volume   112.92471299
_cell_formula_units_Z   1
loop_
 _symmetry_equiv_pos_site_id
 _symmetry_equiv_pos_as_xyz
  1  'x, y, z'
loop_
 _atom_site_type_symbol
 _atom_site_label
 _atom_site_symmetry_multiplicity
 _atom_site_fract_x
 _atom_site_fract_y
 _atom_site_fract_z
 _atom_site_occupancy
  Y  Y0  1  0.49825983  0.50522151  0.49825983  1
  Y  Y1  1  0.75174017  0.74477849  0.75174017  1
  Ta  Ta0  1  0.12500000  0.62500000  0.12500000  1
  Ir  Ir0  1  0.62500000  0.12500000  0.12500000  1
  Ir  Ir1  1  0.12500000  0.12500000  0.12500000  1
  Ir  Ir2  1  0.12500000  0.12500000  0.62500000  1
loop_
_geom_bond_atom_site_label_1
_geom_bond_atom_site_label_2
_geom_bond_distance
_geom_bond_site_symmetry_2
Y0 Y1 3.112202 1_545
Y0 Y1 3.403153 1_555
Y0 Y1 3.403163 1_455
Y0 Y1 3.403163 1_554
Ta0 Y1 3.295538 1_554
Ta0 Y0 3.295538 1_455
Ta0 Y1 3.295538 1_455
Ta0 Y0 3.295538 1_554
Ta0 Y0 3.295543 1_555
Ta0 Y1 3.295543 1_454
Ir0 Ta0 2.615807 1_645
Ir0 Ta0 2.615807 1_555
Ir0 Ir1 2.822270 1_555
Ir0 Ir1 2.822270 1_655
Ir0 Ir2 2.822270 1_555
Ir0 Ir2 2.822270 1_654
Ir0 Y1 3.014793 1_554
Ir0 Y0 3.014793 1_545
Ir0 Y1 3.222832 1_545
Ir0 Y0 3.222832 1_554
Ir0 Y0 3.222837 1_555
Ir0 Y1 3.222837 1_544
Ir1 Ta0 2.615808 1_555
Ir1 Ta0 2.615808 1_545
Ir1 Ir2 2.822271 1_555
Ir1 Ir2 2.822271 1_554
Ir1 Y0 3.014796 1_545
Ir1 Y1 3.014796 1_454
Ir1 Y0 3.222834 1_554
Ir1 Y1 3.222834 1_445
Ir1 Y0 3.222834 1_455
Ir1 Y1 3.222834 1_544
Ir2 Ta0 2.615808 1_546
Ir2 Ta0 2.615808 1_555
Ir2 Y1 3.014793 1_455
Ir2 Y0 3.014793 1_545
Ir2 Y1 3.222832 1_545
Ir2 Y0 3.222832 1_455
Ir2 Y0 3.222837 1_555
Ir2 Y1 3.222837 1_445
