# generated using pymatgen
data_Rb4Hf6CBr18
_symmetry_space_group_name_H-M   'P 1'
_cell_length_a   10.31840221
_cell_length_b   10.63892233
_cell_length_c   10.68274862
_cell_angle_alpha   117.99816235
_cell_angle_beta   100.94142018
_cell_angle_gamma   104.18660390
_symmetry_Int_Tables_number   1
_chemical_formula_structural   Rb4Hf6CBr18
_chemical_formula_sum   'Rb4 Hf6 C1 Br18'
_cell_volume   938.06902315
_cell_formula_units_Z   1
loop_
 _symmetry_equiv_pos_site_id
 _symmetry_equiv_pos_as_xyz
  1  'x, y, z'
loop_
 _atom_site_type_symbol
 _atom_site_label
 _atom_site_symmetry_multiplicity
 _atom_site_fract_x
 _atom_site_fract_y
 _atom_site_fract_z
 _atom_site_occupancy
  Rb  Rb0  1  0.19721092  0.72909440  0.56883115  1
  Rb  Rb1  1  0.83544874  0.95698481  0.76660798  1
  Rb  Rb2  1  0.16455126  0.04301519  0.23339202  1
  Rb  Rb3  1  0.80278908  0.27090560  0.43116885  1
  Hf  Hf0  1  0.35223394  0.44577071  0.77853959  1
  Hf  Hf1  1  0.36700754  0.61877269  0.12536588  1
  Hf  Hf2  1  0.64170642  0.72793433  0.04360179  1
  Hf  Hf3  1  0.64776606  0.55422929  0.22146041  1
  Hf  Hf4  1  0.35829358  0.27206567  0.95639821  1
  Hf  Hf5  1  0.63299246  0.38122731  0.87463412  1
  C  C0  1  0.50000000  0.50000000  0.00000000  1
  Br  Br0  1  0.82126469  0.42582043  0.11184090  1
  Br  Br1  1  0.51875200  0.70068290  0.40271960  1
  Br  Br2  1  0.18176299  0.98854118  0.90084966  1
  Br  Br3  1  0.17873531  0.57417957  0.88815910  1
  Br  Br4  1  0.83285660  0.82774206  0.30803071  1
  Br  Br5  1  0.50554064  0.29954203  0.20755550  1
  Br  Br6  1  0.79271136  0.23455928  0.72135751  1
  Br  Br7  1  0.16714340  0.17225794  0.69196929  1
  Br  Br8  1  0.50931021  0.90051887  0.19228167  1
  Br  Br9  1  0.81585740  0.62726005  0.90633411  1
  Br  Br10  1  0.20728864  0.76544072  0.27864249  1
  Br  Br11  1  0.16673163  0.37881401  0.50414872  1
  Br  Br12  1  0.49445936  0.70045797  0.79244450  1
  Br  Br13  1  0.81823701  0.01145882  0.09915034  1
  Br  Br14  1  0.48124800  0.29931710  0.59728040  1
  Br  Br15  1  0.18414260  0.37273995  0.09366589  1
  Br  Br16  1  0.83326837  0.62118599  0.49585128  1
  Br  Br17  1  0.49068979  0.09948113  0.80771833  1
loop_
_geom_bond_atom_site_label_1
_geom_bond_atom_site_label_2
_geom_bond_distance
_geom_bond_site_symmetry_2
C0 Hf3 2.274341 1_555
C0 Hf0 2.274341 1_554
C0 Hf2 2.275614 1_555
C0 Hf4 2.275614 1_554
C0 Hf5 2.287393 1_554
C0 Hf1 2.287393 1_555
Br0 Hf3 2.633467 1_555
Br0 Hf5 2.640281 1_554
Br1 Hf3 2.666802 1_555
Br1 Hf1 2.671274 1_555
Br1 Rb1 3.752769 1_555
Br1 Rb0 4.058444 1_555
Br2 Hf4 2.825712 1_565
Br2 Rb2 3.368143 1_566
Br2 Rb0 3.385703 1_555
Br2 Rb1 3.457330 1_455
Br3 Hf0 2.633467 1_555
Br3 Hf1 2.640281 1_556
Br4 Hf2 2.653218 1_555
Br4 Hf3 2.655002 1_555
Br5 Hf4 2.662910 1_554
Br5 Hf3 2.666067 1_555
Br5 Rb3 3.683272 1_555
Br6 Hf5 2.778132 1_555
Br6 Rb3 3.316406 1_555
Br6 Rb1 3.323639 1_545
Br7 Hf4 2.653218 1_555
Br7 Hf0 2.655002 1_555
Br8 Hf2 2.659964 1_555
Br8 Hf1 2.661634 1_555
Br8 Rb3 3.603648 1_565
Br9 Hf2 2.644926 1_556
Br9 Hf5 2.651552 1_555
Br10 Hf1 2.778132 1_555
Br10 Rb0 3.316406 1_555
Br10 Rb2 3.323639 1_565
Br11 Hf0 2.829263 1_555
Br11 Rb2 3.371018 1_555
Br11 Rb0 3.374808 1_555
Br11 Rb3 3.458785 1_455
Br12 Hf2 2.662910 1_556
Br12 Hf0 2.666067 1_555
Br12 Rb0 3.683272 1_555
Br13 Hf2 2.825712 1_545
Br13 Rb1 3.368143 1_544
Br13 Rb3 3.385703 1_555
Br13 Rb2 3.457330 1_655
Br14 Hf0 2.666802 1_555
Br14 Hf5 2.671274 1_555
Br14 Rb2 3.752769 1_555
Br14 Rb3 4.058444 1_555
Br15 Hf4 2.644926 1_554
Br15 Hf1 2.651552 1_555
Br16 Hf3 2.829263 1_555
Br16 Rb1 3.371018 1_555
Br16 Rb3 3.374808 1_555
Br16 Rb0 3.458785 1_655
Br17 Hf4 2.659964 1_555
Br17 Hf5 2.661634 1_555
Br17 Rb0 3.603648 1_545
