# generated using pymatgen
data_Ag7Os(SO4)6
_symmetry_space_group_name_H-M   'P 1'
_cell_length_a   8.61554057
_cell_length_b   8.61554040
_cell_length_c   8.61553976
_cell_angle_alpha   108.80805532
_cell_angle_beta   108.80805851
_cell_angle_gamma   108.80806944
_symmetry_Int_Tables_number   1
_chemical_formula_structural   Ag7Os(SO4)6
_chemical_formula_sum   'Ag7 Os1 S6 O24'
_cell_volume   504.02011421
_cell_formula_units_Z   1
loop_
 _symmetry_equiv_pos_site_id
 _symmetry_equiv_pos_as_xyz
  1  'x, y, z'
loop_
 _atom_site_type_symbol
 _atom_site_label
 _atom_site_symmetry_multiplicity
 _atom_site_fract_x
 _atom_site_fract_y
 _atom_site_fract_z
 _atom_site_occupancy
  Ag  Ag0  1  0.50000000  0.50000000  0.50000000  1
  Ag  Ag1  1  0.83678354  0.34294947  0.68084740  1
  Ag  Ag2  1  0.34294947  0.68084740  0.83678354  1
  Ag  Ag3  1  0.68084740  0.83678354  0.34294947  1
  Ag  Ag4  1  0.16321646  0.65705053  0.31915260  1
  Ag  Ag5  1  0.65705053  0.31915260  0.16321646  1
  Ag  Ag6  1  0.31915260  0.16321646  0.65705053  1
  Os  Os0  1  0.00000000  0.00000000  0.00000000  1
  S  S0  1  0.96837188  0.75032240  0.60287452  1
  S  S1  1  0.75032240  0.60287452  0.96837188  1
  S  S2  1  0.60287452  0.96837188  0.75032240  1
  S  S3  1  0.03162812  0.24967760  0.39712548  1
  S  S4  1  0.24967760  0.39712548  0.03162812  1
  S  S5  1  0.39712548  0.03162812  0.24967760  1
  O  O0  1  0.46209238  0.90913061  0.16378442  1
  O  O1  1  0.90913061  0.16378442  0.46209238  1
  O  O2  1  0.16378442  0.46209238  0.90913061  1
  O  O3  1  0.53790762  0.09086939  0.83621558  1
  O  O4  1  0.09086939  0.83621558  0.53790762  1
  O  O5  1  0.83621558  0.53790762  0.09086939  1
  O  O6  1  0.31094699  0.97226462  0.35416570  1
  O  O7  1  0.97226462  0.35416570  0.31094699  1
  O  O8  1  0.35416570  0.31094699  0.97226462  1
  O  O9  1  0.68905301  0.02773538  0.64583430  1
  O  O10  1  0.02773538  0.64583430  0.68905301  1
  O  O11  1  0.64583430  0.68905301  0.02773538  1
  O  O12  1  0.74798068  0.97306535  0.91756183  1
  O  O13  1  0.97306535  0.91756183  0.74798068  1
  O  O14  1  0.63870033  0.45489105  0.77248239  1
  O  O15  1  0.77248239  0.63870033  0.45489105  1
  O  O16  1  0.45489105  0.77248239  0.63870033  1
  O  O17  1  0.36129967  0.54510895  0.22751761  1
  O  O18  1  0.22751761  0.36129967  0.54510895  1
  O  O19  1  0.54510895  0.22751761  0.36129967  1
  O  O20  1  0.08243817  0.25201932  0.02693465  1
  O  O21  1  0.02693465  0.08243817  0.25201932  1
  O  O22  1  0.25201932  0.02693465  0.08243817  1
  O  O23  1  0.91756183  0.74798068  0.97306535  1
loop_
_geom_bond_atom_site_label_1
_geom_bond_atom_site_label_2
_geom_bond_distance
_geom_bond_site_symmetry_2
Ag0 O15 2.483755 1_555
Ag0 O18 2.483755 1_555
Ag0 O17 2.483755 1_555
Ag0 O14 2.483755 1_555
Ag0 O19 2.483756 1_555
Ag0 O16 2.483756 1_555
Ag1 O1 2.413565 1_555
Ag1 O14 2.430013 1_555
Ag1 O9 2.466098 1_555
Ag1 O2 2.473813 1_655
Ag1 O10 2.561055 1_655
Ag1 O19 2.654345 1_555
Ag2 O2 2.413565 1_555
Ag2 O16 2.430013 1_555
Ag2 O10 2.466098 1_555
Ag2 O0 2.473813 1_556
Ag2 O11 2.561055 1_556
Ag2 O18 2.654345 1_555
Ag3 O0 2.413565 1_555
Ag3 O15 2.430013 1_555
Ag3 O11 2.466098 1_555
Ag3 O1 2.473813 1_565
Ag3 O9 2.561055 1_565
Ag3 O17 2.654345 1_555
Ag4 O4 2.413565 1_555
Ag4 O17 2.430013 1_555
Ag4 O6 2.466098 1_555
Ag4 O5 2.473813 1_455
Ag4 O7 2.561055 1_455
Ag4 O16 2.654345 1_555
Ag5 O5 2.413565 1_555
Ag5 O19 2.430013 1_555
Ag5 O7 2.466098 1_555
Ag5 O3 2.473813 1_554
Ag5 O8 2.561055 1_554
Ag5 O15 2.654345 1_555
Ag6 O3 2.413565 1_555
Ag6 O18 2.430013 1_555
Ag6 O8 2.466098 1_555
Ag6 O4 2.473813 1_545
Ag6 O6 2.561055 1_545
Ag6 O14 2.654345 1_555
O0 S5 1.455726 1_565
O1 S3 1.455725 1_655
O2 S4 1.455725 1_556
O3 S2 1.455726 1_545
O4 S0 1.455725 1_455
O5 S1 1.455725 1_554
O6 S5 1.451291 1_565
O7 S3 1.451291 1_655
O8 S4 1.451291 1_556
O9 S2 1.451291 1_545
O10 S0 1.451291 1_455
O11 S1 1.451291 1_554
O12 S2 1.552089 1_555
O12 Os0 1.961437 1_666
O13 S0 1.552089 1_555
O13 Os0 1.961437 1_666
O14 S1 1.474487 1_555
O15 S0 1.474487 1_555
O16 S2 1.474487 1_555
O17 S4 1.474487 1_555
O18 S3 1.474487 1_555
O19 S5 1.474487 1_555
O20 S4 1.552088 1_555
O20 Os0 1.961437 1_555
O21 S3 1.552089 1_555
O21 Os0 1.961437 1_555
O22 S5 1.552089 1_555
O22 Os0 1.961437 1_555
O23 S1 1.552088 1_555
O23 Os0 1.961437 1_666
