# generated using pymatgen
data_Rb2GeMoN4
_symmetry_space_group_name_H-M   'P 1'
_cell_length_a   5.85070670
_cell_length_b   5.85070692
_cell_length_c   5.85070687
_cell_angle_alpha   119.91588351
_cell_angle_beta   119.91587937
_cell_angle_gamma   90.14575672
_symmetry_Int_Tables_number   1
_chemical_formula_structural   Rb2GeMoN4
_chemical_formula_sum   'Rb2 Ge1 Mo1 N4'
_cell_volume   141.79480994
_cell_formula_units_Z   1
loop_
 _symmetry_equiv_pos_site_id
 _symmetry_equiv_pos_as_xyz
  1  'x, y, z'
loop_
 _atom_site_type_symbol
 _atom_site_label
 _atom_site_symmetry_multiplicity
 _atom_site_fract_x
 _atom_site_fract_y
 _atom_site_fract_z
 _atom_site_occupancy
  Rb  Rb0  1  0.25000000  0.75000000  0.50000000  1
  Rb  Rb1  1  0.50000000  0.50000000  0.00000000  1
  Ge  Ge0  1  0.00000000  0.00000000  0.00000000  1
  Mo  Mo0  1  0.75000000  0.25000000  0.50000000  1
  N  N0  1  0.80562186  0.12583464  0.17969070  1
  N  N1  1  0.94614394  0.62593216  0.82030930  1
  N  N2  1  0.37406784  0.19437814  0.32021178  1
  N  N3  1  0.87416536  0.05385606  0.67978822  1
loop_
_geom_bond_atom_site_label_1
_geom_bond_atom_site_label_2
_geom_bond_distance
_geom_bond_site_symmetry_2
Ge0 N1 1.834504 1_444
Ge0 N3 1.834504 1_454
Ge0 N2 1.834504 1_555
Ge0 N0 1.834509 1_455
Mo0 N0 1.843156 1_555
Mo0 N3 1.843160 1_555
Mo0 N1 1.843160 1_555
Mo0 N2 1.843161 1_555
N0 Rb1 3.087934 1_555
N0 Rb0 3.092543 1_544
N0 Rb0 3.445701 1_655
N0 Rb1 3.458560 1_545
N1 Rb1 3.087936 1_656
N1 Rb0 3.092546 1_656
N1 Rb0 3.445698 1_655
N1 Rb1 3.458562 1_556
N2 Rb1 3.087936 1_556
N2 Rb0 3.092540 1_555
N2 Rb0 3.445704 1_545
N2 Rb1 3.458557 1_555
N3 Rb1 3.087936 1_545
N3 Rb0 3.092545 1_645
N3 Rb0 3.445698 1_545
N3 Rb1 3.458562 1_656
