# generated using pymatgen
data_Al2P2Se7S
_symmetry_space_group_name_H-M   'P 1'
_cell_length_a   6.04573492
_cell_length_b   5.97001647
_cell_length_c   9.50698989
_cell_angle_alpha   89.94394694
_cell_angle_beta   90.03550992
_cell_angle_gamma   89.61624839
_symmetry_Int_Tables_number   1
_chemical_formula_structural   Al2P2Se7S
_chemical_formula_sum   'Al2 P2 Se7 S1'
_cell_volume   343.12916079
_cell_formula_units_Z   1
loop_
 _symmetry_equiv_pos_site_id
 _symmetry_equiv_pos_as_xyz
  1  'x, y, z'
loop_
 _atom_site_type_symbol
 _atom_site_label
 _atom_site_symmetry_multiplicity
 _atom_site_fract_x
 _atom_site_fract_y
 _atom_site_fract_z
 _atom_site_occupancy
  Al  Al0  1  0.50011010  0.50013769  0.74950754  1
  Al  Al1  1  0.49765112  0.49734487  0.24930641  1
  P  P0  1  0.00021231  0.50108821  0.75007224  1
  P  P1  1  0.49748694  0.00431243  0.24841761  1
  Se  Se0  1  0.22908655  0.29645669  0.61831746  1
  Se  Se1  1  0.77031634  0.70654590  0.61927866  1
  Se  Se2  1  0.22809780  0.70278219  0.88210874  1
  Se  Se3  1  0.77367587  0.29398769  0.87982660  1
  Se  Se4  1  0.29185854  0.77380390  0.37723981  1
  Se  Se5  1  0.70541441  0.22642422  0.38101130  1
  Se  Se6  1  0.69376465  0.77042782  0.11408002  1
  S  S0  1  0.31232538  0.22668838  0.13083461  1
loop_
_geom_bond_atom_site_label_1
_geom_bond_atom_site_label_2
_geom_bond_distance
_geom_bond_site_symmetry_2
Al0 Se2 2.395023 1_555
Al0 Se0 2.397101 1_555
Al0 Se1 2.397173 1_555
Al0 Se3 2.398387 1_555
Al1 S0 2.271799 1_555
Al1 Se5 2.393407 1_555
Al1 Se4 2.393653 1_555
Al1 Se6 2.395854 1_555
P0 Se2 2.224138 1_555
P0 Se3 2.224390 1_455
P0 Se1 2.225875 1_455
P0 Se0 2.226788 1_555
P1 S0 2.059340 1_555
P1 Se5 2.225130 1_555
P1 Se4 2.227256 1_545
P1 Se6 2.229806 1_545
