# generated using pymatgen
data_K2Ba(NbCl3)6
_symmetry_space_group_name_H-M   'P 1'
_cell_length_a   10.40229154
_cell_length_b   10.40280278
_cell_length_c   10.40429605
_cell_angle_alpha   54.45307731
_cell_angle_beta   54.45058182
_cell_angle_gamma   54.45931011
_symmetry_Int_Tables_number   1
_chemical_formula_structural   K2Ba(NbCl3)6
_chemical_formula_sum   'K2 Ba1 Nb6 Cl18'
_cell_volume   693.17009276
_cell_formula_units_Z   1
loop_
 _symmetry_equiv_pos_site_id
 _symmetry_equiv_pos_as_xyz
  1  'x, y, z'
loop_
 _atom_site_type_symbol
 _atom_site_label
 _atom_site_symmetry_multiplicity
 _atom_site_fract_x
 _atom_site_fract_y
 _atom_site_fract_z
 _atom_site_occupancy
  K  K0  1  0.77771353  0.77767661  0.77772523  1
  K  K1  1  0.22212710  0.22235522  0.22221498  1
  Ba  Ba0  1  0.49998915  0.50000919  0.50000157  1
  Nb  Nb0  1  0.21134033  0.06650521  0.85715689  1
  Nb  Nb1  1  0.85717358  0.21133188  0.06651995  1
  Nb  Nb2  1  0.06654365  0.85710410  0.21137573  1
  Nb  Nb3  1  0.78868143  0.93350415  0.14285325  1
  Nb  Nb4  1  0.14287881  0.78864616  0.93347683  1
  Nb  Nb5  1  0.93348938  0.14286831  0.78866376  1
  Cl  Cl0  1  0.41673338  0.83050302  0.75152194  1
  Cl  Cl1  1  0.75155212  0.41671826  0.83052476  1
  Cl  Cl2  1  0.83053368  0.75153354  0.41671318  1
  Cl  Cl3  1  0.58326880  0.16951196  0.24848494  1
  Cl  Cl4  1  0.24846544  0.58330752  0.16946095  1
  Cl  Cl5  1  0.16947461  0.24847189  0.58329102  1
  Cl  Cl6  1  0.32739321  0.91272165  0.08208741  1
  Cl  Cl7  1  0.08206363  0.32741229  0.91276772  1
  Cl  Cl8  1  0.91276559  0.08205596  0.32740489  1
  Cl  Cl9  1  0.67260616  0.08728223  0.91791467  1
  Cl  Cl10  1  0.91796062  0.67259624  0.08722895  1
  Cl  Cl11  1  0.08726246  0.91793699  0.67260590  1
  Cl  Cl12  1  0.48485550  0.14231575  0.67892017  1
  Cl  Cl13  1  0.67892387  0.48482463  0.14234667  1
  Cl  Cl14  1  0.14232815  0.67891144  0.48479953  1
  Cl  Cl15  1  0.51512204  0.85771205  0.32108269  1
  Cl  Cl16  1  0.32108337  0.51518524  0.85766193  1
  Cl  Cl17  1  0.85766644  0.32110254  0.51519048  1
loop_
_geom_bond_atom_site_label_1
_geom_bond_atom_site_label_2
_geom_bond_distance
_geom_bond_site_symmetry_2
Ba0 Cl12 3.101973 1_555
Ba0 Cl15 3.102056 1_555
Ba0 Cl14 3.102091 1_555
Ba0 Cl17 3.102180 1_555
Ba0 Cl13 3.102278 1_555
Ba0 Cl16 3.102331 1_555
Cl0 Nb4 2.470077 1_555
Cl0 Nb0 2.471638 1_565
Cl0 K0 3.618521 1_555
Cl1 Nb5 2.470501 1_555
Cl1 Nb1 2.471634 1_556
Cl1 K0 3.618203 1_555
Cl2 Nb3 2.470709 1_555
Cl2 Nb2 2.470847 1_655
Cl2 K0 3.619145 1_555
Cl3 Nb1 2.470346 1_555
Cl3 Nb3 2.471670 1_545
Cl3 K1 3.620513 1_555
Cl4 Nb2 2.470277 1_555
Cl4 Nb4 2.471345 1_554
Cl4 K1 3.619462 1_555
Cl5 Nb0 2.470816 1_555
Cl5 Nb5 2.470843 1_455
Cl5 K1 3.620508 1_555
Cl6 Nb0 2.485995 1_564
Cl6 Nb2 2.486541 1_555
Cl6 K1 3.633634 1_565
Cl6 K0 3.770649 1_554
Cl7 Nb1 2.485237 1_456
Cl7 Nb0 2.487529 1_555
Cl7 K1 3.632500 1_556
Cl7 K0 3.770613 1_455
Cl8 Nb2 2.485911 1_645
Cl8 Nb1 2.487422 1_555
Cl8 K1 3.632022 1_655
Cl8 K0 3.770862 1_545
Cl9 Nb3 2.486230 1_546
Cl9 Nb5 2.486768 1_555
Cl9 K0 3.634575 1_545
Cl9 K1 3.771362 1_556
Cl10 Nb4 2.485277 1_654
Cl10 Nb3 2.487608 1_555
Cl10 K0 3.634363 1_554
Cl10 K1 3.769764 1_655
Cl11 Nb5 2.485936 1_465
Cl11 Nb4 2.487394 1_555
Cl11 K0 3.633892 1_455
Cl11 K1 3.771123 1_565
Cl12 Nb0 2.632269 1_555
Cl12 K0 3.224802 1_545
Cl13 Nb1 2.632662 1_555
Cl13 K0 3.224454 1_554
Cl14 Nb2 2.632065 1_555
Cl14 K0 3.224708 1_455
Cl15 Nb3 2.632566 1_555
Cl15 K1 3.225577 1_565
Cl16 Nb4 2.632364 1_555
Cl16 K1 3.224357 1_556
Cl17 Nb5 2.632665 1_555
Cl17 K1 3.224199 1_655
