# generated using pymatgen
data_K3LiAuO4
_symmetry_space_group_name_H-M   'P 1'
_cell_length_a   7.21114490
_cell_length_b   7.21114474
_cell_length_c   5.90975922
_cell_angle_alpha   78.94910288
_cell_angle_beta   78.94909510
_cell_angle_gamma   82.34630498
_symmetry_Int_Tables_number   1
_chemical_formula_structural   K3LiAuO4
_chemical_formula_sum   'K6 Li2 Au2 O8'
_cell_volume   294.53252124
_cell_formula_units_Z   2
loop_
 _symmetry_equiv_pos_site_id
 _symmetry_equiv_pos_as_xyz
  1  'x, y, z'
loop_
 _atom_site_type_symbol
 _atom_site_label
 _atom_site_symmetry_multiplicity
 _atom_site_fract_x
 _atom_site_fract_y
 _atom_site_fract_z
 _atom_site_occupancy
  K  K0  1  0.06138943  0.24415000  0.02109975  1
  K  K1  1  0.59532470  0.40467530  0.25000000  1
  K  K2  1  0.24415000  0.06138943  0.52109975  1
  K  K3  1  0.75585000  0.93861057  0.47890025  1
  K  K4  1  0.93861057  0.75585000  0.97890025  1
  K  K5  1  0.40467530  0.59532470  0.75000000  1
  Li  Li0  1  0.73053394  0.26946606  0.75000000  1
  Li  Li1  1  0.26946606  0.73053394  0.25000000  1
  Au  Au0  1  0.50000000  0.00000000  0.00000000  1
  Au  Au1  1  0.00000000  0.50000000  0.50000000  1
  O  O0  1  0.20939307  0.48109571  0.22865970  1
  O  O1  1  0.90911542  0.26000020  0.46864044  1
  O  O2  1  0.48109571  0.20939307  0.72865970  1
  O  O3  1  0.26000020  0.90911542  0.96864044  1
  O  O4  1  0.09088458  0.73999980  0.53135956  1
  O  O5  1  0.73999980  0.09088458  0.03135956  1
  O  O6  1  0.51890429  0.79060693  0.27134030  1
  O  O7  1  0.79060693  0.51890429  0.77134030  1
loop_
_geom_bond_atom_site_label_1
_geom_bond_atom_site_label_2
_geom_bond_distance
_geom_bond_site_symmetry_2
K0 O3 2.679467 1_544
K0 O1 2.680145 1_455
K0 O5 2.683119 1_455
K0 O0 2.711880 1_555
K0 O7 2.978299 1_454
K0 O2 3.188810 1_554
K1 O6 2.786417 1_555
K1 O0 2.786417 1_555
K1 O5 2.802401 1_555
K1 O1 2.802402 1_555
K1 O7 2.924390 1_554
K1 O2 2.924390 1_555
K2 O1 2.679467 1_455
K2 O3 2.680145 1_545
K2 O4 2.683119 1_545
K2 O2 2.711880 1_555
K2 O6 2.978299 1_545
K2 O0 3.188811 1_555
K3 O4 2.679467 1_655
K3 O5 2.680145 1_565
K3 O1 2.683119 1_565
K3 O6 2.711880 1_555
K3 O2 2.978299 1_565
K3 O7 3.188811 1_555
K4 O5 2.679467 1_566
K4 O4 2.680145 1_655
K4 O3 2.683119 1_655
K4 O7 2.711880 1_555
K4 O0 2.978299 1_656
K4 O6 3.188810 1_556
K5 O2 2.786417 1_555
K5 O7 2.786417 1_555
K5 O3 2.802401 1_555
K5 O4 2.802402 1_555
K5 O0 2.924390 1_556
K5 O6 2.924390 1_555
Li0 O1 1.904478 1_555
Li0 O5 1.904478 1_556
Li0 O7 1.937647 1_555
Li0 O2 1.937648 1_555
Li1 O4 1.904478 1_555
Li1 O3 1.904478 1_554
Li1 O0 1.937647 1_555
Li1 O6 1.937648 1_555
Au0 O5 1.982614 1_555
Au0 O3 1.982614 1_544
Au0 O6 1.992662 1_545
Au0 O2 1.992662 1_554
Au1 O1 1.982614 1_455
Au1 O4 1.982614 1_555
Au1 O7 1.992661 1_455
Au1 O0 1.992661 1_555
