# generated using pymatgen
data_Hf16TaNi4Os3
_symmetry_space_group_name_H-M   'P 1'
_cell_length_a   8.61757296
_cell_length_b   8.61757170
_cell_length_c   8.61757415
_cell_angle_alpha   59.88191234
_cell_angle_beta   59.88191554
_cell_angle_gamma   59.88191438
_symmetry_Int_Tables_number   1
_chemical_formula_structural   Hf16TaNi4Os3
_chemical_formula_sum   'Hf16 Ta1 Ni4 Os3'
_cell_volume   451.30978020
_cell_formula_units_Z   1
loop_
 _symmetry_equiv_pos_site_id
 _symmetry_equiv_pos_as_xyz
  1  'x, y, z'
loop_
 _atom_site_type_symbol
 _atom_site_label
 _atom_site_symmetry_multiplicity
 _atom_site_fract_x
 _atom_site_fract_y
 _atom_site_fract_z
 _atom_site_occupancy
  Hf  Hf0  1  0.69336549  0.10193714  0.10193714  1
  Hf  Hf1  1  0.10193714  0.69336549  0.10193714  1
  Hf  Hf2  1  0.10193714  0.10193714  0.69336549  1
  Hf  Hf3  1  0.10365906  0.10365906  0.10365906  1
  Hf  Hf4  1  0.31463182  0.31463182  0.68519883  1
  Hf  Hf5  1  0.68484867  0.68484867  0.31478972  1
  Hf  Hf6  1  0.31463182  0.68519883  0.31463182  1
  Hf  Hf7  1  0.68484867  0.31478972  0.68484867  1
  Hf  Hf8  1  0.68519883  0.31463182  0.31463182  1
  Hf  Hf9  1  0.31478972  0.68484867  0.68484867  1
  Hf  Hf10  1  0.95562217  0.95562217  0.54429336  1
  Hf  Hf11  1  0.54848554  0.54848554  0.95205610  1
  Hf  Hf12  1  0.95562217  0.54429336  0.95562217  1
  Hf  Hf13  1  0.54848554  0.95205610  0.54848554  1
  Hf  Hf14  1  0.54429336  0.95562217  0.95562217  1
  Hf  Hf15  1  0.95205610  0.54848554  0.54848554  1
  Ta  Ta0  1  0.32925236  0.32925236  0.32925236  1
  Ni  Ni0  1  0.32584141  0.89223916  0.89223916  1
  Ni  Ni1  1  0.89223916  0.32584141  0.89223916  1
  Ni  Ni2  1  0.89223916  0.89223916  0.32584141  1
  Ni  Ni3  1  0.89085412  0.89085412  0.89085412  1
  Os  Os0  1  0.99576189  0.33469782  0.33469782  1
  Os  Os1  1  0.33469782  0.99576189  0.33469782  1
  Os  Os2  1  0.33469782  0.33469782  0.99576189  1
loop_
_geom_bond_atom_site_label_1
_geom_bond_atom_site_label_2
_geom_bond_distance
_geom_bond_site_symmetry_2
Hf0 Ni3 2.573156 1_544
Hf0 Ni1 2.576246 1_554
Hf0 Ni2 2.576246 1_545
Hf0 Ta0 3.005691 1_555
Hf0 Os1 3.031225 1_545
Hf0 Os2 3.031225 1_554
Hf0 Hf5 3.130826 1_545
Hf0 Hf7 3.130827 1_554
Hf0 Hf8 3.136356 1_555
Hf1 Ni3 2.573156 1_454
Hf1 Ni0 2.576246 1_554
Hf1 Ni2 2.576246 1_455
Hf1 Ta0 3.005691 1_555
Hf1 Os0 3.031225 1_455
Hf1 Os2 3.031225 1_554
Hf1 Hf5 3.130826 1_455
Hf1 Hf9 3.130827 1_554
Hf1 Hf6 3.136356 1_555
Hf2 Ni3 2.573156 1_445
Hf2 Ni1 2.576246 1_455
Hf2 Ni0 2.576246 1_545
Hf2 Ta0 3.005691 1_555
Hf2 Os0 3.031225 1_455
Hf2 Os1 3.031225 1_545
Hf2 Hf9 3.130826 1_545
Hf2 Hf7 3.130826 1_455
Hf2 Hf4 3.136356 1_555
Hf3 Ni2 2.575730 1_445
Hf3 Ni0 2.575730 1_544
Hf3 Ni1 2.575730 1_454
Hf3 Os2 3.009177 1_554
Hf3 Os0 3.009178 1_455
Hf3 Os1 3.009178 1_545
Hf3 Hf6 3.126159 1_545
Hf3 Hf8 3.126160 1_455
Hf3 Hf4 3.126160 1_554
Hf4 Os2 2.860292 1_555
Hf4 Ta0 2.946335 1_555
Hf4 Ni0 3.121655 1_545
Hf4 Ni1 3.121655 1_455
Hf4 Hf6 3.187687 1_555
Hf4 Hf8 3.187687 1_555
Hf4 Hf9 3.189540 1_555
Hf4 Hf7 3.189540 1_555
Hf5 Os0 2.853316 1_555
Hf5 Os1 2.853316 1_555
Hf5 Ni3 3.129714 1_554
Hf5 Ni2 3.153471 1_555
Hf5 Hf7 3.183316 1_555
Hf5 Hf9 3.183317 1_555
Hf5 Hf8 3.189540 1_555
Hf5 Hf6 3.189540 1_555
Hf6 Os1 2.860291 1_555
Hf6 Ta0 2.946334 1_555
Hf6 Ni2 3.121655 1_455
Hf6 Ni0 3.121656 1_554
Hf6 Hf8 3.187687 1_555
Hf6 Hf9 3.189541 1_555
Hf7 Os2 2.853317 1_555
Hf7 Os0 2.853317 1_555
Hf7 Ni3 3.129713 1_545
Hf7 Ni1 3.153472 1_555
Hf7 Hf9 3.183316 1_555
Hf7 Hf8 3.189541 1_555
Hf8 Os0 2.860291 1_555
Hf8 Ta0 2.946335 1_555
Hf8 Ni2 3.121655 1_545
Hf8 Ni1 3.121656 1_554
Hf9 Os2 2.853316 1_555
Hf9 Os1 2.853316 1_555
Hf9 Ni3 3.129714 1_455
Hf9 Ni0 3.153471 1_555
Hf10 Ni2 2.550261 1_555
Hf10 Ni3 2.551322 1_555
Hf10 Os0 2.939223 1_565
Hf10 Os1 2.939224 1_655
Hf10 Hf3 3.095807 1_665
Hf10 Hf8 3.188650 1_565
Hf10 Hf6 3.188650 1_655
Hf10 Hf7 3.189014 1_565
Hf10 Hf9 3.189014 1_655
Hf11 Ni0 2.545278 1_555
Hf11 Ni1 2.545279 1_555
Hf11 Os2 2.990616 1_555
Hf11 Ta0 2.993415 1_556
Hf11 Hf8 3.194411 1_556
Hf11 Hf6 3.194411 1_556
Hf11 Hf7 3.209720 1_555
Hf11 Hf9 3.209720 1_555
Hf12 Ni1 2.550261 1_555
Hf12 Ni3 2.551321 1_555
Hf12 Os2 2.939224 1_655
Hf12 Os0 2.939224 1_556
Hf12 Hf3 3.095806 1_656
Hf12 Hf8 3.188650 1_556
Hf12 Hf4 3.188650 1_655
Hf12 Hf9 3.189014 1_655
Hf12 Hf5 3.189014 1_556
Hf13 Ni2 2.545279 1_555
Hf13 Ni0 2.545279 1_555
Hf13 Os1 2.990616 1_555
Hf13 Ta0 2.993414 1_565
Hf13 Hf8 3.194410 1_565
Hf13 Hf4 3.194410 1_565
Hf13 Hf9 3.209720 1_555
Hf13 Hf5 3.209720 1_555
Hf14 Ni0 2.550261 1_555
Hf14 Ni3 2.551322 1_555
Hf14 Os2 2.939223 1_565
Hf14 Os1 2.939224 1_556
Hf14 Hf3 3.095807 1_566
Hf14 Hf6 3.188650 1_556
Hf14 Hf4 3.188650 1_565
Hf14 Hf7 3.189014 1_565
Hf14 Hf5 3.189014 1_556
Hf15 Ni2 2.545279 1_555
Hf15 Ni1 2.545279 1_555
Hf15 Os0 2.990616 1_555
Hf15 Ta0 2.993415 1_655
Hf15 Hf6 3.194411 1_655
Hf15 Hf4 3.194411 1_655
Hf15 Hf7 3.209720 1_555
Hf15 Hf5 3.209720 1_555
Os0 Ta0 2.827562 1_655
Os0 Os1 2.915590 1_645
Os0 Os2 2.915591 1_654
Os1 Ta0 2.827561 1_565
Os1 Os2 2.915590 1_564
Os2 Ta0 2.827562 1_556
