# generated using pymatgen
data_K2VFeSe4
_symmetry_space_group_name_H-M   'P 1'
_cell_length_a   13.70063393
_cell_length_b   12.26730837
_cell_length_c   7.29717665
_cell_angle_alpha   84.86363126
_cell_angle_beta   63.09866229
_cell_angle_gamma   32.03770044
_symmetry_Int_Tables_number   1
_chemical_formula_structural   K2VFeSe4
_chemical_formula_sum   'K4 V2 Fe2 Se8'
_cell_volume   454.52663797
_cell_formula_units_Z   2
loop_
 _symmetry_equiv_pos_site_id
 _symmetry_equiv_pos_as_xyz
  1  'x, y, z'
loop_
 _atom_site_type_symbol
 _atom_site_label
 _atom_site_symmetry_multiplicity
 _atom_site_fract_x
 _atom_site_fract_y
 _atom_site_fract_z
 _atom_site_occupancy
  K  K0  1  0.67888405  0.67888405  0.32111595  1
  K  K1  1  0.92888405  0.92888405  0.57111595  1
  K  K2  1  0.32111595  0.32111595  0.67888405  1
  K  K3  1  0.57111595  0.57111595  0.92888405  1
  V  V0  1  0.75000000  0.75000000  0.75000000  1
  V  V1  1  0.50000000  0.50000000  0.50000000  1
  Fe  Fe0  1  0.00000000  0.00000000  0.00000000  1
  Fe  Fe1  1  0.25000000  0.25000000  0.25000000  1
  Se  Se0  1  0.03512300  0.35358614  0.66596740  1
  Se  Se1  1  0.21487700  0.89641386  0.58403260  1
  Se  Se2  1  0.89641386  0.21487700  0.30467755  1
  Se  Se3  1  0.58403260  0.30467755  0.21487700  1
  Se  Se4  1  0.94532245  0.66596740  0.35358614  1
  Se  Se5  1  0.66596740  0.94532245  0.03512300  1
  Se  Se6  1  0.35358614  0.03512300  0.94532245  1
  Se  Se7  1  0.30467755  0.58403260  0.89641386  1
loop_
_geom_bond_atom_site_label_1
_geom_bond_atom_site_label_2
_geom_bond_distance
_geom_bond_site_symmetry_2
K0 Se6 3.446985 1_565
K0 Se0 3.446991 1_654
K0 Se1 3.512039 1_555
K0 Se2 3.512041 1_555
K0 Se6 3.536743 1_654
K0 Se0 3.536745 1_565
K0 Se4 3.633429 1_555
K0 Se5 3.633433 1_555
K1 Se7 3.446988 1_565
K1 Se3 3.446989 1_655
K1 Se5 3.512048 1_556
K1 Se4 3.512053 1_555
K1 Se7 3.536742 1_654
K1 Se3 3.536749 1_566
K1 Se2 3.633439 1_565
K1 Se1 3.633442 1_655
K2 Se4 3.446988 1_545
K2 Se5 3.446989 1_456
K2 Se3 3.512048 1_555
K2 Se7 3.512053 1_555
K2 Se4 3.536742 1_456
K2 Se5 3.536749 1_545
K2 Se6 3.633439 1_555
K2 Se0 3.633442 1_555
K3 Se2 3.446985 1_555
K3 Se1 3.446991 1_556
K3 Se0 3.512039 1_655
K3 Se6 3.512041 1_565
K3 Se2 3.536743 1_466
K3 Se1 3.536745 1_645
K3 Se7 3.633429 1_555
K3 Se3 3.633433 1_556
Fe0 Se3 2.399387 1_455
Fe0 Se7 2.399390 1_544
Fe0 Se1 2.399393 1_544
Fe0 Se2 2.399399 1_455
Fe1 Se5 2.399387 1_545
Fe1 Se4 2.399390 1_455
Fe1 Se0 2.399393 1_555
Fe1 Se6 2.399399 1_554
Se0 V0 2.333169 1_455
Se1 V1 2.333169 1_555
Se2 V1 2.333171 1_555
Se3 V1 2.333161 1_555
Se4 V0 2.333166 1_555
Se5 V0 2.333161 1_554
Se6 V0 2.333171 1_545
Se7 V1 2.333166 1_555
