# generated using pymatgen
data_Ba6Zn7F26
_symmetry_space_group_name_H-M   'P 1'
_cell_length_a   10.13786345
_cell_length_b   10.13786345
_cell_length_c   12.31088467
_cell_angle_alpha   53.37167920
_cell_angle_beta   53.37167920
_cell_angle_gamma   33.98746533
_symmetry_Int_Tables_number   1
_chemical_formula_structural   Ba6Zn7F26
_chemical_formula_sum   'Ba6 Zn7 F26'
_cell_volume   552.77870084
_cell_formula_units_Z   1
loop_
 _symmetry_equiv_pos_site_id
 _symmetry_equiv_pos_as_xyz
  1  'x, y, z'
loop_
 _atom_site_type_symbol
 _atom_site_label
 _atom_site_symmetry_multiplicity
 _atom_site_fract_x
 _atom_site_fract_y
 _atom_site_fract_z
 _atom_site_occupancy
  Ba  Ba0  1  0.65735964  0.65735964  0.10295923  1
  Ba  Ba1  1  0.34264036  0.34264036  0.89704077  1
  Ba  Ba2  1  0.35803755  0.35803755  0.40283277  1
  Ba  Ba3  1  0.64196245  0.64196245  0.59716723  1
  Ba  Ba4  1  0.85484077  0.85484077  0.15207411  1
  Ba  Ba5  1  0.14515923  0.14515923  0.84792589  1
  Zn  Zn0  1  0.74331644  0.25668356  0.50000000  1
  Zn  Zn1  1  0.25668356  0.74331644  0.50000000  1
  Zn  Zn2  1  0.01440834  0.01440834  0.22172867  1
  Zn  Zn3  1  0.98559166  0.98559166  0.77827133  1
  Zn  Zn4  1  0.22219858  0.22219858  0.28839253  1
  Zn  Zn5  1  0.77780142  0.77780142  0.71160747  1
  Zn  Zn6  1  0.50000000  0.50000000  0.00000000  1
  F  F0  1  0.37215057  0.37215057  0.15784635  1
  F  F1  1  0.62784943  0.62784943  0.84215365  1
  F  F2  1  0.08923676  0.08923676  0.41940010  1
  F  F3  1  0.91076324  0.91076324  0.58059990  1
  F  F4  1  0.14339924  0.14339924  0.08256380  1
  F  F5  1  0.85660076  0.85660076  0.91743620  1
  F  F6  1  0.88650674  0.88650674  0.33215992  1
  F  F7  1  0.11349326  0.11349326  0.66784008  1
  F  F8  1  0.59286834  0.59286834  0.41861940  1
  F  F9  1  0.40713166  0.40713166  0.58138060  1
  F  F10  1  0.73117362  0.23103368  0.90704678  1
  F  F11  1  0.76896632  0.26882638  0.09295322  1
  F  F12  1  0.26882638  0.76896632  0.09295322  1
  F  F13  1  0.99414211  0.51994943  0.61925018  1
  F  F14  1  0.48005057  0.00585789  0.38074982  1
  F  F15  1  0.00585789  0.48005057  0.38074982  1
  F  F16  1  0.51994943  0.99414211  0.61925018  1
  F  F17  1  0.98394267  0.52348244  0.85096584  1
  F  F18  1  0.47651756  0.01605733  0.14903416  1
  F  F19  1  0.01605733  0.47651756  0.14903416  1
  F  F20  1  0.52348244  0.98394267  0.85096584  1
  F  F21  1  0.25670594  0.72144620  0.67455375  1
  F  F22  1  0.27855380  0.74329406  0.32544625  1
  F  F23  1  0.74329406  0.27855380  0.32544625  1
  F  F24  1  0.72144620  0.25670594  0.67455375  1
  F  F25  1  0.23103368  0.73117362  0.90704678  1
loop_
_geom_bond_atom_site_label_1
_geom_bond_atom_site_label_2
_geom_bond_distance
_geom_bond_site_symmetry_2
Ba0 F18 2.659162 1_565
Ba0 F19 2.659162 1_655
Ba0 F20 2.782842 1_554
Ba0 F17 2.782842 1_554
Ba0 F22 2.785124 1_555
Ba0 F23 2.785124 1_555
Ba0 F4 3.000047 1_565
Ba0 F4 3.000047 1_655
Ba0 F5 3.021997 1_554
Ba0 F11 3.135655 1_555
Ba0 F12 3.135655 1_555
Ba0 F8 3.256044 1_555
Ba1 F20 2.659162 1_545
Ba1 F17 2.659162 1_455
Ba1 F19 2.782842 1_556
Ba1 F18 2.782842 1_556
Ba1 F21 2.785124 1_555
Ba1 F24 2.785124 1_555
Ba1 F5 3.000047 1_545
Ba1 F5 3.000047 1_455
Ba1 F4 3.021997 1_556
Ba1 F10 3.135655 1_555
Ba1 F25 3.135655 1_555
Ba1 F9 3.256044 1_555
Ba2 F13 2.617365 1_455
Ba2 F16 2.617365 1_545
Ba2 F15 2.790086 1_555
Ba2 F14 2.790086 1_555
Ba2 F23 2.840473 1_555
Ba2 F22 2.840473 1_555
Ba2 F0 2.853302 1_555
Ba2 F9 2.889397 1_555
Ba2 F6 3.040000 1_455
Ba2 F6 3.040000 1_545
Ba3 F14 2.617365 1_565
Ba3 F15 2.617365 1_655
Ba3 F16 2.790086 1_555
Ba3 F13 2.790086 1_555
Ba3 F24 2.840473 1_555
Ba3 F21 2.840473 1_555
Ba3 F1 2.853302 1_555
Ba3 F8 2.889397 1_555
Ba3 F7 3.040000 1_565
Ba3 F7 3.040000 1_655
Ba4 F6 2.643989 1_555
Ba4 F18 2.661938 1_565
Ba4 F19 2.661938 1_655
Ba4 F15 2.727406 1_655
Ba4 F14 2.727406 1_565
Ba4 F25 2.841162 1_654
Ba4 F10 2.841162 1_564
Ba4 F5 2.867434 1_554
Ba4 F0 2.987745 1_565
Ba4 F0 2.987745 1_655
Ba4 F12 3.154977 1_655
Ba4 F11 3.154977 1_565
Ba5 F7 2.643989 1_555
Ba5 F20 2.661938 1_545
Ba5 F17 2.661938 1_455
Ba5 F16 2.727406 1_545
Ba5 F13 2.727406 1_455
Ba5 F12 2.841162 1_546
Ba5 F11 2.841162 1_456
Ba5 F4 2.867434 1_556
Ba5 F1 2.987745 1_545
Ba5 F1 2.987745 1_455
Ba5 F25 3.154977 1_545
Ba5 F10 3.154977 1_455
F0 Zn6 1.977652 1_555
F0 Zn4 2.281809 1_555
F1 Zn6 1.977652 1_556
F1 Zn5 2.281809 1_555
F2 Zn4 2.014947 1_555
F2 Zn0 2.037177 1_455
F2 Zn1 2.037177 1_545
F3 Zn5 2.014947 1_555
F3 Zn0 2.037177 1_565
F3 Zn1 2.037177 1_655
F4 Zn2 1.960733 1_555
F5 Zn3 1.960733 1_555
F6 Zn2 1.947327 1_665
F7 Zn3 1.947327 1_445
F8 Zn0 2.018521 1_555
F8 Zn1 2.018521 1_555
F9 Zn0 2.018521 1_555
F9 Zn1 2.018521 1_555
F10 Zn6 2.040329 1_556
F10 Zn3 2.131266 1_545
F11 Zn6 2.040329 1_555
F11 Zn2 2.131266 1_655
F12 Zn6 2.040329 1_555
F12 Zn2 2.131266 1_565
F13 Zn5 1.999942 1_555
F14 Zn4 1.999942 1_555
F15 Zn4 1.999942 1_555
F16 Zn5 1.999942 1_555
F17 Zn5 2.005757 1_555
F18 Zn4 2.005757 1_555
F19 Zn4 2.005757 1_555
F20 Zn5 2.005757 1_555
F21 Zn3 2.010606 1_455
F21 Zn1 2.024587 1_555
F22 Zn2 2.010606 1_565
F22 Zn1 2.024587 1_555
F23 Zn2 2.010606 1_655
F23 Zn0 2.024587 1_555
F24 Zn3 2.010606 1_545
F24 Zn0 2.024587 1_555
F25 Zn6 2.040329 1_556
F25 Zn3 2.131266 1_455
