# generated using pymatgen
data_Ce(Al5Ru)2
_symmetry_space_group_name_H-M   'P 1'
_cell_length_a   6.83800944
_cell_length_b   6.83800944
_cell_length_c   9.10964405
_cell_angle_alpha   90.00000000
_cell_angle_beta   90.00000000
_cell_angle_gamma   97.27210316
_symmetry_Int_Tables_number   1
_chemical_formula_structural   Ce(Al5Ru)2
_chemical_formula_sum   'Ce2 Al20 Ru4'
_cell_volume   422.52585759
_cell_formula_units_Z   2
loop_
 _symmetry_equiv_pos_site_id
 _symmetry_equiv_pos_as_xyz
  1  'x, y, z'
loop_
 _atom_site_type_symbol
 _atom_site_label
 _atom_site_symmetry_multiplicity
 _atom_site_fract_x
 _atom_site_fract_y
 _atom_site_fract_z
 _atom_site_occupancy
  Ce  Ce0  1  0.87622811  0.12377189  0.75000000  1
  Ce  Ce1  1  0.12377189  0.87622811  0.25000000  1
  Al  Al0  1  0.59220029  0.86164793  0.25000000  1
  Al  Al1  1  0.77922149  0.51853083  0.25000000  1
  Al  Al2  1  0.16052363  0.83947637  0.89876165  1
  Al  Al3  1  0.40779971  0.13835207  0.75000000  1
  Al  Al4  1  0.62268088  0.37731912  0.94862129  1
  Al  Al5  1  0.83947637  0.16052363  0.39876165  1
  Al  Al6  1  0.77223362  0.77223362  0.00000000  1
  Al  Al7  1  0.86164793  0.59220029  0.75000000  1
  Al  Al8  1  0.83947637  0.16052363  0.10123835  1
  Al  Al9  1  0.22077851  0.48146917  0.75000000  1
  Al  Al10  1  0.16052363  0.83947637  0.60123835  1
  Al  Al11  1  0.77223362  0.77223362  0.50000000  1
  Al  Al12  1  0.48146917  0.22077851  0.25000000  1
  Al  Al13  1  0.62268088  0.37731912  0.55137871  1
  Al  Al14  1  0.22776638  0.22776638  0.50000000  1
  Al  Al15  1  0.37731912  0.62268088  0.44862129  1
  Al  Al16  1  0.13835207  0.40779971  0.25000000  1
  Al  Al17  1  0.51853083  0.77922149  0.75000000  1
  Al  Al18  1  0.37731912  0.62268088  0.05137871  1
  Al  Al19  1  0.22776638  0.22776638  0.00000000  1
  Ru  Ru0  1  0.50000000  0.00000000  0.00000000  1
  Ru  Ru1  1  0.50000000  0.00000000  0.50000000  1
  Ru  Ru2  1  0.00000000  0.50000000  0.00000000  1
  Ru  Ru3  1  0.00000000  0.50000000  0.50000000  1
loop_
_geom_bond_atom_site_label_1
_geom_bond_atom_site_label_2
_geom_bond_distance
_geom_bond_site_symmetry_2
Ce0 Ru1 3.459800 1_555
Ce0 Ru0 3.459800 1_556
Ce0 Ru2 3.459800 1_656
Ce0 Ru3 3.459800 1_655
Ce1 Ru0 3.459800 1_565
Ce1 Ru3 3.459800 1_555
Ce1 Ru2 3.459800 1_555
Ce1 Ru1 3.459800 1_565
Al0 Ru1 2.574899 1_565
Al0 Ru0 2.574899 1_565
Al0 Al12 2.659833 1_565
Al0 Al1 2.810678 1_555
Al0 Ce1 3.217258 1_555
Al0 Ce1 3.623621 1_655
Al1 Al16 2.659833 1_655
Al1 Al12 2.690983 1_555
Al1 Ru2 2.744128 1_655
Al1 Ru3 2.744128 1_655
Al1 Al6 2.866963 1_555
Al1 Al11 2.866963 1_555
Al1 Al8 2.873077 1_555
Al1 Al5 2.873077 1_555
Al1 Al4 3.058439 1_554
Al1 Al13 3.058439 1_555
Al1 Ce1 3.174054 1_655
Al2 Ru0 2.607481 1_566
Al2 Ru2 2.607481 1_556
Al2 Al9 2.873077 1_555
Al2 Ce0 3.217393 1_465
Al2 Ce1 3.221817 1_556
Al3 Ru1 2.574899 1_555
Al3 Ru0 2.574899 1_556
Al3 Al9 2.810678 1_555
Al3 Ce0 3.217258 1_555
Al3 Ce0 3.623621 1_455
Al4 Ru0 2.651759 1_556
Al4 Ru2 2.651759 1_656
Al4 Ce0 3.169644 1_555
Al5 Ru1 2.607481 1_555
Al5 Ru3 2.607481 1_655
Al5 Ce1 3.217393 1_645
Al5 Ce0 3.221817 1_555
Al6 Ru2 2.573911 1_655
Al6 Ru0 2.573911 1_565
Al6 Ce0 3.322332 1_564
Al6 Ce1 3.322332 1_655
Al7 Ru2 2.574899 1_656
Al7 Ru3 2.574899 1_655
Al7 Al9 2.659833 1_655
Al7 Ce0 3.217258 1_555
Al7 Ce0 3.623621 1_565
Al8 Ru2 2.607481 1_655
Al8 Ru0 2.607481 1_555
Al8 Ce1 3.217393 1_645
Al8 Ce0 3.221817 1_554
Al9 Ru2 2.744128 1_556
Al9 Ru3 2.744128 1_555
Al9 Ce0 3.174054 1_455
Al10 Ru1 2.607481 1_565
Al10 Ru3 2.607481 1_555
Al10 Al17 2.873077 1_555
Al10 Al9 2.873077 1_555
Al10 Ce0 3.217393 1_465
Al10 Ce1 3.221817 1_555
Al11 Ru3 2.573911 1_655
Al11 Ru1 2.573911 1_565
Al11 Al17 2.866963 1_555
Al11 Ce0 3.322332 1_565
Al11 Ce1 3.322332 1_655
Al12 Ru1 2.744128 1_555
Al12 Ru0 2.744128 1_555
Al12 Al16 2.810678 1_555
Al12 Al14 2.866963 1_555
Al12 Al19 2.866963 1_555
Al12 Al8 2.873077 1_555
Al12 Al5 2.873077 1_555
Al12 Al4 3.058439 1_554
Al12 Al13 3.058439 1_555
Al12 Ce1 3.174054 1_545
Al13 Ru1 2.651759 1_555
Al13 Ru3 2.651759 1_655
Al13 Ce0 3.169644 1_555
Al14 Ru3 2.573911 1_555
Al14 Ru1 2.573911 1_555
Al14 Al9 2.866963 1_555
Al14 Ce1 3.322332 1_545
Al14 Ce0 3.322332 1_455
Al15 Ru1 2.651759 1_565
Al15 Ru3 2.651759 1_555
Al15 Al17 3.058439 1_555
Al15 Al9 3.058439 1_555
Al15 Ce1 3.169644 1_555
Al16 Ru3 2.574899 1_555
Al16 Ru2 2.574899 1_555
Al16 Ce1 3.217258 1_555
Al16 Ce1 3.623621 1_545
Al17 Al3 2.659833 1_565
Al17 Al9 2.690983 1_555
Al17 Ru1 2.744128 1_565
Al17 Ru0 2.744128 1_566
Al17 Al7 2.810678 1_555
Al17 Al6 2.866963 1_556
Al17 Al2 2.873077 1_555
Al17 Al18 3.058439 1_556
Al17 Ce0 3.174054 1_565
Al18 Ru0 2.651759 1_565
Al18 Ru2 2.651759 1_555
Al18 Al9 3.058439 1_554
Al18 Ce1 3.169644 1_555
Al19 Ru2 2.573911 1_555
Al19 Ru0 2.573911 1_555
Al19 Al9 2.866963 1_554
Al19 Ce1 3.322332 1_545
Al19 Ce0 3.322332 1_454
