# generated using pymatgen
data_Ti13Al5(GaIr2)4
_symmetry_space_group_name_H-M   'P 1'
_cell_length_a   8.71202173
_cell_length_b   8.71202069
_cell_length_c   8.71202102
_cell_angle_alpha   59.77117852
_cell_angle_beta   59.77118164
_cell_angle_gamma   59.77118348
_symmetry_Int_Tables_number   1
_chemical_formula_structural   Ti13Al5(GaIr2)4
_chemical_formula_sum   'Ti13 Al5 Ga4 Ir8'
_cell_volume   465.13560881
_cell_formula_units_Z   1
loop_
 _symmetry_equiv_pos_site_id
 _symmetry_equiv_pos_as_xyz
  1  'x, y, z'
loop_
 _atom_site_type_symbol
 _atom_site_label
 _atom_site_symmetry_multiplicity
 _atom_site_fract_x
 _atom_site_fract_y
 _atom_site_fract_z
 _atom_site_occupancy
  Ti  Ti0  1  0.21152772  0.21152772  0.78895762  1
  Ti  Ti1  1  0.78895762  0.21152772  0.21152772  1
  Ti  Ti2  1  0.21152772  0.78895762  0.21152772  1
  Ti  Ti3  1  0.79414984  0.79414984  0.19716741  1
  Ti  Ti4  1  0.19716741  0.79414984  0.79414984  1
  Ti  Ti5  1  0.79414984  0.19716741  0.79414984  1
  Ti  Ti6  1  0.37601475  0.37601475  0.37601475  1
  Ti  Ti7  1  0.37683515  0.87309167  0.37683515  1
  Ti  Ti8  1  0.87309167  0.37683515  0.37683515  1
  Ti  Ti9  1  0.37683515  0.37683515  0.87309167  1
  Ti  Ti10  1  0.84334022  0.47166458  0.84334022  1
  Ti  Ti11  1  0.47166458  0.84334022  0.84334022  1
  Ti  Ti12  1  0.84334022  0.84334022  0.47166458  1
  Al  Al0  1  0.61937979  0.61937979  0.61937979  1
  Al  Al1  1  0.62030294  0.14276985  0.62030294  1
  Al  Al2  1  0.14276985  0.62030294  0.62030294  1
  Al  Al3  1  0.62030294  0.62030294  0.14276985  1
  Al  Al4  1  0.82983165  0.82983165  0.82983165  1
  Ga  Ga0  1  0.15107464  0.15107464  0.15107464  1
  Ga  Ga1  1  0.15311885  0.54239968  0.15311885  1
  Ga  Ga2  1  0.54239968  0.15311885  0.15311885  1
  Ga  Ga3  1  0.15311885  0.15311885  0.54239968  1
  Ir  Ir0  1  0.00193396  0.00193396  0.49964808  1
  Ir  Ir1  1  0.49964808  0.00193396  0.00193396  1
  Ir  Ir2  1  0.00193396  0.49964808  0.00193396  1
  Ir  Ir3  1  0.49956935  0.49956935  0.00193978  1
  Ir  Ir4  1  0.00193978  0.49956935  0.49956935  1
  Ir  Ir5  1  0.49956935  0.00193978  0.49956935  1
  Ir  Ir6  1  0.50066598  0.50066598  0.50066598  1
  Ir  Ir7  1  0.00383645  0.00383645  0.00383645  1
loop_
_geom_bond_atom_site_label_1
_geom_bond_atom_site_label_2
_geom_bond_distance
_geom_bond_site_symmetry_2
Ti0 Ti11 2.807287 1_545
Ti0 Ti10 2.807288 1_455
Ti0 Ti6 2.955554 1_555
Ti0 Ti9 2.983217 1_555
Ti1 Ti12 2.807287 1_545
Ti1 Ti10 2.807287 1_554
Ti1 Ti6 2.955554 1_555
Ti1 Ti8 2.983217 1_555
Ti2 Ti6 2.955554 1_555
Ti2 Ti7 2.983217 1_555
Ti3 Ti8 2.996200 1_555
Ti3 Ti7 2.996200 1_555
Ti4 Ti9 2.996200 1_555
Ti4 Ti7 2.996200 1_555
Ti5 Ti8 2.996200 1_555
Ti5 Ti9 2.996200 1_555
Ti10 Ti5 2.887037 1_555
Ti10 Ti12 3.226840 1_555
Ti10 Ti11 3.226841 1_555
Ti11 Ti2 2.807287 1_556
Ti11 Ti4 2.887037 1_555
Ti11 Ti12 3.226841 1_555
Ti12 Ti2 2.807287 1_655
Ti12 Ti3 2.887037 1_555
Al0 Ir6 2.537726 1_555
Al0 Ir5 2.716310 1_565
Al0 Ir3 2.716310 1_556
Al0 Ir4 2.716310 1_655
Al0 Ti12 2.836687 1_555
Al0 Ti11 2.836687 1_555
Al0 Ti10 2.836687 1_555
Al0 Ti9 2.984254 1_555
Al0 Ti8 2.984254 1_555
Al0 Ti7 2.984254 1_555
Al0 Ti5 3.036839 1_555
Al0 Ti3 3.036839 1_555
Al0 Ti4 3.036839 1_555
Al1 Ir6 2.538484 1_555
Al1 Ir1 2.708613 1_556
Al1 Ir0 2.708613 1_655
Al1 Al4 2.725837 1_545
Al1 Ir5 2.725964 1_555
Al1 Ti11 2.832211 1_545
Al1 Ti12 2.832211 1_545
Al1 Ti5 2.927038 1_555
Al1 Ti1 2.944441 1_555
Al1 Ti0 2.944442 1_555
Al1 Ti8 2.995097 1_555
Al1 Ti9 2.995097 1_555
Al1 Ti6 3.006599 1_555
Al2 Ir6 2.538484 1_555
Al2 Ir0 2.708613 1_565
Al2 Ir2 2.708613 1_556
Al2 Al4 2.725837 1_455
Al2 Ir4 2.725964 1_555
Al2 Ti10 2.832211 1_455
Al2 Ti12 2.832211 1_455
Al2 Ti4 2.927038 1_555
Al2 Ti0 2.944441 1_555
Al2 Ti2 2.944441 1_555
Al2 Ti7 2.995097 1_555
Al2 Ti9 2.995098 1_555
Al2 Ti6 3.006599 1_555
Al3 Ir6 2.538484 1_555
Al3 Ir1 2.708613 1_565
Al3 Ir2 2.708613 1_655
Al3 Al4 2.725837 1_554
Al3 Ir3 2.725964 1_555
Al3 Ti11 2.832211 1_554
Al3 Ti10 2.832211 1_554
Al3 Ti3 2.927038 1_555
Al3 Ti1 2.944441 1_555
Al3 Ti2 2.944442 1_555
Al3 Ti7 2.995097 1_555
Al3 Ti8 2.995098 1_555
Al3 Ti6 3.006599 1_555
Al4 Ir0 2.519680 1_665
Al4 Ir2 2.519680 1_656
Al4 Ir1 2.519680 1_566
Al4 Ti5 2.920391 1_565
Al4 Ti3 2.920391 1_556
Al4 Ti4 2.920391 1_655
Al4 Ti10 3.006453 1_555
Al4 Ti12 3.006453 1_555
Al4 Ti11 3.006454 1_555
Ga0 Ir2 2.520390 1_555
Ga0 Ir0 2.520390 1_555
Ga0 Ir1 2.520390 1_555
Ga0 Ti2 2.727754 1_545
Ga0 Ti0 2.727754 1_554
Ga0 Ti1 2.727754 1_455
Ga0 Ti9 2.811537 1_554
Ga0 Ti7 2.811537 1_545
Ga0 Ti8 2.811537 1_455
Ga1 Ir4 2.518335 1_555
Ga1 Ir3 2.518335 1_555
Ga1 Ir2 2.518548 1_555
Ga1 Ti4 2.733226 1_554
Ga1 Ti3 2.733227 1_455
Ga1 Ti2 2.755679 1_555
Ga1 Ti8 2.784903 1_455
Ga1 Ti9 2.784903 1_554
Ga1 Ti6 2.787703 1_555
Ga2 Ir3 2.518335 1_555
Ga2 Ir5 2.518335 1_555
Ga2 Ir1 2.518548 1_555
Ga2 Ti3 2.733226 1_545
Ga2 Ti5 2.733226 1_554
Ga2 Ti1 2.755679 1_555
Ga2 Ti7 2.784902 1_545
Ga2 Ti9 2.784903 1_554
Ga2 Ti6 2.787703 1_555
Ga3 Ir4 2.518335 1_555
Ga3 Ir5 2.518335 1_555
Ga3 Ir0 2.518548 1_555
Ga3 Ti4 2.733226 1_545
Ga3 Ti5 2.733227 1_455
Ga3 Ti0 2.755679 1_555
Ga3 Ti7 2.784903 1_545
Ga3 Ti8 2.784903 1_455
Ga3 Ti6 2.787703 1_555
Ir0 Ti12 2.545195 1_445
Ir0 Ti8 2.659228 1_455
Ir0 Ti7 2.659228 1_545
Ir0 Ti5 3.061048 1_455
Ir0 Ti4 3.061048 1_545
Ir0 Ti2 3.120998 1_545
Ir0 Ti1 3.120998 1_455
Ir1 Ti11 2.545195 1_544
Ir1 Ti9 2.659228 1_554
Ir1 Ti7 2.659228 1_545
Ir1 Ti5 3.061048 1_554
Ir1 Ti3 3.061048 1_545
Ir1 Ti2 3.120998 1_545
Ir1 Ti0 3.120998 1_554
Ir2 Ti10 2.545195 1_454
Ir2 Ti8 2.659228 1_455
Ir2 Ti9 2.659228 1_554
Ir2 Ti4 3.061048 1_554
Ir2 Ti3 3.061048 1_455
Ir2 Ti1 3.120998 1_455
Ir2 Ti0 3.120998 1_554
Ir3 Ti11 2.525125 1_554
Ir3 Ti10 2.525126 1_554
Ir3 Ti6 2.653361 1_555
Ir3 Ti9 2.667410 1_554
Ir3 Ti2 3.104623 1_555
Ir3 Ti1 3.104623 1_555
Ir3 Ti5 3.181266 1_554
Ir3 Ti4 3.181266 1_554
Ir4 Ti12 2.525125 1_455
Ir4 Ti10 2.525125 1_455
Ir4 Ti6 2.653361 1_555
Ir4 Ti8 2.667410 1_455
Ir4 Ti2 3.104623 1_555
Ir4 Ti0 3.104623 1_555
Ir4 Ti5 3.181266 1_455
Ir4 Ti3 3.181266 1_455
Ir5 Ti11 2.525125 1_545
Ir5 Ti12 2.525126 1_545
Ir5 Ti6 2.653361 1_555
Ir5 Ti7 2.667410 1_545
Ir5 Ti1 3.104623 1_555
Ir5 Ti0 3.104623 1_555
Ir5 Ti4 3.181266 1_545
Ir5 Ti3 3.181266 1_545
Ir6 Ti7 2.641571 1_555
Ir6 Ti9 2.641571 1_555
Ir6 Ti8 2.641571 1_555
Ir6 Ti6 2.664649 1_555
Ir7 Ti0 2.554930 1_554
Ir7 Ti1 2.554930 1_455
Ir7 Ti2 2.554930 1_545
Ir7 Ti3 2.583640 1_445
Ir7 Ti4 2.583640 1_544
Ir7 Ti5 2.583640 1_454
Ir7 Ti10 3.318713 1_454
Ir7 Ti12 3.318713 1_445
Ir7 Ti11 3.318713 1_544
