# generated using pymatgen
data_Li8Hf3MnBr24
_symmetry_space_group_name_H-M   'P 1'
_cell_length_a   6.64867277
_cell_length_b   6.64867371
_cell_length_c   25.70507938
_cell_angle_alpha   90.00000000
_cell_angle_beta   90.00000000
_cell_angle_gamma   120.00000490
_symmetry_Int_Tables_number   1
_chemical_formula_structural   Li8Hf3MnBr24
_chemical_formula_sum   'Li8 Hf3 Mn1 Br24'
_cell_volume   984.05537620
_cell_formula_units_Z   1
loop_
 _symmetry_equiv_pos_site_id
 _symmetry_equiv_pos_as_xyz
  1  'x, y, z'
loop_
 _atom_site_type_symbol
 _atom_site_label
 _atom_site_symmetry_multiplicity
 _atom_site_fract_x
 _atom_site_fract_y
 _atom_site_fract_z
 _atom_site_occupancy
  Li  Li0  1  0.00000000  0.00000000  0.24801635  1
  Li  Li1  1  0.00000000  0.00000000  0.75198365  1
  Li  Li2  1  0.33333300  0.66666700  0.99805949  1
  Li  Li3  1  0.33333300  0.66666700  0.50203101  1
  Li  Li4  1  0.33333300  0.66666700  0.24788928  1
  Li  Li5  1  0.66666700  0.33333300  0.75211072  1
  Li  Li6  1  0.66666700  0.33333300  0.00194051  1
  Li  Li7  1  0.66666700  0.33333300  0.49796899  1
  Hf  Hf0  1  0.00000000  0.00000000  0.50000000  1
  Hf  Hf1  1  0.33333300  0.66666700  0.75061401  1
  Hf  Hf2  1  0.66666700  0.33333300  0.24938599  1
  Mn  Mn0  1  0.00000000  0.00000000  0.00000000  1
  Br  Br0  1  0.34568735  0.01216633  0.30756985  1
  Br  Br1  1  0.33440295  0.98723385  0.80975899  1
  Br  Br2  1  0.00256993  0.30443663  0.05532056  1
  Br  Br3  1  0.99786103  0.31958984  0.55855542  1
  Br  Br4  1  0.98783367  0.33352201  0.30756985  1
  Br  Br5  1  0.01276615  0.34716810  0.80975899  1
  Br  Br6  1  0.34716810  0.33440295  0.19024101  1
  Br  Br7  1  0.33352201  0.34568735  0.69243015  1
  Br  Br8  1  0.31958984  0.32172781  0.44144458  1
  Br  Br9  1  0.30443663  0.30186770  0.94467944  1
  Br  Br10  1  0.67827219  0.99786103  0.44144458  1
  Br  Br11  1  0.30186770  0.99743007  0.05532056  1
  Br  Br12  1  0.32172781  0.00213897  0.55855542  1
  Br  Br13  1  0.69556337  0.69813230  0.05532056  1
  Br  Br14  1  0.68041016  0.67827219  0.55855542  1
  Br  Br15  1  0.66647799  0.65431265  0.30756985  1
  Br  Br16  1  0.65283190  0.66559705  0.80975899  1
  Br  Br17  1  0.98723385  0.65283190  0.19024101  1
  Br  Br18  1  0.01216633  0.66647799  0.69243015  1
  Br  Br19  1  0.00213897  0.68041016  0.44144458  1
  Br  Br20  1  0.99743007  0.69556337  0.94467944  1
  Br  Br21  1  0.69813230  0.00256993  0.94467944  1
  Br  Br22  1  0.66559705  0.01276615  0.19024101  1
  Br  Br23  1  0.65431265  0.98783367  0.69243015  1
loop_
_geom_bond_atom_site_label_1
_geom_bond_atom_site_label_2
_geom_bond_distance
_geom_bond_site_symmetry_2
Br0 Hf2 2.606505 1_555
Br0 Li0 2.728833 1_555
Br0 Li4 2.729145 1_545
Br1 Hf1 2.615131 1_555
Br1 Li5 2.699582 1_565
Br1 Li1 2.710114 1_565
Br2 Mn0 2.466744 1_555
Br2 Li6 2.708581 1_455
Br2 Li2 2.739809 1_554
Br3 Hf0 2.609778 1_655
Br3 Li3 2.695188 1_655
Br3 Li7 2.735652 1_555
Br4 Hf2 2.606500 1_555
Br4 Li0 2.728839 1_655
Br4 Li4 2.729144 1_655
Br5 Hf1 2.615136 1_555
Br5 Li5 2.699582 1_455
Br5 Li1 2.710109 1_555
Br6 Hf2 2.615142 1_555
Br6 Li4 2.699583 1_555
Br6 Li0 2.710111 1_555
Br7 Hf1 2.606511 1_555
Br7 Li1 2.728836 1_555
Br7 Li5 2.729144 1_555
Br8 Hf0 2.609775 1_555
Br8 Li7 2.695188 1_555
Br8 Li3 2.735663 1_555
Br9 Mn0 2.466746 1_556
Br9 Li2 2.708581 1_555
Br9 Li6 2.739814 1_556
Br10 Hf0 2.609773 1_665
Br10 Li7 2.695188 1_565
Br10 Li3 2.735657 1_555
Br11 Mn0 2.466749 1_565
Br11 Li6 2.708581 1_565
Br11 Li2 2.739803 1_554
Br12 Hf0 2.609773 1_555
Br12 Li3 2.695188 1_545
Br12 Li7 2.735657 1_555
Br13 Mn0 2.466746 1_665
Br13 Li6 2.708581 1_555
Br13 Li2 2.739814 1_554
Br14 Hf0 2.609775 1_665
Br14 Li3 2.695188 1_555
Br14 Li7 2.735663 1_555
Br15 Hf2 2.606511 1_555
Br15 Li0 2.728836 1_665
Br15 Li4 2.729144 1_555
Br16 Hf1 2.615142 1_555
Br16 Li5 2.699583 1_555
Br16 Li1 2.710111 1_665
Br17 Hf2 2.615136 1_555
Br17 Li4 2.699582 1_655
Br17 Li0 2.710109 1_665
Br18 Hf1 2.606500 1_555
Br18 Li1 2.728839 1_565
Br18 Li5 2.729144 1_455
Br19 Hf0 2.609778 1_565
Br19 Li7 2.695188 1_455
Br19 Li3 2.735652 1_555
Br20 Mn0 2.466744 1_666
Br20 Li2 2.708581 1_655
Br20 Li6 2.739809 1_556
Br21 Mn0 2.466749 1_656
Br21 Li2 2.708581 1_545
Br21 Li6 2.739803 1_556
Br22 Hf2 2.615131 1_555
Br22 Li4 2.699582 1_545
Br22 Li0 2.710114 1_655
Br23 Hf1 2.606505 1_555
Br23 Li1 2.728833 1_665
Br23 Li5 2.729145 1_565
