# generated using pymatgen
data_VZn3P7N12
_symmetry_space_group_name_H-M   'P 1'
_cell_length_a   7.10208989
_cell_length_b   7.08899482
_cell_length_c   7.10209014
_cell_angle_alpha   109.43388682
_cell_angle_beta   109.50853516
_cell_angle_gamma   109.43388096
_symmetry_Int_Tables_number   1
_chemical_formula_structural   VZn3P7N12
_chemical_formula_sum   'V1 Zn3 P7 N12'
_cell_volume   275.38165330
_cell_formula_units_Z   1
loop_
 _symmetry_equiv_pos_site_id
 _symmetry_equiv_pos_as_xyz
  1  'x, y, z'
loop_
 _atom_site_type_symbol
 _atom_site_label
 _atom_site_symmetry_multiplicity
 _atom_site_fract_x
 _atom_site_fract_y
 _atom_site_fract_z
 _atom_site_occupancy
  V  V0  1  1.00000000  0.33982139  1.00000000  1
  Zn  Zn0  1  0.67675516  0.67639144  0.67675516  1
  Zn  Zn1  1  0.32324484  0.99963528  1.00000000  1
  Zn  Zn2  1  1.00000000  0.99963528  0.32324484  1
  P  P0  1  0.75005151  0.24917920  0.49793101  1
  P  P1  1  0.25212050  0.75124819  0.50206899  1
  P  P2  1  0.50206899  0.75124819  0.25212050  1
  P  P3  1  0.49793101  0.24917920  0.75005151  1
  P  P4  1  0.74787950  0.49912769  0.24994849  1
  P  P5  1  0.24994849  0.49912769  0.74787950  1
  P  P6  1  1.00000000  0.00255210  1.00000000  1
  N  N0  1  0.55888349  0.26821814  0.00000000  1
  N  N1  1  0.44723644  0.44684726  0.71982641  1
  N  N2  1  0.00000000  0.26821814  0.55888349  1
  N  N3  1  0.27258997  0.99961082  0.55276356  1
  N  N4  1  0.71982641  0.44684726  0.44723644  1
  N  N5  1  0.00000000  0.55388159  0.27152220  1
  N  N6  1  0.55276356  0.99961082  0.27258997  1
  N  N7  1  0.44111651  0.70933466  0.44111651  1
  N  N8  1  0.27152220  0.55388159  0.00000000  1
  N  N9  1  0.72847780  0.28235940  0.72847780  1
  N  N10  1  0.72741003  0.72702085  0.28017359  1
  N  N11  1  0.28017359  0.72702085  0.72741003  1
loop_
_geom_bond_atom_site_label_1
_geom_bond_atom_site_label_2
_geom_bond_distance
_geom_bond_site_symmetry_2
P6 Zn0 2.302673 1_545
P6 Zn1 2.302676 1_645
P6 Zn2 2.302676 1_546
P6 V0 2.390900 1_555
N0 P4 1.626419 1_555
N0 P3 1.626419 1_554
N0 Zn1 2.074973 1_544
N1 P5 1.619617 1_555
N1 P3 1.619729 1_555
N1 Zn0 2.073106 1_555
N2 P5 1.626419 1_555
N2 P0 1.626419 1_455
N2 Zn2 2.074973 1_445
N3 P3 1.619617 1_565
N3 P1 1.619728 1_555
N3 Zn2 2.073102 1_455
N4 P4 1.619617 1_555
N4 P0 1.619729 1_555
N4 Zn0 2.073106 1_555
N5 P1 1.641652 1_555
N5 P4 1.641652 1_455
N5 V0 2.018443 1_454
N6 P0 1.619617 1_565
N6 P2 1.619728 1_555
N6 Zn1 2.073102 1_554
N7 P1 1.626419 1_555
N7 P2 1.626419 1_555
N7 Zn0 2.074969 1_555
N8 P2 1.641652 1_555
N8 P5 1.641652 1_554
N8 V0 2.018443 1_454
N9 P3 1.641652 1_555
N9 P0 1.641652 1_555
N9 V0 2.018443 1_555
N10 P2 1.619617 1_555
N10 P4 1.619728 1_555
N10 Zn2 2.073102 1_555
N11 P1 1.619618 1_555
N11 P5 1.619729 1_555
N11 Zn1 2.073102 1_555
