# generated using pymatgen
data_Er(FeSn)6
_symmetry_space_group_name_H-M   'P 1'
_cell_length_a   19.20399984
_cell_length_b   19.20399984
_cell_length_c   5.41601900
_cell_angle_alpha   90.00000000
_cell_angle_beta   90.00000000
_cell_angle_gamma   153.03453401
_symmetry_Int_Tables_number   1
_chemical_formula_structural   Er(FeSn)6
_chemical_formula_sum   'Er4 Fe24 Sn24'
_cell_volume   905.72469506
_cell_formula_units_Z   4
loop_
 _symmetry_equiv_pos_site_id
 _symmetry_equiv_pos_as_xyz
  1  'x, y, z'
loop_
 _atom_site_type_symbol
 _atom_site_label
 _atom_site_symmetry_multiplicity
 _atom_site_fract_x
 _atom_site_fract_y
 _atom_site_fract_z
 _atom_site_occupancy
  Er  Er0  1  0.18998800  0.81001200  0.25000000  1
  Er  Er1  1  0.81001200  0.18998800  0.75000000  1
  Er  Er2  1  0.93680500  0.06319500  0.25000000  1
  Er  Er3  1  0.06319500  0.93680500  0.75000000  1
  Fe  Fe0  1  0.50000000  0.00000000  0.50000000  1
  Fe  Fe1  1  0.00000000  0.50000000  0.50000000  1
  Fe  Fe2  1  0.50000000  0.00000000  0.00000000  1
  Fe  Fe3  1  0.00000000  0.50000000  0.00000000  1
  Fe  Fe4  1  0.75415000  0.75415000  0.50000000  1
  Fe  Fe5  1  0.75415000  0.75415000  0.00000000  1
  Fe  Fe6  1  0.24585000  0.24585000  0.50000000  1
  Fe  Fe7  1  0.24585000  0.24585000  0.00000000  1
  Fe  Fe8  1  0.56459300  0.93976600  0.25000000  1
  Fe  Fe9  1  0.93976600  0.56459300  0.75000000  1
  Fe  Fe10  1  0.43540700  0.06023400  0.75000000  1
  Fe  Fe11  1  0.06023400  0.43540700  0.25000000  1
  Fe  Fe12  1  0.30796800  0.18267100  0.25000000  1
  Fe  Fe13  1  0.18267100  0.30796800  0.75000000  1
  Fe  Fe14  1  0.69203200  0.81732900  0.75000000  1
  Fe  Fe15  1  0.81732900  0.69203200  0.25000000  1
  Fe  Fe16  1  0.62961400  0.87884200  0.49879200  1
  Fe  Fe17  1  0.87884200  0.62961400  0.50120800  1
  Fe  Fe18  1  0.62961400  0.87884200  0.00120800  1
  Fe  Fe19  1  0.87884200  0.62961400  0.99879200  1
  Fe  Fe20  1  0.37038600  0.12115800  0.50120800  1
  Fe  Fe21  1  0.12115800  0.37038600  0.49879200  1
  Fe  Fe22  1  0.37038600  0.12115800  0.99879200  1
  Fe  Fe23  1  0.12115800  0.37038600  0.00120800  1
  Sn  Sn0  1  0.76898200  0.23101800  0.25000000  1
  Sn  Sn1  1  0.23101800  0.76898200  0.75000000  1
  Sn  Sn2  1  0.27309100  0.72690900  0.25000000  1
  Sn  Sn3  1  0.72690900  0.27309100  0.75000000  1
  Sn  Sn4  1  0.85285500  0.14714500  0.25000000  1
  Sn  Sn5  1  0.14714500  0.85285500  0.75000000  1
  Sn  Sn6  1  0.35538800  0.64461200  0.25000000  1
  Sn  Sn7  1  0.64461200  0.35538800  0.75000000  1
  Sn  Sn8  1  0.10532400  0.89467600  0.25000000  1
  Sn  Sn9  1  0.89467600  0.10532400  0.75000000  1
  Sn  Sn10  1  0.60386900  0.39613100  0.25000000  1
  Sn  Sn11  1  0.39613100  0.60386900  0.75000000  1
  Sn  Sn12  1  0.52068900  0.47931100  0.25000000  1
  Sn  Sn13  1  0.47931100  0.52068900  0.75000000  1
  Sn  Sn14  1  0.02101200  0.97898800  0.25000000  1
  Sn  Sn15  1  0.97898800  0.02101200  0.75000000  1
  Sn  Sn16  1  0.84991900  0.47642800  0.25000000  1
  Sn  Sn17  1  0.47642800  0.84991900  0.75000000  1
  Sn  Sn18  1  0.15008100  0.52357200  0.75000000  1
  Sn  Sn19  1  0.52357200  0.15008100  0.25000000  1
  Sn  Sn20  1  0.60126300  0.72526500  0.25000000  1
  Sn  Sn21  1  0.72526500  0.60126300  0.75000000  1
  Sn  Sn22  1  0.39873700  0.27473500  0.75000000  1
  Sn  Sn23  1  0.27473500  0.39873700  0.25000000  1
loop_
_geom_bond_atom_site_label_1
_geom_bond_atom_site_label_2
_geom_bond_distance
_geom_bond_site_symmetry_2
Er0 Sn19 3.018683 1_565
Er0 Sn16 3.018683 1_455
Er0 Sn2 3.103854 1_555
Er0 Sn1 3.111546 1_554
Er0 Sn1 3.111546 1_555
Er0 Sn5 3.145448 1_554
Er0 Sn5 3.145448 1_555
Er0 Sn8 3.162157 1_555
Er0 Fe3 3.445168 1_555
Er0 Fe1 3.445168 1_555
Er0 Fe0 3.445168 1_565
Er0 Fe2 3.445168 1_565
Er0 Fe10 3.502322 1_564
Er0 Fe10 3.502322 1_565
Er0 Fe9 3.502322 1_455
Er0 Fe9 3.502322 1_454
Er0 Fe20 3.557630 1_565
Er0 Fe22 3.557630 1_564
Er0 Fe17 3.557630 1_455
Er0 Fe19 3.557630 1_454
Er1 Sn18 3.018683 1_655
Er1 Sn17 3.018683 1_545
Er1 Sn3 3.103854 1_555
Er1 Sn0 3.111546 1_555
Er1 Sn0 3.111546 1_556
Er1 Sn4 3.145448 1_556
Er1 Sn4 3.145448 1_555
Er1 Sn9 3.162157 1_555
Er1 Fe3 3.445168 1_656
Er1 Fe1 3.445168 1_655
Er1 Fe2 3.445168 1_556
Er1 Fe0 3.445168 1_555
Er1 Fe11 3.502322 1_655
Er1 Fe11 3.502322 1_656
Er1 Fe8 3.502322 1_545
Er1 Fe8 3.502322 1_546
Er1 Fe23 3.557630 1_656
Er1 Fe21 3.557630 1_655
Er1 Fe18 3.557630 1_546
Er1 Fe16 3.557630 1_545
Er2 Sn23 3.015772 1_655
Er2 Sn20 3.015772 1_545
Er2 Sn9 3.131965 1_554
Er2 Sn9 3.131965 1_555
Er2 Sn15 3.132979 1_554
Er2 Sn15 3.132979 1_555
Er2 Sn4 3.135489 1_555
Er2 Sn14 3.145088 1_645
Er2 Fe16 3.452790 1_545
Er2 Fe18 3.452790 1_545
Er2 Fe21 3.452790 1_655
Er2 Fe23 3.452790 1_655
Er2 Fe13 3.487080 1_655
Er2 Fe13 3.487080 1_654
Er2 Fe14 3.487080 1_545
Er2 Fe14 3.487080 1_544
Er2 Fe7 3.500177 1_655
Er2 Fe6 3.500177 1_655
Er2 Fe5 3.500177 1_545
Er2 Fe4 3.500177 1_545
Er3 Sn22 3.015772 1_565
Er3 Sn21 3.015772 1_455
Er3 Sn8 3.131965 1_555
Er3 Sn8 3.131965 1_556
Er3 Sn14 3.132979 1_556
Er3 Sn14 3.132979 1_555
Er3 Sn5 3.135489 1_555
Er3 Sn15 3.145088 1_465
Er3 Fe19 3.452790 1_455
Er3 Fe17 3.452790 1_455
Er3 Fe22 3.452790 1_565
Er3 Fe20 3.452790 1_565
Er3 Fe12 3.487080 1_566
Er3 Fe12 3.487080 1_565
Er3 Fe15 3.487080 1_456
Er3 Fe15 3.487080 1_455
Er3 Fe6 3.500177 1_565
Er3 Fe7 3.500177 1_566
Er3 Fe4 3.500177 1_455
Er3 Fe5 3.500177 1_456
Fe0 Fe10 2.695884 1_555
Fe0 Fe8 2.695884 1_545
Fe0 Fe2 2.708010 1_555
Fe0 Fe2 2.708010 1_556
Fe0 Sn0 2.710695 1_555
Fe0 Sn1 2.710695 1_545
Fe0 Sn3 2.754820 1_555
Fe0 Sn2 2.754820 1_545
Fe0 Sn17 2.831852 1_545
Fe0 Sn19 2.831852 1_555
Fe1 Fe11 2.695884 1_555
Fe1 Fe9 2.695884 1_455
Fe1 Fe3 2.708010 1_556
Fe1 Fe3 2.708010 1_555
Fe1 Sn1 2.710695 1_555
Fe1 Sn0 2.710695 1_455
Fe1 Sn2 2.754820 1_555
Fe1 Sn3 2.754820 1_455
Fe1 Sn16 2.831852 1_455
Fe1 Sn18 2.831852 1_555
Fe2 Fe8 2.695884 1_545
Fe2 Sn0 2.710695 1_555
Fe2 Sn1 2.710695 1_544
Fe2 Sn3 2.754820 1_554
Fe2 Sn2 2.754820 1_545
Fe2 Sn17 2.831852 1_544
Fe2 Sn19 2.831852 1_555
Fe3 Fe9 2.695884 1_454
Fe3 Sn1 2.710695 1_554
Fe3 Sn0 2.710695 1_455
Fe3 Sn2 2.754820 1_555
Fe3 Sn3 2.754820 1_454
Fe3 Sn16 2.831852 1_455
Fe3 Sn18 2.831852 1_554
Fe4 Sn15 2.701131 1_565
Fe4 Sn14 2.701131 1_655
Fe4 Fe5 2.708010 1_556
Fe4 Fe5 2.708010 1_555
Fe4 Sn12 2.758643 1_555
Fe4 Sn13 2.758643 1_555
Fe4 Sn21 2.803251 1_555
Fe4 Sn20 2.803251 1_555
Fe5 Sn15 2.701131 1_564
Fe5 Sn14 2.701131 1_655
Fe5 Sn13 2.758643 1_554
Fe5 Sn12 2.758643 1_555
Fe5 Sn20 2.803251 1_555
Fe5 Sn21 2.803251 1_554
Fe6 Sn14 2.701131 1_545
Fe6 Sn15 2.701131 1_455
Fe6 Fe7 2.708010 1_556
Fe6 Fe7 2.708010 1_555
Fe6 Sn12 2.758643 1_555
Fe6 Sn13 2.758643 1_555
Fe6 Sn23 2.803251 1_555
Fe6 Sn22 2.803251 1_555
Fe7 Sn14 2.701131 1_545
Fe7 Sn15 2.701131 1_454
Fe7 Sn13 2.758643 1_554
Fe7 Sn12 2.758643 1_555
Fe7 Sn23 2.803251 1_555
Fe7 Sn22 2.803251 1_554
Fe8 Sn4 2.684477 1_565
Fe8 Sn2 2.693823 1_555
Fe8 Sn0 2.748863 1_565
Fe8 Sn6 2.770549 1_555
Fe8 Sn17 2.823044 1_554
Fe8 Sn17 2.823044 1_555
Fe9 Sn5 2.684477 1_655
Fe9 Sn3 2.693823 1_555
Fe9 Sn1 2.748863 1_655
Fe9 Sn7 2.770549 1_555
Fe9 Sn16 2.823044 1_556
Fe9 Sn16 2.823044 1_555
Fe10 Sn5 2.684477 1_545
Fe10 Sn3 2.693823 1_555
Fe10 Fe2 2.695884 1_556
Fe10 Fe22 2.710692 1_555
Fe10 Fe20 2.710692 1_555
Fe10 Sn1 2.748863 1_545
Fe10 Sn7 2.770549 1_555
Fe10 Sn19 2.823044 1_555
Fe10 Sn19 2.823044 1_556
Fe11 Sn4 2.684477 1_455
Fe11 Sn2 2.693823 1_555
Fe11 Fe3 2.695884 1_555
Fe11 Fe21 2.710692 1_555
Fe11 Fe23 2.710692 1_555
Fe11 Sn0 2.748863 1_455
Fe11 Sn6 2.770549 1_555
Fe11 Sn18 2.823044 1_555
Fe11 Sn18 2.823044 1_554
Fe12 Fe20 2.684671 1_555
Fe12 Fe22 2.684671 1_554
Fe12 Sn14 2.691531 1_545
Fe12 Fe6 2.703411 1_555
Fe12 Fe7 2.703411 1_555
Fe12 Sn8 2.714137 1_545
Fe12 Sn10 2.751652 1_555
Fe12 Sn12 2.767189 1_555
Fe12 Sn22 2.829143 1_554
Fe12 Sn22 2.829143 1_555
Fe13 Fe23 2.684671 1_556
Fe13 Fe21 2.684671 1_555
Fe13 Sn15 2.691531 1_455
Fe13 Fe7 2.703411 1_556
Fe13 Fe6 2.703411 1_555
Fe13 Sn9 2.714137 1_455
Fe13 Sn11 2.751652 1_555
Fe13 Sn13 2.767189 1_555
Fe13 Sn23 2.829143 1_556
Fe13 Sn23 2.829143 1_555
Fe14 Fe18 2.684671 1_556
Fe14 Fe16 2.684671 1_555
Fe14 Sn15 2.691531 1_565
Fe14 Fe5 2.703411 1_556
Fe14 Fe4 2.703411 1_555
Fe14 Sn9 2.714137 1_565
Fe14 Sn11 2.751652 1_555
Fe14 Sn13 2.767189 1_555
Fe14 Sn20 2.829143 1_555
Fe14 Sn20 2.829143 1_556
Fe15 Fe17 2.684671 1_555
Fe15 Fe19 2.684671 1_554
Fe15 Sn14 2.691531 1_655
Fe15 Fe5 2.703411 1_555
Fe15 Fe4 2.703411 1_555
Fe15 Sn8 2.714137 1_655
Fe15 Sn10 2.751652 1_555
Fe15 Sn12 2.767189 1_555
Fe15 Sn21 2.829143 1_554
Fe15 Sn21 2.829143 1_555
Fe16 Sn9 2.685886 1_565
Fe16 Fe18 2.694924 1_555
Fe16 Fe8 2.710692 1_555
Fe16 Sn4 2.714338 1_565
Fe16 Fe18 2.721095 1_556
Fe16 Sn6 2.748890 1_555
Fe16 Sn11 2.763022 1_555
Fe16 Sn17 2.810877 1_555
Fe16 Sn20 2.819231 1_555
Fe17 Sn8 2.685886 1_655
Fe17 Fe19 2.694924 1_555
Fe17 Fe9 2.710692 1_555
Fe17 Sn5 2.714338 1_655
Fe17 Fe19 2.721095 1_554
Fe17 Sn7 2.748890 1_555
Fe17 Sn10 2.763022 1_555
Fe17 Sn16 2.810877 1_555
Fe17 Sn21 2.819231 1_555
Fe18 Sn9 2.685886 1_564
Fe18 Fe8 2.710692 1_555
Fe18 Sn4 2.714338 1_565
Fe18 Sn6 2.748890 1_555
Fe18 Sn11 2.763022 1_554
Fe18 Sn17 2.810877 1_554
Fe18 Sn20 2.819231 1_555
Fe19 Sn8 2.685886 1_656
Fe19 Fe9 2.710692 1_555
Fe19 Sn5 2.714338 1_655
Fe19 Sn7 2.748890 1_555
Fe19 Sn10 2.763022 1_556
Fe19 Sn16 2.810877 1_556
Fe19 Sn21 2.819231 1_555
Fe20 Sn8 2.685886 1_545
Fe20 Fe22 2.694924 1_555
Fe20 Sn5 2.714338 1_545
Fe20 Fe22 2.721095 1_554
Fe20 Sn7 2.748890 1_555
Fe20 Sn10 2.763022 1_555
Fe20 Sn19 2.810877 1_555
Fe20 Sn22 2.819231 1_555
Fe21 Sn9 2.685886 1_455
Fe21 Fe23 2.694924 1_555
Fe21 Sn4 2.714338 1_455
Fe21 Fe23 2.721095 1_556
Fe21 Sn6 2.748890 1_555
Fe21 Sn11 2.763022 1_555
Fe21 Sn18 2.810877 1_555
Fe21 Sn23 2.819231 1_555
Fe22 Sn8 2.685886 1_546
Fe22 Sn5 2.714338 1_545
Fe22 Sn7 2.748890 1_555
Fe22 Sn10 2.763022 1_556
Fe22 Sn19 2.810877 1_556
Fe22 Sn22 2.819231 1_555
Fe23 Sn9 2.685886 1_454
Fe23 Sn4 2.714338 1_455
Fe23 Sn6 2.748890 1_555
Fe23 Sn11 2.763022 1_554
Fe23 Sn18 2.810877 1_554
Fe23 Sn23 2.819231 1_555
Sn16 Sn19 2.922409 1_555
Sn17 Sn18 2.922409 1_555
Sn20 Sn23 2.924030 1_555
Sn21 Sn22 2.924030 1_555
