# generated using pymatgen
data_MnAg3(NO3)8
_symmetry_space_group_name_H-M   'P 1'
_cell_length_a   7.77870785
_cell_length_b   7.77870785
_cell_length_c   7.77870785
_cell_angle_alpha   90.27813910
_cell_angle_beta   90.27813910
_cell_angle_gamma   90.27813910
_symmetry_Int_Tables_number   1
_chemical_formula_structural   MnAg3(NO3)8
_chemical_formula_sum   'Mn1 Ag3 N8 O24'
_cell_volume   470.65966359
_cell_formula_units_Z   1
loop_
 _symmetry_equiv_pos_site_id
 _symmetry_equiv_pos_as_xyz
  1  'x, y, z'
loop_
 _atom_site_type_symbol
 _atom_site_label
 _atom_site_symmetry_multiplicity
 _atom_site_fract_x
 _atom_site_fract_y
 _atom_site_fract_z
 _atom_site_occupancy
  Mn  Mn0  1  0.00000000  0.00000000  0.00000000  1
  Ag  Ag0  1  0.50000000  0.50000000  0.00000000  1
  Ag  Ag1  1  0.00000000  0.50000000  0.50000000  1
  Ag  Ag2  1  0.50000000  0.00000000  0.50000000  1
  N  N0  1  0.29917337  0.12280150  0.80898398  1
  N  N1  1  0.80898398  0.29917337  0.12280150  1
  N  N2  1  0.12280150  0.80898398  0.29917337  1
  N  N3  1  0.66971758  0.66971758  0.66971758  1
  N  N4  1  0.70082663  0.87719850  0.19101602  1
  N  N5  1  0.19101602  0.70082663  0.87719850  1
  N  N6  1  0.87719850  0.19101602  0.70082663  1
  N  N7  1  0.33028242  0.33028242  0.33028242  1
  O  O0  1  0.41758560  0.22692781  0.80000807  1
  O  O1  1  0.80000807  0.41758560  0.22692781  1
  O  O2  1  0.22692781  0.80000807  0.41758560  1
  O  O3  1  0.20751093  0.12679690  0.95078432  1
  O  O4  1  0.26286928  0.01566835  0.69617711  1
  O  O5  1  0.69617711  0.26286928  0.01566835  1
  O  O6  1  0.68582757  0.54819599  0.77460705  1
  O  O7  1  0.12679690  0.95078432  0.20751093  1
  O  O8  1  0.77460705  0.68582757  0.54819599  1
  O  O9  1  0.95078432  0.20751093  0.12679690  1
  O  O10  1  0.54819599  0.77460705  0.68582757  1
  O  O11  1  0.01566835  0.69617711  0.26286928  1
  O  O12  1  0.58241440  0.77307219  0.19999193  1
  O  O13  1  0.19999193  0.58241440  0.77307219  1
  O  O14  1  0.77307219  0.19999193  0.58241440  1
  O  O15  1  0.79248907  0.87320310  0.04921568  1
  O  O16  1  0.73713072  0.98433165  0.30382289  1
  O  O17  1  0.30382289  0.73713072  0.98433165  1
  O  O18  1  0.31417243  0.45180401  0.22539295  1
  O  O19  1  0.87320310  0.04921568  0.79248907  1
  O  O20  1  0.22539295  0.31417243  0.45180401  1
  O  O21  1  0.04921568  0.79248907  0.87320310  1
  O  O22  1  0.45180401  0.22539295  0.31417243  1
  O  O23  1  0.98433165  0.30382289  0.73713072  1
loop_
_geom_bond_atom_site_label_1
_geom_bond_atom_site_label_2
_geom_bond_distance
_geom_bond_site_symmetry_2
Mn0 O7 1.928503 1_545
Mn0 O9 1.928503 1_455
Mn0 O3 1.928503 1_554
Mn0 O19 1.928503 1_454
Mn0 O21 1.928503 1_544
Mn0 O15 1.928503 1_445
Ag0 O6 2.308611 1_554
Ag0 O18 2.308611 1_555
Ag0 O5 2.402850 1_555
Ag0 O17 2.402850 1_554
Ag0 O12 2.699655 1_555
Ag0 O0 2.699655 1_554
Ag1 O8 2.308611 1_455
Ag1 O20 2.308611 1_555
Ag1 O11 2.402850 1_555
Ag1 O23 2.402850 1_455
Ag1 O13 2.699655 1_555
Ag1 O1 2.699655 1_455
Ag2 O10 2.308611 1_545
Ag2 O22 2.308611 1_555
Ag2 O4 2.402850 1_555
Ag2 O16 2.402850 1_545
Ag2 O14 2.699655 1_555
Ag2 O2 2.699655 1_545
N0 O0 1.226078 1_555
N0 O4 1.237916 1_555
N0 O3 1.316638 1_555
N1 O1 1.226078 1_555
N1 O5 1.237916 1_555
N1 O9 1.316638 1_555
N2 O2 1.226078 1_555
N2 O11 1.237916 1_555
N2 O7 1.316638 1_555
N3 O6 1.258017 1_555
N3 O8 1.258017 1_555
N3 O10 1.258017 1_555
N4 O12 1.226078 1_555
N4 O16 1.237916 1_555
N4 O15 1.316638 1_555
N5 O13 1.226078 1_555
N5 O17 1.237916 1_555
N5 O21 1.316638 1_555
N6 O14 1.226078 1_555
N6 O23 1.237916 1_555
N6 O19 1.316638 1_555
N7 O18 1.258017 1_555
N7 O20 1.258017 1_555
N7 O22 1.258017 1_555
