# generated using pymatgen
data_Cs2VAuS4
_symmetry_space_group_name_H-M   'P 1'
_cell_length_a   14.19516250
_cell_length_b   12.62287025
_cell_length_c   7.64802153
_cell_angle_alpha   85.14939344
_cell_angle_beta   62.38135557
_cell_angle_gamma   32.46925578
_symmetry_Int_Tables_number   1
_chemical_formula_structural   Cs2VAuS4
_chemical_formula_sum   'Cs4 V2 Au2 S8'
_cell_volume   498.43457000
_cell_formula_units_Z   2
loop_
 _symmetry_equiv_pos_site_id
 _symmetry_equiv_pos_as_xyz
  1  'x, y, z'
loop_
 _atom_site_type_symbol
 _atom_site_label
 _atom_site_symmetry_multiplicity
 _atom_site_fract_x
 _atom_site_fract_y
 _atom_site_fract_z
 _atom_site_occupancy
  Cs  Cs0  1  0.67887771  0.67887771  0.32112229  1
  Cs  Cs1  1  0.32112229  0.32112229  0.67887771  1
  Cs  Cs2  1  0.92887771  0.92887771  0.57112229  1
  Cs  Cs3  1  0.57112229  0.57112229  0.92887771  1
  V  V0  1  0.75000000  0.75000000  0.75000000  1
  V  V1  1  0.50000000  0.50000000  0.50000000  1
  Au  Au0  1  0.00000000  0.00000000  0.00000000  1
  Au  Au1  1  0.25000000  0.25000000  0.25000000  1
  S  S0  1  0.39739176  0.99812441  0.91909983  1
  S  S1  1  0.68538600  0.91909983  0.99812441  1
  S  S2  1  0.91909983  0.68538600  0.39739176  1
  S  S3  1  0.99812441  0.39739176  0.68538600  1
  S  S4  1  0.25187559  0.85260824  0.56461400  1
  S  S5  1  0.56461400  0.33090017  0.25187559  1
  S  S6  1  0.33090017  0.56461400  0.85260824  1
  S  S7  1  0.85260824  0.25187559  0.33090017  1
loop_
_geom_bond_atom_site_label_1
_geom_bond_atom_site_label_2
_geom_bond_distance
_geom_bond_site_symmetry_2
Cs0 S3 3.482024 1_554
Cs0 S0 3.482037 1_555
Cs0 S7 3.579543 1_555
Cs0 S4 3.579546 1_555
Cs0 S1 3.781534 1_554
Cs0 S2 3.781543 1_555
Cs0 S3 3.850639 1_465
Cs0 S0 3.850643 1_644
Cs1 S1 3.482025 1_455
Cs1 S2 3.482029 1_545
Cs1 S6 3.579520 1_555
Cs1 S5 3.579527 1_555
Cs1 S3 3.781515 1_455
Cs1 S0 3.781523 1_545
Cs1 S1 3.850632 1_544
Cs1 S2 3.850645 1_456
Cs2 S5 3.482025 1_655
Cs2 S6 3.482029 1_565
Cs2 S2 3.579520 1_555
Cs2 S1 3.579527 1_555
Cs2 S4 3.781515 1_655
Cs2 S7 3.781523 1_565
Cs2 S5 3.850632 1_566
Cs2 S6 3.850645 1_654
Cs3 S4 3.482024 1_556
Cs3 S7 3.482037 1_555
Cs3 S0 3.579543 1_555
Cs3 S3 3.579546 1_555
Cs3 S5 3.781534 1_556
Cs3 S6 3.781543 1_555
Cs3 S4 3.850639 1_645
Cs3 S7 3.850643 1_466
Au0 S7 2.473388 1_455
Au0 S4 2.473399 1_544
Au0 S6 2.473404 1_544
Au0 S5 2.473408 1_455
Au0 V1 2.857136 1_455
Au0 V1 2.857136 1_544
Au1 S0 2.473388 1_544
Au1 S3 2.473399 1_455
Au1 S2 2.473404 1_455
Au1 S1 2.473408 1_544
Au1 V0 2.857136 1_455
Au1 V0 2.857136 1_544
S0 V0 2.183166 1_555
S1 V0 2.183188 1_555
S2 V0 2.183177 1_555
S3 V0 2.183171 1_555
S4 V1 2.183171 1_555
S5 V1 2.183188 1_555
S6 V1 2.183177 1_555
S7 V1 2.183166 1_555
