# generated using pymatgen
data_K6ScAlAs4
_symmetry_space_group_name_H-M   'P 1'
_cell_length_a   9.03155876
_cell_length_b   9.03155856
_cell_length_c   9.03155823
_cell_angle_alpha   136.87076835
_cell_angle_beta   127.80077750
_cell_angle_gamma   69.95662587
_symmetry_Int_Tables_number   1
_chemical_formula_structural   K6ScAlAs4
_chemical_formula_sum   'K6 Sc1 Al1 As4'
_cell_volume   390.41908802
_cell_formula_units_Z   1
loop_
 _symmetry_equiv_pos_site_id
 _symmetry_equiv_pos_as_xyz
  1  'x, y, z'
loop_
 _atom_site_type_symbol
 _atom_site_label
 _atom_site_symmetry_multiplicity
 _atom_site_fract_x
 _atom_site_fract_y
 _atom_site_fract_z
 _atom_site_occupancy
  K  K0  1  0.00911036  0.80264821  0.18539535  1
  K  K1  1  0.50000000  0.75000000  0.25000000  1
  K  K2  1  0.61725386  0.32371600  0.31460465  1
  K  K3  1  0.38274614  0.69735179  0.70646314  1
  K  K4  1  0.50000000  0.25000000  0.75000000  1
  K  K5  1  0.99088964  0.17628400  0.79353686  1
  Sc  Sc0  1  0.00000000  0.25000000  0.25000000  1
  Al  Al0  1  0.00000000  0.75000000  0.75000000  1
  As  As0  1  0.08880466  0.41794535  0.69576233  1
  As  As1  1  0.91119534  0.60695567  0.32913969  1
  As  As2  1  0.27781699  0.08205465  0.17086031  1
  As  As3  1  0.72218301  0.89304433  0.80423767  1
loop_
_geom_bond_atom_site_label_1
_geom_bond_atom_site_label_2
_geom_bond_distance
_geom_bond_site_symmetry_2
K0 Sc0 3.614018 1_565
K2 Sc0 3.614007 1_655
K3 Sc0 3.614010 1_555
K5 Sc0 3.614021 1_656
Al0 As1 2.562353 1_455
Al0 As0 2.562353 1_555
Al0 As2 2.562354 1_566
Al0 As3 2.562354 1_455
Al0 K3 3.549188 1_555
Al0 K2 3.549191 1_455
Al0 K5 3.549200 1_465
Al0 K0 3.549202 1_556
As0 Sc0 2.667300 1_555
As0 K1 3.282824 1_556
As0 K2 3.308907 1_455
As0 K4 3.365378 1_555
As0 K5 3.379194 1_455
As0 K0 3.450550 1_556
As0 K0 3.732631 1_545
As1 Sc0 2.667287 1_655
As1 K1 3.282829 1_555
As1 K3 3.308906 1_655
As1 K4 3.365373 1_554
As1 K0 3.379201 1_655
As1 K5 3.450556 1_565
As1 K5 3.732631 1_554
As2 Sc0 2.667296 1_555
As2 K1 3.282819 1_545
As2 K5 3.308920 1_454
As2 K4 3.365370 1_555
As2 K2 3.379214 1_555
As2 K3 3.450544 1_544
As2 K3 3.732632 1_555
As3 Sc0 2.667292 1_666
As3 K1 3.282815 1_555
As3 K0 3.308926 1_656
As3 K4 3.365362 1_565
As3 K3 3.379220 1_555
As3 K2 3.450556 1_555
As3 K2 3.732625 1_566
