# generated using pymatgen
data_In2Pd2O7
_symmetry_space_group_name_H-M   'P 1'
_cell_length_a   7.03834076
_cell_length_b   7.03834071
_cell_length_c   7.03834002
_cell_angle_alpha   59.99999874
_cell_angle_beta   59.99999901
_cell_angle_gamma   59.99999647
_symmetry_Int_Tables_number   1
_chemical_formula_structural   In2Pd2O7
_chemical_formula_sum   'In4 Pd4 O14'
_cell_volume   246.54477448
_cell_formula_units_Z   2
loop_
 _symmetry_equiv_pos_site_id
 _symmetry_equiv_pos_as_xyz
  1  'x, y, z'
loop_
 _atom_site_type_symbol
 _atom_site_label
 _atom_site_symmetry_multiplicity
 _atom_site_fract_x
 _atom_site_fract_y
 _atom_site_fract_z
 _atom_site_occupancy
  In  In0  1  0.12500000  0.12500000  0.62500000  1
  In  In1  1  0.12500000  0.62500000  0.12500000  1
  In  In2  1  0.62500000  0.12500000  0.12500000  1
  In  In3  1  0.12500000  0.12500000  0.12500000  1
  Pd  Pd0  1  0.62500000  0.62500000  0.62500000  1
  Pd  Pd1  1  0.12500000  0.62500000  0.62500000  1
  Pd  Pd2  1  0.62500000  0.12500000  0.62500000  1
  Pd  Pd3  1  0.62500000  0.62500000  0.12500000  1
  O  O0  1  0.28368793  0.71631207  0.71631207  1
  O  O1  1  0.53368793  0.96631207  0.96631207  1
  O  O2  1  0.28368793  0.28368793  0.71631207  1
  O  O3  1  0.71631207  0.28368793  0.71631207  1
  O  O4  1  0.28368793  0.71631207  0.28368793  1
  O  O5  1  0.00000000  0.00000000  0.00000000  1
  O  O6  1  0.71631207  0.71631207  0.28368793  1
  O  O7  1  0.96631207  0.53368793  0.96631207  1
  O  O8  1  0.96631207  0.96631207  0.53368793  1
  O  O9  1  0.25000000  0.25000000  0.25000000  1
  O  O10  1  0.53368793  0.53368793  0.96631207  1
  O  O11  1  0.53368793  0.96631207  0.53368793  1
  O  O12  1  0.71631207  0.28368793  0.28368793  1
  O  O13  1  0.96631207  0.53368793  0.53368793  1
loop_
_geom_bond_atom_site_label_1
_geom_bond_atom_site_label_2
_geom_bond_distance
_geom_bond_site_symmetry_2
In0 O9 2.155043 1_555
In0 O5 2.155043 1_556
In0 O13 2.364544 1_455
In0 O0 2.364544 1_545
In0 O11 2.364544 1_545
In0 O3 2.364544 1_455
In0 O2 2.364544 1_555
In0 O8 2.364544 1_445
In1 O5 2.155043 1_565
In1 O9 2.155043 1_555
In1 O13 2.364544 1_455
In1 O0 2.364544 1_554
In1 O4 2.364544 1_555
In1 O7 2.364544 1_454
In1 O10 2.364544 1_554
In1 O6 2.364544 1_455
In2 O5 2.155043 1_655
In2 O9 2.155043 1_555
In2 O11 2.364544 1_545
In2 O3 2.364544 1_554
In2 O10 2.364544 1_554
In2 O6 2.364544 1_545
In2 O12 2.364544 1_555
In2 O1 2.364544 1_544
In3 O9 2.155043 1_555
In3 O5 2.155043 1_555
In3 O8 2.364544 1_445
In3 O2 2.364544 1_554
In3 O7 2.364544 1_454
In3 O4 2.364544 1_545
In3 O1 2.364544 1_544
In3 O12 2.364544 1_455
O0 Pd0 1.980462 1_555
O0 Pd1 1.980462 1_555
O1 Pd2 1.980462 1_565
O1 Pd3 1.980462 1_556
O2 Pd1 1.980462 1_555
O2 Pd2 1.980462 1_555
O3 Pd0 1.980462 1_555
O3 Pd2 1.980462 1_555
O4 Pd1 1.980462 1_555
O4 Pd3 1.980462 1_555
O6 Pd0 1.980462 1_555
O6 Pd3 1.980462 1_555
O7 Pd1 1.980462 1_655
O7 Pd3 1.980462 1_556
O8 Pd1 1.980462 1_655
O8 Pd2 1.980462 1_565
O10 Pd0 1.980462 1_555
O10 Pd3 1.980462 1_556
O11 Pd0 1.980462 1_555
O11 Pd2 1.980462 1_565
O12 Pd2 1.980462 1_555
O12 Pd3 1.980462 1_555
O13 Pd0 1.980462 1_555
O13 Pd1 1.980462 1_655
