# generated using pymatgen
data_Sr4Al6RuO16
_symmetry_space_group_name_H-M   'P 1'
_cell_length_a   8.20082953
_cell_length_b   8.20082974
_cell_length_c   8.20082973
_cell_angle_alpha   109.92864642
_cell_angle_beta   109.92864930
_cell_angle_gamma   108.56020169
_symmetry_Int_Tables_number   1
_chemical_formula_structural   Sr4Al6RuO16
_chemical_formula_sum   'Sr4 Al6 Ru1 O16'
_cell_volume   424.49171530
_cell_formula_units_Z   1
loop_
 _symmetry_equiv_pos_site_id
 _symmetry_equiv_pos_as_xyz
  1  'x, y, z'
loop_
 _atom_site_type_symbol
 _atom_site_label
 _atom_site_symmetry_multiplicity
 _atom_site_fract_x
 _atom_site_fract_y
 _atom_site_fract_z
 _atom_site_occupancy
  Sr  Sr0  1  0.50716719  0.00716738  0.01433493  1
  Sr  Sr1  1  0.99283267  0.00716741  0.50000009  1
  Sr  Sr2  1  0.99283268  0.49283273  0.98566513  1
  Sr  Sr3  1  0.50716749  0.49283234  0.49999986  1
  Al  Al0  1  0.49666899  0.24515223  0.74848304  1
  Al  Al1  1  0.75000007  0.24999997  0.50000002  1
  Al  Al2  1  0.25181410  0.50333110  0.74848299  1
  Al  Al3  1  0.24999989  0.75000011  0.50000001  1
  Al  Al4  1  0.49666890  0.74818589  0.25151699  1
  Al  Al5  1  0.75484783  0.50333107  0.25151698  1
  Ru  Ru0  1  0.00000031  0.99999764  0.99999933  1
  O  O0  1  0.65225016  0.99797248  0.34572259  1
  O  O1  1  0.32738211  0.66425500  0.66312719  1
  O  O2  1  0.66084031  0.33915971  0.99999996  1
  O  O3  1  0.33574491  0.99887242  0.66312737  1
  O  O4  1  0.00202757  0.34774990  0.65427744  1
  O  O5  1  0.66084010  0.66084022  0.32168076  1
  O  O6  1  0.65224990  0.30652739  0.65427743  1
  O  O7  1  0.00112761  0.66425514  0.33687265  1
  O  O8  1  0.33915961  0.66084045  0.00000004  1
  O  O9  1  0.33574502  0.67261793  0.33687283  1
  O  O10  1  0.69347279  0.34775017  0.34572266  1
  O  O11  1  0.33915983  0.33915995  0.67831930  1
  O  O12  1  0.89043625  0.73746586  0.84703096  1
  O  O13  1  0.95659615  0.10956474  0.84703072  1
  O  O14  1  0.26253435  0.10956510  0.15296955  1
  O  O15  1  0.89043522  0.04340369  0.15296919  1
loop_
_geom_bond_atom_site_label_1
_geom_bond_atom_site_label_2
_geom_bond_distance
_geom_bond_site_symmetry_2
Al0 O6 1.733872 1_555
Al0 O3 1.737956 1_545
Al0 O11 1.738855 1_555
Al0 O2 1.738855 1_555
Al1 O4 1.728118 1_655
Al1 O0 1.728118 1_545
Al1 O10 1.728119 1_555
Al1 O6 1.728119 1_555
Al2 O4 1.733873 1_555
Al2 O1 1.737954 1_555
Al2 O11 1.738855 1_555
Al2 O8 1.738856 1_556
Al3 O7 1.741680 1_555
Al3 O1 1.741680 1_555
Al3 O9 1.741680 1_555
Al3 O3 1.741680 1_555
Al4 O0 1.733873 1_555
Al4 O9 1.737954 1_555
Al4 O5 1.738855 1_555
Al4 O8 1.738856 1_555
Al5 O10 1.733872 1_555
Al5 O7 1.737955 1_655
Al5 O5 1.738855 1_555
Al5 O2 1.738856 1_554
O0 Sr1 2.607587 1_565
O0 Sr0 2.607588 1_565
O1 Sr0 2.705881 1_566
O1 Sr3 2.705884 1_555
O2 Sr2 2.673866 1_555
O2 Sr0 2.673866 1_556
O3 Sr1 2.705879 1_465
O3 Sr0 2.705881 1_566
O4 Sr1 2.607587 1_455
O4 Sr2 2.607588 1_455
O5 Sr3 2.673863 1_555
O5 Sr1 2.673866 1_565
O6 Sr3 2.607586 1_555
O6 Sr2 2.607588 1_555
O7 Sr1 2.705879 1_465
O7 Sr2 2.705881 1_454
O8 Sr0 2.673863 1_565
O8 Sr2 2.673863 1_454
O9 Sr2 2.705881 1_454
O9 Sr3 2.705883 1_555
O10 Sr3 2.607587 1_555
O10 Sr0 2.607588 1_555
O11 Sr3 2.673863 1_555
O11 Sr1 2.673866 1_455
O12 Ru0 1.781935 1_655
O12 Sr2 2.828261 1_555
O12 Sr3 2.828272 1_555
O13 Ru0 1.781961 1_645
O13 Sr1 2.828264 1_555
O13 Sr2 2.828270 1_555
O14 Ru0 1.781949 1_544
O14 Sr3 2.828263 1_555
O14 Sr0 2.828265 1_555
O15 Ru0 1.781958 1_644
O15 Sr1 2.828265 1_555
O15 Sr0 2.828271 1_555
