# generated using pymatgen
data_Lu6Zr8Al8Os7
_symmetry_space_group_name_H-M   'P 1'
_cell_length_a   9.23804208
_cell_length_b   9.23804151
_cell_length_c   9.23804249
_cell_angle_alpha   60.00000357
_cell_angle_beta   60.00000562
_cell_angle_gamma   60.00000375
_symmetry_Int_Tables_number   1
_chemical_formula_structural   Lu6Zr8Al8Os7
_chemical_formula_sum   'Lu6 Zr8 Al8 Os7'
_cell_volume   557.47429304
_cell_formula_units_Z   1
loop_
 _symmetry_equiv_pos_site_id
 _symmetry_equiv_pos_as_xyz
  1  'x, y, z'
loop_
 _atom_site_type_symbol
 _atom_site_label
 _atom_site_symmetry_multiplicity
 _atom_site_fract_x
 _atom_site_fract_y
 _atom_site_fract_z
 _atom_site_occupancy
  Lu  Lu0  1  0.69535379  0.69535379  0.30464621  1
  Lu  Lu1  1  0.30464621  0.69535379  0.30464621  1
  Lu  Lu2  1  0.69535379  0.30464621  0.30464621  1
  Lu  Lu3  1  0.30464621  0.30464621  0.69535379  1
  Lu  Lu4  1  0.69535379  0.30464621  0.69535379  1
  Lu  Lu5  1  0.30464621  0.69535379  0.69535379  1
  Zr  Zr0  1  0.87673616  0.87673616  0.36979153  1
  Zr  Zr1  1  0.87673616  0.36979153  0.87673616  1
  Zr  Zr2  1  0.36979153  0.87673616  0.87673616  1
  Zr  Zr3  1  0.87673616  0.87673616  0.87673616  1
  Zr  Zr4  1  0.12326384  0.12326384  0.63020847  1
  Zr  Zr5  1  0.12326384  0.63020847  0.12326384  1
  Zr  Zr6  1  0.63020847  0.12326384  0.12326384  1
  Zr  Zr7  1  0.12326384  0.12326384  0.12326384  1
  Al  Al0  1  0.66523986  0.66523986  0.00428141  1
  Al  Al1  1  0.66523986  0.00428141  0.66523986  1
  Al  Al2  1  0.00428141  0.66523986  0.66523986  1
  Al  Al3  1  0.66523986  0.66523986  0.66523986  1
  Al  Al4  1  0.33476014  0.33476014  0.99571859  1
  Al  Al5  1  0.33476014  0.99571859  0.33476014  1
  Al  Al6  1  0.99571859  0.33476014  0.33476014  1
  Al  Al7  1  0.33476014  0.33476014  0.33476014  1
  Os  Os0  1  0.00000000  0.00000000  0.00000000  1
  Os  Os1  1  0.00000000  0.00000000  0.50000000  1
  Os  Os2  1  0.50000000  0.00000000  0.50000000  1
  Os  Os3  1  0.00000000  0.50000000  0.50000000  1
  Os  Os4  1  0.50000000  0.50000000  0.00000000  1
  Os  Os5  1  0.00000000  0.50000000  0.00000000  1
  Os  Os6  1  0.50000000  0.00000000  0.00000000  1
loop_
_geom_bond_atom_site_label_1
_geom_bond_atom_site_label_2
_geom_bond_distance
_geom_bond_site_symmetry_2
Lu0 Zr0 3.286654 1_555
Lu0 Zr6 3.286654 1_565
Lu0 Zr5 3.286654 1_655
Lu0 Zr3 3.286654 1_554
Lu0 Os2 3.343258 1_565
Lu0 Os3 3.343258 1_655
Lu0 Os6 3.343258 1_565
Lu0 Os5 3.343258 1_655
Lu1 Zr5 3.286654 1_555
Lu1 Zr7 3.286654 1_565
Lu1 Zr0 3.286654 1_455
Lu1 Zr2 3.286654 1_554
Lu1 Os3 3.343258 1_555
Lu1 Os6 3.343258 1_565
Lu1 Os1 3.343258 1_565
Lu1 Os4 3.343258 1_555
Lu2 Zr6 3.286654 1_555
Lu2 Zr0 3.286654 1_545
Lu2 Zr7 3.286654 1_655
Lu2 Zr1 3.286654 1_554
Lu2 Os2 3.343258 1_555
Lu2 Os1 3.343258 1_655
Lu2 Os4 3.343258 1_555
Lu2 Os5 3.343258 1_655
Lu3 Zr4 3.286654 1_555
Lu3 Zr2 3.286654 1_545
Lu3 Zr1 3.286654 1_455
Lu3 Zr7 3.286654 1_556
Lu3 Os2 3.343258 1_555
Lu3 Os3 3.343258 1_555
Lu3 Os6 3.343258 1_556
Lu3 Os5 3.343258 1_556
Lu4 Zr1 3.286654 1_555
Lu4 Zr3 3.286654 1_545
Lu4 Zr4 3.286654 1_655
Lu4 Zr6 3.286654 1_556
Lu4 Os3 3.343258 1_655
Lu4 Os6 3.343258 1_556
Lu4 Os1 3.343258 1_655
Lu4 Os4 3.343258 1_556
Lu5 Zr2 3.286654 1_555
Lu5 Zr4 3.286654 1_565
Lu5 Zr3 3.286654 1_455
Lu5 Zr5 3.286654 1_556
Lu5 Os2 3.343258 1_565
Lu5 Os1 3.343258 1_565
Lu5 Os4 3.343258 1_556
Lu5 Os5 3.343258 1_556
Al0 Os6 2.666986 1_565
Al0 Os5 2.666986 1_655
Al0 Os4 2.666994 1_555
Al0 Zr3 2.869883 1_554
Al0 Zr1 2.869890 1_554
Al0 Zr2 2.869890 1_554
Al0 Lu0 3.078222 1_555
Al0 Lu2 3.078227 1_555
Al0 Lu1 3.078227 1_555
Al1 Os1 2.666986 1_655
Al1 Os6 2.666986 1_556
Al1 Os2 2.666994 1_555
Al1 Zr3 2.869883 1_545
Al1 Zr2 2.869890 1_545
Al1 Zr0 2.869891 1_545
Al1 Lu4 3.078221 1_555
Al1 Lu3 3.078227 1_555
Al1 Lu2 3.078227 1_555
Al2 Os1 2.666986 1_565
Al2 Os5 2.666986 1_556
Al2 Os3 2.666994 1_555
Al2 Zr3 2.869883 1_455
Al2 Zr1 2.869890 1_455
Al2 Zr0 2.869890 1_455
Al2 Lu5 3.078222 1_555
Al2 Lu3 3.078227 1_555
Al2 Lu1 3.078227 1_555
Al3 Os2 2.666989 1_565
Al3 Os3 2.666989 1_655
Al3 Os4 2.666989 1_556
Al3 Zr1 2.869885 1_555
Al3 Zr0 2.869885 1_555
Al3 Zr2 2.869885 1_555
Al3 Lu4 3.078231 1_555
Al3 Lu5 3.078231 1_555
Al3 Lu0 3.078231 1_555
Al4 Os6 2.666986 1_556
Al4 Os5 2.666986 1_556
Al4 Os4 2.666994 1_556
Al4 Zr7 2.869883 1_556
Al4 Zr5 2.869890 1_556
Al4 Zr6 2.869890 1_556
Al4 Lu3 3.078222 1_555
Al4 Lu5 3.078227 1_555
Al4 Lu4 3.078227 1_555
Al5 Os1 2.666986 1_565
Al5 Os6 2.666986 1_565
Al5 Os2 2.666994 1_565
Al5 Zr7 2.869883 1_565
Al5 Zr6 2.869890 1_565
Al5 Zr4 2.869891 1_565
Al5 Lu1 3.078221 1_555
Al5 Lu0 3.078227 1_555
Al5 Lu5 3.078227 1_555
Al6 Os1 2.666986 1_655
Al6 Os5 2.666986 1_655
Al6 Os3 2.666994 1_655
Al6 Zr7 2.869883 1_655
Al6 Zr5 2.869890 1_655
Al6 Zr4 2.869890 1_655
Al6 Lu2 3.078222 1_555
Al6 Lu0 3.078227 1_555
Al6 Lu4 3.078227 1_555
Al7 Os2 2.666989 1_555
Al7 Os3 2.666989 1_555
Al7 Os4 2.666989 1_555
Al7 Zr5 2.869885 1_555
Al7 Zr4 2.869885 1_555
Al7 Zr6 2.869885 1_555
Al7 Lu1 3.078231 1_555
Al7 Lu2 3.078231 1_555
Al7 Lu3 3.078231 1_555
Os0 Zr7 2.789274 1_555
Os0 Zr3 2.789274 1_444
Os0 Zr1 2.789275 1_454
Os0 Zr5 2.789275 1_545
Os0 Zr2 2.789275 1_544
Os0 Zr6 2.789275 1_455
Os0 Zr0 2.789275 1_445
Os0 Zr4 2.789275 1_554
Os1 Zr4 2.841898 1_555
Os1 Zr0 2.841898 1_445
Os1 Zr3 2.841898 1_445
Os1 Zr7 2.841898 1_555
Os2 Zr0 2.841898 1_545
Os2 Zr4 2.841898 1_555
Os2 Zr2 2.841898 1_545
Os2 Zr6 2.841898 1_555
Os3 Zr0 2.841898 1_455
Os3 Zr4 2.841898 1_555
Os3 Zr1 2.841898 1_455
Os3 Zr5 2.841898 1_555
Os4 Zr2 2.841898 1_554
Os4 Zr6 2.841898 1_555
Os4 Zr1 2.841898 1_554
Os4 Zr5 2.841898 1_555
Os5 Zr5 2.841898 1_555
Os5 Zr1 2.841898 1_454
Os5 Zr3 2.841898 1_454
Os5 Zr7 2.841898 1_555
Os6 Zr6 2.841898 1_555
Os6 Zr2 2.841898 1_544
Os6 Zr3 2.841898 1_544
Os6 Zr7 2.841898 1_555
