# generated using pymatgen
data_Lu7FeI12
_symmetry_space_group_name_H-M   'P 1'
_cell_length_a   9.53520055
_cell_length_b   9.53520149
_cell_length_c   9.53520157
_cell_angle_alpha   107.18027348
_cell_angle_beta   107.18027978
_cell_angle_gamma   107.18027333
_symmetry_Int_Tables_number   1
_chemical_formula_structural   Lu7FeI12
_chemical_formula_sum   'Lu7 Fe1 I12'
_cell_volume   718.41668721
_cell_formula_units_Z   1
loop_
 _symmetry_equiv_pos_site_id
 _symmetry_equiv_pos_as_xyz
  1  'x, y, z'
loop_
 _atom_site_type_symbol
 _atom_site_label
 _atom_site_symmetry_multiplicity
 _atom_site_fract_x
 _atom_site_fract_y
 _atom_site_fract_z
 _atom_site_occupancy
  Lu  Lu0  1  0.71673935  0.98048906  0.91200379  1
  Lu  Lu1  1  0.98048906  0.91200379  0.71673935  1
  Lu  Lu2  1  0.50000000  0.50000000  0.50000000  1
  Lu  Lu3  1  0.08799621  0.28326065  0.01951094  1
  Lu  Lu4  1  0.28326065  0.01951094  0.08799621  1
  Lu  Lu5  1  0.91200379  0.71673935  0.98048906  1
  Lu  Lu6  1  0.01951094  0.08799621  0.28326065  1
  Fe  Fe0  1  0.00000000  0.00000000  0.00000000  1
  I  I0  1  0.07595227  0.22651752  0.67800488  1
  I  I1  1  0.38692897  0.15969741  0.46199656  1
  I  I2  1  0.61307103  0.84030259  0.53800344  1
  I  I3  1  0.22651752  0.67800488  0.07595227  1
  I  I4  1  0.77348248  0.32199512  0.92404773  1
  I  I5  1  0.67800488  0.07595227  0.22651752  1
  I  I6  1  0.53800344  0.61307103  0.84030259  1
  I  I7  1  0.84030259  0.53800344  0.61307103  1
  I  I8  1  0.92404773  0.77348248  0.32199512  1
  I  I9  1  0.32199512  0.92404773  0.77348248  1
  I  I10  1  0.46199656  0.38692897  0.15969741  1
  I  I11  1  0.15969741  0.46199656  0.38692897  1
loop_
_geom_bond_atom_site_label_1
_geom_bond_atom_site_label_2
_geom_bond_distance
_geom_bond_site_symmetry_2
Fe0 Lu4 2.511150 1_555
Fe0 Lu0 2.511150 1_444
Fe0 Lu3 2.511150 1_555
Fe0 Lu5 2.511150 1_444
Fe0 Lu6 2.511150 1_555
Fe0 Lu1 2.511150 1_444
I0 Lu1 3.032983 1_445
I0 Lu3 3.100185 1_556
I0 Lu6 3.412924 1_555
I1 Lu2 2.971637 1_555
I1 Lu4 3.130858 1_555
I1 Lu6 3.164681 1_555
I2 Lu2 2.971637 1_555
I2 Lu0 3.130858 1_555
I2 Lu1 3.164681 1_555
I3 Lu5 3.032983 1_454
I3 Lu4 3.100185 1_565
I3 Lu3 3.412924 1_555
I4 Lu3 3.032983 1_656
I4 Lu0 3.100185 1_545
I4 Lu5 3.412924 1_555
I5 Lu0 3.032983 1_544
I5 Lu6 3.100185 1_655
I5 Lu4 3.412923 1_555
I6 Lu2 2.971637 1_555
I6 Lu5 3.130858 1_555
I6 Lu0 3.164681 1_555
I7 Lu2 2.971636 1_555
I7 Lu1 3.130858 1_555
I7 Lu5 3.164681 1_555
I8 Lu6 3.032983 1_665
I8 Lu5 3.100185 1_554
I8 Lu1 3.412924 1_555
I9 Lu4 3.032983 1_566
I9 Lu1 3.100185 1_455
I9 Lu0 3.412923 1_555
I10 Lu2 2.971637 1_555
I10 Lu3 3.130858 1_555
I10 Lu4 3.164681 1_555
I11 Lu2 2.971636 1_555
I11 Lu6 3.130858 1_555
I11 Lu3 3.164681 1_555
