# generated using pymatgen
data_Rb2ClOF5
_symmetry_space_group_name_H-M   'P 1'
_cell_length_a   6.17976962
_cell_length_b   6.17976957
_cell_length_c   8.22284981
_cell_angle_alpha   90.00000000
_cell_angle_beta   90.00000000
_cell_angle_gamma   91.73162930
_symmetry_Int_Tables_number   1
_chemical_formula_structural   Rb2ClOF5
_chemical_formula_sum   'Rb4 Cl2 O2 F10'
_cell_volume   313.88354612
_cell_formula_units_Z   2
loop_
 _symmetry_equiv_pos_site_id
 _symmetry_equiv_pos_as_xyz
  1  'x, y, z'
loop_
 _atom_site_type_symbol
 _atom_site_label
 _atom_site_symmetry_multiplicity
 _atom_site_fract_x
 _atom_site_fract_y
 _atom_site_fract_z
 _atom_site_occupancy
  Rb  Rb0  1  0.70717838  0.29282162  0.00000000  1
  Rb  Rb1  1  0.70717838  0.29282162  0.50000000  1
  Rb  Rb2  1  0.29282162  0.70717838  0.00000000  1
  Rb  Rb3  1  0.29282162  0.70717838  0.50000000  1
  Cl  Cl0  1  0.20387858  0.20387858  0.75000000  1
  Cl  Cl1  1  0.79612142  0.79612142  0.25000000  1
  O  O0  1  0.03886640  0.03886640  0.75000000  1
  O  O1  1  0.96113360  0.96113360  0.25000000  1
  F  F0  1  0.47680313  0.47680313  0.75000000  1
  F  F1  1  0.52319687  0.52319687  0.25000000  1
  F  F2  1  0.56125577  0.98305246  0.25000000  1
  F  F3  1  0.01694754  0.43874423  0.75000000  1
  F  F4  1  0.43874423  0.01694754  0.75000000  1
  F  F5  1  0.98305246  0.56125577  0.25000000  1
  F  F6  1  0.22240770  0.22240770  0.97605355  1
  F  F7  1  0.77759230  0.77759230  0.02394645  1
  F  F8  1  0.22240770  0.22240770  0.52394645  1
  F  F9  1  0.77759230  0.77759230  0.47605355  1
loop_
_geom_bond_atom_site_label_1
_geom_bond_atom_site_label_2
_geom_bond_distance
_geom_bond_site_symmetry_2
Cl0 O0 1.420170 1_555
Cl0 F6 1.865632 1_555
Cl0 F8 1.865632 1_555
Cl0 F3 1.882127 1_555
Cl0 F4 1.882127 1_555
Cl1 O1 1.420170 1_555
Cl1 F9 1.865632 1_555
Cl1 F7 1.865632 1_555
Cl1 F5 1.882127 1_555
Cl1 F2 1.882127 1_555
O0 Rb2 3.329389 1_546
O0 Rb3 3.329389 1_545
O0 Rb0 3.329389 1_456
O0 Rb1 3.329389 1_455
O1 Rb0 3.329389 1_565
O1 Rb1 3.329389 1_565
O1 Rb2 3.329389 1_655
O1 Rb3 3.329389 1_655
F0 Rb3 2.764650 1_555
F0 Rb2 2.764650 1_556
F0 Rb0 2.764650 1_556
F0 Rb1 2.764650 1_555
F1 Rb0 2.764650 1_555
F1 Rb1 2.764650 1_555
F1 Rb3 2.764650 1_555
F1 Rb2 2.764650 1_555
F2 Rb0 2.932467 1_565
F2 Rb1 2.932467 1_565
F2 Rb2 3.116621 1_555
F2 Rb3 3.116621 1_555
F3 Rb0 2.932467 1_456
F3 Rb1 2.932467 1_455
F3 Rb2 3.116621 1_556
F3 Rb3 3.116621 1_555
F4 Rb2 2.932467 1_546
F4 Rb3 2.932467 1_545
F4 Rb0 3.116621 1_556
F4 Rb1 3.116621 1_555
F5 Rb2 2.932467 1_655
F5 Rb3 2.932467 1_655
F5 Rb0 3.116621 1_555
F5 Rb1 3.116621 1_555
F6 Rb2 3.020593 1_556
F6 Rb0 3.020593 1_556
F6 Rb2 3.232600 1_546
F6 Rb0 3.232600 1_456
F7 Rb0 3.020593 1_555
F7 Rb2 3.020593 1_555
F7 Rb0 3.232600 1_565
F7 Rb2 3.232600 1_655
F8 Rb3 3.020593 1_555
F8 Rb1 3.020593 1_555
F8 Rb3 3.232600 1_545
F8 Rb1 3.232600 1_455
F9 Rb1 3.020593 1_555
F9 Rb3 3.020593 1_555
F9 Rb1 3.232600 1_565
F9 Rb3 3.232600 1_655
