# generated using pymatgen
data_Al11GeIr6
_symmetry_space_group_name_H-M   'P 1'
_cell_length_a   6.73912865
_cell_length_b   6.73912788
_cell_length_c   10.64994653
_cell_angle_alpha   89.94134981
_cell_angle_beta   90.05864844
_cell_angle_gamma   145.79803916
_symmetry_Int_Tables_number   1
_chemical_formula_structural   Al11GeIr6
_chemical_formula_sum   'Al11 Ge1 Ir6'
_cell_volume   271.87998359
_cell_formula_units_Z   1
loop_
 _symmetry_equiv_pos_site_id
 _symmetry_equiv_pos_as_xyz
  1  'x, y, z'
loop_
 _atom_site_type_symbol
 _atom_site_label
 _atom_site_symmetry_multiplicity
 _atom_site_fract_x
 _atom_site_fract_y
 _atom_site_fract_z
 _atom_site_occupancy
  Al  Al0  1  0.55966921  0.44033079  0.60768049  1
  Al  Al1  1  0.43998036  0.56001964  0.39226392  1
  Al  Al2  1  0.44308896  0.55691104  0.10966340  1
  Al  Al3  1  0.55917507  0.44082493  0.88789204  1
  Al  Al4  1  0.17812152  0.82187848  0.51469540  1
  Al  Al5  1  0.82117432  0.17882568  0.48547998  1
  Al  Al6  1  0.75887380  0.24112620  0.74841619  1
  Al  Al7  1  0.24111150  0.75888850  0.25542820  1
  Al  Al8  1  0.95572961  0.04427039  0.74815645  1
  Al  Al9  1  0.04501491  0.95498509  0.25285816  1
  Al  Al10  1  0.17569404  0.82430596  0.98475608  1
  Ge  Ge0  1  0.82148333  0.17851667  0.01511300  1
  Ir  Ir0  1  0.35848041  0.64151959  0.62191534  1
  Ir  Ir1  1  0.64109488  0.35890512  0.37730944  1
  Ir  Ir2  1  0.64281286  0.35718714  0.12119172  1
  Ir  Ir3  1  0.35803437  0.64196563  0.87866676  1
  Ir  Ir4  1  0.85579403  0.14420597  0.24832584  1
  Ir  Ir5  1  0.14466683  0.85533317  0.75018561  1
loop_
_geom_bond_atom_site_label_1
_geom_bond_atom_site_label_2
_geom_bond_distance
_geom_bond_site_symmetry_2
Al0 Ir0 2.596378 1_555
Al0 Ir1 2.669304 1_555
Al0 Ir5 2.725033 1_545
Al0 Ir5 2.725033 1_655
Al0 Al8 2.821782 1_565
Al0 Al8 2.821782 1_455
Al1 Ir1 2.595890 1_555
Al1 Ir0 2.662636 1_555
Al1 Ir4 2.729392 1_565
Al1 Ir4 2.729392 1_455
Al1 Al9 2.822493 1_545
Al1 Al9 2.822493 1_655
Al2 Ir2 2.575711 1_555
Al2 Ir3 2.692006 1_554
Al2 Ir4 2.715891 1_565
Al2 Ir4 2.715891 1_455
Al2 Ge0 2.718785 1_565
Al2 Ge0 2.718786 1_455
Al2 Al9 2.823571 1_545
Al2 Al9 2.823572 1_655
Al3 Ir3 2.592923 1_555
Al3 Ir5 2.700795 1_545
Al3 Ir5 2.700795 1_655
Al3 Ir2 2.707129 1_556
Al3 Al8 2.813073 1_565
Al3 Al8 2.813073 1_455
Al4 Ir1 2.508769 1_565
Al4 Ir1 2.508769 1_455
Al4 Ir5 2.545174 1_555
Al4 Ir0 2.587785 1_555
Al5 Ir0 2.503566 1_545
Al5 Ir0 2.503566 1_655
Al5 Ir4 2.565223 1_555
Al5 Ir1 2.589034 1_555
Al6 Ir5 2.468214 1_655
Al6 Ir5 2.468215 1_545
Al6 Al8 2.535971 1_555
Al6 Ir0 2.718882 1_545
Al6 Ir0 2.718883 1_655
Al6 Ir3 2.734832 1_545
Al6 Ir3 2.734832 1_655
Al6 Ge0 2.951774 1_556
Al7 Ir4 2.472993 1_455
Al7 Ir4 2.472993 1_565
Al7 Al9 2.526305 1_555
Al7 Ir1 2.697340 1_565
Al7 Ir1 2.697340 1_455
Al7 Ir2 2.751463 1_565
Al7 Ir2 2.751464 1_455
Al8 Ir5 2.434029 1_645
Al8 Ir0 2.701953 1_655
Al8 Ir0 2.701953 1_545
Al8 Ir3 2.728857 1_655
Al8 Ir3 2.728857 1_545
Al9 Ir4 2.438037 1_465
Al9 Ir1 2.685561 1_455
Al9 Ir1 2.685562 1_565
Al9 Ir2 2.735764 1_455
Al9 Ir2 2.735765 1_565
Al10 Ir2 2.493817 1_566
Al10 Ir2 2.493817 1_456
Al10 Ir5 2.529514 1_555
Al10 Ir3 2.607664 1_555
Al10 Ge0 2.749108 1_456
Al10 Ge0 2.749108 1_566
Ge0 Ir3 2.502376 1_544
Ge0 Ir3 2.502376 1_654
Ge0 Ir4 2.522261 1_555
Ge0 Ir2 2.565087 1_555
