# generated using pymatgen
data_BaGe6(As3Pt2)2
_symmetry_space_group_name_H-M   'P 1'
_cell_length_a   7.51757448
_cell_length_b   7.52699796
_cell_length_c   7.51757420
_cell_angle_alpha   109.41449013
_cell_angle_beta   109.53265346
_cell_angle_gamma   109.41591041
_symmetry_Int_Tables_number   1
_chemical_formula_structural   BaGe6(As3Pt2)2
_chemical_formula_sum   'Ba1 Ge6 As6 Pt4'
_cell_volume   327.66183959
_cell_formula_units_Z   1
loop_
 _symmetry_equiv_pos_site_id
 _symmetry_equiv_pos_as_xyz
  1  'x, y, z'
loop_
 _atom_site_type_symbol
 _atom_site_label
 _atom_site_symmetry_multiplicity
 _atom_site_fract_x
 _atom_site_fract_y
 _atom_site_fract_z
 _atom_site_occupancy
  Ba  Ba0  1  0.00050365  0.99723891  0.99673426  1
  Ge  Ge0  1  0.14568918  0.34950649  0.50026642  1
  Ge  Ge1  1  0.50904393  0.15551559  0.35875567  1
  Ge  Ge2  1  0.84924108  0.34950649  0.20381732  1
  Ge  Ge3  1  0.64150024  0.48999527  0.84849602  1
  Ge  Ge4  1  0.35704022  0.20854085  0.85150063  1
  Ge  Ge5  1  0.79675992  0.15551559  0.64647266  1
  As  As0  1  0.85154143  0.64087181  0.49732024  1
  As  As1  1  0.35267201  0.49707580  0.14440379  1
  As  As2  1  0.21124910  0.85928221  0.35704339  1
  As  As3  1  0.14355057  0.64087181  0.78932938  1
  As  As4  1  0.64547066  0.79152009  0.14604944  1
  As  As5  1  0.50223782  0.85928221  0.64803312  1
  Pt  Pt0  1  0.00058128  0.99952347  0.50617592  1
  Pt  Pt1  1  0.49932200  0.50311546  0.50286510  1
  Pt  Pt2  1  0.00025036  0.50311546  0.00379346  1
  Pt  Pt3  1  0.49334855  0.99952347  0.99894219  1
loop_
_geom_bond_atom_site_label_1
_geom_bond_atom_site_label_2
_geom_bond_distance
_geom_bond_site_symmetry_2
Ba0 Ge4 3.344044 1_565
Ba0 Ge2 3.345338 1_466
Ba0 Ge0 3.345347 1_566
Ba0 Ge5 3.361603 1_465
Ba0 Ge1 3.361616 1_566
Ba0 Ge3 3.378234 1_455
Ge0 Pt1 2.512233 1_555
Ge0 Pt0 2.516198 1_545
Ge0 Ge2 2.571385 1_455
Ge1 Ge5 2.495643 1_555
Ge1 Pt3 2.508436 1_544
Ge1 Pt1 2.513997 1_555
Ge2 Pt2 2.512229 1_655
Ge2 Pt3 2.516198 1_544
Ge3 Ge4 2.472588 1_555
Ge3 Pt2 2.507395 1_656
Ge3 Pt1 2.507402 1_555
Ge4 Pt0 2.495072 1_545
Ge4 Pt3 2.495076 1_545
Ge5 Pt0 2.508436 1_645
Ge5 Pt2 2.513993 1_656
As0 Pt1 2.522916 1_555
As0 Pt0 2.523325 1_655
As0 Ge2 2.531935 1_555
As0 As3 2.532877 1_655
As0 Ba0 3.322822 1_655
As1 Pt1 2.525444 1_555
As1 Pt2 2.525444 1_555
As1 As4 2.545049 1_555
As1 Ge4 2.546147 1_554
As1 Ba0 3.321454 1_544
As2 As5 2.524030 1_555
As2 Pt2 2.525554 1_555
As2 Pt0 2.528102 1_555
As2 Ge1 2.574222 1_565
As2 Ba0 3.319507 1_554
As3 Pt2 2.522919 1_556
As3 Pt3 2.523331 1_555
As3 Ge0 2.531931 1_555
As3 Ba0 3.322823 1_555
As4 Pt3 2.545146 1_554
As4 Pt0 2.545149 1_655
As4 Ge3 2.586655 1_554
As4 Ba0 3.345491 1_654
As5 Pt1 2.525558 1_555
As5 Pt3 2.528094 1_555
As5 Ge5 2.574222 1_565
As5 Ba0 3.319504 1_655
