# generated using pymatgen
data_HfZr5(PbC2)2
_symmetry_space_group_name_H-M   'P 1'
_cell_length_a   3.38179666
_cell_length_b   3.38179639
_cell_length_c   20.16841388
_cell_angle_alpha   90.00000000
_cell_angle_beta   90.00000000
_cell_angle_gamma   119.99999299
_symmetry_Int_Tables_number   1
_chemical_formula_structural   HfZr5(PbC2)2
_chemical_formula_sum   'Hf1 Zr5 Pb2 C4'
_cell_volume   199.75485953
_cell_formula_units_Z   1
loop_
 _symmetry_equiv_pos_site_id
 _symmetry_equiv_pos_as_xyz
  1  'x, y, z'
loop_
 _atom_site_type_symbol
 _atom_site_label
 _atom_site_symmetry_multiplicity
 _atom_site_fract_x
 _atom_site_fract_y
 _atom_site_fract_z
 _atom_site_occupancy
  Hf  Hf0  1  0.00000000  0.00000000  0.50000000  1
  Zr  Zr0  1  0.00000000  0.00000000  0.00000000  1
  Zr  Zr1  1  0.66666800  0.33333500  0.12637175  1
  Zr  Zr2  1  0.66666800  0.33333500  0.37525777  1
  Zr  Zr3  1  0.33333300  0.66666600  0.62474223  1
  Zr  Zr4  1  0.33333300  0.66666600  0.87362825  1
  Pb  Pb0  1  0.00000000  0.00000000  0.25084847  1
  Pb  Pb1  1  0.00000000  0.00000000  0.74915153  1
  C  C0  1  0.33333300  0.66666600  0.06955241  1
  C  C1  1  0.33333300  0.66666600  0.43299430  1
  C  C2  1  0.66666800  0.33333500  0.56700570  1
  C  C3  1  0.66666800  0.33333500  0.93044759  1
loop_
_geom_bond_atom_site_label_1
_geom_bond_atom_site_label_2
_geom_bond_distance
_geom_bond_site_symmetry_2
Pb0 Zr2 3.179299 1_445
Pb0 Zr2 3.179302 1_455
Pb0 Zr2 3.179304 1_555
Pb0 Zr1 3.180372 1_445
Pb0 Zr1 3.180375 1_455
Pb0 Zr1 3.180377 1_555
Pb1 Zr3 3.179300 1_555
Pb1 Zr3 3.179302 1_545
Pb1 Zr3 3.179302 1_445
Pb1 Zr4 3.180373 1_555
Pb1 Zr4 3.180375 1_545
Pb1 Zr4 3.180375 1_445
C0 Zr1 2.263930 1_455
C0 Zr1 2.263932 1_555
C0 Zr1 2.263940 1_565
C0 Zr0 2.404146 1_555
C0 Zr0 2.404148 1_565
C0 Zr0 2.404148 1_665
C1 Zr2 2.273349 1_455
C1 Zr2 2.273352 1_555
C1 Zr2 2.273359 1_565
C1 Hf0 2.374543 1_555
C1 Hf0 2.374545 1_565
C1 Hf0 2.374545 1_665
C2 Zr3 2.273349 1_655
C2 Zr3 2.273352 1_555
C2 Zr3 2.273359 1_545
C2 Hf0 2.374540 1_665
C2 Hf0 2.374545 1_655
C2 Hf0 2.374548 1_555
C3 Zr4 2.263930 1_655
C3 Zr4 2.263932 1_555
C3 Zr4 2.263940 1_545
C3 Zr0 2.404143 1_666
C3 Zr0 2.404148 1_656
C3 Zr0 2.404150 1_556
