# generated using pymatgen
data_LaMo5O8
_symmetry_space_group_name_H-M   'P 1'
_cell_length_a   9.36806400
_cell_length_b   8.28684000
_cell_length_c   10.45752527
_cell_angle_alpha   68.71440043
_cell_angle_beta   90.00000000
_cell_angle_gamma   90.00000000
_symmetry_Int_Tables_number   1
_chemical_formula_structural   LaMo5O8
_chemical_formula_sum   'La4 Mo20 O32'
_cell_volume   756.45356382
_cell_formula_units_Z   4
loop_
 _symmetry_equiv_pos_site_id
 _symmetry_equiv_pos_as_xyz
  1  'x, y, z'
loop_
 _atom_site_type_symbol
 _atom_site_label
 _atom_site_symmetry_multiplicity
 _atom_site_fract_x
 _atom_site_fract_y
 _atom_site_fract_z
 _atom_site_occupancy
  La  La0  1  0.47639500  0.26949100  0.98520500  1
  La  La1  1  0.97639500  0.73050900  0.51479500  1
  La  La2  1  0.52360500  0.73050900  0.01479500  1
  La  La3  1  0.02360500  0.26949100  0.48520500  1
  Mo  Mo0  1  0.37446000  0.40004500  0.31273700  1
  Mo  Mo1  1  0.87446000  0.59995500  0.18726300  1
  Mo  Mo2  1  0.62554000  0.59995500  0.68726300  1
  Mo  Mo3  1  0.12554000  0.40004500  0.81273700  1
  Mo  Mo4  1  0.36247300  0.79656400  0.70872500  1
  Mo  Mo5  1  0.86247300  0.20343600  0.79127500  1
  Mo  Mo6  1  0.63752700  0.20343600  0.29127500  1
  Mo  Mo7  1  0.13752700  0.79656400  0.20872500  1
  Mo  Mo8  1  0.38092100  0.19061800  0.63065200  1
  Mo  Mo9  1  0.88092100  0.80938200  0.86934800  1
  Mo  Mo10  1  0.61907900  0.80938200  0.36934800  1
  Mo  Mo11  1  0.11907900  0.19061800  0.13065200  1
  Mo  Mo12  1  0.13902000  0.61277800  0.01541500  1
  Mo  Mo13  1  0.86108400  0.99375600  0.08583200  1
  Mo  Mo14  1  0.63891600  0.99375600  0.58583200  1
  Mo  Mo15  1  0.13891600  0.00624400  0.91416800  1
  Mo  Mo16  1  0.36098000  0.61277800  0.51541500  1
  Mo  Mo17  1  0.86098000  0.38722200  0.98458500  1
  Mo  Mo18  1  0.63902000  0.38722200  0.48458500  1
  Mo  Mo19  1  0.36108400  0.00624400  0.41416800  1
  O  O0  1  0.49981100  0.40794300  0.64380400  1
  O  O1  1  0.99981100  0.59205700  0.85619600  1
  O  O2  1  0.50018900  0.59205700  0.35619600  1
  O  O3  1  0.00018900  0.40794300  0.14380400  1
  O  O4  1  0.28107300  0.62135700  0.16917100  1
  O  O5  1  0.78107300  0.37864300  0.33082900  1
  O  O6  1  0.71892700  0.37864300  0.83082900  1
  O  O7  1  0.21892700  0.62135700  0.66917100  1
  O  O8  1  0.24431800  0.39421500  0.99193400  1
  O  O9  1  0.74431800  0.60578500  0.50806600  1
  O  O10  1  0.75568200  0.60578500  0.00806600  1
  O  O11  1  0.25568200  0.39421500  0.49193400  1
  O  O12  1  0.50299600  0.96498500  0.75845100  1
  O  O13  1  0.00299600  0.03501500  0.74154900  1
  O  O14  1  0.49700400  0.03501500  0.24154900  1
  O  O15  1  0.99700400  0.96498500  0.25845100  1
  O  O16  1  0.27901700  0.20948700  0.80489100  1
  O  O17  1  0.77901700  0.79051300  0.69510900  1
  O  O18  1  0.72098300  0.79051300  0.19510900  1
  O  O19  1  0.22098300  0.20948700  0.30489100  1
  O  O20  1  0.27110600  0.81156300  0.89108400  1
  O  O21  1  0.77110600  0.18843700  0.60891600  1
  O  O22  1  0.72889400  0.18843700  0.10891600  1
  O  O23  1  0.22889400  0.81156300  0.39108400  1
  O  O24  1  0.98603100  0.40677900  0.64980000  1
  O  O25  1  0.48603100  0.59322100  0.85020000  1
  O  O26  1  0.01396900  0.59322100  0.35020000  1
  O  O27  1  0.51396900  0.40677900  0.14980000  1
  O  O28  1  0.25987800  0.01271600  0.08649700  1
  O  O29  1  0.74012200  0.98728400  0.91350300  1
  O  O30  1  0.75987800  0.98728400  0.41350300  1
  O  O31  1  0.24012200  0.01271600  0.58649700  1
loop_
_geom_bond_atom_site_label_1
_geom_bond_atom_site_label_2
_geom_bond_distance
_geom_bond_site_symmetry_2
La0 O27 2.408880 1_556
La0 O8 2.419253 1_555
La0 O25 2.539372 1_555
La0 O22 2.662554 1_556
La0 O14 2.686499 1_556
La0 O6 2.743440 1_555
La0 O16 2.811159 1_555
La0 O28 2.850883 1_556
La1 O26 2.408880 1_655
La1 O9 2.419253 1_555
La1 O24 2.539372 1_555
La1 O23 2.662554 1_655
La1 O15 2.686499 1_555
La1 O7 2.743440 1_655
La1 O17 2.811159 1_555
La1 O30 2.850883 1_555
La2 O25 2.408880 1_554
La2 O10 2.419253 1_555
La2 O27 2.539372 1_555
La2 O20 2.662554 1_554
La2 O12 2.686499 1_554
La2 O4 2.743440 1_555
La2 O18 2.811159 1_555
La2 O29 2.850883 1_554
La3 O24 2.408880 1_455
La3 O11 2.419253 1_555
La3 O26 2.539372 1_555
La3 O21 2.662554 1_455
La3 O13 2.686499 1_555
La3 O5 2.743440 1_455
La3 O19 2.811159 1_555
La3 O31 2.850883 1_555
Mo0 O4 2.093751 1_555
Mo0 O27 2.132013 1_555
Mo0 O2 2.156550 1_555
Mo0 O19 2.159086 1_555
Mo0 O11 2.164824 1_555
Mo1 O5 2.093751 1_555
Mo1 O26 2.132013 1_655
Mo1 O3 2.156550 1_655
Mo1 O18 2.159086 1_555
Mo1 O10 2.164824 1_555
Mo2 O6 2.093751 1_555
Mo2 O25 2.132013 1_555
Mo2 O0 2.156550 1_555
Mo2 O17 2.159086 1_555
Mo2 O9 2.164824 1_555
Mo3 O7 2.093751 1_555
Mo3 O24 2.132013 1_455
Mo3 O1 2.156550 1_455
Mo3 O16 2.159086 1_555
Mo3 O8 2.164824 1_555
Mo4 O12 2.116186 1_555
Mo4 O31 2.119843 1_565
Mo4 O7 2.126858 1_555
Mo4 O20 2.134690 1_555
Mo4 O25 2.134971 1_555
Mo5 O13 2.116186 1_655
Mo5 O29 2.119843 1_545
Mo5 O6 2.126858 1_555
Mo5 O21 2.134690 1_555
Mo5 O24 2.134971 1_555
Mo6 O14 2.116186 1_555
Mo6 O30 2.119843 1_545
Mo6 O5 2.126858 1_555
Mo6 O22 2.134690 1_555
Mo6 O27 2.134971 1_555
Mo7 O15 2.116186 1_455
Mo7 O28 2.119843 1_565
Mo7 O4 2.126858 1_555
Mo7 O23 2.134690 1_555
Mo7 O26 2.134971 1_555
Mo8 O16 2.112518 1_555
Mo8 O11 2.133186 1_555
Mo8 O31 2.149570 1_555
Mo8 O0 2.163934 1_555
Mo8 O12 2.185355 1_545
Mo9 O17 2.112518 1_555
Mo9 O10 2.133186 1_556
Mo9 O29 2.149570 1_555
Mo9 O1 2.163934 1_555
Mo9 O13 2.185355 1_665
Mo10 O18 2.112518 1_555
Mo10 O9 2.133186 1_555
Mo10 O30 2.149570 1_555
Mo10 O2 2.163934 1_555
Mo10 O14 2.185355 1_565
Mo11 O19 2.112518 1_555
Mo11 O8 2.133186 1_554
Mo11 O28 2.149570 1_555
Mo11 O3 2.163934 1_555
Mo11 O15 2.185355 1_445
Mo12 O20 2.092895 1_554
Mo12 O4 2.108160 1_555
Mo12 O8 2.153298 1_554
Mo12 O1 2.170285 1_454
Mo12 O3 2.172739 1_555
Mo13 O18 2.113713 1_555
Mo13 O22 2.115959 1_565
Mo13 O29 2.145888 1_554
Mo13 O15 2.150421 1_555
Mo14 O17 2.113713 1_555
Mo14 O21 2.115959 1_565
Mo14 O30 2.145888 1_555
Mo14 O12 2.150421 1_555
Mo15 O16 2.113713 1_555
Mo15 O20 2.115959 1_545
Mo15 O28 2.145888 1_556
Mo15 O13 2.150421 1_555
Mo16 O23 2.092895 1_555
Mo16 O7 2.108160 1_555
Mo16 O11 2.153298 1_555
Mo16 O2 2.170285 1_555
Mo16 O0 2.172739 1_555
Mo17 O22 2.092895 1_556
Mo17 O6 2.108160 1_555
Mo17 O10 2.153298 1_556
Mo17 O3 2.170285 1_656
Mo17 O1 2.172739 1_555
Mo18 O21 2.092895 1_555
Mo18 O5 2.108160 1_555
Mo18 O9 2.153298 1_555
Mo18 O0 2.170285 1_555
Mo18 O2 2.172739 1_555
Mo19 O19 2.113713 1_555
Mo19 O23 2.115959 1_545
Mo19 O31 2.145888 1_555
Mo19 O14 2.150421 1_555
