# generated using pymatgen
data_Rb16TiSnAs8
_symmetry_space_group_name_H-M   'P 1'
_cell_length_a   11.35201216
_cell_length_b   11.35201135
_cell_length_c   11.35201276
_cell_angle_alpha   59.99999871
_cell_angle_beta   60.00000107
_cell_angle_gamma   59.99999998
_symmetry_Int_Tables_number   1
_chemical_formula_structural   Rb16TiSnAs8
_chemical_formula_sum   'Rb16 Ti1 Sn1 As8'
_cell_volume   1034.43578581
_cell_formula_units_Z   1
loop_
 _symmetry_equiv_pos_site_id
 _symmetry_equiv_pos_as_xyz
  1  'x, y, z'
loop_
 _atom_site_type_symbol
 _atom_site_label
 _atom_site_symmetry_multiplicity
 _atom_site_fract_x
 _atom_site_fract_y
 _atom_site_fract_z
 _atom_site_occupancy
  Rb  Rb0  1  0.62472267  0.12582998  0.62472267  1
  Rb  Rb1  1  0.62472267  0.62472267  0.12582998  1
  Rb  Rb2  1  0.12582998  0.62472267  0.62472267  1
  Rb  Rb3  1  0.62472267  0.62472267  0.62472267  1
  Rb  Rb4  1  0.02316161  0.02316161  0.47683839  1
  Rb  Rb5  1  0.77673053  0.22326947  0.22326947  1
  Rb  Rb6  1  0.22326947  0.77673053  0.77673053  1
  Rb  Rb7  1  0.77673053  0.77673053  0.22326947  1
  Rb  Rb8  1  0.77673053  0.22326947  0.77673053  1
  Rb  Rb9  1  0.22326947  0.77673053  0.22326947  1
  Rb  Rb10  1  0.47683839  0.02316161  0.47683839  1
  Rb  Rb11  1  0.47683839  0.02316161  0.02316161  1
  Rb  Rb12  1  0.02316161  0.47683839  0.47683839  1
  Rb  Rb13  1  0.02316161  0.47683839  0.02316161  1
  Rb  Rb14  1  0.22326947  0.22326947  0.77673053  1
  Rb  Rb15  1  0.47683839  0.47683839  0.02316161  1
  Ti  Ti0  1  0.75000000  0.75000000  0.75000000  1
  Sn  Sn0  1  0.50000000  0.50000000  0.50000000  1
  As  As0  1  0.40135797  0.79592510  0.40135797  1
  As  As1  1  0.84276124  0.84276124  0.47171528  1
  As  As2  1  0.47171528  0.84276124  0.84276124  1
  As  As3  1  0.84276124  0.84276124  0.84276124  1
  As  As4  1  0.79592510  0.40135797  0.40135797  1
  As  As5  1  0.40135797  0.40135797  0.40135797  1
  As  As6  1  0.40135797  0.40135797  0.79592510  1
  As  As7  1  0.84276124  0.47171528  0.84276124  1
loop_
_geom_bond_atom_site_label_1
_geom_bond_atom_site_label_2
_geom_bond_distance
_geom_bond_site_symmetry_2
Rb0 Sn0 3.468136 1_555
Rb0 Ti0 3.483522 1_545
Rb1 Sn0 3.468137 1_555
Rb1 Ti0 3.483523 1_554
Rb2 Sn0 3.468137 1_555
Rb2 Ti0 3.483523 1_455
Rb3 Sn0 3.468118 1_555
Rb3 Ti0 3.483541 1_555
As0 Sn0 2.742894 1_555
As0 Rb9 3.631786 1_555
As0 Rb7 3.631796 1_555
As0 Rb6 3.631796 1_555
As0 Rb3 3.634497 1_555
As0 Rb2 3.634506 1_555
As0 Rb1 3.634506 1_555
As0 Rb4 3.643831 1_565
As0 Rb11 3.643831 1_565
As0 Rb10 3.643839 1_565
As1 Ti0 2.579388 1_555
As1 Rb0 3.577418 1_565
As1 Rb2 3.577418 1_655
As1 Rb3 3.577427 1_555
As1 Rb12 3.580961 1_655
As1 Rb10 3.580962 1_565
As1 Rb4 3.580971 1_665
As1 Rb7 3.724007 1_555
As1 Rb5 3.724014 1_565
As1 Rb9 3.724014 1_655
As2 Ti0 2.579387 1_555
As2 Rb0 3.577418 1_565
As2 Rb1 3.577419 1_556
As2 Rb3 3.577428 1_555
As2 Rb15 3.580961 1_556
As2 Rb10 3.580962 1_565
As2 Rb11 3.580971 1_566
As2 Rb6 3.724007 1_555
As2 Rb14 3.724014 1_565
As2 Rb9 3.724015 1_556
As3 Ti0 2.579378 1_555
As3 Rb1 3.577425 1_556
As3 Rb0 3.577425 1_565
As3 Rb2 3.577425 1_655
As3 Rb13 3.580965 1_656
As3 Rb11 3.580965 1_566
As3 Rb4 3.580965 1_665
As3 Rb8 3.724017 1_565
As3 Rb6 3.724018 1_655
As3 Rb7 3.724018 1_556
As4 Sn0 2.742894 1_555
As4 Rb5 3.631786 1_555
As4 Rb7 3.631795 1_555
As4 Rb8 3.631796 1_555
As4 Rb3 3.634497 1_555
As4 Rb0 3.634505 1_555
As4 Rb1 3.634506 1_555
As4 Rb4 3.643831 1_655
As4 Rb13 3.643831 1_655
As4 Rb12 3.643839 1_655
As5 Sn0 2.742903 1_555
As5 Rb9 3.631793 1_555
As5 Rb5 3.631793 1_555
As5 Rb14 3.631793 1_555
As5 Rb1 3.634499 1_555
As5 Rb0 3.634499 1_555
As5 Rb2 3.634499 1_555
As5 Rb10 3.643828 1_555
As5 Rb12 3.643828 1_555
As5 Rb15 3.643829 1_555
As6 Sn0 2.742894 1_555
As6 Rb14 3.631786 1_555
As6 Rb6 3.631795 1_555
As6 Rb8 3.631796 1_555
As6 Rb3 3.634497 1_555
As6 Rb0 3.634506 1_555
As6 Rb2 3.634506 1_555
As6 Rb11 3.643831 1_556
As6 Rb13 3.643831 1_556
As6 Rb15 3.643839 1_556
As7 Ti0 2.579387 1_555
As7 Rb2 3.577418 1_655
As7 Rb1 3.577419 1_556
As7 Rb3 3.577428 1_555
As7 Rb15 3.580962 1_556
As7 Rb12 3.580962 1_655
As7 Rb13 3.580972 1_656
As7 Rb8 3.724007 1_555
As7 Rb14 3.724014 1_655
As7 Rb5 3.724014 1_556
