# generated using pymatgen
data_ZrAlGa5Cu6
_symmetry_space_group_name_H-M   'P 1'
_cell_length_a   6.45772861
_cell_length_b   6.45772702
_cell_length_c   6.46123986
_cell_angle_alpha   133.20530702
_cell_angle_beta   100.03095837
_cell_angle_gamma   98.09053798
_symmetry_Int_Tables_number   1
_chemical_formula_structural   ZrAlGa5Cu6
_chemical_formula_sum   'Zr1 Al1 Ga5 Cu6'
_cell_volume   180.26711218
_cell_formula_units_Z   1
loop_
 _symmetry_equiv_pos_site_id
 _symmetry_equiv_pos_as_xyz
  1  'x, y, z'
loop_
 _atom_site_type_symbol
 _atom_site_label
 _atom_site_symmetry_multiplicity
 _atom_site_fract_x
 _atom_site_fract_y
 _atom_site_fract_z
 _atom_site_occupancy
  Zr  Zr0  1  0.00114083  0.00114083  1.00000000  1
  Al  Al0  1  0.81833304  0.31833304  0.50000000  1
  Ga  Ga0  1  0.34771510  0.00216632  0.34578671  1
  Ga  Ga1  1  0.65637961  0.00192839  0.65421329  1
  Ga  Ga2  1  0.66085056  0.66085056  0.00000000  1
  Ga  Ga3  1  0.34432231  0.34432231  1.00000000  1
  Ga  Ga4  1  0.16786744  0.66786744  0.50000000  1
  Cu  Cu0  1  0.75848662  0.49924294  0.25872353  1
  Cu  Cu1  1  0.24051941  0.49976409  0.74127647  1
  Cu  Cu2  1  0.00227424  0.00055798  0.50059533  1
  Cu  Cu3  1  0.00220661  0.50157710  0.00163751  1
  Cu  Cu4  1  0.49994059  0.00056910  0.99836249  1
  Cu  Cu5  1  0.49996265  0.50167891  0.49940467  1
loop_
_geom_bond_atom_site_label_1
_geom_bond_atom_site_label_2
_geom_bond_distance
_geom_bond_site_symmetry_2
Al0 Cu2 2.513454 1_655
Al0 Cu5 2.513454 1_555
Al0 Cu4 2.515508 1_554
Al0 Cu3 2.515511 1_656
Al0 Cu0 2.521002 1_555
Al0 Cu1 2.521002 1_655
Al0 Ga2 2.890864 1_556
Al0 Ga2 2.890864 1_545
Al0 Ga4 2.959017 1_655
Al0 Ga1 2.968281 1_555
Al0 Ga0 2.968282 1_555
Al0 Zr0 2.995782 1_654
Al0 Zr0 2.995783 1_665
Ga0 Ga1 2.562371 1_555
Ga0 Zr0 2.869565 1_554
Ga0 Ga4 3.105617 1_545
Ga1 Zr0 2.869565 1_655
Ga1 Ga4 3.105618 1_545
Ga2 Ga3 2.679601 1_554
Ga2 Zr0 2.880760 1_664
Ga3 Zr0 2.905236 1_555
Ga3 Ga4 2.968357 1_556
Ga3 Ga4 2.968357 1_545
Ga4 Zr0 2.927778 1_565
Ga4 Zr0 2.927778 1_554
Cu0 Ga4 2.456558 1_655
Cu0 Cu4 2.465456 1_554
Cu0 Cu5 2.466586 1_555
Cu0 Cu3 2.484934 1_655
Cu0 Cu2 2.486412 1_665
Cu0 Ga3 2.519538 1_554
Cu0 Ga2 2.547147 1_555
Cu0 Ga1 2.708116 1_565
Cu0 Ga1 2.708498 1_554
Cu0 Zr0 3.250432 1_654
Cu0 Zr0 3.255898 1_665
Cu1 Ga4 2.456551 1_555
Cu1 Cu3 2.465461 1_556
Cu1 Cu2 2.466591 1_555
Cu1 Cu4 2.484932 1_565
Cu1 Cu5 2.486409 1_555
Cu1 Ga3 2.519543 1_555
Cu1 Ga2 2.547149 1_556
Cu1 Ga0 2.708120 1_555
Cu1 Ga0 2.708497 1_566
Cu1 Zr0 3.250427 1_565
Cu1 Zr0 3.255898 1_554
Cu2 Ga4 2.529042 1_545
Cu2 Ga3 2.558899 1_555
Cu2 Cu3 2.559636 1_545
Cu2 Ga2 2.564037 1_445
Cu2 Cu3 2.570557 1_556
Cu2 Ga1 2.596252 1_455
Cu2 Ga0 2.600372 1_555
Cu2 Zr0 3.225483 1_555
Cu2 Zr0 3.235780 1_554
Cu3 Ga4 2.531460 1_555
Cu3 Ga3 2.556809 1_554
Cu3 Ga2 2.561698 1_455
Cu3 Ga1 2.597192 1_454
Cu3 Ga0 2.602308 1_565
Cu3 Zr0 3.223479 1_554
Cu3 Zr0 3.234269 1_564
Cu4 Ga4 2.531464 1_545
Cu4 Ga3 2.556811 1_555
Cu4 Cu5 2.559633 1_545
Cu4 Ga2 2.561694 1_546
Cu4 Cu5 2.570559 1_556
Cu4 Ga0 2.597195 1_556
Cu4 Ga1 2.602304 1_555
Cu4 Zr0 3.223486 1_555
Cu4 Zr0 3.234263 1_655
Cu5 Ga4 2.529042 1_555
Cu5 Ga3 2.558898 1_554
Cu5 Ga2 2.564037 1_556
Cu5 Ga0 2.596252 1_555
Cu5 Ga1 2.600372 1_565
Cu5 Zr0 3.225484 1_554
Cu5 Zr0 3.235781 1_665
