# generated using pymatgen
data_Rb4TiSnAs4
_symmetry_space_group_name_H-M   'P 1'
_cell_length_a   8.63018351
_cell_length_b   8.63018476
_cell_length_c   8.63018472
_cell_angle_alpha   135.72686905
_cell_angle_beta   127.38623795
_cell_angle_gamma   71.14312925
_symmetry_Int_Tables_number   1
_chemical_formula_structural   Rb4TiSnAs4
_chemical_formula_sum   'Rb4 Ti1 Sn1 As4'
_cell_volume   349.24208607
_cell_formula_units_Z   1
loop_
 _symmetry_equiv_pos_site_id
 _symmetry_equiv_pos_as_xyz
  1  'x, y, z'
loop_
 _atom_site_type_symbol
 _atom_site_label
 _atom_site_symmetry_multiplicity
 _atom_site_fract_x
 _atom_site_fract_y
 _atom_site_fract_z
 _atom_site_occupancy
  Rb  Rb0  1  0.00622128  0.84505895  0.14669137  1
  Rb  Rb1  1  0.30163142  0.65494105  0.66116233  1
  Rb  Rb2  1  0.99377872  0.14047009  0.83883767  1
  Rb  Rb3  1  0.69836858  0.35952991  0.35330863  1
  Ti  Ti0  1  0.50000000  0.25000000  0.75000000  1
  Sn  Sn0  1  0.50000000  0.75000000  0.25000000  1
  As  As0  1  0.21711770  0.38539766  0.80358738  1
  As  As1  1  0.41818972  0.11460234  0.33172004  1
  As  As2  1  0.78288230  0.58646968  0.16827996  1
  As  As3  1  0.58181028  0.91353032  0.69641262  1
loop_
_geom_bond_atom_site_label_1
_geom_bond_atom_site_label_2
_geom_bond_distance
_geom_bond_site_symmetry_2
As0 Ti0 2.508493 1_555
As0 Sn0 2.624418 1_556
As0 Rb0 3.506500 1_545
As0 Rb2 3.541496 1_455
As0 Rb0 3.587959 1_556
As0 Rb3 3.670216 1_455
As0 Rb1 3.705951 1_555
As1 Ti0 2.508493 1_555
As1 Sn0 2.624418 1_545
As1 Rb1 3.506503 1_555
As1 Rb3 3.541503 1_555
As1 Rb1 3.587956 1_544
As1 Rb2 3.670221 1_454
As1 Rb0 3.705956 1_545
As2 Ti0 2.508493 1_554
As2 Sn0 2.624418 1_555
As2 Rb2 3.506499 1_554
As2 Rb0 3.541496 1_655
As2 Rb2 3.587959 1_565
As2 Rb1 3.670216 1_655
As2 Rb3 3.705951 1_555
As3 Ti0 2.508493 1_565
As3 Sn0 2.624418 1_555
As3 Rb3 3.506497 1_566
As3 Rb1 3.541503 1_555
As3 Rb3 3.587962 1_555
As3 Rb0 3.670221 1_656
As3 Rb2 3.705956 1_565
