# generated using pymatgen
data_Nd(Sb3Os)4
_symmetry_space_group_name_H-M   'P 1'
_cell_length_a   8.10678283
_cell_length_b   8.10678283
_cell_length_c   8.10678283
_cell_angle_alpha   109.47122063
_cell_angle_beta   109.47122063
_cell_angle_gamma   109.47122063
_symmetry_Int_Tables_number   1
_chemical_formula_structural   Nd(Sb3Os)4
_chemical_formula_sum   'Nd1 Sb12 Os4'
_cell_volume   410.13206669
_cell_formula_units_Z   1
loop_
 _symmetry_equiv_pos_site_id
 _symmetry_equiv_pos_as_xyz
  1  'x, y, z'
loop_
 _atom_site_type_symbol
 _atom_site_label
 _atom_site_symmetry_multiplicity
 _atom_site_fract_x
 _atom_site_fract_y
 _atom_site_fract_z
 _atom_site_occupancy
  Nd  Nd0  1  0.00000000  0.00000000  -0.00000000  1
  Sb  Sb0  1  0.15664747  0.81691171  0.66026424  1
  Sb  Sb1  1  0.84335253  0.18308829  0.33973576  1
  Sb  Sb2  1  0.84335253  0.50361777  0.66026424  1
  Sb  Sb3  1  0.15664747  0.49638223  0.33973576  1
  Sb  Sb4  1  0.81691171  0.66026424  0.15664747  1
  Sb  Sb5  1  0.18308829  0.33973576  0.84335253  1
  Sb  Sb6  1  0.50361777  0.66026424  0.84335253  1
  Sb  Sb7  1  0.49638223  0.33973576  0.15664747  1
  Sb  Sb8  1  0.66026424  0.15664747  0.81691171  1
  Sb  Sb9  1  0.33973576  0.84335253  0.18308829  1
  Sb  Sb10  1  0.66026424  0.84335253  0.50361777  1
  Sb  Sb11  1  0.33973576  0.15664747  0.49638223  1
  Os  Os0  1  0.00000000  0.00000000  0.50000000  1
  Os  Os1  1  0.50000000  0.00000000  -0.00000000  1
  Os  Os2  1  0.00000000  0.50000000  -0.00000000  1
  Os  Os3  1  0.50000000  0.50000000  0.50000000  1
loop_
_geom_bond_atom_site_label_1
_geom_bond_atom_site_label_2
_geom_bond_distance
_geom_bond_site_symmetry_2
Nd0 Sb3 3.502009 1_555
Nd0 Sb6 3.502009 1_444
Nd0 Sb11 3.502009 1_555
Nd0 Sb10 3.502009 1_444
Nd0 Sb2 3.502009 1_444
Nd0 Sb7 3.502009 1_555
Nd0 Sb0 3.502015 1_544
Nd0 Sb9 3.502015 1_545
Nd0 Sb8 3.502015 1_454
Nd0 Sb4 3.502015 1_445
Nd0 Sb1 3.502015 1_455
Nd0 Sb5 3.502015 1_554
Sb0 Sb2 2.932720 1_455
Sb0 Sb3 3.000442 1_555
Sb1 Sb3 2.932720 1_655
Sb1 Sb2 3.000442 1_555
Sb4 Sb6 2.932720 1_554
Sb4 Sb7 3.000442 1_555
Sb5 Sb7 2.932720 1_556
Sb5 Sb6 3.000442 1_555
Sb10 Sb8 2.932720 1_565
Sb10 Sb9 3.000442 1_555
Sb11 Sb9 2.932720 1_545
Sb11 Sb8 3.000442 1_555
Os0 Sb0 2.635510 1_545
Os0 Sb4 2.635510 1_445
Os0 Sb1 2.635510 1_455
Os0 Sb5 2.635510 1_555
Os0 Sb11 2.635514 1_555
Os0 Sb10 2.635514 1_445
Os1 Sb0 2.635510 1_544
Os1 Sb9 2.635510 1_545
Os1 Sb1 2.635510 1_555
Os1 Sb8 2.635510 1_554
Os1 Sb6 2.635514 1_544
Os1 Sb7 2.635514 1_555
Os2 Sb4 2.635510 1_455
Os2 Sb9 2.635510 1_555
Os2 Sb8 2.635510 1_454
Os2 Sb5 2.635510 1_554
Os2 Sb2 2.635514 1_454
Os2 Sb3 2.635514 1_555
Os3 Sb7 2.635506 1_555
Os3 Sb10 2.635506 1_555
Os3 Sb11 2.635506 1_555
Os3 Sb2 2.635506 1_555
Os3 Sb3 2.635506 1_555
Os3 Sb6 2.635506 1_555
