# generated using pymatgen
data_Eu(LuS2)2
_symmetry_space_group_name_H-M   'P 1'
_cell_length_a   7.22600001
_cell_length_b   7.22600001
_cell_length_c   7.22600001
_cell_angle_alpha   109.29535445
_cell_angle_beta   109.29535445
_cell_angle_gamma   109.82352847
_symmetry_Int_Tables_number   1
_chemical_formula_structural   Eu(LuS2)2
_chemical_formula_sum   'Eu2 Lu4 S8'
_cell_volume   290.44216027
_cell_formula_units_Z   2
loop_
 _symmetry_equiv_pos_site_id
 _symmetry_equiv_pos_as_xyz
  1  'x, y, z'
loop_
 _atom_site_type_symbol
 _atom_site_label
 _atom_site_symmetry_multiplicity
 _atom_site_fract_x
 _atom_site_fract_y
 _atom_site_fract_z
 _atom_site_occupancy
  Eu  Eu0  1  0.25000000  0.75000000  0.50000000  1
  Eu  Eu1  1  0.00000000  0.00000000  0.00000000  1
  Lu  Lu0  1  0.62500000  0.25647000  0.13147000  1
  Lu  Lu1  1  0.50647000  0.37500000  0.63147000  1
  Lu  Lu2  1  0.12500000  0.49353000  0.86853000  1
  Lu  Lu3  1  0.74353000  0.87500000  0.36853000  1
  S  S0  1  0.73948600  0.13708900  0.74574400  1
  S  S1  1  0.85865500  0.61291100  0.10239700  1
  S  S2  1  0.00625700  0.26051400  0.39760300  1
  S  S3  1  0.86291100  0.60865500  0.60239700  1
  S  S4  1  0.38708900  0.48948600  0.24574400  1
  S  S5  1  0.51051400  0.75625700  0.89760300  1
  S  S6  1  0.39134500  0.99374300  0.25425600  1
  S  S7  1  0.24374300  0.14134500  0.75425600  1
loop_
_geom_bond_atom_site_label_1
_geom_bond_atom_site_label_2
_geom_bond_distance
_geom_bond_site_symmetry_2
Eu0 S7 2.842951 1_565
Eu0 S4 2.842955 1_555
Eu0 S1 2.842955 1_455
Eu0 S5 2.842959 1_555
Eu0 S0 3.056798 1_565
Eu0 S3 3.056798 1_455
Eu0 S2 3.056799 1_555
Eu0 S6 3.056803 1_555
Eu1 S6 2.842951 1_545
Eu1 S3 2.842955 1_444
Eu1 S0 2.842955 1_454
Eu1 S2 2.842959 1_555
Eu1 S4 3.056798 1_555
Eu1 S1 3.056798 1_445
Eu1 S5 3.056799 1_444
Eu1 S7 3.056803 1_554
Lu0 S6 2.677914 1_545
Lu0 S1 2.677919 1_555
Lu0 S2 2.774137 1_655
Lu0 S7 2.774138 1_554
Lu0 S3 2.907748 1_555
Lu0 S4 2.907748 1_555
Lu0 S0 3.101003 1_554
Lu0 S5 3.101009 1_544
Lu1 S7 2.677914 1_555
Lu1 S3 2.677919 1_555
Lu1 S5 2.774137 1_555
Lu1 S6 2.774138 1_545
Lu1 S0 2.907748 1_555
Lu1 S1 2.907748 1_556
Lu1 S4 3.101003 1_555
Lu1 S2 3.101009 1_555
Lu2 S5 2.677916 1_555
Lu2 S0 2.677919 1_455
Lu2 S4 2.774142 1_556
Lu2 S3 2.774142 1_455
Lu2 S2 2.907746 1_555
Lu2 S7 2.907753 1_555
Lu2 S1 3.101003 1_456
Lu2 S6 3.101007 1_556
Lu3 S2 2.677916 1_665
Lu3 S4 2.677919 1_555
Lu3 S1 2.774142 1_555
Lu3 S0 2.774142 1_565
Lu3 S5 2.907746 1_554
Lu3 S6 2.907753 1_555
Lu3 S3 3.101003 1_555
Lu3 S7 3.101007 1_665
