# generated using pymatgen
data_Be8Re3Mo
_symmetry_space_group_name_H-M   'P 1'
_cell_length_a   4.37936883
_cell_length_b   4.37936892
_cell_length_c   7.15948324
_cell_angle_alpha   90.00000000
_cell_angle_beta   90.00000000
_cell_angle_gamma   120.00000685
_symmetry_Int_Tables_number   1
_chemical_formula_structural   Be8Re3Mo
_chemical_formula_sum   'Be8 Re3 Mo1'
_cell_volume   118.91464188
_cell_formula_units_Z   1
loop_
 _symmetry_equiv_pos_site_id
 _symmetry_equiv_pos_as_xyz
  1  'x, y, z'
loop_
 _atom_site_type_symbol
 _atom_site_label
 _atom_site_symmetry_multiplicity
 _atom_site_fract_x
 _atom_site_fract_y
 _atom_site_fract_z
 _atom_site_occupancy
  Be  Be0  1  0.00000000  0.00000000  0.99816264  1
  Be  Be1  1  0.00000000  0.00000000  0.50182178  1
  Be  Be2  1  0.83065706  0.66131413  0.25141427  1
  Be  Be3  1  0.16921722  0.83078278  0.74878127  1
  Be  Be4  1  0.66156556  0.83078278  0.74878127  1
  Be  Be5  1  0.33868587  0.16934294  0.25141427  1
  Be  Be6  1  0.83065706  0.16934294  0.25141427  1
  Be  Be7  1  0.16921722  0.33843444  0.74878127  1
  Re  Re0  1  0.66666700  0.33333300  0.56159792  1
  Re  Re1  1  0.66666700  0.33333300  0.93750267  1
  Re  Re2  1  0.33333300  0.66666700  0.43818721  1
  Mo  Mo0  1  0.33333300  0.66666700  0.06214014  1
loop_
_geom_bond_atom_site_label_1
_geom_bond_atom_site_label_2
_geom_bond_distance
_geom_bond_site_symmetry_2
Be0 Be4 2.198939 1_445
Be0 Be7 2.198939 1_555
Be0 Be3 2.198939 1_545
Be0 Be5 2.222047 1_556
Be0 Be2 2.222047 1_446
Be0 Be6 2.222048 1_456
Be0 Re1 2.565454 1_455
Be0 Re1 2.565458 1_555
Be0 Re1 2.565458 1_445
Be0 Mo0 2.569582 1_546
Be0 Mo0 2.569585 1_446
Be0 Mo0 2.569585 1_556
Be1 Be4 2.184884 1_445
Be1 Be7 2.184884 1_555
Be1 Be3 2.184884 1_545
Be1 Be5 2.205463 1_555
Be1 Be2 2.205463 1_445
Be1 Be6 2.205464 1_455
Be1 Re0 2.564391 1_455
Be1 Re0 2.564394 1_555
Be1 Re0 2.564394 1_445
Be1 Re2 2.569145 1_545
Be1 Re2 2.569149 1_445
Be1 Re2 2.569149 1_555
Be2 Be5 2.154523 1_555
Be2 Be6 2.154523 1_555
Be2 Be5 2.224845 1_665
Be2 Be6 2.224846 1_565
Be2 Re0 2.545403 1_555
Be2 Re2 2.565778 1_655
Be2 Re2 2.565782 1_555
Be2 Re1 2.568722 1_554
Be2 Mo0 2.575156 1_655
Be2 Mo0 2.575160 1_555
Be3 Be4 2.156175 1_555
Be3 Be7 2.156175 1_555
Be3 Be4 2.223194 1_455
Be3 Be7 2.223194 1_565
Be3 Re2 2.548431 1_555
Be3 Mo0 2.565722 1_556
Be3 Re0 2.567305 1_455
Be3 Re0 2.567305 1_565
Be3 Re1 2.573070 1_455
Be3 Re1 2.573070 1_565
Be4 Be7 2.156175 1_555
Be4 Be7 2.223194 1_665
Be4 Re2 2.548433 1_555
Be4 Mo0 2.565723 1_556
Be4 Re0 2.567304 1_565
Be4 Re0 2.567307 1_555
Be4 Re1 2.573069 1_565
Be4 Re1 2.573072 1_555
Be5 Be6 2.154523 1_555
Be5 Be6 2.224846 1_455
Be5 Re0 2.545403 1_555
Be5 Re2 2.565778 1_545
Be5 Re2 2.565782 1_555
Be5 Re1 2.568722 1_554
Be5 Mo0 2.575156 1_545
Be5 Mo0 2.575160 1_555
Be6 Re0 2.545401 1_555
Be6 Re2 2.565780 1_655
Be6 Re2 2.565780 1_545
Be6 Re1 2.568721 1_554
Be6 Mo0 2.575158 1_655
Be6 Mo0 2.575158 1_545
Be7 Re2 2.548433 1_555
Be7 Mo0 2.565723 1_556
Be7 Re0 2.567304 1_455
Be7 Re0 2.567307 1_555
Be7 Re1 2.573069 1_455
Be7 Re1 2.573072 1_555
Re0 Re2 2.678361 1_655
Re0 Re2 2.678361 1_545
Re0 Re2 2.678368 1_555
Re0 Re1 2.691284 1_555
Mo0 Re1 2.681271 1_454
Mo0 Re1 2.681271 1_564
Mo0 Re1 2.681278 1_554
Mo0 Re2 2.692303 1_555
