# generated using pymatgen
data_CsTa(WS3)2
_symmetry_space_group_name_H-M   'P 1'
_cell_length_a   5.62768759
_cell_length_b   5.62768873
_cell_length_c   18.11883800
_cell_angle_alpha   90.00000000
_cell_angle_beta   90.00000000
_cell_angle_gamma   119.99999915
_symmetry_Int_Tables_number   1
_chemical_formula_structural   CsTa(WS3)2
_chemical_formula_sum   'Cs2 Ta2 W4 S12'
_cell_volume   496.95953341
_cell_formula_units_Z   2
loop_
 _symmetry_equiv_pos_site_id
 _symmetry_equiv_pos_as_xyz
  1  'x, y, z'
loop_
 _atom_site_type_symbol
 _atom_site_label
 _atom_site_symmetry_multiplicity
 _atom_site_fract_x
 _atom_site_fract_y
 _atom_site_fract_z
 _atom_site_occupancy
  Cs  Cs0  1  0.00000000  0.00000000  0.50000000  1
  Cs  Cs1  1  0.00000000  0.00000000  0.00000000  1
  Ta  Ta0  1  0.66666700  0.33333300  0.25000000  1
  Ta  Ta1  1  0.33333300  0.66666700  0.75000000  1
  W  W0  1  0.00000000  0.00000000  0.25000000  1
  W  W1  1  0.00000000  0.00000000  0.75000000  1
  W  W2  1  0.33333300  0.66666700  0.25000000  1
  W  W3  1  0.66666700  0.33333300  0.75000000  1
  S  S0  1  0.32931458  0.99448551  0.16438498  1
  S  S1  1  0.00551449  0.33482906  0.16438498  1
  S  S2  1  0.66517094  0.67068542  0.16438498  1
  S  S3  1  0.33482906  0.32931458  0.66438498  1
  S  S4  1  0.66517094  0.67068542  0.33561502  1
  S  S5  1  0.67068542  0.00551449  0.66438498  1
  S  S6  1  0.99448551  0.66517094  0.66438498  1
  S  S7  1  0.99448551  0.66517094  0.83561502  1
  S  S8  1  0.33482906  0.32931458  0.83561502  1
  S  S9  1  0.00551449  0.33482906  0.33561502  1
  S  S10  1  0.32931458  0.99448551  0.33561502  1
  S  S11  1  0.67068542  0.00551449  0.83561502  1
loop_
_geom_bond_atom_site_label_1
_geom_bond_atom_site_label_2
_geom_bond_distance
_geom_bond_site_symmetry_2
Cs0 S5 3.516301 1_455
Cs0 S10 3.516301 1_545
Cs0 S3 3.516301 1_555
Cs0 S4 3.516301 1_445
Cs0 S6 3.516302 1_445
Cs0 S9 3.516302 1_555
Cs1 S0 3.516301 1_545
Cs1 S11 3.516301 1_454
Cs1 S2 3.516301 1_445
Cs1 S8 3.516301 1_554
Cs1 S1 3.516302 1_555
Cs1 S7 3.516302 1_444
S0 W2 2.419112 1_555
S0 W0 2.428885 1_565
S0 Ta0 2.454946 1_565
S1 W2 2.419114 1_555
S1 W0 2.428885 1_555
S1 Ta0 2.454944 1_455
S2 W2 2.419116 1_555
S2 W0 2.428885 1_665
S2 Ta0 2.454949 1_555
S3 W3 2.419116 1_555
S3 W1 2.428885 1_555
S3 Ta1 2.454949 1_555
S4 W2 2.419116 1_555
S4 W0 2.428885 1_665
S4 Ta0 2.454949 1_555
S5 W3 2.419112 1_555
S5 W1 2.428885 1_655
S5 Ta1 2.454946 1_545
S6 W3 2.419114 1_555
S6 W1 2.428885 1_665
S6 Ta1 2.454944 1_655
S7 W3 2.419114 1_555
S7 W1 2.428885 1_665
S7 Ta1 2.454944 1_655
S8 W3 2.419116 1_555
S8 W1 2.428885 1_555
S8 Ta1 2.454949 1_555
S9 W2 2.419114 1_555
S9 W0 2.428885 1_555
S9 Ta0 2.454944 1_455
S10 W2 2.419112 1_555
S10 W0 2.428885 1_565
S10 Ta0 2.454946 1_565
S11 W3 2.419112 1_555
S11 W1 2.428885 1_655
S11 Ta1 2.454946 1_545
