# generated using pymatgen
data_LiS4IO14
_symmetry_space_group_name_H-M   'P 1'
_cell_length_a   5.31410375
_cell_length_b   6.64703976
_cell_length_c   8.97571400
_cell_angle_alpha   107.21773633
_cell_angle_beta   91.05725947
_cell_angle_gamma   102.33835638
_symmetry_Int_Tables_number   1
_chemical_formula_structural   LiS4IO14
_chemical_formula_sum   'Li1 S4 I1 O14'
_cell_volume   294.71060947
_cell_formula_units_Z   1
loop_
 _symmetry_equiv_pos_site_id
 _symmetry_equiv_pos_as_xyz
  1  'x, y, z'
loop_
 _atom_site_type_symbol
 _atom_site_label
 _atom_site_symmetry_multiplicity
 _atom_site_fract_x
 _atom_site_fract_y
 _atom_site_fract_z
 _atom_site_occupancy
  Li  Li0  1  0.50000000  0.00000000  0.00000000  1
  S  S0  1  0.93065382  0.74145454  0.78821102  1
  S  S1  1  0.06934618  0.25854546  0.21178898  1
  S  S2  1  0.64528228  0.30981517  0.76929674  1
  S  S3  1  0.35471772  0.69018483  0.23070326  1
  I  I0  1  0.50000000  0.50000000  0.50000000  1
  O  O0  1  0.88568045  0.64909259  0.61100310  1
  O  O1  1  0.11431955  0.35090741  0.38899690  1
  O  O2  1  0.43848656  0.39857237  0.70598783  1
  O  O3  1  0.56151344  0.60142763  0.29401217  1
  O  O4  1  0.19809397  0.83272444  0.82859228  1
  O  O5  1  0.80190603  0.16727556  0.17140772  1
  O  O6  1  0.74744922  0.86257496  0.85247565  1
  O  O7  1  0.25255078  0.13742504  0.14752435  1
  O  O8  1  0.55958293  0.25197576  0.90263206  1
  O  O9  1  0.44041707  0.74802424  0.09736794  1
  O  O10  1  0.87811673  0.52890507  0.84587976  1
  O  O11  1  0.12188327  0.47109493  0.15412024  1
  O  O12  1  0.75222278  0.17006140  0.64927821  1
  O  O13  1  0.24777722  0.82993860  0.35072179  1
loop_
_geom_bond_atom_site_label_1
_geom_bond_atom_site_label_2
_geom_bond_distance
_geom_bond_site_symmetry_2
Li0 O7 2.044126 1_555
Li0 O6 2.044126 1_544
Li0 O5 2.076317 1_555
Li0 O4 2.076317 1_544
Li0 O9 2.078325 1_545
Li0 O8 2.078325 1_554
I0 O3 2.155421 1_555
I0 O2 2.155421 1_555
I0 O0 2.155805 1_555
I0 O1 2.155805 1_555
O0 S0 1.519574 1_555
O1 S1 1.519574 1_555
O2 S2 1.526803 1_555
O3 S3 1.526803 1_555
O4 S0 1.414772 1_455
O5 S1 1.414772 1_655
O6 S0 1.417571 1_555
O7 S1 1.417571 1_555
O8 S2 1.416041 1_555
O9 S3 1.416041 1_555
O10 S0 1.616059 1_555
O10 S2 1.652318 1_555
O11 S1 1.616059 1_555
O11 S3 1.652318 1_555
O12 S2 1.414974 1_555
O13 S3 1.414974 1_555
