# generated using pymatgen
data_FeCu(IrO4)2
_symmetry_space_group_name_H-M   'P 1'
_cell_length_a   5.39112332
_cell_length_b   5.39112350
_cell_length_c   5.39112303
_cell_angle_alpha   108.83112472
_cell_angle_beta   108.57575757
_cell_angle_gamma   111.01802757
_symmetry_Int_Tables_number   1
_chemical_formula_structural   FeCu(IrO4)2
_chemical_formula_sum   'Fe1 Cu1 Ir2 O8'
_cell_volume   120.55234667
_cell_formula_units_Z   1
loop_
 _symmetry_equiv_pos_site_id
 _symmetry_equiv_pos_as_xyz
  1  'x, y, z'
loop_
 _atom_site_type_symbol
 _atom_site_label
 _atom_site_symmetry_multiplicity
 _atom_site_fract_x
 _atom_site_fract_y
 _atom_site_fract_z
 _atom_site_occupancy
  Fe  Fe0  1  0.49099499  0.99099399  0.50000000  1
  Cu  Cu0  1  0.74705866  0.74705866  1.00000000  1
  Ir  Ir0  1  0.25122469  0.25122469  1.00000000  1
  Ir  Ir1  1  0.00244550  0.50244550  0.50000000  1
  O  O0  1  0.00395765  0.20227073  0.19831309  1
  O  O1  1  0.49719811  0.70126763  0.20407052  1
  O  O2  1  0.06977622  0.75919032  0.31058490  1
  O  O3  1  0.55162672  0.24378250  0.30784422  1
  O  O4  1  0.93593828  0.24378250  0.69215478  1
  O  O5  1  0.44860442  0.75919032  0.68941410  1
  O  O6  1  0.49719811  0.29312659  0.79592848  1
  O  O7  1  0.00395765  0.80564356  0.80168691  1
loop_
_geom_bond_atom_site_label_1
_geom_bond_atom_site_label_2
_geom_bond_distance
_geom_bond_site_symmetry_2
Fe0 O5 1.850492 1_555
Fe0 O2 1.850496 1_555
Fe0 O6 1.857107 1_565
Fe0 O1 1.857111 1_555
Fe0 O4 1.960828 1_565
Fe0 O3 1.960831 1_565
Cu0 O2 1.956146 1_656
Cu0 O5 1.956149 1_555
Cu0 O1 1.991677 1_556
Cu0 O6 1.991681 1_555
Cu0 O7 2.002136 1_655
Cu0 O0 2.002136 1_666
Ir0 O3 1.938023 1_556
Ir0 O4 1.938027 1_455
Ir0 O0 1.956403 1_556
Ir0 O7 1.956408 1_545
Ir0 O1 1.973552 1_556
Ir0 O6 1.973560 1_555
Ir1 O7 1.892867 1_555
Ir1 O0 1.892870 1_555
Ir1 O5 1.969410 1_555
Ir1 O2 1.969414 1_555
Ir1 O4 1.989184 1_455
Ir1 O3 1.989188 1_455
