# generated using pymatgen
data_Sr3Sn13Rh4
_symmetry_space_group_name_H-M   'P 1'
_cell_length_a   9.87031518
_cell_length_b   9.87031690
_cell_length_c   9.87030248
_cell_angle_alpha   90.00000255
_cell_angle_beta   90.00003146
_cell_angle_gamma   90.00001730
_symmetry_Int_Tables_number   1
_chemical_formula_structural   Sr3Sn13Rh4
_chemical_formula_sum   'Sr6 Sn26 Rh8'
_cell_volume   961.59584781
_cell_formula_units_Z   2
loop_
 _symmetry_equiv_pos_site_id
 _symmetry_equiv_pos_as_xyz
  1  'x, y, z'
loop_
 _atom_site_type_symbol
 _atom_site_label
 _atom_site_symmetry_multiplicity
 _atom_site_fract_x
 _atom_site_fract_y
 _atom_site_fract_z
 _atom_site_occupancy
  Sr  Sr0  1  -0.00000051  0.49999995  0.75000084  1
  Sr  Sr1  1  0.49999985  0.24999839  -0.00000004  1
  Sr  Sr2  1  0.75000004  -0.00000012  0.50000053  1
  Sr  Sr3  1  0.00000051  0.50000005  0.24999916  1
  Sr  Sr4  1  0.50000015  0.75000161  0.00000004  1
  Sr  Sr5  1  0.24999996  0.00000012  0.49999947  1
  Sn  Sn0  1  0.50000000  0.50000000  0.50000000  1
  Sn  Sn1  1  -0.00000000  -0.00000000  0.00000000  1
  Sn  Sn2  1  0.80012712  0.34646506  0.49999976  1
  Sn  Sn3  1  0.65353593  0.50000157  0.80012735  1
  Sn  Sn4  1  0.49999897  0.19987239  0.65353465  1
  Sn  Sn5  1  0.19987288  0.65353494  0.50000024  1
  Sn  Sn6  1  0.34646407  0.49999843  0.19987265  1
  Sn  Sn7  1  0.50000103  0.80012761  0.34646535  1
  Sn  Sn8  1  0.80012670  0.65353563  0.50000075  1
  Sn  Sn9  1  0.65353561  0.50000057  0.19987287  1
  Sn  Sn10  1  0.19987330  0.34646437  0.49999925  1
  Sn  Sn11  1  0.34646439  0.49999943  0.80012713  1
  Sn  Sn12  1  0.50000192  0.80012749  0.65353481  1
  Sn  Sn13  1  0.49999808  0.19987251  0.34646519  1
  Sn  Sn14  1  0.30012691  0.00000055  0.84646546  1
  Sn  Sn15  1  0.15353521  0.30012650  0.00000062  1
  Sn  Sn16  1  0.00000075  0.15353492  0.69987317  1
  Sn  Sn17  1  0.69987309  -0.00000055  0.15353454  1
  Sn  Sn18  1  0.84646479  0.69987350  -0.00000062  1
  Sn  Sn19  1  -0.00000075  0.84646508  0.30012683  1
  Sn  Sn20  1  0.30012713  0.00000161  0.15353485  1
  Sn  Sn21  1  0.15353449  0.69987314  0.00000030  1
  Sn  Sn22  1  0.69987287  0.99999839  0.84646515  1
  Sn  Sn23  1  0.84646551  0.30012686  -0.00000030  1
  Sn  Sn24  1  0.00000123  0.15353509  0.30012673  1
  Sn  Sn25  1  -0.00000123  0.84646491  0.69987327  1
  Rh  Rh0  1  0.74999958  0.25000123  0.74999857  1
  Rh  Rh1  1  0.25000042  0.74999877  0.25000143  1
  Rh  Rh2  1  0.74999938  0.74999871  0.25000119  1
  Rh  Rh3  1  0.25000062  0.25000129  0.74999881  1
  Rh  Rh4  1  0.25000054  0.74999813  0.74999880  1
  Rh  Rh5  1  0.74999946  0.25000187  0.25000120  1
  Rh  Rh6  1  0.25000030  0.25000124  0.25000136  1
  Rh  Rh7  1  0.74999970  0.74999876  0.74999864  1
loop_
_geom_bond_atom_site_label_1
_geom_bond_atom_site_label_2
_geom_bond_distance
_geom_bond_site_symmetry_2
Sn0 Sn10 3.327471 1_555
Sn0 Sn8 3.327471 1_555
Sn0 Sn11 3.327472 1_555
Sn0 Sn9 3.327472 1_555
Sn0 Sn2 3.327472 1_555
Sn0 Sn5 3.327472 1_555
Sn0 Sn13 3.327474 1_555
Sn0 Sn12 3.327474 1_555
Sn0 Sn6 3.327474 1_555
Sn0 Sn3 3.327474 1_555
Sn0 Sn4 3.327474 1_555
Sn0 Sn7 3.327474 1_555
Sn1 Sn24 3.327465 1_555
Sn1 Sn25 3.327465 1_544
Sn1 Sn16 3.327466 1_554
Sn1 Sn19 3.327466 1_545
Sn1 Sn15 3.327467 1_555
Sn1 Sn18 3.327467 1_445
Sn1 Sn14 3.327468 1_554
Sn1 Sn17 3.327468 1_455
Sn1 Sn23 3.327468 1_455
Sn1 Sn21 3.327468 1_545
Sn1 Sn20 3.327470 1_555
Sn1 Sn22 3.327470 1_444
Sn2 Sn8 3.030884 1_555
Sn2 Sn24 3.377910 1_655
Sn2 Sr2 3.455328 1_555
Sn2 Sr0 3.503923 1_655
Sn2 Sr3 3.503928 1_655
Sn3 Sr0 3.455311 1_655
Sn3 Sr4 3.503925 1_556
Sn3 Sr1 3.503947 1_556
Sn4 Sr1 3.455323 1_556
Sn4 Sr5 3.503911 1_555
Sn4 Sr2 3.503924 1_555
Sn5 Sr5 3.455328 1_565
Sn5 Sr3 3.503923 1_555
Sn5 Sr0 3.503928 1_555
Sn6 Sn9 3.030893 1_555
Sn6 Sr3 3.455311 1_555
Sn6 Sr1 3.503925 1_555
Sn6 Sr4 3.503947 1_555
Sn7 Sr4 3.455323 1_555
Sn7 Sr2 3.503911 1_565
Sn7 Sr5 3.503924 1_565
Sn8 Sr2 3.455318 1_565
Sn8 Sr0 3.503923 1_655
Sn8 Sr3 3.503940 1_655
Sn9 Sr3 3.455323 1_655
Sn9 Sr4 3.503930 1_555
Sn9 Sr1 3.503939 1_555
Sn10 Sn5 3.030884 1_555
Sn10 Sn24 3.377890 1_555
Sn10 Sn16 3.377903 1_555
Sn10 Sr5 3.455318 1_555
Sn10 Sr3 3.503923 1_555
Sn10 Sr0 3.503940 1_555
Sn11 Sn3 3.030893 1_555
Sn11 Sn15 3.377901 1_556
Sn11 Sn21 3.377908 1_556
Sn11 Sr0 3.455323 1_555
Sn11 Sr1 3.503930 1_556
Sn11 Sr4 3.503939 1_556
Sn12 Sn7 3.030868 1_555
Sn12 Sn22 3.377880 1_555
Sn12 Sn14 3.377919 1_565
Sn12 Sr4 3.455322 1_556
Sn12 Sr2 3.503903 1_565
Sn12 Sr5 3.503935 1_565
Sn13 Sn4 3.030868 1_555
Sn13 Sn20 3.377880 1_555
Sn13 Sn17 3.377919 1_555
Sn13 Sr1 3.455322 1_555
Sn13 Sr5 3.503903 1_555
Sn13 Sr2 3.503935 1_555
Sn14 Sn20 3.030868 1_556
Sn14 Sn4 3.377896 1_555
Sn14 Sr5 3.455330 1_555
Sn14 Sr1 3.503904 1_556
Sn14 Sr4 3.503915 1_546
Sn15 Sn23 3.030875 1_455
Sn15 Sn6 3.377884 1_555
Sn15 Sr1 3.455324 1_555
Sn15 Sr3 3.503914 1_555
Sn15 Sr0 3.503925 1_554
Sn16 Sn25 3.030878 1_545
Sn16 Sn2 3.377909 1_455
Sn16 Sr0 3.455327 1_555
Sn16 Sr5 3.503920 1_555
Sn16 Sr2 3.503924 1_455
Sn17 Sn22 3.030868 1_544
Sn17 Sn7 3.377896 1_545
Sn17 Sr2 3.455330 1_555
Sn17 Sr4 3.503904 1_545
Sn17 Sr1 3.503915 1_555
Sn18 Sn21 3.030875 1_655
Sn18 Sn3 3.377884 1_554
Sn18 Sn9 3.377901 1_555
Sn18 Sr4 3.455324 1_555
Sn18 Sr0 3.503914 1_654
Sn18 Sr3 3.503925 1_655
Sn19 Sn24 3.030878 1_565
Sn19 Sn8 3.377903 1_455
Sn19 Sn5 3.377909 1_555
Sn19 Sr3 3.455327 1_555
Sn19 Sr2 3.503920 1_465
Sn19 Sr5 3.503924 1_565
Sn20 Sn7 3.377917 1_545
Sn20 Sr5 3.455318 1_555
Sn20 Sr1 3.503898 1_555
Sn20 Sr4 3.503923 1_545
Sn21 Sn6 3.377906 1_555
Sn21 Sr4 3.455334 1_555
Sn21 Sr3 3.503910 1_555
Sn21 Sr0 3.503917 1_554
Sn22 Sn4 3.377917 1_565
Sn22 Sr2 3.455318 1_565
Sn22 Sr4 3.503898 1_556
Sn22 Sr1 3.503923 1_566
Sn23 Sn3 3.377906 1_554
Sn23 Sn9 3.377908 1_555
Sn23 Sr1 3.455334 1_555
Sn23 Sr0 3.503910 1_654
Sn23 Sr3 3.503917 1_655
Sn24 Sr3 3.455326 1_555
Sn24 Sr5 3.503911 1_555
Sn24 Sr2 3.503936 1_455
Sn25 Sn8 3.377890 1_455
Sn25 Sn5 3.377910 1_555
Sn25 Sr0 3.455326 1_555
Sn25 Sr2 3.503911 1_465
Sn25 Sr5 3.503936 1_565
Rh0 Sn2 2.690766 1_555
Rh0 Sn3 2.690785 1_555
Rh0 Sn4 2.690787 1_555
Rh0 Sn23 2.690790 1_556
Rh0 Sn16 2.690796 1_655
Rh0 Sn22 2.690813 1_545
Rh0 Sr0 3.489674 1_655
Rh0 Sr2 3.489677 1_555
Rh0 Sr1 3.489690 1_556
Rh1 Sn5 2.690766 1_555
Rh1 Sn6 2.690785 1_555
Rh1 Sn7 2.690787 1_555
Rh1 Sn21 2.690790 1_555
Rh1 Sn19 2.690796 1_555
Rh1 Sn20 2.690813 1_565
Rh1 Sr3 3.489674 1_555
Rh1 Sr5 3.489677 1_565
Rh1 Sr4 3.489690 1_555
Rh2 Sn9 2.690764 1_555
Rh2 Sn7 2.690769 1_555
Rh2 Sn8 2.690770 1_555
Rh2 Sn19 2.690783 1_655
Rh2 Sn17 2.690794 1_565
Rh2 Sn18 2.690795 1_555
Rh2 Sr3 3.489683 1_655
Rh2 Sr4 3.489683 1_555
Rh2 Sr2 3.489685 1_565
Rh3 Sn11 2.690764 1_555
Rh3 Sn4 2.690769 1_555
Rh3 Sn10 2.690770 1_555
Rh3 Sn16 2.690783 1_555
Rh3 Sn14 2.690794 1_555
Rh3 Sn15 2.690795 1_556
Rh3 Sr0 3.489683 1_555
Rh3 Sr1 3.489683 1_556
Rh3 Sr5 3.489685 1_555
Rh4 Sn5 2.690761 1_555
Rh4 Sn11 2.690770 1_555
Rh4 Sn21 2.690794 1_556
Rh4 Sn12 2.690796 1_555
Rh4 Sn25 2.690802 1_555
Rh4 Sn14 2.690809 1_565
Rh4 Sr0 3.489678 1_555
Rh4 Sr4 3.489686 1_556
Rh4 Sr5 3.489691 1_565
Rh5 Sn2 2.690761 1_555
Rh5 Sn9 2.690770 1_555
Rh5 Sn23 2.690794 1_555
Rh5 Sn13 2.690796 1_555
Rh5 Sn24 2.690802 1_655
Rh5 Sn17 2.690809 1_555
Rh5 Sr3 3.489678 1_655
Rh5 Sr1 3.489686 1_555
Rh5 Sr2 3.489691 1_555
Rh6 Sn10 2.690755 1_555
Rh6 Sn6 2.690756 1_555
Rh6 Sn13 2.690761 1_555
Rh6 Sn24 2.690775 1_555
Rh6 Sn15 2.690783 1_555
Rh6 Sn20 2.690785 1_555
Rh6 Sr3 3.489674 1_555
Rh6 Sr5 3.489676 1_555
Rh6 Sr1 3.489689 1_555
Rh7 Sn8 2.690755 1_555
Rh7 Sn3 2.690756 1_555
Rh7 Sn12 2.690761 1_555
Rh7 Sn25 2.690775 1_655
Rh7 Sn18 2.690783 1_556
Rh7 Sn22 2.690785 1_555
Rh7 Sr0 3.489674 1_655
Rh7 Sr2 3.489676 1_565
Rh7 Sr4 3.489689 1_556
