# generated using pymatgen
data_Rb5SrNbP4
_symmetry_space_group_name_H-M   'P 1'
_cell_length_a   10.52616683
_cell_length_b   10.52616672
_cell_length_c   7.93546229
_cell_angle_alpha   87.94989101
_cell_angle_beta   87.94989430
_cell_angle_gamma   120.65449988
_symmetry_Int_Tables_number   1
_chemical_formula_structural   Rb5SrNbP4
_chemical_formula_sum   'Rb10 Sr2 Nb2 P8'
_cell_volume   754.40448014
_cell_formula_units_Z   2
loop_
 _symmetry_equiv_pos_site_id
 _symmetry_equiv_pos_as_xyz
  1  'x, y, z'
loop_
 _atom_site_type_symbol
 _atom_site_label
 _atom_site_symmetry_multiplicity
 _atom_site_fract_x
 _atom_site_fract_y
 _atom_site_fract_z
 _atom_site_occupancy
  Rb  Rb0  1  0.46529304  0.52425598  0.49463272  1
  Rb  Rb1  1  0.06011698  0.52786106  0.49818815  1
  Rb  Rb2  1  0.52425598  0.46529304  0.99463272  1
  Rb  Rb3  1  0.52786106  0.06011698  0.99818815  1
  Rb  Rb4  1  0.86523488  0.14092241  0.68305242  1
  Rb  Rb5  1  0.29616430  0.15446446  0.73059631  1
  Rb  Rb6  1  0.85631325  0.71934808  0.65197245  1
  Rb  Rb7  1  0.14092241  0.86523488  0.18305242  1
  Rb  Rb8  1  0.71934808  0.85631325  0.15197245  1
  Rb  Rb9  1  0.15446446  0.29616430  0.23059631  1
  Sr  Sr0  1  0.46261776  0.93331274  0.49139666  1
  Sr  Sr1  1  0.93331274  0.46261776  0.99139666  1
  Nb  Nb0  1  0.67100165  0.32825543  0.39278580  1
  Nb  Nb1  1  0.32825543  0.67100165  0.89278580  1
  P  P0  1  0.69178720  0.34291230  0.69548512  1
  P  P1  1  0.34291230  0.69178720  0.19548512  1
  P  P2  1  0.78905295  0.19786691  0.28627873  1
  P  P3  1  0.41202849  0.18833564  0.33021323  1
  P  P4  1  0.79714526  0.57570621  0.25968740  1
  P  P5  1  0.19786691  0.78905295  0.78627873  1
  P  P6  1  0.57570621  0.79714526  0.75968740  1
  P  P7  1  0.18833564  0.41202849  0.83021323  1
loop_
_geom_bond_atom_site_label_1
_geom_bond_atom_site_label_2
_geom_bond_distance
_geom_bond_site_symmetry_2
Nb0 P4 2.416445 1_555
Nb0 P0 2.423067 1_555
Nb0 P2 2.426761 1_555
Nb0 P3 2.429382 1_555
Nb1 P6 2.416445 1_555
Nb1 P1 2.423067 1_556
Nb1 P5 2.426761 1_555
Nb1 P7 2.429382 1_555
P0 Sr1 3.307175 1_555
P0 Rb3 3.400385 1_555
P0 Rb6 3.417753 1_555
P0 Rb4 3.438635 1_555
P0 Rb2 3.555321 1_555
P0 Rb5 3.578898 1_555
P0 Rb1 3.594999 1_655
P1 Sr0 3.307175 1_555
P1 Rb1 3.400385 1_555
P1 Rb8 3.417753 1_555
P1 Rb7 3.438635 1_555
P1 Rb0 3.555321 1_555
P1 Rb9 3.578898 1_555
P1 Rb3 3.594999 1_564
P2 Sr1 3.242199 1_554
P2 Rb4 3.384032 1_555
P2 Rb3 3.392568 1_554
P2 Sr0 3.424797 1_545
P2 Rb9 3.442074 1_655
P2 Rb8 3.498604 1_545
P2 Rb1 3.699911 1_655
P3 Sr0 3.222793 1_545
P3 Rb5 3.302668 1_555
P3 Rb7 3.420522 1_545
P3 Rb3 3.457287 1_554
P3 Rb9 3.534209 1_555
P3 Rb2 3.562814 1_554
P3 Rb0 3.588941 1_555
P4 Sr1 3.115602 1_554
P4 Rb7 3.349132 1_655
P4 Rb2 3.350936 1_554
P4 Rb6 3.446706 1_555
P4 Rb8 3.530104 1_555
P4 Rb1 3.636773 1_655
P4 Rb0 3.674774 1_555
P5 Sr0 3.242199 1_555
P5 Rb7 3.384032 1_556
P5 Rb1 3.392568 1_555
P5 Sr1 3.424797 1_455
P5 Rb5 3.442074 1_565
P5 Rb6 3.498604 1_455
P5 Rb3 3.699911 1_565
P6 Sr0 3.115601 1_555
P6 Rb4 3.349132 1_565
P6 Rb0 3.350936 1_555
P6 Rb8 3.446706 1_556
P6 Rb6 3.530104 1_555
P6 Rb3 3.636773 1_565
P6 Rb2 3.674774 1_555
P7 Sr1 3.222793 1_455
P7 Rb9 3.302668 1_556
P7 Rb4 3.420522 1_455
P7 Rb1 3.457287 1_555
P7 Rb5 3.534209 1_555
P7 Rb0 3.562814 1_555
P7 Rb2 3.588941 1_555
