# generated using pymatgen
data_Al2CrS4
_symmetry_space_group_name_H-M   'P 1'
_cell_length_a   7.11322731
_cell_length_b   7.11322731
_cell_length_c   7.11322731
_cell_angle_alpha   120.50298341
_cell_angle_beta   119.24200488
_cell_angle_gamma   90.22444446
_symmetry_Int_Tables_number   1
_chemical_formula_structural   Al2CrS4
_chemical_formula_sum   'Al4 Cr2 S8'
_cell_volume   254.94835666
_cell_formula_units_Z   2
loop_
 _symmetry_equiv_pos_site_id
 _symmetry_equiv_pos_as_xyz
  1  'x, y, z'
loop_
 _atom_site_type_symbol
 _atom_site_label
 _atom_site_symmetry_multiplicity
 _atom_site_fract_x
 _atom_site_fract_y
 _atom_site_fract_z
 _atom_site_occupancy
  Al  Al0  1  0.88096700  0.13096700  0.75000000  1
  Al  Al1  1  0.11903300  0.86903300  0.25000000  1
  Al  Al2  1  0.00000000  0.50000000  0.50000000  1
  Al  Al3  1  0.50000000  0.50000000  0.00000000  1
  Cr  Cr0  1  0.50000000  0.50000000  0.50000000  1
  Cr  Cr1  1  0.50000000  0.00000000  0.00000000  1
  S  S0  1  0.25511800  0.74129700  0.51382100  1
  S  S1  1  0.72747700  0.74129700  0.98617900  1
  S  S2  1  0.25679500  0.27147500  0.51468000  1
  S  S3  1  0.25679500  0.74211500  0.98532000  1
  S  S4  1  0.74320500  0.25788500  0.01468000  1
  S  S5  1  0.74320500  0.72852500  0.48532000  1
  S  S6  1  0.27252300  0.25870300  0.01382100  1
  S  S7  1  0.74488200  0.25870300  0.48617900  1
loop_
_geom_bond_atom_site_label_1
_geom_bond_atom_site_label_2
_geom_bond_distance
_geom_bond_site_symmetry_2
Al0 S6 2.290714 1_656
Al0 S7 2.290719 1_555
Al0 S4 2.324633 1_556
Al0 S5 2.324633 1_545
Al1 S1 2.290714 1_454
Al1 S0 2.290719 1_555
Al1 S3 2.324633 1_554
Al1 S2 2.324633 1_565
Al2 S0 2.424638 1_555
Al2 S7 2.424638 1_455
Al2 S4 2.449319 1_455
Al2 S5 2.449319 1_455
Al2 S3 2.449319 1_555
Al2 S2 2.449319 1_555
Al3 S1 2.424642 1_554
Al3 S6 2.424642 1_555
Al3 S2 2.449319 1_554
Al3 S4 2.449319 1_555
Al3 S5 2.449319 1_555
Al3 S3 2.449319 1_554
Cr0 S5 2.443952 1_555
Cr0 S2 2.443952 1_555
Cr0 S1 2.451397 1_555
Cr0 S6 2.451397 1_555
Cr0 S0 2.451397 1_555
Cr0 S7 2.451397 1_555
Cr1 S4 2.443952 1_555
Cr1 S3 2.443952 1_544
Cr1 S7 2.451397 1_555
Cr1 S0 2.451397 1_544
Cr1 S6 2.451402 1_555
Cr1 S1 2.451402 1_544
