# generated using pymatgen
data_MgTa(Nb2N3)4
_symmetry_space_group_name_H-M   'P 1'
_cell_length_a   5.25962995
_cell_length_b   5.25963109
_cell_length_c   10.37055779
_cell_angle_alpha   90.00000000
_cell_angle_beta   90.00000000
_cell_angle_gamma   120.00001161
_symmetry_Int_Tables_number   1
_chemical_formula_structural   MgTa(Nb2N3)4
_chemical_formula_sum   'Mg1 Ta1 Nb8 N12'
_cell_volume   248.45238482
_cell_formula_units_Z   1
loop_
 _symmetry_equiv_pos_site_id
 _symmetry_equiv_pos_as_xyz
  1  'x, y, z'
loop_
 _atom_site_type_symbol
 _atom_site_label
 _atom_site_symmetry_multiplicity
 _atom_site_fract_x
 _atom_site_fract_y
 _atom_site_fract_z
 _atom_site_occupancy
  Mg  Mg0  1  0.33333300  0.66666700  0.50000000  1
  Ta  Ta0  1  0.66666700  0.33333300  0.50000000  1
  Nb  Nb0  1  0.67687483  0.68088072  0.74983786  1
  Nb  Nb1  1  0.31911928  0.99599511  0.74983786  1
  Nb  Nb2  1  0.00400489  0.32312517  0.74983786  1
  Nb  Nb3  1  0.31911928  0.32312517  0.25016214  1
  Nb  Nb4  1  0.67687483  0.99599511  0.25016214  1
  Nb  Nb5  1  0.00400489  0.68088072  0.25016214  1
  Nb  Nb6  1  0.66666700  0.33333300  0.00000000  1
  Nb  Nb7  1  0.33333300  0.66666700  0.00000000  1
  N  N0  1  0.65444864  0.64587995  0.37618101  1
  N  N1  1  0.35412005  0.00856869  0.37618101  1
  N  N2  1  0.99143131  0.34555136  0.37618101  1
  N  N3  1  0.35412005  0.34555136  0.62381899  1
  N  N4  1  0.65444864  0.00856869  0.62381899  1
  N  N5  1  0.99143131  0.64587995  0.62381899  1
  N  N6  1  0.34132575  0.34049825  0.87909168  1
  N  N7  1  0.65950175  0.00082750  0.87909168  1
  N  N8  1  0.99917250  0.65867425  0.87909168  1
  N  N9  1  0.65950175  0.65867425  0.12090832  1
  N  N10  1  0.34132575  0.00082750  0.12090832  1
  N  N11  1  0.99917250  0.34049825  0.12090832  1
loop_
_geom_bond_atom_site_label_1
_geom_bond_atom_site_label_2
_geom_bond_distance
_geom_bond_site_symmetry_2
Mg0 N5 2.167483 1_455
Mg0 N1 2.167483 1_565
Mg0 N2 2.167485 1_455
Mg0 N4 2.167485 1_565
Mg0 N0 2.167487 1_555
Mg0 N3 2.167488 1_555
N0 Ta0 2.112099 1_555
N0 Nb3 2.169411 1_555
N0 Nb5 2.187144 1_655
N0 Nb4 2.212621 1_555
N1 Ta0 2.112096 1_555
N1 Nb4 2.169409 1_545
N1 Nb3 2.187149 1_555
N1 Nb5 2.212619 1_545
N2 Ta0 2.112094 1_555
N2 Nb5 2.169413 1_655
N2 Nb4 2.187146 1_545
N2 Nb3 2.212616 1_655
N3 Ta0 2.112098 1_555
N3 Nb0 2.169411 1_555
N3 Nb1 2.187144 1_545
N3 Nb2 2.212621 1_555
N4 Ta0 2.112094 1_555
N4 Nb1 2.169413 1_545
N4 Nb2 2.187146 1_655
N4 Nb0 2.212617 1_545
N5 Ta0 2.112096 1_555
N5 Nb2 2.169409 1_655
N5 Nb0 2.187148 1_555
N5 Nb1 2.212619 1_655
N6 Nb6 2.136881 1_556
N6 Nb7 2.142231 1_556
N6 Nb2 2.188771 1_555
N6 Nb1 2.209518 1_545
N6 Nb0 2.226437 1_555
N7 Nb6 2.136877 1_556
N7 Nb7 2.142228 1_546
N7 Nb0 2.188768 1_545
N7 Nb2 2.209519 1_655
N7 Nb1 2.226439 1_545
N8 Nb6 2.136878 1_556
N8 Nb7 2.142226 1_656
N8 Nb1 2.188769 1_655
N8 Nb0 2.209522 1_555
N8 Nb2 2.226435 1_655
N9 Nb6 2.136881 1_555
N9 Nb7 2.142230 1_555
N9 Nb4 2.188772 1_555
N9 Nb5 2.209518 1_655
N9 Nb3 2.226437 1_555
N10 Nb6 2.136878 1_555
N10 Nb7 2.142226 1_545
N10 Nb5 2.188769 1_545
N10 Nb3 2.209522 1_555
N10 Nb4 2.226435 1_545
N11 Nb6 2.136876 1_555
N11 Nb7 2.142228 1_655
N11 Nb3 2.188767 1_655
N11 Nb4 2.209519 1_545
N11 Nb5 2.226439 1_655
