# generated using pymatgen
data_YB2OsRu
_symmetry_space_group_name_H-M   'P 1'
_cell_length_a   6.59409409
_cell_length_b   5.89718712
_cell_length_c   5.56537202
_cell_angle_alpha   70.16907627
_cell_angle_beta   57.27541446
_cell_angle_gamma   52.55550321
_symmetry_Int_Tables_number   1
_chemical_formula_structural   YB2OsRu
_chemical_formula_sum   'Y2 B4 Os2 Ru2'
_cell_volume   144.53368086
_cell_formula_units_Z   2
loop_
 _symmetry_equiv_pos_site_id
 _symmetry_equiv_pos_as_xyz
  1  'x, y, z'
loop_
 _atom_site_type_symbol
 _atom_site_label
 _atom_site_symmetry_multiplicity
 _atom_site_fract_x
 _atom_site_fract_y
 _atom_site_fract_z
 _atom_site_occupancy
  Y  Y0  1  0.00000000  0.00000000  0.00000000  1
  Y  Y1  1  0.25000000  0.25000000  0.25000000  1
  B  B0  1  0.30758763  0.69241237  0.30758763  1
  B  B1  1  0.69241237  0.30758763  0.69241237  1
  B  B2  1  0.56132375  0.93867625  0.56132375  1
  B  B3  1  0.93867625  0.56132375  0.93867625  1
  Os  Os0  1  0.61084573  0.61084573  0.88915427  1
  Os  Os1  1  0.88915427  0.88915427  0.61084573  1
  Ru  Ru0  1  0.63880773  0.63880773  0.36119227  1
  Ru  Ru1  1  0.36119227  0.36119227  0.63880773  1
loop_
_geom_bond_atom_site_label_1
_geom_bond_atom_site_label_2
_geom_bond_distance
_geom_bond_site_symmetry_2
B0 Os1 2.051503 1_455
B0 Os0 2.051503 1_554
B0 Ru1 2.181779 1_555
B0 Ru0 2.181779 1_555
B0 Y0 2.740073 1_565
B0 Y1 2.992888 1_565
B0 Y1 2.992888 1_555
B1 Os1 2.051502 1_545
B1 Os0 2.051502 1_555
B1 Ru0 2.181779 1_555
B1 Ru1 2.181779 1_555
B1 Y0 2.740073 1_656
B1 Y1 2.992889 1_655
B1 Y1 2.992889 1_556
B2 Ru1 2.061842 1_565
B2 Ru0 2.061843 1_555
B2 Os0 2.157842 1_555
B2 Os1 2.157842 1_555
B2 Y1 2.773355 1_565
B2 Y0 2.998773 1_566
B2 Y0 2.998773 1_665
B3 Ru1 2.061843 1_655
B3 Ru0 2.061843 1_556
B3 Os1 2.157842 1_555
B3 Os0 2.157842 1_555
B3 Y1 2.773355 1_656
B3 Y0 2.998772 1_656
B3 Y0 2.998772 1_666
Os0 Y0 2.984177 1_656
Os0 Y0 2.984177 1_566
Os1 Y0 2.984177 1_666
Os1 Y0 2.984178 1_665
Ru0 Y1 2.985396 1_565
Ru0 Y1 2.985396 1_655
Ru1 Y1 2.985396 1_555
Ru1 Y1 2.985396 1_556
