# generated using pymatgen
data_Zr2P3H4NO12
_symmetry_space_group_name_H-M   'P 1'
_cell_length_a   9.68110368
_cell_length_b   9.68110368
_cell_length_c   9.68110357
_cell_angle_alpha   54.13775103
_cell_angle_beta   54.13775103
_cell_angle_gamma   54.13774857
_symmetry_Int_Tables_number   1
_chemical_formula_structural   Zr2P3H4NO12
_chemical_formula_sum   'Zr4 P6 H8 N2 O24'
_cell_volume   553.78594837
_cell_formula_units_Z   2
loop_
 _symmetry_equiv_pos_site_id
 _symmetry_equiv_pos_as_xyz
  1  'x, y, z'
loop_
 _atom_site_type_symbol
 _atom_site_label
 _atom_site_symmetry_multiplicity
 _atom_site_fract_x
 _atom_site_fract_y
 _atom_site_fract_z
 _atom_site_occupancy
  Zr  Zr0  1  0.15140900  0.15140900  0.15140900  1
  Zr  Zr1  1  0.34953700  0.34953700  0.34953700  1
  Zr  Zr2  1  0.65140900  0.65140900  0.65140900  1
  Zr  Zr3  1  0.84953700  0.84953700  0.84953700  1
  P  P0  1  0.74861300  0.03721000  0.46685100  1
  P  P1  1  0.03721000  0.46685100  0.74861300  1
  P  P2  1  0.46685100  0.74861300  0.03721000  1
  P  P3  1  0.53721000  0.24861300  0.96685100  1
  P  P4  1  0.96685100  0.53721000  0.24861300  1
  P  P5  1  0.24861300  0.96685100  0.53721000  1
  H  H0  1  0.46395200  0.46395200  0.46395200  1
  H  H1  1  0.64627400  0.45482400  0.46068900  1
  H  H2  1  0.45482400  0.46068900  0.64627400  1
  H  H3  1  0.46068900  0.64627400  0.45482400  1
  H  H4  1  0.95482400  0.14627400  0.96068900  1
  H  H5  1  0.96068900  0.95482400  0.14627400  1
  H  H6  1  0.14627400  0.96068900  0.95482400  1
  H  H7  1  0.96395200  0.96395200  0.96395200  1
  N  N0  1  0.00547500  0.00547500  0.00547500  1
  N  N1  1  0.50547500  0.50547500  0.50547500  1
  O  O0  1  0.24664900  0.13984200  0.51346700  1
  O  O1  1  0.51346700  0.24664900  0.13984200  1
  O  O2  1  0.13984200  0.51346700  0.24664900  1
  O  O3  1  0.92353600  0.07283800  0.30271300  1
  O  O4  1  0.57609300  0.20187100  0.42838600  1
  O  O5  1  0.74664900  0.01346700  0.63984200  1
  O  O6  1  0.07283800  0.30271300  0.92353600  1
  O  O7  1  0.20187100  0.42838600  0.57609300  1
  O  O8  1  0.42838600  0.57609300  0.20187100  1
  O  O9  1  0.70187100  0.07609300  0.92838600  1
  O  O10  1  0.36441200  0.25139200  0.98786700  1
  O  O11  1  0.01346700  0.63984200  0.74664900  1
  O  O12  1  0.98786700  0.36441200  0.25139200  1
  O  O13  1  0.63984200  0.74664900  0.01346700  1
  O  O14  1  0.30271300  0.92353600  0.07283800  1
  O  O15  1  0.57283800  0.42353600  0.80271300  1
  O  O16  1  0.80271300  0.57283800  0.42353600  1
  O  O17  1  0.92838600  0.70187100  0.07609300  1
  O  O18  1  0.25139200  0.98786700  0.36441200  1
  O  O19  1  0.42353600  0.80271300  0.57283800  1
  O  O20  1  0.07609300  0.92838600  0.70187100  1
  O  O21  1  0.86441200  0.48786700  0.75139200  1
  O  O22  1  0.48786700  0.75139200  0.86441200  1
  O  O23  1  0.75139200  0.86441200  0.48786700  1
loop_
_geom_bond_atom_site_label_1
_geom_bond_atom_site_label_2
_geom_bond_distance
_geom_bond_site_symmetry_2
H0 N1 1.026058 1_555
H1 N1 1.029536 1_555
H2 N1 1.029536 1_555
H3 N1 1.029536 1_555
H4 N0 1.029536 1_656
H5 N0 1.029536 1_665
H6 N0 1.029536 1_566
H7 N0 1.026058 1_666
O0 P5 1.541017 1_545
O0 Zr1 2.091461 1_555
O1 P3 1.541017 1_554
O1 Zr1 2.091460 1_555
O2 P4 1.541017 1_455
O2 Zr1 2.091460 1_555
O3 P0 1.549530 1_555
O3 Zr0 2.113147 1_655
O4 P0 1.543702 1_555
O4 Zr1 2.108622 1_555
O5 P0 1.541017 1_555
O5 Zr3 2.091460 1_545
O6 P1 1.549530 1_555
O6 Zr0 2.113147 1_556
O7 P1 1.543702 1_555
O7 Zr1 2.108622 1_555
O8 P2 1.543702 1_555
O8 Zr1 2.108622 1_555
O9 P3 1.543702 1_555
O9 Zr3 2.108622 1_545
O10 P3 1.547746 1_555
O10 Zr0 2.100862 1_556
O11 P1 1.541017 1_555
O11 Zr3 2.091460 1_455
O12 P4 1.547746 1_555
O12 Zr0 2.100862 1_655
O13 P2 1.541017 1_555
O13 Zr3 2.091461 1_554
O14 P2 1.549530 1_555
O14 Zr0 2.113147 1_565
O15 P3 1.549530 1_555
O15 Zr2 2.113147 1_555
O16 P4 1.549530 1_555
O16 Zr2 2.113147 1_555
O17 P4 1.543702 1_555
O17 Zr3 2.108622 1_554
O18 P5 1.547746 1_555
O18 Zr0 2.100862 1_565
O19 P5 1.549530 1_555
O19 Zr2 2.113147 1_555
O20 P5 1.543702 1_555
O20 Zr3 2.108622 1_455
O21 P1 1.547746 1_655
O21 Zr2 2.100862 1_555
O22 P2 1.547746 1_556
O22 Zr2 2.100862 1_555
O23 P0 1.547746 1_565
O23 Zr2 2.100862 1_555
