# generated using pymatgen
data_Rb3Ba3GaAs4
_symmetry_space_group_name_H-M   'P 1'
_cell_length_a   10.62325593
_cell_length_b   10.62325595
_cell_length_c   8.03237394
_cell_angle_alpha   90.00000000
_cell_angle_beta   90.00000000
_cell_angle_gamma   120.00000299
_symmetry_Int_Tables_number   1
_chemical_formula_structural   Rb3Ba3GaAs4
_chemical_formula_sum   'Rb6 Ba6 Ga2 As8'
_cell_volume   785.03645864
_cell_formula_units_Z   2
loop_
 _symmetry_equiv_pos_site_id
 _symmetry_equiv_pos_as_xyz
  1  'x, y, z'
loop_
 _atom_site_type_symbol
 _atom_site_label
 _atom_site_symmetry_multiplicity
 _atom_site_fract_x
 _atom_site_fract_y
 _atom_site_fract_z
 _atom_site_occupancy
  Rb  Rb0  1  0.13500458  0.86499542  0.17706662  1
  Rb  Rb1  1  0.27001116  0.13500458  0.67706662  1
  Rb  Rb2  1  0.86499542  0.72998884  0.67706662  1
  Rb  Rb3  1  0.13500458  0.27001116  0.17706662  1
  Rb  Rb4  1  0.72998884  0.86499542  0.17706662  1
  Rb  Rb5  1  0.86499542  0.13500458  0.67706662  1
  Ba  Ba0  1  0.47650114  0.95300227  0.49865751  1
  Ba  Ba1  1  0.52349886  0.04699773  0.99865751  1
  Ba  Ba2  1  0.95300227  0.47650114  0.99865751  1
  Ba  Ba3  1  0.47650114  0.52349886  0.49865751  1
  Ba  Ba4  1  0.52349886  0.47650114  0.99865751  1
  Ba  Ba5  1  0.04699773  0.52349886  0.49865751  1
  Ga  Ga0  1  0.33333300  0.66666700  0.87763782  1
  Ga  Ga1  1  0.66666700  0.33333300  0.37763782  1
  As  As0  1  0.20281168  0.79718832  0.77630830  1
  As  As1  1  0.40562336  0.20281168  0.27630830  1
  As  As2  1  0.79718832  0.59437664  0.27630830  1
  As  As3  1  0.20281168  0.40562336  0.77630830  1
  As  As4  1  0.59437664  0.79718832  0.77630830  1
  As  As5  1  0.79718832  0.20281168  0.27630830  1
  As  As6  1  0.33333300  0.66666700  0.20694788  1
  As  As7  1  0.66666700  0.33333300  0.70694788  1
loop_
_geom_bond_atom_site_label_1
_geom_bond_atom_site_label_2
_geom_bond_distance
_geom_bond_site_symmetry_2
As0 Ga0 2.535768 1_555
As0 Ba0 3.369633 1_555
As0 Ba5 3.369633 1_555
As0 Rb2 3.385557 1_455
As0 Rb1 3.385557 1_565
As0 Rb0 3.452370 1_556
As0 Ba1 3.577357 1_565
As0 Ba2 3.577357 1_455
As1 Ga1 2.535776 1_555
As1 Ba4 3.369633 1_554
As1 Ba1 3.369633 1_554
As1 Rb0 3.385563 1_545
As1 Rb3 3.385577 1_555
As1 Rb1 3.452363 1_555
As1 Ba3 3.577357 1_555
As1 Ba0 3.577357 1_545
As2 Ga1 2.535776 1_555
As2 Ba4 3.369633 1_554
As2 Ba2 3.369633 1_554
As2 Rb0 3.385563 1_655
As2 Rb4 3.385577 1_555
As2 Rb2 3.452363 1_555
As2 Ba3 3.577357 1_555
As2 Ba5 3.577357 1_655
As3 Ga0 2.535776 1_555
As3 Ba3 3.369633 1_555
As3 Ba5 3.369633 1_555
As3 Rb5 3.385563 1_455
As3 Rb1 3.385577 1_555
As3 Rb3 3.452363 1_556
As3 Ba4 3.577357 1_555
As3 Ba2 3.577357 1_455
As4 Ga0 2.535776 1_555
As4 Ba3 3.369633 1_555
As4 Ba0 3.369633 1_555
As4 Rb5 3.385563 1_565
As4 Rb2 3.385577 1_555
As4 Rb4 3.452363 1_556
As4 Ba4 3.577357 1_555
As4 Ba1 3.577357 1_565
As5 Ga1 2.535768 1_555
As5 Ba1 3.369633 1_554
As5 Ba2 3.369633 1_554
As5 Rb3 3.385557 1_655
As5 Rb4 3.385557 1_545
As5 Rb5 3.452370 1_555
As5 Ba0 3.577357 1_545
As5 Ba5 3.577357 1_655
As6 Ga0 2.645141 1_554
As6 Ba5 3.525576 1_555
As6 Ba0 3.525576 1_555
As6 Ba3 3.525583 1_555
As6 Rb4 3.657122 1_555
As6 Rb3 3.657122 1_555
As6 Rb0 3.657131 1_555
As6 Ba2 3.878463 1_454
As6 Ba1 3.878463 1_564
As6 Ba4 3.878471 1_554
As7 Ga1 2.645141 1_555
As7 Ba2 3.525576 1_555
As7 Ba1 3.525576 1_555
As7 Ba4 3.525583 1_555
As7 Rb1 3.657122 1_555
As7 Rb2 3.657122 1_555
As7 Rb5 3.657131 1_555
As7 Ba5 3.878463 1_655
As7 Ba0 3.878463 1_545
As7 Ba3 3.878471 1_555
