# generated using pymatgen
data_Mg(TiRe6)4
_symmetry_space_group_name_H-M   'P 1'
_cell_length_a   8.33341954
_cell_length_b   8.33341958
_cell_length_c   8.33341934
_cell_angle_alpha   109.47121528
_cell_angle_beta   109.47121538
_cell_angle_gamma   109.47122916
_symmetry_Int_Tables_number   1
_chemical_formula_structural   Mg(TiRe6)4
_chemical_formula_sum   'Mg1 Ti4 Re24'
_cell_volume   445.50014666
_cell_formula_units_Z   1
loop_
 _symmetry_equiv_pos_site_id
 _symmetry_equiv_pos_as_xyz
  1  'x, y, z'
loop_
 _atom_site_type_symbol
 _atom_site_label
 _atom_site_symmetry_multiplicity
 _atom_site_fract_x
 _atom_site_fract_y
 _atom_site_fract_z
 _atom_site_occupancy
  Mg  Mg0  1  0.00000000  0.00000000  0.00000000  1
  Ti  Ti0  1  0.63514035  1.00000000  0.00000000  1
  Ti  Ti1  1  1.00000000  0.63514035  0.00000000  1
  Ti  Ti2  1  0.00000000  0.00000000  0.63514035  1
  Ti  Ti3  1  0.36485965  0.36485965  0.36485965  1
  Re  Re0  1  0.39939947  0.68079463  0.00000000  1
  Re  Re1  1  0.71860384  0.31920537  0.31920537  1
  Re  Re2  1  0.39939947  0.00000000  0.68079463  1
  Re  Re3  1  0.68079463  0.39939947  0.00000000  1
  Re  Re4  1  0.00000000  0.39939947  0.68079463  1
  Re  Re5  1  0.31920537  0.71860384  0.31920537  1
  Re  Re6  1  0.31920537  0.31920537  0.71860384  1
  Re  Re7  1  0.00000000  0.68079463  0.39939947  1
  Re  Re8  1  0.68079463  0.00000000  0.39939947  1
  Re  Re9  1  0.60060053  0.60060053  0.28139616  1
  Re  Re10  1  0.28139616  0.60060053  0.60060053  1
  Re  Re11  1  0.60060053  0.28139616  0.60060053  1
  Re  Re12  1  0.37598448  0.19290269  1.00000000  1
  Re  Re13  1  0.18308280  0.80709731  0.80709731  1
  Re  Re14  1  0.37598448  0.00000000  0.19290269  1
  Re  Re15  1  0.19290269  0.37598448  1.00000000  1
  Re  Re16  1  0.00000000  0.37598448  0.19290269  1
  Re  Re17  1  0.80709731  0.18308280  0.80709731  1
  Re  Re18  1  0.80709731  0.80709731  0.18308280  1
  Re  Re19  1  1.00000000  0.19290269  0.37598448  1
  Re  Re20  1  0.19290269  1.00000000  0.37598448  1
  Re  Re21  1  0.62401552  0.62401552  0.81691720  1
  Re  Re22  1  0.81691720  0.62401552  0.62401552  1
  Re  Re23  1  0.62401552  0.81691720  0.62401552  1
loop_
_geom_bond_atom_site_label_1
_geom_bond_atom_site_label_2
_geom_bond_distance
_geom_bond_site_symmetry_2
Mg0 Re21 3.007237 1_444
Mg0 Re23 3.007237 1_444
Mg0 Re22 3.007238 1_444
Mg0 Re12 3.007239 1_554
Mg0 Re15 3.007239 1_554
Mg0 Re20 3.007239 1_545
Mg0 Re19 3.007239 1_455
Mg0 Re14 3.007239 1_555
Mg0 Re16 3.007239 1_555
Mg0 Re18 3.007246 1_445
Mg0 Re17 3.007246 1_454
Mg0 Re13 3.007246 1_544
Mg0 Ti2 3.040528 1_554
Mg0 Ti0 3.040529 1_445
Mg0 Ti1 3.040529 1_445
Mg0 Ti3 3.040529 1_555
Re0 Re15 2.549381 1_554
Re0 Re13 2.720769 1_554
Re0 Re14 2.720774 1_565
Re0 Ti0 2.729743 1_555
Re0 Re6 2.815570 1_554
Re0 Re9 2.815573 1_555
Re0 Re18 2.840496 1_555
Re0 Re21 2.840501 1_554
Re0 Re4 2.896312 1_554
Re0 Re8 2.896312 1_565
Re0 Re5 2.896313 1_555
Re0 Re10 2.896313 1_554
Re0 Ti1 3.221576 1_455
Re1 Re22 2.549381 1_555
Re1 Re14 2.720769 1_555
Re1 Re12 2.720769 1_554
Re1 Ti0 2.729746 1_545
Re1 Re7 2.815570 1_655
Re1 Re4 2.815570 1_655
Re1 Re16 2.840503 1_655
Re1 Re19 2.840503 1_555
Re1 Re11 2.896305 1_555
Re1 Re9 2.896305 1_555
Re1 Re8 2.896313 1_555
Re1 Re3 2.896313 1_555
Re1 Ti3 3.221568 1_555
Re2 Re20 2.549381 1_545
Re2 Ti0 2.729743 1_546
Re2 Re5 2.815570 1_545
Re2 Re23 2.840502 1_545
Re2 Re7 2.896312 1_545
Re2 Re3 2.896312 1_556
Re2 Re6 2.896313 1_555
Re2 Ti2 3.221576 1_555
Re3 Ti1 2.729743 1_555
Re3 Re6 2.815570 1_554
Re3 Re9 2.815573 1_555
Re3 Re7 2.896312 1_655
Re3 Ti0 3.221576 1_545
Re4 Ti1 2.729743 1_456
Re4 Re8 2.896312 1_455
Re4 Re6 2.896313 1_555
Re4 Ti2 3.221576 1_555
Re5 Ti1 2.729746 1_455
Re5 Re8 2.815570 1_565
Re5 Re9 2.896305 1_555
Re5 Re7 2.896313 1_555
Re5 Ti3 3.221568 1_555
Re6 Ti2 2.729746 1_555
Re6 Ti3 3.221568 1_555
Re7 Ti2 2.729743 1_565
Re7 Re9 2.896313 1_455
Re7 Ti1 3.221576 1_455
Re8 Ti2 2.729743 1_655
Re8 Re9 2.896313 1_545
Re8 Ti0 3.221576 1_545
Re9 Ti3 2.729737 1_555
Re9 Ti2 3.221574 1_665
Re10 Re13 2.549381 1_555
Re10 Re23 2.720765 1_555
Re10 Re21 2.720765 1_555
Re10 Ti3 2.729737 1_555
Re10 Re4 2.815572 1_555
Re10 Re7 2.815573 1_555
Re10 Re19 2.840497 1_455
Re10 Re16 2.840497 1_555
Re10 Re5 2.896305 1_555
Re10 Re6 2.896305 1_555
Re10 Re2 2.896313 1_565
Re10 Ti0 3.221574 1_556
Re11 Re17 2.549381 1_555
Re11 Re22 2.720765 1_555
Re11 Re21 2.720765 1_555
Re11 Ti3 2.729737 1_555
Re11 Re2 2.815572 1_555
Re11 Re8 2.815573 1_555
Re11 Re20 2.840497 1_545
Re11 Re14 2.840497 1_555
Re11 Re6 2.896305 1_555
Re11 Re4 2.896313 1_655
Re11 Re3 2.896313 1_556
Re11 Ti1 3.221574 1_556
Re12 Re15 2.491454 1_555
Re12 Re3 2.549381 1_556
Re12 Re14 2.625100 1_556
Re12 Re13 2.625100 1_545
Re12 Re2 2.720774 1_555
Re12 Re9 2.840497 1_556
Re12 Re6 2.840503 1_555
Re12 Ti3 2.945956 1_556
Re12 Ti2 2.945956 1_555
Re12 Ti0 3.092374 1_546
Re13 Re22 2.491467 1_455
Re13 Re14 2.625100 1_566
Re13 Re2 2.720769 1_565
Re13 Re4 2.840496 1_555
Re13 Re7 2.840496 1_555
Re13 Ti1 2.945960 1_456
Re13 Ti2 2.945961 1_565
Re13 Ti0 3.092366 1_556
Re14 Re20 2.491453 1_545
Re14 Re8 2.549381 1_555
Re14 Re5 2.840503 1_545
Re14 Ti1 2.945956 1_445
Re14 Ti3 2.945956 1_555
Re14 Ti0 3.092374 1_545
Re15 Re16 2.625100 1_556
Re15 Re17 2.625100 1_455
Re15 Re5 2.720769 1_556
Re15 Re4 2.720774 1_555
Re15 Re9 2.840497 1_556
Re15 Re6 2.840503 1_555
Re15 Ti3 2.945956 1_556
Re15 Ti2 2.945956 1_555
Re15 Ti1 3.092374 1_456
Re16 Re19 2.491453 1_455
Re16 Re7 2.549381 1_555
Re16 Re17 2.625100 1_454
Re16 Re5 2.720769 1_555
Re16 Re3 2.720774 1_455
Re16 Ti0 2.945956 1_445
Re16 Ti3 2.945956 1_555
Re16 Ti1 3.092374 1_455
Re17 Re23 2.491467 1_545
Re17 Re4 2.720769 1_655
Re17 Re3 2.720769 1_556
Re17 Re2 2.840496 1_555
Re17 Re8 2.840496 1_555
Re17 Ti0 2.945960 1_546
Re17 Ti2 2.945961 1_655
Re17 Ti1 3.092366 1_556
Re18 Re21 2.491467 1_554
Re18 Re9 2.549381 1_555
Re18 Re20 2.625100 1_655
Re18 Re19 2.625100 1_565
Re18 Re7 2.720769 1_655
Re18 Re8 2.720769 1_565
Re18 Re3 2.840496 1_555
Re18 Ti1 2.945961 1_555
Re18 Ti0 2.945961 1_555
Re18 Ti2 3.092367 1_665
Re19 Re4 2.549381 1_655
Re19 Re20 2.625100 1_645
Re19 Re6 2.720769 1_655
Re19 Re8 2.720774 1_555
Re19 Ti3 2.945956 1_655
Re19 Ti0 2.945956 1_545
Re19 Ti2 3.092374 1_655
Re20 Re6 2.720769 1_565
Re20 Re7 2.720774 1_555
Re20 Re5 2.840503 1_555
Re20 Ti3 2.945956 1_565
Re20 Ti1 2.945956 1_455
Re20 Ti2 3.092374 1_565
Re21 Re6 2.549381 1_555
Re21 Re22 2.625087 1_555
Re21 Re23 2.625087 1_555
Re21 Re3 2.840501 1_556
Re21 Ti1 2.945958 1_556
Re21 Ti0 2.945958 1_556
Re21 Ti3 3.092368 1_555
Re22 Re23 2.625087 1_555
Re22 Re9 2.720765 1_555
Re22 Re7 2.840501 1_655
Re22 Re4 2.840502 1_655
Re22 Ti2 2.945957 1_665
Re22 Ti1 2.945957 1_556
Re22 Ti3 3.092367 1_555
Re23 Re5 2.549381 1_555
Re23 Re9 2.720765 1_555
Re23 Re8 2.840501 1_565
Re23 Ti2 2.945957 1_665
Re23 Ti0 2.945957 1_556
Re23 Ti3 3.092367 1_555
