# generated using pymatgen
data_Rb12Li4Si15Ge
_symmetry_space_group_name_H-M   'P 1'
_cell_length_a   7.88415066
_cell_length_b   9.90066502
_cell_length_c   12.80088841
_cell_angle_alpha   90.00000000
_cell_angle_beta   89.91286374
_cell_angle_gamma   90.00000000
_symmetry_Int_Tables_number   1
_chemical_formula_structural   Rb12Li4Si15Ge
_chemical_formula_sum   'Rb12 Li4 Si15 Ge1'
_cell_volume   999.21487511
_cell_formula_units_Z   1
loop_
 _symmetry_equiv_pos_site_id
 _symmetry_equiv_pos_as_xyz
  1  'x, y, z'
loop_
 _atom_site_type_symbol
 _atom_site_label
 _atom_site_symmetry_multiplicity
 _atom_site_fract_x
 _atom_site_fract_y
 _atom_site_fract_z
 _atom_site_occupancy
  Rb  Rb0  1  0.64971847  0.25000000  0.40115889  1
  Rb  Rb1  1  0.14939393  0.25000000  0.09947699  1
  Rb  Rb2  1  0.34975054  0.75000000  0.59811210  1
  Rb  Rb3  1  0.85254183  0.75000000  0.90148229  1
  Rb  Rb4  1  0.65127950  0.44608202  0.69441382  1
  Rb  Rb5  1  0.15099770  0.05577923  0.80650245  1
  Rb  Rb6  1  0.34844433  0.94624210  0.30609353  1
  Rb  Rb7  1  0.84780663  0.55430763  0.19395510  1
  Rb  Rb8  1  0.34844433  0.55375790  0.30609353  1
  Rb  Rb9  1  0.84780663  0.94569237  0.19395510  1
  Rb  Rb10  1  0.65127950  0.05391798  0.69441382  1
  Rb  Rb11  1  0.15099770  0.44422077  0.80650245  1
  Li  Li0  1  0.50000821  0.49983821  0.00004205  1
  Li  Li1  1  0.99993276  0.00002362  0.50006937  1
  Li  Li2  1  0.50000821  0.00016179  0.00004205  1
  Li  Li3  1  0.99993276  0.49997638  0.50006937  1
  Si  Si0  1  0.86585160  0.75000000  0.59466970  1
  Si  Si1  1  0.63340582  0.25000000  0.09500521  1
  Si  Si2  1  0.13392279  0.25000000  0.40556933  1
  Si  Si3  1  0.72527841  0.63078826  0.45327089  1
  Si  Si4  1  0.22547151  0.86910739  0.04756464  1
  Si  Si5  1  0.27438247  0.13080177  0.54701494  1
  Si  Si6  1  0.77474389  0.36918871  0.95363597  1
  Si  Si7  1  0.01173552  0.25000000  0.58023031  1
  Si  Si8  1  0.51248502  0.25000000  0.92018012  1
  Si  Si9  1  0.98779085  0.75000000  0.41982526  1
  Si  Si10  1  0.48776999  0.75000000  0.08053654  1
  Si  Si11  1  0.22547151  0.63089261  0.04756464  1
  Si  Si12  1  0.72527841  0.86921174  0.45327089  1
  Si  Si13  1  0.77474389  0.13081129  0.95363597  1
  Si  Si14  1  0.27438247  0.36919823  0.54701494  1
  Ge  Ge0  1  0.36894479  0.75000000  0.89862376  1
loop_
_geom_bond_atom_site_label_1
_geom_bond_atom_site_label_2
_geom_bond_distance
_geom_bond_site_symmetry_2
Rb0 Si7 3.663449 1_655
Rb0 Si14 3.690371 1_555
Rb0 Si5 3.690371 1_555
Rb0 Si2 3.818043 1_655
Rb0 Si3 3.874845 1_555
Rb0 Si12 3.874845 1_545
Rb0 Si1 3.921344 1_555
Rb1 Si8 3.666418 1_554
Rb1 Si6 3.690461 1_454
Rb1 Si13 3.690461 1_454
Rb1 Si1 3.816365 1_555
Rb1 Si11 3.875728 1_555
Rb1 Si4 3.875728 1_545
Rb1 Si2 3.919967 1_555
Rb2 Si9 3.656808 1_455
Rb2 Si12 3.685089 1_555
Rb2 Si3 3.685089 1_555
Rb2 Si0 3.815454 1_455
Rb2 Si5 3.872524 1_565
Rb2 Si14 3.872524 1_555
Rb3 Si10 3.674827 1_556
Rb3 Si4 3.680917 1_656
Rb3 Si11 3.680917 1_656
Rb3 Si13 3.877594 1_565
Rb3 Si6 3.877594 1_555
Rb3 Si0 3.928716 1_555
Rb4 Si6 3.542297 1_555
Rb4 Si14 3.603682 1_555
Rb4 Si3 3.634240 1_555
Rb4 Si8 3.648121 1_555
Rb4 Si0 3.679622 1_555
Rb4 Si7 3.737504 1_655
Rb5 Si5 3.538600 1_555
Rb5 Si13 3.589147 1_455
Rb5 Si4 3.645305 1_546
Rb5 Si7 3.647248 1_555
Rb5 Si8 3.735019 1_555
Rb6 Si4 3.533426 1_555
Rb6 Si12 3.602091 1_555
Rb6 Si5 3.631181 1_565
Rb6 Si10 3.648098 1_555
Rb6 Si2 3.676954 1_565
Rb6 Si9 3.737260 1_455
Rb7 Si3 3.537757 1_555
Rb7 Si11 3.596591 1_655
Rb7 Si6 3.627668 1_554
Rb7 Si9 3.652595 1_555
Rb7 Si1 3.680422 1_555
Rb7 Si10 3.732537 1_555
Rb8 Si11 3.533426 1_555
Rb8 Si3 3.602091 1_555
Rb8 Si14 3.631181 1_555
Rb8 Si10 3.648098 1_555
Rb8 Si2 3.676954 1_555
Rb8 Si9 3.737260 1_455
Rb9 Si12 3.537757 1_555
Rb9 Si4 3.596591 1_655
Rb9 Si13 3.627668 1_564
Rb9 Si9 3.652595 1_555
Rb9 Si1 3.680422 1_565
Rb9 Si10 3.732537 1_555
Rb10 Si13 3.542297 1_555
Rb10 Si5 3.603682 1_555
Rb10 Si12 3.634240 1_545
Rb10 Si8 3.648121 1_555
Rb10 Si0 3.679622 1_545
Rb10 Si7 3.737504 1_655
Rb11 Si14 3.538600 1_555
Rb11 Si6 3.589147 1_455
Rb11 Si11 3.645305 1_556
Rb11 Si7 3.647248 1_555
Rb11 Si8 3.735019 1_555
Li0 Si6 2.591131 1_554
Li0 Si11 2.595120 1_555
Li0 Si8 2.678245 1_554
Li0 Si10 2.684234 1_555
Li0 Si1 2.950636 1_555
Li1 Si5 2.592993 1_655
Li1 Si12 2.594070 1_545
Li1 Si7 2.680893 1_655
Li1 Si9 2.681828 1_545
Li1 Si2 2.949698 1_655
Li1 Si0 2.950873 1_545
Li2 Si13 2.591131 1_554
Li2 Si4 2.595120 1_545
Li2 Si8 2.678245 1_554
Li2 Si10 2.684234 1_545
Li2 Si1 2.950636 1_555
Li3 Si14 2.592993 1_655
Li3 Si3 2.594070 1_555
Li3 Si7 2.680893 1_655
Li3 Si9 2.681828 1_555
Li3 Si2 2.949698 1_655
Li3 Si0 2.950873 1_555
Si0 Si12 2.429751 1_555
Si0 Si3 2.429751 1_555
Si0 Si9 2.434564 1_555
Si1 Si6 2.429599 1_554
Si1 Si13 2.429599 1_554
Si1 Si8 2.433855 1_554
Si2 Si5 2.429724 1_555
Si2 Si7 2.433177 1_555
Si3 Si9 2.420178 1_555
Si5 Si7 2.420504 1_555
Si6 Si8 2.419494 1_555
Si10 Si4 2.418272 1_555
Si10 Si11 2.418272 1_555
Si11 Si4 2.358485 1_555
Si12 Si3 2.360551 1_555
Si12 Si9 2.420178 1_555
Si13 Si6 2.360095 1_555
Si13 Si8 2.419494 1_555
Si14 Si5 2.360284 1_555
Si14 Si7 2.420504 1_555
Si14 Si2 2.429724 1_555
Ge0 Si4 2.509705 1_556
Ge0 Si11 2.509705 1_556
Ge0 Si10 2.511351 1_556
Ge0 Li2 2.981888 1_566
Ge0 Li0 2.981888 1_556
Ge0 Rb5 3.676230 1_565
Ge0 Rb11 3.676230 1_555
Ge0 Rb3 3.812983 1_555
Ge0 Rb2 3.850022 1_555
