# generated using pymatgen
data_Hf4ZnAsH2
_symmetry_space_group_name_H-M   'P 1'
_cell_length_a   5.37980801
_cell_length_b   5.37981122
_cell_length_c   5.37980656
_cell_angle_alpha   104.89932370
_cell_angle_beta   104.89934261
_cell_angle_gamma   119.06204885
_symmetry_Int_Tables_number   1
_chemical_formula_structural   Hf4ZnAsH2
_chemical_formula_sum   'Hf4 Zn1 As1 H2'
_cell_volume   117.30530006
_cell_formula_units_Z   1
loop_
 _symmetry_equiv_pos_site_id
 _symmetry_equiv_pos_as_xyz
  1  'x, y, z'
loop_
 _atom_site_type_symbol
 _atom_site_label
 _atom_site_symmetry_multiplicity
 _atom_site_fract_x
 _atom_site_fract_y
 _atom_site_fract_z
 _atom_site_occupancy
  Hf  Hf0  1  0.16165857  0.66165857  0.82331714  1
  Hf  Hf1  1  0.83834143  0.33834143  0.17668386  1
  Hf  Hf2  1  0.33834143  0.16165857  0.50000000  1
  Hf  Hf3  1  0.66165857  0.83834143  0.50000000  1
  Zn  Zn0  1  0.25000000  0.25000000  0.00000000  1
  As  As0  1  0.75000000  0.75000000  0.00000000  1
  H  H0  1  0.75000000  0.25000000  0.50000000  1
  H  H1  1  0.25000000  0.75000000  0.50000000  1
loop_
_geom_bond_atom_site_label_1
_geom_bond_atom_site_label_2
_geom_bond_distance
_geom_bond_site_symmetry_2
Hf0 Zn0 2.811898 1_556
Hf0 Zn0 2.811899 1_566
Hf1 Zn0 2.811897 1_555
Hf1 Zn0 2.811900 1_655
Hf2 Zn0 2.811896 1_555
Hf2 Zn0 2.811897 1_556
Hf3 Zn0 2.811898 1_666
Hf3 Zn0 2.811899 1_555
As0 Zn0 2.727949 1_665
As0 Zn0 2.727949 1_555
As0 Hf3 2.811896 1_554
As0 Hf3 2.811897 1_555
As0 Hf0 2.811897 1_554
As0 Hf0 2.811897 1_654
As0 Hf2 2.811898 1_665
As0 Hf2 2.811899 1_554
As0 Hf1 2.811899 1_565
As0 Hf1 2.811901 1_555
H0 Hf1 2.026808 1_555
H0 Hf2 2.026813 1_555
H0 Hf0 2.026814 1_655
H0 Hf3 2.026815 1_545
H1 Hf1 2.026813 1_455
H1 Hf0 2.026813 1_555
H1 Hf3 2.026813 1_555
H1 Hf2 2.026815 1_565
