# generated using pymatgen
data_KNa(InSn2)2
_symmetry_space_group_name_H-M   'P 1'
_cell_length_a   6.43471383
_cell_length_b   6.64035178
_cell_length_c   11.62823674
_cell_angle_alpha   90.00000000
_cell_angle_beta   90.00000000
_cell_angle_gamma   88.47783415
_symmetry_Int_Tables_number   1
_chemical_formula_structural   KNa(InSn2)2
_chemical_formula_sum   'K2 Na2 In4 Sn8'
_cell_volume   496.68484669
_cell_formula_units_Z   2
loop_
 _symmetry_equiv_pos_site_id
 _symmetry_equiv_pos_as_xyz
  1  'x, y, z'
loop_
 _atom_site_type_symbol
 _atom_site_label
 _atom_site_symmetry_multiplicity
 _atom_site_fract_x
 _atom_site_fract_y
 _atom_site_fract_z
 _atom_site_occupancy
  K  K0  1  0.88283533  0.62564868  0.06305510  1
  K  K1  1  0.61716467  0.37435132  0.56305510  1
  Na  Na0  1  0.37950922  0.88927641  0.93017645  1
  Na  Na1  1  0.12049078  0.11072359  0.43017645  1
  In  In0  1  0.61138486  0.90133021  0.39047730  1
  In  In1  1  0.88861514  0.09866979  0.89047730  1
  In  In2  1  0.09639428  0.60001469  0.61457890  1
  In  In3  1  0.40360572  0.39998531  0.11457890  1
  Sn  Sn0  1  0.75933998  0.73851579  0.76588004  1
  Sn  Sn1  1  0.74066002  0.26148421  0.26588004  1
  Sn  Sn2  1  0.28620643  0.76770842  0.23722844  1
  Sn  Sn3  1  0.21379357  0.23229158  0.73722844  1
  Sn  Sn4  1  0.95177208  0.60675511  0.37676699  1
  Sn  Sn5  1  0.54822792  0.39324489  0.87676699  1
  Sn  Sn6  1  0.42253783  0.88801783  0.62183677  1
  Sn  Sn7  1  0.07746217  0.11198217  0.12183677  1
loop_
_geom_bond_atom_site_label_1
_geom_bond_atom_site_label_2
_geom_bond_distance
_geom_bond_site_symmetry_2
K0 Sn2 3.443679 1_655
K0 Sn5 3.447668 1_554
K0 Sn1 3.516333 1_555
K0 Sn7 3.560856 1_665
K0 Sn0 3.619790 1_554
K0 Sn7 3.666484 1_655
K0 Sn4 3.676526 1_555
K0 Na0 3.954788 1_554
K0 Na0 3.995418 1_654
K1 Sn3 3.443679 1_555
K1 Sn4 3.447668 1_555
K1 Sn0 3.516333 1_555
K1 Sn6 3.560856 1_545
K1 Sn1 3.619790 1_555
K1 Sn6 3.666484 1_555
K1 Sn5 3.676526 1_555
K1 Na1 3.954788 1_655
K1 Na1 3.995418 1_555
Na0 Sn0 3.239719 1_555
Na0 Sn7 3.283106 1_566
Na0 Sn3 3.351131 1_565
Na0 Sn5 3.496235 1_555
Na0 Sn6 3.596114 1_555
Na0 Sn5 3.599532 1_565
Na0 Sn2 3.712969 1_556
Na1 Sn1 3.239719 1_455
Na1 Sn6 3.283106 1_545
Na1 Sn2 3.351131 1_545
Na1 Sn4 3.496235 1_455
Na1 Sn7 3.596114 1_555
Na1 Sn4 3.599532 1_445
Na1 Sn3 3.712969 1_555
In0 Sn4 2.901973 1_555
In0 Sn2 2.905128 1_555
In0 Sn1 2.935358 1_565
In0 Sn6 2.954303 1_555
In0 Na1 3.448316 1_565
In0 Na1 3.622195 1_665
In0 K1 3.728376 1_565
In0 K1 4.033224 1_555
In1 Sn5 2.901973 1_555
In1 Sn3 2.905128 1_655
In1 Sn0 2.935358 1_545
In1 Sn7 2.954303 1_656
In1 Na0 3.448316 1_645
In1 Na0 3.622195 1_545
In1 K0 3.728376 1_546
In1 K0 4.033224 1_556
In2 Sn6 2.877860 1_555
In2 Sn3 2.910182 1_555
In2 Sn4 2.917684 1_455
In2 Sn0 2.922180 1_455
In2 K1 3.515558 1_455
In2 K1 3.683327 1_555
In3 Sn7 2.877860 1_555
In3 Sn2 2.910182 1_555
In3 Sn5 2.917684 1_554
In3 Sn1 2.922180 1_555
In3 K0 3.515558 1_555
In3 K0 3.683327 1_455
Sn0 Sn6 2.893722 1_555
Sn0 Sn5 2.988312 1_555
Sn1 Sn7 2.893722 1_655
Sn1 Sn4 2.988312 1_555
Sn2 Sn4 2.920333 1_455
Sn2 Sn7 2.944105 1_565
Sn3 Sn5 2.920333 1_555
Sn3 Sn6 2.944105 1_545
