# generated using pymatgen
data_Rb2Ta6PbBr18
_symmetry_space_group_name_H-M   'P 1'
_cell_length_a   10.80427454
_cell_length_b   10.80427585
_cell_length_c   10.80427474
_cell_angle_alpha   54.79908056
_cell_angle_beta   54.79907419
_cell_angle_gamma   54.79907180
_symmetry_Int_Tables_number   1
_chemical_formula_structural   Rb2Ta6PbBr18
_chemical_formula_sum   'Rb2 Ta6 Pb1 Br18'
_cell_volume   783.80352949
_cell_formula_units_Z   1
loop_
 _symmetry_equiv_pos_site_id
 _symmetry_equiv_pos_as_xyz
  1  'x, y, z'
loop_
 _atom_site_type_symbol
 _atom_site_label
 _atom_site_symmetry_multiplicity
 _atom_site_fract_x
 _atom_site_fract_y
 _atom_site_fract_z
 _atom_site_occupancy
  Rb  Rb0  1  0.27734235  0.27734235  0.27734235  1
  Rb  Rb1  1  0.72265765  0.72265765  0.72265765  1
  Ta  Ta0  1  0.42631642  0.30509762  0.63916566  1
  Ta  Ta1  1  0.36083434  0.57368358  0.69490238  1
  Ta  Ta2  1  0.69490238  0.36083434  0.57368358  1
  Ta  Ta3  1  0.63916566  0.42631642  0.30509762  1
  Ta  Ta4  1  0.57368358  0.69490238  0.36083434  1
  Ta  Ta5  1  0.30509762  0.63916566  0.42631642  1
  Pb  Pb0  1  0.00000000  0.00000000  0.00000000  1
  Br  Br0  1  0.64870780  0.08577470  0.76775164  1
  Br  Br1  1  0.76775164  0.64870780  0.08577470  1
  Br  Br2  1  0.08577470  0.76775164  0.64870780  1
  Br  Br3  1  0.82949239  0.33141337  0.02876406  1
  Br  Br4  1  0.16554420  0.42946413  0.58104695  1
  Br  Br5  1  0.66858663  0.97123594  0.17050761  1
  Br  Br6  1  0.91422530  0.23224836  0.35129220  1
  Br  Br7  1  0.57053587  0.41895305  0.83445580  1
  Br  Br8  1  0.41895305  0.83445580  0.57053587  1
  Br  Br9  1  0.97123594  0.17050761  0.66858663  1
  Br  Br10  1  0.17050761  0.66858663  0.97123594  1
  Br  Br11  1  0.02876406  0.82949239  0.33141337  1
  Br  Br12  1  0.33141337  0.02876406  0.82949239  1
  Br  Br13  1  0.23224836  0.35129220  0.91422530  1
  Br  Br14  1  0.58104695  0.16554420  0.42946413  1
  Br  Br15  1  0.42946413  0.58104695  0.16554420  1
  Br  Br16  1  0.35129220  0.91422530  0.23224836  1
  Br  Br17  1  0.83445580  0.57053587  0.41895305  1
loop_
_geom_bond_atom_site_label_1
_geom_bond_atom_site_label_2
_geom_bond_distance
_geom_bond_site_symmetry_2
Br0 Ta2 2.607076 1_555
Br0 Ta0 2.609111 1_555
Br0 Rb1 3.795846 1_545
Br1 Ta4 2.607076 1_555
Br1 Ta3 2.609112 1_555
Br1 Rb1 3.795846 1_554
Br2 Ta1 2.607076 1_555
Br2 Ta5 2.609111 1_555
Br2 Rb1 3.795846 1_455
Br3 Ta3 2.866018 1_555
Br3 Pb0 3.054436 1_655
Br3 Rb1 3.577302 1_554
Br4 Ta0 2.615370 1_555
Br4 Ta5 2.620512 1_555
Br4 Rb0 3.779768 1_555
Br4 Rb1 3.865769 1_455
Br5 Ta4 2.866018 1_555
Br5 Pb0 3.054436 1_665
Br5 Rb0 3.577301 1_565
Br6 Ta3 2.607076 1_555
Br6 Ta2 2.609111 1_555
Br6 Rb0 3.795846 1_655
Br7 Ta2 2.615370 1_555
Br7 Ta1 2.620512 1_555
Br7 Rb1 3.779768 1_555
Br7 Rb0 3.865769 1_556
Br8 Ta1 2.615371 1_555
Br8 Ta4 2.620512 1_555
Br8 Rb1 3.779768 1_555
Br8 Rb0 3.865769 1_565
Br9 Ta2 2.866018 1_555
Br9 Pb0 3.054436 1_656
Br9 Rb0 3.577301 1_655
Br10 Ta1 2.866018 1_555
Br10 Pb0 3.054436 1_566
Br10 Rb0 3.577302 1_556
Br11 Ta5 2.866018 1_555
Br11 Pb0 3.054436 1_565
Br11 Rb1 3.577301 1_455
Br12 Ta0 2.866018 1_555
Br12 Pb0 3.054436 1_556
Br12 Rb1 3.577301 1_545
Br13 Ta0 2.607076 1_555
Br13 Ta1 2.609112 1_555
Br13 Rb0 3.795846 1_556
Br14 Ta3 2.615371 1_555
Br14 Ta0 2.620512 1_555
Br14 Rb0 3.779768 1_555
Br14 Rb1 3.865769 1_545
Br15 Ta5 2.615370 1_555
Br15 Ta3 2.620512 1_555
Br15 Rb0 3.779768 1_555
Br15 Rb1 3.865769 1_554
Br16 Ta5 2.607076 1_555
Br16 Ta4 2.609111 1_555
Br16 Rb0 3.795846 1_565
Br17 Ta4 2.615370 1_555
Br17 Ta2 2.620512 1_555
Br17 Rb1 3.779768 1_555
Br17 Rb0 3.865769 1_655
