# generated using pymatgen
data_YZnHgPt3
_symmetry_space_group_name_H-M   'P 1'
_cell_length_a   5.48226755
_cell_length_b   5.48226796
_cell_length_c   5.17504568
_cell_angle_alpha   58.01596294
_cell_angle_beta   58.01595621
_cell_angle_gamma   60.00000393
_symmetry_Int_Tables_number   1
_chemical_formula_structural   YZnHgPt3
_chemical_formula_sum   'Y1 Zn1 Hg1 Pt3'
_cell_volume   106.56702289
_cell_formula_units_Z   1
loop_
 _symmetry_equiv_pos_site_id
 _symmetry_equiv_pos_as_xyz
  1  'x, y, z'
loop_
 _atom_site_type_symbol
 _atom_site_label
 _atom_site_symmetry_multiplicity
 _atom_site_fract_x
 _atom_site_fract_y
 _atom_site_fract_z
 _atom_site_occupancy
  Y  Y0  1  0.00447552  0.00447552  0.98657444  1
  Zn  Zn0  1  0.62279953  0.62279953  0.13159941  1
  Hg  Hg0  1  0.25195295  0.25195295  0.24414215  1
  Pt  Pt0  1  0.62334750  0.12407600  0.62922700  1
  Pt  Pt1  1  0.62334750  0.62334750  0.62922700  1
  Pt  Pt2  1  0.12407600  0.62334750  0.62922700  1
loop_
_geom_bond_atom_site_label_1
_geom_bond_atom_site_label_2
_geom_bond_distance
_geom_bond_site_symmetry_2
Y0 Zn0 3.220395 1_546
Y0 Zn0 3.220396 1_456
Y0 Zn0 3.220409 1_446
Hg0 Pt1 2.972473 1_554
Hg0 Pt0 2.972481 1_554
Hg0 Pt2 2.972481 1_554
Hg0 Y0 3.039685 1_555
Hg0 Pt2 3.162202 1_555
Hg0 Pt0 3.162202 1_555
Hg0 Pt1 3.162209 1_455
Hg0 Pt1 3.162209 1_545
Hg0 Pt0 3.162216 1_455
Hg0 Pt2 3.162216 1_545
Hg0 Zn0 3.198542 1_555
Hg0 Zn0 3.198557 1_455
Hg0 Zn0 3.198557 1_545
Hg0 Y0 3.336236 1_654
Hg0 Y0 3.336237 1_554
Hg0 Y0 3.336237 1_564
Pt0 Zn0 2.578431 1_555
Pt0 Zn0 2.596621 1_546
Pt0 Pt1 2.737140 1_555
Pt0 Pt2 2.737140 1_555
Pt0 Pt1 2.745128 1_545
Pt0 Pt2 2.745128 1_645
Pt0 Y0 3.071631 1_654
Pt0 Y0 3.107140 1_555
Pt0 Y0 3.107155 1_655
Pt1 Zn0 2.578431 1_555
Pt1 Zn0 2.596621 1_556
Pt1 Pt2 2.737140 1_555
Pt1 Pt2 2.745128 1_655
Pt1 Y0 3.071639 1_664
Pt1 Y0 3.107148 1_565
Pt1 Y0 3.107148 1_655
Pt2 Zn0 2.578431 1_555
Pt2 Zn0 2.596621 1_456
Pt2 Y0 3.071631 1_564
Pt2 Y0 3.107141 1_555
Pt2 Y0 3.107155 1_565
