# generated using pymatgen
data_Zr4Al3Tc4W
_symmetry_space_group_name_H-M   'P 1'
_cell_length_a   5.24063771
_cell_length_b   5.24063654
_cell_length_c   8.70466085
_cell_angle_alpha   90.00000000
_cell_angle_beta   90.00000000
_cell_angle_gamma   120.52399743
_symmetry_Int_Tables_number   1
_chemical_formula_structural   Zr4Al3Tc4W
_chemical_formula_sum   'Zr4 Al3 Tc4 W1'
_cell_volume   205.93645136
_cell_formula_units_Z   1
loop_
 _symmetry_equiv_pos_site_id
 _symmetry_equiv_pos_as_xyz
  1  'x, y, z'
loop_
 _atom_site_type_symbol
 _atom_site_label
 _atom_site_symmetry_multiplicity
 _atom_site_fract_x
 _atom_site_fract_y
 _atom_site_fract_z
 _atom_site_occupancy
  Zr  Zr0  1  0.33506525  0.66493475  0.43452785  1
  Zr  Zr1  1  0.66769811  0.33230189  0.93626625  1
  Zr  Zr2  1  0.66769811  0.33230189  0.56373375  1
  Zr  Zr3  1  0.33506525  0.66493475  0.06547215  1
  Al  Al0  1  0.99876533  0.00123467  0.99657108  1
  Al  Al1  1  0.99876533  0.00123467  0.50342892  1
  Al  Al2  1  0.17151467  0.82848533  0.75000000  1
  Tc  Tc0  1  0.17563364  0.33910983  0.75000000  1
  Tc  Tc1  1  0.33340302  0.16939222  0.25000000  1
  Tc  Tc2  1  0.66089017  0.82436636  0.75000000  1
  Tc  Tc3  1  0.83060778  0.66659698  0.25000000  1
  W  W0  1  0.82489336  0.17510664  0.25000000  1
loop_
_geom_bond_atom_site_label_1
_geom_bond_atom_site_label_2
_geom_bond_distance
_geom_bond_site_symmetry_2
Zr0 Zr3 3.212505 1_555
Zr0 Zr2 3.215999 1_565
Zr0 Zr2 3.216000 1_455
Zr0 Zr2 3.229438 1_555
Zr1 Zr3 3.215999 1_546
Zr1 Zr3 3.216000 1_656
Zr1 Zr3 3.229438 1_556
Zr1 Zr2 3.242769 1_555
Al0 Tc0 2.633242 1_655
Al0 Tc2 2.633242 1_545
Al0 Al2 2.660530 1_645
Al0 Tc3 2.673711 1_546
Al0 Tc1 2.673711 1_656
Al0 W0 2.714860 1_556
Al0 Zr3 3.055630 1_656
Al0 Zr3 3.055631 1_546
Al0 Zr1 3.058401 1_555
Al0 Zr1 3.065433 1_545
Al0 Zr1 3.065434 1_655
Al0 Zr3 3.118849 1_646
Al1 Tc0 2.633242 1_655
Al1 Tc2 2.633242 1_545
Al1 Al2 2.660530 1_645
Al1 Tc3 2.673711 1_545
Al1 Tc1 2.673711 1_655
Al1 W0 2.714860 1_555
Al1 Zr0 3.055630 1_655
Al1 Zr0 3.055631 1_545
Al1 Zr2 3.058401 1_555
Al1 Zr2 3.065433 1_545
Al1 Zr2 3.065434 1_655
Al1 Zr0 3.118849 1_645
Al2 Tc0 2.575670 1_555
Al2 Tc2 2.575670 1_555
Al2 Tc0 2.665099 1_565
Al2 Tc2 2.665099 1_455
Al2 Zr1 3.063934 1_565
Al2 Zr2 3.063934 1_565
Al2 Zr1 3.063934 1_455
Al2 Zr2 3.063934 1_455
Al2 Zr3 3.123533 1_556
Al2 Zr0 3.123533 1_555
Tc0 Tc2 2.522885 1_555
Tc0 Tc2 2.676190 1_445
Tc0 Zr1 3.061613 1_555
Tc0 Zr2 3.061613 1_555
Tc0 Zr1 3.101521 1_455
Tc0 Zr2 3.101521 1_455
Tc0 Zr3 3.115362 1_556
Tc0 Zr0 3.115362 1_555
Tc1 W0 2.560643 1_555
Tc1 Tc3 2.585005 1_555
Tc1 Tc3 2.614070 1_445
Tc1 W0 2.680249 1_455
Tc1 Zr0 3.049809 1_555
Tc1 Zr3 3.049809 1_555
Tc1 Zr0 3.097184 1_545
Tc1 Zr3 3.097184 1_545
Tc1 Zr2 3.120392 1_555
Tc1 Zr1 3.120392 1_554
Tc2 Zr1 3.061613 1_555
Tc2 Zr2 3.061613 1_555
Tc2 Zr1 3.101521 1_565
Tc2 Zr2 3.101521 1_565
Tc2 Zr3 3.115362 1_556
Tc2 Zr0 3.115362 1_555
Tc3 W0 2.560642 1_555
Tc3 W0 2.680249 1_565
Tc3 Zr0 3.049810 1_555
Tc3 Zr3 3.049810 1_555
Tc3 Zr0 3.097185 1_655
Tc3 Zr3 3.097185 1_655
Tc3 Zr2 3.120392 1_555
Tc3 Zr1 3.120392 1_554
W0 Zr0 3.057158 1_545
W0 Zr3 3.057158 1_545
W0 Zr0 3.057158 1_655
W0 Zr3 3.057158 1_655
W0 Zr2 3.082976 1_555
W0 Zr1 3.082976 1_554
