# generated using pymatgen
data_LiIrS4
_symmetry_space_group_name_H-M   'P 1'
_cell_length_a   5.74122882
_cell_length_b   5.86301885
_cell_length_c   5.71882460
_cell_angle_alpha   90.00000000
_cell_angle_beta   90.00000000
_cell_angle_gamma   88.82475497
_symmetry_Int_Tables_number   1
_chemical_formula_structural   LiIrS4
_chemical_formula_sum   'Li2 Ir2 S8'
_cell_volume   192.46047579
_cell_formula_units_Z   2
loop_
 _symmetry_equiv_pos_site_id
 _symmetry_equiv_pos_as_xyz
  1  'x, y, z'
loop_
 _atom_site_type_symbol
 _atom_site_label
 _atom_site_symmetry_multiplicity
 _atom_site_fract_x
 _atom_site_fract_y
 _atom_site_fract_z
 _atom_site_occupancy
  Li  Li0  1  0.00000000  0.50000000  0.50000000  1
  Li  Li1  1  0.50000000  0.50000000  0.00000000  1
  Ir  Ir0  1  0.50000000  0.00000000  0.50000000  1
  Ir  Ir1  1  0.00000000  0.00000000  0.00000000  1
  S  S0  1  0.38539233  0.09653677  0.88765836  1
  S  S1  1  0.11460767  0.90346323  0.38765836  1
  S  S2  1  0.89843505  0.38884595  0.09656517  1
  S  S3  1  0.60156495  0.61115405  0.59656517  1
  S  S4  1  0.39843505  0.38884595  0.40343483  1
  S  S5  1  0.10156495  0.61115405  0.90343483  1
  S  S6  1  0.88539233  0.09653677  0.61234164  1
  S  S7  1  0.61460767  0.90346323  0.11234164  1
loop_
_geom_bond_atom_site_label_1
_geom_bond_atom_site_label_2
_geom_bond_distance
_geom_bond_site_symmetry_2
Li0 S3 2.429241 1_455
Li0 S4 2.429241 1_555
Li0 S5 2.470498 1_555
Li0 S2 2.470498 1_455
Li0 S6 2.550530 1_455
Li0 S1 2.550530 1_555
Li1 S2 2.429241 1_555
Li1 S5 2.429241 1_554
Li1 S4 2.470498 1_555
Li1 S3 2.470498 1_554
Li1 S7 2.550530 1_555
Li1 S0 2.550530 1_554
Ir0 S0 2.377581 1_555
Ir0 S7 2.377581 1_545
Ir0 S6 2.383316 1_555
Ir0 S1 2.383316 1_545
Ir0 S4 2.405824 1_555
Ir0 S3 2.405824 1_545
Ir1 S1 2.377581 1_545
Ir1 S6 2.377581 1_454
Ir1 S0 2.383316 1_554
Ir1 S7 2.383316 1_445
Ir1 S5 2.405824 1_544
Ir1 S2 2.405824 1_455
S0 S7 2.145491 1_546
S1 S6 2.145491 1_465
S2 S5 2.083537 1_654
S3 S4 2.083537 1_555
