# generated using pymatgen
data_Zr10InGa2Sb5
_symmetry_space_group_name_H-M   'P 1'
_cell_length_a   8.68483318
_cell_length_b   8.68483451
_cell_length_c   5.85423590
_cell_angle_alpha   90.00000000
_cell_angle_beta   90.00000000
_cell_angle_gamma   120.11509589
_symmetry_Int_Tables_number   1
_chemical_formula_structural   Zr10InGa2Sb5
_chemical_formula_sum   'Zr10 In1 Ga2 Sb5'
_cell_volume   381.96100052
_cell_formula_units_Z   1
loop_
 _symmetry_equiv_pos_site_id
 _symmetry_equiv_pos_as_xyz
  1  'x, y, z'
loop_
 _atom_site_type_symbol
 _atom_site_label
 _atom_site_symmetry_multiplicity
 _atom_site_fract_x
 _atom_site_fract_y
 _atom_site_fract_z
 _atom_site_occupancy
  Zr  Zr0  1  0.00011033  0.26387216  0.25000000  1
  Zr  Zr1  1  0.73073557  0.00167702  0.75000000  1
  Zr  Zr2  1  0.73705022  0.73705022  0.25000000  1
  Zr  Zr3  1  0.66715231  0.33152532  0.50113904  1
  Zr  Zr4  1  0.00167702  0.73073557  0.75000000  1
  Zr  Zr5  1  0.26773492  0.26773492  0.75000000  1
  Zr  Zr6  1  0.33152532  0.66715231  0.99886096  1
  Zr  Zr7  1  0.66715231  0.33152532  0.99886096  1
  Zr  Zr8  1  0.33152532  0.66715231  0.50113904  1
  Zr  Zr9  1  0.26387216  0.00011033  0.25000000  1
  In  In0  1  0.61488943  0.61488943  0.75000000  1
  Ga  Ga0  1  0.99829447  0.99829447  0.99351709  1
  Ga  Ga1  1  0.99829447  0.99829447  0.50648291  1
  Sb  Sb0  1  0.60903371  0.99855001  0.25000000  1
  Sb  Sb1  1  0.38755859  0.99987021  0.75000000  1
  Sb  Sb2  1  0.39497363  0.39497363  0.25000000  1
  Sb  Sb3  1  0.99855001  0.60903371  0.25000000  1
  Sb  Sb4  1  0.99987021  0.38755859  0.75000000  1
loop_
_geom_bond_atom_site_label_1
_geom_bond_atom_site_label_2
_geom_bond_distance
_geom_bond_site_symmetry_2
Zr3 Zr7 2.913781 1_555
Zr3 Zr7 2.940454 1_554
Zr6 Zr8 2.913781 1_555
Zr6 Zr8 2.940454 1_556
In0 Zr4 2.984113 1_655
In0 Zr1 2.984114 1_565
In0 Zr5 3.009733 1_555
In0 Zr6 3.083152 1_555
In0 Zr8 3.083152 1_555
In0 Zr7 3.083153 1_555
In0 Zr3 3.083153 1_555
In0 Zr2 3.112830 1_556
In0 Zr2 3.112830 1_555
Ga0 Zr2 2.717421 1_556
Ga0 Zr5 2.736627 1_665
Ga0 Zr1 2.738854 1_565
Ga0 Zr4 2.738854 1_655
Ga0 Zr9 2.745581 1_666
Ga0 Zr0 2.745582 1_666
Ga1 Zr2 2.717421 1_555
Ga1 Zr5 2.736627 1_665
Ga1 Zr1 2.738854 1_565
Ga1 Zr4 2.738854 1_655
Ga1 Zr9 2.745581 1_665
Ga1 Zr0 2.745582 1_665
Sb0 Zr2 2.987925 1_555
Sb0 Zr0 2.998654 1_665
Sb0 Zr9 3.004492 1_565
Sb0 Zr8 3.048462 1_555
Sb0 Zr6 3.048462 1_554
Sb0 Zr3 3.051938 1_565
Sb0 Zr7 3.051938 1_564
Sb0 Zr1 3.107590 1_565
Sb0 Zr1 3.107590 1_564
Sb1 Zr4 2.972229 1_555
Sb1 Zr1 2.972593 1_565
Sb1 Zr5 2.987348 1_565
Sb1 Zr7 3.049070 1_565
Sb1 Zr3 3.049070 1_565
Sb1 Zr6 3.049271 1_555
Sb1 Zr8 3.049271 1_555
Sb1 Zr9 3.118360 1_565
Sb1 Zr9 3.118360 1_566
Sb2 Zr2 2.965709 1_555
Sb2 Zr0 3.022989 1_555
Sb2 Zr9 3.022989 1_555
Sb2 Zr3 3.059408 1_555
Sb2 Zr7 3.059408 1_554
Sb2 Zr8 3.059408 1_555
Sb2 Zr6 3.059408 1_554
Sb2 Zr5 3.128083 1_555
Sb2 Zr5 3.128083 1_554
Sb3 Zr2 2.987924 1_555
Sb3 Zr9 2.998654 1_665
Sb3 Zr0 3.004493 1_655
Sb3 Zr3 3.048462 1_555
Sb3 Zr7 3.048462 1_554
Sb3 Zr8 3.051937 1_655
Sb3 Zr6 3.051937 1_654
Sb3 Zr4 3.107590 1_655
Sb3 Zr4 3.107590 1_654
Sb4 Zr1 2.972229 1_555
Sb4 Zr4 2.972593 1_655
Sb4 Zr5 2.987347 1_655
Sb4 Zr6 3.049070 1_655
Sb4 Zr8 3.049070 1_655
Sb4 Zr7 3.049270 1_555
Sb4 Zr3 3.049270 1_555
Sb4 Zr0 3.118360 1_655
Sb4 Zr0 3.118360 1_656
