# generated using pymatgen
data_CsRb5GaBi3
_symmetry_space_group_name_H-M   'P 1'
_cell_length_a   6.38568545
_cell_length_b   10.91565018
_cell_length_c   12.89908767
_cell_angle_alpha   79.17749302
_cell_angle_beta   90.00000000
_cell_angle_gamma   90.00000000
_symmetry_Int_Tables_number   1
_chemical_formula_structural   CsRb5GaBi3
_chemical_formula_sum   'Cs2 Rb10 Ga2 Bi6'
_cell_volume   883.12474608
_cell_formula_units_Z   2
loop_
 _symmetry_equiv_pos_site_id
 _symmetry_equiv_pos_as_xyz
  1  'x, y, z'
loop_
 _atom_site_type_symbol
 _atom_site_label
 _atom_site_symmetry_multiplicity
 _atom_site_fract_x
 _atom_site_fract_y
 _atom_site_fract_z
 _atom_site_occupancy
  Cs  Cs0  1  0.75000000  0.45263672  0.08139367  1
  Cs  Cs1  1  0.25000000  0.54736328  0.91860633  1
  Rb  Rb0  1  0.75000000  0.74776840  0.22522925  1
  Rb  Rb1  1  0.25000000  0.25223160  0.77477075  1
  Rb  Rb2  1  0.25000000  0.55562111  0.54362259  1
  Rb  Rb3  1  0.75000000  0.44437889  0.45637741  1
  Rb  Rb4  1  0.25000000  0.86452503  0.02389375  1
  Rb  Rb5  1  0.75000000  0.13547497  0.97610625  1
  Rb  Rb6  1  0.25000000  0.87171319  0.67475128  1
  Rb  Rb7  1  0.75000000  0.12828681  0.32524872  1
  Rb  Rb8  1  0.25000000  0.91398081  0.37093924  1
  Rb  Rb9  1  0.75000000  0.08601919  0.62906076  1
  Ga  Ga0  1  0.75000000  0.67925538  0.71680142  1
  Ga  Ga1  1  0.25000000  0.32074462  0.28319858  1
  Bi  Bi0  1  0.25000000  0.21170256  0.49016284  1
  Bi  Bi1  1  0.75000000  0.78829744  0.50983716  1
  Bi  Bi2  1  0.25000000  0.57214722  0.23583563  1
  Bi  Bi3  1  0.75000000  0.42785278  0.76416437  1
  Bi  Bi4  1  0.75000000  0.82468981  0.87369608  1
  Bi  Bi5  1  0.25000000  0.17531019  0.12630392  1
loop_
_geom_bond_atom_site_label_1
_geom_bond_atom_site_label_2
_geom_bond_distance
_geom_bond_site_symmetry_2
Cs0 Cs1 3.854509 1_654
Cs0 Cs1 3.854509 1_554
Cs0 Rb5 3.949151 1_554
Cs0 Rb0 4.008158 1_555
Cs0 Ga1 4.199488 1_555
Cs0 Ga1 4.199488 1_655
Cs0 Rb7 4.271662 1_555
Cs0 Rb3 4.820836 1_555
Cs1 Rb4 3.949151 1_556
Cs1 Rb1 4.008158 1_555
Cs1 Ga0 4.199488 1_455
Cs1 Ga0 4.199488 1_555
Cs1 Rb6 4.271662 1_555
Cs1 Rb2 4.820836 1_555
Rb0 Rb3 4.018604 1_555
Rb0 Rb4 4.161754 1_655
Rb0 Rb4 4.161754 1_555
Rb0 Rb8 4.277756 1_555
Rb0 Rb8 4.277756 1_655
Rb0 Rb7 4.574863 1_565
Rb0 Rb5 4.809326 1_564
Rb1 Rb2 4.018604 1_555
Rb1 Rb5 4.161754 1_555
Rb1 Rb5 4.161754 1_455
Rb1 Rb9 4.277756 1_455
Rb1 Rb9 4.277756 1_555
Rb1 Rb6 4.574863 1_545
Rb1 Rb4 4.809326 1_546
Rb2 Rb3 3.667205 1_555
Rb2 Rb3 3.667205 1_455
Rb2 Rb6 4.117952 1_555
Rb2 Rb8 4.122024 1_555
Rb3 Rb7 4.117952 1_555
Rb3 Rb9 4.122024 1_555
Rb4 Rb5 4.317052 1_564
Rb4 Rb5 4.317052 1_464
Rb4 Rb6 4.489548 1_554
Rb4 Rb8 4.608540 1_555
Rb5 Rb7 4.489548 1_556
Rb5 Rb9 4.608540 1_555
Rb6 Rb8 3.858968 1_555
Rb6 Rb9 3.936512 1_565
Rb6 Rb9 3.936512 1_465
Rb7 Rb9 3.858968 1_555
Rb7 Rb8 3.936512 1_545
Rb7 Rb8 3.936512 1_645
Ga0 Rb6 3.804458 1_555
Ga0 Rb6 3.804458 1_655
Ga1 Rb7 3.804458 1_455
Ga1 Rb7 3.804458 1_555
Bi0 Ga1 2.711175 1_555
Bi0 Rb1 3.779314 1_555
Bi0 Rb9 3.789903 1_555
Bi0 Rb9 3.789903 1_455
Bi0 Rb8 3.847504 1_545
Bi0 Rb2 3.942197 1_555
Bi0 Rb6 4.015460 1_545
Bi0 Rb7 4.034336 1_455
Bi0 Rb7 4.034336 1_555
Bi0 Rb3 4.052056 1_555
Bi0 Rb3 4.052056 1_455
Bi1 Ga0 2.711175 1_555
Bi1 Rb0 3.779314 1_555
Bi1 Rb8 3.789903 1_655
Bi1 Rb8 3.789903 1_555
Bi1 Rb9 3.847504 1_565
Bi1 Rb3 3.942197 1_555
Bi1 Rb7 4.015460 1_565
Bi1 Rb6 4.034336 1_555
Bi1 Rb6 4.034336 1_655
Bi1 Rb2 4.052056 1_655
Bi1 Rb2 4.052056 1_555
Bi2 Ga1 2.697110 1_555
Bi2 Rb0 3.713413 1_455
Bi2 Rb0 3.713413 1_555
Bi2 Rb4 3.792498 1_555
Bi2 Rb2 3.940285 1_555
Bi2 Cs0 4.103744 1_555
Bi2 Cs0 4.103744 1_455
Bi2 Cs1 4.151279 1_554
Bi2 Rb8 4.404757 1_555
Bi3 Ga0 2.697110 1_555
Bi3 Rb1 3.713413 1_555
Bi3 Rb1 3.713413 1_655
Bi3 Rb5 3.792498 1_555
Bi3 Rb3 3.940285 1_555
Bi3 Cs1 4.103744 1_555
Bi3 Cs1 4.103744 1_655
Bi3 Cs0 4.151279 1_556
Bi3 Rb9 4.404757 1_555
Bi4 Ga0 2.796868 1_555
Bi4 Rb4 3.801743 1_556
Bi4 Rb4 3.801743 1_656
Bi4 Rb9 3.835945 1_565
Bi4 Rb5 3.864774 1_565
Bi4 Rb6 4.067981 1_555
Bi4 Rb6 4.067981 1_655
Bi4 Cs1 4.362936 1_555
Bi4 Cs1 4.362936 1_655
Bi4 Cs0 4.425496 1_556
Bi4 Rb0 4.453821 1_556
Bi5 Ga1 2.796868 1_555
Bi5 Rb5 3.801743 1_554
Bi5 Rb5 3.801743 1_454
Bi5 Rb8 3.835945 1_545
Bi5 Rb4 3.864774 1_545
Bi5 Rb7 4.067981 1_455
Bi5 Rb7 4.067981 1_555
Bi5 Cs0 4.362936 1_455
Bi5 Cs0 4.362936 1_555
Bi5 Cs1 4.425496 1_554
Bi5 Rb1 4.453821 1_554
