# generated using pymatgen
data_Ba4YAuO8
_symmetry_space_group_name_H-M   'P 1'
_cell_length_a   7.41168141
_cell_length_b   7.41168016
_cell_length_c   5.93255861
_cell_angle_alpha   90.00000000
_cell_angle_beta   90.00000000
_cell_angle_gamma   132.90861941
_symmetry_Int_Tables_number   1
_chemical_formula_structural   Ba4YAuO8
_chemical_formula_sum   'Ba4 Y1 Au1 O8'
_cell_volume   238.69745678
_cell_formula_units_Z   1
loop_
 _symmetry_equiv_pos_site_id
 _symmetry_equiv_pos_as_xyz
  1  'x, y, z'
loop_
 _atom_site_type_symbol
 _atom_site_label
 _atom_site_symmetry_multiplicity
 _atom_site_fract_x
 _atom_site_fract_y
 _atom_site_fract_z
 _atom_site_occupancy
  Ba  Ba0  1  0.35417317  0.64582683  0.00000000  1
  Ba  Ba1  1  0.85334291  0.14665709  0.50000000  1
  Ba  Ba2  1  0.14665709  0.85334291  0.50000000  1
  Ba  Ba3  1  0.64582683  0.35417317  0.00000000  1
  Y  Y0  1  0.00000000  0.00000000  0.00000000  1
  Au  Au0  1  0.50000000  0.50000000  0.50000000  1
  O  O0  1  0.25905348  0.25905348  0.73383158  1
  O  O1  1  0.74094652  0.74094652  0.26616842  1
  O  O2  1  0.74094652  0.74094652  0.73383158  1
  O  O3  1  0.25905348  0.25905348  0.26616842  1
  O  O4  1  0.16493090  0.83506910  0.00000000  1
  O  O5  1  0.65225017  0.34774983  0.50000000  1
  O  O6  1  0.34774983  0.65225017  0.50000000  1
  O  O7  1  0.83506910  0.16493090  0.00000000  1
loop_
_geom_bond_atom_site_label_1
_geom_bond_atom_site_label_2
_geom_bond_distance
_geom_bond_site_symmetry_2
Ba0 O4 2.571650 1_555
Ba0 O3 2.907954 1_555
Ba0 O0 2.907954 1_554
Ba0 O1 2.907954 1_555
Ba0 O2 2.907954 1_554
Ba0 O6 2.967563 1_554
Ba0 O6 2.967563 1_555
Ba0 O7 2.972180 1_565
Ba0 O7 2.972180 1_455
Ba1 O5 2.732689 1_555
Ba1 O2 2.872187 1_545
Ba1 O1 2.872187 1_545
Ba1 O0 2.872187 1_655
Ba1 O3 2.872187 1_655
Ba1 O6 2.961795 1_655
Ba1 O6 2.961795 1_545
Ba1 O7 2.976656 1_555
Ba1 O7 2.976656 1_556
Ba2 O6 2.732689 1_555
Ba2 O0 2.872187 1_565
Ba2 O3 2.872187 1_565
Ba2 O2 2.872187 1_455
Ba2 O1 2.872187 1_455
Ba2 O5 2.961795 1_455
Ba2 O5 2.961795 1_565
Ba2 O4 2.976656 1_556
Ba2 O4 2.976656 1_555
Ba3 O7 2.571650 1_555
Ba3 O1 2.907954 1_555
Ba3 O2 2.907954 1_554
Ba3 O3 2.907954 1_555
Ba3 O0 2.907954 1_554
Ba3 O5 2.967563 1_555
Ba3 O5 2.967563 1_554
Ba3 O4 2.972180 1_545
Ba3 O4 2.972180 1_655
Au0 O2 1.990008 1_555
Au0 O1 1.990008 1_555
Au0 O0 1.990008 1_555
Au0 O3 1.990008 1_555
Au0 O5 2.068957 1_555
Au0 O6 2.068957 1_555
O0 Y0 2.201511 1_556
O1 Y0 2.201511 1_665
O2 Y0 2.201511 1_666
O3 Y0 2.201511 1_555
O4 Y0 2.241278 1_565
O7 Y0 2.241278 1_655
