# generated using pymatgen
data_Rb2NaLuP2
_symmetry_space_group_name_H-M   'P 1'
_cell_length_a   9.11742409
_cell_length_b   9.11742418
_cell_length_c   9.11742455
_cell_angle_alpha   135.25541081
_cell_angle_beta   135.67676614
_cell_angle_gamma   64.80747150
_symmetry_Int_Tables_number   1
_chemical_formula_structural   Rb2NaLuP2
_chemical_formula_sum   'Rb4 Na2 Lu2 P4'
_cell_volume   367.50244325
_cell_formula_units_Z   2
loop_
 _symmetry_equiv_pos_site_id
 _symmetry_equiv_pos_as_xyz
  1  'x, y, z'
loop_
 _atom_site_type_symbol
 _atom_site_label
 _atom_site_symmetry_multiplicity
 _atom_site_fract_x
 _atom_site_fract_y
 _atom_site_fract_z
 _atom_site_occupancy
  Rb  Rb0  1  0.18205398  0.96928633  0.78723235  1
  Rb  Rb1  1  0.81794602  0.03071367  0.21276765  1
  Rb  Rb2  1  0.31794602  0.60517937  0.28723235  1
  Rb  Rb3  1  0.68205398  0.39482063  0.71276765  1
  Na  Na0  1  0.75000000  0.00000000  0.75000000  1
  Na  Na1  1  0.25000000  0.00000000  0.25000000  1
  Lu  Lu0  1  0.25000000  0.50000000  0.75000000  1
  Lu  Lu1  1  0.75000000  0.50000000  0.25000000  1
  P  P0  1  0.40858810  0.19139484  0.78280674  1
  P  P1  1  0.59141190  0.80860516  0.21719326  1
  P  P2  1  0.09141190  0.37421764  0.28280674  1
  P  P3  1  0.90858810  0.62578236  0.71719326  1
loop_
_geom_bond_atom_site_label_1
_geom_bond_atom_site_label_2
_geom_bond_distance
_geom_bond_site_symmetry_2
Na0 P3 2.964876 1_545
Na0 P2 2.964880 1_656
Na0 P0 2.964884 1_555
Na0 P1 2.964885 1_545
Na1 P2 2.964876 1_555
Na1 P3 2.964880 1_444
Na1 P1 2.964884 1_545
Na1 P0 2.964885 1_555
Lu0 P2 2.685172 1_555
Lu0 P1 2.685176 1_556
Lu0 P0 2.685176 1_555
Lu0 P3 2.685176 1_455
Lu1 P3 2.685172 1_555
Lu1 P0 2.685176 1_554
Lu1 P1 2.685176 1_555
Lu1 P2 2.685176 1_655
P0 Rb0 3.487754 1_545
P0 Rb2 3.711886 1_545
P0 Rb1 3.743304 1_455
P0 Rb1 3.743304 1_556
P0 Rb2 3.768889 1_556
P1 Rb1 3.487754 1_565
P1 Rb3 3.711886 1_565
P1 Rb0 3.743304 1_655
P1 Rb0 3.743304 1_554
P1 Rb3 3.768889 1_554
P2 Rb2 3.487769 1_555
P2 Rb0 3.711891 1_544
P2 Rb3 3.743304 1_555
P2 Rb3 3.743304 1_454
P2 Rb0 3.768895 1_555
P3 Rb3 3.487769 1_555
P3 Rb1 3.711891 1_566
P3 Rb2 3.743304 1_555
P3 Rb2 3.743304 1_656
P3 Rb1 3.768895 1_555
