# generated using pymatgen
data_Sr6Cd3In5Sn2
_symmetry_space_group_name_H-M   'P 1'
_cell_length_a   6.46362941
_cell_length_b   6.46362950
_cell_length_c   16.65658038
_cell_angle_alpha   90.12164760
_cell_angle_beta   89.87835258
_cell_angle_gamma   134.67025913
_symmetry_Int_Tables_number   1
_chemical_formula_structural   Sr6Cd3In5Sn2
_chemical_formula_sum   'Sr6 Cd3 In5 Sn2'
_cell_volume   494.88884367
_cell_formula_units_Z   1
loop_
 _symmetry_equiv_pos_site_id
 _symmetry_equiv_pos_as_xyz
  1  'x, y, z'
loop_
 _atom_site_type_symbol
 _atom_site_label
 _atom_site_symmetry_multiplicity
 _atom_site_fract_x
 _atom_site_fract_y
 _atom_site_fract_z
 _atom_site_occupancy
  Sr  Sr0  1  0.09376743  0.90623257  0.39061060  1
  Sr  Sr1  1  0.63498813  0.36501187  0.75044138  1
  Sr  Sr2  1  0.36505972  0.63494028  0.25117767  1
  Sr  Sr3  1  0.90972437  0.09027563  0.60897489  1
  Sr  Sr4  1  0.90810606  0.09189394  0.88824226  1
  Sr  Sr5  1  0.08857706  0.91142294  0.11097626  1
  Cd  Cd0  1  0.20547218  0.79452782  0.90112006  1
  Cd  Cd1  1  0.79640026  0.20359974  0.40091370  1
  Cd  Cd2  1  0.38714009  0.61285991  0.46160576  1
  In  In0  1  0.61380048  0.38619952  0.96258347  1
  In  In1  1  0.20944850  0.79055150  0.59942509  1
  In  In2  1  0.61371387  0.38628613  0.53628160  1
  In  In3  1  0.38501165  0.61498835  0.03472851  1
  In  In4  1  0.78997936  0.21002064  0.09976815  1
  Sn  Sn0  1  0.34185704  0.65814296  0.75176101  1
  Sn  Sn1  1  0.65695481  0.34304519  0.25138560  1
loop_
_geom_bond_atom_site_label_1
_geom_bond_atom_site_label_2
_geom_bond_distance
_geom_bond_site_symmetry_2
Sr0 Sr2 3.979007 1_555
Sr0 Sr3 4.244108 1_465
Sr0 Sr2 4.366913 1_455
Sr0 Sr2 4.366913 1_565
Sr1 Sr4 3.989661 1_555
Sr1 Sr3 4.032074 1_555
Sr1 Sr4 4.332239 1_455
Sr1 Sr4 4.332239 1_565
Sr1 Sr3 4.359577 1_455
Sr1 Sr3 4.359577 1_565
Sr2 Sr5 4.045581 1_555
Sr2 Sr5 4.328710 1_655
Sr2 Sr5 4.328710 1_545
Sr4 Sr5 4.293650 1_646
Cd0 In0 2.905576 1_455
Cd0 In0 2.905576 1_565
Cd0 Sn0 2.969423 1_555
Cd0 In3 3.092176 1_556
Cd0 Sr4 3.477081 1_565
Cd0 Sr4 3.477081 1_455
Cd0 Sr4 3.554236 1_465
Cd0 Sr1 3.635833 1_455
Cd0 Sr1 3.635833 1_565
Cd0 Sr5 3.760379 1_556
Cd1 Cd2 2.898659 1_655
Cd1 Cd2 2.898660 1_545
Cd1 Sn1 2.998218 1_555
Cd1 In2 3.132174 1_555
Cd1 Sr0 3.475308 1_545
Cd1 Sr0 3.475309 1_655
Cd1 Sr0 3.551031 1_645
Cd1 Sr2 3.617385 1_655
Cd1 Sr2 3.617385 1_545
Cd1 Sr3 3.722811 1_555
Cd2 In2 2.977864 1_555
Cd2 In1 3.120961 1_555
Cd2 Sr3 3.507788 1_565
Cd2 Sr3 3.507788 1_455
Cd2 Sr2 3.515500 1_555
Cd2 Sr0 3.696487 1_655
Cd2 Sr0 3.696487 1_545
Cd2 Sr0 3.696596 1_555
In0 In3 2.979522 1_556
In0 In4 3.108101 1_556
In0 Sr5 3.521373 1_656
In0 Sr5 3.521373 1_546
In0 Sr1 3.542009 1_555
In0 Sr4 3.711010 1_455
In0 Sr4 3.711010 1_565
In0 Sr4 3.720042 1_555
In1 In2 2.935895 1_455
In1 In2 2.935895 1_565
In1 Sn0 2.991926 1_555
In1 Sr3 3.455188 1_565
In1 Sr3 3.455188 1_455
In1 Sr3 3.578564 1_465
In1 Sr1 3.648227 1_455
In1 Sr1 3.648227 1_565
In1 Sr0 3.744834 1_555
In2 Sr0 3.485709 1_545
In2 Sr0 3.485709 1_655
In2 Sr1 3.576768 1_555
In2 Sr3 3.684758 1_455
In2 Sr3 3.684758 1_565
In2 Sr3 3.735556 1_555
In3 In4 2.942222 1_455
In3 In4 2.942222 1_565
In3 Sr4 3.497110 1_454
In3 Sr4 3.497110 1_564
In3 Sr2 3.612604 1_555
In3 Sr5 3.705060 1_655
In3 Sr5 3.705061 1_545
In3 Sr5 3.754554 1_555
In4 Sn1 2.979499 1_555
In4 Sr5 3.465321 1_545
In4 Sr5 3.465321 1_655
In4 Sr5 3.567274 1_645
In4 Sr2 3.657380 1_655
In4 Sr2 3.657380 1_545
In4 Sr4 3.791625 1_554
Sn0 Sr4 3.464726 1_565
Sn0 Sr4 3.464726 1_455
Sn0 Sr1 3.496763 1_555
Sn0 Sr1 3.506278 1_455
Sn0 Sr1 3.506278 1_565
Sn0 Sr3 3.536465 1_565
Sn0 Sr3 3.536465 1_455
Sn1 Sr2 3.482010 1_555
Sn1 Sr0 3.484466 1_545
Sn1 Sr0 3.484466 1_655
Sn1 Sr5 3.513884 1_545
Sn1 Sr5 3.513884 1_655
Sn1 Sr2 3.516563 1_655
Sn1 Sr2 3.516563 1_545
