# generated using pymatgen
data_Hf9ZrGa3Sb5
_symmetry_space_group_name_H-M   'P 1'
_cell_length_a   8.55235194
_cell_length_b   8.54460568
_cell_length_c   5.73843254
_cell_angle_alpha   90.00000000
_cell_angle_beta   90.00000000
_cell_angle_gamma   120.15622442
_symmetry_Int_Tables_number   1
_chemical_formula_structural   Hf9ZrGa3Sb5
_chemical_formula_sum   'Hf9 Zr1 Ga3 Sb5'
_cell_volume   362.58987412
_cell_formula_units_Z   1
loop_
 _symmetry_equiv_pos_site_id
 _symmetry_equiv_pos_as_xyz
  1  'x, y, z'
loop_
 _atom_site_type_symbol
 _atom_site_label
 _atom_site_symmetry_multiplicity
 _atom_site_fract_x
 _atom_site_fract_y
 _atom_site_fract_z
 _atom_site_occupancy
  Hf  Hf0  1  0.27819056  0.27909089  0.75000000  1
  Hf  Hf1  1  0.73780789  0.73751047  0.25000000  1
  Hf  Hf2  1  0.72268412  0.98744042  0.75000000  1
  Hf  Hf3  1  0.00148048  0.26413168  0.25000000  1
  Hf  Hf4  1  0.33702083  0.66545816  0.50336042  1
  Hf  Hf5  1  0.66611625  0.33699506  0.50335906  1
  Hf  Hf6  1  0.98672420  0.72279503  0.75000000  1
  Hf  Hf7  1  0.33702083  0.66545816  0.99663958  1
  Hf  Hf8  1  0.66611625  0.33699506  0.99664094  1
  Zr  Zr0  1  0.26429561  0.00082063  0.25000000  1
  Ga  Ga0  1  0.00070691  0.00160750  0.51045570  1
  Ga  Ga1  1  0.61202605  0.61186008  0.75000000  1
  Ga  Ga2  1  0.00070691  0.00160750  0.98954430  1
  Sb  Sb0  1  0.38363891  0.99801713  0.75000000  1
  Sb  Sb1  1  0.60970477  0.00103001  0.25000000  1
  Sb  Sb2  1  0.39764241  0.39783125  0.25000000  1
  Sb  Sb3  1  0.99797470  0.38413275  0.75000000  1
  Sb  Sb4  1  0.00014332  0.60721721  0.25000000  1
loop_
_geom_bond_atom_site_label_1
_geom_bond_atom_site_label_2
_geom_bond_distance
_geom_bond_site_symmetry_2
Hf0 Sb3 2.951259 1_455
Hf0 Sb0 2.959292 1_545
Hf0 Sb2 3.043692 1_556
Hf0 Sb2 3.043692 1_555
Hf1 Sb2 2.898962 1_555
Hf1 Sb1 2.957846 1_565
Hf1 Sb4 2.963562 1_655
Hf2 Sb0 2.946071 1_555
Hf2 Sb3 3.002389 1_565
Hf2 Sb1 3.048316 1_565
Hf2 Sb1 3.048316 1_566
Hf3 Sb4 2.937292 1_555
Hf3 Sb1 2.951688 1_455
Hf3 Sb2 2.982541 1_555
Hf3 Sb3 3.052140 1_454
Hf3 Sb3 3.052140 1_455
Hf4 Sb2 2.966999 1_555
Hf4 Sb1 3.009252 1_565
Hf4 Sb0 3.016362 1_555
Hf4 Sb3 3.030891 1_455
Hf4 Sb4 3.036714 1_555
Hf5 Sb2 2.975764 1_555
Hf5 Sb4 2.996448 1_655
Hf5 Sb3 3.011988 1_555
Hf5 Sb1 3.032473 1_555
Hf5 Sb0 3.032894 1_545
Hf6 Sb3 2.943248 1_555
Hf6 Sb0 3.005462 1_655
Hf6 Sb4 3.055280 1_656
Hf6 Sb4 3.055280 1_655
Hf7 Sb2 2.966999 1_556
Hf7 Sb1 3.009252 1_566
Hf7 Sb0 3.016362 1_555
Hf7 Sb3 3.030891 1_455
Hf7 Sb4 3.036714 1_556
Hf8 Sb2 2.975764 1_556
Hf8 Sb4 2.996448 1_656
Hf8 Sb3 3.011988 1_555
Hf8 Sb1 3.032473 1_556
Hf8 Sb0 3.032894 1_545
Ga0 Hf3 2.692727 1_555
Ga0 Hf2 2.696053 1_445
Ga0 Hf1 2.698840 1_445
Ga0 Hf6 2.700587 1_445
Ga0 Zr0 2.707583 1_555
Ga0 Hf0 2.736728 1_555
Ga1 Hf0 2.842518 1_555
Ga1 Hf6 2.848813 1_555
Ga1 Hf2 2.853605 1_555
Ga1 Hf8 2.970646 1_555
Ga1 Hf5 2.970646 1_555
Ga1 Hf7 2.970980 1_555
Ga1 Hf4 2.970980 1_555
Ga1 Hf1 3.062988 1_555
Ga1 Hf1 3.062988 1_556
Ga2 Hf3 2.692727 1_556
Ga2 Hf2 2.696053 1_445
Ga2 Hf1 2.698840 1_446
Ga2 Hf6 2.700587 1_445
Ga2 Zr0 2.707583 1_556
Ga2 Hf0 2.736728 1_555
Sb0 Zr0 3.049475 1_566
Sb0 Zr0 3.049475 1_565
Sb1 Zr0 2.953162 1_555
Sb2 Zr0 2.986861 1_555
Sb4 Zr0 2.963267 1_565
