# generated using pymatgen
data_Ta12Mn11VN4
_symmetry_space_group_name_H-M   'P 1'
_cell_length_a   8.05801365
_cell_length_b   8.05801330
_cell_length_c   8.02836914
_cell_angle_alpha   59.87789879
_cell_angle_beta   59.87789644
_cell_angle_gamma   59.99995254
_symmetry_Int_Tables_number   1
_chemical_formula_structural   Ta12Mn11VN4
_chemical_formula_sum   'Ta12 Mn11 V1 N4'
_cell_volume   367.92912221
_cell_formula_units_Z   1
loop_
 _symmetry_equiv_pos_site_id
 _symmetry_equiv_pos_as_xyz
  1  'x, y, z'
loop_
 _atom_site_type_symbol
 _atom_site_label
 _atom_site_symmetry_multiplicity
 _atom_site_fract_x
 _atom_site_fract_y
 _atom_site_fract_z
 _atom_site_occupancy
  Ta  Ta0  1  0.80721467  0.80721467  0.19497211  1
  Ta  Ta1  1  0.19533094  0.19533094  0.80437093  1
  Ta  Ta2  1  0.80497580  0.19531464  0.80437962  1
  Ta  Ta3  1  0.19059582  0.80720855  0.19498679  1
  Ta  Ta4  1  0.19531464  0.80497580  0.80437962  1
  Ta  Ta5  1  0.80720855  0.19059582  0.19498679  1
  Ta  Ta6  1  0.44278533  0.44278533  0.05502789  1
  Ta  Ta7  1  0.05466906  0.05466906  0.44562907  1
  Ta  Ta8  1  0.44502420  0.05468536  0.44562038  1
  Ta  Ta9  1  0.05940418  0.44279145  0.05501321  1
  Ta  Ta10  1  0.05468536  0.44502420  0.44562038  1
  Ta  Ta11  1  0.44279145  0.05940418  0.05501321  1
  Mn  Mn0  1  0.12500000  0.62500000  0.62500000  1
  Mn  Mn1  1  0.62500000  0.12500000  0.62500000  1
  Mn  Mn2  1  0.62500000  0.62500000  0.62500000  1
  Mn  Mn3  1  0.73742755  0.42047318  0.42160126  1
  Mn  Mn4  1  0.42047318  0.73742755  0.42160126  1
  Mn  Mn5  1  0.42158306  0.42158306  0.73523021  1
  Mn  Mn6  1  0.42048020  0.42048020  0.42160812  1
  Mn  Mn7  1  0.51257245  0.82952682  0.82839874  1
  Mn  Mn8  1  0.82952682  0.51257245  0.82839874  1
  Mn  Mn9  1  0.82841694  0.82841694  0.51476979  1
  Mn  Mn10  1  0.82951980  0.82951980  0.82839188  1
  V  V0  1  0.62500000  0.62500000  0.12500000  1
  N  N0  1  0.62500000  0.12500000  0.12500000  1
  N  N1  1  0.12500000  0.62500000  0.12500000  1
  N  N2  1  0.12500000  0.12500000  0.62500000  1
  N  N3  1  0.12500000  0.12500000  0.12500000  1
loop_
_geom_bond_atom_site_label_1
_geom_bond_atom_site_label_2
_geom_bond_distance
_geom_bond_site_symmetry_2
Ta0 V0 2.904984 1_555
Ta3 V0 2.904984 1_555
Ta5 V0 2.904984 1_555
Ta6 V0 2.904984 1_555
Ta9 V0 2.904984 1_455
Ta11 V0 2.904984 1_545
Mn0 Mn4 2.434330 1_555
Mn0 Mn8 2.434330 1_455
Mn0 Mn6 2.434389 1_555
Mn0 Mn10 2.434389 1_455
Mn0 Mn9 2.435347 1_455
Mn0 Mn5 2.435347 1_555
Mn0 Ta9 2.865408 1_556
Mn0 Ta3 2.865408 1_555
Mn0 Ta7 2.869670 1_565
Mn0 Ta1 2.869670 1_555
Mn0 Ta4 2.869693 1_555
Mn0 Ta10 2.869693 1_555
Mn1 Mn3 2.434330 1_555
Mn1 Mn7 2.434330 1_545
Mn1 Mn10 2.434389 1_545
Mn1 Mn6 2.434389 1_555
Mn1 Mn5 2.435347 1_555
Mn1 Mn9 2.435347 1_545
Mn1 Ta11 2.865408 1_556
Mn1 Ta5 2.865408 1_555
Mn1 Ta7 2.869670 1_655
Mn1 Ta1 2.869670 1_555
Mn1 Ta2 2.869693 1_555
Mn1 Ta8 2.869693 1_555
Mn2 Mn7 2.434490 1_555
Mn2 Mn3 2.434490 1_555
Mn2 Mn8 2.434490 1_555
Mn2 Mn4 2.434490 1_555
Mn2 Mn5 2.435489 1_555
Mn2 Mn9 2.435489 1_555
Mn2 Ta6 2.865508 1_556
Mn2 Ta0 2.865508 1_555
Mn2 Ta8 2.869782 1_565
Mn2 Ta2 2.869782 1_555
Mn2 Ta10 2.869782 1_655
Mn2 Ta4 2.869782 1_555
Mn3 V0 2.437283 1_555
Mn3 Mn5 2.526924 1_555
Mn3 Mn6 2.553910 1_555
Mn3 Mn4 2.554021 1_555
Mn3 Ta7 2.765820 1_655
Mn3 Ta10 2.765987 1_655
Mn3 Ta9 2.774332 1_655
Mn3 Ta2 2.850802 1_555
Mn3 Ta5 2.893364 1_555
Mn3 Ta0 2.893602 1_555
Mn4 V0 2.437283 1_555
Mn4 Mn5 2.526924 1_555
Mn4 Mn6 2.553910 1_555
Mn4 Ta7 2.765820 1_565
Mn4 Ta8 2.765987 1_565
Mn4 Ta11 2.774332 1_565
Mn4 Ta4 2.850802 1_555
Mn4 Ta3 2.893364 1_555
Mn4 Ta0 2.893602 1_555
Mn5 Mn6 2.526825 1_555
Mn5 Ta9 2.749378 1_556
Mn5 Ta11 2.749378 1_556
Mn5 Ta6 2.749530 1_556
Mn5 Ta1 2.871968 1_555
Mn5 Ta4 2.872194 1_555
Mn5 Ta2 2.872195 1_555
Mn6 V0 2.437350 1_555
Mn6 Ta8 2.765770 1_555
Mn6 Ta10 2.765770 1_555
Mn6 Ta6 2.774269 1_555
Mn6 Ta1 2.850660 1_555
Mn6 Ta5 2.893474 1_555
Mn6 Ta3 2.893474 1_555
Mn7 V0 2.437283 1_556
Mn7 Mn9 2.526924 1_555
Mn7 Mn8 2.554021 1_555
Mn7 Ta1 2.765820 1_565
Mn7 Ta4 2.765987 1_555
Mn7 Ta3 2.774332 1_556
Mn7 Ta8 2.850802 1_565
Mn7 Ta11 2.893364 1_566
Mn7 Ta6 2.893602 1_556
Mn8 V0 2.437283 1_556
Mn8 Mn9 2.526924 1_555
Mn8 Ta1 2.765820 1_655
Mn8 Ta2 2.765987 1_555
Mn8 Ta5 2.774332 1_556
Mn8 Ta10 2.850802 1_655
Mn8 Ta9 2.893364 1_656
Mn8 Ta6 2.893602 1_556
Mn9 Ta3 2.749378 1_655
Mn9 Ta5 2.749378 1_565
Mn9 Ta0 2.749530 1_555
Mn9 Ta7 2.871968 1_665
Mn9 Ta10 2.872194 1_655
Mn9 Ta8 2.872195 1_565
Mn10 V0 2.437350 1_556
Mn10 Mn9 2.526825 1_555
Mn10 Mn8 2.553910 1_555
Mn10 Mn7 2.553910 1_555
Mn10 Ta2 2.765770 1_565
Mn10 Ta4 2.765770 1_655
Mn10 Ta0 2.774269 1_556
Mn10 Ta7 2.850660 1_665
Mn10 Ta11 2.893474 1_566
Mn10 Ta9 2.893474 1_656
N0 Ta6 2.157058 1_555
N0 Ta0 2.157058 1_545
N0 Ta5 2.157081 1_555
N0 Ta11 2.157081 1_555
N0 Ta8 2.158960 1_555
N0 Ta2 2.158960 1_554
N1 Ta6 2.157058 1_555
N1 Ta0 2.157058 1_455
N1 Ta3 2.157081 1_555
N1 Ta9 2.157081 1_555
N1 Ta10 2.158960 1_555
N1 Ta4 2.158960 1_554
N2 Ta10 2.162272 1_555
N2 Ta4 2.162272 1_545
N2 Ta8 2.162272 1_555
N2 Ta2 2.162272 1_455
N2 Ta1 2.162305 1_555
N2 Ta7 2.162305 1_555
N3 Ta9 2.157085 1_555
N3 Ta3 2.157085 1_545
N3 Ta11 2.157085 1_555
N3 Ta5 2.157085 1_455
N3 Ta7 2.158994 1_555
N3 Ta1 2.158994 1_554
