# generated using pymatgen
data_Sr2GaSiI
_symmetry_space_group_name_H-M   'P 1'
_cell_length_a   4.28325636
_cell_length_b   4.28325684
_cell_length_c   18.76540766
_cell_angle_alpha   90.00000000
_cell_angle_beta   90.00000000
_cell_angle_gamma   120.00001143
_symmetry_Int_Tables_number   1
_chemical_formula_structural   Sr2GaSiI
_chemical_formula_sum   'Sr4 Ga2 Si2 I2'
_cell_volume   298.15134292
_cell_formula_units_Z   2
loop_
 _symmetry_equiv_pos_site_id
 _symmetry_equiv_pos_as_xyz
  1  'x, y, z'
loop_
 _atom_site_type_symbol
 _atom_site_label
 _atom_site_symmetry_multiplicity
 _atom_site_fract_x
 _atom_site_fract_y
 _atom_site_fract_z
 _atom_site_occupancy
  Sr  Sr0  1  0.00000000  0.00000000  0.38042520  1
  Sr  Sr1  1  0.00000000  0.00000000  0.88042520  1
  Sr  Sr2  1  0.00000000  0.00000000  0.61848873  1
  Sr  Sr3  1  0.00000000  0.00000000  0.11848873  1
  Ga  Ga0  1  0.33333300  0.66666700  0.52054816  1
  Ga  Ga1  1  0.66666700  0.33333300  0.02054816  1
  Si  Si0  1  0.66666700  0.33333300  0.47979302  1
  Si  Si1  1  0.33333300  0.66666700  0.97979302  1
  I  I0  1  0.33333300  0.66666700  0.25074490  1
  I  I1  1  0.66666700  0.33333300  0.75074490  1
loop_
_geom_bond_atom_site_label_1
_geom_bond_atom_site_label_2
_geom_bond_distance
_geom_bond_site_symmetry_2
Ga0 Si0 2.588496 1_455
Ga0 Si0 2.588497 1_565
Ga0 Si0 2.588504 1_555
Ga0 Sr2 3.081116 1_565
Ga0 Sr2 3.081118 1_665
Ga0 Sr2 3.081119 1_555
Ga1 Si1 2.588496 1_654
Ga1 Si1 2.588497 1_544
Ga1 Si1 2.588504 1_554
Ga1 Sr3 3.081116 1_655
Ga1 Sr3 3.081118 1_555
Ga1 Sr3 3.081119 1_665
Si0 Sr0 3.097167 1_655
Si0 Sr0 3.097169 1_555
Si0 Sr0 3.097169 1_665
Si1 Sr1 3.097167 1_565
Si1 Sr1 3.097169 1_665
Si1 Sr1 3.097169 1_555
I0 Sr0 3.469490 1_565
I0 Sr0 3.469492 1_665
I0 Sr0 3.469492 1_555
I0 Sr3 3.503563 1_565
I0 Sr3 3.503565 1_665
I0 Sr3 3.503565 1_555
I1 Sr1 3.469490 1_655
I1 Sr1 3.469492 1_555
I1 Sr1 3.469492 1_665
I1 Sr2 3.503563 1_655
I1 Sr2 3.503565 1_555
I1 Sr2 3.503565 1_665
