# generated using pymatgen
data_K3Cd2SbO6
_symmetry_space_group_name_H-M   'P 1'
_cell_length_a   5.80158701
_cell_length_b   6.35854414
_cell_length_c   5.80153440
_cell_angle_alpha   81.25897774
_cell_angle_beta   119.93267643
_cell_angle_gamma   81.25948029
_symmetry_Int_Tables_number   1
_chemical_formula_structural   K3Cd2SbO6
_chemical_formula_sum   'K3 Cd2 Sb1 O6'
_cell_volume   176.71400064
_cell_formula_units_Z   1
loop_
 _symmetry_equiv_pos_site_id
 _symmetry_equiv_pos_as_xyz
  1  'x, y, z'
loop_
 _atom_site_type_symbol
 _atom_site_label
 _atom_site_symmetry_multiplicity
 _atom_site_fract_x
 _atom_site_fract_y
 _atom_site_fract_z
 _atom_site_occupancy
  K  K0  1  0.50000668  0.49999475  0.50000628  1
  K  K1  1  0.82361672  0.49999349  0.17639169  1
  K  K2  1  0.17638048  0.50000701  0.82359281  1
  Cd  Cd0  1  0.33404381  0.00000760  0.66597271  1
  Cd  Cd1  1  0.66596811  0.00000967  0.33404039  1
  Sb  Sb0  1  0.99996654  0.00004056  0.99996833  1
  O  O0  1  0.22591556  0.18953387  0.22591793  1
  O  O1  1  0.77406435  0.81043598  0.77406649  1
  O  O2  1  0.35347596  0.81374919  0.06256956  1
  O  O3  1  0.06256776  0.81374807  0.35347868  1
  O  O4  1  0.93744373  0.18624012  0.64655022  1
  O  O5  1  0.64654929  0.18623968  0.93744493  1
loop_
_geom_bond_atom_site_label_1
_geom_bond_atom_site_label_2
_geom_bond_distance
_geom_bond_site_symmetry_2
K0 O5 2.633612 1_555
K0 O2 2.633620 1_555
K0 O4 2.633631 1_555
K0 O3 2.633659 1_555
K0 O1 2.887459 1_555
K0 O0 2.887701 1_555
K1 O5 2.645630 1_554
K1 O3 2.645674 1_655
K1 O1 2.680434 1_554
K1 O0 2.680486 1_655
K1 O2 2.829156 1_555
K1 O4 2.829182 1_555
K2 O4 2.645645 1_455
K2 O2 2.645681 1_556
K2 O1 2.680442 1_455
K2 O0 2.680592 1_556
K2 O3 2.828980 1_555
K2 O5 2.829254 1_555
Cd0 O5 2.353617 1_555
Cd0 O3 2.353715 1_545
Cd0 O2 2.362559 1_546
Cd0 O4 2.362576 1_455
Cd0 O0 2.366528 1_555
Cd0 O1 2.366544 1_545
Cd1 O4 2.353627 1_555
Cd1 O2 2.353705 1_545
Cd1 O5 2.362529 1_554
Cd1 O3 2.362590 1_645
Cd1 O1 2.366541 1_545
Cd1 O0 2.366555 1_555
O0 Sb0 2.033155 1_454
O1 Sb0 2.033486 1_565
O2 Sb0 2.031959 1_464
O3 Sb0 2.031941 1_464
O4 Sb0 2.031447 1_555
O5 Sb0 2.031465 1_555
