# generated using pymatgen
data_CsLuMnTe3
_symmetry_space_group_name_H-M   'P 1'
_cell_length_a   8.84869942
_cell_length_b   8.84869936
_cell_length_c   11.62043766
_cell_angle_alpha   90.00000000
_cell_angle_beta   90.00000000
_cell_angle_gamma   150.92586309
_symmetry_Int_Tables_number   1
_chemical_formula_structural   CsLuMnTe3
_chemical_formula_sum   'Cs2 Lu2 Mn2 Te6'
_cell_volume   442.14511741
_cell_formula_units_Z   2
loop_
 _symmetry_equiv_pos_site_id
 _symmetry_equiv_pos_as_xyz
  1  'x, y, z'
loop_
 _atom_site_type_symbol
 _atom_site_label
 _atom_site_symmetry_multiplicity
 _atom_site_fract_x
 _atom_site_fract_y
 _atom_site_fract_z
 _atom_site_occupancy
  Cs  Cs0  1  0.24663067  0.75336933  0.25000000  1
  Cs  Cs1  1  0.75336933  0.24663067  0.75000000  1
  Lu  Lu0  1  0.50000000  0.50000000  0.00000000  1
  Lu  Lu1  1  0.50000000  0.50000000  0.50000000  1
  Mn  Mn0  1  0.96461987  0.03537913  0.25000000  1
  Mn  Mn1  1  0.03537913  0.96461987  0.75000000  1
  Te  Te0  1  0.88291923  0.11708077  0.05148955  1
  Te  Te1  1  0.56031618  0.43968382  0.25000000  1
  Te  Te2  1  0.88291923  0.11708077  0.44851045  1
  Te  Te3  1  0.11708077  0.88291923  0.55149055  1
  Te  Te4  1  0.43968382  0.56031618  0.75000000  1
  Te  Te5  1  0.11708077  0.88291923  0.94850945  1
loop_
_geom_bond_atom_site_label_1
_geom_bond_atom_site_label_2
_geom_bond_distance
_geom_bond_site_symmetry_2
Cs0 Te1 3.888480 1_565
Cs0 Te1 3.888480 1_455
Cs0 Te2 3.963005 1_455
Cs0 Te0 3.963005 1_455
Cs0 Te2 3.963005 1_565
Cs0 Te0 3.963005 1_565
Cs0 Te3 4.147222 1_555
Cs0 Te5 4.147222 1_554
Cs1 Te4 3.888480 1_545
Cs1 Te4 3.888480 1_655
Cs1 Te5 3.962998 1_655
Cs1 Te3 3.962998 1_655
Cs1 Te5 3.962998 1_545
Cs1 Te3 3.962998 1_545
Cs1 Te0 4.147213 1_556
Cs1 Te2 4.147213 1_555
Lu0 Te0 3.051882 1_565
Lu0 Te0 3.051882 1_455
Lu0 Te5 3.051885 1_544
Lu0 Te5 3.051885 1_654
Lu0 Te4 3.083391 1_554
Lu0 Te1 3.083391 1_555
Lu1 Te2 3.051882 1_565
Lu1 Te2 3.051882 1_455
Lu1 Te3 3.051885 1_545
Lu1 Te3 3.051885 1_655
Lu1 Te4 3.083391 1_555
Lu1 Te1 3.083391 1_555
Mn0 Te2 2.698171 1_555
Mn0 Te0 2.698171 1_555
Mn0 Te1 2.760552 1_545
Mn0 Te1 2.760555 1_655
Mn1 Te5 2.698161 1_555
Mn1 Te3 2.698161 1_555
Mn1 Te4 2.760552 1_455
Mn1 Te4 2.760555 1_565
