# generated using pymatgen
data_Ba4Fe2CoO10
_symmetry_space_group_name_H-M   'P 1'
_cell_length_a   7.11843607
_cell_length_b   7.11843623
_cell_length_c   12.79187588
_cell_angle_alpha   90.00000000
_cell_angle_beta   90.00000000
_cell_angle_gamma   132.72084678
_symmetry_Int_Tables_number   1
_chemical_formula_structural   Ba4Fe2CoO10
_chemical_formula_sum   'Ba8 Fe4 Co2 O20'
_cell_volume   476.20552630
_cell_formula_units_Z   2
loop_
 _symmetry_equiv_pos_site_id
 _symmetry_equiv_pos_as_xyz
  1  'x, y, z'
loop_
 _atom_site_type_symbol
 _atom_site_label
 _atom_site_symmetry_multiplicity
 _atom_site_fract_x
 _atom_site_fract_y
 _atom_site_fract_z
 _atom_site_occupancy
  Ba  Ba0  1  0.24183536  0.75816464  0.89117556  1
  Ba  Ba1  1  0.75816464  0.24183536  0.10882444  1
  Ba  Ba2  1  0.25816464  0.74183536  0.39117556  1
  Ba  Ba3  1  0.74183536  0.25816464  0.60882444  1
  Ba  Ba4  1  0.03549499  0.96450501  0.63834090  1
  Ba  Ba5  1  0.96450501  0.03549499  0.36165910  1
  Ba  Ba6  1  0.46450501  0.53549499  0.13834090  1
  Ba  Ba7  1  0.53549499  0.46450501  0.86165910  1
  Fe  Fe0  1  0.37720759  0.62279241  0.65112851  1
  Fe  Fe1  1  0.62279241  0.37720759  0.34887149  1
  Fe  Fe2  1  0.12279241  0.87720759  0.15112851  1
  Fe  Fe3  1  0.87720759  0.12279241  0.84887149  1
  Co  Co0  1  0.50000000  0.50000000  0.50000000  1
  Co  Co1  1  0.00000000  0.00000000  0.00000000  1
  O  O0  1  0.13152406  0.36847594  0.75000000  1
  O  O1  1  0.36847594  0.13152406  0.25000000  1
  O  O2  1  0.86847594  0.63152406  0.25000000  1
  O  O3  1  0.63152406  0.86847594  0.75000000  1
  O  O4  1  0.38299655  0.17588507  0.46454541  1
  O  O5  1  0.17588507  0.38299655  0.53545459  1
  O  O6  1  0.11700345  0.32411493  0.96454541  1
  O  O7  1  0.32411493  0.11700345  0.03545459  1
  O  O8  1  0.61700345  0.82411493  0.53545459  1
  O  O9  1  0.82411493  0.61700345  0.46454541  1
  O  O10  1  0.88299655  0.67588507  0.03545459  1
  O  O11  1  0.67588507  0.88299655  0.96454541  1
  O  O12  1  0.24105167  0.75894833  0.64712418  1
  O  O13  1  0.75894833  0.24105167  0.35287582  1
  O  O14  1  0.97198924  0.02801076  0.14668541  1
  O  O15  1  0.02801076  0.97198924  0.85331459  1
  O  O16  1  0.52801076  0.47198924  0.64668541  1
  O  O17  1  0.47198924  0.52801076  0.35331459  1
  O  O18  1  0.74105167  0.25894833  0.85287582  1
  O  O19  1  0.25894833  0.74105167  0.14712418  1
loop_
_geom_bond_atom_site_label_1
_geom_bond_atom_site_label_2
_geom_bond_distance
_geom_bond_site_symmetry_2
Ba0 O11 2.737099 1_555
Ba0 O6 2.737099 1_555
Ba0 O15 2.830485 1_555
Ba0 O10 2.871255 1_456
Ba0 O7 2.871255 1_566
Ba0 O18 2.896123 1_455
Ba0 O18 2.896123 1_565
Ba0 O3 2.935516 1_555
Ba0 O0 2.935516 1_555
Ba0 O12 3.121892 1_555
Ba0 O19 3.281662 1_556
Ba1 O7 2.737099 1_555
Ba1 O10 2.737099 1_555
Ba1 O14 2.830485 1_555
Ba1 O6 2.871255 1_654
Ba1 O11 2.871255 1_544
Ba1 O19 2.896123 1_655
Ba1 O19 2.896123 1_545
Ba1 O1 2.935516 1_555
Ba1 O2 2.935516 1_555
Ba1 O13 3.121892 1_555
Ba1 O18 3.281662 1_554
Ba2 O9 2.737099 1_455
Ba2 O4 2.737099 1_565
Ba2 O17 2.830485 1_555
Ba2 O8 2.871255 1_555
Ba2 O5 2.871255 1_555
Ba2 O13 2.896123 1_565
Ba2 O13 2.896123 1_455
Ba2 O2 2.935516 1_455
Ba2 O1 2.935516 1_565
Ba2 O19 3.121892 1_555
Ba2 O12 3.281662 1_555
Ba3 O5 2.737099 1_655
Ba3 O8 2.737099 1_545
Ba3 O16 2.830485 1_555
Ba3 O4 2.871255 1_555
Ba3 O9 2.871255 1_555
Ba3 O12 2.896123 1_545
Ba3 O12 2.896123 1_655
Ba3 O0 2.935516 1_655
Ba3 O3 2.935516 1_545
Ba3 O18 3.121892 1_555
Ba3 O13 3.281662 1_555
Ba4 O12 2.683264 1_555
Ba4 O8 2.750609 1_455
Ba4 O5 2.750609 1_565
Ba4 O15 2.751648 1_555
Ba4 O3 2.847721 1_455
Ba4 O0 2.847721 1_565
Ba4 O16 2.858027 1_455
Ba4 O16 2.858027 1_565
Ba4 O4 2.876675 1_565
Ba4 O9 2.876675 1_455
Ba5 O13 2.683264 1_555
Ba5 O4 2.750609 1_655
Ba5 O9 2.750609 1_545
Ba5 O14 2.751648 1_555
Ba5 O1 2.847721 1_655
Ba5 O2 2.847721 1_545
Ba5 O17 2.858027 1_655
Ba5 O17 2.858027 1_545
Ba5 O8 2.876675 1_545
Ba5 O5 2.876675 1_655
Ba6 O19 2.683264 1_555
Ba6 O10 2.750609 1_555
Ba6 O7 2.750609 1_555
Ba6 O17 2.751648 1_555
Ba6 O2 2.847721 1_555
Ba6 O1 2.847721 1_555
Ba6 O14 2.858027 1_565
Ba6 O14 2.858027 1_455
Ba6 O6 2.876675 1_554
Ba6 O11 2.876675 1_554
Ba7 O18 2.683264 1_555
Ba7 O6 2.750609 1_555
Ba7 O11 2.750609 1_555
Ba7 O16 2.751648 1_555
Ba7 O0 2.847721 1_555
Ba7 O3 2.847721 1_555
Ba7 O15 2.858027 1_545
Ba7 O15 2.858027 1_655
Ba7 O10 2.876675 1_556
Ba7 O7 2.876675 1_556
Fe0 O12 1.776511 1_555
Fe0 O3 1.907778 1_555
Fe0 O0 1.907778 1_555
Fe0 O8 1.959026 1_555
Fe0 O5 1.959026 1_555
Fe0 O16 1.967626 1_555
Fe1 O13 1.776511 1_555
Fe1 O1 1.907778 1_555
Fe1 O2 1.907778 1_555
Fe1 O4 1.959026 1_555
Fe1 O9 1.959026 1_555
Fe1 O17 1.967626 1_555
Fe2 O19 1.776511 1_555
Fe2 O2 1.907778 1_455
Fe2 O1 1.907778 1_565
Fe2 O10 1.959026 1_455
Fe2 O7 1.959026 1_565
Fe2 O14 1.967626 1_465
Fe3 O18 1.776511 1_555
Fe3 O0 1.907778 1_655
Fe3 O3 1.907778 1_545
Fe3 O6 1.959026 1_655
Fe3 O11 1.959026 1_545
Fe3 O15 1.967626 1_645
Co0 O5 1.901357 1_555
Co0 O9 1.901357 1_555
Co0 O8 1.901357 1_555
Co0 O4 1.901357 1_555
Co0 O16 1.911614 1_555
Co0 O17 1.911614 1_555
Co1 O7 1.901357 1_555
Co1 O11 1.901357 1_444
Co1 O6 1.901357 1_554
Co1 O10 1.901357 1_445
Co1 O14 1.911614 1_455
Co1 O15 1.911614 1_544
