# generated using pymatgen
data_Zr6CoBr15
_symmetry_space_group_name_H-M   'P 1'
_cell_length_a   9.33169960
_cell_length_b   9.33169939
_cell_length_c   9.33169980
_cell_angle_alpha   109.47122361
_cell_angle_beta   109.47122314
_cell_angle_gamma   109.47121859
_symmetry_Int_Tables_number   1
_chemical_formula_structural   Zr6CoBr15
_chemical_formula_sum   'Zr6 Co1 Br15'
_cell_volume   625.54756752
_cell_formula_units_Z   1
loop_
 _symmetry_equiv_pos_site_id
 _symmetry_equiv_pos_as_xyz
  1  'x, y, z'
loop_
 _atom_site_type_symbol
 _atom_site_label
 _atom_site_symmetry_multiplicity
 _atom_site_fract_x
 _atom_site_fract_y
 _atom_site_fract_z
 _atom_site_occupancy
  Zr  Zr0  1  0.76894365  0.76894365  0.00000000  1
  Zr  Zr1  1  0.23105635  1.00000000  0.23105635  1
  Zr  Zr2  1  0.76894365  0.00000000  0.76894365  1
  Zr  Zr3  1  0.00000000  0.76894365  0.76894365  1
  Zr  Zr4  1  1.00000000  0.23105635  0.23105635  1
  Zr  Zr5  1  0.23105635  0.23105635  1.00000000  1
  Co  Co0  1  0.00000000  0.00000000  0.00000000  1
  Br  Br0  1  0.50000000  0.00000000  0.50000000  1
  Br  Br1  1  0.00000000  0.50000000  0.50000000  1
  Br  Br2  1  0.50000000  0.50000000  0.00000000  1
  Br  Br3  1  0.50294985  0.75147442  0.75147442  1
  Br  Br4  1  0.75147442  1.00000000  0.24852558  1
  Br  Br5  1  0.49705015  0.24852558  0.24852558  1
  Br  Br6  1  0.24852558  0.24852558  0.49705015  1
  Br  Br7  1  0.24852558  0.75147442  0.00000000  1
  Br  Br8  1  0.00000000  0.24852558  0.75147442  1
  Br  Br9  1  1.00000000  0.75147442  0.24852558  1
  Br  Br10  1  0.24852558  0.00000000  0.75147442  1
  Br  Br11  1  0.24852558  0.49705015  0.24852558  1
  Br  Br12  1  0.75147442  0.24852558  1.00000000  1
  Br  Br13  1  0.75147442  0.50294985  0.75147442  1
  Br  Br14  1  0.75147442  0.75147442  0.50294985  1
loop_
_geom_bond_atom_site_label_1
_geom_bond_atom_site_label_2
_geom_bond_distance
_geom_bond_site_symmetry_2
Co0 Zr4 2.489706 1_455
Co0 Zr3 2.489706 1_544
Co0 Zr1 2.489706 1_545
Co0 Zr2 2.489706 1_454
Co0 Zr5 2.489706 1_554
Co0 Zr0 2.489706 1_445
Br0 Zr2 2.897953 1_555
Br0 Zr1 2.897953 1_545
Br1 Zr3 2.897953 1_555
Br1 Zr4 2.897953 1_455
Br2 Zr0 2.897954 1_555
Br2 Zr5 2.897954 1_554
Br3 Zr0 2.684544 1_556
Br3 Zr2 2.684544 1_565
Br4 Zr0 2.684550 1_555
Br4 Zr4 2.684550 1_565
Br5 Zr5 2.684544 1_554
Br5 Zr1 2.684544 1_545
Br6 Zr1 2.684544 1_545
Br6 Zr4 2.684544 1_455
Br7 Zr1 2.684550 1_555
Br7 Zr3 2.684550 1_554
Br8 Zr5 2.684550 1_555
Br8 Zr2 2.684550 1_455
Br9 Zr0 2.684550 1_555
Br9 Zr1 2.684550 1_655
Br10 Zr5 2.684550 1_555
Br10 Zr3 2.684550 1_545
Br11 Zr5 2.684544 1_554
Br11 Zr4 2.684544 1_455
Br12 Zr2 2.684550 1_555
Br12 Zr4 2.684550 1_556
Br13 Zr0 2.684544 1_556
Br13 Zr3 2.684544 1_655
Br14 Zr2 2.684544 1_565
Br14 Zr3 2.684544 1_655
