# generated using pymatgen
data_Ca4P7Ir8
_symmetry_space_group_name_H-M   'P 1'
_cell_length_a   3.95751855
_cell_length_b   12.55886787
_cell_length_c   13.09246942
_cell_angle_alpha   81.07919522
_cell_angle_beta   90.00000000
_cell_angle_gamma   90.00000000
_symmetry_Int_Tables_number   1
_chemical_formula_structural   Ca4P7Ir8
_chemical_formula_sum   'Ca8 P14 Ir16'
_cell_volume   642.84992436
_cell_formula_units_Z   2
loop_
 _symmetry_equiv_pos_site_id
 _symmetry_equiv_pos_as_xyz
  1  'x, y, z'
loop_
 _atom_site_type_symbol
 _atom_site_label
 _atom_site_symmetry_multiplicity
 _atom_site_fract_x
 _atom_site_fract_y
 _atom_site_fract_z
 _atom_site_occupancy
  Ca  Ca0  1  0.75000000  0.78578487  0.56563108  1
  Ca  Ca1  1  0.25000000  0.21421513  0.43436892  1
  Ca  Ca2  1  0.75000000  0.48553804  0.70874136  1
  Ca  Ca3  1  0.25000000  0.51446196  0.29125864  1
  Ca  Ca4  1  0.75000000  0.71649989  0.89426427  1
  Ca  Ca5  1  0.25000000  0.10340966  0.79234799  1
  Ca  Ca6  1  0.75000000  0.89659034  0.20765201  1
  Ca  Ca7  1  0.25000000  0.28350011  0.10573573  1
  P  P0  1  0.25000000  0.90910506  0.41225749  1
  P  P1  1  0.75000000  0.47142342  0.12814214  1
  P  P2  1  0.25000000  0.52857658  0.87185786  1
  P  P3  1  0.75000000  0.09089494  0.58774251  1
  P  P4  1  0.25000000  0.74137477  0.07965565  1
  P  P5  1  0.75000000  0.25862523  0.92034435  1
  P  P6  1  0.75000000  0.15497987  0.28093729  1
  P  P7  1  0.25000000  0.84502013  0.71906271  1
  P  P8  1  0.25000000  0.05619237  0.09897867  1
  P  P9  1  0.75000000  0.94380763  0.90102133  1
  P  P10  1  0.25000000  0.30978928  0.68794340  1
  P  P11  1  0.75000000  0.69021072  0.31205660  1
  P  P12  1  0.25000000  0.61028921  0.56204703  1
  P  P13  1  0.75000000  0.38971079  0.43795297  1
  Ir  Ir0  1  0.25000000  0.98580500  0.57500730  1
  Ir  Ir1  1  0.75000000  0.01419500  0.42499270  1
  Ir  Ir2  1  0.25000000  0.66315869  0.72690805  1
  Ir  Ir3  1  0.75000000  0.33684131  0.27309195  1
  Ir  Ir4  1  0.25000000  0.55395757  0.04850521  1
  Ir  Ir5  1  0.75000000  0.44604243  0.95149479  1
  Ir  Ir6  1  0.25000000  0.06143599  0.27354849  1
  Ir  Ir7  1  0.75000000  0.93856401  0.72645151  1
  Ir  Ir8  1  0.25000000  0.42317296  0.52765704  1
  Ir  Ir9  1  0.75000000  0.57682704  0.47234296  1
  Ir  Ir10  1  0.25000000  0.91680800  0.99878831  1
  Ir  Ir11  1  0.75000000  0.08319200  0.00121169  1
  Ir  Ir12  1  0.25000000  0.72903878  0.39565989  1
  Ir  Ir13  1  0.75000000  0.27096122  0.60434011  1
  Ir  Ir14  1  0.25000000  0.33895097  0.85785999  1
  Ir  Ir15  1  0.75000000  0.66104903  0.14214001  1
loop_
_geom_bond_atom_site_label_1
_geom_bond_atom_site_label_2
_geom_bond_distance
_geom_bond_site_symmetry_2
Ca0 P12 2.967743 1_655
Ca0 P12 2.967743 1_555
Ca0 P7 2.994605 1_555
Ca0 P7 2.994605 1_655
Ca0 Ir7 3.060681 1_555
Ca0 Ir9 3.061474 1_555
Ca0 P0 3.062981 1_555
Ca0 P0 3.062981 1_655
Ca0 Ir2 3.120449 1_555
Ca0 Ir2 3.120449 1_655
Ca0 Ir12 3.141240 1_555
Ca0 Ir12 3.141240 1_655
Ca0 Ir1 3.159270 1_565
Ca0 Ir0 3.215038 1_555
Ca0 Ir0 3.215038 1_655
Ca1 P13 2.967743 1_555
Ca1 P13 2.967743 1_455
Ca1 P6 2.994605 1_455
Ca1 P6 2.994605 1_555
Ca1 Ir6 3.060681 1_555
Ca1 Ir8 3.061474 1_555
Ca1 P3 3.062981 1_455
Ca1 P3 3.062981 1_555
Ca1 Ir3 3.120449 1_455
Ca1 Ir3 3.120449 1_555
Ca1 Ir13 3.141240 1_555
Ca1 Ir13 3.141240 1_455
Ca1 Ir0 3.159270 1_545
Ca1 Ir1 3.215038 1_455
Ca1 Ir1 3.215038 1_555
Ca2 P10 3.007954 1_555
Ca2 P10 3.007954 1_655
Ca2 Ir2 3.018724 1_555
Ca2 Ir2 3.018724 1_655
Ca2 P12 3.020859 1_655
Ca2 P12 3.020859 1_555
Ca2 P2 3.020997 1_655
Ca2 P2 3.020997 1_555
Ca2 Ir9 3.129408 1_555
Ca2 Ir5 3.139798 1_555
Ca2 Ir14 3.162523 1_555
Ca2 Ir14 3.162523 1_655
Ca2 Ir13 3.205137 1_555
Ca2 Ir8 3.275017 1_655
Ca2 Ir8 3.275017 1_555
Ca3 P11 3.007954 1_455
Ca3 P11 3.007954 1_555
Ca3 Ir3 3.018724 1_455
Ca3 Ir3 3.018724 1_555
Ca3 P13 3.020859 1_555
Ca3 P13 3.020859 1_455
Ca3 P1 3.020997 1_555
Ca3 P1 3.020997 1_455
Ca3 Ir8 3.129408 1_555
Ca3 Ir4 3.139798 1_555
Ca3 Ir15 3.162523 1_455
Ca3 Ir15 3.162523 1_555
Ca3 Ir12 3.205137 1_555
Ca3 Ir9 3.275017 1_555
Ca3 Ir9 3.275017 1_455
Ca4 P9 2.869777 1_555
Ca4 Ir2 3.101683 1_655
Ca4 Ir2 3.101683 1_555
Ca4 P2 3.128316 1_655
Ca4 P2 3.128316 1_555
Ca4 P4 3.184290 1_656
Ca4 P4 3.184290 1_556
Ca4 Ir15 3.211862 1_556
Ca4 P7 3.260992 1_555
Ca4 P7 3.260992 1_655
Ca4 Ir7 3.271797 1_555
Ca4 Ir4 3.298797 1_556
Ca4 Ir4 3.298797 1_656
Ca4 Ir5 3.362926 1_555
Ca5 P10 2.736345 1_555
Ca5 P9 3.012155 1_545
Ca5 P9 3.012155 1_445
Ca5 Ir7 3.082175 1_445
Ca5 Ir7 3.082175 1_545
Ca5 Ir14 3.205169 1_555
Ca5 P3 3.353608 1_455
Ca5 P3 3.353608 1_555
Ca5 P5 3.396582 1_555
Ca5 P5 3.396582 1_455
Ca5 Ir0 3.403225 1_545
Ca6 P11 2.736345 1_555
Ca6 P8 3.012155 1_565
Ca6 P8 3.012155 1_665
Ca6 Ir6 3.082175 1_565
Ca6 Ir6 3.082175 1_665
Ca6 Ir15 3.205169 1_555
Ca6 P0 3.353608 1_655
Ca6 P0 3.353608 1_555
Ca6 P4 3.396582 1_655
Ca6 P4 3.396582 1_555
Ca6 Ir1 3.403225 1_565
Ca7 P8 2.869777 1_555
Ca7 Ir3 3.101683 1_455
Ca7 Ir3 3.101683 1_555
Ca7 P1 3.128316 1_455
Ca7 P1 3.128316 1_555
Ca7 P5 3.184290 1_554
Ca7 P5 3.184290 1_454
Ca7 Ir14 3.211862 1_554
Ca7 P6 3.260992 1_455
Ca7 P6 3.260992 1_555
Ca7 Ir6 3.271797 1_555
Ca7 Ir5 3.298797 1_454
Ca7 Ir5 3.298797 1_554
Ca7 Ir4 3.362926 1_555
Ir0 P7 2.376784 1_555
Ir0 P3 2.398633 1_565
Ir0 P3 2.398633 1_465
Ir0 P0 2.470777 1_555
Ir0 Ir1 2.771817 1_565
Ir0 Ir1 2.771817 1_465
Ir0 Ir7 2.798939 1_455
Ir0 Ir7 2.798939 1_555
Ir1 P6 2.376784 1_555
Ir1 P0 2.398633 1_645
Ir1 P0 2.398633 1_545
Ir1 P3 2.470777 1_555
Ir1 Ir6 2.798939 1_655
Ir1 Ir6 2.798939 1_555
Ir2 P7 2.270315 1_555
Ir2 P2 2.337400 1_555
Ir2 P12 2.354613 1_555
Ir3 P6 2.270315 1_555
Ir3 P1 2.337400 1_555
Ir3 P13 2.354613 1_555
Ir4 P2 2.383076 1_554
Ir4 P1 2.396210 1_555
Ir4 P1 2.396210 1_455
Ir4 P4 2.450342 1_555
Ir4 Ir5 2.810576 1_454
Ir4 Ir5 2.810576 1_554
Ir5 P1 2.383076 1_556
Ir5 P2 2.396210 1_555
Ir5 P2 2.396210 1_655
Ir5 P5 2.450342 1_555
Ir6 P8 2.296684 1_555
Ir6 P6 2.310900 1_555
Ir6 P6 2.310900 1_455
Ir6 P0 2.424969 1_545
Ir7 P9 2.296684 1_555
Ir7 P7 2.310900 1_555
Ir7 P7 2.310900 1_655
Ir7 P3 2.424969 1_565
Ir8 P10 2.346232 1_555
Ir8 P13 2.371602 1_555
Ir8 P13 2.371602 1_455
Ir8 P12 2.460330 1_555
Ir8 Ir9 2.780352 1_555
Ir8 Ir9 2.780352 1_455
Ir9 P11 2.346232 1_555
Ir9 P12 2.371602 1_555
Ir9 P12 2.371602 1_655
Ir9 P13 2.460330 1_555
Ir10 P4 2.291676 1_556
Ir10 P8 2.344587 1_566
Ir10 P9 2.352506 1_455
Ir10 P9 2.352506 1_555
Ir11 P5 2.291676 1_554
Ir11 P9 2.344587 1_544
Ir11 P8 2.352506 1_555
Ir11 P8 2.352506 1_655
Ir12 P0 2.305144 1_555
Ir12 P11 2.348810 1_455
Ir12 P11 2.348810 1_555
Ir12 P12 2.441738 1_555
Ir12 Ir9 2.825327 1_555
Ir12 Ir9 2.825327 1_455
Ir13 P3 2.305144 1_555
Ir13 P10 2.348810 1_555
Ir13 P10 2.348810 1_655
Ir13 P13 2.441738 1_555
Ir13 Ir8 2.825327 1_555
Ir13 Ir8 2.825327 1_655
Ir14 P10 2.309931 1_555
Ir14 P5 2.312242 1_555
Ir14 P5 2.312242 1_455
Ir14 P2 2.416693 1_555
Ir14 Ir5 2.781830 1_455
Ir14 Ir5 2.781830 1_555
Ir15 P11 2.309931 1_555
Ir15 P4 2.312242 1_555
Ir15 P4 2.312242 1_655
Ir15 P1 2.416693 1_555
Ir15 Ir4 2.781830 1_655
Ir15 Ir4 2.781830 1_555
