# generated using pymatgen
data_YFeCoSi2
_symmetry_space_group_name_H-M   'P 1'
_cell_length_a   5.50957113
_cell_length_b   5.50957112
_cell_length_c   5.50957028
_cell_angle_alpha   138.44186985
_cell_angle_beta   138.44187242
_cell_angle_gamma   60.22692501
_symmetry_Int_Tables_number   1
_chemical_formula_structural   YFeCoSi2
_chemical_formula_sum   'Y1 Fe1 Co1 Si2'
_cell_volume   72.83307978
_cell_formula_units_Z   1
loop_
 _symmetry_equiv_pos_site_id
 _symmetry_equiv_pos_as_xyz
  1  'x, y, z'
loop_
 _atom_site_type_symbol
 _atom_site_label
 _atom_site_symmetry_multiplicity
 _atom_site_fract_x
 _atom_site_fract_y
 _atom_site_fract_z
 _atom_site_occupancy
  Y  Y0  1  0.00000000  0.00000000  0.00000000  1
  Fe  Fe0  1  0.25000000  0.75000000  0.50000000  1
  Co  Co0  1  0.75000000  0.25000000  0.50000000  1
  Si  Si0  1  0.63347644  0.63347644  1.00000000  1
  Si  Si1  1  0.36652256  0.36652256  0.00000000  1
loop_
_geom_bond_atom_site_label_1
_geom_bond_atom_site_label_2
_geom_bond_distance
_geom_bond_site_symmetry_2
Fe0 Si1 2.248133 1_555
Fe0 Si1 2.248133 1_566
Fe0 Si0 2.248137 1_555
Fe0 Si0 2.248137 1_454
Fe0 Y0 3.082058 1_565
Fe0 Y0 3.082058 1_566
Fe0 Y0 3.082058 1_666
Fe0 Y0 3.082059 1_555
Co0 Si1 2.248132 1_555
Co0 Si1 2.248133 1_656
Co0 Si0 2.248137 1_555
Co0 Si0 2.248138 1_544
Co0 Fe0 2.764228 1_544
Co0 Fe0 2.764228 1_656
Co0 Fe0 2.764229 1_645
Co0 Fe0 2.764229 1_555
Co0 Y0 3.082058 1_656
Co0 Y0 3.082058 1_655
Co0 Y0 3.082058 1_555
Co0 Y0 3.082059 1_666
Si0 Si1 2.544585 1_556
Si0 Y0 3.042971 1_667
Si0 Y0 3.042972 1_555
Si0 Y0 3.042972 1_656
Si0 Y0 3.042972 1_566
Si1 Y0 3.042975 1_554
Si1 Y0 3.042976 1_666
Si1 Y0 3.042976 1_565
Si1 Y0 3.042976 1_655
