# generated using pymatgen
data_Ba3MgPtO6
_symmetry_space_group_name_H-M   'P 1'
_cell_length_a   7.01391226
_cell_length_b   7.01391327
_cell_length_c   7.01391203
_cell_angle_alpha   93.45761471
_cell_angle_beta   93.45761193
_cell_angle_gamma   93.45760829
_symmetry_Int_Tables_number   1
_chemical_formula_structural   Ba3MgPtO6
_chemical_formula_sum   'Ba6 Mg2 Pt2 O12'
_cell_volume   343.08535200
_cell_formula_units_Z   2
loop_
 _symmetry_equiv_pos_site_id
 _symmetry_equiv_pos_as_xyz
  1  'x, y, z'
loop_
 _atom_site_type_symbol
 _atom_site_label
 _atom_site_symmetry_multiplicity
 _atom_site_fract_x
 _atom_site_fract_y
 _atom_site_fract_z
 _atom_site_occupancy
  Ba  Ba0  1  0.61388464  0.25000000  0.88611536  1
  Ba  Ba1  1  0.88611536  0.61388464  0.25000000  1
  Ba  Ba2  1  0.75000000  0.11388464  0.38611536  1
  Ba  Ba3  1  0.38611536  0.75000000  0.11388464  1
  Ba  Ba4  1  0.11388464  0.38611536  0.75000000  1
  Ba  Ba5  1  0.25000000  0.88611536  0.61388464  1
  Mg  Mg0  1  0.25000000  0.25000000  0.25000000  1
  Mg  Mg1  1  0.75000000  0.75000000  0.75000000  1
  Pt  Pt0  1  0.00000000  0.00000000  0.00000000  1
  Pt  Pt1  1  0.50000000  0.50000000  0.50000000  1
  O  O0  1  0.59938917  0.77804154  0.47223421  1
  O  O1  1  0.47223421  0.59938917  0.77804154  1
  O  O2  1  0.77804154  0.47223421  0.59938917  1
  O  O3  1  0.90061083  0.02776579  0.72195846  1
  O  O4  1  0.72195846  0.90061083  0.02776579  1
  O  O5  1  0.02776579  0.72195846  0.90061083  1
  O  O6  1  0.40061083  0.22195846  0.52776579  1
  O  O7  1  0.52776579  0.40061083  0.22195846  1
  O  O8  1  0.22195846  0.52776579  0.40061083  1
  O  O9  1  0.09938917  0.97223421  0.27804154  1
  O  O10  1  0.97223421  0.27804154  0.09938917  1
  O  O11  1  0.27804154  0.09938917  0.97223421  1
loop_
_geom_bond_atom_site_label_1
_geom_bond_atom_site_label_2
_geom_bond_distance
_geom_bond_site_symmetry_2
Ba0 O7 2.641580 1_556
Ba0 O11 2.641580 1_555
Ba0 O1 2.827358 1_555
Ba0 O4 2.827358 1_546
Ba0 O6 2.836383 1_555
Ba0 O10 2.836383 1_556
Ba0 O3 2.870656 1_555
Ba0 O2 2.870657 1_555
Ba1 O8 2.641580 1_655
Ba1 O10 2.641580 1_555
Ba1 O5 2.827357 1_654
Ba1 O2 2.827357 1_555
Ba1 O7 2.836384 1_555
Ba1 O9 2.836384 1_655
Ba1 O0 2.870656 1_555
Ba1 O4 2.870657 1_555
Ba2 O3 2.641580 1_555
Ba2 O0 2.641580 1_545
Ba2 O6 2.827357 1_555
Ba2 O9 2.827357 1_645
Ba2 O4 2.836383 1_545
Ba2 O2 2.836384 1_555
Ba2 O10 2.870656 1_555
Ba2 O7 2.870657 1_555
Ba3 O1 2.641580 1_554
Ba3 O4 2.641580 1_555
Ba3 O7 2.827358 1_555
Ba3 O11 2.827358 1_564
Ba3 O0 2.836383 1_555
Ba3 O5 2.836383 1_554
Ba3 O9 2.870656 1_555
Ba3 O8 2.870657 1_555
Ba4 O2 2.641580 1_455
Ba4 O5 2.641580 1_555
Ba4 O10 2.827357 1_456
Ba4 O8 2.827357 1_555
Ba4 O1 2.836384 1_555
Ba4 O3 2.836384 1_455
Ba4 O6 2.870656 1_555
Ba4 O11 2.870657 1_555
Ba5 O9 2.641580 1_555
Ba5 O6 2.641580 1_565
Ba5 O0 2.827357 1_555
Ba5 O3 2.827357 1_465
Ba5 O11 2.836383 1_565
Ba5 O8 2.836384 1_555
Ba5 O5 2.870656 1_555
Ba5 O1 2.870657 1_555
Mg0 O6 2.184770 1_555
Mg0 O11 2.184770 1_554
Mg0 O10 2.184770 1_455
Mg0 O7 2.184770 1_555
Mg0 O8 2.184770 1_555
Mg0 O9 2.184771 1_545
Mg1 O0 2.184770 1_555
Mg1 O4 2.184770 1_556
Mg1 O5 2.184770 1_655
Mg1 O1 2.184770 1_555
Mg1 O2 2.184770 1_555
Mg1 O3 2.184771 1_565
O0 Pt1 2.055532 1_555
O1 Pt1 2.055532 1_555
O2 Pt1 2.055532 1_555
O3 Pt0 2.055532 1_656
O4 Pt0 2.055532 1_665
O5 Pt0 2.055532 1_566
O6 Pt1 2.055532 1_555
O7 Pt1 2.055532 1_555
O8 Pt1 2.055532 1_555
O9 Pt0 2.055532 1_565
O10 Pt0 2.055532 1_655
O11 Pt0 2.055532 1_556
