# generated using pymatgen
data_HgP4(RhO7)2
_symmetry_space_group_name_H-M   'P 1'
_cell_length_a   4.82202096
_cell_length_b   6.82563846
_cell_length_c   7.98912308
_cell_angle_alpha   90.79146853
_cell_angle_beta   92.18610470
_cell_angle_gamma   105.16440774
_symmetry_Int_Tables_number   1
_chemical_formula_structural   HgP4(RhO7)2
_chemical_formula_sum   'Hg1 P4 Rh2 O14'
_cell_volume   253.53099409
_cell_formula_units_Z   1
loop_
 _symmetry_equiv_pos_site_id
 _symmetry_equiv_pos_as_xyz
  1  'x, y, z'
loop_
 _atom_site_type_symbol
 _atom_site_label
 _atom_site_symmetry_multiplicity
 _atom_site_fract_x
 _atom_site_fract_y
 _atom_site_fract_z
 _atom_site_occupancy
  Hg  Hg0  1  0.00000000  0.00000000  0.50000000  1
  P  P0  1  0.01667664  0.62744623  0.25245287  1
  P  P1  1  0.98332336  0.37255377  0.74754713  1
  P  P2  1  0.61048401  0.23483722  0.19595718  1
  P  P3  1  0.38951599  0.76516278  0.80404282  1
  Rh  Rh0  1  0.50000000  0.50000000  0.50000000  1
  Rh  Rh1  1  0.00000000  0.00000000  0.00000000  1
  O  O0  1  0.78100899  0.46297656  0.14951870  1
  O  O1  1  0.21899101  0.53702344  0.85048130  1
  O  O2  1  0.52625741  0.24120559  0.38062543  1
  O  O3  1  0.47374259  0.75879441  0.61937457  1
  O  O4  1  0.24273814  0.52670936  0.30776957  1
  O  O5  1  0.75726186  0.47329064  0.69223043  1
  O  O6  1  0.84928406  0.69121538  0.40126858  1
  O  O7  1  0.18031840  0.89972595  0.80109605  1
  O  O8  1  0.81968160  0.10027405  0.19890395  1
  O  O9  1  0.86448917  0.18954441  0.84829236  1
  O  O10  1  0.13551083  0.81045559  0.15170764  1
  O  O11  1  0.62294162  0.80458860  0.93749396  1
  O  O12  1  0.37705838  0.19541140  0.06250604  1
  O  O13  1  0.15071594  0.30878462  0.59873142  1
loop_
_geom_bond_atom_site_label_1
_geom_bond_atom_site_label_2
_geom_bond_distance
_geom_bond_site_symmetry_2
Hg0 O13 2.168294 1_555
Hg0 O6 2.168294 1_445
O0 P0 1.569611 1_655
O0 P2 1.614922 1_555
O1 P1 1.569611 1_455
O1 P3 1.614922 1_555
O2 P2 1.548108 1_555
O2 Rh0 2.031146 1_555
O3 P3 1.548108 1_555
O3 Rh0 2.031146 1_555
O4 P0 1.490009 1_555
O4 Rh0 1.977721 1_555
O5 P1 1.490009 1_555
O5 Rh0 1.977721 1_555
O6 P0 1.580255 1_655
O6 Rh0 2.035207 1_555
O7 P3 1.531427 1_555
O7 Rh1 2.033797 1_566
O8 P2 1.531427 1_555
O8 Rh1 2.033797 1_655
O9 P1 1.491652 1_555
O9 Rh1 1.998739 1_656
O10 P0 1.491652 1_555
O10 Rh1 1.998739 1_565
O11 P3 1.489328 1_555
O11 Rh1 1.994434 1_666
O12 P2 1.489328 1_555
O12 Rh1 1.994434 1_555
O13 P1 1.580255 1_455
O13 Rh0 2.035207 1_555
