# generated using pymatgen
data_SrFe12O19
_symmetry_space_group_name_H-M   'P 1'
_cell_length_a   5.99773846
_cell_length_b   5.99773846
_cell_length_c   23.34821500
_cell_angle_alpha   90.00000000
_cell_angle_beta   90.00000000
_cell_angle_gamma   120.00000503
_symmetry_Int_Tables_number   1
_chemical_formula_structural   SrFe12O19
_chemical_formula_sum   'Sr2 Fe24 O38'
_cell_volume   727.37662517
_cell_formula_units_Z   2
loop_
 _symmetry_equiv_pos_site_id
 _symmetry_equiv_pos_as_xyz
  1  'x, y, z'
loop_
 _atom_site_type_symbol
 _atom_site_label
 _atom_site_symmetry_multiplicity
 _atom_site_fract_x
 _atom_site_fract_y
 _atom_site_fract_z
 _atom_site_occupancy
  Sr  Sr0  1  0.66666700  0.33333300  0.25000000  1
  Sr  Sr1  1  0.33333300  0.66666700  0.75000000  1
  Fe  Fe0  1  0.00000000  0.00000000  0.50000000  1
  Fe  Fe1  1  0.00000000  0.00000000  0.00000000  1
  Fe  Fe2  1  0.00000000  0.00000000  0.25000000  1
  Fe  Fe3  1  0.00000000  0.00000000  0.75000000  1
  Fe  Fe4  1  0.33333300  0.66666700  0.47251500  1
  Fe  Fe5  1  0.66666700  0.33333300  0.52748500  1
  Fe  Fe6  1  0.66666700  0.33333300  0.97251500  1
  Fe  Fe7  1  0.33333300  0.66666700  0.02748500  1
  Fe  Fe8  1  0.33333300  0.66666700  0.30895700  1
  Fe  Fe9  1  0.66666700  0.33333300  0.69104300  1
  Fe  Fe10  1  0.66666700  0.33333300  0.80895700  1
  Fe  Fe11  1  0.33333300  0.66666700  0.19104300  1
  Fe  Fe12  1  0.16815400  0.83184600  0.60967400  1
  Fe  Fe13  1  0.16815400  0.33630800  0.60967400  1
  Fe  Fe14  1  0.66369200  0.83184600  0.60967400  1
  Fe  Fe15  1  0.83184600  0.16815400  0.39032600  1
  Fe  Fe16  1  0.83184600  0.66369200  0.39032600  1
  Fe  Fe17  1  0.33630800  0.16815400  0.39032600  1
  Fe  Fe18  1  0.83184600  0.16815400  0.10967400  1
  Fe  Fe19  1  0.83184600  0.66369200  0.10967400  1
  Fe  Fe20  1  0.33630800  0.16815400  0.10967400  1
  Fe  Fe21  1  0.16815400  0.83184600  0.89032600  1
  Fe  Fe22  1  0.16815400  0.33630800  0.89032600  1
  Fe  Fe23  1  0.66369200  0.83184600  0.89032600  1
  O  O0  1  0.00000000  0.00000000  0.34726200  1
  O  O1  1  0.00000000  0.00000000  0.65273800  1
  O  O2  1  0.00000000  0.00000000  0.84726200  1
  O  O3  1  0.00000000  0.00000000  0.15273800  1
  O  O4  1  0.33333300  0.66666700  0.55571600  1
  O  O5  1  0.66666700  0.33333300  0.44428400  1
  O  O6  1  0.66666700  0.33333300  0.05571600  1
  O  O7  1  0.33333300  0.66666700  0.94428400  1
  O  O8  1  0.18286500  0.81713500  0.25000000  1
  O  O9  1  0.18286500  0.36573000  0.25000000  1
  O  O10  1  0.63427000  0.81713500  0.25000000  1
  O  O11  1  0.81713500  0.18286500  0.75000000  1
  O  O12  1  0.81713500  0.63427000  0.75000000  1
  O  O13  1  0.36573000  0.18286500  0.75000000  1
  O  O14  1  0.15533300  0.84466700  0.44704700  1
  O  O15  1  0.15533300  0.31066500  0.44704700  1
  O  O16  1  0.68933500  0.84466700  0.44704700  1
  O  O17  1  0.84466700  0.15533300  0.55295300  1
  O  O18  1  0.84466700  0.68933500  0.55295300  1
  O  O19  1  0.31066500  0.15533300  0.55295300  1
  O  O20  1  0.84466700  0.15533300  0.94704700  1
  O  O21  1  0.84466700  0.68933500  0.94704700  1
  O  O22  1  0.31066500  0.15533300  0.94704700  1
  O  O23  1  0.15533300  0.84466700  0.05295300  1
  O  O24  1  0.15533300  0.31066500  0.05295300  1
  O  O25  1  0.68933500  0.84466700  0.05295300  1
  O  O26  1  0.50578600  0.49421400  0.34861600  1
  O  O27  1  0.50578600  0.01157200  0.34861600  1
  O  O28  1  0.98842800  0.49421400  0.34861600  1
  O  O29  1  0.49421400  0.50578600  0.65138400  1
  O  O30  1  0.49421400  0.98842800  0.65138400  1
  O  O31  1  0.01157200  0.50578600  0.65138400  1
  O  O32  1  0.49421400  0.50578600  0.84861600  1
  O  O33  1  0.49421400  0.98842800  0.84861600  1
  O  O34  1  0.01157200  0.50578600  0.84861600  1
  O  O35  1  0.50578600  0.49421400  0.15138400  1
  O  O36  1  0.50578600  0.01157200  0.15138400  1
  O  O37  1  0.98842800  0.49421400  0.15138400  1
loop_
_geom_bond_atom_site_label_1
_geom_bond_atom_site_label_2
_geom_bond_distance
_geom_bond_site_symmetry_2
Fe0 O15 2.032846 1_555
Fe0 O16 2.032846 1_445
Fe0 O18 2.032846 1_445
Fe0 O19 2.032846 1_555
Fe0 O14 2.032850 1_545
Fe0 O17 2.032850 1_455
Fe1 O25 2.032846 1_445
Fe1 O24 2.032846 1_555
Fe1 O21 2.032846 1_444
Fe1 O22 2.032846 1_554
Fe1 O23 2.032850 1_545
Fe1 O20 2.032850 1_454
Fe2 O9 1.899672 1_555
Fe2 O10 1.899672 1_445
Fe2 O8 1.899673 1_545
Fe2 O3 2.270894 1_555
Fe2 O0 2.270894 1_555
Fe3 O12 1.899672 1_445
Fe3 O13 1.899672 1_555
Fe3 O11 1.899673 1_455
Fe3 O2 2.270894 1_555
Fe3 O1 2.270894 1_555
Fe4 O14 1.942390 1_555
Fe4 O15 1.942400 1_555
Fe4 O16 1.942400 1_555
Fe4 O4 1.942595 1_555
Fe5 O17 1.942390 1_555
Fe5 O19 1.942400 1_555
Fe5 O18 1.942400 1_555
Fe5 O5 1.942595 1_555
Fe6 O20 1.942390 1_555
Fe6 O22 1.942400 1_555
Fe6 O21 1.942400 1_555
Fe6 O6 1.942595 1_556
Fe7 O23 1.942390 1_555
Fe7 O24 1.942400 1_555
Fe7 O25 1.942400 1_555
Fe7 O7 1.942595 1_554
Fe8 O27 2.016655 1_565
Fe8 O28 2.016655 1_455
Fe8 O26 2.016660 1_555
Fe8 O8 2.082837 1_555
Fe8 O9 2.082840 1_555
Fe8 O10 2.082840 1_555
Fe9 O31 2.016655 1_655
Fe9 O30 2.016655 1_545
Fe9 O29 2.016660 1_555
Fe9 O11 2.082837 1_555
Fe9 O12 2.082840 1_555
Fe9 O13 2.082840 1_555
Fe10 O34 2.016655 1_655
Fe10 O33 2.016655 1_545
Fe10 O32 2.016660 1_555
Fe10 O11 2.082837 1_555
Fe10 O12 2.082840 1_555
Fe10 O13 2.082840 1_555
Fe11 O36 2.016655 1_565
Fe11 O37 2.016655 1_455
Fe11 O35 2.016660 1_555
Fe11 O8 2.082837 1_555
Fe11 O10 2.082840 1_555
Fe11 O9 2.082840 1_555
Fe12 O31 1.954030 1_555
Fe12 O30 1.954030 1_555
Fe12 O1 2.015551 1_565
Fe12 O4 2.128759 1_555
Fe12 O19 2.142527 1_565
Fe12 O18 2.142527 1_455
Fe13 O29 1.954030 1_555
Fe13 O31 1.954030 1_555
Fe13 O1 2.015551 1_555
Fe13 O4 2.128763 1_555
Fe13 O19 2.142523 1_555
Fe13 O17 2.142526 1_455
Fe14 O29 1.954030 1_555
Fe14 O30 1.954030 1_555
Fe14 O1 2.015551 1_665
Fe14 O4 2.128763 1_555
Fe14 O18 2.142523 1_555
Fe14 O17 2.142526 1_565
Fe15 O27 1.954030 1_555
Fe15 O28 1.954030 1_555
Fe15 O0 2.015551 1_655
Fe15 O5 2.128759 1_555
Fe15 O15 2.142527 1_655
Fe15 O16 2.142527 1_545
Fe16 O26 1.954030 1_555
Fe16 O28 1.954030 1_555
Fe16 O0 2.015551 1_665
Fe16 O5 2.128763 1_555
Fe16 O16 2.142523 1_555
Fe16 O14 2.142526 1_655
Fe17 O26 1.954030 1_555
Fe17 O27 1.954030 1_555
Fe17 O0 2.015551 1_555
Fe17 O5 2.128763 1_555
Fe17 O15 2.142523 1_555
Fe17 O14 2.142526 1_545
Fe18 O37 1.954030 1_555
Fe18 O36 1.954030 1_555
Fe18 O3 2.015551 1_655
Fe18 O6 2.128759 1_555
Fe18 O24 2.142527 1_655
Fe18 O25 2.142527 1_545
Fe19 O35 1.954030 1_555
Fe19 O37 1.954030 1_555
Fe19 O3 2.015551 1_665
Fe19 O6 2.128763 1_555
Fe19 O25 2.142523 1_555
Fe19 O23 2.142526 1_655
Fe20 O35 1.954030 1_555
Fe20 O36 1.954030 1_555
Fe20 O3 2.015551 1_555
Fe20 O6 2.128763 1_555
Fe20 O24 2.142523 1_555
Fe20 O23 2.142526 1_545
Fe21 O34 1.954030 1_555
Fe21 O33 1.954030 1_555
Fe21 O2 2.015551 1_565
Fe21 O7 2.128759 1_555
Fe21 O22 2.142527 1_565
Fe21 O21 2.142527 1_455
Fe22 O32 1.954030 1_555
Fe22 O34 1.954030 1_555
Fe22 O2 2.015551 1_555
Fe22 O7 2.128763 1_555
Fe22 O22 2.142523 1_555
Fe22 O20 2.142526 1_455
Fe23 O32 1.954030 1_555
Fe23 O33 1.954030 1_555
Fe23 O2 2.015551 1_665
Fe23 O7 2.128763 1_555
Fe23 O21 2.142523 1_555
Fe23 O20 2.142526 1_565
O8 Sr0 3.003586 1_455
O8 Sr0 3.003586 1_565
O9 Sr0 3.003584 1_455
O9 Sr0 3.003590 1_555
O10 Sr0 3.003584 1_565
O10 Sr0 3.003590 1_555
O11 Sr1 3.003586 1_545
O11 Sr1 3.003586 1_655
O12 Sr1 3.003584 1_655
O12 Sr1 3.003590 1_555
O13 Sr1 3.003584 1_545
O13 Sr1 3.003590 1_555
O26 Sr0 2.845130 1_555
O27 Sr0 2.845127 1_555
O28 Sr0 2.845127 1_555
O29 Sr1 2.845130 1_555
O30 Sr1 2.845127 1_555
O31 Sr1 2.845127 1_555
O32 Sr1 2.845130 1_555
O33 Sr1 2.845127 1_555
O34 Sr1 2.845127 1_555
O35 Sr0 2.845130 1_555
O36 Sr0 2.845127 1_555
O37 Sr0 2.845127 1_555
