# generated using pymatgen
data_Ti7Tc5As6
_symmetry_space_group_name_H-M   'P 1'
_cell_length_a   7.55644308
_cell_length_b   7.54800700
_cell_length_c   7.54800714
_cell_angle_alpha   127.29799801
_cell_angle_beta   124.43829587
_cell_angle_gamma   80.10060558
_symmetry_Int_Tables_number   1
_chemical_formula_structural   Ti7Tc5As6
_chemical_formula_sum   'Ti7 Tc5 As6'
_cell_volume   272.71006954
_cell_formula_units_Z   1
loop_
 _symmetry_equiv_pos_site_id
 _symmetry_equiv_pos_as_xyz
  1  'x, y, z'
loop_
 _atom_site_type_symbol
 _atom_site_label
 _atom_site_symmetry_multiplicity
 _atom_site_fract_x
 _atom_site_fract_y
 _atom_site_fract_z
 _atom_site_occupancy
  Ti  Ti0  1  0.46286253  0.24412853  0.27700959  1
  Ti  Ti1  1  0.53713747  0.81414806  0.78126600  1
  Ti  Ti2  1  0.74801346  0.65337806  0.40318119  1
  Ti  Ti3  1  0.25198654  0.65516873  0.90536360  1
  Ti  Ti4  1  0.04908663  0.84968332  0.29193048  1
  Ti  Ti5  1  0.95091337  0.24284385  0.80059669  1
  Ti  Ti6  1  0.50000000  0.99722020  0.49722020  1
  Tc  Tc0  1  0.66732333  0.50394370  0.91519426  1
  Tc  Tc1  1  0.33267667  0.24787192  0.83662237  1
  Tc  Tc2  1  0.90585006  0.24408212  0.40573315  1
  Tc  Tc3  1  0.09414994  0.49988209  0.33823306  1
  Tc  Tc4  1  1.00000000  0.99115653  0.99115653  1
  As  As0  1  0.83371854  0.57550709  0.74525340  1
  As  As1  1  0.16628146  0.91153285  0.74178854  1
  As  As2  1  0.66984819  0.91479088  0.25274112  1
  As  As3  1  0.33015181  0.58289193  0.24494269  1
  As  As4  1  0.27682538  0.28446998  0.50452156  1
  As  As5  1  0.72317462  0.22769618  0.00764560  1
loop_
_geom_bond_atom_site_label_1
_geom_bond_atom_site_label_2
_geom_bond_distance
_geom_bond_site_symmetry_2
Ti4 Ti6 2.914228 1_555
Ti5 Ti6 2.914228 1_545
Tc0 Ti4 2.745040 1_656
Tc0 Ti5 2.793343 1_555
Tc0 Ti2 2.805758 1_556
Tc0 Ti1 2.902361 1_555
Tc0 Ti6 2.950923 1_545
Tc0 Tc3 3.005958 1_656
Tc0 Tc1 3.012840 1_555
Tc0 Ti3 3.125041 1_555
Tc0 Ti0 3.257658 1_555
Tc1 Ti5 2.745034 1_455
Tc1 Ti4 2.793350 1_545
Tc1 Ti3 2.805766 1_555
Tc1 Ti0 2.902344 1_556
Tc1 Ti6 2.950935 1_545
Tc1 Tc2 3.005955 1_455
Tc1 Ti2 3.125036 1_556
Tc1 Ti1 3.257655 1_545
Tc2 Ti4 2.759724 1_645
Tc2 Ti5 2.807811 1_555
Tc2 Ti3 2.853731 1_655
Tc2 Ti0 2.910436 1_555
Tc3 Ti5 2.759730 1_454
Tc3 Ti4 2.807824 1_555
Tc3 Ti2 2.853728 1_455
Tc3 Ti1 2.910440 1_555
Tc4 Ti3 2.867139 1_655
Tc4 Ti2 2.867143 1_555
Tc4 Ti4 2.877720 1_656
Tc4 Ti5 2.877720 1_565
Tc4 Ti1 3.049991 1_555
Tc4 Ti0 3.049994 1_666
As0 Tc0 2.532879 1_555
As0 Tc2 2.542460 1_555
As0 Tc4 2.554823 1_555
As0 Ti1 2.654915 1_555
As0 Ti0 2.663648 1_555
As0 Ti4 2.677981 1_656
As0 Ti2 2.692304 1_555
As0 Ti3 2.695214 1_655
As0 Ti5 2.711420 1_555
As1 Tc1 2.532890 1_565
As1 Tc3 2.542453 1_555
As1 Tc4 2.554819 1_455
As1 Ti0 2.654913 1_566
As1 Ti1 2.663645 1_555
As1 Ti5 2.677992 1_465
As1 Ti3 2.692277 1_555
As1 Ti2 2.695205 1_455
As1 Ti4 2.711427 1_555
As2 Tc2 2.531372 1_565
As2 Ti6 2.540141 1_555
As2 Tc0 2.549197 1_554
As2 Ti2 2.662264 1_555
As2 Ti0 2.663577 1_565
As2 Ti1 2.682599 1_554
As2 Ti5 2.684683 1_565
As2 Ti3 2.687319 1_554
As2 Ti4 2.697109 1_655
As3 Tc3 2.531378 1_555
As3 Ti6 2.540147 1_555
As3 Tc1 2.549184 1_554
As3 Ti3 2.662283 1_554
As3 Ti1 2.663574 1_555
As3 Ti0 2.682588 1_555
As3 Ti4 2.684687 1_555
As3 Ti2 2.687324 1_555
As3 Ti5 2.697106 1_454
As4 Tc3 2.422074 1_555
As4 Tc1 2.478011 1_555
As4 Tc2 2.482207 1_455
As4 Tc0 2.484377 1_555
As4 Ti6 2.500207 1_545
As4 Tc4 2.513933 1_444
As4 Ti0 2.639593 1_555
As4 Ti3 2.687060 1_555
As4 Ti4 2.956842 1_545
As5 Tc2 2.422078 1_555
As5 Tc0 2.478006 1_554
As5 Tc3 2.482204 1_655
As5 Tc1 2.484380 1_554
As5 Ti6 2.500212 1_544
As5 Tc4 2.513934 1_544
As5 Ti1 2.639583 1_544
As5 Ti2 2.687058 1_555
As5 Ti5 2.956849 1_554
