# generated using pymatgen
data_Zr6AgAuN2
_symmetry_space_group_name_H-M   'P 1'
_cell_length_a   6.05151816
_cell_length_b   6.05151743
_cell_length_c   9.05545650
_cell_angle_alpha   90.00000000
_cell_angle_beta   90.00000000
_cell_angle_gamma   147.85131617
_symmetry_Int_Tables_number   1
_chemical_formula_structural   Zr6AgAuN2
_chemical_formula_sum   'Zr6 Ag1 Au1 N2'
_cell_volume   176.46032566
_cell_formula_units_Z   1
loop_
 _symmetry_equiv_pos_site_id
 _symmetry_equiv_pos_as_xyz
  1  'x, y, z'
loop_
 _atom_site_type_symbol
 _atom_site_label
 _atom_site_symmetry_multiplicity
 _atom_site_fract_x
 _atom_site_fract_y
 _atom_site_fract_z
 _atom_site_occupancy
  Zr  Zr0  1  0.62371587  0.37628413  0.95310019  1
  Zr  Zr1  1  0.37490181  0.62509819  0.45091881  1
  Zr  Zr2  1  0.37490181  0.62509819  0.04908119  1
  Zr  Zr3  1  0.62371587  0.37628413  0.54689981  1
  Zr  Zr4  1  0.95395675  0.04604325  0.75000000  1
  Zr  Zr5  1  0.04753859  0.95246141  0.25000000  1
  Ag  Ag0  1  0.25050112  0.74949888  0.75000000  1
  Au  Au0  1  0.75055785  0.24944215  0.25000000  1
  N  N0  1  0.00010417  0.99989583  0.00043922  1
  N  N1  1  0.00010417  0.99989583  0.49956078  1
loop_
_geom_bond_atom_site_label_1
_geom_bond_atom_site_label_2
_geom_bond_distance
_geom_bond_site_symmetry_2
Ag0 Zr0 2.892091 1_565
Ag0 Zr3 2.892091 1_565
Ag0 Zr0 2.892092 1_455
Ag0 Zr3 2.892092 1_455
Ag0 Zr4 2.899351 1_455
Ag0 Zr4 2.899352 1_565
Ag0 Zr2 3.070521 1_556
Ag0 Zr1 3.070521 1_555
Au0 Zr1 2.865136 1_545
Au0 Zr2 2.865136 1_545
Au0 Zr1 2.865136 1_655
Au0 Zr2 2.865136 1_655
Au0 Zr5 2.895211 1_655
Au0 Zr5 2.895212 1_545
Au0 Zr3 3.066667 1_555
Au0 Zr0 3.066667 1_554
N0 Zr0 2.248989 1_454
N0 Zr0 2.248989 1_564
N0 Zr2 2.263125 1_565
N0 Zr2 2.263126 1_455
N0 Zr5 2.326244 1_555
N0 Zr4 2.330480 1_464
N1 Zr3 2.248989 1_455
N1 Zr3 2.248989 1_565
N1 Zr1 2.263125 1_565
N1 Zr1 2.263126 1_455
N1 Zr5 2.326244 1_555
N1 Zr4 2.330480 1_465
