# generated using pymatgen
data_Ba3CdPbO6
_symmetry_space_group_name_H-M   'P 1'
_cell_length_a   7.29382423
_cell_length_b   7.29382485
_cell_length_c   7.29382438
_cell_angle_alpha   92.21163774
_cell_angle_beta   92.21163656
_cell_angle_gamma   92.21163483
_symmetry_Int_Tables_number   1
_chemical_formula_structural   Ba3CdPbO6
_chemical_formula_sum   'Ba6 Cd2 Pb2 O12'
_cell_volume   387.14042460
_cell_formula_units_Z   2
loop_
 _symmetry_equiv_pos_site_id
 _symmetry_equiv_pos_as_xyz
  1  'x, y, z'
loop_
 _atom_site_type_symbol
 _atom_site_label
 _atom_site_symmetry_multiplicity
 _atom_site_fract_x
 _atom_site_fract_y
 _atom_site_fract_z
 _atom_site_occupancy
  Ba  Ba0  1  0.39203633  0.10796367  0.75000000  1
  Ba  Ba1  1  0.10796367  0.75000000  0.39203633  1
  Ba  Ba2  1  0.75000000  0.39203633  0.10796367  1
  Ba  Ba3  1  0.60796367  0.89203633  0.25000000  1
  Ba  Ba4  1  0.25000000  0.60796367  0.89203633  1
  Ba  Ba5  1  0.89203633  0.25000000  0.60796367  1
  Cd  Cd0  1  0.75000000  0.75000000  0.75000000  1
  Cd  Cd1  1  0.25000000  0.25000000  0.25000000  1
  Pb  Pb0  1  0.50000000  0.50000000  0.50000000  1
  Pb  Pb1  1  0.00000000  0.00000000  0.00000000  1
  O  O0  1  0.95764935  0.09056390  0.28608336  1
  O  O1  1  0.28608336  0.95764935  0.09056390  1
  O  O2  1  0.09056390  0.28608336  0.95764935  1
  O  O3  1  0.54235065  0.21391664  0.40943610  1
  O  O4  1  0.40943610  0.54235065  0.21391664  1
  O  O5  1  0.21391664  0.40943610  0.54235065  1
  O  O6  1  0.04235065  0.90943610  0.71391664  1
  O  O7  1  0.71391664  0.04235065  0.90943610  1
  O  O8  1  0.90943610  0.71391664  0.04235065  1
  O  O9  1  0.45764935  0.78608336  0.59056390  1
  O  O10  1  0.78608336  0.59056390  0.45764935  1
  O  O11  1  0.59056390  0.45764935  0.78608336  1
loop_
_geom_bond_atom_site_label_1
_geom_bond_atom_site_label_2
_geom_bond_distance
_geom_bond_site_symmetry_2
Ba0 O7 2.648054 1_555
Ba0 O9 2.648054 1_545
Ba0 O3 2.874461 1_555
Ba0 O1 2.874461 1_546
Ba0 O6 2.881849 1_545
Ba0 O11 2.881849 1_555
Ba0 O2 3.023657 1_555
Ba0 O5 3.023657 1_555
Ba1 O6 2.648054 1_555
Ba1 O10 2.648054 1_455
Ba1 O0 2.874461 1_465
Ba1 O5 2.874461 1_555
Ba1 O9 2.881849 1_555
Ba1 O8 2.881849 1_455
Ba1 O4 3.023657 1_555
Ba1 O1 3.023657 1_555
Ba2 O11 2.648054 1_554
Ba2 O8 2.648054 1_555
Ba2 O2 2.874461 1_654
Ba2 O4 2.874461 1_555
Ba2 O10 2.881849 1_555
Ba2 O7 2.881849 1_554
Ba2 O3 3.023657 1_555
Ba2 O0 3.023657 1_555
Ba3 O1 2.648054 1_555
Ba3 O3 2.648054 1_565
Ba3 O9 2.874461 1_555
Ba3 O7 2.874461 1_564
Ba3 O0 2.881849 1_565
Ba3 O4 2.881849 1_555
Ba3 O8 3.023657 1_555
Ba3 O10 3.023657 1_555
Ba4 O4 2.648054 1_556
Ba4 O2 2.648054 1_555
Ba4 O8 2.874461 1_456
Ba4 O11 2.874461 1_555
Ba4 O5 2.881849 1_555
Ba4 O1 2.881849 1_556
Ba4 O9 3.023657 1_555
Ba4 O6 3.023657 1_555
Ba5 O0 2.648054 1_555
Ba5 O5 2.648054 1_655
Ba5 O6 2.874461 1_645
Ba5 O10 2.874461 1_555
Ba5 O3 2.881849 1_555
Ba5 O2 2.881849 1_655
Ba5 O11 3.023657 1_555
Ba5 O7 3.023657 1_555
Cd0 O9 2.417454 1_555
Cd0 O8 2.417454 1_556
Cd0 O10 2.417454 1_555
Cd0 O6 2.417454 1_655
Cd0 O7 2.417454 1_565
Cd0 O11 2.417454 1_555
Cd1 O3 2.417454 1_555
Cd1 O2 2.417454 1_554
Cd1 O5 2.417454 1_555
Cd1 O0 2.417454 1_455
Cd1 O1 2.417454 1_545
Cd1 O4 2.417454 1_555
O0 Pb1 2.201123 1_655
O1 Pb1 2.201123 1_565
O2 Pb1 2.201123 1_556
O3 Pb0 2.201123 1_555
O4 Pb0 2.201123 1_555
O5 Pb0 2.201123 1_555
O6 Pb1 2.201123 1_566
O7 Pb1 2.201123 1_656
O8 Pb1 2.201123 1_665
O9 Pb0 2.201123 1_555
O10 Pb0 2.201123 1_555
O11 Pb0 2.201123 1_555
