# generated using pymatgen
data_YAgH6Ru
_symmetry_space_group_name_H-M   'P 1'
_cell_length_a   4.89291756
_cell_length_b   4.89291774
_cell_length_c   4.89291650
_cell_angle_alpha   60.00000168
_cell_angle_beta   60.00000043
_cell_angle_gamma   59.99998612
_symmetry_Int_Tables_number   1
_chemical_formula_structural   YAgH6Ru
_chemical_formula_sum   'Y1 Ag1 H6 Ru1'
_cell_volume   82.83017536
_cell_formula_units_Z   1
loop_
 _symmetry_equiv_pos_site_id
 _symmetry_equiv_pos_as_xyz
  1  'x, y, z'
loop_
 _atom_site_type_symbol
 _atom_site_label
 _atom_site_symmetry_multiplicity
 _atom_site_fract_x
 _atom_site_fract_y
 _atom_site_fract_z
 _atom_site_occupancy
  Y  Y0  1  0.25000000  0.25000000  0.25000000  1
  Ag  Ag0  1  0.75000000  0.75000000  0.75000000  1
  H  H0  1  0.75567836  0.75567836  0.24432164  1
  H  H1  1  0.24432164  0.75567836  0.24432164  1
  H  H2  1  0.75567836  0.24432164  0.24432164  1
  H  H3  1  0.24432164  0.24432164  0.75567836  1
  H  H4  1  0.75567836  0.24432164  0.75567836  1
  H  H5  1  0.24432164  0.75567836  0.75567836  1
  Ru  Ru0  1  0.00000000  0.00000000  0.00000000  1
loop_
_geom_bond_atom_site_label_1
_geom_bond_atom_site_label_2
_geom_bond_distance
_geom_bond_site_symmetry_2
Ag0 H0 2.446774 1_555
Ag0 H0 2.446774 1_556
Ag0 H3 2.446774 1_565
Ag0 H3 2.446774 1_655
Ag0 H1 2.446774 1_655
Ag0 H1 2.446774 1_556
Ag0 H2 2.446774 1_565
Ag0 H2 2.446774 1_556
Ag0 H5 2.446774 1_555
Ag0 H5 2.446774 1_655
Ag0 H4 2.446774 1_555
Ag0 H4 2.446774 1_565
H0 Ru0 1.690616 1_665
H0 Y0 2.446774 1_565
H0 Y0 2.446774 1_655
H1 Ru0 1.690615 1_565
H1 Y0 2.446774 1_555
H1 Y0 2.446774 1_565
H2 Ru0 1.690615 1_655
H2 Y0 2.446774 1_555
H2 Y0 2.446774 1_655
H3 Ru0 1.690616 1_556
H3 Y0 2.446774 1_555
H3 Y0 2.446774 1_556
H4 Ru0 1.690615 1_656
H4 Y0 2.446774 1_655
H4 Y0 2.446774 1_556
H5 Ru0 1.690615 1_566
H5 Y0 2.446774 1_565
H5 Y0 2.446774 1_556
