# generated using pymatgen
data_CaSbRuF12
_symmetry_space_group_name_H-M   'P 1'
_cell_length_a   11.21680628
_cell_length_b   5.74148323
_cell_length_c   5.73568350
_cell_angle_alpha   53.90046304
_cell_angle_beta   53.38479748
_cell_angle_gamma   53.33178860
_symmetry_Int_Tables_number   1
_chemical_formula_structural   CaSbRuF12
_chemical_formula_sum   'Ca1 Sb1 Ru1 F12'
_cell_volume   221.69503900
_cell_formula_units_Z   1
loop_
 _symmetry_equiv_pos_site_id
 _symmetry_equiv_pos_as_xyz
  1  'x, y, z'
loop_
 _atom_site_type_symbol
 _atom_site_label
 _atom_site_symmetry_multiplicity
 _atom_site_fract_x
 _atom_site_fract_y
 _atom_site_fract_z
 _atom_site_occupancy
  Ca  Ca0  1  0.74925162  0.49790690  0.50426746  1
  Sb  Sb0  1  0.47680148  0.02549429  0.00398447  1
  Ru  Ru0  1  0.01901027  0.97879063  0.99695953  1
  F  F0  1  0.19967025  0.06371710  0.77033883  1
  F  F1  1  0.67995088  0.07642924  0.78360733  1
  F  F2  1  0.04903615  0.76458280  0.36434575  1
  F  F3  1  0.53562237  0.78128850  0.36062144  1
  F  F4  1  0.12125198  0.62391478  0.91724128  1
  F  F5  1  0.60463657  0.64351887  0.92300944  1
  F  F6  1  0.45995361  0.22585746  0.61782031  1
  F  F7  1  0.96303580  0.22124233  0.63859235  1
  F  F8  1  0.29182713  0.94131513  0.23914430  1
  F  F9  1  0.82128442  0.91168583  0.22258372  1
  F  F10  1  0.38395512  0.39189261  0.06856716  1
  F  F11  1  0.89471335  0.35236051  0.08891565  1
loop_
_geom_bond_atom_site_label_1
_geom_bond_atom_site_label_2
_geom_bond_distance
_geom_bond_site_symmetry_2
Ca0 F7 2.253746 1_555
Ca0 F11 2.262002 1_555
Ca0 F9 2.262642 1_555
Ca0 F3 2.277481 1_555
Ca0 F5 2.279854 1_555
Ca0 F1 2.284617 1_555
F0 Ru0 1.823447 1_545
F1 Sb0 1.949398 1_556
F2 Ru0 1.834210 1_554
F3 Sb0 1.926362 1_565
F4 Ru0 1.832269 1_555
F5 Sb0 1.931696 1_566
F6 Sb0 1.871386 1_556
F7 Ru0 1.918556 1_645
F8 Sb0 1.857139 1_565
F9 Ru0 1.936840 1_654
F10 Sb0 1.867794 1_555
F11 Ru0 1.925269 1_644
