# generated using pymatgen
data_ZrInNi3Ir
_symmetry_space_group_name_H-M   'P 1'
_cell_length_a   4.84835904
_cell_length_b   4.84835973
_cell_length_c   5.07237844
_cell_angle_alpha   118.54951350
_cell_angle_beta   89.99998853
_cell_angle_gamma   120.00000857
_symmetry_Int_Tables_number   1
_chemical_formula_structural   ZrInNi3Ir
_chemical_formula_sum   'Zr1 In1 Ni3 Ir1'
_cell_volume   86.11279456
_cell_formula_units_Z   1
loop_
 _symmetry_equiv_pos_site_id
 _symmetry_equiv_pos_as_xyz
  1  'x, y, z'
loop_
 _atom_site_type_symbol
 _atom_site_label
 _atom_site_symmetry_multiplicity
 _atom_site_fract_x
 _atom_site_fract_y
 _atom_site_fract_z
 _atom_site_occupancy
  Zr  Zr0  1  0.99978574  0.99957148  0.99935722  1
  In  In0  1  0.75596849  0.51193697  0.26790646  1
  Ni  Ni0  1  0.37382919  0.24646568  0.62029487  1
  Ni  Ni1  1  0.37382919  0.74765738  0.62029487  1
  Ni  Ni2  1  0.87263549  0.24646568  0.62029487  1
  Ir  Ir0  1  0.37395190  0.74790281  0.12185271  1
loop_
_geom_bond_atom_site_label_1
_geom_bond_atom_site_label_2
_geom_bond_distance
_geom_bond_site_symmetry_2
In0 Ni2 2.845805 1_555
In0 Ni1 2.845807 1_555
In0 Ni0 2.845807 1_555
In0 Ni0 2.845810 1_665
In0 Ni1 2.845811 1_655
In0 Ni2 2.845813 1_565
In0 Ir0 2.866564 1_545
In0 Ir0 2.866572 1_555
In0 Ir0 2.866576 1_655
In0 Zr0 3.020923 1_444
In0 Zr0 3.020923 1_544
In0 Zr0 3.020927 1_554
In0 Ni2 3.074749 1_554
In0 Ni1 3.074751 1_544
In0 Ni0 3.074751 1_554
In0 Zr0 3.094087 1_555
Ni0 Ni2 2.418392 1_555
Ni0 Ni1 2.418402 1_545
Ni0 Ni1 2.429958 1_555
Ni0 Ni2 2.429967 1_455
Ni0 Zr0 2.906499 1_555
Ni0 Zr0 2.906500 1_445
Ni0 Zr0 2.977804 1_444
Ni1 Ni2 2.418397 1_565
Ni1 Ni2 2.429962 1_455
Ni1 Zr0 2.906498 1_555
Ni1 Zr0 2.906502 1_455
Ni1 Zr0 2.977801 1_444
Ni2 Zr0 2.906498 1_555
Ni2 Zr0 2.906503 1_545
Ni2 Zr0 2.977806 1_544
Ir0 Ni2 2.528846 1_565
Ir0 Ni0 2.528851 1_565
Ir0 Ni1 2.528856 1_555
Ir0 Ni1 2.543523 1_554
Ir0 Ni0 2.543527 1_554
Ir0 Ni2 2.543531 1_454
Ir0 Zr0 2.846752 1_554
Ir0 Zr0 2.846757 1_454
Ir0 Zr0 2.846761 1_444
