# generated using pymatgen
data_Tc3Br8Cl
_symmetry_space_group_name_H-M   'P 1'
_cell_length_a   9.90325027
_cell_length_b   9.90325006
_cell_length_c   9.80323610
_cell_angle_alpha   65.34599303
_cell_angle_beta   65.34599144
_cell_angle_gamma   65.32783510
_symmetry_Int_Tables_number   1
_chemical_formula_structural   Tc3Br8Cl
_chemical_formula_sum   'Tc6 Br16 Cl2'
_cell_volume   758.88222765
_cell_formula_units_Z   2
loop_
 _symmetry_equiv_pos_site_id
 _symmetry_equiv_pos_as_xyz
  1  'x, y, z'
loop_
 _atom_site_type_symbol
 _atom_site_label
 _atom_site_symmetry_multiplicity
 _atom_site_fract_x
 _atom_site_fract_y
 _atom_site_fract_z
 _atom_site_occupancy
  Tc  Tc0  1  0.64692037  0.87266656  0.14646399  1
  Tc  Tc1  1  0.87266656  0.64692037  0.14646399  1
  Tc  Tc2  1  0.35390926  0.12804047  0.85248679  1
  Tc  Tc3  1  0.12804047  0.35390926  0.85248679  1
  Tc  Tc4  1  0.64611619  0.64611619  0.37347719  1
  Tc  Tc5  1  0.35390274  0.35390274  0.62640683  1
  Br  Br0  1  0.71555604  0.03159453  0.22105045  1
  Br  Br1  1  0.03159453  0.71555604  0.22105045  1
  Br  Br2  1  0.28500904  0.96891073  0.77850729  1
  Br  Br3  1  0.96891073  0.28500904  0.77850729  1
  Br  Br4  1  0.51259513  0.82857252  0.00498985  1
  Br  Br5  1  0.82857252  0.51259513  0.00498985  1
  Br  Br6  1  0.49048711  0.17267908  0.99079878  1
  Br  Br7  1  0.17267908  0.49048711  0.99079878  1
  Br  Br8  1  0.88000683  0.88000683  0.90209305  1
  Br  Br9  1  0.12158394  0.12158394  0.09707589  1
  Br  Br10  1  0.71549072  0.71549072  0.53690168  1
  Br  Br11  1  0.28466416  0.28466416  0.46284712  1
  Br  Br12  1  0.51014020  0.51014020  0.32552860  1
  Br  Br13  1  0.48961303  0.48961303  0.67439312  1
  Br  Br14  1  0.40250355  0.87746640  0.37910419  1
  Br  Br15  1  0.87746640  0.40250355  0.37910419  1
  Cl  Cl0  1  0.57990006  0.13167034  0.62723592  1
  Cl  Cl1  1  0.13167034  0.57990006  0.62723592  1
loop_
_geom_bond_atom_site_label_1
_geom_bond_atom_site_label_2
_geom_bond_distance
_geom_bond_site_symmetry_2
Tc0 Tc4 2.412676 1_555
Tc0 Tc1 2.413175 1_555
Tc1 Tc4 2.412676 1_555
Tc2 Tc5 2.404032 1_555
Tc2 Tc3 2.414486 1_555
Tc3 Tc5 2.404032 1_555
Br0 Tc0 2.396182 1_545
Br1 Tc1 2.396182 1_455
Br2 Tc2 2.395636 1_565
Br3 Tc3 2.395637 1_655
Br4 Tc0 2.532424 1_555
Br4 Tc2 2.805402 1_564
Br5 Tc1 2.532424 1_555
Br5 Tc3 2.805402 1_654
Br6 Tc2 2.528358 1_555
Br6 Tc0 2.811274 1_546
Br7 Tc3 2.528358 1_555
Br7 Tc1 2.811274 1_456
Br8 Tc0 2.540472 1_556
Br8 Tc1 2.540472 1_556
Br9 Tc2 2.537594 1_554
Br9 Tc3 2.537594 1_554
Br10 Tc4 2.396108 1_555
Br11 Tc5 2.395467 1_555
Br12 Tc4 2.533309 1_555
Br12 Tc5 2.805675 1_555
Br13 Tc5 2.529169 1_555
Br13 Tc4 2.807702 1_555
Br14 Tc0 2.539955 1_555
Br14 Tc4 2.540179 1_555
Br15 Tc1 2.539955 1_555
Br15 Tc4 2.540179 1_555
Cl0 Tc5 2.396009 1_555
Cl0 Tc2 2.400866 1_555
Cl1 Tc5 2.396009 1_555
Cl1 Tc3 2.400866 1_555
