# generated using pymatgen
data_Ta(OsCl6)5
_symmetry_space_group_name_H-M   'P 1'
_cell_length_a   12.85803713
_cell_length_b   12.85803707
_cell_length_c   5.97340692
_cell_angle_alpha   88.94711593
_cell_angle_beta   88.94711457
_cell_angle_gamma   87.11195289
_symmetry_Int_Tables_number   1
_chemical_formula_structural   Ta(OsCl6)5
_chemical_formula_sum   'Ta1 Os5 Cl30'
_cell_volume   986.00665542
_cell_formula_units_Z   1
loop_
 _symmetry_equiv_pos_site_id
 _symmetry_equiv_pos_as_xyz
  1  'x, y, z'
loop_
 _atom_site_type_symbol
 _atom_site_label
 _atom_site_symmetry_multiplicity
 _atom_site_fract_x
 _atom_site_fract_y
 _atom_site_fract_z
 _atom_site_occupancy
  Ta  Ta0  1  0.88940257  0.11059743  1.00000000  1
  Os  Os0  1  0.77124539  0.56324877  0.52412835  1
  Os  Os1  1  0.43675123  0.22875461  0.47587165  1
  Os  Os2  1  0.22836204  0.43825793  0.47478177  1
  Os  Os3  1  0.56174207  0.77163796  0.52521823  1
  Os  Os4  1  0.10652401  0.89347599  0.00000000  1
  Cl  Cl0  1  0.66687361  0.46916247  0.75535695  1
  Cl  Cl1  1  0.53083753  0.33312639  0.24464305  1
  Cl  Cl2  1  0.33331185  0.53099111  0.24266705  1
  Cl  Cl3  1  0.46900889  0.66668815  0.75733295  1
  Cl  Cl4  1  0.80167981  0.42752022  0.29867287  1
  Cl  Cl5  1  0.57247978  0.19832019  0.70132713  1
  Cl  Cl6  1  0.95210196  0.94686030  0.22230133  1
  Cl  Cl7  1  0.05313970  0.04789804  0.77769867  1
  Cl  Cl8  1  0.75434340  0.13497154  0.24315125  1
  Cl  Cl9  1  0.86502846  0.24565660  0.75684875  1
  Cl  Cl10  1  0.24297508  0.86195386  0.76869835  1
  Cl  Cl11  1  0.13804614  0.75702492  0.23130165  1
  Cl  Cl12  1  0.80274052  0.99712927  0.78266484  1
  Cl  Cl13  1  0.00287073  0.19725948  0.21733516  1
  Cl  Cl14  1  0.20038253  0.99829381  0.21483371  1
  Cl  Cl15  1  0.00170619  0.79961747  0.78516629  1
  Cl  Cl16  1  0.71719648  0.71772276  0.73865151  1
  Cl  Cl17  1  0.28227724  0.28280352  0.26134849  1
  Cl  Cl18  1  0.53161659  0.90801826  0.74822499  1
  Cl  Cl19  1  0.09198174  0.46838341  0.25177501  1
  Cl  Cl20  1  0.46748665  0.09217654  0.25351802  1
  Cl  Cl21  1  0.90782346  0.53251335  0.74648198  1
  Cl  Cl22  1  0.66647097  0.86451244  0.29283421  1
  Cl  Cl23  1  0.13548756  0.33352903  0.70716579  1
  Cl  Cl24  1  0.33171956  0.13577704  0.70655000  1
  Cl  Cl25  1  0.86422296  0.66828044  0.29345000  1
  Cl  Cl26  1  0.61574122  0.61665175  0.31152731  1
  Cl  Cl27  1  0.38334825  0.38425878  0.68847269  1
  Cl  Cl28  1  0.42524800  0.80217217  0.30283322  1
  Cl  Cl29  1  0.19782783  0.57475200  0.69716678  1
loop_
_geom_bond_atom_site_label_1
_geom_bond_atom_site_label_2
_geom_bond_distance
_geom_bond_site_symmetry_2
Cl0 Os0 2.281751 1_555
Cl1 Os1 2.281751 1_555
Cl2 Os2 2.279868 1_555
Cl3 Os3 2.279868 1_555
Cl4 Os0 2.238472 1_555
Cl5 Os1 2.238472 1_555
Cl6 Os4 2.444627 1_655
Cl6 Ta0 2.571238 1_564
Cl7 Os4 2.444627 1_546
Cl7 Ta0 2.571238 1_455
Cl8 Ta0 2.256715 1_554
Cl9 Ta0 2.256715 1_555
Cl10 Os4 2.238602 1_556
Cl11 Os4 2.238602 1_555
Cl12 Ta0 2.311340 1_565
Cl13 Ta0 2.311340 1_454
Cl14 Os4 2.281250 1_555
Cl15 Os4 2.281250 1_556
Cl16 Os0 2.447831 1_555
Cl16 Os3 2.454162 1_555
Cl17 Os1 2.447831 1_555
Cl17 Os2 2.454162 1_555
Cl18 Os3 2.235632 1_555
Cl19 Os2 2.235632 1_555
Cl20 Os1 2.236245 1_555
Cl21 Os0 2.236245 1_555
Cl22 Os3 2.280076 1_555
Cl23 Os2 2.280076 1_555
Cl24 Os1 2.277184 1_555
Cl25 Os0 2.277184 1_555
Cl26 Os3 2.450357 1_555
Cl26 Os0 2.450533 1_555
Cl27 Os2 2.450357 1_555
Cl27 Os1 2.450533 1_555
Cl28 Os3 2.235183 1_555
Cl29 Os2 2.235183 1_555
