# generated using pymatgen
data_Sr12Sc4(BiSb3)3
_symmetry_space_group_name_H-M   'P 1'
_cell_length_a   4.87736259
_cell_length_b   13.60476524
_cell_length_c   15.20351866
_cell_angle_alpha   90.03916485
_cell_angle_beta   90.00000000
_cell_angle_gamma   90.00000000
_symmetry_Int_Tables_number   1
_chemical_formula_structural   Sr12Sc4(BiSb3)3
_chemical_formula_sum   'Sr12 Sc4 Bi3 Sb9'
_cell_volume   1008.83491587
_cell_formula_units_Z   1
loop_
 _symmetry_equiv_pos_site_id
 _symmetry_equiv_pos_as_xyz
  1  'x, y, z'
loop_
 _atom_site_type_symbol
 _atom_site_label
 _atom_site_symmetry_multiplicity
 _atom_site_fract_x
 _atom_site_fract_y
 _atom_site_fract_z
 _atom_site_occupancy
  Sr  Sr0  1  0.25000000  0.06716531  0.89582159  1
  Sr  Sr1  1  0.75000000  0.93506661  0.10338196  1
  Sr  Sr2  1  0.25000000  0.56434848  0.60399282  1
  Sr  Sr3  1  0.75000000  0.43522051  0.39672915  1
  Sr  Sr4  1  0.25000000  0.84894751  0.49489139  1
  Sr  Sr5  1  0.75000000  0.15169095  0.50578674  1
  Sr  Sr6  1  0.25000000  0.34698311  0.00331293  1
  Sr  Sr7  1  0.75000000  0.65067714  0.99476047  1
  Sr  Sr8  1  0.75000000  0.22807198  0.21304657  1
  Sr  Sr9  1  0.25000000  0.77223403  0.78755380  1
  Sr  Sr10  1  0.75000000  0.72793990  0.28716172  1
  Sr  Sr11  1  0.25000000  0.27204898  0.71473151  1
  Sc  Sc0  1  0.25000000  0.05260639  0.29592414  1
  Sc  Sc1  1  0.75000000  0.94755842  0.70411938  1
  Sc  Sc2  1  0.25000000  0.55167084  0.20373122  1
  Sc  Sc3  1  0.75000000  0.44586769  0.79672437  1
  Bi  Bi0  1  0.25000000  0.24914536  0.37452016  1
  Bi  Bi1  1  0.75000000  0.75101401  0.62563584  1
  Bi  Bi2  1  0.25000000  0.74863536  0.12545212  1
  Sb  Sb0  1  0.75000000  0.25344633  0.87291621  1
  Sb  Sb1  1  0.25000000  0.10578685  0.11353141  1
  Sb  Sb2  1  0.75000000  0.89492268  0.88636637  1
  Sb  Sb3  1  0.25000000  0.60572680  0.38627073  1
  Sb  Sb4  1  0.75000000  0.39351267  0.61416961  1
  Sb  Sb5  1  0.25000000  0.04012955  0.64665190  1
  Sb  Sb6  1  0.75000000  0.96065631  0.35387571  1
  Sb  Sb7  1  0.25000000  0.53915425  0.85345483  1
  Sb  Sb8  1  0.75000000  0.45977199  0.14548235  1
loop_
_geom_bond_atom_site_label_1
_geom_bond_atom_site_label_2
_geom_bond_distance
_geom_bond_site_symmetry_2
Bi0 Sc0 2.927980 1_555
Bi0 Sr5 3.419287 1_455
Bi0 Sr5 3.419287 1_555
Bi0 Sr8 3.472069 1_455
Bi0 Sr8 3.472069 1_555
Bi0 Sr3 3.531083 1_455
Bi0 Sr3 3.531083 1_555
Bi1 Sc1 2.927351 1_555
Bi1 Sr4 3.417196 1_555
Bi1 Sr4 3.417196 1_655
Bi1 Sr9 3.477013 1_555
Bi1 Sr9 3.477013 1_655
Bi1 Sr2 3.536038 1_555
Bi1 Sr2 3.536038 1_655
Bi2 Sc2 2.932797 1_555
Bi2 Sr7 3.415800 1_554
Bi2 Sr7 3.415800 1_454
Bi2 Sr10 3.474461 1_455
Bi2 Sr10 3.474461 1_555
Bi2 Sr1 3.534686 1_455
Bi2 Sr1 3.534686 1_555
Sb0 Sc3 2.863411 1_555
Sb0 Sr6 3.390185 1_556
Sb0 Sr6 3.390185 1_656
Sb0 Sr11 3.434516 1_555
Sb0 Sr11 3.434516 1_655
Sb0 Sr0 3.534455 1_655
Sb0 Sr0 3.534455 1_555
Sb1 Sc0 2.866321 1_555
Sb1 Sr8 3.316716 1_555
Sb1 Sr8 3.316716 1_455
Sb1 Sr0 3.351046 1_554
Sb1 Sr1 3.371201 1_445
Sb1 Sr1 3.371201 1_545
Sb1 Sr6 3.685543 1_555
Sb2 Sc1 2.862309 1_555
Sb2 Sr9 3.314620 1_655
Sb2 Sr9 3.314620 1_555
Sb2 Sr1 3.343929 1_556
Sb2 Sr0 3.385044 1_665
Sb2 Sr0 3.385044 1_565
Sb2 Sr7 3.710119 1_555
Sb3 Sc2 2.870544 1_555
Sb3 Sr10 3.314447 1_455
Sb3 Sr10 3.314447 1_555
Sb3 Sr2 3.358049 1_555
Sb3 Sr3 3.369563 1_555
Sb3 Sr3 3.369563 1_455
Sb3 Sr4 3.697151 1_555
Sb4 Sc3 2.864943 1_555
Sb4 Sr11 3.319465 1_655
Sb4 Sr11 3.319465 1_555
Sb4 Sr3 3.354586 1_555
Sb4 Sr2 3.372449 1_555
Sb4 Sr2 3.372449 1_655
Sb4 Sr5 3.678513 1_555
Sb5 Sc1 2.880650 1_445
Sb5 Sc1 2.880650 1_545
Sb5 Sr11 3.319971 1_555
Sb5 Sr4 3.475706 1_545
Sb5 Sr5 3.583556 1_455
Sb5 Sr5 3.583556 1_555
Sb5 Sr0 3.805820 1_555
Sb6 Sc0 2.879211 1_565
Sb6 Sc0 2.879211 1_665
Sb6 Sr10 3.323894 1_555
Sb6 Sr5 3.475726 1_565
Sb6 Sr4 3.585775 1_655
Sb6 Sr4 3.585775 1_555
Sb6 Sr1 3.824029 1_555
Sb7 Sc3 2.881024 1_555
Sb7 Sc3 2.881024 1_455
Sb7 Sr9 3.326171 1_555
Sb7 Sr6 3.469067 1_556
Sb7 Sr7 3.586100 1_455
Sb7 Sr7 3.586100 1_555
Sb7 Sr2 3.808391 1_555
Sb8 Sc2 2.879770 1_655
Sb8 Sc2 2.879770 1_555
Sb8 Sr8 3.316039 1_555
Sb8 Sr7 3.464776 1_554
Sb8 Sr6 3.601277 1_655
Sb8 Sr6 3.601277 1_555
Sb8 Sr3 3.834639 1_555
