# generated using pymatgen
data_Sc12Co4SnIr
_symmetry_space_group_name_H-M   'P 1'
_cell_length_a   7.70722688
_cell_length_b   7.70722692
_cell_length_c   7.70722701
_cell_angle_alpha   111.15916797
_cell_angle_beta   110.89918413
_cell_angle_gamma   106.39843727
_symmetry_Int_Tables_number   1
_chemical_formula_structural   Sc12Co4SnIr
_chemical_formula_sum   'Sc12 Co4 Sn1 Ir1'
_cell_volume   351.67275775
_cell_formula_units_Z   1
loop_
 _symmetry_equiv_pos_site_id
 _symmetry_equiv_pos_as_xyz
  1  'x, y, z'
loop_
 _atom_site_type_symbol
 _atom_site_label
 _atom_site_symmetry_multiplicity
 _atom_site_fract_x
 _atom_site_fract_y
 _atom_site_fract_z
 _atom_site_occupancy
  Sc  Sc0  1  0.42356840  0.22363966  0.19992873  1
  Sc  Sc1  1  0.57643160  0.77636034  0.80007127  1
  Sc  Sc2  1  0.02371193  0.22363966  0.80007127  1
  Sc  Sc3  1  0.97628807  0.77636034  0.19992873  1
  Sc  Sc4  1  0.31288908  0.61655803  0.30366794  1
  Sc  Sc5  1  0.68711092  0.38344197  0.69633206  1
  Sc  Sc6  1  0.31288908  0.00922014  0.69633206  1
  Sc  Sc7  1  0.68711092  0.99077986  0.30366794  1
  Sc  Sc8  1  0.18449875  0.27739362  0.46189236  1
  Sc  Sc9  1  0.81550125  0.72260538  0.53810764  1
  Sc  Sc10  1  0.18449875  0.72260538  0.90710613  1
  Sc  Sc11  1  0.81550125  0.27739362  0.09289387  1
  Co  Co0  1  0.36787938  0.00000000  0.36787938  1
  Co  Co1  1  0.63212062  1.00000000  0.63212062  1
  Co  Co2  1  0.11583837  0.61583837  0.50000000  1
  Co  Co3  1  0.88416163  0.38416163  0.50000000  1
  Sn  Sn0  1  0.50000000  0.50000000  0.00000000  1
  Ir  Ir0  1  0.00000000  0.00000000  0.00000000  1
loop_
_geom_bond_atom_site_label_1
_geom_bond_atom_site_label_2
_geom_bond_distance
_geom_bond_site_symmetry_2
Sc0 Sn0 3.093007 1_555
Sc0 Sc7 3.149837 1_545
Sc0 Sc5 3.149845 1_555
Sc0 Sc8 3.181886 1_555
Sc0 Sc10 3.181892 1_544
Sc0 Sc6 3.276395 1_554
Sc0 Sc4 3.276402 1_555
Sc0 Sc9 3.360773 1_555
Sc0 Sc11 3.360783 1_555
Sc0 Sc2 3.495556 1_554
Sc1 Sn0 3.093007 1_556
Sc1 Sc6 3.149837 1_565
Sc1 Sc4 3.149845 1_555
Sc1 Sc11 3.181886 1_566
Sc1 Sc9 3.181887 1_555
Sc1 Sc7 3.276395 1_556
Sc1 Sc5 3.276402 1_555
Sc1 Sc8 3.360778 1_555
Sc1 Sc10 3.360782 1_555
Sc1 Sc3 3.495556 1_556
Sc2 Sn0 3.093000 1_556
Sc2 Sc5 3.149845 1_455
Sc2 Sc7 3.149846 1_445
Sc2 Sc9 3.181892 1_445
Sc2 Sc6 3.276393 1_555
Sc2 Sc4 3.276398 1_556
Sc2 Sc8 3.360773 1_555
Sc3 Sn0 3.093000 1_555
Sc3 Sc4 3.149845 1_655
Sc3 Sc6 3.149846 1_665
Sc3 Sc8 3.181886 1_665
Sc3 Sc7 3.276393 1_555
Sc3 Sc5 3.276398 1_554
Sc3 Sc9 3.360776 1_555
Sc4 Sn0 3.160059 1_555
Sc4 Sc8 3.316786 1_555
Sc4 Sc9 3.330345 1_555
Sc5 Sn0 3.160059 1_556
Sc5 Sc9 3.316780 1_555
Sc5 Sc8 3.330343 1_555
Sc6 Sn0 3.160064 1_556
Sc6 Sc9 3.316780 1_445
Sc6 Sc8 3.330348 1_555
Sc7 Sn0 3.160064 1_555
Sc7 Sc8 3.316778 1_665
Sc7 Sc9 3.330355 1_555
Sc8 Sn0 3.371840 1_556
Sc9 Sn0 3.371841 1_555
Sc10 Sc3 3.181886 1_456
Sc10 Sc9 3.225786 1_455
Sc10 Sc5 3.316778 1_455
Sc10 Sc6 3.316786 1_565
Sc10 Sc4 3.330324 1_556
Sc10 Sc7 3.330338 1_556
Sc10 Sc2 3.360769 1_555
Sc10 Sn0 3.371832 1_556
Sc11 Sc2 3.181886 1_654
Sc11 Sc8 3.225786 1_655
Sc11 Sc4 3.316780 1_655
Sc11 Sc7 3.316780 1_545
Sc11 Sc5 3.330329 1_554
Sc11 Sc6 3.330338 1_554
Sc11 Sc3 3.360776 1_555
Sc11 Sn0 3.371839 1_555
Co0 Co1 2.310001 1_545
Co0 Sc0 2.533789 1_555
Co0 Sc3 2.533796 1_445
Co0 Sc4 2.691747 1_545
Co0 Sc5 2.691751 1_555
Co0 Sc7 2.691753 1_545
Co0 Sc6 2.691757 1_555
Co0 Sc10 2.900304 1_544
Co0 Sc8 2.900309 1_555
Co1 Sc1 2.533789 1_555
Co1 Sc2 2.533796 1_665
Co1 Sc5 2.691747 1_565
Co1 Sc4 2.691751 1_555
Co1 Sc6 2.691753 1_565
Co1 Sc7 2.691757 1_555
Co1 Sc11 2.900302 1_566
Co1 Sc9 2.900315 1_555
Co2 Co3 2.139254 1_455
Co2 Sc6 2.497411 1_565
Co2 Sc4 2.497417 1_555
Co2 Sc9 2.739998 1_455
Co2 Sc8 2.740002 1_555
Co2 Sc11 2.740006 1_455
Co2 Sc10 2.740011 1_555
Co2 Sc1 3.013025 1_555
Co2 Sc3 3.013026 1_455
Co3 Sc7 2.497411 1_545
Co3 Sc5 2.497417 1_555
Co3 Sc9 2.739995 1_555
Co3 Sc8 2.740002 1_655
Co3 Sc10 2.740004 1_655
Co3 Sc11 2.740010 1_555
Co3 Sc0 3.013025 1_555
Co3 Sc2 3.013026 1_655
Ir0 Sc0 2.705389 1_555
Ir0 Sc1 2.705389 1_444
Ir0 Sc3 2.705390 1_445
Ir0 Sc2 2.705390 1_554
Ir0 Sc11 2.905722 1_455
Ir0 Sc8 2.905723 1_555
Ir0 Sc9 2.905724 1_444
Ir0 Sc10 2.905728 1_544
