# generated using pymatgen
data_Ti3Ga2PtC
_symmetry_space_group_name_H-M   'P 1'
_cell_length_a   8.18864960
_cell_length_b   8.18865022
_cell_length_c   8.18864928
_cell_angle_alpha   59.99999982
_cell_angle_beta   59.99999730
_cell_angle_gamma   60.00000302
_symmetry_Int_Tables_number   1
_chemical_formula_structural   Ti3Ga2PtC
_chemical_formula_sum   'Ti12 Ga8 Pt4 C4'
_cell_volume   388.25931266
_cell_formula_units_Z   4
loop_
 _symmetry_equiv_pos_site_id
 _symmetry_equiv_pos_as_xyz
  1  'x, y, z'
loop_
 _atom_site_type_symbol
 _atom_site_label
 _atom_site_symmetry_multiplicity
 _atom_site_fract_x
 _atom_site_fract_y
 _atom_site_fract_z
 _atom_site_occupancy
  Ti  Ti0  1  0.93628659  0.93628659  0.56371341  1
  Ti  Ti1  1  0.68628659  0.31371341  0.31371341  1
  Ti  Ti2  1  0.31371341  0.68628659  0.68628659  1
  Ti  Ti3  1  0.68628659  0.68628659  0.31371341  1
  Ti  Ti4  1  0.68628659  0.31371341  0.68628659  1
  Ti  Ti5  1  0.31371341  0.68628659  0.31371341  1
  Ti  Ti6  1  0.56371341  0.93628659  0.56371341  1
  Ti  Ti7  1  0.56371341  0.93628659  0.93628659  1
  Ti  Ti8  1  0.93628659  0.56371341  0.56371341  1
  Ti  Ti9  1  0.93628659  0.56371341  0.93628659  1
  Ti  Ti10  1  0.31371341  0.31371341  0.68628659  1
  Ti  Ti11  1  0.56371341  0.56371341  0.93628659  1
  Ga  Ga0  1  0.91152442  0.26542575  0.91152442  1
  Ga  Ga1  1  0.33847558  0.33847558  0.98457425  1
  Ga  Ga2  1  0.98457425  0.33847558  0.33847558  1
  Ga  Ga3  1  0.33847558  0.33847558  0.33847558  1
  Ga  Ga4  1  0.26542575  0.91152442  0.91152442  1
  Ga  Ga5  1  0.91152442  0.91152442  0.91152442  1
  Ga  Ga6  1  0.91152442  0.91152442  0.26542575  1
  Ga  Ga7  1  0.33847558  0.98457425  0.33847558  1
  Pt  Pt0  1  0.12500000  0.62500000  0.12500000  1
  Pt  Pt1  1  0.12500000  0.12500000  0.62500000  1
  Pt  Pt2  1  0.62500000  0.12500000  0.12500000  1
  Pt  Pt3  1  0.12500000  0.12500000  0.12500000  1
  C  C0  1  0.62500000  0.12500000  0.62500000  1
  C  C1  1  0.62500000  0.62500000  0.12500000  1
  C  C2  1  0.12500000  0.62500000  0.62500000  1
  C  C3  1  0.62500000  0.62500000  0.62500000  1
loop_
_geom_bond_atom_site_label_1
_geom_bond_atom_site_label_2
_geom_bond_distance
_geom_bond_site_symmetry_2
Ga0 Pt2 2.543488 1_556
Ga0 Pt1 2.543488 1_655
Ga0 Pt3 2.543494 1_656
Ga0 Ti8 2.660834 1_555
Ga0 Ti11 2.660834 1_555
Ga0 Ti9 2.660839 1_555
Ga1 Pt2 2.543488 1_556
Ga1 Pt0 2.543488 1_556
Ga1 Pt3 2.543494 1_556
Ga1 Ti4 2.660834 1_555
Ga1 Ti2 2.660834 1_555
Ga1 Ti10 2.660839 1_555
Ga2 Pt1 2.543488 1_655
Ga2 Pt0 2.543488 1_655
Ga2 Pt3 2.543494 1_655
Ga2 Ti4 2.660834 1_555
Ga2 Ti3 2.660835 1_555
Ga2 Ti1 2.660839 1_555
Ga3 Pt1 2.543492 1_555
Ga3 Pt2 2.543492 1_555
Ga3 Pt0 2.543493 1_555
Ga3 Ti10 2.660831 1_555
Ga3 Ti1 2.660831 1_555
Ga3 Ti5 2.660831 1_555
Ga4 Pt1 2.543488 1_565
Ga4 Pt0 2.543488 1_556
Ga4 Pt3 2.543494 1_566
Ga4 Ti6 2.660834 1_555
Ga4 Ti11 2.660835 1_555
Ga4 Ti7 2.660839 1_555
Ga5 Pt1 2.543492 1_665
Ga5 Pt2 2.543492 1_566
Ga5 Pt0 2.543493 1_656
Ga5 Ti0 2.660831 1_555
Ga5 Ti7 2.660831 1_555
Ga5 Ti9 2.660831 1_555
Ga6 Pt2 2.543488 1_565
Ga6 Pt0 2.543488 1_655
Ga6 Pt3 2.543494 1_665
Ga6 Ti6 2.660834 1_555
Ga6 Ti8 2.660834 1_555
Ga6 Ti0 2.660839 1_555
Ga7 Pt2 2.543488 1_565
Ga7 Pt1 2.543488 1_565
Ga7 Pt3 2.543494 1_565
Ga7 Ti2 2.660834 1_555
Ga7 Ti3 2.660834 1_555
Ga7 Ti5 2.660839 1_555
Pt0 Ti8 2.994466 1_455
Pt0 Ti2 2.994466 1_554
Pt0 Ti11 2.994466 1_554
Pt0 Ti3 2.994466 1_455
Pt0 Ti5 2.994466 1_555
Pt0 Ti9 2.994466 1_454
Pt1 Ti10 2.994466 1_555
Pt1 Ti0 2.994466 1_445
Pt1 Ti6 2.994466 1_545
Pt1 Ti4 2.994466 1_455
Pt1 Ti8 2.994467 1_455
Pt1 Ti2 2.994467 1_545
Pt2 Ti6 2.994466 1_545
Pt2 Ti4 2.994466 1_554
Pt2 Ti1 2.994466 1_555
Pt2 Ti7 2.994466 1_544
Pt2 Ti11 2.994466 1_554
Pt2 Ti3 2.994466 1_545
Pt3 Ti0 2.994466 1_445
Pt3 Ti10 2.994466 1_554
Pt3 Ti7 2.994466 1_544
Pt3 Ti1 2.994466 1_455
Pt3 Ti9 2.994466 1_454
Pt3 Ti5 2.994466 1_545
C0 Ti7 2.166700 1_545
C0 Ti1 2.166700 1_555
C0 Ti4 2.166700 1_555
C0 Ti6 2.166700 1_545
C0 Ti0 2.166700 1_545
C0 Ti10 2.166700 1_555
C1 Ti9 2.166700 1_554
C1 Ti5 2.166700 1_555
C1 Ti3 2.166700 1_555
C1 Ti11 2.166700 1_554
C1 Ti7 2.166700 1_554
C1 Ti1 2.166700 1_555
C2 Ti9 2.166700 1_455
C2 Ti5 2.166700 1_555
C2 Ti2 2.166700 1_555
C2 Ti8 2.166700 1_455
C2 Ti0 2.166700 1_455
C2 Ti10 2.166700 1_555
C3 Ti11 2.166700 1_555
C3 Ti3 2.166700 1_555
C3 Ti8 2.166700 1_555
C3 Ti2 2.166700 1_555
C3 Ti6 2.166700 1_555
C3 Ti4 2.166700 1_555
