# generated using pymatgen
data_KV(Sb4Pd)3
_symmetry_space_group_name_H-M   'P 1'
_cell_length_a   8.28967963
_cell_length_b   8.24869606
_cell_length_c   8.28967989
_cell_angle_alpha   109.37110341
_cell_angle_beta   109.57116479
_cell_angle_gamma   109.37109337
_symmetry_Int_Tables_number   1
_chemical_formula_structural   KV(Sb4Pd)3
_chemical_formula_sum   'K1 V1 Sb12 Pd3'
_cell_volume   436.89192522
_cell_formula_units_Z   1
loop_
 _symmetry_equiv_pos_site_id
 _symmetry_equiv_pos_as_xyz
  1  'x, y, z'
loop_
 _atom_site_type_symbol
 _atom_site_label
 _atom_site_symmetry_multiplicity
 _atom_site_fract_x
 _atom_site_fract_y
 _atom_site_fract_z
 _atom_site_occupancy
  K  K0  1  0.00000000  0.00000000  0.00000000  1
  V  V0  1  0.00000000  0.50000000  0.00000000  1
  Sb  Sb0  1  0.84464324  0.65198571  0.49816577  1
  Sb  Sb1  1  0.15535676  0.34801429  0.50183423  1
  Sb  Sb2  1  0.15395191  0.65434439  0.80831373  1
  Sb  Sb3  1  0.84604809  0.34565561  0.19168627  1
  Sb  Sb4  1  0.65435983  0.50039249  0.84604809  1
  Sb  Sb5  1  0.34564017  0.49960751  0.15395191  1
  Sb  Sb6  1  0.65352354  0.80734547  0.15535676  1
  Sb  Sb7  1  0.34647646  0.19265453  0.84464324  1
  Sb  Sb8  1  0.49816577  0.84618007  0.65352354  1
  Sb  Sb9  1  0.50183423  0.15381993  0.34647646  1
  Sb  Sb10  1  0.19168627  0.84603266  0.34564017  1
  Sb  Sb11  1  0.80831373  0.15396734  0.65435983  1
  Pd  Pd0  1  0.50000000  0.50000000  0.50000000  1
  Pd  Pd1  1  0.50000000  0.00000000  0.00000000  1
  Pd  Pd2  1  0.00000000  0.00000000  0.50000000  1
loop_
_geom_bond_atom_site_label_1
_geom_bond_atom_site_label_2
_geom_bond_distance
_geom_bond_site_symmetry_2
K0 Sb10 3.612486 1_545
K0 Sb11 3.612486 1_454
K0 Sb3 3.612486 1_455
K0 Sb2 3.612486 1_544
K0 Sb5 3.612491 1_555
K0 Sb4 3.612491 1_444
K0 Sb7 3.638865 1_554
K0 Sb6 3.638865 1_445
K0 Sb9 3.638875 1_555
K0 Sb8 3.638875 1_444
K0 Sb1 3.638878 1_555
K0 Sb0 3.638878 1_444
Sb0 Sb3 2.936055 1_555
Sb0 Sb2 2.949949 1_655
Sb1 Sb2 2.936055 1_555
Sb1 Sb3 2.949949 1_455
Sb2 V0 2.719813 1_556
Sb3 V0 2.719813 1_655
Sb4 V0 2.719827 1_656
Sb4 Sb7 2.936064 1_555
Sb4 Sb6 2.949949 1_556
Sb5 V0 2.719827 1_555
Sb5 Sb6 2.936064 1_555
Sb5 Sb7 2.949949 1_554
Sb10 V0 2.719829 1_555
Sb10 Sb8 2.936059 1_555
Sb10 Sb9 2.949954 1_565
Sb11 V0 2.719829 1_656
Sb11 Sb9 2.936059 1_555
Sb11 Sb8 2.949954 1_545
Pd0 Sb5 2.719981 1_555
Pd0 Sb4 2.719981 1_555
Pd0 Sb0 2.720298 1_555
Pd0 Sb1 2.720298 1_555
Pd0 Sb9 2.721207 1_555
Pd0 Sb8 2.721207 1_555
Pd1 Sb3 2.719984 1_555
Pd1 Sb2 2.719984 1_544
Pd1 Sb9 2.720290 1_555
Pd1 Sb8 2.720290 1_544
Pd1 Sb7 2.721188 1_554
Pd1 Sb6 2.721188 1_545
Pd2 Sb11 2.719967 1_455
Pd2 Sb10 2.719967 1_545
Pd2 Sb7 2.720296 1_555
Pd2 Sb6 2.720296 1_445
Pd2 Sb1 2.721206 1_555
Pd2 Sb0 2.721206 1_445
