# generated using pymatgen
data_TcP2PbO8
_symmetry_space_group_name_H-M   'P 1'
_cell_length_a   8.80312913
_cell_length_b   8.80312971
_cell_length_c   8.19555194
_cell_angle_alpha   65.11129303
_cell_angle_beta   65.11129377
_cell_angle_gamma   34.24601042
_symmetry_Int_Tables_number   1
_chemical_formula_structural   TcP2PbO8
_chemical_formula_sum   'Tc2 P4 Pb2 O16'
_cell_volume   320.88674213
_cell_formula_units_Z   2
loop_
 _symmetry_equiv_pos_site_id
 _symmetry_equiv_pos_as_xyz
  1  'x, y, z'
loop_
 _atom_site_type_symbol
 _atom_site_label
 _atom_site_symmetry_multiplicity
 _atom_site_fract_x
 _atom_site_fract_y
 _atom_site_fract_z
 _atom_site_occupancy
  Tc  Tc0  1  0.00000000  0.50000000  0.50000000  1
  Tc  Tc1  1  0.50000000  0.00000000  0.00000000  1
  P  P0  1  0.61896300  0.09259321  0.26014597  1
  P  P1  1  0.90740679  0.38103700  0.23985403  1
  P  P2  1  0.38103700  0.90740679  0.73985403  1
  P  P3  1  0.09259321  0.61896300  0.76014597  1
  Pb  Pb0  1  0.66453071  0.33546929  0.75000000  1
  Pb  Pb1  1  0.33546929  0.66453071  0.25000000  1
  O  O0  1  0.38245446  0.28619161  0.40632970  1
  O  O1  1  0.71380839  0.61754554  0.09367030  1
  O  O2  1  0.61754554  0.71380839  0.59367030  1
  O  O3  1  0.28619161  0.38245446  0.90632970  1
  O  O4  1  0.65735394  0.23771256  0.11134755  1
  O  O5  1  0.76228744  0.34264606  0.38865245  1
  O  O6  1  0.34264606  0.76228744  0.88865245  1
  O  O7  1  0.23771256  0.65735394  0.61134755  1
  O  O8  1  0.88151941  0.82972602  0.35178023  1
  O  O9  1  0.17027398  0.11848059  0.14821977  1
  O  O10  1  0.11848059  0.17027398  0.64821977  1
  O  O11  1  0.82972602  0.88151941  0.85178023  1
  O  O12  1  0.55351171  0.00980943  0.20209319  1
  O  O13  1  0.99019057  0.44648829  0.29790681  1
  O  O14  1  0.44648829  0.99019057  0.79790681  1
  O  O15  1  0.00980943  0.55351171  0.70209319  1
loop_
_geom_bond_atom_site_label_1
_geom_bond_atom_site_label_2
_geom_bond_distance
_geom_bond_site_symmetry_2
O0 P0 1.558030 1_555
O0 Tc0 2.007830 1_555
O0 Pb1 2.735341 1_555
O1 P1 1.558030 1_555
O1 Tc1 2.007830 1_565
O1 Pb1 2.735341 1_555
O2 P2 1.558030 1_555
O2 Tc0 2.007830 1_655
O2 Pb0 2.735341 1_555
O3 P3 1.558030 1_555
O3 Tc1 2.007830 1_556
O3 Pb0 2.735341 1_555
O4 P0 1.512931 1_555
O4 Pb1 2.592251 1_555
O4 Pb0 2.702219 1_554
O5 P1 1.512931 1_555
O5 Pb1 2.592251 1_555
O5 Pb0 2.702219 1_555
O6 P2 1.512931 1_555
O6 Pb0 2.592251 1_555
O6 Pb1 2.702219 1_556
O7 P3 1.512931 1_555
O7 Pb0 2.592251 1_555
O7 Pb1 2.702219 1_555
O8 P0 1.554614 1_565
O8 Tc0 2.020428 1_655
O8 Pb1 2.718014 1_655
O9 P1 1.554614 1_455
O9 Tc1 2.020428 1_555
O9 Pb1 2.718014 1_545
O10 P2 1.554614 1_545
O10 Tc0 2.020428 1_555
O10 Pb0 2.718014 1_455
O11 P3 1.554614 1_655
O11 Tc1 2.020428 1_566
O11 Pb0 2.718014 1_565
O12 P0 1.518617 1_555
O12 Tc1 1.953698 1_555
O13 P1 1.518617 1_555
O13 Tc0 1.953698 1_655
O14 P2 1.518617 1_555
O14 Tc1 1.953698 1_566
O15 P3 1.518617 1_555
O15 Tc0 1.953698 1_555
