# generated using pymatgen
data_V3Ge(SeO3)8
_symmetry_space_group_name_H-M   'P 1'
_cell_length_a   7.90754866
_cell_length_b   7.90754866
_cell_length_c   7.90754866
_cell_angle_alpha   89.42348101
_cell_angle_beta   90.57651899
_cell_angle_gamma   90.57651899
_symmetry_Int_Tables_number   1
_chemical_formula_structural   V3Ge(SeO3)8
_chemical_formula_sum   'V3 Ge1 Se8 O24'
_cell_volume   494.37909508
_cell_formula_units_Z   1
loop_
 _symmetry_equiv_pos_site_id
 _symmetry_equiv_pos_as_xyz
  1  'x, y, z'
loop_
 _atom_site_type_symbol
 _atom_site_label
 _atom_site_symmetry_multiplicity
 _atom_site_fract_x
 _atom_site_fract_y
 _atom_site_fract_z
 _atom_site_occupancy
  V  V0  1  0.50000000  0.50000000  0.50000000  1
  V  V1  1  0.50000000  0.00000000  0.00000000  1
  V  V2  1  0.00000000  0.50000000  0.00000000  1
  Ge  Ge0  1  0.00000000  0.00000000  0.50000000  1
  Se  Se0  1  0.83962819  0.68069281  0.32075783  1
  Se  Se1  1  0.17924217  0.16037181  0.18069281  1
  Se  Se2  1  0.67279402  0.32720598  0.82720598  1
  Se  Se3  1  0.31930719  0.82075783  0.66037181  1
  Se  Se4  1  0.16037181  0.31930719  0.67924217  1
  Se  Se5  1  0.82075783  0.83962819  0.81930719  1
  Se  Se6  1  0.32720598  0.67279402  0.17279402  1
  Se  Se7  1  0.68069281  0.17924217  0.33962819  1
  O  O0  1  0.73421962  0.53660610  0.44289598  1
  O  O1  1  0.26176574  0.01521191  0.04353766  1
  O  O2  1  0.76496051  0.43305541  0.99386272  1
  O  O3  1  0.23601402  0.97466016  0.52858822  1
  O  O4  1  0.45646234  0.73823426  0.51521191  1
  O  O5  1  0.05710402  0.26578038  0.03660610  1
  O  O6  1  0.97141178  0.76398598  0.47466016  1
  O  O7  1  0.50613728  0.23503949  0.93305541  1
  O  O8  1  0.56694459  0.49386272  0.73503949  1
  O  O9  1  0.02533984  0.02858822  0.26398598  1
  O  O10  1  0.46339390  0.94289598  0.76578038  1
  O  O11  1  0.98478809  0.54353766  0.23823426  1
  O  O12  1  0.26578038  0.46339390  0.55710402  1
  O  O13  1  0.73823426  0.98478809  0.95646234  1
  O  O14  1  0.23503949  0.56694459  0.00613728  1
  O  O15  1  0.76398598  0.02533984  0.47141178  1
  O  O16  1  0.54353766  0.26176574  0.48478809  1
  O  O17  1  0.94289598  0.73421962  0.96339390  1
  O  O18  1  0.02858822  0.23601402  0.52533984  1
  O  O19  1  0.49386272  0.76496051  0.06694459  1
  O  O20  1  0.43305541  0.50613728  0.26496051  1
  O  O21  1  0.97466016  0.97141178  0.73601402  1
  O  O22  1  0.53660610  0.05710402  0.23421962  1
  O  O23  1  0.01521191  0.45646234  0.76176574  1
loop_
_geom_bond_atom_site_label_1
_geom_bond_atom_site_label_2
_geom_bond_distance
_geom_bond_site_symmetry_2
Ge0 O18 1.890086 1_555
Ge0 O3 1.890086 1_545
Ge0 O21 1.890086 1_445
Ge0 O15 1.890086 1_455
Ge0 O9 1.890086 1_555
Ge0 O6 1.890086 1_445
O0 Se0 1.703136 1_555
O0 V0 1.929089 1_555
O1 Se1 1.724545 1_555
O1 V1 1.923624 1_555
O2 Se2 1.720193 1_555
O2 V2 1.927649 1_656
O3 Se3 1.725577 1_555
O4 Se3 1.724545 1_555
O4 V0 1.923624 1_555
O5 Se1 1.703136 1_555
O5 V2 1.929089 1_555
O6 Se0 1.725577 1_555
O7 Se2 1.720193 1_555
O7 V1 1.927649 1_556
O8 Se2 1.720193 1_555
O8 V0 1.927649 1_555
O9 Se1 1.725577 1_555
O10 Se3 1.703136 1_555
O10 V1 1.929089 1_566
O11 Se0 1.724545 1_555
O11 V2 1.923624 1_655
O12 Se4 1.703136 1_555
O12 V0 1.929089 1_555
O13 Se5 1.724545 1_555
O13 V1 1.923624 1_566
O14 Se6 1.720193 1_555
O14 V2 1.927649 1_555
O15 Se7 1.725577 1_555
O16 Se7 1.724545 1_555
O16 V0 1.923624 1_555
O17 Se5 1.703136 1_555
O17 V2 1.929089 1_656
O18 Se4 1.725577 1_555
O19 Se6 1.720193 1_555
O19 V1 1.927649 1_565
O20 Se6 1.720193 1_555
O20 V0 1.927649 1_555
O21 Se5 1.725577 1_555
O22 Se7 1.703136 1_555
O22 V1 1.929089 1_555
O23 Se4 1.724545 1_555
O23 V2 1.923624 1_556
