# generated using pymatgen
data_Hf6Zn16Cu7Ge
_symmetry_space_group_name_H-M   'P 1'
_cell_length_a   8.52201453
_cell_length_b   8.52201482
_cell_length_c   8.52201465
_cell_angle_alpha   60.00000066
_cell_angle_beta   59.99999954
_cell_angle_gamma   60.00000298
_symmetry_Int_Tables_number   1
_chemical_formula_structural   Hf6Zn16Cu7Ge
_chemical_formula_sum   'Hf6 Zn16 Cu7 Ge1'
_cell_volume   437.63479485
_cell_formula_units_Z   1
loop_
 _symmetry_equiv_pos_site_id
 _symmetry_equiv_pos_as_xyz
  1  'x, y, z'
loop_
 _atom_site_type_symbol
 _atom_site_label
 _atom_site_symmetry_multiplicity
 _atom_site_fract_x
 _atom_site_fract_y
 _atom_site_fract_z
 _atom_site_occupancy
  Hf  Hf0  1  0.71386350  0.28613650  0.28613650  1
  Hf  Hf1  1  0.28613650  0.71386350  0.71386350  1
  Hf  Hf2  1  0.28613650  0.71386350  0.28613650  1
  Hf  Hf3  1  0.71386350  0.28613650  0.71386350  1
  Hf  Hf4  1  0.28613650  0.28613650  0.71386350  1
  Hf  Hf5  1  0.71386350  0.71386350  0.28613650  1
  Zn  Zn0  1  0.12226182  0.12226182  0.12226182  1
  Zn  Zn1  1  0.87773818  0.87773818  0.87773818  1
  Zn  Zn2  1  0.12226182  0.12226182  0.63321353  1
  Zn  Zn3  1  0.12226182  0.63321353  0.12226182  1
  Zn  Zn4  1  0.87773818  0.87773818  0.36678647  1
  Zn  Zn5  1  0.87773818  0.36678647  0.87773818  1
  Zn  Zn6  1  0.63321353  0.12226182  0.12226182  1
  Zn  Zn7  1  0.36678647  0.87773818  0.87773818  1
  Zn  Zn8  1  0.33498038  0.33498038  0.33498038  1
  Zn  Zn9  1  0.66501962  0.66501962  0.66501962  1
  Zn  Zn10  1  0.33498038  0.33498038  0.99505787  1
  Zn  Zn11  1  0.33498038  0.99505787  0.33498038  1
  Zn  Zn12  1  0.66501962  0.66501962  0.00494213  1
  Zn  Zn13  1  0.66501962  0.00494213  0.66501962  1
  Zn  Zn14  1  0.99505787  0.33498038  0.33498038  1
  Zn  Zn15  1  0.00494213  0.66501962  0.66501962  1
  Cu  Cu0  1  0.50000000  0.00000000  0.00000000  1
  Cu  Cu1  1  0.00000000  0.50000000  0.50000000  1
  Cu  Cu2  1  0.00000000  0.50000000  0.00000000  1
  Cu  Cu3  1  0.50000000  0.00000000  0.50000000  1
  Cu  Cu4  1  0.00000000  0.00000000  0.50000000  1
  Cu  Cu5  1  0.50000000  0.50000000  0.00000000  1
  Cu  Cu6  1  0.00000000  0.00000000  0.00000000  1
  Ge  Ge0  1  0.50000000  0.50000000  0.50000000  1
loop_
_geom_bond_atom_site_label_1
_geom_bond_atom_site_label_2
_geom_bond_distance
_geom_bond_site_symmetry_2
Hf0 Zn5 2.871066 1_554
Hf0 Zn4 2.871066 1_545
Hf0 Zn0 2.871067 1_655
Hf0 Zn6 2.871073 1_555
Hf0 Zn14 2.873533 1_555
Hf0 Zn13 2.873538 1_555
Hf0 Zn12 2.873539 1_555
Hf0 Zn8 2.873541 1_555
Hf1 Zn3 2.871066 1_556
Hf1 Zn2 2.871066 1_565
Hf1 Zn1 2.871067 1_455
Hf1 Zn7 2.871073 1_555
Hf1 Zn15 2.873533 1_555
Hf1 Zn11 2.873538 1_555
Hf1 Zn10 2.873539 1_555
Hf1 Zn9 2.873541 1_555
Hf2 Zn7 2.871066 1_554
Hf2 Zn4 2.871066 1_455
Hf2 Zn0 2.871067 1_565
Hf2 Zn3 2.871073 1_555
Hf2 Zn11 2.873533 1_555
Hf2 Zn15 2.873538 1_555
Hf2 Zn12 2.873538 1_555
Hf2 Zn8 2.873541 1_555
Hf3 Zn6 2.871066 1_556
Hf3 Zn2 2.871066 1_655
Hf3 Zn1 2.871067 1_545
Hf3 Zn5 2.871073 1_555
Hf3 Zn13 2.873533 1_555
Hf3 Zn14 2.873538 1_555
Hf3 Zn10 2.873538 1_555
Hf3 Zn9 2.873541 1_555
Hf4 Zn5 2.871066 1_455
Hf4 Zn7 2.871066 1_545
Hf4 Zn0 2.871067 1_556
Hf4 Zn2 2.871073 1_555
Hf4 Zn10 2.873533 1_555
Hf4 Zn13 2.873539 1_555
Hf4 Zn15 2.873539 1_555
Hf4 Zn8 2.873541 1_555
Hf5 Zn3 2.871066 1_655
Hf5 Zn6 2.871066 1_565
Hf5 Zn1 2.871067 1_554
Hf5 Zn4 2.871073 1_555
Hf5 Zn12 2.873533 1_555
Hf5 Zn11 2.873539 1_555
Hf5 Zn14 2.873539 1_555
Hf5 Zn9 2.873541 1_555
Zn0 Zn10 2.665240 1_554
Zn0 Zn11 2.665240 1_545
Zn0 Zn14 2.665240 1_455
Zn0 Zn4 2.946986 1_445
Zn0 Zn7 2.946987 1_544
Zn0 Zn5 2.946987 1_454
Zn1 Zn12 2.665240 1_556
Zn1 Zn13 2.665240 1_565
Zn1 Zn15 2.665240 1_655
Zn1 Zn2 2.946986 1_665
Zn1 Zn6 2.946987 1_566
Zn1 Zn3 2.946987 1_656
Zn2 Zn8 2.665240 1_555
Zn2 Zn7 2.946999 1_545
Zn2 Zn5 2.946999 1_455
Zn3 Zn8 2.665240 1_555
Zn3 Zn7 2.946998 1_554
Zn3 Zn4 2.946999 1_455
Zn4 Zn9 2.665240 1_555
Zn4 Zn6 2.946999 1_565
Zn5 Zn9 2.665240 1_555
Zn5 Zn6 2.946998 1_556
Zn6 Zn8 2.665240 1_555
Zn7 Zn9 2.665240 1_555
Zn10 Zn6 2.665240 1_556
Zn10 Zn3 2.665240 1_556
Zn11 Zn6 2.665240 1_565
Zn11 Zn2 2.665240 1_565
Zn12 Zn7 2.665240 1_554
Zn12 Zn5 2.665240 1_554
Zn13 Zn7 2.665240 1_545
Zn13 Zn4 2.665240 1_545
Zn14 Zn3 2.665240 1_655
Zn14 Zn2 2.665240 1_655
Zn15 Zn5 2.665240 1_455
Zn15 Zn4 2.665240 1_455
Cu0 Zn11 2.460332 1_545
Cu0 Zn13 2.460332 1_554
Cu0 Zn10 2.460332 1_554
Cu0 Zn12 2.460332 1_545
Cu0 Zn6 2.628922 1_555
Cu0 Zn7 2.628922 1_544
Cu0 Zn1 2.628929 1_544
Cu0 Zn0 2.628929 1_555
Cu0 Hf3 3.044300 1_554
Cu0 Hf2 3.044300 1_545
Cu0 Hf5 3.044301 1_545
Cu0 Hf4 3.044301 1_554
Cu1 Zn8 2.460334 1_555
Cu1 Zn9 2.460334 1_455
Cu1 Zn15 2.460339 1_555
Cu1 Zn14 2.460339 1_455
Cu1 Zn5 2.628928 1_455
Cu1 Zn3 2.628928 1_555
Cu1 Zn4 2.628929 1_455
Cu1 Zn2 2.628929 1_555
Cu1 Hf2 3.044300 1_555
Cu1 Hf3 3.044300 1_455
Cu1 Hf4 3.044300 1_555
Cu1 Hf5 3.044300 1_455
Cu2 Zn14 2.460332 1_455
Cu2 Zn15 2.460332 1_554
Cu2 Zn10 2.460332 1_554
Cu2 Zn12 2.460332 1_455
Cu2 Zn3 2.628922 1_555
Cu2 Zn5 2.628922 1_454
Cu2 Zn1 2.628929 1_454
Cu2 Zn0 2.628929 1_555
Cu2 Hf1 3.044300 1_554
Cu2 Hf0 3.044300 1_455
Cu2 Hf5 3.044300 1_455
Cu2 Hf4 3.044300 1_554
Cu3 Zn9 2.460334 1_545
Cu3 Zn8 2.460334 1_555
Cu3 Zn13 2.460339 1_555
Cu3 Zn11 2.460339 1_545
Cu3 Zn7 2.628928 1_545
Cu3 Zn6 2.628928 1_555
Cu3 Zn4 2.628928 1_545
Cu3 Zn2 2.628928 1_555
Cu3 Hf0 3.044300 1_555
Cu3 Hf1 3.044300 1_545
Cu3 Hf4 3.044301 1_555
Cu3 Hf5 3.044301 1_545
Cu4 Zn11 2.460332 1_545
Cu4 Zn13 2.460332 1_455
Cu4 Zn14 2.460332 1_455
Cu4 Zn15 2.460332 1_545
Cu4 Zn2 2.628922 1_555
Cu4 Zn4 2.628922 1_445
Cu4 Zn1 2.628929 1_445
Cu4 Zn0 2.628929 1_555
Cu4 Hf1 3.044301 1_545
Cu4 Hf3 3.044301 1_455
Cu4 Hf2 3.044301 1_545
Cu4 Hf0 3.044301 1_455
Cu5 Zn8 2.460334 1_555
Cu5 Zn9 2.460334 1_554
Cu5 Zn12 2.460339 1_555
Cu5 Zn10 2.460339 1_554
Cu5 Zn5 2.628928 1_554
Cu5 Zn3 2.628928 1_555
Cu5 Zn7 2.628929 1_554
Cu5 Zn6 2.628929 1_555
Cu5 Hf2 3.044300 1_555
Cu5 Hf0 3.044300 1_555
Cu5 Hf1 3.044300 1_554
Cu5 Hf3 3.044300 1_554
Cu6 Zn0 2.552165 1_555
Cu6 Zn1 2.552165 1_444
Cu6 Zn4 2.552172 1_445
Cu6 Zn2 2.552172 1_554
Cu6 Zn7 2.552172 1_544
Cu6 Zn6 2.552172 1_455
Cu6 Zn5 2.552172 1_454
Cu6 Zn3 2.552172 1_545
Ge0 Hf5 2.577472 1_555
Ge0 Hf4 2.577472 1_555
Ge0 Hf1 2.577472 1_555
Ge0 Hf3 2.577472 1_555
Ge0 Hf2 2.577472 1_555
Ge0 Hf0 2.577472 1_555
