# generated using pymatgen
data_Ba4ScTcO8
_symmetry_space_group_name_H-M   'P 1'
_cell_length_a   7.34970970
_cell_length_b   7.34970999
_cell_length_c   5.77448481
_cell_angle_alpha   90.00000000
_cell_angle_beta   90.00000000
_cell_angle_gamma   133.78695789
_symmetry_Int_Tables_number   1
_chemical_formula_structural   Ba4ScTcO8
_chemical_formula_sum   'Ba4 Sc1 Tc1 O8'
_cell_volume   225.18598489
_cell_formula_units_Z   1
loop_
 _symmetry_equiv_pos_site_id
 _symmetry_equiv_pos_as_xyz
  1  'x, y, z'
loop_
 _atom_site_type_symbol
 _atom_site_label
 _atom_site_symmetry_multiplicity
 _atom_site_fract_x
 _atom_site_fract_y
 _atom_site_fract_z
 _atom_site_occupancy
  Ba  Ba0  1  0.35358615  0.64641385  0.00000000  1
  Ba  Ba1  1  0.85390971  0.14609029  0.50000000  1
  Ba  Ba2  1  0.14609029  0.85390971  0.50000000  1
  Ba  Ba3  1  0.64641385  0.35358615  0.00000000  1
  Sc  Sc0  1  0.00000000  0.00000000  0.00000000  1
  Tc  Tc0  1  0.50000000  0.50000000  0.50000000  1
  O  O0  1  0.25882539  0.25882539  0.73756438  1
  O  O1  1  0.74117461  0.74117461  0.26243562  1
  O  O2  1  0.74117461  0.74117461  0.73756438  1
  O  O3  1  0.25882539  0.25882539  0.26243562  1
  O  O4  1  0.15663006  0.84336994  0.00000000  1
  O  O5  1  0.64954603  0.35045397  0.50000000  1
  O  O6  1  0.35045397  0.64954603  0.50000000  1
  O  O7  1  0.84336994  0.15663006  0.00000000  1
loop_
_geom_bond_atom_site_label_1
_geom_bond_atom_site_label_2
_geom_bond_distance
_geom_bond_site_symmetry_2
Ba0 O4 2.662883 1_555
Ba0 O1 2.854945 1_555
Ba0 O2 2.854945 1_554
Ba0 O3 2.854945 1_555
Ba0 O0 2.854945 1_554
Ba0 O6 2.887553 1_555
Ba0 O6 2.887553 1_554
Ba0 O7 2.887639 1_455
Ba0 O7 2.887639 1_565
Ba1 O5 2.763035 1_555
Ba1 O0 2.830625 1_655
Ba1 O3 2.830625 1_655
Ba1 O2 2.830625 1_545
Ba1 O1 2.830625 1_545
Ba1 O6 2.884712 1_545
Ba1 O6 2.884712 1_655
Ba1 O7 2.890757 1_556
Ba1 O7 2.890757 1_555
Ba2 O6 2.763035 1_555
Ba2 O2 2.830625 1_455
Ba2 O1 2.830625 1_455
Ba2 O0 2.830625 1_565
Ba2 O3 2.830625 1_565
Ba2 O5 2.884712 1_565
Ba2 O5 2.884712 1_455
Ba2 O4 2.890757 1_556
Ba2 O4 2.890757 1_555
Ba3 O7 2.662883 1_555
Ba3 O3 2.854945 1_555
Ba3 O0 2.854945 1_554
Ba3 O1 2.854945 1_555
Ba3 O2 2.854945 1_554
Ba3 O5 2.887553 1_554
Ba3 O5 2.887553 1_555
Ba3 O4 2.887639 1_655
Ba3 O4 2.887639 1_545
O0 Tc0 1.953832 1_555
O0 Sc0 2.127395 1_556
O1 Tc0 1.953832 1_555
O1 Sc0 2.127395 1_665
O2 Tc0 1.953832 1_555
O2 Sc0 2.127395 1_666
O3 Tc0 1.953832 1_555
O3 Sc0 2.127395 1_555
O4 Sc0 2.117667 1_565
O5 Tc0 2.021890 1_555
O6 Tc0 2.021890 1_555
O7 Sc0 2.117667 1_655
