# generated using pymatgen
data_PtPbCl6
_symmetry_space_group_name_H-M   'P 1'
_cell_length_a   6.47084071
_cell_length_b   6.47084173
_cell_length_c   10.24949570
_cell_angle_alpha   88.10215912
_cell_angle_beta   88.10216126
_cell_angle_gamma   86.77942024
_symmetry_Int_Tables_number   1
_chemical_formula_structural   PtPbCl6
_chemical_formula_sum   'Pt2 Pb2 Cl12'
_cell_volume   428.04170587
_cell_formula_units_Z   2
loop_
 _symmetry_equiv_pos_site_id
 _symmetry_equiv_pos_as_xyz
  1  'x, y, z'
loop_
 _atom_site_type_symbol
 _atom_site_label
 _atom_site_symmetry_multiplicity
 _atom_site_fract_x
 _atom_site_fract_y
 _atom_site_fract_z
 _atom_site_occupancy
  Pt  Pt0  1  0.50000000  0.00000000  0.50000000  1
  Pt  Pt1  1  0.00000000  0.50000000  0.00000000  1
  Pb  Pb0  1  0.07200794  0.92799206  0.75000000  1
  Pb  Pb1  1  0.92799206  0.07200794  0.25000000  1
  Cl  Cl0  1  0.32541172  0.70498963  0.56256012  1
  Cl  Cl1  1  0.67458828  0.29501037  0.43743988  1
  Cl  Cl2  1  0.29501037  0.67458828  0.93743988  1
  Cl  Cl3  1  0.70498963  0.32541172  0.06256012  1
  Cl  Cl4  1  0.51267670  0.07517661  0.72060055  1
  Cl  Cl5  1  0.48732330  0.92482339  0.27939945  1
  Cl  Cl6  1  0.92482339  0.48732330  0.77939945  1
  Cl  Cl7  1  0.07517661  0.51267670  0.22060055  1
  Cl  Cl8  1  0.80974119  0.81589853  0.00621370  1
  Cl  Cl9  1  0.19025881  0.18410147  0.99378630  1
  Cl  Cl10  1  0.18410147  0.19025881  0.49378630  1
  Cl  Cl11  1  0.81589853  0.80974119  0.50621370  1
loop_
_geom_bond_atom_site_label_1
_geom_bond_atom_site_label_2
_geom_bond_distance
_geom_bond_site_symmetry_2
Cl0 Pt0 2.333422 1_565
Cl0 Pb0 2.858496 1_555
Cl1 Pt0 2.333422 1_555
Cl1 Pb1 2.858496 1_555
Cl2 Pt1 2.333422 1_556
Cl2 Pb0 2.858496 1_555
Cl3 Pt1 2.333422 1_655
Cl3 Pb1 2.858496 1_555
Cl4 Pt0 2.333519 1_555
Cl4 Pb0 3.059108 1_545
Cl5 Pt0 2.333519 1_565
Cl5 Pb1 3.059108 1_565
Cl6 Pt1 2.333519 1_656
Cl6 Pb0 3.059109 1_655
Cl7 Pt1 2.333519 1_555
Cl7 Pb1 3.059109 1_455
Cl8 Pt1 2.327848 1_655
Cl8 Pb0 3.165340 1_654
Cl8 Pb1 3.181005 1_565
Cl9 Pt1 2.327848 1_556
Cl9 Pb1 3.165340 1_456
Cl9 Pb0 3.181005 1_545
Cl10 Pt0 2.327848 1_555
Cl10 Pb0 3.165340 1_545
Cl10 Pb1 3.181005 1_455
Cl11 Pt0 2.327848 1_565
Cl11 Pb1 3.165340 1_565
Cl11 Pb0 3.181005 1_655
