# generated using pymatgen
data_CsCaP
_symmetry_space_group_name_H-M   'P 1'
_cell_length_a   5.09283950
_cell_length_b   5.09283950
_cell_length_c   8.11015127
_cell_angle_alpha   90.00000000
_cell_angle_beta   90.00000000
_cell_angle_gamma   90.00000000
_symmetry_Int_Tables_number   1
_chemical_formula_structural   CsCaP
_chemical_formula_sum   'Cs2 Ca2 P2'
_cell_volume   210.35310852
_cell_formula_units_Z   2
loop_
 _symmetry_equiv_pos_site_id
 _symmetry_equiv_pos_as_xyz
  1  'x, y, z'
loop_
 _atom_site_type_symbol
 _atom_site_label
 _atom_site_symmetry_multiplicity
 _atom_site_fract_x
 _atom_site_fract_y
 _atom_site_fract_z
 _atom_site_occupancy
  Cs  Cs0  1  0.00000000  0.50000000  0.62616889  1
  Cs  Cs1  1  0.50000000  0.00000000  0.37383111  1
  Ca  Ca0  1  0.50000000  0.50000000  0.00000000  1
  Ca  Ca1  1  0.00000000  0.00000000  0.00000000  1
  P  P0  1  0.00000000  0.50000000  0.17233206  1
  P  P1  1  0.50000000  0.00000000  0.82766794  1
loop_
_geom_bond_atom_site_label_1
_geom_bond_atom_site_label_2
_geom_bond_distance
_geom_bond_site_symmetry_2
Cs0 P0 3.680685 1_555
Cs0 P1 3.954627 1_455
Cs0 P1 3.954627 1_465
Cs0 P1 3.954627 1_565
Cs0 P1 3.954627 1_555
Cs1 P1 3.680685 1_555
Cs1 P0 3.954627 1_655
Cs1 P0 3.954627 1_545
Cs1 P0 3.954627 1_645
Cs1 P0 3.954627 1_555
Ca0 P0 2.904763 1_655
Ca0 P0 2.904763 1_555
Ca0 P1 2.904763 1_554
Ca0 P1 2.904763 1_564
Ca1 P0 2.904763 1_545
Ca1 P0 2.904763 1_555
Ca1 P1 2.904763 1_554
Ca1 P1 2.904763 1_454
