# generated using pymatgen
data_Li2Hf2TaN5
_symmetry_space_group_name_H-M   'P 1'
_cell_length_a   5.56999389
_cell_length_b   5.56999395
_cell_length_c   9.98375722
_cell_angle_alpha   87.82193063
_cell_angle_beta   87.82193158
_cell_angle_gamma   44.84898583
_symmetry_Int_Tables_number   1
_chemical_formula_structural   Li2Hf2TaN5
_chemical_formula_sum   'Li4 Hf4 Ta2 N10'
_cell_volume   218.25961949
_cell_formula_units_Z   2
loop_
 _symmetry_equiv_pos_site_id
 _symmetry_equiv_pos_as_xyz
  1  'x, y, z'
loop_
 _atom_site_type_symbol
 _atom_site_label
 _atom_site_symmetry_multiplicity
 _atom_site_fract_x
 _atom_site_fract_y
 _atom_site_fract_z
 _atom_site_occupancy
  Li  Li0  1  0.63519599  0.63519599  0.45188970  1
  Li  Li1  1  0.45763830  0.45763830  0.84369937  1
  Li  Li2  1  0.54236170  0.54236170  0.15630063  1
  Li  Li3  1  0.36480401  0.36480401  0.54811030  1
  Hf  Hf0  1  0.05778187  0.05778187  0.63961330  1
  Hf  Hf1  1  0.94221813  0.94221813  0.36038670  1
  Hf  Hf2  1  0.75739331  0.75739331  0.73683341  1
  Hf  Hf3  1  0.24260669  0.24260669  0.26316659  1
  Ta  Ta0  1  0.14379289  0.14379289  0.95078566  1
  Ta  Ta1  1  0.85620711  0.85620711  0.04921434  1
  N  N0  1  0.57889211  0.57889211  0.65595420  1
  N  N1  1  0.42110789  0.42110789  0.34404580  1
  N  N2  1  0.87259203  0.87259203  0.56276467  1
  N  N3  1  0.03759256  0.03759256  0.13629035  1
  N  N4  1  0.96240744  0.96240744  0.86370965  1
  N  N5  1  0.12740797  0.12740797  0.43723533  1
  N  N6  1  0.32768575  0.32768575  0.04798635  1
  N  N7  1  0.67231425  0.67231425  0.95201365  1
  N  N8  1  0.76254404  0.76254404  0.23620120  1
  N  N9  1  0.23745596  0.23745596  0.76379880  1
loop_
_geom_bond_atom_site_label_1
_geom_bond_atom_site_label_2
_geom_bond_distance
_geom_bond_site_symmetry_2
Li0 N0 2.095172 1_555
Li0 N5 2.131528 1_565
Li0 N5 2.131528 1_655
Li0 N8 2.474786 1_555
Li0 N1 2.492927 1_555
Li1 N4 2.134886 1_545
Li1 N4 2.134886 1_455
Li1 N0 2.209072 1_555
Li1 N6 2.392932 1_556
Li1 N9 2.434328 1_555
Li1 N7 2.500587 1_555
Li2 N3 2.134886 1_565
Li2 N3 2.134886 1_655
Li2 N1 2.209072 1_555
Li2 N7 2.392932 1_554
Li2 N8 2.434328 1_555
Li2 N6 2.500587 1_555
Li3 N1 2.095172 1_555
Li3 N2 2.131528 1_545
Li3 N2 2.131528 1_455
Li3 N9 2.474786 1_555
Li3 N0 2.492927 1_555
Hf0 N2 2.084626 1_445
Hf0 N5 2.115971 1_555
Hf0 N0 2.142755 1_545
Hf0 N0 2.142755 1_455
Hf0 N9 2.269168 1_555
Hf0 N4 2.406140 1_445
Hf1 N5 2.084626 1_665
Hf1 N2 2.115971 1_555
Hf1 N1 2.142755 1_565
Hf1 N1 2.142755 1_655
Hf1 N8 2.269168 1_555
Hf1 N3 2.406140 1_665
Hf2 N0 2.037846 1_555
Hf2 N2 2.063463 1_555
Hf2 N9 2.150510 1_655
Hf2 N9 2.150510 1_565
Hf2 N7 2.286488 1_555
Hf2 N4 2.506274 1_555
Hf3 N1 2.037846 1_555
Hf3 N5 2.063463 1_555
Hf3 N8 2.150510 1_455
Hf3 N8 2.150510 1_545
Hf3 N6 2.286488 1_555
Hf3 N3 2.506274 1_555
N3 Ta1 2.092391 1_445
N3 Ta0 2.111745 1_554
N4 Ta0 2.092391 1_665
N4 Ta1 2.111745 1_556
N6 Ta1 2.145068 1_545
N6 Ta1 2.145068 1_455
N6 Ta0 2.163049 1_554
N7 Ta0 2.145068 1_565
N7 Ta0 2.145068 1_655
N7 Ta1 2.163049 1_556
N8 Ta1 2.065738 1_555
N9 Ta0 2.065738 1_555
