# generated using pymatgen
data_Rb3Cu2AgAs2
_symmetry_space_group_name_H-M   'P 1'
_cell_length_a   7.86864355
_cell_length_b   7.80130640
_cell_length_c   7.86864336
_cell_angle_alpha   46.12030343
_cell_angle_beta   44.99870245
_cell_angle_gamma   46.12030436
_symmetry_Int_Tables_number   1
_chemical_formula_structural   Rb3Cu2AgAs2
_chemical_formula_sum   'Rb3 Cu2 Ag1 As2'
_cell_volume   225.80988613
_cell_formula_units_Z   1
loop_
 _symmetry_equiv_pos_site_id
 _symmetry_equiv_pos_as_xyz
  1  'x, y, z'
loop_
 _atom_site_type_symbol
 _atom_site_label
 _atom_site_symmetry_multiplicity
 _atom_site_fract_x
 _atom_site_fract_y
 _atom_site_fract_z
 _atom_site_occupancy
  Rb  Rb0  1  0.90434158  0.92081481  0.90434158  1
  Rb  Rb1  1  0.50000000  0.50000000  0.50000000  1
  Rb  Rb2  1  0.09565842  0.07918519  0.09565842  1
  Cu  Cu0  1  0.00000000  0.50000000  0.50000000  1
  Cu  Cu1  1  0.50000000  0.50000000  0.00000000  1
  Ag  Ag0  1  0.50000000  0.00000000  0.50000000  1
  As  As0  1  0.24239342  0.28291011  0.24239342  1
  As  As1  1  0.75760658  0.71708989  0.75760658  1
loop_
_geom_bond_atom_site_label_1
_geom_bond_atom_site_label_2
_geom_bond_distance
_geom_bond_site_symmetry_2
Rb0 Rb1 3.863609 1_556
Rb0 Rb1 3.863609 1_655
Rb0 Rb1 3.888330 1_565
Rb1 Rb2 3.863609 1_556
Rb1 Rb2 3.863609 1_655
Rb1 Rb2 3.888330 1_565
Cu0 Rb0 3.536105 1_445
Cu0 Rb2 3.536105 1_565
Cu0 Rb0 3.680356 1_454
Cu0 Rb2 3.680356 1_556
Cu0 Rb1 3.934322 1_455
Cu0 Rb1 3.934322 1_555
Cu1 Rb2 3.536105 1_565
Cu1 Rb0 3.536105 1_544
Cu1 Rb0 3.680356 1_454
Cu1 Rb2 3.680356 1_655
Cu1 Rb1 3.934322 1_555
Cu1 Rb1 3.934322 1_554
Ag0 As1 2.548662 1_545
Ag0 As0 2.548662 1_555
Ag0 Cu1 3.069095 1_546
Ag0 Cu1 3.069095 1_555
Ag0 Cu0 3.069095 1_555
Ag0 Cu0 3.069095 1_645
Ag0 Rb2 3.559777 1_556
Ag0 Rb0 3.559777 1_544
Ag0 Rb0 3.559777 1_445
Ag0 Rb2 3.559777 1_655
Ag0 Rb1 3.900653 1_545
Ag0 Rb1 3.900653 1_555
As0 Cu0 2.329853 1_555
As0 Cu1 2.329853 1_555
As0 Rb2 3.487882 1_555
As0 Rb0 3.495901 1_454
As0 Rb0 3.551090 1_445
As0 Rb0 3.551090 1_544
As0 Rb1 3.924220 1_554
As0 Rb1 3.924220 1_455
As0 Rb1 4.123935 1_545
As1 Cu0 2.329853 1_655
As1 Cu1 2.329853 1_556
As1 Rb0 3.487882 1_555
As1 Rb2 3.495901 1_656
As1 Rb2 3.551090 1_665
As1 Rb2 3.551090 1_566
As1 Rb1 3.924220 1_556
As1 Rb1 3.924220 1_655
As1 Rb1 4.123935 1_565
