# generated using pymatgen
data_Cs4Zn3CdF12
_symmetry_space_group_name_H-M   'P 1'
_cell_length_a   10.68976929
_cell_length_b   10.68976907
_cell_length_c   10.68976971
_cell_angle_alpha   33.93931980
_cell_angle_beta   33.93931874
_cell_angle_gamma   33.93932290
_symmetry_Int_Tables_number   1
_chemical_formula_structural   Cs4Zn3CdF12
_chemical_formula_sum   'Cs4 Zn3 Cd1 F12'
_cell_volume   339.37522834
_cell_formula_units_Z   1
loop_
 _symmetry_equiv_pos_site_id
 _symmetry_equiv_pos_as_xyz
  1  'x, y, z'
loop_
 _atom_site_type_symbol
 _atom_site_label
 _atom_site_symmetry_multiplicity
 _atom_site_fract_x
 _atom_site_fract_y
 _atom_site_fract_z
 _atom_site_occupancy
  Cs  Cs0  1  0.71517183  0.71517183  0.71517183  1
  Cs  Cs1  1  0.86974181  0.86974181  0.86974181  1
  Cs  Cs2  1  0.28482817  0.28482817  0.28482817  1
  Cs  Cs3  1  0.13025819  0.13025819  0.13025819  1
  Zn  Zn0  1  0.40870437  0.40870437  0.40870437  1
  Zn  Zn1  1  0.59129563  0.59129563  0.59129563  1
  Zn  Zn2  1  0.50000000  0.50000000  0.50000000  1
  Cd  Cd0  1  0.00000000  0.00000000  0.00000000  1
  F  F0  1  0.17027318  0.59886966  0.59886966  1
  F  F1  1  0.59886966  0.59886966  0.17027318  1
  F  F2  1  0.69503077  0.21470977  0.21470977  1
  F  F3  1  0.30496923  0.78529023  0.78529023  1
  F  F4  1  0.21470977  0.21470977  0.69503077  1
  F  F5  1  0.82972682  0.40113034  0.40113034  1
  F  F6  1  0.78529023  0.78529023  0.30496923  1
  F  F7  1  0.40113034  0.40113034  0.82972682  1
  F  F8  1  0.40113034  0.82972682  0.40113034  1
  F  F9  1  0.21470977  0.69503077  0.21470977  1
  F  F10  1  0.78529023  0.30496923  0.78529023  1
  F  F11  1  0.59886966  0.17027318  0.59886966  1
loop_
_geom_bond_atom_site_label_1
_geom_bond_atom_site_label_2
_geom_bond_distance
_geom_bond_site_symmetry_2
Cs0 F11 3.041730 1_565
Cs0 F0 3.041730 1_655
Cs0 F1 3.041730 1_556
Cs0 F9 3.127971 1_556
Cs0 F9 3.127971 1_655
Cs0 F2 3.127971 1_556
Cs0 F2 3.127971 1_565
Cs0 F4 3.127971 1_655
Cs0 F4 3.127971 1_565
Cs0 F10 3.221286 1_555
Cs0 F3 3.221286 1_555
Cs0 F6 3.221287 1_555
Cs1 F8 3.138930 1_556
Cs1 F8 3.138930 1_655
Cs1 F5 3.138930 1_565
Cs1 F5 3.138930 1_556
Cs1 F7 3.138930 1_565
Cs1 F7 3.138930 1_655
Cs1 F1 3.182956 1_556
Cs1 F0 3.182956 1_655
Cs1 F11 3.182957 1_565
Cs1 F10 3.269510 1_565
Cs1 F3 3.269510 1_655
Cs1 F6 3.269511 1_556
Cs2 F8 3.041730 1_545
Cs2 F5 3.041730 1_455
Cs2 F7 3.041730 1_554
Cs2 F10 3.127971 1_554
Cs2 F10 3.127971 1_455
Cs2 F3 3.127971 1_554
Cs2 F3 3.127971 1_545
Cs2 F6 3.127971 1_455
Cs2 F6 3.127971 1_545
Cs2 F9 3.221286 1_555
Cs2 F2 3.221286 1_555
Cs2 F4 3.221287 1_555
Cs3 F11 3.138930 1_554
Cs3 F11 3.138930 1_455
Cs3 F0 3.138930 1_545
Cs3 F0 3.138930 1_554
Cs3 F1 3.138930 1_545
Cs3 F1 3.138930 1_455
Cs3 F7 3.182956 1_554
Cs3 F5 3.182956 1_455
Cs3 F8 3.182957 1_545
Cs3 F9 3.269510 1_545
Cs3 F2 3.269510 1_455
Cs3 F4 3.269511 1_554
Cd0 F4 2.252550 1_554
Cd0 F6 2.252550 1_445
Cd0 F2 2.252550 1_455
Cd0 F3 2.252550 1_544
Cd0 F9 2.252551 1_545
Cd0 F10 2.252551 1_454
F0 Zn2 2.036849 1_555
F0 Zn0 2.103267 1_555
F1 Zn2 2.036849 1_555
F1 Zn0 2.103267 1_555
F2 Zn0 2.010285 1_555
F3 Zn1 2.010285 1_555
F4 Zn0 2.010284 1_555
F5 Zn2 2.036849 1_555
F5 Zn1 2.103267 1_555
F6 Zn1 2.010284 1_555
F7 Zn2 2.036849 1_555
F7 Zn1 2.103267 1_555
F8 Zn2 2.036849 1_555
F8 Zn1 2.103268 1_555
F9 Zn0 2.010285 1_555
F10 Zn1 2.010285 1_555
F11 Zn2 2.036849 1_555
F11 Zn0 2.103268 1_555
