# generated using pymatgen
data_RbY2CuSe4
_symmetry_space_group_name_H-M   'P 1'
_cell_length_a   7.41333921
_cell_length_b   7.41333811
_cell_length_c   14.35598517
_cell_angle_alpha   90.00000000
_cell_angle_beta   90.00000000
_cell_angle_gamma   147.64153505
_symmetry_Int_Tables_number   1
_chemical_formula_structural   RbY2CuSe4
_chemical_formula_sum   'Rb2 Y4 Cu2 Se8'
_cell_volume   422.26843456
_cell_formula_units_Z   2
loop_
 _symmetry_equiv_pos_site_id
 _symmetry_equiv_pos_as_xyz
  1  'x, y, z'
loop_
 _atom_site_type_symbol
 _atom_site_label
 _atom_site_symmetry_multiplicity
 _atom_site_fract_x
 _atom_site_fract_y
 _atom_site_fract_z
 _atom_site_occupancy
  Rb  Rb0  1  0.11037442  0.88962558  0.25000000  1
  Rb  Rb1  1  0.88962558  0.11037442  0.75000000  1
  Y  Y0  1  0.63399110  0.36600890  0.93678716  1
  Y  Y1  1  0.36600890  0.63399110  0.43678716  1
  Y  Y2  1  0.63399110  0.36600890  0.56321284  1
  Y  Y3  1  0.36600890  0.63399110  0.06321284  1
  Cu  Cu0  1  0.16286395  0.83713605  0.75000000  1
  Cu  Cu1  1  0.83713605  0.16286395  0.25000000  1
  Se  Se0  1  0.00000000  0.00000000  0.50000000  1
  Se  Se1  1  0.00000000  0.00000000  0.00000000  1
  Se  Se2  1  0.73840206  0.26159794  0.10974693  1
  Se  Se3  1  0.26159794  0.73840206  0.89025307  1
  Se  Se4  1  0.57097879  0.42902121  0.75000000  1
  Se  Se5  1  0.73840206  0.26159794  0.39025307  1
  Se  Se6  1  0.42902121  0.57097879  0.25000000  1
  Se  Se7  1  0.26159794  0.73840206  0.60974693  1
loop_
_geom_bond_atom_site_label_1
_geom_bond_atom_site_label_2
_geom_bond_distance
_geom_bond_site_symmetry_2
Rb0 Se6 3.306911 1_565
Rb0 Se6 3.306912 1_455
Rb0 Se5 3.412414 1_455
Rb0 Se2 3.412414 1_455
Rb0 Se5 3.412415 1_565
Rb0 Se2 3.412415 1_565
Rb0 Se1 3.918041 1_565
Rb0 Se0 3.918041 1_565
Rb1 Se4 3.306911 1_545
Rb1 Se4 3.306912 1_655
Rb1 Se3 3.412414 1_655
Rb1 Se7 3.412414 1_655
Rb1 Se3 3.412415 1_545
Rb1 Se7 3.412415 1_545
Rb1 Se1 3.918041 1_656
Rb1 Se0 3.918041 1_655
Cu0 Se4 2.445181 1_565
Cu0 Se4 2.445182 1_455
Cu0 Se3 2.455743 1_555
Cu0 Se7 2.455743 1_555
Cu1 Se6 2.445181 1_545
Cu1 Se6 2.445182 1_655
Cu1 Se5 2.455743 1_555
Cu1 Se2 2.455743 1_555
Se0 Y2 2.954802 1_445
Se0 Y1 2.954802 1_555
Se0 Y2 2.954802 1_555
Se0 Y1 2.954802 1_445
Se1 Y3 2.954802 1_555
Se1 Y0 2.954802 1_444
Se1 Y3 2.954802 1_445
Se1 Y0 2.954802 1_554
Se2 Y3 2.831073 1_545
Se2 Y3 2.831074 1_655
Se2 Y0 2.894093 1_554
Se3 Y0 2.831073 1_565
Se3 Y0 2.831074 1_455
Se3 Y3 2.894093 1_556
Se4 Y0 2.827648 1_555
Se4 Y2 2.827648 1_555
Se5 Y1 2.831073 1_545
Se5 Y1 2.831074 1_655
Se5 Y2 2.894093 1_555
Se6 Y1 2.827648 1_555
Se6 Y3 2.827648 1_555
Se7 Y2 2.831073 1_565
Se7 Y2 2.831074 1_455
Se7 Y1 2.894093 1_555
