# generated using pymatgen
data_SrSeO3
_symmetry_space_group_name_H-M   'P 1'
_cell_length_a   4.46450302
_cell_length_b   5.48280168
_cell_length_c   6.55371473
_cell_angle_alpha   90.00000000
_cell_angle_beta   107.24292749
_cell_angle_gamma   90.00000000
_symmetry_Int_Tables_number   1
_chemical_formula_structural   SrSeO3
_chemical_formula_sum   'Sr2 Se2 O6'
_cell_volume   153.21182132
_cell_formula_units_Z   2
loop_
 _symmetry_equiv_pos_site_id
 _symmetry_equiv_pos_as_xyz
  1  'x, y, z'
loop_
 _atom_site_type_symbol
 _atom_site_label
 _atom_site_symmetry_multiplicity
 _atom_site_fract_x
 _atom_site_fract_y
 _atom_site_fract_z
 _atom_site_occupancy
  Sr  Sr0  1  0.34327040  0.25000000  0.69934049  1
  Sr  Sr1  1  0.65672960  0.75000000  0.30065951  1
  Se  Se0  1  0.06550083  0.25000000  0.15639210  1
  Se  Se1  1  0.93449917  0.75000000  0.84360790  1
  O  O0  1  0.82321412  0.98999587  0.67146217  1
  O  O1  1  0.17678588  0.48999587  0.32853783  1
  O  O2  1  0.17678588  0.01000413  0.32853783  1
  O  O3  1  0.82321412  0.51000413  0.67146217  1
  O  O4  1  0.33105281  0.75000000  0.89014700  1
  O  O5  1  0.66894819  0.25000000  0.10985300  1
loop_
_geom_bond_atom_site_label_1
_geom_bond_atom_site_label_2
_geom_bond_distance
_geom_bond_site_symmetry_2
O0 Se1 1.708455 1_555
O0 Sr0 2.624667 1_565
O0 Sr1 2.668078 1_555
O0 Sr0 2.684178 1_665
O1 Se0 1.708455 1_555
O1 Sr1 2.624667 1_555
O1 Sr0 2.668078 1_555
O1 Sr1 2.684178 1_455
O2 Se0 1.708455 1_555
O2 Sr1 2.624667 1_545
O2 Sr0 2.668078 1_555
O2 Sr1 2.684178 1_445
O3 Se1 1.708455 1_555
O3 Sr0 2.624667 1_555
O3 Sr1 2.668078 1_555
O3 Sr0 2.684178 1_655
O4 Se1 1.705071 1_455
O4 Sr1 2.652007 1_556
O4 Sr0 3.020334 1_555
O4 Sr0 3.020334 1_565
O5 Se0 1.705067 1_655
O5 Sr0 2.652008 1_554
O5 Sr1 3.020335 1_545
O5 Sr1 3.020335 1_555
