# generated using pymatgen
data_RbSb12(RuRh)2
_symmetry_space_group_name_H-M   'P 1'
_cell_length_a   8.11649147
_cell_length_b   8.11408307
_cell_length_c   8.11277756
_cell_angle_alpha   109.43381581
_cell_angle_beta   109.48740572
_cell_angle_gamma   109.46218972
_symmetry_Int_Tables_number   1
_chemical_formula_structural   RbSb12(RuRh)2
_chemical_formula_sum   'Rb1 Sb12 Ru2 Rh2'
_cell_volume   411.45033771
_cell_formula_units_Z   1
loop_
 _symmetry_equiv_pos_site_id
 _symmetry_equiv_pos_as_xyz
  1  'x, y, z'
loop_
 _atom_site_type_symbol
 _atom_site_label
 _atom_site_symmetry_multiplicity
 _atom_site_fract_x
 _atom_site_fract_y
 _atom_site_fract_z
 _atom_site_occupancy
  Rb  Rb0  1  0.00000000  0.00000000  0.00000000  1
  Sb  Sb0  1  0.65432038  0.84100671  0.49840257  1
  Sb  Sb1  1  0.34567962  0.15899329  0.50159743  1
  Sb  Sb2  1  0.84054935  0.18638390  0.34238185  1
  Sb  Sb3  1  0.81092072  0.65436497  0.15665677  1
  Sb  Sb4  1  0.84079330  0.49839200  0.65413685  1
  Sb  Sb5  1  0.18907928  0.34563503  0.84334323  1
  Sb  Sb6  1  0.15945065  0.81361610  0.65761815  1
  Sb  Sb7  1  0.49934907  0.65796509  0.84140675  1
  Sb  Sb8  1  0.50065093  0.34203491  0.15859325  1
  Sb  Sb9  1  0.15920670  0.50160800  0.34586315  1
  Sb  Sb10  1  0.34554087  0.84376832  0.18647944  1
  Sb  Sb11  1  0.65445913  0.15623168  0.81352056  1
  Ru  Ru0  1  0.50000000  0.50000000  0.50000000  1
  Ru  Ru1  1  0.50000000  0.00000000  0.00000000  1
  Rh  Rh0  1  0.00000000  0.00000000  0.50000000  1
  Rh  Rh1  1  0.00000000  0.50000000  0.00000000  1
loop_
_geom_bond_atom_site_label_1
_geom_bond_atom_site_label_2
_geom_bond_distance
_geom_bond_site_symmetry_2
Rb0 Sb7 3.534199 1_444
Rb0 Sb8 3.534199 1_555
Rb0 Sb1 3.545818 1_555
Rb0 Sb0 3.545818 1_444
Rb0 Sb10 3.546248 1_545
Rb0 Sb11 3.546248 1_454
Rb0 Sb2 3.547513 1_455
Rb0 Sb6 3.547513 1_544
Rb0 Sb9 3.547570 1_555
Rb0 Sb4 3.547570 1_444
Rb0 Sb5 3.555393 1_554
Rb0 Sb3 3.555393 1_445
Sb0 Sb10 2.920449 1_555
Sb0 Sb11 2.953423 1_565
Sb1 Sb11 2.920449 1_555
Sb1 Sb10 2.953423 1_545
Sb2 Sb4 2.922095 1_555
Sb2 Sb9 2.954185 1_655
Sb3 Sb8 2.926552 1_555
Sb3 Sb7 2.953099 1_554
Sb4 Sb6 2.954185 1_655
Sb5 Sb7 2.926552 1_555
Sb5 Sb8 2.953099 1_556
Sb6 Sb9 2.922095 1_555
Ru0 Sb4 2.634771 1_555
Ru0 Sb9 2.634771 1_555
Ru0 Sb0 2.636345 1_555
Ru0 Sb1 2.636345 1_555
Ru0 Sb7 2.639384 1_555
Ru0 Sb8 2.639384 1_555
Ru1 Sb2 2.634243 1_555
Ru1 Sb6 2.634243 1_544
Ru1 Sb11 2.636293 1_554
Ru1 Sb10 2.636293 1_545
Ru1 Sb8 2.639565 1_555
Ru1 Sb7 2.639565 1_544
Rh0 Sb5 2.657226 1_555
Rh0 Sb3 2.657226 1_445
Rh0 Sb6 2.661604 1_545
Rh0 Sb2 2.661604 1_455
Rh0 Sb1 2.662536 1_555
Rh0 Sb0 2.662536 1_445
Rh1 Sb3 2.657480 1_455
Rh1 Sb5 2.657480 1_554
Rh1 Sb10 2.661389 1_555
Rh1 Sb11 2.661389 1_454
Rh1 Sb9 2.662397 1_555
Rh1 Sb4 2.662397 1_454
