# generated using pymatgen
data_K4AlCr3F16
_symmetry_space_group_name_H-M   'P 1'
_cell_length_a   7.37736276
_cell_length_b   6.44788127
_cell_length_c   7.51992995
_cell_angle_alpha   73.06366831
_cell_angle_beta   89.96035556
_cell_angle_gamma   90.09796417
_symmetry_Int_Tables_number   1
_chemical_formula_structural   K4AlCr3F16
_chemical_formula_sum   'K4 Al1 Cr3 F16'
_cell_volume   342.19571168
_cell_formula_units_Z   1
loop_
 _symmetry_equiv_pos_site_id
 _symmetry_equiv_pos_as_xyz
  1  'x, y, z'
loop_
 _atom_site_type_symbol
 _atom_site_label
 _atom_site_symmetry_multiplicity
 _atom_site_fract_x
 _atom_site_fract_y
 _atom_site_fract_z
 _atom_site_occupancy
  K  K0  1  0.24438275  0.52651271  0.87081738  1
  K  K1  1  0.25181695  0.55185501  0.36053690  1
  K  K2  1  0.75561725  0.47348729  0.12918262  1
  K  K3  1  0.74818305  0.44814499  0.63946310  1
  Al  Al0  1  0.00000000  0.00000000  0.00000000  1
  Cr  Cr0  1  0.50000000  0.00000000  0.00000000  1
  Cr  Cr1  1  0.00000000  0.00000000  0.50000000  1
  Cr  Cr2  1  0.50000000  0.00000000  0.50000000  1
  F  F0  1  0.25020606  0.07113551  0.53008714  1
  F  F1  1  0.04378577  0.72047605  0.06409574  1
  F  F2  1  0.45457308  0.70024009  0.58971141  1
  F  F3  1  0.55575911  0.01465614  0.74616267  1
  F  F4  1  0.75651935  0.93963624  0.05582113  1
  F  F5  1  0.45766693  0.70073037  0.06116159  1
  F  F6  1  0.95621423  0.27952395  0.93590426  1
  F  F7  1  0.24348065  0.06036376  0.94417887  1
  F  F8  1  0.54542692  0.29975991  0.41028859  1
  F  F9  1  0.95574021  0.30003842  0.41897118  1
  F  F10  1  0.04257882  0.00042101  0.24370023  1
  F  F11  1  0.44424089  0.98534386  0.25383733  1
  F  F12  1  0.95742118  0.99957899  0.75629977  1
  F  F13  1  0.04425979  0.69996158  0.58102882  1
  F  F14  1  0.54233307  0.29926963  0.93883841  1
  F  F15  1  0.74979394  0.92886449  0.46991286  1
loop_
_geom_bond_atom_site_label_1
_geom_bond_atom_site_label_2
_geom_bond_distance
_geom_bond_site_symmetry_2
Al0 F6 1.755323 1_454
Al0 F1 1.755323 1_545
Al0 F7 1.858917 1_554
Al0 F4 1.858917 1_445
Al0 F10 1.860329 1_555
Al0 F12 1.860329 1_444
Cr0 F14 1.874381 1_554
Cr0 F5 1.874381 1_545
Cr0 F11 1.927562 1_545
Cr0 F3 1.927562 1_554
Cr0 F4 1.953828 1_545
Cr0 F7 1.953828 1_554
Cr1 F9 1.880494 1_455
Cr1 F13 1.880494 1_545
Cr1 F0 1.930523 1_555
Cr1 F15 1.930523 1_445
Cr1 F12 1.951792 1_445
Cr1 F10 1.951792 1_555
Cr2 F8 1.881752 1_555
Cr2 F2 1.881752 1_545
Cr2 F3 1.925526 1_555
Cr2 F11 1.925526 1_545
Cr2 F0 1.928817 1_555
Cr2 F15 1.928817 1_545
F0 K1 2.988439 1_555
F1 K2 2.613080 1_455
F1 K0 2.632311 1_554
F1 K1 2.665564 1_555
F2 K0 2.595726 1_555
F2 K1 2.661241 1_555
F2 K3 2.670740 1_555
F3 K3 3.024852 1_555
F4 K2 2.893496 1_555
F5 K0 2.592375 1_554
F5 K2 2.610758 1_555
F5 K1 2.650882 1_555
F6 K0 2.613080 1_655
F6 K2 2.632311 1_556
F6 K3 2.665564 1_555
F7 K0 2.893496 1_555
F8 K2 2.595726 1_555
F8 K3 2.661241 1_555
F8 K1 2.670740 1_555
F9 K2 2.601827 1_555
F9 K3 2.632467 1_555
F9 K1 2.677931 1_655
F10 K1 3.171235 1_545
F11 K1 3.024852 1_555
F12 K3 3.171235 1_565
F13 K0 2.601827 1_555
F13 K1 2.632467 1_555
F13 K3 2.677931 1_455
F14 K2 2.592375 1_556
F14 K0 2.610758 1_555
F14 K3 2.650882 1_555
F15 K3 2.988439 1_555
