# generated using pymatgen
data_CuSbPtS3
_symmetry_space_group_name_H-M   'P 1'
_cell_length_a   4.91377569
_cell_length_b   7.65111928
_cell_length_c   12.55982060
_cell_angle_alpha   90.00000000
_cell_angle_beta   90.00000000
_cell_angle_gamma   90.00000000
_symmetry_Int_Tables_number   1
_chemical_formula_structural   CuSbPtS3
_chemical_formula_sum   'Cu4 Sb4 Pt4 S12'
_cell_volume   472.19755727
_cell_formula_units_Z   4
loop_
 _symmetry_equiv_pos_site_id
 _symmetry_equiv_pos_as_xyz
  1  'x, y, z'
loop_
 _atom_site_type_symbol
 _atom_site_label
 _atom_site_symmetry_multiplicity
 _atom_site_fract_x
 _atom_site_fract_y
 _atom_site_fract_z
 _atom_site_occupancy
  Cu  Cu0  1  0.47893314  0.88205729  0.44048149  1
  Cu  Cu1  1  0.97893314  0.61794271  0.55951851  1
  Cu  Cu2  1  0.52106686  0.38205729  0.05951851  1
  Cu  Cu3  1  0.02106686  0.11794271  0.94048149  1
  Sb  Sb0  1  0.42697273  0.87564246  0.13247791  1
  Sb  Sb1  1  0.92697273  0.62435754  0.86752209  1
  Sb  Sb2  1  0.57302727  0.37564246  0.36752209  1
  Sb  Sb3  1  0.07302727  0.12435754  0.63247791  1
  Pt  Pt0  1  0.00759262  0.63240210  0.24882650  1
  Pt  Pt1  1  0.50759262  0.86759790  0.75117350  1
  Pt  Pt2  1  0.99240738  0.13240210  0.25117350  1
  Pt  Pt3  1  0.49240738  0.36759790  0.74882650  1
  S  S0  1  0.76371275  0.63016203  0.08652171  1
  S  S1  1  0.26371275  0.86983797  0.91347829  1
  S  S2  1  0.23628725  0.13016203  0.41347829  1
  S  S3  1  0.73628725  0.36983797  0.58652171  1
  S  S4  1  0.75635896  0.87985992  0.29494487  1
  S  S5  1  0.25635896  0.62014008  0.70505513  1
  S  S6  1  0.24364104  0.37985992  0.20505513  1
  S  S7  1  0.74364104  0.12014008  0.79494487  1
  S  S8  1  0.24126870  0.63092497  0.41249463  1
  S  S9  1  0.74126870  0.86907503  0.58750537  1
  S  S10  1  0.75873130  0.13092497  0.08750537  1
  S  S11  1  0.25873130  0.36907503  0.91249463  1
loop_
_geom_bond_atom_site_label_1
_geom_bond_atom_site_label_2
_geom_bond_distance
_geom_bond_site_symmetry_2
Cu0 S9 2.254206 1_555
Cu0 S2 2.267176 1_565
Cu0 S8 2.275814 1_555
Cu0 S4 2.280326 1_555
Cu1 S8 2.254206 1_655
Cu1 S3 2.267176 1_555
Cu1 S9 2.275814 1_555
Cu1 S5 2.280326 1_655
Cu2 S11 2.254206 1_554
Cu2 S0 2.267176 1_555
Cu2 S10 2.275814 1_555
Cu2 S6 2.280326 1_555
Cu3 S10 2.254206 1_456
Cu3 S1 2.267176 1_545
Cu3 S11 2.275814 1_555
Cu3 S7 2.280326 1_455
Pt0 S6 2.319718 1_555
Pt0 S4 2.333285 1_455
Pt0 S8 2.354619 1_555
Pt0 S0 2.364730 1_455
Pt0 Sb0 3.137777 1_555
Pt0 Sb2 3.262127 1_455
Pt1 S7 2.319718 1_565
Pt1 S5 2.333285 1_555
Pt1 S9 2.354619 1_555
Pt1 S1 2.364730 1_555
Pt1 Sb1 3.137777 1_555
Pt1 Sb3 3.262127 1_565
Pt2 S4 2.319718 1_545
Pt2 S6 2.333285 1_655
Pt2 S10 2.354619 1_555
Pt2 S2 2.364730 1_655
Pt2 Sb2 3.137777 1_555
Pt2 Sb0 3.262127 1_645
Pt3 S5 2.319718 1_555
Pt3 S7 2.333285 1_555
Pt3 S11 2.354619 1_555
Pt3 S3 2.364730 1_555
Pt3 Sb3 3.137777 1_555
Pt3 Sb1 3.262127 1_555
S0 Sb0 2.568796 1_555
S0 Sb1 2.865539 1_554
S1 Sb1 2.568796 1_455
S1 Sb0 2.865539 1_556
S2 Sb2 2.568796 1_555
S2 Sb3 2.865539 1_555
S3 Sb3 2.568796 1_655
S3 Sb2 2.865539 1_555
S4 Sb0 2.604717 1_555
S5 Sb1 2.604717 1_455
S6 Sb2 2.604717 1_555
S7 Sb3 2.604717 1_655
S8 Sb2 2.606058 1_555
S9 Sb3 2.606058 1_665
S10 Sb0 2.606058 1_545
S11 Sb1 2.606058 1_455
