# generated using pymatgen
data_LiGaIrPt
_symmetry_space_group_name_H-M   'P 1'
_cell_length_a   4.20130267
_cell_length_b   4.20130375
_cell_length_c   4.20130304
_cell_angle_alpha   60.00000559
_cell_angle_beta   59.99999710
_cell_angle_gamma   60.00000655
_symmetry_Int_Tables_number   1
_chemical_formula_structural   LiGaIrPt
_chemical_formula_sum   'Li1 Ga1 Ir1 Pt1'
_cell_volume   52.43691019
_cell_formula_units_Z   1
loop_
 _symmetry_equiv_pos_site_id
 _symmetry_equiv_pos_as_xyz
  1  'x, y, z'
loop_
 _atom_site_type_symbol
 _atom_site_label
 _atom_site_symmetry_multiplicity
 _atom_site_fract_x
 _atom_site_fract_y
 _atom_site_fract_z
 _atom_site_occupancy
  Li  Li0  1  0.25000000  0.25000000  0.25000000  1
  Ga  Ga0  1  0.75000000  0.75000000  0.75000000  1
  Ir  Ir0  1  0.50000000  0.50000000  0.50000000  1
  Pt  Pt0  1  0.00000000  0.00000000  0.00000000  1
loop_
_geom_bond_atom_site_label_1
_geom_bond_atom_site_label_2
_geom_bond_distance
_geom_bond_site_symmetry_2
Li0 Pt0 2.572762 1_655
Li0 Pt0 2.572762 1_555
Li0 Pt0 2.572762 1_556
Li0 Pt0 2.572763 1_565
Ga0 Ir0 2.572762 1_655
Ga0 Pt0 2.572762 1_566
Ga0 Pt0 2.572762 1_665
Ga0 Ir0 2.572762 1_555
Ga0 Ir0 2.572762 1_556
Ga0 Pt0 2.572762 1_666
Ga0 Ir0 2.572763 1_565
Ga0 Pt0 2.572763 1_656
Ir0 Li0 2.572762 1_655
Ir0 Li0 2.572762 1_556
Ir0 Li0 2.572762 1_555
Ir0 Li0 2.572763 1_565
