# generated using pymatgen
data_BaNaNbSe4
_symmetry_space_group_name_H-M   'P 1'
_cell_length_a   9.98572882
_cell_length_b   6.99090986
_cell_length_c   13.01636356
_cell_angle_alpha   69.67560670
_cell_angle_beta   90.00000000
_cell_angle_gamma   90.00000000
_symmetry_Int_Tables_number   1
_chemical_formula_structural   BaNaNbSe4
_chemical_formula_sum   'Ba4 Na4 Nb4 Se16'
_cell_volume   852.09126269
_cell_formula_units_Z   4
loop_
 _symmetry_equiv_pos_site_id
 _symmetry_equiv_pos_as_xyz
  1  'x, y, z'
loop_
 _atom_site_type_symbol
 _atom_site_label
 _atom_site_symmetry_multiplicity
 _atom_site_fract_x
 _atom_site_fract_y
 _atom_site_fract_z
 _atom_site_occupancy
  Ba  Ba0  1  0.87908675  0.38209583  0.34448412  1
  Ba  Ba1  1  0.62091325  0.38209583  0.84448412  1
  Ba  Ba2  1  0.12091325  0.61790417  0.65551588  1
  Ba  Ba3  1  0.37908675  0.61790417  0.15551588  1
  Na  Na0  1  0.11271545  0.23009708  0.02950933  1
  Na  Na1  1  0.38728455  0.23009708  0.52950933  1
  Na  Na2  1  0.88728455  0.76990292  0.97049067  1
  Na  Na3  1  0.61271545  0.76990292  0.47049067  1
  Nb  Nb0  1  0.61811702  0.11982623  0.18358599  1
  Nb  Nb1  1  0.88188298  0.11982623  0.68358599  1
  Nb  Nb2  1  0.38188298  0.88017377  0.81641401  1
  Nb  Nb3  1  0.11811702  0.88017377  0.31641401  1
  Se  Se0  1  0.80512429  0.32653917  0.08938852  1
  Se  Se1  1  0.69487571  0.32653917  0.58938852  1
  Se  Se2  1  0.19487571  0.67346083  0.91061148  1
  Se  Se3  1  0.30512429  0.67346083  0.41061148  1
  Se  Se4  1  0.92534512  0.80926775  0.43265545  1
  Se  Se5  1  0.57465488  0.80926775  0.93265545  1
  Se  Se6  1  0.07465488  0.19073225  0.56734455  1
  Se  Se7  1  0.42534512  0.19073225  0.06734455  1
  Se  Se8  1  0.56385548  0.21012153  0.34197039  1
  Se  Se9  1  0.93614452  0.21012153  0.84197039  1
  Se  Se10  1  0.43614452  0.78987847  0.65802961  1
  Se  Se11  1  0.06385548  0.78987847  0.15802961  1
  Se  Se12  1  0.16390691  0.23733673  0.26306545  1
  Se  Se13  1  0.33609309  0.23733673  0.76306545  1
  Se  Se14  1  0.83609309  0.76266327  0.73693455  1
  Se  Se15  1  0.66390691  0.76266327  0.23693455  1
loop_
_geom_bond_atom_site_label_1
_geom_bond_atom_site_label_2
_geom_bond_distance
_geom_bond_site_symmetry_2
Ba0 Se12 3.313820 1_655
Ba0 Se15 3.326833 1_555
Ba0 Se6 3.364891 1_655
Ba0 Se8 3.373804 1_555
Ba0 Se11 3.551764 1_655
Ba0 Se0 3.552093 1_555
Ba0 Se4 3.581826 1_555
Ba0 Se1 3.582780 1_555
Ba0 Se4 3.791384 1_545
Ba1 Se13 3.313820 1_555
Ba1 Se14 3.326833 1_555
Ba1 Se7 3.364891 1_556
Ba1 Se9 3.373804 1_555
Ba1 Se10 3.551764 1_555
Ba1 Se1 3.552093 1_555
Ba1 Se5 3.581826 1_555
Ba1 Se0 3.582780 1_556
Ba1 Se5 3.791384 1_545
Ba2 Se14 3.313820 1_455
Ba2 Se13 3.326833 1_555
Ba2 Se4 3.364891 1_455
Ba2 Se10 3.373804 1_555
Ba2 Se9 3.551764 1_455
Ba2 Se2 3.552093 1_555
Ba2 Se6 3.581826 1_555
Ba2 Se3 3.582780 1_555
Ba2 Se6 3.791384 1_565
Ba3 Se15 3.313820 1_555
Ba3 Se12 3.326833 1_555
Ba3 Se5 3.364891 1_554
Ba3 Se11 3.373804 1_555
Ba3 Se8 3.551764 1_555
Ba3 Se3 3.552093 1_555
Ba3 Se7 3.581826 1_555
Ba3 Se2 3.582780 1_554
Ba3 Se7 3.791384 1_565
Na0 Se11 2.988536 1_545
Na0 Se9 3.053521 1_454
Na0 Se2 3.056630 1_554
Na0 Se12 3.100430 1_555
Na0 Se7 3.157527 1_555
Na0 Se0 3.295655 1_455
Na1 Se10 2.988536 1_545
Na1 Se8 3.053521 1_555
Na1 Se3 3.056630 1_555
Na1 Se13 3.100430 1_555
Na1 Se6 3.157527 1_555
Na1 Se1 3.295655 1_555
Na2 Se9 2.988536 1_565
Na2 Se11 3.053521 1_656
Na2 Se0 3.056630 1_556
Na2 Se14 3.100430 1_555
Na2 Se5 3.157527 1_555
Na2 Se2 3.295655 1_655
Na3 Se8 2.988536 1_565
Na3 Se10 3.053521 1_555
Na3 Se1 3.056630 1_555
Na3 Se15 3.100430 1_555
Na3 Se4 3.157527 1_555
Na3 Se3 3.295655 1_555
Nb0 Se7 2.391548 1_555
Nb0 Se15 2.391923 1_545
Nb0 Se8 2.417899 1_555
Nb0 Se0 2.418269 1_555
Nb1 Se6 2.391548 1_655
Nb1 Se14 2.391923 1_545
Nb1 Se9 2.417899 1_555
Nb1 Se1 2.418269 1_555
Nb2 Se5 2.391548 1_555
Nb2 Se13 2.391923 1_565
Nb2 Se10 2.417899 1_555
Nb2 Se2 2.418269 1_555
Nb3 Se4 2.391548 1_455
Nb3 Se12 2.391923 1_565
Nb3 Se11 2.417899 1_555
Nb3 Se3 2.418269 1_555
