# generated using pymatgen
data_Cs4TaInCl12
_symmetry_space_group_name_H-M   'P 1'
_cell_length_a   7.39972135
_cell_length_b   7.39972135
_cell_length_c   10.51396463
_cell_angle_alpha   90.00000000
_cell_angle_beta   90.00000000
_cell_angle_gamma   90.00000000
_symmetry_Int_Tables_number   1
_chemical_formula_structural   Cs4TaInCl12
_chemical_formula_sum   'Cs4 Ta1 In1 Cl12'
_cell_volume   575.70134410
_cell_formula_units_Z   1
loop_
 _symmetry_equiv_pos_site_id
 _symmetry_equiv_pos_as_xyz
  1  'x, y, z'
loop_
 _atom_site_type_symbol
 _atom_site_label
 _atom_site_symmetry_multiplicity
 _atom_site_fract_x
 _atom_site_fract_y
 _atom_site_fract_z
 _atom_site_occupancy
  Cs  Cs0  1  0.50000000  0.00000000  0.77480642  1
  Cs  Cs1  1  0.00000000  0.50000000  0.22519358  1
  Cs  Cs2  1  0.50000000  0.00000000  0.22519358  1
  Cs  Cs3  1  0.00000000  0.50000000  0.77480642  1
  Ta  Ta0  1  0.50000000  0.50000000  0.50000000  1
  In  In0  1  0.00000000  0.00000000  0.00000000  1
  Cl  Cl0  1  0.00000000  0.00000000  0.75758542  1
  Cl  Cl1  1  0.50000000  0.50000000  0.27526018  1
  Cl  Cl2  1  0.72590378  0.72590378  0.50000000  1
  Cl  Cl3  1  0.24241094  0.24241094  0.00000000  1
  Cl  Cl4  1  0.72590378  0.27409622  0.50000000  1
  Cl  Cl5  1  0.24241094  0.75758906  0.00000000  1
  Cl  Cl6  1  0.00000000  0.00000000  0.24241458  1
  Cl  Cl7  1  0.50000000  0.50000000  0.72473982  1
  Cl  Cl8  1  0.27409622  0.27409622  0.50000000  1
  Cl  Cl9  1  0.75758906  0.75758906  0.00000000  1
  Cl  Cl10  1  0.27409622  0.72590378  0.50000000  1
  Cl  Cl11  1  0.75758906  0.24241094  0.00000000  1
loop_
_geom_bond_atom_site_label_1
_geom_bond_atom_site_label_2
_geom_bond_distance
_geom_bond_site_symmetry_2
Cl0 In0 2.548738 1_556
Cl0 Cs0 3.704288 1_455
Cl0 Cs3 3.704288 1_545
Cl0 Cs3 3.704288 1_555
Cl0 Cs0 3.704288 1_555
Cl1 Ta0 2.362907 1_555
Cl1 Cs1 3.737120 1_655
Cl1 Cs2 3.737120 1_555
Cl1 Cs1 3.737120 1_555
Cl1 Cs2 3.737120 1_565
Cl2 Ta0 2.364035 1_555
Cl2 Cs1 3.905913 1_655
Cl2 Cs2 3.905913 1_565
Cl2 Cs0 3.905913 1_565
Cl2 Cs3 3.905913 1_655
Cl3 In0 2.536779 1_555
Cl3 Cs3 3.529403 1_554
Cl3 Cs0 3.529403 1_554
Cl3 Cs2 3.529403 1_555
Cl3 Cs1 3.529403 1_555
Cl4 Ta0 2.364035 1_555
Cl4 Cs2 3.905913 1_555
Cl4 Cs0 3.905913 1_555
Cl4 Cs1 3.905913 1_655
Cl4 Cs3 3.905913 1_655
Cl5 In0 2.536779 1_565
Cl5 Cs3 3.529403 1_554
Cl5 Cs1 3.529403 1_555
Cl5 Cs0 3.529403 1_564
Cl5 Cs2 3.529403 1_565
Cl6 In0 2.548738 1_555
Cl6 Cs2 3.704288 1_555
Cl6 Cs1 3.704288 1_555
Cl6 Cs1 3.704288 1_545
Cl6 Cs2 3.704288 1_455
Cl7 Ta0 2.362907 1_555
Cl7 Cs0 3.737120 1_555
Cl7 Cs3 3.737120 1_655
Cl7 Cs3 3.737120 1_555
Cl7 Cs0 3.737120 1_565
Cl8 Ta0 2.364035 1_555
Cl8 Cs2 3.905913 1_555
Cl8 Cs1 3.905913 1_555
Cl8 Cs0 3.905913 1_555
Cl8 Cs3 3.905913 1_555
Cl9 In0 2.536779 1_665
Cl9 Cs0 3.529403 1_564
Cl9 Cs3 3.529403 1_654
Cl9 Cs2 3.529403 1_565
Cl9 Cs1 3.529403 1_655
Cl10 Ta0 2.364035 1_555
Cl10 Cs1 3.905913 1_555
Cl10 Cs3 3.905913 1_555
Cl10 Cs2 3.905913 1_565
Cl10 Cs0 3.905913 1_565
Cl11 In0 2.536779 1_655
Cl11 Cs0 3.529403 1_554
Cl11 Cs2 3.529403 1_555
Cl11 Cs3 3.529403 1_654
Cl11 Cs1 3.529403 1_655
