# generated using pymatgen
data_Hf4Zr6Ga12Rh7
_symmetry_space_group_name_H-M   'P 1'
_cell_length_a   8.84404778
_cell_length_b   8.84404905
_cell_length_c   8.84404878
_cell_angle_alpha   60.00000465
_cell_angle_beta   59.99999992
_cell_angle_gamma   60.00000045
_symmetry_Int_Tables_number   1
_chemical_formula_structural   Hf4Zr6Ga12Rh7
_chemical_formula_sum   'Hf4 Zr6 Ga12 Rh7'
_cell_volume   489.14584697
_cell_formula_units_Z   1
loop_
 _symmetry_equiv_pos_site_id
 _symmetry_equiv_pos_as_xyz
  1  'x, y, z'
loop_
 _atom_site_type_symbol
 _atom_site_label
 _atom_site_symmetry_multiplicity
 _atom_site_fract_x
 _atom_site_fract_y
 _atom_site_fract_z
 _atom_site_occupancy
  Hf  Hf0  1  0.87834046  0.87834046  0.36498063  1
  Hf  Hf1  1  0.87834046  0.36498063  0.87834046  1
  Hf  Hf2  1  0.36498063  0.87834046  0.87834046  1
  Hf  Hf3  1  0.87834046  0.87834046  0.87834046  1
  Zr  Zr0  1  0.69136237  0.69136237  0.30863763  1
  Zr  Zr1  1  0.30863763  0.69136237  0.30863763  1
  Zr  Zr2  1  0.69136237  0.30863763  0.30863763  1
  Zr  Zr3  1  0.30863763  0.30863763  0.69136237  1
  Zr  Zr4  1  0.69136237  0.30863763  0.69136237  1
  Zr  Zr5  1  0.30863763  0.69136237  0.69136237  1
  Ga  Ga0  1  0.12163546  0.12163546  0.63509361  1
  Ga  Ga1  1  0.12163546  0.63509361  0.12163546  1
  Ga  Ga2  1  0.63509361  0.12163546  0.12163546  1
  Ga  Ga3  1  0.12163546  0.12163546  0.12163546  1
  Ga  Ga4  1  0.65626392  0.65626392  0.03120723  1
  Ga  Ga5  1  0.65626392  0.03120723  0.65626392  1
  Ga  Ga6  1  0.03120723  0.65626392  0.65626392  1
  Ga  Ga7  1  0.65626392  0.65626392  0.65626392  1
  Ga  Ga8  1  0.34036201  0.34036201  0.97891597  1
  Ga  Ga9  1  0.34036201  0.97891597  0.34036201  1
  Ga  Ga10  1  0.97891597  0.34036201  0.34036201  1
  Ga  Ga11  1  0.34036201  0.34036201  0.34036201  1
  Rh  Rh0  1  0.00000000  0.00000000  0.00000000  1
  Rh  Rh1  1  0.99822523  0.99822523  0.50177477  1
  Rh  Rh2  1  0.50177477  0.99822523  0.50177477  1
  Rh  Rh3  1  0.99822523  0.50177477  0.50177477  1
  Rh  Rh4  1  0.50177477  0.50177477  0.99822523  1
  Rh  Rh5  1  0.99822523  0.50177477  0.99822523  1
  Rh  Rh6  1  0.50177477  0.99822523  0.99822523  1
loop_
_geom_bond_atom_site_label_1
_geom_bond_atom_site_label_2
_geom_bond_distance
_geom_bond_site_symmetry_2
Hf0 Rh0 2.635575 1_665
Hf0 Rh1 2.720588 1_555
Hf0 Rh2 2.720602 1_555
Hf0 Rh3 2.720602 1_555
Hf0 Zr1 3.178024 1_655
Hf0 Zr2 3.178024 1_565
Hf0 Zr0 3.178039 1_555
Hf1 Rh0 2.635575 1_656
Hf1 Rh5 2.720588 1_555
Hf1 Rh4 2.720602 1_555
Hf1 Rh3 2.720602 1_555
Hf1 Zr3 3.178024 1_655
Hf1 Zr2 3.178024 1_556
Hf1 Zr4 3.178039 1_555
Hf2 Rh0 2.635574 1_566
Hf2 Rh6 2.720588 1_555
Hf2 Rh2 2.720602 1_555
Hf2 Rh4 2.720602 1_555
Hf2 Zr1 3.178024 1_556
Hf2 Zr3 3.178024 1_565
Hf2 Zr5 3.178039 1_555
Hf3 Rh0 2.635560 1_666
Hf3 Rh6 2.720602 1_555
Hf3 Rh1 2.720603 1_555
Hf3 Rh5 2.720603 1_555
Hf3 Zr5 3.178027 1_655
Hf3 Zr0 3.178027 1_556
Hf3 Zr4 3.178027 1_565
Zr0 Zr1 3.384836 1_555
Zr0 Zr5 3.384836 1_555
Zr0 Zr2 3.384836 1_555
Zr0 Zr4 3.384837 1_555
Zr1 Zr2 3.384836 1_555
Zr1 Zr5 3.384836 1_555
Zr1 Zr3 3.384837 1_555
Zr2 Zr3 3.384836 1_555
Zr2 Zr4 3.384836 1_555
Zr3 Zr4 3.384836 1_555
Zr3 Zr5 3.384836 1_555
Zr4 Zr5 3.384836 1_555
Ga0 Rh0 2.635039 1_556
Ga0 Rh2 2.745503 1_545
Ga0 Rh1 2.745504 1_445
Ga0 Rh3 2.745504 1_455
Ga0 Ga9 2.817057 1_545
Ga0 Ga10 2.817057 1_455
Ga0 Ga11 2.817067 1_555
Ga0 Hf3 3.042982 1_445
Ga0 Hf2 3.042994 1_545
Ga0 Hf1 3.042994 1_455
Ga0 Zr4 3.177960 1_455
Ga0 Zr3 3.177960 1_555
Ga0 Zr5 3.177961 1_545
Ga1 Rh0 2.635039 1_565
Ga1 Rh4 2.745503 1_554
Ga1 Rh5 2.745504 1_454
Ga1 Rh3 2.745504 1_455
Ga1 Ga8 2.817057 1_554
Ga1 Ga10 2.817057 1_455
Ga1 Ga11 2.817067 1_555
Ga1 Hf3 3.042982 1_454
Ga1 Hf0 3.042994 1_455
Ga1 Hf2 3.042994 1_554
Ga1 Zr0 3.177960 1_455
Ga1 Zr1 3.177960 1_555
Ga1 Zr5 3.177961 1_554
Ga2 Rh0 2.635038 1_655
Ga2 Rh6 2.745504 1_544
Ga2 Rh2 2.745504 1_545
Ga2 Rh4 2.745504 1_554
Ga2 Ga9 2.817057 1_545
Ga2 Ga8 2.817057 1_554
Ga2 Hf3 3.042982 1_544
Ga2 Hf0 3.042994 1_545
Ga2 Hf1 3.042994 1_554
Ga2 Zr2 3.177960 1_555
Ga2 Zr4 3.177961 1_554
Ga2 Zr0 3.177961 1_545
Ga3 Rh0 2.635038 1_555
Ga3 Rh6 2.745503 1_544
Ga3 Rh1 2.745504 1_445
Ga3 Rh5 2.745504 1_454
Ga3 Ga9 2.817071 1_545
Ga3 Ga8 2.817071 1_554
Ga3 Hf2 3.042982 1_544
Ga3 Hf1 3.042982 1_454
Ga3 Hf0 3.042982 1_445
Ga3 Zr2 3.177960 1_455
Ga3 Zr3 3.177961 1_554
Ga3 Zr1 3.177961 1_545
Ga4 Rh4 2.546091 1_554
Ga4 Rh5 2.546099 1_554
Ga4 Rh6 2.546099 1_554
Ga4 Zr1 2.798658 1_555
Ga4 Zr2 2.798659 1_555
Ga4 Zr0 2.798664 1_555
Ga4 Hf2 2.844217 1_554
Ga4 Hf1 2.844217 1_554
Ga4 Hf3 2.844238 1_554
Ga5 Rh2 2.546091 1_545
Ga5 Rh1 2.546099 1_545
Ga5 Rh6 2.546099 1_545
Ga5 Zr3 2.798659 1_555
Ga5 Zr2 2.798659 1_555
Ga5 Zr4 2.798664 1_555
Ga5 Hf2 2.844217 1_545
Ga5 Hf0 2.844217 1_545
Ga5 Hf3 2.844238 1_545
Ga6 Rh3 2.546091 1_455
Ga6 Rh5 2.546099 1_455
Ga6 Rh1 2.546099 1_455
Ga6 Zr1 2.798659 1_555
Ga6 Zr3 2.798659 1_555
Ga6 Zr5 2.798664 1_555
Ga6 Hf0 2.844217 1_455
Ga6 Hf1 2.844217 1_455
Ga6 Hf3 2.844238 1_455
Ga7 Rh3 2.546097 1_555
Ga7 Rh4 2.546097 1_555
Ga7 Rh2 2.546097 1_555
Ga7 Zr5 2.798655 1_555
Ga7 Zr0 2.798655 1_555
Ga7 Zr4 2.798655 1_555
Ga7 Hf2 2.844232 1_555
Ga7 Hf0 2.844232 1_555
Ga7 Hf1 2.844232 1_555
Ga8 Rh4 2.574949 1_555
Ga8 Rh5 2.574964 1_455
Ga8 Rh6 2.574965 1_545
Ga8 Zr4 2.851441 1_555
Ga8 Zr5 2.851442 1_555
Ga8 Zr3 2.851452 1_555
Ga9 Rh2 2.574949 1_555
Ga9 Rh1 2.574964 1_455
Ga9 Rh6 2.574964 1_554
Ga9 Zr0 2.851441 1_555
Ga9 Zr5 2.851442 1_555
Ga9 Zr1 2.851452 1_555
Ga10 Rh3 2.574949 1_555
Ga10 Rh5 2.574965 1_554
Ga10 Rh1 2.574965 1_545
Ga10 Ga3 2.817071 1_655
Ga10 Zr4 2.851442 1_555
Ga10 Zr0 2.851442 1_555
Ga10 Zr2 2.851452 1_555
Ga11 Rh3 2.574960 1_455
Ga11 Rh4 2.574960 1_554
Ga11 Rh2 2.574960 1_545
Ga11 Ga2 2.817067 1_555
Ga11 Zr2 2.851434 1_555
Ga11 Zr3 2.851435 1_555
Ga11 Zr1 2.851435 1_555
Rh1 Zr5 3.211779 1_655
Rh1 Zr1 3.211779 1_655
Rh1 Zr4 3.211779 1_565
Rh1 Zr2 3.211779 1_565
Rh2 Zr0 3.211779 1_555
Rh2 Zr3 3.211779 1_565
Rh2 Zr5 3.211779 1_555
Rh2 Zr2 3.211779 1_565
Rh3 Zr3 3.211778 1_655
Rh3 Zr0 3.211778 1_555
Rh3 Zr1 3.211778 1_655
Rh3 Zr4 3.211778 1_555
Rh4 Zr5 3.211779 1_555
Rh4 Zr1 3.211779 1_556
Rh4 Zr4 3.211779 1_555
Rh4 Zr2 3.211779 1_556
Rh5 Zr3 3.211779 1_655
Rh5 Zr0 3.211779 1_556
Rh5 Zr5 3.211779 1_655
Rh5 Zr2 3.211779 1_556
Rh6 Zr3 3.211779 1_565
Rh6 Zr0 3.211779 1_556
Rh6 Zr1 3.211779 1_556
Rh6 Zr4 3.211779 1_565
