# generated using pymatgen
data_CaLu3(ZnSn)4
_symmetry_space_group_name_H-M   'P 1'
_cell_length_a   4.41540048
_cell_length_b   4.41540147
_cell_length_c   16.21747682
_cell_angle_alpha   90.00000000
_cell_angle_beta   90.00000000
_cell_angle_gamma   120.00001350
_symmetry_Int_Tables_number   1
_chemical_formula_structural   CaLu3(ZnSn)4
_chemical_formula_sum   'Ca1 Lu3 Zn4 Sn4'
_cell_volume   273.81305892
_cell_formula_units_Z   1
loop_
 _symmetry_equiv_pos_site_id
 _symmetry_equiv_pos_as_xyz
  1  'x, y, z'
loop_
 _atom_site_type_symbol
 _atom_site_label
 _atom_site_symmetry_multiplicity
 _atom_site_fract_x
 _atom_site_fract_y
 _atom_site_fract_z
 _atom_site_occupancy
  Ca  Ca0  1  0.00000000  0.00000000  0.00000000  1
  Lu  Lu0  1  0.00000000  0.00000000  0.25596707  1
  Lu  Lu1  1  0.00000000  0.00000000  0.74403293  1
  Lu  Lu2  1  0.00000000  0.00000000  0.50000000  1
  Zn  Zn0  1  0.33333300  0.66666700  0.17223110  1
  Zn  Zn1  1  0.66666700  0.33333300  0.82776890  1
  Zn  Zn2  1  0.66666700  0.33333300  0.65935424  1
  Zn  Zn3  1  0.33333300  0.66666700  0.34064576  1
  Sn  Sn0  1  0.33333300  0.66666700  0.60866248  1
  Sn  Sn1  1  0.66666700  0.33333300  0.39133752  1
  Sn  Sn2  1  0.66666700  0.33333300  0.12564908  1
  Sn  Sn3  1  0.33333300  0.66666700  0.87435092  1
loop_
_geom_bond_atom_site_label_1
_geom_bond_atom_site_label_2
_geom_bond_distance
_geom_bond_site_symmetry_2
Ca0 Sn2 3.263563 1_455
Ca0 Sn3 3.263563 1_544
Ca0 Sn2 3.263565 1_555
Ca0 Sn3 3.263565 1_444
Ca0 Sn2 3.263566 1_445
Ca0 Sn3 3.263566 1_554
Lu0 Zn0 2.888374 1_545
Lu0 Zn0 2.888376 1_445
Lu0 Zn0 2.888377 1_555
Lu0 Zn3 2.895593 1_545
Lu0 Zn3 2.895596 1_445
Lu0 Zn3 2.895596 1_555
Lu0 Sn2 3.311368 1_455
Lu0 Sn2 3.311370 1_555
Lu0 Sn2 3.311371 1_445
Lu0 Sn1 3.364255 1_455
Lu0 Sn1 3.364258 1_555
Lu0 Sn1 3.364258 1_445
Lu1 Zn1 2.888374 1_455
Lu1 Zn1 2.888376 1_555
Lu1 Zn1 2.888377 1_445
Lu1 Zn2 2.895593 1_455
Lu1 Zn2 2.895596 1_555
Lu1 Zn2 2.895596 1_445
Lu1 Sn3 3.311368 1_545
Lu1 Sn3 3.311370 1_445
Lu1 Sn3 3.311371 1_555
Lu1 Sn0 3.364255 1_545
Lu1 Sn0 3.364258 1_445
Lu1 Sn0 3.364258 1_555
Lu2 Sn0 3.099038 1_545
Lu2 Sn1 3.099038 1_455
Lu2 Sn0 3.099040 1_445
Lu2 Sn1 3.099040 1_555
Lu2 Sn0 3.099041 1_555
Lu2 Sn1 3.099041 1_445
Zn0 Zn3 2.731261 1_555
Zn1 Zn2 2.731261 1_555
Sn0 Zn2 2.678509 1_455
Sn0 Zn2 2.678509 1_565
Sn0 Zn2 2.678517 1_555
Sn1 Zn3 2.678509 1_655
Sn1 Zn3 2.678509 1_545
Sn1 Zn3 2.678517 1_555
Sn2 Zn0 2.658809 1_655
Sn2 Zn0 2.658810 1_545
Sn2 Zn0 2.658817 1_555
Sn3 Zn1 2.658809 1_455
Sn3 Zn1 2.658810 1_565
Sn3 Zn1 2.658817 1_555
