# generated using pymatgen
data_Nb5Ga3
_symmetry_space_group_name_H-M   'P 1'
_cell_length_a   7.88873731
_cell_length_b   7.88873731
_cell_length_c   7.88873731
_cell_angle_alpha   95.92647521
_cell_angle_beta   95.92647521
_cell_angle_gamma   142.51339931
_symmetry_Int_Tables_number   1
_chemical_formula_structural   Nb5Ga3
_chemical_formula_sum   'Nb10 Ga6'
_cell_volume   282.92569219
_cell_formula_units_Z   2
loop_
 _symmetry_equiv_pos_site_id
 _symmetry_equiv_pos_as_xyz
  1  'x, y, z'
loop_
 _atom_site_type_symbol
 _atom_site_label
 _atom_site_symmetry_multiplicity
 _atom_site_fract_x
 _atom_site_fract_y
 _atom_site_fract_z
 _atom_site_occupancy
  Nb  Nb0  1  0.75000000  0.25000000  0.50000000  1
  Nb  Nb1  1  0.25000000  0.75000000  0.50000000  1
  Nb  Nb2  1  0.07780200  0.76675400  0.84455600  1
  Nb  Nb3  1  0.76675400  0.92219800  0.68895200  1
  Nb  Nb4  1  0.23324600  0.07780200  0.31104800  1
  Nb  Nb5  1  0.92219800  0.23324600  0.15544400  1
  Nb  Nb6  1  0.26675400  0.57780200  0.84455600  1
  Nb  Nb7  1  0.73324600  0.42219800  0.15544400  1
  Nb  Nb8  1  0.42219800  0.26675400  0.68895200  1
  Nb  Nb9  1  0.57780200  0.73324600  0.31104800  1
  Ga  Ga0  1  0.00000000  0.00000000  0.00000000  1
  Ga  Ga1  1  0.50000000  0.50000000  0.00000000  1
  Ga  Ga2  1  0.16591000  0.33409000  0.50000000  1
  Ga  Ga3  1  0.33409000  0.83409000  0.16818000  1
  Ga  Ga4  1  0.66591000  0.16591000  0.83182000  1
  Ga  Ga5  1  0.83409000  0.66591000  0.50000000  1
loop_
_geom_bond_atom_site_label_1
_geom_bond_atom_site_label_2
_geom_bond_distance
_geom_bond_site_symmetry_2
Nb0 Nb1 2.534878 1_655
Nb0 Nb1 2.534878 1_545
Ga0 Ga1 2.534878 1_555
Ga0 Ga1 2.534878 1_445
Ga0 Nb5 2.597649 1_455
Ga0 Nb4 2.597649 1_555
Ga0 Nb3 2.597649 1_444
Ga0 Nb2 2.597649 1_544
Ga1 Nb6 2.597649 1_554
Ga1 Nb8 2.597649 1_554
Ga1 Nb9 2.597649 1_555
Ga1 Nb7 2.597649 1_555
Ga2 Nb0 2.784054 1_455
Ga2 Nb1 2.784054 1_555
Ga2 Nb6 2.786463 1_555
Ga2 Nb5 2.786463 1_455
Ga2 Nb4 2.799503 1_555
Ga2 Nb8 2.799503 1_555
Ga2 Nb3 2.902949 1_555
Ga2 Nb9 2.902949 1_555
Ga2 Nb3 2.902949 1_445
Ga2 Nb9 2.902949 1_445
Ga3 Nb0 2.784054 1_565
Ga3 Nb1 2.784054 1_555
Ga3 Nb9 2.786463 1_555
Ga3 Nb4 2.786463 1_565
Ga3 Nb2 2.799503 1_554
Ga3 Nb6 2.799503 1_554
Ga3 Nb7 2.902949 1_565
Ga3 Nb7 2.902949 1_455
Ga3 Nb5 2.902949 1_565
Ga3 Nb5 2.902949 1_455
Ga4 Nb1 2.784054 1_545
Ga4 Nb0 2.784054 1_555
Ga4 Nb3 2.786463 1_545
Ga4 Nb8 2.786463 1_555
Ga4 Nb7 2.799503 1_556
Ga4 Nb5 2.799503 1_556
Ga4 Nb2 2.902949 1_655
Ga4 Nb2 2.902949 1_545
Ga4 Nb6 2.902949 1_655
Ga4 Nb6 2.902949 1_545
Ga5 Nb1 2.784054 1_655
Ga5 Nb0 2.784054 1_555
Ga5 Nb7 2.786463 1_555
Ga5 Nb2 2.786463 1_655
Ga5 Nb9 2.799503 1_555
Ga5 Nb3 2.799503 1_555
Ga5 Nb4 2.902949 1_665
Ga5 Nb8 2.902949 1_665
Ga5 Nb4 2.902949 1_555
Ga5 Nb8 2.902949 1_555
