# generated using pymatgen
data_Rb8SnBi4Pb3
_symmetry_space_group_name_H-M   'P 1'
_cell_length_a   6.82396636
_cell_length_b   7.15531603
_cell_length_c   14.05715206
_cell_angle_alpha   90.00000000
_cell_angle_beta   91.03110993
_cell_angle_gamma   90.00000000
_symmetry_Int_Tables_number   1
_chemical_formula_structural   Rb8SnBi4Pb3
_chemical_formula_sum   'Rb8 Sn1 Bi4 Pb3'
_cell_volume   686.26635910
_cell_formula_units_Z   1
loop_
 _symmetry_equiv_pos_site_id
 _symmetry_equiv_pos_as_xyz
  1  'x, y, z'
loop_
 _atom_site_type_symbol
 _atom_site_label
 _atom_site_symmetry_multiplicity
 _atom_site_fract_x
 _atom_site_fract_y
 _atom_site_fract_z
 _atom_site_occupancy
  Rb  Rb0  1  0.74814942  0.39216414  0.66379998  1
  Rb  Rb1  1  0.25154392  0.60352568  0.33765059  1
  Rb  Rb2  1  0.74845608  0.60352568  0.16234941  1
  Rb  Rb3  1  0.25601451  0.16507488  0.51294031  1
  Rb  Rb4  1  0.24717522  0.83770357  0.00948228  1
  Rb  Rb5  1  0.75282478  0.83770357  0.49051772  1
  Rb  Rb6  1  0.74398549  0.16507488  0.98705969  1
  Rb  Rb7  1  0.25185058  0.39216414  0.83620002  1
  Sn  Sn0  1  0.50000000  0.90658054  0.75000000  1
  Bi  Bi0  1  0.24615617  0.33650424  0.10944357  1
  Bi  Bi1  1  0.26243933  0.66821511  0.61096879  1
  Bi  Bi2  1  0.73756067  0.66821511  0.88903121  1
  Bi  Bi3  1  0.75384383  0.33650424  0.39055643  1
  Pb  Pb0  1  0.50000000  0.09540615  0.25000000  1
  Pb  Pb1  1  0.00000000  0.09675071  0.25000000  1
  Pb  Pb2  1  0.00000000  0.89488736  0.75000000  1
loop_
_geom_bond_atom_site_label_1
_geom_bond_atom_site_label_2
_geom_bond_distance
_geom_bond_site_symmetry_2
Rb0 Rb5 4.012529 1_555
Rb0 Sn0 4.059777 1_545
Rb0 Rb7 4.169885 1_655
Rb0 Rb7 4.199814 1_555
Rb0 Sn0 4.237686 1_555
Rb0 Rb3 4.261386 1_555
Rb0 Rb3 4.405990 1_655
Rb0 Rb5 4.655856 1_545
Rb0 Rb6 4.826457 1_555
Rb1 Rb3 3.989016 1_555
Rb1 Rb2 4.189731 1_455
Rb1 Rb2 4.227467 1_555
Rb1 Rb5 4.343058 1_555
Rb1 Rb5 4.389832 1_455
Rb1 Rb3 4.713248 1_565
Rb1 Rb4 4.907589 1_555
Rb2 Rb6 3.989016 1_554
Rb2 Rb4 4.343058 1_555
Rb2 Rb4 4.389832 1_655
Rb2 Rb6 4.713248 1_564
Rb2 Rb5 4.907589 1_555
Rb3 Sn0 4.134998 1_545
Rb3 Rb5 4.137442 1_545
Rb3 Rb5 4.163902 1_445
Rb3 Rb7 4.826457 1_555
Rb4 Rb7 4.012529 1_554
Rb4 Sn0 4.092772 1_554
Rb4 Rb6 4.137442 1_564
Rb4 Rb6 4.163902 1_464
Rb4 Rb7 4.655856 1_564
Rb5 Sn0 4.092772 1_555
Rb6 Sn0 4.134998 1_545
Rb6 Rb7 4.261386 1_555
Rb6 Rb7 4.405990 1_655
Rb7 Sn0 4.059777 1_545
Rb7 Sn0 4.237686 1_555
Bi0 Pb0 3.123679 1_555
Bi0 Pb1 3.128563 1_555
Bi0 Rb1 3.733426 1_555
Bi0 Rb4 3.835781 1_545
Bi0 Rb4 3.851755 1_555
Bi0 Rb7 3.862509 1_554
Bi0 Rb2 3.978600 1_455
Bi0 Rb2 3.982563 1_555
Bi0 Rb6 3.999381 1_454
Bi0 Rb6 4.026835 1_554
Bi1 Sn0 3.040160 1_555
Bi1 Pb2 3.127846 1_555
Bi1 Rb7 3.733530 1_555
Bi1 Rb3 3.812873 1_565
Bi1 Rb3 3.854809 1_555
Bi1 Rb1 3.869243 1_555
Bi1 Rb0 3.917932 1_555
Bi1 Rb5 3.967343 1_555
Bi1 Rb5 4.027331 1_455
Bi1 Rb0 4.106513 1_455
Bi2 Sn0 3.040160 1_555
Bi2 Pb2 3.127846 1_655
Bi2 Rb0 3.733530 1_555
Bi2 Rb6 3.812873 1_565
Bi2 Rb6 3.854809 1_555
Bi2 Rb2 3.869243 1_556
Bi2 Rb7 3.917932 1_555
Bi2 Rb4 3.967343 1_556
Bi2 Rb4 4.027331 1_656
Bi2 Rb7 4.106513 1_655
Bi3 Pb0 3.123679 1_555
Bi3 Pb1 3.128563 1_655
Bi3 Rb2 3.733426 1_555
Bi3 Rb5 3.835781 1_545
Bi3 Rb5 3.851755 1_555
Bi3 Rb0 3.862509 1_555
Bi3 Rb1 3.978600 1_655
Bi3 Rb1 3.982563 1_555
Bi3 Rb3 3.999381 1_655
Bi3 Rb3 4.026835 1_555
Pb0 Pb1 3.411997 1_555
Pb0 Pb1 3.411997 1_655
Pb0 Rb1 4.105505 1_545
Pb0 Rb2 4.105505 1_545
Pb0 Rb3 4.111433 1_555
Pb0 Rb6 4.111433 1_554
Pb0 Rb5 4.194980 1_545
Pb0 Rb4 4.194980 1_545
Pb0 Rb1 4.205543 1_555
Pb0 Rb2 4.205543 1_555
Pb1 Rb3 4.089079 1_555
Pb1 Rb6 4.089079 1_454
Pb1 Rb1 4.104093 1_545
Pb1 Rb2 4.104093 1_445
Pb1 Rb1 4.187758 1_555
Pb1 Rb2 4.187758 1_455
Pb1 Rb4 4.232857 1_545
Pb1 Rb5 4.232857 1_445
Pb2 Sn0 3.413009 1_455
Pb2 Sn0 3.413009 1_555
Pb2 Rb4 4.011963 1_556
Pb2 Rb5 4.011963 1_455
Pb2 Rb7 4.124024 1_565
Pb2 Rb0 4.124024 1_465
Pb2 Rb7 4.157695 1_555
Pb2 Rb0 4.157695 1_455
Pb2 Rb6 4.254880 1_465
Pb2 Rb3 4.254880 1_565
