# generated using pymatgen
data_Hf12Ti4NbOs7
_symmetry_space_group_name_H-M   'P 1'
_cell_length_a   8.58075750
_cell_length_b   8.55734959
_cell_length_c   8.55734955
_cell_angle_alpha   60.00000018
_cell_angle_beta   60.09019920
_cell_angle_gamma   60.09020188
_symmetry_Int_Tables_number   1
_chemical_formula_structural   Hf12Ti4NbOs7
_chemical_formula_sum   'Hf12 Ti4 Nb1 Os7'
_cell_volume   444.91796607
_cell_formula_units_Z   1
loop_
 _symmetry_equiv_pos_site_id
 _symmetry_equiv_pos_as_xyz
  1  'x, y, z'
loop_
 _atom_site_type_symbol
 _atom_site_label
 _atom_site_symmetry_multiplicity
 _atom_site_fract_x
 _atom_site_fract_y
 _atom_site_fract_z
 _atom_site_occupancy
  Hf  Hf0  1  0.81246329  0.80855019  0.18949326  1
  Hf  Hf1  1  0.19334753  0.19231494  0.80716826  1
  Hf  Hf2  1  0.81246329  0.18949326  0.80855019  1
  Hf  Hf3  1  0.19334753  0.80716826  0.19231494  1
  Hf  Hf4  1  0.19334753  0.80716826  0.80716826  1
  Hf  Hf5  1  0.81246329  0.18949326  0.18949326  1
  Hf  Hf6  1  0.44407001  0.44296633  0.05648183  1
  Hf  Hf7  1  0.05861880  0.05412911  0.44362554  1
  Hf  Hf8  1  0.44407001  0.05648183  0.44296633  1
  Hf  Hf9  1  0.05861880  0.44362554  0.05412911  1
  Hf  Hf10  1  0.05861880  0.44362554  0.44362554  1
  Hf  Hf11  1  0.44407001  0.05648183  0.05648183  1
  Ti  Ti0  1  0.12590872  0.62469743  0.62469743  1
  Ti  Ti1  1  0.62276509  0.12125034  0.62799279  1
  Ti  Ti2  1  0.62276509  0.62799279  0.12125034  1
  Ti  Ti3  1  0.62276509  0.62799279  0.62799279  1
  Nb  Nb0  1  0.74910980  0.41696240  0.41696240  1
  Os  Os0  1  0.40893438  0.76172678  0.41466842  1
  Os  Os1  1  0.40893438  0.41466842  0.76172678  1
  Os  Os2  1  0.40893438  0.41466842  0.41466842  1
  Os  Os3  1  0.49483303  0.83505599  0.83505599  1
  Os  Os4  1  0.83651871  0.49258735  0.83544847  1
  Os  Os5  1  0.83651871  0.83544847  0.49258735  1
  Os  Os6  1  0.83651871  0.83544847  0.83544847  1
loop_
_geom_bond_atom_site_label_1
_geom_bond_atom_site_label_2
_geom_bond_distance
_geom_bond_site_symmetry_2
Hf0 Os6 2.828592 1_554
Hf0 Os5 2.828618 1_555
Hf0 Nb0 3.090639 1_555
Hf0 Ti2 3.120317 1_555
Hf0 Ti3 3.120323 1_555
Hf0 Os0 3.133794 1_555
Hf0 Hf10 3.186581 1_655
Hf0 Hf9 3.186585 1_655
Hf0 Hf8 3.205360 1_565
Hf0 Hf11 3.205360 1_565
Hf0 Hf5 3.259863 1_565
Hf0 Hf2 3.259863 1_564
Hf0 Hf3 3.274480 1_655
Hf0 Hf4 3.274484 1_654
Hf1 Os4 2.841277 1_455
Hf1 Os3 2.845101 1_545
Hf1 Os1 3.040860 1_555
Hf1 Os2 3.040864 1_555
Hf1 Ti1 3.059647 1_555
Hf1 Ti0 3.074366 1_555
Hf1 Hf9 3.171192 1_556
Hf1 Hf10 3.171192 1_555
Hf1 Hf8 3.183524 1_555
Hf1 Hf11 3.183531 1_556
Hf1 Hf2 3.274480 1_455
Hf1 Hf5 3.274484 1_456
Hf1 Hf3 3.295835 1_546
Hf1 Hf4 3.295835 1_545
Hf2 Os6 2.828592 1_545
Hf2 Os4 2.828618 1_555
Hf2 Nb0 3.090639 1_555
Hf2 Ti1 3.120317 1_555
Hf2 Ti3 3.120323 1_555
Hf2 Os1 3.133794 1_555
Hf2 Hf7 3.186585 1_655
Hf2 Hf6 3.205360 1_556
Hf2 Hf5 3.259863 1_556
Hf2 Hf4 3.274484 1_645
Hf3 Os5 2.841277 1_455
Hf3 Os3 2.845101 1_554
Hf3 Os0 3.040860 1_555
Hf3 Os2 3.040865 1_555
Hf3 Ti2 3.059647 1_555
Hf3 Ti0 3.074366 1_555
Hf3 Hf7 3.171192 1_565
Hf3 Hf6 3.183524 1_555
Hf3 Hf5 3.274484 1_465
Hf3 Hf4 3.295835 1_554
Hf4 Os6 2.841263 1_455
Hf4 Os3 2.845111 1_555
Hf4 Os0 3.040868 1_555
Hf4 Os1 3.040868 1_555
Hf4 Ti3 3.059644 1_555
Hf4 Ti0 3.074352 1_555
Hf4 Hf9 3.171192 1_556
Hf4 Hf7 3.171192 1_565
Hf4 Hf8 3.183528 1_565
Hf4 Hf6 3.183528 1_556
Hf5 Os4 2.828603 1_554
Hf5 Os5 2.828603 1_545
Hf5 Nb0 3.090617 1_555
Hf5 Ti1 3.120324 1_555
Hf5 Ti2 3.120324 1_555
Hf5 Os2 3.133788 1_555
Hf5 Hf9 3.186578 1_655
Hf5 Hf7 3.186578 1_655
Hf5 Hf8 3.205360 1_555
Hf5 Hf6 3.205360 1_555
Hf6 Os2 2.820200 1_555
Hf6 Os1 2.820217 1_554
Hf6 Ti3 3.051474 1_554
Hf6 Ti2 3.051480 1_555
Hf6 Os3 3.051980 1_554
Hf6 Os4 3.060844 1_554
Hf6 Hf8 3.307283 1_555
Hf6 Hf9 3.314731 1_555
Hf7 Os0 2.781084 1_545
Hf7 Nb0 2.901403 1_455
Hf7 Os5 3.047242 1_445
Hf7 Os6 3.047259 1_445
Hf7 Ti0 3.052962 1_545
Hf7 Ti1 3.112200 1_455
Hf7 Hf8 3.314731 1_555
Hf7 Hf9 3.333057 1_555
Hf8 Os2 2.820200 1_555
Hf8 Os0 2.820217 1_545
Hf8 Ti3 3.051474 1_545
Hf8 Ti1 3.051480 1_555
Hf8 Os3 3.051980 1_545
Hf8 Os5 3.060844 1_545
Hf9 Os1 2.781084 1_554
Hf9 Nb0 2.901403 1_455
Hf9 Os4 3.047242 1_454
Hf9 Os6 3.047259 1_454
Hf9 Ti0 3.052962 1_554
Hf9 Ti2 3.112200 1_455
Hf10 Os2 2.781081 1_555
Hf10 Nb0 2.901413 1_455
Hf10 Os4 3.047272 1_455
Hf10 Os5 3.047272 1_455
Hf10 Ti0 3.052977 1_555
Hf10 Ti3 3.112203 1_455
Hf10 Hf3 3.171192 1_555
Hf10 Hf2 3.186581 1_455
Hf10 Hf6 3.314726 1_555
Hf10 Hf8 3.314726 1_555
Hf10 Hf9 3.333057 1_555
Hf10 Hf7 3.333057 1_555
Hf11 Os0 2.820207 1_545
Hf11 Os1 2.820207 1_554
Hf11 Ti1 3.051472 1_554
Hf11 Ti2 3.051472 1_545
Hf11 Os3 3.051973 1_544
Hf11 Os6 3.060834 1_544
Hf11 Hf3 3.183531 1_545
Hf11 Hf2 3.205360 1_554
Hf11 Hf8 3.307283 1_555
Hf11 Hf6 3.307283 1_555
Hf11 Hf7 3.314726 1_555
Hf11 Hf9 3.314726 1_555
Nb0 Ti1 2.655878 1_555
Nb0 Ti2 2.655878 1_555
Nb0 Ti3 2.655906 1_555
Nb0 Os2 2.938671 1_555
Nb0 Os1 2.938675 1_555
Nb0 Os0 2.938676 1_555
Os0 Ti0 2.623503 1_555
Os0 Ti2 2.676888 1_555
Os0 Ti3 2.676909 1_555
Os0 Os1 2.969900 1_555
Os0 Os2 2.969900 1_555
Os1 Ti0 2.623504 1_555
Os1 Ti1 2.676888 1_555
Os1 Ti3 2.676909 1_555
Os1 Os2 2.969900 1_555
Os2 Ti0 2.623518 1_555
Os2 Ti2 2.676902 1_555
Os2 Ti1 2.676903 1_555
Os3 Ti1 2.597007 1_565
Os3 Ti3 2.597007 1_555
Os3 Ti2 2.597007 1_556
Os3 Os5 2.935267 1_555
Os3 Os4 2.935267 1_555
Os3 Os6 2.935275 1_555
Os4 Ti2 2.632311 1_556
Os4 Ti3 2.632325 1_555
Os4 Ti0 2.644127 1_655
Os4 Os6 2.933982 1_555
Os4 Os5 2.933982 1_555
Os5 Ti1 2.632311 1_565
Os5 Ti3 2.632325 1_555
Os5 Ti0 2.644127 1_655
Os5 Os6 2.933982 1_555
Os6 Ti2 2.632320 1_556
Os6 Ti1 2.632320 1_565
Os6 Ti0 2.644136 1_655
