# generated using pymatgen
data_La2O3
_symmetry_space_group_name_H-M   'P 1'
_cell_length_a   4.57239900
_cell_length_b   4.57239900
_cell_length_c   4.57239900
_cell_angle_alpha   90.00000000
_cell_angle_beta   90.00000000
_cell_angle_gamma   90.00000000
_symmetry_Int_Tables_number   1
_chemical_formula_structural   La2O3
_chemical_formula_sum   'La2 O3'
_cell_volume   95.59438054
_cell_formula_units_Z   1
loop_
 _symmetry_equiv_pos_site_id
 _symmetry_equiv_pos_as_xyz
  1  'x, y, z'
loop_
 _atom_site_type_symbol
 _atom_site_label
 _atom_site_symmetry_multiplicity
 _atom_site_fract_x
 _atom_site_fract_y
 _atom_site_fract_z
 _atom_site_occupancy
  La  La0  1  0.00000000  0.00000000  0.00000000  1
  La  La1  1  0.50000000  0.50000000  0.50000000  1
  O  O0  1  0.00000000  0.50000000  0.50000000  1
  O  O1  1  0.50000000  0.50000000  0.00000000  1
  O  O2  1  0.50000000  0.00000000  0.50000000  1
loop_
_geom_bond_atom_site_label_1
_geom_bond_atom_site_label_2
_geom_bond_distance
_geom_bond_site_symmetry_2
La0 O0 3.233174 1_554
La0 O1 3.233174 1_455
La0 O0 3.233174 1_544
La0 O2 3.233174 1_455
La0 O0 3.233174 1_545
La0 O0 3.233174 1_555
La0 O1 3.233174 1_555
La0 O2 3.233174 1_555
La0 O2 3.233174 1_554
La0 O1 3.233174 1_545
La0 O2 3.233174 1_454
La0 O1 3.233174 1_445
La1 O2 2.286199 1_555
La1 O2 2.286199 1_565
La1 O1 2.286199 1_555
La1 O0 2.286199 1_555
La1 O1 2.286199 1_556
La1 O0 2.286199 1_655
