# generated using pymatgen
data_Pd3Pt5W
_symmetry_space_group_name_H-M   'P 1'
_cell_length_a   6.21913501
_cell_length_b   6.21913546
_cell_length_c   6.20087272
_cell_angle_alpha   95.71809726
_cell_angle_beta   95.71808820
_cell_angle_gamma   143.25605846
_symmetry_Int_Tables_number   1
_chemical_formula_structural   Pd3Pt5W
_chemical_formula_sum   'Pd3 Pt5 W1'
_cell_volume   136.12157414
_cell_formula_units_Z   1
loop_
 _symmetry_equiv_pos_site_id
 _symmetry_equiv_pos_as_xyz
  1  'x, y, z'
loop_
 _atom_site_type_symbol
 _atom_site_label
 _atom_site_symmetry_multiplicity
 _atom_site_fract_x
 _atom_site_fract_y
 _atom_site_fract_z
 _atom_site_occupancy
  Pd  Pd0  1  0.33848204  0.33663662  0.67511867  1
  Pd  Pd1  1  0.66336338  0.66151796  0.32488133  1
  Pd  Pd2  1  0.66107405  0.33892595  0.00000000  1
  Pt  Pt0  1  0.34090571  0.65909429  1.00000000  1
  Pt  Pt1  1  0.99974280  0.32901395  0.32875675  1
  Pt  Pt2  1  0.00071446  0.67366694  0.67438140  1
  Pt  Pt3  1  0.67098605  0.00025720  0.67124325  1
  Pt  Pt4  1  0.32633306  0.99928554  0.32561860  1
  W  W0  1  0.99839846  0.00160154  0.00000000  1
loop_
_geom_bond_atom_site_label_1
_geom_bond_atom_site_label_2
_geom_bond_distance
_geom_bond_site_symmetry_2
Pd0 Pt0 2.687146 1_555
Pd0 Pd2 2.688261 1_556
Pd0 W0 2.737889 1_456
Pd0 W0 2.737890 1_566
Pd0 Pt2 2.743424 1_655
Pd0 Pt2 2.743424 1_545
Pd0 Pt3 2.768049 1_455
Pd0 Pt3 2.768050 1_565
Pd0 Pt4 2.812740 1_545
Pd0 Pt1 2.823323 1_455
Pd0 Pd1 2.843869 1_555
Pd0 Pd1 2.843869 1_445
Pd1 Pt0 2.687146 1_554
Pd1 Pd2 2.688261 1_555
Pd1 W0 2.737889 1_565
Pd1 W0 2.737890 1_455
Pd1 Pt4 2.743424 1_655
Pd1 Pt4 2.743424 1_545
Pd1 Pt1 2.768049 1_455
Pd1 Pt1 2.768050 1_565
Pd1 Pt2 2.812740 1_655
Pd1 Pt3 2.823323 1_565
Pd2 Pt2 2.740909 1_654
Pd2 Pt4 2.740909 1_545
Pd2 Pt4 2.740910 1_655
Pd2 Pt2 2.740910 1_544
Pd2 W0 2.744036 1_455
Pd2 W0 2.744036 1_565
Pd2 Pt3 2.823706 1_554
Pd2 Pt1 2.823706 1_555
Pd2 Pt0 2.889379 1_654
Pd2 Pt0 2.889380 1_544
Pt0 W0 2.701576 1_566
Pt0 W0 2.701576 1_456
Pt0 Pt1 2.754468 1_456
Pt0 Pt3 2.754468 1_565
Pt0 Pt3 2.754469 1_455
Pt0 Pt1 2.754469 1_566
Pt0 Pt4 2.837912 1_556
Pt0 Pt2 2.837912 1_555
Pt1 W0 2.728412 1_555
Pt1 Pt3 2.811009 1_555
Pt1 Pt3 2.811009 1_665
Pt1 Pt4 2.820864 1_545
Pt1 Pt4 2.820865 1_655
Pt1 Pt2 2.872082 1_655
Pt2 W0 2.732908 1_466
Pt2 Pt3 2.820864 1_565
Pt2 Pt3 2.820865 1_455
Pt2 Pt4 2.837590 1_555
Pt2 Pt4 2.837591 1_445
Pt3 W0 2.728412 1_556
Pt3 Pt4 2.872082 1_545
Pt4 W0 2.732909 1_465
