# generated using pymatgen
data_Sc6Ti7Al9Rh8
_symmetry_space_group_name_H-M   'P 1'
_cell_length_a   8.83928506
_cell_length_b   8.83928407
_cell_length_c   8.83928557
_cell_angle_alpha   60.04601336
_cell_angle_beta   60.04601542
_cell_angle_gamma   60.04603120
_symmetry_Int_Tables_number   1
_chemical_formula_structural   Sc6Ti7Al9Rh8
_chemical_formula_sum   'Sc6 Ti7 Al9 Rh8'
_cell_volume   488.86525078
_cell_formula_units_Z   1
loop_
 _symmetry_equiv_pos_site_id
 _symmetry_equiv_pos_as_xyz
  1  'x, y, z'
loop_
 _atom_site_type_symbol
 _atom_site_label
 _atom_site_symmetry_multiplicity
 _atom_site_fract_x
 _atom_site_fract_y
 _atom_site_fract_z
 _atom_site_occupancy
  Sc  Sc0  1  0.21128769  0.21128769  0.79071569  1
  Sc  Sc1  1  0.79071569  0.21128769  0.21128769  1
  Sc  Sc2  1  0.21128769  0.79071569  0.21128769  1
  Sc  Sc3  1  0.79593296  0.79593296  0.19269906  1
  Sc  Sc4  1  0.19269906  0.79593296  0.79593296  1
  Sc  Sc5  1  0.79593296  0.19269906  0.79593296  1
  Ti  Ti0  1  0.37952149  0.37952149  0.37952149  1
  Ti  Ti1  1  0.38175650  0.86124485  0.38175650  1
  Ti  Ti2  1  0.86124485  0.38175650  0.38175650  1
  Ti  Ti3  1  0.38175650  0.38175650  0.86124485  1
  Ti  Ti4  1  0.83625342  0.48922110  0.83625342  1
  Ti  Ti5  1  0.48922110  0.83625342  0.83625342  1
  Ti  Ti6  1  0.83625342  0.83625342  0.48922110  1
  Al  Al0  1  0.16810331  0.16810331  0.16810331  1
  Al  Al1  1  0.16636746  0.50442164  0.16636746  1
  Al  Al2  1  0.50442164  0.16636746  0.16636746  1
  Al  Al3  1  0.16636746  0.16636746  0.50442164  1
  Al  Al4  1  0.61837797  0.61837797  0.61837797  1
  Al  Al5  1  0.61891687  0.14373948  0.61891687  1
  Al  Al6  1  0.14373948  0.61891687  0.61891687  1
  Al  Al7  1  0.61891687  0.61891687  0.14373948  1
  Al  Al8  1  0.82487497  0.82487497  0.82487497  1
  Rh  Rh0  1  0.00170634  0.00170634  0.49514964  1
  Rh  Rh1  1  0.49514964  0.00170634  0.00170634  1
  Rh  Rh2  1  0.00170634  0.49514964  0.00170634  1
  Rh  Rh3  1  0.50221959  0.50221959  0.99895324  1
  Rh  Rh4  1  0.99895324  0.50221959  0.50221959  1
  Rh  Rh5  1  0.50221959  0.99895324  0.50221959  1
  Rh  Rh6  1  0.50017461  0.50017461  0.50017461  1
  Rh  Rh7  1  0.00391829  0.00391829  0.00391829  1
loop_
_geom_bond_atom_site_label_1
_geom_bond_atom_site_label_2
_geom_bond_distance
_geom_bond_site_symmetry_2
Sc0 Ti0 3.007801 1_555
Sc1 Ti0 3.007801 1_555
Sc2 Ti0 3.007801 1_555
Al0 Rh0 2.520313 1_555
Al0 Rh2 2.520313 1_555
Al0 Rh1 2.520313 1_555
Al1 Rh3 2.566598 1_554
Al1 Rh4 2.566598 1_455
Al1 Rh2 2.568528 1_555
Al1 Ti0 2.776562 1_555
Al2 Rh3 2.566598 1_554
Al2 Rh5 2.566598 1_545
Al2 Rh1 2.568528 1_555
Al2 Ti0 2.776562 1_555
Al3 Rh4 2.566598 1_455
Al3 Rh5 2.566598 1_545
Al3 Rh0 2.568528 1_555
Al3 Ti0 2.776561 1_555
Al4 Rh6 2.558418 1_555
Al4 Rh5 2.753066 1_555
Al4 Rh3 2.753066 1_555
Al4 Rh4 2.753066 1_555
Al4 Ti6 2.834402 1_555
Al4 Ti5 2.834403 1_555
Al4 Ti4 2.834403 1_555
Al4 Ti3 2.959516 1_555
Al4 Ti2 2.959517 1_555
Al4 Ti1 2.959517 1_555
Al4 Sc3 3.122451 1_555
Al4 Sc5 3.122452 1_555
Al4 Sc4 3.122452 1_555
Al5 Rh6 2.573971 1_555
Al5 Rh5 2.732242 1_545
Al5 Al8 2.763024 1_545
Al5 Rh1 2.766712 1_556
Al5 Rh0 2.766712 1_655
Al5 Ti5 2.844335 1_545
Al5 Ti6 2.844336 1_545
Al5 Sc5 2.980120 1_555
Al5 Sc1 2.989700 1_555
Al5 Sc0 2.989700 1_555
Al5 Ti0 2.993775 1_555
Al5 Ti2 3.003505 1_555
Al5 Ti3 3.003506 1_555
Al6 Rh6 2.573971 1_555
Al6 Rh4 2.732242 1_455
Al6 Al8 2.763024 1_455
Al6 Rh2 2.766712 1_556
Al6 Rh0 2.766712 1_565
Al6 Ti4 2.844336 1_455
Al6 Ti6 2.844336 1_455
Al6 Sc4 2.980120 1_555
Al6 Sc0 2.989699 1_555
Al6 Sc2 2.989699 1_555
Al6 Ti0 2.993775 1_555
Al6 Ti1 3.003505 1_555
Al6 Ti3 3.003506 1_555
Al7 Rh6 2.573971 1_555
Al7 Rh3 2.732242 1_554
Al7 Al8 2.763023 1_554
Al7 Rh1 2.766712 1_565
Al7 Rh2 2.766712 1_655
Al7 Ti5 2.844336 1_554
Al7 Ti4 2.844336 1_554
Al7 Sc3 2.980119 1_555
Al7 Sc1 2.989699 1_555
Al7 Sc2 2.989700 1_555
Al7 Ti0 2.993774 1_555
Al7 Ti1 3.003506 1_555
Al7 Ti2 3.003506 1_555
Al8 Rh0 2.592699 1_665
Al8 Rh2 2.592699 1_656
Al8 Rh1 2.592700 1_566
Rh0 Ti6 2.563089 1_445
Rh0 Ti2 2.747120 1_455
Rh0 Ti1 2.747120 1_545
Rh0 Sc2 3.128412 1_545
Rh0 Sc1 3.128412 1_455
Rh0 Sc5 3.132718 1_455
Rh0 Sc4 3.132718 1_545
Rh1 Ti5 2.563090 1_544
Rh1 Ti3 2.747120 1_554
Rh1 Ti1 2.747120 1_545
Rh1 Sc2 3.128411 1_545
Rh1 Sc0 3.128412 1_554
Rh1 Sc5 3.132717 1_554
Rh1 Sc3 3.132718 1_545
Rh2 Ti4 2.563090 1_454
Rh2 Ti2 2.747120 1_455
Rh2 Ti3 2.747120 1_554
Rh2 Sc1 3.128411 1_455
Rh2 Sc0 3.128412 1_554
Rh2 Sc4 3.132717 1_554
Rh2 Sc3 3.132718 1_455
Rh3 Ti5 2.526910 1_555
Rh3 Ti4 2.526910 1_555
Rh3 Ti3 2.733167 1_555
Rh3 Ti0 2.748942 1_556
Rh4 Ti6 2.526910 1_555
Rh4 Ti4 2.526910 1_555
Rh4 Ti2 2.733167 1_555
Rh4 Ti0 2.748942 1_655
Rh5 Ti5 2.526910 1_555
Rh5 Ti6 2.526910 1_555
Rh5 Ti1 2.733167 1_555
Rh5 Ti0 2.748942 1_565
Rh6 Ti1 2.607592 1_555
Rh6 Ti3 2.607592 1_555
Rh6 Ti2 2.607593 1_555
Rh6 Ti0 2.611441 1_555
Rh7 Sc0 2.593714 1_554
Rh7 Sc1 2.593715 1_455
Rh7 Sc2 2.593715 1_545
Rh7 Sc3 2.606220 1_445
Rh7 Sc4 2.606221 1_544
Rh7 Sc5 2.606221 1_454
