# generated using pymatgen
data_Ca3(H6Ir)2
_symmetry_space_group_name_H-M   'P 1'
_cell_length_a   4.93907281
_cell_length_b   4.93907332
_cell_length_c   8.17389345
_cell_angle_alpha   90.00007159
_cell_angle_beta   89.99996829
_cell_angle_gamma   119.99996823
_symmetry_Int_Tables_number   1
_chemical_formula_structural   Ca3(H6Ir)2
_chemical_formula_sum   'Ca3 H12 Ir2'
_cell_volume   172.68342135
_cell_formula_units_Z   1
loop_
 _symmetry_equiv_pos_site_id
 _symmetry_equiv_pos_as_xyz
  1  'x, y, z'
loop_
 _atom_site_type_symbol
 _atom_site_label
 _atom_site_symmetry_multiplicity
 _atom_site_fract_x
 _atom_site_fract_y
 _atom_site_fract_z
 _atom_site_occupancy
  Ca  Ca0  1  0.00000300  0.00000300  0.00000000  1
  Ca  Ca1  1  0.66666600  0.33333600  0.36279854  1
  Ca  Ca2  1  0.33333100  0.66666500  0.63720146  1
  H  H0  1  0.02090844  0.51045322  0.13020560  1
  H  H1  1  0.48954778  0.97909256  0.13020660  1
  H  H2  1  0.48954778  0.51045422  0.13020660  1
  H  H3  1  0.65550797  0.82775398  0.36688164  1
  H  H4  1  0.17224602  0.82775098  0.36688064  1
  H  H5  1  0.17224702  0.34449303  0.36688164  1
  H  H6  1  0.82775298  0.17224602  0.63311936  1
  H  H7  1  0.82775298  0.65550697  0.63311936  1
  H  H8  1  0.34449103  0.17224302  0.63311936  1
  H  H9  1  0.51045222  0.02090744  0.86979340  1
  H  H10  1  0.51045222  0.48954578  0.86979440  1
  H  H11  1  0.97909056  0.48954578  0.86979440  1
  Ir  Ir0  1  0.33333400  0.66666700  0.25133545  1
  Ir  Ir1  1  0.66666500  0.33333200  0.74866455  1
loop_
_geom_bond_atom_site_label_1
_geom_bond_atom_site_label_2
_geom_bond_distance
_geom_bond_site_symmetry_2
Ca0 H10 2.690581 1_554
Ca0 H0 2.690585 1_555
Ca0 H9 2.690586 1_554
Ca0 H2 2.690592 1_555
Ca0 H11 2.690595 1_454
Ca0 H1 2.690600 1_445
Ca0 H1 2.690601 1_545
Ca0 H11 2.690602 1_444
Ca0 H0 2.690610 1_545
Ca0 H2 2.690611 1_445
Ca0 H9 2.690614 1_454
Ca0 H10 2.690616 1_444
Ca1 H2 2.431115 1_555
Ca1 H1 2.431132 1_545
Ca1 H0 2.431137 1_655
Ca1 H3 2.470208 1_555
Ca1 H5 2.470211 1_555
Ca1 H4 2.470212 1_655
Ca1 H5 2.470235 1_655
Ca1 H4 2.470237 1_545
Ca1 H3 2.470238 1_545
Ca1 H7 2.604076 1_555
Ca1 H8 2.604086 1_555
Ca1 H6 2.604091 1_555
Ca2 H9 2.431129 1_565
Ca2 H11 2.431132 1_455
Ca2 H10 2.431132 1_555
Ca2 H8 2.470214 1_565
Ca2 H6 2.470217 1_455
Ca2 H7 2.470218 1_455
Ca2 H7 2.470228 1_555
Ca2 H6 2.470232 1_565
Ca2 H8 2.470233 1_555
Ca2 H5 2.604071 1_555
Ca2 H4 2.604078 1_555
Ca2 H3 2.604084 1_555
H0 Ir0 1.663176 1_555
H1 Ir0 1.663172 1_555
H2 Ir0 1.663174 1_555
H3 Ir0 1.670642 1_555
H4 Ir0 1.670629 1_555
H5 Ir0 1.670643 1_555
H6 Ir1 1.670636 1_555
H7 Ir1 1.670642 1_555
H8 Ir1 1.670638 1_555
H9 Ir1 1.663169 1_555
H10 Ir1 1.663178 1_555
H11 Ir1 1.663176 1_555
