# generated using pymatgen
data_K2NaLuSb2
_symmetry_space_group_name_H-M   'P 1'
_cell_length_a   10.93270881
_cell_length_b   10.93270950
_cell_length_c   7.27655404
_cell_angle_alpha   90.00000000
_cell_angle_beta   90.00000000
_cell_angle_gamma   98.01638965
_symmetry_Int_Tables_number   1
_chemical_formula_structural   K2NaLuSb2
_chemical_formula_sum   'K8 Na4 Lu4 Sb8'
_cell_volume   861.22503558
_cell_formula_units_Z   4
loop_
 _symmetry_equiv_pos_site_id
 _symmetry_equiv_pos_as_xyz
  1  'x, y, z'
loop_
 _atom_site_type_symbol
 _atom_site_label
 _atom_site_symmetry_multiplicity
 _atom_site_fract_x
 _atom_site_fract_y
 _atom_site_fract_z
 _atom_site_occupancy
  K  K0  1  0.06978187  0.43021813  0.25000000  1
  K  K1  1  0.43021813  0.06978187  0.75000000  1
  K  K2  1  0.93021813  0.56978187  0.75000000  1
  K  K3  1  0.56978187  0.93021813  0.25000000  1
  K  K4  1  0.67742661  0.32257339  0.21750369  1
  K  K5  1  0.82257339  0.17742661  0.71750369  1
  K  K6  1  0.32257339  0.67742661  0.78249631  1
  K  K7  1  0.17742661  0.82257339  0.28249631  1
  Na  Na0  1  0.38300016  0.38300016  0.00000000  1
  Na  Na1  1  0.11699984  0.11699984  0.50000000  1
  Na  Na2  1  0.61699984  0.61699984  0.00000000  1
  Na  Na3  1  0.88300016  0.88300016  0.50000000  1
  Lu  Lu0  1  0.13031131  0.13031131  0.00000000  1
  Lu  Lu1  1  0.36968869  0.36968869  0.50000000  1
  Lu  Lu2  1  0.86968869  0.86968869  0.00000000  1
  Lu  Lu3  1  0.63031131  0.63031131  0.50000000  1
  Sb  Sb0  1  0.84952631  0.65047269  0.25000000  1
  Sb  Sb1  1  0.65047269  0.84952631  0.75000000  1
  Sb  Sb2  1  0.15047269  0.34952631  0.75000000  1
  Sb  Sb3  1  0.34952631  0.15047269  0.25000000  1
  Sb  Sb4  1  0.89544372  0.10455628  0.21047733  1
  Sb  Sb5  1  0.60455628  0.39544372  0.71047733  1
  Sb  Sb6  1  0.10455628  0.89544372  0.78952267  1
  Sb  Sb7  1  0.39544372  0.60455628  0.28952267  1
loop_
_geom_bond_atom_site_label_1
_geom_bond_atom_site_label_2
_geom_bond_distance
_geom_bond_site_symmetry_2
K0 Sb0 3.635110 1_455
K0 Sb7 3.807755 1_555
K0 Sb4 3.807755 1_455
K0 Sb2 3.874349 1_554
K0 Sb2 3.874349 1_555
K1 Sb1 3.635110 1_545
K1 Sb6 3.807755 1_545
K1 Sb5 3.807755 1_555
K1 Sb3 3.874349 1_555
K1 Sb3 3.874349 1_556
K2 Sb2 3.635110 1_655
K2 Sb5 3.807755 1_555
K2 Sb6 3.807755 1_655
K2 Sb0 3.874349 1_555
K2 Sb0 3.874349 1_556
K3 Sb3 3.635110 1_565
K3 Sb4 3.807755 1_565
K3 Sb7 3.807755 1_555
K3 Sb1 3.874349 1_554
K3 Sb1 3.874349 1_555
K4 Sb4 3.598538 1_555
K4 Sb5 3.783388 1_555
K4 Sb0 3.816512 1_555
K4 Sb3 3.816525 1_555
K4 Sb5 3.880476 1_554
K5 Sb5 3.598538 1_555
K5 Sb4 3.783388 1_556
K5 Sb2 3.816512 1_655
K5 Sb1 3.816526 1_545
K5 Sb4 3.880476 1_555
K6 Sb6 3.598538 1_555
K6 Sb7 3.783388 1_555
K6 Sb1 3.816512 1_555
K6 Sb2 3.816526 1_555
K6 Sb7 3.880476 1_556
K7 Sb7 3.598538 1_555
K7 Sb6 3.783388 1_554
K7 Sb3 3.816512 1_565
K7 Sb0 3.816525 1_455
K7 Sb6 3.880476 1_555
Na0 Sb2 3.105844 1_554
Na0 Sb3 3.105844 1_555
Na0 Sb5 3.198749 1_554
Na0 Sb7 3.198749 1_555
Na1 Sb3 3.105835 1_555
Na1 Sb2 3.105835 1_555
Na1 Sb4 3.198749 1_455
Na1 Sb6 3.198749 1_545
Na2 Sb0 3.105835 1_555
Na2 Sb1 3.105835 1_554
Na2 Sb7 3.198749 1_555
Na2 Sb5 3.198749 1_554
Na3 Sb1 3.105844 1_555
Na3 Sb0 3.105844 1_555
Na3 Sb6 3.198749 1_655
Na3 Sb4 3.198749 1_565
Lu0 Sb4 2.969268 1_455
Lu0 Sb6 2.969269 1_544
Lu0 Sb3 2.992368 1_555
Lu0 Sb2 2.992369 1_554
Lu1 Sb5 2.969268 1_555
Lu1 Sb7 2.969269 1_555
Lu1 Sb2 2.992377 1_555
Lu1 Sb3 2.992377 1_555
Lu2 Sb6 2.969268 1_654
Lu2 Sb4 2.969269 1_565
Lu2 Sb1 2.992377 1_554
Lu2 Sb0 2.992377 1_555
Lu3 Sb7 2.969268 1_555
Lu3 Sb5 2.969269 1_555
Lu3 Sb0 2.992368 1_555
Lu3 Sb1 2.992369 1_555
