# generated using pymatgen
data_Na6ZnCd32
_symmetry_space_group_name_H-M   'P 1'
_cell_length_a   9.58525592
_cell_length_b   9.58525592
_cell_length_c   9.58525592
_cell_angle_alpha   90.00000000
_cell_angle_beta   90.00000000
_cell_angle_gamma   90.00000000
_symmetry_Int_Tables_number   1
_chemical_formula_structural   Na6ZnCd32
_chemical_formula_sum   'Na6 Zn1 Cd32'
_cell_volume   880.66581326
_cell_formula_units_Z   1
loop_
 _symmetry_equiv_pos_site_id
 _symmetry_equiv_pos_as_xyz
  1  'x, y, z'
loop_
 _atom_site_type_symbol
 _atom_site_label
 _atom_site_symmetry_multiplicity
 _atom_site_fract_x
 _atom_site_fract_y
 _atom_site_fract_z
 _atom_site_occupancy
  Na  Na0  1  0.19876838  0.00000000  0.50000000  1
  Na  Na1  1  0.80123162  0.00000000  0.50000000  1
  Na  Na2  1  0.50000000  0.19876838  0.00000000  1
  Na  Na3  1  0.50000000  0.80123162  0.00000000  1
  Na  Na4  1  0.00000000  0.50000000  0.19876838  1
  Na  Na5  1  0.00000000  0.50000000  0.80123162  1
  Zn  Zn0  1  0.00000000  0.00000000  0.00000000  1
  Cd  Cd0  1  0.33670045  0.50000000  0.00000000  1
  Cd  Cd1  1  0.66329955  0.50000000  0.00000000  1
  Cd  Cd2  1  0.00000000  0.33670045  0.50000000  1
  Cd  Cd3  1  0.00000000  0.66329955  0.50000000  1
  Cd  Cd4  1  0.50000000  0.00000000  0.33670045  1
  Cd  Cd5  1  0.50000000  0.00000000  0.66329955  1
  Cd  Cd6  1  0.28084179  0.28084179  0.28084179  1
  Cd  Cd7  1  0.71915821  0.71915821  0.71915821  1
  Cd  Cd8  1  0.71915821  0.71915821  0.28084179  1
  Cd  Cd9  1  0.71915821  0.28084179  0.71915821  1
  Cd  Cd10  1  0.28084179  0.28084179  0.71915821  1
  Cd  Cd11  1  0.28084179  0.71915821  0.28084179  1
  Cd  Cd12  1  0.28084179  0.71915821  0.71915821  1
  Cd  Cd13  1  0.71915821  0.28084179  0.28084179  1
  Cd  Cd14  1  0.26696406  0.50000000  0.50000000  1
  Cd  Cd15  1  0.73303594  0.50000000  0.50000000  1
  Cd  Cd16  1  0.50000000  0.26696406  0.50000000  1
  Cd  Cd17  1  0.50000000  0.73303594  0.50000000  1
  Cd  Cd18  1  0.50000000  0.50000000  0.26696406  1
  Cd  Cd19  1  0.50000000  0.50000000  0.73303594  1
  Cd  Cd20  1  0.00000000  0.15411431  0.26156348  1
  Cd  Cd21  1  0.00000000  0.84588569  0.73843652  1
  Cd  Cd22  1  0.00000000  0.84588569  0.26156348  1
  Cd  Cd23  1  0.00000000  0.15411431  0.73843652  1
  Cd  Cd24  1  0.26156348  0.00000000  0.15411431  1
  Cd  Cd25  1  0.73843652  0.00000000  0.84588569  1
  Cd  Cd26  1  0.26156348  0.00000000  0.84588569  1
  Cd  Cd27  1  0.73843652  0.00000000  0.15411431  1
  Cd  Cd28  1  0.15411431  0.26156348  0.00000000  1
  Cd  Cd29  1  0.84588569  0.73843652  0.00000000  1
  Cd  Cd30  1  0.15411431  0.73843652  0.00000000  1
  Cd  Cd31  1  0.84588569  0.26156348  0.00000000  1
loop_
_geom_bond_atom_site_label_1
_geom_bond_atom_site_label_2
_geom_bond_distance
_geom_bond_site_symmetry_2
Cd0 Cd30 2.878605 1_555
Cd0 Cd28 2.878605 1_555
Cd0 Cd18 2.999688 1_555
Cd0 Cd19 2.999688 1_554
Cd0 Cd1 3.130536 1_555
Cd0 Na3 3.284363 1_555
Cd0 Na2 3.284363 1_555
Cd0 Cd11 3.456314 1_555
Cd0 Cd6 3.456314 1_555
Cd0 Cd12 3.456314 1_554
Cd0 Cd10 3.456314 1_554
Cd1 Cd29 2.878605 1_555
Cd1 Cd31 2.878605 1_555
Cd1 Cd18 2.999688 1_555
Cd1 Cd19 2.999688 1_554
Cd1 Na3 3.284363 1_555
Cd1 Na2 3.284363 1_555
Cd1 Cd8 3.456314 1_555
Cd1 Cd13 3.456314 1_555
Cd1 Cd7 3.456314 1_554
Cd1 Cd9 3.456314 1_554
Cd2 Cd20 2.878605 1_555
Cd2 Cd23 2.878605 1_555
Cd2 Cd3 3.130536 1_555
Cd2 Na5 3.284363 1_555
Cd2 Na4 3.284363 1_555
Cd2 Cd6 3.456314 1_555
Cd2 Cd9 3.456314 1_455
Cd3 Na5 3.284363 1_555
Cd3 Na4 3.284363 1_555
Cd3 Cd7 3.456314 1_455
Cd3 Cd8 3.456314 1_455
Cd4 Cd5 3.130536 1_555
Cd4 Na1 3.284363 1_555
Cd4 Na0 3.284363 1_555
Cd4 Cd6 3.456314 1_555
Cd4 Cd8 3.456314 1_545
Cd5 Na1 3.284363 1_555
Cd5 Na0 3.284363 1_555
Cd5 Cd9 3.456314 1_555
Cd5 Cd7 3.456314 1_545
Cd6 Na4 3.504043 1_555
Cd6 Na0 3.504043 1_555
Cd6 Na2 3.504043 1_555
Cd7 Na1 3.504043 1_565
Cd7 Na3 3.504043 1_556
Cd7 Na5 3.504043 1_655
Cd8 Na3 3.504043 1_555
Cd8 Na4 3.504043 1_655
Cd8 Na1 3.504043 1_565
Cd9 Na1 3.504043 1_555
Cd9 Na2 3.504043 1_556
Cd9 Na5 3.504043 1_655
Cd10 Cd26 2.959092 1_555
Cd10 Cd23 2.959092 1_555
Cd10 Cd28 2.959092 1_556
Cd10 Cd14 2.973797 1_555
Cd10 Cd16 2.973797 1_555
Cd10 Cd19 2.973797 1_555
Cd10 Cd2 3.456314 1_555
Cd10 Cd5 3.456314 1_555
Cd10 Na0 3.504043 1_555
Cd10 Na5 3.504043 1_555
Cd10 Na2 3.504043 1_556
Cd11 Cd22 2.959092 1_555
Cd11 Cd30 2.959092 1_555
Cd11 Cd24 2.959092 1_565
Cd11 Cd14 2.973797 1_555
Cd11 Cd18 2.973797 1_555
Cd11 Cd17 2.973797 1_555
Cd11 Cd3 3.456314 1_555
Cd11 Cd4 3.456314 1_565
Cd11 Na4 3.504043 1_555
Cd11 Na3 3.504043 1_555
Cd11 Na0 3.504043 1_565
Cd12 Cd21 2.959092 1_555
Cd12 Cd30 2.959092 1_556
Cd12 Cd26 2.959092 1_565
Cd12 Cd14 2.973797 1_555
Cd12 Cd19 2.973797 1_555
Cd12 Cd17 2.973797 1_555
Cd12 Cd3 3.456314 1_555
Cd12 Cd5 3.456314 1_565
Cd12 Na5 3.504043 1_555
Cd12 Na0 3.504043 1_565
Cd12 Na3 3.504043 1_556
Cd13 Cd31 2.959092 1_555
Cd13 Cd27 2.959092 1_555
Cd13 Cd20 2.959092 1_655
Cd13 Cd18 2.973797 1_555
Cd13 Cd16 2.973797 1_555
Cd13 Cd15 2.973797 1_555
Cd13 Cd4 3.456314 1_555
Cd13 Cd2 3.456314 1_655
Cd13 Na2 3.504043 1_555
Cd13 Na1 3.504043 1_555
Cd13 Na4 3.504043 1_655
Cd14 Cd6 2.973797 1_555
Cd14 Cd2 2.999688 1_555
Cd14 Cd3 2.999688 1_555
Cd14 Cd17 3.158942 1_555
Cd14 Cd19 3.158942 1_555
Cd14 Cd16 3.158942 1_555
Cd14 Cd18 3.158942 1_555
Cd15 Cd7 2.973797 1_555
Cd15 Cd9 2.973797 1_555
Cd15 Cd8 2.973797 1_555
Cd15 Cd2 2.999688 1_655
Cd15 Cd3 2.999688 1_655
Cd15 Cd17 3.158942 1_555
Cd15 Cd19 3.158942 1_555
Cd15 Cd16 3.158942 1_555
Cd15 Cd18 3.158942 1_555
Cd16 Cd9 2.973797 1_555
Cd16 Cd6 2.973797 1_555
Cd16 Cd4 2.999688 1_555
Cd16 Cd5 2.999688 1_555
Cd16 Cd19 3.158942 1_555
Cd16 Cd18 3.158942 1_555
Cd17 Cd7 2.973797 1_555
Cd17 Cd8 2.973797 1_555
Cd17 Cd4 2.999688 1_565
Cd17 Cd5 2.999688 1_565
Cd17 Cd19 3.158942 1_555
Cd17 Cd18 3.158942 1_555
Cd18 Cd8 2.973797 1_555
Cd18 Cd6 2.973797 1_555
Cd19 Cd7 2.973797 1_555
Cd19 Cd9 2.973797 1_555
Cd20 Zn0 2.909985 1_555
Cd20 Cd22 2.954450 1_545
Cd20 Cd6 2.959092 1_555
Cd20 Cd28 3.086869 1_555
Cd20 Cd24 3.086869 1_555
Cd20 Cd27 3.086869 1_455
Cd20 Cd31 3.086869 1_455
Cd20 Na0 3.321980 1_555
Cd20 Na1 3.321980 1_455
Cd20 Na4 3.369598 1_555
Cd21 Cd3 2.878605 1_555
Cd21 Zn0 2.909985 1_566
Cd21 Cd23 2.954450 1_565
Cd21 Cd7 2.959092 1_455
Cd21 Cd30 3.086869 1_556
Cd21 Cd26 3.086869 1_565
Cd21 Cd29 3.086869 1_456
Cd21 Cd25 3.086869 1_465
Cd21 Na0 3.321980 1_565
Cd21 Na1 3.321980 1_465
Cd21 Na5 3.369598 1_555
Cd22 Cd3 2.878605 1_555
Cd22 Zn0 2.909985 1_565
Cd22 Cd8 2.959092 1_455
Cd22 Cd30 3.086869 1_555
Cd22 Cd29 3.086869 1_455
Cd22 Cd24 3.086869 1_565
Cd22 Cd27 3.086869 1_465
Cd22 Na0 3.321980 1_565
Cd22 Na1 3.321980 1_465
Cd22 Na4 3.369598 1_555
Cd23 Zn0 2.909985 1_556
Cd23 Cd9 2.959092 1_455
Cd23 Cd26 3.086869 1_555
Cd23 Cd25 3.086869 1_455
Cd23 Cd28 3.086869 1_556
Cd23 Cd31 3.086869 1_456
Cd23 Na0 3.321980 1_555
Cd23 Na1 3.321980 1_455
Cd23 Na5 3.369598 1_555
Cd24 Cd4 2.878605 1_555
Cd24 Zn0 2.909985 1_555
Cd24 Cd26 2.954450 1_554
Cd24 Cd6 2.959092 1_555
Cd24 Cd28 3.086869 1_555
Cd24 Cd30 3.086869 1_545
Cd24 Na2 3.321980 1_555
Cd24 Na3 3.321980 1_545
Cd24 Na0 3.369598 1_555
Cd25 Cd5 2.878605 1_555
Cd25 Zn0 2.909985 1_656
Cd25 Cd27 2.954450 1_556
Cd25 Cd9 2.959092 1_555
Cd25 Cd7 2.959092 1_545
Cd25 Cd31 3.086869 1_556
Cd25 Cd29 3.086869 1_546
Cd25 Na2 3.321980 1_556
Cd25 Na3 3.321980 1_546
Cd25 Na1 3.369598 1_555
Cd26 Cd5 2.878605 1_555
Cd26 Zn0 2.909985 1_556
Cd26 Cd28 3.086869 1_556
Cd26 Cd30 3.086869 1_546
Cd26 Na2 3.321980 1_556
Cd26 Na3 3.321980 1_546
Cd26 Na0 3.369598 1_555
Cd27 Cd4 2.878605 1_555
Cd27 Zn0 2.909985 1_655
Cd27 Cd8 2.959092 1_545
Cd27 Cd31 3.086869 1_555
Cd27 Cd29 3.086869 1_545
Cd27 Na2 3.321980 1_555
Cd27 Na3 3.321980 1_545
Cd27 Na1 3.369598 1_555
Cd28 Zn0 2.909985 1_555
Cd28 Cd31 2.954450 1_455
Cd28 Cd6 2.959092 1_555
Cd28 Na4 3.321980 1_555
Cd28 Na5 3.321980 1_554
Cd28 Na2 3.369598 1_555
Cd29 Zn0 2.909985 1_665
Cd29 Cd30 2.954450 1_655
Cd29 Cd8 2.959092 1_555
Cd29 Cd7 2.959092 1_554
Cd29 Na4 3.321980 1_655
Cd29 Na5 3.321980 1_654
Cd29 Na3 3.369598 1_555
Cd30 Zn0 2.909985 1_565
Cd30 Na4 3.321980 1_555
Cd30 Na5 3.321980 1_554
Cd30 Na3 3.369598 1_555
Cd31 Zn0 2.909985 1_655
Cd31 Cd9 2.959092 1_554
Cd31 Na4 3.321980 1_655
Cd31 Na5 3.321980 1_654
Cd31 Na2 3.369598 1_555
