# generated using pymatgen
data_HfTaBRh6
_symmetry_space_group_name_H-M   'P 1'
_cell_length_a   5.61892790
_cell_length_b   5.61892772
_cell_length_c   5.61892637
_cell_angle_alpha   59.99999650
_cell_angle_beta   59.99999757
_cell_angle_gamma   59.99999069
_symmetry_Int_Tables_number   1
_chemical_formula_structural   HfTaBRh6
_chemical_formula_sum   'Hf1 Ta1 B1 Rh6'
_cell_volume   125.44264358
_cell_formula_units_Z   1
loop_
 _symmetry_equiv_pos_site_id
 _symmetry_equiv_pos_as_xyz
  1  'x, y, z'
loop_
 _atom_site_type_symbol
 _atom_site_label
 _atom_site_symmetry_multiplicity
 _atom_site_fract_x
 _atom_site_fract_y
 _atom_site_fract_z
 _atom_site_occupancy
  Hf  Hf0  1  0.25000000  0.25000000  0.25000000  1
  Ta  Ta0  1  0.75000000  0.75000000  0.75000000  1
  B  B0  1  0.50000000  0.50000000  0.50000000  1
  Rh  Rh0  1  0.75695005  0.75695005  0.24304995  1
  Rh  Rh1  1  0.75695005  0.24304995  0.24304995  1
  Rh  Rh2  1  0.24304995  0.75695005  0.24304995  1
  Rh  Rh3  1  0.24304995  0.24304995  0.75695005  1
  Rh  Rh4  1  0.75695005  0.24304995  0.75695005  1
  Rh  Rh5  1  0.24304995  0.75695005  0.75695005  1
loop_
_geom_bond_atom_site_label_1
_geom_bond_atom_site_label_2
_geom_bond_distance
_geom_bond_site_symmetry_2
Hf0 Rh3 2.810006 1_555
Hf0 Rh3 2.810006 1_554
Hf0 Rh5 2.810006 1_545
Hf0 Rh5 2.810006 1_554
Hf0 Rh4 2.810006 1_455
Hf0 Rh4 2.810006 1_554
Hf0 Rh0 2.810006 1_455
Hf0 Rh0 2.810006 1_545
Hf0 Rh2 2.810007 1_555
Hf0 Rh2 2.810007 1_545
Hf0 Rh1 2.810007 1_555
Hf0 Rh1 2.810007 1_455
B0 Rh4 2.041818 1_555
B0 Rh2 2.041818 1_555
B0 Rh5 2.041818 1_555
B0 Rh1 2.041818 1_555
B0 Rh0 2.041819 1_555
B0 Rh3 2.041819 1_555
Rh0 Ta0 2.810006 1_555
Rh0 Ta0 2.810006 1_554
Rh1 Ta0 2.810006 1_545
Rh1 Ta0 2.810006 1_554
Rh2 Ta0 2.810006 1_455
Rh2 Ta0 2.810006 1_554
Rh3 Ta0 2.810006 1_455
Rh3 Ta0 2.810006 1_545
Rh4 Ta0 2.810007 1_555
Rh4 Ta0 2.810007 1_545
Rh5 Ta0 2.810007 1_555
Rh5 Ta0 2.810007 1_455
