# generated using pymatgen
data_Co3Si3W6C
_symmetry_space_group_name_H-M   'P 1'
_cell_length_a   7.68705057
_cell_length_b   7.68705053
_cell_length_c   7.67942150
_cell_angle_alpha   60.03281623
_cell_angle_beta   60.03281642
_cell_angle_gamma   60.41496837
_symmetry_Int_Tables_number   1
_chemical_formula_structural   Co3Si3W6C
_chemical_formula_sum   'Co6 Si6 W12 C2'
_cell_volume   322.02760100
_cell_formula_units_Z   2
loop_
 _symmetry_equiv_pos_site_id
 _symmetry_equiv_pos_as_xyz
  1  'x, y, z'
loop_
 _atom_site_type_symbol
 _atom_site_label
 _atom_site_symmetry_multiplicity
 _atom_site_fract_x
 _atom_site_fract_y
 _atom_site_fract_z
 _atom_site_occupancy
  Co  Co0  1  0.33038311  0.33038311  0.00536521  1
  Co  Co1  1  0.13410184  0.13410184  0.60218363  1
  Co  Co2  1  0.91961689  0.91961689  0.91613343  1
  Co  Co3  1  0.12500000  0.62500000  0.13666574  1
  Co  Co4  1  0.11589816  0.11589816  0.12038831  1
  Co  Co5  1  0.62500000  0.12500000  0.13666574  1
  Si  Si0  1  0.91545933  0.24103101  0.91317460  1
  Si  Si1  1  0.33454067  0.00896899  0.31966393  1
  Si  Si2  1  0.33588973  0.33588973  0.32497445  1
  Si  Si3  1  0.00896899  0.33454067  0.31966393  1
  Si  Si4  1  0.91411027  0.91411027  0.24675391  1
  Si  Si5  1  0.24103101  0.91545933  0.91317460  1
  W  W0  1  0.29869425  0.69643510  0.70176387  1
  W  W1  1  0.30388017  0.30388017  0.69961508  1
  W  W2  1  0.55444140  0.94300199  0.55939380  1
  W  W3  1  0.94300199  0.55444140  0.55939380  1
  W  W4  1  0.55356490  0.95130575  0.94689321  1
  W  W5  1  0.69555860  0.30699801  0.30683719  1
  W  W6  1  0.95130575  0.55356490  0.94689321  1
  W  W7  1  0.30699801  0.69555860  0.30683719  1
  W  W8  1  0.55164698  0.55164698  0.94751959  1
  W  W9  1  0.69643510  0.29869425  0.70176387  1
  W  W10  1  0.69835302  0.69835302  0.30081355  1
  W  W11  1  0.94611983  0.94611983  0.55737542  1
  C  C0  1  0.74938455  0.74938455  0.75566232  1
  C  C1  1  0.50061545  0.50061545  0.50443141  1
loop_
_geom_bond_atom_site_label_1
_geom_bond_atom_site_label_2
_geom_bond_distance
_geom_bond_site_symmetry_2
Co0 Co3 2.408041 1_555
Co0 Co5 2.408041 1_555
Co0 Si1 2.443914 1_555
Co0 Si3 2.443914 1_555
Co0 Co4 2.447738 1_555
Co0 Si2 2.497416 1_555
Co0 W1 2.567641 1_554
Co0 W0 2.597990 1_554
Co0 W9 2.597990 1_554
Co0 W4 2.690245 1_544
Co0 W6 2.690245 1_454
Co0 W8 2.707432 1_554
Co1 Si2 2.263216 1_555
Co1 Si3 2.299618 1_555
Co1 Si1 2.299618 1_555
Co1 Si5 2.406472 1_545
Co1 Si0 2.406472 1_455
Co1 Co2 2.447745 1_445
Co1 W11 2.711079 1_445
Co1 W3 2.727821 1_455
Co1 W2 2.727821 1_545
Co1 W1 2.756680 1_555
Co1 W0 2.774476 1_545
Co1 W9 2.774476 1_455
Co2 Co3 2.408032 1_656
Co2 Co5 2.408032 1_566
Co2 Si0 2.443910 1_565
Co2 Si5 2.443910 1_655
Co2 Si4 2.497400 1_556
Co2 W11 2.567657 1_555
Co2 W6 2.597996 1_555
Co2 W4 2.597996 1_555
Co2 W9 2.690251 1_565
Co2 W0 2.690251 1_655
Co2 W10 2.707424 1_556
Co3 Si2 2.287394 1_555
Co3 Si4 2.287394 1_455
Co3 Si5 2.309839 1_554
Co3 Si3 2.309839 1_555
Co3 W3 2.691295 1_455
Co3 W7 2.691296 1_555
Co3 W8 2.723425 1_554
Co3 W10 2.723425 1_455
Co3 W0 2.770467 1_554
Co3 W6 2.770467 1_454
Co4 Si4 2.263218 1_445
Co4 Si5 2.299618 1_544
Co4 Si0 2.299618 1_454
Co4 Si3 2.406459 1_555
Co4 Si1 2.406459 1_555
Co4 W1 2.711084 1_554
Co4 W7 2.727819 1_545
Co4 W5 2.727819 1_455
Co4 W11 2.756674 1_445
Co4 W6 2.774477 1_454
Co4 W4 2.774477 1_544
Co5 Si2 2.287394 1_555
Co5 Si4 2.287394 1_545
Co5 Si0 2.309839 1_554
Co5 Si1 2.309839 1_555
Co5 W2 2.691295 1_545
Co5 W5 2.691296 1_555
Co5 W8 2.723425 1_554
Co5 W10 2.723425 1_545
Co5 W9 2.770467 1_554
Co5 W4 2.770467 1_544
Si0 Si5 2.518367 1_645
Si0 Si4 2.538846 1_546
Si0 W3 2.573010 1_555
Si0 W8 2.624992 1_555
Si0 W9 2.634735 1_555
Si0 W6 2.694671 1_555
Si0 W1 2.753007 1_655
Si0 W5 2.798859 1_556
Si1 Si3 2.518367 1_555
Si1 Si2 2.538851 1_555
Si1 W7 2.573006 1_545
Si1 W10 2.624992 1_545
Si1 W4 2.634728 1_544
Si1 W0 2.694675 1_545
Si1 W11 2.753007 1_445
Si1 W2 2.798866 1_545
Si2 Si3 2.538851 1_555
Si2 W7 2.598592 1_555
Si2 W5 2.598592 1_555
Si2 W8 2.648451 1_554
Si2 W1 2.653998 1_555
Si2 W2 2.786441 1_545
Si2 W3 2.786441 1_455
Si3 W5 2.573006 1_455
Si3 W10 2.624992 1_455
Si3 W6 2.634728 1_454
Si3 W9 2.694675 1_455
Si3 W11 2.753007 1_445
Si3 W3 2.798866 1_455
Si4 Si5 2.538847 1_654
Si4 W3 2.598591 1_555
Si4 W2 2.598591 1_555
Si4 W10 2.648452 1_555
Si4 W11 2.653998 1_555
Si4 W5 2.786442 1_565
Si4 W7 2.786442 1_655
Si5 W2 2.573010 1_555
Si5 W8 2.624992 1_555
Si5 W0 2.634735 1_555
Si5 W4 2.694671 1_555
Si5 W1 2.753007 1_565
Si5 W7 2.798859 1_556
C0 W3 2.132034 1_555
C0 W2 2.132034 1_555
C0 W11 2.133100 1_555
C0 W4 2.143235 1_555
C0 W6 2.143235 1_555
C0 W8 2.144409 1_555
C1 W7 2.132034 1_555
C1 W5 2.132034 1_555
C1 W1 2.133100 1_555
C1 W9 2.143235 1_555
C1 W0 2.143235 1_555
C1 W10 2.144409 1_555
