# generated using pymatgen
data_CrB2Mo4P
_symmetry_space_group_name_H-M   'P 1'
_cell_length_a   5.84001234
_cell_length_b   5.84001258
_cell_length_c   6.95703523
_cell_angle_alpha   114.81690663
_cell_angle_beta   114.81690290
_cell_angle_gamma   89.99999661
_symmetry_Int_Tables_number   1
_chemical_formula_structural   CrB2Mo4P
_chemical_formula_sum   'Cr2 B4 Mo8 P2'
_cell_volume   190.95401162
_cell_formula_units_Z   2
loop_
 _symmetry_equiv_pos_site_id
 _symmetry_equiv_pos_as_xyz
  1  'x, y, z'
loop_
 _atom_site_type_symbol
 _atom_site_label
 _atom_site_symmetry_multiplicity
 _atom_site_fract_x
 _atom_site_fract_y
 _atom_site_fract_z
 _atom_site_occupancy
  Cr  Cr0  1  0.50000000  0.50000000  0.00000000  1
  Cr  Cr1  1  0.00000000  0.00000000  0.00000000  1
  B  B0  1  0.38013107  0.88013107  1.00000000  1
  B  B1  1  0.61986893  0.11986893  0.00000000  1
  B  B2  1  0.11986893  0.38013107  0.00000000  1
  B  B3  1  0.88013107  0.61986893  1.00000000  1
  Mo  Mo0  1  0.03231240  0.53231240  0.72472734  1
  Mo  Mo1  1  0.69241494  0.19241494  0.72472734  1
  Mo  Mo2  1  0.19241494  0.03231240  0.72472734  1
  Mo  Mo3  1  0.53231240  0.69241494  0.72472734  1
  Mo  Mo4  1  0.96768760  0.46768760  0.27527266  1
  Mo  Mo5  1  0.30758506  0.80758506  0.27527266  1
  Mo  Mo6  1  0.80758506  0.96768760  0.27527266  1
  Mo  Mo7  1  0.46768760  0.30758506  0.27527266  1
  P  P0  1  0.25000000  0.25000000  0.50000000  1
  P  P1  1  0.75000000  0.75000000  0.50000000  1
loop_
_geom_bond_atom_site_label_1
_geom_bond_atom_site_label_2
_geom_bond_distance
_geom_bond_site_symmetry_2
Cr0 Mo1 2.660016 1_554
Cr0 Mo5 2.660016 1_555
Cr0 Mo7 2.660016 1_555
Cr0 Mo3 2.660016 1_554
Cr0 Mo4 2.660016 1_555
Cr0 Mo0 2.660016 1_554
Cr0 Mo6 2.660016 1_555
Cr0 Mo2 2.660016 1_554
Cr0 P1 2.799441 1_555
Cr0 P0 2.799441 1_554
Cr1 Mo6 2.660016 1_445
Cr1 Mo2 2.660016 1_554
Cr1 Mo4 2.660016 1_455
Cr1 Mo0 2.660016 1_544
Cr1 Mo5 2.660016 1_545
Cr1 Mo1 2.660016 1_454
Cr1 Mo7 2.660016 1_555
Cr1 Mo3 2.660016 1_444
Cr1 P0 2.799441 1_555
Cr1 P1 2.799441 1_444
B0 B1 1.980001 1_566
B0 Mo3 2.307722 1_555
B0 Mo2 2.307722 1_565
B0 Mo7 2.307722 1_566
B0 Mo6 2.307722 1_556
B0 Mo5 2.321359 1_556
B0 Mo0 2.321359 1_555
B0 Cr1 2.327728 1_566
B0 Cr0 2.327728 1_556
B1 Mo7 2.307722 1_555
B1 Mo6 2.307722 1_545
B1 Mo3 2.307722 1_544
B1 Mo2 2.307722 1_554
B1 Mo1 2.321359 1_554
B1 Mo4 2.321359 1_555
B1 Cr1 2.327728 1_655
B1 Cr0 2.327728 1_555
B2 B3 1.980001 1_454
B2 Mo4 2.307722 1_455
B2 Mo0 2.307722 1_554
B2 Mo1 2.307722 1_454
B2 Mo5 2.307722 1_555
B2 Mo2 2.321359 1_554
B2 Mo7 2.321359 1_555
B2 Cr0 2.327728 1_555
B2 Cr1 2.327728 1_555
B3 Mo0 2.307722 1_655
B3 Mo4 2.307722 1_556
B3 Mo5 2.307722 1_656
B3 Mo1 2.307722 1_555
B3 Mo6 2.321359 1_556
B3 Mo3 2.321359 1_555
B3 Cr0 2.327728 1_556
B3 Cr1 2.327728 1_666
Mo0 P0 2.506682 1_555
Mo0 P1 2.506682 1_455
Mo1 P1 2.506682 1_545
Mo1 P0 2.506682 1_555
Mo2 P0 2.506682 1_555
Mo2 P1 2.506682 1_445
Mo3 P1 2.506682 1_555
Mo3 P0 2.506682 1_555
Mo4 P1 2.506682 1_555
Mo4 P0 2.506682 1_655
Mo5 P0 2.506682 1_565
Mo5 P1 2.506682 1_555
Mo6 P1 2.506682 1_555
Mo6 P0 2.506682 1_665
Mo7 P0 2.506682 1_555
Mo7 P1 2.506682 1_555
