# generated using pymatgen
data_Ba(GeRu)2
_symmetry_space_group_name_H-M   'P 1'
_cell_length_a   6.21681436
_cell_length_b   6.21681350
_cell_length_c   7.09153442
_cell_angle_alpha   103.86429402
_cell_angle_beta   103.86430052
_cell_angle_gamma   116.95705887
_symmetry_Int_Tables_number   1
_chemical_formula_structural   Ba(GeRu)2
_chemical_formula_sum   'Ba2 Ge4 Ru4'
_cell_volume   217.12901546
_cell_formula_units_Z   2
loop_
 _symmetry_equiv_pos_site_id
 _symmetry_equiv_pos_as_xyz
  1  'x, y, z'
loop_
 _atom_site_type_symbol
 _atom_site_label
 _atom_site_symmetry_multiplicity
 _atom_site_fract_x
 _atom_site_fract_y
 _atom_site_fract_z
 _atom_site_occupancy
  Ba  Ba0  1  0.87500000  0.12500000  0.25000000  1
  Ba  Ba1  1  0.12500000  0.87500000  0.75000000  1
  Ge  Ge0  1  0.19892673  0.80107327  0.25000000  1
  Ge  Ge1  1  0.55107327  0.44892773  0.25000000  1
  Ge  Ge2  1  0.80107327  0.19892673  0.75000000  1
  Ge  Ge3  1  0.44892773  0.55107327  0.75000000  1
  Ru  Ru0  1  0.25098620  0.50098620  0.00197439  1
  Ru  Ru1  1  0.49901380  0.74901380  0.49802561  1
  Ru  Ru2  1  0.50098620  0.25098620  0.50197439  1
  Ru  Ru3  1  0.74901380  0.49901380  0.99802561  1
loop_
_geom_bond_atom_site_label_1
_geom_bond_atom_site_label_2
_geom_bond_distance
_geom_bond_site_symmetry_2
Ba0 Ge0 3.433291 1_645
Ba0 Ge1 3.433297 1_555
Ba0 Ru3 3.490616 1_544
Ba0 Ru2 3.490616 1_655
Ba0 Ru3 3.490621 1_554
Ba0 Ru2 3.490622 1_555
Ba0 Ru0 3.606654 1_655
Ba0 Ru1 3.606654 1_545
Ba0 Ru1 3.606666 1_655
Ba0 Ru0 3.606666 1_545
Ba0 Ge3 3.631310 1_544
Ba0 Ge2 3.631310 1_554
Ba0 Ge2 3.631310 1_555
Ba0 Ge3 3.631313 1_655
Ba0 Ge1 3.747913 1_545
Ba0 Ge0 3.747918 1_655
Ba0 Ge0 3.747919 1_545
Ba0 Ge1 3.747919 1_655
Ba1 Ge2 3.433291 1_465
Ba1 Ge3 3.433297 1_555
Ba1 Ru0 3.490616 1_566
Ba1 Ru1 3.490616 1_455
Ba1 Ru0 3.490621 1_556
Ba1 Ru1 3.490622 1_555
Ba1 Ru2 3.606654 1_565
Ba1 Ru3 3.606654 1_455
Ba1 Ru3 3.606666 1_565
Ba1 Ru2 3.606666 1_455
Ba1 Ge0 3.631310 1_556
Ba1 Ge1 3.631310 1_455
Ba1 Ge0 3.631310 1_555
Ba1 Ge1 3.631313 1_566
Ba1 Ge3 3.747913 1_455
Ba1 Ge2 3.747918 1_455
Ba1 Ge3 3.747919 1_565
Ba1 Ge2 3.747919 1_565
Ge0 Ru2 2.403581 1_565
Ge0 Ru3 2.403581 1_454
Ge0 Ru1 2.434436 1_555
Ge0 Ru0 2.434436 1_555
Ge1 Ru3 2.403590 1_554
Ge1 Ru2 2.403594 1_555
Ge1 Ru0 2.434432 1_555
Ge1 Ru1 2.434432 1_555
Ge2 Ru1 2.403581 1_545
Ge2 Ru0 2.403581 1_656
Ge2 Ru2 2.434436 1_555
Ge2 Ru3 2.434436 1_555
Ge3 Ru1 2.403589 1_555
Ge3 Ru0 2.403594 1_556
Ge3 Ru3 2.434432 1_555
Ge3 Ru2 2.434432 1_555
