# generated using pymatgen
data_CoCu6ClO8
_symmetry_space_group_name_H-M   'P 1'
_cell_length_a   6.33438980
_cell_length_b   6.33438920
_cell_length_c   6.33438973
_cell_angle_alpha   59.99999723
_cell_angle_beta   60.00000034
_cell_angle_gamma   59.99999422
_symmetry_Int_Tables_number   1
_chemical_formula_structural   CoCu6ClO8
_chemical_formula_sum   'Co1 Cu6 Cl1 O8'
_cell_volume   179.72118969
_cell_formula_units_Z   1
loop_
 _symmetry_equiv_pos_site_id
 _symmetry_equiv_pos_as_xyz
  1  'x, y, z'
loop_
 _atom_site_type_symbol
 _atom_site_label
 _atom_site_symmetry_multiplicity
 _atom_site_fract_x
 _atom_site_fract_y
 _atom_site_fract_z
 _atom_site_occupancy
  Co  Co0  1  0.00000000  0.00000000  0.00000000  1
  Cu  Cu0  1  0.00000000  0.00000000  0.50000000  1
  Cu  Cu1  1  0.50000000  0.00000000  0.00000000  1
  Cu  Cu2  1  0.00000000  0.50000000  0.00000000  1
  Cu  Cu3  1  0.50000000  0.50000000  0.00000000  1
  Cu  Cu4  1  0.00000000  0.50000000  0.50000000  1
  Cu  Cu5  1  0.50000000  0.00000000  0.50000000  1
  Cl  Cl0  1  0.50000000  0.50000000  0.50000000  1
  O  O0  1  0.13995396  0.13995396  0.58013812  1
  O  O1  1  0.13995396  0.58013812  0.13995396  1
  O  O2  1  0.58013812  0.13995396  0.13995396  1
  O  O3  1  0.86004604  0.41986188  0.86004604  1
  O  O4  1  0.13995396  0.13995396  0.13995396  1
  O  O5  1  0.86004604  0.86004604  0.86004604  1
  O  O6  1  0.86004604  0.86004604  0.41986188  1
  O  O7  1  0.41986188  0.86004604  0.86004604  1
loop_
_geom_bond_atom_site_label_1
_geom_bond_atom_site_label_2
_geom_bond_distance
_geom_bond_site_symmetry_2
Co0 O3 2.171529 1_454
Co0 O1 2.171529 1_545
Co0 O7 2.171529 1_544
Co0 O2 2.171529 1_455
Co0 O5 2.171529 1_444
Co0 O4 2.171529 1_555
Co0 O6 2.171529 1_445
Co0 O0 2.171529 1_554
Cu0 O6 1.874966 1_445
Cu0 O0 1.874966 1_555
Cu0 O5 1.874966 1_445
Cu0 O4 1.874966 1_555
Cu1 O4 1.874966 1_555
Cu1 O5 1.874966 1_544
Cu1 O7 1.874966 1_544
Cu1 O2 1.874966 1_555
Cu2 O5 1.874966 1_454
Cu2 O4 1.874966 1_555
Cu2 O3 1.874966 1_454
Cu2 O1 1.874966 1_555
Cu3 O2 1.874966 1_555
Cu3 O7 1.874966 1_554
Cu3 O1 1.874966 1_555
Cu3 O3 1.874966 1_554
Cu4 O6 1.874966 1_455
Cu4 O0 1.874966 1_555
Cu4 O3 1.874966 1_455
Cu4 O1 1.874966 1_555
Cu5 O0 1.874966 1_555
Cu5 O6 1.874966 1_545
Cu5 O2 1.874966 1_555
Cu5 O7 1.874966 1_545
