# generated using pymatgen
data_Cs2TiMnSe4
_symmetry_space_group_name_H-M   'P 1'
_cell_length_a   14.72324467
_cell_length_b   13.17086123
_cell_length_c   7.88734515
_cell_angle_alpha   84.77854506
_cell_angle_beta   62.98029159
_cell_angle_gamma   32.24116097
_symmetry_Int_Tables_number   1
_chemical_formula_structural   Cs2TiMnSe4
_chemical_formula_sum   'Cs4 Ti2 Mn2 Se8'
_cell_volume   572.02978271
_cell_formula_units_Z   2
loop_
 _symmetry_equiv_pos_site_id
 _symmetry_equiv_pos_as_xyz
  1  'x, y, z'
loop_
 _atom_site_type_symbol
 _atom_site_label
 _atom_site_symmetry_multiplicity
 _atom_site_fract_x
 _atom_site_fract_y
 _atom_site_fract_z
 _atom_site_occupancy
  Cs  Cs0  1  0.82174541  0.82174541  0.17825459  1
  Cs  Cs1  1  0.17825459  0.17825459  0.82174541  1
  Cs  Cs2  1  0.42825459  0.42825459  0.07174541  1
  Cs  Cs3  1  0.07174541  0.07174541  0.42825459  1
  Ti  Ti0  1  0.25000000  0.25000000  0.25000000  1
  Ti  Ti1  1  0.00000000  0.00000000  0.00000000  1
  Mn  Mn0  1  0.75000000  0.75000000  0.75000000  1
  Mn  Mn1  1  0.50000000  0.50000000  0.50000000  1
  Se  Se0  1  0.38064428  0.72434562  0.80775153  1
  Se  Se1  1  0.08725857  0.80775153  0.72434562  1
  Se  Se2  1  0.80775153  0.08725857  0.38064428  1
  Se  Se3  1  0.72434562  0.38064428  0.08725857  1
  Se  Se4  1  0.86935572  0.52565438  0.44224847  1
  Se  Se5  1  0.16274143  0.44224847  0.52565438  1
  Se  Se6  1  0.44224847  0.16274143  0.86935572  1
  Se  Se7  1  0.52565438  0.86935572  0.16274143  1
loop_
_geom_bond_atom_site_label_1
_geom_bond_atom_site_label_2
_geom_bond_distance
_geom_bond_site_symmetry_2
Cs0 Se5 3.771259 1_565
Cs0 Se6 3.771259 1_654
Cs0 Se1 3.783957 1_654
Cs0 Se2 3.783957 1_565
Cs0 Se4 3.906291 1_555
Cs0 Se7 3.906291 1_555
Cs0 Se6 3.928890 1_565
Cs0 Se5 3.928890 1_654
Cs1 Se7 3.771259 1_545
Cs1 Se4 3.771259 1_456
Cs1 Se3 3.783957 1_456
Cs1 Se0 3.783957 1_545
Cs1 Se5 3.906291 1_555
Cs1 Se6 3.906291 1_555
Cs1 Se4 3.928890 1_545
Cs1 Se7 3.928890 1_456
Cs2 Se1 3.771259 1_644
Cs2 Se2 3.771259 1_465
Cs2 Se5 3.783957 1_555
Cs2 Se6 3.783957 1_554
Cs2 Se0 3.906291 1_554
Cs2 Se3 3.906291 1_555
Cs2 Se2 3.928890 1_554
Cs2 Se1 3.928890 1_555
Cs3 Se3 3.771259 1_456
Cs3 Se0 3.771259 1_544
Cs3 Se7 3.783957 1_545
Cs3 Se4 3.783957 1_455
Cs3 Se1 3.906291 1_545
Cs3 Se2 3.906291 1_455
Cs3 Se0 3.928890 1_455
Cs3 Se3 3.928890 1_545
Mn0 Se7 2.521327 1_556
Mn0 Se5 2.521327 1_655
Mn0 Se4 2.521327 1_555
Mn0 Se6 2.521327 1_565
Mn1 Se3 2.521327 1_555
Mn1 Se1 2.521327 1_555
Mn1 Se0 2.521327 1_555
Mn1 Se2 2.521327 1_555
Se0 Ti1 2.397958 1_566
Se1 Ti1 2.397958 1_566
Se2 Ti1 2.397958 1_655
Se3 Ti1 2.397958 1_655
Se4 Ti0 2.397958 1_655
Se5 Ti0 2.397958 1_555
Se6 Ti0 2.397958 1_556
Se7 Ti0 2.397958 1_565
