# generated using pymatgen
data_FeCo(BW)6
_symmetry_space_group_name_H-M   'P 1'
_cell_length_a   4.50417089
_cell_length_b   4.50417099
_cell_length_c   10.74336747
_cell_angle_alpha   89.90073366
_cell_angle_beta   90.09926773
_cell_angle_gamma   138.85440728
_symmetry_Int_Tables_number   1
_chemical_formula_structural   FeCo(BW)6
_chemical_formula_sum   'Fe1 Co1 B6 W6'
_cell_volume   143.40972320
_cell_formula_units_Z   1
loop_
 _symmetry_equiv_pos_site_id
 _symmetry_equiv_pos_as_xyz
  1  'x, y, z'
loop_
 _atom_site_type_symbol
 _atom_site_label
 _atom_site_symmetry_multiplicity
 _atom_site_fract_x
 _atom_site_fract_y
 _atom_site_fract_z
 _atom_site_occupancy
  Fe  Fe0  1  0.50000000  0.50000000  0.00000000  1
  Co  Co0  1  0.50000000  0.50000000  0.50000000  1
  B  B0  1  0.79039745  0.20960255  0.25022937  1
  B  B1  1  0.20960255  0.79039745  0.74977063  1
  B  B2  1  0.08605167  0.91394833  0.60196310  1
  B  B3  1  0.91394833  0.08605167  0.39803690  1
  B  B4  1  0.91450371  0.08549629  0.10219974  1
  B  B5  1  0.08549629  0.91450371  0.89780026  1
  W  W0  1  0.49731523  0.50268477  0.25016277  1
  W  W1  1  0.50268477  0.49731523  0.74983723  1
  W  W2  1  0.78902112  0.21097888  0.60697231  1
  W  W3  1  0.21097888  0.78902112  0.39302769  1
  W  W4  1  0.21039787  0.78960213  0.10530432  1
  W  W5  1  0.78960213  0.21039787  0.89469568  1
loop_
_geom_bond_atom_site_label_1
_geom_bond_atom_site_label_2
_geom_bond_distance
_geom_bond_site_symmetry_2
Fe0 W4 2.631785 1_655
Fe0 W5 2.631785 1_454
Fe0 W5 2.631785 1_564
Fe0 W4 2.631785 1_545
Fe0 W5 2.693647 1_554
Fe0 W4 2.693647 1_555
Co0 W2 2.645670 1_455
Co0 W3 2.645670 1_655
Co0 W2 2.645670 1_565
Co0 W3 2.645670 1_545
Co0 W2 2.692971 1_555
Co0 W3 2.692971 1_555
B0 B3 1.897695 1_555
B0 B4 1.905492 1_555
B0 W3 2.304586 1_655
B0 W3 2.304586 1_545
B0 W4 2.319621 1_545
B0 W4 2.319621 1_655
B0 W0 2.355957 1_655
B0 W0 2.355957 1_545
B0 W0 2.471810 1_555
B1 B2 1.897695 1_555
B1 B5 1.905492 1_555
B1 W2 2.304586 1_455
B1 W2 2.304586 1_565
B1 W5 2.319621 1_565
B1 W5 2.319621 1_455
B1 W1 2.355957 1_455
B1 W1 2.355957 1_565
B1 W1 2.471810 1_555
B2 Co0 2.056413 1_455
B2 Co0 2.056413 1_565
B2 W2 2.331945 1_565
B2 W2 2.331945 1_455
B2 W1 2.351054 1_565
B2 W1 2.351054 1_455
B2 W3 2.481412 1_555
B2 W2 2.505788 1_465
B3 Co0 2.056413 1_655
B3 Co0 2.056413 1_545
B3 W3 2.331945 1_545
B3 W3 2.331945 1_655
B3 W0 2.351054 1_545
B3 W0 2.351054 1_655
B3 W2 2.481412 1_555
B3 W3 2.505788 1_645
B4 Fe0 2.057548 1_545
B4 Fe0 2.057548 1_655
B4 W4 2.338727 1_545
B4 W4 2.338727 1_655
B4 W0 2.348549 1_655
B4 W0 2.348549 1_545
B4 W5 2.463880 1_554
B4 W4 2.495688 1_645
B5 Fe0 2.057548 1_566
B5 Fe0 2.057548 1_456
B5 W5 2.338727 1_565
B5 W5 2.338727 1_455
B5 W1 2.348549 1_455
B5 W1 2.348549 1_565
B5 W4 2.463880 1_556
B5 W5 2.495688 1_465
