# generated using pymatgen
data_Ta3Ga2CuC
_symmetry_space_group_name_H-M   'P 1'
_cell_length_a   8.21782317
_cell_length_b   8.21782277
_cell_length_c   8.21782779
_cell_angle_alpha   59.99995928
_cell_angle_beta   59.99996277
_cell_angle_gamma   59.99991413
_symmetry_Int_Tables_number   1
_chemical_formula_structural   Ta3Ga2CuC
_chemical_formula_sum   'Ta12 Ga8 Cu4 C4'
_cell_volume   392.42355059
_cell_formula_units_Z   4
loop_
 _symmetry_equiv_pos_site_id
 _symmetry_equiv_pos_as_xyz
  1  'x, y, z'
loop_
 _atom_site_type_symbol
 _atom_site_label
 _atom_site_symmetry_multiplicity
 _atom_site_fract_x
 _atom_site_fract_y
 _atom_site_fract_z
 _atom_site_occupancy
  Ta  Ta0  1  0.56594963  0.93405037  0.56594963  1
  Ta  Ta1  1  0.31594963  0.68405037  0.68405037  1
  Ta  Ta2  1  0.68405037  0.31594963  0.31594963  1
  Ta  Ta3  1  0.31594963  0.68405037  0.31594963  1
  Ta  Ta4  1  0.68405037  0.68405037  0.31594863  1
  Ta  Ta5  1  0.31594963  0.31594963  0.68405037  1
  Ta  Ta6  1  0.56594963  0.56594963  0.93405137  1
  Ta  Ta7  1  0.93405037  0.56594963  0.56594963  1
  Ta  Ta8  1  0.56594963  0.93405037  0.93405037  1
  Ta  Ta9  1  0.93405037  0.93405037  0.56594963  1
  Ta  Ta10  1  0.68405037  0.31594963  0.68405037  1
  Ta  Ta11  1  0.93405037  0.56594963  0.93405037  1
  Ga  Ga0  1  0.91548492  0.91548492  0.91548392  1
  Ga  Ga1  1  0.99645275  0.33451508  0.33451608  1
  Ga  Ga2  1  0.33451508  0.99645275  0.33451608  1
  Ga  Ga3  1  0.33451508  0.33451508  0.99645275  1
  Ga  Ga4  1  0.91548492  0.25354725  0.91548392  1
  Ga  Ga5  1  0.91548492  0.91548492  0.25354725  1
  Ga  Ga6  1  0.25354725  0.91548492  0.91548392  1
  Ga  Ga7  1  0.33451508  0.33451508  0.33451608  1
  Cu  Cu0  1  0.12500000  0.12500000  0.12500000  1
  Cu  Cu1  1  0.62500000  0.12500000  0.12500000  1
  Cu  Cu2  1  0.12500000  0.62500000  0.12500000  1
  Cu  Cu3  1  0.12500000  0.12500000  0.62500000  1
  C  C0  1  0.62500000  0.62500000  0.62500000  1
  C  C1  1  0.12500000  0.62500000  0.62500000  1
  C  C2  1  0.62500000  0.12500000  0.62500000  1
  C  C3  1  0.62500000  0.62500000  0.12500000  1
loop_
_geom_bond_atom_site_label_1
_geom_bond_atom_site_label_2
_geom_bond_distance
_geom_bond_site_symmetry_2
Ga0 Ta9 2.728390 1_555
Ga0 Ta11 2.728392 1_555
Ga0 Ta8 2.728392 1_555
Ga0 Ga4 2.778136 1_565
Ga0 Ga6 2.778136 1_655
Ga0 Ga5 2.778146 1_556
Ga0 Ta10 3.027178 1_565
Ga0 Ta1 3.027178 1_655
Ga0 Ta4 3.027184 1_556
Ga1 Ta10 2.728384 1_555
Ga1 Ta2 2.728385 1_555
Ga1 Ta4 2.728385 1_555
Ga1 Ga2 2.778133 1_645
Ga1 Ga7 2.778136 1_655
Ga1 Ga3 2.778140 1_654
Ga1 Ta9 3.027177 1_545
Ga1 Ta11 3.027185 1_554
Ga1 Ta7 3.027186 1_555
Ga2 Ta1 2.728384 1_555
Ga2 Ta3 2.728385 1_555
Ga2 Ta4 2.728385 1_555
Ga2 Ga7 2.778136 1_565
Ga2 Ga3 2.778140 1_564
Ga2 Ta9 3.027177 1_455
Ga2 Ta8 3.027185 1_554
Ga2 Ta0 3.027186 1_555
Ga3 Ta5 2.728382 1_555
Ga3 Ta1 2.728388 1_555
Ga3 Ta10 2.728388 1_555
Ga3 Ga7 2.778146 1_556
Ga3 Ta8 3.027175 1_545
Ga3 Ta11 3.027175 1_455
Ga3 Ta6 3.027197 1_555
Ga4 Ta7 2.728384 1_555
Ga4 Ta11 2.728385 1_555
Ga4 Ta6 2.728385 1_555
Ga4 Ga6 2.778133 1_645
Ga4 Ga5 2.778140 1_546
Ga4 Ta5 3.027177 1_655
Ga4 Ta2 3.027185 1_556
Ga4 Ta10 3.027186 1_555
Ga5 Ta9 2.728382 1_555
Ga5 Ta7 2.728388 1_555
Ga5 Ta0 2.728388 1_555
Ga5 Ga6 2.778140 1_654
Ga5 Ta2 3.027175 1_565
Ga5 Ta3 3.027175 1_655
Ga5 Ta4 3.027197 1_555
Ga6 Ta0 2.728384 1_555
Ga6 Ta8 2.728385 1_555
Ga6 Ta6 2.728385 1_555
Ga6 Ta5 3.027177 1_565
Ga6 Ta3 3.027185 1_556
Ga6 Ta1 3.027186 1_555
Ga7 Ta5 2.728390 1_555
Ga7 Ta3 2.728392 1_555
Ga7 Ta2 2.728392 1_555
Ga7 Ta0 3.027178 1_545
Ga7 Ta7 3.027178 1_455
Ga7 Ta6 3.027184 1_554
Cu0 Ga3 2.524209 1_554
Cu0 Ga5 2.524209 1_445
Cu0 Ga2 2.524216 1_545
Cu0 Ga4 2.524216 1_454
Cu0 Ga1 2.524216 1_455
Cu0 Ga6 2.524216 1_544
Cu0 Ta11 3.024151 1_454
Cu0 Ta3 3.024151 1_545
Cu0 Ta8 3.024151 1_544
Cu0 Ta2 3.024151 1_455
Cu0 Ta9 3.024154 1_445
Cu0 Ta5 3.024154 1_554
Cu1 Ga7 2.524216 1_555
Cu1 Ga0 2.524216 1_544
Cu1 Ga5 2.524221 1_545
Cu1 Ga3 2.524221 1_554
Cu1 Ga4 2.524222 1_554
Cu1 Ga2 2.524222 1_545
Cu1 Ta6 3.024152 1_554
Cu1 Ta4 3.024152 1_545
Cu1 Ta0 3.024154 1_545
Cu1 Ta10 3.024154 1_554
Cu1 Ta2 3.024155 1_555
Cu1 Ta8 3.024155 1_544
Cu2 Ga7 2.524216 1_555
Cu2 Ga0 2.524216 1_454
Cu2 Ga5 2.524221 1_455
Cu2 Ga3 2.524221 1_554
Cu2 Ga6 2.524222 1_554
Cu2 Ga1 2.524222 1_455
Cu2 Ta6 3.024152 1_554
Cu2 Ta4 3.024152 1_455
Cu2 Ta7 3.024154 1_455
Cu2 Ta1 3.024154 1_554
Cu2 Ta3 3.024155 1_555
Cu2 Ta11 3.024155 1_454
Cu3 Ga7 2.524211 1_555
Cu3 Ga0 2.524211 1_445
Cu3 Ga6 2.524215 1_545
Cu3 Ga1 2.524215 1_455
Cu3 Ga4 2.524215 1_455
Cu3 Ga2 2.524215 1_545
Cu3 Ta7 3.024151 1_455
Cu3 Ta1 3.024151 1_545
Cu3 Ta0 3.024151 1_545
Cu3 Ta10 3.024151 1_455
Cu3 Ta5 3.024155 1_555
Cu3 Ta9 3.024155 1_445
C0 Ta0 2.166044 1_555
C0 Ta10 2.166044 1_555
C0 Ta7 2.166045 1_555
C0 Ta1 2.166045 1_555
C0 Ta6 2.166054 1_555
C0 Ta4 2.166054 1_555
C1 Ta9 2.166043 1_455
C1 Ta5 2.166043 1_555
C1 Ta11 2.166046 1_455
C1 Ta3 2.166046 1_555
C1 Ta1 2.166047 1_555
C1 Ta7 2.166047 1_455
C2 Ta9 2.166043 1_545
C2 Ta5 2.166043 1_555
C2 Ta8 2.166046 1_545
C2 Ta2 2.166046 1_555
C2 Ta10 2.166047 1_555
C2 Ta0 2.166047 1_545
C3 Ta4 2.166039 1_555
C3 Ta6 2.166039 1_554
C3 Ta8 2.166044 1_554
C3 Ta2 2.166044 1_555
C3 Ta11 2.166044 1_554
C3 Ta3 2.166044 1_555
