# generated using pymatgen
data_AlAs(SeO3)4
_symmetry_space_group_name_H-M   'P 1'
_cell_length_a   7.77591313
_cell_length_b   7.79554932
_cell_length_c   7.75194714
_cell_angle_alpha   90.38034606
_cell_angle_beta   90.00000000
_cell_angle_gamma   90.00000000
_symmetry_Int_Tables_number   1
_chemical_formula_structural   AlAs(SeO3)4
_chemical_formula_sum   'Al2 As2 Se8 O24'
_cell_volume   469.89341254
_cell_formula_units_Z   2
loop_
 _symmetry_equiv_pos_site_id
 _symmetry_equiv_pos_as_xyz
  1  'x, y, z'
loop_
 _atom_site_type_symbol
 _atom_site_label
 _atom_site_symmetry_multiplicity
 _atom_site_fract_x
 _atom_site_fract_y
 _atom_site_fract_z
 _atom_site_occupancy
  Al  Al0  1  0.00000000  0.00000000  0.50000000  1
  Al  Al1  1  0.50000000  0.00000000  0.00000000  1
  As  As0  1  0.00000000  0.50000000  0.00000000  1
  As  As1  1  0.50000000  0.50000000  0.50000000  1
  Se  Se0  1  0.32318951  0.67253005  0.17355455  1
  Se  Se1  1  0.82318951  0.32746995  0.32644545  1
  Se  Se2  1  0.66931758  0.82958892  0.67230154  1
  Se  Se3  1  0.16931758  0.17041108  0.82769846  1
  Se  Se4  1  0.67681049  0.32746995  0.82644545  1
  Se  Se5  1  0.17681049  0.67253005  0.67355455  1
  Se  Se6  1  0.33068242  0.17041108  0.32769846  1
  Se  Se7  1  0.83068242  0.82958892  0.17230154  1
  O  O0  1  0.23396440  0.51522704  0.03489511  1
  O  O1  1  0.73396440  0.48477296  0.46510489  1
  O  O2  1  0.76304889  0.95822689  0.52731137  1
  O  O3  1  0.26304889  0.04177311  0.97268863  1
  O  O4  1  0.52658159  0.96561916  0.76169094  1
  O  O5  1  0.46907805  0.52646939  0.26481821  1
  O  O6  1  0.96907805  0.47353061  0.23518179  1
  O  O7  1  0.02658159  0.03438084  0.73830906  1
  O  O8  1  0.95470813  0.23930279  0.46956202  1
  O  O9  1  0.51679015  0.73099770  0.52665446  1
  O  O10  1  0.45470813  0.76069721  0.03043798  1
  O  O11  1  0.01679015  0.26900230  0.97334554  1
  O  O12  1  0.76603560  0.48477296  0.96510489  1
  O  O13  1  0.26603560  0.51522704  0.53489511  1
  O  O14  1  0.23695111  0.04177311  0.47268863  1
  O  O15  1  0.73695111  0.95822689  0.02731137  1
  O  O16  1  0.47341841  0.03438084  0.23830906  1
  O  O17  1  0.53092195  0.47353061  0.73518179  1
  O  O18  1  0.03092195  0.52646939  0.76481821  1
  O  O19  1  0.97341841  0.96561916  0.26169094  1
  O  O20  1  0.04529187  0.76069721  0.53043798  1
  O  O21  1  0.48320985  0.26900230  0.47334554  1
  O  O22  1  0.54529187  0.23930279  0.96956202  1
  O  O23  1  0.98320985  0.73099770  0.02665446  1
loop_
_geom_bond_atom_site_label_1
_geom_bond_atom_site_label_2
_geom_bond_distance
_geom_bond_site_symmetry_2
Al0 O7 1.876358 1_555
Al0 O19 1.876358 1_445
Al0 O14 1.883250 1_555
Al0 O2 1.883250 1_445
Al0 O8 1.914584 1_455
Al0 O20 1.914584 1_545
Al1 O16 1.876358 1_555
Al1 O4 1.876358 1_544
Al1 O15 1.883250 1_545
Al1 O3 1.883250 1_554
Al1 O22 1.914584 1_554
Al1 O10 1.914584 1_545
As0 O23 1.815906 1_455
As0 O11 1.815906 1_554
As0 O0 1.842998 1_555
As0 O12 1.842998 1_454
As0 O6 1.851794 1_455
As0 O18 1.851794 1_554
As1 O9 1.815906 1_555
As1 O21 1.815906 1_555
As1 O1 1.842998 1_555
As1 O13 1.842998 1_555
As1 O5 1.851794 1_555
As1 O17 1.851794 1_555
O0 Se0 1.767189 1_555
O1 Se1 1.767189 1_555
O2 Se2 1.677818 1_555
O3 Se3 1.677818 1_555
O4 Se2 1.681312 1_555
O5 Se0 1.759140 1_555
O6 Se1 1.759140 1_555
O7 Se3 1.681312 1_555
O8 Se1 1.661093 1_555
O9 Se2 1.805720 1_555
O10 Se0 1.661093 1_555
O11 Se3 1.805720 1_555
O12 Se4 1.767189 1_555
O13 Se5 1.767189 1_555
O14 Se6 1.677818 1_555
O15 Se7 1.677818 1_555
O16 Se6 1.681312 1_555
O17 Se4 1.759140 1_555
O18 Se5 1.759140 1_555
O19 Se7 1.681312 1_555
O20 Se5 1.661093 1_555
O21 Se6 1.805720 1_555
O22 Se4 1.661093 1_555
O23 Se7 1.805720 1_555
