# generated using pymatgen
data_Nb3Zn2AuC
_symmetry_space_group_name_H-M   'P 1'
_cell_length_a   8.40010049
_cell_length_b   8.40010090
_cell_length_c   8.40010009
_cell_angle_alpha   59.99999546
_cell_angle_beta   59.99999384
_cell_angle_gamma   59.99999079
_symmetry_Int_Tables_number   1
_chemical_formula_structural   Nb3Zn2AuC
_chemical_formula_sum   'Nb12 Zn8 Au4 C4'
_cell_volume   419.11999643
_cell_formula_units_Z   4
loop_
 _symmetry_equiv_pos_site_id
 _symmetry_equiv_pos_as_xyz
  1  'x, y, z'
loop_
 _atom_site_type_symbol
 _atom_site_label
 _atom_site_symmetry_multiplicity
 _atom_site_fract_x
 _atom_site_fract_y
 _atom_site_fract_z
 _atom_site_occupancy
  Nb  Nb0  1  0.81988298  0.18011702  0.81988298  1
  Nb  Nb1  1  0.06988298  0.43011702  0.43011702  1
  Nb  Nb2  1  0.43011702  0.06988298  0.06988298  1
  Nb  Nb3  1  0.06988298  0.43011702  0.06988298  1
  Nb  Nb4  1  0.43011702  0.43011702  0.06988298  1
  Nb  Nb5  1  0.06988298  0.06988298  0.43011702  1
  Nb  Nb6  1  0.81988298  0.81988298  0.18011702  1
  Nb  Nb7  1  0.18011702  0.81988298  0.81988298  1
  Nb  Nb8  1  0.81988298  0.18011702  0.18011702  1
  Nb  Nb9  1  0.18011702  0.18011702  0.81988298  1
  Nb  Nb10  1  0.43011702  0.06988298  0.43011702  1
  Nb  Nb11  1  0.18011702  0.81988298  0.18011702  1
  Zn  Zn0  1  0.41493414  0.41493414  0.41493414  1
  Zn  Zn1  1  0.49480241  0.83506586  0.83506586  1
  Zn  Zn2  1  0.83506586  0.49480241  0.83506586  1
  Zn  Zn3  1  0.83506586  0.83506586  0.49480241  1
  Zn  Zn4  1  0.41493414  0.75519759  0.41493414  1
  Zn  Zn5  1  0.41493414  0.41493414  0.75519759  1
  Zn  Zn6  1  0.75519759  0.41493414  0.41493414  1
  Zn  Zn7  1  0.83506586  0.83506586  0.83506586  1
  Au  Au0  1  0.62500000  0.62500000  0.62500000  1
  Au  Au1  1  0.12500000  0.62500000  0.62500000  1
  Au  Au2  1  0.62500000  0.12500000  0.62500000  1
  Au  Au3  1  0.62500000  0.62500000  0.12500000  1
  C  C0  1  0.12500000  0.12500000  0.12500000  1
  C  C1  1  0.62500000  0.12500000  0.12500000  1
  C  C2  1  0.12500000  0.62500000  0.12500000  1
  C  C3  1  0.12500000  0.12500000  0.62500000  1
loop_
_geom_bond_atom_site_label_1
_geom_bond_atom_site_label_2
_geom_bond_distance
_geom_bond_site_symmetry_2
Au0 Zn2 2.584096 1_555
Au0 Zn4 2.584096 1_555
Au0 Zn1 2.584096 1_555
Au0 Zn6 2.584096 1_555
Au0 Zn3 2.584097 1_555
Au0 Zn5 2.584097 1_555
Au0 Nb1 3.125681 1_655
Au0 Nb7 3.125681 1_555
Au0 Nb6 3.125681 1_555
Au0 Nb4 3.125681 1_556
Au0 Nb10 3.125681 1_565
Au0 Nb0 3.125681 1_555
Au1 Zn7 2.584096 1_455
Au1 Zn0 2.584096 1_555
Au1 Zn5 2.584096 1_555
Au1 Zn3 2.584096 1_455
Au1 Zn4 2.584096 1_555
Au1 Zn2 2.584096 1_455
Au1 Nb3 3.125681 1_556
Au1 Nb11 3.125681 1_555
Au1 Nb5 3.125681 1_565
Au1 Nb9 3.125681 1_555
Au1 Nb7 3.125681 1_555
Au1 Nb1 3.125681 1_555
Au2 Zn7 2.584096 1_545
Au2 Zn0 2.584096 1_555
Au2 Zn5 2.584096 1_555
Au2 Zn3 2.584096 1_545
Au2 Zn6 2.584096 1_555
Au2 Zn1 2.584096 1_545
Au2 Nb2 3.125681 1_556
Au2 Nb8 3.125681 1_555
Au2 Nb5 3.125681 1_655
Au2 Nb9 3.125681 1_555
Au2 Nb0 3.125681 1_555
Au2 Nb10 3.125681 1_555
Au3 Zn4 2.584096 1_555
Au3 Zn2 2.584096 1_554
Au3 Zn6 2.584096 1_555
Au3 Zn1 2.584096 1_554
Au3 Zn7 2.584096 1_554
Au3 Zn0 2.584096 1_555
Au3 Nb3 3.125681 1_655
Au3 Nb11 3.125681 1_555
Au3 Nb2 3.125681 1_565
Au3 Nb8 3.125681 1_555
Au3 Nb6 3.125681 1_555
Au3 Nb4 3.125681 1_555
C0 Nb5 2.199732 1_555
C0 Nb9 2.199732 1_554
C0 Nb2 2.199732 1_555
C0 Nb8 2.199732 1_455
C0 Nb3 2.199732 1_555
C0 Nb11 2.199732 1_545
C1 Nb0 2.199732 1_554
C1 Nb10 2.199732 1_555
C1 Nb4 2.199732 1_555
C1 Nb6 2.199732 1_545
C1 Nb8 2.199732 1_555
C1 Nb2 2.199732 1_555
C2 Nb4 2.199732 1_555
C2 Nb6 2.199732 1_455
C2 Nb1 2.199732 1_555
C2 Nb7 2.199732 1_554
C2 Nb11 2.199732 1_555
C2 Nb3 2.199732 1_555
C3 Nb10 2.199732 1_555
C3 Nb0 2.199732 1_455
C3 Nb1 2.199732 1_555
C3 Nb7 2.199732 1_545
C3 Nb9 2.199732 1_555
C3 Nb5 2.199732 1_555
