# generated using pymatgen
data_CsNb6PbS12
_symmetry_space_group_name_H-M   'P 1'
_cell_length_a   5.86646461
_cell_length_b   5.86646530
_cell_length_c   16.37006897
_cell_angle_alpha   90.00000000
_cell_angle_beta   90.00000000
_cell_angle_gamma   119.99999611
_symmetry_Int_Tables_number   1
_chemical_formula_structural   CsNb6PbS12
_chemical_formula_sum   'Cs1 Nb6 Pb1 S12'
_cell_volume   487.90370810
_cell_formula_units_Z   1
loop_
 _symmetry_equiv_pos_site_id
 _symmetry_equiv_pos_as_xyz
  1  'x, y, z'
loop_
 _atom_site_type_symbol
 _atom_site_label
 _atom_site_symmetry_multiplicity
 _atom_site_fract_x
 _atom_site_fract_y
 _atom_site_fract_z
 _atom_site_occupancy
  Cs  Cs0  1  0.00000000  0.00000000  0.50000000  1
  Nb  Nb0  1  0.00000000  0.00000000  0.22856089  1
  Nb  Nb1  1  0.00000000  0.00000000  0.77143911  1
  Nb  Nb2  1  0.33333300  0.66666700  0.22773500  1
  Nb  Nb3  1  0.66666700  0.33333300  0.77226500  1
  Nb  Nb4  1  0.66666700  0.33333300  0.22773500  1
  Nb  Nb5  1  0.33333300  0.66666700  0.77226500  1
  Pb  Pb0  1  0.00000000  0.00000000  0.00000000  1
  S  S0  1  0.33450220  0.00000000  0.13313575  1
  S  S1  1  0.00000000  0.33450220  0.13313575  1
  S  S2  1  0.66549780  0.66549780  0.13313575  1
  S  S3  1  0.33500727  0.33500727  0.67776933  1
  S  S4  1  0.66499273  0.66499273  0.32223067  1
  S  S5  1  0.66499273  0.00000000  0.67776933  1
  S  S6  1  0.00000000  0.66499273  0.67776933  1
  S  S7  1  1.00000000  0.66549780  0.86686425  1
  S  S8  1  0.33450220  0.33450220  0.86686425  1
  S  S9  1  1.00000000  0.33500727  0.32223067  1
  S  S10  1  0.33500727  0.00000000  0.32223067  1
  S  S11  1  0.66549780  0.00000000  0.86686425  1
loop_
_geom_bond_atom_site_label_1
_geom_bond_atom_site_label_2
_geom_bond_distance
_geom_bond_site_symmetry_2
Cs0 S5 3.511566 1_455
Cs0 S10 3.511566 1_555
Cs0 S3 3.511566 1_555
Cs0 S6 3.511566 1_545
Cs0 S9 3.511566 1_455
Cs0 S4 3.511566 1_445
Nb0 S10 2.492728 1_555
Nb0 S9 2.492728 1_455
Nb0 S4 2.492728 1_445
Nb0 S0 2.508188 1_555
Nb0 S1 2.508188 1_555
Nb0 S2 2.508188 1_445
Nb1 S5 2.492728 1_455
Nb1 S3 2.492728 1_555
Nb1 S6 2.492728 1_545
Nb1 S11 2.508188 1_455
Nb1 S7 2.508188 1_445
Nb1 S8 2.508188 1_555
Nb2 S10 2.489522 1_565
Nb2 S9 2.489524 1_455
Nb2 S4 2.489526 1_555
Nb2 S0 2.491729 1_565
Nb2 S1 2.491731 1_555
Nb2 S2 2.491733 1_555
Nb3 S5 2.489522 1_555
Nb3 S6 2.489524 1_655
Nb3 S3 2.489526 1_555
Nb3 S11 2.491729 1_555
Nb3 S7 2.491731 1_555
Nb3 S8 2.491733 1_555
Nb4 S9 2.489522 1_555
Nb4 S10 2.489524 1_555
Nb4 S4 2.489526 1_555
Nb4 S1 2.491728 1_655
Nb4 S0 2.491731 1_555
Nb4 S2 2.491733 1_555
Nb5 S6 2.489522 1_555
Nb5 S5 2.489524 1_565
Nb5 S3 2.489526 1_555
Nb5 S7 2.491728 1_455
Nb5 S11 2.491731 1_565
Nb5 S8 2.491733 1_555
Pb0 S0 2.932706 1_555
Pb0 S11 2.932706 1_454
Pb0 S1 2.932706 1_555
Pb0 S7 2.932706 1_444
Pb0 S2 2.932706 1_445
Pb0 S8 2.932706 1_554
