# generated using pymatgen
data_Pr3OsO7
_symmetry_space_group_name_H-M   'P 1'
_cell_length_a   6.68156705
_cell_length_b   6.68156705
_cell_length_c   7.59978534
_cell_angle_alpha   90.00000000
_cell_angle_beta   90.00000000
_cell_angle_gamma   111.97840017
_symmetry_Int_Tables_number   1
_chemical_formula_structural   Pr3OsO7
_chemical_formula_sum   'Pr6 Os2 O14'
_cell_volume   314.62263241
_cell_formula_units_Z   2
loop_
 _symmetry_equiv_pos_site_id
 _symmetry_equiv_pos_as_xyz
  1  'x, y, z'
loop_
 _atom_site_type_symbol
 _atom_site_label
 _atom_site_symmetry_multiplicity
 _atom_site_fract_x
 _atom_site_fract_y
 _atom_site_fract_z
 _atom_site_occupancy
  Pr  Pr0  1  -0.00000000  0.00000000  -0.00000000  1
  Pr  Pr1  1  -0.00000000  0.00000000  0.50000000  1
  Pr  Pr2  1  0.46924719  0.91335937  0.75000000  1
  Pr  Pr3  1  0.53075281  0.08664063  0.25000000  1
  Pr  Pr4  1  0.91335937  0.46924719  0.75000000  1
  Pr  Pr5  1  0.08664063  0.53075281  0.25000000  1
  Os  Os0  1  0.50000000  0.50000000  -0.00000000  1
  Os  Os1  1  0.50000000  0.50000000  0.50000000  1
  O  O0  1  0.58235979  0.58235979  0.75000000  1
  O  O1  1  0.41764021  0.41764021  0.25000000  1
  O  O2  1  0.84048501  0.10271004  0.75000000  1
  O  O3  1  0.15951499  0.89728996  0.25000000  1
  O  O4  1  0.10271004  0.84048501  0.75000000  1
  O  O5  1  0.89728996  0.15951499  0.25000000  1
  O  O6  1  0.44012250  0.19079704  0.95981912  1
  O  O7  1  0.55987750  0.80920296  0.45981912  1
  O  O8  1  0.19079704  0.44012250  0.95981912  1
  O  O9  1  0.80920296  0.55987750  0.45981912  1
  O  O10  1  0.44012250  0.19079704  0.54018088  1
  O  O11  1  0.55987750  0.80920296  0.04018088  1
  O  O12  1  0.80920296  0.55987750  0.04018088  1
  O  O13  1  0.19079704  0.44012250  0.54018088  1
loop_
_geom_bond_atom_site_label_1
_geom_bond_atom_site_label_2
_geom_bond_distance
_geom_bond_site_symmetry_2
O0 Os1 1.997191 1_555
O0 Os0 1.997191 1_556
O0 Pr4 2.591033 1_555
O0 Pr2 2.591033 1_555
O1 Os0 1.997191 1_555
O1 Os1 1.997191 1_555
O1 Pr3 2.591033 1_555
O1 Pr5 2.591033 1_555
O2 Pr4 2.311344 1_555
O2 Pr2 2.324715 1_545
O2 Pr1 2.400873 1_655
O2 Pr0 2.400873 1_656
O3 Pr5 2.311344 1_555
O3 Pr3 2.324715 1_565
O3 Pr0 2.400873 1_565
O3 Pr1 2.400873 1_565
O4 Pr2 2.311344 1_555
O4 Pr4 2.324715 1_455
O4 Pr0 2.400873 1_566
O4 Pr1 2.400873 1_565
O5 Pr3 2.311344 1_555
O5 Pr5 2.324715 1_655
O5 Pr1 2.400873 1_655
O5 Pr0 2.400873 1_655
O6 Os0 1.975557 1_556
O6 Pr3 2.455576 1_556
O6 Pr2 2.507357 1_545
O6 Pr0 2.749563 1_556
O7 Os1 1.975557 1_555
O7 Pr2 2.455576 1_555
O7 Pr3 2.507357 1_565
O7 Pr1 2.749563 1_665
O8 Os0 1.975557 1_556
O8 Pr5 2.455576 1_556
O8 Pr4 2.507357 1_455
O8 Pr0 2.749563 1_556
O9 Os1 1.975557 1_555
O9 Pr4 2.455576 1_555
O9 Pr5 2.507357 1_655
O9 Pr1 2.749563 1_665
O10 Os1 1.975557 1_555
O10 Pr3 2.455576 1_555
O10 Pr2 2.507357 1_545
O10 Pr1 2.749563 1_555
O11 Os0 1.975557 1_555
O11 Pr2 2.455576 1_554
O11 Pr3 2.507357 1_565
O11 Pr0 2.749563 1_665
O12 Os0 1.975557 1_555
O12 Pr4 2.455576 1_554
O12 Pr5 2.507357 1_655
O12 Pr0 2.749563 1_665
O13 Os1 1.975557 1_555
O13 Pr5 2.455576 1_555
O13 Pr4 2.507357 1_455
O13 Pr1 2.749563 1_555
