# generated using pymatgen
data_CdSb12(OsPd)2
_symmetry_space_group_name_H-M   'P 1'
_cell_length_a   8.14389322
_cell_length_b   8.16277698
_cell_length_c   8.16277675
_cell_angle_alpha   109.60736065
_cell_angle_beta   109.42352688
_cell_angle_gamma   109.47647053
_symmetry_Int_Tables_number   1
_chemical_formula_structural   CdSb12(OsPd)2
_chemical_formula_sum   'Cd1 Sb12 Os2 Pd2'
_cell_volume   417.23615363
_cell_formula_units_Z   1
loop_
 _symmetry_equiv_pos_site_id
 _symmetry_equiv_pos_as_xyz
  1  'x, y, z'
loop_
 _atom_site_type_symbol
 _atom_site_label
 _atom_site_symmetry_multiplicity
 _atom_site_fract_x
 _atom_site_fract_y
 _atom_site_fract_z
 _atom_site_occupancy
  Cd  Cd0  1  0.00000000  0.00000000  0.00000000  1
  Sb  Sb0  1  0.85072350  0.66416086  0.50652985  1
  Sb  Sb1  1  0.14927650  0.33583914  0.49347015  1
  Sb  Sb2  1  0.14927650  0.65580635  0.81343736  1
  Sb  Sb3  1  0.85072350  0.34419365  0.18656264  1
  Sb  Sb4  1  0.66373161  0.50571726  0.84990096  1
  Sb  Sb5  1  0.33626839  0.49428274  0.15009904  1
  Sb  Sb6  1  0.66373161  0.81383064  0.15801434  1
  Sb  Sb7  1  0.33626839  0.18616936  0.84198566  1
  Sb  Sb8  1  0.50148144  0.84764726  0.65383518  1
  Sb  Sb9  1  0.49851856  0.15235274  0.34616482  1
  Sb  Sb10  1  0.17778395  0.84504304  0.33274091  1
  Sb  Sb11  1  0.82221605  0.15495696  0.66725909  1
  Os  Os0  1  0.00000000  0.50000000  0.00000000  1
  Os  Os1  1  0.00000000  0.00000000  0.50000000  1
  Pd  Pd0  1  0.50000000  0.50000000  0.50000000  1
  Pd  Pd1  1  0.50000000  0.00000000  0.00000000  1
loop_
_geom_bond_atom_site_label_1
_geom_bond_atom_site_label_2
_geom_bond_distance
_geom_bond_site_symmetry_2
Cd0 Sb10 3.461908 1_545
Cd0 Sb11 3.461908 1_454
Cd0 Sb1 3.511146 1_555
Cd0 Sb0 3.511146 1_444
Cd0 Sb3 3.511146 1_455
Cd0 Sb2 3.511146 1_544
Cd0 Sb5 3.516003 1_555
Cd0 Sb4 3.516003 1_444
Cd0 Sb7 3.516003 1_554
Cd0 Sb6 3.516003 1_445
Cd0 Sb9 3.557869 1_555
Cd0 Sb8 3.557869 1_444
Sb10 Sb9 2.895361 1_565
Sb10 Sb8 3.024786 1_555
Sb11 Sb8 2.895361 1_545
Sb11 Sb9 3.024786 1_555
Os0 Sb5 2.625816 1_555
Os0 Sb4 2.625816 1_454
Os0 Sb2 2.629585 1_554
Os0 Sb3 2.629585 1_455
Os0 Sb10 2.633850 1_555
Os0 Sb11 2.633850 1_454
Os1 Sb7 2.625816 1_555
Os1 Sb6 2.625816 1_445
Os1 Sb1 2.629585 1_555
Os1 Sb0 2.629585 1_445
Os1 Sb11 2.633850 1_455
Os1 Sb10 2.633850 1_545
Pd0 Sb9 2.684289 1_555
Pd0 Sb8 2.684289 1_555
Pd0 Sb0 2.693547 1_555
Pd0 Sb1 2.693547 1_555
Pd0 Sb5 2.697016 1_555
Pd0 Sb4 2.697016 1_555
Pd1 Sb9 2.684281 1_555
Pd1 Sb8 2.684281 1_544
Pd1 Sb3 2.693547 1_555
Pd1 Sb2 2.693547 1_544
Pd1 Sb6 2.697016 1_545
Pd1 Sb7 2.697016 1_554
