# generated using pymatgen
data_Nb12Al11V2Cu11
_symmetry_space_group_name_H-M   'P 1'
_cell_length_a   8.64830175
_cell_length_b   8.63373203
_cell_length_c   8.18813163
_cell_angle_alpha   90.00000000
_cell_angle_beta   90.00000000
_cell_angle_gamma   120.21093464
_symmetry_Int_Tables_number   1
_chemical_formula_structural   Nb12Al11V2Cu11
_chemical_formula_sum   'Nb12 Al11 V2 Cu11'
_cell_volume   528.34526153
_cell_formula_units_Z   1
loop_
 _symmetry_equiv_pos_site_id
 _symmetry_equiv_pos_as_xyz
  1  'x, y, z'
loop_
 _atom_site_type_symbol
 _atom_site_label
 _atom_site_symmetry_multiplicity
 _atom_site_fract_x
 _atom_site_fract_y
 _atom_site_fract_z
 _atom_site_occupancy
  Nb  Nb0  1  0.32673583  0.99730339  0.06186609  1
  Nb  Nb1  1  0.67103823  0.00057178  0.93852670  1
  Nb  Nb2  1  0.99945851  0.32813778  0.05933707  1
  Nb  Nb3  1  0.67103823  0.00057178  0.56147330  1
  Nb  Nb4  1  0.99945851  0.32813778  0.44066293  1
  Nb  Nb5  1  0.00151176  0.67104095  0.93875973  1
  Nb  Nb6  1  0.32673583  0.99730339  0.43813391  1
  Nb  Nb7  1  0.00151176  0.67104095  0.56124027  1
  Nb  Nb8  1  0.67034722  0.66986453  0.06129447  1
  Nb  Nb9  1  0.32989142  0.32836654  0.93847808  1
  Nb  Nb10  1  0.32989142  0.32836654  0.56152192  1
  Nb  Nb11  1  0.67034722  0.66986453  0.43870553  1
  Al  Al0  1  0.15871020  0.65431959  0.25000000  1
  Al  Al1  1  0.33957861  0.66634113  0.50684705  1
  Al  Al2  1  0.66641457  0.33278465  0.49946206  1
  Al  Al3  1  0.66641457  0.33278465  0.00053794  1
  Al  Al4  1  0.33957861  0.66634113  0.99315295  1
  Al  Al5  1  0.18335206  0.00003231  0.75000000  1
  Al  Al6  1  0.81536290  0.00086552  0.25000000  1
  Al  Al7  1  0.00070442  0.18379933  0.75000000  1
  Al  Al8  1  0.99202488  0.82154411  0.25000000  1
  Al  Al9  1  0.81848260  0.81737503  0.75000000  1
  Al  Al10  1  0.18295506  0.18429877  0.25000000  1
  V  V0  1  0.00063007  0.00313437  0.50085424  1
  V  V1  1  0.00063007  0.00313437  0.99914576  1
  Cu  Cu0  1  0.16251277  0.50224904  0.75000000  1
  Cu  Cu1  1  0.83498895  0.49922336  0.25000000  1
  Cu  Cu2  1  0.50036220  0.65960071  0.75000000  1
  Cu  Cu3  1  0.50267380  0.16306883  0.75000000  1
  Cu  Cu4  1  0.50079819  0.33901670  0.25000000  1
  Cu  Cu5  1  0.49618980  0.83650942  0.25000000  1
  Cu  Cu6  1  0.34073612  0.83855192  0.75000000  1
  Cu  Cu7  1  0.66214001  0.49761600  0.75000000  1
  Cu  Cu8  1  0.65980369  0.16316353  0.25000000  1
  Cu  Cu9  1  0.33974768  0.50410153  0.25000000  1
  Cu  Cu10  1  0.83724125  0.33957705  0.75000000  1
loop_
_geom_bond_atom_site_label_1
_geom_bond_atom_site_label_2
_geom_bond_distance
_geom_bond_site_symmetry_2
Nb0 V1 2.891892 1_564
Nb0 Nb5 2.981350 1_554
Nb0 Nb9 3.018762 1_564
Nb0 Nb6 3.080931 1_555
Nb0 Nb1 3.130888 1_564
Nb1 V1 2.882400 1_655
Nb1 Nb2 2.993352 1_556
Nb1 Nb8 3.024194 1_546
Nb1 Nb3 3.087363 1_555
Nb2 V1 2.853982 1_654
Nb2 Nb9 3.023244 1_654
Nb2 Nb5 3.112385 1_654
Nb2 Nb4 3.122346 1_555
Nb3 V0 2.882400 1_655
Nb3 Nb4 2.993352 1_555
Nb3 Nb6 3.130888 1_545
Nb4 V0 2.853982 1_655
Nb4 Nb7 3.112385 1_655
Nb5 V1 2.913316 1_565
Nb5 Nb8 3.029861 1_456
Nb5 Nb7 3.091179 1_555
Nb6 V0 2.891892 1_565
Nb6 Nb7 2.981350 1_555
Nb7 V0 2.913316 1_565
Nb8 V1 2.902741 1_664
Nb8 Nb9 3.104383 1_554
Nb9 V1 2.862382 1_555
Nb10 V0 2.862382 1_555
Nb10 Nb6 3.018762 1_545
Nb10 Nb4 3.023244 1_455
Nb10 Nb9 3.086567 1_555
Nb10 Nb11 3.104383 1_555
Nb11 V0 2.902741 1_665
Nb11 Nb3 3.024194 1_565
Nb11 Nb7 3.029861 1_655
Nb11 Nb8 3.090291 1_555
Al0 Cu1 2.420392 1_455
Al0 Cu9 2.485334 1_555
Al0 Al8 2.501409 1_455
Al0 Cu5 2.524373 1_555
Al0 Al1 2.591745 1_555
Al0 Al4 2.591745 1_554
Al0 Nb2 2.891643 1_455
Al0 Nb4 2.891643 1_455
Al0 Nb7 2.925975 1_555
Al0 Nb5 2.925975 1_554
Al0 Nb6 2.987146 1_555
Al0 Nb0 2.987146 1_555
Al1 Cu2 2.445870 1_555
Al1 Cu0 2.476435 1_555
Al1 Cu6 2.481877 1_555
Al1 Cu9 2.527278 1_555
Al1 Cu5 2.532472 1_555
Al1 Nb11 2.899589 1_555
Al1 Nb3 2.901665 1_565
Al1 Nb10 2.911364 1_555
Al1 Nb6 2.968711 1_555
Al1 Nb4 2.971258 1_455
Al1 Nb7 2.977826 1_555
Al2 Cu8 2.497197 1_555
Al2 Cu1 2.500876 1_555
Al2 Cu3 2.504507 1_555
Al2 Cu7 2.507578 1_555
Al2 Cu4 2.510830 1_555
Al2 Cu10 2.511422 1_555
Al2 Nb3 2.932852 1_555
Al2 Nb10 2.935662 1_555
Al2 Nb11 2.935751 1_555
Al2 Nb4 2.940344 1_555
Al2 Nb7 2.943790 1_655
Al2 Nb6 2.951003 1_545
Al3 Cu8 2.497197 1_555
Al3 Cu1 2.500876 1_555
Al3 Cu3 2.504507 1_554
Al3 Cu7 2.507578 1_554
Al3 Cu4 2.510830 1_555
Al3 Cu10 2.511422 1_554
Al3 Nb1 2.932852 1_554
Al3 Nb9 2.935662 1_554
Al3 Nb8 2.935751 1_555
Al3 Nb2 2.940344 1_555
Al3 Nb5 2.943790 1_654
Al3 Nb0 2.951003 1_545
Al4 Cu2 2.445870 1_555
Al4 Cu0 2.476435 1_555
Al4 Cu6 2.481877 1_555
Al4 Cu9 2.527278 1_556
Al4 Cu5 2.532472 1_556
Al4 Nb8 2.899589 1_556
Al4 Nb1 2.901665 1_565
Al4 Nb9 2.911364 1_555
Al4 Nb0 2.968711 1_556
Al4 Nb2 2.971258 1_456
Al4 Nb5 2.977826 1_555
Al5 Cu3 2.386576 1_555
Al5 Cu6 2.388734 1_545
Al5 V0 2.588862 1_555
Al5 V1 2.588862 1_555
Al5 Nb0 2.844028 1_546
Al5 Nb6 2.844028 1_545
Al5 Nb9 2.899692 1_555
Al5 Nb10 2.899692 1_555
Al5 Nb5 2.904242 1_545
Al5 Nb7 2.904242 1_545
Al6 Cu8 2.381278 1_555
Al6 Cu5 2.385587 1_545
Al6 V1 2.599042 1_654
Al6 V0 2.599042 1_655
Al6 Nb3 2.838872 1_555
Al6 Nb1 2.838872 1_554
Al6 Nb2 2.903221 1_555
Al6 Nb4 2.903221 1_555
Al6 Nb11 2.918961 1_545
Al6 Nb8 2.918961 1_545
Al7 Cu0 2.376035 1_555
Al7 Cu10 2.391817 1_455
Al7 V0 2.567832 1_555
Al7 V1 2.567832 1_555
Al7 Nb4 2.825268 1_455
Al7 Nb2 2.825268 1_456
Al7 Nb9 2.910066 1_555
Al7 Nb10 2.910066 1_555
Al7 Nb1 2.911196 1_455
Al7 Nb3 2.911196 1_455
Al8 Cu1 2.405233 1_555
Al8 V1 2.562255 1_664
Al8 V0 2.562255 1_665
Al8 Nb11 2.859265 1_555
Al8 Nb8 2.859265 1_555
Al8 Nb7 2.880487 1_655
Al8 Nb5 2.880487 1_654
Al8 Nb6 2.938427 1_655
Al8 Nb0 2.938427 1_655
Al9 Cu2 2.377633 1_555
Al9 Cu7 2.386038 1_555
Al9 V0 2.583193 1_665
Al9 V1 2.583193 1_665
Al9 Nb8 2.849254 1_556
Al9 Nb11 2.849254 1_555
Al9 Nb5 2.916020 1_655
Al9 Nb7 2.916020 1_655
Al9 Nb1 2.922385 1_565
Al9 Nb3 2.922385 1_565
Al10 Cu4 2.375930 1_555
Al10 Cu9 2.386310 1_555
Al10 V1 2.582595 1_554
Al10 V0 2.582595 1_555
Al10 Nb10 2.842140 1_555
Al10 Nb9 2.842140 1_554
Al10 Nb4 2.912245 1_455
Al10 Nb2 2.912245 1_455
Al10 Nb6 2.923362 1_545
Al10 Nb0 2.923362 1_545
Cu0 Cu10 2.431000 1_455
Cu0 Cu6 2.510470 1_555
Cu0 Cu2 2.527447 1_555
Cu0 Nb5 2.914339 1_555
Cu0 Nb7 2.914339 1_555
Cu0 Nb4 2.920698 1_455
Cu0 Nb2 2.920698 1_456
Cu0 Nb9 2.986275 1_555
Cu0 Nb10 2.986275 1_555
Cu1 Cu4 2.498647 1_555
Cu1 Cu8 2.507977 1_555
Cu1 Nb7 2.935871 1_655
Cu1 Nb5 2.935871 1_654
Cu1 Nb11 2.948986 1_555
Cu1 Nb8 2.948986 1_555
Cu1 Nb4 2.959168 1_555
Cu1 Nb2 2.959168 1_555
Cu2 Cu7 2.425395 1_555
Cu2 Cu6 2.537581 1_555
Cu2 Nb9 2.913868 1_555
Cu2 Nb10 2.913868 1_555
Cu2 Nb8 2.921453 1_556
Cu2 Nb11 2.921453 1_555
Cu2 Nb1 2.975734 1_565
Cu2 Nb3 2.975734 1_565
Cu3 Cu6 2.421267 1_545
Cu3 Cu7 2.497191 1_555
Cu3 Nb1 2.920133 1_555
Cu3 Nb3 2.920133 1_555
Cu3 Nb0 2.948355 1_546
Cu3 Nb6 2.948355 1_545
Cu3 Nb9 2.966043 1_555
Cu3 Nb10 2.966043 1_555
Cu4 Cu9 2.443199 1_555
Cu4 Cu8 2.509428 1_555
Cu4 Nb11 2.912341 1_555
Cu4 Nb8 2.912341 1_555
Cu4 Nb10 2.926229 1_555
Cu4 Nb9 2.926229 1_554
Cu4 Nb6 2.978874 1_545
Cu4 Nb0 2.978874 1_545
Cu5 Cu8 2.437199 1_565
Cu5 Cu9 2.481799 1_555
Cu5 Nb6 2.914680 1_555
Cu5 Nb0 2.914680 1_555
Cu5 Nb3 2.939707 1_565
Cu5 Nb1 2.939707 1_564
Cu5 Nb11 2.984441 1_555
Cu5 Nb8 2.984441 1_555
Cu6 Nb1 2.911749 1_565
Cu6 Nb3 2.911749 1_565
Cu6 Nb0 2.929358 1_556
Cu6 Nb6 2.929358 1_555
Cu6 Nb5 2.969387 1_555
Cu6 Nb7 2.969387 1_555
Cu7 Nb9 2.923669 1_555
Cu7 Nb10 2.923669 1_555
Cu7 Nb8 2.933839 1_556
Cu7 Nb11 2.933839 1_555
Cu7 Nb5 2.970247 1_655
Cu7 Nb7 2.970247 1_655
Cu8 Nb6 2.927399 1_545
Cu8 Nb0 2.927399 1_545
Cu8 Nb3 2.936280 1_555
Cu8 Nb1 2.936280 1_554
Cu8 Nb2 2.980601 1_555
Cu8 Nb4 2.980601 1_555
Cu9 Nb11 2.914165 1_555
Cu9 Nb8 2.914165 1_555
Cu9 Nb10 2.947142 1_555
Cu9 Nb9 2.947142 1_554
Cu9 Nb2 2.984403 1_455
Cu9 Nb4 2.984403 1_455
Cu10 Cu7 2.496872 1_555
Cu10 Cu3 2.501374 1_555
Cu10 Nb5 2.916394 1_655
Cu10 Nb7 2.916394 1_655
Cu10 Nb4 2.921109 1_555
Cu10 Nb2 2.921109 1_556
Cu10 Nb1 2.963411 1_555
Cu10 Nb3 2.963411 1_555
