# generated using pymatgen
data_Sr2Ir2Cl
_symmetry_space_group_name_H-M   'P 1'
_cell_length_a   4.30292223
_cell_length_b   4.30292077
_cell_length_c   16.80623141
_cell_angle_alpha   90.00000000
_cell_angle_beta   90.00000000
_cell_angle_gamma   120.00000369
_symmetry_Int_Tables_number   1
_chemical_formula_structural   Sr2Ir2Cl
_chemical_formula_sum   'Sr4 Ir4 Cl2'
_cell_volume   269.48078373
_cell_formula_units_Z   2
loop_
 _symmetry_equiv_pos_site_id
 _symmetry_equiv_pos_as_xyz
  1  'x, y, z'
loop_
 _atom_site_type_symbol
 _atom_site_label
 _atom_site_symmetry_multiplicity
 _atom_site_fract_x
 _atom_site_fract_y
 _atom_site_fract_z
 _atom_site_occupancy
  Sr  Sr0  1  0.00000000  0.00000000  0.62136955  1
  Sr  Sr1  1  0.00000000  0.00000000  0.37863045  1
  Sr  Sr2  1  0.00000000  0.00000000  0.12136955  1
  Sr  Sr3  1  0.00000000  0.00000000  0.87863045  1
  Ir  Ir0  1  0.66666700  0.33333300  0.50189388  1
  Ir  Ir1  1  0.33333300  0.66666700  0.00189388  1
  Ir  Ir2  1  0.66666700  0.33333300  0.99810612  1
  Ir  Ir3  1  0.33333300  0.66666700  0.49810612  1
  Cl  Cl0  1  0.66666700  0.33333300  0.25000000  1
  Cl  Cl1  1  0.33333300  0.66666700  0.75000000  1
loop_
_geom_bond_atom_site_label_1
_geom_bond_atom_site_label_2
_geom_bond_distance
_geom_bond_site_symmetry_2
Ir0 Ir3 2.485105 1_545
Ir0 Ir3 2.485106 1_655
Ir0 Ir3 2.485113 1_555
Ir0 Sr0 3.194293 1_655
Ir0 Sr0 3.194295 1_665
Ir0 Sr0 3.194296 1_555
Ir0 Sr1 3.234687 1_655
Ir0 Sr1 3.234689 1_665
Ir0 Sr1 3.234690 1_555
Ir1 Ir2 2.485105 1_564
Ir1 Ir2 2.485106 1_454
Ir1 Ir2 2.485113 1_554
Ir1 Sr2 3.194293 1_565
Ir1 Sr2 3.194295 1_555
Ir1 Sr2 3.194296 1_665
Ir1 Sr3 3.234687 1_564
Ir1 Sr3 3.234689 1_554
Ir1 Sr3 3.234690 1_664
Ir2 Sr3 3.194293 1_655
Ir2 Sr3 3.194295 1_665
Ir2 Sr3 3.194296 1_555
Ir2 Sr2 3.234687 1_656
Ir2 Sr2 3.234689 1_666
Ir2 Sr2 3.234690 1_556
Ir3 Sr1 3.194293 1_565
Ir3 Sr1 3.194295 1_555
Ir3 Sr1 3.194296 1_665
Ir3 Sr0 3.234687 1_565
Ir3 Sr0 3.234689 1_555
Ir3 Sr0 3.234690 1_665
Cl0 Sr1 3.293182 1_655
Cl0 Sr2 3.293182 1_655
Cl0 Sr1 3.293185 1_665
Cl0 Sr2 3.293185 1_665
Cl0 Sr1 3.293185 1_555
Cl0 Sr2 3.293185 1_555
Cl1 Sr3 3.293182 1_565
Cl1 Sr0 3.293182 1_565
Cl1 Sr3 3.293185 1_555
Cl1 Sr0 3.293185 1_555
Cl1 Sr3 3.293185 1_665
Cl1 Sr0 3.293185 1_665
