# generated using pymatgen
data_Na3Li2TiSb3
_symmetry_space_group_name_H-M   'P 1'
_cell_length_a   10.33341852
_cell_length_b   10.33341960
_cell_length_c   14.56966049
_cell_angle_alpha   90.00000000
_cell_angle_beta   90.00000000
_cell_angle_gamma   143.54088621
_symmetry_Int_Tables_number   1
_chemical_formula_structural   Na3Li2TiSb3
_chemical_formula_sum   'Na12 Li8 Ti4 Sb12'
_cell_volume   924.49800452
_cell_formula_units_Z   4
loop_
 _symmetry_equiv_pos_site_id
 _symmetry_equiv_pos_as_xyz
  1  'x, y, z'
loop_
 _atom_site_type_symbol
 _atom_site_label
 _atom_site_symmetry_multiplicity
 _atom_site_fract_x
 _atom_site_fract_y
 _atom_site_fract_z
 _atom_site_occupancy
  Na  Na0  1  0.59442111  0.93703424  0.82758212  1
  Na  Na1  1  0.26716298  0.26716298  0.32619665  1
  Na  Na2  1  0.23283702  0.23283702  0.82619665  1
  Na  Na3  1  0.73283702  0.73283702  0.67380335  1
  Na  Na4  1  0.43703424  0.09442111  0.67241788  1
  Na  Na5  1  0.90557889  0.56296576  0.32758212  1
  Na  Na6  1  0.06296576  0.40557889  0.17241788  1
  Na  Na7  1  0.40557889  0.06296576  0.17241788  1
  Na  Na8  1  0.56296576  0.90557889  0.32758212  1
  Na  Na9  1  0.09442111  0.43703424  0.67241788  1
  Na  Na10  1  0.93703424  0.59442111  0.82758212  1
  Na  Na11  1  0.76716298  0.76716298  0.17380335  1
  Li  Li0  1  0.08373413  0.91626587  0.00000000  1
  Li  Li1  1  0.58373413  0.41626587  0.50000000  1
  Li  Li2  1  0.91626587  0.08373413  0.00000000  1
  Li  Li3  1  0.75150460  0.24849540  0.00000000  1
  Li  Li4  1  0.74849540  0.25150460  0.50000000  1
  Li  Li5  1  0.24849540  0.75150460  0.00000000  1
  Li  Li6  1  0.25150460  0.74849540  0.50000000  1
  Li  Li7  1  0.41626587  0.58373413  0.50000000  1
  Ti  Ti0  1  0.08724287  0.91275713  0.50000000  1
  Ti  Ti1  1  0.41275713  0.58724287  0.00000000  1
  Ti  Ti2  1  0.91275713  0.08724287  0.50000000  1
  Ti  Ti3  1  0.58724287  0.41275713  0.00000000  1
  Sb  Sb0  1  0.06990955  0.39499692  0.39040816  1
  Sb  Sb1  1  0.89499692  0.56990955  0.10959184  1
  Sb  Sb2  1  0.43009045  0.10500308  0.89040816  1
  Sb  Sb3  1  0.60500308  0.93009045  0.60959184  1
  Sb  Sb4  1  0.93009045  0.60500308  0.60959184  1
  Sb  Sb5  1  0.10500308  0.43009045  0.89040816  1
  Sb  Sb6  1  0.56990955  0.89499692  0.10959184  1
  Sb  Sb7  1  0.39499692  0.06990955  0.39040816  1
  Sb  Sb8  1  0.22849528  0.22849528  0.60476198  1
  Sb  Sb9  1  0.72849528  0.72849528  0.89523802  1
  Sb  Sb10  1  0.27150472  0.27150472  0.10476198  1
  Sb  Sb11  1  0.77150472  0.77150472  0.39523802  1
loop_
_geom_bond_atom_site_label_1
_geom_bond_atom_site_label_2
_geom_bond_distance
_geom_bond_site_symmetry_2
Na0 Sb3 3.180721 1_555
Na0 Sb5 3.352753 1_555
Na0 Sb5 3.375355 1_665
Na0 Sb2 3.387488 1_565
Na0 Sb9 3.512434 1_555
Na1 Sb10 3.226350 1_555
Na1 Sb0 3.332557 1_555
Na1 Sb7 3.332557 1_555
Na1 Sb11 3.358654 1_445
Na1 Sb11 3.412258 1_555
Na2 Sb8 3.226350 1_555
Na2 Sb2 3.332557 1_555
Na2 Sb5 3.332557 1_555
Na2 Sb9 3.358654 1_555
Na2 Sb9 3.412258 1_445
Na3 Sb9 3.226350 1_555
Na3 Sb4 3.332557 1_555
Na3 Sb3 3.332557 1_555
Na3 Sb8 3.358654 1_665
Na3 Sb8 3.412258 1_555
Na4 Sb2 3.180721 1_555
Na4 Sb4 3.352753 1_445
Na4 Sb4 3.375355 1_555
Na4 Sb3 3.387488 1_545
Na4 Sb8 3.512434 1_555
Na5 Sb1 3.180721 1_555
Na5 Sb7 3.352753 1_665
Na5 Sb7 3.375355 1_555
Na5 Sb0 3.387488 1_655
Na5 Sb11 3.512434 1_555
Na6 Sb0 3.180721 1_555
Na6 Sb6 3.352753 1_555
Na6 Sb6 3.375355 1_445
Na6 Sb1 3.387488 1_455
Na6 Sb10 3.512434 1_555
Na7 Sb7 3.180721 1_555
Na7 Sb1 3.352753 1_555
Na7 Sb1 3.375355 1_445
Na7 Sb6 3.387488 1_545
Na7 Sb10 3.512434 1_555
Na8 Sb6 3.180721 1_555
Na8 Sb0 3.352753 1_665
Na8 Sb0 3.375355 1_555
Na8 Sb7 3.387488 1_565
Na8 Sb11 3.512434 1_555
Na9 Sb5 3.180721 1_555
Na9 Sb3 3.352753 1_445
Na9 Sb3 3.375355 1_555
Na9 Sb4 3.387488 1_455
Na9 Sb8 3.512434 1_555
Na10 Sb4 3.180721 1_555
Na10 Sb2 3.352753 1_555
Na10 Sb2 3.375355 1_665
Na10 Sb5 3.387488 1_655
Na10 Sb9 3.512434 1_555
Na11 Sb11 3.226350 1_555
Na11 Sb6 3.332557 1_555
Na11 Sb1 3.332557 1_555
Na11 Sb10 3.358654 1_555
Na11 Sb10 3.412258 1_665
Li0 Sb2 2.816847 1_564
Li0 Sb1 2.816847 1_455
Li0 Sb9 2.848240 1_454
Li0 Sb10 2.848240 1_565
Li1 Sb4 2.816847 1_555
Li1 Sb7 2.816847 1_555
Li1 Sb8 2.848240 1_555
Li1 Sb11 2.848240 1_555
Li2 Sb6 2.816847 1_545
Li2 Sb5 2.816847 1_654
Li2 Sb10 2.848240 1_655
Li2 Sb9 2.848240 1_544
Li3 Sb2 2.803115 1_554
Li3 Sb1 2.803116 1_555
Li3 Sb5 2.896214 1_654
Li3 Sb6 2.896214 1_545
Li4 Sb0 2.803115 1_655
Li4 Sb3 2.803116 1_545
Li4 Sb7 2.896214 1_555
Li4 Sb4 2.896214 1_555
Li5 Sb6 2.803115 1_555
Li5 Sb5 2.803116 1_554
Li5 Sb1 2.896214 1_455
Li5 Sb2 2.896214 1_564
Li6 Sb4 2.803115 1_455
Li6 Sb7 2.803116 1_565
Li6 Sb3 2.896214 1_555
Li6 Sb0 2.896214 1_555
Li7 Sb0 2.816847 1_555
Li7 Sb3 2.816847 1_555
Li7 Sb11 2.848240 1_555
Li7 Sb8 2.848240 1_555
Sb0 Ti2 2.644402 1_455
Sb1 Ti3 2.644402 1_555
Sb2 Ti3 2.644402 1_556
Sb3 Ti2 2.644402 1_565
Sb4 Ti0 2.644402 1_655
Sb5 Ti1 2.644402 1_556
Sb6 Ti1 2.644402 1_555
Sb7 Ti0 2.644402 1_545
Sb8 Ti2 2.728513 1_455
Sb8 Ti0 2.728514 1_545
Sb9 Ti1 2.728513 1_556
Sb9 Ti3 2.728514 1_556
Sb10 Ti3 2.728513 1_555
Sb10 Ti1 2.728514 1_555
Sb11 Ti0 2.728513 1_655
Sb11 Ti2 2.728514 1_565
