# generated using pymatgen
data_RbMn4Ga5Se12
_symmetry_space_group_name_H-M   'P 1'
_cell_length_a   8.85304788
_cell_length_b   8.87040853
_cell_length_c   8.90032982
_cell_angle_alpha   107.08900350
_cell_angle_beta   107.82983582
_cell_angle_gamma   107.42545035
_symmetry_Int_Tables_number   1
_chemical_formula_structural   RbMn4Ga5Se12
_chemical_formula_sum   'Rb1 Mn4 Ga5 Se12'
_cell_volume   574.80532082
_cell_formula_units_Z   1
loop_
 _symmetry_equiv_pos_site_id
 _symmetry_equiv_pos_as_xyz
  1  'x, y, z'
loop_
 _atom_site_type_symbol
 _atom_site_label
 _atom_site_symmetry_multiplicity
 _atom_site_fract_x
 _atom_site_fract_y
 _atom_site_fract_z
 _atom_site_occupancy
  Rb  Rb0  1  0.00256917  0.00194978  0.99667478  1
  Mn  Mn0  1  0.63148434  0.70859777  0.39376820  1
  Mn  Mn1  1  0.39931470  0.63734987  0.71855260  1
  Mn  Mn2  1  0.71031701  0.39113781  0.63222403  1
  Mn  Mn3  1  0.18188328  0.56159604  0.02281921  1
  Ga  Ga0  1  0.48657024  0.33884554  0.94200493  1
  Ga  Ga1  1  0.93944879  0.49107723  0.34325277  1
  Ga  Ga2  1  0.33427998  0.93457402  0.48403652  1
  Ga  Ga3  1  0.02005477  0.18466696  0.55635999  1
  Ga  Ga4  1  0.55902209  0.02453038  0.18357551  1
  Se  Se0  1  0.78401481  0.93214298  0.29429925  1
  Se  Se1  1  0.30426074  0.79731043  0.93204511  1
  Se  Se2  1  0.92666735  0.28601178  0.77350265  1
  Se  Se3  1  0.06953047  0.69786098  0.23857227  1
  Se  Se4  1  0.23215095  0.07791937  0.69194008  1
  Se  Se5  1  0.70003322  0.23384739  0.07886613  1
  Se  Se6  1  0.37767200  0.43169045  0.14859580  1
  Se  Se7  1  0.14925690  0.37714976  0.44180896  1
  Se  Se8  1  0.43519948  0.14376022  0.37098910  1
  Se  Se9  1  0.86292748  0.63146787  0.55960832  1
  Se  Se10  1  0.55398560  0.85955551  0.62891976  1
  Se  Se11  1  0.63399562  0.55159685  0.86222502  1
loop_
_geom_bond_atom_site_label_1
_geom_bond_atom_site_label_2
_geom_bond_distance
_geom_bond_site_symmetry_2
Rb0 Se2 3.726163 1_455
Rb0 Se1 3.740397 1_545
Rb0 Se6 3.745190 1_556
Rb0 Se8 3.766752 1_556
Rb0 Se0 3.811726 1_446
Rb0 Se9 3.816945 1_445
Rb0 Se10 3.832237 1_445
Rb0 Se7 3.869194 1_556
Rb0 Se11 3.876847 1_445
Rb0 Se5 3.944031 1_456
Rb0 Se4 3.946022 1_555
Rb0 Se3 3.981436 1_546
Mn0 Se6 2.526976 1_555
Mn0 Se9 2.534982 1_555
Mn0 Se10 2.535086 1_555
Mn0 Se0 2.588314 1_555
Mn1 Se10 2.524497 1_555
Mn1 Se11 2.534091 1_555
Mn1 Se1 2.538078 1_555
Mn1 Se7 2.560138 1_555
Mn2 Se11 2.526578 1_555
Mn2 Se2 2.530474 1_555
Mn2 Se9 2.531245 1_555
Mn2 Se8 2.546744 1_555
Mn3 Se6 2.520232 1_555
Mn3 Se1 2.523963 1_554
Mn3 Se2 2.537408 1_454
Mn3 Se3 2.581364 1_555
Ga0 Se11 2.376763 1_555
Ga0 Se6 2.379024 1_556
Ga0 Se4 2.482754 1_555
Ga0 Se5 2.496769 1_556
Ga1 Se9 2.369096 1_555
Ga1 Se7 2.426580 1_655
Ga1 Se3 2.440297 1_655
Ga1 Se5 2.475802 1_555
Ga2 Se10 2.373287 1_555
Ga2 Se3 2.428179 1_555
Ga2 Se8 2.430752 1_565
Ga2 Se4 2.487692 1_565
Ga3 Se2 2.372622 1_455
Ga3 Se7 2.414656 1_555
Ga3 Se0 2.442473 1_445
Ga3 Se4 2.495470 1_555
Ga4 Se1 2.386315 1_544
Ga4 Se0 2.420861 1_545
Ga4 Se8 2.424852 1_555
Ga4 Se5 2.493106 1_555
