# generated using pymatgen
data_Bi4OsRuO11
_symmetry_space_group_name_H-M   'P 1'
_cell_length_a   6.52090808
_cell_length_b   7.50860277
_cell_length_c   9.86151975
_cell_angle_alpha   101.00276339
_cell_angle_beta   91.46863687
_cell_angle_gamma   89.89429174
_symmetry_Int_Tables_number   1
_chemical_formula_structural   Bi4OsRuO11
_chemical_formula_sum   'Bi8 Os2 Ru2 O22'
_cell_volume   473.81497261
_cell_formula_units_Z   2
loop_
 _symmetry_equiv_pos_site_id
 _symmetry_equiv_pos_as_xyz
  1  'x, y, z'
loop_
 _atom_site_type_symbol
 _atom_site_label
 _atom_site_symmetry_multiplicity
 _atom_site_fract_x
 _atom_site_fract_y
 _atom_site_fract_z
 _atom_site_occupancy
  Bi  Bi0  1  0.75377161  0.37378970  0.48025481  1
  Bi  Bi1  1  0.24622839  0.62621030  0.51974519  1
  Bi  Bi2  1  0.75321501  0.87448627  0.48063891  1
  Bi  Bi3  1  0.24678499  0.12551373  0.51936109  1
  Bi  Bi4  1  0.47537730  0.94925597  0.82198032  1
  Bi  Bi5  1  0.52462270  0.05074403  0.17801968  1
  Bi  Bi6  1  0.39759589  0.45816014  0.83166448  1
  Bi  Bi7  1  0.60240411  0.54183986  0.16833552  1
  Os  Os0  1  0.93151039  0.20439163  0.81442381  1
  Os  Os1  1  0.06848961  0.79560837  0.18557619  1
  Ru  Ru0  1  0.93470703  0.70364809  0.80962486  1
  Ru  Ru1  1  0.06529297  0.29635191  0.19037514  1
  O  O0  1  0.23041308  0.72369637  0.76679323  1
  O  O1  1  0.76958692  0.27630363  0.23320677  1
  O  O2  1  0.63681886  0.67096684  0.82593328  1
  O  O3  1  0.36318114  0.32903316  0.17406672  1
  O  O4  1  0.64063473  0.24746167  0.84786268  1
  O  O5  1  0.35936527  0.75253833  0.15213732  1
  O  O6  1  0.88793547  0.17787826  0.61289624  1
  O  O7  1  0.11206453  0.82212174  0.38710376  1
  O  O8  1  0.22265184  0.15446503  0.76541392  1
  O  O9  1  0.77734816  0.84553497  0.23458608  1
  O  O10  1  0.90937083  0.63650386  0.60283817  1
  O  O11  1  0.09062917  0.36349614  0.39716183  1
  O  O12  1  0.00394003  0.54416363  0.17683081  1
  O  O13  1  0.99605997  0.45583637  0.82316919  1
  O  O14  1  0.99414104  0.78201654  0.99889730  1
  O  O15  1  0.00585896  0.21798346  0.00110270  1
  O  O16  1  0.58358875  0.61169743  0.38738706  1
  O  O17  1  0.41641125  0.38830257  0.61261294  1
  O  O18  1  0.15287516  0.05233293  0.21517970  1
  O  O19  1  0.84712484  0.94766707  0.78482030  1
  O  O20  1  0.53880021  0.09095100  0.39608340  1
  O  O21  1  0.46119979  0.90904900  0.60391660  1
loop_
_geom_bond_atom_site_label_1
_geom_bond_atom_site_label_2
_geom_bond_distance
_geom_bond_site_symmetry_2
Bi0 O6 2.304638 1_555
Bi0 O10 2.327303 1_555
Bi0 O11 2.360089 1_655
Bi0 O1 2.411168 1_555
Bi0 O16 2.413790 1_555
Bi0 O20 2.538251 1_555
Bi0 O17 2.578199 1_555
Bi1 O7 2.304638 1_555
Bi1 O11 2.327303 1_555
Bi1 O10 2.360089 1_455
Bi1 O0 2.411168 1_555
Bi1 O17 2.413790 1_555
Bi1 O21 2.538251 1_555
Bi1 O16 2.578199 1_555
Bi2 O21 2.273256 1_555
Bi2 O16 2.286017 1_555
Bi2 O20 2.396068 1_565
Bi2 O9 2.403707 1_555
Bi2 O10 2.536632 1_555
Bi2 O7 2.539673 1_655
Bi2 O6 2.544972 1_565
Bi3 O20 2.273256 1_555
Bi3 O17 2.286017 1_555
Bi3 O21 2.396068 1_545
Bi3 O8 2.403707 1_555
Bi3 O11 2.536632 1_555
Bi3 O6 2.539673 1_455
Bi3 O7 2.544972 1_545
Bi4 O21 2.113334 1_555
Bi4 O0 2.308643 1_555
Bi4 O2 2.344555 1_555
Bi4 O8 2.381773 1_565
Bi4 O4 2.452894 1_565
Bi4 O19 2.460611 1_555
Bi5 O20 2.113334 1_555
Bi5 O1 2.308643 1_555
Bi5 O3 2.344555 1_555
Bi5 O9 2.381773 1_545
Bi5 O5 2.452894 1_545
Bi5 O18 2.460611 1_555
Bi6 O17 2.130119 1_555
Bi6 O2 2.244561 1_555
Bi6 O4 2.261490 1_555
Bi6 O0 2.452778 1_555
Bi6 O8 2.516119 1_555
Bi6 O13 2.617556 1_455
Bi7 O16 2.130119 1_555
Bi7 O3 2.244561 1_555
Bi7 O5 2.261490 1_555
Bi7 O1 2.452778 1_555
Bi7 O9 2.516119 1_555
Bi7 O12 2.617556 1_655
O0 Ru0 1.996596 1_455
O1 Ru1 1.996596 1_655
O2 Ru0 1.972874 1_555
O3 Ru1 1.972874 1_555
O4 Os0 1.949401 1_555
O5 Os1 1.949401 1_555
O6 Os0 1.972370 1_555
O7 Os1 1.972370 1_555
O8 Os0 1.988391 1_455
O9 Os1 1.988391 1_655
O10 Ru0 2.007619 1_555
O11 Ru1 2.007619 1_555
O12 Os1 1.920435 1_555
O12 Ru1 1.931207 1_555
O13 Os0 1.920435 1_555
O13 Ru0 1.931207 1_555
O14 Os1 1.875429 1_656
O14 Ru0 1.877459 1_555
O15 Os0 1.875429 1_454
O15 Ru1 1.877459 1_555
O18 Os1 1.970965 1_545
O18 Ru1 1.975645 1_555
O19 Os0 1.970965 1_565
O19 Ru0 1.975645 1_555
