# generated using pymatgen
data_Na2CuAsS3
_symmetry_space_group_name_H-M   'P 1'
_cell_length_a   16.59914886
_cell_length_b   5.67799953
_cell_length_c   7.06343135
_cell_angle_alpha   61.14868403
_cell_angle_beta   90.00000000
_cell_angle_gamma   90.00000000
_symmetry_Int_Tables_number   1
_chemical_formula_structural   Na2CuAsS3
_chemical_formula_sum   'Na8 Cu4 As4 S12'
_cell_volume   583.09451775
_cell_formula_units_Z   4
loop_
 _symmetry_equiv_pos_site_id
 _symmetry_equiv_pos_as_xyz
  1  'x, y, z'
loop_
 _atom_site_type_symbol
 _atom_site_label
 _atom_site_symmetry_multiplicity
 _atom_site_fract_x
 _atom_site_fract_y
 _atom_site_fract_z
 _atom_site_occupancy
  Na  Na0  1  0.04017241  0.83665494  0.31274026  1
  Na  Na1  1  0.54017241  0.16334506  0.18725974  1
  Na  Na2  1  0.12871948  0.57034733  0.89463299  1
  Na  Na3  1  0.62871948  0.42965267  0.60536701  1
  Na  Na4  1  0.87128052  0.42965267  0.10536701  1
  Na  Na5  1  0.37128052  0.57034733  0.39463299  1
  Na  Na6  1  0.95982759  0.16334506  0.68725974  1
  Na  Na7  1  0.45982759  0.83665494  0.81274026  1
  Cu  Cu0  1  0.22383916  0.91713253  0.07781534  1
  Cu  Cu1  1  0.27616084  0.91713253  0.57781534  1
  Cu  Cu2  1  0.77616084  0.08286747  0.92218466  1
  Cu  Cu3  1  0.72383916  0.08286747  0.42218466  1
  As  As0  1  0.17124970  0.25413600  0.52442946  1
  As  As1  1  0.82875030  0.74586400  0.47557054  1
  As  As2  1  0.32875030  0.25413600  0.02442946  1
  As  As3  1  0.67124970  0.74586400  0.97557054  1
  S  S0  1  0.20135383  0.69486570  0.43699229  1
  S  S1  1  0.93619498  0.67056898  0.68379564  1
  S  S2  1  0.61641984  0.90043083  0.64308775  1
  S  S3  1  0.56380502  0.67056898  0.18379564  1
  S  S4  1  0.29864617  0.69486570  0.93699229  1
  S  S5  1  0.70135383  0.30513430  0.06300771  1
  S  S6  1  0.11641984  0.09956917  0.85691225  1
  S  S7  1  0.06380502  0.32943102  0.31620436  1
  S  S8  1  0.43619498  0.32943102  0.81620436  1
  S  S9  1  0.79864617  0.30513430  0.56300771  1
  S  S10  1  0.88358016  0.90043083  0.14308775  1
  S  S11  1  0.38358016  0.09956917  0.35691225  1
loop_
_geom_bond_atom_site_label_1
_geom_bond_atom_site_label_2
_geom_bond_distance
_geom_bond_site_symmetry_2
Na0 S0 2.809747 1_555
Na0 S10 2.811528 1_455
Na0 S7 2.837122 1_565
Na0 S1 2.890002 1_455
Na0 S7 2.894991 1_555
Na0 S6 3.091650 1_564
Na1 S5 2.809747 1_555
Na1 S11 2.811528 1_555
Na1 S3 2.837122 1_545
Na1 S8 2.890002 1_554
Na1 S3 2.894991 1_555
Na1 S2 3.091650 1_545
Na2 S6 2.818751 1_555
Na2 S7 2.822790 1_556
Na2 S6 2.893019 1_565
Na2 S4 2.957963 1_555
Na2 S0 3.193279 1_555
Na3 S2 2.818751 1_555
Na3 S3 2.822790 1_555
Na3 S2 2.893019 1_545
Na3 S9 2.957963 1_555
Na3 S5 3.193279 1_556
Na4 S10 2.818751 1_555
Na4 S1 2.822790 1_554
Na4 S10 2.893019 1_545
Na4 S5 2.957963 1_555
Na4 S9 3.193279 1_555
Na5 S11 2.818751 1_555
Na5 S8 2.822790 1_555
Na5 S11 2.893019 1_565
Na5 S0 2.957963 1_555
Na5 S4 3.193279 1_554
Na6 S9 2.809747 1_555
Na6 S6 2.811528 1_655
Na6 S1 2.837122 1_545
Na6 S7 2.890002 1_655
Na6 S1 2.894991 1_555
Na6 S10 3.091650 1_546
Na7 S4 2.809747 1_555
Na7 S2 2.811528 1_555
Na7 S8 2.837122 1_565
Na7 S3 2.890002 1_556
Na7 S8 2.894991 1_555
Na7 S11 3.091650 1_565
Cu0 S0 2.253558 1_555
Cu0 S6 2.264321 1_564
Cu0 S4 2.309877 1_554
Cu1 S4 2.253558 1_555
Cu1 S11 2.264321 1_565
Cu1 S0 2.309877 1_555
Cu2 S9 2.253558 1_555
Cu2 S10 2.264321 1_546
Cu2 S5 2.309877 1_556
Cu3 S5 2.253558 1_555
Cu3 S2 2.264321 1_545
Cu3 S9 2.309877 1_555
As0 S7 2.218103 1_555
As0 S6 2.263796 1_555
As0 S0 2.324199 1_555
As0 Cu1 2.477890 1_545
As1 S1 2.218103 1_555
As1 S10 2.263796 1_555
As1 S9 2.324199 1_555
As1 Cu3 2.477890 1_565
As2 S8 2.218103 1_554
As2 S11 2.263796 1_555
As2 S4 2.324199 1_554
As2 Cu0 2.477890 1_545
As3 S3 2.218103 1_556
As3 S2 2.263796 1_555
As3 S5 2.324199 1_556
As3 Cu2 2.477890 1_565
