# generated using pymatgen
data_Ba5Ge2BiH
_symmetry_space_group_name_H-M   'P 1'
_cell_length_a   10.31608652
_cell_length_b   10.31608667
_cell_length_c   10.31608650
_cell_angle_alpha   128.83452469
_cell_angle_beta   128.83452978
_cell_angle_gamma   75.27697259
_symmetry_Int_Tables_number   1
_chemical_formula_structural   Ba5Ge2BiH
_chemical_formula_sum   'Ba10 Ge4 Bi2 H2'
_cell_volume   648.42168543
_cell_formula_units_Z   2
loop_
 _symmetry_equiv_pos_site_id
 _symmetry_equiv_pos_as_xyz
  1  'x, y, z'
loop_
 _atom_site_type_symbol
 _atom_site_label
 _atom_site_symmetry_multiplicity
 _atom_site_fract_x
 _atom_site_fract_y
 _atom_site_fract_z
 _atom_site_occupancy
  Ba  Ba0  1  0.50000000  0.50000000  0.00000000  1
  Ba  Ba1  1  0.00000000  0.00000000  0.00000000  1
  Ba  Ba2  1  0.52320506  0.02320506  0.83048744  1
  Ba  Ba3  1  0.19271762  0.69271762  0.16951256  1
  Ba  Ba4  1  0.02320506  0.19271762  0.50000000  1
  Ba  Ba5  1  0.69271762  0.52320506  0.50000000  1
  Ba  Ba6  1  0.47679494  0.97679494  0.16951256  1
  Ba  Ba7  1  0.80728238  0.30728238  0.83048744  1
  Ba  Ba8  1  0.97679494  0.80728238  0.50000000  1
  Ba  Ba9  1  0.30728238  0.47679494  0.50000000  1
  Ge  Ge0  1  0.89077195  0.39077195  0.28154489  1
  Ge  Ge1  1  0.10922805  0.60922805  0.71845511  1
  Ge  Ge2  1  0.39077195  0.10922805  0.50000000  1
  Ge  Ge3  1  0.60922805  0.89077195  0.50000000  1
  Bi  Bi0  1  0.25000000  0.25000000  0.00000000  1
  Bi  Bi1  1  0.75000000  0.75000000  0.00000000  1
  H  H0  1  0.25000000  0.75000000  0.50000000  1
  H  H1  1  0.75000000  0.25000000  0.50000000  1
loop_
_geom_bond_atom_site_label_1
_geom_bond_atom_site_label_2
_geom_bond_distance
_geom_bond_site_symmetry_2
Ba0 Ge2 3.614937 1_554
Ba0 Ge3 3.614937 1_555
Ba0 Ge0 3.614940 1_555
Ba0 Ge1 3.614940 1_554
Ba0 Bi0 4.084549 1_555
Ba0 Bi1 4.084549 1_555
Ba1 Ge2 3.614937 1_555
Ba1 Ge3 3.614937 1_444
Ba1 Ge1 3.614941 1_544
Ba1 Ge0 3.614941 1_455
Ba1 Bi0 4.084549 1_555
Ba1 Bi1 4.084549 1_445
Ba2 H0 2.728748 1_545
Ba2 Ge2 3.407960 1_555
Ba2 Ge3 3.407960 1_545
Ba2 Ge0 3.668778 1_556
Ba2 Bi1 3.764782 1_546
Ba2 Bi0 3.764783 1_556
Ba3 H0 2.728748 1_555
Ba3 Ge3 3.407960 1_555
Ba3 Ge2 3.407960 1_565
Ba3 Ge1 3.668788 1_554
Ba3 Bi1 3.764782 1_455
Ba3 Bi0 3.764783 1_555
Ba4 H1 2.728748 1_455
Ba4 Ge0 3.407952 1_455
Ba4 Ge1 3.407963 1_555
Ba4 Ge2 3.668778 1_555
Ba4 Bi0 3.764782 1_556
Ba4 Bi1 3.764783 1_445
Ba5 H1 2.728748 1_555
Ba5 Ge0 3.407952 1_555
Ba5 Ge1 3.407963 1_655
Ba5 Ge3 3.668778 1_555
Ba5 Bi0 3.764782 1_555
Ba5 Bi1 3.764783 1_556
Ba6 H1 2.728748 1_565
Ba6 Ge3 3.407960 1_555
Ba6 Ge2 3.407960 1_565
Ba6 Ge1 3.668778 1_554
Ba6 Bi0 3.764782 1_565
Ba6 Bi1 3.764783 1_555
Ba7 H1 2.728748 1_555
Ba7 Ge2 3.407960 1_555
Ba7 Ge3 3.407960 1_545
Ba7 Ge0 3.668788 1_556
Ba7 Bi0 3.764782 1_656
Ba7 Bi1 3.764783 1_556
Ba8 H0 2.728748 1_655
Ba8 Ge1 3.407952 1_655
Ba8 Ge0 3.407963 1_555
Ba8 Ge3 3.668778 1_555
Ba8 Bi1 3.764782 1_555
Ba8 Bi0 3.764783 1_666
Ba9 H0 2.728748 1_555
Ba9 Ge1 3.407952 1_555
Ba9 Ge0 3.407963 1_455
Ba9 Ge2 3.668778 1_555
Ba9 Bi1 3.764782 1_556
Ba9 Bi0 3.764783 1_555
Ge0 Ge1 2.752447 1_655
Ge2 Ge3 2.752459 1_545
