# generated using pymatgen
data_MgInCu4
_symmetry_space_group_name_H-M   'P 1'
_cell_length_a   4.93326779
_cell_length_b   4.93326779
_cell_length_c   4.93326779
_cell_angle_alpha   60.00000000
_cell_angle_beta   60.00000000
_cell_angle_gamma   60.00000000
_symmetry_Int_Tables_number   1
_chemical_formula_structural   MgInCu4
_chemical_formula_sum   'Mg1 In1 Cu4'
_cell_volume   84.89636101
_cell_formula_units_Z   1
loop_
 _symmetry_equiv_pos_site_id
 _symmetry_equiv_pos_as_xyz
  1  'x, y, z'
loop_
 _atom_site_type_symbol
 _atom_site_label
 _atom_site_symmetry_multiplicity
 _atom_site_fract_x
 _atom_site_fract_y
 _atom_site_fract_z
 _atom_site_occupancy
  Mg  Mg0  1  -0.00000000  -0.00000000  -0.00000000  1
  In  In0  1  0.75000000  0.75000000  0.75000000  1
  Cu  Cu0  1  0.37477349  0.37477349  0.37477349  1
  Cu  Cu1  1  0.87567854  0.37477349  0.37477349  1
  Cu  Cu2  1  0.37477349  0.87567854  0.37477349  1
  Cu  Cu3  1  0.37477349  0.37477349  0.87567854  1
loop_
_geom_bond_atom_site_label_1
_geom_bond_atom_site_label_2
_geom_bond_distance
_geom_bond_site_symmetry_2
In0 Mg0 3.020997 1_665
In0 Mg0 3.020997 1_656
In0 Mg0 3.020997 1_666
In0 Mg0 3.020997 1_566
Cu0 Cu1 2.462169 1_455
Cu0 Cu3 2.462169 1_554
Cu0 Cu2 2.462169 1_545
Cu0 Cu3 2.471099 1_555
Cu0 Cu1 2.471099 1_555
Cu0 Cu2 2.471099 1_555
Cu0 Mg0 2.891909 1_655
Cu0 Mg0 2.891909 1_556
Cu0 Mg0 2.891909 1_565
Cu0 In0 2.892862 1_545
Cu0 In0 2.892862 1_554
Cu0 In0 2.892862 1_455
Cu1 Cu2 2.462169 1_645
Cu1 Cu3 2.462169 1_654
Cu1 Cu3 2.471099 1_555
Cu1 Cu2 2.471099 1_555
Cu1 Mg0 2.891907 1_655
Cu1 Mg0 2.891911 1_656
Cu1 Mg0 2.891911 1_665
Cu1 In0 2.892860 1_545
Cu1 In0 2.892860 1_554
Cu1 In0 2.892864 1_555
Cu2 Cu3 2.462169 1_564
Cu2 Cu3 2.471099 1_555
Cu2 Mg0 2.891907 1_565
Cu2 Mg0 2.891911 1_566
Cu2 Mg0 2.891911 1_665
Cu2 In0 2.892860 1_455
Cu2 In0 2.892860 1_554
Cu2 In0 2.892864 1_555
Cu3 Mg0 2.891907 1_556
Cu3 Mg0 2.891911 1_656
Cu3 Mg0 2.891911 1_566
Cu3 In0 2.892860 1_545
Cu3 In0 2.892860 1_455
Cu3 In0 2.892864 1_555
