# generated using pymatgen
data_K2CoGeO4
_symmetry_space_group_name_H-M   'P 1'
_cell_length_a   5.44401541
_cell_length_b   5.44401635
_cell_length_c   5.44401539
_cell_angle_alpha   115.95108483
_cell_angle_beta   115.95108870
_cell_angle_gamma   97.16877742
_symmetry_Int_Tables_number   1
_chemical_formula_structural   K2CoGeO4
_chemical_formula_sum   'K2 Co1 Ge1 O4'
_cell_volume   120.05246114
_cell_formula_units_Z   1
loop_
 _symmetry_equiv_pos_site_id
 _symmetry_equiv_pos_as_xyz
  1  'x, y, z'
loop_
 _atom_site_type_symbol
 _atom_site_label
 _atom_site_symmetry_multiplicity
 _atom_site_fract_x
 _atom_site_fract_y
 _atom_site_fract_z
 _atom_site_occupancy
  K  K0  1  0.75000000  0.25000000  0.50000000  1
  K  K1  1  0.00000000  0.00000000  0.00000000  1
  Co  Co0  1  0.50000000  0.50000000  0.00000000  1
  Ge  Ge0  1  0.25000000  0.75000000  0.50000000  1
  O  O0  1  0.25209585  0.65850593  0.14614797  1
  O  O1  1  0.89405212  0.74790415  0.40640908  1
  O  O2  1  0.34149407  0.48764204  0.59359092  1
  O  O3  1  0.51235796  0.10594788  0.85385203  1
loop_
_geom_bond_atom_site_label_1
_geom_bond_atom_site_label_2
_geom_bond_distance
_geom_bond_site_symmetry_2
K0 O1 2.830546 1_545
K0 O3 2.830546 1_554
K0 O0 2.830547 1_656
K0 O2 2.830548 1_555
K0 O2 3.041348 1_655
K0 O3 3.041351 1_555
K0 O0 3.041351 1_545
K0 O1 3.041355 1_555
K1 O3 2.636001 1_454
K1 O0 2.636002 1_545
K1 O2 2.636004 1_555
K1 O1 2.636006 1_444
Co0 O2 1.956677 1_554
Co0 O1 1.956681 1_555
Co0 O0 1.956683 1_555
Co0 O3 1.956683 1_554
Ge0 O1 1.772012 1_455
Ge0 O0 1.772013 1_555
Ge0 O3 1.772013 1_565
Ge0 O2 1.772016 1_555
