# generated using pymatgen
data_CsSiSbS4
_symmetry_space_group_name_H-M   'P 1'
_cell_length_a   7.13752697
_cell_length_b   6.35037562
_cell_length_c   19.56087475
_cell_angle_alpha   67.31691481
_cell_angle_beta   90.00000000
_cell_angle_gamma   90.00000000
_symmetry_Int_Tables_number   1
_chemical_formula_structural   CsSiSbS4
_chemical_formula_sum   'Cs4 Si4 Sb4 S16'
_cell_volume   818.03778655
_cell_formula_units_Z   4
loop_
 _symmetry_equiv_pos_site_id
 _symmetry_equiv_pos_as_xyz
  1  'x, y, z'
loop_
 _atom_site_type_symbol
 _atom_site_label
 _atom_site_symmetry_multiplicity
 _atom_site_fract_x
 _atom_site_fract_y
 _atom_site_fract_z
 _atom_site_occupancy
  Cs  Cs0  1  0.73113624  0.65215818  0.04099749  1
  Cs  Cs1  1  0.26886376  0.34784182  0.95900251  1
  Cs  Cs2  1  0.76886376  0.65215818  0.54099749  1
  Cs  Cs3  1  0.23113624  0.34784182  0.45900251  1
  Si  Si0  1  0.70412087  0.17015341  0.84227762  1
  Si  Si1  1  0.79587913  0.17015341  0.34227762  1
  Si  Si2  1  0.20412087  0.82984659  0.65772238  1
  Si  Si3  1  0.29587913  0.82984659  0.15772238  1
  Sb  Sb0  1  0.16550211  0.24289174  0.22180484  1
  Sb  Sb1  1  0.66550211  0.75710826  0.27819516  1
  Sb  Sb2  1  0.83449789  0.75710826  0.77819516  1
  Sb  Sb3  1  0.33449789  0.24289174  0.72180484  1
  S  S0  1  0.53575114  0.02660778  0.12474283  1
  S  S1  1  0.73148611  0.39246369  0.39782655  1
  S  S2  1  0.95319134  0.97045961  0.85428483  1
  S  S3  1  0.83888391  0.38071607  0.22657476  1
  S  S4  1  0.96424886  0.02660778  0.62474283  1
  S  S5  1  0.23148611  0.60753631  0.10217345  1
  S  S6  1  0.76851389  0.39246369  0.89782655  1
  S  S7  1  0.33888391  0.61928393  0.27342524  1
  S  S8  1  0.26851389  0.60753631  0.60217345  1
  S  S9  1  0.46424886  0.97339222  0.87525717  1
  S  S10  1  0.66111609  0.38071607  0.72657476  1
  S  S11  1  0.16111609  0.61928393  0.77342524  1
  S  S12  1  0.03575114  0.97339222  0.37525717  1
  S  S13  1  0.04680866  0.02954039  0.14571517  1
  S  S14  1  0.54680866  0.97045961  0.35428483  1
  S  S15  1  0.45319134  0.02954039  0.64571517  1
loop_
_geom_bond_atom_site_label_1
_geom_bond_atom_site_label_2
_geom_bond_distance
_geom_bond_site_symmetry_2
Cs0 S3 3.451666 1_555
Cs0 S9 3.633182 1_554
Cs0 S0 3.645134 1_565
Cs0 S5 3.737513 1_555
Cs0 S5 3.742279 1_655
Cs0 S6 3.767771 1_554
Cs0 S2 3.773985 1_554
Cs0 S0 3.922997 1_555
Cs1 S11 3.451666 1_555
Cs1 S0 3.633182 1_556
Cs1 S9 3.645134 1_545
Cs1 S6 3.737513 1_555
Cs1 S6 3.742279 1_455
Cs1 S5 3.767771 1_556
Cs1 S13 3.773985 1_556
Cs1 S9 3.922997 1_555
Cs2 S10 3.451666 1_555
Cs2 S12 3.633182 1_655
Cs2 S4 3.645134 1_565
Cs2 S8 3.737513 1_655
Cs2 S8 3.742279 1_555
Cs2 S1 3.767771 1_555
Cs2 S14 3.773985 1_555
Cs2 S4 3.922997 1_555
Cs3 S7 3.451666 1_555
Cs3 S4 3.633182 1_455
Cs3 S12 3.645134 1_545
Cs3 S1 3.737513 1_455
Cs3 S1 3.742279 1_555
Cs3 S8 3.767771 1_555
Cs3 S15 3.773985 1_555
Cs3 S12 3.922997 1_555
S0 Si3 2.070508 1_545
S0 Sb1 2.972292 1_545
S1 Si1 2.137305 1_555
S1 Sb1 2.623100 1_555
S2 Si0 2.143358 1_565
S2 Sb2 2.514743 1_555
S3 Si1 2.161110 1_555
S3 Sb0 2.504483 1_655
S4 Si2 2.070508 1_645
S4 Sb2 2.972292 1_545
S5 Si3 2.137305 1_555
S5 Sb0 2.623100 1_555
S6 Si0 2.137305 1_555
S6 Sb2 2.623100 1_555
S7 Si3 2.161110 1_555
S7 Sb1 2.504483 1_555
S8 Si2 2.137305 1_555
S8 Sb3 2.623100 1_555
S9 Si0 2.070508 1_565
S9 Sb3 2.972292 1_565
S10 Si0 2.161110 1_555
S10 Sb3 2.504483 1_555
S11 Si2 2.161110 1_555
S11 Sb2 2.504483 1_455
S12 Si1 2.070508 1_465
S12 Sb0 2.972292 1_565
S13 Si3 2.143358 1_545
S13 Sb0 2.514743 1_555
S14 Si1 2.143358 1_565
S14 Sb1 2.514743 1_555
S15 Si2 2.143358 1_545
S15 Sb3 2.514743 1_555
