# generated using pymatgen
data_Sr3Bi4PbO14
_symmetry_space_group_name_H-M   'P 1'
_cell_length_a   7.87885560
_cell_length_b   7.75874889
_cell_length_c   7.87885528
_cell_angle_alpha   59.48658257
_cell_angle_beta   59.99999729
_cell_angle_gamma   59.48658349
_symmetry_Int_Tables_number   1
_chemical_formula_structural   Sr3Bi4PbO14
_chemical_formula_sum   'Sr3 Bi4 Pb1 O14'
_cell_volume   337.90043073
_cell_formula_units_Z   1
loop_
 _symmetry_equiv_pos_site_id
 _symmetry_equiv_pos_as_xyz
  1  'x, y, z'
loop_
 _atom_site_type_symbol
 _atom_site_label
 _atom_site_symmetry_multiplicity
 _atom_site_fract_x
 _atom_site_fract_y
 _atom_site_fract_z
 _atom_site_occupancy
  Sr  Sr0  1  0.62500000  0.12500000  0.12500000  1
  Sr  Sr1  1  0.12500000  0.12500000  0.12500000  1
  Sr  Sr2  1  0.12500000  0.12500000  0.62500000  1
  Bi  Bi0  1  0.62500000  0.62500000  0.12500000  1
  Bi  Bi1  1  0.62500000  0.62500000  0.62500000  1
  Bi  Bi2  1  0.62500000  0.12500000  0.62500000  1
  Bi  Bi3  1  0.12500000  0.62500000  0.62500000  1
  Pb  Pb0  1  0.12500000  0.62500000  0.12500000  1
  O  O0  1  0.71714075  0.29659573  0.26912378  1
  O  O1  1  0.71952883  0.67908914  0.30069051  1
  O  O2  1  0.30069051  0.67908914  0.30069051  1
  O  O3  1  0.01887095  0.94338515  0.01887095  1
  O  O4  1  0.71714075  0.29659573  0.71714075  1
  O  O5  1  0.94930949  0.57091086  0.53047117  1
  O  O6  1  0.30069051  0.67908914  0.71952883  1
  O  O7  1  0.53285925  0.95340427  0.53285925  1
  O  O8  1  0.23112905  0.30661485  0.23112905  1
  O  O9  1  0.94930949  0.57091086  0.94930949  1
  O  O10  1  0.53047117  0.57091086  0.94930949  1
  O  O11  1  0.98087622  0.95340427  0.53285925  1
  O  O12  1  0.53285925  0.95340427  0.98087622  1
  O  O13  1  0.26912378  0.29659573  0.71714075  1
loop_
_geom_bond_atom_site_label_1
_geom_bond_atom_site_label_2
_geom_bond_distance
_geom_bond_site_symmetry_2
Bi0 O12 2.077648 1_554
Bi0 O0 2.077648 1_555
Bi0 O1 2.141306 1_555
Bi0 O10 2.141306 1_554
Bi0 O9 2.141312 1_554
Bi0 O2 2.141312 1_555
Bi1 O4 2.077647 1_555
Bi1 O7 2.077647 1_555
Bi1 O10 2.141313 1_555
Bi1 O1 2.141313 1_555
Bi1 O5 2.141313 1_555
Bi1 O6 2.141313 1_555
Bi2 O12 2.305766 1_545
Bi2 O0 2.305766 1_555
Bi2 O11 2.305766 1_545
Bi2 O13 2.305766 1_555
Bi2 O7 2.305772 1_545
Bi2 O4 2.305772 1_555
Bi3 O11 2.077648 1_455
Bi3 O13 2.077648 1_555
Bi3 O6 2.141306 1_555
Bi3 O5 2.141306 1_455
Bi3 O9 2.141312 1_455
Bi3 O2 2.141312 1_555
O0 Sr1 2.632492 1_655
O0 Sr0 2.632498 1_555
O1 Pb0 2.665396 1_655
O1 Sr0 2.826933 1_565
O2 Pb0 2.665389 1_555
O2 Sr1 2.826932 1_565
O3 Pb0 2.001173 1_555
O3 Sr2 2.544813 1_564
O3 Sr0 2.544813 1_465
O3 Sr1 2.544826 1_565
O4 Sr0 2.632491 1_556
O4 Sr2 2.632492 1_655
O5 Pb0 2.665395 1_655
O5 Sr2 2.826933 1_655
O6 Pb0 2.665395 1_556
O6 Sr2 2.826933 1_565
O7 Sr0 2.632491 1_565
O7 Sr2 2.632492 1_565
O8 Pb0 2.001173 1_555
O8 Sr2 2.544813 1_555
O8 Sr0 2.544813 1_555
O8 Sr1 2.544826 1_555
O9 Pb0 2.665389 1_656
O9 Sr1 2.826932 1_656
O10 Pb0 2.665396 1_556
O10 Sr0 2.826933 1_556
O11 Sr1 2.632492 1_665
O11 Sr2 2.632498 1_665
O12 Sr1 2.632492 1_566
O12 Sr0 2.632498 1_566
O13 Sr1 2.632492 1_556
O13 Sr2 2.632498 1_555
