# generated using pymatgen
data_YTcF7
_symmetry_space_group_name_H-M   'P 1'
_cell_length_a   5.50496341
_cell_length_b   8.79801899
_cell_length_c   11.86910961
_cell_angle_alpha   62.45428179
_cell_angle_beta   90.00000000
_cell_angle_gamma   90.00000000
_symmetry_Int_Tables_number   1
_chemical_formula_structural   YTcF7
_chemical_formula_sum   'Y4 Tc4 F28'
_cell_volume   509.68966084
_cell_formula_units_Z   4
loop_
 _symmetry_equiv_pos_site_id
 _symmetry_equiv_pos_as_xyz
  1  'x, y, z'
loop_
 _atom_site_type_symbol
 _atom_site_label
 _atom_site_symmetry_multiplicity
 _atom_site_fract_x
 _atom_site_fract_y
 _atom_site_fract_z
 _atom_site_occupancy
  Y  Y0  1  0.25918279  0.81335733  0.26500288  1
  Y  Y1  1  0.74081721  0.18664267  0.73499712  1
  Y  Y2  1  0.75918279  0.18664267  0.23499712  1
  Y  Y3  1  0.24081721  0.81335733  0.76500288  1
  Tc  Tc0  1  0.75644747  0.72693723  0.04352854  1
  Tc  Tc1  1  0.24355253  0.27306277  0.95647146  1
  Tc  Tc2  1  0.25644747  0.27306277  0.45647146  1
  Tc  Tc3  1  0.74355253  0.72693723  0.54352854  1
  F  F0  1  0.94583884  0.70856112  0.41721764  1
  F  F1  1  0.05416116  0.29143888  0.58278236  1
  F  F2  1  0.44583884  0.29143888  0.08278236  1
  F  F3  1  0.55416116  0.70856112  0.91721764  1
  F  F4  1  0.47119455  0.72862081  0.13817909  1
  F  F5  1  0.52880545  0.27137919  0.86182091  1
  F  F6  1  0.97119455  0.27137919  0.36182091  1
  F  F7  1  0.02880545  0.72862081  0.63817909  1
  F  F8  1  0.95251781  0.74410973  0.17332292  1
  F  F9  1  0.04748219  0.25589027  0.82667708  1
  F  F10  1  0.45251781  0.25589027  0.32667708  1
  F  F11  1  0.54748219  0.74410973  0.67332292  1
  F  F12  1  0.76796912  0.47946658  0.14146562  1
  F  F13  1  0.23203088  0.52053342  0.85853438  1
  F  F14  1  0.26796912  0.52053342  0.35853438  1
  F  F15  1  0.73203088  0.47946658  0.64146562  1
  F  F16  1  0.94843460  0.28098086  0.04406491  1
  F  F17  1  0.05156540  0.71901914  0.95593509  1
  F  F18  1  0.44843460  0.71901914  0.45593509  1
  F  F19  1  0.55156540  0.28098086  0.54406491  1
  F  F20  1  0.74106372  0.97403067  0.44770724  1
  F  F21  1  0.25893628  0.02596933  0.55229276  1
  F  F22  1  0.24106372  0.02596933  0.05229276  1
  F  F23  1  0.75893628  0.97403067  0.94770724  1
  F  F24  1  0.59169285  0.96577879  0.23156153  1
  F  F25  1  0.40830715  0.03422121  0.76843847  1
  F  F26  1  0.09169285  0.03422121  0.26843847  1
  F  F27  1  0.90830715  0.96577879  0.73156153  1
loop_
_geom_bond_atom_site_label_1
_geom_bond_atom_site_label_2
_geom_bond_distance
_geom_bond_site_symmetry_2
F0 Tc3 1.933383 1_555
F0 Y0 2.355603 1_655
F1 Tc2 1.933383 1_555
F1 Y1 2.355603 1_455
F2 Tc1 1.933383 1_554
F2 Y2 2.355603 1_555
F3 Tc0 1.933383 1_556
F3 Y3 2.355603 1_555
F4 Tc0 1.934823 1_555
F4 Y0 2.285122 1_555
F5 Tc1 1.934823 1_555
F5 Y1 2.285122 1_555
F6 Tc2 1.934823 1_655
F6 Y2 2.285122 1_555
F7 Tc3 1.934823 1_455
F7 Y3 2.285122 1_555
F8 Tc0 1.943295 1_555
F8 Y0 2.240176 1_655
F9 Tc1 1.943295 1_555
F9 Y1 2.240176 1_455
F10 Tc2 1.943295 1_555
F10 Y2 2.240176 1_555
F11 Tc3 1.943295 1_555
F11 Y3 2.240176 1_555
F12 Tc0 1.937737 1_555
F12 Y2 2.286187 1_555
F13 Tc1 1.937737 1_555
F13 Y3 2.286187 1_555
F14 Tc2 1.937737 1_555
F14 Y0 2.286187 1_555
F15 Tc3 1.937737 1_555
F15 Y1 2.286187 1_555
F16 Tc1 1.947330 1_654
F16 Y2 2.273816 1_555
F17 Tc0 1.947330 1_456
F17 Y3 2.273816 1_555
F18 Tc3 1.947330 1_555
F18 Y0 2.273816 1_555
F19 Tc2 1.947330 1_555
F19 Y1 2.273816 1_555
F20 Tc3 1.932061 1_555
F20 Y2 2.348403 1_565
F21 Tc2 1.932061 1_555
F21 Y3 2.348403 1_545
F22 Tc1 1.932061 1_554
F22 Y0 2.348403 1_545
F23 Tc0 1.932061 1_556
F23 Y1 2.348403 1_565
F24 Y2 2.168172 1_565
F24 Y0 2.194108 1_555
F25 Y3 2.168172 1_545
F25 Y1 2.194108 1_555
F26 Y0 2.168172 1_545
F26 Y2 2.194108 1_455
F27 Y1 2.168172 1_565
F27 Y3 2.194108 1_655
