# generated using pymatgen
data_GaIrSe2S
_symmetry_space_group_name_H-M   'P 1'
_cell_length_a   3.75439469
_cell_length_b   9.86067703
_cell_length_c   12.24091200
_cell_angle_alpha   90.00000000
_cell_angle_beta   90.00000000
_cell_angle_gamma   90.00000000
_symmetry_Int_Tables_number   1
_chemical_formula_structural   GaIrSe2S
_chemical_formula_sum   'Ga4 Ir4 Se8 S4'
_cell_volume   453.16925388
_cell_formula_units_Z   4
loop_
 _symmetry_equiv_pos_site_id
 _symmetry_equiv_pos_as_xyz
  1  'x, y, z'
loop_
 _atom_site_type_symbol
 _atom_site_label
 _atom_site_symmetry_multiplicity
 _atom_site_fract_x
 _atom_site_fract_y
 _atom_site_fract_z
 _atom_site_occupancy
  Ga  Ga0  1  0.75000000  0.24327318  0.79736368  1
  Ga  Ga1  1  0.25000000  0.75672682  0.20263632  1
  Ga  Ga2  1  0.75000000  0.74327318  0.70263632  1
  Ga  Ga3  1  0.25000000  0.25672682  0.29736368  1
  Ir  Ir0  1  0.25000000  0.40514331  0.60333123  1
  Ir  Ir1  1  0.75000000  0.59485669  0.39666877  1
  Ir  Ir2  1  0.25000000  0.90514331  0.89666877  1
  Ir  Ir3  1  0.75000000  0.09485669  0.10333123  1
  Se  Se0  1  0.75000000  0.10299033  0.30987711  1
  Se  Se1  1  0.25000000  0.89700967  0.69012289  1
  Se  Se2  1  0.75000000  0.60299033  0.19012289  1
  Se  Se3  1  0.25000000  0.39700967  0.80987711  1
  Se  Se4  1  0.25000000  0.26629364  0.09998871  1
  Se  Se5  1  0.75000000  0.73370636  0.90001129  1
  Se  Se6  1  0.25000000  0.76629364  0.40001129  1
  Se  Se7  1  0.75000000  0.23370636  0.59998871  1
  S  S0  1  0.25000000  0.94396255  0.08913843  1
  S  S1  1  0.75000000  0.05603745  0.91086157  1
  S  S2  1  0.25000000  0.44396255  0.41086157  1
  S  S3  1  0.75000000  0.55603745  0.58913843  1
loop_
_geom_bond_atom_site_label_1
_geom_bond_atom_site_label_2
_geom_bond_distance
_geom_bond_site_symmetry_2
Ga0 S1 2.310610 1_555
Ga0 Se3 2.417731 1_655
Ga0 Se3 2.417731 1_555
Ga0 Se7 2.417891 1_555
Ga1 S0 2.310610 1_555
Ga1 Se2 2.417731 1_555
Ga1 Se2 2.417731 1_455
Ga1 Se6 2.417891 1_555
Ga2 S3 2.310610 1_555
Ga2 Se1 2.417731 1_655
Ga2 Se1 2.417731 1_555
Ga2 Se5 2.417891 1_555
Ga3 S2 2.310610 1_555
Ga3 Se0 2.417731 1_555
Ga3 Se0 2.417731 1_455
Ga3 Se4 2.417891 1_555
Ir0 S2 2.386897 1_555
Ir0 S3 2.401657 1_455
Ir0 S3 2.401657 1_555
Ir0 Se7 2.526516 1_555
Ir0 Se7 2.526516 1_455
Ir0 Se3 2.529582 1_555
Ir1 S3 2.386897 1_555
Ir1 S2 2.401657 1_655
Ir1 S2 2.401657 1_555
Ir1 Se6 2.526516 1_555
Ir1 Se6 2.526516 1_655
Ir1 Se2 2.529582 1_555
Ir2 S0 2.386897 1_556
Ir2 S1 2.401657 1_465
Ir2 S1 2.401657 1_565
Ir2 Se5 2.526516 1_455
Ir2 Se5 2.526516 1_555
Ir2 Se1 2.529582 1_555
Ir3 S1 2.386897 1_554
Ir3 S0 2.401657 1_545
Ir3 S0 2.401657 1_645
Ir3 Se4 2.526516 1_555
Ir3 Se4 2.526516 1_655
Ir3 Se0 2.529582 1_555
