# generated using pymatgen
data_SrPH
_symmetry_space_group_name_H-M   'P 1'
_cell_length_a   4.67850993
_cell_length_b   4.28356079
_cell_length_c   6.33504588
_cell_angle_alpha   82.65136264
_cell_angle_beta   90.00000000
_cell_angle_gamma   90.00000000
_symmetry_Int_Tables_number   1
_chemical_formula_structural   SrPH
_chemical_formula_sum   'Sr2 P2 H2'
_cell_volume   125.91582787
_cell_formula_units_Z   2
loop_
 _symmetry_equiv_pos_site_id
 _symmetry_equiv_pos_as_xyz
  1  'x, y, z'
loop_
 _atom_site_type_symbol
 _atom_site_label
 _atom_site_symmetry_multiplicity
 _atom_site_fract_x
 _atom_site_fract_y
 _atom_site_fract_z
 _atom_site_occupancy
  Sr  Sr0  1  0.75000000  0.75107453  0.75122872  1
  Sr  Sr1  1  0.25000000  0.24892547  0.24877128  1
  P  P0  1  0.75000000  0.75643348  0.24515624  1
  P  P1  1  0.25000000  0.24356652  0.75484376  1
  H  H0  1  0.75000000  0.46852065  0.38856809  1
  H  H1  1  0.25000000  0.53147935  0.61143191  1
loop_
_geom_bond_atom_site_label_1
_geom_bond_atom_site_label_2
_geom_bond_distance
_geom_bond_site_symmetry_2
P0 Sr0 3.132072 1_554
P0 Sr1 3.152061 1_665
P0 Sr1 3.152061 1_565
P1 Sr1 3.132072 1_556
P1 Sr0 3.152061 1_445
P1 Sr0 3.152061 1_545
H0 P0 1.435196 1_555
H0 Sr1 2.711893 1_655
H0 Sr1 2.711893 1_555
H0 Sr0 2.730318 1_555
H1 P1 1.435196 1_555
H1 Sr0 2.711893 1_555
H1 Sr0 2.711893 1_455
H1 Sr1 2.730318 1_555
