# generated using pymatgen
data_Ta(IF3)2
_symmetry_space_group_name_H-M   'P 1'
_cell_length_a   6.01006129
_cell_length_b   7.95465598
_cell_length_c   8.17875952
_cell_angle_alpha   78.64629383
_cell_angle_beta   79.96568957
_cell_angle_gamma   81.15748991
_symmetry_Int_Tables_number   1
_chemical_formula_structural   Ta(IF3)2
_chemical_formula_sum   'Ta2 I4 F12'
_cell_volume   374.59507767
_cell_formula_units_Z   2
loop_
 _symmetry_equiv_pos_site_id
 _symmetry_equiv_pos_as_xyz
  1  'x, y, z'
loop_
 _atom_site_type_symbol
 _atom_site_label
 _atom_site_symmetry_multiplicity
 _atom_site_fract_x
 _atom_site_fract_y
 _atom_site_fract_z
 _atom_site_occupancy
  Ta  Ta0  1  0.55095772  0.69864326  0.68532035  1
  Ta  Ta1  1  0.44904228  0.30135674  0.31467965  1
  I  I0  1  0.10392635  0.90969307  0.23370052  1
  I  I1  1  0.89607365  0.09030693  0.76629948  1
  I  I2  1  0.89473522  0.75354696  0.06583903  1
  I  I3  1  0.10526478  0.24645304  0.93416097  1
  F  F0  1  0.71418355  0.51986756  0.57412146  1
  F  F1  1  0.28581645  0.48013244  0.42587854  1
  F  F2  1  0.42999833  0.82059343  0.49017848  1
  F  F3  1  0.57000167  0.17940657  0.50982152  1
  F  F4  1  0.41022139  0.87311695  0.81584690  1
  F  F5  1  0.58977861  0.12688305  0.18415310  1
  F  F6  1  0.19176132  0.16987480  0.37911596  1
  F  F7  1  0.80823868  0.83012520  0.62088404  1
  F  F8  1  0.70557039  0.42328176  0.23727515  1
  F  F9  1  0.29442961  0.57671824  0.76272485  1
  F  F10  1  0.30814461  0.40955521  0.11671891  1
  F  F11  1  0.69185539  0.59044479  0.88328109  1
loop_
_geom_bond_atom_site_label_1
_geom_bond_atom_site_label_2
_geom_bond_distance
_geom_bond_site_symmetry_2
F0 Ta0 1.892428 1_555
F1 Ta1 1.892428 1_555
F2 Ta0 1.895976 1_555
F3 Ta1 1.895976 1_555
F4 Ta0 1.920699 1_555
F5 Ta1 1.920699 1_555
F6 Ta1 1.938763 1_555
F7 Ta0 1.938763 1_555
F8 Ta1 1.896381 1_555
F9 Ta0 1.896381 1_555
F10 Ta1 1.945324 1_555
F11 Ta0 1.945324 1_555
