# generated using pymatgen
data_BaCoH5
_symmetry_space_group_name_H-M   'P 1'
_cell_length_a   4.85046288
_cell_length_b   6.69733684
_cell_length_c   9.19796970
_cell_angle_alpha   90.00000000
_cell_angle_beta   90.00000000
_cell_angle_gamma   90.00000000
_symmetry_Int_Tables_number   1
_chemical_formula_structural   BaCoH5
_chemical_formula_sum   'Ba4 Co4 H20'
_cell_volume   298.79773585
_cell_formula_units_Z   4
loop_
 _symmetry_equiv_pos_site_id
 _symmetry_equiv_pos_as_xyz
  1  'x, y, z'
loop_
 _atom_site_type_symbol
 _atom_site_label
 _atom_site_symmetry_multiplicity
 _atom_site_fract_x
 _atom_site_fract_y
 _atom_site_fract_z
 _atom_site_occupancy
  Ba  Ba0  1  0.23577476  0.35613723  0.18910926  1
  Ba  Ba1  1  0.73577476  0.64386277  0.81089074  1
  Ba  Ba2  1  0.73577476  0.85613723  0.31089074  1
  Ba  Ba3  1  0.23577476  0.14386277  0.68910926  1
  Co  Co0  1  0.23108143  0.64318783  0.54048884  1
  Co  Co1  1  0.73108143  0.35681217  0.45951116  1
  Co  Co2  1  0.73108143  0.14318783  0.95951116  1
  Co  Co3  1  0.23108143  0.85681217  0.04048884  1
  H  H0  1  0.94931183  0.52355623  0.50883632  1
  H  H1  1  0.44931183  0.47644377  0.49116368  1
  H  H2  1  0.44931183  0.02355623  0.99116368  1
  H  H3  1  0.94931183  0.97644377  0.00883632  1
  H  H4  1  0.02604694  0.69578148  0.07925284  1
  H  H5  1  0.52604694  0.30421852  0.92074716  1
  H  H6  1  0.52604694  0.19578148  0.42074716  1
  H  H7  1  0.02604694  0.80421852  0.57925284  1
  H  H8  1  0.45639571  0.70936724  0.07576572  1
  H  H9  1  0.95639571  0.29063276  0.92423428  1
  H  H10  1  0.95639571  0.20936724  0.42423428  1
  H  H11  1  0.45639571  0.79063276  0.57576572  1
  H  H12  1  0.23351682  0.78210780  0.88513137  1
  H  H13  1  0.73351682  0.21789220  0.11486863  1
  H  H14  1  0.73351682  0.28210780  0.61486863  1
  H  H15  1  0.23351682  0.71789220  0.38513137  1
  H  H16  1  0.23487251  0.94179522  0.19732841  1
  H  H17  1  0.73487251  0.05820478  0.80267159  1
  H  H18  1  0.73487251  0.44179522  0.30267159  1
  H  H19  1  0.23487251  0.55820478  0.69732841  1
loop_
_geom_bond_atom_site_label_1
_geom_bond_atom_site_label_2
_geom_bond_distance
_geom_bond_site_symmetry_2
Ba0 H13 2.674376 1_555
Ba0 H4 2.688901 1_555
Ba0 H13 2.694167 1_455
Ba0 H18 2.698281 1_555
Ba0 H18 2.706136 1_455
Ba0 H10 2.734908 1_455
Ba0 H6 2.770409 1_555
Ba0 H16 2.776021 1_545
Ba0 H8 2.797955 1_555
Ba0 H9 2.822131 1_454
Ba0 H5 2.862896 1_554
Ba0 H15 3.020080 1_555
Ba0 H2 3.057624 1_554
Ba0 H1 3.072600 1_555
Ba1 H12 2.674376 1_655
Ba1 H5 2.688901 1_555
Ba1 H12 2.694167 1_555
Ba1 H19 2.698281 1_655
Ba1 H19 2.706136 1_555
Ba1 H11 2.734908 1_555
Ba1 H7 2.770409 1_655
Ba1 H17 2.776021 1_565
Ba1 H9 2.797955 1_555
Ba1 H8 2.822131 1_556
Ba1 H4 2.862896 1_656
Ba1 H14 3.020080 1_555
Ba1 H3 3.057624 1_556
Ba1 H0 3.072600 1_555
Ba2 H15 2.674376 1_655
Ba2 H6 2.688901 1_565
Ba2 H15 2.694167 1_555
Ba2 H16 2.698281 1_655
Ba2 H16 2.706136 1_555
Ba2 H8 2.734908 1_555
Ba2 H4 2.770409 1_655
Ba2 H18 2.776021 1_555
Ba2 H10 2.797955 1_565
Ba2 H11 2.822131 1_555
Ba2 H7 2.862896 1_655
Ba2 H13 3.020080 1_565
Ba2 H0 3.057624 1_555
Ba2 H3 3.072600 1_555
Ba3 H14 2.674376 1_555
Ba3 H7 2.688901 1_545
Ba3 H14 2.694167 1_455
Ba3 H17 2.698281 1_555
Ba3 H17 2.706136 1_455
Ba3 H9 2.734908 1_455
Ba3 H5 2.770409 1_555
Ba3 H19 2.776021 1_555
Ba3 H11 2.797955 1_545
Ba3 H10 2.822131 1_455
Ba3 H6 2.862896 1_555
Ba3 H12 3.020080 1_545
Ba3 H1 3.057624 1_555
Ba3 H2 3.072600 1_555
Co0 H11 1.508244 1_555
Co0 H7 1.509733 1_555
Co0 H15 1.514076 1_555
Co0 H19 1.550933 1_555
Co0 H1 1.604184 1_555
Co0 H0 1.610779 1_455
Co1 H10 1.508244 1_555
Co1 H6 1.509733 1_555
Co1 H14 1.514076 1_555
Co1 H18 1.550933 1_555
Co1 H0 1.604184 1_555
Co1 H1 1.610779 1_555
Co2 H9 1.508244 1_555
Co2 H5 1.509733 1_555
Co2 H13 1.514076 1_556
Co2 H17 1.550933 1_555
Co2 H3 1.604184 1_546
Co2 H2 1.610779 1_555
Co3 H8 1.508244 1_555
Co3 H4 1.509733 1_555
Co3 H12 1.514076 1_554
Co3 H16 1.550933 1_555
Co3 H2 1.604184 1_564
Co3 H3 1.610779 1_455
