# generated using pymatgen
data_CoH7C3NO6
_symmetry_space_group_name_H-M   'P 1'
_cell_length_a   12.48874073
_cell_length_b   12.48224517
_cell_length_c   8.25464829
_cell_angle_alpha   90.01296685
_cell_angle_beta   89.99218063
_cell_angle_gamma   120.05161061
_symmetry_Int_Tables_number   1
_chemical_formula_structural   CoH7C3NO6
_chemical_formula_sum   'Co6 H42 C18 N6 O36'
_cell_volume   1113.81857661
_cell_formula_units_Z   6
loop_
 _symmetry_equiv_pos_site_id
 _symmetry_equiv_pos_as_xyz
  1  'x, y, z'
loop_
 _atom_site_type_symbol
 _atom_site_label
 _atom_site_symmetry_multiplicity
 _atom_site_fract_x
 _atom_site_fract_y
 _atom_site_fract_z
 _atom_site_occupancy
  Co  Co0  1  0.33445121  0.32986415  0.58786493  1
  Co  Co1  1  0.66974463  0.00482811  0.58658826  1
  Co  Co2  1  0.99582517  0.66520999  0.58581837  1
  Co  Co3  1  0.66229641  0.66737829  0.08705308  1
  Co  Co4  1  0.33092003  0.99414816  0.08883158  1
  Co  Co5  1  0.00426988  0.33616893  0.08762756  1
  H  H0  1  0.27009806  0.14389710  0.31430905  1
  H  H1  1  0.85624643  0.12646649  0.31233978  1
  H  H2  1  0.86966422  0.73041328  0.32091917  1
  H  H3  1  0.73138557  0.86389293  0.82643896  1
  H  H4  1  0.14074469  0.87244608  0.81828740  1
  H  H5  1  0.12886054  0.26810305  0.82222376  1
  H  H6  1  0.50576741  0.44771963  0.29642082  1
  H  H7  1  0.55553352  0.05589484  0.29168177  1
  H  H8  1  0.94132711  0.49271586  0.29662339  1
  H  H9  1  0.49480144  0.55199396  0.79412882  1
  H  H10  1  0.44976389  0.94057861  0.79638545  1
  H  H11  1  0.06074495  0.51138324  0.80021195  1
  H  H12  1  0.17555950  0.39269871  0.37880347  1
  H  H13  1  0.60824069  0.78191366  0.38127767  1
  H  H14  1  0.22011595  0.83081720  0.38433831  1
  H  H15  1  0.81596077  0.60350774  0.86752491  1
  H  H16  1  0.39632471  0.20839773  0.86231762  1
  H  H17  1  0.78664204  0.18235474  0.87243241  1
  H  H18  1  0.57743155  0.30480681  0.49866850  1
  H  H19  1  0.69477685  0.27118447  0.49760546  1
  H  H20  1  0.72866148  0.42224935  0.49705712  1
  H  H21  1  0.42218415  0.69357330  0.99692631  1
  H  H22  1  0.30660095  0.72939795  0.99433025  1
  H  H23  1  0.27053746  0.57752716  0.99619191  1
  H  H24  1  0.66794853  0.33341545  0.65983128  1
  H  H25  1  0.33193402  0.66760380  0.15802467  1
  H  H26  1  0.35823611  0.60275040  0.49645374  1
  H  H27  1  0.39725062  0.75560293  0.49555016  1
  H  H28  1  0.24437987  0.64172605  0.49454665  1
  H  H29  1  0.63983057  0.39496827  0.99737101  1
  H  H30  1  0.60453312  0.24312531  0.99887535  1
  H  H31  1  0.75626952  0.35961235  0.99685996  1
  H  H32  1  0.33237214  0.66688528  0.65776416  1
  H  H33  1  0.66812343  0.33383765  0.15991140  1
  H  H34  1  0.02762138  0.08977170  0.17785715  1
  H  H35  1  0.90957214  0.93883425  0.17585575  1
  H  H36  1  0.06051753  0.97167632  0.17747409  1
  H  H37  1  0.97107697  0.91061494  0.67830462  1
  H  H38  1  0.08867128  0.06188348  0.67951381  1
  H  H39  1  0.93760491  0.02834343  0.67885984  1
  H  H40  1  0.00056040  0.00125698  0.01503380  1
  H  H41  1  0.99972470  0.00101207  0.51688686  1
  C  C0  1  0.36993745  0.18205752  0.33064800  1
  C  C1  1  0.81610846  0.18649762  0.32701300  1
  C  C2  1  0.81127469  0.62952731  0.33131646  1
  C  C3  1  0.63020632  0.81880643  0.83265240  1
  C  C4  1  0.18407139  0.81488341  0.82713088  1
  C  C5  1  0.18682037  0.36910308  0.83117885  1
  C  C6  1  0.47177667  0.51181215  0.32204412  1
  C  C7  1  0.48986687  0.95836026  0.31855792  1
  C  C8  1  0.04009682  0.52859711  0.31951652  1
  C  C9  1  0.52783484  0.48709260  0.81968040  1
  C  C10  1  0.51362948  0.03873176  0.82214998  1
  C  C11  1  0.96164994  0.47482059  0.82158252  1
  C  C12  1  0.14173412  0.29418798  0.35573330  1
  C  C13  1  0.70578368  0.84791177  0.35499467  1
  C  C14  1  0.15311561  0.86105315  0.35796275  1
  C  C15  1  0.85316413  0.70314876  0.85005450  1
  C  C16  1  0.29583433  0.14843196  0.84957288  1
  C  C17  1  0.84869889  0.14495993  0.85396573  1
  N  N0  1  0.66709483  0.33286322  0.53672068  1
  N  N1  1  0.33281534  0.66698324  0.03492165  1
  N  N2  1  0.33304191  0.66665367  0.53456495  1
  N  N3  1  0.66708026  0.33286186  0.03670170  1
  N  N4  1  0.99952755  0.00026704  0.13816958  1
  N  N5  1  0.99914855  0.00034777  0.64004927  1
  O  O0  1  0.42145577  0.25780698  0.44609983  1
  O  O1  1  0.74178624  0.16291235  0.44416557  1
  O  O2  1  0.83706771  0.57707146  0.44409162  1
  O  O3  1  0.57678608  0.73940667  0.94403613  1
  O  O4  1  0.26202466  0.83968836  0.94011930  1
  O  O5  1  0.16241310  0.42233136  0.94436641  1
  O  O6  1  0.42700887  0.14939212  0.23499350  1
  O  O7  1  0.84555199  0.27398879  0.22851397  1
  O  O8  1  0.72415240  0.57236462  0.23221551  1
  O  O9  1  0.57383054  0.84750452  0.73072160  1
  O  O10  1  0.15487917  0.72895090  0.72635660  1
  O  O11  1  0.27264160  0.42569683  0.73006351  1
  O  O12  1  0.40192203  0.48930294  0.44401410  1
  O  O13  1  0.51152167  0.91081825  0.44133646  1
  O  O14  1  0.08843290  0.59963239  0.44043980  1
  O  O15  1  0.59594239  0.50793752  0.94338939  1
  O  O16  1  0.49162282  0.08529483  0.94544623  1
  O  O17  1  0.91311888  0.40486865  0.94341246  1
  O  O18  1  0.50467179  0.60376421  0.23024155  1
  O  O19  1  0.39719220  0.90046696  0.22794605  1
  O  O20  1  0.09891819  0.49660309  0.22611923  1
  O  O21  1  0.49543989  0.39595871  0.72664979  1
  O  O22  1  0.60492900  0.09843370  0.72954486  1
  O  O23  1  0.90276871  0.50487416  0.72554612  1
  O  O24  1  0.17281228  0.23550066  0.45089053  1
  O  O25  1  0.76465448  0.93950056  0.44766050  1
  O  O26  1  0.06183631  0.82774034  0.45104707  1
  O  O27  1  0.82175542  0.76067868  0.94682234  1
  O  O28  1  0.23828646  0.06224097  0.94991514  1
  O  O29  1  0.93641686  0.17403105  0.95200165  1
  O  O30  1  0.07316708  0.24611591  0.23286354  1
  O  O31  1  0.75252599  0.82729783  0.23093149  1
  O  O32  1  0.17232427  0.92755951  0.23312669  1
  O  O33  1  0.92598502  0.75389749  0.73171478  1
  O  O34  1  0.24446642  0.17112402  0.73232038  1
  O  O35  1  0.82766956  0.07482996  0.73259155  1
loop_
_geom_bond_atom_site_label_1
_geom_bond_atom_site_label_2
_geom_bond_distance
_geom_bond_site_symmetry_2
Co0 O11 2.080510 1_555
Co0 O0 2.082561 1_555
Co0 O24 2.087919 1_555
Co0 O21 2.091477 1_555
Co0 O34 2.093176 1_555
Co0 O12 2.098086 1_555
Co1 O1 2.075566 1_555
Co1 O9 2.086010 1_545
Co1 O25 2.086212 1_545
Co1 O22 2.087899 1_555
Co1 O35 2.092858 1_555
Co1 O13 2.096865 1_545
Co2 O2 2.079768 1_555
Co2 O10 2.083719 1_655
Co2 O23 2.087468 1_555
Co2 O26 2.087759 1_655
Co2 O14 2.096455 1_655
Co2 O33 2.098290 1_555
Co3 O3 2.074838 1_554
Co3 O18 2.082530 1_555
Co3 O27 2.083074 1_554
Co3 O8 2.087501 1_555
Co3 O15 2.097921 1_554
Co3 O31 2.100332 1_555
Co4 O4 2.074171 1_554
Co4 O6 2.078724 1_565
Co4 O19 2.083575 1_555
Co4 O28 2.088383 1_564
Co4 O32 2.093696 1_555
Co4 O16 2.106247 1_564
Co5 O5 2.080466 1_554
Co5 O7 2.083956 1_455
Co5 O20 2.083976 1_555
Co5 O29 2.085418 1_454
Co5 O30 2.100181 1_555
Co5 O17 2.104022 1_454
H18 N0 1.040432 1_555
H19 N0 1.040641 1_555
H20 N0 1.041221 1_555
H21 N1 1.040746 1_556
H22 N1 1.040199 1_556
H23 N1 1.041174 1_556
H24 N0 1.016278 1_555
H25 N1 1.016300 1_555
H26 N2 1.041852 1_555
H27 N2 1.043003 1_555
H28 N2 1.042586 1_555
H29 N3 1.042388 1_556
H30 N3 1.042068 1_556
H31 N3 1.042970 1_556
H32 N2 1.017015 1_555
H33 N3 1.017130 1_555
H34 N4 1.042054 1_455
H35 N4 1.041193 1_565
H36 N4 1.041713 1_465
H37 N5 1.041164 1_565
H38 N5 1.042102 1_455
H39 N5 1.041339 1_555
H40 N4 1.016522 1_455
H41 N5 1.016693 1_555
C0 H0 1.097694 1_555
C0 O6 1.260353 1_555
C0 O0 1.267547 1_555
C1 H1 1.097075 1_555
C1 O7 1.259792 1_555
C1 O1 1.268701 1_555
C2 H2 1.097828 1_555
C2 O8 1.258800 1_555
C2 O2 1.269132 1_555
C3 H3 1.097177 1_555
C3 O9 1.258920 1_555
C3 O3 1.269138 1_555
C4 H4 1.097177 1_555
C4 O10 1.258353 1_555
C4 O4 1.269548 1_555
C5 H5 1.097630 1_555
C5 O11 1.259428 1_555
C5 O5 1.268776 1_555
C6 H6 1.097728 1_555
C6 O18 1.260337 1_555
C6 O12 1.268107 1_555
C7 H7 1.097292 1_565
C7 O19 1.258383 1_555
C7 O13 1.270257 1_555
C8 H8 1.097521 1_455
C8 O20 1.259780 1_555
C8 O14 1.269111 1_555
C9 H9 1.098088 1_555
C9 O21 1.259438 1_555
C9 O15 1.269818 1_555
C10 H10 1.097110 1_545
C10 O22 1.260463 1_555
C10 O16 1.268398 1_555
C11 H11 1.097851 1_655
C11 O23 1.259563 1_555
C11 O17 1.269371 1_555
C12 H12 1.098355 1_555
C12 O24 1.260704 1_555
C12 O30 1.267817 1_555
C13 H13 1.097544 1_555
C13 O25 1.261174 1_555
C13 O31 1.267244 1_555
C14 H14 1.098350 1_555
C14 O26 1.260149 1_555
C14 O32 1.268638 1_555
C15 H15 1.097661 1_555
C15 O27 1.260701 1_555
C15 O33 1.267138 1_555
C16 H16 1.097958 1_555
C16 O28 1.259317 1_555
C16 O34 1.269194 1_555
C17 H17 1.097273 1_555
C17 O29 1.260406 1_555
C17 O35 1.268261 1_555
