# generated using pymatgen
data_Ce2Te3
_symmetry_space_group_name_H-M   'P 1'
_cell_length_a   15.80955503
_cell_length_b   15.80955503
_cell_length_c   15.80955503
_cell_angle_alpha   145.04732882
_cell_angle_beta   145.04732882
_cell_angle_gamma   50.26399935
_symmetry_Int_Tables_number   1
_chemical_formula_structural   Ce2Te3
_chemical_formula_sum   'Ce16 Te24'
_cell_volume   1290.54059141
_cell_formula_units_Z   8
loop_
 _symmetry_equiv_pos_site_id
 _symmetry_equiv_pos_as_xyz
  1  'x, y, z'
loop_
 _atom_site_type_symbol
 _atom_site_label
 _atom_site_symmetry_multiplicity
 _atom_site_fract_x
 _atom_site_fract_y
 _atom_site_fract_z
 _atom_site_occupancy
  Ce  Ce0  1  0.67035000  0.79497300  0.38435900  1
  Ce  Ce1  1  0.08270200  0.58270200  0.50000000  1
  Ce  Ce2  1  0.87500000  0.24565900  0.87065900  1
  Ce  Ce3  1  0.66729800  0.66729800  0.00000000  1
  Ce  Ce4  1  0.33938600  0.45502700  0.37537600  1
  Ce  Ce5  1  0.07965000  0.96401000  0.62462400  1
  Ce  Ce6  1  0.37500000  0.00434100  0.12934100  1
  Ce  Ce7  1  0.54497300  0.92035000  0.88435900  1
  Ce  Ce8  1  0.33270200  0.33270200  0.00000000  1
  Ce  Ce9  1  0.99565900  0.12500000  0.37065900  1
  Ce  Ce10  1  0.75434100  0.62500000  0.62934100  1
  Ce  Ce11  1  0.03599000  0.66061400  0.11564100  1
  Ce  Ce12  1  0.41729800  0.91729800  0.50000000  1
  Ce  Ce13  1  0.20502700  0.58938600  0.87537600  1
  Ce  Ce14  1  0.71401000  0.32965000  0.12462400  1
  Ce  Ce15  1  0.41061400  0.28599000  0.61564100  1
  Te  Te0  1  0.39443600  0.64282900  0.90260400  1
  Te  Te1  1  0.02664400  0.92464200  0.74712800  1
  Te  Te2  1  0.74022500  0.49183200  0.09739600  1
  Te  Te3  1  0.00977500  0.60717100  0.25160700  1
  Te  Te4  1  0.35556400  0.75816800  0.74839300  1
  Te  Te5  1  0.17751500  0.27951600  0.25287200  1
  Te  Te6  1  0.05987000  0.31335700  0.90474000  1
  Te  Te7  1  0.57248500  0.32535800  0.60200100  1
  Te  Te8  1  0.68664300  0.59138400  0.74651400  1
  Te  Te9  1  0.40861600  0.15513000  0.09526000  1
  Te  Te10  1  0.72335600  0.97048400  0.39799900  1
  Te  Te11  1  0.67464200  0.27664400  0.24712800  1
  Te  Te12  1  0.02951600  0.42751500  0.75287200  1
  Te  Te13  1  0.84487000  0.94013000  0.25348600  1
  Te  Te14  1  0.72048400  0.97335600  0.89799900  1
  Te  Te15  1  0.24183200  0.99022500  0.59739600  1
  Te  Te16  1  0.35717100  0.25977500  0.75160700  1
  Te  Te17  1  0.07535800  0.82248500  0.10200100  1
  Te  Te18  1  0.39282900  0.64443600  0.40260400  1
  Te  Te19  1  0.34138400  0.93664300  0.24651400  1
  Te  Te20  1  0.69013000  0.09487000  0.75348600  1
  Te  Te21  1  0.50816800  0.60556400  0.24839300  1
  Te  Te22  1  0.90513000  0.65861600  0.59526000  1
  Te  Te23  1  0.06335700  0.30987000  0.40474000  1
loop_
_geom_bond_atom_site_label_1
_geom_bond_atom_site_label_2
_geom_bond_distance
_geom_bond_site_symmetry_2
Ce0 Te10 3.184924 1_555
Ce0 Te20 3.190801 1_565
Ce0 Te21 3.223600 1_555
Ce0 Te2 3.252090 1_555
Ce0 Te22 3.287380 1_555
Ce0 Te19 3.368002 1_555
Ce0 Te1 3.370092 1_655
Ce0 Te0 3.427035 1_554
Ce1 Te1 3.194101 1_555
Ce1 Te5 3.194109 1_555
Ce1 Te0 3.217947 1_555
Ce1 Te2 3.217947 1_455
Ce1 Te23 3.354046 1_555
Ce1 Te22 3.354054 1_455
Ce1 Te3 3.376133 1_555
Ce1 Te4 3.376133 1_555
Ce2 Te5 3.204764 1_656
Ce2 Te7 3.204773 1_555
Ce2 Te20 3.232724 1_555
Ce2 Te6 3.232736 1_655
Ce2 Te10 3.345201 1_545
Ce2 Te1 3.345210 1_645
Ce2 Te2 3.403747 1_556
Ce2 Te3 3.403747 1_656
Ce3 Te7 3.194103 1_554
Ce3 Te10 3.194109 1_555
Ce3 Te4 3.217947 1_554
Ce3 Te3 3.217947 1_655
Ce3 Te8 3.354041 1_554
Ce3 Te13 3.354054 1_555
Ce3 Te2 3.376133 1_555
Ce3 Te0 3.376133 1_554
Ce4 Te5 3.184936 1_555
Ce4 Te9 3.190794 1_555
Ce4 Te18 3.223587 1_555
Ce4 Te4 3.252099 1_555
Ce4 Te8 3.287368 1_555
Ce4 Te6 3.368001 1_554
Ce4 Te7 3.370094 1_555
Ce4 Te3 3.427036 1_555
Ce5 Te1 3.184936 1_555
Ce5 Te6 3.190800 1_565
Ce5 Te15 3.223603 1_555
Ce5 Te3 3.252100 1_555
Ce5 Te13 3.287382 1_455
Ce5 Te9 3.368001 1_566
Ce5 Te10 3.370094 1_455
Ce5 Te4 3.427039 1_555
Ce6 Te1 3.204764 1_544
Ce6 Te10 3.204764 1_545
Ce6 Te9 3.232724 1_555
Ce6 Te19 3.232738 1_545
Ce6 Te5 3.345201 1_555
Ce6 Te7 3.345205 1_555
Ce6 Te0 3.403747 1_544
Ce6 Te4 3.403747 1_544
Ce7 Te14 3.184924 1_555
Ce7 Te13 3.190801 1_556
Ce7 Te4 3.223600 1_555
Ce7 Te15 3.252090 1_555
Ce7 Te9 3.287380 1_566
Ce7 Te8 3.368002 1_555
Ce7 Te11 3.370092 1_566
Ce7 Te18 3.427035 1_555
Ce8 Te11 3.194101 1_555
Ce8 Te12 3.194109 1_554
Ce8 Te18 3.217947 1_555
Ce8 Te15 3.217947 1_544
Ce8 Te6 3.354046 1_554
Ce8 Te9 3.354054 1_555
Ce8 Te16 3.376133 1_554
Ce8 Te21 3.376133 1_555
Ce9 Te12 3.204764 1_655
Ce9 Te17 3.204773 1_645
Ce9 Te13 3.232724 1_545
Ce9 Te23 3.232736 1_655
Ce9 Te14 3.345201 1_544
Ce9 Te11 3.345210 1_555
Ce9 Te15 3.403747 1_645
Ce9 Te16 3.403747 1_655
Ce10 Te11 3.204764 1_555
Ce10 Te14 3.204764 1_555
Ce10 Te22 3.232724 1_555
Ce10 Te8 3.232738 1_555
Ce10 Te12 3.345201 1_655
Ce10 Te17 3.345205 1_656
Ce10 Te21 3.403747 1_555
Ce10 Te18 3.403747 1_555
Ce11 Te17 3.184948 1_555
Ce11 Te8 3.190801 1_454
Ce11 Te3 3.223587 1_555
Ce11 Te18 3.252099 1_555
Ce11 Te6 3.287366 1_554
Ce11 Te13 3.367996 1_455
Ce11 Te12 3.370107 1_554
Ce11 Te15 3.427036 1_555
Ce12 Te17 3.194103 1_555
Ce12 Te14 3.194109 1_555
Ce12 Te16 3.217947 1_565
Ce12 Te21 3.217947 1_555
Ce12 Te19 3.354041 1_555
Ce12 Te20 3.354054 1_565
Ce12 Te15 3.376133 1_555
Ce12 Te18 3.376133 1_555
Ce13 Te12 3.184936 1_555
Ce13 Te22 3.190794 1_455
Ce13 Te0 3.223587 1_555
Ce13 Te21 3.252099 1_556
Ce13 Te19 3.287368 1_556
Ce13 Te23 3.368001 1_555
Ce13 Te17 3.370094 1_556
Ce13 Te16 3.427036 1_555
Ce14 Te11 3.184936 1_555
Ce14 Te23 3.190800 1_655
Ce14 Te2 3.223603 1_555
Ce14 Te16 3.252100 1_554
Ce14 Te20 3.287382 1_554
Ce14 Te22 3.368001 1_555
Ce14 Te14 3.370094 1_544
Ce14 Te21 3.427039 1_555
Ce15 Te7 3.184948 1_555
Ce15 Te19 3.190801 1_545
Ce15 Te16 3.223587 1_555
Ce15 Te0 3.252099 1_555
Ce15 Te23 3.287366 1_555
Ce15 Te20 3.367996 1_555
Ce15 Te5 3.370107 1_555
Ce15 Te2 3.427036 1_556
