# generated using pymatgen
data_Zr4In(Re3Tc)6
_symmetry_space_group_name_H-M   'P 1'
_cell_length_a   8.44053374
_cell_length_b   8.44053323
_cell_length_c   8.41708778
_cell_angle_alpha   109.47477888
_cell_angle_beta   109.47478187
_cell_angle_gamma   109.57669134
_symmetry_Int_Tables_number   1
_chemical_formula_structural   Zr4In(Re3Tc)6
_chemical_formula_sum   'Zr4 In1 Re18 Tc6'
_cell_volume   460.97193758
_cell_formula_units_Z   1
loop_
 _symmetry_equiv_pos_site_id
 _symmetry_equiv_pos_as_xyz
  1  'x, y, z'
loop_
 _atom_site_type_symbol
 _atom_site_label
 _atom_site_symmetry_multiplicity
 _atom_site_fract_x
 _atom_site_fract_y
 _atom_site_fract_z
 _atom_site_occupancy
  Zr  Zr0  1  0.62916141  0.99973701  0.00000000  1
  Zr  Zr1  1  0.99973701  0.62916141  0.00000000  1
  Zr  Zr2  1  0.99973870  0.99973870  0.63068237  1
  Zr  Zr3  1  0.36905532  0.36905532  0.36931763  1
  In  In0  1  0.99909979  0.99909979  0.00000000  1
  Re  Re0  1  0.32544812  0.32544812  0.72100884  1
  Re  Re1  1  0.00118745  0.67511541  0.39471233  1
  Re  Re2  1  0.67511541  0.00118745  0.39471233  1
  Re  Re3  1  0.60443828  0.60443828  0.27899116  1
  Re  Re4  1  0.28040308  0.60647512  0.60528767  1
  Re  Re5  1  0.60647512  0.28040308  0.60528767  1
  Re  Re6  1  0.37719338  0.19527280  1.00000000  1
  Re  Re7  1  0.18104535  0.80565748  0.80483541  1
  Re  Re8  1  0.37621093  0.00082307  0.19516459  1
  Re  Re9  1  0.19527280  0.37719338  1.00000000  1
  Re  Re10  1  0.00082307  0.37621093  0.19516459  1
  Re  Re11  1  0.80565748  0.18104535  0.80483541  1
  Re  Re12  1  0.80630541  0.80630541  0.18314461  1
  Re  Re13  1  0.00084124  0.19482835  0.37879853  1
  Re  Re14  1  0.19482835  0.00084124  0.37879853  1
  Re  Re15  1  0.62316081  0.62316081  0.81685539  1
  Re  Re16  1  0.81602883  0.62204272  0.62120147  1
  Re  Re17  1  0.62204272  0.81602883  0.62120147  1
  Tc  Tc0  1  0.39401579  0.67597532  0.00000000  1
  Tc  Tc1  1  0.71920371  0.32415433  0.32299012  1
  Tc  Tc2  1  0.39621359  0.00116421  0.67700988  1
  Tc  Tc3  1  0.67597532  0.39401579  0.00000000  1
  Tc  Tc4  1  0.00116421  0.39621359  0.67700988  1
  Tc  Tc5  1  0.32415433  0.71920371  0.32299012  1
loop_
_geom_bond_atom_site_label_1
_geom_bond_atom_site_label_2
_geom_bond_distance
_geom_bond_site_symmetry_2
In0 Re12 3.040267 1_555
In0 Re15 3.040267 1_554
In0 Re11 3.049080 1_564
In0 Re7 3.049080 1_654
In0 Re10 3.049083 1_665
In0 Re8 3.049083 1_665
In0 Re16 3.055411 1_554
In0 Re17 3.055411 1_554
In0 Re14 3.055412 1_665
In0 Re13 3.055412 1_665
In0 Re9 3.063500 1_664
In0 Re6 3.063500 1_664
In0 Zr3 3.112173 1_665
In0 Zr2 3.112179 1_554
In0 Zr1 3.124283 1_555
In0 Zr0 3.124284 1_555
Re0 Re15 2.518872 1_555
Re0 Re14 2.759555 1_555
Re0 Re13 2.759555 1_555
Re0 Zr2 2.800293 1_445
Re0 Tc0 2.813651 1_556
Re0 Tc3 2.813651 1_556
Re0 Re6 2.875870 1_555
Re0 Re9 2.875870 1_555
Re0 Tc2 2.924548 1_555
Re0 Tc4 2.924548 1_555
Re0 Re4 2.935602 1_555
Re0 Re5 2.935602 1_555
Re0 Zr3 3.224290 1_555
Re1 Re10 2.520326 1_555
Re1 Re14 2.761920 1_565
Re1 Re12 2.772242 1_455
Re1 Re4 2.801035 1_555
Re1 Zr2 2.804025 1_455
Re1 Tc1 2.815881 1_455
Re1 Re7 2.878166 1_555
Re1 Re16 2.892104 1_455
Re1 Tc3 2.915602 1_455
Re1 Tc5 2.915710 1_555
Re1 Tc2 2.923146 1_565
Re1 Re3 2.935607 1_455
Re1 Zr1 3.209191 1_455
Re2 Re8 2.520326 1_555
Re2 Re5 2.801035 1_555
Re2 Zr2 2.804025 1_545
Re2 Tc5 2.815881 1_545
Re2 Tc0 2.915602 1_545
Re2 Tc1 2.915710 1_555
Re2 Tc4 2.923146 1_655
Re2 Re3 2.935607 1_545
Re2 Zr0 3.209191 1_545
Re3 Zr3 2.800293 1_555
Re3 Tc0 2.813653 1_555
Re3 Tc3 2.813653 1_555
Re3 Re6 2.875864 1_554
Re3 Re9 2.875864 1_554
Re3 Tc1 2.924545 1_555
Re3 Tc5 2.924545 1_555
Re3 Zr2 3.224303 1_555
Re4 Re7 2.520328 1_555
Re4 Zr3 2.804024 1_555
Re4 Tc4 2.815881 1_555
Re4 Tc0 2.915602 1_556
Re4 Tc2 2.915710 1_565
Re4 Tc5 2.923146 1_555
Re4 Zr0 3.209191 1_556
Re5 Zr3 2.804024 1_555
Re5 Tc2 2.815881 1_555
Re5 Re8 2.878164 1_555
Re5 Tc3 2.915602 1_556
Re5 Tc4 2.915710 1_655
Re5 Tc1 2.923146 1_555
Re5 Zr1 3.209191 1_556
Re6 Re9 2.509103 1_555
Re6 Tc3 2.517716 1_556
Re6 Re8 2.681421 1_556
Re6 Re7 2.681428 1_545
Re6 Tc2 2.756514 1_555
Re6 Tc1 2.756514 1_556
Re6 Zr2 2.998177 1_445
Re6 Zr3 2.998180 1_556
Re6 Zr0 3.098250 1_546
Re7 Re8 2.680559 1_566
Re7 Tc2 2.767206 1_565
Re7 Tc0 2.770649 1_556
Re7 Tc4 2.884688 1_555
Re7 Zr2 2.993247 1_455
Re7 Zr1 3.006651 1_456
Re7 Zr0 3.098176 1_556
Re8 Tc1 2.767197 1_555
Re8 Tc0 2.770651 1_545
Re8 Tc5 2.884695 1_545
Re8 Zr3 2.993242 1_555
Re8 Zr1 3.006660 1_445
Re8 Zr0 3.098169 1_545
Re9 Tc0 2.517716 1_556
Re9 Tc4 2.756513 1_555
Re9 Tc5 2.756514 1_556
Re9 Zr2 2.998177 1_445
Re9 Zr3 2.998180 1_556
Re9 Zr1 3.098250 1_456
Re10 Re13 2.512126 1_555
Re10 Re11 2.680559 1_454
Re10 Re9 2.681421 1_554
Re10 Tc5 2.767197 1_555
Re10 Tc3 2.770651 1_455
Re10 Re4 2.878164 1_555
Re10 Tc1 2.884695 1_455
Re10 Zr3 2.993242 1_555
Re10 Zr0 3.006660 1_445
Re10 Zr1 3.098168 1_455
Re11 Re17 2.512126 1_545
Re11 Re5 2.520328 1_555
Re11 Re9 2.681428 1_655
Re11 Tc4 2.767206 1_655
Re11 Tc3 2.770649 1_556
Re11 Re2 2.878166 1_555
Re11 Tc2 2.884688 1_555
Re11 Zr2 2.993247 1_545
Re11 Zr0 3.006651 1_546
Re11 Zr1 3.098175 1_556
Re12 Re15 2.515467 1_554
Re12 Re3 2.518881 1_555
Re12 Re13 2.673910 1_665
Re12 Re14 2.673910 1_665
Re12 Re2 2.772242 1_565
Re12 Tc3 2.902317 1_555
Re12 Tc0 2.902318 1_555
Re12 Zr0 3.009113 1_555
Re12 Zr1 3.009113 1_555
Re12 Zr2 3.087587 1_555
Re13 Tc4 2.517380 1_555
Re13 Re14 2.675528 1_555
Re13 Re2 2.761920 1_455
Re13 Re4 2.892098 1_555
Re13 Tc1 2.898172 1_455
Re13 Zr3 3.001491 1_555
Re13 Zr0 3.014472 1_445
Re13 Zr2 3.088242 1_445
Re14 Re8 2.512126 1_555
Re14 Tc2 2.517380 1_555
Re14 Re5 2.892099 1_555
Re14 Tc5 2.898172 1_545
Re14 Zr3 3.001491 1_555
Re14 Zr1 3.014472 1_445
Re14 Zr2 3.088242 1_445
Re15 Re17 2.673903 1_555
Re15 Re16 2.673903 1_555
Re15 Re5 2.772242 1_555
Re15 Re4 2.772242 1_555
Re15 Tc3 2.902317 1_556
Re15 Tc0 2.902317 1_556
Re15 Zr0 3.009113 1_556
Re15 Zr1 3.009113 1_556
Re15 Zr3 3.087588 1_555
Re16 Re7 2.512126 1_655
Re16 Tc1 2.517383 1_555
Re16 Re17 2.675514 1_555
Re16 Re3 2.759551 1_555
Re16 Re5 2.761918 1_555
Re16 Tc4 2.898178 1_655
Re16 Zr2 3.001501 1_555
Re16 Zr1 3.014473 1_556
Re16 Zr3 3.088243 1_555
Re17 Tc5 2.517383 1_555
Re17 Re3 2.759551 1_555
Re17 Re4 2.761918 1_555
Re17 Re2 2.892104 1_565
Re17 Tc2 2.898178 1_565
Re17 Zr2 3.001501 1_555
Re17 Zr0 3.014473 1_556
Re17 Zr3 3.088243 1_555
Tc0 Zr0 2.787892 1_555
Tc0 Tc5 2.902327 1_555
Tc0 Tc4 2.902327 1_554
Tc0 Zr1 3.217140 1_455
Tc1 Zr0 2.780391 1_545
Tc1 Tc4 2.829497 1_655
Tc1 Tc3 2.902327 1_555
Tc1 Zr3 3.232771 1_555
Tc2 Zr0 2.780391 1_546
Tc2 Tc5 2.829497 1_545
Tc2 Tc3 2.902327 1_556
Tc2 Zr2 3.232766 1_445
Tc3 Zr1 2.787892 1_555
Tc3 Zr0 3.217140 1_545
Tc4 Zr1 2.780391 1_456
Tc4 Zr2 3.232766 1_445
Tc5 Zr1 2.780391 1_455
Tc5 Zr3 3.232771 1_555
