# generated using pymatgen
data_Co2GeMo3N
_symmetry_space_group_name_H-M   'P 1'
_cell_length_a   7.82942070
_cell_length_b   7.82942066
_cell_length_c   7.82941994
_cell_angle_alpha   59.99999890
_cell_angle_beta   59.99999906
_cell_angle_gamma   60.00000402
_symmetry_Int_Tables_number   1
_chemical_formula_structural   Co2GeMo3N
_chemical_formula_sum   'Co8 Ge4 Mo12 N4'
_cell_volume   339.37031634
_cell_formula_units_Z   4
loop_
 _symmetry_equiv_pos_site_id
 _symmetry_equiv_pos_as_xyz
  1  'x, y, z'
loop_
 _atom_site_type_symbol
 _atom_site_label
 _atom_site_symmetry_multiplicity
 _atom_site_fract_x
 _atom_site_fract_y
 _atom_site_fract_z
 _atom_site_occupancy
  Co  Co0  1  0.24973316  0.91675561  0.91675561  1
  Co  Co1  1  0.91675561  0.24973316  0.91675561  1
  Co  Co2  1  0.91675561  0.91675561  0.91675561  1
  Co  Co3  1  0.91675561  0.91675561  0.24973316  1
  Co  Co4  1  0.00026684  0.33324439  0.33324439  1
  Co  Co5  1  0.33324439  0.33324439  0.00026684  1
  Co  Co6  1  0.33324439  0.00026684  0.33324439  1
  Co  Co7  1  0.33324439  0.33324439  0.33324439  1
  Ge  Ge0  1  0.62500000  0.12500000  0.12500000  1
  Ge  Ge1  1  0.12500000  0.12500000  0.62500000  1
  Ge  Ge2  1  0.12500000  0.62500000  0.12500000  1
  Ge  Ge3  1  0.12500000  0.12500000  0.12500000  1
  Mo  Mo0  1  0.69321000  0.30679000  0.69321000  1
  Mo  Mo1  1  0.55679000  0.55679000  0.94321000  1
  Mo  Mo2  1  0.55679000  0.94321000  0.55679000  1
  Mo  Mo3  1  0.94321000  0.94321000  0.55679000  1
  Mo  Mo4  1  0.94321000  0.55679000  0.55679000  1
  Mo  Mo5  1  0.94321000  0.55679000  0.94321000  1
  Mo  Mo6  1  0.69321000  0.30679000  0.30679000  1
  Mo  Mo7  1  0.30679000  0.69321000  0.30679000  1
  Mo  Mo8  1  0.30679000  0.30679000  0.69321000  1
  Mo  Mo9  1  0.30679000  0.69321000  0.69321000  1
  Mo  Mo10  1  0.69321000  0.69321000  0.30679000  1
  Mo  Mo11  1  0.55679000  0.94321000  0.94321000  1
  N  N0  1  0.62500000  0.62500000  0.62500000  1
  N  N1  1  0.12500000  0.62500000  0.62500000  1
  N  N2  1  0.62500000  0.12500000  0.62500000  1
  N  N3  1  0.62500000  0.62500000  0.12500000  1
loop_
_geom_bond_atom_site_label_1
_geom_bond_atom_site_label_2
_geom_bond_distance
_geom_bond_site_symmetry_2
Co0 Ge1 2.396692 1_565
Co0 Ge2 2.396693 1_556
Co0 Ge3 2.396693 1_566
Co0 Co3 2.607021 1_456
Co0 Co2 2.607021 1_455
Co0 Co1 2.607021 1_465
Co0 Mo2 2.627577 1_555
Co0 Mo11 2.627577 1_555
Co0 Mo1 2.627578 1_555
Co0 Mo7 2.797457 1_556
Co0 Mo9 2.797457 1_555
Co0 Mo8 2.797457 1_565
Co1 Ge1 2.396692 1_655
Co1 Ge0 2.396693 1_556
Co1 Ge3 2.396693 1_656
Co1 Co3 2.607021 1_546
Co1 Co2 2.607021 1_545
Co1 Mo4 2.627577 1_555
Co1 Mo5 2.627577 1_555
Co1 Mo1 2.627578 1_555
Co1 Mo6 2.797457 1_556
Co1 Mo0 2.797457 1_555
Co1 Mo8 2.797457 1_655
Co2 Ge1 2.396692 1_665
Co2 Ge2 2.396693 1_656
Co2 Ge0 2.396693 1_566
Co2 Co3 2.607021 1_556
Co2 Mo3 2.627577 1_555
Co2 Mo5 2.627577 1_555
Co2 Mo11 2.627577 1_555
Co2 Mo10 2.797457 1_556
Co2 Mo0 2.797458 1_565
Co2 Mo9 2.797458 1_655
Co3 Ge3 2.396693 1_665
Co3 Ge2 2.396693 1_655
Co3 Ge0 2.396693 1_565
Co3 Mo3 2.627577 1_555
Co3 Mo4 2.627577 1_555
Co3 Mo2 2.627577 1_555
Co3 Mo10 2.797457 1_555
Co3 Mo6 2.797458 1_565
Co3 Mo7 2.797458 1_655
Co4 Ge1 2.396692 1_555
Co4 Ge2 2.396693 1_555
Co4 Ge3 2.396693 1_555
Co4 Co5 2.607021 1_555
Co4 Co7 2.607021 1_555
Co4 Co6 2.607021 1_555
Co4 Mo0 2.627577 1_455
Co4 Mo6 2.627577 1_455
Co4 Mo10 2.627578 1_455
Co4 Mo5 2.797457 1_454
Co4 Mo4 2.797457 1_455
Co4 Mo3 2.797457 1_445
Co5 Ge3 2.396693 1_555
Co5 Ge2 2.396693 1_555
Co5 Ge0 2.396693 1_555
Co5 Co7 2.607021 1_555
Co5 Co6 2.607021 1_555
Co5 Mo8 2.627577 1_554
Co5 Mo9 2.627577 1_554
Co5 Mo0 2.627577 1_554
Co5 Mo1 2.797457 1_554
Co5 Mo11 2.797458 1_544
Co5 Mo5 2.797458 1_454
Co6 Ge1 2.396692 1_555
Co6 Ge0 2.396693 1_555
Co6 Ge3 2.396693 1_555
Co6 Co7 2.607021 1_555
Co6 Mo9 2.627577 1_545
Co6 Mo7 2.627577 1_545
Co6 Mo10 2.627578 1_545
Co6 Mo11 2.797457 1_544
Co6 Mo2 2.797457 1_545
Co6 Mo3 2.797457 1_445
Co7 Ge1 2.396692 1_555
Co7 Ge2 2.396693 1_555
Co7 Ge0 2.396693 1_555
Co7 Mo8 2.627577 1_555
Co7 Mo7 2.627577 1_555
Co7 Mo6 2.627577 1_555
Co7 Mo1 2.797457 1_554
Co7 Mo2 2.797458 1_545
Co7 Mo4 2.797458 1_455
Ge0 Mo2 2.807644 1_545
Ge0 Mo0 2.807644 1_554
Ge0 Mo6 2.807644 1_555
Ge0 Mo11 2.807644 1_544
Ge0 Mo1 2.807644 1_554
Ge0 Mo10 2.807644 1_545
Ge1 Mo8 2.807644 1_555
Ge1 Mo3 2.807644 1_445
Ge1 Mo4 2.807644 1_455
Ge1 Mo9 2.807644 1_545
Ge1 Mo2 2.807644 1_545
Ge1 Mo0 2.807644 1_455
Ge2 Mo4 2.807644 1_455
Ge2 Mo9 2.807644 1_554
Ge2 Mo7 2.807644 1_555
Ge2 Mo5 2.807644 1_454
Ge2 Mo1 2.807644 1_554
Ge2 Mo10 2.807644 1_455
Ge3 Mo3 2.807644 1_445
Ge3 Mo8 2.807644 1_554
Ge3 Mo5 2.807644 1_454
Ge3 Mo7 2.807644 1_545
Ge3 Mo11 2.807644 1_544
Ge3 Mo6 2.807644 1_455
Mo0 N2 2.098010 1_555
Mo0 N0 2.098010 1_555
Mo1 N0 2.098010 1_555
Mo1 N3 2.098010 1_556
Mo2 N2 2.098010 1_565
Mo2 N0 2.098010 1_555
Mo3 N1 2.098010 1_655
Mo3 N2 2.098010 1_565
Mo4 N1 2.098010 1_655
Mo4 N0 2.098010 1_555
Mo5 N1 2.098010 1_655
Mo5 N3 2.098010 1_556
Mo6 N2 2.098010 1_555
Mo6 N3 2.098010 1_555
Mo7 N1 2.098010 1_555
Mo7 N3 2.098010 1_555
Mo8 N1 2.098010 1_555
Mo8 N2 2.098010 1_555
Mo9 N1 2.098010 1_555
Mo9 N0 2.098010 1_555
Mo10 N0 2.098010 1_555
Mo10 N3 2.098010 1_555
Mo11 N2 2.098010 1_565
Mo11 N3 2.098010 1_556
