# generated using pymatgen
data_YLu4(In2Au)2
_symmetry_space_group_name_H-M   'P 1'
_cell_length_a   7.26410219
_cell_length_b   16.03766927
_cell_length_c   35.88024486
_cell_angle_alpha   90.00000000
_cell_angle_beta   90.00000000
_cell_angle_gamma   90.00000000
_symmetry_Int_Tables_number   1
_chemical_formula_structural   YLu4(In2Au)2
_chemical_formula_sum   'Y16 Lu64 In64 Au32'
_cell_volume   4180.02227881
_cell_formula_units_Z   16
loop_
 _symmetry_equiv_pos_site_id
 _symmetry_equiv_pos_as_xyz
  1  'x, y, z'
loop_
 _atom_site_type_symbol
 _atom_site_label
 _atom_site_symmetry_multiplicity
 _atom_site_fract_x
 _atom_site_fract_y
 _atom_site_fract_z
 _atom_site_occupancy
  Y  Y0_0  1  0.00000000  0.25000000  0.25000000  1
  Y  Y0_1  1  0.00000000  0.25000000  0.75000000  1
  Y  Y0_2  1  0.00000000  0.75000000  0.25000000  1
  Y  Y0_3  1  0.00000000  0.75000000  0.75000000  1
  Y  Y0_4  1  0.50000000  0.25000000  0.25000000  1
  Y  Y0_5  1  0.50000000  0.25000000  0.75000000  1
  Y  Y0_6  1  0.50000000  0.75000000  0.25000000  1
  Y  Y0_7  1  0.50000000  0.75000000  0.75000000  1
  Y  Y1_0  1  0.00000000  0.00000000  0.00000000  1
  Y  Y1_1  1  0.00000000  0.00000000  0.50000000  1
  Y  Y1_2  1  0.00000000  0.50000000  0.00000000  1
  Y  Y1_3  1  0.00000000  0.50000000  0.50000000  1
  Y  Y1_4  1  0.50000000  0.00000000  0.00000000  1
  Y  Y1_5  1  0.50000000  0.00000000  0.50000000  1
  Y  Y1_6  1  0.50000000  0.50000000  0.00000000  1
  Y  Y1_7  1  0.50000000  0.50000000  0.50000000  1
  Lu  Lu0_0  1  0.00000000  0.36919021  0.14105985  1
  Lu  Lu0_1  1  0.00000000  0.36919021  0.64105985  1
  Lu  Lu0_2  1  0.00000000  0.86919021  0.14105985  1
  Lu  Lu0_3  1  0.00000000  0.86919021  0.64105985  1
  Lu  Lu0_4  1  0.50000000  0.36919021  0.14105985  1
  Lu  Lu0_5  1  0.50000000  0.36919021  0.64105985  1
  Lu  Lu0_6  1  0.50000000  0.86919021  0.14105985  1
  Lu  Lu0_7  1  0.50000000  0.86919021  0.64105985  1
  Lu  Lu1_0  1  0.00000000  0.13080979  0.35894015  1
  Lu  Lu1_1  1  0.00000000  0.13080979  0.85894015  1
  Lu  Lu1_2  1  0.00000000  0.63080979  0.35894015  1
  Lu  Lu1_3  1  0.00000000  0.63080979  0.85894015  1
  Lu  Lu1_4  1  0.50000000  0.13080979  0.35894015  1
  Lu  Lu1_5  1  0.50000000  0.13080979  0.85894015  1
  Lu  Lu1_6  1  0.50000000  0.63080979  0.35894015  1
  Lu  Lu1_7  1  0.50000000  0.63080979  0.85894015  1
  Lu  Lu2_0  1  0.00000000  0.38080979  0.39105985  1
  Lu  Lu2_1  1  0.00000000  0.38080979  0.89105985  1
  Lu  Lu2_2  1  0.00000000  0.88080979  0.39105985  1
  Lu  Lu2_3  1  0.00000000  0.88080979  0.89105985  1
  Lu  Lu2_4  1  0.50000000  0.38080979  0.39105985  1
  Lu  Lu2_5  1  0.50000000  0.38080979  0.89105985  1
  Lu  Lu2_6  1  0.50000000  0.88080979  0.39105985  1
  Lu  Lu2_7  1  0.50000000  0.88080979  0.89105985  1
  Lu  Lu3_0  1  0.00000000  0.11919021  0.10894015  1
  Lu  Lu3_1  1  0.00000000  0.11919021  0.60894015  1
  Lu  Lu3_2  1  0.00000000  0.61919021  0.10894015  1
  Lu  Lu3_3  1  0.00000000  0.61919021  0.60894015  1
  Lu  Lu3_4  1  0.50000000  0.11919021  0.10894015  1
  Lu  Lu3_5  1  0.50000000  0.11919021  0.60894015  1
  Lu  Lu3_6  1  0.50000000  0.61919021  0.10894015  1
  Lu  Lu3_7  1  0.50000000  0.61919021  0.60894015  1
  Lu  Lu4_0  1  0.00000000  0.30910635  0.04104699  1
  Lu  Lu4_1  1  0.00000000  0.30910635  0.54104699  1
  Lu  Lu4_2  1  0.00000000  0.80910635  0.04104699  1
  Lu  Lu4_3  1  0.00000000  0.80910635  0.54104699  1
  Lu  Lu4_4  1  0.50000000  0.30910635  0.04104699  1
  Lu  Lu4_5  1  0.50000000  0.30910635  0.54104699  1
  Lu  Lu4_6  1  0.50000000  0.80910635  0.04104699  1
  Lu  Lu4_7  1  0.50000000  0.80910635  0.54104699  1
  Lu  Lu5_0  1  0.00000000  0.19089365  0.45895301  1
  Lu  Lu5_1  1  0.00000000  0.19089365  0.95895301  1
  Lu  Lu5_2  1  0.00000000  0.69089365  0.45895301  1
  Lu  Lu5_3  1  0.00000000  0.69089365  0.95895301  1
  Lu  Lu5_4  1  0.50000000  0.19089365  0.45895301  1
  Lu  Lu5_5  1  0.50000000  0.19089365  0.95895301  1
  Lu  Lu5_6  1  0.50000000  0.69089365  0.45895301  1
  Lu  Lu5_7  1  0.50000000  0.69089365  0.95895301  1
  Lu  Lu6_0  1  0.00000000  0.44089365  0.29104699  1
  Lu  Lu6_1  1  0.00000000  0.44089365  0.79104699  1
  Lu  Lu6_2  1  0.00000000  0.94089365  0.29104699  1
  Lu  Lu6_3  1  0.00000000  0.94089365  0.79104699  1
  Lu  Lu6_4  1  0.50000000  0.44089365  0.29104699  1
  Lu  Lu6_5  1  0.50000000  0.44089365  0.79104699  1
  Lu  Lu6_6  1  0.50000000  0.94089365  0.29104699  1
  Lu  Lu6_7  1  0.50000000  0.94089365  0.79104699  1
  Lu  Lu7_0  1  0.00000000  0.05910635  0.20895301  1
  Lu  Lu7_1  1  0.00000000  0.05910635  0.70895301  1
  Lu  Lu7_2  1  0.00000000  0.55910635  0.20895301  1
  Lu  Lu7_3  1  0.00000000  0.55910635  0.70895301  1
  Lu  Lu7_4  1  0.50000000  0.05910635  0.20895301  1
  Lu  Lu7_5  1  0.50000000  0.05910635  0.70895301  1
  Lu  Lu7_6  1  0.50000000  0.55910635  0.20895301  1
  Lu  Lu7_7  1  0.50000000  0.55910635  0.70895301  1
  In  In0_0  1  0.25000000  0.35307356  0.46711429  1
  In  In0_1  1  0.25000000  0.35307356  0.96711429  1
  In  In0_2  1  0.25000000  0.85307356  0.46711429  1
  In  In0_3  1  0.25000000  0.85307356  0.96711429  1
  In  In0_4  1  0.75000000  0.35307356  0.46711429  1
  In  In0_5  1  0.75000000  0.35307356  0.96711429  1
  In  In0_6  1  0.75000000  0.85307356  0.46711429  1
  In  In0_7  1  0.75000000  0.85307356  0.96711429  1
  In  In1_0  1  0.25000000  0.14692644  0.03288571  1
  In  In1_1  1  0.25000000  0.14692644  0.53288571  1
  In  In1_2  1  0.25000000  0.64692644  0.03288571  1
  In  In1_3  1  0.25000000  0.64692644  0.53288571  1
  In  In1_4  1  0.75000000  0.14692644  0.03288571  1
  In  In1_5  1  0.75000000  0.14692644  0.53288571  1
  In  In1_6  1  0.75000000  0.64692644  0.03288571  1
  In  In1_7  1  0.75000000  0.64692644  0.53288571  1
  In  In2_0  1  0.25000000  0.39692644  0.21711429  1
  In  In2_1  1  0.25000000  0.39692644  0.71711429  1
  In  In2_2  1  0.25000000  0.89692644  0.21711429  1
  In  In2_3  1  0.25000000  0.89692644  0.71711429  1
  In  In2_4  1  0.75000000  0.39692644  0.21711429  1
  In  In2_5  1  0.75000000  0.39692644  0.71711429  1
  In  In2_6  1  0.75000000  0.89692644  0.21711429  1
  In  In2_7  1  0.75000000  0.89692644  0.71711429  1
  In  In3_0  1  0.25000000  0.10307356  0.28288571  1
  In  In3_1  1  0.25000000  0.10307356  0.78288571  1
  In  In3_2  1  0.25000000  0.60307356  0.28288571  1
  In  In3_3  1  0.25000000  0.60307356  0.78288571  1
  In  In3_4  1  0.75000000  0.10307356  0.28288571  1
  In  In3_5  1  0.75000000  0.10307356  0.78288571  1
  In  In3_6  1  0.75000000  0.60307356  0.28288571  1
  In  In3_7  1  0.75000000  0.60307356  0.78288571  1
  In  In4_0  1  0.25000000  0.29057278  0.32389224  1
  In  In4_1  1  0.25000000  0.29057278  0.82389224  1
  In  In4_2  1  0.25000000  0.79057278  0.32389224  1
  In  In4_3  1  0.25000000  0.79057278  0.82389224  1
  In  In4_4  1  0.75000000  0.29057278  0.32389224  1
  In  In4_5  1  0.75000000  0.29057278  0.82389224  1
  In  In4_6  1  0.75000000  0.79057278  0.32389224  1
  In  In4_7  1  0.75000000  0.79057278  0.82389224  1
  In  In5_0  1  0.25000000  0.20942722  0.17610776  1
  In  In5_1  1  0.25000000  0.20942722  0.67610776  1
  In  In5_2  1  0.25000000  0.70942722  0.17610776  1
  In  In5_3  1  0.25000000  0.70942722  0.67610776  1
  In  In5_4  1  0.75000000  0.20942722  0.17610776  1
  In  In5_5  1  0.75000000  0.20942722  0.67610776  1
  In  In5_6  1  0.75000000  0.70942722  0.17610776  1
  In  In5_7  1  0.75000000  0.70942722  0.67610776  1
  In  In6_0  1  0.25000000  0.45942722  0.07389224  1
  In  In6_1  1  0.25000000  0.45942722  0.57389224  1
  In  In6_2  1  0.25000000  0.95942722  0.07389224  1
  In  In6_3  1  0.25000000  0.95942722  0.57389224  1
  In  In6_4  1  0.75000000  0.45942722  0.07389224  1
  In  In6_5  1  0.75000000  0.45942722  0.57389224  1
  In  In6_6  1  0.75000000  0.95942722  0.07389224  1
  In  In6_7  1  0.75000000  0.95942722  0.57389224  1
  In  In7_0  1  0.25000000  0.04057278  0.42610776  1
  In  In7_1  1  0.25000000  0.04057278  0.92610776  1
  In  In7_2  1  0.25000000  0.54057278  0.42610776  1
  In  In7_3  1  0.25000000  0.54057278  0.92610776  1
  In  In7_4  1  0.75000000  0.04057278  0.42610776  1
  In  In7_5  1  0.75000000  0.04057278  0.92610776  1
  In  In7_6  1  0.75000000  0.54057278  0.42610776  1
  In  In7_7  1  0.75000000  0.54057278  0.92610776  1
  Au  Au0_0  1  0.25000000  0.26321472  0.09856407  1
  Au  Au0_1  1  0.25000000  0.26321472  0.59856407  1
  Au  Au0_2  1  0.25000000  0.76321472  0.09856407  1
  Au  Au0_3  1  0.25000000  0.76321472  0.59856407  1
  Au  Au0_4  1  0.75000000  0.26321472  0.09856407  1
  Au  Au0_5  1  0.75000000  0.26321472  0.59856407  1
  Au  Au0_6  1  0.75000000  0.76321472  0.09856407  1
  Au  Au0_7  1  0.75000000  0.76321472  0.59856407  1
  Au  Au1_0  1  0.25000000  0.23678528  0.40143593  1
  Au  Au1_1  1  0.25000000  0.23678528  0.90143593  1
  Au  Au1_2  1  0.25000000  0.73678528  0.40143593  1
  Au  Au1_3  1  0.25000000  0.73678528  0.90143593  1
  Au  Au1_4  1  0.75000000  0.23678528  0.40143593  1
  Au  Au1_5  1  0.75000000  0.23678528  0.90143593  1
  Au  Au1_6  1  0.75000000  0.73678528  0.40143593  1
  Au  Au1_7  1  0.75000000  0.73678528  0.90143593  1
  Au  Au2_0  1  0.25000000  0.48678528  0.34856407  1
  Au  Au2_1  1  0.25000000  0.48678528  0.84856407  1
  Au  Au2_2  1  0.25000000  0.98678528  0.34856407  1
  Au  Au2_3  1  0.25000000  0.98678528  0.84856407  1
  Au  Au2_4  1  0.75000000  0.48678528  0.34856407  1
  Au  Au2_5  1  0.75000000  0.48678528  0.84856407  1
  Au  Au2_6  1  0.75000000  0.98678528  0.34856407  1
  Au  Au2_7  1  0.75000000  0.98678528  0.84856407  1
  Au  Au3_0  1  0.25000000  0.01321472  0.15143593  1
  Au  Au3_1  1  0.25000000  0.01321472  0.65143593  1
  Au  Au3_2  1  0.25000000  0.51321472  0.15143593  1
  Au  Au3_3  1  0.25000000  0.51321472  0.65143593  1
  Au  Au3_4  1  0.75000000  0.01321472  0.15143593  1
  Au  Au3_5  1  0.75000000  0.01321472  0.65143593  1
  Au  Au3_6  1  0.75000000  0.51321472  0.15143593  1
  Au  Au3_7  1  0.75000000  0.51321472  0.65143593  1
loop_
_geom_bond_atom_site_label_1
_geom_bond_atom_site_label_2
_geom_bond_distance
_geom_bond_site_symmetry_2
Y0_0 Y0_4 3.632051 1_555
Y0_0 Y0_4 3.632051 1_455
Y0_1 Y0_5 3.632051 1_555
Y0_1 Y0_5 3.632051 1_455
Y0_2 Y0_6 3.632051 1_555
Y0_2 Y0_6 3.632051 1_455
Y0_3 Y0_7 3.632051 1_555
Y0_3 Y0_7 3.632051 1_455
Y1_0 Y1_4 3.632051 1_455
Y1_0 Y1_4 3.632051 1_555
Y1_1 Y1_5 3.632051 1_555
Y1_1 Y1_5 3.632051 1_455
Y1_2 Y1_6 3.632051 1_455
Y1_2 Y1_6 3.632051 1_555
Y1_3 Y1_7 3.632051 1_455
Y1_3 Y1_7 3.632051 1_555
Lu4_0 Y1_2 3.397320 1_555
Lu4_1 Y1_3 3.397320 1_555
Lu4_2 Y1_0 3.397320 1_565
Lu4_3 Y1_1 3.397320 1_565
Lu4_4 Y1_6 3.397320 1_555
Lu4_5 Y1_7 3.397320 1_555
Lu4_6 Y1_4 3.397320 1_565
Lu4_7 Y1_5 3.397320 1_565
Lu5_0 Y1_1 3.397320 1_555
Lu5_1 Y1_0 3.397320 1_556
Lu5_2 Y1_3 3.397320 1_555
Lu5_3 Y1_2 3.397320 1_556
Lu5_4 Y1_5 3.397320 1_555
Lu5_5 Y1_4 3.397320 1_556
Lu5_6 Y1_7 3.397320 1_555
Lu5_7 Y1_6 3.397320 1_556
Lu6_0 Y0_0 3.397320 1_555
Lu6_1 Y0_1 3.397320 1_555
Lu6_2 Y0_2 3.397320 1_555
Lu6_3 Y0_3 3.397320 1_555
Lu6_4 Y0_4 3.397320 1_555
Lu6_5 Y0_5 3.397320 1_555
Lu6_6 Y0_6 3.397320 1_555
Lu6_7 Y0_7 3.397320 1_555
Lu7_0 Y0_0 3.397320 1_555
Lu7_1 Y0_1 3.397320 1_555
Lu7_2 Y0_2 3.397320 1_555
Lu7_3 Y0_3 3.397320 1_555
Lu7_4 Y0_4 3.397320 1_555
Lu7_5 Y0_5 3.397320 1_555
Lu7_6 Y0_6 3.397320 1_555
Lu7_7 Y0_7 3.397320 1_555
In0_0 Lu5_4 3.185724 1_555
In0_0 Lu5_0 3.185724 1_555
In0_0 Y1_3 3.200413 1_555
In0_0 Y1_7 3.200413 1_555
In0_0 Lu4_1 3.291216 1_555
In0_0 Lu4_5 3.291216 1_555
In0_0 Lu2_0 3.307937 1_555
In0_0 Lu2_4 3.307937 1_555
In0_0 In7_2 3.347708 1_555
In0_1 Lu5_1 3.185724 1_555
In0_1 Lu5_5 3.185724 1_555
In0_1 Y1_6 3.200413 1_556
In0_1 Y1_2 3.200413 1_556
In0_1 Lu4_0 3.291216 1_556
In0_1 Lu4_4 3.291216 1_556
In0_1 Lu2_5 3.307937 1_555
In0_1 Lu2_1 3.307937 1_555
In0_1 In7_3 3.347708 1_555
In0_2 Lu5_6 3.185724 1_555
In0_2 Lu5_2 3.185724 1_555
In0_2 Y1_1 3.200413 1_565
In0_2 Y1_5 3.200413 1_565
In0_2 Lu4_3 3.291216 1_555
In0_2 Lu4_7 3.291216 1_555
In0_2 Lu2_6 3.307937 1_555
In0_2 Lu2_2 3.307937 1_555
In0_2 In7_0 3.347708 1_565
In0_3 Lu5_3 3.185724 1_555
In0_3 Lu5_7 3.185724 1_555
In0_3 Y1_0 3.200413 1_566
In0_3 Y1_4 3.200413 1_566
In0_3 Lu4_2 3.291216 1_556
In0_3 Lu4_6 3.291216 1_556
In0_3 Lu2_7 3.307937 1_555
In0_3 Lu2_3 3.307937 1_555
In0_3 In7_1 3.347708 1_565
In0_4 Lu5_0 3.185724 1_655
In0_4 Lu5_4 3.185724 1_555
In0_4 Y1_7 3.200413 1_555
In0_4 Y1_3 3.200413 1_655
In0_4 Lu4_1 3.291216 1_655
In0_4 Lu4_5 3.291216 1_555
In0_4 Lu2_0 3.307937 1_655
In0_4 Lu2_4 3.307937 1_555
In0_4 In7_6 3.347708 1_555
In0_5 Lu5_1 3.185724 1_655
In0_5 Lu5_5 3.185724 1_555
In0_5 Y1_6 3.200413 1_556
In0_5 Y1_2 3.200413 1_656
In0_5 Lu4_0 3.291216 1_656
In0_5 Lu4_4 3.291216 1_556
In0_5 Lu2_5 3.307937 1_555
In0_5 Lu2_1 3.307937 1_655
In0_5 In7_7 3.347708 1_555
In0_6 Lu5_2 3.185724 1_655
In0_6 Lu5_6 3.185724 1_555
In0_6 Y1_1 3.200413 1_665
In0_6 Y1_5 3.200413 1_565
In0_6 Lu4_3 3.291216 1_655
In0_6 Lu4_7 3.291216 1_555
In0_6 Lu2_6 3.307937 1_555
In0_6 Lu2_2 3.307937 1_655
In0_6 In7_4 3.347708 1_565
In0_7 Lu5_3 3.185724 1_655
In0_7 Lu5_7 3.185724 1_555
In0_7 Y1_0 3.200413 1_666
In0_7 Y1_4 3.200413 1_566
In0_7 Lu4_2 3.291216 1_656
In0_7 Lu4_6 3.291216 1_556
In0_7 Lu2_3 3.307937 1_655
In0_7 Lu2_7 3.307937 1_555
In0_7 In7_5 3.347708 1_565
In1_0 Lu4_0 3.185724 1_555
In1_0 Lu4_4 3.185724 1_555
In1_0 Y1_0 3.200413 1_555
In1_0 Y1_4 3.200413 1_555
In1_0 Lu5_1 3.291216 1_554
In1_0 Lu5_5 3.291216 1_554
In1_0 Lu3_0 3.307937 1_555
In1_0 Lu3_4 3.307937 1_555
In1_0 In6_2 3.347708 1_545
In1_1 Lu4_1 3.185724 1_555
In1_1 Lu4_5 3.185724 1_555
In1_1 Y1_1 3.200413 1_555
In1_1 Y1_5 3.200413 1_555
In1_1 Lu5_4 3.291216 1_555
In1_1 Lu5_0 3.291216 1_555
In1_1 Lu3_5 3.307937 1_555
In1_1 Lu3_1 3.307937 1_555
In1_1 In6_3 3.347708 1_545
In1_2 Lu4_2 3.185724 1_555
In1_2 Lu4_6 3.185724 1_555
In1_2 Y1_2 3.200413 1_555
In1_2 Y1_6 3.200413 1_555
In1_2 Lu5_3 3.291216 1_554
In1_2 Lu5_7 3.291216 1_554
In1_2 Lu3_2 3.307937 1_555
In1_2 Lu3_6 3.307937 1_555
In1_2 In6_0 3.347708 1_555
In1_3 Lu4_3 3.185724 1_555
In1_3 Lu4_7 3.185724 1_555
In1_3 Y1_3 3.200413 1_555
In1_3 Y1_7 3.200413 1_555
In1_3 Lu5_2 3.291216 1_555
In1_3 Lu5_6 3.291216 1_555
In1_3 Lu3_7 3.307937 1_555
In1_3 Lu3_3 3.307937 1_555
In1_3 In6_1 3.347708 1_555
In1_4 Lu4_0 3.185724 1_655
In1_4 Lu4_4 3.185724 1_555
In1_4 Y1_4 3.200413 1_555
In1_4 Y1_0 3.200413 1_655
In1_4 Lu5_1 3.291216 1_654
In1_4 Lu5_5 3.291216 1_554
In1_4 Lu3_4 3.307937 1_555
In1_4 Lu3_0 3.307937 1_655
In1_4 In6_6 3.347708 1_545
In1_5 Lu4_1 3.185724 1_655
In1_5 Lu4_5 3.185724 1_555
In1_5 Y1_5 3.200413 1_555
In1_5 Y1_1 3.200413 1_655
In1_5 Lu5_0 3.291216 1_655
In1_5 Lu5_4 3.291216 1_555
In1_5 Lu3_5 3.307937 1_555
In1_5 Lu3_1 3.307937 1_655
In1_5 In6_7 3.347708 1_545
In1_6 Lu4_6 3.185724 1_555
In1_6 Lu4_2 3.185724 1_655
In1_6 Y1_2 3.200413 1_655
In1_6 Y1_6 3.200413 1_555
In1_6 Lu5_3 3.291216 1_654
In1_6 Lu5_7 3.291216 1_554
In1_6 Lu3_6 3.307937 1_555
In1_6 Lu3_2 3.307937 1_655
In1_6 In6_4 3.347708 1_555
In1_7 Lu4_7 3.185724 1_555
In1_7 Lu4_3 3.185724 1_655
In1_7 Y1_3 3.200413 1_655
In1_7 Y1_7 3.200413 1_555
In1_7 Lu5_2 3.291216 1_655
In1_7 Lu5_6 3.291216 1_555
In1_7 Lu3_3 3.307937 1_655
In1_7 Lu3_7 3.307937 1_555
In1_7 In6_5 3.347708 1_555
In2_0 Lu7_2 3.185724 1_555
In2_0 Lu7_6 3.185724 1_555
In2_0 Y0_0 3.200413 1_555
In2_0 Y0_4 3.200413 1_555
In2_0 Lu6_0 3.291216 1_555
In2_0 Lu6_4 3.291216 1_555
In2_0 Lu0_0 3.307937 1_555
In2_0 Lu0_4 3.307937 1_555
In2_0 In5_0 3.347708 1_555
In2_1 Lu7_3 3.185724 1_555
In2_1 Lu7_7 3.185724 1_555
In2_1 Y0_5 3.200413 1_555
In2_1 Y0_1 3.200413 1_555
In2_1 Lu6_1 3.291216 1_555
In2_1 Lu6_5 3.291216 1_555
In2_1 Lu0_5 3.307937 1_555
In2_1 Lu0_1 3.307937 1_555
In2_1 In5_1 3.347708 1_555
In2_2 Lu7_0 3.185724 1_565
In2_2 Lu7_4 3.185724 1_565
In2_2 Y0_2 3.200413 1_555
In2_2 Y0_6 3.200413 1_555
In2_2 Lu6_2 3.291216 1_555
In2_2 Lu6_6 3.291216 1_555
In2_2 Lu0_6 3.307937 1_555
In2_2 Lu0_2 3.307937 1_555
In2_2 In5_2 3.347708 1_555
In2_3 Lu7_1 3.185724 1_565
In2_3 Lu7_5 3.185724 1_565
In2_3 Y0_3 3.200413 1_555
In2_3 Y0_7 3.200413 1_555
In2_3 Lu6_3 3.291216 1_555
In2_3 Lu6_7 3.291216 1_555
In2_3 Lu0_7 3.307937 1_555
In2_3 Lu0_3 3.307937 1_555
In2_3 In5_3 3.347708 1_555
In2_4 Lu7_2 3.185724 1_655
In2_4 Lu7_6 3.185724 1_555
In2_4 Y0_0 3.200413 1_655
In2_4 Y0_4 3.200413 1_555
In2_4 Lu6_4 3.291216 1_555
In2_4 Lu6_0 3.291216 1_655
In2_4 Lu0_0 3.307937 1_655
In2_4 Lu0_4 3.307937 1_555
In2_4 In5_4 3.347708 1_555
In2_5 Lu7_7 3.185724 1_555
In2_5 Lu7_3 3.185724 1_655
In2_5 Y0_5 3.200413 1_555
In2_5 Y0_1 3.200413 1_655
In2_5 Lu6_1 3.291216 1_655
In2_5 Lu6_5 3.291216 1_555
In2_5 Lu0_5 3.307937 1_555
In2_5 Lu0_1 3.307937 1_655
In2_5 In5_5 3.347708 1_555
In2_6 Lu7_4 3.185724 1_565
In2_6 Lu7_0 3.185724 1_665
In2_6 Y0_2 3.200413 1_655
In2_6 Y0_6 3.200413 1_555
In2_6 Lu6_6 3.291216 1_555
In2_6 Lu6_2 3.291216 1_655
In2_6 Lu0_2 3.307937 1_655
In2_6 Lu0_6 3.307937 1_555
In2_6 In5_6 3.347708 1_555
In2_7 Lu7_5 3.185724 1_565
In2_7 Lu7_1 3.185724 1_665
In2_7 Y0_3 3.200413 1_655
In2_7 Y0_7 3.200413 1_555
In2_7 Lu6_3 3.291216 1_655
In2_7 Lu6_7 3.291216 1_555
In2_7 Lu0_3 3.307937 1_655
In2_7 Lu0_7 3.307937 1_555
In2_7 In5_7 3.347708 1_555
In3_0 Lu6_2 3.185724 1_545
In3_0 Lu6_6 3.185724 1_545
In3_0 Y0_0 3.200413 1_555
In3_0 Y0_4 3.200413 1_555
In3_0 Lu7_0 3.291216 1_555
In3_0 Lu7_4 3.291216 1_555
In3_0 Lu1_0 3.307937 1_555
In3_0 Lu1_4 3.307937 1_555
In3_0 In4_0 3.347708 1_555
In3_1 Lu6_3 3.185724 1_545
In3_1 Lu6_7 3.185724 1_545
In3_1 Y0_5 3.200413 1_555
In3_1 Y0_1 3.200413 1_555
In3_1 Lu7_5 3.291216 1_555
In3_1 Lu7_1 3.291216 1_555
In3_1 Lu1_1 3.307937 1_555
In3_1 Lu1_5 3.307937 1_555
In3_1 In4_1 3.347708 1_555
In3_2 Lu6_4 3.185724 1_555
In3_2 Lu6_0 3.185724 1_555
In3_2 Y0_2 3.200413 1_555
In3_2 Y0_6 3.200413 1_555
In3_2 Lu7_6 3.291216 1_555
In3_2 Lu7_2 3.291216 1_555
In3_2 Lu1_2 3.307937 1_555
In3_2 Lu1_6 3.307937 1_555
In3_2 In4_2 3.347708 1_555
In3_3 Lu6_5 3.185724 1_555
In3_3 Lu6_1 3.185724 1_555
In3_3 Y0_3 3.200413 1_555
In3_3 Y0_7 3.200413 1_555
In3_3 Lu7_7 3.291216 1_555
In3_3 Lu7_3 3.291216 1_555
In3_3 Lu1_3 3.307937 1_555
In3_3 Lu1_7 3.307937 1_555
In3_3 In4_3 3.347708 1_555
In3_4 Lu6_6 3.185724 1_545
In3_4 Lu6_2 3.185724 1_645
In3_4 Y0_4 3.200413 1_555
In3_4 Y0_0 3.200413 1_655
In3_4 Lu7_4 3.291216 1_555
In3_4 Lu7_0 3.291216 1_655
In3_4 Lu1_0 3.307937 1_655
In3_4 Lu1_4 3.307937 1_555
In3_4 In4_4 3.347708 1_555
In3_5 Lu6_3 3.185724 1_645
In3_5 Lu6_7 3.185724 1_545
In3_5 Y0_1 3.200413 1_655
In3_5 Y0_5 3.200413 1_555
In3_5 Lu7_5 3.291216 1_555
In3_5 Lu7_1 3.291216 1_655
In3_5 Lu1_1 3.307937 1_655
In3_5 Lu1_5 3.307937 1_555
In3_5 In4_5 3.347708 1_555
In3_6 Lu6_0 3.185724 1_655
In3_6 Lu6_4 3.185724 1_555
In3_6 Y0_2 3.200413 1_655
In3_6 Y0_6 3.200413 1_555
In3_6 Lu7_2 3.291216 1_655
In3_6 Lu7_6 3.291216 1_555
In3_6 Lu1_2 3.307937 1_655
In3_6 Lu1_6 3.307937 1_555
In3_6 In4_6 3.347708 1_555
In3_7 Lu6_5 3.185724 1_555
In3_7 Lu6_1 3.185724 1_655
In3_7 Y0_3 3.200413 1_655
In3_7 Y0_7 3.200413 1_555
In3_7 Lu7_7 3.291216 1_555
In3_7 Lu7_3 3.291216 1_655
In3_7 Lu1_3 3.307937 1_655
In3_7 Lu1_7 3.307937 1_555
In3_7 In4_7 3.347708 1_555
In4_0 Lu6_0 3.240176 1_555
In4_0 Lu6_4 3.240176 1_555
In4_0 Y0_4 3.278809 1_555
In4_0 Y0_0 3.278809 1_555
In4_0 Lu2_0 3.346695 1_555
In4_0 Lu2_4 3.346695 1_555
In4_0 Lu1_0 3.382946 1_555
In4_0 Lu1_4 3.382946 1_555
In4_1 Lu6_1 3.240176 1_555
In4_1 Lu6_5 3.240176 1_555
In4_1 Y0_1 3.278809 1_555
In4_1 Y0_5 3.278809 1_555
In4_1 Lu2_1 3.346695 1_555
In4_1 Lu2_5 3.346695 1_555
In4_1 Lu1_1 3.382946 1_555
In4_1 Lu1_5 3.382946 1_555
In4_2 Lu6_2 3.240176 1_555
In4_2 Lu6_6 3.240176 1_555
In4_2 Y0_2 3.278809 1_555
In4_2 Y0_6 3.278809 1_555
In4_2 Lu2_2 3.346695 1_555
In4_2 Lu2_6 3.346695 1_555
In4_2 Lu1_2 3.382946 1_555
In4_2 Lu1_6 3.382946 1_555
In4_3 Lu6_3 3.240176 1_555
In4_3 Lu6_7 3.240176 1_555
In4_3 Y0_7 3.278809 1_555
In4_3 Y0_3 3.278809 1_555
In4_3 Lu2_7 3.346695 1_555
In4_3 Lu2_3 3.346695 1_555
In4_3 Lu1_7 3.382946 1_555
In4_3 Lu1_3 3.382946 1_555
In4_4 Lu6_0 3.240176 1_655
In4_4 Lu6_4 3.240176 1_555
In4_4 Y0_4 3.278809 1_555
In4_4 Y0_0 3.278809 1_655
In4_4 Lu2_0 3.346695 1_655
In4_4 Lu2_4 3.346695 1_555
In4_4 Lu1_0 3.382946 1_655
In4_4 Lu1_4 3.382946 1_555
In4_5 Lu6_1 3.240176 1_655
In4_5 Lu6_5 3.240176 1_555
In4_5 Y0_1 3.278809 1_655
In4_5 Y0_5 3.278809 1_555
In4_5 Lu2_5 3.346695 1_555
In4_5 Lu2_1 3.346695 1_655
In4_5 Lu1_1 3.382946 1_655
In4_5 Lu1_5 3.382946 1_555
In4_6 Lu6_2 3.240176 1_655
In4_6 Lu6_6 3.240176 1_555
In4_6 Y0_2 3.278809 1_655
In4_6 Y0_6 3.278809 1_555
In4_6 Lu2_2 3.346695 1_655
In4_6 Lu2_6 3.346695 1_555
In4_6 Lu1_2 3.382946 1_655
In4_6 Lu1_6 3.382946 1_555
In4_7 Lu6_3 3.240176 1_655
In4_7 Lu6_7 3.240176 1_555
In4_7 Y0_7 3.278809 1_555
In4_7 Y0_3 3.278809 1_655
In4_7 Lu2_7 3.346695 1_555
In4_7 Lu2_3 3.346695 1_655
In4_7 Lu1_3 3.382946 1_655
In4_7 Lu1_7 3.382946 1_555
In5_0 Lu7_4 3.240176 1_555
In5_0 Lu7_0 3.240176 1_555
In5_0 Y0_4 3.278809 1_555
In5_0 Y0_0 3.278809 1_555
In5_0 Lu3_0 3.346695 1_555
In5_0 Lu3_4 3.346695 1_555
In5_0 Lu0_0 3.382946 1_555
In5_0 Lu0_4 3.382946 1_555
In5_1 Lu7_1 3.240176 1_555
In5_1 Lu7_5 3.240176 1_555
In5_1 Y0_5 3.278809 1_555
In5_1 Y0_1 3.278809 1_555
In5_1 Lu3_5 3.346695 1_555
In5_1 Lu3_1 3.346695 1_555
In5_1 Lu0_5 3.382946 1_555
In5_1 Lu0_1 3.382946 1_555
In5_2 Lu7_2 3.240176 1_555
In5_2 Lu7_6 3.240176 1_555
In5_2 Y0_2 3.278809 1_555
In5_2 Y0_6 3.278809 1_555
In5_2 Lu3_6 3.346695 1_555
In5_2 Lu3_2 3.346695 1_555
In5_2 Lu0_2 3.382946 1_555
In5_2 Lu0_6 3.382946 1_555
In5_3 Lu7_3 3.240176 1_555
In5_3 Lu7_7 3.240176 1_555
In5_3 Y0_3 3.278809 1_555
In5_3 Y0_7 3.278809 1_555
In5_3 Lu3_3 3.346695 1_555
In5_3 Lu3_7 3.346695 1_555
In5_3 Lu0_3 3.382946 1_555
In5_3 Lu0_7 3.382946 1_555
In5_4 Lu7_4 3.240176 1_555
In5_4 Lu7_0 3.240176 1_655
In5_4 Y0_4 3.278809 1_555
In5_4 Y0_0 3.278809 1_655
In5_4 Lu3_4 3.346695 1_555
In5_4 Lu3_0 3.346695 1_655
In5_4 Lu0_0 3.382946 1_655
In5_4 Lu0_4 3.382946 1_555
In5_5 Lu7_1 3.240176 1_655
In5_5 Lu7_5 3.240176 1_555
In5_5 Y0_5 3.278809 1_555
In5_5 Y0_1 3.278809 1_655
In5_5 Lu3_1 3.346695 1_655
In5_5 Lu3_5 3.346695 1_555
In5_5 Lu0_5 3.382946 1_555
In5_5 Lu0_1 3.382946 1_655
In5_6 Lu7_2 3.240176 1_655
In5_6 Lu7_6 3.240176 1_555
In5_6 Y0_2 3.278809 1_655
In5_6 Y0_6 3.278809 1_555
In5_6 Lu3_6 3.346695 1_555
In5_6 Lu3_2 3.346695 1_655
In5_6 Lu0_2 3.382946 1_655
In5_6 Lu0_6 3.382946 1_555
In5_7 Lu7_3 3.240176 1_655
In5_7 Lu7_7 3.240176 1_555
In5_7 Y0_3 3.278809 1_655
In5_7 Y0_7 3.278809 1_555
In5_7 Lu3_3 3.346695 1_655
In5_7 Lu3_7 3.346695 1_555
In5_7 Lu0_3 3.382946 1_655
In5_7 Lu0_7 3.382946 1_555
In6_0 Lu4_4 3.240176 1_555
In6_0 Lu4_0 3.240176 1_555
In6_0 Y1_2 3.278809 1_555
In6_0 Y1_6 3.278809 1_555
In6_0 Lu0_0 3.346695 1_555
In6_0 Lu0_4 3.346695 1_555
In6_0 Lu3_2 3.382946 1_555
In6_0 Lu3_6 3.382946 1_555
In6_1 Lu4_1 3.240176 1_555
In6_1 Lu4_5 3.240176 1_555
In6_1 Y1_3 3.278809 1_555
In6_1 Y1_7 3.278809 1_555
In6_1 Lu0_1 3.346695 1_555
In6_1 Lu0_5 3.346695 1_555
In6_1 Lu3_3 3.382946 1_555
In6_1 Lu3_7 3.382946 1_555
In6_2 Lu4_2 3.240176 1_555
In6_2 Lu4_6 3.240176 1_555
In6_2 Y1_4 3.278809 1_565
In6_2 Y1_0 3.278809 1_565
In6_2 Lu0_6 3.346695 1_555
In6_2 Lu0_2 3.346695 1_555
In6_2 Lu3_0 3.382946 1_565
In6_2 Lu3_4 3.382946 1_565
In6_3 Lu4_3 3.240176 1_555
In6_3 Lu4_7 3.240176 1_555
In6_3 Y1_1 3.278809 1_565
In6_3 Y1_5 3.278809 1_565
In6_3 Lu0_3 3.346695 1_555
In6_3 Lu0_7 3.346695 1_555
In6_3 Lu3_5 3.382946 1_565
In6_3 Lu3_1 3.382946 1_565
In6_4 Lu4_0 3.240176 1_655
In6_4 Lu4_4 3.240176 1_555
In6_4 Y1_6 3.278809 1_555
In6_4 Y1_2 3.278809 1_655
In6_4 Lu0_0 3.346695 1_655
In6_4 Lu0_4 3.346695 1_555
In6_4 Lu3_6 3.382946 1_555
In6_4 Lu3_2 3.382946 1_655
In6_5 Lu4_1 3.240176 1_655
In6_5 Lu4_5 3.240176 1_555
In6_5 Y1_3 3.278809 1_655
In6_5 Y1_7 3.278809 1_555
In6_5 Lu0_1 3.346695 1_655
In6_5 Lu0_5 3.346695 1_555
In6_5 Lu3_3 3.382946 1_655
In6_5 Lu3_7 3.382946 1_555
In6_6 Lu4_6 3.240176 1_555
In6_6 Lu4_2 3.240176 1_655
In6_6 Y1_0 3.278809 1_665
In6_6 Y1_4 3.278809 1_565
In6_6 Lu0_2 3.346695 1_655
In6_6 Lu0_6 3.346695 1_555
In6_6 Lu3_4 3.382946 1_565
In6_6 Lu3_0 3.382946 1_665
In6_7 Lu4_7 3.240176 1_555
In6_7 Lu4_3 3.240176 1_655
In6_7 Y1_5 3.278809 1_565
In6_7 Y1_1 3.278809 1_665
In6_7 Lu0_3 3.346695 1_655
In6_7 Lu0_7 3.346695 1_555
In6_7 Lu3_5 3.382946 1_565
In6_7 Lu3_1 3.382946 1_665
In7_0 Lu5_0 3.240176 1_555
In7_0 Lu5_4 3.240176 1_555
In7_0 Y1_1 3.278809 1_555
In7_0 Y1_5 3.278809 1_555
In7_0 Lu1_4 3.346695 1_555
In7_0 Lu1_0 3.346695 1_555
In7_0 Lu2_2 3.382946 1_545
In7_0 Lu2_6 3.382946 1_545
In7_1 Lu5_1 3.240176 1_555
In7_1 Lu5_5 3.240176 1_555
In7_1 Y1_0 3.278809 1_556
In7_1 Y1_4 3.278809 1_556
In7_1 Lu1_1 3.346695 1_555
In7_1 Lu1_5 3.346695 1_555
In7_1 Lu2_3 3.382946 1_545
In7_1 Lu2_7 3.382946 1_545
In7_2 Lu5_2 3.240176 1_555
In7_2 Lu5_6 3.240176 1_555
In7_2 Y1_3 3.278809 1_555
In7_2 Y1_7 3.278809 1_555
In7_2 Lu1_2 3.346695 1_555
In7_2 Lu1_6 3.346695 1_555
In7_2 Lu2_4 3.382946 1_555
In7_2 Lu2_0 3.382946 1_555
In7_3 Lu5_3 3.240176 1_555
In7_3 Lu5_7 3.240176 1_555
In7_3 Y1_2 3.278809 1_556
In7_3 Y1_6 3.278809 1_556
In7_3 Lu1_3 3.346695 1_555
In7_3 Lu1_7 3.346695 1_555
In7_3 Lu2_1 3.382946 1_555
In7_3 Lu2_5 3.382946 1_555
In7_4 Lu5_0 3.240176 1_655
In7_4 Lu5_4 3.240176 1_555
In7_4 Y1_1 3.278809 1_655
In7_4 Y1_5 3.278809 1_555
In7_4 Lu1_0 3.346695 1_655
In7_4 Lu1_4 3.346695 1_555
In7_4 Lu2_2 3.382946 1_645
In7_4 Lu2_6 3.382946 1_545
In7_5 Lu5_1 3.240176 1_655
In7_5 Lu5_5 3.240176 1_555
In7_5 Y1_0 3.278809 1_656
In7_5 Y1_4 3.278809 1_556
In7_5 Lu1_1 3.346695 1_655
In7_5 Lu1_5 3.346695 1_555
In7_5 Lu2_7 3.382946 1_545
In7_5 Lu2_3 3.382946 1_645
In7_6 Lu5_2 3.240176 1_655
In7_6 Lu5_6 3.240176 1_555
In7_6 Y1_7 3.278809 1_555
In7_6 Y1_3 3.278809 1_655
In7_6 Lu1_2 3.346695 1_655
In7_6 Lu1_6 3.346695 1_555
In7_6 Lu2_4 3.382946 1_555
In7_6 Lu2_0 3.382946 1_655
In7_7 Lu5_3 3.240176 1_655
In7_7 Lu5_7 3.240176 1_555
In7_7 Y1_2 3.278809 1_656
In7_7 Y1_6 3.278809 1_556
In7_7 Lu1_3 3.346695 1_655
In7_7 Lu1_7 3.346695 1_555
In7_7 Lu2_5 3.382946 1_555
In7_7 Lu2_1 3.382946 1_655
Au0_0 Lu4_4 2.845805 1_555
Au0_0 Lu4_0 2.845805 1_555
Au0_0 In5_0 2.912944 1_555
Au0_0 Lu0_4 2.917444 1_555
Au0_0 Lu0_0 2.917444 1_555
Au0_0 Lu3_0 2.961724 1_555
Au0_0 Lu3_4 2.961724 1_555
Au0_0 In1_0 3.005254 1_555
Au0_0 In6_0 3.268934 1_555
Au0_1 Lu4_1 2.845805 1_555
Au0_1 Lu4_5 2.845805 1_555
Au0_1 In5_1 2.912944 1_555
Au0_1 Lu0_1 2.917444 1_555
Au0_1 Lu0_5 2.917444 1_555
Au0_1 Lu3_5 2.961724 1_555
Au0_1 Lu3_1 2.961724 1_555
Au0_1 In1_1 3.005254 1_555
Au0_1 In6_1 3.268934 1_555
Au0_2 Lu4_6 2.845805 1_555
Au0_2 Lu4_2 2.845805 1_555
Au0_2 In5_2 2.912944 1_555
Au0_2 Lu0_2 2.917444 1_555
Au0_2 Lu0_6 2.917444 1_555
Au0_2 Lu3_6 2.961724 1_555
Au0_2 Lu3_2 2.961724 1_555
Au0_2 In1_2 3.005254 1_555
Au0_2 In6_2 3.268934 1_555
Au0_3 Lu4_7 2.845805 1_555
Au0_3 Lu4_3 2.845805 1_555
Au0_3 In5_3 2.912944 1_555
Au0_3 Lu0_7 2.917444 1_555
Au0_3 Lu0_3 2.917444 1_555
Au0_3 Lu3_3 2.961724 1_555
Au0_3 Lu3_7 2.961724 1_555
Au0_3 In1_3 3.005254 1_555
Au0_3 In6_3 3.268934 1_555
Au0_4 Lu4_0 2.845805 1_655
Au0_4 Lu4_4 2.845805 1_555
Au0_4 In5_4 2.912944 1_555
Au0_4 Lu0_0 2.917444 1_655
Au0_4 Lu0_4 2.917444 1_555
Au0_4 Lu3_0 2.961724 1_655
Au0_4 Lu3_4 2.961724 1_555
Au0_4 In1_4 3.005254 1_555
Au0_4 In6_4 3.268934 1_555
Au0_5 Lu4_1 2.845805 1_655
Au0_5 Lu4_5 2.845805 1_555
Au0_5 In5_5 2.912944 1_555
Au0_5 Lu0_1 2.917444 1_655
Au0_5 Lu0_5 2.917444 1_555
Au0_5 Lu3_1 2.961724 1_655
Au0_5 Lu3_5 2.961724 1_555
Au0_5 In1_5 3.005254 1_555
Au0_5 In6_5 3.268934 1_555
Au0_6 Lu4_6 2.845805 1_555
Au0_6 Lu4_2 2.845805 1_655
Au0_6 In5_6 2.912944 1_555
Au0_6 Lu0_6 2.917444 1_555
Au0_6 Lu0_2 2.917444 1_655
Au0_6 Lu3_6 2.961724 1_555
Au0_6 Lu3_2 2.961724 1_655
Au0_6 In1_6 3.005254 1_555
Au0_6 In6_6 3.268934 1_555
Au0_7 Lu4_7 2.845805 1_555
Au0_7 Lu4_3 2.845805 1_655
Au0_7 In5_7 2.912944 1_555
Au0_7 Lu0_7 2.917444 1_555
Au0_7 Lu0_3 2.917444 1_655
Au0_7 Lu3_3 2.961724 1_655
Au0_7 Lu3_7 2.961724 1_555
Au0_7 In1_7 3.005254 1_555
Au0_7 In6_7 3.268934 1_555
Au1_0 Lu5_0 2.845805 1_555
Au1_0 Lu5_4 2.845805 1_555
Au1_0 In4_0 2.912944 1_555
Au1_0 Lu1_4 2.917444 1_555
Au1_0 Lu1_0 2.917444 1_555
Au1_0 Lu2_4 2.961724 1_555
Au1_0 Lu2_0 2.961724 1_555
Au1_0 In0_0 3.005254 1_555
Au1_0 In7_0 3.268934 1_555
Au1_1 Lu5_5 2.845805 1_555
Au1_1 Lu5_1 2.845805 1_555
Au1_1 In4_1 2.912944 1_555
Au1_1 Lu1_1 2.917444 1_555
Au1_1 Lu1_5 2.917444 1_555
Au1_1 Lu2_1 2.961724 1_555
Au1_1 Lu2_5 2.961724 1_555
Au1_1 In0_1 3.005254 1_555
Au1_1 In7_1 3.268934 1_555
Au1_2 Lu5_6 2.845805 1_555
Au1_2 Lu5_2 2.845805 1_555
Au1_2 In4_2 2.912944 1_555
Au1_2 Lu1_2 2.917444 1_555
Au1_2 Lu1_6 2.917444 1_555
Au1_2 Lu2_6 2.961724 1_555
Au1_2 Lu2_2 2.961724 1_555
Au1_2 In0_2 3.005254 1_555
Au1_2 In7_2 3.268934 1_555
Au1_3 Lu5_3 2.845805 1_555
Au1_3 Lu5_7 2.845805 1_555
Au1_3 In4_3 2.912944 1_555
Au1_3 Lu1_3 2.917444 1_555
Au1_3 Lu1_7 2.917444 1_555
Au1_3 Lu2_3 2.961724 1_555
Au1_3 Lu2_7 2.961724 1_555
Au1_3 In0_3 3.005254 1_555
Au1_3 In7_3 3.268934 1_555
Au1_4 Lu5_0 2.845805 1_655
Au1_4 Lu5_4 2.845805 1_555
Au1_4 In4_4 2.912944 1_555
Au1_4 Lu1_0 2.917444 1_655
Au1_4 Lu1_4 2.917444 1_555
Au1_4 Lu2_4 2.961724 1_555
Au1_4 Lu2_0 2.961724 1_655
Au1_4 In0_4 3.005254 1_555
Au1_4 In7_4 3.268934 1_555
Au1_5 Lu5_1 2.845805 1_655
Au1_5 Lu5_5 2.845805 1_555
Au1_5 In4_5 2.912944 1_555
Au1_5 Lu1_1 2.917444 1_655
Au1_5 Lu1_5 2.917444 1_555
Au1_5 Lu2_1 2.961724 1_655
Au1_5 Lu2_5 2.961724 1_555
Au1_5 In0_5 3.005254 1_555
Au1_5 In7_5 3.268934 1_555
Au1_6 Lu5_6 2.845805 1_555
Au1_6 Lu5_2 2.845805 1_655
Au1_6 In4_6 2.912944 1_555
Au1_6 Lu1_2 2.917444 1_655
Au1_6 Lu1_6 2.917444 1_555
Au1_6 Lu2_6 2.961724 1_555
Au1_6 Lu2_2 2.961724 1_655
Au1_6 In0_6 3.005254 1_555
Au1_6 In7_6 3.268934 1_555
Au1_7 Lu5_7 2.845805 1_555
Au1_7 Lu5_3 2.845805 1_655
Au1_7 In4_7 2.912944 1_555
Au1_7 Lu1_3 2.917444 1_655
Au1_7 Lu1_7 2.917444 1_555
Au1_7 Lu2_7 2.961724 1_555
Au1_7 Lu2_3 2.961724 1_655
Au1_7 In0_7 3.005254 1_555
Au1_7 In7_7 3.268934 1_555
Au2_0 Lu6_0 2.845805 1_555
Au2_0 Lu6_4 2.845805 1_555
Au2_0 In7_2 2.912944 1_555
Au2_0 Lu2_0 2.917444 1_555
Au2_0 Lu2_4 2.917444 1_555
Au2_0 Lu1_6 2.961724 1_555
Au2_0 Lu1_2 2.961724 1_555
Au2_0 In3_2 3.005254 1_555
Au2_0 In4_0 3.268934 1_555
Au2_1 Lu6_1 2.845805 1_555
Au2_1 Lu6_5 2.845805 1_555
Au2_1 In7_3 2.912944 1_555
Au2_1 Lu2_1 2.917444 1_555
Au2_1 Lu2_5 2.917444 1_555
Au2_1 Lu1_3 2.961724 1_555
Au2_1 Lu1_7 2.961724 1_555
Au2_1 In3_3 3.005254 1_555
Au2_1 In4_1 3.268934 1_555
Au2_2 Lu6_2 2.845805 1_555
Au2_2 Lu6_6 2.845805 1_555
Au2_2 In7_0 2.912944 1_565
Au2_2 Lu2_6 2.917444 1_555
Au2_2 Lu2_2 2.917444 1_555
Au2_2 Lu1_0 2.961724 1_565
Au2_2 Lu1_4 2.961724 1_565
Au2_2 In3_0 3.005254 1_565
Au2_2 In4_2 3.268934 1_555
Au2_3 Lu6_3 2.845805 1_555
Au2_3 Lu6_7 2.845805 1_555
Au2_3 In7_1 2.912944 1_565
Au2_3 Lu2_7 2.917444 1_555
Au2_3 Lu2_3 2.917444 1_555
Au2_3 Lu1_1 2.961724 1_565
Au2_3 Lu1_5 2.961724 1_565
Au2_3 In3_1 3.005254 1_565
Au2_3 In4_3 3.268934 1_555
Au2_4 Lu6_4 2.845805 1_555
Au2_4 Lu6_0 2.845805 1_655
Au2_4 In7_6 2.912944 1_555
Au2_4 Lu2_0 2.917444 1_655
Au2_4 Lu2_4 2.917444 1_555
Au2_4 Lu1_2 2.961724 1_655
Au2_4 Lu1_6 2.961724 1_555
Au2_4 In3_6 3.005254 1_555
Au2_4 In4_4 3.268934 1_555
Au2_5 Lu6_1 2.845805 1_655
Au2_5 Lu6_5 2.845805 1_555
Au2_5 In7_7 2.912944 1_555
Au2_5 Lu2_1 2.917444 1_655
Au2_5 Lu2_5 2.917444 1_555
Au2_5 Lu1_3 2.961724 1_655
Au2_5 Lu1_7 2.961724 1_555
Au2_5 In3_7 3.005254 1_555
Au2_5 In4_5 3.268934 1_555
Au2_6 Lu6_2 2.845805 1_655
Au2_6 Lu6_6 2.845805 1_555
Au2_6 In7_4 2.912944 1_565
Au2_6 Lu2_6 2.917444 1_555
Au2_6 Lu2_2 2.917444 1_655
Au2_6 Lu1_4 2.961724 1_565
Au2_6 Lu1_0 2.961724 1_665
Au2_6 In3_4 3.005254 1_565
Au2_6 In4_6 3.268934 1_555
Au2_7 Lu6_3 2.845805 1_655
Au2_7 Lu6_7 2.845805 1_555
Au2_7 In7_5 2.912944 1_565
Au2_7 Lu2_7 2.917444 1_555
Au2_7 Lu2_3 2.917444 1_655
Au2_7 Lu1_5 2.961724 1_565
Au2_7 Lu1_1 2.961724 1_665
Au2_7 In3_5 3.005254 1_565
Au2_7 In4_7 3.268934 1_555
Au3_0 Lu7_0 2.845805 1_555
Au3_0 Lu7_4 2.845805 1_555
Au3_0 In6_2 2.912944 1_545
Au3_0 Lu3_0 2.917444 1_555
Au3_0 Lu3_4 2.917444 1_555
Au3_0 Lu0_6 2.961724 1_545
Au3_0 Lu0_2 2.961724 1_545
Au3_0 In2_2 3.005254 1_545
Au3_0 In5_0 3.268934 1_555
Au3_1 Lu7_5 2.845805 1_555
Au3_1 Lu7_1 2.845805 1_555
Au3_1 In6_3 2.912944 1_545
Au3_1 Lu3_1 2.917444 1_555
Au3_1 Lu3_5 2.917444 1_555
Au3_1 Lu0_3 2.961724 1_545
Au3_1 Lu0_7 2.961724 1_545
Au3_1 In2_3 3.005254 1_545
Au3_1 In5_1 3.268934 1_555
Au3_2 Lu7_6 2.845805 1_555
Au3_2 Lu7_2 2.845805 1_555
Au3_2 In6_0 2.912944 1_555
Au3_2 Lu3_2 2.917444 1_555
Au3_2 Lu3_6 2.917444 1_555
Au3_2 Lu0_0 2.961724 1_555
Au3_2 Lu0_4 2.961724 1_555
Au3_2 In2_0 3.005254 1_555
Au3_2 In5_2 3.268934 1_555
Au3_3 Lu7_3 2.845805 1_555
Au3_3 Lu7_7 2.845805 1_555
Au3_3 In6_1 2.912944 1_555
Au3_3 Lu3_3 2.917444 1_555
Au3_3 Lu3_7 2.917444 1_555
Au3_3 Lu0_5 2.961724 1_555
Au3_3 Lu0_1 2.961724 1_555
Au3_3 In2_1 3.005254 1_555
Au3_3 In5_3 3.268934 1_555
Au3_4 Lu7_0 2.845805 1_655
Au3_4 Lu7_4 2.845805 1_555
Au3_4 In6_6 2.912944 1_545
Au3_4 Lu3_4 2.917444 1_555
Au3_4 Lu3_0 2.917444 1_655
Au3_4 Lu0_6 2.961724 1_545
Au3_4 Lu0_2 2.961724 1_645
Au3_4 In2_6 3.005254 1_545
Au3_4 In5_4 3.268934 1_555
Au3_5 Lu7_5 2.845805 1_555
Au3_5 Lu7_1 2.845805 1_655
Au3_5 In6_7 2.912944 1_545
Au3_5 Lu3_1 2.917444 1_655
Au3_5 Lu3_5 2.917444 1_555
Au3_5 Lu0_3 2.961724 1_645
Au3_5 Lu0_7 2.961724 1_545
Au3_5 In2_7 3.005254 1_545
Au3_5 In5_5 3.268934 1_555
Au3_6 Lu7_2 2.845805 1_655
Au3_6 Lu7_6 2.845805 1_555
Au3_6 In6_4 2.912944 1_555
Au3_6 Lu3_2 2.917444 1_655
Au3_6 Lu3_6 2.917444 1_555
Au3_6 Lu0_0 2.961724 1_655
Au3_6 Lu0_4 2.961724 1_555
Au3_6 In2_4 3.005254 1_555
Au3_6 In5_6 3.268934 1_555
Au3_7 Lu7_3 2.845805 1_655
Au3_7 Lu7_7 2.845805 1_555
Au3_7 In6_5 2.912944 1_555
Au3_7 Lu3_3 2.917444 1_655
Au3_7 Lu3_7 2.917444 1_555
Au3_7 Lu0_1 2.961724 1_655
Au3_7 Lu0_5 2.961724 1_555
Au3_7 In2_5 3.005254 1_555
Au3_7 In5_7 3.268934 1_555
