# generated using pymatgen
data_SrY6IrI12
_symmetry_space_group_name_H-M   'P 1'
_cell_length_a   9.77148792
_cell_length_b   9.77148746
_cell_length_c   9.77148748
_cell_angle_alpha   106.50186395
_cell_angle_beta   106.50185936
_cell_angle_gamma   106.50186241
_symmetry_Int_Tables_number   1
_chemical_formula_structural   SrY6IrI12
_chemical_formula_sum   'Sr1 Y6 Ir1 I12'
_cell_volume   787.33204829
_cell_formula_units_Z   1
loop_
 _symmetry_equiv_pos_site_id
 _symmetry_equiv_pos_as_xyz
  1  'x, y, z'
loop_
 _atom_site_type_symbol
 _atom_site_label
 _atom_site_symmetry_multiplicity
 _atom_site_fract_x
 _atom_site_fract_y
 _atom_site_fract_z
 _atom_site_occupancy
  Sr  Sr0  1  0.50000000  0.50000000  0.50000000  1
  Y  Y0  1  0.70302152  0.98124174  0.90784764  1
  Y  Y1  1  0.98124174  0.90784764  0.70302152  1
  Y  Y2  1  0.09215236  0.29697848  0.01875826  1
  Y  Y3  1  0.29697848  0.01875826  0.09215236  1
  Y  Y4  1  0.90784764  0.70302152  0.98124174  1
  Y  Y5  1  0.01875826  0.09215236  0.29697848  1
  Ir  Ir0  1  0.00000000  0.00000000  0.00000000  1
  I  I0  1  0.07504356  0.22695593  0.67513357  1
  I  I1  1  0.36894487  0.13487672  0.44939756  1
  I  I2  1  0.63105513  0.86512328  0.55060244  1
  I  I3  1  0.22695593  0.67513357  0.07504356  1
  I  I4  1  0.77304407  0.32486643  0.92495644  1
  I  I5  1  0.67513357  0.07504356  0.22695593  1
  I  I6  1  0.55060244  0.63105513  0.86512328  1
  I  I7  1  0.86512328  0.55060244  0.63105513  1
  I  I8  1  0.92495644  0.77304407  0.32486643  1
  I  I9  1  0.32486643  0.92495644  0.77304407  1
  I  I10  1  0.44939756  0.36894487  0.13487672  1
  I  I11  1  0.13487672  0.44939756  0.36894487  1
loop_
_geom_bond_atom_site_label_1
_geom_bond_atom_site_label_2
_geom_bond_distance
_geom_bond_site_symmetry_2
Ir0 Y5 2.717567 1_555
Ir0 Y1 2.717567 1_444
Ir0 Y2 2.717567 1_555
Ir0 Y4 2.717567 1_444
Ir0 Y3 2.717567 1_555
Ir0 Y0 2.717567 1_444
I0 Y1 3.104561 1_445
I0 Y2 3.175121 1_556
I0 Y5 3.370523 1_555
I1 Y3 3.141619 1_555
I1 Y5 3.168835 1_555
I1 Sr0 3.264372 1_555
I2 Y0 3.141619 1_555
I2 Y1 3.168835 1_555
I2 Sr0 3.264372 1_555
I3 Y4 3.104561 1_454
I3 Y3 3.175121 1_565
I3 Y2 3.370523 1_555
I4 Y2 3.104561 1_656
I4 Y0 3.175121 1_545
I4 Y4 3.370523 1_555
I5 Y0 3.104561 1_544
I5 Y5 3.175121 1_655
I5 Y3 3.370524 1_555
I6 Y4 3.141619 1_555
I6 Y0 3.168835 1_555
I6 Sr0 3.264372 1_555
I7 Y1 3.141619 1_555
I7 Y4 3.168835 1_555
I7 Sr0 3.264372 1_555
I8 Y5 3.104561 1_665
I8 Y4 3.175121 1_554
I8 Y1 3.370523 1_555
I9 Y3 3.104561 1_566
I9 Y1 3.175121 1_455
I9 Y0 3.370524 1_555
I10 Y2 3.141619 1_555
I10 Y3 3.168835 1_555
I10 Sr0 3.264372 1_555
I11 Y5 3.141619 1_555
I11 Y2 3.168835 1_555
I11 Sr0 3.264372 1_555
