# generated using pymatgen
data_K12Na(TiTe4)3
_symmetry_space_group_name_H-M   'P 1'
_cell_length_a   14.04254336
_cell_length_b   8.93863450
_cell_length_c   11.64118614
_cell_angle_alpha   50.36174069
_cell_angle_beta   89.25493245
_cell_angle_gamma   92.93424104
_symmetry_Int_Tables_number   1
_chemical_formula_structural   K12Na(TiTe4)3
_chemical_formula_sum   'K12 Na1 Ti3 Te12'
_cell_volume   1121.80593921
_cell_formula_units_Z   1
loop_
 _symmetry_equiv_pos_site_id
 _symmetry_equiv_pos_as_xyz
  1  'x, y, z'
loop_
 _atom_site_type_symbol
 _atom_site_label
 _atom_site_symmetry_multiplicity
 _atom_site_fract_x
 _atom_site_fract_y
 _atom_site_fract_z
 _atom_site_occupancy
  K  K0  1  0.91087412  0.32666803  0.41491067  1
  K  K1  1  0.35420504  0.75694046  0.07668107  1
  K  K2  1  0.05399302  0.60808820  0.61216830  1
  K  K3  1  0.62661497  0.29410393  0.90878008  1
  K  K4  1  0.17045316  0.10243129  0.55616571  1
  K  K5  1  0.72410036  0.86779901  0.86271701  1
  K  K6  1  0.82236292  0.86233222  0.44572340  1
  K  K7  1  0.30515771  0.19196019  0.11268746  1
  K  K8  1  0.63582098  0.46745353  0.42120124  1
  K  K9  1  0.09315542  0.64258603  0.01421608  1
  K  K10  1  0.35735264  0.53955716  0.58724018  1
  K  K11  1  0.88632436  0.34096420  0.97121321  1
  Na  Na0  1  0.95538991  0.07631719  0.81977152  1
  Ti  Ti0  1  0.44464900  0.95830469  0.64967888  1
  Ti  Ti1  1  0.06775870  0.92493752  0.16008849  1
  Ti  Ti2  1  0.55527974  0.06966072  0.34929354  1
  Te  Te0  1  0.41041467  0.24605295  0.36237956  1
  Te  Te1  1  0.89204335  0.82739491  0.15285455  1
  Te  Te2  1  0.59240989  0.79332675  0.63457875  1
  Te  Te3  1  0.15822808  0.13256345  0.89355561  1
  Te  Te4  1  0.70436047  0.32092884  0.19976019  1
  Te  Te5  1  0.16042371  0.60897755  0.33912424  1
  Te  Te6  1  0.30068861  0.69399567  0.80113461  1
  Te  Te7  1  0.81071859  0.36727923  0.67099629  1
  Te  Te8  1  0.50228820  0.89537528  0.24428878  1
  Te  Te9  1  0.06555690  0.12422190  0.25450827  1
  Te  Te10  1  0.49308632  0.12248604  0.76150812  1
  Te  Te11  1  0.94629017  0.83729305  0.72277418  1
loop_
_geom_bond_atom_site_label_1
_geom_bond_atom_site_label_2
_geom_bond_distance
_geom_bond_site_symmetry_2
K0 Te1 3.482880 1_555
K0 Te7 3.510128 1_555
K0 Te11 3.534607 1_545
K0 Te4 3.875971 1_555
K0 Te5 3.949705 1_655
K0 Te9 4.010942 1_655
K1 Te10 3.436162 1_564
K1 Te8 3.547523 1_555
K1 Te5 3.570420 1_555
K1 Te6 3.673236 1_554
K1 Te0 3.687527 1_555
K1 Te3 3.918883 1_564
K2 Te11 3.431487 1_455
K2 Te5 3.489984 1_555
K2 Te3 3.733200 1_555
K2 Te9 3.747546 1_565
K2 Te7 3.752091 1_455
K3 Te10 3.457319 1_555
K3 Te7 3.479154 1_555
K3 Te2 3.523949 1_555
K3 Te8 3.525678 1_546
K3 Te4 3.718767 1_556
K4 Te6 3.513045 1_545
K4 Te5 3.518988 1_555
K4 Te11 3.535535 1_445
K4 Te0 3.708939 1_555
K4 Te9 3.718951 1_555
K4 Te3 4.106715 1_555
K5 Na0 3.524468 1_565
K5 Te11 3.603484 1_555
K5 Te7 3.613017 1_565
K5 Te2 3.629537 1_555
K5 Te10 3.811541 1_565
K5 Te4 3.837813 1_556
K5 Te1 3.979705 1_556
K6 Te7 3.405027 1_555
K6 Te11 3.570062 1_555
K6 Te2 3.677281 1_555
K6 Te4 3.686657 1_565
K6 Te1 3.739189 1_555
K6 Te9 3.799079 1_665
K7 Te6 3.544702 1_554
K7 Te0 3.563594 1_555
K7 Te8 3.566219 1_545
K7 Te9 3.575529 1_555
K7 Te3 3.577577 1_554
K8 Te7 3.518302 1_555
K8 Te10 3.576980 1_555
K8 Te8 3.629385 1_555
K8 Te4 3.695838 1_555
K8 Te0 3.943150 1_555
K9 Te11 3.436379 1_454
K9 Te9 3.563030 1_555
K9 Te6 3.616325 1_554
K9 Te3 3.701058 1_564
K9 Te5 3.736404 1_555
K10 Te10 3.581266 1_555
K10 Te8 3.622446 1_555
K10 Te6 3.631175 1_555
K10 Te5 3.804169 1_555
K10 Te3 3.989606 1_555
K11 Te11 3.455364 1_555
K11 Te7 3.531279 1_555
K11 Te4 3.578867 1_556
K11 Te1 3.634369 1_546
K11 Te9 3.677959 1_656
Na0 Te7 2.962489 1_555
Na0 Te11 2.984972 1_545
Na0 Te1 3.078463 1_546
Na0 Te3 3.093818 1_655
Te0 Ti0 2.687992 1_545
Te0 Ti2 2.697082 1_555
Te1 Ti1 2.595117 1_655
Te2 Ti2 2.667035 1_565
Te2 Ti0 2.673100 1_555
Te3 Ti1 2.644716 1_546
Te4 Ti2 2.625425 1_555
Te5 Ti1 2.636308 1_555
Te6 Ti0 2.623114 1_555
Te8 Ti2 2.609514 1_565
Te9 Ti1 2.623951 1_545
Te10 Ti0 2.582541 1_545
