# generated using pymatgen
data_Ti8Al15Co6Pt
_symmetry_space_group_name_H-M   'P 1'
_cell_length_a   8.38735089
_cell_length_b   8.38660179
_cell_length_c   8.40620799
_cell_angle_alpha   120.06117638
_cell_angle_beta   119.76817394
_cell_angle_gamma   89.98997327
_symmetry_Int_Tables_number   1
_chemical_formula_structural   Ti8Al15Co6Pt
_chemical_formula_sum   'Ti8 Al15 Co6 Pt1'
_cell_volume   419.22491898
_cell_formula_units_Z   1
loop_
 _symmetry_equiv_pos_site_id
 _symmetry_equiv_pos_as_xyz
  1  'x, y, z'
loop_
 _atom_site_type_symbol
 _atom_site_label
 _atom_site_symmetry_multiplicity
 _atom_site_fract_x
 _atom_site_fract_y
 _atom_site_fract_z
 _atom_site_occupancy
  Ti  Ti0  1  0.79217203  0.28869066  0.07526214  1
  Ti  Ti1  1  0.21601557  0.28918236  0.49671526  1
  Ti  Ti2  1  0.21161885  0.70851095  0.50006211  1
  Ti  Ti3  1  0.21399921  0.71720716  0.92565461  1
  Ti  Ti4  1  0.78970920  0.71660013  0.50321684  1
  Ti  Ti5  1  0.78287906  0.28483225  0.49988553  1
  Ti  Ti6  1  0.38930986  0.12483470  0.74851036  1
  Ti  Ti7  1  0.38093631  0.63962375  0.26137413  1
  Al  Al0  1  0.99716900  0.49721187  0.50033605  1
  Al  Al1  1  0.15830882  0.33976229  0.18185994  1
  Al  Al2  1  0.16236315  0.97441449  0.82620492  1
  Al  Al3  1  0.15849660  0.35347078  0.81953289  1
  Al  Al4  1  0.53139414  0.34306815  0.18929050  1
  Al  Al5  1  0.84149258  0.65688237  0.81555450  1
  Al  Al6  1  0.83673869  0.02749795  0.17529497  1
  Al  Al7  1  0.83596385  0.64758383  0.17382988  1
  Al  Al8  1  0.47529025  0.65764424  0.81702137  1
  Al  Al9  1  0.38151000  0.12112156  0.26218085  1
  Al  Al10  1  0.85837668  0.12350106  0.74638690  1
  Al  Al11  1  0.61221020  0.87621779  0.25225565  1
  Al  Al12  1  0.61969989  0.36067811  0.73865040  1
  Al  Al13  1  0.62032833  0.87746010  0.73946659  1
  Al  Al14  1  0.13912759  0.87679016  0.25266062  1
  Co  Co0  1  0.49804769  0.00078154  0.99627808  1
  Co  Co1  1  0.49756706  0.49621849  0.99963364  1
  Co  Co2  1  0.49786220  0.50051489  0.49728625  1
  Co  Co3  1  0.00359889  0.50118388  0.00357038  1
  Co  Co4  1  0.00035474  0.00002443  0.00029075  1
  Co  Co5  1  0.49799318  0.99848303  0.50113713  1
  Pt  Pt0  1  0.99946337  0.00000104  0.50060075  1
loop_
_geom_bond_atom_site_label_1
_geom_bond_atom_site_label_2
_geom_bond_distance
_geom_bond_site_symmetry_2
Ti0 Ti6 2.802569 1_554
Ti1 Ti6 2.891319 1_555
Ti2 Ti7 2.836234 1_555
Ti2 Ti6 2.894708 1_565
Ti3 Ti7 2.874688 1_556
Ti4 Ti7 2.840640 1_555
Al0 Ti2 2.526815 1_655
Al0 Ti5 2.527937 1_555
Al0 Ti4 2.531741 1_555
Al0 Ti1 2.532813 1_655
Al0 Ti0 2.534295 1_555
Al0 Ti3 2.535802 1_655
Al1 Co4 2.416510 1_555
Al1 Co3 2.421505 1_555
Al1 Co2 2.424993 1_555
Al1 Al10 2.687773 1_454
Al1 Ti1 2.696686 1_555
Al1 Ti0 2.701927 1_455
Al1 Al9 2.703113 1_555
Al1 Ti7 2.708503 1_555
Al1 Ti2 2.728391 1_555
Al2 Co4 2.386132 1_566
Al2 Co0 2.388809 1_565
Al2 Pt0 2.505870 1_465
Al2 Ti3 2.643165 1_555
Al2 Al9 2.667960 1_566
Al2 Ti4 2.740494 1_455
Al2 Ti2 2.767555 1_555
Al3 Co3 2.385603 1_556
Al3 Co1 2.392299 1_555
Al3 Pt0 2.498560 1_455
Al3 Ti3 2.679540 1_555
Al3 Ti7 2.688128 1_556
Al3 Ti5 2.742592 1_455
Al3 Ti1 2.778763 1_555
Al4 Co2 2.413267 1_555
Al4 Co0 2.415507 1_554
Al4 Co1 2.423678 1_554
Al4 Ti5 2.704292 1_555
Al4 Al9 2.707190 1_555
Al4 Ti7 2.719132 1_555
Al4 Ti4 2.741254 1_555
Al4 Ti0 2.748517 1_555
Al5 Co4 2.436818 1_666
Al5 Co3 2.446389 1_656
Al5 Co2 2.452319 1_555
Al5 Ti5 2.725637 1_555
Al5 Ti4 2.741912 1_555
Al5 Ti3 2.744841 1_655
Al6 Co4 2.401141 1_655
Al6 Co0 2.408740 1_554
Al6 Pt0 2.513865 1_555
Al6 Ti0 2.679217 1_555
Al6 Ti5 2.762404 1_555
Al6 Ti1 2.786268 1_655
Al7 Co3 2.402061 1_655
Al7 Co1 2.413169 1_554
Al7 Pt0 2.507732 1_565
Al7 Ti0 2.660931 1_555
Al7 Ti4 2.759215 1_555
Al7 Ti2 2.779519 1_655
Al8 Co2 2.439918 1_555
Al8 Co0 2.441052 1_565
Al8 Co1 2.453841 1_555
Al8 Ti1 2.716654 1_555
Al8 Ti3 2.723263 1_555
Al8 Ti2 2.731166 1_555
Al9 Co5 2.483556 1_545
Al9 Co2 2.601578 1_555
Al9 Co4 2.621204 1_555
Al9 Co0 2.622844 1_554
Al9 Ti1 2.780838 1_555
Al9 Ti5 2.790009 1_555
Al9 Ti3 2.811775 1_544
Al10 Co5 2.476644 1_545
Al10 Co3 2.591611 1_656
Al10 Co4 2.595386 1_656
Al10 Pt0 2.650543 1_555
Al10 Ti0 2.749107 1_556
Al10 Al2 2.766737 1_645
Al10 Al3 2.776844 1_655
Al10 Al12 2.822620 1_555
Al10 Ti4 2.828175 1_545
Al10 Al13 2.830802 1_545
Al10 Ti5 2.833905 1_555
Al10 Al11 2.944963 1_545
Al11 Co5 2.487334 1_555
Al11 Co1 2.604580 1_554
Al11 Co0 2.616143 1_564
Al11 Pt0 2.661285 1_565
Al11 Al8 2.678515 1_554
Al11 Al7 2.755747 1_555
Al11 Al6 2.758185 1_565
Al11 Ti3 2.774770 1_554
Al11 Al9 2.820785 1_565
Al11 Ti7 2.829682 1_555
Al11 Ti5 2.832308 1_565
Al11 Ti4 2.858113 1_555
Al12 Co5 2.481244 1_545
Al12 Co2 2.619334 1_555
Al12 Co1 2.624368 1_555
Al12 Co3 2.639633 1_656
Al12 Al7 2.656367 1_556
Al12 Al5 2.692213 1_555
Al12 Al8 2.692828 1_555
Al12 Ti5 2.784715 1_555
Al12 Ti1 2.810864 1_555
Al12 Ti6 2.824482 1_555
Al12 Al9 2.839711 1_555
Al12 Ti0 2.847894 1_556
Al13 Co5 2.468272 1_555
Al13 Co2 2.582703 1_555
Al13 Co0 2.596792 1_565
Al13 Co4 2.612889 1_666
Al13 Al6 2.660707 1_566
Al13 Al5 2.697821 1_555
Al13 Al8 2.701068 1_555
Al13 Ti4 2.810526 1_555
Al13 Ti6 2.837455 1_565
Al13 Ti2 2.846645 1_555
Al13 Ti7 2.849453 1_555
Al13 Ti0 2.854534 1_566
Al14 Co5 2.467116 1_555
Al14 Co3 2.574704 1_555
Al14 Co4 2.582214 1_565
Al14 Pt0 2.655237 1_465
Al14 Al5 2.690468 1_454
Al14 Al6 2.763604 1_465
Al14 Al7 2.766246 1_455
Al14 Ti3 2.787460 1_554
Al14 Al9 2.830855 1_565
Al14 Ti7 2.841114 1_555
Al14 Ti1 2.857436 1_565
Al14 Ti2 2.893301 1_555
Al14 Ti6 2.955350 1_565
Co0 Ti6 2.556666 1_555
Co0 Ti3 2.977805 1_545
Co0 Ti2 2.997872 1_545
Co0 Ti0 3.020969 1_556
Co0 Ti5 3.026531 1_556
Co1 Ti6 2.547997 1_555
Co1 Ti7 2.594258 1_556
Co1 Ti0 3.014319 1_556
Co1 Ti3 3.027009 1_555
Co1 Ti1 3.032853 1_555
Co1 Ti4 3.033704 1_556
Co2 Ti7 2.577193 1_555
Co2 Ti1 2.951476 1_555
Co2 Ti2 2.969974 1_555
Co2 Ti5 2.995543 1_555
Co2 Ti4 3.011367 1_555
Co3 Ti7 2.594375 1_555
Co3 Ti0 2.970181 1_455
Co3 Ti2 2.997732 1_555
Co3 Ti3 3.027059 1_554
Co3 Ti5 3.027851 1_454
Co4 Ti3 2.975631 1_544
Co4 Ti0 2.978193 1_455
Co4 Ti1 2.989092 1_555
Co4 Ti4 2.991930 1_444
Co5 Ti6 2.439746 1_565
Co5 Ti7 2.458239 1_555
Pt0 Ti6 2.679465 1_655
Pt0 Ti4 2.972682 1_545
Pt0 Ti5 3.001364 1_555
Pt0 Ti2 3.022892 1_645
Pt0 Ti1 3.053138 1_655
