# generated using pymatgen
data_Rb3Na2TiP3
_symmetry_space_group_name_H-M   'P 1'
_cell_length_a   10.54352775
_cell_length_b   10.54352767
_cell_length_c   15.21995347
_cell_angle_alpha   90.00000000
_cell_angle_beta   90.00000000
_cell_angle_gamma   142.61580109
_symmetry_Int_Tables_number   1
_chemical_formula_structural   Rb3Na2TiP3
_chemical_formula_sum   'Rb12 Na8 Ti4 P12'
_cell_volume   1027.27336288
_cell_formula_units_Z   4
loop_
 _symmetry_equiv_pos_site_id
 _symmetry_equiv_pos_as_xyz
  1  'x, y, z'
loop_
 _atom_site_type_symbol
 _atom_site_label
 _atom_site_symmetry_multiplicity
 _atom_site_fract_x
 _atom_site_fract_y
 _atom_site_fract_z
 _atom_site_occupancy
  Rb  Rb0  1  0.94431662  0.60812926  0.82412680  1
  Rb  Rb1  1  0.55568338  0.89187074  0.32412680  1
  Rb  Rb2  1  0.39187074  0.05568338  0.17587320  1
  Rb  Rb3  1  0.05568338  0.39187074  0.17587320  1
  Rb  Rb4  1  0.89187074  0.55568338  0.32412680  1
  Rb  Rb5  1  0.44431662  0.10812926  0.67587320  1
  Rb  Rb6  1  0.60812926  0.94431662  0.82412680  1
  Rb  Rb7  1  0.27738902  0.27738902  0.31445407  1
  Rb  Rb8  1  0.77738902  0.77738902  0.18554593  1
  Rb  Rb9  1  0.22261098  0.22261098  0.81445407  1
  Rb  Rb10  1  0.72261098  0.72261098  0.68554593  1
  Rb  Rb11  1  0.10812926  0.44431662  0.67587320  1
  Na  Na0  1  0.92097947  0.07902053  0.00000000  1
  Na  Na1  1  0.57902053  0.42097947  0.50000000  1
  Na  Na2  1  0.07902053  0.92097947  0.00000000  1
  Na  Na3  1  0.42097947  0.57902053  0.50000000  1
  Na  Na4  1  0.75521335  0.24478665  0.00000000  1
  Na  Na5  1  0.74478665  0.25521335  0.50000000  1
  Na  Na6  1  0.24478665  0.75521335  0.00000000  1
  Na  Na7  1  0.25521335  0.74478665  0.50000000  1
  Ti  Ti0  1  0.58435937  0.41564063  0.00000000  1
  Ti  Ti1  1  0.91564063  0.08435937  0.50000000  1
  Ti  Ti2  1  0.41564063  0.58435937  0.00000000  1
  Ti  Ti3  1  0.08435937  0.91564063  0.50000000  1
  P  P0  1  0.86047705  0.55435484  0.09126734  1
  P  P1  1  0.44564516  0.13952295  0.90873266  1
  P  P2  1  0.63952295  0.94564516  0.59126734  1
  P  P3  1  0.94564516  0.63952295  0.59126734  1
  P  P4  1  0.13952295  0.44564516  0.90873266  1
  P  P5  1  0.55435484  0.86047705  0.09126734  1
  P  P6  1  0.36047705  0.05435484  0.40873266  1
  P  P7  1  0.19115691  0.19115691  0.58209759  1
  P  P8  1  0.69115691  0.69115691  0.91790241  1
  P  P9  1  0.30884309  0.30884309  0.08209759  1
  P  P10  1  0.05435484  0.36047705  0.40873266  1
  P  P11  1  0.80884309  0.80884309  0.41790241  1
loop_
_geom_bond_atom_site_label_1
_geom_bond_atom_site_label_2
_geom_bond_distance
_geom_bond_site_symmetry_2
Na0 P4 2.833111 1_654
Na0 P5 2.833111 1_545
Na0 P8 2.899827 1_544
Na0 P9 2.899827 1_655
Na1 P6 2.833111 1_555
Na1 P3 2.833111 1_555
Na1 P11 2.899827 1_555
Na1 P7 2.899827 1_555
Na2 P0 2.833111 1_455
Na2 P1 2.833111 1_564
Na2 P9 2.899827 1_565
Na2 P8 2.899827 1_454
Na3 P2 2.833111 1_555
Na3 P10 2.833111 1_555
Na3 P7 2.899827 1_555
Na3 P11 2.899827 1_555
Na4 P0 2.838645 1_555
Na4 P1 2.838645 1_554
Na4 P5 3.032523 1_545
Na4 P4 3.032523 1_654
Na5 P2 2.838645 1_545
Na5 P10 2.838645 1_655
Na5 P3 3.032523 1_555
Na5 P6 3.032523 1_555
Na6 P4 2.838645 1_554
Na6 P5 2.838645 1_555
Na6 P1 3.032523 1_564
Na6 P0 3.032523 1_455
Na7 P6 2.838645 1_565
Na7 P3 2.838645 1_455
Na7 P10 3.032523 1_555
Na7 P2 3.032523 1_555
P0 Ti0 2.403664 1_555
P0 Rb8 3.410291 1_555
P0 Rb2 3.525772 1_555
P0 Rb4 3.558526 1_555
P0 Rb2 3.731692 1_665
P0 Rb3 3.799003 1_655
P1 Ti0 2.403664 1_556
P1 Rb9 3.410291 1_555
P1 Rb0 3.525772 1_555
P1 Rb5 3.558526 1_555
P1 Rb0 3.731692 1_445
P1 Rb6 3.799003 1_545
P2 Ti1 2.403664 1_565
P2 Rb10 3.410291 1_555
P2 Rb11 3.525772 1_665
P2 Rb6 3.558526 1_555
P2 Rb11 3.731692 1_555
P2 Rb5 3.799003 1_565
P3 Ti3 2.403664 1_655
P3 Rb10 3.410291 1_555
P3 Rb5 3.525772 1_665
P3 Rb0 3.558526 1_555
P3 Rb5 3.731692 1_555
P3 Rb11 3.799003 1_655
P4 Ti2 2.403664 1_556
P4 Rb9 3.410291 1_555
P4 Rb6 3.525772 1_555
P4 Rb11 3.558526 1_555
P4 Rb6 3.731692 1_445
P4 Rb0 3.799003 1_455
P5 Ti2 2.403664 1_555
P5 Rb8 3.410291 1_555
P5 Rb3 3.525772 1_555
P5 Rb1 3.558526 1_555
P5 Rb3 3.731692 1_665
P5 Rb2 3.799003 1_565
P6 Ti3 2.403664 1_545
P6 Rb7 3.410291 1_555
P6 Rb4 3.525772 1_445
P6 Rb2 3.558526 1_555
P6 Rb4 3.731692 1_555
P6 Rb1 3.799003 1_545
P7 Ti3 2.463656 1_545
P7 Ti1 2.463656 1_455
P7 Rb10 3.536294 1_445
P7 Rb9 3.542838 1_555
P8 Ti0 2.463656 1_556
P8 Ti2 2.463656 1_556
P8 Rb9 3.536294 1_555
P8 Rb10 3.542838 1_555
P9 Ti2 2.463656 1_555
P9 Ti0 2.463656 1_555
P9 Rb8 3.536294 1_555
P9 Rb7 3.542838 1_555
P10 Ti1 2.403664 1_455
P10 Rb7 3.410291 1_555
P10 Rb1 3.525772 1_445
P10 Rb3 3.558526 1_555
P10 Rb1 3.731692 1_555
P10 Rb4 3.799003 1_455
P11 Ti1 2.463656 1_565
P11 Ti3 2.463656 1_655
P11 Rb7 3.536294 1_665
P11 Rb8 3.542838 1_555
