# generated using pymatgen
data_Cs4Ba2ZrP4
_symmetry_space_group_name_H-M   'P 1'
_cell_length_a   10.97264227
_cell_length_b   10.97264295
_cell_length_c   8.06059036
_cell_angle_alpha   87.51333240
_cell_angle_beta   87.51332555
_cell_angle_gamma   119.42891064
_symmetry_Int_Tables_number   1
_chemical_formula_structural   Cs4Ba2ZrP4
_chemical_formula_sum   'Cs8 Ba4 Zr2 P8'
_cell_volume   842.12645531
_cell_formula_units_Z   2
loop_
 _symmetry_equiv_pos_site_id
 _symmetry_equiv_pos_as_xyz
  1  'x, y, z'
loop_
 _atom_site_type_symbol
 _atom_site_label
 _atom_site_symmetry_multiplicity
 _atom_site_fract_x
 _atom_site_fract_y
 _atom_site_fract_z
 _atom_site_occupancy
  Cs  Cs0  1  0.47440731  0.94090994  0.39000645  1
  Cs  Cs1  1  0.94090994  0.47440731  0.89000645  1
  Cs  Cs2  1  0.86954636  0.72411262  0.15429475  1
  Cs  Cs3  1  0.25636035  0.12178151  0.24653888  1
  Cs  Cs4  1  0.85733642  0.14260290  0.18932097  1
  Cs  Cs5  1  0.12178151  0.25636035  0.74653888  1
  Cs  Cs6  1  0.72411262  0.86954636  0.65429475  1
  Cs  Cs7  1  0.14260290  0.85733642  0.68932097  1
  Ba  Ba0  1  0.07598772  0.53511022  0.40292684  1
  Ba  Ba1  1  0.47593929  0.53238454  0.37674122  1
  Ba  Ba2  1  0.53511022  0.07598772  0.90292684  1
  Ba  Ba3  1  0.53238454  0.47593929  0.87674122  1
  Zr  Zr0  1  0.66343583  0.33661824  0.48809929  1
  Zr  Zr1  1  0.33661824  0.66343583  0.98809929  1
  P  P0  1  0.63150874  0.32814542  0.17235099  1
  P  P1  1  0.32814542  0.63150874  0.67235099  1
  P  P2  1  0.21908149  0.41910884  0.13849687  1
  P  P3  1  0.58925854  0.78803464  0.06731145  1
  P  P4  1  0.22006175  0.79807733  0.09157930  1
  P  P5  1  0.78803464  0.58925854  0.56731145  1
  P  P6  1  0.41910884  0.21908149  0.63849687  1
  P  P7  1  0.79807733  0.22006175  0.59157930  1
loop_
_geom_bond_atom_site_label_1
_geom_bond_atom_site_label_2
_geom_bond_distance
_geom_bond_site_symmetry_2
Cs0 P4 3.555695 1_555
Cs0 P1 3.597127 1_555
Cs0 P3 3.652300 1_555
Cs0 P7 3.857190 1_565
Cs0 P6 3.992681 1_565
Cs0 P0 3.999571 1_565
Cs1 P7 3.555695 1_555
Cs1 P0 3.597127 1_556
Cs1 P5 3.652300 1_555
Cs1 P4 3.857190 1_656
Cs1 P2 3.992681 1_656
Cs1 P1 3.999571 1_655
Cs2 P5 3.476550 1_555
Cs2 P4 3.526309 1_655
Cs2 P3 3.564613 1_555
Cs2 P0 3.805387 1_555
Cs3 P2 3.558822 1_555
Cs3 P0 3.597048 1_555
Cs3 P6 3.635859 1_555
Cs3 P4 3.656867 1_545
Cs4 P7 3.501122 1_555
Cs4 P2 3.611788 1_655
Cs4 P3 3.754090 1_545
Cs4 P0 3.907221 1_555
Cs5 P6 3.558821 1_555
Cs5 P1 3.597049 1_555
Cs5 P2 3.635859 1_556
Cs5 P7 3.656867 1_455
Cs6 P3 3.476550 1_556
Cs6 P7 3.526309 1_565
Cs6 P5 3.564613 1_555
Cs6 P1 3.805386 1_555
Cs7 P4 3.501122 1_556
Cs7 P6 3.611789 1_565
Cs7 P5 3.754090 1_455
Cs7 P1 3.907221 1_555
Ba0 P2 3.246143 1_555
Ba0 P1 3.366803 1_555
Ba0 P4 3.415858 1_555
Ba0 P7 3.513399 1_455
Ba0 P5 3.693461 1_455
Ba1 P2 3.226538 1_555
Ba1 P1 3.333682 1_555
Ba1 P3 3.366324 1_555
Ba1 P5 3.593871 1_555
Ba1 P6 3.715991 1_555
Ba1 P0 3.806050 1_555
Ba2 P6 3.246144 1_555
Ba2 P0 3.366803 1_556
Ba2 P7 3.415857 1_555
Ba2 P4 3.513399 1_546
Ba2 P3 3.693461 1_546
Ba3 P6 3.226538 1_555
Ba3 P0 3.333682 1_556
Ba3 P5 3.366324 1_555
Ba3 P3 3.593871 1_556
Ba3 P2 3.715991 1_556
Ba3 P1 3.806050 1_555
P0 Zr0 2.583581 1_555
P1 Zr1 2.583581 1_555
P2 Zr1 2.550466 1_554
P3 Zr1 2.542937 1_554
P4 Zr1 2.526885 1_554
P5 Zr0 2.542937 1_555
P6 Zr0 2.550465 1_555
P7 Zr0 2.526885 1_555
