# generated using pymatgen
data_Hf4Si6TcIr6
_symmetry_space_group_name_H-M   'P 1'
_cell_length_a   6.95473616
_cell_length_b   6.95473587
_cell_length_c   6.95473578
_cell_angle_alpha   109.47121465
_cell_angle_beta   109.47121381
_cell_angle_gamma   109.47122020
_symmetry_Int_Tables_number   1
_chemical_formula_structural   Hf4Si6TcIr6
_chemical_formula_sum   'Hf4 Si6 Tc1 Ir6'
_cell_volume   258.95250439
_cell_formula_units_Z   1
loop_
 _symmetry_equiv_pos_site_id
 _symmetry_equiv_pos_as_xyz
  1  'x, y, z'
loop_
 _atom_site_type_symbol
 _atom_site_label
 _atom_site_symmetry_multiplicity
 _atom_site_fract_x
 _atom_site_fract_y
 _atom_site_fract_z
 _atom_site_occupancy
  Hf  Hf0  1  0.50000000  0.50000000  0.50000000  1
  Hf  Hf1  1  0.00000000  0.00000000  0.50000000  1
  Hf  Hf2  1  0.00000000  0.50000000  0.00000000  1
  Hf  Hf3  1  0.50000000  0.00000000  0.00000000  1
  Si  Si0  1  1.00000000  0.31706050  0.31706050  1
  Si  Si1  1  0.31706050  1.00000000  0.31706050  1
  Si  Si2  1  0.31706050  0.31706050  1.00000000  1
  Si  Si3  1  0.00000000  0.68293950  0.68293950  1
  Si  Si4  1  0.68293950  0.00000000  0.68293950  1
  Si  Si5  1  0.68293950  0.68293950  0.00000000  1
  Tc  Tc0  1  0.00000000  0.00000000  0.00000000  1
  Ir  Ir0  1  0.50000000  0.75000000  0.25000000  1
  Ir  Ir1  1  0.25000000  0.50000000  0.75000000  1
  Ir  Ir2  1  0.75000000  0.25000000  0.50000000  1
  Ir  Ir3  1  0.75000000  0.50000000  0.25000000  1
  Ir  Ir4  1  0.50000000  0.25000000  0.75000000  1
  Ir  Ir5  1  0.25000000  0.75000000  0.50000000  1
loop_
_geom_bond_atom_site_label_1
_geom_bond_atom_site_label_2
_geom_bond_distance
_geom_bond_site_symmetry_2
Hf0 Ir0 2.839259 1_555
Hf0 Ir4 2.839259 1_555
Hf0 Ir3 2.839259 1_555
Hf0 Ir1 2.839259 1_555
Hf0 Ir2 2.839259 1_555
Hf0 Ir5 2.839259 1_555
Hf0 Si4 2.889882 1_565
Hf0 Si1 2.889882 1_545
Hf0 Si5 2.889882 1_556
Hf0 Si2 2.889882 1_554
Hf0 Si0 2.889882 1_455
Hf0 Si3 2.889882 1_655
Hf1 Ir5 2.839259 1_545
Hf1 Ir2 2.839259 1_455
Hf1 Ir1 2.839259 1_555
Hf1 Ir3 2.839259 1_445
Hf1 Ir0 2.839260 1_445
Hf1 Ir4 2.839260 1_555
Hf1 Si0 2.889881 1_455
Hf1 Si3 2.889881 1_545
Hf1 Si1 2.889882 1_545
Hf1 Si4 2.889882 1_455
Hf1 Si2 2.889882 1_555
Hf1 Si5 2.889882 1_445
Hf2 Ir3 2.839259 1_455
Hf2 Ir1 2.839259 1_554
Hf2 Ir5 2.839259 1_555
Hf2 Ir2 2.839259 1_454
Hf2 Ir4 2.839260 1_454
Hf2 Ir0 2.839260 1_555
Hf2 Si0 2.889881 1_455
Hf2 Si3 2.889881 1_554
Hf2 Si2 2.889882 1_554
Hf2 Si5 2.889882 1_455
Hf2 Si4 2.889882 1_454
Hf2 Si1 2.889882 1_555
Hf3 Ir4 2.839259 1_554
Hf3 Ir0 2.839259 1_545
Hf3 Ir3 2.839259 1_555
Hf3 Ir1 2.839259 1_544
Hf3 Ir2 2.839259 1_555
Hf3 Ir5 2.839259 1_544
Hf3 Si4 2.889881 1_554
Hf3 Si1 2.889881 1_545
Hf3 Si2 2.889882 1_554
Hf3 Si5 2.889882 1_545
Hf3 Si0 2.889882 1_555
Hf3 Si3 2.889882 1_544
Si0 Tc0 2.546198 1_655
Si1 Tc0 2.546198 1_565
Si2 Tc0 2.546198 1_556
Si3 Tc0 2.546198 1_566
Si4 Tc0 2.546198 1_656
Si5 Tc0 2.546198 1_665
Ir0 Si5 2.487772 1_555
Ir0 Si1 2.487773 1_555
Ir0 Si2 2.487773 1_554
Ir0 Si4 2.487773 1_565
Ir1 Si2 2.487772 1_555
Ir1 Si3 2.487773 1_555
Ir1 Si0 2.487773 1_455
Ir1 Si5 2.487773 1_556
Ir2 Si4 2.487772 1_555
Ir2 Si0 2.487772 1_555
Ir2 Si3 2.487773 1_655
Ir2 Si1 2.487773 1_545
Ir3 Si5 2.487772 1_555
Ir3 Si0 2.487773 1_555
Ir3 Si3 2.487773 1_655
Ir3 Si2 2.487773 1_554
Ir4 Si2 2.487772 1_555
Ir4 Si4 2.487773 1_555
Ir4 Si5 2.487773 1_556
Ir4 Si1 2.487773 1_545
Ir5 Si1 2.487772 1_555
Ir5 Si3 2.487772 1_555
Ir5 Si0 2.487773 1_455
Ir5 Si4 2.487773 1_565
