# generated using pymatgen
data_AsPd(SeO3)4
_symmetry_space_group_name_H-M   'P 1'
_cell_length_a   6.88849248
_cell_length_b   5.06739003
_cell_length_c   9.03485849
_cell_angle_alpha   56.91740762
_cell_angle_beta   86.37853728
_cell_angle_gamma   88.46239366
_symmetry_Int_Tables_number   1
_chemical_formula_structural   AsPd(SeO3)4
_chemical_formula_sum   'As1 Pd1 Se4 O12'
_cell_volume   263.71075192
_cell_formula_units_Z   1
loop_
 _symmetry_equiv_pos_site_id
 _symmetry_equiv_pos_as_xyz
  1  'x, y, z'
loop_
 _atom_site_type_symbol
 _atom_site_label
 _atom_site_symmetry_multiplicity
 _atom_site_fract_x
 _atom_site_fract_y
 _atom_site_fract_z
 _atom_site_occupancy
  As  As0  1  0.50000000  0.00000000  0.50000000  1
  Pd  Pd0  1  0.00000000  0.00000000  0.00000000  1
  Se  Se0  1  0.82274996  0.32964138  0.19367178  1
  Se  Se1  1  0.67759129  0.31657558  0.69081885  1
  Se  Se2  1  0.17725004  0.67035862  0.80632822  1
  Se  Se3  1  0.32240871  0.68342442  0.30918115  1
  O  O0  1  0.83013012  0.32534938  0.00470548  1
  O  O1  1  0.65443625  0.28587234  0.50407788  1
  O  O2  1  0.16986988  0.67465062  0.99529452  1
  O  O3  1  0.34556375  0.71412766  0.49592212  1
  O  O4  1  0.58074663  0.18250908  0.26628204  1
  O  O5  1  0.90975224  0.22103260  0.72258578  1
  O  O6  1  0.41925337  0.81749092  0.73371796  1
  O  O7  1  0.09024776  0.77896740  0.27741422  1
  O  O8  1  0.76300342  0.71521079  0.09955774  1
  O  O9  1  0.71029637  0.72967992  0.56608192  1
  O  O10  1  0.23699658  0.28478921  0.90044226  1
  O  O11  1  0.28970363  0.27032008  0.43391808  1
loop_
_geom_bond_atom_site_label_1
_geom_bond_atom_site_label_2
_geom_bond_distance
_geom_bond_site_symmetry_2
As0 O6 1.835991 1_545
As0 O4 1.835991 1_555
As0 O1 1.837808 1_555
As0 O3 1.837808 1_545
As0 O9 1.855077 1_545
As0 O11 1.855077 1_555
O0 Se0 1.716796 1_555
O0 Pd0 2.013920 1_655
O1 Se1 1.793911 1_555
O2 Se2 1.716796 1_555
O2 Pd0 2.013920 1_566
O3 Se3 1.793911 1_555
O4 Se0 1.777596 1_555
O5 Se1 1.655016 1_555
O5 Pd0 2.240040 1_656
O6 Se2 1.777596 1_555
O7 Se3 1.655016 1_555
O7 Pd0 2.240040 1_565
O8 Se0 1.702123 1_555
O8 Pd0 2.020089 1_665
O9 Se1 1.766560 1_555
O10 Se2 1.702123 1_555
O10 Pd0 2.020089 1_556
O11 Se3 1.766560 1_555
