# generated using pymatgen
data_Ta5SiB2
_symmetry_space_group_name_H-M   'P 1'
_cell_length_a   7.26569378
_cell_length_b   7.26569341
_cell_length_c   7.26569327
_cell_angle_alpha   129.32660973
_cell_angle_beta   129.32660757
_cell_angle_gamma   74.48561157
_symmetry_Int_Tables_number   1
_chemical_formula_structural   Ta5SiB2
_chemical_formula_sum   'Ta10 Si2 B4'
_cell_volume   223.66916164
_cell_formula_units_Z   2
loop_
 _symmetry_equiv_pos_site_id
 _symmetry_equiv_pos_as_xyz
  1  'x, y, z'
loop_
 _atom_site_type_symbol
 _atom_site_label
 _atom_site_symmetry_multiplicity
 _atom_site_fract_x
 _atom_site_fract_y
 _atom_site_fract_z
 _atom_site_occupancy
  Ta  Ta0  1  0.00000000  0.00000000  0.00000000  1
  Ta  Ta1  1  0.80647056  0.97148237  0.50000000  1
  Ta  Ta2  1  0.30647056  0.80647056  0.83498819  1
  Ta  Ta3  1  0.19352944  0.02851763  0.50000000  1
  Ta  Ta4  1  0.52851763  0.69352944  0.50000000  1
  Ta  Ta5  1  0.02851763  0.52851763  0.83498819  1
  Ta  Ta6  1  0.69352944  0.19352944  0.16501181  1
  Ta  Ta7  1  0.97148237  0.47148237  0.16501181  1
  Ta  Ta8  1  0.50000000  0.50000000  0.00000000  1
  Ta  Ta9  1  0.47148237  0.30647056  0.50000000  1
  Si  Si0  1  0.75000000  0.75000000  0.00000000  1
  Si  Si1  1  0.25000000  0.25000000  0.00000000  1
  B  B0  1  0.38256698  0.88256698  0.26513495  1
  B  B1  1  0.88256698  0.61743302  0.50000000  1
  B  B2  1  0.61743302  0.11743302  0.73486505  1
  B  B3  1  0.11743302  0.38256698  0.50000000  1
loop_
_geom_bond_atom_site_label_1
_geom_bond_atom_site_label_2
_geom_bond_distance
_geom_bond_site_symmetry_2
Si0 Ta1 2.647588 1_555
Si0 Ta4 2.647588 1_554
Si0 Ta9 2.647588 1_554
Si0 Ta6 2.647588 1_565
Si0 Ta7 2.647588 1_555
Si0 Ta5 2.647588 1_654
Si0 Ta3 2.647588 1_665
Si0 Ta2 2.647588 1_554
Si0 Ta8 2.892029 1_555
Si0 Ta0 2.892029 1_665
Si1 Ta3 2.647588 1_554
Si1 Ta9 2.647588 1_555
Si1 Ta4 2.647588 1_555
Si1 Ta2 2.647588 1_544
Si1 Ta5 2.647588 1_554
Si1 Ta7 2.647588 1_455
Si1 Ta1 2.647588 1_444
Si1 Ta6 2.647588 1_555
Si1 Ta8 2.892029 1_555
Si1 Ta0 2.892029 1_555
B0 B2 2.065476 1_565
B0 Ta4 2.412660 1_555
B0 Ta3 2.412660 1_565
B0 Ta9 2.412668 1_565
B0 Ta1 2.412668 1_555
B0 Ta5 2.482367 1_554
B0 Ta2 2.482374 1_554
B0 Ta8 2.488558 1_555
B0 Ta0 2.488558 1_565
B1 B3 2.065485 1_655
B1 Ta7 2.412666 1_555
B1 Ta5 2.412666 1_655
B1 Ta6 2.412666 1_555
B1 Ta2 2.412666 1_655
B1 Ta1 2.482367 1_555
B1 Ta4 2.482367 1_555
B1 Ta0 2.488556 1_666
B1 Ta8 2.488556 1_555
B2 Ta9 2.412660 1_555
B2 Ta1 2.412660 1_545
B2 Ta4 2.412668 1_545
B2 Ta3 2.412668 1_555
B2 Ta7 2.482367 1_556
B2 Ta6 2.482374 1_556
B2 Ta8 2.488558 1_556
B2 Ta0 2.488558 1_656
B3 Ta5 2.412666 1_555
B3 Ta7 2.412666 1_455
B3 Ta2 2.412666 1_555
B3 Ta6 2.412666 1_455
B3 Ta3 2.482367 1_555
B3 Ta9 2.482367 1_555
B3 Ta0 2.488556 1_555
B3 Ta8 2.488556 1_556
