# generated using pymatgen
data_NaBi3(Ru2O7)2
_symmetry_space_group_name_H-M   'P 1'
_cell_length_a   7.17881671
_cell_length_b   7.16162206
_cell_length_c   7.17866469
_cell_angle_alpha   61.05183460
_cell_angle_beta   61.08946899
_cell_angle_gamma   61.05214201
_symmetry_Int_Tables_number   1
_chemical_formula_structural   NaBi3(Ru2O7)2
_chemical_formula_sum   'Na1 Bi3 Ru4 O14'
_cell_volume   267.22599573
_cell_formula_units_Z   1
loop_
 _symmetry_equiv_pos_site_id
 _symmetry_equiv_pos_as_xyz
  1  'x, y, z'
loop_
 _atom_site_type_symbol
 _atom_site_label
 _atom_site_symmetry_multiplicity
 _atom_site_fract_x
 _atom_site_fract_y
 _atom_site_fract_z
 _atom_site_occupancy
  Na  Na0  1  0.50000000  0.50000000  0.50000000  1
  Bi  Bi0  1  0.50000000  0.00000000  0.50000000  1
  Bi  Bi1  1  0.00000000  0.50000000  0.50000000  1
  Bi  Bi2  1  0.50000000  0.50000000  0.00000000  1
  Ru  Ru0  1  0.00000000  0.00000000  0.00000000  1
  Ru  Ru1  1  0.00000000  0.50000000  0.00000000  1
  Ru  Ru2  1  0.50000000  0.00000000  0.00000000  1
  Ru  Ru3  1  0.00000000  0.00000000  0.50000000  1
  O  O0  1  0.62410100  0.62543572  0.62411665  1
  O  O1  1  0.37589900  0.37456428  0.37588335  1
  O  O2  1  0.91971225  0.92224325  0.32655303  1
  O  O3  1  0.32654946  0.92224208  0.91971840  1
  O  O4  1  0.92342585  0.32361791  0.92344509  1
  O  O5  1  0.32114594  0.31939708  0.93899782  1
  O  O6  1  0.93898574  0.31939099  0.32114056  1
  O  O7  1  0.32597194  0.93402263  0.32598115  1
  O  O8  1  0.08028775  0.07775675  0.67344697  1
  O  O9  1  0.67345054  0.07775792  0.08028160  1
  O  O10  1  0.07657415  0.67638209  0.07655491  1
  O  O11  1  0.67885406  0.68060292  0.06100218  1
  O  O12  1  0.06101426  0.68060901  0.67885944  1
  O  O13  1  0.67402806  0.06597737  0.67401885  1
loop_
_geom_bond_atom_site_label_1
_geom_bond_atom_site_label_2
_geom_bond_distance
_geom_bond_site_symmetry_2
Na0 O0 2.170620 1_555
Na0 O1 2.170620 1_555
Na0 O13 2.602683 1_555
Na0 O7 2.602683 1_555
Na0 O11 2.646203 1_555
Na0 O5 2.646203 1_555
Na0 O12 2.646207 1_555
Na0 O6 2.646207 1_555
Bi0 O1 2.218944 1_555
Bi0 O0 2.218944 1_545
Bi0 O13 2.448762 1_555
Bi0 O7 2.448762 1_545
Bi0 O3 2.521575 1_545
Bi0 O9 2.521575 1_555
Bi0 O2 2.521596 1_545
Bi0 O8 2.521596 1_555
Bi1 O1 2.232994 1_555
Bi1 O0 2.232994 1_455
Bi1 O12 2.492656 1_555
Bi1 O6 2.492656 1_455
Bi1 O2 2.527578 1_455
Bi1 O8 2.527578 1_555
Bi1 O4 2.545090 1_455
Bi1 O10 2.545090 1_555
Bi2 O1 2.232847 1_555
Bi2 O0 2.232847 1_554
Bi2 O11 2.492542 1_555
Bi2 O5 2.492542 1_554
Bi2 O3 2.527582 1_554
Bi2 O9 2.527582 1_555
Bi2 O4 2.545054 1_554
Bi2 O10 2.545054 1_555
O2 Ru3 1.966826 1_665
O2 Ru0 1.969330 1_665
O3 Ru2 1.966837 1_566
O3 Ru0 1.969363 1_566
O4 Ru0 1.949728 1_656
O4 Ru1 1.958601 1_656
O5 Ru2 1.950250 1_556
O5 Ru1 1.966052 1_556
O6 Ru3 1.950213 1_655
O6 Ru1 1.965984 1_655
O7 Ru3 1.983532 1_565
O7 Ru2 1.983557 1_565
O8 Ru3 1.966826 1_555
O8 Ru0 1.969330 1_556
O9 Ru2 1.966837 1_555
O9 Ru0 1.969363 1_655
O10 Ru0 1.949728 1_565
O10 Ru1 1.958601 1_555
O11 Ru2 1.950250 1_565
O11 Ru1 1.966052 1_655
O12 Ru3 1.950213 1_565
O12 Ru1 1.965984 1_556
O13 Ru3 1.983532 1_655
O13 Ru2 1.983557 1_556
