# generated using pymatgen
data_Sr6HPb2N
_symmetry_space_group_name_H-M   'P 1'
_cell_length_a   7.46064603
_cell_length_b   7.46064631
_cell_length_c   7.46064451
_cell_angle_alpha   59.99999493
_cell_angle_beta   59.99999368
_cell_angle_gamma   59.99999453
_symmetry_Int_Tables_number   1
_chemical_formula_structural   Sr6HPb2N
_chemical_formula_sum   'Sr6 H1 Pb2 N1'
_cell_volume   293.63930083
_cell_formula_units_Z   1
loop_
 _symmetry_equiv_pos_site_id
 _symmetry_equiv_pos_as_xyz
  1  'x, y, z'
loop_
 _atom_site_type_symbol
 _atom_site_label
 _atom_site_symmetry_multiplicity
 _atom_site_fract_x
 _atom_site_fract_y
 _atom_site_fract_z
 _atom_site_occupancy
  Sr  Sr0  1  0.25948057  0.74051943  0.74051943  1
  Sr  Sr1  1  0.25948057  0.74051943  0.25948057  1
  Sr  Sr2  1  0.74051943  0.25948057  0.74051943  1
  Sr  Sr3  1  0.74051943  0.74051943  0.25948057  1
  Sr  Sr4  1  0.25948057  0.25948057  0.74051943  1
  Sr  Sr5  1  0.74051943  0.25948057  0.25948057  1
  H  H0  1  0.00000000  0.00000000  0.00000000  1
  Pb  Pb0  1  0.25000000  0.25000000  0.25000000  1
  Pb  Pb1  1  0.75000000  0.75000000  0.75000000  1
  N  N0  1  0.50000000  0.50000000  0.50000000  1
loop_
_geom_bond_atom_site_label_1
_geom_bond_atom_site_label_2
_geom_bond_distance
_geom_bond_site_symmetry_2
H0 Sr1 2.737765 1_545
H0 Sr5 2.737765 1_455
H0 Sr2 2.737765 1_454
H0 Sr0 2.737765 1_544
H0 Sr3 2.737766 1_445
H0 Sr4 2.737766 1_554
Pb0 Sr4 3.731663 1_554
Pb0 Sr2 3.731663 1_554
Pb0 Sr4 3.731663 1_555
Pb0 Sr2 3.731663 1_455
Pb0 Sr0 3.731663 1_554
Pb0 Sr0 3.731663 1_545
Pb0 Sr3 3.731664 1_455
Pb0 Sr3 3.731664 1_545
Pb0 Sr5 3.731664 1_455
Pb0 Sr5 3.731664 1_555
Pb0 Sr1 3.731664 1_545
Pb0 Sr1 3.731664 1_555
Pb1 Sr3 3.731663 1_556
Pb1 Sr1 3.731663 1_556
Pb1 Sr3 3.731663 1_555
Pb1 Sr1 3.731663 1_655
Pb1 Sr5 3.731663 1_556
Pb1 Sr5 3.731663 1_565
Pb1 Sr4 3.731664 1_655
Pb1 Sr4 3.731664 1_565
Pb1 Sr0 3.731664 1_655
Pb1 Sr0 3.731664 1_555
Pb1 Sr2 3.731664 1_565
Pb1 Sr2 3.731664 1_555
N0 Sr0 2.537707 1_555
N0 Sr2 2.537707 1_555
N0 Sr5 2.537707 1_555
N0 Sr1 2.537707 1_555
N0 Sr4 2.537708 1_555
N0 Sr3 2.537708 1_555
