# generated using pymatgen
data_KSb12(PdRu)2
_symmetry_space_group_name_H-M   'P 1'
_cell_length_a   8.14943356
_cell_length_b   8.18545840
_cell_length_c   8.18545766
_cell_angle_alpha   109.67342377
_cell_angle_beta   109.52445443
_cell_angle_gamma   109.39412829
_symmetry_Int_Tables_number   1
_chemical_formula_structural   KSb12(PdRu)2
_chemical_formula_sum   'K1 Sb12 Pd2 Ru2'
_cell_volume   419.40150672
_cell_formula_units_Z   1
loop_
 _symmetry_equiv_pos_site_id
 _symmetry_equiv_pos_as_xyz
  1  'x, y, z'
loop_
 _atom_site_type_symbol
 _atom_site_label
 _atom_site_symmetry_multiplicity
 _atom_site_fract_x
 _atom_site_fract_y
 _atom_site_fract_z
 _atom_site_occupancy
  K  K0  1  0.00000000  0.00000000  0.00000000  1
  Sb  Sb0  1  0.66114416  0.84872483  0.50018648  1
  Sb  Sb1  1  0.33885584  0.15127517  0.49981352  1
  Sb  Sb2  1  0.84897899  0.18739386  0.34836128  1
  Sb  Sb3  1  0.81868000  0.66151576  0.15716424  1
  Sb  Sb4  1  0.84897899  0.50061671  0.66158413  1
  Sb  Sb5  1  0.18132000  0.33848424  0.84283576  1
  Sb  Sb6  1  0.15102101  0.81260614  0.65163872  1
  Sb  Sb7  1  0.49719971  0.65117591  0.84602380  1
  Sb  Sb8  1  0.50280029  0.34882409  0.15397620  1
  Sb  Sb9  1  0.15102101  0.49938329  0.33841587  1
  Sb  Sb10  1  0.33885584  0.83904232  0.18758067  1
  Sb  Sb11  1  0.66114416  0.16095768  0.81241933  1
  Pd  Pd0  1  0.50000000  0.50000000  0.50000000  1
  Pd  Pd1  1  0.50000000  0.00000000  0.00000000  1
  Ru  Ru0  1  0.00000000  0.00000000  0.50000000  1
  Ru  Ru1  1  0.00000000  0.50000000  0.00000000  1
loop_
_geom_bond_atom_site_label_1
_geom_bond_atom_site_label_2
_geom_bond_distance
_geom_bond_site_symmetry_2
K0 Sb3 3.530794 1_445
K0 Sb5 3.530794 1_554
K0 Sb2 3.557120 1_455
K0 Sb6 3.557120 1_544
K0 Sb9 3.557129 1_555
K0 Sb4 3.557129 1_444
K0 Sb10 3.558570 1_545
K0 Sb11 3.558570 1_454
K0 Sb1 3.558570 1_555
K0 Sb0 3.558570 1_444
K0 Sb8 3.589690 1_555
K0 Sb7 3.589690 1_444
Sb0 Sb11 2.943779 1_565
Sb0 Sb10 2.947061 1_555
Sb1 Sb10 2.943779 1_545
Sb1 Sb11 2.947061 1_555
Sb2 Sb9 2.947273 1_655
Sb2 Sb4 2.953113 1_555
Sb3 Sb7 2.933416 1_554
Sb3 Sb8 2.951754 1_555
Sb4 Sb6 2.947273 1_655
Sb5 Sb8 2.933416 1_556
Sb5 Sb7 2.951754 1_555
Sb6 Sb9 2.953113 1_555
Pd0 Sb7 2.693720 1_555
Pd0 Sb8 2.693720 1_555
Pd0 Sb4 2.703572 1_555
Pd0 Sb9 2.703572 1_555
Pd0 Sb0 2.716391 1_555
Pd0 Sb1 2.716391 1_555
Pd1 Sb8 2.693720 1_555
Pd1 Sb7 2.693720 1_544
Pd1 Sb2 2.703569 1_555
Pd1 Sb6 2.703569 1_544
Pd1 Sb11 2.716390 1_554
Pd1 Sb10 2.716390 1_545
Ru0 Sb1 2.625304 1_555
Ru0 Sb0 2.625304 1_445
Ru0 Sb6 2.631131 1_545
Ru0 Sb2 2.631131 1_455
Ru0 Sb5 2.647493 1_555
Ru0 Sb3 2.647493 1_445
Ru1 Sb10 2.625305 1_555
Ru1 Sb11 2.625305 1_454
Ru1 Sb9 2.631134 1_555
Ru1 Sb4 2.631134 1_454
Ru1 Sb5 2.647493 1_554
Ru1 Sb3 2.647493 1_455
