# generated using pymatgen
data_Cs3BSeS2
_symmetry_space_group_name_H-M   'P 1'
_cell_length_a   6.74982869
_cell_length_b   10.88293104
_cell_length_c   13.93205948
_cell_angle_alpha   77.60908781
_cell_angle_beta   90.00000000
_cell_angle_gamma   90.00000000
_symmetry_Int_Tables_number   1
_chemical_formula_structural   Cs3BSeS2
_chemical_formula_sum   'Cs12 B4 Se4 S8'
_cell_volume   999.58089765
_cell_formula_units_Z   4
loop_
 _symmetry_equiv_pos_site_id
 _symmetry_equiv_pos_as_xyz
  1  'x, y, z'
loop_
 _atom_site_type_symbol
 _atom_site_label
 _atom_site_symmetry_multiplicity
 _atom_site_fract_x
 _atom_site_fract_y
 _atom_site_fract_z
 _atom_site_occupancy
  Cs  Cs0  1  0.64514342  0.24788010  0.50157669  1
  Cs  Cs1  1  0.14514342  0.75211990  0.99842331  1
  Cs  Cs2  1  0.35485658  0.75211990  0.49842331  1
  Cs  Cs3  1  0.85485658  0.24788010  0.00157669  1
  Cs  Cs4  1  0.28320584  0.04061890  0.14340819  1
  Cs  Cs5  1  0.78320584  0.95938110  0.35659181  1
  Cs  Cs6  1  0.71679416  0.95938110  0.85659181  1
  Cs  Cs7  1  0.21679416  0.04061890  0.64340819  1
  Cs  Cs8  1  0.44427694  0.40376201  0.19323235  1
  Cs  Cs9  1  0.94427694  0.59623799  0.30676765  1
  Cs  Cs10  1  0.55572306  0.59623799  0.80676765  1
  Cs  Cs11  1  0.05572306  0.40376201  0.69323235  1
  B  B0  1  0.13138615  0.22880673  0.37485996  1
  B  B1  1  0.63138615  0.77119327  0.12514004  1
  B  B2  1  0.86861385  0.77119327  0.62514004  1
  B  B3  1  0.36861385  0.22880673  0.87485996  1
  Se  Se0  1  0.94105751  0.27710001  0.26178002  1
  Se  Se1  1  0.44105751  0.72289999  0.23821998  1
  Se  Se2  1  0.05894249  0.72289999  0.73821998  1
  Se  Se3  1  0.55894249  0.27710001  0.76178002  1
  S  S0  1  0.28380345  0.08879751  0.38418027  1
  S  S1  1  0.78380345  0.91120249  0.11581973  1
  S  S2  1  0.71619655  0.91120249  0.61581973  1
  S  S3  1  0.21619655  0.08879751  0.88418027  1
  S  S4  1  0.35074509  0.32999150  0.96268374  1
  S  S5  1  0.85074509  0.67000850  0.53731626  1
  S  S6  1  0.64925491  0.67000850  0.03731626  1
  S  S7  1  0.14925491  0.32999150  0.46268374  1
loop_
_geom_bond_atom_site_label_1
_geom_bond_atom_site_label_2
_geom_bond_distance
_geom_bond_site_symmetry_2
Cs0 S7 3.476758 1_555
Cs0 S7 3.530225 1_655
Cs0 S0 3.582781 1_555
Cs0 S2 3.699422 1_545
Cs0 Se3 3.751832 1_555
Cs1 S6 3.476758 1_456
Cs1 S6 3.530225 1_556
Cs1 S1 3.582781 1_456
Cs1 S3 3.699422 1_565
Cs1 Se2 3.751832 1_555
Cs2 S5 3.476758 1_555
Cs2 S5 3.530225 1_455
Cs2 S2 3.582781 1_555
Cs2 S0 3.699422 1_565
Cs2 Se1 3.751832 1_555
Cs3 S4 3.476758 1_654
Cs3 S4 3.530225 1_554
Cs3 S3 3.582781 1_654
Cs3 S1 3.699422 1_545
Cs3 Se0 3.751832 1_555
Cs4 S0 3.504581 1_555
Cs4 S3 3.565153 1_554
Cs4 Se1 3.588274 1_545
Cs4 S4 3.614154 1_554
Cs4 S1 3.704939 1_445
Cs4 S1 3.712281 1_545
Cs5 S1 3.504581 1_555
Cs5 S2 3.565153 1_555
Cs5 Se0 3.588274 1_565
Cs5 S5 3.614154 1_555
Cs5 S0 3.704939 1_565
Cs5 S0 3.712281 1_665
Cs6 S2 3.504581 1_555
Cs6 S1 3.565153 1_556
Cs6 Se3 3.588274 1_565
Cs6 S6 3.614154 1_556
Cs6 S3 3.704939 1_665
Cs6 S3 3.712281 1_565
Cs7 S3 3.504581 1_555
Cs7 S0 3.565153 1_555
Cs7 Se2 3.588274 1_545
Cs7 S7 3.614154 1_555
Cs7 S2 3.704939 1_545
Cs7 S2 3.712281 1_445
Cs8 S6 3.511040 1_555
Cs8 S4 3.530845 1_554
Cs8 Se1 3.659284 1_555
Cs8 Se0 3.673017 1_555
Cs8 Se0 3.712737 1_455
Cs9 S7 3.511040 1_655
Cs9 S5 3.530845 1_555
Cs9 Se0 3.659284 1_555
Cs9 Se1 3.673017 1_655
Cs9 Se1 3.712737 1_555
Cs10 S4 3.511040 1_555
Cs10 S6 3.530845 1_556
Cs10 Se3 3.659284 1_555
Cs10 Se2 3.673017 1_555
Cs10 Se2 3.712737 1_655
Cs11 S5 3.511040 1_455
Cs11 S7 3.530845 1_555
Cs11 Se2 3.659284 1_555
Cs11 Se3 3.673017 1_455
Cs11 Se3 3.712737 1_555
B0 S7 1.817282 1_555
B0 S0 1.819905 1_555
B0 Se0 2.013280 1_455
B0 Cs8 3.524363 1_555
B1 S6 1.817282 1_555
B1 S1 1.819905 1_555
B1 Se1 2.013280 1_555
B1 Cs9 3.524363 1_555
B2 S5 1.817282 1_555
B2 S2 1.819905 1_555
B2 Se2 2.013280 1_655
B2 Cs10 3.524363 1_555
B3 S4 1.817282 1_555
B3 S3 1.819905 1_555
B3 Se3 2.013280 1_555
B3 Cs11 3.524363 1_555
