# generated using pymatgen
data_Hf2Ti3TcIr
_symmetry_space_group_name_H-M   'P 1'
_cell_length_a   7.14871557
_cell_length_b   7.14871542
_cell_length_c   7.14871504
_cell_angle_alpha   37.14733998
_cell_angle_beta   37.14734541
_cell_angle_gamma   37.14733754
_symmetry_Int_Tables_number   1
_chemical_formula_structural   Hf2Ti3TcIr
_chemical_formula_sum   'Hf2 Ti3 Tc1 Ir1'
_cell_volume   119.39795350
_cell_formula_units_Z   1
loop_
 _symmetry_equiv_pos_site_id
 _symmetry_equiv_pos_as_xyz
  1  'x, y, z'
loop_
 _atom_site_type_symbol
 _atom_site_label
 _atom_site_symmetry_multiplicity
 _atom_site_fract_x
 _atom_site_fract_y
 _atom_site_fract_z
 _atom_site_occupancy
  Hf  Hf0  1  0.19469417  0.19469417  0.19469417  1
  Hf  Hf1  1  0.76725643  0.76725643  0.76725643  1
  Ti  Ti0  1  0.34175013  0.34175013  0.34175013  1
  Ti  Ti1  1  0.61238690  0.61238690  0.61238690  1
  Ti  Ti2  1  0.92557480  0.92557480  0.92557480  1
  Tc  Tc0  1  0.48162595  0.48162595  0.48162595  1
  Ir  Ir0  1  0.05170862  0.05170862  0.05170862  1
loop_
_geom_bond_atom_site_label_1
_geom_bond_atom_site_label_2
_geom_bond_distance
_geom_bond_site_symmetry_2
Hf0 Tc0 2.787385 1_545
Hf0 Tc0 2.787385 1_554
Hf0 Tc0 2.787386 1_455
Hf0 Ir0 2.851544 1_555
Hf0 Ti2 2.924577 1_454
Hf0 Ti2 2.924577 1_445
Hf0 Ti2 2.924578 1_544
Hf0 Ti0 2.932719 1_555
Hf0 Ti1 3.121466 1_545
Hf0 Ti1 3.121467 1_455
Hf0 Ti1 3.121467 1_554
Hf0 Hf1 3.230362 1_454
Hf0 Hf1 3.230362 1_544
Hf0 Hf1 3.230362 1_445
Hf1 Tc0 2.796108 1_565
Hf1 Tc0 2.796108 1_556
Hf1 Tc0 2.796108 1_655
Hf1 Ir0 2.804190 1_656
Hf1 Ir0 2.804190 1_665
Hf1 Ir0 2.804190 1_566
Hf1 Ti1 3.088545 1_555
Hf1 Ti2 3.157324 1_555
Hf1 Ti0 3.208137 1_565
Hf1 Ti0 3.208138 1_655
Hf1 Ti0 3.208138 1_556
Ti0 Ti1 2.911454 1_545
Ti0 Ti1 2.911454 1_554
Ti0 Ti1 2.911454 1_455
Ti0 Ti2 3.105261 1_454
Ti0 Ti2 3.105261 1_544
Ti0 Ti2 3.105262 1_445
Ti1 Ti2 2.659811 1_545
Ti1 Ti2 2.659812 1_554
Ti1 Ti2 2.659812 1_455
Tc0 Ti1 2.607750 1_555
Tc0 Ti0 2.789527 1_555
Ir0 Ti2 2.515472 1_444
Ir0 Ti0 2.767415 1_545
Ir0 Ti0 2.767415 1_554
Ir0 Ti0 2.767415 1_455
