# generated using pymatgen
data_TaPd3
_symmetry_space_group_name_H-M   'P 1'
_cell_length_a   3.90425166
_cell_length_b   3.90425113
_cell_length_c   4.86273001
_cell_angle_alpha   113.66877885
_cell_angle_beta   113.66864931
_cell_angle_gamma   89.99998776
_symmetry_Int_Tables_number   1
_chemical_formula_structural   TaPd3
_chemical_formula_sum   'Ta1 Pd3'
_cell_volume   61.01939311
_cell_formula_units_Z   1
loop_
 _symmetry_equiv_pos_site_id
 _symmetry_equiv_pos_as_xyz
  1  'x, y, z'
loop_
 _atom_site_type_symbol
 _atom_site_label
 _atom_site_symmetry_multiplicity
 _atom_site_fract_x
 _atom_site_fract_y
 _atom_site_fract_z
 _atom_site_occupancy
  Ta  Ta0  1  0.00000000  0.00000000  0.00000000  1
  Pd  Pd0  1  0.50000000  0.50000000  0.00000000  1
  Pd  Pd1  1  0.25000000  0.75000000  0.50000000  1
  Pd  Pd2  1  0.75000000  0.25000000  0.50000000  1
loop_
_geom_bond_atom_site_label_1
_geom_bond_atom_site_label_2
_geom_bond_distance
_geom_bond_site_symmetry_2
Pd0 Ta0 2.760722 1_655
Pd0 Ta0 2.760722 1_565
Pd0 Ta0 2.760723 1_665
Pd0 Ta0 2.760723 1_555
Pd0 Pd1 2.795872 1_544
Pd0 Pd2 2.795872 1_565
Pd0 Pd1 2.795876 1_655
Pd0 Pd2 2.795876 1_454
Pd0 Pd2 2.795876 1_554
Pd0 Pd1 2.795876 1_555
Pd0 Pd2 2.795880 1_555
Pd0 Pd1 2.795880 1_554
Pd1 Pd2 2.760722 1_555
Pd1 Pd2 2.760722 1_465
Pd1 Pd2 2.760723 1_455
Pd1 Pd2 2.760723 1_565
Pd1 Ta0 2.795872 1_555
Pd1 Ta0 2.795876 1_666
Pd1 Ta0 2.795876 1_566
Pd1 Ta0 2.795880 1_565
Pd2 Ta0 2.795872 1_666
Pd2 Ta0 2.795876 1_555
Pd2 Ta0 2.795876 1_655
Pd2 Ta0 2.795880 1_656
