# generated using pymatgen
data_NaMnH6Ir
_symmetry_space_group_name_H-M   'P 1'
_cell_length_a   6.87279698
_cell_length_b   6.87279698
_cell_length_c   6.87279698
_cell_angle_alpha   90.00000000
_cell_angle_beta   90.00000000
_cell_angle_gamma   90.00000000
_symmetry_Int_Tables_number   1
_chemical_formula_structural   NaMnH6Ir
_chemical_formula_sum   'Na4 Mn4 H24 Ir4'
_cell_volume   324.63888993
_cell_formula_units_Z   4
loop_
 _symmetry_equiv_pos_site_id
 _symmetry_equiv_pos_as_xyz
  1  'x, y, z'
loop_
 _atom_site_type_symbol
 _atom_site_label
 _atom_site_symmetry_multiplicity
 _atom_site_fract_x
 _atom_site_fract_y
 _atom_site_fract_z
 _atom_site_occupancy
  Na  Na0  1  0.00000000  0.00000000  0.50000000  1
  Na  Na1  1  0.00000000  0.50000000  0.00000000  1
  Na  Na2  1  0.50000000  0.00000000  0.00000000  1
  Na  Na3  1  0.00000000  0.00000000  0.00000000  1
  Mn  Mn0  1  0.50000000  0.50000000  0.50000000  1
  Mn  Mn1  1  0.00000000  0.50000000  0.50000000  1
  Mn  Mn2  1  0.50000000  0.00000000  0.50000000  1
  Mn  Mn3  1  0.50000000  0.50000000  0.00000000  1
  H  H0  1  0.74201733  0.74201733  0.50707048  1
  H  H1  1  0.25798267  0.25798267  0.50707048  1
  H  H2  1  0.02335062  0.73629383  0.73629383  1
  H  H3  1  0.26370617  0.97664938  0.73629383  1
  H  H4  1  0.73629383  0.02335062  0.73629383  1
  H  H5  1  0.97664938  0.26370617  0.73629383  1
  H  H6  1  0.74201733  0.50707048  0.74201733  1
  H  H7  1  0.50707048  0.74201733  0.74201733  1
  H  H8  1  0.49292952  0.25798267  0.74201733  1
  H  H9  1  0.25798267  0.49292952  0.74201733  1
  H  H10  1  0.26370617  0.73629383  0.97664938  1
  H  H11  1  0.73629383  0.26370617  0.97664938  1
  H  H12  1  0.73629383  0.73629383  0.02335062  1
  H  H13  1  0.26370617  0.26370617  0.02335062  1
  H  H14  1  0.25798267  0.50707048  0.25798267  1
  H  H15  1  0.49292952  0.74201733  0.25798267  1
  H  H16  1  0.50707048  0.25798267  0.25798267  1
  H  H17  1  0.74201733  0.49292952  0.25798267  1
  H  H18  1  0.97664938  0.73629383  0.26370617  1
  H  H19  1  0.73629383  0.97664938  0.26370617  1
  H  H20  1  0.26370617  0.02335062  0.26370617  1
  H  H21  1  0.02335062  0.26370617  0.26370617  1
  H  H22  1  0.25798267  0.74201733  0.49292952  1
  H  H23  1  0.74201733  0.25798267  0.49292952  1
  Ir  Ir0  1  0.26678403  0.73321597  0.73321597  1
  Ir  Ir1  1  0.73321597  0.26678403  0.73321597  1
  Ir  Ir2  1  0.73321597  0.73321597  0.26678403  1
  Ir  Ir3  1  0.26678403  0.26678403  0.26678403  1
loop_
_geom_bond_atom_site_label_1
_geom_bond_atom_site_label_2
_geom_bond_distance
_geom_bond_site_symmetry_2
H0 Ir2 1.653654 1_555
H0 Mn0 2.352814 1_555
H0 Mn2 2.431625 1_565
H0 Mn1 2.431625 1_655
H0 Na0 2.507960 1_665
H1 Ir3 1.653654 1_555
H1 Mn0 2.352814 1_555
H1 Mn1 2.431625 1_555
H1 Mn2 2.431625 1_555
H1 Na0 2.507960 1_555
H2 Ir0 1.673336 1_555
H2 Mn1 2.302282 1_555
H2 Na1 2.438836 1_556
H2 Na0 2.438836 1_565
H2 Na3 2.568138 1_566
H3 Ir0 1.673336 1_555
H3 Mn2 2.302282 1_565
H3 Na0 2.438836 1_565
H3 Na2 2.438836 1_566
H3 Na3 2.568138 1_566
H4 Ir1 1.673336 1_555
H4 Mn2 2.302282 1_555
H4 Na2 2.438836 1_556
H4 Na0 2.438836 1_655
H4 Na3 2.568138 1_656
H5 Ir1 1.673336 1_555
H5 Mn1 2.302282 1_655
H5 Na0 2.438836 1_655
H5 Na1 2.438836 1_656
H5 Na3 2.568138 1_656
H6 Ir1 1.653654 1_555
H6 Mn0 2.352814 1_555
H6 Mn3 2.431625 1_556
H6 Mn1 2.431625 1_655
H6 Na1 2.507960 1_656
H7 Ir0 1.653654 1_555
H7 Mn0 2.352814 1_555
H7 Mn3 2.431625 1_556
H7 Mn2 2.431625 1_565
H7 Na2 2.507960 1_566
H8 Ir1 1.653654 1_555
H8 Mn0 2.352814 1_555
H8 Mn2 2.431625 1_555
H8 Mn3 2.431625 1_556
H8 Na2 2.507960 1_556
H9 Ir0 1.653654 1_555
H9 Mn0 2.352814 1_555
H9 Mn1 2.431625 1_555
H9 Mn3 2.431625 1_556
H9 Na1 2.507960 1_556
H10 Ir0 1.673336 1_555
H10 Mn3 2.302282 1_556
H10 Na1 2.438836 1_556
H10 Na2 2.438836 1_566
H10 Na3 2.568138 1_566
H11 Ir1 1.673336 1_555
H11 Mn3 2.302282 1_556
H11 Na2 2.438836 1_556
H11 Na1 2.438836 1_656
H11 Na3 2.568138 1_656
H12 Ir2 1.673336 1_555
H12 Mn3 2.302282 1_555
H12 Na1 2.438836 1_655
H12 Na2 2.438836 1_565
H12 Na3 2.568138 1_665
H13 Ir3 1.673336 1_555
H13 Mn3 2.302282 1_555
H13 Na1 2.438836 1_555
H13 Na2 2.438836 1_555
H13 Na3 2.568138 1_555
H14 Ir3 1.653654 1_555
H14 Mn0 2.352814 1_555
H14 Mn3 2.431625 1_555
H14 Mn1 2.431625 1_555
H14 Na1 2.507960 1_555
H15 Ir2 1.653654 1_555
H15 Mn0 2.352814 1_555
H15 Mn3 2.431625 1_555
H15 Mn2 2.431625 1_565
H15 Na2 2.507960 1_565
H16 Ir3 1.653654 1_555
H16 Mn0 2.352814 1_555
H16 Mn3 2.431625 1_555
H16 Mn2 2.431625 1_555
H16 Na2 2.507960 1_555
H17 Ir2 1.653654 1_555
H17 Mn0 2.352814 1_555
H17 Mn3 2.431625 1_555
H17 Mn1 2.431625 1_655
H17 Na1 2.507960 1_655
H18 Ir2 1.673336 1_555
H18 Mn1 2.302282 1_655
H18 Na1 2.438836 1_655
H18 Na0 2.438836 1_665
H18 Na3 2.568138 1_665
H19 Ir2 1.673336 1_555
H19 Mn2 2.302282 1_565
H19 Na2 2.438836 1_565
H19 Na0 2.438836 1_665
H19 Na3 2.568138 1_665
H20 Ir3 1.673336 1_555
H20 Mn2 2.302282 1_555
H20 Na0 2.438836 1_555
H20 Na2 2.438836 1_555
H20 Na3 2.568138 1_555
H21 Ir3 1.673336 1_555
H21 Mn1 2.302282 1_555
H21 Na0 2.438836 1_555
H21 Na1 2.438836 1_555
H21 Na3 2.568138 1_555
H22 Ir0 1.653654 1_555
H22 Mn0 2.352814 1_555
H22 Mn1 2.431625 1_555
H22 Mn2 2.431625 1_565
H22 Na0 2.507960 1_565
H23 Ir1 1.653654 1_555
H23 Mn0 2.352814 1_555
H23 Mn2 2.431625 1_555
H23 Mn1 2.431625 1_655
H23 Na0 2.507960 1_655
