# generated using pymatgen
data_RbBC7
_symmetry_space_group_name_H-M   'P 1'
_cell_length_a   5.04741660
_cell_length_b   5.04888315
_cell_length_c   5.65526808
_cell_angle_alpha   90.00000000
_cell_angle_beta   90.00000000
_cell_angle_gamma   119.99039824
_symmetry_Int_Tables_number   1
_chemical_formula_structural   RbBC7
_chemical_formula_sum   'Rb1 B1 C7'
_cell_volume   124.82176257
_cell_formula_units_Z   1
loop_
 _symmetry_equiv_pos_site_id
 _symmetry_equiv_pos_as_xyz
  1  'x, y, z'
loop_
 _atom_site_type_symbol
 _atom_site_label
 _atom_site_symmetry_multiplicity
 _atom_site_fract_x
 _atom_site_fract_y
 _atom_site_fract_z
 _atom_site_occupancy
  Rb  Rb0  1  0.98342116  0.96684232  0.50000000  1
  B  B0  1  0.16911591  0.33823282  0.00000000  1
  C  C0  1  0.82730138  0.16683924  0.00000000  1
  C  C1  1  0.33953985  0.16683924  0.00000000  1
  C  C2  1  0.66654436  0.83902383  0.00000000  1
  C  C3  1  0.17247747  0.83902383  0.00000000  1
  C  C4  1  0.83513683  0.67027166  0.00000000  1
  C  C5  1  0.33951373  0.67902946  0.00000000  1
  C  C6  1  0.66695031  0.33390061  0.00000000  1
loop_
_geom_bond_atom_site_label_1
_geom_bond_atom_site_label_2
_geom_bond_distance
_geom_bond_site_symmetry_2
B0 C5 1.490264 1_555
B0 C0 1.494284 1_455
B0 C1 1.494297 1_555
B0 Rb0 3.260835 1_444
B0 Rb0 3.260835 1_445
C0 C6 1.431427 1_555
C0 C2 1.433587 1_545
C0 Rb0 3.229790 1_545
C0 Rb0 3.229790 1_544
C1 C6 1.431418 1_555
C1 C3 1.433587 1_545
C1 Rb0 3.229793 1_444
C1 Rb0 3.229793 1_445
C2 C5 1.429756 1_555
C2 C4 1.474741 1_555
C2 Rb0 3.152495 1_555
C2 Rb0 3.152495 1_554
C3 C5 1.429756 1_555
C3 C4 1.474723 1_455
C3 Rb0 3.152491 1_455
C3 Rb0 3.152491 1_454
C4 C6 1.470912 1_555
C4 Rb0 3.110849 1_555
C4 Rb0 3.110849 1_554
