# generated using pymatgen
data_Ba2GaPtI
_symmetry_space_group_name_H-M   'P 1'
_cell_length_a   4.51058112
_cell_length_b   4.51058142
_cell_length_c   19.31494545
_cell_angle_alpha   90.00000000
_cell_angle_beta   90.00000000
_cell_angle_gamma   120.00001934
_symmetry_Int_Tables_number   1
_chemical_formula_structural   Ba2GaPtI
_chemical_formula_sum   'Ba4 Ga2 Pt2 I2'
_cell_volume   340.32124186
_cell_formula_units_Z   2
loop_
 _symmetry_equiv_pos_site_id
 _symmetry_equiv_pos_as_xyz
  1  'x, y, z'
loop_
 _atom_site_type_symbol
 _atom_site_label
 _atom_site_symmetry_multiplicity
 _atom_site_fract_x
 _atom_site_fract_y
 _atom_site_fract_z
 _atom_site_occupancy
  Ba  Ba0  1  0.00000000  0.00000000  0.38698246  1
  Ba  Ba1  1  0.00000000  0.00000000  0.88698246  1
  Ba  Ba2  1  0.00000000  0.00000000  0.61350520  1
  Ba  Ba3  1  0.00000000  0.00000000  0.11350520  1
  Ga  Ga0  1  0.33333300  0.66666700  0.50079194  1
  Ga  Ga1  1  0.66666700  0.33333300  0.00079194  1
  Pt  Pt0  1  0.66666700  0.33333300  0.49921322  1
  Pt  Pt1  1  0.33333300  0.66666700  0.99921322  1
  I  I0  1  0.33333300  0.66666700  0.24950718  1
  I  I1  1  0.66666700  0.33333300  0.74950718  1
loop_
_geom_bond_atom_site_label_1
_geom_bond_atom_site_label_2
_geom_bond_distance
_geom_bond_site_symmetry_2
Ba0 Pt0 3.388337 1_455
Ba0 Pt0 3.388339 1_555
Ba0 Pt0 3.388339 1_445
Ba0 Ga0 3.407926 1_545
Ba0 Ga0 3.407928 1_445
Ba0 Ga0 3.407928 1_555
Ba0 I0 3.719211 1_545
Ba0 I0 3.719213 1_445
Ba0 I0 3.719214 1_555
Ba1 Pt1 3.388337 1_545
Ba1 Pt1 3.388339 1_445
Ba1 Pt1 3.388339 1_555
Ba1 Ga1 3.407926 1_456
Ba1 Ga1 3.407928 1_556
Ba1 Ga1 3.407928 1_446
Ba1 I1 3.719211 1_455
Ba1 I1 3.719213 1_555
Ba1 I1 3.719214 1_445
Ba2 Ga0 3.394307 1_545
Ba2 Ga0 3.394309 1_445
Ba2 Ga0 3.394309 1_555
Ba2 Pt0 3.413944 1_455
Ba2 Pt0 3.413947 1_555
Ba2 Pt0 3.413947 1_445
Ba2 I1 3.698948 1_455
Ba2 I1 3.698951 1_555
Ba2 I1 3.698951 1_445
Ba3 Ga1 3.394307 1_455
Ba3 Ga1 3.394309 1_555
Ba3 Ga1 3.394309 1_445
Ba3 Pt1 3.413944 1_544
Ba3 Pt1 3.413947 1_444
Ba3 Pt1 3.413947 1_554
Ba3 I0 3.698948 1_545
Ba3 I0 3.698951 1_445
Ba3 I0 3.698951 1_555
Ga0 Pt0 2.604361 1_455
Ga0 Pt0 2.604361 1_565
Ga0 Pt0 2.604369 1_555
Ga1 Pt1 2.604361 1_654
Ga1 Pt1 2.604361 1_544
Ga1 Pt1 2.604369 1_554
