# generated using pymatgen
data_KNiPtO4
_symmetry_space_group_name_H-M   'P 1'
_cell_length_a   3.01209190
_cell_length_b   5.21845369
_cell_length_c   6.37794108
_cell_angle_alpha   83.29767959
_cell_angle_beta   76.36628638
_cell_angle_gamma   89.96018041
_symmetry_Int_Tables_number   1
_chemical_formula_structural   KNiPtO4
_chemical_formula_sum   'K1 Ni1 Pt1 O4'
_cell_volume   96.72341562
_cell_formula_units_Z   1
loop_
 _symmetry_equiv_pos_site_id
 _symmetry_equiv_pos_as_xyz
  1  'x, y, z'
loop_
 _atom_site_type_symbol
 _atom_site_label
 _atom_site_symmetry_multiplicity
 _atom_site_fract_x
 _atom_site_fract_y
 _atom_site_fract_z
 _atom_site_occupancy
  K  K0  1  0.75045559  0.58916012  0.49885394  1
  Ni  Ni0  1  0.49819217  0.49748484  0.00361312  1
  Pt  Pt0  1  0.99993738  0.00033046  0.00015287  1
  O  O0  1  0.07455724  0.67707744  0.85241362  1
  O  O1  1  0.58610135  0.18220854  0.82679502  1
  O  O2  1  0.41275222  0.81712438  0.17550713  1
  O  O3  1  0.92385505  0.31856423  0.15096530  1
loop_
_geom_bond_atom_site_label_1
_geom_bond_atom_site_label_2
_geom_bond_distance
_geom_bond_site_symmetry_2
K0 O2 2.667864 1_555
K0 O2 2.671891 1_655
K0 O3 2.715498 1_555
K0 O0 2.741557 1_555
K0 O0 2.743784 1_655
K0 O1 2.757943 1_555
Ni0 O3 1.939185 1_555
Ni0 O3 1.943893 1_455
Ni0 O0 1.950389 1_554
Ni0 O0 1.955573 1_654
Ni0 O1 2.083381 1_554
Ni0 O2 2.084161 1_555
O0 Pt0 2.013608 1_466
O1 Pt0 2.019327 1_456
O1 Pt0 2.019965 1_556
O2 Pt0 2.028114 1_565
O2 Pt0 2.028631 1_465
O3 Pt0 2.001004 1_555
