# generated using pymatgen
data_Ti2Co(SnIr)2
_symmetry_space_group_name_H-M   'P 1'
_cell_length_a   7.55935659
_cell_length_b   7.55935664
_cell_length_c   7.55935622
_cell_angle_alpha   33.73544732
_cell_angle_beta   33.73544336
_cell_angle_gamma   33.73544266
_symmetry_Int_Tables_number   1
_chemical_formula_structural   Ti2Co(SnIr)2
_chemical_formula_sum   'Ti2 Co1 Sn2 Ir2'
_cell_volume   118.70596653
_cell_formula_units_Z   1
loop_
 _symmetry_equiv_pos_site_id
 _symmetry_equiv_pos_as_xyz
  1  'x, y, z'
loop_
 _atom_site_type_symbol
 _atom_site_label
 _atom_site_symmetry_multiplicity
 _atom_site_fract_x
 _atom_site_fract_y
 _atom_site_fract_z
 _atom_site_occupancy
  Ti  Ti0  1  0.75285743  0.75285743  0.75285743  1
  Ti  Ti1  1  0.24794007  0.24794007  0.24794007  1
  Co  Co0  1  0.37559829  0.37559829  0.37559829  1
  Sn  Sn0  1  0.99628157  0.99628157  0.99628157  1
  Sn  Sn1  1  0.50256129  0.50256129  0.50256129  1
  Ir  Ir0  1  0.12280658  0.12280658  0.12280658  1
  Ir  Ir1  1  0.62695476  0.62695476  0.62695476  1
loop_
_geom_bond_atom_site_label_1
_geom_bond_atom_site_label_2
_geom_bond_distance
_geom_bond_site_symmetry_2
Co0 Ti0 2.701086 1_455
Co0 Ti0 2.701086 1_545
Co0 Ti0 2.701086 1_554
Co0 Sn1 2.712853 1_555
Co0 Sn0 2.716675 1_544
Co0 Sn0 2.716676 1_454
Co0 Sn0 2.716676 1_445
Co0 Ti1 2.727708 1_555
Sn0 Ti1 3.075802 1_665
Sn0 Ti1 3.075802 1_566
Sn0 Ti1 3.075802 1_656
Sn1 Ti1 3.040330 1_556
Sn1 Ti1 3.040330 1_655
Sn1 Ti1 3.040330 1_565
Sn1 Ti0 3.092411 1_554
Sn1 Ti0 3.092411 1_455
Sn1 Ti0 3.092411 1_545
Ir0 Ti0 2.650860 1_544
Ir0 Ti0 2.650861 1_454
Ir0 Ti0 2.650861 1_445
Ir0 Ti1 2.673762 1_555
Ir0 Sn0 2.703494 1_444
Ir0 Sn1 2.720074 1_455
Ir0 Sn1 2.720075 1_545
Ir0 Sn1 2.720075 1_554
Ir1 Sn0 2.646966 1_455
Ir1 Sn0 2.646966 1_545
Ir1 Sn0 2.646967 1_554
Ir1 Sn1 2.657949 1_555
Ir1 Ti0 2.690197 1_555
Ir1 Ti1 2.714348 1_655
Ir1 Ti1 2.714348 1_565
Ir1 Ti1 2.714349 1_556
