# generated using pymatgen
data_SrIr2PbO7
_symmetry_space_group_name_H-M   'P 1'
_cell_length_a   7.31602346
_cell_length_b   7.31602270
_cell_length_c   7.30048349
_cell_angle_alpha   60.07023203
_cell_angle_beta   60.07023545
_cell_angle_gamma   60.03350650
_symmetry_Int_Tables_number   1
_chemical_formula_structural   SrIr2PbO7
_chemical_formula_sum   'Sr2 Ir4 Pb2 O14'
_cell_volume   276.66681493
_cell_formula_units_Z   2
loop_
 _symmetry_equiv_pos_site_id
 _symmetry_equiv_pos_as_xyz
  1  'x, y, z'
loop_
 _atom_site_type_symbol
 _atom_site_label
 _atom_site_symmetry_multiplicity
 _atom_site_fract_x
 _atom_site_fract_y
 _atom_site_fract_z
 _atom_site_occupancy
  Sr  Sr0  1  0.62500000  0.12500000  0.12500000  1
  Sr  Sr1  1  0.12500000  0.62500000  0.12500000  1
  Ir  Ir0  1  0.12500000  0.62500000  0.62500000  1
  Ir  Ir1  1  0.62500000  0.12500000  0.62500000  1
  Ir  Ir2  1  0.62500000  0.62500000  0.12500000  1
  Ir  Ir3  1  0.62500000  0.62500000  0.62500000  1
  Pb  Pb0  1  0.12500000  0.12500000  0.62500000  1
  Pb  Pb1  1  0.12500000  0.12500000  0.12500000  1
  O  O0  1  0.69899038  0.69899038  0.30100962  1
  O  O1  1  0.29641616  0.29641616  0.70358384  1
  O  O2  1  0.71391366  0.29800722  0.68716913  1
  O  O3  1  0.29800722  0.71391366  0.30091000  1
  O  O4  1  0.29800722  0.71391366  0.68716913  1
  O  O5  1  0.71391366  0.29800722  0.30091000  1
  O  O6  1  0.55100962  0.55100962  0.94899038  1
  O  O7  1  0.95358384  0.95358384  0.54641616  1
  O  O8  1  0.53608634  0.95199278  0.56283087  1
  O  O9  1  0.95199278  0.53608634  0.94909000  1
  O  O10  1  0.95199278  0.53608634  0.56283087  1
  O  O11  1  0.53608634  0.95199278  0.94909000  1
  O  O12  1  0.23476584  0.23476584  0.26523416  1
  O  O13  1  0.01523416  0.01523416  0.98476584  1
loop_
_geom_bond_atom_site_label_1
_geom_bond_atom_site_label_2
_geom_bond_distance
_geom_bond_site_symmetry_2
Ir0 O9 1.980294 1_455
Ir0 O3 1.980294 1_555
Ir0 O4 1.980294 1_555
Ir0 O10 1.980294 1_455
Ir0 O7 2.002695 1_455
Ir0 O1 2.002695 1_555
Ir1 O11 1.980294 1_545
Ir1 O5 1.980294 1_555
Ir1 O2 1.980294 1_555
Ir1 O8 1.980294 1_545
Ir1 O7 2.002695 1_545
Ir1 O1 2.002695 1_555
Ir2 O0 1.979408 1_555
Ir2 O6 1.979408 1_554
Ir2 O11 2.002179 1_554
Ir2 O5 2.002179 1_555
Ir2 O9 2.002179 1_554
Ir2 O3 2.002179 1_555
Ir3 O6 1.979408 1_555
Ir3 O0 1.979408 1_555
Ir3 O8 2.002179 1_555
Ir3 O2 2.002179 1_555
Ir3 O10 2.002179 1_555
Ir3 O4 2.002179 1_555
O0 Sr0 2.582692 1_565
O0 Sr1 2.582693 1_655
O1 Pb1 2.545899 1_556
O1 Pb0 2.545899 1_555
O2 Pb0 2.502303 1_655
O2 Sr0 2.636777 1_556
O3 Pb1 2.502303 1_565
O3 Sr1 2.636777 1_555
O4 Pb0 2.502303 1_565
O4 Sr1 2.636777 1_556
O5 Pb1 2.502303 1_655
O5 Sr0 2.636777 1_555
O6 Sr0 2.582692 1_556
O6 Sr1 2.582693 1_556
O7 Pb1 2.545899 1_665
O7 Pb0 2.545899 1_665
O8 Pb0 2.502303 1_565
O8 Sr0 2.636777 1_565
O9 Pb1 2.502303 1_656
O9 Sr1 2.636777 1_656
O10 Pb0 2.502303 1_655
O10 Sr1 2.636777 1_655
O11 Pb1 2.502303 1_566
O11 Sr0 2.636777 1_566
O12 Pb0 2.150099 1_555
O12 Pb1 2.150099 1_555
O12 Sr1 2.336070 1_555
O12 Sr0 2.336070 1_555
O13 Pb0 2.150099 1_555
O13 Pb1 2.150099 1_556
O13 Sr1 2.336070 1_546
O13 Sr0 2.336070 1_456
