# generated using pymatgen
data_Re5TcIr2
_symmetry_space_group_name_H-M   'P 1'
_cell_length_a   5.53612220
_cell_length_b   5.53584213
_cell_length_c   4.38357810
_cell_angle_alpha   90.00000000
_cell_angle_beta   90.00000000
_cell_angle_gamma   120.00167360
_symmetry_Int_Tables_number   1
_chemical_formula_structural   Re5TcIr2
_chemical_formula_sum   'Re5 Tc1 Ir2'
_cell_volume   116.34331124
_cell_formula_units_Z   1
loop_
 _symmetry_equiv_pos_site_id
 _symmetry_equiv_pos_as_xyz
  1  'x, y, z'
loop_
 _atom_site_type_symbol
 _atom_site_label
 _atom_site_symmetry_multiplicity
 _atom_site_fract_x
 _atom_site_fract_y
 _atom_site_fract_z
 _atom_site_occupancy
  Re  Re0  1  0.83984555  0.16315865  0.75000000  1
  Re  Re1  1  0.32331410  0.16315865  0.75000000  1
  Re  Re2  1  0.83839657  0.67679315  0.75000000  1
  Re  Re3  1  0.16250525  0.83907747  0.25000000  1
  Re  Re4  1  0.67657121  0.83907747  0.25000000  1
  Tc  Tc0  1  0.16089497  0.32179095  0.25000000  1
  Ir  Ir0  1  0.66573703  0.33147307  0.25000000  1
  Ir  Ir1  1  0.33273530  0.66547060  0.75000000  1
loop_
_geom_bond_atom_site_label_1
_geom_bond_atom_site_label_2
_geom_bond_distance
_geom_bond_site_symmetry_2
Re0 Re1 2.676541 1_655
Re0 Tc0 2.678293 1_656
Re0 Tc0 2.678293 1_655
Re0 Re4 2.686615 1_546
Re0 Re4 2.686615 1_545
Re0 Re2 2.688441 1_545
Re0 Re2 2.847419 1_555
Re0 Re1 2.859581 1_555
Re1 Tc0 2.678298 1_555
Re1 Tc0 2.678298 1_556
Re1 Re3 2.686615 1_545
Re1 Re3 2.686615 1_546
Re1 Re2 2.688443 1_445
Re1 Re2 2.847416 1_555
Re2 Re3 2.686728 1_656
Re2 Re3 2.686728 1_655
Re2 Re4 2.686731 1_556
Re2 Re4 2.686731 1_555
Re3 Tc0 2.676694 1_565
Re3 Re4 2.690190 1_455
Re3 Re4 2.845932 1_555
Re3 Tc0 2.859169 1_555
Re4 Tc0 2.676694 1_665
Re4 Tc0 2.859169 1_555
Ir0 Re1 2.738495 1_554
Ir0 Re1 2.738495 1_555
Ir0 Re0 2.738495 1_555
Ir0 Re0 2.738495 1_554
Ir0 Re2 2.746746 1_554
Ir0 Re2 2.746746 1_555
Ir0 Re4 2.756305 1_545
Ir0 Re3 2.756311 1_545
Ir0 Tc0 2.768445 1_655
Ir0 Tc0 2.768456 1_555
Ir0 Re3 2.780506 1_655
Ir0 Re4 2.780512 1_555
Ir1 Tc0 2.742013 1_555
Ir1 Tc0 2.742013 1_556
Ir1 Re4 2.742529 1_555
Ir1 Re4 2.742529 1_556
Ir1 Re3 2.742532 1_556
Ir1 Re3 2.742532 1_555
Ir1 Re0 2.755007 1_455
Ir1 Re1 2.755010 1_555
Ir1 Re2 2.768593 1_455
Ir1 Re2 2.768593 1_555
Ir1 Re1 2.781569 1_565
Ir1 Re0 2.781572 1_565
