# generated using pymatgen
data_Sr12SiGe3I8
_symmetry_space_group_name_H-M   'P 1'
_cell_length_a   15.71990348
_cell_length_b   14.98704745
_cell_length_c   8.32528426
_cell_angle_alpha   79.18904085
_cell_angle_beta   69.46518195
_cell_angle_gamma   31.32554900
_symmetry_Int_Tables_number   1
_chemical_formula_structural   Sr12SiGe3I8
_chemical_formula_sum   'Sr12 Si1 Ge3 I8'
_cell_volume   929.28982561
_cell_formula_units_Z   1
loop_
 _symmetry_equiv_pos_site_id
 _symmetry_equiv_pos_as_xyz
  1  'x, y, z'
loop_
 _atom_site_type_symbol
 _atom_site_label
 _atom_site_symmetry_multiplicity
 _atom_site_fract_x
 _atom_site_fract_y
 _atom_site_fract_z
 _atom_site_occupancy
  Sr  Sr0  1  0.36658593  0.94929652  0.58832606  1
  Sr  Sr1  1  0.58803248  0.09605562  0.36631961  1
  Sr  Sr2  1  0.30073105  0.88350395  0.15417121  1
  Sr  Sr3  1  0.94929652  0.36658593  0.09579249  1
  Sr  Sr4  1  0.45302045  0.04721529  0.04701143  1
  Sr  Sr5  1  0.88350395  0.30073105  0.66159279  1
  Sr  Sr6  1  0.09605562  0.58803248  0.94959429  1
  Sr  Sr7  1  0.66144282  0.15428336  0.88365886  1
  Sr  Sr8  1  0.79720439  0.20275687  0.20296240  1
  Sr  Sr9  1  0.20275687  0.79720439  0.79707634  1
  Sr  Sr10  1  0.15428336  0.66144282  0.30061496  1
  Sr  Sr11  1  0.04721529  0.45302045  0.45275284  1
  Si  Si0  1  0.33412311  0.33412311  0.16587689  1
  Ge  Ge0  1  0.08413127  0.08413127  0.91586873  1
  Ge  Ge1  1  0.91585178  0.91585178  0.08414822  1
  Ge  Ge2  1  0.16596481  0.16596481  0.33403519  1
  I  I0  1  0.67313678  0.67313678  0.82686322  1
  I  I1  1  0.74398577  0.74398577  0.25601423  1
  I  I2  1  0.25611726  0.25611726  0.74388274  1
  I  I3  1  0.57681925  0.57681925  0.42318075  1
  I  I4  1  0.99398228  0.99398228  0.50601772  1
  I  I5  1  0.82689273  0.82689273  0.67310727  1
  I  I6  1  0.42293495  0.42293495  0.57706505  1
  I  I7  1  0.50593127  0.50593127  0.99406873  1
loop_
_geom_bond_atom_site_label_1
_geom_bond_atom_site_label_2
_geom_bond_distance
_geom_bond_site_symmetry_2
Si0 Sr10 3.075902 1_555
Si0 Sr7 3.075903 1_554
Si0 Sr4 3.087079 1_555
Si0 Sr11 3.087079 1_555
Si0 Sr6 3.091145 1_554
Si0 Sr1 3.091158 1_555
Ge0 Sr0 3.078659 1_545
Ge0 Sr3 3.078663 1_456
Ge0 Sr9 3.090100 1_545
Ge0 Sr8 3.090100 1_456
Ge0 Sr2 3.095257 1_546
Ge0 Sr5 3.095264 1_455
Ge1 Sr6 3.078687 1_654
Ge1 Sr1 3.078693 1_565
Ge1 Sr8 3.089622 1_565
Ge1 Sr9 3.089622 1_654
Ge1 Sr7 3.095072 1_564
Ge1 Sr10 3.095072 1_655
Ge2 Sr5 3.079198 1_455
Ge2 Sr2 3.079202 1_545
Ge2 Sr11 3.090318 1_555
Ge2 Sr4 3.090318 1_555
Ge2 Sr3 3.095379 1_455
Ge2 Sr0 3.095386 1_545
I0 Sr2 3.483586 1_556
I0 Sr5 3.483589 1_555
I0 Sr4 3.609184 1_566
I0 Sr11 3.609185 1_655
I0 Sr0 3.721772 1_555
I0 Sr3 3.721779 1_556
I1 Sr11 3.421362 1_655
I1 Sr4 3.421362 1_565
I1 Sr3 3.579071 1_555
I1 Sr0 3.579075 1_555
I1 Sr6 3.582331 1_654
I1 Sr1 3.582336 1_565
I2 Sr11 3.422196 1_555
I2 Sr4 3.422196 1_556
I2 Sr1 3.577425 1_555
I2 Sr6 3.577433 1_555
I2 Sr0 3.584865 1_545
I2 Sr3 3.584869 1_456
I3 Sr3 3.485311 1_555
I3 Sr0 3.485314 1_555
I3 Sr8 3.606947 1_555
I3 Sr9 3.606948 1_555
I3 Sr5 3.722182 1_555
I3 Sr2 3.722189 1_555
I4 Sr9 3.420898 1_655
I4 Sr8 3.420898 1_565
I4 Sr10 3.581943 1_655
I4 Sr7 3.581943 1_565
I4 Sr5 3.583809 1_565
I4 Sr2 3.583813 1_655
I5 Sr7 3.483938 1_565
I5 Sr10 3.483939 1_655
I5 Sr11 3.605647 1_655
I5 Sr4 3.605647 1_566
I5 Sr1 3.725629 1_565
I5 Sr6 3.725643 1_655
I6 Sr1 3.481634 1_555
I6 Sr6 3.481643 1_555
I6 Sr9 3.610501 1_555
I6 Sr8 3.610501 1_555
I6 Sr10 3.721775 1_555
I6 Sr7 3.721775 1_555
I7 Sr9 3.422471 1_555
I7 Sr8 3.422471 1_556
I7 Sr7 3.581280 1_555
I7 Sr10 3.581280 1_556
I7 Sr2 3.582007 1_556
I7 Sr5 3.582011 1_555
