# generated using pymatgen
data_Hf2TaNb7N12
_symmetry_space_group_name_H-M   'P 1'
_cell_length_a   5.27662531
_cell_length_b   5.27662556
_cell_length_c   10.48629747
_cell_angle_alpha   90.00000000
_cell_angle_beta   90.00000000
_cell_angle_gamma   119.99999841
_symmetry_Int_Tables_number   1
_chemical_formula_structural   Hf2TaNb7N12
_chemical_formula_sum   'Hf2 Ta1 Nb7 N12'
_cell_volume   252.85138985
_cell_formula_units_Z   1
loop_
 _symmetry_equiv_pos_site_id
 _symmetry_equiv_pos_as_xyz
  1  'x, y, z'
loop_
 _atom_site_type_symbol
 _atom_site_label
 _atom_site_symmetry_multiplicity
 _atom_site_fract_x
 _atom_site_fract_y
 _atom_site_fract_z
 _atom_site_occupancy
  Hf  Hf0  1  0.33333300  0.66666700  0.00000000  1
  Hf  Hf1  1  0.33333300  0.66666700  0.50000000  1
  Ta  Ta0  1  0.66666700  0.33333300  0.50000000  1
  Nb  Nb0  1  0.67695692  0.67698751  0.75007588  1
  Nb  Nb1  1  0.32301249  0.99997041  0.75007588  1
  Nb  Nb2  1  0.00002959  0.32304308  0.75007588  1
  Nb  Nb3  1  0.32301249  0.32304308  0.24992412  1
  Nb  Nb4  1  0.67695692  0.99997041  0.24992412  1
  Nb  Nb5  1  0.00002959  0.67698751  0.24992412  1
  Nb  Nb6  1  0.66666700  0.33333300  0.00000000  1
  N  N0  1  0.65682547  0.65042130  0.37935770  1
  N  N1  1  0.34957870  0.00640417  0.37935770  1
  N  N2  1  0.99359583  0.34317453  0.37935770  1
  N  N3  1  0.34957870  0.34317453  0.62064230  1
  N  N4  1  0.65682547  0.00640417  0.62064230  1
  N  N5  1  0.99359583  0.65042130  0.62064230  1
  N  N6  1  0.34524591  0.34266693  0.87748360  1
  N  N7  1  0.65733307  0.00257898  0.87748360  1
  N  N8  1  0.99742102  0.65475409  0.87748360  1
  N  N9  1  0.65733307  0.65475409  0.12251640  1
  N  N10  1  0.34524591  0.00257898  0.12251640  1
  N  N11  1  0.99742102  0.34266693  0.12251640  1
loop_
_geom_bond_atom_site_label_1
_geom_bond_atom_site_label_2
_geom_bond_distance
_geom_bond_site_symmetry_2
Hf0 N8 2.164438 1_454
Hf0 N10 2.164438 1_565
Hf0 N11 2.164440 1_455
Hf0 N7 2.164440 1_564
Hf0 N9 2.164442 1_555
Hf0 N6 2.164442 1_554
Hf1 N5 2.160505 1_455
Hf1 N1 2.160505 1_565
Hf1 N2 2.160507 1_455
Hf1 N4 2.160507 1_565
Hf1 N0 2.160509 1_555
Hf1 N3 2.160509 1_555
N0 Ta0 2.118842 1_555
N0 Nb3 2.210453 1_555
N0 Nb5 2.210785 1_655
N0 Nb4 2.249338 1_555
N1 Ta0 2.118840 1_555
N1 Nb4 2.210451 1_545
N1 Nb3 2.210789 1_555
N1 Nb5 2.249336 1_545
N2 Ta0 2.118838 1_555
N2 Nb5 2.210455 1_655
N2 Nb4 2.210787 1_545
N2 Nb3 2.249334 1_655
N3 Ta0 2.118842 1_555
N3 Nb0 2.210453 1_555
N3 Nb1 2.210785 1_545
N3 Nb2 2.249338 1_555
N4 Ta0 2.118838 1_555
N4 Nb1 2.210455 1_545
N4 Nb2 2.210787 1_655
N4 Nb0 2.249334 1_545
N5 Ta0 2.118840 1_555
N5 Nb2 2.210451 1_655
N5 Nb0 2.210789 1_555
N5 Nb1 2.249336 1_655
N6 Nb6 2.147790 1_556
N6 Nb1 2.203745 1_545
N6 Nb0 2.207461 1_555
N6 Nb2 2.219287 1_555
N7 Nb6 2.147786 1_556
N7 Nb2 2.203747 1_655
N7 Nb1 2.207463 1_545
N7 Nb0 2.219283 1_545
N8 Nb6 2.147788 1_556
N8 Nb0 2.203749 1_555
N8 Nb2 2.207459 1_655
N8 Nb1 2.219285 1_655
N9 Nb6 2.147790 1_555
N9 Nb5 2.203745 1_655
N9 Nb3 2.207461 1_555
N9 Nb4 2.219287 1_555
N10 Nb6 2.147788 1_555
N10 Nb3 2.203749 1_555
N10 Nb4 2.207459 1_545
N10 Nb5 2.219285 1_545
N11 Nb6 2.147786 1_555
N11 Nb4 2.203747 1_545
N11 Nb5 2.207463 1_655
N11 Nb3 2.219283 1_655
