# generated using pymatgen
data_NbNi2Sn
_symmetry_space_group_name_H-M   'P 1'
_cell_length_a   4.38473945
_cell_length_b   4.38473945
_cell_length_c   4.38473945
_cell_angle_alpha   60.00000000
_cell_angle_beta   60.00000000
_cell_angle_gamma   60.00000000
_symmetry_Int_Tables_number   1
_chemical_formula_structural   NbNi2Sn
_chemical_formula_sum   'Nb1 Ni2 Sn1'
_cell_volume   59.60962341
_cell_formula_units_Z   1
loop_
 _symmetry_equiv_pos_site_id
 _symmetry_equiv_pos_as_xyz
  1  'x, y, z'
loop_
 _atom_site_type_symbol
 _atom_site_label
 _atom_site_symmetry_multiplicity
 _atom_site_fract_x
 _atom_site_fract_y
 _atom_site_fract_z
 _atom_site_occupancy
  Nb  Nb0  1  0.50000000  0.50000000  0.50000000  1
  Ni  Ni0  1  0.25000000  0.25000000  0.25000000  1
  Ni  Ni1  1  0.75000000  0.75000000  0.75000000  1
  Sn  Sn0  1  0.00000000  0.00000000  0.00000000  1
loop_
_geom_bond_atom_site_label_1
_geom_bond_atom_site_label_2
_geom_bond_distance
_geom_bond_site_symmetry_2
Nb0 Ni0 2.685094 1_555
Nb0 Ni1 2.685094 1_555
Nb0 Ni0 2.685094 1_655
Nb0 Ni1 2.685094 1_545
Nb0 Ni0 2.685094 1_556
Nb0 Ni0 2.685094 1_565
Nb0 Ni1 2.685094 1_554
Nb0 Ni1 2.685094 1_455
Nb0 Sn0 3.100479 1_565
Nb0 Sn0 3.100479 1_656
Nb0 Sn0 3.100479 1_655
Nb0 Sn0 3.100479 1_566
Nb0 Sn0 3.100479 1_665
Nb0 Sn0 3.100479 1_556
Ni0 Sn0 2.685094 1_565
Ni0 Sn0 2.685094 1_655
Ni0 Sn0 2.685094 1_555
Ni0 Sn0 2.685094 1_556
Ni1 Sn0 2.685094 1_666
Ni1 Sn0 2.685094 1_656
Ni1 Sn0 2.685094 1_566
Ni1 Sn0 2.685094 1_665
