# generated using pymatgen
data_Ta3Ga2BIr
_symmetry_space_group_name_H-M   'P 1'
_cell_length_a   8.32651730
_cell_length_b   8.32651758
_cell_length_c   8.32660073
_cell_angle_alpha   60.00158496
_cell_angle_beta   60.00158368
_cell_angle_gamma   60.00080435
_symmetry_Int_Tables_number   1
_chemical_formula_structural   Ta3Ga2BIr
_chemical_formula_sum   'Ta12 Ga8 B4 Ir4'
_cell_volume   408.21839832
_cell_formula_units_Z   4
loop_
 _symmetry_equiv_pos_site_id
 _symmetry_equiv_pos_as_xyz
  1  'x, y, z'
loop_
 _atom_site_type_symbol
 _atom_site_label
 _atom_site_symmetry_multiplicity
 _atom_site_fract_x
 _atom_site_fract_y
 _atom_site_fract_z
 _atom_site_occupancy
  Ta  Ta0  1  0.55654048  0.94346055  0.55654451  1
  Ta  Ta1  1  0.30653945  0.69345952  0.69345549  1
  Ta  Ta2  1  0.69345590  0.30654379  0.30654521  1
  Ta  Ta3  1  0.30654379  0.69345590  0.30654521  1
  Ta  Ta4  1  0.69345625  0.69345625  0.30654144  1
  Ta  Ta5  1  0.30654319  0.30654319  0.69345510  1
  Ta  Ta6  1  0.55654375  0.55654375  0.94345856  1
  Ta  Ta7  1  0.94346055  0.55654048  0.55654451  1
  Ta  Ta8  1  0.55654410  0.94345621  0.94345479  1
  Ta  Ta9  1  0.94345681  0.94345681  0.55654490  1
  Ta  Ta10  1  0.69345952  0.30653945  0.69345549  1
  Ta  Ta11  1  0.94345621  0.55654410  0.94345479  1
  Ga  Ga0  1  0.91370244  0.91370244  0.91369637  1
  Ga  Ga1  1  0.99110038  0.33629304  0.33629974  1
  Ga  Ga2  1  0.33629304  0.99110038  0.33629974  1
  Ga  Ga3  1  0.33629573  0.33629573  0.99109979  1
  Ga  Ga4  1  0.91370696  0.25889962  0.91370026  1
  Ga  Ga5  1  0.91370427  0.91370427  0.25890021  1
  Ga  Ga6  1  0.25889962  0.91370696  0.91370026  1
  Ga  Ga7  1  0.33629756  0.33629756  0.33630363  1
  B  B0  1  0.62500000  0.62500000  0.62500000  1
  B  B1  1  0.12500000  0.62500000  0.62500000  1
  B  B2  1  0.62500000  0.12500000  0.62500000  1
  B  B3  1  0.62500000  0.62500000  0.12500000  1
  Ir  Ir0  1  0.12500000  0.12500000  0.12500000  1
  Ir  Ir1  1  0.62500000  0.12500000  0.12500000  1
  Ir  Ir2  1  0.12500000  0.62500000  0.12500000  1
  Ir  Ir3  1  0.12500000  0.12500000  0.62500000  1
loop_
_geom_bond_atom_site_label_1
_geom_bond_atom_site_label_2
_geom_bond_distance
_geom_bond_site_symmetry_2
Ga0 Ir3 2.570307 1_665
Ga0 Ir1 2.570318 1_566
Ga0 Ir2 2.570318 1_656
Ga0 Ta9 2.748544 1_555
Ga0 Ta8 2.748555 1_555
Ga0 Ta11 2.748555 1_555
Ga0 Ga6 2.874325 1_655
Ga0 Ga4 2.874325 1_565
Ga0 Ga5 2.874390 1_556
Ga0 Ta1 2.965065 1_655
Ga0 Ta10 2.965065 1_565
Ga0 Ta4 2.965171 1_556
Ga1 Ir0 2.570232 1_655
Ga1 Ir3 2.570310 1_655
Ga1 Ir2 2.570357 1_655
Ga1 Ta2 2.748484 1_555
Ga1 Ta4 2.748597 1_555
Ga1 Ta10 2.748601 1_555
Ga1 Ga2 2.874288 1_645
Ga1 Ga7 2.874325 1_655
Ga1 Ga3 2.874377 1_654
Ga1 Ta9 2.965046 1_545
Ga1 Ta7 2.965099 1_555
Ga1 Ta11 2.965130 1_554
Ga2 Ir0 2.570232 1_565
Ga2 Ir3 2.570310 1_565
Ga2 Ir1 2.570357 1_565
Ga2 Ta3 2.748484 1_555
Ga2 Ta4 2.748597 1_555
Ga2 Ta1 2.748601 1_555
Ga2 Ga7 2.874325 1_565
Ga2 Ga3 2.874377 1_564
Ga2 Ta9 2.965046 1_455
Ga2 Ta0 2.965099 1_555
Ga2 Ta8 2.965130 1_554
Ga3 Ir0 2.570228 1_556
Ga3 Ir1 2.570316 1_556
Ga3 Ir2 2.570316 1_556
Ga3 Ta5 2.748513 1_555
Ga3 Ta10 2.748639 1_555
Ga3 Ta1 2.748639 1_555
Ga3 Ga7 2.874390 1_556
Ga3 Ta11 2.965046 1_455
Ga3 Ta8 2.965047 1_545
Ga3 Ta6 2.965119 1_555
Ga4 Ir0 2.570232 1_656
Ga4 Ir3 2.570310 1_655
Ga4 Ir1 2.570357 1_556
Ga4 Ta11 2.748484 1_555
Ga4 Ta6 2.748597 1_555
Ga4 Ta7 2.748601 1_555
Ga4 Ga6 2.874288 1_645
Ga4 Ga5 2.874377 1_546
Ga4 Ta5 2.965046 1_655
Ga4 Ta10 2.965099 1_555
Ga4 Ta2 2.965130 1_556
Ga5 Ir0 2.570228 1_665
Ga5 Ir1 2.570316 1_565
Ga5 Ir2 2.570316 1_655
Ga5 Ta9 2.748513 1_555
Ga5 Ta0 2.748639 1_555
Ga5 Ta7 2.748639 1_555
Ga5 Ga6 2.874377 1_654
Ga5 Ta3 2.965046 1_655
Ga5 Ta2 2.965047 1_565
Ga5 Ta4 2.965119 1_555
Ga6 Ir0 2.570232 1_566
Ga6 Ir3 2.570310 1_565
Ga6 Ir2 2.570357 1_556
Ga6 Ta8 2.748484 1_555
Ga6 Ta6 2.748597 1_555
Ga6 Ta0 2.748601 1_555
Ga6 Ta5 2.965046 1_565
Ga6 Ta1 2.965099 1_555
Ga6 Ta3 2.965130 1_556
Ga7 Ir3 2.570307 1_555
Ga7 Ir1 2.570318 1_555
Ga7 Ir2 2.570318 1_555
Ga7 Ta5 2.748544 1_555
Ga7 Ta2 2.748555 1_555
Ga7 Ta3 2.748555 1_555
Ga7 Ta7 2.965065 1_455
Ga7 Ta0 2.965065 1_545
Ga7 Ta6 2.965171 1_554
B0 Ta7 2.232309 1_555
B0 Ta1 2.232309 1_555
B0 Ta0 2.232309 1_555
B0 Ta10 2.232309 1_555
B0 Ta6 2.232334 1_555
B0 Ta4 2.232334 1_555
B1 Ta1 2.232229 1_555
B1 Ta7 2.232229 1_455
B1 Ta9 2.232291 1_455
B1 Ta5 2.232291 1_555
B1 Ta11 2.232325 1_455
B1 Ta3 2.232325 1_555
B2 Ta10 2.232229 1_555
B2 Ta0 2.232229 1_545
B2 Ta9 2.232291 1_545
B2 Ta5 2.232291 1_555
B2 Ta8 2.232325 1_545
B2 Ta2 2.232325 1_555
B3 Ta4 2.232236 1_555
B3 Ta6 2.232236 1_554
B3 Ta11 2.232308 1_554
B3 Ta3 2.232308 1_555
B3 Ta8 2.232308 1_554
B3 Ta2 2.232308 1_555
Ir0 Ta8 2.983879 1_544
Ir0 Ta2 2.983879 1_455
Ir0 Ta11 2.983879 1_454
Ir0 Ta3 2.983879 1_545
Ir0 Ta9 2.983934 1_445
Ir0 Ta5 2.983934 1_554
Ir1 Ta2 2.983818 1_555
Ir1 Ta8 2.983818 1_544
Ir1 Ta6 2.983871 1_554
Ir1 Ta4 2.983871 1_545
Ir1 Ta0 2.983914 1_545
Ir1 Ta10 2.983914 1_554
Ir2 Ta3 2.983818 1_555
Ir2 Ta11 2.983818 1_454
Ir2 Ta6 2.983870 1_554
Ir2 Ta4 2.983870 1_455
Ir2 Ta7 2.983914 1_455
Ir2 Ta1 2.983914 1_554
Ir3 Ta5 2.983792 1_555
Ir3 Ta9 2.983792 1_445
Ir3 Ta0 2.983834 1_545
Ir3 Ta10 2.983834 1_455
Ir3 Ta7 2.983834 1_455
Ir3 Ta1 2.983834 1_545
