# generated using pymatgen
data_Na3GaP3Ir4
_symmetry_space_group_name_H-M   'P 1'
_cell_length_a   6.28852742
_cell_length_b   6.51248090
_cell_length_c   6.28852766
_cell_angle_alpha   110.19427338
_cell_angle_beta   108.73860276
_cell_angle_gamma   110.19426429
_symmetry_Int_Tables_number   1
_chemical_formula_structural   Na3GaP3Ir4
_chemical_formula_sum   'Na3 Ga1 P3 Ir4'
_cell_volume   196.45769467
_cell_formula_units_Z   1
loop_
 _symmetry_equiv_pos_site_id
 _symmetry_equiv_pos_as_xyz
  1  'x, y, z'
loop_
 _atom_site_type_symbol
 _atom_site_label
 _atom_site_symmetry_multiplicity
 _atom_site_fract_x
 _atom_site_fract_y
 _atom_site_fract_z
 _atom_site_occupancy
  Na  Na0  1  0.49002125  0.98150450  0.49002125  1
  Na  Na1  1  0.50997875  0.49148424  0.00000000  1
  Na  Na2  1  0.00000000  0.49148424  0.50997875  1
  Ga  Ga0  1  0.00000000  0.37405064  1.00000000  1
  P  P0  1  0.63585627  0.64541281  0.63585627  1
  P  P1  1  1.00000000  0.00955655  0.36414373  1
  P  P2  1  0.36414373  0.00955655  1.00000000  1
  Ir  Ir0  1  1.00000000  0.74488073  0.00000000  1
  Ir  Ir1  1  0.00000000  0.98600617  0.70594977  1
  Ir  Ir2  1  0.29405023  0.28005640  0.29405023  1
  Ir  Ir3  1  0.70594977  0.98600617  0.00000000  1
loop_
_geom_bond_atom_site_label_1
_geom_bond_atom_site_label_2
_geom_bond_distance
_geom_bond_site_symmetry_2
Na0 P0 2.950298 1_555
Na0 P1 3.012801 1_465
Na0 P2 3.012801 1_564
Na1 P2 2.950305 1_554
Na1 P1 3.012798 1_565
Na1 P0 3.012798 1_554
Na2 P1 2.950304 1_455
Na2 P2 3.012797 1_565
Na2 P0 3.012798 1_455
Ga0 Ir0 2.415024 1_456
Ga0 Ir2 2.565039 1_556
Ga0 Ir1 2.565039 1_545
Ga0 Ir3 2.565040 1_446
Ga0 Na1 3.029273 1_556
Ga0 Na2 3.029273 1_556
Ga0 Na0 3.029273 1_445
Ga0 Na0 3.421647 1_556
Ga0 Na1 3.421650 1_456
Ga0 Na2 3.421651 1_555
Ir0 P0 2.343023 1_554
Ir0 P1 2.343023 1_565
Ir0 P2 2.343024 1_664
Ir0 Na2 2.950952 1_654
Ir0 Na1 2.950952 1_555
Ir0 Na0 2.950953 1_655
Ir1 P1 2.207100 1_465
Ir1 P2 2.351112 1_565
Ir1 P0 2.351112 1_455
Ir1 Na2 3.024994 1_555
Ir1 Na0 3.039624 1_455
Ir1 Na1 3.039627 1_566
Ir2 P0 2.207100 1_555
Ir2 P2 2.351112 1_554
Ir2 P1 2.351112 1_455
Ir2 Na0 3.025000 1_545
Ir2 Na2 3.039627 1_555
Ir2 Na1 3.039627 1_555
Ir3 P2 2.207100 1_564
Ir3 P1 2.351112 1_565
Ir3 P0 2.351112 1_554
Ir3 Na1 3.024994 1_555
Ir3 Na0 3.039624 1_554
Ir3 Na2 3.039627 1_665
