# generated using pymatgen
data_K3Al(SF)2
_symmetry_space_group_name_H-M   'P 1'
_cell_length_a   7.40012219
_cell_length_b   10.40173433
_cell_length_c   11.66729773
_cell_angle_alpha   57.40440663
_cell_angle_beta   90.00000000
_cell_angle_gamma   90.00000000
_symmetry_Int_Tables_number   1
_chemical_formula_structural   K3Al(SF)2
_chemical_formula_sum   'K12 Al4 S8 F8'
_cell_volume   756.62669227
_cell_formula_units_Z   4
loop_
 _symmetry_equiv_pos_site_id
 _symmetry_equiv_pos_as_xyz
  1  'x, y, z'
loop_
 _atom_site_type_symbol
 _atom_site_label
 _atom_site_symmetry_multiplicity
 _atom_site_fract_x
 _atom_site_fract_y
 _atom_site_fract_z
 _atom_site_occupancy
  K  K0  1  0.73920227  0.05831202  0.88926615  1
  K  K1  1  0.87140545  0.51996587  0.14435496  1
  K  K2  1  0.26079773  0.94168798  0.11073385  1
  K  K3  1  0.76079773  0.05831202  0.38926615  1
  K  K4  1  0.12859455  0.48003413  0.85564504  1
  K  K5  1  0.72362755  0.78527234  0.78152007  1
  K  K6  1  0.37140545  0.48003413  0.35564504  1
  K  K7  1  0.22362755  0.21472766  0.71847993  1
  K  K8  1  0.27637245  0.21472766  0.21847993  1
  K  K9  1  0.77637245  0.78527234  0.28152007  1
  K  K10  1  0.23920227  0.94168798  0.61073385  1
  K  K11  1  0.62859455  0.51996587  0.64435496  1
  Al  Al0  1  0.69374866  0.29739498  0.02753301  1
  Al  Al1  1  0.80625134  0.29739498  0.52753301  1
  Al  Al2  1  0.30625134  0.70260502  0.97246699  1
  Al  Al3  1  0.19374866  0.70260502  0.47246699  1
  S  S0  1  0.46229876  0.26255139  0.93125470  1
  S  S1  1  0.57304830  0.14336369  0.59247721  1
  S  S2  1  0.96229876  0.73744861  0.56874530  1
  S  S3  1  0.53770124  0.73744861  0.06874530  1
  S  S4  1  0.03770124  0.26255139  0.43125470  1
  S  S5  1  0.07304830  0.85663631  0.90752279  1
  S  S6  1  0.42695170  0.85663631  0.40752279  1
  S  S7  1  0.92695170  0.14336369  0.09247721  1
  F  F0  1  0.27866726  0.51627824  0.57375394  1
  F  F1  1  0.62228971  0.30452657  0.16683288  1
  F  F2  1  0.77866726  0.48372176  0.92624606  1
  F  F3  1  0.22133274  0.51627824  0.07375394  1
  F  F4  1  0.87771029  0.30452657  0.66683288  1
  F  F5  1  0.72133274  0.48372176  0.42624606  1
  F  F6  1  0.12228971  0.69547343  0.33316712  1
  F  F7  1  0.37771029  0.69547343  0.83316712  1
loop_
_geom_bond_atom_site_label_1
_geom_bond_atom_site_label_2
_geom_bond_distance
_geom_bond_site_symmetry_2
K0 S5 3.173009 1_645
K0 S0 3.173872 1_555
K0 S3 3.196508 1_546
K0 S7 3.254871 1_556
K0 S1 3.314270 1_555
K1 S3 3.137488 1_555
K1 S4 3.198734 1_655
K1 S5 3.420508 1_654
K2 S7 3.173009 1_465
K2 S3 3.173872 1_555
K2 S0 3.196508 1_564
K2 S5 3.254871 1_554
K2 S6 3.314270 1_555
K3 S6 3.173009 1_545
K3 S4 3.173872 1_655
K3 S2 3.196508 1_545
K3 S1 3.254871 1_555
K3 S7 3.314270 1_555
K4 S0 3.137488 1_555
K4 S2 3.198734 1_455
K4 S7 3.420508 1_456
K5 S5 3.251790 1_655
K5 S2 3.295491 1_555
K5 S1 3.336008 1_565
K5 S3 3.402143 1_556
K6 S4 3.137488 1_555
K6 S3 3.198734 1_555
K6 S1 3.420508 1_555
K7 S1 3.251790 1_555
K7 S0 3.295491 1_555
K7 S5 3.336008 1_545
K7 S4 3.402143 1_555
K8 S7 3.251790 1_455
K8 S4 3.295491 1_555
K8 S6 3.336008 1_545
K8 S0 3.402143 1_554
K9 S6 3.251790 1_555
K9 S3 3.295491 1_555
K9 S7 3.336008 1_565
K9 S2 3.402143 1_555
K10 S1 3.173009 1_565
K10 S2 3.173872 1_455
K10 S4 3.196508 1_565
K10 S6 3.254871 1_555
K10 S5 3.314270 1_555
K11 S2 3.137488 1_555
K11 S0 3.198734 1_555
K11 S6 3.420508 1_555
Al0 F1 1.748279 1_555
Al0 F2 1.755012 1_554
Al0 S0 2.182970 1_554
Al0 S7 2.193471 1_555
Al1 F4 1.748279 1_555
Al1 F5 1.755012 1_555
Al1 S4 2.182970 1_655
Al1 S1 2.193471 1_555
Al2 F7 1.748279 1_555
Al2 F3 1.755012 1_556
Al2 S3 2.182970 1_556
Al2 S5 2.193471 1_555
Al3 F6 1.748279 1_555
Al3 F0 1.755012 1_555
Al3 S2 2.182970 1_455
Al3 S6 2.193471 1_555
F0 K7 2.673812 1_555
F0 K11 2.723888 1_555
F0 K6 2.849991 1_555
F0 K4 3.294916 1_555
F1 K8 2.679905 1_555
F1 K3 2.680238 1_555
F1 K1 2.802829 1_555
F2 K5 2.673812 1_555
F2 K4 2.723888 1_655
F2 K1 2.849991 1_556
F2 K11 3.294916 1_555
F3 K8 2.673812 1_555
F3 K1 2.723888 1_455
F3 K4 2.849991 1_554
F3 K6 3.294916 1_555
F4 K7 2.679905 1_655
F4 K0 2.680238 1_555
F4 K11 2.802829 1_555
F5 K9 2.673812 1_555
F5 K6 2.723888 1_555
F5 K11 2.849991 1_555
F5 K1 3.294916 1_555
F6 K9 2.679905 1_455
F6 K2 2.680238 1_555
F6 K6 2.802829 1_555
F7 K5 2.679905 1_555
F7 K10 2.680238 1_555
F7 K4 2.802829 1_555
