# generated using pymatgen
data_Rb3Y(AsO4)2
_symmetry_space_group_name_H-M   'P 1'
_cell_length_a   5.92493504
_cell_length_b   5.92493509
_cell_length_c   7.95200460
_cell_angle_alpha   90.00000000
_cell_angle_beta   90.00000000
_cell_angle_gamma   119.99999976
_symmetry_Int_Tables_number   1
_chemical_formula_structural   Rb3Y(AsO4)2
_chemical_formula_sum   'Rb3 Y1 As2 O8'
_cell_volume   241.75443235
_cell_formula_units_Z   1
loop_
 _symmetry_equiv_pos_site_id
 _symmetry_equiv_pos_as_xyz
  1  'x, y, z'
loop_
 _atom_site_type_symbol
 _atom_site_label
 _atom_site_symmetry_multiplicity
 _atom_site_fract_x
 _atom_site_fract_y
 _atom_site_fract_z
 _atom_site_occupancy
  Rb  Rb0  1  0.33333300  0.66666700  0.71161375  1
  Rb  Rb1  1  0.66666700  0.33333300  0.28838625  1
  Rb  Rb2  1  0.00000000  0.00000000  0.00000000  1
  Y  Y0  1  0.00000000  0.00000000  0.50000000  1
  As  As0  1  0.33333300  0.66666700  0.25780715  1
  As  As1  1  0.66666700  0.33333300  0.74219285  1
  O  O0  1  0.33333300  0.66666700  0.04913058  1
  O  O1  1  0.66666700  0.33333300  0.95086942  1
  O  O2  1  0.17802360  0.82197640  0.33647564  1
  O  O3  1  0.82197640  0.17802360  0.66352436  1
  O  O4  1  0.17802360  0.35604820  0.33647564  1
  O  O5  1  0.82197640  0.64395180  0.66352436  1
  O  O6  1  0.64395180  0.82197640  0.33647564  1
  O  O7  1  0.35604820  0.17802360  0.66352436  1
loop_
_geom_bond_atom_site_label_1
_geom_bond_atom_site_label_2
_geom_bond_distance
_geom_bond_site_symmetry_2
As0 O0 1.659397 1_555
As0 O6 1.712202 1_555
As0 O2 1.712202 1_555
As0 O4 1.712202 1_555
As1 O1 1.659397 1_555
As1 O7 1.712202 1_555
As1 O3 1.712202 1_555
As1 O5 1.712202 1_555
O0 Rb0 2.683935 1_554
O0 Rb2 3.442997 1_565
O0 Rb2 3.443002 1_665
O0 Rb2 3.443003 1_555
O1 Rb1 2.683935 1_556
O1 Rb2 3.442997 1_656
O1 Rb2 3.443002 1_556
O1 Rb2 3.443003 1_666
O2 Y0 2.242448 1_565
O2 Rb1 2.989320 1_455
O2 Rb1 2.989320 1_565
O2 Rb2 3.239877 1_565
O3 Y0 2.242448 1_655
O3 Rb0 2.989320 1_655
O3 Rb0 2.989320 1_545
O3 Rb2 3.239877 1_656
O4 Y0 2.242452 1_555
O4 Rb1 2.989314 1_455
O4 Rb1 2.989326 1_555
O4 Rb2 3.239880 1_555
O5 Y0 2.242452 1_665
O5 Rb0 2.989314 1_655
O5 Rb0 2.989326 1_555
O5 Rb2 3.239880 1_666
O6 Y0 2.242452 1_665
O6 Rb1 2.989314 1_565
O6 Rb1 2.989326 1_555
O6 Rb2 3.239880 1_665
O7 Y0 2.242452 1_555
O7 Rb0 2.989314 1_545
O7 Rb0 2.989326 1_555
O7 Rb2 3.239880 1_556
