# generated using pymatgen
data_CsRb(GeH3)2
_symmetry_space_group_name_H-M   'P 1'
_cell_length_a   5.80940166
_cell_length_b   7.42367728
_cell_length_c   9.45761215
_cell_angle_alpha   89.21992930
_cell_angle_beta   90.00000000
_cell_angle_gamma   90.00000000
_symmetry_Int_Tables_number   1
_chemical_formula_structural   CsRb(GeH3)2
_chemical_formula_sum   'Cs2 Rb2 Ge4 H12'
_cell_volume   407.84180120
_cell_formula_units_Z   2
loop_
 _symmetry_equiv_pos_site_id
 _symmetry_equiv_pos_as_xyz
  1  'x, y, z'
loop_
 _atom_site_type_symbol
 _atom_site_label
 _atom_site_symmetry_multiplicity
 _atom_site_fract_x
 _atom_site_fract_y
 _atom_site_fract_z
 _atom_site_occupancy
  Cs  Cs0  1  0.25000000  0.34655130  0.68833196  1
  Cs  Cs1  1  0.75000000  0.65344870  0.31166804  1
  Rb  Rb0  1  0.75000000  0.84583700  0.81412386  1
  Rb  Rb1  1  0.25000000  0.15416300  0.18587614  1
  Ge  Ge0  1  0.25000000  0.85612623  0.55444073  1
  Ge  Ge1  1  0.75000000  0.14387377  0.44555927  1
  Ge  Ge2  1  0.75000000  0.34269059  0.95349842  1
  Ge  Ge3  1  0.25000000  0.65730941  0.04650158  1
  H  H0  1  0.94873723  0.29061710  0.41645533  1
  H  H1  1  0.44873723  0.70938290  0.58354467  1
  H  H2  1  0.05207740  0.80457041  0.07147777  1
  H  H3  1  0.55207740  0.19542959  0.92852223  1
  H  H4  1  0.05126277  0.70938290  0.58354467  1
  H  H5  1  0.55126277  0.29061710  0.41645533  1
  H  H6  1  0.94792260  0.19542959  0.92852223  1
  H  H7  1  0.44792260  0.80457041  0.07147777  1
  H  H8  1  0.25000000  0.69565858  0.88021294  1
  H  H9  1  0.75000000  0.30434142  0.11978706  1
  H  H10  1  0.75000000  0.18471291  0.61114082  1
  H  H11  1  0.25000000  0.81528709  0.38885918  1
loop_
_geom_bond_atom_site_label_1
_geom_bond_atom_site_label_2
_geom_bond_distance
_geom_bond_site_symmetry_2
Cs0 H6 3.070691 1_455
Cs0 H3 3.070691 1_555
Cs0 H4 3.081822 1_555
Cs0 H1 3.081822 1_555
Cs0 H0 3.142633 1_455
Cs0 H5 3.142633 1_555
Cs0 H8 3.184027 1_555
Cs0 H10 3.230725 1_455
Cs0 H10 3.230725 1_555
Cs0 Ge0 3.870935 1_545
Cs1 H2 3.070691 1_655
Cs1 H7 3.070691 1_555
Cs1 H5 3.081822 1_555
Cs1 H0 3.081822 1_555
Cs1 H1 3.142633 1_555
Cs1 H4 3.142633 1_655
Cs1 H9 3.184027 1_555
Cs1 H11 3.230725 1_555
Cs1 H11 3.230725 1_655
Cs1 Ge1 3.870935 1_565
Ge0 H11 1.599131 1_555
Ge0 H1 1.608512 1_555
Ge0 H4 1.608512 1_555
Ge1 H10 1.599131 1_555
Ge1 H5 1.608512 1_555
Ge1 H0 1.608512 1_555
Ge2 H9 1.594435 1_556
Ge2 H3 1.606245 1_555
Ge2 H6 1.606245 1_555
Ge2 Rb0 3.944002 1_555
Ge3 H8 1.594435 1_554
Ge3 H7 1.606245 1_555
Ge3 H2 1.606245 1_555
Ge3 Rb1 3.944002 1_555
H0 Rb1 2.984112 1_655
H1 Rb0 2.984112 1_555
H2 Rb0 3.012858 1_454
H2 Rb1 3.050327 1_565
H3 Rb1 3.012858 1_556
H3 Rb0 3.050327 1_545
H4 Rb0 2.984112 1_455
H5 Rb1 2.984112 1_555
H6 Rb1 3.012858 1_656
H6 Rb0 3.050327 1_545
H7 Rb0 3.012858 1_554
H7 Rb1 3.050327 1_565
H8 Rb0 3.170480 1_555
H8 Rb0 3.170480 1_455
H9 Rb1 3.170480 1_555
H9 Rb1 3.170480 1_655
H10 Rb0 3.143669 1_545
H11 Rb1 3.143669 1_565
