# generated using pymatgen
data_SmCu6
_symmetry_space_group_name_H-M   'P 1'
_cell_length_a   5.02311657
_cell_length_b   7.95436637
_cell_length_c   9.98555875
_cell_angle_alpha   90.00000000
_cell_angle_beta   90.00000000
_cell_angle_gamma   90.00000000
_symmetry_Int_Tables_number   1
_chemical_formula_structural   SmCu6
_chemical_formula_sum   'Sm4 Cu24'
_cell_volume   398.98008478
_cell_formula_units_Z   4
loop_
 _symmetry_equiv_pos_site_id
 _symmetry_equiv_pos_as_xyz
  1  'x, y, z'
loop_
 _atom_site_type_symbol
 _atom_site_label
 _atom_site_symmetry_multiplicity
 _atom_site_fract_x
 _atom_site_fract_y
 _atom_site_fract_z
 _atom_site_occupancy
  Sm  Sm0  1  0.75000000  0.73979004  0.56388139  1
  Sm  Sm1  1  0.25000000  0.26020996  0.43611861  1
  Sm  Sm2  1  0.75000000  0.23979004  0.93611861  1
  Sm  Sm3  1  0.25000000  0.76020996  0.06388139  1
  Cu  Cu0  1  0.75000000  0.85320376  0.85623669  1
  Cu  Cu1  1  0.25000000  0.14679624  0.14376331  1
  Cu  Cu2  1  0.75000000  0.35320376  0.64376331  1
  Cu  Cu3  1  0.25000000  0.64679624  0.35623669  1
  Cu  Cu4  1  0.75000000  0.18144742  0.24466882  1
  Cu  Cu5  1  0.25000000  0.81855258  0.75533118  1
  Cu  Cu6  1  0.75000000  0.68144742  0.25533118  1
  Cu  Cu7  1  0.25000000  0.31855258  0.74466882  1
  Cu  Cu8  1  0.75000000  0.43594518  0.40404699  1
  Cu  Cu9  1  0.25000000  0.56405482  0.59595301  1
  Cu  Cu10  1  0.75000000  0.93594518  0.09595301  1
  Cu  Cu11  1  0.25000000  0.06405482  0.90404699  1
  Cu  Cu12  1  0.75000000  0.09885332  0.48360365  1
  Cu  Cu13  1  0.25000000  0.90114668  0.51639635  1
  Cu  Cu14  1  0.75000000  0.59885332  0.01639635  1
  Cu  Cu15  1  0.25000000  0.40114668  0.98360365  1
  Cu  Cu16  1  0.99514693  0.56613068  0.80914139  1
  Cu  Cu17  1  0.49514693  0.43386932  0.19085861  1
  Cu  Cu18  1  0.50485307  0.06613068  0.69085861  1
  Cu  Cu19  1  0.00485307  0.93386932  0.30914139  1
  Cu  Cu20  1  0.00485307  0.43386932  0.19085861  1
  Cu  Cu21  1  0.50485307  0.56613068  0.80914139  1
  Cu  Cu22  1  0.49514693  0.93386932  0.30914139  1
  Cu  Cu23  1  0.99514693  0.06613068  0.69085861  1
loop_
_geom_bond_atom_site_label_1
_geom_bond_atom_site_label_2
_geom_bond_distance
_geom_bond_site_symmetry_2
Cu0 Cu10 2.482534 1_556
Cu0 Cu14 2.578960 1_556
Cu0 Cu21 2.636628 1_555
Cu0 Cu16 2.636628 1_555
Cu0 Cu23 2.666845 1_565
Cu0 Cu18 2.666845 1_565
Cu0 Cu5 2.720138 1_555
Cu0 Cu5 2.720138 1_655
Cu0 Sm0 3.055542 1_555
Cu0 Cu11 3.057581 1_565
Cu0 Cu11 3.057581 1_665
Cu0 Sm2 3.176822 1_565
Cu0 Sm3 3.339802 1_656
Cu0 Sm3 3.339802 1_556
Cu1 Cu11 2.482534 1_554
Cu1 Cu15 2.578960 1_554
Cu1 Cu20 2.636628 1_555
Cu1 Cu17 2.636628 1_555
Cu1 Cu22 2.666845 1_545
Cu1 Cu19 2.666845 1_545
Cu1 Cu4 2.720138 1_455
Cu1 Cu4 2.720138 1_555
Cu1 Sm1 3.055542 1_555
Cu1 Cu10 3.057581 1_445
Cu1 Cu10 3.057581 1_545
Cu1 Sm3 3.176822 1_545
Cu1 Sm2 3.339802 1_454
Cu1 Sm2 3.339802 1_554
Cu2 Cu8 2.482534 1_555
Cu2 Cu23 2.636628 1_555
Cu2 Cu21 2.666845 1_555
Cu2 Cu7 2.720138 1_655
Cu2 Cu7 2.720138 1_555
Cu2 Sm2 3.055542 1_555
Cu2 Cu9 3.057581 1_655
Cu2 Cu9 3.057581 1_555
Cu2 Sm0 3.176822 1_555
Cu2 Sm1 3.339802 1_655
Cu2 Sm1 3.339802 1_555
Cu3 Cu9 2.482534 1_555
Cu3 Cu6 2.720138 1_455
Cu3 Cu6 2.720138 1_555
Cu3 Sm3 3.055542 1_555
Cu3 Cu8 3.057581 1_555
Cu3 Cu8 3.057581 1_455
Cu3 Sm1 3.176822 1_555
Cu3 Sm0 3.339802 1_555
Cu3 Sm0 3.339802 1_455
Cu4 Cu8 2.575049 1_555
Cu4 Sm2 3.115801 1_554
Cu4 Sm1 3.217943 1_555
Cu4 Sm1 3.217943 1_655
Cu5 Cu9 2.575049 1_555
Cu5 Sm3 3.115801 1_556
Cu5 Sm0 3.217943 1_555
Cu5 Sm0 3.217943 1_455
Cu6 Cu8 2.453312 1_555
Cu6 Sm0 3.115801 1_555
Cu6 Sm3 3.217943 1_555
Cu6 Sm3 3.217943 1_655
Cu7 Cu9 2.453312 1_555
Cu7 Sm1 3.115801 1_555
Cu7 Sm2 3.217943 1_455
Cu7 Sm2 3.217943 1_555
Cu8 Sm1 2.892146 1_655
Cu8 Sm1 2.892146 1_555
Cu8 Sm0 2.896326 1_555
Cu9 Sm0 2.892146 1_455
Cu9 Sm0 2.892146 1_555
Cu9 Sm1 2.896326 1_555
Cu10 Cu4 2.453312 1_565
Cu10 Cu22 2.484127 1_555
Cu10 Cu19 2.484127 1_655
Cu10 Cu6 2.575049 1_555
Cu10 Cu14 2.796560 1_555
Cu10 Sm3 2.892146 1_555
Cu10 Sm3 2.892146 1_655
Cu10 Sm2 2.896326 1_564
Cu11 Cu5 2.453312 1_545
Cu11 Cu18 2.484127 1_555
Cu11 Cu23 2.484127 1_455
Cu11 Cu7 2.575049 1_555
Cu11 Cu15 2.796560 1_555
Cu11 Sm2 2.892146 1_455
Cu11 Sm2 2.892146 1_555
Cu11 Sm3 2.896326 1_546
Cu12 Cu18 2.422223 1_555
Cu12 Cu23 2.422223 1_555
Cu12 Cu4 2.474699 1_555
Cu12 Cu19 2.529025 1_645
Cu12 Cu22 2.529025 1_545
Cu12 Cu2 2.578960 1_555
Cu12 Cu8 2.796560 1_555
Cu12 Sm1 2.860088 1_655
Cu12 Sm1 2.860088 1_555
Cu12 Sm0 2.966482 1_545
Cu12 Cu13 2.981328 1_645
Cu12 Cu13 2.981328 1_545
Cu13 Cu19 2.422223 1_555
Cu13 Cu22 2.422223 1_555
Cu13 Cu5 2.474699 1_555
Cu13 Cu23 2.529025 1_465
Cu13 Cu18 2.529025 1_565
Cu13 Cu3 2.578960 1_555
Cu13 Cu9 2.796560 1_555
Cu13 Sm0 2.860088 1_455
Cu13 Sm0 2.860088 1_555
Cu13 Sm1 2.966482 1_565
Cu14 Cu21 2.422223 1_554
Cu14 Cu16 2.422223 1_554
Cu14 Cu6 2.474699 1_555
Cu14 Cu17 2.529025 1_555
Cu14 Cu20 2.529025 1_655
Cu14 Sm3 2.860088 1_655
Cu14 Sm3 2.860088 1_555
Cu14 Sm2 2.966482 1_554
Cu14 Cu15 2.981328 1_654
Cu14 Cu15 2.981328 1_554
Cu15 Cu20 2.422223 1_556
Cu15 Cu17 2.422223 1_556
Cu15 Cu7 2.474699 1_555
Cu15 Cu16 2.529025 1_455
Cu15 Cu21 2.529025 1_555
Cu15 Sm2 2.860088 1_455
Cu15 Sm2 2.860088 1_555
Cu15 Sm3 2.966482 1_556
Cu16 Cu7 2.435471 1_655
Cu16 Cu5 2.441108 1_655
Cu16 Cu21 2.462803 1_555
Cu16 Cu9 2.484127 1_655
Cu16 Cu21 2.560313 1_655
Cu16 Cu2 2.666845 1_555
Cu16 Sm0 3.069587 1_555
Cu16 Sm2 3.140441 1_555
Cu16 Sm3 3.239223 1_656
Cu17 Cu6 2.435471 1_555
Cu17 Cu4 2.441108 1_555
Cu17 Cu20 2.462803 1_555
Cu17 Cu8 2.484127 1_555
Cu17 Cu20 2.560313 1_655
Cu17 Cu3 2.666845 1_555
Cu17 Sm1 3.069587 1_555
Cu17 Sm3 3.140441 1_555
Cu17 Sm2 3.239223 1_554
Cu18 Cu5 2.435471 1_545
Cu18 Cu7 2.441108 1_555
Cu18 Cu23 2.462803 1_555
Cu18 Cu23 2.560313 1_455
Cu18 Cu2 2.636628 1_555
Cu18 Sm2 3.069587 1_555
Cu18 Sm0 3.140441 1_545
Cu18 Sm1 3.239223 1_555
Cu19 Cu4 2.435471 1_465
Cu19 Cu6 2.441108 1_455
Cu19 Cu22 2.462803 1_555
Cu19 Cu22 2.560313 1_455
Cu19 Cu3 2.636628 1_555
Cu19 Sm3 3.069587 1_555
Cu19 Sm1 3.140441 1_565
Cu19 Sm0 3.239223 1_455
Cu20 Cu6 2.435471 1_455
Cu20 Cu4 2.441108 1_455
Cu20 Cu8 2.484127 1_455
Cu20 Cu3 2.666845 1_555
Cu20 Sm1 3.069587 1_555
Cu20 Sm3 3.140441 1_555
Cu20 Sm2 3.239223 1_454
Cu21 Cu7 2.435471 1_555
Cu21 Cu5 2.441108 1_555
Cu21 Cu9 2.484127 1_555
Cu21 Sm0 3.069587 1_555
Cu21 Sm2 3.140441 1_555
Cu21 Sm3 3.239223 1_556
Cu22 Cu4 2.435471 1_565
Cu22 Cu6 2.441108 1_555
Cu22 Cu3 2.636628 1_555
Cu22 Sm3 3.069587 1_555
Cu22 Sm1 3.140441 1_565
Cu22 Sm0 3.239223 1_555
Cu23 Cu5 2.435471 1_645
Cu23 Cu7 2.441108 1_655
Cu23 Sm2 3.069587 1_555
Cu23 Sm0 3.140441 1_545
Cu23 Sm1 3.239223 1_655
