# generated using pymatgen
data_Cu2SiRh3Se8
_symmetry_space_group_name_H-M   'P 1'
_cell_length_a   7.24000473
_cell_length_b   7.24000458
_cell_length_c   7.24000401
_cell_angle_alpha   60.83047716
_cell_angle_beta   60.83047814
_cell_angle_gamma   60.83047484
_symmetry_Int_Tables_number   1
_chemical_formula_structural   Cu2SiRh3Se8
_chemical_formula_sum   'Cu2 Si1 Rh3 Se8'
_cell_volume   273.37552417
_cell_formula_units_Z   1
loop_
 _symmetry_equiv_pos_site_id
 _symmetry_equiv_pos_as_xyz
  1  'x, y, z'
loop_
 _atom_site_type_symbol
 _atom_site_label
 _atom_site_symmetry_multiplicity
 _atom_site_fract_x
 _atom_site_fract_y
 _atom_site_fract_z
 _atom_site_occupancy
  Cu  Cu0  1  0.49964044  0.49964044  0.49964044  1
  Cu  Cu1  1  0.75035956  0.75035956  0.75035956  1
  Si  Si0  1  0.12500000  0.12500000  0.12500000  1
  Rh  Rh0  1  0.12500000  0.12500000  0.62500000  1
  Rh  Rh1  1  0.12500000  0.62500000  0.12500000  1
  Rh  Rh2  1  0.62500000  0.12500000  0.12500000  1
  Se  Se0  1  0.34635071  0.88525878  0.88525878  1
  Se  Se1  1  0.36550809  0.36550809  0.36550809  1
  Se  Se2  1  0.90364929  0.36474122  0.36474122  1
  Se  Se3  1  0.88525878  0.88525878  0.34635071  1
  Se  Se4  1  0.88449191  0.88449191  0.88449191  1
  Se  Se5  1  0.36474122  0.90364929  0.36474122  1
  Se  Se6  1  0.36474122  0.36474122  0.90364929  1
  Se  Se7  1  0.88525878  0.34635071  0.88525878  1
loop_
_geom_bond_atom_site_label_1
_geom_bond_atom_site_label_2
_geom_bond_distance
_geom_bond_site_symmetry_2
Cu0 Se1 2.363706 1_555
Cu0 Se6 2.413265 1_555
Cu0 Se5 2.413265 1_555
Cu0 Se2 2.413265 1_555
Cu1 Se4 2.363706 1_555
Cu1 Se3 2.413265 1_555
Cu1 Se7 2.413265 1_555
Cu1 Se0 2.413265 1_555
Rh0 Se1 2.484251 1_555
Rh0 Se4 2.484251 1_445
Rh0 Se2 2.485040 1_455
Rh0 Se0 2.485040 1_545
Rh0 Se5 2.485040 1_545
Rh0 Se7 2.485040 1_455
Rh1 Se1 2.484251 1_555
Rh1 Se4 2.484251 1_454
Rh1 Se6 2.485040 1_554
Rh1 Se3 2.485040 1_455
Rh1 Se2 2.485040 1_455
Rh1 Se0 2.485040 1_554
Rh2 Se1 2.484251 1_555
Rh2 Se4 2.484251 1_544
Rh2 Se6 2.485040 1_554
Rh2 Se3 2.485040 1_545
Rh2 Se5 2.485040 1_545
Rh2 Se7 2.485040 1_554
Se0 Si0 2.471341 1_566
Se2 Si0 2.471341 1_655
Se3 Si0 2.471341 1_665
Se5 Si0 2.471341 1_565
Se6 Si0 2.471341 1_556
Se7 Si0 2.471341 1_656
