# generated using pymatgen
data_Zr6CdAgN2
_symmetry_space_group_name_H-M   'P 1'
_cell_length_a   6.15909494
_cell_length_b   6.15909500
_cell_length_c   9.10568188
_cell_angle_alpha   90.00000000
_cell_angle_beta   90.00000000
_cell_angle_gamma   148.46797526
_symmetry_Int_Tables_number   1
_chemical_formula_structural   Zr6CdAgN2
_chemical_formula_sum   'Zr6 Cd1 Ag1 N2'
_cell_volume   180.64554241
_cell_formula_units_Z   1
loop_
 _symmetry_equiv_pos_site_id
 _symmetry_equiv_pos_as_xyz
  1  'x, y, z'
loop_
 _atom_site_type_symbol
 _atom_site_label
 _atom_site_symmetry_multiplicity
 _atom_site_fract_x
 _atom_site_fract_y
 _atom_site_fract_z
 _atom_site_occupancy
  Zr  Zr0  1  0.62359429  0.37640571  0.95377547  1
  Zr  Zr1  1  0.37924114  0.62075886  0.45887207  1
  Zr  Zr2  1  0.37924114  0.62075886  0.04112793  1
  Zr  Zr3  1  0.62359429  0.37640571  0.54622453  1
  Zr  Zr4  1  0.95722522  0.04277478  0.75000000  1
  Zr  Zr5  1  0.03798861  0.96201139  0.25000000  1
  Cd  Cd0  1  0.74465047  0.25534953  0.25000000  1
  Ag  Ag0  1  0.25292177  0.74707823  0.75000000  1
  N  N0  1  0.00077103  0.99922897  0.99866695  1
  N  N1  1  0.00077103  0.99922897  0.50133305  1
loop_
_geom_bond_atom_site_label_1
_geom_bond_atom_site_label_2
_geom_bond_distance
_geom_bond_site_symmetry_2
Cd0 Zr5 2.966935 1_545
Cd0 Zr5 2.966935 1_655
Cd0 Zr1 2.993929 1_655
Cd0 Zr2 2.993929 1_655
Cd0 Zr2 2.993929 1_545
Cd0 Zr1 2.993929 1_545
Cd0 Zr3 3.055333 1_555
Cd0 Zr0 3.055333 1_554
Ag0 Zr0 2.931557 1_455
Ag0 Zr3 2.931557 1_455
Ag0 Zr0 2.931557 1_565
Ag0 Zr3 2.931557 1_565
Ag0 Zr4 2.943890 1_565
Ag0 Zr4 2.943891 1_455
Ag0 Zr1 3.044641 1_555
Ag0 Zr2 3.044641 1_556
N0 Zr2 2.241803 1_456
N0 Zr2 2.241803 1_566
N0 Zr0 2.255592 1_565
N0 Zr0 2.255592 1_455
N0 Zr4 2.322383 1_465
N0 Zr5 2.330700 1_556
N1 Zr1 2.241803 1_455
N1 Zr1 2.241803 1_565
N1 Zr3 2.255592 1_565
N1 Zr3 2.255592 1_455
N1 Zr4 2.322383 1_465
N1 Zr5 2.330700 1_555
