# generated using pymatgen
data_LiYMgPt3
_symmetry_space_group_name_H-M   'P 1'
_cell_length_a   5.05718224
_cell_length_b   5.05718086
_cell_length_c   5.05718205
_cell_angle_alpha   65.22523090
_cell_angle_beta   65.22524379
_cell_angle_gamma   65.22523282
_symmetry_Int_Tables_number   1
_chemical_formula_structural   LiYMgPt3
_chemical_formula_sum   'Li1 Y1 Mg1 Pt3'
_cell_volume   101.87036673
_cell_formula_units_Z   1
loop_
 _symmetry_equiv_pos_site_id
 _symmetry_equiv_pos_as_xyz
  1  'x, y, z'
loop_
 _atom_site_type_symbol
 _atom_site_label
 _atom_site_symmetry_multiplicity
 _atom_site_fract_x
 _atom_site_fract_y
 _atom_site_fract_z
 _atom_site_occupancy
  Li  Li0  1  0.62195598  0.62195598  0.62195598  1
  Y  Y0  1  0.00323730  0.00323730  0.00323730  1
  Mg  Mg0  1  0.25742228  0.25742228  0.25742228  1
  Pt  Pt0  1  0.62162503  0.62162503  0.12413539  1
  Pt  Pt1  1  0.62162503  0.12413539  0.62162503  1
  Pt  Pt2  1  0.12413539  0.62162503  0.62162503  1
loop_
_geom_bond_atom_site_label_1
_geom_bond_atom_site_label_2
_geom_bond_distance
_geom_bond_site_symmetry_2
Li0 Pt1 2.518973 1_555
Li0 Pt0 2.518973 1_555
Li0 Pt2 2.518973 1_555
Li0 Pt1 2.538211 1_565
Li0 Pt0 2.538211 1_556
Li0 Pt2 2.538211 1_655
Li0 Mg0 3.168987 1_565
Li0 Mg0 3.168987 1_556
Li0 Mg0 3.168988 1_655
Li0 Y0 3.198346 1_656
Li0 Y0 3.198347 1_665
Li0 Y0 3.198347 1_566
Mg0 Pt2 2.828646 1_555
Mg0 Pt0 2.828646 1_555
Mg0 Pt1 2.828647 1_555
Mg0 Y0 3.018590 1_555
Mg0 Pt2 3.161915 1_545
Mg0 Pt0 3.161915 1_545
Mg0 Pt2 3.161915 1_554
Mg0 Pt0 3.161915 1_455
Mg0 Pt1 3.161915 1_554
Mg0 Pt1 3.161916 1_455
Mg0 Y0 3.284610 1_565
Mg0 Y0 3.284611 1_556
Mg0 Y0 3.284611 1_655
Pt0 Pt1 2.711915 1_555
Pt0 Pt2 2.711916 1_555
Pt0 Pt1 2.739284 1_564
Pt0 Pt2 2.739285 1_654
Pt0 Y0 2.994388 1_665
Pt0 Y0 3.071418 1_655
Pt0 Y0 3.071419 1_565
Pt1 Pt2 2.711915 1_555
Pt1 Pt2 2.739284 1_645
Pt1 Y0 2.994389 1_656
Pt1 Y0 3.071419 1_655
Pt1 Y0 3.071419 1_556
Pt2 Y0 2.994388 1_566
Pt2 Y0 3.071418 1_556
Pt2 Y0 3.071419 1_565
