# generated using pymatgen
data_Zr16Ir3Pd5N4
_symmetry_space_group_name_H-M   'P 1'
_cell_length_a   8.81553465
_cell_length_b   8.83120883
_cell_length_c   8.83120877
_cell_angle_alpha   60.00000022
_cell_angle_beta   59.94116639
_cell_angle_gamma   59.94117220
_symmetry_Int_Tables_number   1
_chemical_formula_structural   Zr16Ir3Pd5N4
_chemical_formula_sum   'Zr16 Ir3 Pd5 N4'
_cell_volume   485.72136542
_cell_formula_units_Z   1
loop_
 _symmetry_equiv_pos_site_id
 _symmetry_equiv_pos_as_xyz
  1  'x, y, z'
loop_
 _atom_site_type_symbol
 _atom_site_label
 _atom_site_symmetry_multiplicity
 _atom_site_fract_x
 _atom_site_fract_y
 _atom_site_fract_z
 _atom_site_occupancy
  Zr  Zr0  1  0.10608676  0.63130408  0.63130408  1
  Zr  Zr1  1  0.63083057  0.11327139  0.62794852  1
  Zr  Zr2  1  0.63083057  0.62794852  0.11327139  1
  Zr  Zr3  1  0.63083057  0.62794852  0.62794852  1
  Zr  Zr4  1  0.81778981  0.81775906  0.18222556  1
  Zr  Zr5  1  0.17869673  0.18468471  0.81830928  1
  Zr  Zr6  1  0.81778981  0.18222556  0.81775906  1
  Zr  Zr7  1  0.17869673  0.81830928  0.18468471  1
  Zr  Zr8  1  0.17869673  0.81830928  0.81830928  1
  Zr  Zr9  1  0.81778981  0.18222556  0.18222556  1
  Zr  Zr10  1  0.43264997  0.43149475  0.06792764  1
  Zr  Zr11  1  0.06692081  0.06699406  0.43304257  1
  Zr  Zr12  1  0.43264997  0.06792764  0.43149475  1
  Zr  Zr13  1  0.06692081  0.43304257  0.06699406  1
  Zr  Zr14  1  0.06692081  0.43304257  0.43304257  1
  Zr  Zr15  1  0.43264997  0.06792764  0.06792764  1
  Ir  Ir0  1  0.84525088  0.46009580  0.84732666  1
  Ir  Ir1  1  0.84525088  0.84732666  0.46009580  1
  Ir  Ir2  1  0.84525088  0.84732666  0.84732666  1
  Pd  Pd0  1  0.76655613  0.41114796  0.41114796  1
  Pd  Pd1  1  0.41094159  0.76431440  0.41237250  1
  Pd  Pd2  1  0.41094159  0.41237250  0.76431440  1
  Pd  Pd3  1  0.41094159  0.41237250  0.41237250  1
  Pd  Pd4  1  0.47236949  0.84254284  0.84254284  1
  N  N0  1  0.62390920  0.12536393  0.12536393  1
  N  N1  1  0.12727945  0.62253225  0.12509465  1
  N  N2  1  0.12727945  0.12509465  0.62253225  1
  N  N3  1  0.12727945  0.12509465  0.12509465  1
loop_
_geom_bond_atom_site_label_1
_geom_bond_atom_site_label_2
_geom_bond_distance
_geom_bond_site_symmetry_2
Ir0 Zr5 2.707113 1_655
Ir0 Zr0 2.723366 1_655
Ir0 Zr6 2.729059 1_555
Ir0 Zr9 2.729059 1_556
Ir0 Zr2 2.741073 1_556
Ir0 Zr3 2.741080 1_555
Ir1 Zr7 2.707113 1_655
Ir1 Zr0 2.723366 1_655
Ir1 Zr4 2.729059 1_555
Ir1 Zr9 2.729059 1_565
Ir1 Zr1 2.741073 1_565
Ir1 Zr3 2.741080 1_555
Ir2 Zr8 2.707113 1_655
Ir2 Zr0 2.723371 1_655
Ir2 Zr4 2.729059 1_556
Ir2 Zr6 2.729059 1_565
Ir2 Zr2 2.741078 1_556
Ir2 Zr1 2.741078 1_565
Pd0 Zr3 2.799825 1_555
Pd0 Zr1 2.799832 1_555
Pd0 Zr2 2.799832 1_555
Pd0 Zr14 2.854678 1_655
Pd0 Zr13 2.854678 1_655
Pd0 Zr11 2.854679 1_655
Pd1 Zr3 2.810331 1_555
Pd1 Zr2 2.810346 1_555
Pd1 Zr0 2.833098 1_555
Pd1 Zr11 2.861505 1_565
Pd1 Zr12 2.872901 1_565
Pd1 Zr15 2.872906 1_565
Pd2 Zr3 2.810331 1_555
Pd2 Zr1 2.810346 1_555
Pd2 Zr0 2.833098 1_555
Pd2 Zr13 2.861505 1_556
Pd2 Zr10 2.872901 1_556
Pd2 Zr15 2.872906 1_556
Pd3 Zr2 2.810336 1_555
Pd3 Zr1 2.810336 1_555
Pd3 Zr0 2.833088 1_555
Pd3 Zr14 2.861509 1_555
Pd3 Zr10 2.872909 1_555
Pd3 Zr12 2.872909 1_555
Pd4 Zr3 2.724300 1_555
Pd4 Zr1 2.724307 1_565
Pd4 Zr2 2.724307 1_556
Pd4 Zr8 2.819537 1_555
Pd4 Zr7 2.819547 1_556
Pd4 Zr5 2.819547 1_565
N0 Zr12 2.308263 1_555
N0 Zr10 2.308263 1_555
N0 Zr15 2.308269 1_555
N0 Zr9 2.323210 1_555
N0 Zr6 2.323216 1_554
N0 Zr4 2.323216 1_545
N1 Zr10 2.299687 1_555
N1 Zr14 2.317508 1_555
N1 Zr13 2.317514 1_555
N1 Zr7 2.324985 1_555
N1 Zr8 2.324991 1_554
N1 Zr4 2.334397 1_455
N2 Zr12 2.299687 1_555
N2 Zr14 2.317508 1_555
N2 Zr11 2.317514 1_555
N2 Zr5 2.324985 1_555
N2 Zr8 2.324991 1_545
N2 Zr6 2.334397 1_455
N3 Zr15 2.299685 1_555
N3 Zr11 2.317506 1_555
N3 Zr13 2.317506 1_555
N3 Zr5 2.324993 1_554
N3 Zr7 2.324993 1_545
N3 Zr9 2.334399 1_455
