# generated using pymatgen
data_Na16ZrGeAs8
_symmetry_space_group_name_H-M   'P 1'
_cell_length_a   9.76975094
_cell_length_b   9.76975027
_cell_length_c   9.76975064
_cell_angle_alpha   59.99999875
_cell_angle_beta   60.00000102
_cell_angle_gamma   60.00000030
_symmetry_Int_Tables_number   1
_chemical_formula_structural   Na16ZrGeAs8
_chemical_formula_sum   'Na16 Zr1 Ge1 As8'
_cell_volume   659.37949412
_cell_formula_units_Z   1
loop_
 _symmetry_equiv_pos_site_id
 _symmetry_equiv_pos_as_xyz
  1  'x, y, z'
loop_
 _atom_site_type_symbol
 _atom_site_label
 _atom_site_symmetry_multiplicity
 _atom_site_fract_x
 _atom_site_fract_y
 _atom_site_fract_z
 _atom_site_occupancy
  Na  Na0  1  0.62963531  0.62963531  0.11109608  1
  Na  Na1  1  0.62963531  0.11109608  0.62963531  1
  Na  Na2  1  0.11109608  0.62963531  0.62963531  1
  Na  Na3  1  0.62963531  0.62963531  0.62963531  1
  Na  Na4  1  0.03034462  0.46965538  0.46965538  1
  Na  Na5  1  0.77303852  0.22696148  0.22696148  1
  Na  Na6  1  0.46965538  0.03034462  0.46965538  1
  Na  Na7  1  0.46965538  0.46965538  0.03034462  1
  Na  Na8  1  0.03034462  0.03034462  0.46965538  1
  Na  Na9  1  0.03034462  0.46965538  0.03034462  1
  Na  Na10  1  0.46965538  0.03034462  0.03034462  1
  Na  Na11  1  0.77303852  0.22696148  0.77303852  1
  Na  Na12  1  0.22696148  0.77303852  0.22696148  1
  Na  Na13  1  0.22696148  0.22696148  0.77303852  1
  Na  Na14  1  0.77303852  0.77303852  0.22696148  1
  Na  Na15  1  0.22696148  0.77303852  0.77303852  1
  Zr  Zr0  1  0.50000000  0.50000000  0.50000000  1
  Ge  Ge0  1  0.75000000  0.75000000  0.75000000  1
  As  As0  1  0.85517458  0.85517458  0.43447925  1
  As  As1  1  0.85517458  0.43447925  0.85517458  1
  As  As2  1  0.39122386  0.39122386  0.82632643  1
  As  As3  1  0.39122386  0.82632643  0.39122386  1
  As  As4  1  0.82632643  0.39122386  0.39122386  1
  As  As5  1  0.85517458  0.85517458  0.85517458  1
  As  As6  1  0.43447925  0.85517458  0.85517458  1
  As  As7  1  0.39122386  0.39122386  0.39122386  1
loop_
_geom_bond_atom_site_label_1
_geom_bond_atom_site_label_2
_geom_bond_distance
_geom_bond_site_symmetry_2
Na0 Zr0 3.102274 1_555
Na0 Na14 3.215854 1_555
Na0 Na5 3.215870 1_555
Na0 Na12 3.215870 1_555
Na0 Na10 3.227533 1_565
Na0 Na9 3.227534 1_655
Na0 Na7 3.227550 1_555
Na1 Zr0 3.102274 1_555
Na1 Na11 3.215854 1_555
Na1 Na5 3.215870 1_555
Na1 Na13 3.215870 1_555
Na1 Na10 3.227533 1_556
Na1 Na8 3.227534 1_655
Na1 Na6 3.227550 1_555
Na2 Zr0 3.102274 1_555
Na2 Na8 3.227533 1_565
Na2 Na9 3.227533 1_556
Na2 Na4 3.227550 1_555
Na3 Zr0 3.102290 1_555
Na3 Na6 3.227536 1_565
Na3 Na7 3.227536 1_556
Na3 Na4 3.227536 1_655
Na11 Na3 3.215869 1_555
Na12 Na2 3.215870 1_555
Na13 Na2 3.215870 1_555
Na14 Na3 3.215869 1_555
Na15 Na2 3.215854 1_555
Na15 Na3 3.215869 1_555
Ge0 Na3 2.880436 1_555
Ge0 Na1 2.880452 1_565
Ge0 Na0 2.880452 1_556
Ge0 Na2 2.880452 1_655
As0 Ge0 2.516899 1_555
As0 Na5 3.048892 1_565
As0 Na12 3.048893 1_655
As0 Na14 3.048914 1_555
As0 Na1 3.130265 1_565
As0 Na2 3.130265 1_655
As0 Na3 3.130272 1_555
As0 Na8 3.175013 1_665
As0 Na4 3.175038 1_655
As0 Na6 3.175038 1_565
As1 Ge0 2.516899 1_555
As1 Na5 3.048892 1_556
As1 Na13 3.048893 1_655
As1 Na11 3.048914 1_555
As1 Na2 3.130265 1_655
As1 Na0 3.130265 1_556
As1 Na3 3.130272 1_555
As1 Na9 3.175013 1_656
As1 Na4 3.175038 1_655
As1 Na7 3.175038 1_556
As2 Zr0 2.603096 1_555
As2 Na10 2.964600 1_556
As2 Na9 2.964600 1_556
As2 Na7 2.964614 1_556
As2 Na13 3.109366 1_555
As2 Na15 3.109383 1_555
As2 Na11 3.109383 1_555
As2 Na1 3.319107 1_555
As2 Na2 3.319107 1_555
As2 Na3 3.319137 1_555
As3 Zr0 2.603095 1_555
As3 Na10 2.964600 1_565
As3 Na8 2.964600 1_565
As3 Na6 2.964614 1_565
As3 Na12 3.109366 1_555
As3 Na15 3.109383 1_555
As3 Na14 3.109383 1_555
As3 Na2 3.319107 1_555
As3 Na0 3.319107 1_555
As3 Na3 3.319137 1_555
As4 Zr0 2.603096 1_555
As4 Na8 2.964600 1_655
As4 Na9 2.964600 1_655
As4 Na4 2.964614 1_655
As4 Na5 3.109366 1_555
As4 Na14 3.109383 1_555
As4 Na11 3.109383 1_555
As4 Na1 3.319107 1_555
As4 Na0 3.319107 1_555
As4 Na3 3.319137 1_555
As5 Ge0 2.516923 1_555
As5 Na11 3.048886 1_565
As5 Na14 3.048887 1_556
As5 Na15 3.048887 1_655
As5 Na0 3.130272 1_556
As5 Na1 3.130272 1_565
As5 Na2 3.130272 1_655
As5 Na9 3.175031 1_656
As5 Na8 3.175032 1_665
As5 Na10 3.175032 1_566
As6 Ge0 2.516899 1_555
As6 Na13 3.048892 1_565
As6 Na12 3.048892 1_556
As6 Na15 3.048914 1_555
As6 Na1 3.130265 1_565
As6 Na0 3.130265 1_556
As6 Na3 3.130272 1_555
As6 Na10 3.175013 1_566
As6 Na7 3.175038 1_556
As6 Na6 3.175038 1_565
As7 Zr0 2.603111 1_555
As7 Na6 2.964596 1_555
As7 Na7 2.964596 1_555
As7 Na4 2.964596 1_555
As7 Na12 3.109379 1_555
As7 Na13 3.109380 1_555
As7 Na5 3.109380 1_555
As7 Na0 3.319132 1_555
As7 Na1 3.319132 1_555
As7 Na2 3.319132 1_555
