# generated using pymatgen
data_Y4Br5N2Cl
_symmetry_space_group_name_H-M   'P 1'
_cell_length_a   8.76258799
_cell_length_b   8.76258700
_cell_length_c   11.04884369
_cell_angle_alpha   120.95148903
_cell_angle_beta   120.95148504
_cell_angle_gamma   25.46179806
_symmetry_Int_Tables_number   1
_chemical_formula_structural   Y4Br5N2Cl
_chemical_formula_sum   'Y4 Br5 N2 Cl1'
_cell_volume   309.89980357
_cell_formula_units_Z   1
loop_
 _symmetry_equiv_pos_site_id
 _symmetry_equiv_pos_as_xyz
  1  'x, y, z'
loop_
 _atom_site_type_symbol
 _atom_site_label
 _atom_site_symmetry_multiplicity
 _atom_site_fract_x
 _atom_site_fract_y
 _atom_site_fract_z
 _atom_site_occupancy
  Y  Y0  1  0.42154876  0.42154876  0.04480239  1
  Y  Y1  1  0.13509206  0.13509206  0.28572217  1
  Y  Y2  1  0.86768263  0.86768263  0.71388542  1
  Y  Y3  1  0.58159628  0.58159628  0.95837857  1
  Br  Br0  1  0.95325315  0.95325315  0.26000117  1
  Br  Br1  1  0.33649967  0.33649967  0.48190885  1
  Br  Br2  1  0.66618996  0.66618996  0.51555831  1
  Br  Br3  1  0.04836462  0.04836462  0.74139091  1
  Br  Br4  1  0.77752552  0.77752552  0.88676758  1
  N  N0  1  0.57457397  0.57457397  0.15496351  1
  N  N1  1  0.42724757  0.42724757  0.84630601  1
  Cl  Cl0  1  0.21042581  0.21042581  0.11031710  1
loop_
_geom_bond_atom_site_label_1
_geom_bond_atom_site_label_2
_geom_bond_distance
_geom_bond_site_symmetry_2
Br0 Y0 2.883944 1_655
Br0 Y0 2.883944 1_565
Br0 Y1 2.968408 1_665
Br1 Y1 2.946572 1_555
Br1 Y2 3.023506 1_455
Br1 Y2 3.023506 1_545
Br2 Y2 2.950620 1_555
Br2 Y1 3.006087 1_655
Br2 Y1 3.006087 1_565
Br3 Y3 2.891918 1_455
Br3 Y3 2.891918 1_545
Br3 Y2 2.939761 1_445
Br4 Y0 2.881967 1_566
Br4 Y0 2.881968 1_656
Br4 Y2 3.021316 1_555
N0 Y0 2.228591 1_555
N0 Y3 2.237657 1_554
N0 Y1 2.304393 1_565
N0 Y1 2.304393 1_655
N1 Y0 2.246047 1_556
N1 Y3 2.247120 1_555
N1 Y2 2.309823 1_545
N1 Y2 2.309823 1_455
Cl0 Y3 2.738302 1_544
Cl0 Y3 2.738302 1_454
Cl0 Y1 2.836583 1_555
