# generated using pymatgen
data_Y12InCo4Rh
_symmetry_space_group_name_H-M   'P 1'
_cell_length_a   8.35886236
_cell_length_b   8.35886195
_cell_length_c   8.35886224
_cell_angle_alpha   110.63412926
_cell_angle_beta   110.17827113
_cell_angle_gamma   107.61735183
_symmetry_Int_Tables_number   1
_chemical_formula_structural   Y12InCo4Rh
_chemical_formula_sum   'Y12 In1 Co4 Rh1'
_cell_volume   449.23410940
_cell_formula_units_Z   1
loop_
 _symmetry_equiv_pos_site_id
 _symmetry_equiv_pos_as_xyz
  1  'x, y, z'
loop_
 _atom_site_type_symbol
 _atom_site_label
 _atom_site_symmetry_multiplicity
 _atom_site_fract_x
 _atom_site_fract_y
 _atom_site_fract_z
 _atom_site_occupancy
  Y  Y0  1  0.40404899  0.20882018  0.19522882  1
  Y  Y1  1  0.59595101  0.79117982  0.80477118  1
  Y  Y2  1  0.01359236  0.20882018  0.80477118  1
  Y  Y3  1  0.98640764  0.79117982  0.19522882  1
  Y  Y4  1  0.18590683  0.29453279  0.48043963  1
  Y  Y5  1  0.81409317  0.70546721  0.51956037  1
  Y  Y6  1  0.18590683  0.70546721  0.89137504  1
  Y  Y7  1  0.81409317  0.29453279  0.10862496  1
  Y  Y8  1  0.31597607  0.61786323  0.30188816  1
  Y  Y9  1  0.68402393  0.38213677  0.69811184  1
  Y  Y10  1  0.31597607  0.01408791  0.69811184  1
  Y  Y11  1  0.68402393  0.98591209  0.30188816  1
  In  In0  1  0.50000000  0.50000000  0.00000000  1
  Co  Co0  1  0.38446008  0.00000000  0.38446008  1
  Co  Co1  1  0.61553992  1.00000000  0.61553992  1
  Co  Co2  1  0.10938580  0.60938580  0.50000000  1
  Co  Co3  1  0.89061420  0.39061420  0.50000000  1
  Rh  Rh0  1  0.00000000  0.00000000  0.00000000  1
loop_
_geom_bond_atom_site_label_1
_geom_bond_atom_site_label_2
_geom_bond_distance
_geom_bond_site_symmetry_2
Y0 Y6 3.479620 1_544
Y0 Y4 3.479621 1_555
Y0 Y5 3.657312 1_555
Y0 Y7 3.657317 1_555
Y1 Y7 3.479620 1_566
Y1 Y5 3.479621 1_555
Y1 Y4 3.657312 1_555
Y1 Y6 3.657317 1_555
Y2 Y5 3.479620 1_445
Y2 Y7 3.479620 1_456
Y2 Y4 3.657307 1_555
Y2 Y6 3.657309 1_555
Y3 Y4 3.479620 1_665
Y3 Y6 3.479620 1_654
Y3 Y5 3.657307 1_555
Y3 Y7 3.657309 1_555
Y4 Y7 3.557361 1_455
Y4 Y8 3.591346 1_555
Y4 Y9 3.629332 1_555
Y5 Y6 3.557361 1_655
Y5 Y9 3.591346 1_555
Y5 Y8 3.629332 1_555
Y6 Y9 3.591349 1_455
Y6 Y8 3.629332 1_556
Y7 Y8 3.591349 1_655
Y7 Y9 3.629332 1_554
Y10 Y5 3.591353 1_445
Y10 Y6 3.591359 1_545
Y10 Y7 3.629332 1_556
Y10 Y4 3.629334 1_555
Y11 Y4 3.591353 1_665
Y11 Y7 3.591359 1_565
Y11 Y6 3.629332 1_554
Y11 Y5 3.629334 1_555
In0 Y8 3.398169 1_555
In0 Y9 3.398169 1_554
In0 Y10 3.398171 1_554
In0 Y11 3.398171 1_555
In0 Y3 3.427976 1_555
In0 Y2 3.427976 1_554
In0 Y1 3.427982 1_554
In0 Y0 3.427982 1_555
In0 Y7 3.584850 1_555
In0 Y6 3.584850 1_554
In0 Y5 3.584851 1_555
In0 Y4 3.584851 1_554
Co0 Co1 2.210874 1_545
Co0 Y0 2.743561 1_555
Co0 Y3 2.743568 1_445
Co0 Y10 2.841454 1_555
Co0 Y11 2.841454 1_545
Co0 Y9 2.841458 1_555
Co0 Y8 2.841462 1_545
Co0 Y6 3.385151 1_544
Co0 Y4 3.385157 1_555
Co1 Y1 2.743561 1_555
Co1 Y2 2.743568 1_665
Co1 Y11 2.841454 1_555
Co1 Y10 2.841454 1_565
Co1 Y8 2.841458 1_555
Co1 Y9 2.841462 1_565
Co1 Y7 3.385151 1_566
Co1 Y5 3.385157 1_555
Co2 Co3 2.159613 1_455
Co2 Y8 2.776839 1_555
Co2 Y10 2.776840 1_565
Co2 Y4 2.854846 1_555
Co2 Y5 2.854846 1_455
Co2 Y7 2.854851 1_455
Co2 Y6 2.854854 1_555
Co3 Y9 2.776839 1_555
Co3 Y11 2.776840 1_545
Co3 Y5 2.854846 1_555
Co3 Y4 2.854846 1_655
Co3 Y6 2.854851 1_655
Co3 Y7 2.854854 1_555
Rh0 Y0 2.781762 1_555
Rh0 Y1 2.781762 1_444
Rh0 Y2 2.781762 1_554
Rh0 Y3 2.781762 1_445
Rh0 Y7 3.318767 1_455
Rh0 Y6 3.318767 1_544
Rh0 Y4 3.318769 1_555
Rh0 Y5 3.318769 1_444
