# generated using pymatgen
data_Al20Co2Ir5Rh
_symmetry_space_group_name_H-M   'P 1'
_cell_length_a   7.83845974
_cell_length_b   7.84936850
_cell_length_c   7.76518317
_cell_angle_alpha   90.00000000
_cell_angle_beta   90.00000000
_cell_angle_gamma   119.95400861
_symmetry_Int_Tables_number   1
_chemical_formula_structural   Al20Co2Ir5Rh
_chemical_formula_sum   'Al20 Co2 Ir5 Rh1'
_cell_volume   413.95093643
_cell_formula_units_Z   1
loop_
 _symmetry_equiv_pos_site_id
 _symmetry_equiv_pos_as_xyz
  1  'x, y, z'
loop_
 _atom_site_type_symbol
 _atom_site_label
 _atom_site_symmetry_multiplicity
 _atom_site_fract_x
 _atom_site_fract_y
 _atom_site_fract_z
 _atom_site_occupancy
  Al  Al0  1  0.99997625  0.99995367  0.99959346  1
  Al  Al1  1  0.99997625  0.99995367  0.50040654  1
  Al  Al2  1  0.47758366  0.95516688  0.25000000  1
  Al  Al3  1  0.52522750  0.47803455  0.75000000  1
  Al  Al4  1  0.95279981  0.47804260  0.75000000  1
  Al  Al5  1  0.04469131  0.52252524  0.25000000  1
  Al  Al6  1  0.47783650  0.52252787  0.25000000  1
  Al  Al7  1  0.52269914  0.04540763  0.75000000  1
  Al  Al8  1  0.19529519  0.39058722  0.93543695  1
  Al  Al9  1  0.80435123  0.19576423  0.43654279  1
  Al  Al10  1  0.39141448  0.19576499  0.43654298  1
  Al  Al11  1  0.60816157  0.80469105  0.93680019  1
  Al  Al12  1  0.19653302  0.80469476  0.93679183  1
  Al  Al13  1  0.80363616  0.60726890  0.06216981  1
  Al  Al14  1  0.80435123  0.19576423  0.06345721  1
  Al  Al15  1  0.80363616  0.60726890  0.43783019  1
  Al  Al16  1  0.39141448  0.19576499  0.06345702  1
  Al  Al17  1  0.60816157  0.80469105  0.56319981  1
  Al  Al18  1  0.19529519  0.39058722  0.56456305  1
  Al  Al19  1  0.19653302  0.80469476  0.56320817  1
  Co  Co0  1  0.33327845  0.66655805  0.75000000  1
  Co  Co1  1  0.66658952  0.33317677  0.25000000  1
  Ir  Ir0  1  0.13106238  0.26212559  0.25000000  1
  Ir  Ir1  1  0.86879638  0.13095109  0.75000000  1
  Ir  Ir2  1  0.26216053  0.13095470  0.75000000  1
  Ir  Ir3  1  0.73815639  0.86864921  0.25000000  1
  Ir  Ir4  1  0.13049033  0.86864775  0.25000000  1
  Rh  Rh0  1  0.86989333  0.73978340  0.75000000  1
loop_
_geom_bond_atom_site_label_1
_geom_bond_atom_site_label_2
_geom_bond_distance
_geom_bond_site_symmetry_2
Al0 Rh0 2.624334 1_555
Al0 Ir1 2.631880 1_565
Al0 Ir2 2.631912 1_665
Al0 Ir3 2.634900 1_556
Al0 Ir4 2.634901 1_656
Al0 Ir0 2.638182 1_666
Al0 Al8 2.702967 1_665
Al0 Al14 2.704278 1_566
Al0 Al16 2.704296 1_666
Al0 Al11 2.705295 1_555
Al0 Al12 2.705312 1_655
Al0 Al13 2.714456 1_556
Al1 Rh0 2.624334 1_555
Al1 Ir1 2.631880 1_565
Al1 Ir2 2.631912 1_665
Al1 Ir3 2.634900 1_555
Al1 Ir4 2.634901 1_655
Al1 Ir0 2.638182 1_665
Al1 Al18 2.702967 1_665
Al1 Al9 2.704278 1_565
Al1 Al10 2.704296 1_665
Al1 Al17 2.705295 1_555
Al1 Al19 2.705312 1_655
Al1 Al15 2.714456 1_555
Al2 Ir3 2.453180 1_555
Al2 Ir4 2.453200 1_555
Al2 Co1 2.570808 1_565
Al2 Al9 2.719354 1_565
Al3 Rh0 2.444821 1_555
Al3 Ir2 2.462562 1_555
Al3 Co0 2.583976 1_555
Al3 Al8 2.731329 1_555
Al4 Rh0 2.444702 1_555
Al4 Ir1 2.462671 1_555
Al4 Co0 2.584018 1_655
Al4 Al8 2.731433 1_655
Al4 Al9 3.100536 1_555
Al5 Ir4 2.451308 1_555
Al5 Ir0 2.453172 1_555
Al5 Co1 2.567867 1_455
Al5 Al9 2.720414 1_455
Al5 Al8 3.107003 1_554
Al6 Ir3 2.451295 1_555
Al6 Ir0 2.453198 1_555
Al6 Co1 2.567882 1_555
Al6 Al8 3.107001 1_554
Al7 Ir2 2.447650 1_555
Al7 Ir1 2.447747 1_555
Al7 Co0 2.576518 1_545
Al7 Al9 3.096705 1_555
Al8 Co0 2.365593 1_555
Al8 Ir0 2.594178 1_556
Al8 Ir2 2.751010 1_555
Al8 Ir1 2.751023 1_455
Al9 Co1 2.364487 1_555
Al9 Ir1 2.587517 1_555
Al9 Ir0 2.756040 1_655
Al9 Ir3 2.762224 1_545
Al10 Co1 2.364492 1_555
Al10 Ir2 2.587505 1_555
Al10 Al2 2.719354 1_545
Al10 Al6 2.720424 1_555
Al10 Ir0 2.756052 1_555
Al10 Ir4 2.762244 1_545
Al10 Al18 2.835061 1_555
Al10 Al19 2.835680 1_545
Al10 Al16 2.897081 1_555
Al10 Al7 3.096662 1_555
Al10 Al3 3.100500 1_555
Al11 Co0 2.364165 1_555
Al11 Ir3 2.587346 1_556
Al11 Al7 2.717887 1_565
Al11 Al3 2.726993 1_555
Al11 Ir1 2.758903 1_565
Al11 Rh0 2.759779 1_555
Al11 Al14 2.835677 1_566
Al11 Al13 2.840405 1_556
Al11 Al17 2.901075 1_555
Al11 Al2 3.092708 1_556
Al11 Al6 3.099099 1_556
Al12 Co0 2.364120 1_555
Al12 Ir4 2.587409 1_556
Al12 Al7 2.717787 1_565
Al12 Al4 2.726958 1_455
Al12 Ir2 2.758863 1_565
Al12 Rh0 2.759739 1_455
Al12 Al16 2.835680 1_566
Al12 Al13 2.840430 1_456
Al12 Al19 2.900945 1_555
Al12 Al2 3.092746 1_556
Al12 Al5 3.099177 1_556
Al13 Co1 2.366875 1_555
Al13 Rh0 2.586163 1_554
Al13 Al5 2.719399 1_655
Al13 Al6 2.719409 1_555
Al13 Ir4 2.766141 1_655
Al13 Ir3 2.766169 1_555
Al13 Al15 2.917072 1_555
Al13 Al4 3.075116 1_554
Al13 Al3 3.075195 1_554
Al14 Co1 2.364487 1_555
Al14 Ir1 2.587517 1_554
Al14 Al2 2.719354 1_545
Al14 Al5 2.720414 1_655
Al14 Ir0 2.756040 1_655
Al14 Ir3 2.762224 1_545
Al14 Al8 2.835078 1_654
Al14 Al9 2.897078 1_555
Al14 Al7 3.096705 1_554
Al14 Al4 3.100536 1_554
Al15 Co1 2.366875 1_555
Al15 Rh0 2.586163 1_555
Al15 Al5 2.719399 1_655
Al15 Al6 2.719409 1_555
Al15 Ir4 2.766141 1_655
Al15 Ir3 2.766169 1_555
Al15 Al17 2.840405 1_555
Al15 Al19 2.840430 1_655
Al15 Al4 3.075116 1_555
Al15 Al3 3.075195 1_555
Al16 Co1 2.364492 1_555
Al16 Ir2 2.587505 1_554
Al16 Al2 2.719354 1_545
Al16 Al6 2.720424 1_555
Al16 Ir0 2.756052 1_555
Al16 Ir4 2.762244 1_545
Al16 Al8 2.835061 1_554
Al16 Al7 3.096662 1_554
Al16 Al3 3.100500 1_554
Al17 Co0 2.364165 1_555
Al17 Ir3 2.587346 1_555
Al17 Al7 2.717887 1_565
Al17 Al3 2.726993 1_555
Al17 Ir1 2.758903 1_565
Al17 Rh0 2.759779 1_555
Al17 Al9 2.835677 1_565
Al17 Al2 3.092708 1_555
Al17 Al6 3.099099 1_555
Al18 Co0 2.365593 1_555
Al18 Ir0 2.594178 1_555
Al18 Al3 2.731329 1_555
Al18 Al4 2.731433 1_455
Al18 Ir2 2.751010 1_555
Al18 Ir1 2.751023 1_455
Al18 Al9 2.835078 1_455
Al18 Al8 2.879904 1_555
Al18 Al6 3.107001 1_555
Al18 Al5 3.107003 1_555
Al19 Co0 2.364120 1_555
Al19 Ir4 2.587409 1_555
Al19 Al7 2.717787 1_565
Al19 Al4 2.726958 1_455
Al19 Ir2 2.758863 1_565
Al19 Rh0 2.759739 1_455
Al19 Al2 3.092746 1_555
Al19 Al5 3.099177 1_555
Ir0 Ir3 3.086313 1_445
Ir0 Ir4 3.086316 1_545
Ir1 Rh0 3.074722 1_545
Ir1 Ir2 3.083355 1_655
Ir2 Rh0 3.074747 1_445
Ir3 Ir4 3.075300 1_655
