# generated using pymatgen
data_Sn14PdRu5
_symmetry_space_group_name_H-M   'P 1'
_cell_length_a   8.16557527
_cell_length_b   8.16557577
_cell_length_c   8.16557559
_cell_angle_alpha   109.59918603
_cell_angle_beta   109.21559177
_cell_angle_gamma   109.59919131
_symmetry_Int_Tables_number   1
_chemical_formula_structural   Sn14PdRu5
_chemical_formula_sum   'Sn14 Pd1 Ru5'
_cell_volume   419.11384154
_cell_formula_units_Z   1
loop_
 _symmetry_equiv_pos_site_id
 _symmetry_equiv_pos_as_xyz
  1  'x, y, z'
loop_
 _atom_site_type_symbol
 _atom_site_label
 _atom_site_symmetry_multiplicity
 _atom_site_fract_x
 _atom_site_fract_y
 _atom_site_fract_z
 _atom_site_occupancy
  Sn  Sn0  1  0.25310454  0.74534015  0.50776339  1
  Sn  Sn1  1  0.76242325  0.25465985  0.50776339  1
  Sn  Sn2  1  0.75038302  0.50000000  0.25038302  1
  Sn  Sn3  1  0.25038302  0.50000000  0.75038302  1
  Sn  Sn4  1  0.50776339  0.74534015  0.25310454  1
  Sn  Sn5  1  0.50776339  0.25465985  0.76242325  1
  Sn  Sn6  1  0.99288829  1.00000000  0.32200673  1
  Sn  Sn7  1  0.67586370  0.00000000  0.99940845  1
  Sn  Sn8  1  0.99288829  0.67088156  0.99288829  1
  Sn  Sn9  1  0.32200673  0.32911844  0.32200673  1
  Sn  Sn10  1  0.99940845  0.32354476  0.99940845  1
  Sn  Sn11  1  0.67586370  0.67645524  0.67586370  1
  Sn  Sn12  1  0.32200673  1.00000000  0.99288829  1
  Sn  Sn13  1  0.99940845  1.00000000  0.67586370  1
  Pd  Pd0  1  0.34230655  1.00000000  0.34230655  1
  Ru  Ru0  1  0.99890574  0.34401886  0.34292460  1
  Ru  Ru1  1  0.99890574  0.65598114  0.65488688  1
  Ru  Ru2  1  0.34292460  0.34401886  0.99890574  1
  Ru  Ru3  1  0.65488688  0.65598114  0.99890574  1
  Ru  Ru4  1  0.64991453  0.00000000  0.64991453  1
loop_
_geom_bond_atom_site_label_1
_geom_bond_atom_site_label_2
_geom_bond_distance
_geom_bond_site_symmetry_2
Sn6 Sn7 3.025169 1_564
Sn6 Sn9 3.098287 1_665
Sn6 Sn8 3.098287 1_554
Sn10 Sn8 2.872363 1_555
Sn10 Sn9 3.025169 1_656
Sn10 Sn7 3.045817 1_555
Sn10 Sn13 3.045817 1_545
Sn11 Sn9 2.872363 1_555
Sn11 Sn8 3.025169 1_555
Sn11 Sn13 3.045817 1_555
Sn11 Sn7 3.045817 1_565
Sn12 Sn7 2.872363 1_565
Sn12 Sn13 3.025169 1_455
Sn12 Sn8 3.098287 1_455
Sn12 Sn9 3.098287 1_566
Sn13 Sn6 2.872363 1_555
Pd0 Sn8 2.803019 1_454
Pd0 Sn6 2.803019 1_455
Pd0 Sn12 2.803019 1_554
Pd0 Sn9 2.803019 1_565
Pd0 Sn0 2.862934 1_555
Pd0 Sn4 2.862934 1_555
Pd0 Sn1 2.862935 1_565
Pd0 Sn5 2.862935 1_565
Pd0 Ru4 2.909515 1_565
Ru0 Sn1 2.738152 1_555
Ru0 Sn0 2.738153 1_655
Ru0 Sn9 2.739102 1_655
Ru0 Sn6 2.739102 1_545
Ru0 Sn7 2.754898 1_554
Ru0 Sn10 2.754898 1_554
Ru0 Sn2 2.771598 1_555
Ru0 Sn3 2.795339 1_655
Ru0 Ru1 2.936781 1_555
Ru1 Sn1 2.738152 1_555
Ru1 Sn0 2.738158 1_655
Ru1 Sn12 2.739102 1_655
Ru1 Sn8 2.739102 1_555
Ru1 Sn11 2.754898 1_555
Ru1 Sn13 2.754898 1_555
Ru1 Sn2 2.771598 1_555
Ru1 Sn3 2.795339 1_655
Ru2 Sn5 2.738152 1_555
Ru2 Sn4 2.738153 1_556
Ru2 Sn9 2.739102 1_556
Ru2 Sn12 2.739102 1_545
Ru2 Sn13 2.754898 1_445
Ru2 Sn10 2.754898 1_455
Ru2 Sn3 2.771598 1_555
Ru2 Sn2 2.795339 1_556
Ru2 Ru3 2.936781 1_555
Ru3 Sn5 2.738152 1_555
Ru3 Sn4 2.738158 1_556
Ru3 Sn6 2.739102 1_556
Ru3 Sn8 2.739102 1_555
Ru3 Sn11 2.754898 1_555
Ru3 Sn7 2.754898 1_565
Ru3 Sn3 2.771598 1_555
Ru3 Sn2 2.795339 1_556
Ru4 Sn0 2.748635 1_545
Ru4 Sn4 2.748636 1_545
Ru4 Sn1 2.748642 1_555
Ru4 Sn5 2.748642 1_555
Ru4 Sn10 2.791261 1_555
Ru4 Sn13 2.791262 1_545
Ru4 Sn7 2.791262 1_555
Ru4 Sn11 2.791262 1_545
