# generated using pymatgen
data_LiV(Co2Si)2
_symmetry_space_group_name_H-M   'P 1'
_cell_length_a   6.76052010
_cell_length_b   6.76052057
_cell_length_c   6.76051950
_cell_angle_alpha   33.72534427
_cell_angle_beta   33.72533713
_cell_angle_gamma   33.72534983
_symmetry_Int_Tables_number   1
_chemical_formula_structural   LiV(Co2Si)2
_chemical_formula_sum   'Li1 V1 Co4 Si2'
_cell_volume   84.86366871
_cell_formula_units_Z   1
loop_
 _symmetry_equiv_pos_site_id
 _symmetry_equiv_pos_as_xyz
  1  'x, y, z'
loop_
 _atom_site_type_symbol
 _atom_site_label
 _atom_site_symmetry_multiplicity
 _atom_site_fract_x
 _atom_site_fract_y
 _atom_site_fract_z
 _atom_site_occupancy
  Li  Li0  1  0.00000000  0.00000000  0.00000000  1
  V  V0  1  0.50000000  0.50000000  0.50000000  1
  Co  Co0  1  0.62306886  0.62306886  0.62306886  1
  Co  Co1  1  0.12805418  0.12805418  0.12805418  1
  Co  Co2  1  0.87194582  0.87194582  0.87194582  1
  Co  Co3  1  0.37693114  0.37693114  0.37693114  1
  Si  Si0  1  0.25400191  0.25400191  0.25400191  1
  Si  Si1  1  0.74599809  0.74599809  0.74599809  1
loop_
_geom_bond_atom_site_label_1
_geom_bond_atom_site_label_2
_geom_bond_distance
_geom_bond_site_symmetry_2
Li0 Si1 2.725090 1_445
Li0 Si0 2.725090 1_554
Li0 Si1 2.725091 1_544
Li0 Si0 2.725091 1_455
Li0 Si1 2.725092 1_454
Li0 Si0 2.725092 1_545
Co0 Si1 2.349176 1_555
Co0 V0 2.351844 1_555
Co0 Si0 2.365186 1_556
Co0 Si0 2.365186 1_655
Co0 Si0 2.365187 1_565
Co0 Li0 2.412870 1_665
Co0 Li0 2.412870 1_566
Co0 Li0 2.412870 1_656
Co1 V0 2.381652 1_554
Co1 V0 2.381653 1_455
Co1 V0 2.381653 1_545
Co1 Si0 2.406859 1_555
Co1 Li0 2.447113 1_555
Co1 Si1 2.448413 1_445
Co1 Si1 2.448413 1_544
Co1 Si1 2.448414 1_454
Co2 V0 2.381652 1_556
Co2 V0 2.381653 1_655
Co2 V0 2.381653 1_565
Co2 Si1 2.406859 1_555
Co2 Li0 2.447113 1_666
Co2 Si0 2.448413 1_665
Co2 Si0 2.448413 1_566
Co2 Si0 2.448414 1_656
Co3 Si0 2.349176 1_555
Co3 V0 2.351844 1_555
Co3 Si1 2.365186 1_554
Co3 Si1 2.365186 1_455
Co3 Si1 2.365187 1_545
Co3 Li0 2.412870 1_556
Co3 Li0 2.412870 1_655
Co3 Li0 2.412870 1_565
Si0 V0 2.813054 1_554
Si0 V0 2.813054 1_455
Si0 V0 2.813055 1_545
Si1 V0 2.813054 1_556
Si1 V0 2.813054 1_655
Si1 V0 2.813055 1_565
