# generated using pymatgen
data_Mo15S19
_symmetry_space_group_name_H-M   'P 1'
_cell_length_a   9.29490624
_cell_length_b   9.29490624
_cell_length_c   19.20446100
_cell_angle_alpha   90.00000000
_cell_angle_beta   90.00000000
_cell_angle_gamma   120.00000171
_symmetry_Int_Tables_number   1
_chemical_formula_structural   Mo15S19
_chemical_formula_sum   'Mo30 S38'
_cell_volume   1436.88752232
_cell_formula_units_Z   2
loop_
 _symmetry_equiv_pos_site_id
 _symmetry_equiv_pos_as_xyz
  1  'x, y, z'
loop_
 _atom_site_type_symbol
 _atom_site_label
 _atom_site_symmetry_multiplicity
 _atom_site_fract_x
 _atom_site_fract_y
 _atom_site_fract_z
 _atom_site_occupancy
  Mo  Mo0  1  0.84169900  0.34660100  0.25000000  1
  Mo  Mo1  1  0.49509800  0.84169900  0.75000000  1
  Mo  Mo2  1  0.34660100  0.50490200  0.75000000  1
  Mo  Mo3  1  0.65339900  0.49509800  0.25000000  1
  Mo  Mo4  1  0.50490200  0.15830100  0.25000000  1
  Mo  Mo5  1  0.15830100  0.65339900  0.75000000  1
  Mo  Mo6  1  0.31615500  0.82743300  0.62984700  1
  Mo  Mo7  1  0.48872300  0.31615500  0.12984700  1
  Mo  Mo8  1  0.82743300  0.51127700  0.12984700  1
  Mo  Mo9  1  0.17256700  0.48872300  0.62984700  1
  Mo  Mo10  1  0.51127700  0.68384500  0.62984700  1
  Mo  Mo11  1  0.68384500  0.17256700  0.12984700  1
  Mo  Mo12  1  0.68384500  0.17256700  0.37015300  1
  Mo  Mo13  1  0.51127700  0.68384500  0.87015300  1
  Mo  Mo14  1  0.17256700  0.48872300  0.87015300  1
  Mo  Mo15  1  0.82743300  0.51127700  0.37015300  1
  Mo  Mo16  1  0.48872300  0.31615500  0.37015300  1
  Mo  Mo17  1  0.31615500  0.82743300  0.87015300  1
  Mo  Mo18  1  0.17673300  0.01711200  0.43704900  1
  Mo  Mo19  1  0.15962000  0.17673300  0.93704900  1
  Mo  Mo20  1  0.01711200  0.84038000  0.93704900  1
  Mo  Mo21  1  0.98288800  0.15962000  0.43704900  1
  Mo  Mo22  1  0.84038000  0.82326700  0.43704900  1
  Mo  Mo23  1  0.82326700  0.98288800  0.93704900  1
  Mo  Mo24  1  0.82326700  0.98288800  0.56295100  1
  Mo  Mo25  1  0.84038000  0.82326700  0.06295100  1
  Mo  Mo26  1  0.98288800  0.15962000  0.06295100  1
  Mo  Mo27  1  0.01711200  0.84038000  0.56295100  1
  Mo  Mo28  1  0.15962000  0.17673300  0.56295100  1
  Mo  Mo29  1  0.17673300  0.01711200  0.06295100  1
  S  S0  1  0.66666700  0.33333300  0.46579600  1
  S  S1  1  0.33333300  0.66666700  0.96579600  1
  S  S2  1  0.33333300  0.66666700  0.53420400  1
  S  S3  1  0.66666700  0.33333300  0.03420400  1
  S  S4  1  0.00000000  0.00000000  0.65876700  1
  S  S5  1  0.00000000  0.00000000  0.15876700  1
  S  S6  1  0.00000000  0.00000000  0.34123300  1
  S  S7  1  0.00000000  0.00000000  0.84123300  1
  S  S8  1  0.69397700  0.04285200  0.25000000  1
  S  S9  1  0.65112400  0.69397700  0.75000000  1
  S  S10  1  0.04285200  0.34887600  0.75000000  1
  S  S11  1  0.95714800  0.65112400  0.25000000  1
  S  S12  1  0.34887600  0.30602300  0.25000000  1
  S  S13  1  0.30602300  0.95714800  0.75000000  1
  S  S14  1  0.01585200  0.63368200  0.64272700  1
  S  S15  1  0.38217000  0.01585200  0.14272700  1
  S  S16  1  0.71394900  0.68509200  0.54764900  1
  S  S17  1  0.63368200  0.61783000  0.14272700  1
  S  S18  1  0.61783000  0.98414800  0.64272700  1
  S  S19  1  0.98414800  0.36631800  0.14272700  1
  S  S20  1  0.98414800  0.36631800  0.35727300  1
  S  S21  1  0.61783000  0.98414800  0.85727300  1
  S  S22  1  0.36631800  0.38217000  0.85727300  1
  S  S23  1  0.63368200  0.61783000  0.35727300  1
  S  S24  1  0.38217000  0.01585200  0.35727300  1
  S  S25  1  0.01585200  0.63368200  0.85727300  1
  S  S26  1  0.31490800  0.02885700  0.54764900  1
  S  S27  1  0.28605100  0.31490800  0.04764900  1
  S  S28  1  0.02885700  0.71394900  0.04764900  1
  S  S29  1  0.97114300  0.28605100  0.54764900  1
  S  S30  1  0.31490800  0.02885700  0.95235100  1
  S  S31  1  0.28605100  0.31490800  0.45235100  1
  S  S32  1  0.02885700  0.71394900  0.45235100  1
  S  S33  1  0.97114300  0.28605100  0.95235100  1
  S  S34  1  0.71394900  0.68509200  0.95235100  1
  S  S35  1  0.68509200  0.97114300  0.45235100  1
  S  S36  1  0.68509200  0.97114300  0.04764900  1
  S  S37  1  0.36631800  0.38217000  0.64272700  1
loop_
_geom_bond_atom_site_label_1
_geom_bond_atom_site_label_2
_geom_bond_distance
_geom_bond_site_symmetry_2
Mo0 S20 2.405854 1_555
Mo0 S19 2.405854 1_555
Mo0 S8 2.445370 1_555
Mo0 S11 2.475062 1_555
Mo1 S18 2.405854 1_555
Mo1 S21 2.405854 1_555
Mo1 S9 2.445362 1_555
Mo1 S13 2.475070 1_555
Mo2 S22 2.405854 1_555
Mo2 S37 2.405854 1_555
Mo2 S10 2.445370 1_555
Mo2 S9 2.475063 1_555
Mo3 S23 2.405854 1_555
Mo3 S17 2.405854 1_555
Mo3 S11 2.445370 1_555
Mo3 S12 2.475063 1_555
Mo4 S24 2.405854 1_555
Mo4 S15 2.405854 1_555
Mo4 S12 2.445362 1_555
Mo4 S8 2.475070 1_555
Mo5 S25 2.405854 1_555
Mo5 S14 2.405854 1_555
Mo5 S13 2.445370 1_555
Mo5 S10 2.475062 1_555
Mo6 S2 2.422966 1_555
Mo6 S18 2.441547 1_555
Mo6 S26 2.453347 1_565
Mo6 S14 2.463510 1_555
Mo6 S13 2.626887 1_555
Mo7 S3 2.422966 1_555
Mo7 S17 2.441547 1_555
Mo7 S27 2.453354 1_555
Mo7 S15 2.463508 1_555
Mo7 S12 2.626887 1_555
Mo8 S3 2.422966 1_555
Mo8 S19 2.441539 1_555
Mo8 S28 2.453350 1_655
Mo8 S17 2.463517 1_555
Mo8 S11 2.626887 1_555
Mo9 S2 2.422966 1_555
Mo9 S14 2.441539 1_555
Mo9 S29 2.453350 1_455
Mo9 S37 2.463517 1_555
Mo9 S10 2.626887 1_555
Mo10 S2 2.422966 1_555
Mo10 S37 2.441547 1_555
Mo10 S16 2.453354 1_555
Mo10 S18 2.463508 1_555
Mo10 S9 2.626887 1_555
Mo11 S3 2.422966 1_555
Mo11 S15 2.441547 1_555
Mo11 S36 2.453347 1_545
Mo11 S19 2.463510 1_555
Mo11 S8 2.626887 1_555
Mo12 S0 2.422966 1_555
Mo12 S24 2.441547 1_555
Mo12 S35 2.453347 1_545
Mo12 S20 2.463510 1_555
Mo12 S8 2.626887 1_555
Mo13 S1 2.422966 1_555
Mo13 S22 2.441547 1_555
Mo13 S34 2.453354 1_555
Mo13 S21 2.463508 1_555
Mo13 S9 2.626887 1_555
Mo14 S1 2.422966 1_555
Mo14 S25 2.441539 1_555
Mo14 S33 2.453350 1_455
Mo14 S22 2.463517 1_555
Mo14 S10 2.626887 1_555
Mo15 S0 2.422966 1_555
Mo15 S20 2.441539 1_555
Mo15 S32 2.453350 1_655
Mo15 S23 2.463517 1_555
Mo15 S11 2.626887 1_555
Mo16 S0 2.422966 1_555
Mo16 S23 2.441547 1_555
Mo16 S31 2.453354 1_555
Mo16 S24 2.463508 1_555
Mo16 S12 2.626887 1_555
Mo17 S1 2.422966 1_555
Mo17 S21 2.441547 1_555
Mo17 S30 2.453347 1_565
Mo17 S25 2.463510 1_555
Mo17 S13 2.626887 1_555
Mo18 S6 2.418364 1_555
Mo18 S31 2.442951 1_555
Mo18 S24 2.452744 1_555
Mo18 S26 2.456141 1_555
Mo18 S32 2.458220 1_545
Mo19 S7 2.418361 1_555
Mo19 S33 2.442943 1_455
Mo19 S22 2.452747 1_555
Mo19 S27 2.456143 1_556
Mo19 S30 2.458228 1_555
Mo20 S7 2.418358 1_565
Mo20 S30 2.442950 1_565
Mo20 S25 2.452751 1_555
Mo20 S28 2.456146 1_556
Mo20 S34 2.458220 1_455
Mo21 S6 2.418358 1_655
Mo21 S35 2.442950 1_545
Mo21 S20 2.452751 1_555
Mo21 S29 2.456146 1_555
Mo21 S31 2.458220 1_655
Mo22 S6 2.418361 1_665
Mo22 S32 2.442943 1_655
Mo22 S23 2.452747 1_555
Mo22 S16 2.456143 1_555
Mo22 S35 2.458228 1_555
Mo23 S7 2.418364 1_665
Mo23 S34 2.442951 1_555
Mo23 S21 2.452744 1_555
Mo23 S36 2.456141 1_556
Mo23 S33 2.458220 1_565
Mo24 S4 2.418364 1_665
Mo24 S16 2.442951 1_555
Mo24 S18 2.452744 1_555
Mo24 S35 2.456141 1_555
Mo24 S29 2.458220 1_565
Mo25 S5 2.418361 1_665
Mo25 S28 2.442943 1_655
Mo25 S17 2.452747 1_555
Mo25 S34 2.456143 1_554
Mo25 S36 2.458228 1_555
Mo26 S5 2.418358 1_655
Mo26 S36 2.442950 1_545
Mo26 S19 2.452751 1_555
Mo26 S33 2.456146 1_554
Mo26 S27 2.458220 1_655
Mo27 S4 2.418358 1_565
Mo27 S26 2.442950 1_565
Mo27 S14 2.452751 1_555
Mo27 S32 2.456146 1_555
Mo27 S16 2.458220 1_455
Mo28 S4 2.418361 1_555
Mo28 S29 2.442943 1_455
Mo28 S37 2.452747 1_555
Mo28 S31 2.456143 1_555
Mo28 S26 2.458228 1_555
Mo29 S5 2.418364 1_555
Mo29 S27 2.442951 1_555
Mo29 S15 2.452744 1_555
Mo29 S30 2.456141 1_554
Mo29 S28 2.458220 1_545
