# generated using pymatgen
data_Hf2Sc2Si6Ir7
_symmetry_space_group_name_H-M   'P 1'
_cell_length_a   6.96201819
_cell_length_b   6.94776160
_cell_length_c   6.94776236
_cell_angle_alpha   109.40040529
_cell_angle_beta   109.46508364
_cell_angle_gamma   109.46508379
_symmetry_Int_Tables_number   1
_chemical_formula_structural   Hf2Sc2Si6Ir7
_chemical_formula_sum   'Hf2 Sc2 Si6 Ir7'
_cell_volume   258.96885078
_cell_formula_units_Z   1
loop_
 _symmetry_equiv_pos_site_id
 _symmetry_equiv_pos_as_xyz
  1  'x, y, z'
loop_
 _atom_site_type_symbol
 _atom_site_label
 _atom_site_symmetry_multiplicity
 _atom_site_fract_x
 _atom_site_fract_y
 _atom_site_fract_z
 _atom_site_occupancy
  Hf  Hf0  1  0.00000000  0.00000000  0.50000000  1
  Hf  Hf1  1  0.00000000  0.50000000  0.00000000  1
  Sc  Sc0  1  0.50000000  0.00000000  0.00000000  1
  Sc  Sc1  1  0.50000000  0.50000000  0.50000000  1
  Si  Si0  1  0.67762026  0.68072033  0.99689993  1
  Si  Si1  1  0.32237974  0.00310007  0.31927967  1
  Si  Si2  1  0.00000000  0.31923048  0.31923048  1
  Si  Si3  1  0.32237974  0.31927967  0.00310007  1
  Si  Si4  1  0.67762026  0.99689993  0.68072033  1
  Si  Si5  1  1.00000000  0.68076952  0.68076952  1
  Ir  Ir0  1  0.75184588  0.25008443  0.50176145  1
  Ir  Ir1  1  0.75184588  0.50176145  0.25008443  1
  Ir  Ir2  1  0.50000000  0.25000000  0.75000000  1
  Ir  Ir3  1  0.24815412  0.49823855  0.74991557  1
  Ir  Ir4  1  0.24815412  0.74991557  0.49823855  1
  Ir  Ir5  1  0.50000000  0.75000000  0.25000000  1
  Ir  Ir6  1  0.00000000  0.00000000  0.00000000  1
loop_
_geom_bond_atom_site_label_1
_geom_bond_atom_site_label_2
_geom_bond_distance
_geom_bond_site_symmetry_2
Hf0 Ir3 2.829227 1_555
Hf0 Ir1 2.829227 1_445
Hf0 Ir0 2.829227 1_455
Hf0 Ir4 2.829227 1_545
Hf0 Ir5 2.843901 1_445
Hf0 Ir2 2.843901 1_555
Hf0 Si2 2.889155 1_555
Hf0 Si5 2.889155 1_445
Hf0 Si1 2.911752 1_555
Hf0 Si4 2.911752 1_445
Hf0 Si3 2.911752 1_556
Hf0 Si0 2.911752 1_444
Hf1 Ir1 2.829227 1_455
Hf1 Ir3 2.829227 1_554
Hf1 Ir0 2.829227 1_454
Hf1 Ir4 2.829227 1_555
Hf1 Ir2 2.843901 1_454
Hf1 Ir5 2.843901 1_555
Hf1 Si2 2.889155 1_555
Hf1 Si5 2.889155 1_454
Hf1 Si1 2.911752 1_565
Hf1 Si4 2.911752 1_444
Hf1 Si0 2.911752 1_454
Hf1 Si3 2.911752 1_555
Sc0 Si3 2.874820 1_555
Sc0 Si0 2.874820 1_544
Sc0 Si1 2.874821 1_555
Sc0 Si4 2.874821 1_544
Sc0 Si2 2.897722 1_655
Sc0 Si5 2.897722 1_444
Sc1 Si4 2.874820 1_555
Sc1 Si1 2.874820 1_555
Sc1 Si3 2.874821 1_555
Sc1 Si0 2.874821 1_555
Sc1 Si5 2.897722 1_555
Sc1 Si2 2.897722 1_555
Ir0 Si1 2.469949 1_555
Ir0 Si5 2.477028 1_555
Ir0 Si2 2.477028 1_655
Ir0 Si4 2.486504 1_545
Ir0 Sc1 2.849239 1_555
Ir0 Sc0 2.849239 1_555
Ir1 Si3 2.469949 1_555
Ir1 Si2 2.477028 1_655
Ir1 Si5 2.477028 1_555
Ir1 Si0 2.486505 1_554
Ir1 Sc0 2.849239 1_555
Ir1 Sc1 2.849239 1_555
Ir2 Si0 2.477243 1_555
Ir2 Si4 2.477243 1_545
Ir2 Si3 2.477243 1_556
Ir2 Si1 2.477243 1_555
Ir2 Sc0 2.835172 1_556
Ir2 Sc1 2.835172 1_555
Ir3 Si0 2.469949 1_555
Ir3 Si5 2.477028 1_455
Ir3 Si2 2.477028 1_555
Ir3 Si3 2.486505 1_556
Ir3 Sc0 2.849239 1_566
Ir3 Sc1 2.849239 1_555
Ir4 Si4 2.469949 1_555
Ir4 Si2 2.477028 1_555
Ir4 Si5 2.477028 1_455
Ir4 Si1 2.486504 1_565
Ir4 Sc1 2.849239 1_555
Ir4 Sc0 2.849239 1_566
Ir5 Si3 2.477243 1_555
Ir5 Si1 2.477243 1_565
Ir5 Si0 2.477243 1_554
Ir5 Si4 2.477243 1_555
Ir5 Sc0 2.835172 1_565
Ir5 Sc1 2.835172 1_555
Ir6 Si2 2.563291 1_555
Ir6 Si5 2.563291 1_444
Ir6 Si3 2.564470 1_555
Ir6 Si0 2.564470 1_444
Ir6 Si1 2.564470 1_555
Ir6 Si4 2.564470 1_444
