# generated using pymatgen
data_Ta3Al2PtC
_symmetry_space_group_name_H-M   'P 1'
_cell_length_a   8.30831907
_cell_length_b   8.30831915
_cell_length_c   8.30831840
_cell_angle_alpha   59.99999910
_cell_angle_beta   59.99999879
_cell_angle_gamma   59.99999951
_symmetry_Int_Tables_number   1
_chemical_formula_structural   Ta3Al2PtC
_chemical_formula_sum   'Ta12 Al8 Pt4 C4'
_cell_volume   405.53137758
_cell_formula_units_Z   4
loop_
 _symmetry_equiv_pos_site_id
 _symmetry_equiv_pos_as_xyz
  1  'x, y, z'
loop_
 _atom_site_type_symbol
 _atom_site_label
 _atom_site_symmetry_multiplicity
 _atom_site_fract_x
 _atom_site_fract_y
 _atom_site_fract_z
 _atom_site_occupancy
  Ta  Ta0  1  0.56828856  0.93171144  0.56828856  1
  Ta  Ta1  1  0.31828856  0.68171144  0.68171144  1
  Ta  Ta2  1  0.68171144  0.31828856  0.31828856  1
  Ta  Ta3  1  0.31828856  0.68171144  0.31828856  1
  Ta  Ta4  1  0.68171144  0.68171144  0.31828856  1
  Ta  Ta5  1  0.31828856  0.31828856  0.68171144  1
  Ta  Ta6  1  0.56828856  0.56828856  0.93171144  1
  Ta  Ta7  1  0.93171144  0.56828856  0.56828856  1
  Ta  Ta8  1  0.56828856  0.93171144  0.93171144  1
  Ta  Ta9  1  0.93171144  0.93171144  0.56828856  1
  Ta  Ta10  1  0.68171144  0.31828856  0.68171144  1
  Ta  Ta11  1  0.93171144  0.56828856  0.93171144  1
  Al  Al0  1  0.91617374  0.91617374  0.91617374  1
  Al  Al1  1  0.99852123  0.33382626  0.33382626  1
  Al  Al2  1  0.33382626  0.99852123  0.33382626  1
  Al  Al3  1  0.33382626  0.33382626  0.99852123  1
  Al  Al4  1  0.91617374  0.25147877  0.91617374  1
  Al  Al5  1  0.91617374  0.91617374  0.25147877  1
  Al  Al6  1  0.25147877  0.91617374  0.91617374  1
  Al  Al7  1  0.33382626  0.33382626  0.33382626  1
  Pt  Pt0  1  0.12500000  0.12500000  0.12500000  1
  Pt  Pt1  1  0.62500000  0.12500000  0.12500000  1
  Pt  Pt2  1  0.12500000  0.62500000  0.12500000  1
  Pt  Pt3  1  0.12500000  0.12500000  0.62500000  1
  C  C0  1  0.62500000  0.62500000  0.62500000  1
  C  C1  1  0.12500000  0.62500000  0.62500000  1
  C  C2  1  0.62500000  0.12500000  0.62500000  1
  C  C3  1  0.62500000  0.62500000  0.12500000  1
loop_
_geom_bond_atom_site_label_1
_geom_bond_atom_site_label_2
_geom_bond_distance
_geom_bond_site_symmetry_2
Al0 Pt1 2.547254 1_566
Al0 Pt3 2.547254 1_665
Al0 Pt2 2.547254 1_656
Al1 Pt3 2.547254 1_655
Al1 Pt0 2.547254 1_655
Al1 Pt2 2.547254 1_655
Al2 Pt3 2.547254 1_565
Al2 Pt0 2.547254 1_565
Al2 Pt1 2.547254 1_565
Al3 Pt1 2.547254 1_556
Al3 Pt2 2.547254 1_556
Al3 Pt0 2.547254 1_556
Al4 Pt3 2.547254 1_655
Al4 Pt0 2.547254 1_656
Al4 Pt1 2.547254 1_556
Al5 Pt1 2.547254 1_565
Al5 Pt2 2.547254 1_655
Al5 Pt0 2.547254 1_665
Al6 Pt3 2.547254 1_565
Al6 Pt0 2.547254 1_566
Al6 Pt2 2.547254 1_556
Al7 Pt1 2.547254 1_555
Al7 Pt3 2.547254 1_555
Al7 Pt2 2.547254 1_555
Pt0 Ta5 3.077679 1_554
Pt0 Ta9 3.077679 1_445
Pt0 Ta8 3.077679 1_544
Pt0 Ta2 3.077679 1_455
Pt0 Ta3 3.077679 1_545
Pt0 Ta11 3.077679 1_454
Pt1 Ta0 3.077679 1_545
Pt1 Ta10 3.077679 1_554
Pt1 Ta2 3.077679 1_555
Pt1 Ta8 3.077679 1_544
Pt1 Ta6 3.077679 1_554
Pt1 Ta4 3.077679 1_545
Pt2 Ta7 3.077679 1_455
Pt2 Ta1 3.077679 1_554
Pt2 Ta3 3.077679 1_555
Pt2 Ta11 3.077679 1_454
Pt2 Ta6 3.077679 1_554
Pt2 Ta4 3.077679 1_455
Pt3 Ta0 3.077679 1_545
Pt3 Ta10 3.077679 1_455
Pt3 Ta5 3.077679 1_555
Pt3 Ta9 3.077679 1_445
Pt3 Ta7 3.077679 1_455
Pt3 Ta1 3.077679 1_545
C0 Ta6 2.181347 1_555
C0 Ta4 2.181347 1_555
C0 Ta7 2.181347 1_555
C0 Ta1 2.181347 1_555
C0 Ta0 2.181347 1_555
C0 Ta10 2.181347 1_555
C1 Ta11 2.181347 1_455
C1 Ta3 2.181347 1_555
C1 Ta1 2.181347 1_555
C1 Ta7 2.181347 1_455
C1 Ta9 2.181347 1_455
C1 Ta5 2.181347 1_555
C2 Ta8 2.181347 1_545
C2 Ta2 2.181347 1_555
C2 Ta5 2.181347 1_555
C2 Ta9 2.181347 1_545
C2 Ta10 2.181347 1_555
C2 Ta0 2.181347 1_545
C3 Ta4 2.181347 1_555
C3 Ta6 2.181347 1_554
C3 Ta3 2.181347 1_555
C3 Ta11 2.181347 1_554
C3 Ta8 2.181347 1_554
C3 Ta2 2.181347 1_555
