# generated using pymatgen
data_RbTaO3
_symmetry_space_group_name_H-M   'P 1'
_cell_length_a   6.43027102
_cell_length_b   6.43026992
_cell_length_c   8.16808936
_cell_angle_alpha   86.24770949
_cell_angle_beta   86.24770814
_cell_angle_gamma   83.07055500
_symmetry_Int_Tables_number   1
_chemical_formula_structural   RbTaO3
_chemical_formula_sum   'Rb4 Ta4 O12'
_cell_volume   333.98647388
_cell_formula_units_Z   4
loop_
 _symmetry_equiv_pos_site_id
 _symmetry_equiv_pos_as_xyz
  1  'x, y, z'
loop_
 _atom_site_type_symbol
 _atom_site_label
 _atom_site_symmetry_multiplicity
 _atom_site_fract_x
 _atom_site_fract_y
 _atom_site_fract_z
 _atom_site_occupancy
  Rb  Rb0  1  0.66204933  0.66204933  0.76124604  1
  Rb  Rb1  1  0.33795067  0.33795067  0.23875396  1
  Rb  Rb2  1  0.23439784  0.76560216  0.50000000  1
  Rb  Rb3  1  0.76560216  0.23439784  0.50000000  1
  Ta  Ta0  1  0.18939383  0.81060617  0.00000000  1
  Ta  Ta1  1  0.81060617  0.18939383  -0.00000000  1
  Ta  Ta2  1  0.73949046  0.73949046  0.19646896  1
  Ta  Ta3  1  0.26050954  0.26050954  0.80353104  1
  O  O0  1  0.12288695  0.12288695  0.05203341  1
  O  O1  1  0.87711305  0.87711305  0.94796659  1
  O  O2  1  0.77347509  0.45344587  0.10295968  1
  O  O3  1  0.54655413  0.22652491  0.89704032  1
  O  O4  1  0.22652491  0.54655413  0.89704032  1
  O  O5  1  0.45344587  0.77347509  0.10295968  1
  O  O6  1  0.33097539  0.33097539  0.58954317  1
  O  O7  1  0.66902461  0.66902461  0.41045683  1
  O  O8  1  0.28689255  0.95236455  0.78862552  1
  O  O9  1  0.04763545  0.71310745  0.21137448  1
  O  O10  1  0.71310745  0.04763545  0.21137448  1
  O  O11  1  0.95236455  0.28689255  0.78862552  1
loop_
_geom_bond_atom_site_label_1
_geom_bond_atom_site_label_2
_geom_bond_distance
_geom_bond_site_symmetry_2
O0 Ta0 2.067968 1_545
O0 Ta1 2.067969 1_455
O0 Ta3 2.324882 1_554
O0 Rb1 2.676675 1_555
O1 Ta1 2.067968 1_566
O1 Ta0 2.067969 1_656
O1 Ta2 2.324882 1_556
O1 Rb0 2.676675 1_555
O2 Ta1 1.926138 1_555
O2 Ta2 2.019743 1_555
O2 Rb1 3.100375 1_555
O2 Rb0 3.105314 1_554
O3 Ta1 1.926138 1_556
O3 Ta3 2.019744 1_555
O3 Rb0 3.100375 1_555
O3 Rb1 3.105314 1_556
O4 Ta0 1.926138 1_556
O4 Ta3 2.019743 1_555
O4 Rb0 3.100375 1_555
O4 Rb1 3.105314 1_556
O5 Ta0 1.926138 1_555
O5 Ta2 2.019744 1_555
O5 Rb1 3.100375 1_555
O5 Rb0 3.105314 1_554
O6 Ta3 1.818764 1_555
O6 Rb2 2.846831 1_555
O6 Rb3 2.846832 1_555
O6 Rb1 2.860189 1_555
O7 Ta2 1.818764 1_555
O7 Rb3 2.846831 1_555
O7 Rb2 2.846832 1_555
O7 Rb0 2.860189 1_555
O8 Ta3 1.979275 1_565
O8 Ta0 1.998773 1_556
O8 Rb2 2.772475 1_555
O8 Rb0 2.872602 1_555
O9 Ta2 1.979275 1_455
O9 Ta0 1.998773 1_555
O9 Rb2 2.772476 1_555
O9 Rb1 2.872602 1_555
O10 Ta2 1.979275 1_545
O10 Ta1 1.998773 1_555
O10 Rb3 2.772475 1_555
O10 Rb1 2.872602 1_555
O11 Ta3 1.979275 1_655
O11 Ta1 1.998773 1_556
O11 Rb3 2.772476 1_555
O11 Rb0 2.872602 1_555
