# generated using pymatgen
data_Rb16ZrSnSb8
_symmetry_space_group_name_H-M   'P 1'
_cell_length_a   12.01786741
_cell_length_b   12.01786741
_cell_length_c   12.01786802
_cell_angle_alpha   59.99999563
_cell_angle_beta   59.99999564
_cell_angle_gamma   59.99999864
_symmetry_Int_Tables_number   1
_chemical_formula_structural   Rb16ZrSnSb8
_chemical_formula_sum   'Rb16 Zr1 Sn1 Sb8'
_cell_volume   1227.34657698
_cell_formula_units_Z   1
loop_
 _symmetry_equiv_pos_site_id
 _symmetry_equiv_pos_as_xyz
  1  'x, y, z'
loop_
 _atom_site_type_symbol
 _atom_site_label
 _atom_site_symmetry_multiplicity
 _atom_site_fract_x
 _atom_site_fract_y
 _atom_site_fract_z
 _atom_site_occupancy
  Rb  Rb0  1  0.62285502  0.13143493  0.62285502  1
  Rb  Rb1  1  0.62285502  0.62285502  0.13143493  1
  Rb  Rb2  1  0.13143493  0.62285502  0.62285502  1
  Rb  Rb3  1  0.62285502  0.62285502  0.62285502  1
  Rb  Rb4  1  0.02222905  0.02222905  0.47777095  1
  Rb  Rb5  1  0.77735960  0.22264040  0.22264040  1
  Rb  Rb6  1  0.22264040  0.77735960  0.77735960  1
  Rb  Rb7  1  0.77735960  0.77735960  0.22264040  1
  Rb  Rb8  1  0.77735960  0.22264040  0.77735960  1
  Rb  Rb9  1  0.22264040  0.77735960  0.22264040  1
  Rb  Rb10  1  0.47777095  0.02222905  0.47777095  1
  Rb  Rb11  1  0.47777095  0.02222905  0.02222905  1
  Rb  Rb12  1  0.02222905  0.47777095  0.47777095  1
  Rb  Rb13  1  0.02222905  0.47777095  0.02222905  1
  Rb  Rb14  1  0.22264040  0.22264040  0.77735960  1
  Rb  Rb15  1  0.47777095  0.47777095  0.02222905  1
  Zr  Zr0  1  0.75000000  0.75000000  0.75000000  1
  Sn  Sn0  1  0.50000000  0.50000000  0.50000000  1
  Sb  Sb0  1  0.39990240  0.80029179  0.39990240  1
  Sb  Sb1  1  0.84819873  0.84819873  0.45540482  1
  Sb  Sb2  1  0.45540482  0.84819873  0.84819873  1
  Sb  Sb3  1  0.84819873  0.84819873  0.84819873  1
  Sb  Sb4  1  0.80029179  0.39990240  0.39990240  1
  Sb  Sb5  1  0.39990240  0.39990240  0.39990240  1
  Sb  Sb6  1  0.39990240  0.39990240  0.80029179  1
  Sb  Sb7  1  0.84819873  0.45540482  0.84819873  1
loop_
_geom_bond_atom_site_label_1
_geom_bond_atom_site_label_2
_geom_bond_distance
_geom_bond_site_symmetry_2
Rb0 Sn0 3.616562 1_555
Rb0 Zr0 3.742848 1_545
Rb0 Sb4 3.828534 1_555
Rb0 Sb6 3.828534 1_555
Rb0 Sb5 3.828541 1_555
Rb0 Sb2 3.892578 1_545
Rb0 Sb1 3.892578 1_545
Rb0 Sb3 3.892585 1_545
Rb1 Sn0 3.616562 1_555
Rb1 Zr0 3.742848 1_554
Rb1 Sb4 3.828534 1_555
Rb1 Sb0 3.828534 1_555
Rb1 Sb5 3.828541 1_555
Rb1 Sb2 3.892578 1_554
Rb1 Sb7 3.892578 1_554
Rb1 Sb3 3.892585 1_554
Rb2 Sn0 3.616562 1_555
Rb2 Zr0 3.742848 1_455
Rb2 Sb0 3.828534 1_555
Rb2 Sb6 3.828534 1_555
Rb2 Sb5 3.828541 1_555
Rb2 Sb7 3.892578 1_455
Rb2 Sb1 3.892578 1_455
Rb2 Sb3 3.892585 1_455
Rb3 Sn0 3.616562 1_555
Rb3 Zr0 3.742849 1_555
Rb3 Sb6 3.828543 1_555
Rb3 Sb4 3.828543 1_555
Rb3 Sb0 3.828543 1_555
Rb3 Sb1 3.892587 1_555
Rb3 Sb2 3.892588 1_555
Rb3 Sb7 3.892588 1_555
Rb4 Sb1 3.784096 1_445
Rb4 Sb3 3.784103 1_445
Rb4 Sb4 3.838389 1_455
Rb4 Sb0 3.838389 1_545
Rb5 Sb1 3.842167 1_545
Rb5 Sb7 3.842167 1_554
Rb5 Sb4 3.855495 1_555
Rb5 Sb5 3.855502 1_555
Rb6 Sb3 3.842164 1_455
Rb6 Sb2 3.842176 1_555
Rb6 Sb6 3.855505 1_555
Rb6 Sb0 3.855505 1_555
Rb7 Sb3 3.842165 1_554
Rb7 Sb1 3.842176 1_555
Rb7 Sb4 3.855505 1_555
Rb7 Sb0 3.855505 1_555
Rb8 Sb3 3.842164 1_545
Rb8 Sb7 3.842176 1_555
Rb8 Sb6 3.855505 1_555
Rb8 Sb4 3.855505 1_555
Rb9 Sb1 3.842167 1_455
Rb9 Sb2 3.842167 1_554
Rb9 Sb0 3.855495 1_555
Rb9 Sb5 3.855502 1_555
Rb10 Sb1 3.784106 1_545
Rb10 Sb2 3.784106 1_545
Rb10 Sb5 3.838386 1_555
Rb10 Sb0 3.838397 1_545
Rb11 Sb2 3.784096 1_544
Rb11 Sb3 3.784103 1_544
Rb11 Sb6 3.838389 1_554
Rb11 Sb0 3.838389 1_545
Rb12 Sb1 3.784106 1_455
Rb12 Sb7 3.784106 1_455
Rb12 Sb5 3.838386 1_555
Rb12 Sb4 3.838397 1_455
Rb13 Sb7 3.784096 1_454
Rb13 Sb3 3.784103 1_454
Rb13 Sb6 3.838389 1_554
Rb13 Sb4 3.838389 1_455
Rb14 Sb2 3.842167 1_545
Rb14 Sb7 3.842167 1_455
Rb14 Sb6 3.855495 1_555
Rb14 Sb5 3.855502 1_555
Rb15 Sb2 3.784106 1_554
Rb15 Sb7 3.784106 1_554
Rb15 Sb5 3.838386 1_555
Rb15 Sb6 3.838398 1_554
Sb0 Sn0 2.946627 1_555
Sb1 Zr0 2.890729 1_555
Sb2 Zr0 2.890729 1_555
Sb3 Zr0 2.890739 1_555
Sb4 Sn0 2.946627 1_555
Sb5 Sn0 2.946637 1_555
Sb6 Sn0 2.946627 1_555
Sb7 Zr0 2.890729 1_555
