# generated using pymatgen
data_K3Si4Au
_symmetry_space_group_name_H-M   'P 1'
_cell_length_a   5.90531817
_cell_length_b   6.68528642
_cell_length_c   11.85918883
_cell_angle_alpha   90.00000000
_cell_angle_beta   90.00000000
_cell_angle_gamma   90.00000000
_symmetry_Int_Tables_number   1
_chemical_formula_structural   K3Si4Au
_chemical_formula_sum   'K6 Si8 Au2'
_cell_volume   468.18587191
_cell_formula_units_Z   2
loop_
 _symmetry_equiv_pos_site_id
 _symmetry_equiv_pos_as_xyz
  1  'x, y, z'
loop_
 _atom_site_type_symbol
 _atom_site_label
 _atom_site_symmetry_multiplicity
 _atom_site_fract_x
 _atom_site_fract_y
 _atom_site_fract_z
 _atom_site_occupancy
  K  K0  1  0.42177523  0.50000000  0.50000000  1
  K  K1  1  0.57822477  0.00000000  0.00000000  1
  K  K2  1  0.16433268  0.00000000  0.76803997  1
  K  K3  1  0.16433268  0.00000000  0.23196003  1
  K  K4  1  0.83566732  0.50000000  0.73196003  1
  K  K5  1  0.83566732  0.50000000  0.26803997  1
  Si  Si0  1  0.32658100  0.50000000  0.10834497  1
  Si  Si1  1  0.32658100  0.50000000  0.89165503  1
  Si  Si2  1  0.06143348  0.30955688  0.00000000  1
  Si  Si3  1  0.06143348  0.69044312  0.00000000  1
  Si  Si4  1  0.93856652  0.80955688  0.50000000  1
  Si  Si5  1  0.93856652  0.19044312  0.50000000  1
  Si  Si6  1  0.67341900  0.00000000  0.39165503  1
  Si  Si7  1  0.67341900  0.00000000  0.60834497  1
  Au  Au0  1  0.69240412  0.50000000  0.00000000  1
  Au  Au1  1  0.30759588  0.00000000  0.50000000  1
loop_
_geom_bond_atom_site_label_1
_geom_bond_atom_site_label_2
_geom_bond_distance
_geom_bond_site_symmetry_2
K0 Si4 3.524940 1_455
K0 Si5 3.524940 1_455
K0 Si4 3.687319 1_555
K0 Si5 3.687319 1_555
K1 Si2 3.524940 1_655
K1 Si3 3.524940 1_645
K1 Si2 3.687319 1_555
K1 Si3 3.687319 1_545
K2 Si7 3.462786 1_455
K2 Si2 3.495596 1_556
K2 Si3 3.495596 1_546
K2 Si7 3.553114 1_555
K3 Si6 3.462786 1_455
K3 Si2 3.495596 1_555
K3 Si3 3.495596 1_545
K3 Si6 3.553114 1_555
K4 Si1 3.462786 1_655
K4 Si4 3.495596 1_555
K4 Si5 3.495596 1_555
K4 Si1 3.553114 1_555
K5 Si0 3.462786 1_655
K5 Si4 3.495596 1_555
K5 Si5 3.495596 1_555
K5 Si0 3.553114 1_555
Au0 Si0 2.513529 1_555
Au0 Si1 2.513529 1_554
Au0 Si3 2.523890 1_655
Au0 Si2 2.523890 1_655
Au0 K5 3.289393 1_555
Au0 K4 3.289393 1_554
Au0 K1 3.409970 1_565
Au0 K1 3.409970 1_555
Au1 Si7 2.513529 1_555
Au1 Si6 2.513529 1_555
Au1 Si5 2.523890 1_455
Au1 Si4 2.523890 1_445
Au1 K2 3.289393 1_555
Au1 K3 3.289393 1_555
Au1 K0 3.409970 1_555
Au1 K0 3.409970 1_545
