# generated using pymatgen
data_LiY3(Si4Tc3)2
_symmetry_space_group_name_H-M   'P 1'
_cell_length_a   6.73045577
_cell_length_b   6.57594824
_cell_length_c   6.73036671
_cell_angle_alpha   70.62156150
_cell_angle_beta   89.82954430
_cell_angle_gamma   89.84244931
_symmetry_Int_Tables_number   1
_chemical_formula_structural   LiY3(Si4Tc3)2
_chemical_formula_sum   'Li1 Y3 Si8 Tc6'
_cell_volume   281.00280350
_cell_formula_units_Z   1
loop_
 _symmetry_equiv_pos_site_id
 _symmetry_equiv_pos_as_xyz
  1  'x, y, z'
loop_
 _atom_site_type_symbol
 _atom_site_label
 _atom_site_symmetry_multiplicity
 _atom_site_fract_x
 _atom_site_fract_y
 _atom_site_fract_z
 _atom_site_occupancy
  Li  Li0  1  0.17116840  0.95963541  0.17806844  1
  Y  Y0  1  0.33112017  0.44065307  0.19522466  1
  Y  Y1  1  0.83617644  0.05468782  0.81344695  1
  Y  Y2  1  0.66588834  0.56302811  0.80535611  1
  Si  Si0  1  0.53515892  0.11401136  0.10787335  1
  Si  Si1  1  0.34862628  0.65087394  0.49550927  1
  Si  Si2  1  0.87622271  0.86602705  0.47758442  1
  Si  Si3  1  0.04817779  0.37395275  0.90612929  1
  Si  Si4  1  0.14274004  0.11900298  0.50349659  1
  Si  Si5  1  0.63894458  0.36587184  0.49134276  1
  Si  Si6  1  0.95699630  0.62449620  0.10940725  1
  Si  Si7  1  0.44430207  0.88260252  0.90429242  1
  Tc  Tc0  1  0.84249849  0.23935054  0.23737049  1
  Tc  Tc1  1  0.34228167  0.26052727  0.76066230  1
  Tc  Tc2  1  0.15836849  0.74823781  0.76973439  1
  Tc  Tc3  1  0.65836394  0.74202045  0.23904762  1
  Tc  Tc4  1  0.50098769  0.99822249  0.50357891  1
  Tc  Tc5  1  0.00197869  0.49679738  0.50187177  1
loop_
_geom_bond_atom_site_label_1
_geom_bond_atom_site_label_2
_geom_bond_distance
_geom_bond_site_symmetry_2
Li0 Si0 2.635130 1_565
Li0 Si1 2.690128 1_555
Li0 Si4 2.729787 1_565
Li0 Si2 2.746401 1_455
Li0 Si7 2.761407 1_554
Li0 Si6 2.801013 1_455
Li0 Si3 2.854043 1_564
Li0 Tc0 2.982550 1_465
Li0 Tc1 3.072143 1_564
Li0 Tc4 3.192588 1_555
Li0 Y1 3.240938 1_464
Si0 Si7 2.441465 1_544
Si0 Tc3 2.451724 1_545
Si0 Tc0 2.492915 1_555
Si0 Tc4 2.525299 1_545
Si0 Tc1 2.567379 1_554
Si0 Y0 2.768089 1_555
Si0 Y1 2.944196 1_554
Si0 Y2 3.106808 1_554
Si1 Tc2 2.494324 1_555
Si1 Tc4 2.523367 1_555
Si1 Tc5 2.540740 1_555
Si1 Tc1 2.595335 1_555
Si1 Tc3 2.642610 1_555
Si1 Si5 2.710292 1_555
Si1 Y0 2.804607 1_555
Si1 Y2 2.909019 1_555
Si2 Tc0 2.461175 1_565
Si2 Si4 2.495254 1_665
Si2 Tc3 2.506349 1_555
Si2 Tc5 2.522815 1_655
Si2 Tc2 2.660023 1_655
Si2 Tc4 2.692712 1_555
Si2 Y2 2.814371 1_555
Si2 Y1 2.928673 1_565
Si3 Tc1 2.428591 1_555
Si3 Tc2 2.440742 1_555
Si3 Tc0 2.519678 1_456
Si3 Si6 2.539321 1_456
Si3 Tc5 2.587877 1_555
Si3 Y1 2.779151 1_455
Si3 Y2 2.838897 1_455
Si3 Y0 2.863156 1_556
Si4 Tc2 2.503374 1_545
Si4 Tc4 2.536484 1_545
Si4 Tc1 2.599072 1_555
Si4 Tc0 2.643861 1_455
Si4 Tc5 2.653070 1_555
Si4 Y0 2.733674 1_555
Si4 Y1 2.860343 1_455
Si5 Tc3 2.496391 1_555
Si5 Tc0 2.532687 1_555
Si5 Tc4 2.567816 1_545
Si5 Tc5 2.601824 1_655
Si5 Tc1 2.627734 1_555
Si5 Y1 2.776254 1_555
Si5 Y0 2.806197 1_555
Si5 Y2 2.828821 1_555
Si6 Tc3 2.413899 1_555
Si6 Tc5 2.511049 1_655
Si6 Tc0 2.511857 1_555
Si6 Tc2 2.545298 1_654
Si6 Y0 2.768416 1_655
Si6 Y2 2.960909 1_554
Si6 Y1 2.981496 1_564
Si7 Tc2 2.419743 1_555
Si7 Tc1 2.445922 1_565
Si7 Tc4 2.575245 1_555
Si7 Tc3 2.576094 1_556
Si7 Y2 2.826552 1_555
Si7 Y1 2.856299 1_565
Si7 Y0 3.014547 1_556
Tc0 Tc4 3.019576 1_545
Tc0 Y2 3.208938 1_554
Tc1 Tc4 3.011566 1_545
Tc1 Y2 3.035804 1_555
Tc2 Y1 3.035718 1_465
Tc2 Tc4 3.044811 1_555
Tc2 Y0 3.131592 1_556
Tc3 Tc4 3.016570 1_555
Tc3 Y0 3.046505 1_555
Tc3 Y1 3.154289 1_564
Tc4 Y2 3.112183 1_555
Tc4 Y0 3.172961 1_565
Tc4 Y1 3.181697 1_565
Tc5 Y0 3.126846 1_555
Tc5 Y2 3.167966 1_455
Tc5 Y1 3.170680 1_455
