# generated using pymatgen
data_KYTa6Cl18
_symmetry_space_group_name_H-M   'P 1'
_cell_length_a   10.07334203
_cell_length_b   10.07334210
_cell_length_c   10.07334184
_cell_angle_alpha   55.32876023
_cell_angle_beta   55.32875689
_cell_angle_gamma   55.32875901
_symmetry_Int_Tables_number   1
_chemical_formula_structural   KYTa6Cl18
_chemical_formula_sum   'K1 Y1 Ta6 Cl18'
_cell_volume   644.33096529
_cell_formula_units_Z   1
loop_
 _symmetry_equiv_pos_site_id
 _symmetry_equiv_pos_as_xyz
  1  'x, y, z'
loop_
 _atom_site_type_symbol
 _atom_site_label
 _atom_site_symmetry_multiplicity
 _atom_site_fract_x
 _atom_site_fract_y
 _atom_site_fract_z
 _atom_site_occupancy
  K  K0  1  0.22290838  0.22290838  0.22290838  1
  Y  Y0  1  0.49876061  0.49876061  0.49876061  1
  Ta  Ta0  1  0.80203712  0.14840724  0.91214653  1
  Ta  Ta1  1  0.91214653  0.80203712  0.14840724  1
  Ta  Ta2  1  0.14840724  0.91214653  0.80203712  1
  Ta  Ta3  1  0.19888725  0.85183113  0.08677255  1
  Ta  Ta4  1  0.08677255  0.19888725  0.85183113  1
  Ta  Ta5  1  0.85183113  0.08677255  0.19888725  1
  Cl  Cl0  1  0.86488956  0.41561182  0.72093609  1
  Cl  Cl1  1  0.72093609  0.86488956  0.41561182  1
  Cl  Cl2  1  0.41561182  0.72093609  0.86488956  1
  Cl  Cl3  1  0.13515140  0.58318222  0.27968383  1
  Cl  Cl4  1  0.27968383  0.13515140  0.58318222  1
  Cl  Cl5  1  0.58318222  0.27968383  0.13515140  1
  Cl  Cl6  1  0.53295828  0.34135600  0.80524717  1
  Cl  Cl7  1  0.80524717  0.53295828  0.34135600  1
  Cl  Cl8  1  0.34135600  0.80524717  0.53295828  1
  Cl  Cl9  1  0.46205001  0.65985004  0.19820528  1
  Cl  Cl10  1  0.19820528  0.46205001  0.65985004  1
  Cl  Cl11  1  0.65985004  0.19820528  0.46205001  1
  Cl  Cl12  1  0.65736959  0.93972309  0.07286986  1
  Cl  Cl13  1  0.07286986  0.65736959  0.93972309  1
  Cl  Cl14  1  0.93972309  0.07286986  0.65736959  1
  Cl  Cl15  1  0.34225333  0.06073787  0.92731275  1
  Cl  Cl16  1  0.92731275  0.34225333  0.06073787  1
  Cl  Cl17  1  0.06073787  0.92731275  0.34225333  1
loop_
_geom_bond_atom_site_label_1
_geom_bond_atom_site_label_2
_geom_bond_distance
_geom_bond_site_symmetry_2
Cl0 Ta0 2.451261 1_555
Cl0 Ta4 2.454933 1_655
Cl1 Ta1 2.451260 1_555
Cl1 Ta5 2.454933 1_565
Cl2 Ta2 2.451261 1_555
Cl2 Ta3 2.454933 1_556
Cl3 Ta1 2.466511 1_455
Cl3 Ta3 2.466999 1_555
Cl3 K0 3.523570 1_555
Cl4 Ta2 2.466511 1_545
Cl4 Ta4 2.466999 1_555
Cl4 K0 3.523570 1_555
Cl5 Ta0 2.466511 1_554
Cl5 Ta5 2.466999 1_555
Cl5 K0 3.523570 1_555
Cl6 Y0 2.680213 1_555
Cl6 Ta0 2.688846 1_555
Cl6 K0 3.529525 1_556
Cl7 Y0 2.680213 1_555
Cl7 Ta1 2.688846 1_555
Cl7 K0 3.529525 1_655
Cl8 Y0 2.680213 1_555
Cl8 Ta2 2.688845 1_555
Cl8 K0 3.529525 1_565
Cl9 Y0 2.633966 1_555
Cl9 Ta3 2.666530 1_555
Cl10 Y0 2.633966 1_555
Cl10 Ta4 2.666530 1_555
Cl11 Y0 2.633966 1_555
Cl11 Ta5 2.666530 1_555
Cl12 Ta1 2.461830 1_555
Cl12 Ta0 2.468354 1_564
Cl12 K0 3.570852 1_565
Cl13 Ta2 2.461830 1_555
Cl13 Ta1 2.468354 1_456
Cl13 K0 3.570852 1_556
Cl14 Ta0 2.461830 1_555
Cl14 Ta2 2.468354 1_645
Cl14 K0 3.570851 1_655
Cl15 Ta3 2.463097 1_546
Cl15 Ta4 2.466912 1_555
Cl15 K0 3.493895 1_556
Cl16 Ta4 2.463097 1_654
Cl16 Ta5 2.466912 1_555
Cl16 K0 3.493895 1_655
Cl17 Ta5 2.463097 1_465
Cl17 Ta3 2.466912 1_555
Cl17 K0 3.493895 1_565
