# generated using pymatgen
data_Y6Sc2InAu9
_symmetry_space_group_name_H-M   'P 1'
_cell_length_a   7.91001498
_cell_length_b   7.91001545
_cell_length_c   7.91001399
_cell_angle_alpha   66.20427060
_cell_angle_beta   66.20427014
_cell_angle_gamma   66.20426455
_symmetry_Int_Tables_number   1
_chemical_formula_structural   Y6Sc2InAu9
_chemical_formula_sum   'Y6 Sc2 In1 Au9'
_cell_volume   396.85564896
_cell_formula_units_Z   1
loop_
 _symmetry_equiv_pos_site_id
 _symmetry_equiv_pos_as_xyz
  1  'x, y, z'
loop_
 _atom_site_type_symbol
 _atom_site_label
 _atom_site_symmetry_multiplicity
 _atom_site_fract_x
 _atom_site_fract_y
 _atom_site_fract_z
 _atom_site_occupancy
  Y  Y0  1  0.89964769  0.18436331  0.62534820  1
  Y  Y1  1  0.62534820  0.89964769  0.18436331  1
  Y  Y2  1  0.18436331  0.62534820  0.89964769  1
  Y  Y3  1  0.10035231  0.81563669  0.37465180  1
  Y  Y4  1  0.37465180  0.10035231  0.81563669  1
  Y  Y5  1  0.81563669  0.37465180  0.10035231  1
  Sc  Sc0  1  0.66420293  0.66420293  0.66420293  1
  Sc  Sc1  1  0.33579707  0.33579707  0.33579707  1
  In  In0  1  0.50000000  0.50000000  0.50000000  1
  Au  Au0  1  0.00000000  0.00000000  0.00000000  1
  Au  Au1  1  0.80814751  0.80814751  0.80814751  1
  Au  Au2  1  0.19185249  0.19185249  0.19185249  1
  Au  Au3  1  0.93141171  0.54424883  0.32533760  1
  Au  Au4  1  0.32533760  0.93141171  0.54424883  1
  Au  Au5  1  0.54424883  0.32533760  0.93141171  1
  Au  Au6  1  0.06858829  0.45575117  0.67466240  1
  Au  Au7  1  0.67466240  0.06858829  0.45575117  1
  Au  Au8  1  0.45575117  0.67466240  0.06858829  1
loop_
_geom_bond_atom_site_label_1
_geom_bond_atom_site_label_2
_geom_bond_distance
_geom_bond_site_symmetry_2
In0 Sc0 3.024074 1_555
In0 Sc1 3.024074 1_555
In0 Y2 3.372327 1_555
In0 Y5 3.372327 1_555
In0 Y0 3.372327 1_555
In0 Y3 3.372327 1_555
In0 Y1 3.372327 1_555
In0 Y4 3.372327 1_555
Au0 Y3 3.002639 1_545
Au0 Y0 3.002639 1_454
Au0 Y5 3.002639 1_455
Au0 Y2 3.002639 1_544
Au0 Y4 3.002639 1_554
Au0 Y1 3.002639 1_445
Au1 Sc0 2.650982 1_555
Au1 Y1 2.981892 1_556
Au1 Y2 2.981892 1_655
Au1 Y0 2.981893 1_565
Au1 Y3 3.264143 1_655
Au1 Y4 3.264143 1_565
Au1 Y5 3.264143 1_556
Au2 Sc1 2.650982 1_555
Au2 Y4 2.981892 1_554
Au2 Y5 2.981892 1_455
Au2 Y3 2.981893 1_545
Au2 Y0 3.264143 1_455
Au2 Y1 3.264143 1_545
Au2 Y2 3.264143 1_554
Au3 Sc0 2.900803 1_555
Au3 Y0 2.905692 1_555
Au3 Sc1 2.967265 1_655
Au3 Y1 3.027257 1_555
Au3 Y2 3.099847 1_654
Au3 Y3 3.155534 1_655
Au3 Y5 3.168355 1_555
Au3 In0 3.231931 1_555
Au4 Sc0 2.900803 1_555
Au4 Y1 2.905692 1_555
Au4 Sc1 2.967265 1_565
Au4 Y2 3.027257 1_555
Au4 Y0 3.099847 1_465
Au4 Y4 3.155534 1_565
Au4 Y3 3.168355 1_555
Au4 In0 3.231931 1_555
Au5 Sc0 2.900803 1_555
Au5 Y2 2.905692 1_555
Au5 Sc1 2.967265 1_556
Au5 Y0 3.027257 1_555
Au5 Y1 3.099847 1_546
Au5 Y5 3.155534 1_556
Au5 Y4 3.168355 1_555
Au5 In0 3.231931 1_555
Au6 Sc1 2.900803 1_555
Au6 Y3 2.905692 1_555
Au6 Sc0 2.967265 1_455
Au6 Y4 3.027257 1_555
Au6 Y5 3.099847 1_456
Au6 Y0 3.155534 1_455
Au6 Y2 3.168355 1_555
Au6 In0 3.231931 1_555
Au7 Sc1 2.900803 1_555
Au7 Y4 2.905692 1_555
Au7 Sc0 2.967265 1_545
Au7 Y5 3.027257 1_555
Au7 Y3 3.099847 1_645
Au7 Y1 3.155534 1_545
Au7 Y0 3.168355 1_555
Au7 In0 3.231931 1_555
Au8 Sc1 2.900803 1_555
Au8 Y5 2.905692 1_555
Au8 Sc0 2.967265 1_554
Au8 Y3 3.027257 1_555
Au8 Y4 3.099847 1_564
Au8 Y2 3.155534 1_554
Au8 Y1 3.168355 1_555
Au8 In0 3.231931 1_555
