# generated using pymatgen
data_Sr2CaPt2
_symmetry_space_group_name_H-M   'P 1'
_cell_length_a   7.90308733
_cell_length_b   7.90308762
_cell_length_c   7.90308844
_cell_angle_alpha   70.43393024
_cell_angle_beta   70.43393969
_cell_angle_gamma   70.43393377
_symmetry_Int_Tables_number   1
_chemical_formula_structural   Sr2CaPt2
_chemical_formula_sum   'Sr6 Ca3 Pt6'
_cell_volume   424.24050117
_cell_formula_units_Z   3
loop_
 _symmetry_equiv_pos_site_id
 _symmetry_equiv_pos_as_xyz
  1  'x, y, z'
loop_
 _atom_site_type_symbol
 _atom_site_label
 _atom_site_symmetry_multiplicity
 _atom_site_fract_x
 _atom_site_fract_y
 _atom_site_fract_z
 _atom_site_occupancy
  Sr  Sr0  1  0.32960299  0.60624835  0.84689201  1
  Sr  Sr1  1  0.84689201  0.32960299  0.60624835  1
  Sr  Sr2  1  0.60624835  0.84689201  0.32960299  1
  Sr  Sr3  1  0.67039701  0.39375165  0.15310799  1
  Sr  Sr4  1  0.15310799  0.67039701  0.39375165  1
  Sr  Sr5  1  0.39375165  0.15310799  0.67039701  1
  Ca  Ca0  1  0.00000000  0.00000000  0.00000000  1
  Ca  Ca1  1  0.80487290  0.80487290  0.80487290  1
  Ca  Ca2  1  0.19512710  0.19512710  0.19512710  1
  Pt  Pt0  1  0.14707718  0.96229991  0.58653856  1
  Pt  Pt1  1  0.58653856  0.14707718  0.96229991  1
  Pt  Pt2  1  0.96229991  0.58653856  0.14707718  1
  Pt  Pt3  1  0.85292282  0.03770009  0.41346144  1
  Pt  Pt4  1  0.41346144  0.85292282  0.03770009  1
  Pt  Pt5  1  0.03770009  0.41346144  0.85292282  1
loop_
_geom_bond_atom_site_label_1
_geom_bond_atom_site_label_2
_geom_bond_distance
_geom_bond_site_symmetry_2
Ca0 Pt4 3.161231 1_545
Ca0 Pt1 3.161231 1_454
Ca0 Pt5 3.161231 1_554
Ca0 Pt2 3.161231 1_445
Ca0 Pt3 3.161231 1_455
Ca0 Pt0 3.161231 1_544
Ca1 Pt5 2.994613 1_655
Ca1 Pt4 2.994613 1_556
Ca1 Pt3 2.994613 1_565
Ca1 Pt2 3.087013 1_556
Ca1 Pt0 3.087013 1_655
Ca1 Pt1 3.087013 1_565
Ca2 Pt2 2.994613 1_455
Ca2 Pt1 2.994613 1_554
Ca2 Pt0 2.994613 1_545
Ca2 Pt5 3.087013 1_554
Ca2 Pt3 3.087013 1_455
Ca2 Pt4 3.087013 1_545
Pt0 Pt3 2.878626 1_465
Pt0 Sr1 3.085720 1_465
Pt0 Sr0 3.102242 1_555
Pt0 Sr4 3.142856 1_555
Pt0 Sr5 3.165043 1_565
Pt0 Sr2 3.494566 1_555
Pt1 Pt4 2.878626 1_546
Pt1 Sr2 3.085720 1_546
Pt1 Sr1 3.102243 1_555
Pt1 Sr5 3.142856 1_555
Pt1 Sr3 3.165043 1_556
Pt1 Sr0 3.494566 1_555
Pt2 Pt5 2.878627 1_654
Pt2 Sr0 3.085720 1_654
Pt2 Sr2 3.102243 1_555
Pt2 Sr3 3.142856 1_555
Pt2 Sr4 3.165043 1_655
Pt2 Sr1 3.494566 1_555
Pt3 Sr4 3.085720 1_645
Pt3 Sr3 3.102242 1_555
Pt3 Sr1 3.142856 1_555
Pt3 Sr2 3.165043 1_545
Pt3 Sr5 3.494566 1_555
Pt4 Sr5 3.085720 1_564
Pt4 Sr4 3.102243 1_555
Pt4 Sr2 3.142856 1_555
Pt4 Sr0 3.165043 1_554
Pt4 Sr3 3.494566 1_555
Pt5 Sr3 3.085720 1_456
Pt5 Sr5 3.102243 1_555
Pt5 Sr0 3.142856 1_555
Pt5 Sr1 3.165043 1_455
Pt5 Sr4 3.494566 1_555
