# generated using pymatgen
data_Y8SnPd23Pt
_symmetry_space_group_name_H-M   'P 1'
_cell_length_a   8.34980140
_cell_length_b   8.34069292
_cell_length_c   8.34069292
_cell_angle_alpha   90.00000000
_cell_angle_beta   90.00000000
_cell_angle_gamma   90.00000000
_symmetry_Int_Tables_number   1
_chemical_formula_structural   Y8SnPd23Pt
_chemical_formula_sum   'Y8 Sn1 Pd23 Pt1'
_cell_volume   580.87195619
_cell_formula_units_Z   1
loop_
 _symmetry_equiv_pos_site_id
 _symmetry_equiv_pos_as_xyz
  1  'x, y, z'
loop_
 _atom_site_type_symbol
 _atom_site_label
 _atom_site_symmetry_multiplicity
 _atom_site_fract_x
 _atom_site_fract_y
 _atom_site_fract_z
 _atom_site_occupancy
  Y  Y0  1  0.25241015  0.25297895  0.25297895  1
  Y  Y1  1  0.74761415  0.74757677  0.74757677  1
  Y  Y2  1  0.74761415  0.74757677  0.25242323  1
  Y  Y3  1  0.74761415  0.25242323  0.74757677  1
  Y  Y4  1  0.25241015  0.25297895  0.74702105  1
  Y  Y5  1  0.25241015  0.74702105  0.25297895  1
  Y  Y6  1  0.25241015  0.74702105  0.74702105  1
  Y  Y7  1  0.74761415  0.25242323  0.25242323  1
  Sn  Sn0  1  0.00022126  0.00000000  0.00000000  1
  Pd  Pd0  1  0.26522136  0.50000000  0.00000000  1
  Pd  Pd1  1  0.73468094  0.50000000  0.00000000  1
  Pd  Pd2  1  0.99988317  0.26519691  0.50000000  1
  Pd  Pd3  1  0.50006884  0.26517088  0.00000000  1
  Pd  Pd4  1  0.99988317  0.73480309  0.50000000  1
  Pd  Pd5  1  0.50006884  0.73482912  0.00000000  1
  Pd  Pd6  1  0.50006884  0.00000000  0.26517088  1
  Pd  Pd7  1  0.26522136  0.00000000  0.50000000  1
  Pd  Pd8  1  0.50006884  0.00000000  0.73482912  1
  Pd  Pd9  1  0.73468094  0.00000000  0.50000000  1
  Pd  Pd10  1  0.99988317  0.50000000  0.26519691  1
  Pd  Pd11  1  0.99988317  0.50000000  0.73480309  1
  Pd  Pd12  1  0.74546802  0.50000000  0.50000000  1
  Pd  Pd13  1  0.50011279  0.25467529  0.50000000  1
  Pd  Pd14  1  0.50011279  0.74532471  0.50000000  1
  Pd  Pd15  1  0.50011279  0.50000000  0.25467529  1
  Pd  Pd16  1  0.50011279  0.50000000  0.74532471  1
  Pd  Pd17  1  0.30907848  0.00000000  0.00000000  1
  Pd  Pd18  1  0.69123456  0.00000000  0.00000000  1
  Pd  Pd19  1  0.99988195  0.30898176  0.00000000  1
  Pd  Pd20  1  0.99988195  0.69101824  0.00000000  1
  Pd  Pd21  1  0.99988195  0.00000000  0.30898176  1
  Pd  Pd22  1  0.99988195  0.00000000  0.69101824  1
  Pt  Pt0  1  0.25431191  0.50000000  0.50000000  1
loop_
_geom_bond_atom_site_label_1
_geom_bond_atom_site_label_2
_geom_bond_distance
_geom_bond_site_symmetry_2
Pd0 Pd20 2.728909 1_455
Pd0 Pd19 2.728909 1_455
Pd0 Pd5 2.771553 1_555
Pd0 Pd3 2.771553 1_555
Pd0 Pd15 2.891155 1_555
Pd0 Pd16 2.891155 1_554
Pd0 Y5 2.951029 1_555
Pd0 Y0 2.951029 1_555
Pd0 Y6 2.951029 1_554
Pd0 Y4 2.951029 1_554
Pd0 Pd10 3.130679 1_455
Pd0 Pd11 3.130679 1_454
Pd1 Pd20 2.727971 1_555
Pd1 Pd19 2.727971 1_555
Pd1 Pd5 2.770163 1_555
Pd1 Pd3 2.770163 1_555
Pd1 Pd15 2.889324 1_555
Pd1 Pd16 2.889324 1_554
Pd1 Y2 2.950995 1_555
Pd1 Y7 2.950995 1_555
Pd1 Y1 2.950995 1_554
Pd1 Y3 2.950995 1_554
Pd1 Pd10 3.129876 1_555
Pd1 Pd11 3.129876 1_554
Pd2 Pd22 2.725983 1_555
Pd2 Pd21 2.725983 1_555
Pd2 Pt0 2.889396 1_655
Pd2 Y4 2.949799 1_655
Pd2 Y0 2.949799 1_655
Pd2 Y3 2.951665 1_555
Pd2 Y7 2.951665 1_555
Pd2 Pd9 3.129876 1_555
Pd2 Pd7 3.130679 1_655
Pd3 Y7 2.952329 1_555
Pd3 Y3 2.952329 1_554
Pd3 Y0 2.956136 1_555
Pd3 Y4 2.956136 1_554
Pd3 Pd6 3.127829 1_555
Pd3 Pd8 3.127829 1_554
Pd4 Pt0 2.889396 1_655
Pd4 Y6 2.949799 1_655
Pd4 Y5 2.949799 1_655
Pd4 Y1 2.951665 1_555
Pd4 Y2 2.951665 1_555
Pd4 Pd9 3.129876 1_565
Pd4 Pd7 3.130679 1_665
Pd5 Y2 2.952329 1_555
Pd5 Y1 2.952329 1_554
Pd5 Y5 2.956136 1_555
Pd5 Y6 2.956136 1_554
Pd5 Pd6 3.127829 1_565
Pd5 Pd8 3.127829 1_564
Pd6 Pd9 2.770163 1_555
Pd6 Pd7 2.771553 1_555
Pd6 Y7 2.952329 1_555
Pd6 Y2 2.952329 1_545
Pd6 Y0 2.956136 1_555
Pd6 Y5 2.956136 1_545
Pd7 Pd8 2.771553 1_555
Pd7 Y4 2.951029 1_555
Pd7 Y0 2.951029 1_555
Pd7 Y6 2.951029 1_545
Pd7 Y5 2.951029 1_545
Pd8 Pd9 2.770163 1_555
Pd8 Y3 2.952329 1_555
Pd8 Y1 2.952329 1_545
Pd8 Y4 2.956136 1_555
Pd8 Y6 2.956136 1_545
Pd9 Y3 2.950995 1_555
Pd9 Y7 2.950995 1_555
Pd9 Y1 2.950995 1_545
Pd9 Y2 2.950995 1_545
Pd10 Pd20 2.725983 1_555
Pd10 Pd19 2.725983 1_555
Pd10 Pd4 2.769625 1_555
Pd10 Pd2 2.769625 1_555
Pd10 Pd12 2.889313 1_555
Pd10 Pt0 2.889396 1_655
Pd10 Y5 2.949799 1_655
Pd10 Y0 2.949799 1_655
Pd10 Y2 2.951665 1_555
Pd10 Y7 2.951665 1_555
Pd11 Pd20 2.725983 1_556
Pd11 Pd19 2.725983 1_556
Pd11 Pd4 2.769625 1_555
Pd11 Pd2 2.769625 1_555
Pd11 Pd12 2.889313 1_555
Pd11 Pt0 2.889396 1_655
Pd11 Y6 2.949799 1_655
Pd11 Y4 2.949799 1_655
Pd11 Y1 2.951665 1_555
Pd11 Y3 2.951665 1_555
Pd12 Pd4 2.889313 1_555
Pd12 Pd2 2.889313 1_555
Pd12 Pd16 2.895494 1_555
Pd12 Pd14 2.895494 1_555
Pd12 Pd15 2.895494 1_555
Pd12 Pd13 2.895494 1_555
Pd12 Y1 2.920352 1_555
Pd12 Y2 2.920352 1_555
Pd12 Y3 2.920352 1_555
Pd12 Y7 2.920352 1_555
Pd13 Pd9 2.889324 1_555
Pd13 Pd8 2.889352 1_555
Pd13 Pd6 2.889352 1_555
Pd13 Pd7 2.891155 1_555
Pd13 Pd16 2.893733 1_555
Pd13 Pd15 2.893733 1_555
Pd13 Pt0 2.898128 1_555
Pd13 Y4 2.919397 1_555
Pd13 Y0 2.919397 1_555
Pd13 Y3 2.921507 1_555
Pd13 Y7 2.921507 1_555
Pd14 Pd9 2.889324 1_565
Pd14 Pd8 2.889352 1_565
Pd14 Pd6 2.889352 1_565
Pd14 Pd7 2.891155 1_565
Pd14 Pd16 2.893733 1_555
Pd14 Pd15 2.893733 1_555
Pd14 Pt0 2.898128 1_555
Pd14 Y6 2.919397 1_555
Pd14 Y5 2.919397 1_555
Pd14 Y1 2.921507 1_555
Pd14 Y2 2.921507 1_555
Pd15 Pd5 2.889352 1_555
Pd15 Pd3 2.889352 1_555
Pd15 Pt0 2.898128 1_555
Pd15 Y5 2.919397 1_555
Pd15 Y0 2.919397 1_555
Pd15 Y2 2.921507 1_555
Pd15 Y7 2.921507 1_555
Pd16 Pd5 2.889352 1_556
Pd16 Pd3 2.889352 1_556
Pd16 Pt0 2.898128 1_555
Pd16 Y6 2.919397 1_555
Pd16 Y4 2.919397 1_555
Pd16 Y1 2.921507 1_555
Pd16 Y3 2.921507 1_555
Pd17 Sn0 2.578897 1_555
Pd17 Pd3 2.726688 1_555
Pd17 Pd6 2.726688 1_555
Pd17 Pd8 2.726688 1_554
Pd17 Pd5 2.726688 1_545
Pd17 Y0 3.021300 1_555
Pd17 Y5 3.021300 1_545
Pd17 Y4 3.021300 1_554
Pd17 Y6 3.021300 1_544
Pd18 Sn0 2.579978 1_655
Pd18 Pd6 2.727544 1_555
Pd18 Pd3 2.727544 1_555
Pd18 Pd8 2.727544 1_554
Pd18 Pd5 2.727544 1_545
Pd18 Y7 3.014449 1_555
Pd18 Y2 3.014449 1_545
Pd18 Y3 3.014449 1_554
Pd18 Y1 3.014449 1_544
Pd19 Sn0 2.577124 1_655
Pd19 Y7 3.015301 1_555
Pd19 Y3 3.015301 1_554
Pd19 Y0 3.019337 1_655
Pd19 Y4 3.019337 1_654
Pd20 Sn0 2.577124 1_665
Pd20 Y2 3.015301 1_555
Pd20 Y1 3.015301 1_554
Pd20 Y5 3.019337 1_655
Pd20 Y6 3.019337 1_654
Pd21 Sn0 2.577124 1_655
Pd21 Pd4 2.725983 1_545
Pd21 Pd9 2.727971 1_555
Pd21 Pd7 2.728909 1_655
Pd21 Y7 3.015301 1_555
Pd21 Y2 3.015301 1_545
Pd21 Y0 3.019337 1_655
Pd21 Y5 3.019337 1_645
Pd22 Sn0 2.577124 1_656
Pd22 Pd4 2.725983 1_545
Pd22 Pd9 2.727971 1_555
Pd22 Pd7 2.728909 1_655
Pd22 Y3 3.015301 1_555
Pd22 Y1 3.015301 1_545
Pd22 Y4 3.019337 1_655
Pd22 Y6 3.019337 1_645
Pt0 Y6 2.913785 1_555
Pt0 Y5 2.913785 1_555
Pt0 Y4 2.913785 1_555
Pt0 Y0 2.913785 1_555
