# generated using pymatgen
data_Ca2Ga9IrRu4
_symmetry_space_group_name_H-M   'P 1'
_cell_length_a   7.97277152
_cell_length_b   7.97277054
_cell_length_c   7.97277175
_cell_angle_alpha   134.67069352
_cell_angle_beta   134.67068441
_cell_angle_gamma   66.04230598
_symmetry_Int_Tables_number   1
_chemical_formula_structural   Ca2Ga9IrRu4
_chemical_formula_sum   'Ca2 Ga9 Ir1 Ru4'
_cell_volume   252.38078456
_cell_formula_units_Z   1
loop_
 _symmetry_equiv_pos_site_id
 _symmetry_equiv_pos_as_xyz
  1  'x, y, z'
loop_
 _atom_site_type_symbol
 _atom_site_label
 _atom_site_symmetry_multiplicity
 _atom_site_fract_x
 _atom_site_fract_y
 _atom_site_fract_z
 _atom_site_occupancy
  Ca  Ca0  1  0.00000000  0.50000000  0.50000000  1
  Ca  Ca1  1  0.50000000  0.00000000  0.50000000  1
  Ga  Ga0  1  0.43917271  0.85853518  1.00000000  1
  Ga  Ga1  1  0.14146482  0.14146482  0.58063752  1
  Ga  Ga2  1  0.85853518  0.43917271  0.00000000  1
  Ga  Ga3  1  0.85853518  0.85853518  0.41936248  1
  Ga  Ga4  1  0.56082729  0.14146482  0.00000000  1
  Ga  Ga5  1  0.14146482  0.56082729  1.00000000  1
  Ga  Ga6  1  0.56082729  0.56082729  0.41936248  1
  Ga  Ga7  1  0.00000000  0.00000000  0.00000000  1
  Ga  Ga8  1  0.43917271  0.43917271  0.58063752  1
  Ir  Ir0  1  0.50000000  0.50000000  0.00000000  1
  Ru  Ru0  1  0.18008472  0.18008472  1.00000000  1
  Ru  Ru1  1  0.81991528  0.81991528  0.00000000  1
  Ru  Ru2  1  0.25000000  0.75000000  0.50000000  1
  Ru  Ru3  1  0.75000000  0.25000000  0.50000000  1
loop_
_geom_bond_atom_site_label_1
_geom_bond_atom_site_label_2
_geom_bond_distance
_geom_bond_site_symmetry_2
Ca0 Ga3 2.966930 1_455
Ca0 Ga1 2.966930 1_555
Ca0 Ga0 2.966931 1_555
Ca0 Ga4 2.966931 1_455
Ca0 Ga8 2.966931 1_555
Ca0 Ga6 2.966931 1_455
Ca0 Ga2 2.966931 1_455
Ca0 Ga5 2.966931 1_555
Ca0 Ga7 3.072202 1_555
Ca0 Ga7 3.072202 1_566
Ca0 Ir0 3.072203 1_455
Ca0 Ir0 3.072203 1_556
Ca1 Ga8 2.966930 1_555
Ca1 Ga6 2.966930 1_545
Ca1 Ga2 2.966930 1_556
Ca1 Ga5 2.966930 1_544
Ca1 Ga3 2.966931 1_545
Ca1 Ga1 2.966931 1_555
Ca1 Ga0 2.966931 1_544
Ca1 Ga4 2.966931 1_556
Ca1 Ir0 3.072202 1_556
Ca1 Ir0 3.072202 1_545
Ca1 Ga7 3.072203 1_656
Ca1 Ga7 3.072203 1_555
Ga0 Ru0 2.557047 1_565
Ga0 Ga8 2.576733 1_555
Ga0 Ga3 2.576734 1_556
Ga0 Ru3 2.582769 1_566
Ga0 Ru2 2.582769 1_555
Ga0 Ir0 2.698239 1_556
Ga0 Ga4 2.793908 1_566
Ga0 Ru1 2.924114 1_556
Ga1 Ru1 2.557048 1_445
Ga1 Ga5 2.576733 1_555
Ga1 Ga4 2.576734 1_556
Ga1 Ru2 2.582769 1_545
Ga1 Ru3 2.582769 1_455
Ga1 Ir0 2.698239 1_556
Ga1 Ga3 2.793908 1_445
Ga1 Ru0 2.924114 1_555
Ga2 Ru0 2.557047 1_654
Ga2 Ga3 2.576733 1_555
Ga2 Ga8 2.576734 1_554
Ga2 Ru2 2.582769 1_655
Ga2 Ru3 2.582769 1_554
Ga2 Ir0 2.698239 1_555
Ga2 Ga5 2.793908 1_654
Ga2 Ru1 2.924113 1_555
Ga3 Ru0 2.557048 1_665
Ga3 Ru3 2.582769 1_565
Ga3 Ru2 2.582769 1_655
Ga3 Ir0 2.698239 1_555
Ga3 Ru1 2.924114 1_555
Ga4 Ru1 2.557047 1_545
Ga4 Ga6 2.576733 1_555
Ga4 Ru2 2.582769 1_544
Ga4 Ru3 2.582769 1_555
Ga4 Ir0 2.698239 1_555
Ga4 Ru0 2.924114 1_554
Ga5 Ru1 2.557047 1_456
Ga5 Ga6 2.576734 1_556
Ga5 Ru3 2.582769 1_455
Ga5 Ru2 2.582769 1_556
Ga5 Ir0 2.698239 1_556
Ga5 Ru0 2.924113 1_555
Ga6 Ru1 2.557048 1_556
Ga6 Ru3 2.582769 1_555
Ga6 Ru2 2.582769 1_555
Ga6 Ir0 2.698239 1_555
Ga6 Ga8 2.793908 1_555
Ga6 Ru0 2.924113 1_554
Ga7 Ru0 2.407706 1_554
Ga7 Ru1 2.407706 1_445
Ga8 Ru0 2.557048 1_554
Ga8 Ru2 2.582769 1_555
Ga8 Ru3 2.582769 1_555
Ga8 Ir0 2.698239 1_556
Ga8 Ru1 2.924113 1_556
