# generated using pymatgen
data_Tc2AgF12
_symmetry_space_group_name_H-M   'P 1'
_cell_length_a   5.07494462
_cell_length_b   5.60617016
_cell_length_c   8.75770636
_cell_angle_alpha   103.99494418
_cell_angle_beta   89.34212793
_cell_angle_gamma   116.61243971
_symmetry_Int_Tables_number   1
_chemical_formula_structural   Tc2AgF12
_chemical_formula_sum   'Tc2 Ag1 F12'
_cell_volume   214.80453029
_cell_formula_units_Z   1
loop_
 _symmetry_equiv_pos_site_id
 _symmetry_equiv_pos_as_xyz
  1  'x, y, z'
loop_
 _atom_site_type_symbol
 _atom_site_label
 _atom_site_symmetry_multiplicity
 _atom_site_fract_x
 _atom_site_fract_y
 _atom_site_fract_z
 _atom_site_occupancy
  Tc  Tc0  1  0.76719550  0.51658801  0.26568863  1
  Tc  Tc1  1  0.23280450  0.48341199  0.73431137  1
  Ag  Ag0  1  0.00000000  0.00000000  0.00000000  1
  F  F0  1  0.83301164  0.27533085  0.72319977  1
  F  F1  1  0.16698836  0.72466915  0.27680023  1
  F  F2  1  0.21547336  0.71197358  0.92969696  1
  F  F3  1  0.72433500  0.73325214  0.44474085  1
  F  F4  1  0.27566500  0.26674786  0.55525915  1
  F  F5  1  0.80274187  0.28405866  0.37314580  1
  F  F6  1  0.19725813  0.71594134  0.62685420  1
  F  F7  1  0.35757336  0.28853470  0.22890853  1
  F  F8  1  0.64242664  0.71146530  0.77109147  1
  F  F9  1  0.70925742  0.73820594  0.14366006  1
  F  F10  1  0.29074258  0.26179406  0.85633994  1
  F  F11  1  0.78452664  0.28802642  0.07030304  1
loop_
_geom_bond_atom_site_label_1
_geom_bond_atom_site_label_2
_geom_bond_distance
_geom_bond_site_symmetry_2
Ag0 F9 2.196451 1_445
Ag0 F10 2.196451 1_554
Ag0 F11 2.295169 1_455
Ag0 F2 2.295169 1_544
Ag0 F7 2.411167 1_555
Ag0 F8 2.411167 1_444
F0 Tc1 1.820990 1_655
F1 Tc0 1.820990 1_455
F2 Tc1 1.901211 1_555
F3 Tc0 1.813622 1_555
F4 Tc1 1.813622 1_555
F5 Tc0 1.850808 1_555
F6 Tc1 1.850808 1_555
F7 Tc0 1.869454 1_555
F8 Tc1 1.869454 1_555
F9 Tc0 1.936205 1_555
F10 Tc1 1.936205 1_555
F11 Tc0 1.901211 1_555
