# generated using pymatgen
data_Zr3Sn
_symmetry_space_group_name_H-M   'P 1'
_cell_length_a   5.63873755
_cell_length_b   5.63873651
_cell_length_c   5.63873358
_cell_angle_alpha   90.00000000
_cell_angle_beta   90.00000000
_cell_angle_gamma   90.00000000
_symmetry_Int_Tables_number   1
_chemical_formula_structural   Zr3Sn
_chemical_formula_sum   'Zr6 Sn2'
_cell_volume   179.28553758
_cell_formula_units_Z   2
loop_
 _symmetry_equiv_pos_site_id
 _symmetry_equiv_pos_as_xyz
  1  'x, y, z'
loop_
 _atom_site_type_symbol
 _atom_site_label
 _atom_site_symmetry_multiplicity
 _atom_site_fract_x
 _atom_site_fract_y
 _atom_site_fract_z
 _atom_site_occupancy
  Zr  Zr0  1  0.50000000  0.25001002  -0.00000000  1
  Zr  Zr1  1  0.50000000  0.74998998  -0.00000000  1
  Zr  Zr2  1  0.24999098  -0.00000000  0.50000000  1
  Zr  Zr3  1  0.75000902  -0.00000000  0.50000000  1
  Zr  Zr4  1  0.00000000  0.50000000  0.24999900  1
  Zr  Zr5  1  0.00000000  0.50000000  0.75000100  1
  Sn  Sn0  1  0.50000000  0.50000000  0.50000000  1
  Sn  Sn1  1  -0.00000000  -0.00000000  -0.00000000  1
loop_
_geom_bond_atom_site_label_1
_geom_bond_atom_site_label_2
_geom_bond_distance
_geom_bond_site_symmetry_2
Zr0 Zr1 2.819255 1_555
Zr0 Zr1 2.819481 1_545
Zr0 Zr4 3.452982 1_655
Zr0 Zr4 3.452982 1_555
Zr0 Zr5 3.452982 1_654
Zr0 Zr5 3.452982 1_554
Zr0 Zr2 3.453050 1_554
Zr0 Zr3 3.453050 1_554
Zr0 Zr2 3.453050 1_555
Zr0 Zr3 3.453050 1_555
Zr1 Zr4 3.452982 1_655
Zr1 Zr4 3.452982 1_555
Zr1 Zr5 3.452982 1_654
Zr1 Zr5 3.452982 1_554
Zr1 Zr2 3.453050 1_565
Zr1 Zr2 3.453050 1_564
Zr1 Zr3 3.453050 1_565
Zr1 Zr3 3.453050 1_564
Zr2 Zr3 2.819267 1_455
Zr2 Zr3 2.819470 1_555
Zr2 Zr5 3.452988 1_555
Zr2 Zr5 3.452988 1_545
Zr2 Zr4 3.452988 1_545
Zr2 Zr4 3.452988 1_555
Zr3 Zr5 3.452988 1_655
Zr3 Zr5 3.452988 1_645
Zr3 Zr4 3.452988 1_645
Zr3 Zr4 3.452988 1_655
Zr4 Zr5 2.819356 1_554
Zr4 Zr5 2.819378 1_555
Sn0 Zr0 3.152123 1_555
Sn0 Zr0 3.152123 1_556
Sn0 Zr1 3.152123 1_555
Sn0 Zr1 3.152123 1_556
Sn0 Zr5 3.152152 1_555
Sn0 Zr5 3.152152 1_655
Sn0 Zr4 3.152152 1_655
Sn0 Zr4 3.152152 1_555
Sn0 Zr2 3.152172 1_555
Sn0 Zr3 3.152172 1_555
Sn0 Zr2 3.152172 1_565
Sn0 Zr3 3.152172 1_565
Sn1 Zr2 3.152126 1_554
Sn1 Zr2 3.152126 1_555
Sn1 Zr3 3.152126 1_455
Sn1 Zr3 3.152126 1_454
Sn1 Zr4 3.152147 1_555
Sn1 Zr4 3.152147 1_545
Sn1 Zr5 3.152147 1_554
Sn1 Zr5 3.152147 1_544
Sn1 Zr1 3.152175 1_545
Sn1 Zr1 3.152175 1_445
Sn1 Zr0 3.152175 1_555
Sn1 Zr0 3.152175 1_455
