# generated using pymatgen
data_CaHgRu2O7
_symmetry_space_group_name_H-M   'P 1'
_cell_length_a   7.22542476
_cell_length_b   7.36524421
_cell_length_c   7.22542483
_cell_angle_alpha   59.35777054
_cell_angle_beta   59.08136840
_cell_angle_gamma   59.35777292
_symmetry_Int_Tables_number   1
_chemical_formula_structural   CaHgRu2O7
_chemical_formula_sum   'Ca2 Hg2 Ru4 O14'
_cell_volume   267.34192685
_cell_formula_units_Z   2
loop_
 _symmetry_equiv_pos_site_id
 _symmetry_equiv_pos_as_xyz
  1  'x, y, z'
loop_
 _atom_site_type_symbol
 _atom_site_label
 _atom_site_symmetry_multiplicity
 _atom_site_fract_x
 _atom_site_fract_y
 _atom_site_fract_z
 _atom_site_occupancy
  Ca  Ca0  1  0.62500000  0.12500000  0.62500000  1
  Ca  Ca1  1  0.62500000  0.62500000  0.62500000  1
  Hg  Hg0  1  0.62500000  0.62500000  0.12500000  1
  Hg  Hg1  1  0.12500000  0.62500000  0.62500000  1
  Ru  Ru0  1  0.62500000  0.12500000  0.12500000  1
  Ru  Ru1  1  0.12500000  0.62500000  0.12500000  1
  Ru  Ru2  1  0.12500000  0.12500000  0.62500000  1
  Ru  Ru3  1  0.12500000  0.12500000  0.12500000  1
  O  O0  1  0.19586367  0.18578935  0.80780699  1
  O  O1  1  0.19271149  0.80728851  0.19271149  1
  O  O2  1  0.44219301  0.06421065  0.05413633  1
  O  O3  1  0.19586367  0.81054000  0.80780699  1
  O  O4  1  0.05413633  0.43946000  0.44219301  1
  O  O5  1  0.80780699  0.81054000  0.19586367  1
  O  O6  1  0.44219301  0.43946000  0.05413633  1
  O  O7  1  0.48757745  0.51242255  0.48757745  1
  O  O8  1  0.05413633  0.06421065  0.44219301  1
  O  O9  1  0.45396089  0.04603911  0.45396089  1
  O  O10  1  0.05728851  0.44271149  0.05728851  1
  O  O11  1  0.76242255  0.73757745  0.76242255  1
  O  O12  1  0.79603911  0.20396089  0.79603911  1
  O  O13  1  0.80780699  0.18578935  0.19586367  1
loop_
_geom_bond_atom_site_label_1
_geom_bond_atom_site_label_2
_geom_bond_distance
_geom_bond_site_symmetry_2
Ca0 O7 2.313222 1_555
Ca0 O11 2.313222 1_545
Ca0 O12 2.535254 1_555
Ca0 O9 2.535254 1_555
Ca0 O2 2.557017 1_556
Ca0 O13 2.557017 1_555
Ca0 O8 2.557017 1_655
Ca0 O0 2.557017 1_555
Ca1 O11 2.313222 1_555
Ca1 O7 2.313222 1_555
Ca1 O9 2.535254 1_565
Ca1 O12 2.535254 1_555
Ca1 O6 2.557017 1_556
Ca1 O5 2.557017 1_555
Ca1 O4 2.557017 1_655
Ca1 O3 2.557017 1_555
Hg0 O7 2.118601 1_555
Hg0 O11 2.118601 1_554
Hg0 O10 2.573414 1_655
Hg0 O1 2.573414 1_555
Hg0 O2 2.668794 1_565
Hg0 O13 2.668794 1_555
Hg0 O5 2.668795 1_555
Hg0 O6 2.668795 1_555
Hg1 O7 2.118601 1_555
Hg1 O11 2.118601 1_455
Hg1 O10 2.573414 1_556
Hg1 O1 2.573414 1_555
Hg1 O8 2.668794 1_565
Hg1 O0 2.668794 1_555
Hg1 O3 2.668795 1_555
Hg1 O4 2.668795 1_555
O0 Ru3 1.922760 1_556
O0 Ru2 1.933598 1_555
O1 Ru3 1.966318 1_565
O1 Ru1 1.966319 1_555
O2 Ru3 1.922760 1_555
O2 Ru0 1.933598 1_555
O3 Ru1 1.922760 1_556
O3 Ru2 1.933598 1_565
O4 Ru1 1.922760 1_555
O4 Ru2 1.933598 1_555
O5 Ru1 1.922760 1_655
O5 Ru0 1.933598 1_565
O6 Ru1 1.922760 1_555
O6 Ru0 1.933598 1_555
O8 Ru3 1.922760 1_555
O8 Ru2 1.933598 1_555
O9 Ru0 1.954485 1_555
O9 Ru2 1.954485 1_555
O10 Ru3 1.966318 1_555
O10 Ru1 1.966319 1_555
O12 Ru0 1.954485 1_556
O12 Ru2 1.954485 1_655
O13 Ru3 1.922760 1_655
O13 Ru0 1.933598 1_555
