# generated using pymatgen
data_AlCrSe3
_symmetry_space_group_name_H-M   'P 1'
_cell_length_a   3.75389059
_cell_length_b   10.26648989
_cell_length_c   12.43877947
_cell_angle_alpha   90.00000000
_cell_angle_beta   90.00000000
_cell_angle_gamma   90.00000000
_symmetry_Int_Tables_number   1
_chemical_formula_structural   AlCrSe3
_chemical_formula_sum   'Al4 Cr4 Se12'
_cell_volume   479.38160193
_cell_formula_units_Z   4
loop_
 _symmetry_equiv_pos_site_id
 _symmetry_equiv_pos_as_xyz
  1  'x, y, z'
loop_
 _atom_site_type_symbol
 _atom_site_label
 _atom_site_symmetry_multiplicity
 _atom_site_fract_x
 _atom_site_fract_y
 _atom_site_fract_z
 _atom_site_occupancy
  Al  Al0  1  0.75000000  0.26786827  0.79258391  1
  Al  Al1  1  0.25000000  0.73213173  0.20741609  1
  Al  Al2  1  0.75000000  0.76786827  0.70741609  1
  Al  Al3  1  0.25000000  0.23213173  0.29258391  1
  Cr  Cr0  1  0.25000000  0.40443154  0.61032221  1
  Cr  Cr1  1  0.75000000  0.59556846  0.38967779  1
  Cr  Cr2  1  0.25000000  0.90443154  0.88967779  1
  Cr  Cr3  1  0.75000000  0.09556846  0.11032221  1
  Se  Se0  1  0.25000000  0.92473605  0.09649967  1
  Se  Se1  1  0.75000000  0.07526395  0.90350033  1
  Se  Se2  1  0.25000000  0.42473605  0.40350033  1
  Se  Se3  1  0.75000000  0.57526395  0.59649967  1
  Se  Se4  1  0.75000000  0.09248318  0.31997542  1
  Se  Se5  1  0.25000000  0.90751682  0.68002458  1
  Se  Se6  1  0.75000000  0.59248318  0.18002458  1
  Se  Se7  1  0.25000000  0.40751682  0.81997542  1
  Se  Se8  1  0.25000000  0.26481976  0.10500606  1
  Se  Se9  1  0.75000000  0.73518024  0.89499394  1
  Se  Se10  1  0.25000000  0.76481976  0.39499394  1
  Se  Se11  1  0.75000000  0.23518024  0.60500606  1
loop_
_geom_bond_atom_site_label_1
_geom_bond_atom_site_label_2
_geom_bond_distance
_geom_bond_site_symmetry_2
Al0 Se11 2.357250 1_555
Al0 Se7 2.386317 1_555
Al0 Se7 2.386317 1_655
Al0 Se1 2.411114 1_555
Al1 Se10 2.357250 1_555
Al1 Se6 2.386317 1_455
Al1 Se6 2.386317 1_555
Al1 Se0 2.411114 1_555
Al2 Se9 2.357250 1_555
Al2 Se5 2.386317 1_655
Al2 Se5 2.386317 1_555
Al2 Se3 2.411114 1_555
Al3 Se8 2.357250 1_555
Al3 Se4 2.386317 1_455
Al3 Se4 2.386317 1_555
Al3 Se2 2.411114 1_555
Cr0 Se11 2.558634 1_555
Cr0 Se11 2.558634 1_455
Cr0 Se3 2.574582 1_455
Cr0 Se3 2.574582 1_555
Cr0 Se2 2.581043 1_555
Cr0 Se7 2.608022 1_555
Cr1 Se10 2.558634 1_655
Cr1 Se10 2.558634 1_555
Cr1 Se2 2.574582 1_555
Cr1 Se2 2.574582 1_655
Cr1 Se3 2.581043 1_555
Cr1 Se6 2.608022 1_555
Cr2 Se9 2.558634 1_455
Cr2 Se9 2.558634 1_555
Cr2 Se1 2.574582 1_565
Cr2 Se1 2.574582 1_465
Cr2 Se0 2.581043 1_556
Cr2 Se5 2.608022 1_555
Cr3 Se8 2.558634 1_655
Cr3 Se8 2.558634 1_555
Cr3 Se0 2.574582 1_545
Cr3 Se0 2.574582 1_645
Cr3 Se1 2.581043 1_554
Cr3 Se4 2.608022 1_555
