# generated using pymatgen
data_Sr2GaIrBr
_symmetry_space_group_name_H-M   'P 1'
_cell_length_a   4.31598839
_cell_length_b   4.31598813
_cell_length_c   17.45843128
_cell_angle_alpha   90.00000000
_cell_angle_beta   90.00000000
_cell_angle_gamma   119.99999456
_symmetry_Int_Tables_number   1
_chemical_formula_structural   Sr2GaIrBr
_chemical_formula_sum   'Sr4 Ga2 Ir2 Br2'
_cell_volume   281.64132754
_cell_formula_units_Z   2
loop_
 _symmetry_equiv_pos_site_id
 _symmetry_equiv_pos_as_xyz
  1  'x, y, z'
loop_
 _atom_site_type_symbol
 _atom_site_label
 _atom_site_symmetry_multiplicity
 _atom_site_fract_x
 _atom_site_fract_y
 _atom_site_fract_z
 _atom_site_occupancy
  Sr  Sr0  1  0.00000000  0.00000000  0.11751076  1
  Sr  Sr1  1  0.00000000  0.00000000  0.38248924  1
  Sr  Sr2  1  0.00000000  0.00000000  0.61662582  1
  Sr  Sr3  1  0.00000000  0.00000000  0.88337418  1
  Ga  Ga0  1  0.66666700  0.33333200  0.50030125  1
  Ga  Ga1  1  0.66666700  0.33333200  0.99969875  1
  Ir  Ir0  1  0.33333400  0.66666700  0.00117664  1
  Ir  Ir1  1  0.33333400  0.66666700  0.49882336  1
  Br  Br0  1  0.66666700  0.33333200  0.25000000  1
  Br  Br1  1  0.33333400  0.66666700  0.75000000  1
loop_
_geom_bond_atom_site_label_1
_geom_bond_atom_site_label_2
_geom_bond_distance
_geom_bond_site_symmetry_2
Ga0 Ir1 2.491964 1_545
Ga0 Ir1 2.491972 1_655
Ga0 Ir1 2.491975 1_555
Ga0 Sr2 3.214584 1_655
Ga0 Sr2 3.214590 1_555
Ga0 Sr2 3.214593 1_665
Ga0 Sr1 3.231052 1_655
Ga0 Sr1 3.231058 1_555
Ga0 Sr1 3.231061 1_665
Ga1 Ir0 2.491964 1_546
Ga1 Ir0 2.491972 1_656
Ga1 Ir0 2.491975 1_556
Ga1 Sr3 3.214584 1_655
Ga1 Sr3 3.214590 1_555
Ga1 Sr3 3.214593 1_665
Ga1 Sr0 3.231052 1_656
Ga1 Sr0 3.231058 1_556
Ga1 Sr0 3.231061 1_666
Ir0 Sr0 3.214692 1_665
Ir0 Sr0 3.214695 1_565
Ir0 Sr0 3.214695 1_555
Ir0 Sr3 3.230949 1_664
Ir0 Sr3 3.230952 1_564
Ir0 Sr3 3.230952 1_554
Ir1 Sr1 3.214692 1_665
Ir1 Sr1 3.214695 1_565
Ir1 Sr1 3.214695 1_555
Ir1 Sr2 3.230949 1_665
Ir1 Sr2 3.230952 1_565
Ir1 Sr2 3.230952 1_555
Br0 Sr1 3.399918 1_655
Br0 Sr0 3.399918 1_655
Br0 Sr1 3.399923 1_555
Br0 Sr0 3.399923 1_555
Br0 Sr1 3.399926 1_665
Br0 Sr0 3.399926 1_665
Br1 Sr3 3.410450 1_665
Br1 Sr2 3.410450 1_665
Br1 Sr3 3.410453 1_565
Br1 Sr2 3.410453 1_565
Br1 Sr3 3.410453 1_555
Br1 Sr2 3.410453 1_555
