# generated using pymatgen
data_SrGa3Ag
_symmetry_space_group_name_H-M   'P 1'
_cell_length_a   6.28536082
_cell_length_b   6.28536078
_cell_length_c   6.28536051
_cell_angle_alpha   138.99930829
_cell_angle_beta   138.99930268
_cell_angle_gamma   59.37591653
_symmetry_Int_Tables_number   1
_chemical_formula_structural   SrGa3Ag
_chemical_formula_sum   'Sr1 Ga3 Ag1'
_cell_volume   105.82856609
_cell_formula_units_Z   1
loop_
 _symmetry_equiv_pos_site_id
 _symmetry_equiv_pos_as_xyz
  1  'x, y, z'
loop_
 _atom_site_type_symbol
 _atom_site_label
 _atom_site_symmetry_multiplicity
 _atom_site_fract_x
 _atom_site_fract_y
 _atom_site_fract_z
 _atom_site_occupancy
  Sr  Sr0  1  0.00000000  0.00000000  0.00000000  1
  Ga  Ga0  1  0.61647120  0.61647120  0.00000000  1
  Ga  Ga1  1  0.38352880  0.38352880  1.00000000  1
  Ga  Ga2  1  0.75000000  0.25000000  0.50000000  1
  Ag  Ag0  1  0.25000000  0.75000000  0.50000000  1
loop_
_geom_bond_atom_site_label_1
_geom_bond_atom_site_label_2
_geom_bond_distance
_geom_bond_site_symmetry_2
Ga0 Ga1 2.543879 1_554
Ga0 Ga2 2.640407 1_565
Ga0 Ga2 2.640407 1_554
Ga0 Sr0 3.362815 1_554
Ga0 Sr0 3.362815 1_666
Ga0 Sr0 3.362816 1_655
Ga0 Sr0 3.362816 1_565
Ga1 Ga2 2.640408 1_455
Ga1 Ga2 2.640408 1_556
Ga1 Sr0 3.362815 1_667
Ga1 Sr0 3.362815 1_555
Ga1 Sr0 3.362816 1_566
Ga1 Sr0 3.362816 1_656
Ga2 Sr0 3.507009 1_666
Ga2 Sr0 3.507009 1_655
Ga2 Sr0 3.507009 1_555
Ga2 Sr0 3.507009 1_656
Ag0 Ga1 2.640407 1_565
Ag0 Ga1 2.640407 1_554
Ag0 Ga0 2.640408 1_455
Ag0 Ga0 2.640408 1_556
Ag0 Sr0 3.507009 1_555
Ag0 Sr0 3.507009 1_566
Ag0 Sr0 3.507009 1_666
Ag0 Sr0 3.507009 1_565
