# generated using pymatgen
data_Ca2CrH9
_symmetry_space_group_name_H-M   'P 1'
_cell_length_a   8.33423118
_cell_length_b   8.33423226
_cell_length_c   4.78955085
_cell_angle_alpha   90.00000000
_cell_angle_beta   90.00000000
_cell_angle_gamma   119.99999574
_symmetry_Int_Tables_number   1
_chemical_formula_structural   Ca2CrH9
_chemical_formula_sum   'Ca6 Cr3 H27'
_cell_volume   288.10883817
_cell_formula_units_Z   3
loop_
 _symmetry_equiv_pos_site_id
 _symmetry_equiv_pos_as_xyz
  1  'x, y, z'
loop_
 _atom_site_type_symbol
 _atom_site_label
 _atom_site_symmetry_multiplicity
 _atom_site_fract_x
 _atom_site_fract_y
 _atom_site_fract_z
 _atom_site_occupancy
  Ca  Ca0  1  0.26330445  0.00000000  0.50000000  1
  Ca  Ca1  1  1.00000000  0.26330445  0.50000000  1
  Ca  Ca2  1  0.73669555  0.73669555  0.50000000  1
  Ca  Ca3  1  0.60975073  0.00000000  0.00000000  1
  Ca  Ca4  1  1.00000000  0.60975073  0.00000000  1
  Ca  Ca5  1  0.39024927  0.39024927  0.00000000  1
  Cr  Cr0  1  0.00000000  0.00000000  0.00000000  1
  Cr  Cr1  1  0.33333300  0.66666700  0.50000000  1
  Cr  Cr2  1  0.66666700  0.33333300  0.50000000  1
  H  H0  1  0.84868599  0.00000000  0.24979839  1
  H  H1  1  1.00000000  0.84868599  0.24979839  1
  H  H2  1  0.84868599  0.00000000  0.75020161  1
  H  H3  1  1.00000000  0.84868599  0.75020161  1
  H  H4  1  0.15131401  0.15131401  0.24979839  1
  H  H5  1  0.15131401  0.15131401  0.75020161  1
  H  H6  1  0.21919031  0.00000000  0.00000000  1
  H  H7  1  0.00000000  0.21919031  0.00000000  1
  H  H8  1  0.78080969  0.78080969  0.00000000  1
  H  H9  1  0.19949612  0.52843104  0.25384962  1
  H  H10  1  0.47156896  0.67106408  0.25384962  1
  H  H11  1  0.19949612  0.52843104  0.74615038  1
  H  H12  1  0.52843104  0.19949612  0.74615038  1
  H  H13  1  0.32893592  0.80050388  0.25384962  1
  H  H14  1  0.47156896  0.67106408  0.74615038  1
  H  H15  1  0.67106408  0.47156896  0.74615038  1
  H  H16  1  0.52843104  0.19949612  0.25384962  1
  H  H17  1  0.32893592  0.80050388  0.74615038  1
  H  H18  1  0.67106408  0.47156896  0.25384962  1
  H  H19  1  0.80050388  0.32893592  0.74615038  1
  H  H20  1  0.80050388  0.32893592  0.25384962  1
  H  H21  1  0.33551004  0.47559252  0.50000000  1
  H  H22  1  0.52440748  0.85991752  0.50000000  1
  H  H23  1  0.47559252  0.33551004  0.50000000  1
  H  H24  1  0.14008248  0.66448996  0.50000000  1
  H  H25  1  0.85991752  0.52440748  0.50000000  1
  H  H26  1  0.66448996  0.14008248  0.50000000  1
loop_
_geom_bond_atom_site_label_1
_geom_bond_atom_site_label_2
_geom_bond_distance
_geom_bond_site_symmetry_2
Ca0 H5 2.252683 1_555
Ca0 H3 2.252683 1_445
Ca0 H1 2.252683 1_445
Ca0 H4 2.252683 1_555
Ca0 H12 2.315802 1_555
Ca0 H16 2.315802 1_555
Ca0 H17 2.315807 1_545
Ca0 H13 2.315807 1_545
Ca0 H6 2.422833 1_556
Ca0 H6 2.422833 1_555
Ca0 H24 2.449874 1_545
Ca0 H23 2.449874 1_555
Ca1 H5 2.252683 1_655
Ca1 H4 2.252683 1_655
Ca1 H2 2.252683 1_555
Ca1 H0 2.252683 1_555
Ca1 H11 2.315802 1_655
Ca1 H9 2.315802 1_655
Ca1 H19 2.315807 1_555
Ca1 H20 2.315807 1_555
Ca1 H7 2.422833 1_655
Ca1 H7 2.422833 1_656
Ca1 H26 2.449873 1_555
Ca1 H21 2.449873 1_655
Ca2 H3 2.252683 1_555
Ca2 H1 2.252683 1_555
Ca2 H2 2.252683 1_565
Ca2 H0 2.252683 1_565
Ca2 H14 2.315800 1_555
Ca2 H10 2.315800 1_555
Ca2 H15 2.315800 1_555
Ca2 H18 2.315800 1_555
Ca2 H8 2.422833 1_555
Ca2 H8 2.422833 1_556
Ca2 H22 2.449873 1_555
Ca2 H25 2.449873 1_555
Ca3 H0 2.323116 1_555
Ca3 H2 2.323116 1_554
Ca3 H13 2.414284 1_545
Ca3 H17 2.414284 1_544
Ca3 H16 2.414289 1_555
Ca3 H12 2.414289 1_554
Ca4 H1 2.323116 1_555
Ca4 H3 2.323116 1_554
Ca4 H20 2.414284 1_555
Ca4 H19 2.414284 1_554
Ca4 H9 2.414289 1_655
Ca4 H11 2.414289 1_654
Ca5 H4 2.323116 1_555
Ca5 H5 2.323116 1_554
Ca5 H18 2.414282 1_555
Ca5 H15 2.414282 1_554
Ca5 H10 2.414282 1_555
Ca5 H14 2.414282 1_554
Cr0 H0 1.738322 1_455
Cr0 H2 1.738322 1_454
Cr0 H4 1.738322 1_555
Cr0 H5 1.738322 1_554
Cr0 H1 1.738322 1_445
Cr0 H3 1.738322 1_444
Cr0 H6 1.826783 1_555
Cr0 H7 1.826783 1_555
Cr0 H8 1.826783 1_445
Cr1 H24 1.601600 1_555
Cr1 H22 1.601604 1_555
Cr1 H21 1.601608 1_555
Cr1 H17 1.635946 1_555
Cr1 H13 1.635946 1_555
Cr1 H11 1.635952 1_555
Cr1 H9 1.635952 1_555
Cr1 H14 1.635958 1_555
Cr1 H10 1.635958 1_555
Cr2 H26 1.601600 1_555
Cr2 H25 1.601604 1_555
Cr2 H23 1.601608 1_555
Cr2 H19 1.635946 1_555
Cr2 H20 1.635946 1_555
Cr2 H12 1.635952 1_555
Cr2 H16 1.635952 1_555
Cr2 H15 1.635958 1_555
Cr2 H18 1.635958 1_555
