# generated using pymatgen
data_CrTc4(NiP)4
_symmetry_space_group_name_H-M   'P 1'
_cell_length_a   6.71727131
_cell_length_b   6.71727121
_cell_length_c   6.71727136
_cell_angle_alpha   94.26261447
_cell_angle_beta   94.26262148
_cell_angle_gamma   148.35812532
_symmetry_Int_Tables_number   1
_chemical_formula_structural   CrTc4(NiP)4
_chemical_formula_sum   'Cr1 Tc4 Ni4 P4'
_cell_volume   152.98270159
_cell_formula_units_Z   1
loop_
 _symmetry_equiv_pos_site_id
 _symmetry_equiv_pos_as_xyz
  1  'x, y, z'
loop_
 _atom_site_type_symbol
 _atom_site_label
 _atom_site_symmetry_multiplicity
 _atom_site_fract_x
 _atom_site_fract_y
 _atom_site_fract_z
 _atom_site_occupancy
  Cr  Cr0  1  0.50000000  0.50000000  0.00000000  1
  Tc  Tc0  1  0.87794832  0.18738607  0.06533439  1
  Tc  Tc1  1  0.12205168  0.81261393  0.93466561  1
  Tc  Tc2  1  0.18738607  0.12205168  0.30943775  1
  Tc  Tc3  1  0.81261393  0.87794832  0.69056225  1
  Ni  Ni0  1  0.60547957  0.09092808  0.69640765  1
  Ni  Ni1  1  0.39452043  0.90907192  0.30359235  1
  Ni  Ni2  1  0.09092808  0.39452043  0.48544750  1
  Ni  Ni3  1  0.90907192  0.60547957  0.51455250  1
  P  P0  1  0.74993167  0.42763835  0.17756903  1
  P  P1  1  0.25006833  0.57236165  0.82243097  1
  P  P2  1  0.42763835  0.25006833  0.67770768  1
  P  P3  1  0.57236165  0.74993167  0.32229232  1
loop_
_geom_bond_atom_site_label_1
_geom_bond_atom_site_label_2
_geom_bond_distance
_geom_bond_site_symmetry_2
Cr0 P3 2.378134 1_555
Cr0 P2 2.378134 1_554
Cr0 P0 2.378136 1_555
Cr0 P1 2.378136 1_554
Cr0 Tc2 2.744349 1_555
Cr0 Tc3 2.744349 1_554
Cr0 Tc0 2.744349 1_565
Cr0 Tc1 2.744349 1_544
Cr0 Tc1 2.744349 1_654
Cr0 Tc0 2.744349 1_455
Cr0 Tc2 2.744350 1_665
Cr0 Tc3 2.744350 1_444
Ni0 P2 2.181198 1_555
Ni0 P1 2.264731 1_655
Ni0 P1 2.264734 1_545
Ni1 P3 2.181198 1_555
Ni1 P0 2.264731 1_455
Ni1 P0 2.264734 1_565
Ni2 P1 2.181211 1_555
Ni2 P3 2.264730 1_555
Ni2 P3 2.264730 1_445
Ni3 P0 2.181211 1_555
Ni3 P2 2.264730 1_555
Ni3 P2 2.264730 1_665
P0 Tc1 2.413525 1_654
P0 Tc1 2.413528 1_544
P0 Tc0 2.488128 1_555
P0 Tc2 2.614952 1_665
P0 Tc2 2.614954 1_555
P1 Tc0 2.413525 1_456
P1 Tc0 2.413528 1_566
P1 Tc1 2.488128 1_555
P1 Tc3 2.614952 1_445
P1 Tc3 2.614954 1_555
P2 Tc3 2.413529 1_445
P2 Tc3 2.413532 1_555
P2 Tc2 2.488137 1_555
P2 Tc1 2.614945 1_545
P2 Tc1 2.614948 1_655
P3 Tc2 2.413529 1_665
P3 Tc2 2.413532 1_555
P3 Tc3 2.488137 1_555
P3 Tc0 2.614945 1_565
P3 Tc0 2.614948 1_455
