# generated using pymatgen
data_Cs2LiRhBr6
_symmetry_space_group_name_H-M   'P 1'
_cell_length_a   7.55600660
_cell_length_b   7.55600522
_cell_length_c   6.43527147
_cell_angle_alpha   90.00000000
_cell_angle_beta   90.00000000
_cell_angle_gamma   120.00000192
_symmetry_Int_Tables_number   1
_chemical_formula_structural   Cs2LiRhBr6
_chemical_formula_sum   'Cs2 Li1 Rh1 Br6'
_cell_volume   318.18673729
_cell_formula_units_Z   1
loop_
 _symmetry_equiv_pos_site_id
 _symmetry_equiv_pos_as_xyz
  1  'x, y, z'
loop_
 _atom_site_type_symbol
 _atom_site_label
 _atom_site_symmetry_multiplicity
 _atom_site_fract_x
 _atom_site_fract_y
 _atom_site_fract_z
 _atom_site_occupancy
  Cs  Cs0  1  0.33333300  0.66666700  0.26521706  1
  Cs  Cs1  1  0.66666700  0.33333300  0.73478294  1
  Li  Li0  1  0.00000000  0.00000000  0.00000000  1
  Rh  Rh0  1  0.00000000  0.00000000  0.50000000  1
  Br  Br0  1  0.84397486  0.15602514  0.27222445  1
  Br  Br1  1  0.15602514  0.84397486  0.72777555  1
  Br  Br2  1  0.84397486  0.68794972  0.27222445  1
  Br  Br3  1  0.15602514  0.31205028  0.72777555  1
  Br  Br4  1  0.31205028  0.15602514  0.27222445  1
  Br  Br5  1  0.68794972  0.84397486  0.72777555  1
loop_
_geom_bond_atom_site_label_1
_geom_bond_atom_site_label_2
_geom_bond_distance
_geom_bond_site_symmetry_2
Br0 Rh0 2.513597 1_655
Br0 Li0 2.690454 1_655
Br0 Cs1 3.774306 1_555
Br0 Cs0 3.780838 1_655
Br0 Cs0 3.780838 1_545
Br0 Cs1 4.164912 1_554
Br1 Rh0 2.513597 1_565
Br1 Li0 2.690454 1_566
Br1 Cs0 3.774306 1_555
Br1 Cs1 3.780838 1_455
Br1 Cs1 3.780838 1_565
Br1 Cs0 4.164912 1_556
Br2 Rh0 2.513596 1_665
Br2 Li0 2.690454 1_665
Br2 Cs1 3.774310 1_555
Br2 Cs0 3.780834 1_655
Br2 Cs0 3.780842 1_555
Br2 Cs1 4.164916 1_554
Br3 Rh0 2.513596 1_555
Br3 Li0 2.690454 1_556
Br3 Cs0 3.774310 1_555
Br3 Cs1 3.780834 1_455
Br3 Cs1 3.780842 1_555
Br3 Cs0 4.164916 1_556
Br4 Rh0 2.513597 1_555
Br4 Li0 2.690454 1_555
Br4 Cs1 3.774310 1_555
Br4 Cs0 3.780834 1_545
Br4 Cs0 3.780841 1_555
Br4 Cs1 4.164916 1_554
Br5 Rh0 2.513597 1_665
Br5 Li0 2.690454 1_666
Br5 Cs0 3.774310 1_555
Br5 Cs1 3.780834 1_565
Br5 Cs1 3.780841 1_555
Br5 Cs0 4.164916 1_556
