# generated using pymatgen
data_Zr3Ti2Ga3
_symmetry_space_group_name_H-M   'P 1'
_cell_length_a   7.92873652
_cell_length_b   7.92873804
_cell_length_c   5.49098139
_cell_angle_alpha   89.99999292
_cell_angle_beta   90.00000111
_cell_angle_gamma   119.99974811
_symmetry_Int_Tables_number   1
_chemical_formula_structural   Zr3Ti2Ga3
_chemical_formula_sum   'Zr6 Ti4 Ga6'
_cell_volume   298.94394481
_cell_formula_units_Z   2
loop_
 _symmetry_equiv_pos_site_id
 _symmetry_equiv_pos_as_xyz
  1  'x, y, z'
loop_
 _atom_site_type_symbol
 _atom_site_label
 _atom_site_symmetry_multiplicity
 _atom_site_fract_x
 _atom_site_fract_y
 _atom_site_fract_z
 _atom_site_occupancy
  Zr  Zr0  1  0.24370972  0.99997883  0.25000002  1
  Zr  Zr1  1  0.24370998  0.24372591  0.74999978  1
  Zr  Zr2  1  0.00002217  0.75629028  0.74999998  1
  Zr  Zr3  1  0.00002238  0.24373093  0.25000078  1
  Zr  Zr4  1  0.75627309  0.75629002  0.25000022  1
  Zr  Zr5  1  0.75626807  0.99997762  0.74999922  1
  Ti  Ti0  1  0.66666333  0.33333567  0.00000000  1
  Ti  Ti1  1  0.33333003  0.66666797  0.50000000  1
  Ti  Ti2  1  0.66666361  0.33333539  0.50000000  1
  Ti  Ti3  1  0.33333038  0.66666862  0.00000000  1
  Ga  Ga0  1  0.59935751  0.99999522  0.24999806  1
  Ga  Ga1  1  0.40064037  0.99999389  0.75000100  1
  Ga  Ga2  1  0.00000611  0.59936063  0.25000000  1
  Ga  Ga3  1  0.00000578  0.40064349  0.75000194  1
  Ga  Ga4  1  0.59935626  0.59936079  0.75000086  1
  Ga  Ga5  1  0.40063921  0.40064374  0.24999914  1
loop_
_geom_bond_atom_site_label_1
_geom_bond_atom_site_label_2
_geom_bond_distance
_geom_bond_site_symmetry_2
Zr0 Zr4 3.346986 1_455
Zr0 Zr3 3.346993 1_565
Zr0 Zr2 3.357217 1_555
Zr0 Zr2 3.357217 1_554
Zr0 Zr1 3.357481 1_565
Zr0 Zr1 3.357483 1_564
Zr1 Zr2 3.346980 1_545
Zr1 Zr5 3.347022 1_445
Zr1 Zr3 3.357218 1_555
Zr1 Zr3 3.357227 1_556
Zr2 Zr5 3.347007 1_455
Zr2 Zr4 3.357490 1_455
Zr2 Zr4 3.357492 1_456
Zr3 Zr4 3.347016 1_445
Zr3 Zr5 3.357510 1_445
Zr3 Zr5 3.357524 1_444
Zr4 Zr5 3.357218 1_555
Zr4 Zr5 3.357227 1_554
Ti0 Ti2 2.745491 1_555
Ti0 Ti2 2.745491 1_554
Ti0 Zr1 3.354473 1_554
Ti0 Zr4 3.354481 1_555
Ti0 Zr0 3.354512 1_545
Ti0 Zr2 3.354521 1_654
Ti0 Zr5 3.354549 1_544
Ti0 Zr3 3.354555 1_655
Ti1 Ti3 2.745491 1_555
Ti1 Ti3 2.745491 1_556
Ti1 Zr2 3.354275 1_555
Ti1 Zr0 3.354287 1_555
Ti1 Zr3 3.354319 1_555
Ti1 Zr5 3.354328 1_555
Ti1 Zr1 3.354369 1_555
Ti1 Zr4 3.354371 1_555
Ti2 Zr1 3.354475 1_555
Ti2 Zr4 3.354482 1_555
Ti2 Zr0 3.354513 1_545
Ti2 Zr2 3.354522 1_655
Ti2 Zr5 3.354542 1_545
Ti2 Zr3 3.354548 1_655
Ti3 Zr2 3.354274 1_554
Ti3 Zr0 3.354284 1_555
Ti3 Zr3 3.354326 1_555
Ti3 Zr5 3.354328 1_554
Ti3 Zr4 3.354371 1_555
Ti3 Zr1 3.354374 1_554
Ga0 Zr4 2.772288 1_555
Ga0 Zr3 2.772608 1_665
Ga0 Ti3 2.782741 1_555
Ga0 Ti1 2.782755 1_555
Ga0 Ti0 2.782815 1_565
Ga0 Ti2 2.782823 1_565
Ga0 Zr0 2.819773 1_555
Ga0 Zr5 3.014241 1_554
Ga0 Zr5 3.014253 1_555
Ga1 Zr2 2.772282 1_555
Ga1 Zr1 2.772578 1_565
Ga1 Ti3 2.782705 1_556
Ga1 Ti1 2.782714 1_555
Ga1 Ti0 2.782803 1_566
Ga1 Ti2 2.782807 1_565
Ga1 Zr5 2.819743 1_555
Ga1 Zr0 3.014254 1_556
Ga1 Zr0 3.014264 1_555
Ga2 Zr0 2.772282 1_555
Ga2 Zr4 2.772579 1_455
Ga2 Ti1 2.782704 1_555
Ga2 Ti3 2.782705 1_555
Ga2 Ti2 2.782814 1_455
Ga2 Ti0 2.782814 1_455
Ga2 Zr3 2.819759 1_555
Ga2 Zr2 3.014254 1_554
Ga2 Zr2 3.014254 1_555
Ga3 Zr1 2.772293 1_555
Ga3 Zr5 2.772617 1_445
Ga3 Ti3 2.782727 1_556
Ga3 Ti1 2.782735 1_555
Ga3 Ti0 2.782823 1_456
Ga3 Ti2 2.782831 1_455
Ga3 Zr2 2.819765 1_555
Ga3 Zr3 3.014246 1_556
Ga3 Zr3 3.014258 1_555
Ga4 Zr5 2.772272 1_555
Ga4 Zr2 2.772613 1_655
Ga4 Ti0 2.782755 1_556
Ga4 Ti2 2.782763 1_555
Ga4 Ti3 2.782764 1_556
Ga4 Ti1 2.782768 1_555
Ga4 Zr1 2.819791 1_555
Ga4 Zr4 3.014258 1_556
Ga4 Zr4 3.014264 1_555
Ga5 Zr3 2.772270 1_555
Ga5 Zr0 2.772606 1_545
Ga5 Ti0 2.782753 1_555
Ga5 Ti2 2.782761 1_555
Ga5 Ti3 2.782762 1_555
Ga5 Ti1 2.782764 1_555
Ga5 Zr4 2.819787 1_555
Ga5 Zr1 3.014259 1_554
Ga5 Zr1 3.014266 1_555
