# generated using pymatgen
data_BaCoBF10
_symmetry_space_group_name_H-M   'P 1'
_cell_length_a   10.52261850
_cell_length_b   10.52261775
_cell_length_c   6.25087449
_cell_angle_alpha   90.00000000
_cell_angle_beta   90.00000000
_cell_angle_gamma   120.00000234
_symmetry_Int_Tables_number   1
_chemical_formula_structural   BaCoBF10
_chemical_formula_sum   'Ba3 Co3 B3 F30'
_cell_volume   599.40314839
_cell_formula_units_Z   3
loop_
 _symmetry_equiv_pos_site_id
 _symmetry_equiv_pos_as_xyz
  1  'x, y, z'
loop_
 _atom_site_type_symbol
 _atom_site_label
 _atom_site_symmetry_multiplicity
 _atom_site_fract_x
 _atom_site_fract_y
 _atom_site_fract_z
 _atom_site_occupancy
  Ba  Ba0  1  0.00000000  0.00000000  0.50000000  1
  Ba  Ba1  1  0.66666700  0.33333300  0.00000000  1
  Ba  Ba2  1  0.33333300  0.66666700  0.00000000  1
  Co  Co0  1  0.43856580  0.00000000  0.50000000  1
  Co  Co1  1  0.00000000  0.43856580  0.50000000  1
  Co  Co2  1  0.56143420  0.56143420  0.50000000  1
  B  B0  1  0.75236336  0.00000000  0.00000000  1
  B  B1  1  0.00000000  0.75236336  0.00000000  1
  B  B2  1  0.24763664  0.24763664  0.00000000  1
  F  F0  1  0.60118510  0.00000000  0.50000000  1
  F  F1  1  1.00000000  0.60118510  0.50000000  1
  F  F2  1  0.39881490  0.39881490  0.50000000  1
  F  F3  1  0.27328182  0.00000000  0.50000000  1
  F  F4  1  0.00000000  0.27328182  0.50000000  1
  F  F5  1  0.72671818  0.72671818  0.50000000  1
  F  F6  1  0.50610883  0.13703496  0.69902959  1
  F  F7  1  0.86296504  0.36907387  0.69902959  1
  F  F8  1  0.63092613  0.49389117  0.69902959  1
  F  F9  1  0.50610883  0.13703496  0.30097041  1
  F  F10  1  0.86296504  0.36907387  0.30097041  1
  F  F11  1  0.63092613  0.49389117  0.30097041  1
  F  F12  1  0.36907387  0.86296504  0.69902959  1
  F  F13  1  0.49389117  0.63092613  0.69902959  1
  F  F14  1  0.13703496  0.50610883  0.69902959  1
  F  F15  1  0.36907387  0.86296504  0.30097041  1
  F  F16  1  0.49389117  0.63092613  0.30097041  1
  F  F17  1  0.13703496  0.50610883  0.30097041  1
  F  F18  1  0.82910686  0.00000000  0.81605250  1
  F  F19  1  1.00000000  0.82910686  0.81605250  1
  F  F20  1  0.17089314  0.17089314  0.81605250  1
  F  F21  1  0.82910686  0.00000000  0.18394750  1
  F  F22  1  1.00000000  0.82910686  0.18394750  1
  F  F23  1  0.17089314  0.17089314  0.18394750  1
  F  F24  1  0.38775820  0.26237682  0.00000000  1
  F  F25  1  0.73762318  0.12537938  0.00000000  1
  F  F26  1  0.87462062  0.61224180  0.00000000  1
  F  F27  1  0.12537938  0.73762318  0.00000000  1
  F  F28  1  0.61224180  0.87462062  0.00000000  1
  F  F29  1  0.26237682  0.38775820  0.00000000  1
loop_
_geom_bond_atom_site_label_1
_geom_bond_atom_site_label_2
_geom_bond_distance
_geom_bond_site_symmetry_2
Ba0 F20 2.671459 1_555
Ba0 F19 2.671459 1_445
Ba0 F23 2.671459 1_555
Ba0 F22 2.671459 1_445
Ba0 F18 2.671459 1_455
Ba0 F21 2.671459 1_455
Ba0 F4 2.875640 1_555
Ba0 F5 2.875640 1_445
Ba0 F3 2.875640 1_555
Ba1 F24 2.641881 1_555
Ba1 F26 2.641884 1_555
Ba1 F25 2.641891 1_555
Ba1 F10 2.677794 1_555
Ba1 F7 2.677794 1_554
Ba1 F9 2.677796 1_555
Ba1 F6 2.677796 1_554
Ba1 F11 2.677801 1_555
Ba1 F8 2.677801 1_554
Ba2 F29 2.641881 1_555
Ba2 F28 2.641884 1_555
Ba2 F27 2.641892 1_555
Ba2 F15 2.677794 1_555
Ba2 F12 2.677794 1_554
Ba2 F17 2.677796 1_555
Ba2 F14 2.677796 1_554
Ba2 F16 2.677801 1_555
Ba2 F13 2.677801 1_554
Co0 F0 1.711181 1_555
Co0 F3 1.739220 1_555
Co0 F6 1.762771 1_555
Co0 F9 1.762771 1_555
Co0 F12 1.762771 1_545
Co0 F15 1.762771 1_545
Co1 F1 1.711181 1_455
Co1 F4 1.739220 1_555
Co1 F7 1.762771 1_455
Co1 F10 1.762771 1_455
Co1 F14 1.762771 1_555
Co1 F17 1.762771 1_555
Co2 F2 1.711181 1_555
Co2 F5 1.739220 1_555
Co2 F13 1.762771 1_555
Co2 F16 1.762771 1_555
Co2 F8 1.762771 1_555
Co2 F11 1.762771 1_555
B0 F25 1.403316 1_555
B0 F28 1.403328 1_545
B0 F21 1.405077 1_555
B0 F18 1.405077 1_554
B1 F27 1.403316 1_555
B1 F26 1.403328 1_455
B1 F22 1.405077 1_455
B1 F19 1.405077 1_454
B2 F29 1.403336 1_555
B2 F24 1.403337 1_555
B2 F23 1.405077 1_555
B2 F20 1.405077 1_554
