# generated using pymatgen
data_Nb4Ni4P4W
_symmetry_space_group_name_H-M   'P 1'
_cell_length_a   7.19961348
_cell_length_b   7.19961366
_cell_length_c   7.19961276
_cell_angle_alpha   93.43818618
_cell_angle_beta   93.43819361
_cell_angle_gamma   151.64920541
_symmetry_Int_Tables_number   1
_chemical_formula_structural   Nb4Ni4P4W
_chemical_formula_sum   'Nb4 Ni4 P4 W1'
_cell_volume   171.81908369
_cell_formula_units_Z   1
loop_
 _symmetry_equiv_pos_site_id
 _symmetry_equiv_pos_as_xyz
  1  'x, y, z'
loop_
 _atom_site_type_symbol
 _atom_site_label
 _atom_site_symmetry_multiplicity
 _atom_site_fract_x
 _atom_site_fract_y
 _atom_site_fract_z
 _atom_site_occupancy
  Nb  Nb0  1  0.80667731  0.12904004  0.93571735  1
  Nb  Nb1  1  0.12904004  0.19332269  0.32236374  1
  Nb  Nb2  1  0.87095996  0.80667731  0.67763626  1
  Nb  Nb3  1  0.19332269  0.87095996  0.06428265  1
  Ni  Ni0  1  0.91469873  0.39047638  0.30517511  1
  Ni  Ni1  1  0.08530127  0.60952362  0.69482489  1
  Ni  Ni2  1  0.60952362  0.91469873  0.52422235  1
  Ni  Ni3  1  0.39047638  0.08530127  0.47577765  1
  P  P0  1  0.55565591  0.24018066  0.79583657  1
  P  P1  1  0.24018066  0.44434409  0.68452374  1
  P  P2  1  0.75981934  0.55565591  0.31547626  1
  P  P3  1  0.44434409  0.75981934  0.20416343  1
  W  W0  1  0.50000000  0.50000000  0.00000000  1
loop_
_geom_bond_atom_site_label_1
_geom_bond_atom_site_label_2
_geom_bond_distance
_geom_bond_site_symmetry_2
Nb0 P3 2.573373 1_656
Nb0 P3 2.573374 1_546
Nb0 P1 2.619896 1_545
Nb0 P1 2.619899 1_655
Nb0 P0 2.710045 1_555
Nb0 Ni0 2.792462 1_556
Nb0 Ni1 2.814527 1_545
Nb0 Ni1 2.814527 1_655
Nb0 Ni2 2.874899 1_545
Nb0 W0 2.893687 1_656
Nb0 W0 2.893687 1_546
Nb1 P2 2.573374 1_555
Nb1 P2 2.573374 1_445
Nb1 P3 2.619893 1_445
Nb1 P3 2.619896 1_555
Nb1 P1 2.710032 1_555
Nb1 Ni3 2.792460 1_555
Nb1 Ni2 2.814523 1_445
Nb1 Ni2 2.814524 1_555
Nb1 Ni0 2.874900 1_455
Nb1 W0 2.893690 1_445
Nb1 W0 2.893693 1_555
Nb2 P1 2.573374 1_555
Nb2 P1 2.573374 1_665
Nb2 P0 2.619893 1_665
Nb2 P0 2.619896 1_555
Nb2 P2 2.710032 1_555
Nb2 Ni2 2.792460 1_555
Nb2 Ni3 2.814523 1_665
Nb2 Ni3 2.814524 1_555
Nb2 Ni1 2.874900 1_655
Nb2 W0 2.893690 1_666
Nb2 W0 2.893693 1_556
Nb3 P0 2.573373 1_454
Nb3 P0 2.573374 1_564
Nb3 P2 2.619896 1_565
Nb3 P2 2.619899 1_455
Nb3 P3 2.710045 1_555
Nb3 Ni1 2.792462 1_554
Nb3 Ni0 2.814527 1_565
Nb3 Ni0 2.814527 1_455
Nb3 Ni3 2.874899 1_565
Nb3 W0 2.893687 1_455
Nb3 W0 2.893687 1_565
Ni0 P3 2.204056 1_545
Ni0 P3 2.204056 1_655
Ni0 P2 2.235293 1_555
Ni1 P0 2.204056 1_565
Ni1 P0 2.204056 1_455
Ni1 P1 2.235293 1_555
Ni2 P1 2.204052 1_555
Ni2 P1 2.204054 1_665
Ni2 P3 2.235292 1_555
Ni3 P2 2.204052 1_555
Ni3 P2 2.204054 1_445
Ni3 P0 2.235292 1_555
P0 W0 2.623060 1_556
P1 W0 2.623066 1_556
P2 W0 2.623066 1_555
P3 W0 2.623060 1_555
