# generated using pymatgen
data_Cs3RbOs2O9
_symmetry_space_group_name_H-M   'P 1'
_cell_length_a   6.54437524
_cell_length_b   6.54437433
_cell_length_c   15.74210159
_cell_angle_alpha   90.00000000
_cell_angle_beta   90.00000000
_cell_angle_gamma   119.99998557
_symmetry_Int_Tables_number   1
_chemical_formula_structural   Cs3RbOs2O9
_chemical_formula_sum   'Cs6 Rb2 Os4 O18'
_cell_volume   583.88824346
_cell_formula_units_Z   2
loop_
 _symmetry_equiv_pos_site_id
 _symmetry_equiv_pos_as_xyz
  1  'x, y, z'
loop_
 _atom_site_type_symbol
 _atom_site_label
 _atom_site_symmetry_multiplicity
 _atom_site_fract_x
 _atom_site_fract_y
 _atom_site_fract_z
 _atom_site_occupancy
  Cs  Cs0  1  0.00000000  0.00000000  0.25000000  1
  Cs  Cs1  1  0.00000000  0.00000000  0.75000000  1
  Cs  Cs2  1  0.33333300  0.66666700  0.39284826  1
  Cs  Cs3  1  0.66666700  0.33333300  0.60715174  1
  Cs  Cs4  1  0.66666700  0.33333300  0.89284826  1
  Cs  Cs5  1  0.33333300  0.66666700  0.10715174  1
  Rb  Rb0  1  0.00000000  0.00000000  0.50000000  1
  Rb  Rb1  1  0.00000000  0.00000000  0.00000000  1
  Os  Os0  1  0.66666700  0.33333300  0.34152523  1
  Os  Os1  1  0.33333300  0.66666700  0.65847477  1
  Os  Os2  1  0.33333300  0.66666700  0.84152523  1
  Os  Os3  1  0.66666700  0.33333300  0.15847477  1
  O  O0  1  0.54194032  0.45805968  0.25000000  1
  O  O1  1  0.54194032  0.08387964  0.25000000  1
  O  O2  1  0.91612036  0.45805968  0.25000000  1
  O  O3  1  0.45805968  0.54194032  0.75000000  1
  O  O4  1  0.45805968  0.91612036  0.75000000  1
  O  O5  1  0.08387964  0.54194032  0.75000000  1
  O  O6  1  0.38812235  0.19406167  0.39626802  1
  O  O7  1  0.80593833  0.19406167  0.39626802  1
  O  O8  1  0.80593833  0.61187765  0.39626802  1
  O  O9  1  0.61187765  0.80593833  0.60373198  1
  O  O10  1  0.19406167  0.80593833  0.60373198  1
  O  O11  1  0.19406167  0.38812235  0.60373198  1
  O  O12  1  0.61187765  0.80593833  0.89626802  1
  O  O13  1  0.19406167  0.80593833  0.89626802  1
  O  O14  1  0.19406167  0.38812235  0.89626802  1
  O  O15  1  0.38812235  0.19406167  0.10373198  1
  O  O16  1  0.80593833  0.19406167  0.10373198  1
  O  O17  1  0.80593833  0.61187765  0.10373198  1
loop_
_geom_bond_atom_site_label_1
_geom_bond_atom_site_label_2
_geom_bond_distance
_geom_bond_site_symmetry_2
Cs0 O8 3.184428 1_445
Cs0 O17 3.184428 1_445
Cs0 O6 3.184428 1_555
Cs0 O15 3.184428 1_555
Cs0 O7 3.184431 1_455
Cs0 O16 3.184431 1_455
Cs0 O2 3.306537 1_455
Cs0 O1 3.306538 1_455
Cs0 O0 3.306542 1_445
Cs0 O0 3.306542 1_555
Cs0 O2 3.306544 1_445
Cs0 O1 3.306544 1_555
Cs1 O14 3.184428 1_555
Cs1 O11 3.184428 1_555
Cs1 O12 3.184428 1_445
Cs1 O9 3.184428 1_445
Cs1 O13 3.184431 1_545
Cs1 O10 3.184431 1_545
Cs1 O5 3.306537 1_545
Cs1 O4 3.306538 1_545
Cs1 O3 3.306542 1_555
Cs1 O3 3.306542 1_445
Cs1 O5 3.306544 1_555
Cs1 O4 3.306544 1_445
Cs2 O1 3.263141 1_565
Cs2 O2 3.263142 1_455
Cs2 O0 3.263149 1_555
Cs2 O6 3.287329 1_555
Cs2 O6 3.287329 1_565
Cs2 O8 3.287329 1_555
Cs2 O8 3.287330 1_455
Cs2 O7 3.287330 1_565
Cs2 O7 3.287330 1_455
Cs2 O10 3.675996 1_555
Cs2 O11 3.676001 1_555
Cs2 O9 3.676001 1_555
Cs3 O4 3.263141 1_545
Cs3 O5 3.263142 1_655
Cs3 O3 3.263149 1_555
Cs3 O9 3.287329 1_555
Cs3 O9 3.287329 1_545
Cs3 O11 3.287329 1_555
Cs3 O11 3.287330 1_655
Cs3 O10 3.287330 1_545
Cs3 O10 3.287330 1_655
Cs3 O7 3.675996 1_555
Cs3 O8 3.676001 1_555
Cs3 O6 3.676001 1_555
Cs4 O4 3.263141 1_545
Cs4 O5 3.263142 1_655
Cs4 O3 3.263149 1_555
Cs4 O12 3.287329 1_555
Cs4 O12 3.287329 1_545
Cs4 O14 3.287329 1_555
Cs4 O14 3.287330 1_655
Cs4 O13 3.287330 1_545
Cs4 O13 3.287330 1_655
Cs4 O16 3.675996 1_556
Cs4 O17 3.676001 1_556
Cs4 O15 3.676001 1_556
Cs5 O1 3.263141 1_565
Cs5 O2 3.263142 1_455
Cs5 O0 3.263149 1_555
Cs5 O15 3.287329 1_555
Cs5 O15 3.287329 1_565
Cs5 O17 3.287329 1_555
Cs5 O17 3.287330 1_455
Cs5 O16 3.287330 1_565
Cs5 O16 3.287330 1_455
Cs5 O13 3.675996 1_554
Cs5 O14 3.676001 1_554
Cs5 O12 3.676001 1_554
O0 Os0 2.018597 1_555
O0 Os3 2.018597 1_555
O1 Os0 2.018597 1_555
O1 Os3 2.018597 1_555
O2 Os0 2.018597 1_555
O2 Os3 2.018597 1_555
O3 Os2 2.018597 1_555
O3 Os1 2.018597 1_555
O4 Os2 2.018597 1_555
O4 Os1 2.018597 1_555
O5 Os2 2.018597 1_555
O5 Os1 2.018597 1_555
O6 Os0 1.798574 1_555
O6 Rb0 2.739585 1_555
O7 Os0 1.798563 1_555
O7 Rb0 2.739589 1_655
O8 Os0 1.798574 1_555
O8 Rb0 2.739585 1_665
O9 Os1 1.798574 1_555
O9 Rb0 2.739585 1_665
O10 Os1 1.798563 1_555
O10 Rb0 2.739589 1_565
O11 Os1 1.798574 1_555
O11 Rb0 2.739585 1_555
O12 Os2 1.798574 1_555
O12 Rb1 2.739585 1_666
O13 Os2 1.798563 1_555
O13 Rb1 2.739589 1_566
O14 Os2 1.798574 1_555
O14 Rb1 2.739585 1_556
O15 Os3 1.798574 1_555
O15 Rb1 2.739585 1_555
O16 Os3 1.798563 1_555
O16 Rb1 2.739589 1_655
O17 Os3 1.798574 1_555
O17 Rb1 2.739585 1_665
