# generated using pymatgen
data_Na10Zn4O9
_symmetry_space_group_name_H-M   'P 1'
_cell_length_a   8.58663817
_cell_length_b   8.58663817
_cell_length_c   8.55966596
_cell_angle_alpha   77.66551208
_cell_angle_beta   77.66551208
_cell_angle_gamma   77.15091871
_symmetry_Int_Tables_number   1
_chemical_formula_structural   Na10Zn4O9
_chemical_formula_sum   'Na20 Zn8 O18'
_cell_volume   591.88832390
_cell_formula_units_Z   2
loop_
 _symmetry_equiv_pos_site_id
 _symmetry_equiv_pos_as_xyz
  1  'x, y, z'
loop_
 _atom_site_type_symbol
 _atom_site_label
 _atom_site_symmetry_multiplicity
 _atom_site_fract_x
 _atom_site_fract_y
 _atom_site_fract_z
 _atom_site_occupancy
  Na  Na0  1  0.99918640  0.00081360  0.00000000  1
  Na  Na1  1  0.94761577  0.64200341  0.63099010  1
  Na  Na2  1  0.92265406  0.32691836  0.70739057  1
  Na  Na3  1  0.80364727  0.74828808  0.36190141  1
  Na  Na4  1  0.69762492  0.30237508  0.00000000  1
  Na  Na5  1  0.61026306  0.94135830  0.62509905  1
  Na  Na6  1  0.61666217  0.63012335  0.93842856  1
  Na  Na7  1  0.77291215  0.22708785  0.50000000  1
  Na  Na8  1  0.76905098  0.48507985  0.22370640  1
  Na  Na9  1  0.67308164  0.07734594  0.29260943  1
  Na  Na10  1  0.51492015  0.23094902  0.77629360  1
  Na  Na11  1  0.50840490  0.77623261  0.22406630  1
  Na  Na12  1  0.34888926  0.77676246  0.78900036  1
  Na  Na13  1  0.22376739  0.49159510  0.77593370  1
  Na  Na14  1  0.23584571  0.76415429  0.50000000  1
  Na  Na15  1  0.36987665  0.38333783  0.06157144  1
  Na  Na16  1  0.35799659  0.05238423  0.36900990  1
  Na  Na17  1  0.22323754  0.65111074  0.21099964  1
  Na  Na18  1  0.25171192  0.19635273  0.63809859  1
  Na  Na19  1  0.05864170  0.38973694  0.37490095  1
  Zn  Zn0  1  0.96357944  0.97365820  0.66937195  1
  Zn  Zn1  1  0.96328016  0.66587931  0.96998273  1
  Zn  Zn2  1  0.67162946  0.96998921  0.96704634  1
  Zn  Zn3  1  0.58968756  0.57643534  0.59484961  1
  Zn  Zn4  1  0.42356466  0.41031244  0.40515039  1
  Zn  Zn5  1  0.33412069  0.03671984  0.03001727  1
  Zn  Zn6  1  0.03001079  0.32837054  0.03295366  1
  Zn  Zn7  1  0.02634180  0.03642056  0.33062805  1
  O  O0  1  0.88085940  0.49340949  0.89468489  1
  O  O1  1  0.87252249  0.91174253  0.49504283  1
  O  O2  1  0.80153017  0.48964912  0.49255817  1
  O  O3  1  0.88680639  0.20149927  0.19496259  1
  O  O4  1  0.79850073  0.11319361  0.80503741  1
  O  O5  1  0.79218393  0.79553104  0.10326437  1
  O  O6  1  0.50062237  0.89753551  0.89100654  1
  O  O7  1  0.50048617  0.79468297  0.49411224  1
  O  O8  1  0.48422226  0.49735796  0.80549418  1
  O  O9  1  0.50264204  0.51577774  0.19450582  1
  O  O10  1  0.51035088  0.19846983  0.50744183  1
  O  O11  1  0.50659051  0.11914060  0.10531511  1
  O  O12  1  0.20446896  0.20781607  0.89673563  1
  O  O13  1  0.22167134  0.90950342  0.22368036  1
  O  O14  1  0.09049658  0.77832866  0.77631964  1
  O  O15  1  0.20531703  0.49951383  0.50588776  1
  O  O16  1  0.08825747  0.12747751  0.50495717  1
  O  O17  1  0.10246449  0.49937763  0.10899346  1
loop_
_geom_bond_atom_site_label_1
_geom_bond_atom_site_label_2
_geom_bond_distance
_geom_bond_site_symmetry_2
Na0 O4 2.546882 1_554
Na0 O3 2.546882 1_555
Na0 O5 2.665392 1_545
Na0 O12 2.665392 1_654
Na0 O14 2.860999 1_644
Na0 O13 2.860999 1_645
Na1 O0 2.365024 1_555
Na1 O1 2.374715 1_555
Na1 O15 2.425560 1_655
Na1 O14 2.517108 1_655
Na1 O2 2.591549 1_555
Na2 O4 2.244346 1_555
Na2 O0 2.290832 1_555
Na2 O2 2.342788 1_555
Na2 O16 2.662562 1_655
Na3 O5 2.183350 1_555
Na3 O1 2.226869 1_555
Na3 O2 2.265249 1_555
Na3 O7 2.586211 1_555
Na4 O0 2.426728 1_554
Na4 O11 2.426728 1_555
Na4 O4 2.467550 1_554
Na4 O3 2.467550 1_555
Na4 O8 2.771415 1_554
Na4 O9 2.771415 1_555
Na5 O6 2.254909 1_555
Na5 O1 2.273837 1_555
Na5 O10 2.280598 1_565
Na5 O7 2.305358 1_555
Na6 O6 2.277494 1_555
Na6 O0 2.303278 1_555
Na6 O9 2.306155 1_556
Na6 O8 2.360359 1_555
Na7 O10 2.307739 1_555
Na7 O2 2.307739 1_555
Na7 O3 2.623109 1_555
Na7 O4 2.623109 1_555
Na7 O1 2.658725 1_545
Na7 O16 2.658725 1_655
Na8 O9 2.304955 1_555
Na8 O2 2.385970 1_555
Na8 O3 2.463080 1_555
Na8 O5 2.679982 1_555
Na9 O3 2.244346 1_555
Na9 O11 2.290832 1_555
Na9 O10 2.342788 1_555
Na9 O1 2.662562 1_545
Na10 O8 2.304955 1_555
Na10 O10 2.385970 1_555
Na10 O4 2.463080 1_555
Na10 O12 2.679982 1_555
Na11 O9 2.316125 1_555
Na11 O7 2.336083 1_555
Na11 O5 2.462544 1_555
Na11 O13 2.473885 1_555
Na12 O6 2.238105 1_555
Na12 O14 2.241360 1_555
Na12 O8 2.410726 1_555
Na12 O7 2.570758 1_555
Na13 O8 2.316125 1_555
Na13 O15 2.336083 1_555
Na13 O12 2.462544 1_555
Na13 O14 2.473885 1_555
Na14 O7 2.333516 1_555
Na14 O15 2.333516 1_555
Na14 O14 2.441499 1_555
Na14 O13 2.441499 1_555
Na15 O17 2.277494 1_555
Na15 O11 2.303278 1_555
Na15 O8 2.306155 1_554
Na15 O9 2.360359 1_555
Na16 O11 2.365024 1_555
Na16 O16 2.374715 1_555
Na16 O7 2.425560 1_545
Na16 O13 2.517108 1_545
Na16 O10 2.591549 1_555
Na17 O17 2.238105 1_555
Na17 O13 2.241360 1_555
Na17 O9 2.410726 1_555
Na17 O15 2.570758 1_555
Na18 O12 2.183350 1_555
Na18 O16 2.226869 1_555
Na18 O10 2.265249 1_555
Na18 O15 2.586211 1_555
Na19 O17 2.254909 1_555
Na19 O16 2.273837 1_555
Na19 O2 2.280598 1_455
Na19 O15 2.305358 1_555
O0 Zn6 2.042798 1_656
O0 Zn1 2.044084 1_555
O1 Zn7 2.015502 1_665
O1 Zn0 2.035415 1_555
O2 Zn3 1.904257 1_555
O3 Zn6 1.960538 1_655
O3 Zn7 1.982193 1_655
O4 Zn2 1.960538 1_545
O4 Zn0 1.982193 1_545
O5 Zn2 1.937740 1_554
O5 Zn1 1.948945 1_554
O6 Zn2 1.988580 1_555
O6 Zn5 2.002240 1_566
O7 Zn3 1.948202 1_555
O8 Zn3 1.893398 1_555
O9 Zn4 1.893398 1_555
O10 Zn4 1.904257 1_555
O11 Zn2 2.042798 1_544
O11 Zn5 2.044084 1_555
O12 Zn6 1.937740 1_556
O12 Zn5 1.948945 1_556
O13 Zn7 1.948344 1_565
O13 Zn5 1.971076 1_565
O14 Zn0 1.948344 1_455
O14 Zn1 1.971076 1_455
O15 Zn4 1.948202 1_555
O16 Zn0 2.015502 1_445
O16 Zn7 2.035415 1_555
O17 Zn6 1.988580 1_555
O17 Zn1 2.002240 1_454
