# generated using pymatgen
data_Lu16In4Ru3Au
_symmetry_space_group_name_H-M   'P 1'
_cell_length_a   9.41448778
_cell_length_b   9.41448819
_cell_length_c   9.41448838
_cell_angle_alpha   60.11666613
_cell_angle_beta   60.11666538
_cell_angle_gamma   60.11666727
_symmetry_Int_Tables_number   1
_chemical_formula_structural   Lu16In4Ru3Au
_chemical_formula_sum   'Lu16 In4 Ru3 Au1'
_cell_volume   591.59096674
_cell_formula_units_Z   1
loop_
 _symmetry_equiv_pos_site_id
 _symmetry_equiv_pos_as_xyz
  1  'x, y, z'
loop_
 _atom_site_type_symbol
 _atom_site_label
 _atom_site_symmetry_multiplicity
 _atom_site_fract_x
 _atom_site_fract_y
 _atom_site_fract_z
 _atom_site_occupancy
  Lu  Lu0  1  0.59609568  0.59609568  0.59609568  1
  Lu  Lu1  1  0.60464719  0.60464719  0.19792396  1
  Lu  Lu2  1  0.60464719  0.19792396  0.60464719  1
  Lu  Lu3  1  0.19792396  0.60464719  0.60464719  1
  Lu  Lu4  1  0.04747464  0.44277080  0.44277080  1
  Lu  Lu5  1  0.44234440  0.05918027  0.05918027  1
  Lu  Lu6  1  0.44277080  0.04747464  0.44277080  1
  Lu  Lu7  1  0.05918027  0.44234440  0.05918027  1
  Lu  Lu8  1  0.44277080  0.44277080  0.04747464  1
  Lu  Lu9  1  0.05918027  0.05918027  0.44234440  1
  Lu  Lu10  1  0.19209510  0.80993332  0.80993332  1
  Lu  Lu11  1  0.81467008  0.19084276  0.19084276  1
  Lu  Lu12  1  0.80993332  0.19209510  0.80993332  1
  Lu  Lu13  1  0.19084276  0.81467008  0.19084276  1
  Lu  Lu14  1  0.80993332  0.80993332  0.19209510  1
  Lu  Lu15  1  0.19084276  0.19084276  0.81467008  1
  In  In0  1  0.83428100  0.83428100  0.83428100  1
  In  In1  1  0.83284476  0.83284476  0.49952669  1
  In  In2  1  0.83284476  0.49952669  0.83284476  1
  In  In3  1  0.49952669  0.83284476  0.83284476  1
  Ru  Ru0  1  0.38799562  0.38799562  0.82818742  1
  Ru  Ru1  1  0.38799562  0.82818742  0.38799562  1
  Ru  Ru2  1  0.82818742  0.38799562  0.38799562  1
  Au  Au0  1  0.39097057  0.39097057  0.39097057  1
loop_
_geom_bond_atom_site_label_1
_geom_bond_atom_site_label_2
_geom_bond_distance
_geom_bond_site_symmetry_2
Lu0 Ru0 2.782852 1_555
Lu0 Ru1 2.782852 1_555
Lu0 Ru2 2.782852 1_555
Lu0 Lu10 3.369063 1_555
Lu0 Lu14 3.369063 1_555
Lu0 Lu12 3.369063 1_555
Lu1 Ru2 2.762164 1_555
Lu1 Ru1 2.762164 1_555
Lu1 Lu14 3.314217 1_555
Lu1 Lu13 3.397444 1_555
Lu1 Lu11 3.397445 1_555
Lu2 Ru2 2.762164 1_555
Lu2 Ru0 2.762164 1_555
Lu3 Ru1 2.762164 1_555
Lu3 Ru0 2.762164 1_555
Lu4 Ru2 2.679666 1_455
Lu5 Ru1 2.719586 1_545
Lu5 Ru0 2.719586 1_554
Lu6 Ru1 2.679666 1_545
Lu7 Ru0 2.719586 1_554
Lu7 Ru2 2.719586 1_455
Lu8 Ru0 2.679666 1_554
Lu9 Ru1 2.719586 1_545
Lu9 Ru2 2.719586 1_455
Lu10 Lu3 3.314217 1_555
Lu10 Ru0 3.397887 1_555
Lu10 Ru1 3.397887 1_555
Lu10 Lu6 3.456358 1_565
Lu10 Lu8 3.456358 1_556
Lu10 Lu7 3.513620 1_556
Lu10 Lu9 3.513620 1_565
Lu10 Lu15 3.602597 1_565
Lu10 Lu13 3.602597 1_556
Lu10 Lu14 3.604200 1_456
Lu10 Lu12 3.604200 1_465
Lu11 Ru2 3.287860 1_555
Lu11 Lu2 3.397445 1_555
Lu11 Lu7 3.479228 1_655
Lu11 Lu9 3.479228 1_655
Lu11 Lu15 3.547716 1_654
Lu11 Lu13 3.547716 1_645
Lu11 Lu6 3.598618 1_555
Lu11 Lu8 3.598618 1_555
Lu11 Lu14 3.602597 1_545
Lu11 Lu12 3.602597 1_554
Lu12 Lu2 3.314217 1_555
Lu12 Ru0 3.397887 1_555
Lu12 Ru2 3.397887 1_555
Lu12 Lu4 3.456358 1_655
Lu12 Lu8 3.456358 1_556
Lu12 Lu5 3.513620 1_556
Lu12 Lu9 3.513620 1_655
Lu12 Lu15 3.602597 1_655
Lu12 Lu14 3.604200 1_546
Lu13 Ru1 3.287860 1_555
Lu13 Lu3 3.397445 1_555
Lu13 Lu5 3.479228 1_565
Lu13 Lu9 3.479228 1_565
Lu13 Lu15 3.547717 1_564
Lu13 Lu4 3.598618 1_555
Lu13 Lu8 3.598618 1_555
Lu13 Lu14 3.602597 1_455
Lu14 Ru1 3.397886 1_555
Lu14 Ru2 3.397887 1_555
Lu14 Lu6 3.456358 1_565
Lu14 Lu4 3.456358 1_655
Lu14 Lu5 3.513620 1_565
Lu14 Lu7 3.513620 1_655
Lu15 Ru0 3.287860 1_555
Lu15 Lu2 3.397444 1_555
Lu15 Lu3 3.397444 1_555
Lu15 Lu5 3.479228 1_556
Lu15 Lu7 3.479228 1_556
Lu15 Lu6 3.598618 1_555
Lu15 Lu4 3.598618 1_555
In0 Lu10 3.156941 1_655
In0 Lu12 3.156942 1_565
In0 Lu14 3.156942 1_556
In0 In3 3.165072 1_555
In0 In2 3.165072 1_555
In0 In1 3.165072 1_555
In0 Lu1 3.312844 1_556
In0 Lu3 3.312844 1_655
In0 Lu2 3.312845 1_565
In0 Lu9 3.387966 1_665
In0 Lu5 3.387966 1_566
In0 Lu7 3.387966 1_656
In1 Lu14 3.124204 1_555
In1 In3 3.143551 1_555
In1 In2 3.143551 1_555
In1 Lu13 3.161464 1_655
In1 Lu11 3.161464 1_565
In1 Lu3 3.364667 1_655
In1 Lu2 3.364667 1_565
In1 Lu6 3.367456 1_565
In1 Lu4 3.367456 1_655
In1 Lu9 3.407198 1_665
In1 Lu0 3.416749 1_555
In2 Lu12 3.124204 1_555
In2 In3 3.143551 1_555
In2 Lu15 3.161464 1_655
In2 Lu11 3.161464 1_556
In2 Lu3 3.364667 1_655
In2 Lu1 3.364667 1_556
In2 Lu8 3.367455 1_556
In2 Lu4 3.367456 1_655
In2 Lu7 3.407198 1_656
In2 Lu0 3.416750 1_555
In3 Lu10 3.124203 1_555
In3 Lu13 3.161464 1_556
In3 Lu15 3.161464 1_565
In3 Lu2 3.364667 1_565
In3 Lu1 3.364667 1_556
In3 Lu8 3.367456 1_556
In3 Lu6 3.367456 1_565
In3 Lu5 3.407198 1_566
In3 Lu0 3.416750 1_555
Au0 Lu4 2.833261 1_555
Au0 Lu6 2.833261 1_555
Au0 Lu8 2.833261 1_555
Au0 Lu1 2.853553 1_555
Au0 Lu2 2.853553 1_555
Au0 Lu3 2.853553 1_555
Au0 Lu11 3.401533 1_555
Au0 Lu15 3.401533 1_555
Au0 Lu13 3.401533 1_555
