# generated using pymatgen
data_Na2Hf3(ZrSe5)2
_symmetry_space_group_name_H-M   'P 1'
_cell_length_a   6.51140702
_cell_length_b   10.50881969
_cell_length_c   8.23453284
_cell_angle_alpha   62.91381585
_cell_angle_beta   66.55270278
_cell_angle_gamma   89.83671164
_symmetry_Int_Tables_number   1
_chemical_formula_structural   Na2Hf3(ZrSe5)2
_chemical_formula_sum   'Na2 Hf3 Zr2 Se10'
_cell_volume   449.13944096
_cell_formula_units_Z   1
loop_
 _symmetry_equiv_pos_site_id
 _symmetry_equiv_pos_as_xyz
  1  'x, y, z'
loop_
 _atom_site_type_symbol
 _atom_site_label
 _atom_site_symmetry_multiplicity
 _atom_site_fract_x
 _atom_site_fract_y
 _atom_site_fract_z
 _atom_site_occupancy
  Na  Na0  1  0.79380321  0.08655656  0.41307067  1
  Na  Na1  1  0.01035073  0.51675898  0.98385474  1
  Hf  Hf0  1  0.40031592  0.80327000  0.19759695  1
  Hf  Hf1  1  0.80024863  0.60096212  0.40261789  1
  Hf  Hf2  1  0.19808384  0.39634025  0.59825885  1
  Zr  Zr0  1  0.60004196  0.19760440  0.80702229  1
  Zr  Zr1  1  0.99994105  0.00120418  0.99530945  1
  Se  Se0  1  0.98042480  0.84047188  0.37571899  1
  Se  Se1  1  0.57151987  0.04030473  0.18201380  1
  Se  Se2  1  0.17504285  0.24725992  0.97299085  1
  Se  Se3  1  0.78233484  0.44554721  0.77146739  1
  Se  Se4  1  0.38203702  0.64215930  0.56837981  1
  Se  Se5  1  0.42185086  0.95273036  0.82934765  1
  Se  Se6  1  0.02751976  0.15809610  0.61901157  1
  Se  Se7  1  0.62146579  0.35775673  0.42517758  1
  Se  Se8  1  0.21937810  0.55776305  0.22816480  1
  Se  Se9  1  0.81564177  0.75521423  0.02999772  1
loop_
_geom_bond_atom_site_label_1
_geom_bond_atom_site_label_2
_geom_bond_distance
_geom_bond_site_symmetry_2
Na0 Se5 2.935340 1_545
Na0 Se0 2.944136 1_545
Na0 Se6 2.996381 1_655
Na0 Se1 2.998153 1_555
Na0 Se2 3.072192 1_654
Na0 Se7 3.089196 1_555
Na1 Se9 2.914931 1_456
Na1 Se4 2.936312 1_555
Na1 Se8 3.009528 1_556
Na1 Se3 3.014579 1_455
Na1 Se2 3.052204 1_555
Na1 Se7 3.095429 1_456
Hf0 Se5 2.647152 1_554
Hf0 Se1 2.659880 1_565
Hf0 Se0 2.665358 1_455
Hf0 Se9 2.670201 1_555
Hf0 Se4 2.684640 1_555
Hf0 Se8 2.701423 1_555
Hf1 Se4 2.653204 1_555
Hf1 Se0 2.657612 1_555
Hf1 Se3 2.666076 1_555
Hf1 Se8 2.680429 1_655
Hf1 Se9 2.698002 1_555
Hf1 Se7 2.708194 1_555
Hf2 Se6 2.646920 1_555
Hf2 Se8 2.672380 1_555
Hf2 Se7 2.681191 1_555
Hf2 Se3 2.687211 1_455
Hf2 Se2 2.688725 1_555
Hf2 Se4 2.715294 1_555
Se0 Zr1 2.747322 1_564
Se1 Zr0 2.683102 1_554
Se1 Zr1 2.733161 1_554
Se2 Zr0 2.725746 1_555
Se2 Zr1 2.727115 1_455
Se3 Zr0 2.707414 1_555
Se5 Zr1 2.704178 1_465
Se5 Zr0 2.723702 1_565
Se6 Zr1 2.694177 1_455
Se6 Zr0 2.732466 1_455
Se7 Zr0 2.751695 1_555
Se9 Zr1 2.697539 1_564
