# generated using pymatgen
data_U2AlCo3
_symmetry_space_group_name_H-M   'P 1'
_cell_length_a   5.15095535
_cell_length_b   5.15095535
_cell_length_c   7.63239600
_cell_angle_alpha   90.00000000
_cell_angle_beta   90.00000000
_cell_angle_gamma   119.99999166
_symmetry_Int_Tables_number   1
_chemical_formula_structural   U2AlCo3
_chemical_formula_sum   'U4 Al2 Co6'
_cell_volume   175.37477796
_cell_formula_units_Z   2
loop_
 _symmetry_equiv_pos_site_id
 _symmetry_equiv_pos_as_xyz
  1  'x, y, z'
loop_
 _atom_site_type_symbol
 _atom_site_label
 _atom_site_symmetry_multiplicity
 _atom_site_fract_x
 _atom_site_fract_y
 _atom_site_fract_z
 _atom_site_occupancy
  U  U0  1  0.33333300  0.66666700  0.06988300  1
  U  U1  1  0.66666700  0.33333300  0.56988300  1
  U  U2  1  0.66666700  0.33333300  0.93011700  1
  U  U3  1  0.33333300  0.66666700  0.43011700  1
  Al  Al0  1  0.00000000  0.00000000  0.00000000  1
  Al  Al1  1  0.00000000  0.00000000  0.50000000  1
  Co  Co0  1  0.82982900  0.65965800  0.25000000  1
  Co  Co1  1  0.17017100  0.82982900  0.75000000  1
  Co  Co2  1  0.65965800  0.82982900  0.75000000  1
  Co  Co3  1  0.34034200  0.17017100  0.25000000  1
  Co  Co4  1  0.82982900  0.17017100  0.25000000  1
  Co  Co5  1  0.17017100  0.34034200  0.75000000  1
loop_
_geom_bond_atom_site_label_1
_geom_bond_atom_site_label_2
_geom_bond_distance
_geom_bond_site_symmetry_2
U0 U3 2.749449 1_555
U0 U2 3.159439 1_454
U0 U2 3.159439 1_564
U0 U2 3.159447 1_554
U1 U2 2.749449 1_555
U1 U3 3.159439 1_545
U1 U3 3.159439 1_655
U1 U3 3.159447 1_555
Al0 Co1 2.438406 1_544
Al0 Co4 2.438406 1_455
Al0 Co2 2.438406 1_444
Al0 Co3 2.438406 1_555
Al0 Co5 2.438406 1_554
Al0 Co0 2.438406 1_445
Al0 U0 3.021355 1_545
Al0 U2 3.021355 1_454
Al0 U0 3.021359 1_555
Al0 U0 3.021359 1_445
Al0 U2 3.021359 1_444
Al0 U2 3.021359 1_554
Al1 Co1 2.438406 1_545
Al1 Co4 2.438406 1_455
Al1 Co3 2.438406 1_555
Al1 Co2 2.438406 1_445
Al1 Co0 2.438406 1_445
Al1 Co5 2.438406 1_555
Al1 U1 3.021355 1_455
Al1 U3 3.021355 1_545
Al1 U1 3.021359 1_555
Al1 U3 3.021359 1_445
Al1 U1 3.021359 1_445
Al1 U3 3.021359 1_555
Co0 Co4 2.521326 1_555
Co0 Co3 2.521326 1_555
Co0 Co4 2.629630 1_565
Co0 Co3 2.629630 1_665
Co0 U1 2.842504 1_555
Co0 U2 2.842504 1_554
Co0 U0 2.919575 1_655
Co0 U3 2.919575 1_655
Co0 U3 2.919579 1_555
Co0 U0 2.919579 1_555
Co1 Co5 2.521326 1_555
Co1 Co2 2.521326 1_555
Co1 Co5 2.629630 1_565
Co1 Co2 2.629630 1_455
Co1 U3 2.842501 1_555
Co1 U0 2.842501 1_556
Co1 U1 2.919577 1_455
Co1 U2 2.919577 1_455
Co1 U1 2.919577 1_565
Co1 U2 2.919577 1_565
Co2 Co5 2.521326 1_555
Co2 Co5 2.629630 1_665
Co2 U0 2.842504 1_556
Co2 U3 2.842504 1_555
Co2 U1 2.919575 1_565
Co2 U2 2.919575 1_565
Co2 U2 2.919579 1_555
Co2 U1 2.919579 1_555
Co3 Co4 2.521326 1_555
Co3 Co4 2.629630 1_455
Co3 U2 2.842504 1_554
Co3 U1 2.842504 1_555
Co3 U0 2.919575 1_545
Co3 U3 2.919575 1_545
Co3 U3 2.919579 1_555
Co3 U0 2.919579 1_555
Co4 U2 2.842501 1_554
Co4 U1 2.842501 1_555
Co4 U0 2.919577 1_655
Co4 U0 2.919577 1_545
Co4 U3 2.919577 1_545
Co4 U3 2.919577 1_655
Co5 U0 2.842504 1_556
Co5 U3 2.842504 1_555
Co5 U2 2.919575 1_455
Co5 U1 2.919575 1_455
Co5 U2 2.919579 1_555
Co5 U1 2.919579 1_555
