# generated using pymatgen
data_Hf6Al16Ir6Pd
_symmetry_space_group_name_H-M   'P 1'
_cell_length_a   8.66076862
_cell_length_b   8.66076917
_cell_length_c   8.66076827
_cell_angle_alpha   60.00000344
_cell_angle_beta   60.00000132
_cell_angle_gamma   60.00000517
_symmetry_Int_Tables_number   1
_chemical_formula_structural   Hf6Al16Ir6Pd
_chemical_formula_sum   'Hf6 Al16 Ir6 Pd1'
_cell_volume   459.36124630
_cell_formula_units_Z   1
loop_
 _symmetry_equiv_pos_site_id
 _symmetry_equiv_pos_as_xyz
  1  'x, y, z'
loop_
 _atom_site_type_symbol
 _atom_site_label
 _atom_site_symmetry_multiplicity
 _atom_site_fract_x
 _atom_site_fract_y
 _atom_site_fract_z
 _atom_site_occupancy
  Hf  Hf0  1  0.68350705  0.31649295  0.31649295  1
  Hf  Hf1  1  0.31649295  0.68350705  0.68350705  1
  Hf  Hf2  1  0.31649295  0.68350705  0.31649295  1
  Hf  Hf3  1  0.68350705  0.31649295  0.68350705  1
  Hf  Hf4  1  0.31649295  0.31649295  0.68350705  1
  Hf  Hf5  1  0.68350705  0.68350705  0.31649295  1
  Al  Al0  1  0.33862866  0.33862866  0.33862866  1
  Al  Al1  1  0.66137134  0.66137134  0.66137134  1
  Al  Al2  1  0.33862866  0.33862866  0.98411303  1
  Al  Al3  1  0.33862866  0.98411303  0.33862866  1
  Al  Al4  1  0.66137134  0.66137134  0.01588697  1
  Al  Al5  1  0.66137134  0.01588697  0.66137134  1
  Al  Al6  1  0.98411303  0.33862866  0.33862866  1
  Al  Al7  1  0.01588697  0.66137134  0.66137134  1
  Al  Al8  1  0.12144344  0.12144344  0.12144344  1
  Al  Al9  1  0.87855656  0.87855656  0.87855656  1
  Al  Al10  1  0.12144344  0.12144344  0.63567069  1
  Al  Al11  1  0.12144344  0.63567069  0.12144344  1
  Al  Al12  1  0.87855656  0.87855656  0.36432931  1
  Al  Al13  1  0.87855656  0.36432931  0.87855656  1
  Al  Al14  1  0.63567069  0.12144344  0.12144344  1
  Al  Al15  1  0.36432931  0.87855656  0.87855656  1
  Ir  Ir0  1  0.50000000  0.00000000  0.00000000  1
  Ir  Ir1  1  0.00000000  0.50000000  0.50000000  1
  Ir  Ir2  1  0.00000000  0.50000000  0.00000000  1
  Ir  Ir3  1  0.50000000  0.00000000  0.50000000  1
  Ir  Ir4  1  0.00000000  0.00000000  0.50000000  1
  Ir  Ir5  1  0.50000000  0.50000000  0.00000000  1
  Pd  Pd0  1  0.00000000  0.00000000  0.00000000  1
loop_
_geom_bond_atom_site_label_1
_geom_bond_atom_site_label_2
_geom_bond_distance
_geom_bond_site_symmetry_2
Al0 Ir5 2.502671 1_555
Al0 Ir1 2.502671 1_555
Al0 Ir3 2.502671 1_555
Al0 Hf4 2.808318 1_555
Al0 Hf0 2.808318 1_555
Al0 Hf2 2.808318 1_555
Al1 Ir5 2.502671 1_556
Al1 Ir1 2.502671 1_655
Al1 Ir3 2.502671 1_565
Al1 Hf5 2.808318 1_555
Al1 Hf1 2.808318 1_555
Al1 Hf3 2.808318 1_555
Al2 Ir2 2.502669 1_556
Al2 Ir0 2.502669 1_556
Al2 Ir5 2.502676 1_556
Al2 Hf4 2.808309 1_555
Al2 Hf3 2.808314 1_555
Al2 Hf1 2.808314 1_555
Al3 Ir0 2.502669 1_565
Al3 Ir4 2.502669 1_565
Al3 Ir3 2.502676 1_565
Al3 Hf2 2.808309 1_555
Al3 Hf1 2.808314 1_555
Al3 Hf5 2.808314 1_555
Al4 Ir2 2.502669 1_655
Al4 Ir0 2.502669 1_565
Al4 Ir5 2.502676 1_555
Al4 Hf5 2.808309 1_555
Al4 Hf2 2.808314 1_555
Al4 Hf0 2.808314 1_555
Al5 Ir0 2.502669 1_556
Al5 Ir4 2.502669 1_655
Al5 Ir3 2.502676 1_555
Al5 Hf3 2.808309 1_555
Al5 Hf0 2.808314 1_555
Al5 Hf4 2.808314 1_555
Al6 Ir2 2.502669 1_655
Al6 Ir4 2.502669 1_655
Al6 Ir1 2.502676 1_655
Al6 Hf0 2.808309 1_555
Al6 Hf3 2.808314 1_555
Al6 Hf5 2.808314 1_555
Al7 Ir2 2.502669 1_556
Al7 Ir4 2.502669 1_565
Al7 Ir1 2.502676 1_555
Al7 Hf1 2.808309 1_555
Al7 Hf2 2.808314 1_555
Al7 Hf4 2.808314 1_555
Al8 Pd0 2.576357 1_555
Al8 Ir4 2.677903 1_555
Al8 Ir0 2.677903 1_555
Al8 Ir2 2.677904 1_555
Al9 Pd0 2.576357 1_666
Al9 Ir4 2.677903 1_665
Al9 Ir0 2.677903 1_566
Al9 Ir2 2.677904 1_656
Al10 Pd0 2.576350 1_556
Al10 Ir3 2.677903 1_555
Al10 Ir1 2.677904 1_555
Al10 Ir4 2.677910 1_555
Al11 Pd0 2.576351 1_565
Al11 Ir1 2.677903 1_555
Al11 Ir5 2.677903 1_555
Al11 Ir2 2.677910 1_555
Al12 Pd0 2.576350 1_665
Al12 Ir3 2.677903 1_565
Al12 Ir1 2.677904 1_655
Al12 Ir4 2.677910 1_665
Al13 Pd0 2.576351 1_656
Al13 Ir1 2.677903 1_655
Al13 Ir5 2.677903 1_556
Al13 Ir2 2.677910 1_656
Al14 Pd0 2.576350 1_655
Al14 Ir3 2.677903 1_555
Al14 Ir5 2.677904 1_555
Al14 Ir0 2.677910 1_555
Al15 Pd0 2.576350 1_566
Al15 Ir3 2.677903 1_565
Al15 Ir5 2.677904 1_556
Al15 Ir0 2.677910 1_566
