# generated using pymatgen
data_Y6Zn4Pd12Au
_symmetry_space_group_name_H-M   'P 1'
_cell_length_a   8.22306157
_cell_length_b   8.22306116
_cell_length_c   8.22306085
_cell_angle_alpha   109.47121986
_cell_angle_beta   109.47121886
_cell_angle_gamma   109.47122001
_symmetry_Int_Tables_number   1
_chemical_formula_structural   Y6Zn4Pd12Au
_chemical_formula_sum   'Y6 Zn4 Pd12 Au1'
_cell_volume   428.03441869
_cell_formula_units_Z   1
loop_
 _symmetry_equiv_pos_site_id
 _symmetry_equiv_pos_as_xyz
  1  'x, y, z'
loop_
 _atom_site_type_symbol
 _atom_site_label
 _atom_site_symmetry_multiplicity
 _atom_site_fract_x
 _atom_site_fract_y
 _atom_site_fract_z
 _atom_site_occupancy
  Y  Y0  1  0.69468215  0.69468215  0.00000000  1
  Y  Y1  1  0.30531785  1.00000000  0.30531785  1
  Y  Y2  1  1.00000000  0.30531785  0.30531785  1
  Y  Y3  1  0.30531785  0.30531785  1.00000000  1
  Y  Y4  1  0.69468215  0.00000000  0.69468215  1
  Y  Y5  1  0.00000000  0.69468215  0.69468215  1
  Zn  Zn0  1  0.00000000  0.00000000  0.50000000  1
  Zn  Zn1  1  0.00000000  0.50000000  0.00000000  1
  Zn  Zn2  1  0.50000000  0.00000000  0.00000000  1
  Zn  Zn3  1  0.50000000  0.50000000  0.50000000  1
  Pd  Pd0  1  0.33193220  0.33193220  0.66386741  1
  Pd  Pd1  1  0.66806780  1.00000000  0.33193220  1
  Pd  Pd2  1  1.00000000  0.66806780  0.33193220  1
  Pd  Pd3  1  0.66806780  0.33193220  1.00000000  1
  Pd  Pd4  1  0.33193220  0.66386741  0.33193220  1
  Pd  Pd5  1  0.00000000  0.33193220  0.66806780  1
  Pd  Pd6  1  0.33193220  0.66806780  0.00000000  1
  Pd  Pd7  1  0.33193220  0.00000000  0.66806780  1
  Pd  Pd8  1  0.66386741  0.33193220  0.33193220  1
  Pd  Pd9  1  0.66806780  0.66806780  0.33613259  1
  Pd  Pd10  1  0.66806780  0.33613259  0.66806780  1
  Pd  Pd11  1  0.33613259  0.66806780  0.66806780  1
  Au  Au0  1  0.00000000  0.00000000  0.00000000  1
loop_
_geom_bond_atom_site_label_1
_geom_bond_atom_site_label_2
_geom_bond_distance
_geom_bond_site_symmetry_2
Pd0 Zn0 2.616356 1_555
Pd0 Zn3 2.616381 1_555
Pd0 Pd7 2.741206 1_555
Pd0 Pd5 2.741206 1_555
Pd0 Pd11 2.741230 1_555
Pd0 Pd10 2.741230 1_555
Pd0 Y3 2.917246 1_555
Pd0 Y0 2.917264 1_556
Pd0 Y1 3.161884 1_545
Pd0 Y2 3.161884 1_455
Pd1 Zn2 2.616360 1_565
Pd1 Zn0 2.616360 1_665
Pd1 Pd9 2.741206 1_555
Pd1 Pd8 2.741206 1_565
Pd1 Pd5 2.741214 1_665
Pd1 Pd6 2.741214 1_555
Pd1 Y4 2.917270 1_565
Pd1 Y1 2.917271 1_555
Pd1 Y0 3.161869 1_555
Pd1 Y2 3.161869 1_565
Pd2 Zn1 2.616360 1_655
Pd2 Zn0 2.616360 1_665
Pd2 Pd9 2.741206 1_555
Pd2 Pd4 2.741206 1_655
Pd2 Pd7 2.741214 1_665
Pd2 Pd3 2.741214 1_554
Pd2 Y5 2.917270 1_655
Pd2 Y2 2.917271 1_555
Pd2 Y0 3.161869 1_555
Pd2 Y1 3.161869 1_655
Pd3 Zn2 2.616360 1_556
Pd3 Zn1 2.616360 1_656
Pd3 Pd8 2.741205 1_556
Pd3 Pd7 2.741214 1_555
Pd3 Y0 2.917271 1_556
Pd3 Y3 2.917271 1_555
Pd3 Y4 3.161869 1_555
Pd3 Y2 3.161869 1_556
Pd4 Zn1 2.616356 1_555
Pd4 Zn3 2.616381 1_555
Pd4 Pd6 2.741205 1_555
Pd4 Pd9 2.741230 1_555
Pd4 Y1 2.917246 1_555
Pd4 Y4 2.917264 1_565
Pd4 Y3 3.161884 1_554
Pd4 Y2 3.161884 1_455
Pd5 Zn1 2.616360 1_556
Pd5 Zn0 2.616360 1_555
Pd5 Pd6 2.741214 1_556
Pd5 Y2 2.917270 1_455
Pd5 Y5 2.917271 1_555
Pd5 Y3 3.161869 1_555
Pd5 Y4 3.161869 1_455
Pd6 Zn2 2.616360 1_565
Pd6 Zn1 2.616360 1_555
Pd6 Y3 2.917271 1_554
Pd6 Y0 2.917271 1_555
Pd6 Y1 3.161869 1_555
Pd6 Y5 3.161869 1_554
Pd7 Zn2 2.616360 1_556
Pd7 Zn0 2.616360 1_555
Pd7 Y1 2.917270 1_545
Pd7 Y4 2.917271 1_555
Pd7 Y3 3.161869 1_555
Pd7 Y5 3.161869 1_545
Pd8 Zn2 2.616356 1_555
Pd8 Zn3 2.616381 1_555
Pd8 Pd9 2.741230 1_555
Pd8 Y2 2.917246 1_555
Pd8 Y5 2.917264 1_655
Pd8 Y3 3.161884 1_554
Pd8 Y1 3.161884 1_545
Pd9 Zn0 2.616356 1_665
Pd9 Zn3 2.616381 1_555
Pd9 Y0 2.917246 1_555
Pd9 Y3 2.917264 1_554
Pd9 Y4 3.161884 1_565
Pd9 Y5 3.161884 1_655
Pd10 Zn1 2.616356 1_656
Pd10 Zn3 2.616381 1_555
Pd10 Pd3 2.741205 1_555
Pd10 Pd5 2.741206 1_655
Pd10 Pd8 2.741230 1_555
Pd10 Y4 2.917246 1_555
Pd10 Y1 2.917264 1_545
Pd10 Y0 3.161884 1_556
Pd10 Y5 3.161884 1_655
Pd11 Zn2 2.616356 1_566
Pd11 Zn3 2.616381 1_555
Pd11 Pd6 2.741205 1_556
Pd11 Pd7 2.741206 1_565
Pd11 Pd4 2.741230 1_555
Pd11 Y5 2.917246 1_555
Pd11 Y2 2.917264 1_455
Pd11 Y0 3.161884 1_556
Pd11 Y4 3.161884 1_565
Au0 Y2 2.899046 1_455
Au0 Y5 2.899046 1_544
Au0 Y1 2.899046 1_545
Au0 Y4 2.899046 1_454
Au0 Y3 2.899046 1_554
Au0 Y0 2.899046 1_445
