# generated using pymatgen
data_CsTa(SiO3)3
_symmetry_space_group_name_H-M   'P 1'
_cell_length_a   6.96436135
_cell_length_b   6.96436125
_cell_length_c   9.86750443
_cell_angle_alpha   90.00000000
_cell_angle_beta   90.00000000
_cell_angle_gamma   120.00000049
_symmetry_Int_Tables_number   1
_chemical_formula_structural   CsTa(SiO3)3
_chemical_formula_sum   'Cs2 Ta2 Si6 O18'
_cell_volume   414.47710537
_cell_formula_units_Z   2
loop_
 _symmetry_equiv_pos_site_id
 _symmetry_equiv_pos_as_xyz
  1  'x, y, z'
loop_
 _atom_site_type_symbol
 _atom_site_label
 _atom_site_symmetry_multiplicity
 _atom_site_fract_x
 _atom_site_fract_y
 _atom_site_fract_z
 _atom_site_occupancy
  Cs  Cs0  1  0.66666700  0.33333300  0.50000000  1
  Cs  Cs1  1  0.66666700  0.33333300  0.00000000  1
  Ta  Ta0  1  0.33333300  0.66666700  0.50000000  1
  Ta  Ta1  1  0.33333300  0.66666700  0.00000000  1
  Si  Si0  1  0.20018312  0.92071138  0.25000000  1
  Si  Si1  1  0.20018312  0.27947074  0.75000000  1
  Si  Si2  1  0.72052926  0.92071138  0.75000000  1
  Si  Si3  1  0.72052926  0.79981688  0.25000000  1
  Si  Si4  1  0.07928862  0.27947074  0.25000000  1
  Si  Si5  1  0.07928862  0.79981688  0.75000000  1
  O  O0  1  0.11428423  0.68809081  0.61635557  1
  O  O1  1  0.31190919  0.88571577  0.38364443  1
  O  O2  1  0.57380758  0.88571577  0.61635557  1
  O  O3  1  0.31190919  0.42619242  0.88364443  1
  O  O4  1  0.57380758  0.88571577  0.88364443  1
  O  O5  1  0.11428423  0.68809081  0.88364443  1
  O  O6  1  0.57380758  0.68809081  0.11635557  1
  O  O7  1  0.11428423  0.42619242  0.11635557  1
  O  O8  1  0.24483542  0.17547208  0.25000000  1
  O  O9  1  0.93063766  0.75516458  0.25000000  1
  O  O10  1  0.82452792  0.06936234  0.25000000  1
  O  O11  1  0.82452792  0.75516458  0.75000000  1
  O  O12  1  0.57380758  0.68809081  0.38364443  1
  O  O13  1  0.24483542  0.06936234  0.75000000  1
  O  O14  1  0.93063766  0.17547208  0.75000000  1
  O  O15  1  0.11428423  0.42619242  0.38364443  1
  O  O16  1  0.31190919  0.88571577  0.11635557  1
  O  O17  1  0.31190919  0.42619242  0.61635557  1
loop_
_geom_bond_atom_site_label_1
_geom_bond_atom_site_label_2
_geom_bond_distance
_geom_bond_site_symmetry_2
Cs0 O1 3.072200 1_545
Cs0 O2 3.072200 1_545
Cs0 O12 3.072200 1_555
Cs0 O0 3.072200 1_655
Cs0 O17 3.072200 1_555
Cs0 O15 3.072200 1_655
Cs0 O11 3.562997 1_555
Cs0 O9 3.562997 1_555
Cs0 O13 3.562997 1_555
Cs0 O10 3.562997 1_555
Cs0 O8 3.562997 1_555
Cs0 O14 3.562997 1_555
Cs1 O16 3.072200 1_545
Cs1 O4 3.072200 1_544
Cs1 O6 3.072200 1_555
Cs1 O5 3.072200 1_654
Cs1 O3 3.072200 1_554
Cs1 O7 3.072200 1_655
Cs1 O11 3.562997 1_554
Cs1 O9 3.562997 1_555
Cs1 O13 3.562997 1_554
Cs1 O10 3.562997 1_555
Cs1 O8 3.562997 1_555
Cs1 O14 3.562997 1_554
O0 Si5 1.610450 1_555
O0 Ta0 1.973666 1_555
O1 Si0 1.610450 1_555
O1 Ta0 1.973666 1_555
O2 Si2 1.610450 1_555
O2 Ta0 1.973672 1_555
O3 Si1 1.610450 1_555
O3 Ta1 1.973677 1_556
O4 Si2 1.610450 1_555
O4 Ta1 1.973672 1_556
O5 Si5 1.610450 1_555
O5 Ta1 1.973666 1_556
O6 Si3 1.610450 1_555
O6 Ta1 1.973677 1_555
O7 Si4 1.610450 1_555
O7 Ta1 1.973672 1_555
O8 Si4 1.639780 1_555
O8 Si0 1.641008 1_545
O9 Si0 1.639780 1_655
O9 Si3 1.641008 1_555
O10 Si3 1.639780 1_545
O10 Si4 1.641008 1_655
O11 Si2 1.639780 1_555
O11 Si5 1.641008 1_655
O12 Si3 1.610450 1_555
O12 Ta0 1.973677 1_555
O13 Si5 1.639780 1_545
O13 Si1 1.641008 1_555
O14 Si1 1.639780 1_655
O14 Si2 1.641008 1_545
O15 Si4 1.610450 1_555
O15 Ta0 1.973672 1_555
O16 Si0 1.610450 1_555
O16 Ta1 1.973666 1_555
O17 Si1 1.610450 1_555
O17 Ta0 1.973677 1_555
