# generated using pymatgen
data_Ba14Sr(SnAs6)2
_symmetry_space_group_name_H-M   'P 1'
_cell_length_a   10.05006371
_cell_length_b   10.05006438
_cell_length_c   10.05006372
_cell_angle_alpha   88.30720565
_cell_angle_beta   88.30721045
_cell_angle_gamma   88.30720453
_symmetry_Int_Tables_number   1
_chemical_formula_structural   Ba14Sr(SnAs6)2
_chemical_formula_sum   'Ba14 Sr1 Sn2 As12'
_cell_volume   1013.79110803
_cell_formula_units_Z   1
loop_
 _symmetry_equiv_pos_site_id
 _symmetry_equiv_pos_as_xyz
  1  'x, y, z'
loop_
 _atom_site_type_symbol
 _atom_site_label
 _atom_site_symmetry_multiplicity
 _atom_site_fract_x
 _atom_site_fract_y
 _atom_site_fract_z
 _atom_site_occupancy
  Ba  Ba0  1  0.40888566  0.28354619  0.77613159  1
  Ba  Ba1  1  0.77613159  0.40888566  0.28354619  1
  Ba  Ba2  1  0.28354619  0.77613159  0.40888566  1
  Ba  Ba3  1  0.02228771  0.52553307  0.66107213  1
  Ba  Ba4  1  0.66107213  0.02228771  0.52553307  1
  Ba  Ba5  1  0.52553307  0.66107213  0.02228771  1
  Ba  Ba6  1  0.16624868  0.53519918  0.02945177  1
  Ba  Ba7  1  0.02945177  0.16624868  0.53519918  1
  Ba  Ba8  1  0.53519918  0.02945177  0.16624868  1
  Ba  Ba9  1  0.77600844  0.29359137  0.91992448  1
  Ba  Ba10  1  0.91992448  0.77600844  0.29359137  1
  Ba  Ba11  1  0.29359137  0.91992448  0.77600844  1
  Ba  Ba12  1  0.16502829  0.16502829  0.16502829  1
  Ba  Ba13  1  0.39568725  0.39568725  0.39568725  1
  Sr  Sr0  1  0.94938834  0.94938834  0.94938834  1
  Sn  Sn0  1  0.76326712  0.76326712  0.76326712  1
  Sn  Sn1  1  0.60104120  0.60104120  0.60104120  1
  As  As0  1  0.70492927  0.35400049  0.60014044  1
  As  As1  1  0.60014044  0.70492927  0.35400049  1
  As  As2  1  0.35400049  0.60014044  0.70492927  1
  As  As3  1  0.62550080  0.97347891  0.85392131  1
  As  As4  1  0.85392131  0.62550080  0.97347891  1
  As  As5  1  0.97347891  0.85392131  0.62550080  1
  As  As6  1  0.47220472  0.34420219  0.08567353  1
  As  As7  1  0.08567353  0.47220472  0.34420219  1
  As  As8  1  0.34420219  0.08567353  0.47220472  1
  As  As9  1  0.09184479  0.22919887  0.84734123  1
  As  As10  1  0.84734123  0.09184479  0.22919887  1
  As  As11  1  0.22919887  0.84734123  0.09184479  1
loop_
_geom_bond_atom_site_label_1
_geom_bond_atom_site_label_2
_geom_bond_distance
_geom_bond_site_symmetry_2
Ba3 Sn0 3.627591 1_455
Ba4 Sn0 3.627591 1_545
Ba5 Sn0 3.627591 1_554
Sn0 Sn1 2.906125 1_555
Sn0 Sr0 3.334187 1_555
As0 Sn1 2.664954 1_555
As0 Ba1 3.274941 1_555
As0 Ba9 3.347007 1_555
As0 Ba4 3.481996 1_555
As0 Ba0 3.495921 1_555
As0 Ba3 3.744625 1_655
As0 Ba7 3.769222 1_655
As0 Ba13 3.782347 1_555
As1 Sn1 2.664954 1_555
As1 Ba2 3.274941 1_555
As1 Ba10 3.347007 1_555
As1 Ba5 3.481996 1_555
As1 Ba1 3.495921 1_555
As1 Ba4 3.744625 1_565
As1 Ba8 3.769222 1_565
As1 Ba13 3.782348 1_555
As2 Sn1 2.664954 1_555
As2 Ba0 3.274941 1_555
As2 Ba11 3.347007 1_555
As2 Ba3 3.481996 1_555
As2 Ba2 3.495921 1_555
As2 Ba5 3.744625 1_556
As2 Ba6 3.769222 1_556
As2 Ba13 3.782348 1_555
As3 Sn0 2.660208 1_555
As3 Ba8 3.301314 1_566
As3 Ba4 3.332501 1_565
As3 Sr0 3.420381 1_555
As3 Ba11 3.509285 1_555
As3 Ba5 3.674559 1_556
As3 Ba9 3.681160 1_565
As3 Ba0 3.823219 1_565
As4 Sn0 2.660208 1_555
As4 Ba6 3.301314 1_656
As4 Ba5 3.332501 1_556
As4 Sr0 3.420381 1_555
As4 Ba9 3.509285 1_555
As4 Ba3 3.674559 1_655
As4 Ba10 3.681159 1_556
As4 Ba1 3.823219 1_556
As5 Sn0 2.660208 1_555
As5 Ba7 3.301315 1_665
As5 Ba3 3.332501 1_655
As5 Sr0 3.420381 1_555
As5 Ba10 3.509285 1_555
As5 Ba4 3.674558 1_565
As5 Ba11 3.681159 1_655
As5 Ba2 3.823219 1_655
As6 Ba13 3.239847 1_555
As6 Ba0 3.272046 1_554
As6 Ba5 3.285622 1_555
As6 Ba8 3.289897 1_555
As6 Ba9 3.466078 1_554
As6 Ba6 3.626098 1_555
As6 Ba12 3.675210 1_555
As6 Ba1 3.776201 1_555
As7 Ba13 3.239846 1_555
As7 Ba1 3.272046 1_455
As7 Ba3 3.285621 1_555
As7 Ba6 3.289897 1_555
As7 Ba10 3.466078 1_455
As7 Ba7 3.626099 1_555
As7 Ba12 3.675210 1_555
As7 Ba2 3.776201 1_555
As8 Ba13 3.239847 1_555
As8 Ba2 3.272046 1_545
As8 Ba4 3.285621 1_555
As8 Ba7 3.289897 1_555
As8 Ba11 3.466078 1_545
As8 Ba8 3.626099 1_555
As8 Ba12 3.675210 1_555
As8 Ba0 3.776201 1_555
As9 Ba9 3.285733 1_455
As9 Ba7 3.300216 1_555
As9 Ba0 3.302709 1_555
As9 Sr0 3.315159 1_445
As9 Ba12 3.337627 1_556
As9 Ba3 3.533778 1_555
As9 Ba6 3.730380 1_556
As9 Ba11 3.736239 1_545
As10 Ba10 3.285733 1_545
As10 Ba8 3.300216 1_555
As10 Ba1 3.302710 1_555
As10 Sr0 3.315159 1_544
As10 Ba12 3.337627 1_655
As10 Ba4 3.533778 1_555
As10 Ba7 3.730380 1_655
As10 Ba9 3.736239 1_554
As11 Ba11 3.285733 1_554
As11 Ba6 3.300216 1_555
As11 Ba2 3.302709 1_555
As11 Sr0 3.315158 1_454
As11 Ba12 3.337627 1_565
As11 Ba5 3.533778 1_555
As11 Ba8 3.730380 1_565
As11 Ba10 3.736239 1_455
