# generated using pymatgen
data_NaYCuPt3
_symmetry_space_group_name_H-M   'P 1'
_cell_length_a   5.15407376
_cell_length_b   5.15407504
_cell_length_c   5.15407467
_cell_angle_alpha   63.40043497
_cell_angle_beta   63.40041377
_cell_angle_gamma   63.40042460
_symmetry_Int_Tables_number   1
_chemical_formula_structural   NaYCuPt3
_chemical_formula_sum   'Na1 Y1 Cu1 Pt3'
_cell_volume   104.09942208
_cell_formula_units_Z   1
loop_
 _symmetry_equiv_pos_site_id
 _symmetry_equiv_pos_as_xyz
  1  'x, y, z'
loop_
 _atom_site_type_symbol
 _atom_site_label
 _atom_site_symmetry_multiplicity
 _atom_site_fract_x
 _atom_site_fract_y
 _atom_site_fract_z
 _atom_site_occupancy
  Na  Na0  1  0.25113398  0.25113398  0.25113398  1
  Y  Y0  1  0.00157951  0.00157951  0.00157951  1
  Cu  Cu0  1  0.62404321  0.62404321  0.62404321  1
  Pt  Pt0  1  0.62379540  0.62379540  0.12565151  1
  Pt  Pt1  1  0.62379540  0.12565151  0.62379540  1
  Pt  Pt2  1  0.12565151  0.62379540  0.62379540  1
loop_
_geom_bond_atom_site_label_1
_geom_bond_atom_site_label_2
_geom_bond_distance
_geom_bond_site_symmetry_2
Na0 Pt0 2.979177 1_555
Na0 Pt2 2.979178 1_555
Na0 Pt1 2.979178 1_555
Na0 Y0 3.067179 1_555
Na0 Pt1 3.124230 1_455
Na0 Pt1 3.124231 1_554
Na0 Pt0 3.124231 1_455
Na0 Pt0 3.124231 1_545
Na0 Pt2 3.124231 1_554
Na0 Pt2 3.124231 1_545
Na0 Y0 3.292473 1_655
Na0 Y0 3.292474 1_556
Na0 Y0 3.292474 1_565
Cu0 Pt2 2.569892 1_555
Cu0 Pt0 2.569892 1_555
Cu0 Pt1 2.569893 1_555
Cu0 Pt2 2.584183 1_655
Cu0 Pt0 2.584184 1_556
Cu0 Pt1 2.584184 1_565
Cu0 Na0 3.164918 1_655
Cu0 Na0 3.164919 1_556
Cu0 Na0 3.164919 1_565
Cu0 Y0 3.174156 1_566
Cu0 Y0 3.174156 1_665
Cu0 Y0 3.174157 1_656
Pt0 Pt2 2.698282 1_555
Pt0 Pt1 2.698283 1_555
Pt0 Pt2 2.718390 1_654
Pt0 Pt1 2.718391 1_564
Pt0 Y0 3.025989 1_665
Pt0 Y0 3.100702 1_565
Pt0 Y0 3.100702 1_655
Pt1 Pt2 2.698282 1_555
Pt1 Pt2 2.718390 1_645
Pt1 Y0 3.025990 1_656
Pt1 Y0 3.100701 1_556
Pt1 Y0 3.100702 1_655
Pt2 Y0 3.025989 1_566
Pt2 Y0 3.100703 1_565
Pt2 Y0 3.100703 1_556
