# generated using pymatgen
data_Ti2Nb2Co4Si7
_symmetry_space_group_name_H-M   'P 1'
_cell_length_a   9.15317327
_cell_length_b   9.15317952
_cell_length_c   9.15292461
_cell_angle_alpha   94.14307410
_cell_angle_beta   94.14287780
_cell_angle_gamma   148.80719385
_symmetry_Int_Tables_number   1
_chemical_formula_structural   Ti2Nb2Co4Si7
_chemical_formula_sum   'Ti4 Nb4 Co8 Si14'
_cell_volume   382.55309861
_cell_formula_units_Z   2
loop_
 _symmetry_equiv_pos_site_id
 _symmetry_equiv_pos_as_xyz
  1  'x, y, z'
loop_
 _atom_site_type_symbol
 _atom_site_label
 _atom_site_symmetry_multiplicity
 _atom_site_fract_x
 _atom_site_fract_y
 _atom_site_fract_z
 _atom_site_occupancy
  Ti  Ti0  1  0.50000494  0.69344835  0.19333481  1
  Ti  Ti1  1  0.49999506  0.30655165  0.80666519  1
  Ti  Ti2  1  0.30655056  0.49999627  0.80666318  1
  Ti  Ti3  1  0.69344944  0.50000373  0.19333682  1
  Nb  Nb0  1  0.13395148  0.13395079  0.26764451  1
  Nb  Nb1  1  0.86604852  0.86604921  0.73235549  1
  Nb  Nb2  1  0.86610042  0.13389983  0.99999949  1
  Nb  Nb3  1  0.13389958  0.86610017  0.00000051  1
  Co  Co0  1  0.39895063  0.89892660  0.79778001  1
  Co  Co1  1  0.10108082  0.60105851  0.20222043  1
  Co  Co2  1  0.10108296  0.89892412  0.49999805  1
  Co  Co3  1  0.39891033  0.60109807  0.50000189  1
  Co  Co4  1  0.60108967  0.39890193  0.49999811  1
  Co  Co5  1  0.89891704  0.10107588  0.50000195  1
  Co  Co6  1  0.89891918  0.39894149  0.79777957  1
  Co  Co7  1  0.60104937  0.10107340  0.20221999  1
  Si  Si0  1  0.29199968  0.29199973  0.58413810  1
  Si  Si1  1  0.70800032  0.70800027  0.41586190  1
  Si  Si2  1  0.70796736  0.29203131  0.99999968  1
  Si  Si3  1  0.29203264  0.70796869  0.00000032  1
  Si  Si4  1  0.00001586  0.29938721  0.29938825  1
  Si  Si5  1  0.99998414  0.70061279  0.70061175  1
  Si  Si6  1  0.70061436  0.99998660  0.70061116  1
  Si  Si7  1  0.29938564  0.00001340  0.29938884  1
  Si  Si8  1  0.49997775  0.90528672  0.40532247  1
  Si  Si9  1  0.50002225  0.09471328  0.59467753  1
  Si  Si10  1  0.09471651  0.50002543  0.59467794  1
  Si  Si11  1  0.90528349  0.49997457  0.40532206  1
  Si  Si12  1  0.74753409  0.74753416  0.99997624  1
  Si  Si13  1  0.25246591  0.25246584  0.00002376  1
loop_
_geom_bond_atom_site_label_1
_geom_bond_atom_site_label_2
_geom_bond_distance
_geom_bond_site_symmetry_2
Nb0 Si7 2.654102 1_555
Nb0 Si4 2.654105 1_555
Nb0 Si13 2.666129 1_555
Nb0 Si12 2.667446 1_444
Nb0 Si1 2.786260 1_555
Nb0 Si1 2.786405 1_445
Nb0 Si0 2.790298 1_555
Nb1 Si6 2.654102 1_555
Nb1 Si5 2.654105 1_555
Nb1 Si12 2.666129 1_555
Nb1 Si13 2.667446 1_666
Nb1 Si0 2.786260 1_555
Nb1 Si0 2.786405 1_665
Nb1 Si1 2.790298 1_555
Nb2 Si6 2.654130 1_545
Nb2 Si4 2.654132 1_656
Nb2 Si13 2.667962 1_656
Nb2 Si12 2.667965 1_545
Nb2 Si3 2.785987 1_546
Nb2 Si3 2.785991 1_656
Nb2 Si2 2.788236 1_555
Nb3 Si7 2.654130 1_565
Nb3 Si5 2.654132 1_454
Nb3 Si12 2.667962 1_454
Nb3 Si13 2.667965 1_565
Nb3 Si2 2.785987 1_564
Nb3 Si2 2.785991 1_454
Nb3 Si3 2.788236 1_555
Co0 Si3 2.289399 1_556
Co0 Si2 2.289582 1_565
Co0 Si6 2.318337 1_555
Co0 Si5 2.319100 1_455
Co0 Si9 2.327366 1_565
Co0 Si10 2.327609 1_555
Co0 Co6 2.460877 1_565
Co0 Co6 2.460957 1_455
Co0 Ti1 2.970582 1_565
Co0 Ti2 2.970605 1_555
Co0 Nb2 2.980342 1_565
Co0 Nb3 2.980594 1_556
Co1 Si3 2.289381 1_555
Co1 Si2 2.289609 1_454
Co1 Si4 2.318371 1_555
Co1 Si7 2.319056 1_565
Co1 Si11 2.327381 1_455
Co1 Si8 2.327602 1_555
Co1 Co7 2.460877 1_565
Co1 Co7 2.460957 1_455
Co1 Ti3 2.970565 1_455
Co1 Ti0 2.970620 1_555
Co1 Nb2 2.980373 1_454
Co1 Nb3 2.980569 1_555
Co2 Si0 2.289140 1_565
Co2 Si1 2.289152 1_455
Co2 Si7 2.318599 1_565
Co2 Si5 2.318660 1_455
Co2 Si9 2.327897 1_565
Co2 Si11 2.327917 1_455
Co2 Co4 2.460879 1_565
Co2 Co4 2.460955 1_455
Co2 Ti3 2.971511 1_455
Co2 Ti1 2.971538 1_565
Co2 Nb0 2.981193 1_565
Co2 Nb1 2.981237 1_455
Co3 Si1 2.289578 1_555
Co3 Si0 2.289588 1_555
Co3 Si6 2.318786 1_555
Co3 Si4 2.318825 1_555
Co3 Si10 2.327407 1_555
Co3 Si8 2.327413 1_555
Co3 Co5 2.460879 1_565
Co3 Co5 2.460955 1_455
Co3 Ti2 2.971392 1_555
Co3 Ti0 2.971427 1_555
Co3 Nb1 2.981095 1_555
Co3 Nb0 2.981137 1_555
Co4 Si0 2.289578 1_555
Co4 Si1 2.289588 1_555
Co4 Si7 2.318786 1_555
Co4 Si5 2.318825 1_555
Co4 Si11 2.327407 1_555
Co4 Si9 2.327413 1_555
Co4 Ti3 2.971392 1_555
Co4 Ti1 2.971427 1_555
Co4 Nb0 2.981095 1_555
Co4 Nb1 2.981137 1_555
Co5 Si1 2.289140 1_545
Co5 Si0 2.289152 1_655
Co5 Si6 2.318599 1_545
Co5 Si4 2.318660 1_655
Co5 Si8 2.327897 1_545
Co5 Si10 2.327917 1_655
Co5 Ti2 2.971511 1_655
Co5 Ti0 2.971538 1_545
Co5 Nb1 2.981193 1_545
Co5 Nb0 2.981237 1_655
Co6 Si2 2.289381 1_555
Co6 Si3 2.289609 1_656
Co6 Si5 2.318371 1_555
Co6 Si6 2.319056 1_545
Co6 Si10 2.327381 1_655
Co6 Si9 2.327602 1_555
Co6 Ti2 2.970565 1_655
Co6 Ti1 2.970620 1_555
Co6 Nb3 2.980373 1_656
Co6 Nb2 2.980569 1_555
Co7 Si2 2.289399 1_554
Co7 Si3 2.289582 1_545
Co7 Si7 2.318337 1_555
Co7 Si4 2.319100 1_655
Co7 Si8 2.327366 1_545
Co7 Si11 2.327609 1_555
Co7 Ti0 2.970582 1_545
Co7 Ti3 2.970605 1_555
Co7 Nb3 2.980342 1_545
Co7 Nb2 2.980594 1_554
Si0 Ti2 2.599495 1_555
Si0 Ti1 2.599499 1_555
Si1 Ti3 2.599495 1_555
Si1 Ti0 2.599499 1_555
Si2 Ti3 2.598630 1_556
Si2 Ti1 2.598634 1_555
Si3 Ti2 2.598630 1_554
Si3 Ti0 2.598634 1_555
Si4 Ti0 2.793197 1_445
Si4 Ti0 2.793379 1_555
Si5 Ti1 2.793197 1_665
Si5 Ti1 2.793379 1_555
Si6 Ti2 2.793182 1_665
Si6 Ti2 2.793379 1_555
Si7 Ti3 2.793182 1_445
Si7 Ti3 2.793379 1_555
Si8 Si9 2.361049 1_565
Si8 Ti0 2.642303 1_555
Si9 Ti1 2.642303 1_555
Si10 Si11 2.361058 1_455
Si10 Ti2 2.642277 1_555
Si11 Ti3 2.642277 1_555
Si12 Si13 2.436761 1_556
Si12 Si13 2.485074 1_666
Si12 Ti0 2.701398 1_556
Si12 Ti3 2.701430 1_556
Si12 Ti1 2.701647 1_555
Si12 Ti2 2.701670 1_555
Si13 Ti1 2.701398 1_554
Si13 Ti2 2.701430 1_554
Si13 Ti0 2.701647 1_555
Si13 Ti3 2.701670 1_555
