# generated using pymatgen
data_Cs2ZrCd3As4
_symmetry_space_group_name_H-M   'P 1'
_cell_length_a   8.29638607
_cell_length_b   8.29638647
_cell_length_c   6.34603354
_cell_angle_alpha   90.00000000
_cell_angle_beta   90.00000000
_cell_angle_gamma   135.00237777
_symmetry_Int_Tables_number   1
_chemical_formula_structural   Cs2ZrCd3As4
_chemical_formula_sum   'Cs2 Zr1 Cd3 As4'
_cell_volume   308.84976094
_cell_formula_units_Z   1
loop_
 _symmetry_equiv_pos_site_id
 _symmetry_equiv_pos_as_xyz
  1  'x, y, z'
loop_
 _atom_site_type_symbol
 _atom_site_label
 _atom_site_symmetry_multiplicity
 _atom_site_fract_x
 _atom_site_fract_y
 _atom_site_fract_z
 _atom_site_occupancy
  Cs  Cs0  1  0.50000000  0.00000000  0.26147542  1
  Cs  Cs1  1  0.00000000  0.50000000  0.73852458  1
  Zr  Zr0  1  0.00000000  0.00000000  0.00000000  1
  Cd  Cd0  1  0.50000000  0.50000000  0.50000000  1
  Cd  Cd1  1  0.50000000  0.50000000  0.00000000  1
  Cd  Cd2  1  0.00000000  0.00000000  0.50000000  1
  As  As0  1  0.66019179  0.86402098  0.76299204  1
  As  As1  1  0.13597902  0.33980821  0.23700796  1
  As  As2  1  0.86402098  0.66019179  0.23700796  1
  As  As3  1  0.33980821  0.13597902  0.76299204  1
loop_
_geom_bond_atom_site_label_1
_geom_bond_atom_site_label_2
_geom_bond_distance
_geom_bond_site_symmetry_2
As0 Zr0 2.642856 1_666
As0 Cd1 2.733636 1_556
As0 Cd2 2.740056 1_665
As0 Cd0 2.827717 1_555
As0 Cs1 3.843740 1_665
As0 Cs0 3.894411 1_566
As0 Cs0 3.910063 1_565
As0 Cs1 3.968688 1_555
As1 Zr0 2.642857 1_555
As1 Cd1 2.733636 1_555
As1 Cd2 2.740056 1_555
As1 Cd0 2.827717 1_555
As1 Cs0 3.843740 1_455
As1 Cs1 3.894411 1_554
As1 Cs1 3.910063 1_555
As1 Cs0 3.968689 1_565
As2 Zr0 2.642857 1_665
As2 Cd1 2.733636 1_555
As2 Cd2 2.740056 1_665
As2 Cd0 2.827717 1_555
As2 Cs0 3.843740 1_665
As2 Cs1 3.894411 1_654
As2 Cs1 3.910063 1_655
As2 Cs0 3.968689 1_555
As3 Zr0 2.642856 1_556
As3 Cd1 2.733636 1_556
As3 Cd2 2.740056 1_555
As3 Cd0 2.827717 1_555
As3 Cs1 3.843740 1_545
As3 Cs0 3.894411 1_556
As3 Cs0 3.910063 1_555
As3 Cs1 3.968688 1_655
