# generated using pymatgen
data_K2SiSe4
_symmetry_space_group_name_H-M   'P 1'
_cell_length_a   8.09172109
_cell_length_b   8.09172112
_cell_length_c   9.59241312
_cell_angle_alpha   62.28565805
_cell_angle_beta   62.28565800
_cell_angle_gamma   54.36236624
_symmetry_Int_Tables_number   1
_chemical_formula_structural   K2SiSe4
_chemical_formula_sum   'K4 Si2 Se8'
_cell_volume   435.13290664
_cell_formula_units_Z   2
loop_
 _symmetry_equiv_pos_site_id
 _symmetry_equiv_pos_as_xyz
  1  'x, y, z'
loop_
 _atom_site_type_symbol
 _atom_site_label
 _atom_site_symmetry_multiplicity
 _atom_site_fract_x
 _atom_site_fract_y
 _atom_site_fract_z
 _atom_site_occupancy
  K  K0  1  0.15577551  0.15577551  0.70560205  1
  K  K1  1  0.84422449  0.84422449  0.29439795  1
  K  K2  1  0.40171424  0.40171424  0.85927059  1
  K  K3  1  0.59828576  0.59828576  0.14072941  1
  Si  Si0  1  0.16119294  0.16119294  0.28460254  1
  Si  Si1  1  0.83880706  0.83880706  0.71539746  1
  Se  Se0  1  0.84548180  0.34416254  0.45538167  1
  Se  Se1  1  0.34416254  0.84548180  0.45538167  1
  Se  Se2  1  0.15451820  0.65583746  0.54461833  1
  Se  Se3  1  0.65583746  0.15451820  0.54461833  1
  Se  Se4  1  0.12332615  0.12332615  0.09003390  1
  Se  Se5  1  0.87667385  0.87667385  0.90996610  1
  Se  Se6  1  0.32686708  0.32686708  0.24827884  1
  Se  Se7  1  0.67313292  0.67313292  0.75172116  1
loop_
_geom_bond_atom_site_label_1
_geom_bond_atom_site_label_2
_geom_bond_distance
_geom_bond_site_symmetry_2
K0 Se5 3.428055 1_445
K0 Se4 3.466355 1_556
K0 Se0 3.482960 1_455
K0 Se1 3.482960 1_545
K0 Se3 3.593400 1_555
K0 Se2 3.593400 1_555
K0 Se6 3.743431 1_555
K0 Se7 3.746559 1_545
K0 Se7 3.746559 1_455
K1 Se4 3.428055 1_665
K1 Se5 3.466355 1_554
K1 Se2 3.482960 1_655
K1 Se3 3.482960 1_565
K1 Se1 3.593400 1_555
K1 Se0 3.593400 1_555
K1 Se7 3.743431 1_555
K1 Se6 3.746559 1_565
K1 Se6 3.746559 1_655
K2 Se6 3.298670 1_556
K2 Se4 3.418476 1_556
K2 Se7 3.480985 1_555
K2 Se2 3.519786 1_555
K2 Se3 3.519786 1_555
K2 Se5 3.721035 1_455
K2 Se5 3.721035 1_545
K3 Se7 3.298670 1_554
K3 Se5 3.418476 1_554
K3 Se6 3.480985 1_555
K3 Se0 3.519786 1_555
K3 Se1 3.519786 1_555
K3 Se4 3.721035 1_655
K3 Se4 3.721035 1_565
Se0 Si0 2.314673 1_655
Se1 Si0 2.314673 1_565
Se2 Si1 2.314673 1_455
Se3 Si1 2.314673 1_545
Se4 Si0 2.200998 1_555
Se5 Si1 2.200998 1_555
Se6 Si0 2.222860 1_555
Se7 Si1 2.222860 1_555
