# generated using pymatgen
data_Lu3ScMn4O14
_symmetry_space_group_name_H-M   'P 1'
_cell_length_a   6.87584507
_cell_length_b   6.87585677
_cell_length_c   6.85812359
_cell_angle_alpha   59.91438823
_cell_angle_beta   59.91432979
_cell_angle_gamma   59.99997050
_symmetry_Int_Tables_number   1
_chemical_formula_structural   Lu3ScMn4O14
_chemical_formula_sum   'Lu3 Sc1 Mn4 O14'
_cell_volume   228.97060093
_cell_formula_units_Z   1
loop_
 _symmetry_equiv_pos_site_id
 _symmetry_equiv_pos_as_xyz
  1  'x, y, z'
loop_
 _atom_site_type_symbol
 _atom_site_label
 _atom_site_symmetry_multiplicity
 _atom_site_fract_x
 _atom_site_fract_y
 _atom_site_fract_z
 _atom_site_occupancy
  Lu  Lu0  1  0.49999988  0.49999842  0.49999909  1
  Lu  Lu1  1  0.99999604  0.49999984  0.50000095  1
  Lu  Lu2  1  0.49998716  0.99999916  0.50000781  1
  Sc  Sc0  1  0.49999422  0.50000551  0.00000287  1
  Mn  Mn0  1  0.99999796  0.00000450  0.00000135  1
  Mn  Mn1  1  0.00000506  0.99999550  0.49999793  1
  Mn  Mn2  1  0.50000321  0.00000392  0.99999688  1
  Mn  Mn3  1  0.00000524  0.49999632  0.99999802  1
  O  O0  1  0.91758987  0.91758953  0.33247470  1
  O  O1  1  0.66866692  0.66866431  0.07934014  1
  O  O2  1  0.33133582  0.91667155  0.92065878  1
  O  O3  1  0.91666193  0.33133613  0.92066590  1
  O  O4  1  0.33234427  0.91758989  0.33247275  1
  O  O5  1  0.91759849  0.33234047  0.33246885  1
  O  O6  1  0.08240689  0.08240555  0.66752807  1
  O  O7  1  0.08333547  0.66866173  0.07934038  1
  O  O8  1  0.37851092  0.37851425  0.36445859  1
  O  O9  1  0.62148283  0.62148366  0.63554693  1
  O  O10  1  0.33134059  0.33133871  0.92065271  1
  O  O11  1  0.66866240  0.08333729  0.07933950  1
  O  O12  1  0.08241124  0.66765445  0.66752103  1
  O  O13  1  0.66766157  0.08240630  0.66752477  1
loop_
_geom_bond_atom_site_label_1
_geom_bond_atom_site_label_2
_geom_bond_distance
_geom_bond_site_symmetry_2
Lu0 O8 2.124698 1_555
Lu0 O9 2.124712 1_555
Lu0 O12 2.367201 1_555
Lu0 O4 2.367223 1_555
Lu0 O13 2.367231 1_555
Lu0 O5 2.367259 1_555
Lu0 O10 2.376713 1_555
Lu0 O1 2.376751 1_555
Lu1 O9 2.124691 1_555
Lu1 O8 2.124700 1_655
Lu1 O12 2.367210 1_655
Lu1 O0 2.367216 1_555
Lu1 O5 2.367220 1_555
Lu1 O6 2.367239 1_655
Lu1 O7 2.376750 1_655
Lu1 O3 2.376780 1_555
Lu2 O8 2.124707 1_565
Lu2 O9 2.124708 1_555
Lu2 O6 2.367155 1_565
Lu2 O4 2.367199 1_555
Lu2 O13 2.367267 1_565
Lu2 O0 2.367283 1_555
Lu2 O2 2.376704 1_555
Lu2 O11 2.376796 1_565
Mn0 O0 1.889857 1_545
Mn0 O6 1.889870 1_654
Mn0 O3 1.891804 1_554
Mn0 O11 1.891825 1_555
Mn0 O2 1.891834 1_644
Mn0 O7 1.891868 1_645
Mn1 O4 1.894332 1_555
Mn1 O12 1.894344 1_555
Mn1 O13 1.894356 1_465
Mn1 O6 1.894357 1_565
Mn1 O0 1.894362 1_455
Mn1 O5 1.894371 1_465
Mn2 O13 1.889857 1_555
Mn2 O4 1.889877 1_546
Mn2 O11 1.891820 1_556
Mn2 O10 1.891822 1_555
Mn2 O2 1.891843 1_545
Mn2 O1 1.891848 1_546
Mn3 O5 1.889849 1_456
Mn3 O12 1.889883 1_555
Mn3 O10 1.891816 1_555
Mn3 O3 1.891825 1_455
Mn3 O7 1.891843 1_556
Mn3 O1 1.891843 1_456
O1 Sc0 2.365627 1_555
O2 Sc0 2.365605 1_556
O3 Sc0 2.365616 1_556
O7 Sc0 2.365564 1_555
O8 Sc0 2.038173 1_555
O9 Sc0 2.038174 1_556
O10 Sc0 2.365626 1_556
O11 Sc0 2.365625 1_555
