# generated using pymatgen
data_Sr2BeCrN4
_symmetry_space_group_name_H-M   'P 1'
_cell_length_a   5.94118710
_cell_length_b   7.25088006
_cell_length_c   5.53062845
_cell_angle_alpha   90.00000000
_cell_angle_beta   115.36158632
_cell_angle_gamma   90.00000000
_symmetry_Int_Tables_number   1
_chemical_formula_structural   Sr2BeCrN4
_chemical_formula_sum   'Sr4 Be2 Cr2 N8'
_cell_volume   215.29083943
_cell_formula_units_Z   2
loop_
 _symmetry_equiv_pos_site_id
 _symmetry_equiv_pos_as_xyz
  1  'x, y, z'
loop_
 _atom_site_type_symbol
 _atom_site_label
 _atom_site_symmetry_multiplicity
 _atom_site_fract_x
 _atom_site_fract_y
 _atom_site_fract_z
 _atom_site_occupancy
  Sr  Sr0  1  0.35237099  0.93887530  0.67566527  1
  Sr  Sr1  1  0.64762901  0.43887530  0.82433473  1
  Sr  Sr2  1  0.69812097  0.06399301  0.33871206  1
  Sr  Sr3  1  0.30187903  0.56399301  0.16128794  1
  Be  Be0  1  0.10188554  0.35913331  0.56024660  1
  Be  Be1  1  0.89811446  0.85913331  0.93975340  1
  Cr  Cr0  1  0.88969496  0.63322032  0.44244845  1
  Cr  Cr1  1  0.11030504  0.13322032  0.05755155  1
  N  N0  1  0.22762387  0.91032535  0.09732782  1
  N  N1  1  0.77237613  0.41032535  0.40267218  1
  N  N2  1  0.79214816  0.09526716  0.90149513  1
  N  N3  1  0.20785184  0.59526716  0.59850487  1
  N  N4  1  0.21956004  0.26095337  0.86762966  1
  N  N5  1  0.78043996  0.76095337  0.63237034  1
  N  N6  1  0.79603678  0.73823318  0.13505744  1
  N  N7  1  0.20396322  0.23823318  0.36494256  1
loop_
_geom_bond_atom_site_label_1
_geom_bond_atom_site_label_2
_geom_bond_distance
_geom_bond_site_symmetry_2
Be0 N7 1.692391 1_555
Be0 N4 1.693362 1_555
Be0 N3 1.805149 1_555
Be0 N1 1.807825 1_455
Be1 N6 1.692391 1_556
Be1 N5 1.693362 1_555
Be1 N2 1.805149 1_565
Be1 N0 1.807825 1_656
Cr0 N5 1.722363 1_555
Cr0 N6 1.723150 1_555
Cr0 N3 1.730907 1_655
Cr0 N1 1.736352 1_555
Cr1 N4 1.722363 1_554
Cr1 N7 1.723150 1_555
Cr1 N2 1.730907 1_454
Cr1 N0 1.736352 1_545
N0 Sr3 2.547993 1_555
N0 Sr0 2.740674 1_554
N0 Sr2 2.764175 1_565
N0 Sr0 2.965164 1_555
N1 Sr2 2.547993 1_555
N1 Sr1 2.740674 1_555
N1 Sr3 2.764175 1_555
N1 Sr1 2.965164 1_554
N2 Sr1 2.610139 1_555
N2 Sr0 2.622406 1_545
N2 Sr2 2.714373 1_556
N2 Sr2 2.926071 1_555
N3 Sr0 2.610139 1_555
N3 Sr1 2.622406 1_555
N3 Sr3 2.714373 1_555
N3 Sr3 2.926071 1_556
N4 Sr3 2.650402 1_556
N4 Sr0 2.814477 1_545
N4 Sr1 2.951510 1_555
N5 Sr2 2.650402 1_565
N5 Sr1 2.814477 1_555
N5 Sr0 2.951510 1_555
N6 Sr1 2.672854 1_554
N6 Sr2 2.783455 1_565
N6 Sr0 3.127726 1_554
N7 Sr0 2.672854 1_545
N7 Sr3 2.783455 1_555
N7 Sr1 3.127726 1_555
