# generated using pymatgen
data_Ca2H12Ir2Pb
_symmetry_space_group_name_H-M   'P 1'
_cell_length_a   4.99481953
_cell_length_b   4.99482083
_cell_length_c   8.23532179
_cell_angle_alpha   90.00000000
_cell_angle_beta   90.00000000
_cell_angle_gamma   119.99999141
_symmetry_Int_Tables_number   1
_chemical_formula_structural   Ca2H12Ir2Pb
_chemical_formula_sum   'Ca2 H12 Ir2 Pb1'
_cell_volume   177.93072890
_cell_formula_units_Z   1
loop_
 _symmetry_equiv_pos_site_id
 _symmetry_equiv_pos_as_xyz
  1  'x, y, z'
loop_
 _atom_site_type_symbol
 _atom_site_label
 _atom_site_symmetry_multiplicity
 _atom_site_fract_x
 _atom_site_fract_y
 _atom_site_fract_z
 _atom_site_occupancy
  Ca  Ca0  1  0.66666700  0.33333300  0.36298100  1
  Ca  Ca1  1  0.33333300  0.66666700  0.63701900  1
  H  H0  1  0.17496065  0.82503935  0.37210789  1
  H  H1  1  0.65007870  0.82503935  0.37210789  1
  H  H2  1  0.17496065  0.34992130  0.37210789  1
  H  H3  1  0.82503935  0.17496065  0.62789211  1
  H  H4  1  0.34992130  0.17496065  0.62789211  1
  H  H5  1  0.82503935  0.65007870  0.62789211  1
  H  H6  1  0.51154890  0.02309579  0.86420930  1
  H  H7  1  0.51154890  0.48845110  0.86420930  1
  H  H8  1  0.97690421  0.48845110  0.86420930  1
  H  H9  1  0.48845110  0.97690421  0.13579070  1
  H  H10  1  0.48845110  0.51154890  0.13579070  1
  H  H11  1  0.02309579  0.51154890  0.13579070  1
  Ir  Ir0  1  0.66666700  0.33333300  0.74428492  1
  Ir  Ir1  1  0.33333300  0.66666700  0.25571508  1
  Pb  Pb0  1  0.00000000  0.00000000  0.00000000  1
loop_
_geom_bond_atom_site_label_1
_geom_bond_atom_site_label_2
_geom_bond_distance
_geom_bond_site_symmetry_2
Ca0 H11 2.424393 1_655
Ca0 H9 2.424393 1_545
Ca0 H10 2.424401 1_555
Ca0 H2 2.499568 1_655
Ca0 H1 2.499569 1_545
Ca0 H0 2.499571 1_655
Ca0 H0 2.499571 1_545
Ca0 H2 2.499573 1_555
Ca0 H1 2.499574 1_555
Ca0 H3 2.576187 1_555
Ca0 H4 2.576190 1_555
Ca0 H5 2.576190 1_555
Ca1 H8 2.424393 1_455
Ca1 H6 2.424393 1_565
Ca1 H7 2.424401 1_555
Ca1 H5 2.499568 1_455
Ca1 H4 2.499569 1_565
Ca1 H3 2.499571 1_455
Ca1 H3 2.499571 1_565
Ca1 H5 2.499573 1_555
Ca1 H4 2.499574 1_555
Ca1 H0 2.576187 1_555
Ca1 H1 2.576190 1_555
Ca1 H2 2.576190 1_555
H0 Ir1 1.672131 1_555
H1 Ir1 1.672135 1_555
H2 Ir1 1.672135 1_555
H3 Ir0 1.672131 1_555
H4 Ir0 1.672135 1_555
H5 Ir0 1.672135 1_555
H6 Ir0 1.666218 1_555
H7 Ir0 1.666214 1_555
H8 Ir0 1.666218 1_555
H9 Ir1 1.666218 1_555
H10 Ir1 1.666214 1_555
H11 Ir1 1.666218 1_555
