# generated using pymatgen
data_Cs2Zn(PS3)2
_symmetry_space_group_name_H-M   'P 1'
_cell_length_a   12.83242656
_cell_length_b   6.07526611
_cell_length_c   9.55190708
_cell_angle_alpha   54.61919140
_cell_angle_beta   90.00000000
_cell_angle_gamma   90.00000000
_symmetry_Int_Tables_number   1
_chemical_formula_structural   Cs2Zn(PS3)2
_chemical_formula_sum   'Cs4 Zn2 P4 S12'
_cell_volume   607.14612457
_cell_formula_units_Z   2
loop_
 _symmetry_equiv_pos_site_id
 _symmetry_equiv_pos_as_xyz
  1  'x, y, z'
loop_
 _atom_site_type_symbol
 _atom_site_label
 _atom_site_symmetry_multiplicity
 _atom_site_fract_x
 _atom_site_fract_y
 _atom_site_fract_z
 _atom_site_occupancy
  Cs  Cs0  1  0.67181542  0.28935085  0.97187218  1
  Cs  Cs1  1  0.32818458  0.71064915  0.02812782  1
  Cs  Cs2  1  0.82818458  0.28935085  0.47187218  1
  Cs  Cs3  1  0.17181542  0.71064915  0.52812782  1
  Zn  Zn0  1  0.00000000  0.00000000  0.00000000  1
  Zn  Zn1  1  0.50000000  0.00000000  0.50000000  1
  P  P0  1  0.96098820  0.66580635  0.88008252  1
  P  P1  1  0.03901180  0.33419365  0.11991748  1
  P  P2  1  0.53901180  0.66580635  0.38008252  1
  P  P3  1  0.46098820  0.33419365  0.61991748  1
  S  S0  1  0.42340355  0.50036421  0.74238964  1
  S  S1  1  0.92340355  0.49963579  0.75761036  1
  S  S2  1  0.06766783  0.96730845  0.76648897  1
  S  S3  1  0.43233217  0.96730845  0.26648897  1
  S  S4  1  0.56766783  0.03269155  0.73351103  1
  S  S5  1  0.65781410  0.78403240  0.46165985  1
  S  S6  1  0.15781410  0.21596760  0.03834015  1
  S  S7  1  0.84218590  0.78403240  0.96165985  1
  S  S8  1  0.57659645  0.49963579  0.25761036  1
  S  S9  1  0.07659645  0.50036421  0.24238964  1
  S  S10  1  0.93233217  0.03269155  0.23351103  1
  S  S11  1  0.34218590  0.21596760  0.53834015  1
loop_
_geom_bond_atom_site_label_1
_geom_bond_atom_site_label_2
_geom_bond_distance
_geom_bond_site_symmetry_2
Cs0 S1 3.635390 1_555
Cs0 S0 3.654557 1_555
Cs0 S7 3.671751 1_555
Cs0 S4 3.675929 1_555
Cs0 S7 3.815838 1_545
Cs0 S8 3.822598 1_556
Cs0 S5 3.835672 1_546
Cs0 S3 3.849115 1_546
Cs0 S10 3.916698 1_556
Cs0 P2 3.918347 1_546
Cs0 S4 3.931591 1_565
Cs0 S5 3.981763 1_555
Cs0 S8 4.098380 1_546
Cs1 S9 3.635390 1_555
Cs1 S8 3.654557 1_555
Cs1 S6 3.671751 1_555
Cs1 S3 3.675929 1_555
Cs1 S6 3.815838 1_565
Cs1 S0 3.822598 1_554
Cs1 S11 3.835672 1_564
Cs1 S4 3.849115 1_564
Cs1 S2 3.916698 1_554
Cs1 P3 3.918347 1_564
Cs1 S3 3.931591 1_545
Cs1 S11 3.981763 1_555
Cs1 S0 4.098380 1_564
Cs2 S8 3.635390 1_555
Cs2 S9 3.654557 1_655
Cs2 S5 3.671751 1_555
Cs2 S10 3.675929 1_555
Cs2 S5 3.815838 1_545
Cs2 S1 3.822598 1_555
Cs2 S7 3.835672 1_545
Cs2 S2 3.849115 1_645
Cs2 S4 3.916698 1_555
Cs2 P0 3.918347 1_545
Cs2 S10 3.931591 1_565
Cs2 S7 3.981763 1_554
Cs2 S1 4.098380 1_545
Cs3 S0 3.635390 1_555
Cs3 S1 3.654557 1_455
Cs3 S11 3.671751 1_555
Cs3 S2 3.675929 1_555
Cs3 S11 3.815838 1_565
Cs3 S9 3.822598 1_555
Cs3 S6 3.835672 1_565
Cs3 S10 3.849115 1_465
Cs3 S3 3.916698 1_555
Cs3 P1 3.918347 1_565
Cs3 S2 3.931591 1_545
Cs3 S6 3.981763 1_556
Cs3 S9 4.098380 1_565
P0 S1 1.996974 1_555
P0 S7 2.023698 1_555
P0 S2 2.026074 1_655
P1 S9 1.996974 1_555
P1 S6 2.023698 1_555
P1 S10 2.026074 1_455
P2 S8 1.996974 1_555
P2 S5 2.023698 1_555
P2 S3 2.026074 1_555
P3 S0 1.996974 1_555
P3 S11 2.023698 1_555
P3 S4 2.026074 1_555
S0 Zn1 2.720674 1_565
S1 Zn0 2.720674 1_656
S2 Zn0 2.506288 1_566
S3 Zn1 2.506288 1_565
S4 Zn1 2.506288 1_555
S5 Zn1 2.552105 1_565
S6 Zn0 2.552105 1_555
S7 Zn0 2.552105 1_666
S8 Zn1 2.720674 1_555
S9 Zn0 2.720674 1_565
S10 Zn0 2.506288 1_655
S11 Zn1 2.552105 1_555
