# generated using pymatgen
data_Hf4ZnSiH2
_symmetry_space_group_name_H-M   'P 1'
_cell_length_a   5.37839971
_cell_length_b   5.37839930
_cell_length_c   5.37839882
_cell_angle_alpha   104.43377381
_cell_angle_beta   104.43378308
_cell_angle_gamma   120.09785535
_symmetry_Int_Tables_number   1
_chemical_formula_structural   Hf4ZnSiH2
_chemical_formula_sum   'Hf4 Zn1 Si1 H2'
_cell_volume   116.62863198
_cell_formula_units_Z   1
loop_
 _symmetry_equiv_pos_site_id
 _symmetry_equiv_pos_as_xyz
  1  'x, y, z'
loop_
 _atom_site_type_symbol
 _atom_site_label
 _atom_site_symmetry_multiplicity
 _atom_site_fract_x
 _atom_site_fract_y
 _atom_site_fract_z
 _atom_site_occupancy
  Hf  Hf0  1  0.16186287  0.66186287  0.82372573  1
  Hf  Hf1  1  0.83813713  0.33813713  0.17627427  1
  Hf  Hf2  1  0.33813713  0.16186287  0.50000000  1
  Hf  Hf3  1  0.66186287  0.83813713  0.50000000  1
  Zn  Zn0  1  0.25000000  0.25000000  0.00000000  1
  Si  Si0  1  0.75000000  0.75000000  0.00000000  1
  H  H0  1  0.75000000  0.25000000  0.50000000  1
  H  H1  1  0.25000000  0.75000000  0.50000000  1
loop_
_geom_bond_atom_site_label_1
_geom_bond_atom_site_label_2
_geom_bond_distance
_geom_bond_site_symmetry_2
Hf0 Zn0 2.811866 1_556
Hf0 Zn0 2.811866 1_566
Hf0 Si0 2.811866 1_556
Hf0 Si0 2.811866 1_456
Hf1 Si0 2.811866 1_555
Hf1 Si0 2.811866 1_545
Hf1 Zn0 2.811866 1_555
Hf1 Zn0 2.811866 1_655
Hf2 Zn0 2.811866 1_555
Hf2 Si0 2.811866 1_445
Hf2 Si0 2.811866 1_556
Hf2 Zn0 2.811866 1_556
Hf3 Si0 2.811866 1_556
Hf3 Zn0 2.811866 1_666
Hf3 Zn0 2.811866 1_555
Hf3 Si0 2.811866 1_555
Si0 Zn0 2.685221 1_665
Si0 Zn0 2.685221 1_555
H0 Hf0 2.019526 1_655
H0 Hf1 2.019526 1_555
H0 Hf3 2.019526 1_545
H0 Hf2 2.019526 1_555
H1 Hf1 2.019526 1_455
H1 Hf0 2.019526 1_555
H1 Hf2 2.019526 1_565
H1 Hf3 2.019526 1_555
