# generated using pymatgen
data_Rb3Bi(AsSe2)6
_symmetry_space_group_name_H-M   'P 1'
_cell_length_a   9.93382189
_cell_length_b   9.93382199
_cell_length_c   8.16184025
_cell_angle_alpha   90.00000000
_cell_angle_beta   90.00000000
_cell_angle_gamma   119.99999723
_symmetry_Int_Tables_number   1
_chemical_formula_structural   Rb3Bi(AsSe2)6
_chemical_formula_sum   'Rb3 Bi1 As6 Se12'
_cell_volume   697.51166705
_cell_formula_units_Z   1
loop_
 _symmetry_equiv_pos_site_id
 _symmetry_equiv_pos_as_xyz
  1  'x, y, z'
loop_
 _atom_site_type_symbol
 _atom_site_label
 _atom_site_symmetry_multiplicity
 _atom_site_fract_x
 _atom_site_fract_y
 _atom_site_fract_z
 _atom_site_occupancy
  Rb  Rb0  1  0.00000000  0.00000000  0.00000000  1
  Rb  Rb1  1  0.33333300  0.66666700  0.84588959  1
  Rb  Rb2  1  0.66666700  0.33333300  0.15411041  1
  Bi  Bi0  1  0.00000000  0.00000000  0.50000000  1
  As  As0  1  0.29409371  0.83970734  0.38180841  1
  As  As1  1  0.16029266  0.45438537  0.38180841  1
  As  As2  1  0.54561463  0.70590629  0.38180841  1
  As  As3  1  0.70590629  0.16029266  0.61819159  1
  As  As4  1  0.83970734  0.54561463  0.61819159  1
  As  As5  1  0.45438537  0.29409371  0.61819159  1
  Se  Se0  1  0.26846951  0.05095539  0.29386104  1
  Se  Se1  1  0.94904461  0.21751512  0.29386104  1
  Se  Se2  1  0.78248488  0.73153049  0.29386104  1
  Se  Se3  1  0.73153049  0.94904461  0.70613896  1
  Se  Se4  1  0.05095539  0.78248488  0.70613896  1
  Se  Se5  1  0.21751512  0.26846951  0.70613896  1
  Se  Se6  1  0.52751883  0.90384617  0.22089576  1
  Se  Se7  1  0.09615383  0.62367166  0.22089576  1
  Se  Se8  1  0.37632834  0.47248117  0.22089576  1
  Se  Se9  1  0.47248117  0.09615383  0.77910424  1
  Se  Se10  1  0.90384617  0.37632834  0.77910424  1
  Se  Se11  1  0.62367166  0.52751883  0.77910424  1
loop_
_geom_bond_atom_site_label_1
_geom_bond_atom_site_label_2
_geom_bond_distance
_geom_bond_site_symmetry_2
Rb0 Se0 3.430936 1_555
Rb0 Se3 3.430936 1_444
Rb0 Se5 3.430939 1_554
Rb0 Se2 3.430939 1_445
Rb0 Se1 3.430943 1_455
Rb0 Se4 3.430943 1_544
Rb1 Se4 3.704122 1_555
Rb1 Se3 3.704136 1_555
Rb1 Se5 3.704140 1_555
Rb1 Se7 3.754388 1_556
Rb1 Se6 3.754392 1_556
Rb1 Se8 3.754400 1_556
Rb1 Se11 3.809589 1_555
Rb1 Se9 3.809589 1_565
Rb1 Se10 3.809589 1_455
Rb2 Se1 3.704122 1_555
Rb2 Se0 3.704136 1_555
Rb2 Se2 3.704140 1_555
Rb2 Se10 3.754388 1_554
Rb2 Se9 3.754392 1_554
Rb2 Se11 3.754400 1_554
Rb2 Se8 3.809589 1_555
Rb2 Se6 3.809589 1_545
Rb2 Se7 3.809589 1_655
Bi0 Se0 2.974810 1_555
Bi0 Se3 2.974810 1_445
Bi0 Se5 2.974812 1_555
Bi0 Se2 2.974812 1_445
Bi0 Se4 2.974818 1_545
Bi0 Se1 2.974818 1_455
As0 Se0 2.349025 1_565
As0 Se7 2.444787 1_555
As0 Se6 2.455659 1_555
As1 Se1 2.349014 1_455
As1 Se8 2.444787 1_555
As1 Se7 2.455659 1_555
As2 Se2 2.349006 1_555
As2 Se6 2.444787 1_555
As2 Se8 2.455659 1_555
As3 Se3 2.349025 1_545
As3 Se10 2.444787 1_555
As3 Se9 2.455659 1_555
As4 Se4 2.349014 1_655
As4 Se11 2.444787 1_555
As4 Se10 2.455659 1_555
As5 Se5 2.349006 1_555
As5 Se9 2.444787 1_555
As5 Se11 2.455659 1_555
