# generated using pymatgen
data_Sc6GaP5Ru6
_symmetry_space_group_name_H-M   'P 1'
_cell_length_a   7.52716331
_cell_length_b   7.52464137
_cell_length_c   7.52485998
_cell_angle_alpha   128.04305292
_cell_angle_beta   122.24226651
_cell_angle_gamma   81.38451467
_symmetry_Int_Tables_number   1
_chemical_formula_structural   Sc6GaP5Ru6
_chemical_formula_sum   'Sc6 Ga1 P5 Ru6'
_cell_volume   273.45767335
_cell_formula_units_Z   1
loop_
 _symmetry_equiv_pos_site_id
 _symmetry_equiv_pos_as_xyz
  1  'x, y, z'
loop_
 _atom_site_type_symbol
 _atom_site_label
 _atom_site_symmetry_multiplicity
 _atom_site_fract_x
 _atom_site_fract_y
 _atom_site_fract_z
 _atom_site_occupancy
  Sc  Sc0  1  0.45220688  0.65954112  0.70743112  1
  Sc  Sc1  1  0.53976488  0.25213931  0.21225256  1
  Sc  Sc2  1  0.74969208  0.84430186  0.59442225  1
  Sc  Sc3  1  0.25007758  0.83727580  0.08742880  1
  Sc  Sc4  1  0.04870782  0.25495475  0.70630874  1
  Sc  Sc5  1  0.95936954  0.67118993  0.21163846  1
  Ga  Ga0  1  0.25088363  0.24774341  0.49693544  1
  P  P0  1  0.74939413  0.25737244  0.00801393  1
  P  P1  1  0.33270533  0.58671198  0.25280922  1
  P  P2  1  0.66608497  0.92018713  0.25309641  1
  P  P3  1  0.16676178  0.92008695  0.75376479  1
  P  P4  1  0.83386337  0.58670374  0.75373331  1
  Ru  Ru0  1  0.51754552  0.50260402  0.02030952  1
  Ru  Ru1  1  0.98247824  0.50266802  0.48491580  1
  Ru  Ru2  1  0.10263990  0.25371464  0.10701072  1
  Ru  Ru3  1  0.85495109  0.00447975  0.10867000  1
  Ru  Ru4  1  0.39588676  0.00432324  0.64967885  1
  Ru  Ru5  1  0.64698751  0.25360090  0.65117807  1
loop_
_geom_bond_atom_site_label_1
_geom_bond_atom_site_label_2
_geom_bond_distance
_geom_bond_site_symmetry_2
Ga0 Ru2 2.551529 1_555
Ga0 Ru3 2.553604 1_455
Ga0 Ru5 2.553930 1_555
Ga0 Ru4 2.554311 1_555
Ga0 Ru0 2.574266 1_556
Ga0 Ru1 2.574341 1_455
Ga0 Sc0 2.683895 1_555
Ga0 Sc4 2.688721 1_555
Ga0 Sc3 2.700072 1_545
P0 Ru1 2.334875 1_555
P0 Ru0 2.335861 1_555
P0 Ru3 2.346793 1_555
P0 Ru5 2.347153 1_554
P0 Ru4 2.347563 1_554
P0 Ru2 2.348518 1_655
P0 Sc2 2.725742 1_544
P0 Sc1 2.744822 1_555
P0 Sc5 2.748047 1_555
P1 Ru2 2.523032 1_555
P1 Ru0 2.523075 1_555
P1 Ru4 2.526907 1_565
P1 Sc5 2.678739 1_455
P1 Sc3 2.684200 1_555
P1 Sc1 2.691705 1_555
P1 Sc4 2.697966 1_554
P1 Sc2 2.699854 1_555
P1 Sc0 2.714065 1_555
P2 Ru0 2.524023 1_555
P2 Ru3 2.524420 1_565
P2 Ru5 2.525231 1_565
P2 Sc1 2.675903 1_565
P2 Sc3 2.685190 1_555
P2 Sc5 2.693783 1_555
P2 Sc0 2.695426 1_554
P2 Sc2 2.700775 1_555
P2 Sc4 2.715891 1_665
P3 Ru1 2.522245 1_455
P3 Ru4 2.523962 1_565
P3 Ru2 2.526297 1_566
P3 Sc1 2.677761 1_566
P3 Sc3 2.686390 1_556
P3 Sc5 2.692704 1_455
P3 Sc0 2.697484 1_555
P3 Sc2 2.701045 1_455
P3 Sc4 2.714025 1_565
P4 Ru1 2.523687 1_555
P4 Ru5 2.524021 1_555
P4 Ru3 2.527809 1_566
P4 Sc5 2.678833 1_556
P4 Sc3 2.686260 1_656
P4 Sc1 2.691311 1_555
P4 Sc2 2.698377 1_555
P4 Sc4 2.698591 1_655
P4 Sc0 2.714837 1_555
Ru0 Sc2 2.815789 1_555
Ru0 Sc5 2.940456 1_555
Ru0 Sc3 2.940828 1_555
Ru0 Sc1 2.944291 1_555
Ru0 Sc4 3.025854 1_554
Ru0 Sc0 3.032594 1_554
Ru1 Sc2 2.817429 1_555
Ru1 Sc5 2.938212 1_555
Ru1 Sc3 2.942451 1_656
Ru1 Sc1 2.947513 1_555
Ru1 Sc4 3.026703 1_655
Ru1 Sc0 3.032470 1_655
Ru2 Sc4 2.825590 1_554
Ru2 Sc2 2.880808 1_444
Ru2 Sc5 2.914386 1_455
Ru2 Sc1 2.945003 1_555
Ru2 Sc0 3.062597 1_555
Ru2 Sc3 3.104189 1_545
Ru3 Sc0 2.824078 1_544
Ru3 Sc2 2.884600 1_544
Ru3 Sc1 2.926967 1_555
Ru3 Sc5 2.943164 1_545
Ru3 Sc4 3.046679 1_655
Ru3 Sc3 3.097178 1_645
Ru4 Sc0 2.821842 1_545
Ru4 Sc2 2.884238 1_545
Ru4 Sc1 2.924849 1_556
Ru4 Sc5 2.944899 1_445
Ru4 Sc4 3.047718 1_555
Ru4 Sc3 3.096585 1_545
Ru5 Sc4 2.825102 1_655
Ru5 Sc2 2.878050 1_545
Ru5 Sc5 2.913459 1_556
Ru5 Sc1 2.945158 1_555
Ru5 Sc0 3.063641 1_555
Ru5 Sc3 3.104385 1_545
