# generated using pymatgen
data_Sr8Ti3CrO16
_symmetry_space_group_name_H-M   'P 1'
_cell_length_a   5.48471199
_cell_length_b   8.78948320
_cell_length_c   8.78946017
_cell_angle_alpha   88.75507634
_cell_angle_beta   71.57251456
_cell_angle_gamma   108.42760027
_symmetry_Int_Tables_number   1
_chemical_formula_structural   Sr8Ti3CrO16
_chemical_formula_sum   'Sr8 Ti3 Cr1 O16'
_cell_volume   377.88190737
_cell_formula_units_Z   1
loop_
 _symmetry_equiv_pos_site_id
 _symmetry_equiv_pos_as_xyz
  1  'x, y, z'
loop_
 _atom_site_type_symbol
 _atom_site_label
 _atom_site_symmetry_multiplicity
 _atom_site_fract_x
 _atom_site_fract_y
 _atom_site_fract_z
 _atom_site_occupancy
  Sr  Sr0  1  0.24980916  0.39400551  0.89394843  1
  Sr  Sr1  1  0.99965501  0.64344760  0.64545195  1
  Sr  Sr2  1  0.75012701  0.89559270  0.39573275  1
  Sr  Sr3  1  0.50042236  0.14551336  0.14334330  1
  Sr  Sr4  1  0.99971742  0.35461249  0.35648530  1
  Sr  Sr5  1  0.75019999  0.60435357  0.10435441  1
  Sr  Sr6  1  0.50028204  0.85652239  0.85462546  1
  Sr  Sr7  1  0.24981410  0.10604245  0.60598363  1
  Ti  Ti0  1  0.49925409  0.49782752  0.50214780  1
  Ti  Ti1  1  0.25016490  0.75002939  0.25005255  1
  Ti  Ti2  1  0.00072552  0.00217848  0.99784909  1
  Cr  Cr0  1  0.74978612  0.24996070  0.74993657  1
  O  O0  1  0.25000111  0.59145942  0.09143935  1
  O  O1  1  0.00553320  0.84221149  0.84119335  1
  O  O2  1  0.74995965  0.09594201  0.59576633  1
  O  O3  1  0.49433555  0.34102472  0.34227726  1
  O  O4  1  0.00576028  0.15908278  0.15754294  1
  O  O5  1  0.74984003  0.40409834  0.90411347  1
  O  O6  1  0.49438041  0.65774539  0.65892081  1
  O  O7  1  0.24984667  0.90839964  0.40877603  1
  O  O8  1  0.87653856  0.12514769  0.87472698  1
  O  O9  1  0.62279701  0.37464446  0.62534450  1
  O  O10  1  0.37401565  0.62460226  0.37534527  1
  O  O11  1  0.12686534  0.87561879  0.12455595  1
  O  O12  1  0.38487404  0.12777272  0.87210942  1
  O  O13  1  0.11479567  0.37233595  0.62767335  1
  O  O14  1  0.87251605  0.62486393  0.37509560  1
  O  O15  1  0.62798406  0.87496425  0.12520016  1
loop_
_geom_bond_atom_site_label_1
_geom_bond_atom_site_label_2
_geom_bond_distance
_geom_bond_site_symmetry_2
Cr0 O12 1.882682 1_555
Cr0 O13 1.883599 1_655
Cr0 O2 1.936119 1_555
Cr0 O5 1.936908 1_555
Cr0 O9 1.948841 1_555
Cr0 O8 1.949825 1_555
O0 Ti1 1.992623 1_555
O0 Sr0 2.481142 1_554
O0 Sr5 2.745998 1_455
O0 Sr5 2.748292 1_555
O0 Sr6 2.757840 1_554
O0 Sr4 2.757907 1_455
O1 Ti2 1.989503 1_565
O1 Sr1 2.478550 1_455
O1 Sr6 2.716714 1_555
O1 Sr7 2.742785 1_565
O1 Sr5 2.751941 1_456
O1 Sr6 2.779074 1_455
O2 Sr2 2.515306 1_545
O2 Sr4 2.733263 1_555
O2 Sr6 2.735076 1_545
O2 Sr7 2.744852 1_655
O2 Sr7 2.745798 1_555
O3 Ti0 1.989808 1_555
O3 Sr3 2.478189 1_555
O3 Sr4 2.716735 1_455
O3 Sr7 2.740862 1_555
O3 Sr5 2.753261 1_555
O3 Sr4 2.779090 1_555
O4 Ti2 1.989321 1_554
O4 Sr4 2.478355 1_455
O4 Sr3 2.716937 1_555
O4 Sr0 2.739938 1_554
O4 Sr2 2.755558 1_445
O4 Sr3 2.778867 1_455
O5 Sr5 2.516017 1_556
O5 Sr3 2.732512 1_556
O5 Sr1 2.733565 1_555
O5 Sr0 2.744938 1_655
O5 Sr0 2.745677 1_555
O6 Ti0 1.989922 1_555
O6 Sr6 2.478403 1_555
O6 Sr1 2.716733 1_455
O6 Sr0 2.741289 1_555
O6 Sr2 2.752052 1_555
O6 Sr1 2.779073 1_555
O7 Ti1 1.992062 1_555
O7 Sr7 2.480550 1_565
O7 Sr2 2.746281 1_455
O7 Sr2 2.748040 1_555
O7 Sr1 2.756487 1_455
O7 Sr3 2.761533 1_565
O8 Ti2 1.919337 1_655
O8 Sr7 2.641303 1_655
O8 Sr0 2.642279 1_655
O8 Sr6 2.651943 1_545
O8 Sr3 2.652265 1_556
O9 Ti0 1.918510 1_555
O9 Sr7 2.640410 1_555
O9 Sr0 2.640435 1_555
O9 Sr1 2.654678 1_555
O9 Sr4 2.654953 1_555
O10 Ti1 1.945043 1_555
O10 Ti0 1.967118 1_555
O10 Sr4 2.650603 1_455
O10 Sr1 2.651406 1_455
O10 Sr5 2.665642 1_555
O10 Sr2 2.665838 1_555
O11 Ti1 1.945045 1_555
O11 Ti2 1.968804 1_564
O11 Sr3 2.647772 1_565
O11 Sr6 2.648473 1_554
O11 Sr2 2.667464 1_455
O11 Sr5 2.668425 1_455
O12 Ti2 1.970701 1_555
O12 Sr6 2.648954 1_545
O12 Sr3 2.649200 1_556
O12 Sr7 2.661206 1_555
O12 Sr0 2.662142 1_555
O13 Ti0 1.971333 1_555
O13 Sr1 2.647030 1_455
O13 Sr4 2.647505 1_455
O13 Sr0 2.662340 1_555
O13 Sr7 2.662519 1_555
O14 Ti0 1.933981 1_555
O14 Ti1 1.943226 1_655
O14 Sr5 2.663992 1_555
O14 Sr2 2.664107 1_555
O14 Sr4 2.673634 1_555
O14 Sr1 2.674345 1_555
O15 Ti2 1.932972 1_664
O15 Ti1 1.943088 1_555
O15 Sr2 2.661727 1_555
O15 Sr5 2.662624 1_555
O15 Sr3 2.677223 1_565
O15 Sr6 2.677828 1_554
