# generated using pymatgen
data_LiZnH6Ir
_symmetry_space_group_name_H-M   'P 1'
_cell_length_a   6.53584898
_cell_length_b   6.53584898
_cell_length_c   6.53584898
_cell_angle_alpha   90.00000000
_cell_angle_beta   90.00000000
_cell_angle_gamma   90.00000000
_symmetry_Int_Tables_number   1
_chemical_formula_structural   LiZnH6Ir
_chemical_formula_sum   'Li4 Zn4 H24 Ir4'
_cell_volume   279.19396498
_cell_formula_units_Z   4
loop_
 _symmetry_equiv_pos_site_id
 _symmetry_equiv_pos_as_xyz
  1  'x, y, z'
loop_
 _atom_site_type_symbol
 _atom_site_label
 _atom_site_symmetry_multiplicity
 _atom_site_fract_x
 _atom_site_fract_y
 _atom_site_fract_z
 _atom_site_occupancy
  Li  Li0  1  0.00000000  0.00000000  0.50000000  1
  Li  Li1  1  0.00000000  0.50000000  0.00000000  1
  Li  Li2  1  0.50000000  0.00000000  0.00000000  1
  Li  Li3  1  0.00000000  0.00000000  0.00000000  1
  Zn  Zn0  1  0.50000000  0.50000000  0.50000000  1
  Zn  Zn1  1  0.00000000  0.50000000  0.50000000  1
  Zn  Zn2  1  0.50000000  0.00000000  0.50000000  1
  Zn  Zn3  1  0.50000000  0.50000000  0.00000000  1
  H  H0  1  0.75599778  0.75599778  0.50987591  1
  H  H1  1  0.24400222  0.24400222  0.50987591  1
  H  H2  1  0.00683142  0.75131322  0.75131322  1
  H  H3  1  0.24868678  0.99316858  0.75131322  1
  H  H4  1  0.75131322  0.00683142  0.75131322  1
  H  H5  1  0.99316858  0.24868678  0.75131322  1
  H  H6  1  0.75599778  0.50987591  0.75599778  1
  H  H7  1  0.50987591  0.75599778  0.75599778  1
  H  H8  1  0.49012409  0.24400222  0.75599778  1
  H  H9  1  0.24400222  0.49012409  0.75599778  1
  H  H10  1  0.24868678  0.75131322  0.99316858  1
  H  H11  1  0.75131322  0.24868678  0.99316858  1
  H  H12  1  0.75131322  0.75131322  0.00683142  1
  H  H13  1  0.24868678  0.24868678  0.00683142  1
  H  H14  1  0.24400222  0.50987591  0.24400222  1
  H  H15  1  0.49012409  0.75599778  0.24400222  1
  H  H16  1  0.50987591  0.24400222  0.24400222  1
  H  H17  1  0.75599778  0.49012409  0.24400222  1
  H  H18  1  0.99316858  0.75131322  0.24868678  1
  H  H19  1  0.75131322  0.99316858  0.24868678  1
  H  H20  1  0.24868678  0.00683142  0.24868678  1
  H  H21  1  0.00683142  0.24868678  0.24868678  1
  H  H22  1  0.24400222  0.75599778  0.49012409  1
  H  H23  1  0.75599778  0.24400222  0.49012409  1
  Ir  Ir0  1  0.25931659  0.74068341  0.74068341  1
  Ir  Ir1  1  0.74068341  0.25931659  0.74068341  1
  Ir  Ir2  1  0.74068341  0.74068341  0.25931659  1
  Ir  Ir3  1  0.25931659  0.25931659  0.25931659  1
loop_
_geom_bond_atom_site_label_1
_geom_bond_atom_site_label_2
_geom_bond_distance
_geom_bond_site_symmetry_2
H0 Ir2 1.643724 1_555
H0 Li0 2.256257 1_665
H1 Ir3 1.643724 1_555
H1 Li0 2.256257 1_555
H2 Ir0 1.653127 1_555
H2 Li3 2.299067 1_566
H2 Li1 2.311235 1_556
H2 Li0 2.311235 1_565
H2 Zn1 2.323339 1_555
H3 Ir0 1.653127 1_555
H3 Li3 2.299067 1_566
H3 Li0 2.311235 1_565
H3 Li2 2.311235 1_566
H3 Zn2 2.323339 1_565
H4 Ir1 1.653127 1_555
H4 Li3 2.299067 1_656
H4 Li0 2.311235 1_655
H4 Li2 2.311235 1_556
H4 Zn2 2.323339 1_555
H5 Ir1 1.653127 1_555
H5 Li3 2.299067 1_656
H5 Li0 2.311235 1_655
H5 Li1 2.311235 1_656
H5 Zn1 2.323339 1_655
H6 Ir1 1.643724 1_555
H6 Li1 2.256257 1_656
H7 Ir0 1.643724 1_555
H7 Li2 2.256257 1_566
H8 Ir1 1.643724 1_555
H8 Li2 2.256257 1_556
H9 Ir0 1.643724 1_555
H9 Li1 2.256257 1_556
H10 Ir0 1.653127 1_555
H10 Li3 2.299067 1_566
H10 Li1 2.311235 1_556
H10 Li2 2.311235 1_566
H10 Zn3 2.323339 1_556
H11 Ir1 1.653127 1_555
H11 Li3 2.299067 1_656
H11 Li2 2.311235 1_556
H11 Li1 2.311235 1_656
H11 Zn3 2.323339 1_556
H12 Ir2 1.653127 1_555
H12 Li3 2.299067 1_665
H12 Li1 2.311235 1_655
H12 Li2 2.311235 1_565
H12 Zn3 2.323339 1_555
H13 Ir3 1.653127 1_555
H13 Li3 2.299067 1_555
H13 Li1 2.311235 1_555
H13 Li2 2.311235 1_555
H13 Zn3 2.323339 1_555
H14 Ir3 1.643724 1_555
H14 Li1 2.256257 1_555
H15 Ir2 1.643724 1_555
H15 Li2 2.256257 1_565
H16 Ir3 1.643724 1_555
H16 Li2 2.256257 1_555
H17 Ir2 1.643724 1_555
H17 Li1 2.256257 1_655
H18 Ir2 1.653127 1_555
H18 Li3 2.299067 1_665
H18 Li1 2.311235 1_655
H18 Li0 2.311235 1_665
H18 Zn1 2.323339 1_655
H19 Ir2 1.653127 1_555
H19 Li3 2.299067 1_665
H19 Li2 2.311235 1_565
H19 Li0 2.311235 1_665
H19 Zn2 2.323339 1_565
H20 Ir3 1.653127 1_555
H20 Li3 2.299067 1_555
H20 Li0 2.311235 1_555
H20 Li2 2.311235 1_555
H20 Zn2 2.323339 1_555
H21 Ir3 1.653127 1_555
H21 Li3 2.299067 1_555
H21 Li1 2.311235 1_555
H21 Li0 2.311235 1_555
H21 Zn1 2.323339 1_555
H22 Ir0 1.643724 1_555
H22 Li0 2.256257 1_565
H23 Ir1 1.643724 1_555
H23 Li0 2.256257 1_655
