# generated using pymatgen
data_Sc12Be2RuI16
_symmetry_space_group_name_H-M   'P 1'
_cell_length_a   9.17981961
_cell_length_b   11.65786938
_cell_length_c   12.39110859
_cell_angle_alpha   116.86732423
_cell_angle_beta   101.63235716
_cell_angle_gamma   100.83687112
_symmetry_Int_Tables_number   1
_chemical_formula_structural   Sc12Be2RuI16
_chemical_formula_sum   'Sc12 Be2 Ru1 I16'
_cell_volume   1097.90663578
_cell_formula_units_Z   1
loop_
 _symmetry_equiv_pos_site_id
 _symmetry_equiv_pos_as_xyz
  1  'x, y, z'
loop_
 _atom_site_type_symbol
 _atom_site_label
 _atom_site_symmetry_multiplicity
 _atom_site_fract_x
 _atom_site_fract_y
 _atom_site_fract_z
 _atom_site_occupancy
  Sc  Sc0  1  0.08014992  0.26916561  0.35797846  1
  Sc  Sc1  1  0.91985008  0.73083439  0.64202154  1
  Sc  Sc2  1  0.78715118  0.53715164  0.33073964  1
  Sc  Sc3  1  0.21284882  0.46284836  0.66926036  1
  Sc  Sc4  1  0.26838792  0.73114092  0.64128715  1
  Sc  Sc5  1  0.73161208  0.26885908  0.35871285  1
  Sc  Sc6  1  0.13631193  0.53743208  0.33036932  1
  Sc  Sc7  1  0.86368807  0.46256792  0.66963068  1
  Sc  Sc8  1  0.40885856  0.36444723  0.28246012  1
  Sc  Sc9  1  0.59114144  0.63555277  0.71753988  1
  Sc  Sc10  1  0.46004190  0.31309094  0.51902914  1
  Sc  Sc11  1  0.53995810  0.68690906  0.48097086  1
  Be  Be0  1  0.32869308  0.50017586  0.49936855  1
  Be  Be1  1  0.67130792  0.49982414  0.50063145  1
  Ru  Ru0  1  0.00000000  0.50000000  0.50000000  1
  I  I0  1  0.39806230  0.74046928  0.88518725  1
  I  I1  1  0.60193770  0.25953072  0.11481275  1
  I  I2  1  0.19296604  0.97611121  0.79035370  1
  I  I3  1  0.80703396  0.02388879  0.20964630  1
  I  I4  1  0.33437037  0.09135760  0.24922982  1
  I  I5  1  0.66562963  0.90864240  0.75077018  1
  I  I6  1  0.55940036  0.43369597  0.79850651  1
  I  I7  1  0.44059964  0.56630403  0.20149349  1
  I  I8  1  0.30825575  0.83122560  0.46354912  1
  I  I9  1  0.69174425  0.16877440  0.53645088  1
  I  I10  1  0.16731055  0.16825406  0.53367215  1
  I  I11  1  0.83268945  0.83174594  0.46632785  1
  I  I12  1  0.92235656  0.58011989  0.15452171  1
  I  I13  1  0.07764344  0.41988011  0.84547829  1
  I  I14  1  0.92353838  0.73843335  0.88556737  1
  I  I15  1  0.07646162  0.26156665  0.11443263  1
loop_
_geom_bond_atom_site_label_1
_geom_bond_atom_site_label_2
_geom_bond_distance
_geom_bond_site_symmetry_2
Be0 Sc3 2.703452 1_555
Be0 Sc6 2.704041 1_555
Be0 Sc4 2.705948 1_555
Be0 Sc0 2.709378 1_555
Be0 Sc11 2.755249 1_555
Be0 Sc10 2.760556 1_555
Be0 Sc8 2.767802 1_555
Be0 Sc9 2.773246 1_555
Be0 Ru0 3.018548 1_555
Be1 Sc2 2.703447 1_555
Be1 Sc7 2.704036 1_555
Be1 Sc5 2.705943 1_555
Be1 Sc1 2.709373 1_555
Be1 Sc10 2.755254 1_555
Be1 Sc11 2.760561 1_555
Be1 Sc9 2.767807 1_555
Be1 Sc8 2.773252 1_555
Be1 Ru0 3.018539 1_655
Ru0 Sc7 2.803322 1_455
Ru0 Sc6 2.803322 1_555
Ru0 Sc0 2.804680 1_555
Ru0 Sc1 2.804680 1_455
Ru0 Sc3 2.809059 1_555
Ru0 Sc2 2.809059 1_455
Ru0 Sc4 2.810035 1_555
Ru0 Sc5 2.810035 1_455
I0 Sc4 2.960742 1_555
I0 Sc3 2.965421 1_555
I0 Sc9 2.992705 1_555
I1 Sc5 2.960742 1_555
I1 Sc2 2.965421 1_555
I1 Sc8 2.992705 1_555
I2 Sc1 2.921639 1_455
I2 Sc4 2.922038 1_555
I3 Sc0 2.921639 1_655
I3 Sc5 2.922038 1_555
I4 Sc8 2.942059 1_555
I4 Sc10 2.949867 1_555
I4 Sc5 3.471365 1_555
I4 Sc0 3.481550 1_555
I5 Sc9 2.942059 1_555
I5 Sc11 2.949867 1_555
I5 Sc4 3.471365 1_555
I5 Sc1 3.481550 1_555
I6 Sc9 2.936503 1_555
I6 Sc10 2.940155 1_555
I6 Sc3 3.412448 1_555
I6 Sc7 3.520950 1_555
I7 Sc8 2.936503 1_555
I7 Sc11 2.940155 1_555
I7 Sc2 3.412448 1_555
I7 Sc6 3.520950 1_555
I8 Sc6 2.958626 1_555
I8 Sc4 2.972005 1_555
I8 Sc11 2.981600 1_555
I9 Sc7 2.958626 1_555
I9 Sc5 2.972005 1_555
I9 Sc10 2.981600 1_555
I10 Sc0 2.954657 1_555
I10 Sc3 2.958691 1_555
I10 Sc10 2.978664 1_555
I11 Sc1 2.954657 1_555
I11 Sc2 2.958691 1_555
I11 Sc11 2.978664 1_555
I12 Sc2 2.899473 1_555
I12 Sc6 2.911162 1_655
I13 Sc3 2.899473 1_555
I13 Sc7 2.911162 1_455
I14 Sc7 2.961243 1_555
I14 Sc1 2.971895 1_555
I14 Sc9 2.981439 1_555
I15 Sc6 2.961243 1_555
I15 Sc0 2.971895 1_555
I15 Sc8 2.981439 1_555
