# generated using pymatgen
data_K2BeBr4
_symmetry_space_group_name_H-M   'P 1'
_cell_length_a   7.27672425
_cell_length_b   9.22210553
_cell_length_c   12.90370844
_cell_angle_alpha   90.00000000
_cell_angle_beta   90.00000000
_cell_angle_gamma   90.00000000
_symmetry_Int_Tables_number   1
_chemical_formula_structural   K2BeBr4
_chemical_formula_sum   'K8 Be4 Br16'
_cell_volume   865.92553648
_cell_formula_units_Z   4
loop_
 _symmetry_equiv_pos_site_id
 _symmetry_equiv_pos_as_xyz
  1  'x, y, z'
loop_
 _atom_site_type_symbol
 _atom_site_label
 _atom_site_symmetry_multiplicity
 _atom_site_fract_x
 _atom_site_fract_y
 _atom_site_fract_z
 _atom_site_occupancy
  K  K0  1  0.75000000  0.52063191  0.32659607  1
  K  K1  1  0.25000000  0.47936809  0.67340393  1
  K  K2  1  0.25000000  0.97936809  0.82659607  1
  K  K3  1  0.75000000  0.02063191  0.17340393  1
  K  K4  1  0.75000000  0.87307146  0.57483153  1
  K  K5  1  0.25000000  0.12692854  0.42516847  1
  K  K6  1  0.25000000  0.62692854  0.07483153  1
  K  K7  1  0.75000000  0.37307146  0.92516847  1
  Be  Be0  1  0.75000000  0.77015294  0.92372476  1
  Be  Be1  1  0.25000000  0.22984706  0.07627524  1
  Be  Be2  1  0.25000000  0.72984706  0.42372476  1
  Be  Be3  1  0.75000000  0.27015294  0.57627524  1
  Br  Br0  1  0.99441799  0.67967953  0.84965988  1
  Br  Br1  1  0.00558201  0.32032047  0.15034012  1
  Br  Br2  1  0.00558201  0.82032047  0.34965988  1
  Br  Br3  1  0.49441799  0.32032047  0.15034012  1
  Br  Br4  1  0.99441799  0.17967953  0.65034012  1
  Br  Br5  1  0.50558201  0.67967953  0.84965988  1
  Br  Br6  1  0.50558201  0.17967953  0.65034012  1
  Br  Br7  1  0.49441799  0.82032047  0.34965988  1
  Br  Br8  1  0.75000000  0.00624252  0.91302991  1
  Br  Br9  1  0.25000000  0.99375748  0.08697009  1
  Br  Br10  1  0.25000000  0.49375748  0.41302991  1
  Br  Br11  1  0.75000000  0.50624252  0.58697009  1
  Br  Br12  1  0.75000000  0.19235343  0.41416604  1
  Br  Br13  1  0.25000000  0.80764657  0.58583396  1
  Br  Br14  1  0.25000000  0.30764657  0.91416604  1
  Br  Br15  1  0.75000000  0.69235343  0.08583396  1
loop_
_geom_bond_atom_site_label_1
_geom_bond_atom_site_label_2
_geom_bond_distance
_geom_bond_site_symmetry_2
Be0 Br8 2.181612 1_565
Be0 Br0 2.184678 1_555
Be0 Br5 2.184678 1_555
Be0 Br15 2.211434 1_556
Be1 Br9 2.181612 1_545
Be1 Br3 2.184678 1_555
Be1 Br1 2.184678 1_555
Be1 Br14 2.211434 1_554
Be2 Br10 2.181612 1_555
Be2 Br7 2.184678 1_555
Be2 Br2 2.184678 1_555
Be2 Br13 2.211434 1_555
Be3 Br11 2.181612 1_555
Be3 Br4 2.184678 1_555
Be3 Br6 2.184678 1_555
Be3 Br12 2.211434 1_555
Br0 K2 3.344517 1_655
Br0 K1 3.470452 1_655
Br0 K7 3.479625 1_555
Br0 K6 3.483925 1_656
Br1 K3 3.344517 1_455
Br1 K0 3.470452 1_455
Br1 K6 3.479625 1_555
Br1 K7 3.483925 1_454
Br2 K0 3.344517 1_455
Br2 K3 3.470452 1_465
Br2 K5 3.479625 1_565
Br2 K4 3.483925 1_455
Br3 K3 3.344517 1_555
Br3 K0 3.470452 1_555
Br3 K6 3.479625 1_555
Br3 K7 3.483925 1_554
Br4 K1 3.344517 1_655
Br4 K2 3.470452 1_645
Br4 K4 3.479625 1_545
Br4 K5 3.483925 1_655
Br5 K2 3.344517 1_555
Br5 K1 3.470452 1_555
Br5 K7 3.479625 1_555
Br5 K6 3.483925 1_556
Br6 K1 3.344517 1_555
Br6 K2 3.470452 1_545
Br6 K4 3.479625 1_545
Br6 K5 3.483925 1_555
Br7 K0 3.344517 1_555
Br7 K3 3.470452 1_565
Br7 K5 3.479625 1_565
Br7 K4 3.483925 1_555
Br8 K3 3.362410 1_556
Br8 K7 3.386559 1_555
Br8 K2 3.813533 1_645
Br8 K2 3.813533 1_545
Br9 K2 3.362410 1_554
Br9 K6 3.386559 1_555
Br9 K3 3.813533 1_565
Br9 K3 3.813533 1_465
Br10 K1 3.362410 1_555
Br10 K5 3.386559 1_555
Br10 K0 3.813533 1_555
Br10 K0 3.813533 1_455
Br11 K0 3.362410 1_555
Br11 K4 3.386559 1_555
Br11 K1 3.813533 1_655
Br11 K1 3.813533 1_555
Br12 K0 3.231426 1_555
Br12 K3 3.487066 1_555
Br12 K4 3.601094 1_545
Br12 K5 3.690782 1_555
Br12 K5 3.690782 1_655
Br13 K1 3.231426 1_555
Br13 K2 3.487066 1_555
Br13 K5 3.601094 1_565
Br13 K4 3.690782 1_455
Br13 K4 3.690782 1_555
Br14 K2 3.231426 1_545
Br14 K1 3.487066 1_555
Br14 K6 3.601094 1_556
Br14 K7 3.690782 1_455
Br14 K7 3.690782 1_555
Br15 K3 3.231426 1_565
Br15 K0 3.487066 1_555
Br15 K7 3.601094 1_554
Br15 K6 3.690782 1_555
Br15 K6 3.690782 1_655
