# generated using pymatgen
data_Ni3Ag4TeO8
_symmetry_space_group_name_H-M   'P 1'
_cell_length_a   5.23996213
_cell_length_b   6.10594878
_cell_length_c   7.20266578
_cell_angle_alpha   64.71825205
_cell_angle_beta   104.54216107
_cell_angle_gamma   90.00669437
_symmetry_Int_Tables_number   1
_chemical_formula_structural   Ni3Ag4TeO8
_chemical_formula_sum   'Ni3 Ag4 Te1 O8'
_cell_volume   200.18420737
_cell_formula_units_Z   1
loop_
 _symmetry_equiv_pos_site_id
 _symmetry_equiv_pos_as_xyz
  1  'x, y, z'
loop_
 _atom_site_type_symbol
 _atom_site_label
 _atom_site_symmetry_multiplicity
 _atom_site_fract_x
 _atom_site_fract_y
 _atom_site_fract_z
 _atom_site_occupancy
  Ni  Ni0  1  0.00005896  0.01038929  0.50001669  1
  Ni  Ni1  1  0.50001195  0.25000426  0.50000009  1
  Ni  Ni2  1  0.99996007  0.48963842  0.49998046  1
  Ag  Ag0  1  0.00341786  0.00395846  0.99187571  1
  Ag  Ag1  1  0.49997989  0.24997726  0.99999547  1
  Ag  Ag2  1  0.99657251  0.49600927  0.00812581  1
  Ag  Ag3  1  0.50000687  0.74996922  0.00000303  1
  Te  Te0  1  0.50001897  0.75004567  0.49998380  1
  O  O0  1  0.87096093  0.66647711  0.66578878  1
  O  O1  1  0.39847491  0.90161668  0.66395353  1
  O  O2  1  0.88604702  0.16757079  0.66355693  1
  O  O3  1  0.39851764  0.43310203  0.66393027  1
  O  O4  1  0.12903443  0.83352240  0.33421705  1
  O  O5  1  0.60146638  0.06689407  0.33607825  1
  O  O6  1  0.11395819  0.33244559  0.33644490  1
  O  O7  1  0.60151544  0.59838048  0.33605023  1
loop_
_geom_bond_atom_site_label_1
_geom_bond_atom_site_label_2
_geom_bond_distance
_geom_bond_site_symmetry_2
Ni0 O2 1.996161 1_455
Ni0 O6 1.996293 1_555
Ni0 O1 2.070345 1_545
Ni0 O5 2.071063 1_455
Ni0 O4 2.134513 1_545
Ni0 O0 2.134614 1_445
Ni1 O2 2.007481 1_555
Ni1 O6 2.007563 1_555
Ni1 O5 2.090343 1_555
Ni1 O3 2.090419 1_555
Ni1 O7 2.090889 1_555
Ni1 O1 2.091017 1_545
Ni2 O6 1.996150 1_655
Ni2 O2 1.996385 1_555
Ni2 O7 2.070452 1_555
Ni2 O3 2.070910 1_655
Ni2 O4 2.134415 1_655
Ni2 O0 2.134495 1_555
Ag0 O2 2.054347 1_455
Ag0 O4 2.142337 1_546
Ag1 O3 2.105742 1_555
Ag1 O5 2.105836 1_556
Ag2 O6 2.054351 1_655
Ag2 O0 2.142308 1_554
Ag3 O1 2.106690 1_554
Ag3 O7 2.106698 1_555
O0 Te0 1.943878 1_555
O1 Te0 1.945179 1_555
O3 Te0 1.945687 1_555
O4 Te0 1.943998 1_555
O5 Te0 1.945065 1_545
O7 Te0 1.945267 1_555
