# generated using pymatgen
data_Hf16GaNi4Mo3
_symmetry_space_group_name_H-M   'P 1'
_cell_length_a   8.64609646
_cell_length_b   8.64609696
_cell_length_c   8.64609739
_cell_angle_alpha   60.14541882
_cell_angle_beta   60.14541275
_cell_angle_gamma   60.14541376
_symmetry_Int_Tables_number   1
_chemical_formula_structural   Hf16GaNi4Mo3
_chemical_formula_sum   'Hf16 Ga1 Ni4 Mo3'
_cell_volume   458.53603373
_cell_formula_units_Z   1
loop_
 _symmetry_equiv_pos_site_id
 _symmetry_equiv_pos_as_xyz
  1  'x, y, z'
loop_
 _atom_site_type_symbol
 _atom_site_label
 _atom_site_symmetry_multiplicity
 _atom_site_fract_x
 _atom_site_fract_y
 _atom_site_fract_z
 _atom_site_occupancy
  Hf  Hf0  1  0.69419364  0.10034179  0.10034179  1
  Hf  Hf1  1  0.10034179  0.69419364  0.10034179  1
  Hf  Hf2  1  0.10034179  0.10034179  0.69419364  1
  Hf  Hf3  1  0.10332186  0.10332186  0.10332186  1
  Hf  Hf4  1  0.31535949  0.31535949  0.69345583  1
  Hf  Hf5  1  0.68619150  0.68619150  0.31435081  1
  Hf  Hf6  1  0.31535949  0.69345583  0.31535949  1
  Hf  Hf7  1  0.68619150  0.31435081  0.68619150  1
  Hf  Hf8  1  0.69345583  0.31535949  0.31535949  1
  Hf  Hf9  1  0.31435081  0.68619150  0.68619150  1
  Hf  Hf10  1  0.95299168  0.95299168  0.54559769  1
  Hf  Hf11  1  0.55397445  0.55397445  0.94201267  1
  Hf  Hf12  1  0.95299168  0.54559769  0.95299168  1
  Hf  Hf13  1  0.55397445  0.94201267  0.55397445  1
  Hf  Hf14  1  0.54559769  0.95299168  0.95299168  1
  Hf  Hf15  1  0.94201267  0.55397445  0.55397445  1
  Ga  Ga0  1  0.32900334  0.32900334  0.32900334  1
  Ni  Ni0  1  0.32316725  0.89078460  0.89078460  1
  Ni  Ni1  1  0.89078460  0.32316725  0.89078460  1
  Ni  Ni2  1  0.89078460  0.89078460  0.32316725  1
  Ni  Ni3  1  0.89125185  0.89125185  0.89125185  1
  Mo  Mo0  1  0.99716639  0.33359333  0.33359333  1
  Mo  Mo1  1  0.33359333  0.99716639  0.33359333  1
  Mo  Mo2  1  0.33359333  0.33359333  0.99716639  1
loop_
_geom_bond_atom_site_label_1
_geom_bond_atom_site_label_2
_geom_bond_distance
_geom_bond_site_symmetry_2
Hf0 Ni3 2.561233 1_544
Hf0 Ni1 2.569522 1_554
Hf0 Ni2 2.569522 1_545
Hf0 Mo1 3.049817 1_545
Hf0 Mo2 3.049817 1_554
Hf0 Hf8 3.213966 1_555
Hf1 Ni3 2.561233 1_454
Hf1 Ni2 2.569522 1_455
Hf1 Ni0 2.569522 1_554
Hf1 Mo2 3.049817 1_554
Hf1 Mo0 3.049817 1_455
Hf1 Hf6 3.213966 1_555
Hf2 Ni3 2.561233 1_445
Hf2 Ni1 2.569522 1_455
Hf2 Ni0 2.569522 1_545
Hf2 Mo1 3.049817 1_545
Hf2 Mo0 3.049817 1_455
Hf2 Hf4 3.213966 1_555
Hf3 Ni0 2.602604 1_544
Hf3 Ni2 2.602604 1_445
Hf3 Ni1 2.602604 1_454
Hf3 Mo2 3.012969 1_554
Hf3 Mo0 3.012969 1_455
Hf3 Mo1 3.012969 1_545
Hf3 Hf8 3.112869 1_455
Hf3 Hf6 3.112869 1_545
Hf3 Hf4 3.112869 1_554
Hf4 Mo2 2.791805 1_555
Hf4 Ni1 3.165991 1_455
Hf4 Ni0 3.165991 1_545
Hf4 Hf7 3.171162 1_555
Hf4 Hf9 3.171162 1_555
Hf4 Hf8 3.276240 1_555
Hf4 Hf6 3.276240 1_555
Hf5 Mo1 2.886254 1_555
Hf5 Mo0 2.886254 1_555
Hf5 Hf6 3.171162 1_555
Hf5 Hf8 3.171162 1_555
Hf6 Mo1 2.791805 1_555
Hf6 Ni2 3.165991 1_455
Hf6 Ni0 3.165991 1_554
Hf6 Hf9 3.171162 1_555
Hf6 Hf8 3.276240 1_555
Hf7 Mo2 2.886254 1_555
Hf7 Mo0 2.886254 1_555
Hf7 Hf8 3.171162 1_555
Hf8 Mo0 2.791805 1_555
Hf8 Ni2 3.165991 1_545
Hf8 Ni1 3.165991 1_554
Hf9 Mo2 2.886255 1_555
Hf9 Mo1 2.886255 1_555
Hf10 Ni3 2.570698 1_555
Hf10 Ni2 2.573855 1_555
Hf10 Mo1 2.980529 1_655
Hf10 Mo0 2.980529 1_565
Hf10 Hf6 3.170578 1_655
Hf10 Hf8 3.170578 1_565
Hf11 Ni1 2.543403 1_555
Hf11 Ni0 2.543403 1_555
Hf11 Mo2 3.048642 1_555
Hf11 Hf6 3.301357 1_556
Hf11 Hf8 3.301357 1_556
Hf12 Ni3 2.570698 1_555
Hf12 Ni1 2.573855 1_555
Hf12 Mo2 2.980529 1_655
Hf12 Mo0 2.980529 1_556
Hf12 Hf4 3.170578 1_655
Hf12 Hf8 3.170578 1_556
Hf13 Ni2 2.543403 1_555
Hf13 Ni0 2.543403 1_555
Hf13 Mo1 3.048642 1_555
Hf13 Hf4 3.301356 1_565
Hf13 Hf8 3.301357 1_565
Hf14 Ni3 2.570698 1_555
Hf14 Ni0 2.573854 1_555
Hf14 Mo2 2.980529 1_565
Hf14 Mo1 2.980529 1_556
Hf14 Hf6 3.170578 1_556
Hf14 Hf4 3.170578 1_565
Hf15 Ni2 2.543403 1_555
Hf15 Ni1 2.543403 1_555
Hf15 Mo0 3.048642 1_555
Hf15 Hf6 3.301356 1_655
Hf15 Hf4 3.301356 1_655
Ga0 Mo0 2.830141 1_455
Ga0 Mo1 2.830141 1_545
Ga0 Mo2 2.830141 1_554
Ga0 Hf8 3.038238 1_555
Ga0 Hf6 3.038238 1_555
Ga0 Hf4 3.038238 1_555
Ga0 Hf0 3.041128 1_555
Ga0 Hf2 3.041129 1_555
Ga0 Hf1 3.041129 1_555
Ga0 Hf15 3.093535 1_455
Ga0 Hf11 3.093535 1_554
Ga0 Hf13 3.093535 1_545
