# generated using pymatgen
data_Hf4CdSnC2
_symmetry_space_group_name_H-M   'P 1'
_cell_length_a   3.30294282
_cell_length_b   3.30294259
_cell_length_c   14.71800882
_cell_angle_alpha   90.00000000
_cell_angle_beta   90.00000000
_cell_angle_gamma   119.99999245
_symmetry_Int_Tables_number   1
_chemical_formula_structural   Hf4CdSnC2
_chemical_formula_sum   'Hf4 Cd1 Sn1 C2'
_cell_volume   139.05346128
_cell_formula_units_Z   1
loop_
 _symmetry_equiv_pos_site_id
 _symmetry_equiv_pos_as_xyz
  1  'x, y, z'
loop_
 _atom_site_type_symbol
 _atom_site_label
 _atom_site_symmetry_multiplicity
 _atom_site_fract_x
 _atom_site_fract_y
 _atom_site_fract_z
 _atom_site_occupancy
  Hf  Hf0  1  0.33333300  0.66666700  0.08680583  1
  Hf  Hf1  1  0.66666700  0.33333300  0.57915702  1
  Hf  Hf2  1  0.66666700  0.33333300  0.92084298  1
  Hf  Hf3  1  0.33333300  0.66666700  0.41319417  1
  Cd  Cd0  1  0.33333300  0.66666700  0.75000000  1
  Sn  Sn0  1  0.66666700  0.33333300  0.25000000  1
  C  C0  1  0.00000000  0.00000000  0.00333492  1
  C  C1  1  0.00000000  0.00000000  0.49666508  1
loop_
_geom_bond_atom_site_label_1
_geom_bond_atom_site_label_2
_geom_bond_distance
_geom_bond_site_symmetry_2
Hf0 Sn0 3.066849 1_565
Hf0 Sn0 3.066849 1_455
Hf0 Sn0 3.066852 1_555
Hf3 Sn0 3.066849 1_565
Hf3 Sn0 3.066849 1_455
Hf3 Sn0 3.066852 1_555
Cd0 Hf2 3.155792 1_565
Cd0 Hf1 3.155792 1_565
Cd0 Hf2 3.155792 1_455
Cd0 Hf1 3.155792 1_455
Cd0 Hf2 3.155795 1_555
Cd0 Hf1 3.155795 1_555
C0 Hf2 2.260652 1_454
C0 Hf2 2.260655 1_444
C0 Hf2 2.260655 1_554
C0 Hf0 2.268423 1_545
C0 Hf0 2.268426 1_555
C0 Hf0 2.268426 1_445
C1 Hf1 2.260652 1_455
C1 Hf1 2.260655 1_445
C1 Hf1 2.260655 1_555
C1 Hf3 2.268423 1_545
C1 Hf3 2.268426 1_555
C1 Hf3 2.268426 1_445
