# generated using pymatgen
data_Zr6SnAsC4
_symmetry_space_group_name_H-M   'P 1'
_cell_length_a   3.40053746
_cell_length_b   3.40053870
_cell_length_c   19.00429600
_cell_angle_alpha   90.00000000
_cell_angle_beta   90.00000000
_cell_angle_gamma   120.00000731
_symmetry_Int_Tables_number   1
_chemical_formula_structural   Zr6SnAsC4
_chemical_formula_sum   'Zr6 Sn1 As1 C4'
_cell_volume   190.31703878
_cell_formula_units_Z   1
loop_
 _symmetry_equiv_pos_site_id
 _symmetry_equiv_pos_as_xyz
  1  'x, y, z'
loop_
 _atom_site_type_symbol
 _atom_site_label
 _atom_site_symmetry_multiplicity
 _atom_site_fract_x
 _atom_site_fract_y
 _atom_site_fract_z
 _atom_site_occupancy
  Zr  Zr0  1  0.00000000  0.00000000  0.01196737  1
  Zr  Zr1  1  0.33333300  0.66666700  0.14794498  1
  Zr  Zr2  1  0.33333300  0.66666700  0.35205502  1
  Zr  Zr3  1  0.00000000  0.00000000  0.48803263  1
  Zr  Zr4  1  0.66666700  0.33333300  0.62272760  1
  Zr  Zr5  1  0.66666700  0.33333300  0.87727240  1
  Sn  Sn0  1  0.00000000  0.00000000  0.75000000  1
  As  As0  1  0.00000000  0.00000000  0.25000000  1
  C  C0  1  0.33333300  0.66666700  0.93866812  1
  C  C1  1  0.66666700  0.33333300  0.08534810  1
  C  C2  1  0.66666700  0.33333300  0.41465190  1
  C  C3  1  0.33333300  0.66666700  0.56133188  1
loop_
_geom_bond_atom_site_label_1
_geom_bond_atom_site_label_2
_geom_bond_distance
_geom_bond_site_symmetry_2
Sn0 Zr5 3.115247 1_455
Sn0 Zr4 3.115247 1_455
Sn0 Zr5 3.115248 1_555
Sn0 Zr4 3.115248 1_555
Sn0 Zr5 3.115249 1_445
Sn0 Zr4 3.115249 1_445
As0 Zr2 2.759736 1_545
As0 Zr1 2.759736 1_545
As0 Zr2 2.759738 1_445
As0 Zr1 2.759738 1_445
As0 Zr2 2.759738 1_555
As0 Zr1 2.759738 1_555
C0 Zr5 2.283840 1_455
C0 Zr5 2.283840 1_565
C0 Zr5 2.283845 1_555
C0 Zr0 2.407280 1_566
C0 Zr0 2.407282 1_666
C0 Zr0 2.407282 1_556
C1 Zr1 2.295586 1_655
C1 Zr1 2.295586 1_545
C1 Zr1 2.295591 1_555
C1 Zr0 2.408176 1_655
C1 Zr0 2.408178 1_555
C1 Zr0 2.408179 1_665
C2 Zr2 2.295586 1_655
C2 Zr2 2.295586 1_545
C2 Zr2 2.295591 1_555
C2 Zr3 2.408176 1_655
C2 Zr3 2.408178 1_555
C2 Zr3 2.408179 1_665
C3 Zr4 2.283840 1_455
C3 Zr4 2.283840 1_565
C3 Zr4 2.283845 1_555
C3 Zr3 2.407280 1_565
C3 Zr3 2.407282 1_665
C3 Zr3 2.407282 1_555
