# generated using pymatgen
data_Y5Zn2Bi
_symmetry_space_group_name_H-M   'P 1'
_cell_length_a   8.66616715
_cell_length_b   8.66616749
_cell_length_c   8.66616777
_cell_angle_alpha   123.90706488
_cell_angle_beta   123.90706615
_cell_angle_gamma   83.35628989
_symmetry_Int_Tables_number   1
_chemical_formula_structural   Y5Zn2Bi
_chemical_formula_sum   'Y10 Zn4 Bi2'
_cell_volume   429.87391030
_cell_formula_units_Z   2
loop_
 _symmetry_equiv_pos_site_id
 _symmetry_equiv_pos_as_xyz
  1  'x, y, z'
loop_
 _atom_site_type_symbol
 _atom_site_label
 _atom_site_symmetry_multiplicity
 _atom_site_fract_x
 _atom_site_fract_y
 _atom_site_fract_z
 _atom_site_occupancy
  Y  Y0  1  0.00000000  0.00000000  0.00000000  1
  Y  Y1  1  0.50000000  0.50000000  0.00000000  1
  Y  Y2  1  0.79506935  0.29506935  0.80650937  1
  Y  Y3  1  0.20493065  0.70493065  0.19349063  1
  Y  Y4  1  0.48855798  0.98855798  0.19349063  1
  Y  Y5  1  0.29506935  0.48855798  0.50000000  1
  Y  Y6  1  0.01144202  0.20493065  0.50000000  1
  Y  Y7  1  0.51144202  0.01144202  0.80650937  1
  Y  Y8  1  0.70493065  0.51144202  0.50000000  1
  Y  Y9  1  0.98855798  0.79506935  0.50000000  1
  Zn  Zn0  1  0.13945952  0.63945952  0.77891803  1
  Zn  Zn1  1  0.86054048  0.36054048  0.22108197  1
  Zn  Zn2  1  0.63945952  0.86054048  0.50000000  1
  Zn  Zn3  1  0.36054048  0.13945952  0.50000000  1
  Bi  Bi0  1  0.25000000  0.25000000  0.00000000  1
  Bi  Bi1  1  0.75000000  0.75000000  0.00000000  1
loop_
_geom_bond_atom_site_label_1
_geom_bond_atom_site_label_2
_geom_bond_distance
_geom_bond_site_symmetry_2
Y0 Zn3 3.150353 1_555
Y0 Zn2 3.150353 1_444
Y0 Zn1 3.150355 1_455
Y0 Zn0 3.150355 1_544
Y1 Zn2 3.150353 1_555
Y1 Zn3 3.150353 1_554
Y1 Zn1 3.150355 1_555
Y1 Zn0 3.150355 1_554
Y2 Zn3 3.012205 1_555
Y2 Zn2 3.012205 1_545
Y2 Zn1 3.012907 1_556
Y3 Zn2 3.012205 1_555
Y3 Zn3 3.012205 1_565
Y3 Zn0 3.012907 1_554
Y4 Zn3 3.012189 1_565
Y4 Zn2 3.012189 1_555
Y4 Zn0 3.012883 1_554
Y5 Zn0 3.012197 1_555
Y5 Zn1 3.012205 1_455
Y5 Zn3 3.012881 1_555
Y6 Zn1 3.012197 1_455
Y6 Zn0 3.012205 1_555
Y6 Zn3 3.012881 1_555
Y7 Zn2 3.012189 1_545
Y7 Zn3 3.012189 1_555
Y7 Zn1 3.012883 1_556
Y8 Zn1 3.012197 1_555
Y8 Zn0 3.012205 1_655
Y8 Zn2 3.012881 1_555
Y9 Zn0 3.012197 1_655
Y9 Zn1 3.012205 1_555
Y9 Zn2 3.012881 1_555
Bi0 Y0 3.236345 1_555
Bi0 Y1 3.236345 1_555
Bi0 Y2 3.392094 1_454
Bi0 Y3 3.392094 1_555
Bi0 Y8 3.392096 1_555
Bi0 Y6 3.392096 1_554
Bi0 Y9 3.392096 1_444
Bi0 Y5 3.392096 1_555
Bi0 Y7 3.392105 1_554
Bi0 Y4 3.392105 1_545
Bi1 Y0 3.236345 1_665
Bi1 Y1 3.236345 1_555
Bi1 Y3 3.392094 1_655
Bi1 Y2 3.392094 1_554
Bi1 Y5 3.392096 1_554
Bi1 Y9 3.392096 1_555
Bi1 Y6 3.392096 1_665
Bi1 Y8 3.392096 1_554
Bi1 Y4 3.392105 1_555
Bi1 Y7 3.392105 1_564
