# generated using pymatgen
data_K2Ba(POs)6
_symmetry_space_group_name_H-M   'P 1'
_cell_length_a   8.95724828
_cell_length_b   8.95724829
_cell_length_c   6.92447616
_cell_angle_alpha   67.18508896
_cell_angle_beta   67.18509260
_cell_angle_gamma   36.84870356
_symmetry_Int_Tables_number   1
_chemical_formula_structural   K2Ba(POs)6
_chemical_formula_sum   'K2 Ba1 P6 Os6'
_cell_volume   304.07818334
_cell_formula_units_Z   1
loop_
 _symmetry_equiv_pos_site_id
 _symmetry_equiv_pos_as_xyz
  1  'x, y, z'
loop_
 _atom_site_type_symbol
 _atom_site_label
 _atom_site_symmetry_multiplicity
 _atom_site_fract_x
 _atom_site_fract_y
 _atom_site_fract_z
 _atom_site_occupancy
  K  K0  1  0.67148980  0.67148980  0.00024972  1
  K  K1  1  0.32851020  0.32851020  0.99975028  1
  Ba  Ba0  1  0.00000000  0.00000000  0.00000000  1
  P  P0  1  0.88530225  0.88530225  0.68858163  1
  P  P1  1  0.21853839  0.21853839  0.68816307  1
  P  P2  1  0.55205040  0.55205040  0.68844303  1
  P  P3  1  0.44794960  0.44794960  0.31155697  1
  P  P4  1  0.78146161  0.78146161  0.31183693  1
  P  P5  1  0.11469775  0.11469775  0.31141837  1
  Os  Os0  1  0.74987250  0.25012750  0.50000000  1
  Os  Os1  1  0.08345113  0.58345674  0.49926990  1
  Os  Os2  1  0.41654326  0.91654887  0.50073010  1
  Os  Os3  1  0.58345674  0.08345113  0.49926990  1
  Os  Os4  1  0.91654887  0.41654326  0.50073010  1
  Os  Os5  1  0.25012750  0.74987250  0.50000000  1
loop_
_geom_bond_atom_site_label_1
_geom_bond_atom_site_label_2
_geom_bond_distance
_geom_bond_site_symmetry_2
K0 P4 3.383062 1_555
K0 P0 3.384209 1_554
K0 P5 3.447989 1_655
K0 P5 3.447989 1_565
K0 P1 3.451275 1_564
K0 P1 3.451276 1_654
K0 P2 3.516447 1_554
K0 P3 3.519542 1_555
K1 P1 3.383062 1_555
K1 P5 3.384209 1_556
K1 P0 3.447989 1_455
K1 P0 3.447989 1_545
K1 P4 3.451275 1_546
K1 P4 3.451276 1_456
K1 P3 3.516447 1_556
K1 P2 3.519542 1_555
Ba0 P5 3.447692 1_555
Ba0 P0 3.447692 1_444
Ba0 P3 3.448352 1_545
Ba0 P2 3.448352 1_454
Ba0 P3 3.448353 1_455
Ba0 P2 3.448353 1_544
Ba0 P1 3.450060 1_554
Ba0 P4 3.450060 1_445
Os0 P0 2.330295 1_545
Os0 P5 2.330295 1_655
Os0 P3 2.330330 1_555
Os0 P2 2.330330 1_555
Os1 P4 2.325163 1_455
Os1 P3 2.326469 1_555
Os1 P1 2.332588 1_555
Os1 P0 2.332976 1_455
Os2 P1 2.325163 1_565
Os2 P2 2.326469 1_555
Os2 P4 2.332588 1_555
Os2 P5 2.332975 1_565
Os3 P4 2.325163 1_545
Os3 P3 2.326469 1_555
Os3 P1 2.332588 1_555
Os3 P0 2.332975 1_545
Os4 P1 2.325163 1_655
Os4 P2 2.326469 1_555
Os4 P4 2.332588 1_555
Os4 P5 2.332976 1_655
Os5 P5 2.330295 1_565
Os5 P0 2.330295 1_455
Os5 P2 2.330330 1_555
Os5 P3 2.330330 1_555
