# generated using pymatgen
data_CsHfCrS4
_symmetry_space_group_name_H-M   'P 1'
_cell_length_a   8.94026007
_cell_length_b   8.94026061
_cell_length_c   6.09204779
_cell_angle_alpha   73.40665079
_cell_angle_beta   73.40665130
_cell_angle_gamma   23.70808607
_symmetry_Int_Tables_number   1
_chemical_formula_structural   CsHfCrS4
_chemical_formula_sum   'Cs1 Hf1 Cr1 S4'
_cell_volume   187.26148335
_cell_formula_units_Z   1
loop_
 _symmetry_equiv_pos_site_id
 _symmetry_equiv_pos_as_xyz
  1  'x, y, z'
loop_
 _atom_site_type_symbol
 _atom_site_label
 _atom_site_symmetry_multiplicity
 _atom_site_fract_x
 _atom_site_fract_y
 _atom_site_fract_z
 _atom_site_occupancy
  Cs  Cs0  1  0.49857055  0.49857055  0.48065049  1
  Hf  Hf0  1  0.75256173  0.75256173  0.24366734  1
  Cr  Cr0  1  0.24826212  0.24826212  0.75860790  1
  S  S0  1  0.33740553  0.33740553  0.00712293  1
  S  S1  1  0.66727157  0.66727157  0.97749440  1
  S  S2  1  0.82811876  0.82811876  0.53862659  1
  S  S3  1  0.16780974  0.16780974  0.49383035  1
loop_
_geom_bond_atom_site_label_1
_geom_bond_atom_site_label_2
_geom_bond_distance
_geom_bond_site_symmetry_2
Cs0 S2 3.432139 1_455
Cs0 S2 3.432140 1_545
Cs0 S3 3.505530 1_655
Cs0 S3 3.505531 1_565
Cs0 S1 3.581877 1_554
Cs0 S0 3.600237 1_556
Hf0 S1 2.503873 1_554
Hf0 S2 2.522617 1_555
Hf0 S0 2.530819 1_655
Hf0 S0 2.530819 1_565
Hf0 S3 2.564335 1_565
Hf0 S3 2.564335 1_655
Cr0 S3 2.430894 1_555
Cr0 S2 2.455316 1_545
Cr0 S2 2.455316 1_455
Cr0 S1 2.461014 1_455
Cr0 S1 2.461014 1_545
Cr0 S0 2.470584 1_556
