# generated using pymatgen
data_Hf3AlNi2N
_symmetry_space_group_name_H-M   'P 1'
_cell_length_a   8.27783402
_cell_length_b   8.27783369
_cell_length_c   8.27783373
_cell_angle_alpha   59.99999594
_cell_angle_beta   59.99999724
_cell_angle_gamma   59.99999686
_symmetry_Int_Tables_number   1
_chemical_formula_structural   Hf3AlNi2N
_chemical_formula_sum   'Hf12 Al4 Ni8 N4'
_cell_volume   401.08376139
_cell_formula_units_Z   4
loop_
 _symmetry_equiv_pos_site_id
 _symmetry_equiv_pos_as_xyz
  1  'x, y, z'
loop_
 _atom_site_type_symbol
 _atom_site_label
 _atom_site_symmetry_multiplicity
 _atom_site_fract_x
 _atom_site_fract_y
 _atom_site_fract_z
 _atom_site_occupancy
  Hf  Hf0  1  0.80919786  0.19080214  0.19080214  1
  Hf  Hf1  1  0.19080214  0.80919786  0.19080214  1
  Hf  Hf2  1  0.80919786  0.80919786  0.19080214  1
  Hf  Hf3  1  0.19080214  0.80919786  0.80919786  1
  Hf  Hf4  1  0.80919786  0.19080214  0.80919786  1
  Hf  Hf5  1  0.19080214  0.19080214  0.80919786  1
  Hf  Hf6  1  0.44080214  0.05919786  0.05919786  1
  Hf  Hf7  1  0.05919786  0.44080214  0.05919786  1
  Hf  Hf8  1  0.44080214  0.44080214  0.05919786  1
  Hf  Hf9  1  0.05919786  0.44080214  0.44080214  1
  Hf  Hf10  1  0.44080214  0.05919786  0.44080214  1
  Hf  Hf11  1  0.05919786  0.05919786  0.44080214  1
  Al  Al0  1  0.62500000  0.62500000  0.12500000  1
  Al  Al1  1  0.62500000  0.62500000  0.62500000  1
  Al  Al2  1  0.12500000  0.62500000  0.62500000  1
  Al  Al3  1  0.62500000  0.12500000  0.62500000  1
  Ni  Ni0  1  0.41479948  0.41479948  0.75560157  1
  Ni  Ni1  1  0.41479948  0.41479948  0.41479948  1
  Ni  Ni2  1  0.75560157  0.41479948  0.41479948  1
  Ni  Ni3  1  0.41479948  0.75560157  0.41479948  1
  Ni  Ni4  1  0.83520052  0.83520052  0.49439843  1
  Ni  Ni5  1  0.83520052  0.83520052  0.83520052  1
  Ni  Ni6  1  0.49439843  0.83520052  0.83520052  1
  Ni  Ni7  1  0.83520052  0.49439843  0.83520052  1
  N  N0  1  0.12500000  0.12500000  0.62500000  1
  N  N1  1  0.12500000  0.12500000  0.12500000  1
  N  N2  1  0.62500000  0.12500000  0.12500000  1
  N  N3  1  0.12500000  0.62500000  0.12500000  1
loop_
_geom_bond_atom_site_label_1
_geom_bond_atom_site_label_2
_geom_bond_distance
_geom_bond_site_symmetry_2
Hf0 N1 2.208179 1_655
Hf0 N2 2.208179 1_555
Hf0 Ni4 2.745294 1_545
Hf0 Ni7 2.745294 1_554
Hf0 Ni1 2.977560 1_555
Hf0 Ni2 2.977560 1_555
Hf1 N1 2.208178 1_565
Hf1 N3 2.208179 1_555
Hf1 Ni6 2.745294 1_554
Hf1 Ni4 2.745294 1_455
Hf1 Ni1 2.977560 1_555
Hf1 Ni3 2.977560 1_555
Hf2 N2 2.208178 1_565
Hf2 N3 2.208179 1_655
Hf2 Ni5 2.745294 1_554
Hf2 Ni4 2.745294 1_555
Hf2 Ni2 2.977560 1_555
Hf2 Ni3 2.977560 1_555
Hf3 N0 2.208178 1_565
Hf3 N3 2.208178 1_556
Hf3 Ni5 2.745294 1_455
Hf3 Ni6 2.745294 1_555
Hf3 Ni0 2.977560 1_555
Hf3 Ni3 2.977560 1_555
Hf4 N2 2.208178 1_556
Hf4 N0 2.208179 1_655
Hf4 Ni5 2.745294 1_545
Hf4 Ni7 2.745294 1_555
Hf4 Ni2 2.977560 1_555
Hf4 Ni0 2.977560 1_555
Hf5 N1 2.208179 1_556
Hf5 N0 2.208179 1_555
Hf5 Ni6 2.745294 1_545
Hf5 Ni7 2.745294 1_455
Hf5 Ni1 2.977560 1_555
Hf5 Ni0 2.977560 1_555
Hf6 N1 2.208179 1_555
Hf6 N2 2.208179 1_555
Hf6 Ni0 2.745294 1_554
Hf6 Ni3 2.745294 1_545
Hf6 Ni5 2.977560 1_544
Hf6 Ni6 2.977560 1_544
Hf7 N1 2.208178 1_555
Hf7 N3 2.208179 1_555
Hf7 Ni2 2.745294 1_455
Hf7 Ni0 2.745294 1_554
Hf7 Ni5 2.977560 1_454
Hf7 Ni7 2.977560 1_454
Hf8 N2 2.208178 1_555
Hf8 N3 2.208179 1_555
Hf8 Ni1 2.745294 1_555
Hf8 Ni0 2.745294 1_554
Hf8 Ni6 2.977560 1_554
Hf8 Ni7 2.977560 1_554
Hf9 N0 2.208178 1_555
Hf9 N3 2.208178 1_555
Hf9 Ni1 2.745294 1_555
Hf9 Ni2 2.745294 1_455
Hf9 Ni4 2.977560 1_455
Hf9 Ni7 2.977560 1_455
Hf10 N2 2.208178 1_555
Hf10 N0 2.208179 1_555
Hf10 Ni1 2.745294 1_555
Hf10 Ni3 2.745294 1_545
Hf10 Ni6 2.977560 1_545
Hf10 Ni4 2.977560 1_545
Hf11 N1 2.208179 1_555
Hf11 N0 2.208179 1_555
Hf11 Ni2 2.745294 1_455
Hf11 Ni3 2.745294 1_545
Hf11 Ni5 2.977560 1_445
Hf11 Ni4 2.977560 1_445
Al0 Ni5 2.547429 1_554
Al0 Ni1 2.547429 1_555
Al0 Ni2 2.547429 1_555
Al0 Ni6 2.547429 1_554
Al0 Ni3 2.547429 1_555
Al0 Ni7 2.547429 1_554
Al0 Hf6 2.988719 1_565
Al0 Hf0 2.988719 1_555
Al0 Hf7 2.988719 1_655
Al0 Hf1 2.988719 1_555
Al0 Hf2 2.988719 1_555
Al0 Hf8 2.988719 1_555
Al1 Ni6 2.547429 1_555
Al1 Ni2 2.547429 1_555
Al1 Ni7 2.547429 1_555
Al1 Ni3 2.547429 1_555
Al1 Ni4 2.547429 1_555
Al1 Ni0 2.547429 1_555
Al1 Hf10 2.988719 1_565
Al1 Hf4 2.988719 1_555
Al1 Hf2 2.988719 1_555
Al1 Hf8 2.988719 1_556
Al1 Hf3 2.988719 1_555
Al1 Hf9 2.988719 1_655
Al2 Ni5 2.547429 1_455
Al2 Ni1 2.547429 1_555
Al2 Ni0 2.547429 1_555
Al2 Ni4 2.547429 1_455
Al2 Ni3 2.547429 1_555
Al2 Ni7 2.547429 1_455
Al2 Hf11 2.988719 1_565
Al2 Hf5 2.988719 1_555
Al2 Hf7 2.988719 1_556
Al2 Hf1 2.988719 1_555
Al2 Hf3 2.988719 1_555
Al2 Hf9 2.988719 1_555
Al3 Ni5 2.547429 1_545
Al3 Ni1 2.547429 1_555
Al3 Ni2 2.547429 1_555
Al3 Ni6 2.547429 1_545
Al3 Ni0 2.547429 1_555
Al3 Ni4 2.547429 1_545
Al3 Hf6 2.988719 1_556
Al3 Hf0 2.988719 1_555
Al3 Hf11 2.988719 1_655
Al3 Hf5 2.988719 1_555
Al3 Hf4 2.988719 1_555
Al3 Hf10 2.988719 1_555
Ni0 Ni3 2.821103 1_555
Ni0 Ni2 2.821103 1_555
Ni0 Ni1 2.821103 1_555
Ni1 Ni3 2.821103 1_555
Ni1 Ni2 2.821103 1_555
Ni2 Ni3 2.821103 1_555
Ni4 Ni7 2.821103 1_555
Ni4 Ni6 2.821103 1_555
Ni4 Ni5 2.821103 1_555
Ni5 Ni7 2.821103 1_555
Ni5 Ni6 2.821103 1_555
Ni6 Ni7 2.821103 1_555
