# generated using pymatgen
data_K4MgMnSe4
_symmetry_space_group_name_H-M   'P 1'
_cell_length_a   8.18342219
_cell_length_b   8.18356490
_cell_length_c   8.18362602
_cell_angle_alpha   133.10357882
_cell_angle_beta   128.36474460
_cell_angle_gamma   72.30366617
_symmetry_Int_Tables_number   1
_chemical_formula_structural   K4MgMnSe4
_chemical_formula_sum   'K4 Mg1 Mn1 Se4'
_cell_volume   306.75691483
_cell_formula_units_Z   1
loop_
 _symmetry_equiv_pos_site_id
 _symmetry_equiv_pos_as_xyz
  1  'x, y, z'
loop_
 _atom_site_type_symbol
 _atom_site_label
 _atom_site_symmetry_multiplicity
 _atom_site_fract_x
 _atom_site_fract_y
 _atom_site_fract_z
 _atom_site_occupancy
  K  K0  1  0.48264877  0.14478452  0.33504529  1
  K  K1  1  0.51735930  0.85239488  0.66213750  1
  K  K2  1  0.19026145  0.35520909  0.83785646  1
  K  K3  1  0.80974831  0.64759437  0.16495500  1
  Mg  Mg0  1  0.99997698  0.24997340  0.24995700  1
  Mn  Mn0  1  0.99999958  0.74998955  0.74999438  1
  Se  Se0  1  0.09286194  0.89234902  0.19649742  1
  Se  Se1  1  0.90715096  0.10363939  0.79949745  1
  Se  Se2  1  0.30417359  0.60769413  0.70055848  1
  Se  Se3  1  0.69581911  0.39637266  0.30350301  1
loop_
_geom_bond_atom_site_label_1
_geom_bond_atom_site_label_2
_geom_bond_distance
_geom_bond_site_symmetry_2
K0 Se3 3.289014 1_555
K0 Se1 3.357920 1_555
K0 Se2 3.422291 1_544
K0 Se2 3.464794 1_555
K0 Se0 3.470373 1_545
K1 Se2 3.289052 1_555
K1 Se0 3.357895 1_555
K1 Se3 3.422323 1_555
K1 Se3 3.464699 1_566
K1 Se1 3.470393 1_565
K2 Se1 3.289112 1_455
K2 Se3 3.357653 1_556
K2 Se0 3.422598 1_556
K2 Se0 3.464606 1_545
K2 Se2 3.470546 1_555
K3 Se0 3.289144 1_655
K3 Se2 3.357764 1_554
K3 Se1 3.422616 1_565
K3 Se1 3.464581 1_554
K3 Se3 3.470539 1_555
Mg0 Se1 2.577676 1_554
Mg0 Se0 2.577782 1_645
Mg0 Se3 2.578040 1_555
Mg0 Se2 2.578228 1_655
Mn0 Se2 2.561204 1_655
Mn0 Se3 2.561234 1_555
Mn0 Se0 2.561276 1_656
Mn0 Se1 2.561301 1_565
