# generated using pymatgen
data_CaSn6(IrRu)2
_symmetry_space_group_name_H-M   'P 1'
_cell_length_a   6.91673649
_cell_length_b   6.91673661
_cell_length_c   6.92784085
_cell_angle_alpha   119.96221712
_cell_angle_beta   119.96221683
_cell_angle_gamma   89.97356684
_symmetry_Int_Tables_number   1
_chemical_formula_structural   CaSn6(IrRu)2
_chemical_formula_sum   'Ca1 Sn6 Ir2 Ru2'
_cell_volume   234.68226427
_cell_formula_units_Z   1
loop_
 _symmetry_equiv_pos_site_id
 _symmetry_equiv_pos_as_xyz
  1  'x, y, z'
loop_
 _atom_site_type_symbol
 _atom_site_label
 _atom_site_symmetry_multiplicity
 _atom_site_fract_x
 _atom_site_fract_y
 _atom_site_fract_z
 _atom_site_occupancy
  Ca  Ca0  1  0.00036781  0.00036781  0.00073562  1
  Sn  Sn0  1  0.46550265  0.46550265  0.58809973  1
  Sn  Sn1  1  0.12259708  0.12259708  0.58809973  1
  Sn  Sn2  1  0.88427913  0.52825818  0.41253631  1
  Sn  Sn3  1  0.52825818  0.88427913  0.41253631  1
  Sn  Sn4  1  0.99485134  0.49485134  0.98970269  1
  Sn  Sn5  1  0.49485134  0.99485134  0.98970269  1
  Ir  Ir0  1  0.40881946  0.40881946  0.16434723  1
  Ir  Ir1  1  0.75552776  0.75552776  0.16434723  1
  Ru  Ru0  1  0.25336638  0.59157785  0.84494524  1
  Ru  Ru1  1  0.59157785  0.25336638  0.84494524  1
loop_
_geom_bond_atom_site_label_1
_geom_bond_atom_site_label_2
_geom_bond_distance
_geom_bond_site_symmetry_2
Ca0 Ir1 3.295139 1_445
Ca0 Ir0 3.295139 1_555
Ca0 Ru1 3.324992 1_454
Ca0 Ru0 3.324992 1_544
Ca0 Sn1 3.334029 1_555
Ca0 Sn0 3.334030 1_555
Ca0 Sn3 3.369860 1_444
Ca0 Sn2 3.369860 1_444
Ca0 Sn5 3.458792 1_544
Ca0 Sn5 3.458792 1_444
Ca0 Sn4 3.458792 1_454
Ca0 Sn4 3.458792 1_444
Ca0 Sn3 3.741146 1_545
Ca0 Sn2 3.741146 1_455
Ca0 Sn1 3.798719 1_554
Ca0 Sn0 3.798720 1_444
Ir0 Sn0 2.574204 1_555
Ir0 Sn4 2.696980 1_454
Ir0 Sn5 2.696980 1_544
Ir0 Sn2 2.718377 1_555
Ir0 Sn3 2.718377 1_555
Ir0 Sn1 2.826808 1_554
Ir0 Ru1 2.840168 1_554
Ir0 Ru0 2.840168 1_554
Ir1 Sn1 2.574204 1_665
Ir1 Sn4 2.696980 1_554
Ir1 Sn5 2.696980 1_554
Ir1 Sn3 2.718370 1_555
Ir1 Sn2 2.718370 1_555
Ir1 Sn0 2.826808 1_554
Ir1 Ru0 2.840174 1_554
Ir1 Ru1 2.840175 1_554
Ru0 Sn2 2.595130 1_455
Ru0 Sn4 2.667016 1_455
Ru0 Sn5 2.667026 1_555
Ru0 Sn1 2.671397 1_555
Ru0 Sn0 2.671403 1_555
Ru0 Sn3 2.785645 1_556
Ru1 Sn3 2.595130 1_545
Ru1 Sn5 2.667016 1_545
Ru1 Sn4 2.667026 1_555
Ru1 Sn1 2.671397 1_555
Ru1 Sn0 2.671403 1_555
Ru1 Sn2 2.785645 1_556
