# generated using pymatgen
data_Zr5Ta(TiSi)6
_symmetry_space_group_name_H-M   'P 1'
_cell_length_a   7.88339499
_cell_length_b   7.88404064
_cell_length_c   7.88339362
_cell_angle_alpha   127.39239245
_cell_angle_beta   124.44312361
_cell_angle_gamma   80.04388815
_symmetry_Int_Tables_number   1
_chemical_formula_structural   Zr5Ta(TiSi)6
_chemical_formula_sum   'Zr5 Ta1 Ti6 Si6'
_cell_volume   309.96846131
_cell_formula_units_Z   1
loop_
 _symmetry_equiv_pos_site_id
 _symmetry_equiv_pos_as_xyz
  1  'x, y, z'
loop_
 _atom_site_type_symbol
 _atom_site_label
 _atom_site_symmetry_multiplicity
 _atom_site_fract_x
 _atom_site_fract_y
 _atom_site_fract_z
 _atom_site_occupancy
  Zr  Zr0  1  0.95285304  0.91190514  0.45905310  1
  Zr  Zr1  1  0.04543775  0.50078567  0.95534691  1
  Zr  Zr2  1  0.54716315  0.50618863  0.45902348  1
  Zr  Zr3  1  0.45453580  0.90983827  0.95530247  1
  Zr  Zr4  1  0.74999086  0.09655985  0.84656898  1
  Ta  Ta0  1  0.24995131  0.09813977  0.34818846  1
  Ti  Ti0  1  0.49443330  0.75185494  0.24634024  1
  Ti  Ti1  1  0.00551470  0.75185494  0.75742164  1
  Ti  Ti2  1  0.87561181  0.25328050  0.37812684  1
  Ti  Ti3  1  0.12502684  0.50246429  0.37810416  1
  Ti  Ti4  1  0.37515266  0.25328050  0.87766769  1
  Ti  Ti5  1  0.62436013  0.50246429  0.87743945  1
  Si  Si0  1  0.75012878  0.50532256  0.25519278  1
  Si  Si1  1  0.25004597  0.49445498  0.74441001  1
  Si  Si2  1  0.65894321  0.16886303  0.49975563  1
  Si  Si3  1  0.33080754  0.84083981  0.49990407  1
  Si  Si4  1  0.16910740  0.16886303  0.00992082  1
  Si  Si5  1  0.84093474  0.84083981  0.01003227  1
loop_
_geom_bond_atom_site_label_1
_geom_bond_atom_site_label_2
_geom_bond_distance
_geom_bond_site_symmetry_2
Ti0 Zr4 3.053867 1_565
Ti0 Zr1 3.071180 1_554
Ti0 Zr3 3.071400 1_554
Ti0 Zr2 3.100437 1_555
Ti0 Zr0 3.101023 1_555
Ti1 Zr4 3.053868 1_465
Ti1 Zr1 3.071175 1_555
Ti1 Zr3 3.071401 1_555
Ti1 Zr2 3.100446 1_455
Ti1 Zr0 3.101019 1_455
Ti2 Zr3 3.015199 1_544
Ti2 Zr0 3.016757 1_545
Ti2 Zr4 3.083475 1_554
Ti2 Zr1 3.087766 1_655
Ti2 Zr2 3.102441 1_555
Ti3 Zr1 3.014145 1_554
Ti3 Zr2 3.015321 1_555
Ti3 Zr4 3.084156 1_454
Ti3 Zr3 3.087525 1_555
Ti3 Zr0 3.103648 1_455
Ti4 Zr3 3.015203 1_545
Ti4 Zr0 3.016748 1_445
Ti4 Zr4 3.083480 1_555
Ti4 Zr1 3.087767 1_555
Ti4 Zr2 3.102436 1_556
Ti5 Zr1 3.014147 1_655
Ti5 Zr2 3.015345 1_555
Ti5 Zr4 3.084150 1_555
Ti5 Zr3 3.087529 1_555
Ti5 Zr0 3.103646 1_556
Si0 Ti5 2.537360 1_554
Si0 Ti3 2.537380 1_655
Si0 Ti2 2.537947 1_555
Si0 Ti4 2.537947 1_554
Si0 Ti0 2.548884 1_555
Si0 Ti1 2.548889 1_655
Si0 Zr0 2.832223 1_555
Si0 Zr2 2.834351 1_555
Si0 Zr4 2.855073 1_554
Si1 Ti5 2.508952 1_555
Si1 Ti3 2.508961 1_555
Si1 Ti4 2.509447 1_555
Si1 Ti2 2.509458 1_455
Si1 Ti0 2.542252 1_556
Si1 Ti1 2.542258 1_555
Si1 Ta0 2.768410 1_555
Si1 Zr3 2.875561 1_555
Si1 Zr1 2.876628 1_555
Si2 Ti5 2.648805 1_555
Si2 Ti0 2.654892 1_545
Si2 Ti2 2.701981 1_555
Si2 Ta0 2.754804 1_555
Si2 Zr4 2.801220 1_555
Si2 Zr3 2.803214 1_544
Si2 Zr2 2.803437 1_555
Si2 Zr1 2.827436 1_655
Si2 Zr0 2.829133 1_545
Si3 Ti4 2.649282 1_565
Si3 Ti0 2.655640 1_555
Si3 Ti3 2.700739 1_555
Si3 Ta0 2.754837 1_565
Si3 Zr4 2.801757 1_565
Si3 Zr0 2.802125 1_455
Si3 Zr1 2.803674 1_554
Si3 Zr3 2.826031 1_555
Si3 Zr2 2.829691 1_555
Si4 Ti3 2.648791 1_555
Si4 Ti1 2.654890 1_544
Si4 Ti4 2.701988 1_554
Si4 Ta0 2.754796 1_555
Si4 Zr4 2.801218 1_454
Si4 Zr3 2.803216 1_544
Si4 Zr2 2.803427 1_555
Si4 Zr1 2.827445 1_554
Si4 Zr0 2.829133 1_444
Si5 Ti2 2.649280 1_565
Si5 Ti1 2.655647 1_654
Si5 Ti5 2.700744 1_554
Si5 Ta0 2.754843 1_665
Si5 Zr4 2.801757 1_564
Si5 Zr0 2.802126 1_555
Si5 Zr1 2.803673 1_654
Si5 Zr3 2.826024 1_554
Si5 Zr2 2.829699 1_554
