# generated using pymatgen
data_TcOsO6
_symmetry_space_group_name_H-M   'P 1'
_cell_length_a   5.28307741
_cell_length_b   5.28307771
_cell_length_c   5.28307672
_cell_angle_alpha   59.99562217
_cell_angle_beta   59.99561734
_cell_angle_gamma   59.99563842
_symmetry_Int_Tables_number   1
_chemical_formula_structural   TcOsO6
_chemical_formula_sum   'Tc1 Os1 O6'
_cell_volume   104.25642305
_cell_formula_units_Z   1
loop_
 _symmetry_equiv_pos_site_id
 _symmetry_equiv_pos_as_xyz
  1  'x, y, z'
loop_
 _atom_site_type_symbol
 _atom_site_label
 _atom_site_symmetry_multiplicity
 _atom_site_fract_x
 _atom_site_fract_y
 _atom_site_fract_z
 _atom_site_occupancy
  Tc  Tc0  1  0.00000000  0.00000000  0.00000000  1
  Os  Os0  1  0.50000000  0.50000000  0.50000000  1
  O  O0  1  0.25524590  0.75044535  0.24386223  1
  O  O1  1  0.24955465  0.75613777  0.74475410  1
  O  O2  1  0.75613777  0.74475410  0.24955465  1
  O  O3  1  0.24386223  0.25524590  0.75044535  1
  O  O4  1  0.75044535  0.24386223  0.25524590  1
  O  O5  1  0.74475410  0.24955465  0.75613777  1
loop_
_geom_bond_atom_site_label_1
_geom_bond_atom_site_label_2
_geom_bond_distance
_geom_bond_site_symmetry_2
O0 Tc0 1.864699 1_565
O0 Os0 1.871362 1_555
O1 Tc0 1.864699 1_566
O1 Os0 1.871361 1_555
O2 Tc0 1.864699 1_665
O2 Os0 1.871361 1_555
O3 Tc0 1.864699 1_556
O3 Os0 1.871361 1_555
O4 Tc0 1.864699 1_655
O4 Os0 1.871361 1_555
O5 Tc0 1.864699 1_656
O5 Os0 1.871362 1_555
