# generated using pymatgen
data_Ba(NdS2)2
_symmetry_space_group_name_H-M   'P 1'
_cell_length_a   7.67853872
_cell_length_b   7.67853872
_cell_length_c   7.67853872
_cell_angle_alpha   109.46163183
_cell_angle_beta   109.46163183
_cell_angle_gamma   109.49039995
_symmetry_Int_Tables_number   1
_chemical_formula_structural   Ba(NdS2)2
_chemical_formula_sum   'Ba2 Nd4 S8'
_cell_volume   348.50884765
_cell_formula_units_Z   2
loop_
 _symmetry_equiv_pos_site_id
 _symmetry_equiv_pos_as_xyz
  1  'x, y, z'
loop_
 _atom_site_type_symbol
 _atom_site_label
 _atom_site_symmetry_multiplicity
 _atom_site_fract_x
 _atom_site_fract_y
 _atom_site_fract_z
 _atom_site_occupancy
  Ba  Ba0  1  0.25000000  0.75000000  0.50000000  1
  Ba  Ba1  1  0.00000000  0.00000000  0.00000000  1
  Nd  Nd0  1  0.62500000  0.25353700  0.12853700  1
  Nd  Nd1  1  0.50353700  0.37500000  0.62853700  1
  Nd  Nd2  1  0.12500000  0.49646300  0.87146300  1
  Nd  Nd3  1  0.74646300  0.87500000  0.37146300  1
  S  S0  1  0.73272100  0.14257200  0.74531900  1
  S  S1  1  0.01259700  0.26727900  0.40985100  1
  S  S2  1  0.39257200  0.48272100  0.24531900  1
  S  S3  1  0.85274600  0.60742800  0.09014900  1
  S  S4  1  0.51727900  0.76259700  0.90985100  1
  S  S5  1  0.85742800  0.60274600  0.59014900  1
  S  S6  1  0.39725400  0.98740300  0.25468100  1
  S  S7  1  0.23740300  0.14725400  0.75468100  1
loop_
_geom_bond_atom_site_label_1
_geom_bond_atom_site_label_2
_geom_bond_distance
_geom_bond_site_symmetry_2
Ba0 S2 3.079965 1_555
Ba0 S7 3.079967 1_565
Ba0 S4 3.079969 1_555
Ba0 S3 3.079969 1_455
Ba0 S0 3.237541 1_565
Ba0 S1 3.237542 1_555
Ba0 S5 3.237542 1_455
Ba0 S6 3.237548 1_555
Ba1 S0 3.079965 1_454
Ba1 S6 3.079967 1_545
Ba1 S1 3.079969 1_555
Ba1 S5 3.079969 1_444
Ba1 S2 3.237541 1_555
Ba1 S4 3.237542 1_444
Ba1 S3 3.237542 1_445
Ba1 S7 3.237548 1_554
Nd0 S6 2.869719 1_545
Nd0 S3 2.869725 1_555
Nd0 S1 2.981519 1_655
Nd0 S7 2.981523 1_554
Nd0 S5 3.032629 1_555
Nd0 S2 3.032631 1_555
Nd0 S0 3.238861 1_554
Nd0 S4 3.238868 1_544
Nd1 S7 2.869719 1_555
Nd1 S5 2.869725 1_555
Nd1 S4 2.981519 1_555
Nd1 S6 2.981523 1_545
Nd1 S3 3.032629 1_556
Nd1 S0 3.032631 1_555
Nd1 S2 3.238861 1_555
Nd1 S1 3.238868 1_555
Nd2 S4 2.869725 1_555
Nd2 S0 2.869728 1_455
Nd2 S5 2.981519 1_455
Nd2 S2 2.981524 1_556
Nd2 S1 3.032629 1_555
Nd2 S7 3.032629 1_555
Nd2 S6 3.238865 1_556
Nd2 S3 3.238868 1_456
Nd3 S1 2.869725 1_665
Nd3 S2 2.869728 1_555
Nd3 S3 2.981519 1_555
Nd3 S0 2.981524 1_565
Nd3 S4 3.032629 1_554
Nd3 S6 3.032629 1_555
Nd3 S7 3.238865 1_665
Nd3 S5 3.238868 1_555
