# generated using pymatgen
data_CsSc(NbCl3)6
_symmetry_space_group_name_H-M   'P 1'
_cell_length_a   10.07314350
_cell_length_b   10.07314307
_cell_length_c   10.07314390
_cell_angle_alpha   55.74909858
_cell_angle_beta   55.74909941
_cell_angle_gamma   55.74909910
_symmetry_Int_Tables_number   1
_chemical_formula_structural   CsSc(NbCl3)6
_chemical_formula_sum   'Cs1 Sc1 Nb6 Cl18'
_cell_volume   651.48112994
_cell_formula_units_Z   1
loop_
 _symmetry_equiv_pos_site_id
 _symmetry_equiv_pos_as_xyz
  1  'x, y, z'
loop_
 _atom_site_type_symbol
 _atom_site_label
 _atom_site_symmetry_multiplicity
 _atom_site_fract_x
 _atom_site_fract_y
 _atom_site_fract_z
 _atom_site_occupancy
  Cs  Cs0  1  0.22444275  0.22444275  0.22444275  1
  Sc  Sc0  1  0.49852427  0.49852427  0.49852427  1
  Nb  Nb0  1  0.80373596  0.15176430  0.90371000  1
  Nb  Nb1  1  0.90371000  0.80373596  0.15176430  1
  Nb  Nb2  1  0.15176430  0.90371000  0.80373596  1
  Nb  Nb3  1  0.19736264  0.84851405  0.09467491  1
  Nb  Nb4  1  0.09467491  0.19736264  0.84851405  1
  Nb  Nb5  1  0.84851405  0.09467491  0.19736264  1
  Cl  Cl0  1  0.87682783  0.41259870  0.71265060  1
  Cl  Cl1  1  0.71265060  0.87682783  0.41259870  1
  Cl  Cl2  1  0.41259870  0.71265060  0.87682783  1
  Cl  Cl3  1  0.12184144  0.58798942  0.28977024  1
  Cl  Cl4  1  0.28977024  0.12184144  0.58798942  1
  Cl  Cl5  1  0.58798942  0.28977024  0.12184144  1
  Cl  Cl6  1  0.54102887  0.34727076  0.78405880  1
  Cl  Cl7  1  0.78405880  0.54102887  0.34727076  1
  Cl  Cl8  1  0.34727076  0.78405880  0.54102887  1
  Cl  Cl9  1  0.45672741  0.65454386  0.21750765  1
  Cl  Cl10  1  0.21750765  0.45672741  0.65454386  1
  Cl  Cl11  1  0.65454386  0.21750765  0.45672741  1
  Cl  Cl12  1  0.65638147  0.94505365  0.06470450  1
  Cl  Cl13  1  0.06470450  0.65638147  0.94505365  1
  Cl  Cl14  1  0.94505365  0.06470450  0.65638147  1
  Cl  Cl15  1  0.34802726  0.05236083  0.92906684  1
  Cl  Cl16  1  0.92906684  0.34802726  0.05236083  1
  Cl  Cl17  1  0.05236083  0.92906684  0.34802726  1
loop_
_geom_bond_atom_site_label_1
_geom_bond_atom_site_label_2
_geom_bond_distance
_geom_bond_site_symmetry_2
Cl0 Nb0 2.457631 1_555
Cl0 Nb4 2.464581 1_655
Cl1 Nb1 2.457631 1_555
Cl1 Nb5 2.464581 1_565
Cl2 Nb2 2.457631 1_555
Cl2 Nb3 2.464581 1_556
Cl3 Nb3 2.467159 1_555
Cl3 Nb1 2.479106 1_455
Cl3 Cs0 3.549448 1_555
Cl4 Nb4 2.467159 1_555
Cl4 Nb2 2.479106 1_545
Cl4 Cs0 3.549449 1_555
Cl5 Nb5 2.467159 1_555
Cl5 Nb0 2.479106 1_554
Cl5 Cs0 3.549449 1_555
Cl6 Sc0 2.548820 1_555
Cl6 Nb0 2.717721 1_555
Cl6 Cs0 3.703846 1_556
Cl7 Sc0 2.548820 1_555
Cl7 Nb1 2.717721 1_555
Cl7 Cs0 3.703846 1_655
Cl8 Sc0 2.548820 1_555
Cl8 Nb2 2.717721 1_555
Cl8 Cs0 3.703846 1_565
Cl9 Sc0 2.499841 1_555
Cl9 Nb3 2.710303 1_555
Cl10 Sc0 2.499841 1_555
Cl10 Nb4 2.710303 1_555
Cl11 Sc0 2.499841 1_555
Cl11 Nb5 2.710303 1_555
Cl12 Nb1 2.462615 1_555
Cl12 Nb0 2.477345 1_564
Cl12 Cs0 3.588013 1_565
Cl13 Nb2 2.462615 1_555
Cl13 Nb1 2.477345 1_456
Cl13 Cs0 3.588013 1_556
Cl14 Nb0 2.462615 1_555
Cl14 Nb2 2.477345 1_645
Cl14 Cs0 3.588013 1_655
Cl15 Nb3 2.470785 1_546
Cl15 Nb4 2.470985 1_555
Cl15 Cs0 3.551671 1_556
Cl16 Nb4 2.470785 1_654
Cl16 Nb5 2.470985 1_555
Cl16 Cs0 3.551671 1_655
Cl17 Nb5 2.470785 1_465
Cl17 Nb3 2.470985 1_555
Cl17 Cs0 3.551671 1_565
