# generated using pymatgen
data_Ba(TcP)2
_symmetry_space_group_name_H-M   'P 1'
_cell_length_a   6.88784193
_cell_length_b   6.88784255
_cell_length_c   6.88784283
_cell_angle_alpha   145.86390113
_cell_angle_beta   145.86390354
_cell_angle_gamma   49.04895863
_symmetry_Int_Tables_number   1
_chemical_formula_structural   Ba(TcP)2
_chemical_formula_sum   'Ba1 Tc2 P2'
_cell_volume   102.44379413
_cell_formula_units_Z   1
loop_
 _symmetry_equiv_pos_site_id
 _symmetry_equiv_pos_as_xyz
  1  'x, y, z'
loop_
 _atom_site_type_symbol
 _atom_site_label
 _atom_site_symmetry_multiplicity
 _atom_site_fract_x
 _atom_site_fract_y
 _atom_site_fract_z
 _atom_site_occupancy
  Ba  Ba0  1  0.00000000  0.00000000  0.00000000  1
  Tc  Tc0  1  0.75000000  0.25000000  0.50000000  1
  Tc  Tc1  1  0.25000000  0.75000000  0.50000000  1
  P  P0  1  0.65413603  0.65413603  0.00000000  1
  P  P1  1  0.34586397  0.34586397  1.00000000  1
loop_
_geom_bond_atom_site_label_1
_geom_bond_atom_site_label_2
_geom_bond_distance
_geom_bond_site_symmetry_2
Ba0 P1 3.450468 1_443
Ba0 P0 3.450468 1_556
Ba0 P1 3.450468 1_454
Ba0 P0 3.450468 1_545
Ba0 P1 3.450468 1_544
Ba0 P0 3.450468 1_455
Ba0 P1 3.450469 1_555
Ba0 P0 3.450469 1_444
P0 Tc1 2.351698 1_655
P0 Tc0 2.351698 1_565
P0 Tc1 2.351699 1_554
P0 Tc0 2.351699 1_554
P1 Tc0 2.351698 1_455
P1 Tc1 2.351698 1_545
P1 Tc0 2.351699 1_556
P1 Tc1 2.351699 1_556
