# generated using pymatgen
data_Bi2IrRhSe2
_symmetry_space_group_name_H-M   'P 1'
_cell_length_a   6.34413472
_cell_length_b   6.34364514
_cell_length_c   6.34396879
_cell_angle_alpha   89.82438429
_cell_angle_beta   90.00000000
_cell_angle_gamma   90.00000000
_symmetry_Int_Tables_number   1
_chemical_formula_structural   Bi2IrRhSe2
_chemical_formula_sum   'Bi4 Ir2 Rh2 Se4'
_cell_volume   255.31143994
_cell_formula_units_Z   2
loop_
 _symmetry_equiv_pos_site_id
 _symmetry_equiv_pos_as_xyz
  1  'x, y, z'
loop_
 _atom_site_type_symbol
 _atom_site_label
 _atom_site_symmetry_multiplicity
 _atom_site_fract_x
 _atom_site_fract_y
 _atom_site_fract_z
 _atom_site_occupancy
  Bi  Bi0  1  0.12929491  0.62951006  0.86858853  1
  Bi  Bi1  1  0.62929491  0.87048994  0.13141147  1
  Bi  Bi2  1  0.86978255  0.12988982  0.62774645  1
  Bi  Bi3  1  0.36978255  0.37011018  0.37225355  1
  Ir  Ir0  1  0.51290412  0.48658925  0.98830700  1
  Ir  Ir1  1  0.01290412  0.01341075  0.01169300  1
  Rh  Rh0  1  0.48687999  0.98739326  0.51397091  1
  Rh  Rh1  1  0.98687999  0.51260674  0.48602909  1
  Se  Se0  1  0.87917897  0.37710673  0.11946878  1
  Se  Se1  1  0.37917897  0.12289327  0.88053122  1
  Se  Se2  1  0.12195946  0.88042912  0.37636597  1
  Se  Se3  1  0.62195946  0.61957088  0.62363403  1
loop_
_geom_bond_atom_site_label_1
_geom_bond_atom_site_label_2
_geom_bond_distance
_geom_bond_site_symmetry_2
Bi0 Rh1 2.695806 1_455
Bi0 Ir1 2.704405 1_566
Bi0 Ir0 2.705058 1_555
Bi0 Se0 2.756635 1_456
Bi1 Rh0 2.695806 1_555
Bi1 Ir0 2.704405 1_554
Bi1 Ir1 2.705058 1_665
Bi1 Se1 2.756635 1_564
Bi2 Rh1 2.690929 1_555
Bi2 Rh0 2.691290 1_545
Bi2 Ir1 2.700413 1_656
Bi2 Se2 2.760883 1_645
Bi3 Rh0 2.690929 1_545
Bi3 Rh1 2.691290 1_455
Bi3 Ir0 2.700413 1_554
Bi3 Se3 2.760883 1_555
Ir0 Se1 2.553402 1_555
Ir0 Se3 2.555487 1_555
Ir0 Se0 2.563347 1_556
Ir1 Se0 2.553402 1_455
Ir1 Se2 2.555487 1_545
Ir1 Se1 2.563347 1_554
Rh0 Se2 2.566286 1_555
Rh0 Se1 2.574037 1_565
Rh0 Se3 2.579318 1_555
Rh1 Se3 2.566286 1_555
Rh1 Se0 2.574037 1_555
Rh1 Se2 2.579318 1_655
