# generated using pymatgen
data_CaSi2RuRh
_symmetry_space_group_name_H-M   'P 1'
_cell_length_a   5.69986981
_cell_length_b   5.69986949
_cell_length_c   5.69986905
_cell_angle_alpha   137.39390275
_cell_angle_beta   137.39389649
_cell_angle_gamma   61.83254827
_symmetry_Int_Tables_number   1
_chemical_formula_structural   CaSi2RuRh
_chemical_formula_sum   'Ca1 Si2 Ru1 Rh1'
_cell_volume   83.87524190
_cell_formula_units_Z   1
loop_
 _symmetry_equiv_pos_site_id
 _symmetry_equiv_pos_as_xyz
  1  'x, y, z'
loop_
 _atom_site_type_symbol
 _atom_site_label
 _atom_site_symmetry_multiplicity
 _atom_site_fract_x
 _atom_site_fract_y
 _atom_site_fract_z
 _atom_site_occupancy
  Ca  Ca0  1  0.00000000  0.00000000  0.00000000  1
  Si  Si0  1  0.63217309  0.63217309  1.00000000  1
  Si  Si1  1  0.36782691  0.36782691  0.00000000  1
  Ru  Ru0  1  0.75000000  0.25000000  0.50000000  1
  Rh  Rh0  1  0.25000000  0.75000000  0.50000000  1
loop_
_geom_bond_atom_site_label_1
_geom_bond_atom_site_label_2
_geom_bond_distance
_geom_bond_site_symmetry_2
Ca0 Si0 3.201113 1_443
Ca0 Si1 3.201113 1_556
Ca0 Si0 3.201113 1_454
Ca0 Si1 3.201113 1_545
Ca0 Si0 3.201113 1_555
Ca0 Si1 3.201113 1_444
Ca0 Si0 3.201113 1_544
Ca0 Si1 3.201113 1_455
Ca0 Rh0 3.204086 1_544
Ca0 Ru0 3.204086 1_455
Ca0 Ru0 3.204086 1_454
Ca0 Rh0 3.204086 1_545
Ca0 Ru0 3.204086 1_444
Ca0 Rh0 3.204086 1_555
Ca0 Ru0 3.204086 1_555
Ca0 Rh0 3.204086 1_444
Ru0 Si0 2.369809 1_555
Ru0 Si0 2.369809 1_544
Ru0 Si1 2.369809 1_555
Ru0 Si1 2.369809 1_656
Rh0 Si1 2.369809 1_555
Rh0 Si1 2.369809 1_566
Rh0 Si0 2.369809 1_555
Rh0 Si0 2.369809 1_454
