# generated using pymatgen
data_Y11In9Rh3Au
_symmetry_space_group_name_H-M   'P 1'
_cell_length_a   26.28637382
_cell_length_b   26.29096177
_cell_length_c   7.38360259
_cell_angle_alpha   90.00000000
_cell_angle_beta   90.00000000
_cell_angle_gamma   112.57166318
_symmetry_Int_Tables_number   1
_chemical_formula_structural   Y11In9Rh3Au
_chemical_formula_sum   'Y88 In72 Rh24 Au8'
_cell_volume   4711.89295144
_cell_formula_units_Z   8
loop_
 _symmetry_equiv_pos_site_id
 _symmetry_equiv_pos_as_xyz
  1  'x, y, z'
loop_
 _atom_site_type_symbol
 _atom_site_label
 _atom_site_symmetry_multiplicity
 _atom_site_fract_x
 _atom_site_fract_y
 _atom_site_fract_z
 _atom_site_occupancy
  Y  Y0_0  1  0.03422097  0.20662219  0.00000000  1
  Y  Y0_1  1  0.03422097  0.20662219  0.50000000  1
  Y  Y0_2  1  0.03422097  0.70662219  0.00000000  1
  Y  Y0_3  1  0.03422097  0.70662219  0.50000000  1
  Y  Y0_4  1  0.53422097  0.20662219  0.00000000  1
  Y  Y0_5  1  0.53422097  0.20662219  0.50000000  1
  Y  Y0_6  1  0.53422097  0.70662219  0.00000000  1
  Y  Y0_7  1  0.53422097  0.70662219  0.50000000  1
  Y  Y1_0  1  0.46046056  0.29234327  0.00000000  1
  Y  Y1_1  1  0.46046056  0.29234327  0.50000000  1
  Y  Y1_2  1  0.46046056  0.79234327  0.00000000  1
  Y  Y1_3  1  0.46046056  0.79234327  0.50000000  1
  Y  Y1_4  1  0.96046056  0.29234327  0.00000000  1
  Y  Y1_5  1  0.96046056  0.29234327  0.50000000  1
  Y  Y1_6  1  0.96046056  0.79234327  0.00000000  1
  Y  Y1_7  1  0.96046056  0.79234327  0.50000000  1
  Y  Y2_0  1  0.20819733  0.03837103  0.00000000  1
  Y  Y2_1  1  0.20819733  0.03837103  0.50000000  1
  Y  Y2_2  1  0.20819733  0.53837103  0.00000000  1
  Y  Y2_3  1  0.20819733  0.53837103  0.50000000  1
  Y  Y2_4  1  0.70819733  0.03837103  0.00000000  1
  Y  Y2_5  1  0.70819733  0.03837103  0.50000000  1
  Y  Y2_6  1  0.70819733  0.53837103  0.00000000  1
  Y  Y2_7  1  0.70819733  0.53837103  0.50000000  1
  Y  Y3_0  1  0.29290739  0.46154371  0.00000000  1
  Y  Y3_1  1  0.29290739  0.46154371  0.50000000  1
  Y  Y3_2  1  0.29290739  0.96154371  0.00000000  1
  Y  Y3_3  1  0.29290739  0.96154371  0.50000000  1
  Y  Y3_4  1  0.79290739  0.46154371  0.00000000  1
  Y  Y3_5  1  0.79290739  0.46154371  0.50000000  1
  Y  Y3_6  1  0.79290739  0.96154371  0.00000000  1
  Y  Y3_7  1  0.79290739  0.96154371  0.50000000  1
  Y  Y4_0  1  0.31293540  0.18736025  0.00000000  1
  Y  Y4_1  1  0.31293540  0.18736025  0.50000000  1
  Y  Y4_2  1  0.31293540  0.68736025  0.00000000  1
  Y  Y4_3  1  0.31293540  0.68736025  0.50000000  1
  Y  Y4_4  1  0.81293540  0.18736025  0.00000000  1
  Y  Y4_5  1  0.81293540  0.18736025  0.50000000  1
  Y  Y4_6  1  0.81293540  0.68736025  0.00000000  1
  Y  Y4_7  1  0.81293540  0.68736025  0.50000000  1
  Y  Y5_0  1  0.19095841  0.31731272  0.00000000  1
  Y  Y5_1  1  0.19095841  0.31731272  0.50000000  1
  Y  Y5_2  1  0.19095841  0.81731272  0.00000000  1
  Y  Y5_3  1  0.19095841  0.81731272  0.50000000  1
  Y  Y5_4  1  0.69095841  0.31731272  0.00000000  1
  Y  Y5_5  1  0.69095841  0.31731272  0.50000000  1
  Y  Y5_6  1  0.69095841  0.81731272  0.00000000  1
  Y  Y5_7  1  0.69095841  0.81731272  0.50000000  1
  Y  Y6_0  1  0.41853163  0.08063290  0.00000000  1
  Y  Y6_1  1  0.41853163  0.08063290  0.50000000  1
  Y  Y6_2  1  0.41853163  0.58063290  0.00000000  1
  Y  Y6_3  1  0.41853163  0.58063290  0.50000000  1
  Y  Y6_4  1  0.91853163  0.08063290  0.00000000  1
  Y  Y6_5  1  0.91853163  0.08063290  0.50000000  1
  Y  Y6_6  1  0.91853163  0.58063290  0.00000000  1
  Y  Y6_7  1  0.91853163  0.58063290  0.50000000  1
  Y  Y7_0  1  0.08131888  0.41994306  0.00000000  1
  Y  Y7_1  1  0.08131888  0.41994306  0.50000000  1
  Y  Y7_2  1  0.08131888  0.91994306  0.00000000  1
  Y  Y7_3  1  0.08131888  0.91994306  0.50000000  1
  Y  Y7_4  1  0.58131888  0.41994306  0.00000000  1
  Y  Y7_5  1  0.58131888  0.41994306  0.50000000  1
  Y  Y7_6  1  0.58131888  0.91994306  0.00000000  1
  Y  Y7_7  1  0.58131888  0.91994306  0.50000000  1
  Y  Y8_0  1  0.00009292  0.49965626  0.00000000  1
  Y  Y8_1  1  0.00009292  0.49965626  0.50000000  1
  Y  Y8_2  1  0.00009292  0.99965626  0.00000000  1
  Y  Y8_3  1  0.00009292  0.99965626  0.50000000  1
  Y  Y8_4  1  0.50009292  0.49965626  0.00000000  1
  Y  Y8_5  1  0.50009292  0.49965626  0.50000000  1
  Y  Y8_6  1  0.50009292  0.99965626  0.00000000  1
  Y  Y8_7  1  0.50009292  0.99965626  0.50000000  1
  Y  Y9_0  1  0.15761832  0.15198410  0.00000000  1
  Y  Y9_1  1  0.15761832  0.15198410  0.50000000  1
  Y  Y9_2  1  0.15761832  0.65198410  0.00000000  1
  Y  Y9_3  1  0.15761832  0.65198410  0.50000000  1
  Y  Y9_4  1  0.65761832  0.15198410  0.00000000  1
  Y  Y9_5  1  0.65761832  0.15198410  0.50000000  1
  Y  Y9_6  1  0.65761832  0.65198410  0.00000000  1
  Y  Y9_7  1  0.65761832  0.65198410  0.50000000  1
  Y  Y10_0  1  0.34450447  0.34422571  0.00000000  1
  Y  Y10_1  1  0.34450447  0.34422571  0.50000000  1
  Y  Y10_2  1  0.34450447  0.84422571  0.00000000  1
  Y  Y10_3  1  0.34450447  0.84422571  0.50000000  1
  Y  Y10_4  1  0.84450447  0.34422571  0.00000000  1
  Y  Y10_5  1  0.84450447  0.34422571  0.50000000  1
  Y  Y10_6  1  0.84450447  0.84422571  0.00000000  1
  Y  Y10_7  1  0.84450447  0.84422571  0.50000000  1
  In  In0_0  1  0.41927569  0.18424101  0.25000000  1
  In  In0_1  1  0.41927569  0.18424101  0.75000000  1
  In  In0_2  1  0.41927569  0.68424101  0.25000000  1
  In  In0_3  1  0.41927569  0.68424101  0.75000000  1
  In  In0_4  1  0.91927569  0.18424101  0.25000000  1
  In  In0_5  1  0.91927569  0.18424101  0.75000000  1
  In  In0_6  1  0.91927569  0.68424101  0.25000000  1
  In  In0_7  1  0.91927569  0.68424101  0.75000000  1
  In  In1_0  1  0.07729398  0.31672461  0.25000000  1
  In  In1_1  1  0.07729398  0.31672461  0.75000000  1
  In  In1_2  1  0.07729398  0.81672461  0.25000000  1
  In  In1_3  1  0.07729398  0.81672461  0.75000000  1
  In  In1_4  1  0.57729398  0.31672461  0.25000000  1
  In  In1_5  1  0.57729398  0.31672461  0.75000000  1
  In  In1_6  1  0.57729398  0.81672461  0.25000000  1
  In  In1_7  1  0.57729398  0.81672461  0.75000000  1
  In  In2_0  1  0.18418050  0.42043599  0.25000000  1
  In  In2_1  1  0.18418050  0.42043599  0.75000000  1
  In  In2_2  1  0.18418050  0.92043599  0.25000000  1
  In  In2_3  1  0.18418050  0.92043599  0.75000000  1
  In  In2_4  1  0.68418050  0.42043599  0.25000000  1
  In  In2_5  1  0.68418050  0.42043599  0.75000000  1
  In  In2_6  1  0.68418050  0.92043599  0.25000000  1
  In  In2_7  1  0.68418050  0.92043599  0.75000000  1
  In  In3_0  1  0.31578934  0.07976539  0.25000000  1
  In  In3_1  1  0.31578934  0.07976539  0.75000000  1
  In  In3_2  1  0.31578934  0.57976539  0.25000000  1
  In  In3_3  1  0.31578934  0.57976539  0.75000000  1
  In  In3_4  1  0.81578934  0.07976539  0.25000000  1
  In  In3_5  1  0.81578934  0.07976539  0.75000000  1
  In  In3_6  1  0.81578934  0.57976539  0.25000000  1
  In  In3_7  1  0.81578934  0.57976539  0.75000000  1
  In  In4_0  1  0.03520693  0.10705377  0.25000000  1
  In  In4_1  1  0.03520693  0.10705377  0.75000000  1
  In  In4_2  1  0.03520693  0.60705377  0.25000000  1
  In  In4_3  1  0.03520693  0.60705377  0.75000000  1
  In  In4_4  1  0.53520693  0.10705377  0.25000000  1
  In  In4_5  1  0.53520693  0.10705377  0.75000000  1
  In  In4_6  1  0.53520693  0.60705377  0.25000000  1
  In  In4_7  1  0.53520693  0.60705377  0.75000000  1
  In  In5_0  1  0.46180658  0.39114601  0.25000000  1
  In  In5_1  1  0.46180658  0.39114601  0.75000000  1
  In  In5_2  1  0.46180658  0.89114601  0.25000000  1
  In  In5_3  1  0.46180658  0.89114601  0.75000000  1
  In  In5_4  1  0.96180658  0.39114601  0.25000000  1
  In  In5_5  1  0.96180658  0.39114601  0.75000000  1
  In  In5_6  1  0.96180658  0.89114601  0.25000000  1
  In  In5_7  1  0.96180658  0.89114601  0.75000000  1
  In  In6_0  1  0.10916516  0.03762279  0.25000000  1
  In  In6_1  1  0.10916516  0.03762279  0.75000000  1
  In  In6_2  1  0.10916516  0.53762279  0.25000000  1
  In  In6_3  1  0.10916516  0.53762279  0.75000000  1
  In  In6_4  1  0.60916516  0.03762279  0.25000000  1
  In  In6_5  1  0.60916516  0.03762279  0.75000000  1
  In  In6_6  1  0.60916516  0.53762279  0.25000000  1
  In  In6_7  1  0.60916516  0.53762279  0.75000000  1
  In  In7_0  1  0.39130113  0.46172075  0.25000000  1
  In  In7_1  1  0.39130113  0.46172075  0.75000000  1
  In  In7_2  1  0.39130113  0.96172075  0.25000000  1
  In  In7_3  1  0.39130113  0.96172075  0.75000000  1
  In  In7_4  1  0.89130113  0.46172075  0.25000000  1
  In  In7_5  1  0.89130113  0.46172075  0.75000000  1
  In  In7_6  1  0.89130113  0.96172075  0.25000000  1
  In  In7_7  1  0.89130113  0.96172075  0.75000000  1
  In  In8_0  1  0.25102257  0.24985698  0.25000000  1
  In  In8_1  1  0.25102257  0.24985698  0.75000000  1
  In  In8_2  1  0.25102257  0.74985698  0.25000000  1
  In  In8_3  1  0.25102257  0.74985698  0.75000000  1
  In  In8_4  1  0.75102257  0.24985698  0.25000000  1
  In  In8_5  1  0.75102257  0.24985698  0.75000000  1
  In  In8_6  1  0.75102257  0.74985698  0.25000000  1
  In  In8_7  1  0.75102257  0.74985698  0.75000000  1
  Rh  Rh0_0  1  0.37783438  0.27655703  0.25000000  1
  Rh  Rh0_1  1  0.37783438  0.27655703  0.75000000  1
  Rh  Rh0_2  1  0.37783438  0.77655703  0.25000000  1
  Rh  Rh0_3  1  0.37783438  0.77655703  0.75000000  1
  Rh  Rh0_4  1  0.87783438  0.27655703  0.25000000  1
  Rh  Rh0_5  1  0.87783438  0.27655703  0.75000000  1
  Rh  Rh0_6  1  0.87783438  0.77655703  0.25000000  1
  Rh  Rh0_7  1  0.87783438  0.77655703  0.75000000  1
  Rh  Rh1_0  1  0.22425403  0.12216468  0.25000000  1
  Rh  Rh1_1  1  0.22425403  0.12216468  0.75000000  1
  Rh  Rh1_2  1  0.22425403  0.62216468  0.25000000  1
  Rh  Rh1_3  1  0.22425403  0.62216468  0.75000000  1
  Rh  Rh1_4  1  0.72425403  0.12216468  0.25000000  1
  Rh  Rh1_5  1  0.72425403  0.12216468  0.75000000  1
  Rh  Rh1_6  1  0.72425403  0.62216468  0.25000000  1
  Rh  Rh1_7  1  0.72425403  0.62216468  0.75000000  1
  Rh  Rh2_0  1  0.27634130  0.37771940  0.25000000  1
  Rh  Rh2_1  1  0.27634130  0.37771940  0.75000000  1
  Rh  Rh2_2  1  0.27634130  0.87771940  0.25000000  1
  Rh  Rh2_3  1  0.27634130  0.87771940  0.75000000  1
  Rh  Rh2_4  1  0.77634130  0.37771940  0.25000000  1
  Rh  Rh2_5  1  0.77634130  0.37771940  0.75000000  1
  Rh  Rh2_6  1  0.77634130  0.87771940  0.25000000  1
  Rh  Rh2_7  1  0.77634130  0.87771940  0.75000000  1
  Au  Au0_0  1  0.12478113  0.22499637  0.25000000  1
  Au  Au0_1  1  0.12478113  0.22499637  0.75000000  1
  Au  Au0_2  1  0.12478113  0.72499637  0.25000000  1
  Au  Au0_3  1  0.12478113  0.72499637  0.75000000  1
  Au  Au0_4  1  0.62478113  0.22499637  0.25000000  1
  Au  Au0_5  1  0.62478113  0.22499637  0.75000000  1
  Au  Au0_6  1  0.62478113  0.72499637  0.25000000  1
  Au  Au0_7  1  0.62478113  0.72499637  0.75000000  1
loop_
_geom_bond_atom_site_label_1
_geom_bond_atom_site_label_2
_geom_bond_distance
_geom_bond_site_symmetry_2
Y0_0 Y1_4 3.491836 1_455
Y0_0 Y6_4 3.533689 1_455
Y0_0 Y0_1 3.691801 1_555
Y0_0 Y0_1 3.691801 1_554
Y0_1 Y1_5 3.491836 1_455
Y0_1 Y6_5 3.533689 1_455
Y0_2 Y1_6 3.491836 1_455
Y0_2 Y6_6 3.533689 1_455
Y0_2 Y0_3 3.691801 1_555
Y0_2 Y0_3 3.691801 1_554
Y0_3 Y1_7 3.491836 1_455
Y0_3 Y6_7 3.533689 1_455
Y0_4 Y1_0 3.491836 1_555
Y0_4 Y6_0 3.533689 1_555
Y0_4 Y0_5 3.691801 1_555
Y0_4 Y0_5 3.691801 1_554
Y0_5 Y1_1 3.491836 1_555
Y0_5 Y6_1 3.533689 1_555
Y0_6 Y1_2 3.491836 1_555
Y0_6 Y6_2 3.533689 1_555
Y0_6 Y0_7 3.691801 1_555
Y0_6 Y0_7 3.691801 1_554
Y0_7 Y1_3 3.491836 1_555
Y0_7 Y6_3 3.533689 1_555
Y1_0 Y7_4 3.628408 1_555
Y1_1 Y7_5 3.628408 1_555
Y1_2 Y7_6 3.628408 1_555
Y1_3 Y7_7 3.628408 1_555
Y1_4 Y7_0 3.628408 1_655
Y1_5 Y7_1 3.628408 1_655
Y1_6 Y7_2 3.628408 1_655
Y1_7 Y7_3 3.628408 1_655
Y2_0 Y7_2 3.584128 1_545
Y2_1 Y7_3 3.584128 1_545
Y2_2 Y7_0 3.584128 1_555
Y2_3 Y7_1 3.584128 1_555
Y2_4 Y7_6 3.584128 1_545
Y2_5 Y7_7 3.584128 1_545
Y2_6 Y7_4 3.584128 1_555
Y2_7 Y7_5 3.584128 1_555
Y3_0 Y6_2 3.573575 1_555
Y3_1 Y6_3 3.573575 1_555
Y3_2 Y6_0 3.573575 1_565
Y3_3 Y6_1 3.573575 1_565
Y3_4 Y6_6 3.573575 1_555
Y3_5 Y6_7 3.573575 1_555
Y3_6 Y6_4 3.573575 1_565
Y3_7 Y6_5 3.573575 1_565
Y6_0 Y8_6 3.554284 1_545
Y6_0 Y6_1 3.691801 1_555
Y6_0 Y6_1 3.691801 1_554
Y6_1 Y8_7 3.554284 1_545
Y6_2 Y8_4 3.554284 1_555
Y6_2 Y6_3 3.691801 1_555
Y6_2 Y6_3 3.691801 1_554
Y6_3 Y8_5 3.554284 1_555
Y6_4 Y8_2 3.554284 1_645
Y6_4 Y6_5 3.691801 1_555
Y6_4 Y6_5 3.691801 1_554
Y6_5 Y8_3 3.554284 1_645
Y6_6 Y8_0 3.554284 1_655
Y6_6 Y6_7 3.691801 1_555
Y6_6 Y6_7 3.691801 1_554
Y6_7 Y8_1 3.554284 1_655
Y7_0 Y8_0 3.519379 1_555
Y7_0 Y7_1 3.691801 1_555
Y7_0 Y7_1 3.691801 1_554
Y7_1 Y8_1 3.519379 1_555
Y7_2 Y8_2 3.519379 1_555
Y7_2 Y7_3 3.691801 1_555
Y7_2 Y7_3 3.691801 1_554
Y7_3 Y8_3 3.519379 1_555
Y7_4 Y8_4 3.519379 1_555
Y7_4 Y7_5 3.691801 1_555
Y7_4 Y7_5 3.691801 1_554
Y7_5 Y8_5 3.519379 1_555
Y7_6 Y8_6 3.519379 1_555
Y7_6 Y7_7 3.691801 1_555
Y7_6 Y7_7 3.691801 1_554
Y7_7 Y8_7 3.519379 1_555
Y8_0 Y8_1 3.691801 1_555
Y8_0 Y8_1 3.691801 1_554
Y8_2 Y8_3 3.691801 1_555
Y8_2 Y8_3 3.691801 1_554
Y8_4 Y8_5 3.691801 1_555
Y8_4 Y8_5 3.691801 1_554
Y8_6 Y8_7 3.691801 1_555
Y8_6 Y8_7 3.691801 1_554
In0_0 Rh0_0 3.017787 1_555
In0_0 In3_0 3.034564 1_555
In0_0 Y1_0 3.208571 1_555
In0_0 Y1_1 3.208571 1_555
In0_0 Y6_0 3.284322 1_555
In0_0 Y6_1 3.284322 1_555
In0_0 Y4_1 3.376945 1_555
In0_0 Y4_0 3.376945 1_555
In0_0 Y0_5 3.393841 1_555
In0_0 Y0_4 3.393841 1_555
In0_1 Rh0_1 3.017787 1_555
In0_1 In3_1 3.034564 1_555
In0_1 Y1_1 3.208571 1_555
In0_1 Y1_0 3.208571 1_556
In0_1 Y6_1 3.284322 1_555
In0_1 Y6_0 3.284322 1_556
In0_1 Y4_1 3.376945 1_555
In0_1 Y4_0 3.376945 1_556
In0_1 Y0_5 3.393841 1_555
In0_1 Y0_4 3.393841 1_556
In0_2 Rh0_2 3.017787 1_555
In0_2 In3_2 3.034564 1_555
In0_2 Y1_3 3.208571 1_555
In0_2 Y1_2 3.208571 1_555
In0_2 Y6_2 3.284322 1_555
In0_2 Y6_3 3.284322 1_555
In0_2 Y4_3 3.376945 1_555
In0_2 Y4_2 3.376945 1_555
In0_2 Y0_7 3.393841 1_555
In0_2 Y0_6 3.393841 1_555
In0_3 Rh0_3 3.017787 1_555
In0_3 In3_3 3.034564 1_555
In0_3 Y1_3 3.208571 1_555
In0_3 Y1_2 3.208571 1_556
In0_3 Y6_3 3.284322 1_555
In0_3 Y6_2 3.284322 1_556
In0_3 Y4_3 3.376945 1_555
In0_3 Y4_2 3.376945 1_556
In0_3 Y0_7 3.393841 1_555
In0_3 Y0_6 3.393841 1_556
In0_4 Rh0_4 3.017787 1_555
In0_4 In3_4 3.034564 1_555
In0_4 Y1_4 3.208571 1_555
In0_4 Y1_5 3.208571 1_555
In0_4 Y6_5 3.284322 1_555
In0_4 Y6_4 3.284322 1_555
In0_4 Y4_4 3.376945 1_555
In0_4 Y4_5 3.376945 1_555
In0_4 Y0_0 3.393841 1_655
In0_4 Y0_1 3.393841 1_655
In0_5 Rh0_5 3.017787 1_555
In0_5 In3_5 3.034564 1_555
In0_5 Y1_5 3.208571 1_555
In0_5 Y1_4 3.208571 1_556
In0_5 Y6_5 3.284322 1_555
In0_5 Y6_4 3.284322 1_556
In0_5 Y4_5 3.376945 1_555
In0_5 Y4_4 3.376945 1_556
In0_5 Y0_1 3.393841 1_655
In0_5 Y0_0 3.393841 1_656
In0_6 Rh0_6 3.017787 1_555
In0_6 In3_6 3.034564 1_555
In0_6 Y1_6 3.208571 1_555
In0_6 Y1_7 3.208571 1_555
In0_6 Y6_7 3.284322 1_555
In0_6 Y6_6 3.284322 1_555
In0_6 Y4_6 3.376945 1_555
In0_6 Y4_7 3.376945 1_555
In0_6 Y0_2 3.393841 1_655
In0_6 Y0_3 3.393841 1_655
In0_7 Rh0_7 3.017787 1_555
In0_7 In3_7 3.034564 1_555
In0_7 Y1_7 3.208571 1_555
In0_7 Y1_6 3.208571 1_556
In0_7 Y6_7 3.284322 1_555
In0_7 Y6_6 3.284322 1_556
In0_7 Y4_7 3.376945 1_555
In0_7 Y4_6 3.376945 1_556
In0_7 Y0_3 3.393841 1_655
In0_7 Y0_2 3.393841 1_656
In1_0 In2_0 3.073716 1_555
In1_0 Y0_1 3.248467 1_555
In1_0 Y0_0 3.248467 1_555
In1_0 Y7_0 3.249980 1_555
In1_0 Y7_1 3.249980 1_555
In1_0 Y1_4 3.426193 1_455
In1_0 Y1_5 3.426193 1_455
In1_0 Y5_1 3.507025 1_555
In1_0 Y5_0 3.507025 1_555
In1_1 In2_1 3.073716 1_555
In1_1 Y0_1 3.248467 1_555
In1_1 Y0_0 3.248467 1_556
In1_1 Y7_1 3.249980 1_555
In1_1 Y7_0 3.249980 1_556
In1_1 Y1_5 3.426193 1_455
In1_1 Y1_4 3.426193 1_456
In1_1 Y5_1 3.507025 1_555
In1_1 Y5_0 3.507025 1_556
In1_2 In2_2 3.073716 1_555
In1_2 Y0_2 3.248467 1_555
In1_2 Y0_3 3.248467 1_555
In1_2 Y7_3 3.249980 1_555
In1_2 Y7_2 3.249980 1_555
In1_2 Y1_6 3.426193 1_455
In1_2 Y1_7 3.426193 1_455
In1_2 Y5_3 3.507025 1_555
In1_2 Y5_2 3.507025 1_555
In1_3 In2_3 3.073716 1_555
In1_3 Y0_3 3.248467 1_555
In1_3 Y0_2 3.248467 1_556
In1_3 Y7_3 3.249980 1_555
In1_3 Y7_2 3.249980 1_556
In1_3 Y1_7 3.426193 1_455
In1_3 Y1_6 3.426193 1_456
In1_3 Y5_3 3.507025 1_555
In1_3 Y5_2 3.507025 1_556
In1_4 In2_4 3.073716 1_555
In1_4 Y0_5 3.248467 1_555
In1_4 Y0_4 3.248467 1_555
In1_4 Y7_4 3.249980 1_555
In1_4 Y7_5 3.249980 1_555
In1_4 Y1_0 3.426193 1_555
In1_4 Y1_1 3.426193 1_555
In1_4 Y5_5 3.507025 1_555
In1_4 Y5_4 3.507025 1_555
In1_5 In2_5 3.073716 1_555
In1_5 Y0_5 3.248467 1_555
In1_5 Y0_4 3.248467 1_556
In1_5 Y7_5 3.249980 1_555
In1_5 Y7_4 3.249980 1_556
In1_5 Y1_1 3.426193 1_555
In1_5 Y1_0 3.426193 1_556
In1_5 Y5_5 3.507025 1_555
In1_5 Y5_4 3.507025 1_556
In1_6 In2_6 3.073716 1_555
In1_6 Y0_6 3.248467 1_555
In1_6 Y0_7 3.248467 1_555
In1_6 Y7_7 3.249980 1_555
In1_6 Y7_6 3.249980 1_555
In1_6 Y1_2 3.426193 1_555
In1_6 Y1_3 3.426193 1_555
In1_6 Y5_7 3.507025 1_555
In1_6 Y5_6 3.507025 1_555
In1_7 In2_7 3.073716 1_555
In1_7 Y0_7 3.248467 1_555
In1_7 Y0_6 3.248467 1_556
In1_7 Y7_7 3.249980 1_555
In1_7 Y7_6 3.249980 1_556
In1_7 Y1_3 3.426193 1_555
In1_7 Y1_2 3.426193 1_556
In1_7 Y5_7 3.507025 1_555
In1_7 Y5_6 3.507025 1_556
In2_0 Rh2_0 3.036238 1_555
In2_0 Y3_0 3.220639 1_555
In2_0 Y3_1 3.220639 1_555
In2_0 Y7_1 3.269781 1_555
In2_0 Y7_0 3.269781 1_555
In2_0 Y5_0 3.340745 1_555
In2_0 Y5_1 3.340745 1_555
In2_0 Y2_2 3.452113 1_555
In2_0 Y2_3 3.452113 1_555
In2_1 Rh2_1 3.036238 1_555
In2_1 Y3_1 3.220639 1_555
In2_1 Y3_0 3.220639 1_556
In2_1 Y7_1 3.269781 1_555
In2_1 Y7_0 3.269781 1_556
In2_1 Y5_1 3.340745 1_555
In2_1 Y5_0 3.340745 1_556
In2_1 Y2_3 3.452113 1_555
In2_1 Y2_2 3.452113 1_556
In2_2 Rh2_2 3.036238 1_555
In2_2 Y3_3 3.220639 1_555
In2_2 Y3_2 3.220639 1_555
In2_2 Y7_2 3.269781 1_555
In2_2 Y7_3 3.269781 1_555
In2_2 Y5_2 3.340745 1_555
In2_2 Y5_3 3.340745 1_555
In2_2 Y2_0 3.452113 1_565
In2_2 Y2_1 3.452113 1_565
In2_3 Rh2_3 3.036238 1_555
In2_3 Y3_3 3.220639 1_555
In2_3 Y3_2 3.220639 1_556
In2_3 Y7_3 3.269781 1_555
In2_3 Y7_2 3.269781 1_556
In2_3 Y5_3 3.340745 1_555
In2_3 Y5_2 3.340745 1_556
In2_3 Y2_1 3.452113 1_565
In2_3 Y2_0 3.452113 1_566
In2_4 Rh2_4 3.036238 1_555
In2_4 Y3_5 3.220639 1_555
In2_4 Y3_4 3.220639 1_555
In2_4 Y7_4 3.269781 1_555
In2_4 Y7_5 3.269781 1_555
In2_4 Y5_5 3.340745 1_555
In2_4 Y5_4 3.340745 1_555
In2_4 Y2_7 3.452113 1_555
In2_4 Y2_6 3.452113 1_555
In2_5 Rh2_5 3.036238 1_555
In2_5 Y3_5 3.220639 1_555
In2_5 Y3_4 3.220639 1_556
In2_5 Y7_5 3.269781 1_555
In2_5 Y7_4 3.269781 1_556
In2_5 Y5_5 3.340745 1_555
In2_5 Y5_4 3.340745 1_556
In2_5 Y2_7 3.452113 1_555
In2_5 Y2_6 3.452113 1_556
In2_6 Rh2_6 3.036238 1_555
In2_6 Y3_7 3.220639 1_555
In2_6 Y3_6 3.220639 1_555
In2_6 Y7_7 3.269781 1_555
In2_6 Y7_6 3.269781 1_555
In2_6 Y5_7 3.340745 1_555
In2_6 Y5_6 3.340745 1_555
In2_6 Y2_4 3.452113 1_565
In2_6 Y2_5 3.452113 1_565
In2_7 Rh2_7 3.036238 1_555
In2_7 Y3_7 3.220639 1_555
In2_7 Y3_6 3.220639 1_556
In2_7 Y7_7 3.269781 1_555
In2_7 Y7_6 3.269781 1_556
In2_7 Y5_7 3.340745 1_555
In2_7 Y5_6 3.340745 1_556
In2_7 Y2_5 3.452113 1_565
In2_7 Y2_4 3.452113 1_566
In3_0 Rh1_0 3.015145 1_555
In3_0 Y2_0 3.198066 1_555
In3_0 Y2_1 3.198066 1_555
In3_0 Y6_0 3.264120 1_555
In3_0 Y6_1 3.264120 1_555
In3_0 Y4_1 3.402623 1_555
In3_0 Y4_0 3.402623 1_555
In3_0 Y3_3 3.463325 1_545
In3_0 Y3_2 3.463325 1_545
In3_1 Rh1_1 3.015145 1_555
In3_1 Y2_1 3.198066 1_555
In3_1 Y2_0 3.198066 1_556
In3_1 Y6_1 3.264120 1_555
In3_1 Y6_0 3.264120 1_556
In3_1 Y4_1 3.402623 1_555
In3_1 Y4_0 3.402623 1_556
In3_1 Y3_3 3.463325 1_545
In3_1 Y3_2 3.463325 1_546
In3_2 Rh1_2 3.015145 1_555
In3_2 Y2_2 3.198066 1_555
In3_2 Y2_3 3.198066 1_555
In3_2 Y6_3 3.264120 1_555
In3_2 Y6_2 3.264120 1_555
In3_2 Y4_3 3.402623 1_555
In3_2 Y4_2 3.402623 1_555
In3_2 Y3_0 3.463325 1_555
In3_2 Y3_1 3.463325 1_555
In3_3 Rh1_3 3.015145 1_555
In3_3 Y2_3 3.198066 1_555
In3_3 Y2_2 3.198066 1_556
In3_3 Y6_3 3.264120 1_555
In3_3 Y6_2 3.264120 1_556
In3_3 Y4_3 3.402623 1_555
In3_3 Y4_2 3.402623 1_556
In3_3 Y3_1 3.463325 1_555
In3_3 Y3_0 3.463325 1_556
In3_4 Rh1_4 3.015145 1_555
In3_4 Y2_4 3.198066 1_555
In3_4 Y2_5 3.198066 1_555
In3_4 Y6_5 3.264120 1_555
In3_4 Y6_4 3.264120 1_555
In3_4 Y4_4 3.402623 1_555
In3_4 Y4_5 3.402623 1_555
In3_4 Y3_6 3.463325 1_545
In3_4 Y3_7 3.463325 1_545
In3_5 Rh1_5 3.015145 1_555
In3_5 Y2_5 3.198066 1_555
In3_5 Y2_4 3.198066 1_556
In3_5 Y6_5 3.264120 1_555
In3_5 Y6_4 3.264120 1_556
In3_5 Y4_5 3.402623 1_555
In3_5 Y4_4 3.402623 1_556
In3_5 Y3_7 3.463325 1_545
In3_5 Y3_6 3.463325 1_546
In3_6 Rh1_6 3.015145 1_555
In3_6 Y2_6 3.198066 1_555
In3_6 Y2_7 3.198066 1_555
In3_6 Y6_7 3.264120 1_555
In3_6 Y6_6 3.264120 1_555
In3_6 Y4_7 3.402623 1_555
In3_6 Y4_6 3.402623 1_555
In3_6 Y3_4 3.463325 1_555
In3_6 Y3_5 3.463325 1_555
In3_7 Rh1_7 3.015145 1_555
In3_7 Y2_7 3.198066 1_555
In3_7 Y2_6 3.198066 1_556
In3_7 Y6_7 3.264120 1_555
In3_7 Y6_6 3.264120 1_556
In3_7 Y4_7 3.402623 1_555
In3_7 Y4_6 3.402623 1_556
In3_7 Y3_5 3.463325 1_555
In3_7 Y3_4 3.463325 1_556
In4_0 In6_0 3.136227 1_555
In4_0 Y8_3 3.198625 1_545
In4_0 Y8_2 3.198625 1_545
In4_0 Y0_0 3.211342 1_555
In4_0 Y0_1 3.211342 1_555
In4_0 Y6_5 3.414777 1_455
In4_0 Y6_4 3.414777 1_455
In4_0 Y9_1 3.498386 1_555
In4_0 Y9_0 3.498386 1_555
In4_1 In6_1 3.136227 1_555
In4_1 Y8_3 3.198625 1_545
In4_1 Y8_2 3.198625 1_546
In4_1 Y0_1 3.211342 1_555
In4_1 Y0_0 3.211342 1_556
In4_1 Y6_5 3.414777 1_455
In4_1 Y6_4 3.414777 1_456
In4_1 Y9_1 3.498386 1_555
In4_1 Y9_0 3.498386 1_556
In4_2 In6_2 3.136227 1_555
In4_2 Y8_0 3.198625 1_555
In4_2 Y8_1 3.198625 1_555
In4_2 Y0_3 3.211342 1_555
In4_2 Y0_2 3.211342 1_555
In4_2 Y6_6 3.414777 1_455
In4_2 Y6_7 3.414777 1_455
In4_2 Y9_3 3.498386 1_555
In4_2 Y9_2 3.498386 1_555
In4_3 In6_3 3.136227 1_555
In4_3 Y8_1 3.198625 1_555
In4_3 Y8_0 3.198625 1_556
In4_3 Y0_3 3.211342 1_555
In4_3 Y0_2 3.211342 1_556
In4_3 Y6_7 3.414777 1_455
In4_3 Y6_6 3.414777 1_456
In4_3 Y9_3 3.498386 1_555
In4_3 Y9_2 3.498386 1_556
In4_4 In6_4 3.136227 1_555
In4_4 Y8_6 3.198625 1_545
In4_4 Y8_7 3.198625 1_545
In4_4 Y0_5 3.211342 1_555
In4_4 Y0_4 3.211342 1_555
In4_4 Y6_0 3.414777 1_555
In4_4 Y6_1 3.414777 1_555
In4_4 Y9_4 3.498386 1_555
In4_4 Y9_5 3.498386 1_555
In4_5 In6_5 3.136227 1_555
In4_5 Y8_7 3.198625 1_545
In4_5 Y8_6 3.198625 1_546
In4_5 Y0_5 3.211342 1_555
In4_5 Y0_4 3.211342 1_556
In4_5 Y6_1 3.414777 1_555
In4_5 Y6_0 3.414777 1_556
In4_5 Y9_5 3.498386 1_555
In4_5 Y9_4 3.498386 1_556
In4_6 In6_6 3.136227 1_555
In4_6 Y8_5 3.198625 1_555
In4_6 Y8_4 3.198625 1_555
In4_6 Y0_6 3.211342 1_555
In4_6 Y0_7 3.211342 1_555
In4_6 Y6_2 3.414777 1_555
In4_6 Y6_3 3.414777 1_555
In4_6 Y9_6 3.498386 1_555
In4_6 Y9_7 3.498386 1_555
In4_7 In6_7 3.136227 1_555
In4_7 Y8_5 3.198625 1_555
In4_7 Y8_4 3.198625 1_556
In4_7 Y0_7 3.211342 1_555
In4_7 Y0_6 3.211342 1_556
In4_7 Y6_3 3.414777 1_555
In4_7 Y6_2 3.414777 1_556
In4_7 Y9_7 3.498386 1_555
In4_7 Y9_6 3.498386 1_556
In5_0 Rh0_0 2.973783 1_555
In5_0 In7_0 3.085051 1_555
In5_0 Y1_0 3.175794 1_555
In5_0 Y1_1 3.175794 1_555
In5_0 Y8_5 3.217888 1_555
In5_0 Y8_4 3.217888 1_555
In5_0 Y10_0 3.393629 1_555
In5_0 Y10_1 3.393629 1_555
In5_0 Y7_4 3.467558 1_555
In5_0 Y7_5 3.467558 1_555
In5_1 Rh0_1 2.973783 1_555
In5_1 In7_1 3.085051 1_555
In5_1 Y1_1 3.175794 1_555
In5_1 Y1_0 3.175794 1_556
In5_1 Y8_5 3.217888 1_555
In5_1 Y8_4 3.217888 1_556
In5_1 Y10_1 3.393629 1_555
In5_1 Y10_0 3.393629 1_556
In5_1 Y7_5 3.467558 1_555
In5_1 Y7_4 3.467558 1_556
In5_2 Rh0_2 2.973783 1_555
In5_2 In7_2 3.085051 1_555
In5_2 Y1_2 3.175794 1_555
In5_2 Y1_3 3.175794 1_555
In5_2 Y8_7 3.217888 1_555
In5_2 Y8_6 3.217888 1_555
In5_2 Y10_2 3.393629 1_555
In5_2 Y10_3 3.393629 1_555
In5_2 Y7_7 3.467558 1_555
In5_2 Y7_6 3.467558 1_555
In5_3 Rh0_3 2.973783 1_555
In5_3 In7_3 3.085051 1_555
In5_3 Y1_3 3.175794 1_555
In5_3 Y1_2 3.175794 1_556
In5_3 Y8_7 3.217888 1_555
In5_3 Y8_6 3.217888 1_556
In5_3 Y10_3 3.393629 1_555
In5_3 Y10_2 3.393629 1_556
In5_3 Y7_7 3.467558 1_555
In5_3 Y7_6 3.467558 1_556
In5_4 Rh0_4 2.973783 1_555
In5_4 In7_4 3.085051 1_555
In5_4 Y1_5 3.175794 1_555
In5_4 Y1_4 3.175794 1_555
In5_4 Y8_1 3.217888 1_655
In5_4 Y8_0 3.217888 1_655
In5_4 Y10_5 3.393629 1_555
In5_4 Y10_4 3.393629 1_555
In5_4 Y7_0 3.467558 1_655
In5_4 Y7_1 3.467558 1_655
In5_5 Rh0_5 2.973783 1_555
In5_5 In7_5 3.085051 1_555
In5_5 Y1_5 3.175794 1_555
In5_5 Y1_4 3.175794 1_556
In5_5 Y8_1 3.217888 1_655
In5_5 Y8_0 3.217888 1_656
In5_5 Y10_5 3.393629 1_555
In5_5 Y10_4 3.393629 1_556
In5_5 Y7_1 3.467558 1_655
In5_5 Y7_0 3.467558 1_656
In5_6 Rh0_6 2.973783 1_555
In5_6 In7_6 3.085051 1_555
In5_6 Y1_7 3.175794 1_555
In5_6 Y1_6 3.175794 1_555
In5_6 Y8_2 3.217888 1_655
In5_6 Y8_3 3.217888 1_655
In5_6 Y10_6 3.393629 1_555
In5_6 Y10_7 3.393629 1_555
In5_6 Y7_2 3.467558 1_655
In5_6 Y7_3 3.467558 1_655
In5_7 Rh0_7 2.973783 1_555
In5_7 In7_7 3.085051 1_555
In5_7 Y1_7 3.175794 1_555
In5_7 Y1_6 3.175794 1_556
In5_7 Y8_3 3.217888 1_655
In5_7 Y8_2 3.217888 1_656
In5_7 Y10_7 3.393629 1_555
In5_7 Y10_6 3.393629 1_556
In5_7 Y7_3 3.467558 1_655
In5_7 Y7_2 3.467558 1_656
In6_0 Rh1_0 2.988403 1_555
In6_0 Y2_0 3.185130 1_555
In6_0 Y2_1 3.185130 1_555
In6_0 Y8_2 3.229093 1_545
In6_0 Y8_3 3.229093 1_545
In6_0 Y9_0 3.336138 1_555
In6_0 Y9_1 3.336138 1_555
In6_0 Y7_3 3.431749 1_545
In6_0 Y7_2 3.431749 1_545
In6_1 Rh1_1 2.988403 1_555
In6_1 Y2_1 3.185130 1_555
In6_1 Y2_0 3.185130 1_556
In6_1 Y8_3 3.229093 1_545
In6_1 Y8_2 3.229093 1_546
In6_1 Y9_1 3.336138 1_555
In6_1 Y9_0 3.336138 1_556
In6_1 Y7_3 3.431749 1_545
In6_1 Y7_2 3.431749 1_546
In6_2 Rh1_2 2.988403 1_555
In6_2 Y2_2 3.185130 1_555
In6_2 Y2_3 3.185130 1_555
In6_2 Y8_0 3.229093 1_555
In6_2 Y8_1 3.229093 1_555
In6_2 Y9_2 3.336138 1_555
In6_2 Y9_3 3.336138 1_555
In6_2 Y7_1 3.431749 1_555
In6_2 Y7_0 3.431749 1_555
In6_3 Rh1_3 2.988403 1_555
In6_3 Y2_3 3.185130 1_555
In6_3 Y2_2 3.185130 1_556
In6_3 Y8_1 3.229093 1_555
In6_3 Y8_0 3.229093 1_556
In6_3 Y9_3 3.336138 1_555
In6_3 Y9_2 3.336138 1_556
In6_3 Y7_1 3.431749 1_555
In6_3 Y7_0 3.431749 1_556
In6_4 Rh1_4 2.988403 1_555
In6_4 Y2_4 3.185130 1_555
In6_4 Y2_5 3.185130 1_555
In6_4 Y8_7 3.229093 1_545
In6_4 Y8_6 3.229093 1_545
In6_4 Y9_4 3.336138 1_555
In6_4 Y9_5 3.336138 1_555
In6_4 Y7_6 3.431749 1_545
In6_4 Y7_7 3.431749 1_545
In6_5 Rh1_5 2.988403 1_555
In6_5 Y2_5 3.185130 1_555
In6_5 Y2_4 3.185130 1_556
In6_5 Y8_7 3.229093 1_545
In6_5 Y8_6 3.229093 1_546
In6_5 Y9_5 3.336138 1_555
In6_5 Y9_4 3.336138 1_556
In6_5 Y7_7 3.431749 1_545
In6_5 Y7_6 3.431749 1_546
In6_6 Rh1_6 2.988403 1_555
In6_6 Y2_7 3.185130 1_555
In6_6 Y2_6 3.185130 1_555
In6_6 Y8_5 3.229093 1_555
In6_6 Y8_4 3.229093 1_555
In6_6 Y9_7 3.336138 1_555
In6_6 Y9_6 3.336138 1_555
In6_6 Y7_5 3.431749 1_555
In6_6 Y7_4 3.431749 1_555
In6_7 Rh1_7 2.988403 1_555
In6_7 Y2_7 3.185130 1_555
In6_7 Y2_6 3.185130 1_556
In6_7 Y8_5 3.229093 1_555
In6_7 Y8_4 3.229093 1_556
In6_7 Y9_7 3.336138 1_555
In6_7 Y9_6 3.336138 1_556
In6_7 Y7_5 3.431749 1_555
In6_7 Y7_4 3.431749 1_556
In7_0 Rh2_0 2.980910 1_555
In7_0 Y3_0 3.176109 1_555
In7_0 Y3_1 3.176109 1_555
In7_0 Y8_5 3.223451 1_555
In7_0 Y8_4 3.223451 1_555
In7_0 Y10_1 3.397899 1_555
In7_0 Y10_0 3.397899 1_555
In7_0 Y6_3 3.460585 1_555
In7_0 Y6_2 3.460585 1_555
In7_1 Rh2_1 2.980910 1_555
In7_1 Y3_1 3.176109 1_555
In7_1 Y3_0 3.176109 1_556
In7_1 Y8_5 3.223451 1_555
In7_1 Y8_4 3.223451 1_556
In7_1 Y10_1 3.397899 1_555
In7_1 Y10_0 3.397899 1_556
In7_1 Y6_3 3.460585 1_555
In7_1 Y6_2 3.460585 1_556
In7_2 Rh2_2 2.980910 1_555
In7_2 Y3_3 3.176109 1_555
In7_2 Y3_2 3.176109 1_555
In7_2 Y8_7 3.223451 1_555
In7_2 Y8_6 3.223451 1_555
In7_2 Y10_2 3.397899 1_555
In7_2 Y10_3 3.397899 1_555
In7_2 Y6_1 3.460585 1_565
In7_2 Y6_0 3.460585 1_565
In7_3 Rh2_3 2.980910 1_555
In7_3 Y3_3 3.176109 1_555
In7_3 Y3_2 3.176109 1_556
In7_3 Y8_7 3.223451 1_555
In7_3 Y8_6 3.223451 1_556
In7_3 Y10_3 3.397899 1_555
In7_3 Y10_2 3.397899 1_556
In7_3 Y6_1 3.460585 1_565
In7_3 Y6_0 3.460585 1_566
In7_4 Rh2_4 2.980910 1_555
In7_4 Y3_4 3.176109 1_555
In7_4 Y3_5 3.176109 1_555
In7_4 Y8_1 3.223451 1_655
In7_4 Y8_0 3.223451 1_655
In7_4 Y10_4 3.397899 1_555
In7_4 Y10_5 3.397899 1_555
In7_4 Y6_7 3.460585 1_555
In7_4 Y6_6 3.460585 1_555
In7_5 Rh2_5 2.980910 1_555
In7_5 Y3_5 3.176109 1_555
In7_5 Y3_4 3.176109 1_556
In7_5 Y8_1 3.223451 1_655
In7_5 Y8_0 3.223451 1_656
In7_5 Y10_5 3.397899 1_555
In7_5 Y10_4 3.397899 1_556
In7_5 Y6_7 3.460585 1_555
In7_5 Y6_6 3.460585 1_556
In7_6 Rh2_6 2.980910 1_555
In7_6 Y3_6 3.176109 1_555
In7_6 Y3_7 3.176109 1_555
In7_6 Y8_2 3.223451 1_655
In7_6 Y8_3 3.223451 1_655
In7_6 Y10_7 3.397899 1_555
In7_6 Y10_6 3.397899 1_555
In7_6 Y6_4 3.460585 1_565
In7_6 Y6_5 3.460585 1_565
In7_7 Rh2_7 2.980910 1_555
In7_7 Y3_7 3.176109 1_555
In7_7 Y3_6 3.176109 1_556
In7_7 Y8_3 3.223451 1_655
In7_7 Y8_2 3.223451 1_656
In7_7 Y10_7 3.397899 1_555
In7_7 Y10_6 3.397899 1_556
In7_7 Y6_5 3.460585 1_565
In7_7 Y6_4 3.460585 1_566
In8_0 Rh0_0 3.131794 1_555
In8_0 Rh1_0 3.154703 1_555
In8_0 Rh2_0 3.166379 1_555
In8_0 Y4_1 3.287643 1_555
In8_0 Y4_0 3.287643 1_555
In8_0 Y10_1 3.304690 1_555
In8_0 Y10_0 3.304690 1_555
In8_0 Y5_0 3.345887 1_555
In8_0 Y5_1 3.345887 1_555
In8_0 Y9_1 3.347660 1_555
In8_0 Y9_0 3.347660 1_555
In8_1 Rh0_1 3.131794 1_555
In8_1 Rh1_1 3.154703 1_555
In8_1 Rh2_1 3.166379 1_555
In8_1 Y4_1 3.287643 1_555
In8_1 Y4_0 3.287643 1_556
In8_1 Y10_1 3.304690 1_555
In8_1 Y10_0 3.304690 1_556
In8_1 Y5_1 3.345887 1_555
In8_1 Y5_0 3.345887 1_556
In8_1 Y9_1 3.347660 1_555
In8_1 Y9_0 3.347660 1_556
In8_2 Rh0_2 3.131794 1_555
In8_2 Rh1_2 3.154703 1_555
In8_2 Rh2_2 3.166379 1_555
In8_2 Y4_2 3.287643 1_555
In8_2 Y4_3 3.287643 1_555
In8_2 Y10_3 3.304690 1_555
In8_2 Y10_2 3.304690 1_555
In8_2 Y5_2 3.345887 1_555
In8_2 Y5_3 3.345887 1_555
In8_2 Y9_3 3.347660 1_555
In8_2 Y9_2 3.347660 1_555
In8_3 Rh0_3 3.131794 1_555
In8_3 Rh1_3 3.154703 1_555
In8_3 Rh2_3 3.166379 1_555
In8_3 Y4_3 3.287643 1_555
In8_3 Y4_2 3.287643 1_556
In8_3 Y10_3 3.304690 1_555
In8_3 Y10_2 3.304690 1_556
In8_3 Y5_3 3.345887 1_555
In8_3 Y5_2 3.345887 1_556
In8_3 Y9_3 3.347660 1_555
In8_3 Y9_2 3.347660 1_556
In8_4 Rh0_4 3.131794 1_555
In8_4 Rh1_4 3.154703 1_555
In8_4 Rh2_4 3.166379 1_555
In8_4 Y4_4 3.287643 1_555
In8_4 Y4_5 3.287643 1_555
In8_4 Y10_4 3.304690 1_555
In8_4 Y10_5 3.304690 1_555
In8_4 Y5_5 3.345887 1_555
In8_4 Y5_4 3.345887 1_555
In8_4 Y9_4 3.347660 1_555
In8_4 Y9_5 3.347660 1_555
In8_5 Rh0_5 3.131794 1_555
In8_5 Rh1_5 3.154703 1_555
In8_5 Rh2_5 3.166379 1_555
In8_5 Y4_5 3.287643 1_555
In8_5 Y4_4 3.287643 1_556
In8_5 Y10_5 3.304690 1_555
In8_5 Y10_4 3.304690 1_556
In8_5 Y5_5 3.345887 1_555
In8_5 Y5_4 3.345887 1_556
In8_5 Y9_5 3.347660 1_555
In8_5 Y9_4 3.347660 1_556
In8_6 Rh0_6 3.131794 1_555
In8_6 Rh1_6 3.154703 1_555
In8_6 Rh2_6 3.166379 1_555
In8_6 Y4_6 3.287643 1_555
In8_6 Y4_7 3.287643 1_555
In8_6 Y10_6 3.304690 1_555
In8_6 Y10_7 3.304690 1_555
In8_6 Y5_6 3.345887 1_555
In8_6 Y5_7 3.345887 1_555
In8_6 Y9_7 3.347660 1_555
In8_6 Y9_6 3.347660 1_555
In8_7 Rh0_7 3.131794 1_555
In8_7 Rh1_7 3.154703 1_555
In8_7 Rh2_7 3.166379 1_555
In8_7 Y4_7 3.287643 1_555
In8_7 Y4_6 3.287643 1_556
In8_7 Y10_7 3.304690 1_555
In8_7 Y10_6 3.304690 1_556
In8_7 Y5_7 3.345887 1_555
In8_7 Y5_6 3.345887 1_556
In8_7 Y9_7 3.347660 1_555
In8_7 Y9_6 3.347660 1_556
Rh0_0 Y1_1 2.757703 1_555
Rh0_0 Y1_0 2.757703 1_555
Rh0_0 Y10_0 2.921749 1_555
Rh0_0 Y10_1 2.921749 1_555
Rh0_0 Y4_1 2.957335 1_555
Rh0_0 Y4_0 2.957335 1_555
Rh0_1 Y1_1 2.757703 1_555
Rh0_1 Y1_0 2.757703 1_556
Rh0_1 Y10_1 2.921749 1_555
Rh0_1 Y10_0 2.921749 1_556
Rh0_1 Y4_1 2.957335 1_555
Rh0_1 Y4_0 2.957335 1_556
Rh0_2 Y1_2 2.757703 1_555
Rh0_2 Y1_3 2.757703 1_555
Rh0_2 Y10_2 2.921749 1_555
Rh0_2 Y10_3 2.921749 1_555
Rh0_2 Y4_2 2.957335 1_555
Rh0_2 Y4_3 2.957335 1_555
Rh0_3 Y1_3 2.757703 1_555
Rh0_3 Y1_2 2.757703 1_556
Rh0_3 Y10_3 2.921749 1_555
Rh0_3 Y10_2 2.921749 1_556
Rh0_3 Y4_3 2.957335 1_555
Rh0_3 Y4_2 2.957335 1_556
Rh0_4 Y1_4 2.757703 1_555
Rh0_4 Y1_5 2.757703 1_555
Rh0_4 Y10_4 2.921749 1_555
Rh0_4 Y10_5 2.921749 1_555
Rh0_4 Y4_5 2.957335 1_555
Rh0_4 Y4_4 2.957335 1_555
Rh0_5 Y1_5 2.757703 1_555
Rh0_5 Y1_4 2.757703 1_556
Rh0_5 Y10_5 2.921749 1_555
Rh0_5 Y10_4 2.921749 1_556
Rh0_5 Y4_5 2.957335 1_555
Rh0_5 Y4_4 2.957335 1_556
Rh0_6 Y1_6 2.757703 1_555
Rh0_6 Y1_7 2.757703 1_555
Rh0_6 Y10_6 2.921749 1_555
Rh0_6 Y10_7 2.921749 1_555
Rh0_6 Y4_7 2.957335 1_555
Rh0_6 Y4_6 2.957335 1_555
Rh0_7 Y1_7 2.757703 1_555
Rh0_7 Y1_6 2.757703 1_556
Rh0_7 Y10_7 2.921749 1_555
Rh0_7 Y10_6 2.921749 1_556
Rh0_7 Y4_7 2.957335 1_555
Rh0_7 Y4_6 2.957335 1_556
Rh1_0 Y2_0 2.779381 1_555
Rh1_0 Y2_1 2.779381 1_555
Rh1_0 Y9_0 2.853825 1_555
Rh1_0 Y9_1 2.853825 1_555
Rh1_0 Y4_1 2.951617 1_555
Rh1_0 Y4_0 2.951617 1_555
Rh1_1 Y2_1 2.779381 1_555
Rh1_1 Y2_0 2.779381 1_556
Rh1_1 Y9_1 2.853825 1_555
Rh1_1 Y9_0 2.853825 1_556
Rh1_1 Y4_1 2.951617 1_555
Rh1_1 Y4_0 2.951617 1_556
Rh1_2 Y2_3 2.779381 1_555
Rh1_2 Y2_2 2.779381 1_555
Rh1_2 Y9_3 2.853825 1_555
Rh1_2 Y9_2 2.853825 1_555
Rh1_2 Y4_2 2.951617 1_555
Rh1_2 Y4_3 2.951617 1_555
Rh1_3 Y2_3 2.779381 1_555
Rh1_3 Y2_2 2.779381 1_556
Rh1_3 Y9_3 2.853825 1_555
Rh1_3 Y9_2 2.853825 1_556
Rh1_3 Y4_3 2.951617 1_555
Rh1_3 Y4_2 2.951617 1_556
Rh1_4 Y2_4 2.779381 1_555
Rh1_4 Y2_5 2.779381 1_555
Rh1_4 Y9_5 2.853825 1_555
Rh1_4 Y9_4 2.853825 1_555
Rh1_4 Y4_5 2.951617 1_555
Rh1_4 Y4_4 2.951617 1_555
Rh1_5 Y2_5 2.779381 1_555
Rh1_5 Y2_4 2.779381 1_556
Rh1_5 Y9_5 2.853825 1_555
Rh1_5 Y9_4 2.853825 1_556
Rh1_5 Y4_5 2.951617 1_555
Rh1_5 Y4_4 2.951617 1_556
Rh1_6 Y2_6 2.779381 1_555
Rh1_6 Y2_7 2.779381 1_555
Rh1_6 Y9_7 2.853825 1_555
Rh1_6 Y9_6 2.853825 1_555
Rh1_6 Y4_6 2.951617 1_555
Rh1_6 Y4_7 2.951617 1_555
Rh1_7 Y2_7 2.779381 1_555
Rh1_7 Y2_6 2.779381 1_556
Rh1_7 Y9_7 2.853825 1_555
Rh1_7 Y9_6 2.853825 1_556
Rh1_7 Y4_7 2.951617 1_555
Rh1_7 Y4_6 2.951617 1_556
Rh2_0 Y3_1 2.777963 1_555
Rh2_0 Y3_0 2.777963 1_555
Rh2_0 Y5_1 2.868899 1_555
Rh2_0 Y5_0 2.868899 1_555
Rh2_0 Y10_1 2.933329 1_555
Rh2_0 Y10_0 2.933329 1_555
Rh2_1 Y3_1 2.777963 1_555
Rh2_1 Y3_0 2.777963 1_556
Rh2_1 Y5_1 2.868899 1_555
Rh2_1 Y5_0 2.868899 1_556
Rh2_1 Y10_1 2.933329 1_555
Rh2_1 Y10_0 2.933329 1_556
Rh2_2 Y3_2 2.777963 1_555
Rh2_2 Y3_3 2.777963 1_555
Rh2_2 Y5_2 2.868899 1_555
Rh2_2 Y5_3 2.868899 1_555
Rh2_2 Y10_2 2.933329 1_555
Rh2_2 Y10_3 2.933329 1_555
Rh2_3 Y3_3 2.777963 1_555
Rh2_3 Y3_2 2.777963 1_556
Rh2_3 Y5_3 2.868899 1_555
Rh2_3 Y5_2 2.868899 1_556
Rh2_3 Y10_3 2.933329 1_555
Rh2_3 Y10_2 2.933329 1_556
Rh2_4 Y3_4 2.777963 1_555
Rh2_4 Y3_5 2.777963 1_555
Rh2_4 Y5_4 2.868899 1_555
Rh2_4 Y5_5 2.868899 1_555
Rh2_4 Y10_4 2.933329 1_555
Rh2_4 Y10_5 2.933329 1_555
Rh2_5 Y3_5 2.777963 1_555
Rh2_5 Y3_4 2.777963 1_556
Rh2_5 Y5_5 2.868899 1_555
Rh2_5 Y5_4 2.868899 1_556
Rh2_5 Y10_5 2.933329 1_555
Rh2_5 Y10_4 2.933329 1_556
Rh2_6 Y3_6 2.777963 1_555
Rh2_6 Y3_7 2.777963 1_555
Rh2_6 Y5_6 2.868899 1_555
Rh2_6 Y5_7 2.868899 1_555
Rh2_6 Y10_6 2.933329 1_555
Rh2_6 Y10_7 2.933329 1_555
Rh2_7 Y3_7 2.777963 1_555
Rh2_7 Y3_6 2.777963 1_556
Rh2_7 Y5_7 2.868899 1_555
Rh2_7 Y5_6 2.868899 1_556
Rh2_7 Y10_7 2.933329 1_555
Rh2_7 Y10_6 2.933329 1_556
Au0_0 Y0_1 2.902531 1_555
Au0_0 Y0_0 2.902531 1_555
Au0_0 Y5_1 3.013799 1_555
Au0_0 Y5_0 3.013799 1_555
Au0_0 Y9_0 3.018130 1_555
Au0_0 Y9_1 3.018130 1_555
Au0_0 In4_0 3.090994 1_555
Au0_0 In1_0 3.112084 1_555
Au0_0 In8_0 3.126359 1_555
Au0_1 Y0_1 2.902531 1_555
Au0_1 Y0_0 2.902531 1_556
Au0_1 Y5_1 3.013799 1_555
Au0_1 Y5_0 3.013799 1_556
Au0_1 Y9_1 3.018130 1_555
Au0_1 Y9_0 3.018130 1_556
Au0_1 In4_1 3.090994 1_555
Au0_1 In1_1 3.112084 1_555
Au0_1 In8_1 3.126359 1_555
Au0_2 Y0_3 2.902531 1_555
Au0_2 Y0_2 2.902531 1_555
Au0_2 Y5_3 3.013799 1_555
Au0_2 Y5_2 3.013799 1_555
Au0_2 Y9_3 3.018130 1_555
Au0_2 Y9_2 3.018130 1_555
Au0_2 In4_2 3.090994 1_555
Au0_2 In1_2 3.112084 1_555
Au0_2 In8_2 3.126359 1_555
Au0_3 Y0_3 2.902531 1_555
Au0_3 Y0_2 2.902531 1_556
Au0_3 Y5_3 3.013799 1_555
Au0_3 Y5_2 3.013799 1_556
Au0_3 Y9_3 3.018130 1_555
Au0_3 Y9_2 3.018130 1_556
Au0_3 In4_3 3.090994 1_555
Au0_3 In1_3 3.112084 1_555
Au0_3 In8_3 3.126359 1_555
Au0_4 Y0_5 2.902531 1_555
Au0_4 Y0_4 2.902531 1_555
Au0_4 Y5_4 3.013799 1_555
Au0_4 Y5_5 3.013799 1_555
Au0_4 Y9_4 3.018130 1_555
Au0_4 Y9_5 3.018130 1_555
Au0_4 In4_4 3.090994 1_555
Au0_4 In1_4 3.112084 1_555
Au0_4 In8_4 3.126359 1_555
Au0_5 Y0_5 2.902531 1_555
Au0_5 Y0_4 2.902531 1_556
Au0_5 Y5_5 3.013799 1_555
Au0_5 Y5_4 3.013799 1_556
Au0_5 Y9_5 3.018130 1_555
Au0_5 Y9_4 3.018130 1_556
Au0_5 In4_5 3.090994 1_555
Au0_5 In1_5 3.112084 1_555
Au0_5 In8_5 3.126359 1_555
Au0_6 Y0_7 2.902531 1_555
Au0_6 Y0_6 2.902531 1_555
Au0_6 Y5_6 3.013799 1_555
Au0_6 Y5_7 3.013799 1_555
Au0_6 Y9_6 3.018130 1_555
Au0_6 Y9_7 3.018130 1_555
Au0_6 In4_6 3.090994 1_555
Au0_6 In1_6 3.112084 1_555
Au0_6 In8_6 3.126359 1_555
Au0_7 Y0_7 2.902531 1_555
Au0_7 Y0_6 2.902531 1_556
Au0_7 Y5_7 3.013799 1_555
Au0_7 Y5_6 3.013799 1_556
Au0_7 Y9_7 3.018130 1_555
Au0_7 Y9_6 3.018130 1_556
Au0_7 In4_7 3.090994 1_555
Au0_7 In1_7 3.112084 1_555
Au0_7 In8_7 3.126359 1_555
