# generated using pymatgen
data_Sr3Sc2RuO9
_symmetry_space_group_name_H-M   'P 1'
_cell_length_a   9.80618917
_cell_length_b   9.80618997
_cell_length_c   5.63112672
_cell_angle_alpha   73.21114777
_cell_angle_beta   73.21114229
_cell_angle_gamma   49.22780888
_symmetry_Int_Tables_number   1
_chemical_formula_structural   Sr3Sc2RuO9
_chemical_formula_sum   'Sr6 Sc4 Ru2 O18'
_cell_volume   388.83421433
_cell_formula_units_Z   2
loop_
 _symmetry_equiv_pos_site_id
 _symmetry_equiv_pos_as_xyz
  1  'x, y, z'
loop_
 _atom_site_type_symbol
 _atom_site_label
 _atom_site_symmetry_multiplicity
 _atom_site_fract_x
 _atom_site_fract_y
 _atom_site_fract_z
 _atom_site_occupancy
  Sr  Sr0  1  0.91783086  0.40755212  0.84212163  1
  Sr  Sr1  1  0.24031238  0.75968762  0.50000000  1
  Sr  Sr2  1  0.59244788  0.08216914  0.15787837  1
  Sr  Sr3  1  0.75968762  0.24031238  0.50000000  1
  Sr  Sr4  1  0.08216914  0.59244788  0.15787837  1
  Sr  Sr5  1  0.40755212  0.91783086  0.84212163  1
  Sc  Sc0  1  0.50000000  0.50000000  0.00000000  1
  Sc  Sc1  1  0.83359460  0.83359460  0.66242339  1
  Sc  Sc2  1  0.16640540  0.16640540  0.33757661  1
  Sc  Sc3  1  0.00000000  0.00000000  0.00000000  1
  Ru  Ru0  1  0.33325653  0.33325653  0.66485874  1
  Ru  Ru1  1  0.66674347  0.66674347  0.33514126  1
  O  O0  1  0.43122357  0.90797681  0.33028486  1
  O  O1  1  0.74614533  0.25385467  1.00000000  1
  O  O2  1  0.09202319  0.56877643  0.66971514  1
  O  O3  1  0.90797681  0.43122357  0.33028486  1
  O  O4  1  0.25385467  0.74614533  0.00000000  1
  O  O5  1  0.56877643  0.09202319  0.66971514  1
  O  O6  1  0.07066650  0.07066650  0.23119836  1
  O  O7  1  0.39796289  0.39796289  0.88067305  1
  O  O8  1  0.72669520  0.72669520  0.56004176  1
  O  O9  1  0.60203711  0.60203711  0.11932695  1
  O  O10  1  0.92933350  0.92933350  0.76880164  1
  O  O11  1  0.27330480  0.27330480  0.43995824  1
  O  O12  1  0.57240822  0.57240822  0.61784377  1
  O  O13  1  0.89508731  0.89508731  0.30227604  1
  O  O14  1  0.24128979  0.24128979  0.95124164  1
  O  O15  1  0.10491269  0.10491269  0.69772396  1
  O  O16  1  0.42759178  0.42759178  0.38215623  1
  O  O17  1  0.75871021  0.75871021  0.04875836  1
loop_
_geom_bond_atom_site_label_1
_geom_bond_atom_site_label_2
_geom_bond_distance
_geom_bond_site_symmetry_2
O0 Ru1 1.947830 1_555
O0 Sc2 2.137898 1_565
O0 Sr5 2.793849 1_554
O0 Sr2 2.835923 1_565
O0 Sr5 2.848771 1_555
O0 Sr1 2.872621 1_555
O1 Sc0 2.010659 1_556
O1 Sc3 2.073633 1_656
O1 Sr0 2.751710 1_555
O1 Sr2 2.751710 1_556
O1 Sr3 2.817736 1_555
O1 Sr3 2.817736 1_556
O2 Ru0 1.947830 1_555
O2 Sc1 2.137898 1_455
O2 Sr4 2.793849 1_556
O2 Sr0 2.835923 1_455
O2 Sr4 2.848771 1_555
O2 Sr1 2.872621 1_555
O3 Ru1 1.947830 1_555
O3 Sc2 2.137898 1_655
O3 Sr0 2.793849 1_554
O3 Sr4 2.835923 1_655
O3 Sr0 2.848771 1_555
O3 Sr3 2.872621 1_555
O4 Sc0 2.010659 1_555
O4 Sc3 2.073633 1_565
O4 Sr4 2.751710 1_555
O4 Sr5 2.751710 1_554
O4 Sr1 2.817736 1_555
O4 Sr1 2.817736 1_554
O5 Ru0 1.947830 1_555
O5 Sc1 2.137898 1_545
O5 Sr2 2.793849 1_556
O5 Sr5 2.835923 1_545
O5 Sr2 2.848771 1_555
O5 Sr3 2.872621 1_555
O6 Sc2 1.980566 1_555
O6 Sc3 2.079649 1_555
O6 Sr3 2.553484 1_455
O6 Sr1 2.553485 1_545
O6 Sr5 3.034611 1_544
O6 Sr0 3.034611 1_454
O7 Ru0 1.923263 1_555
O7 Sc0 2.130345 1_556
O7 Sr4 2.622429 1_556
O7 Sr2 2.622429 1_556
O7 Sr3 3.150682 1_555
O7 Sr1 3.150683 1_555
O8 Ru1 1.899151 1_555
O8 Sc1 2.159552 1_555
O8 Sr5 2.648996 1_555
O8 Sr0 2.648997 1_555
O8 Sr4 3.190759 1_655
O8 Sr2 3.190759 1_565
O9 Ru1 1.923263 1_555
O9 Sc0 2.130345 1_555
O9 Sr0 2.622429 1_554
O9 Sr5 2.622429 1_554
O9 Sr1 3.150682 1_555
O9 Sr3 3.150683 1_555
O10 Sc1 1.980566 1_555
O10 Sc3 2.079649 1_666
O10 Sr1 2.553484 1_655
O10 Sr3 2.553485 1_565
O10 Sr2 3.034611 1_566
O10 Sr4 3.034611 1_656
O11 Ru0 1.899151 1_555
O11 Sc2 2.159552 1_555
O11 Sr2 2.648996 1_555
O11 Sr4 2.648997 1_555
O11 Sr0 3.190759 1_455
O11 Sr5 3.190759 1_545
O12 Ru1 1.913633 1_555
O12 Sc0 2.128940 1_556
O12 Sr1 2.674214 1_555
O12 Sr3 2.674214 1_555
O12 Sr0 3.133982 1_555
O12 Sr5 3.133982 1_555
O13 Sc1 1.975386 1_555
O13 Sc3 2.091244 1_665
O13 Sr2 2.501091 1_565
O13 Sr4 2.501091 1_655
O13 Sr1 3.148934 1_655
O13 Sr3 3.148934 1_565
O14 Ru0 1.899802 1_555
O14 Sc2 2.160979 1_556
O14 Sr0 2.624772 1_455
O14 Sr5 2.624773 1_545
O14 Sr2 3.145551 1_556
O14 Sr4 3.145551 1_556
O15 Sc2 1.975386 1_555
O15 Sc3 2.091244 1_556
O15 Sr5 2.501091 1_545
O15 Sr0 2.501091 1_455
O15 Sr3 3.148934 1_455
O15 Sr1 3.148934 1_545
O16 Ru0 1.913633 1_555
O16 Sc0 2.128940 1_555
O16 Sr3 2.674214 1_555
O16 Sr1 2.674214 1_555
O16 Sr4 3.133982 1_555
O16 Sr2 3.133982 1_555
O17 Ru1 1.899802 1_555
O17 Sc1 2.160979 1_554
O17 Sr4 2.624772 1_655
O17 Sr2 2.624773 1_565
O17 Sr5 3.145551 1_554
O17 Sr0 3.145551 1_554
