# generated using pymatgen
data_CaScReH6
_symmetry_space_group_name_H-M   'P 1'
_cell_length_a   4.92413902
_cell_length_b   4.92413928
_cell_length_c   4.92413990
_cell_angle_alpha   60.00000898
_cell_angle_beta   60.00000725
_cell_angle_gamma   60.00001416
_symmetry_Int_Tables_number   1
_chemical_formula_structural   CaScReH6
_chemical_formula_sum   'Ca1 Sc1 Re1 H6'
_cell_volume   84.42598154
_cell_formula_units_Z   1
loop_
 _symmetry_equiv_pos_site_id
 _symmetry_equiv_pos_as_xyz
  1  'x, y, z'
loop_
 _atom_site_type_symbol
 _atom_site_label
 _atom_site_symmetry_multiplicity
 _atom_site_fract_x
 _atom_site_fract_y
 _atom_site_fract_z
 _atom_site_occupancy
  Ca  Ca0  1  0.75000000  0.75000000  0.75000000  1
  Sc  Sc0  1  0.25000000  0.25000000  0.25000000  1
  Re  Re0  1  0.00000000  0.00000000  0.00000000  1
  H  H0  1  0.74747130  0.74747130  0.25252870  1
  H  H1  1  0.25252870  0.74747130  0.25252870  1
  H  H2  1  0.74747130  0.25252870  0.25252870  1
  H  H3  1  0.25252870  0.25252870  0.74747130  1
  H  H4  1  0.74747130  0.25252870  0.74747130  1
  H  H5  1  0.25252870  0.74747130  0.74747130  1
loop_
_geom_bond_atom_site_label_1
_geom_bond_atom_site_label_2
_geom_bond_distance
_geom_bond_site_symmetry_2
Ca0 H5 2.462132 1_555
Ca0 H5 2.462132 1_655
Ca0 H4 2.462133 1_555
Ca0 H4 2.462133 1_565
Ca0 H0 2.462133 1_555
Ca0 H0 2.462133 1_556
Ca0 H1 2.462133 1_655
Ca0 H1 2.462133 1_556
Ca0 H3 2.462133 1_655
Ca0 H3 2.462133 1_565
Ca0 H2 2.462133 1_565
Ca0 H2 2.462133 1_556
H0 Re0 1.758555 1_665
H0 Sc0 2.462133 1_655
H0 Sc0 2.462133 1_565
H1 Re0 1.758556 1_565
H1 Sc0 2.462133 1_555
H1 Sc0 2.462133 1_565
H2 Re0 1.758556 1_655
H2 Sc0 2.462132 1_555
H2 Sc0 2.462132 1_655
H3 Re0 1.758555 1_556
H3 Sc0 2.462133 1_555
H3 Sc0 2.462133 1_556
H4 Re0 1.758556 1_656
H4 Sc0 2.462133 1_655
H4 Sc0 2.462133 1_556
H5 Re0 1.758556 1_566
H5 Sc0 2.462133 1_565
H5 Sc0 2.462133 1_556
