# generated using pymatgen
data_IBr5F6
_symmetry_space_group_name_H-M   'P 1'
_cell_length_a   8.05147836
_cell_length_b   8.05147809
_cell_length_c   10.96683318
_cell_angle_alpha   80.16355281
_cell_angle_beta   80.16355284
_cell_angle_gamma   69.51604879
_symmetry_Int_Tables_number   1
_chemical_formula_structural   IBr5F6
_chemical_formula_sum   'I2 Br10 F12'
_cell_volume   651.42936953
_cell_formula_units_Z   2
loop_
 _symmetry_equiv_pos_site_id
 _symmetry_equiv_pos_as_xyz
  1  'x, y, z'
loop_
 _atom_site_type_symbol
 _atom_site_label
 _atom_site_symmetry_multiplicity
 _atom_site_fract_x
 _atom_site_fract_y
 _atom_site_fract_z
 _atom_site_occupancy
  I  I0  1  0.39411074  0.60588926  0.75000000  1
  I  I1  1  0.60588926  0.39411074  0.25000000  1
  Br  Br0  1  0.00000000  0.00000000  0.50000000  1
  Br  Br1  1  0.00000000  0.00000000  0.00000000  1
  Br  Br2  1  0.10805419  0.70069548  0.41395909  1
  Br  Br3  1  0.29930452  0.89194581  0.08604091  1
  Br  Br4  1  0.89194581  0.29930452  0.58604091  1
  Br  Br5  1  0.70069548  0.10805419  0.91395909  1
  Br  Br6  1  0.87195018  0.68835295  0.32087954  1
  Br  Br7  1  0.31164705  0.12804982  0.17912046  1
  Br  Br8  1  0.12804982  0.31164705  0.67912046  1
  Br  Br9  1  0.68835295  0.87195018  0.82087954  1
  F  F0  1  0.64773530  0.64422317  0.74034463  1
  F  F1  1  0.35577683  0.35226470  0.75965537  1
  F  F2  1  0.35226470  0.35577683  0.25965537  1
  F  F3  1  0.64422317  0.64773530  0.24034463  1
  F  F4  1  0.33120144  0.85249580  0.74334407  1
  F  F5  1  0.14750420  0.66879856  0.75665593  1
  F  F6  1  0.66879856  0.14750420  0.25665593  1
  F  F7  1  0.85249580  0.33120144  0.24334407  1
  F  F8  1  0.38923490  0.65544582  0.57210413  1
  F  F9  1  0.34455418  0.61076510  0.92789587  1
  F  F10  1  0.61076510  0.34455418  0.42789587  1
  F  F11  1  0.65544582  0.38923490  0.07210413  1
loop_
_geom_bond_atom_site_label_1
_geom_bond_atom_site_label_2
_geom_bond_distance
_geom_bond_site_symmetry_2
Br0 Br4 2.546312 1_455
Br0 Br2 2.546312 1_545
Br1 Br3 2.546312 1_545
Br1 Br5 2.546312 1_454
Br2 Br6 2.344254 1_455
Br3 Br7 2.344254 1_565
Br4 Br8 2.344254 1_655
Br5 Br9 2.344254 1_545
Br6 F3 2.306631 1_555
Br7 F2 2.306631 1_555
Br8 F1 2.306631 1_555
Br9 F0 2.306631 1_555
F0 I0 2.152330 1_555
F1 I0 2.152330 1_555
F2 I1 2.152330 1_555
F3 I1 2.152330 1_555
F4 I0 1.861051 1_555
F5 I0 1.861051 1_555
F6 I1 1.861051 1_555
F7 I1 1.861051 1_555
F8 I0 1.927745 1_555
F9 I0 1.927745 1_555
F10 I1 1.927745 1_555
F11 I1 1.927745 1_555
