# generated using pymatgen
data_La2S3
_symmetry_space_group_name_H-M   'P 1'
_cell_length_a   14.49094774
_cell_length_b   14.49093446
_cell_length_c   14.49085540
_cell_angle_alpha   144.74074988
_cell_angle_beta   144.74011576
_cell_angle_gamma   50.72169340
_symmetry_Int_Tables_number   1
_chemical_formula_structural   La2S3
_chemical_formula_sum   'La16 S24'
_cell_volume   1008.87211565
_cell_formula_units_Z   8
loop_
 _symmetry_equiv_pos_site_id
 _symmetry_equiv_pos_as_xyz
  1  'x, y, z'
loop_
 _atom_site_type_symbol
 _atom_site_label
 _atom_site_symmetry_multiplicity
 _atom_site_fract_x
 _atom_site_fract_y
 _atom_site_fract_z
 _atom_site_occupancy
  La  La0  1  0.16470248  0.16468768  -0.00001897  1
  La  La1  1  0.87501111  0.50456735  0.12954774  1
  La  La2  1  0.17962968  0.29782676  0.40038581  1
  La  La3  1  0.58530970  0.08525806  0.49997267  1
  La  La4  1  0.89740719  0.77921930  0.59957071  1
  La  La5  1  0.37500462  0.74546609  0.87045163  1
  La  La6  1  0.22075495  0.82041093  0.11822628  1
  La  La7  1  0.49543886  0.62497753  0.37044283  1
  La  La8  1  0.91470605  0.41469688  0.49999909  1
  La  La9  1  0.25453956  0.12498773  0.62954657  1
  La  La10  1  0.70220598  0.10251475  0.88178310  1
  La  La11  1  0.83529087  0.83529951  -0.00000293  1
  La  La12  1  0.52924504  0.14744133  0.09961905  1
  La  La13  1  0.85258213  0.95223753  0.38188618  1
  La  La14  1  0.57036380  0.47075608  0.61819322  1
  La  La15  1  0.04782059  0.42966288  0.90041673  1
  S  S0  1  0.07211441  0.82737494  0.61102701  1
  S  S1  1  0.86087864  0.25340119  0.74741755  1
  S  S2  1  0.88913118  0.13647680  0.89244648  1
  S  S3  1  0.50599068  0.11348540  0.25261168  1
  S  S4  1  0.24403595  0.99667210  0.10755616  1
  S  S5  1  0.67783383  0.78893068  0.25522704  1
  S  S6  1  0.21632203  0.46109099  0.38895840  1
  S  S7  1  0.53368832  0.42261920  0.74476982  1
  S  S8  1  0.40287148  0.15149889  0.58793207  1
  S  S9  1  0.18506730  0.59713678  0.74863877  1
  S  S10  1  0.21107926  0.46631213  0.88892997  1
  S  S11  1  0.84848667  0.43641548  0.25134048  1
  S  S12  1  0.57738192  0.32214220  0.11106237  1
  S  S13  1  0.56356087  0.81492324  0.41204817  1
  S  S14  1  0.00333943  0.11087010  0.24736635  1
  S  S15  1  0.86353141  0.75596431  0.75263590  1
  S  S16  1  0.74662428  0.49400683  0.60749188  1
  S  S17  1  0.53890123  0.92785223  0.75521992  1
  S  S18  1  0.17264737  0.78366069  0.24476661  1
  S  S19  1  0.56496238  0.81356482  0.91200620  1
  S  S20  1  0.90155632  0.65297941  0.08801391  1
  S  S21  1  0.88650975  0.13913615  0.39250948  1
  S  S22  1  0.34704241  0.43502206  0.24859754  1
  S  S23  1  0.18642928  0.09845100  0.75140852  1
loop_
_geom_bond_atom_site_label_1
_geom_bond_atom_site_label_2
_geom_bond_distance
_geom_bond_site_symmetry_2
La0 S0 2.902143 1_544
La0 S6 2.902466 1_555
La0 S3 2.938330 1_555
La0 S1 2.938338 1_454
La0 S2 3.066968 1_454
La0 S4 3.067080 1_545
La0 S23 3.133407 1_554
La0 S22 3.133544 1_555
La1 S7 2.923919 1_554
La1 S6 2.923947 1_655
La1 S11 2.944952 1_555
La1 S20 2.945304 1_555
La1 S0 3.129264 1_655
La1 S5 3.129748 1_555
La1 S1 3.182743 1_554
La1 S2 3.183575 1_554
La2 S6 2.878149 1_555
La2 S9 2.885014 1_555
La2 S14 2.912796 1_555
La2 S8 2.952163 1_555
La2 S4 2.998408 1_545
La2 S11 3.111362 1_455
La2 S7 3.113548 1_555
La2 S2 3.334807 1_454
La3 S5 2.901681 1_545
La3 S7 2.902529 1_555
La3 S2 2.938082 1_555
La3 S4 2.938098 1_545
La3 S3 3.067197 1_555
La3 S1 3.067296 1_555
La3 S13 3.134506 1_545
La3 S8 3.134797 1_555
La4 S0 2.878406 1_655
La4 S11 2.884929 1_555
La4 S15 2.912476 1_555
La4 S13 2.951944 1_555
La4 S2 2.998538 1_565
La4 S9 3.111419 1_655
La4 S5 3.113512 1_555
La4 S4 3.335147 1_656
La5 S5 2.923838 1_556
La5 S0 2.924091 1_555
La5 S9 2.944795 1_555
La5 S19 2.945445 1_555
La5 S6 3.129328 1_555
La5 S7 3.129669 1_555
La5 S3 3.182986 1_566
La5 S4 3.183395 1_556
La6 S18 2.878254 1_555
La6 S13 2.885044 1_555
La6 S4 2.912524 1_555
La6 S9 2.952253 1_554
La6 S15 2.998394 1_454
La6 S8 3.110991 1_565
La6 S10 3.113851 1_554
La6 S14 3.334446 1_565
La7 S17 2.923870 1_555
La7 S12 2.923891 1_555
La7 S13 2.944914 1_555
La7 S22 2.945484 1_555
La7 S18 3.129252 1_555
La7 S10 3.129584 1_554
La7 S16 3.182980 1_555
La7 S15 3.183646 1_555
La8 S10 2.902158 1_655
La8 S12 2.902233 1_555
La8 S15 2.938055 1_555
La8 S14 2.938095 1_655
La8 S21 3.067122 1_555
La8 S16 3.067173 1_555
La8 S9 3.134704 1_655
La8 S11 3.134714 1_555
La9 S10 2.923920 1_555
La9 S18 2.923967 1_545
La9 S8 2.944851 1_555
La9 S23 2.945535 1_555
La9 S17 3.129410 1_545
La9 S12 3.129586 1_556
La9 S21 3.183126 1_455
La9 S14 3.183347 1_555
La10 S17 2.878382 1_545
La10 S8 2.885278 1_555
La10 S2 2.912635 1_555
La10 S11 2.952198 1_556
La10 S14 2.998400 1_656
La10 S13 3.111104 1_545
La10 S12 3.113895 1_556
La10 S15 3.334411 1_545
La11 S17 2.902291 1_554
La11 S18 2.902565 1_655
La11 S16 2.938327 1_554
La11 S21 2.938336 1_565
La11 S14 3.066988 1_665
La11 S15 3.067195 1_554
La11 S20 3.133627 1_555
La11 S19 3.133645 1_554
La12 S12 2.878270 1_555
La12 S23 2.884923 1_554
La12 S3 2.912427 1_555
La12 S19 2.951868 1_544
La12 S21 2.998697 1_555
La12 S22 3.111725 1_555
La12 S17 3.113489 1_544
La12 S16 3.334404 1_555
La13 S5 2.878456 1_555
La13 S20 2.885139 1_555
La13 S21 2.912383 1_565
La13 S23 2.951545 1_665
La13 S1 2.998369 1_565
La13 S19 3.112193 1_554
La13 S0 3.113258 1_655
La13 S3 3.334390 1_565
La14 S7 2.878216 1_555
La14 S19 2.884825 1_555
La14 S16 2.912593 1_555
La14 S22 2.951776 1_555
La14 S3 2.998700 1_555
La14 S20 3.111918 1_556
La14 S6 3.113471 1_555
La14 S1 3.334475 1_555
La15 S10 2.878357 1_555
La15 S22 2.884933 1_556
La15 S1 2.912473 1_455
La15 S20 2.951750 1_456
La15 S16 2.998689 1_455
La15 S23 3.111985 1_555
La15 S18 3.113152 1_556
La15 S21 3.334632 1_455
