# generated using pymatgen
data_Zn22CuNiRu
_symmetry_space_group_name_H-M   'P 1'
_cell_length_a   7.61856535
_cell_length_b   7.61856528
_cell_length_c   7.62937887
_cell_angle_alpha   71.92723179
_cell_angle_beta   71.92723040
_cell_angle_gamma   58.00811839
_symmetry_Int_Tables_number   1
_chemical_formula_structural   Zn22CuNiRu
_chemical_formula_sum   'Zn22 Cu1 Ni1 Ru1'
_cell_volume   351.15191654
_cell_formula_units_Z   1
loop_
 _symmetry_equiv_pos_site_id
 _symmetry_equiv_pos_as_xyz
  1  'x, y, z'
loop_
 _atom_site_type_symbol
 _atom_site_label
 _atom_site_symmetry_multiplicity
 _atom_site_fract_x
 _atom_site_fract_y
 _atom_site_fract_z
 _atom_site_occupancy
  Zn  Zn0  1  0.34737479  0.73729001  0.31447242  1
  Zn  Zn1  1  0.64987366  0.25973688  0.69053303  1
  Zn  Zn2  1  0.25973688  0.64987366  0.69053303  1
  Zn  Zn3  1  0.73729001  0.34737479  0.31447242  1
  Zn  Zn4  1  0.67778984  0.32193754  0.99814051  1
  Zn  Zn5  1  0.32193754  0.67778984  0.99814051  1
  Zn  Zn6  1  0.82918697  0.82918697  0.78624181  1
  Zn  Zn7  1  0.17209434  0.17209434  0.21232694  1
  Zn  Zn8  1  0.97811690  0.97811690  0.17266653  1
  Zn  Zn9  1  0.02239301  0.02239301  0.82647245  1
  Zn  Zn10  1  0.35452483  0.35452483  0.27177245  1
  Zn  Zn11  1  0.64592427  0.64592427  0.72542057  1
  Zn  Zn12  1  0.68923241  0.68923241  0.37507821  1
  Zn  Zn13  1  0.31233500  0.31233500  0.62318377  1
  Zn  Zn14  1  0.65863281  0.02366948  0.46256446  1
  Zn  Zn15  1  0.34201795  0.97460384  0.53725342  1
  Zn  Zn16  1  0.97460384  0.34201795  0.53725342  1
  Zn  Zn17  1  0.02366948  0.65863281  0.46256446  1
  Zn  Zn18  1  0.61376129  0.00303062  0.10218981  1
  Zn  Zn19  1  0.38358432  0.00269065  0.89745738  1
  Zn  Zn20  1  0.00269065  0.38358432  0.89745738  1
  Zn  Zn21  1  0.00303062  0.61376129  0.10218981  1
  Cu  Cu0  1  0.65760081  0.65760081  0.05553172  1
  Ni  Ni0  1  0.34240649  0.34240649  0.94609069  1
  Ru  Ru0  1  0.00018829  0.00018829  0.49999282  1
loop_
_geom_bond_atom_site_label_1
_geom_bond_atom_site_label_2
_geom_bond_distance
_geom_bond_site_symmetry_2
Zn0 Zn12 2.600544 1_555
Zn0 Zn5 2.670145 1_554
Zn0 Zn8 2.763804 1_455
Zn0 Zn10 3.003824 1_555
Zn1 Zn13 2.576375 1_555
Zn1 Zn4 2.623741 1_555
Zn1 Zn9 2.761324 1_655
Zn1 Zn11 3.019168 1_555
Zn2 Zn5 2.623741 1_555
Zn2 Zn9 2.761324 1_565
Zn3 Zn4 2.670145 1_554
Zn3 Zn8 2.763804 1_545
Zn4 Zn5 2.629055 1_555
Zn4 Zn9 2.681149 1_655
Zn4 Zn8 2.691692 1_546
Zn5 Zn9 2.681149 1_565
Zn5 Zn8 2.691692 1_456
Zn6 Zn9 2.698871 1_665
Zn7 Zn8 2.707130 1_445
Zn8 Zn9 2.493741 1_664
Zn10 Zn13 2.536686 1_555
Zn10 Zn7 2.626430 1_555
Zn10 Zn4 2.639889 1_554
Zn10 Zn5 2.639890 1_554
Zn10 Zn17 2.732813 1_555
Zn10 Zn14 2.732813 1_555
Zn10 Zn18 2.775939 1_555
Zn10 Zn21 2.775939 1_555
Zn10 Zn3 3.003824 1_555
Zn10 Zn16 3.004074 1_455
Zn10 Zn15 3.004074 1_545
Zn11 Zn12 2.526477 1_555
Zn11 Zn5 2.640592 1_555
Zn11 Zn4 2.640592 1_555
Zn11 Zn6 2.642643 1_555
Zn11 Zn16 2.716737 1_555
Zn11 Zn15 2.716737 1_555
Zn11 Zn19 2.816876 1_565
Zn11 Zn20 2.816877 1_655
Zn11 Zn17 2.984497 1_655
Zn11 Zn14 2.984497 1_565
Zn11 Zn2 3.019168 1_555
Zn12 Zn21 2.564883 1_655
Zn12 Zn18 2.564883 1_565
Zn12 Zn3 2.600544 1_555
Zn12 Zn15 2.607601 1_555
Zn12 Zn16 2.607601 1_555
Zn12 Zn14 2.705744 1_565
Zn12 Zn17 2.705744 1_655
Zn13 Zn20 2.554130 1_555
Zn13 Zn19 2.554130 1_555
Zn13 Zn2 2.576375 1_555
Zn13 Zn14 2.610938 1_555
Zn13 Zn17 2.610938 1_555
Zn13 Zn15 2.727543 1_545
Zn13 Zn16 2.727544 1_455
Zn14 Zn8 2.679124 1_545
Zn15 Zn9 2.675139 1_565
Zn15 Zn19 2.945321 1_565
Zn16 Zn9 2.675139 1_655
Zn16 Zn20 2.945321 1_655
Zn17 Zn8 2.679124 1_455
Zn18 Zn4 2.567106 1_554
Zn18 Zn19 2.687336 1_554
Zn18 Zn8 2.887047 1_545
Zn19 Zn5 2.601136 1_545
Zn19 Zn7 2.711332 1_556
Zn19 Zn20 2.814062 1_555
Zn19 Zn6 2.854120 1_545
Zn19 Zn9 2.885229 1_555
Zn20 Zn4 2.601136 1_455
Zn20 Zn21 2.687336 1_556
Zn20 Zn7 2.711332 1_556
Zn20 Zn6 2.854120 1_455
Zn20 Zn9 2.885229 1_555
Zn21 Zn5 2.567106 1_554
Zn21 Zn8 2.887047 1_455
Cu0 Zn6 2.473211 1_554
Cu0 Zn0 2.486802 1_555
Cu0 Zn3 2.486802 1_555
Cu0 Zn20 2.550274 1_654
Cu0 Zn19 2.550274 1_564
Cu0 Zn11 2.577846 1_554
Cu0 Zn18 2.596176 1_565
Cu0 Zn21 2.596176 1_655
Cu0 Zn12 2.617305 1_555
Cu0 Zn4 2.644086 1_554
Cu0 Zn5 2.644086 1_554
Ni0 Zn7 2.450814 1_556
Ni0 Zn1 2.459722 1_555
Ni0 Zn2 2.459722 1_555
Ni0 Zn21 2.516071 1_556
Ni0 Zn18 2.516071 1_556
Ni0 Zn10 2.546512 1_556
Ni0 Zn19 2.568631 1_555
Ni0 Zn20 2.568631 1_555
Ni0 Zn5 2.622913 1_555
Ni0 Zn4 2.622913 1_555
Ni0 Zn13 2.632525 1_555
Ru0 Zn6 2.536095 1_445
Ru0 Zn7 2.549109 1_555
Ru0 Zn16 2.605383 1_455
Ru0 Zn15 2.605383 1_545
Ru0 Zn9 2.610499 1_555
Ru0 Zn17 2.611681 1_545
Ru0 Zn14 2.611681 1_455
Ru0 Zn0 2.614169 1_545
Ru0 Zn3 2.614169 1_455
Ru0 Zn8 2.616120 1_445
Ru0 Zn1 2.632612 1_455
Ru0 Zn2 2.632612 1_545
