# generated using pymatgen
data_Cs12TiMo3Se16
_symmetry_space_group_name_H-M   'P 1'
_cell_length_a   10.29616721
_cell_length_b   10.30493270
_cell_length_c   11.96191771
_cell_angle_alpha   90.00000000
_cell_angle_beta   90.00000000
_cell_angle_gamma   89.88725373
_symmetry_Int_Tables_number   1
_chemical_formula_structural   Cs12TiMo3Se16
_chemical_formula_sum   'Cs12 Ti1 Mo3 Se16'
_cell_volume   1269.17268427
_cell_formula_units_Z   1
loop_
 _symmetry_equiv_pos_site_id
 _symmetry_equiv_pos_as_xyz
  1  'x, y, z'
loop_
 _atom_site_type_symbol
 _atom_site_label
 _atom_site_symmetry_multiplicity
 _atom_site_fract_x
 _atom_site_fract_y
 _atom_site_fract_z
 _atom_site_occupancy
  Cs  Cs0  1  0.95067510  0.70283161  0.96536340  1
  Cs  Cs1  1  0.45665749  0.78855656  0.96014102  1
  Cs  Cs2  1  0.55488449  0.21281772  0.45790349  1
  Cs  Cs3  1  0.03836089  0.29963144  0.04575128  1
  Cs  Cs4  1  0.14954595  0.09331030  0.75000000  1
  Cs  Cs5  1  0.64428263  0.41883199  0.75000000  1
  Cs  Cs6  1  0.35969855  0.58513213  0.25000000  1
  Cs  Cs7  1  0.84818858  0.90494301  0.25000000  1
  Cs  Cs8  1  0.03836089  0.29963144  0.45424872  1
  Cs  Cs9  1  0.45665749  0.78855656  0.53985898  1
  Cs  Cs10  1  0.55488449  0.21281772  0.04209651  1
  Cs  Cs11  1  0.95067510  0.70283161  0.53463660  1
  Ti  Ti0  1  0.77858377  0.48124288  0.25000000  1
  Mo  Mo0  1  0.27725386  0.01846082  0.25000000  1
  Mo  Mo1  1  0.72565440  0.98315527  0.75000000  1
  Mo  Mo2  1  0.21701124  0.51740784  0.75000000  1
  Se  Se0  1  0.20419841  0.74517240  0.75000000  1
  Se  Se1  1  0.71027555  0.75602873  0.75000000  1
  Se  Se2  1  0.29423039  0.24397193  0.25000000  1
  Se  Se3  1  0.79404988  0.24922709  0.25000000  1
  Se  Se4  1  0.00476363  0.43214297  0.75000000  1
  Se  Se5  1  0.51446244  0.07447970  0.75000000  1
  Se  Se6  1  0.48692815  0.92963942  0.25000000  1
  Se  Se7  1  0.99484781  0.56986141  0.25000000  1
  Se  Se8  1  0.66749699  0.54698815  0.41671848  1
  Se  Se9  1  0.16750039  0.95478747  0.08817206  1
  Se  Se10  1  0.83436118  0.04484049  0.58575429  1
  Se  Se11  1  0.32807585  0.44804212  0.91038441  1
  Se  Se12  1  0.32807585  0.44804212  0.58961559  1
  Se  Se13  1  0.66749699  0.54698815  0.08328152  1
  Se  Se14  1  0.16750039  0.95478747  0.41182794  1
  Se  Se15  1  0.83436118  0.04484049  0.91424571  1
loop_
_geom_bond_atom_site_label_1
_geom_bond_atom_site_label_2
_geom_bond_distance
_geom_bond_site_symmetry_2
Cs0 Se1 3.613635 1_555
Cs0 Se13 3.617751 1_556
Cs0 Se0 3.693943 1_655
Cs0 Se7 3.697924 1_556
Cs0 Se9 3.729076 1_656
Cs0 Se15 3.769979 1_565
Cs0 Se4 3.836865 1_655
Cs1 Se13 3.613563 1_556
Cs1 Se1 3.639561 1_555
Cs1 Se0 3.644140 1_555
Cs1 Se9 3.758132 1_556
Cs1 Se6 3.772871 1_556
Cs1 Se11 3.799758 1_555
Cs1 Se5 3.919330 1_565
Cs2 Se3 3.520375 1_555
Cs2 Se8 3.668953 1_555
Cs2 Se2 3.672454 1_555
Cs2 Se10 3.687255 1_555
Cs2 Se12 3.713367 1_555
Cs2 Se5 3.796849 1_555
Cs2 Se6 3.898448 1_545
Cs3 Se3 3.545668 1_455
Cs3 Se2 3.637685 1_555
Cs3 Se15 3.715071 1_454
Cs3 Se11 3.725168 1_554
Cs3 Se7 3.730902 1_455
Cs3 Se4 3.807643 1_554
Cs3 Se9 3.825555 1_545
Cs4 Se0 3.630306 1_545
Cs4 Se5 3.761867 1_555
Cs4 Se4 3.793852 1_555
Cs4 Se15 3.827162 1_455
Cs4 Se10 3.827162 1_455
Cs4 Se9 4.293522 1_546
Cs4 Se14 4.293522 1_545
Cs5 Se1 3.541912 1_555
Cs5 Se4 3.714376 1_655
Cs5 Se11 3.790397 1_555
Cs5 Se12 3.790397 1_555
Cs5 Se5 3.794384 1_555
Cs5 Se13 4.206677 1_556
Cs5 Se8 4.206677 1_555
Cs6 Se2 3.580974 1_555
Cs6 Se7 3.760168 1_455
Cs6 Se8 3.764333 1_555
Cs6 Se13 3.764333 1_555
Cs6 Se6 3.786519 1_555
Cs7 Se3 3.590263 1_565
Cs7 Se6 3.727794 1_555
Cs7 Se7 3.766009 1_555
Cs7 Se14 3.850530 1_655
Cs7 Se9 3.850530 1_655
Cs7 Se10 4.269445 1_565
Cs7 Se15 4.269445 1_564
Cs8 Se3 3.545668 1_455
Cs8 Se2 3.637685 1_555
Cs8 Se10 3.715071 1_455
Cs8 Se12 3.725168 1_555
Cs8 Se7 3.730902 1_455
Cs8 Se4 3.807643 1_555
Cs8 Se14 3.825555 1_545
Cs9 Se8 3.613563 1_555
Cs9 Se1 3.639561 1_555
Cs9 Se0 3.644140 1_555
Cs9 Se14 3.758132 1_555
Cs9 Se6 3.772871 1_555
Cs9 Se12 3.799758 1_555
Cs9 Se5 3.919330 1_565
Cs10 Se3 3.520375 1_555
Cs10 Se13 3.668953 1_555
Cs10 Se2 3.672454 1_555
Cs10 Se15 3.687255 1_554
Cs10 Se11 3.713367 1_554
Cs10 Se5 3.796849 1_554
Cs10 Se6 3.898448 1_545
Cs11 Se1 3.613635 1_555
Cs11 Se8 3.617751 1_555
Cs11 Se0 3.693943 1_655
Cs11 Se7 3.697924 1_555
Cs11 Se14 3.729076 1_655
Cs11 Se10 3.769979 1_565
Cs11 Se4 3.836865 1_655
Mo0 Se2 2.330784 1_555
Mo0 Se14 2.336163 1_545
Mo0 Se9 2.336163 1_545
Mo0 Se6 2.343201 1_545
Mo1 Se1 2.346185 1_555
Mo1 Se15 2.349391 1_565
Mo1 Se10 2.349391 1_565
Mo1 Se5 2.367680 1_565
Mo2 Se11 2.344372 1_555
Mo2 Se12 2.344372 1_555
Mo2 Se0 2.350544 1_555
Mo2 Se4 2.356964 1_555
Se3 Ti0 2.395892 1_555
Se7 Ti0 2.408340 1_555
Se8 Ti0 2.396098 1_555
Se13 Ti0 2.396098 1_555
