# generated using pymatgen
data_Ca6Al24Os5Pd3
_symmetry_space_group_name_H-M   'P 1'
_cell_length_a   8.84332438
_cell_length_b   8.85304891
_cell_length_c   9.57718704
_cell_angle_alpha   90.03414600
_cell_angle_beta   89.77241225
_cell_angle_gamma   119.92520910
_symmetry_Int_Tables_number   1
_chemical_formula_structural   Ca6Al24Os5Pd3
_chemical_formula_sum   'Ca6 Al24 Os5 Pd3'
_cell_volume   649.83013651
_cell_formula_units_Z   1
loop_
 _symmetry_equiv_pos_site_id
 _symmetry_equiv_pos_as_xyz
  1  'x, y, z'
loop_
 _atom_site_type_symbol
 _atom_site_label
 _atom_site_symmetry_multiplicity
 _atom_site_fract_x
 _atom_site_fract_y
 _atom_site_fract_z
 _atom_site_occupancy
  Ca  Ca0  1  0.18858826  0.38026179  0.25082577  1
  Ca  Ca1  1  0.81141174  0.61973821  0.74917423  1
  Ca  Ca2  1  0.61332421  0.80944983  0.25138900  1
  Ca  Ca3  1  0.38667579  0.19055017  0.74861100  1
  Ca  Ca4  1  0.19748330  0.80514286  0.25086216  1
  Ca  Ca5  1  0.80251670  0.19485714  0.74913784  1
  Al  Al0  1  0.33584307  0.67152418  0.99549569  1
  Al  Al1  1  0.66415693  0.32847582  0.00450431  1
  Al  Al2  1  0.66973304  0.33044675  0.49982222  1
  Al  Al3  1  0.33026696  0.66955325  0.50017778  1
  Al  Al4  1  0.15401335  0.32229207  0.57638786  1
  Al  Al5  1  0.84598665  0.67770793  0.42361214  1
  Al  Al6  1  0.67704931  0.84545453  0.57657371  1
  Al  Al7  1  0.83965757  0.67911788  0.07982074  1
  Al  Al8  1  0.32295069  0.15454547  0.42342629  1
  Al  Al9  1  0.16034243  0.32088212  0.92017926  1
  Al  Al10  1  0.16243277  0.83810699  0.57544862  1
  Al  Al11  1  0.32162880  0.15388676  0.07770604  1
  Al  Al12  1  0.83756723  0.16189301  0.42455138  1
  Al  Al13  1  0.67837120  0.84611324  0.92229396  1
  Al  Al14  1  0.83218243  0.15474370  0.07864894  1
  Al  Al15  1  0.16781757  0.84525630  0.92135106  1
  Al  Al16  1  0.56110733  0.12098376  0.24986537  1
  Al  Al17  1  0.43889267  0.87901624  0.75013463  1
  Al  Al18  1  0.87558702  0.43587594  0.25263030  1
  Al  Al19  1  0.12441298  0.56412406  0.74736970  1
  Al  Al20  1  0.56244202  0.43582163  0.25003702  1
  Al  Al21  1  0.43755798  0.56417837  0.74996298  1
  Al  Al22  1  0.99972057  0.99742051  0.25021751  1
  Al  Al23  1  0.00027943  0.00257949  0.74978249  1
  Os  Os0  1  0.50000000  0.00000000  0.00000000  1
  Os  Os1  1  0.50000000  0.00000000  0.50000000  1
  Os  Os2  1  0.00000000  0.50000000  0.50000000  1
  Os  Os3  1  0.00000000  0.00000000  0.00000000  1
  Os  Os4  1  0.00000000  0.00000000  0.50000000  1
  Pd  Pd0  1  0.00000000  0.50000000  0.00000000  1
  Pd  Pd1  1  0.50000000  0.50000000  0.00000000  1
  Pd  Pd2  1  0.50000000  0.50000000  0.50000000  1
loop_
_geom_bond_atom_site_label_1
_geom_bond_atom_site_label_2
_geom_bond_distance
_geom_bond_site_symmetry_2
Ca0 Os2 3.365887 1_555
Ca0 Pd0 3.387393 1_555
Ca0 Pd1 3.393544 1_555
Ca0 Pd2 3.396927 1_555
Ca0 Ca4 3.722875 1_555
Ca0 Ca2 3.782330 1_555
Ca1 Os2 3.365887 1_655
Ca1 Pd0 3.387393 1_656
Ca1 Pd1 3.393544 1_556
Ca1 Pd2 3.396927 1_555
Ca1 Ca5 3.722875 1_555
Ca1 Ca3 3.782330 1_555
Ca2 Os1 3.343994 1_565
Ca2 Os0 3.370081 1_565
Ca2 Pd2 3.380571 1_555
Ca2 Pd1 3.402668 1_555
Ca2 Ca4 3.658567 1_555
Ca3 Os1 3.343994 1_555
Ca3 Os0 3.370081 1_556
Ca3 Pd2 3.380571 1_555
Ca3 Pd1 3.402668 1_556
Ca3 Ca5 3.658567 1_555
Ca4 Os0 3.354763 1_565
Ca4 Os1 3.356677 1_565
Ca4 Os2 3.362790 1_555
Ca4 Pd0 3.382078 1_555
Ca5 Os0 3.354763 1_556
Ca5 Os1 3.356677 1_555
Ca5 Os2 3.362790 1_655
Ca5 Pd0 3.382078 1_656
Al0 Os0 2.520747 1_566
Al0 Pd1 2.571994 1_556
Al0 Pd0 2.574448 1_556
Al0 Al15 2.714350 1_555
Al0 Al13 2.714590 1_555
Al0 Al9 2.786522 1_555
Al0 Al17 2.836302 1_555
Al0 Al21 2.841703 1_555
Al0 Al19 2.881991 1_555
Al0 Ca4 3.208541 1_556
Al0 Ca2 3.251645 1_556
Al0 Ca0 3.310048 1_556
Al1 Os0 2.520747 1_555
Al1 Pd1 2.571994 1_555
Al1 Pd0 2.574448 1_655
Al1 Al14 2.714350 1_555
Al1 Al11 2.714590 1_555
Al1 Al7 2.786522 1_555
Al1 Al16 2.836302 1_555
Al1 Al20 2.841703 1_555
Al1 Al18 2.881991 1_555
Al1 Ca5 3.208541 1_554
Al1 Ca3 3.251645 1_554
Al1 Ca1 3.310048 1_554
Al2 Os2 2.531659 1_655
Al2 Os1 2.535770 1_555
Al2 Pd2 2.598883 1_555
Al2 Al8 2.759835 1_555
Al2 Al5 2.761565 1_555
Al2 Al20 2.897784 1_555
Al2 Ca5 3.154860 1_555
Al2 Ca3 3.215579 1_555
Al2 Ca1 3.262966 1_555
Al3 Os2 2.531659 1_555
Al3 Os1 2.535770 1_565
Al3 Pd2 2.598883 1_555
Al3 Al6 2.759835 1_555
Al3 Al4 2.761565 1_555
Al3 Ca4 3.154860 1_555
Al3 Ca2 3.215579 1_555
Al3 Ca0 3.262966 1_555
Al4 Os4 2.580593 1_555
Al4 Os2 2.648125 1_555
Al4 Pd2 2.748230 1_555
Al4 Al8 2.962612 1_555
Al4 Ca0 3.149027 1_555
Al4 Ca5 3.183493 1_455
Al4 Ca3 3.276849 1_555
Al5 Os4 2.580593 1_665
Al5 Os2 2.648125 1_655
Al5 Pd2 2.748230 1_555
Al5 Al6 2.962612 1_555
Al5 Ca1 3.149027 1_555
Al5 Ca4 3.183493 1_655
Al5 Ca2 3.276849 1_555
Al6 Os4 2.579178 1_665
Al6 Os1 2.647430 1_565
Al6 Pd2 2.751627 1_555
Al6 Ca2 3.154667 1_555
Al6 Ca5 3.180395 1_565
Al6 Ca1 3.244380 1_555
Al7 Os3 2.576827 1_665
Al7 Pd0 2.709788 1_655
Al7 Pd1 2.717659 1_555
Al7 Ca1 3.199967 1_554
Al7 Ca2 3.211424 1_555
Al7 Ca4 3.233863 1_655
Al8 Os4 2.579178 1_555
Al8 Os1 2.647430 1_555
Al8 Pd2 2.751627 1_555
Al8 Ca3 3.154667 1_555
Al8 Ca4 3.180395 1_545
Al8 Ca0 3.244380 1_555
Al9 Os3 2.576827 1_556
Al9 Pd0 2.709788 1_556
Al9 Pd1 2.717659 1_556
Al9 Ca0 3.199967 1_556
Al9 Ca3 3.211424 1_555
Al9 Ca5 3.233863 1_455
Al10 Os4 2.589075 1_565
Al10 Al3 2.673805 1_555
Al10 Os1 2.683853 1_565
Al10 Os2 2.694611 1_555
Al10 Al19 2.809663 1_555
Al10 Al8 2.829071 1_565
Al10 Al5 2.833252 1_455
Al10 Al17 2.838238 1_555
Al10 Al23 3.004241 1_565
Al10 Ca4 3.150605 1_555
Al10 Ca1 3.180706 1_455
Al10 Ca3 3.203886 1_565
Al11 Os3 2.578600 1_555
Al11 Os0 2.651727 1_555
Al11 Pd1 2.757175 1_555
Al11 Al15 2.803793 1_544
Al11 Al16 2.816421 1_555
Al11 Al20 2.865078 1_555
Al11 Al9 2.935950 1_554
Al11 Al22 2.963674 1_445
Al11 Ca4 3.177651 1_545
Al11 Ca3 3.189145 1_554
Al11 Ca0 3.237700 1_555
Al12 Os4 2.589075 1_655
Al12 Al2 2.673805 1_555
Al12 Os1 2.683853 1_555
Al12 Os2 2.694611 1_655
Al12 Al18 2.809663 1_555
Al12 Al6 2.829071 1_545
Al12 Al4 2.833252 1_655
Al12 Al16 2.838238 1_555
Al12 Al22 3.004241 1_545
Al12 Ca5 3.150605 1_555
Al12 Ca0 3.180706 1_655
Al12 Ca2 3.203886 1_545
Al13 Os3 2.578600 1_666
Al13 Os0 2.651727 1_566
Al13 Pd1 2.757175 1_556
Al13 Al14 2.803793 1_566
Al13 Al17 2.816421 1_555
Al13 Al21 2.865078 1_555
Al13 Al7 2.935950 1_556
Al13 Al23 2.963674 1_665
Al13 Ca5 3.177651 1_565
Al13 Ca2 3.189145 1_556
Al13 Ca1 3.237700 1_555
Al14 Os3 2.581662 1_655
Al14 Os0 2.659829 1_555
Al14 Pd0 2.753255 1_655
Al14 Al16 2.789135 1_555
Al14 Al18 2.857483 1_555
Al14 Al9 2.932137 1_654
Al14 Al22 2.985943 1_545
Al14 Ca2 3.147224 1_545
Al14 Ca5 3.202314 1_554
Al14 Ca0 3.224602 1_655
Al15 Os3 2.581662 1_566
Al15 Os0 2.659829 1_566
Al15 Pd0 2.753255 1_556
Al15 Al17 2.789135 1_555
Al15 Al19 2.857483 1_555
Al15 Al7 2.932137 1_456
Al15 Al23 2.985943 1_565
Al15 Ca3 3.147224 1_565
Al15 Ca4 3.202314 1_556
Al15 Ca1 3.224602 1_455
Al16 Os1 2.567750 1_555
Al16 Os0 2.568158 1_555
Al16 Al20 2.781405 1_555
Al16 Al18 2.787769 1_555
Al16 Al8 2.807645 1_555
Al16 Al2 2.885804 1_555
Al16 Ca2 3.015119 1_545
Al16 Ca4 3.031110 1_545
Al17 Os1 2.567750 1_565
Al17 Os0 2.568158 1_566
Al17 Al21 2.781405 1_555
Al17 Al19 2.787769 1_555
Al17 Al6 2.807645 1_555
Al17 Al3 2.885804 1_555
Al17 Ca3 3.015119 1_565
Al17 Ca5 3.031110 1_565
Al18 Os2 2.557608 1_655
Al18 Pd0 2.596922 1_655
Al18 Al20 2.769213 1_555
Al18 Al5 2.808070 1_555
Al18 Al2 2.839517 1_555
Al18 Al7 2.858050 1_555
Al18 Ca0 3.043638 1_655
Al18 Ca4 3.083110 1_655
Al19 Os2 2.557608 1_555
Al19 Pd0 2.596922 1_556
Al19 Al21 2.769213 1_555
Al19 Al4 2.808070 1_555
Al19 Al3 2.839517 1_555
Al19 Al9 2.858050 1_555
Al19 Ca1 3.043638 1_455
Al19 Ca5 3.083110 1_455
Al20 Pd2 2.580622 1_555
Al20 Pd1 2.585973 1_555
Al20 Al7 2.830337 1_555
Al20 Al8 2.856381 1_555
Al20 Al5 2.882367 1_555
Al20 Ca0 3.090252 1_555
Al20 Ca2 3.107864 1_555
Al21 Pd2 2.580622 1_555
Al21 Pd1 2.585973 1_556
Al21 Al9 2.830337 1_555
Al21 Al6 2.856381 1_555
Al21 Al4 2.882367 1_555
Al21 Al3 2.897784 1_555
Al21 Ca1 3.090252 1_555
Al21 Ca3 3.107864 1_555
Al22 Os4 2.392308 1_665
Al22 Os3 2.396482 1_665
Al22 Ca0 2.937528 1_665
Al22 Al7 2.939512 1_555
Al22 Al5 2.960689 1_555
Al22 Ca2 2.961712 1_555
Al22 Al8 2.987495 1_665
Al22 Ca4 2.987748 1_655
Al23 Os4 2.392308 1_555
Al23 Os3 2.396482 1_556
Al23 Ca1 2.937528 1_445
Al23 Al9 2.939512 1_555
Al23 Al4 2.960689 1_555
Al23 Ca3 2.961712 1_555
Al23 Al6 2.987495 1_445
Al23 Ca5 2.987748 1_455
