# generated using pymatgen
data_Nb2ZnF12
_symmetry_space_group_name_H-M   'P 1'
_cell_length_a   5.41580833
_cell_length_b   10.98098554
_cell_length_c   5.47645692
_cell_angle_alpha   55.29657141
_cell_angle_beta   55.25034140
_cell_angle_gamma   56.07530616
_symmetry_Int_Tables_number   1
_chemical_formula_structural   Nb2ZnF12
_chemical_formula_sum   'Nb2 Zn1 F12'
_cell_volume   206.42632637
_cell_formula_units_Z   1
loop_
 _symmetry_equiv_pos_site_id
 _symmetry_equiv_pos_as_xyz
  1  'x, y, z'
loop_
 _atom_site_type_symbol
 _atom_site_label
 _atom_site_symmetry_multiplicity
 _atom_site_fract_x
 _atom_site_fract_y
 _atom_site_fract_z
 _atom_site_occupancy
  Nb  Nb0  1  0.48650406  0.23175137  0.53613765  1
  Nb  Nb1  1  0.51349594  0.76824863  0.46386235  1
  Zn  Zn0  1  0.00000000  0.50000000  0.00000000  1
  F  F0  1  0.08907381  0.20729798  0.74345777  1
  F  F1  1  0.14925431  0.68864209  0.73423836  1
  F  F2  1  0.37383227  0.37041406  0.14574291  1
  F  F3  1  0.43294341  0.86971596  0.08924581  1
  F  F4  1  0.73842079  0.05589016  0.41779909  1
  F  F5  1  0.74243478  0.56913499  0.37266630  1
  F  F6  1  0.25756522  0.43086501  0.62733370  1
  F  F7  1  0.26157921  0.94410984  0.58220091  1
  F  F8  1  0.56705659  0.13028404  0.91075419  1
  F  F9  1  0.62616773  0.62958594  0.85425709  1
  F  F10  1  0.85074569  0.31135791  0.26576164  1
  F  F11  1  0.91092619  0.79270202  0.25654223  1
loop_
_geom_bond_atom_site_label_1
_geom_bond_atom_site_label_2
_geom_bond_distance
_geom_bond_site_symmetry_2
F0 Nb0 1.872468 1_555
F1 Nb1 1.992282 1_555
F1 Zn0 2.039026 1_556
F2 Nb0 2.001282 1_555
F2 Zn0 2.023389 1_555
F3 Nb1 1.875000 1_555
F4 Nb0 1.867320 1_555
F5 Zn0 2.006030 1_655
F5 Nb1 2.019618 1_555
F6 Zn0 2.006030 1_556
F6 Nb0 2.019618 1_555
F7 Nb1 1.867320 1_555
F8 Nb0 1.875000 1_555
F9 Nb1 2.001282 1_555
F9 Zn0 2.023389 1_656
F10 Nb0 1.992282 1_555
F10 Zn0 2.039026 1_655
F11 Nb1 1.872468 1_555
