# generated using pymatgen
data_Al2PbI8
_symmetry_space_group_name_H-M   'P 1'
_cell_length_a   7.85007530
_cell_length_b   8.42410959
_cell_length_c   15.42834486
_cell_angle_alpha   88.15604404
_cell_angle_beta   90.00000000
_cell_angle_gamma   90.00000000
_symmetry_Int_Tables_number   1
_chemical_formula_structural   Al2PbI8
_chemical_formula_sum   'Al4 Pb2 I16'
_cell_volume   1019.74648920
_cell_formula_units_Z   2
loop_
 _symmetry_equiv_pos_site_id
 _symmetry_equiv_pos_as_xyz
  1  'x, y, z'
loop_
 _atom_site_type_symbol
 _atom_site_label
 _atom_site_symmetry_multiplicity
 _atom_site_fract_x
 _atom_site_fract_y
 _atom_site_fract_z
 _atom_site_occupancy
  Al  Al0  1  0.93702071  0.21779663  0.57920108  1
  Al  Al1  1  0.06297929  0.21779663  0.07920108  1
  Al  Al2  1  0.56520342  0.64445675  0.77834546  1
  Al  Al3  1  0.43479658  0.64445675  0.27834546  1
  Pb  Pb0  1  0.75481545  0.07925377  0.81321040  1
  Pb  Pb1  1  0.24518455  0.07925377  0.31321040  1
  I  I0  1  0.41926154  0.61828413  0.63654403  1
  I  I1  1  0.58073846  0.61828413  0.13654403  1
  I  I2  1  0.88041409  0.72762146  0.76102342  1
  I  I3  1  0.11958591  0.72762146  0.26102342  1
  I  I4  1  0.94517055  0.47122202  0.49231736  1
  I  I5  1  0.05482945  0.47122202  0.99231736  1
  I  I6  1  0.92109749  0.98317737  0.00420151  1
  I  I7  1  0.07890251  0.98317737  0.50420151  1
  I  I8  1  0.62857405  0.12907408  0.61484864  1
  I  I9  1  0.37142595  0.12907408  0.11484864  1
  I  I10  1  0.54773910  0.39223878  0.87719081  1
  I  I11  1  0.45226090  0.39223878  0.37719081  1
  I  I12  1  0.42482755  0.86380106  0.86833297  1
  I  I13  1  0.57517245  0.86380106  0.36833297  1
  I  I14  1  0.91085785  0.24047296  0.22698633  1
  I  I15  1  0.08914215  0.24047296  0.72698633  1
loop_
_geom_bond_atom_site_label_1
_geom_bond_atom_site_label_2
_geom_bond_distance
_geom_bond_site_symmetry_2
Al0 I4 2.484857 1_555
Al0 I7 2.575462 1_645
Al0 I15 2.586373 1_655
Al0 I8 2.587950 1_555
Al1 I5 2.484857 1_554
Al1 I6 2.575462 1_445
Al1 I14 2.586373 1_455
Al1 I9 2.587950 1_555
Al2 I0 2.485655 1_555
Al2 I10 2.578829 1_555
Al2 I2 2.583213 1_555
Al2 I12 2.592536 1_555
Al3 I1 2.485655 1_555
Al3 I11 2.578829 1_555
Al3 I3 2.583213 1_555
Al3 I13 2.592536 1_555
I2 Pb0 3.247838 1_565
I3 Pb1 3.247838 1_565
I6 Pb0 3.299751 1_564
I7 Pb1 3.299751 1_565
I8 Pb0 3.231344 1_555
I9 Pb1 3.231344 1_555
I10 Pb0 3.276600 1_555
I11 Pb1 3.276600 1_555
I12 Pb0 3.260133 1_565
I13 Pb1 3.260133 1_565
I14 Pb1 3.222712 1_655
I15 Pb0 3.222712 1_455
