# generated using pymatgen
data_K3Rb7(As2Pt)2
_symmetry_space_group_name_H-M   'P 1'
_cell_length_a   5.82331525
_cell_length_b   5.82331578
_cell_length_c   19.80881590
_cell_angle_alpha   90.00000000
_cell_angle_beta   90.00000000
_cell_angle_gamma   119.99999698
_symmetry_Int_Tables_number   1
_chemical_formula_structural   K3Rb7(As2Pt)2
_chemical_formula_sum   'K3 Rb7 As4 Pt2'
_cell_volume   581.74117372
_cell_formula_units_Z   1
loop_
 _symmetry_equiv_pos_site_id
 _symmetry_equiv_pos_as_xyz
  1  'x, y, z'
loop_
 _atom_site_type_symbol
 _atom_site_label
 _atom_site_symmetry_multiplicity
 _atom_site_fract_x
 _atom_site_fract_y
 _atom_site_fract_z
 _atom_site_occupancy
  K  K0  1  0.00000000  0.00000000  0.65675466  1
  K  K1  1  0.00000000  0.00000000  0.84246353  1
  K  K2  1  0.00000000  0.00000000  0.34503797  1
  Rb  Rb0  1  0.33333300  0.66666700  0.54912844  1
  Rb  Rb1  1  0.66666700  0.33333300  0.04871240  1
  Rb  Rb2  1  0.66666700  0.33333300  0.45100520  1
  Rb  Rb3  1  0.33333300  0.66666700  0.94974619  1
  Rb  Rb4  1  0.00000000  0.00000000  0.15977236  1
  Rb  Rb5  1  0.33333300  0.66666700  0.74952263  1
  Rb  Rb6  1  0.66666700  0.33333300  0.25157262  1
  As  As0  1  0.33333300  0.66666700  0.37093222  1
  As  As1  1  0.66666700  0.33333300  0.87143228  1
  As  As2  1  0.66666700  0.33333300  0.62808902  1
  As  As3  1  0.33333300  0.66666700  0.12705233  1
  Pt  Pt0  1  0.33333300  0.66666700  0.24897916  1
  Pt  Pt1  1  0.66666700  0.33333300  0.74979999  1
loop_
_geom_bond_atom_site_label_1
_geom_bond_atom_site_label_2
_geom_bond_distance
_geom_bond_site_symmetry_2
As0 Pt0 2.415746 1_555
As0 K2 3.400992 1_565
As0 K2 3.400997 1_665
As0 K2 3.400997 1_555
As0 Rb0 3.529856 1_555
As0 Rb2 3.717461 1_455
As0 Rb2 3.717462 1_565
As0 Rb2 3.717471 1_555
As1 Pt1 2.409392 1_555
As1 K1 3.410709 1_655
As1 K1 3.410714 1_555
As1 K1 3.410714 1_665
As1 Rb1 3.511709 1_556
As1 Rb3 3.702728 1_655
As1 Rb3 3.702728 1_545
As1 Rb3 3.702737 1_555
As2 Pt1 2.410950 1_555
As2 K0 3.409704 1_655
As2 K0 3.409709 1_555
As2 K0 3.409709 1_665
As2 Rb2 3.507821 1_555
As2 Rb0 3.708113 1_655
As2 Rb0 3.708113 1_545
As2 Rb0 3.708122 1_555
As3 Pt0 2.415226 1_555
As3 Rb4 3.423994 1_565
As3 Rb4 3.423999 1_665
As3 Rb4 3.424000 1_555
As3 Rb3 3.512225 1_554
As3 Rb1 3.702944 1_455
As3 Rb1 3.702944 1_565
As3 Rb1 3.702953 1_555
Pt0 Rb6 3.362482 1_455
Pt0 Rb6 3.362482 1_565
Pt0 Rb6 3.362492 1_555
Pt1 Rb5 3.362094 1_655
Pt1 Rb5 3.362094 1_545
Pt1 Rb5 3.362104 1_555
