# generated using pymatgen
data_B2PbF8
_symmetry_space_group_name_H-M   'P 1'
_cell_length_a   4.66181717
_cell_length_b   4.91670223
_cell_length_c   6.57716959
_cell_angle_alpha   111.94834069
_cell_angle_beta   111.57294930
_cell_angle_gamma   90.00000949
_symmetry_Int_Tables_number   1
_chemical_formula_structural   B2PbF8
_chemical_formula_sum   'B2 Pb1 F8'
_cell_volume   128.37132242
_cell_formula_units_Z   1
loop_
 _symmetry_equiv_pos_site_id
 _symmetry_equiv_pos_as_xyz
  1  'x, y, z'
loop_
 _atom_site_type_symbol
 _atom_site_label
 _atom_site_symmetry_multiplicity
 _atom_site_fract_x
 _atom_site_fract_y
 _atom_site_fract_z
 _atom_site_occupancy
  B  B0  1  0.70355711  0.65330664  0.30661428  1
  B  B1  1  0.29644189  0.34669336  0.69338672  1
  Pb  Pb0  1  0.00000000  0.00000000  0.00000000  1
  F  F0  1  0.91582469  0.59568101  0.19136302  1
  F  F1  1  0.51836451  0.38349388  0.23606653  1
  F  F2  1  0.51836451  0.85257364  0.23606653  1
  F  F3  1  0.12770677  0.22305857  0.44611815  1
  F  F4  1  0.87229523  0.77694043  0.55388185  1
  F  F5  1  0.48163449  0.14742836  0.76393447  1
  F  F6  1  0.48163449  0.61650612  0.76393447  1
  F  F7  1  0.08417531  0.40431799  0.80863598  1
loop_
_geom_bond_atom_site_label_1
_geom_bond_atom_site_label_2
_geom_bond_distance
_geom_bond_site_symmetry_2
B0 F4 1.397651 1_555
B0 F1 1.402055 1_555
B0 F2 1.402063 1_555
B0 F0 1.423078 1_555
B1 F3 1.397654 1_555
B1 F6 1.402055 1_555
B1 F5 1.402055 1_555
B1 F7 1.423065 1_555
F1 Pb0 2.618760 1_555
F2 Pb0 2.618758 1_565
F3 Pb0 2.544909 1_555
F4 Pb0 2.544910 1_666
F5 Pb0 2.618764 1_656
F6 Pb0 2.618764 1_666
