# generated using pymatgen
data_MnSbOsF12
_symmetry_space_group_name_H-M   'P 1'
_cell_length_a   5.07226427
_cell_length_b   5.51516948
_cell_length_c   8.66131768
_cell_angle_alpha   74.19320098
_cell_angle_beta   89.55362042
_cell_angle_gamma   63.01474412
_symmetry_Int_Tables_number   1
_chemical_formula_structural   MnSbOsF12
_chemical_formula_sum   'Mn1 Sb1 Os1 F12'
_cell_volume   205.84640648
_cell_formula_units_Z   1
loop_
 _symmetry_equiv_pos_site_id
 _symmetry_equiv_pos_as_xyz
  1  'x, y, z'
loop_
 _atom_site_type_symbol
 _atom_site_label
 _atom_site_symmetry_multiplicity
 _atom_site_fract_x
 _atom_site_fract_y
 _atom_site_fract_z
 _atom_site_occupancy
  Mn  Mn0  1  0.50231455  0.50156216  0.49839409  1
  Sb  Sb0  1  0.23783895  0.98950152  0.76735960  1
  Os  Os0  1  0.76280983  0.00680060  0.23823967  1
  F  F0  1  0.95088543  0.23476632  0.20443484  1
  F  F1  1  0.05200952  0.75936229  0.79020404  1
  F  F2  1  0.02222731  0.76582877  0.12972809  1
  F  F3  1  0.49229403  0.77288883  0.63265943  1
  F  F4  1  0.50208712  0.23563043  0.36805185  1
  F  F5  1  0.96618440  0.23466516  0.56546227  1
  F  F6  1  0.04245286  0.75862866  0.43805540  1
  F  F7  1  0.42576904  0.23174125  0.69873863  1
  F  F8  1  0.57065890  0.76244233  0.29703695  1
  F  F9  1  0.52466293  0.76715180  0.94815708  1
  F  F10  1  0.48098103  0.23685649  0.05652411  1
  F  F11  1  0.96682508  0.24217440  0.86695395  1
loop_
_geom_bond_atom_site_label_1
_geom_bond_atom_site_label_2
_geom_bond_distance
_geom_bond_site_symmetry_2
F0 Os0 1.860132 1_555
F1 Sb0 1.866714 1_555
F2 Os0 1.858808 1_465
F3 Sb0 1.946974 1_555
F3 Mn0 2.114782 1_555
F4 Os0 1.959846 1_555
F4 Mn0 2.080668 1_555
F5 Sb0 1.960462 1_645
F5 Mn0 2.110104 1_555
F6 Os0 1.966314 1_465
F6 Mn0 2.082808 1_555
F7 Sb0 1.939356 1_545
F7 Mn0 2.117396 1_555
F8 Os0 1.958546 1_565
F8 Mn0 2.075598 1_555
F9 Sb0 1.855481 1_555
F10 Os0 1.852459 1_555
F11 Sb0 1.863774 1_645
