# generated using pymatgen
data_Cs16ZrSn3Se16
_symmetry_space_group_name_H-M   'P 1'
_cell_length_a   9.30273952
_cell_length_b   10.86616471
_cell_length_c   15.67776469
_cell_angle_alpha   90.00000000
_cell_angle_beta   90.22834549
_cell_angle_gamma   90.00000000
_symmetry_Int_Tables_number   1
_chemical_formula_structural   Cs16ZrSn3Se16
_chemical_formula_sum   'Cs16 Zr1 Sn3 Se16'
_cell_volume   1584.77582493
_cell_formula_units_Z   1
loop_
 _symmetry_equiv_pos_site_id
 _symmetry_equiv_pos_as_xyz
  1  'x, y, z'
loop_
 _atom_site_type_symbol
 _atom_site_label
 _atom_site_symmetry_multiplicity
 _atom_site_fract_x
 _atom_site_fract_y
 _atom_site_fract_z
 _atom_site_occupancy
  Cs  Cs0  1  0.99999570  0.99506609  0.99820807  1
  Cs  Cs1  1  0.50042387  0.00442312  0.49971968  1
  Cs  Cs2  1  0.99999570  0.50493391  0.99820807  1
  Cs  Cs3  1  0.50042387  0.49557688  0.49971968  1
  Cs  Cs4  1  0.98963244  0.75000000  0.42045828  1
  Cs  Cs5  1  0.48956441  0.25000000  0.08112000  1
  Cs  Cs6  1  0.00893349  0.25000000  0.57810653  1
  Cs  Cs7  1  0.50959538  0.75000000  0.91943559  1
  Cs  Cs8  1  0.83185654  0.05253193  0.28179732  1
  Cs  Cs9  1  0.33135046  0.94736319  0.21643906  1
  Cs  Cs10  1  0.17000580  0.55063107  0.71616425  1
  Cs  Cs11  1  0.66920023  0.44307946  0.78603784  1
  Cs  Cs12  1  0.17000580  0.94936893  0.71616425  1
  Cs  Cs13  1  0.66920023  0.05692054  0.78603784  1
  Cs  Cs14  1  0.83185654  0.44746807  0.28179732  1
  Cs  Cs15  1  0.33135046  0.55263681  0.21643906  1
  Zr  Zr0  1  0.76278423  0.75000000  0.66626394  1
  Sn  Sn0  1  0.23466594  0.25000000  0.33510433  1
  Sn  Sn1  1  0.73424662  0.75000000  0.16362708  1
  Sn  Sn2  1  0.26632279  0.25000000  0.83666605  1
  Se  Se0  1  0.99191921  0.25000000  0.82327759  1
  Se  Se1  1  0.50970437  0.25000000  0.32326552  1
  Se  Se2  1  0.48936990  0.75000000  0.67717830  1
  Se  Se3  1  0.00901597  0.75000000  0.17676606  1
  Se  Se4  1  0.65130549  0.55815152  0.08632431  1
  Se  Se5  1  0.15285703  0.44237490  0.41174574  1
  Se  Se6  1  0.34906853  0.05797947  0.91363112  1
  Se  Se7  1  0.84422959  0.94136408  0.58927180  1
  Se  Se8  1  0.34906853  0.44202053  0.91363112  1
  Se  Se9  1  0.84422959  0.55863592  0.58927180  1
  Se  Se10  1  0.65130549  0.94184848  0.08632431  1
  Se  Se11  1  0.15285703  0.05762510  0.41174574  1
  Se  Se12  1  0.62714110  0.75000000  0.31431281  1
  Se  Se13  1  0.12635978  0.25000000  0.18440496  1
  Se  Se14  1  0.37502171  0.25000000  0.68605408  1
  Se  Se15  1  0.87513322  0.75000000  0.81528146  1
loop_
_geom_bond_atom_site_label_1
_geom_bond_atom_site_label_2
_geom_bond_distance
_geom_bond_site_symmetry_2
Cs0 Se10 3.577797 1_556
Cs0 Se6 3.578416 1_665
Cs0 Se3 3.864317 1_656
Cs0 Se0 3.898611 1_565
Cs0 Se15 4.079044 1_555
Cs0 Se13 4.189239 1_666
Cs1 Se7 3.554465 1_545
Cs1 Se11 3.557433 1_555
Cs1 Se1 3.844885 1_555
Cs1 Se2 3.923808 1_545
Cs1 Se14 4.128304 1_555
Cs1 Se12 4.184404 1_545
Cs2 Se4 3.577797 1_556
Cs2 Se8 3.578416 1_655
Cs2 Se3 3.864317 1_656
Cs2 Se0 3.898611 1_555
Cs2 Se15 4.079044 1_555
Cs2 Se13 4.189239 1_656
Cs3 Se9 3.554465 1_555
Cs3 Se5 3.557433 1_555
Cs3 Se1 3.844885 1_555
Cs3 Se2 3.923808 1_555
Cs3 Se14 4.128304 1_555
Cs3 Se12 4.184404 1_555
Cs4 Se7 3.631343 1_555
Cs4 Se9 3.631343 1_555
Cs4 Se11 3.674185 1_665
Cs4 Se5 3.674185 1_655
Cs4 Se12 3.754472 1_555
Cs4 Se3 3.825520 1_655
Cs5 Se8 3.595772 1_554
Cs5 Se6 3.595772 1_554
Cs5 Se10 3.671724 1_545
Cs5 Se4 3.671724 1_555
Cs5 Se13 3.752592 1_555
Cs5 Se1 3.800175 1_555
Cs6 Se5 3.604531 1_555
Cs6 Se11 3.604531 1_555
Cs6 Se9 3.691563 1_455
Cs6 Se7 3.691563 1_445
Cs6 Se14 3.796902 1_555
Cs6 Se0 3.847622 1_455
Cs7 Se4 3.591931 1_556
Cs7 Se10 3.591931 1_556
Cs7 Se6 3.665610 1_565
Cs7 Se8 3.665610 1_555
Cs7 Se15 3.778102 1_555
Cs7 Se2 3.801961 1_555
Cs8 Se11 3.608665 1_655
Cs8 Se10 3.690290 1_545
Cs8 Se1 3.744824 1_555
Cs8 Se13 3.804570 1_655
Cs8 Se12 3.834207 1_545
Cs8 Se3 4.031871 1_645
Cs9 Se10 3.615594 1_555
Cs9 Se11 3.689023 1_565
Cs9 Se3 3.736682 1_555
Cs9 Se12 3.806801 1_555
Cs9 Se13 3.833457 1_565
Cs9 Se1 4.043504 1_565
Cs10 Se9 3.619639 1_455
Cs10 Se8 3.702802 1_555
Cs10 Se2 3.729323 1_555
Cs10 Se14 3.812983 1_555
Cs10 Se15 3.829700 1_455
Cs10 Sn2 3.876827 1_555
Cs10 Se0 4.032148 1_455
Cs11 Se8 3.594192 1_555
Cs11 Se0 3.706975 1_555
Cs11 Se9 3.712711 1_555
Cs11 Se14 3.783387 1_555
Cs11 Se15 3.872443 1_555
Cs11 Se2 4.100143 1_555
Cs12 Se7 3.619639 1_455
Cs12 Se6 3.702802 1_565
Cs12 Se2 3.729323 1_555
Cs12 Se14 3.812983 1_565
Cs12 Se15 3.829700 1_455
Cs12 Sn2 3.876827 1_565
Cs12 Se0 4.032148 1_465
Cs13 Se6 3.594192 1_555
Cs13 Se0 3.706975 1_555
Cs13 Se7 3.712711 1_545
Cs13 Se14 3.783387 1_555
Cs13 Se15 3.872443 1_545
Cs13 Se2 4.100143 1_545
Cs14 Se5 3.608665 1_655
Cs14 Se4 3.690290 1_555
Cs14 Se1 3.744824 1_555
Cs14 Se13 3.804570 1_655
Cs14 Se12 3.834207 1_555
Cs14 Se3 4.031871 1_655
Cs15 Se4 3.615594 1_555
Cs15 Se5 3.689023 1_555
Cs15 Se3 3.736682 1_555
Cs15 Se12 3.806801 1_555
Cs15 Se13 3.833457 1_555
Cs15 Se1 4.043504 1_555
Se0 Sn2 2.560486 1_655
Se1 Sn0 2.566072 1_555
Se2 Zr0 2.549932 1_555
Se3 Sn1 2.563576 1_455
Se4 Sn1 2.530309 1_555
Se5 Sn0 2.529806 1_555
Se6 Sn2 2.528775 1_555
Se7 Zr0 2.522346 1_555
Se8 Sn2 2.528775 1_555
Se9 Zr0 2.522346 1_555
Se10 Sn1 2.530309 1_555
Se11 Sn0 2.529806 1_555
Se12 Sn1 2.567592 1_555
Se13 Sn0 2.564798 1_555
Se14 Sn2 2.572372 1_555
Se15 Zr0 2.555582 1_555
