# generated using pymatgen
data_BaIn2GaHg
_symmetry_space_group_name_H-M   'P 1'
_cell_length_a   6.88211214
_cell_length_b   6.88211353
_cell_length_c   6.88211406
_cell_angle_alpha   139.30287670
_cell_angle_beta   139.30289088
_cell_angle_gamma   58.91331313
_symmetry_Int_Tables_number   1
_chemical_formula_structural   BaIn2GaHg
_chemical_formula_sum   'Ba1 In2 Ga1 Hg1'
_cell_volume   137.27555606
_cell_formula_units_Z   1
loop_
 _symmetry_equiv_pos_site_id
 _symmetry_equiv_pos_as_xyz
  1  'x, y, z'
loop_
 _atom_site_type_symbol
 _atom_site_label
 _atom_site_symmetry_multiplicity
 _atom_site_fract_x
 _atom_site_fract_y
 _atom_site_fract_z
 _atom_site_occupancy
  Ba  Ba0  1  0.00039225  0.00039225  0.00000000  1
  In  In0  1  0.74641353  0.24641353  0.50000000  1
  In  In1  1  0.24641353  0.74641353  0.50000000  1
  Ga  Ga0  1  0.61470758  0.61470758  0.00000000  1
  Hg  Hg0  1  0.39207312  0.39207312  1.00000000  1
loop_
_geom_bond_atom_site_label_1
_geom_bond_atom_site_label_2
_geom_bond_distance
_geom_bond_site_symmetry_2
Ba0 Hg0 3.624824 1_454
Ba0 Hg0 3.624824 1_544
Ba0 Hg0 3.624825 1_443
Ba0 Hg0 3.624825 1_555
Ba0 Ga0 3.651178 1_545
Ba0 Ga0 3.651178 1_455
Ba0 Ga0 3.651178 1_556
Ba0 Ga0 3.651179 1_444
Ba0 In0 3.797486 1_555
Ba0 In1 3.797487 1_555
Ba0 In0 3.797487 1_454
Ba0 In1 3.797487 1_544
Ba0 In1 3.872001 1_444
Ba0 In0 3.872003 1_444
Ba0 In1 3.872003 1_545
Ba0 In0 3.872003 1_455
Ga0 Hg0 2.668251 1_554
Ga0 In1 2.866814 1_655
Ga0 In1 2.866815 1_554
Ga0 In0 2.866816 1_565
Ga0 In0 2.866816 1_554
Hg0 In0 2.962185 1_455
Hg0 In0 2.962186 1_556
Hg0 In1 2.962186 1_545
Hg0 In1 2.962186 1_556
