# generated using pymatgen
data_Y5(TcO6)2
_symmetry_space_group_name_H-M   'P 1'
_cell_length_a   5.60946556
_cell_length_b   6.78645342
_cell_length_c   7.47669435
_cell_angle_alpha   106.26377347
_cell_angle_beta   90.00000000
_cell_angle_gamma   114.41129971
_symmetry_Int_Tables_number   1
_chemical_formula_structural   Y5(TcO6)2
_chemical_formula_sum   'Y5 Tc2 O12'
_cell_volume   246.61833713
_cell_formula_units_Z   1
loop_
 _symmetry_equiv_pos_site_id
 _symmetry_equiv_pos_as_xyz
  1  'x, y, z'
loop_
 _atom_site_type_symbol
 _atom_site_label
 _atom_site_symmetry_multiplicity
 _atom_site_fract_x
 _atom_site_fract_y
 _atom_site_fract_z
 _atom_site_occupancy
  Y  Y0  1  0.81583116  0.63166032  0.17489412  1
  Y  Y1  1  0.19483834  0.38967668  0.35740552  1
  Y  Y2  1  0.50000000  0.00000000  0.50000000  1
  Y  Y3  1  0.80516266  0.61032432  0.64259548  1
  Y  Y4  1  0.18416984  0.36833968  0.82510588  1
  Tc  Tc0  1  0.28744826  0.00000000  0.00000000  1
  Tc  Tc1  1  0.71255174  0.00000000  0.00000000  1
  O  O0  1  0.41348180  0.32668759  0.08235583  1
  O  O1  1  0.91320579  0.32668759  0.08235583  1
  O  O2  1  0.00149878  0.00299656  0.17690351  1
  O  O3  1  0.49958945  0.99917789  0.20401651  1
  O  O4  1  0.09441186  0.69205216  0.42560465  1
  O  O5  1  0.59764030  0.69205216  0.42560465  1
  O  O6  1  0.40236070  0.30794784  0.57439635  1
  O  O7  1  0.90558914  0.30794784  0.57439635  1
  O  O8  1  0.50041155  0.00082211  0.79598249  1
  O  O9  1  0.99850222  0.99700344  0.82309749  1
  O  O10  1  0.08679621  0.67331341  0.91764517  1
  O  O11  1  0.58651720  0.67331341  0.91764517  1
loop_
_geom_bond_atom_site_label_1
_geom_bond_atom_site_label_2
_geom_bond_distance
_geom_bond_site_symmetry_2
O0 Tc0 1.932372 1_555
O0 Y0 2.278823 1_555
O0 Y1 2.420118 1_555
O0 Y4 2.457432 1_554
O1 Tc1 1.932372 1_555
O1 Y0 2.278816 1_555
O1 Y1 2.420118 1_655
O1 Y4 2.457432 1_654
O2 Tc0 2.081974 1_555
O2 Tc1 2.081978 1_455
O2 Y0 2.290193 1_445
O2 Y1 2.355374 1_555
O3 Tc1 1.937297 1_565
O3 Tc0 1.937301 1_565
O3 Y2 2.211421 1_565
O4 Y1 2.271062 1_555
O4 Y0 2.272437 1_455
O4 Y2 2.296076 1_565
O4 Y3 2.309222 1_455
O5 Y1 2.271062 1_555
O5 Y0 2.272444 1_555
O5 Y2 2.296076 1_565
O5 Y3 2.309226 1_555
O6 Y3 2.271065 1_555
O6 Y4 2.272438 1_555
O6 Y2 2.296072 1_555
O6 Y1 2.309230 1_555
O7 Y3 2.271069 1_555
O7 Y4 2.272431 1_655
O7 Y2 2.296079 1_555
O7 Y1 2.309223 1_655
O8 Tc1 1.937303 1_556
O8 Tc0 1.937306 1_556
O8 Y2 2.211413 1_555
O9 Tc0 2.081969 1_666
O9 Tc1 2.081973 1_566
O9 Y4 2.290195 1_665
O9 Y3 2.355369 1_555
O10 Tc0 1.932365 1_566
O10 Y4 2.278819 1_555
O10 Y3 2.420121 1_455
O10 Y0 2.457430 1_456
O11 Tc1 1.932365 1_566
O11 Y4 2.278819 1_555
O11 Y3 2.420125 1_555
O11 Y0 2.457436 1_556
