# generated using pymatgen
data_Sr3WI2O5
_symmetry_space_group_name_H-M   'P 1'
_cell_length_a   7.55757956
_cell_length_b   7.55757949
_cell_length_c   11.60605936
_cell_angle_alpha   90.00000000
_cell_angle_beta   90.00000000
_cell_angle_gamma   134.62200224
_symmetry_Int_Tables_number   1
_chemical_formula_structural   Sr3WI2O5
_chemical_formula_sum   'Sr6 W2 I4 O10'
_cell_volume   471.82570185
_cell_formula_units_Z   2
loop_
 _symmetry_equiv_pos_site_id
 _symmetry_equiv_pos_as_xyz
  1  'x, y, z'
loop_
 _atom_site_type_symbol
 _atom_site_label
 _atom_site_symmetry_multiplicity
 _atom_site_fract_x
 _atom_site_fract_y
 _atom_site_fract_z
 _atom_site_occupancy
  Sr  Sr0  1  0.33517641  0.66482359  0.97021568  1
  Sr  Sr1  1  0.66482359  0.33517641  0.47021568  1
  Sr  Sr2  1  0.33517641  0.66482359  0.52978432  1
  Sr  Sr3  1  0.12339188  0.87660812  0.75000000  1
  Sr  Sr4  1  0.66482359  0.33517641  0.02978432  1
  Sr  Sr5  1  0.87660812  0.12339188  0.25000000  1
  W  W0  1  0.23674833  0.76325167  0.25000000  1
  W  W1  1  0.76325167  0.23674833  0.75000000  1
  I  I0  1  0.50064416  0.49935584  0.75000000  1
  I  I1  1  0.00000000  0.00000000  0.00000000  1
  I  I2  1  0.00000000  0.00000000  0.50000000  1
  I  I3  1  0.49935584  0.50064416  0.25000000  1
  O  O0  1  0.49686182  0.95438011  0.13619620  1
  O  O1  1  0.88715874  0.11284126  0.75000000  1
  O  O2  1  0.95438011  0.49686182  0.63619620  1
  O  O3  1  0.50313818  0.04561989  0.86380380  1
  O  O4  1  0.11284126  0.88715874  0.25000000  1
  O  O5  1  0.50313818  0.04561989  0.63619620  1
  O  O6  1  0.95438011  0.49686182  0.86380380  1
  O  O7  1  0.04561989  0.50313818  0.13619620  1
  O  O8  1  0.49686182  0.95438011  0.36380380  1
  O  O9  1  0.04561989  0.50313818  0.36380380  1
loop_
_geom_bond_atom_site_label_1
_geom_bond_atom_site_label_2
_geom_bond_distance
_geom_bond_site_symmetry_2
I0 Sr3 3.380593 1_545
I0 Sr3 3.380593 1_655
I0 Sr2 3.443391 1_555
I0 Sr0 3.443391 1_555
I1 Sr5 3.373393 1_455
I1 Sr3 3.373393 1_544
I1 Sr0 3.728407 1_554
I1 Sr4 3.728407 1_445
I1 Sr4 3.728407 1_555
I1 Sr0 3.728407 1_444
I2 Sr5 3.373393 1_455
I2 Sr3 3.373393 1_545
I2 Sr2 3.728407 1_555
I2 Sr1 3.728407 1_445
I2 Sr1 3.728407 1_555
I2 Sr2 3.728407 1_445
I3 Sr5 3.380593 1_565
I3 Sr5 3.380593 1_455
I3 Sr4 3.443391 1_555
I3 Sr1 3.443391 1_555
O0 W0 1.925183 1_555
O0 Sr0 2.497261 1_554
O0 Sr4 2.507342 1_565
O0 Sr5 2.542201 1_565
O1 W1 1.727937 1_555
O2 W1 1.925183 1_555
O2 Sr1 2.497261 1_555
O2 Sr2 2.507342 1_655
O2 Sr3 2.542201 1_655
O3 W1 1.925183 1_555
O3 Sr4 2.497261 1_556
O3 Sr0 2.507342 1_545
O3 Sr3 2.542201 1_545
O4 W0 1.727937 1_555
O5 W1 1.925183 1_555
O5 Sr1 2.497261 1_555
O5 Sr2 2.507342 1_545
O5 Sr3 2.542201 1_545
O6 W1 1.925183 1_555
O6 Sr4 2.497261 1_556
O6 Sr0 2.507342 1_655
O6 Sr3 2.542201 1_655
O7 W0 1.925183 1_555
O7 Sr0 2.497261 1_554
O7 Sr4 2.507342 1_455
O7 Sr5 2.542201 1_455
O8 W0 1.925183 1_555
O8 Sr2 2.497261 1_555
O8 Sr1 2.507342 1_565
O8 Sr5 2.542201 1_565
O9 W0 1.925183 1_555
O9 Sr2 2.497261 1_555
O9 Sr1 2.507342 1_455
O9 Sr5 2.542201 1_455
