# generated using pymatgen
data_La2PbSe4
_symmetry_space_group_name_H-M   'P 1'
_cell_length_a   7.92854351
_cell_length_b   7.92838596
_cell_length_c   7.92832366
_cell_angle_alpha   109.41368754
_cell_angle_beta   109.41675365
_cell_angle_gamma   109.58338306
_symmetry_Int_Tables_number   1
_chemical_formula_structural   La2PbSe4
_chemical_formula_sum   'La4 Pb2 Se8'
_cell_volume   383.65059108
_cell_formula_units_Z   2
loop_
 _symmetry_equiv_pos_site_id
 _symmetry_equiv_pos_as_xyz
  1  'x, y, z'
loop_
 _atom_site_type_symbol
 _atom_site_label
 _atom_site_symmetry_multiplicity
 _atom_site_fract_x
 _atom_site_fract_y
 _atom_site_fract_z
 _atom_site_occupancy
  La  La0  1  0.99050068  0.37496133  0.11545913  1
  La  La1  1  0.25948437  0.87503926  0.88451293  1
  La  La2  1  0.62504423  0.74052533  0.61555499  1
  La  La3  1  0.12495855  0.00950003  0.38447172  1
  Pb  Pb0  1  0.74999552  0.24999624  0.50000198  1
  Pb  Pb1  1  0.49999796  0.49999611  -0.00000137  1
  Se  Se0  1  0.51610747  0.11748650  0.74846341  1
  Se  Se1  1  0.36758750  0.26640928  0.24889988  1
  Se  Se2  1  0.23240510  0.48398075  0.60140169  1
  Se  Se3  1  0.88128441  0.63237124  0.89880840  1
  Se  Se4  1  0.36900419  0.76759605  0.25157580  1
  Se  Se5  1  0.88254011  0.63096429  0.39858569  1
  Se  Se6  1  0.73353875  0.98245809  0.10117374  1
  Se  Se7  1  0.01755016  0.11871551  0.75109099  1
loop_
_geom_bond_atom_site_label_1
_geom_bond_atom_site_label_2
_geom_bond_distance
_geom_bond_site_symmetry_2
La0 Se6 3.034765 1_545
La0 Se4 3.035142 1_655
La0 Se5 3.050323 1_555
La0 Se7 3.053071 1_654
La0 Se3 3.223571 1_554
La0 Se0 3.226196 1_554
La0 Se1 3.320506 1_655
La0 Se2 3.321295 1_655
La1 Se3 3.034711 1_455
La1 Se0 3.035440 1_565
La1 Se2 3.050277 1_555
La1 Se1 3.052970 1_566
La1 Se6 3.223636 1_556
La1 Se4 3.226855 1_556
La1 Se7 3.320331 1_565
La1 Se5 3.321256 1_455
La2 Se7 3.034696 1_665
La2 Se2 3.035158 1_555
La2 Se4 3.050160 1_555
La2 Se3 3.052952 1_555
La2 Se1 3.223974 1_555
La2 Se5 3.226776 1_555
La2 Se6 3.320437 1_556
La2 Se0 3.321240 1_565
La3 Se1 3.034515 1_555
La3 Se5 3.035321 1_445
La3 Se0 3.050573 1_555
La3 Se6 3.053069 1_445
La3 Se7 3.223458 1_555
La3 Se2 3.226741 1_555
La3 Se3 3.320700 1_444
La3 Se4 3.321491 1_545
Pb0 Se3 3.097689 1_555
Pb0 Se7 3.097761 1_655
Pb0 Se6 3.097774 1_545
Pb0 Se1 3.097812 1_555
Pb0 Se0 3.304764 1_555
Pb0 Se5 3.304926 1_555
Pb0 Se4 3.305110 1_545
Pb0 Se2 3.305234 1_655
Pb1 Se5 3.098152 1_555
Pb1 Se0 3.098232 1_554
Pb1 Se2 3.098247 1_554
Pb1 Se4 3.098332 1_555
Pb1 Se7 3.305763 1_554
Pb1 Se6 3.305824 1_555
Pb1 Se3 3.305952 1_554
Pb1 Se1 3.306004 1_555
