# generated using pymatgen
data_Y6Sn6Rh5Au
_symmetry_space_group_name_H-M   'P 1'
_cell_length_a   7.68635402
_cell_length_b   7.68635390
_cell_length_c   7.47065206
_cell_angle_alpha   90.00000000
_cell_angle_beta   90.00000000
_cell_angle_gamma   119.99999610
_symmetry_Int_Tables_number   1
_chemical_formula_structural   Y6Sn6Rh5Au
_chemical_formula_sum   'Y6 Sn6 Rh5 Au1'
_cell_volume   382.23453134
_cell_formula_units_Z   1
loop_
 _symmetry_equiv_pos_site_id
 _symmetry_equiv_pos_as_xyz
  1  'x, y, z'
loop_
 _atom_site_type_symbol
 _atom_site_label
 _atom_site_symmetry_multiplicity
 _atom_site_fract_x
 _atom_site_fract_y
 _atom_site_fract_z
 _atom_site_occupancy
  Y  Y0  1  0.59322876  0.99135563  0.74463985  1
  Y  Y1  1  0.39812787  0.40677124  0.74463985  1
  Y  Y2  1  0.00864437  0.60187213  0.74463985  1
  Y  Y3  1  0.59326295  0.99146670  0.25535927  1
  Y  Y4  1  0.39820375  0.40673705  0.25535927  1
  Y  Y5  1  0.00853330  0.60179625  0.25535927  1
  Sn  Sn0  1  0.25496152  0.99236633  0.99999459  1
  Sn  Sn1  1  0.73636593  0.73133906  0.49999484  1
  Sn  Sn2  1  0.99497412  0.26363407  0.49999484  1
  Sn  Sn3  1  0.00763367  0.26259518  0.99999459  1
  Sn  Sn4  1  0.73740482  0.74503848  0.99999459  1
  Sn  Sn5  1  0.26866094  0.00502588  0.49999484  1
  Rh  Rh0  1  0.66666700  0.33333300  0.50005581  1
  Rh  Rh1  1  0.33333300  0.66666700  0.00005800  1
  Rh  Rh2  1  0.33333300  0.66666700  0.49994324  1
  Rh  Rh3  1  0.00000000  0.00000000  0.74540967  1
  Rh  Rh4  1  0.00000000  0.00000000  0.25459503  1
  Au  Au0  1  0.66666700  0.33333300  0.99997256  1
loop_
_geom_bond_atom_site_label_1
_geom_bond_atom_site_label_2
_geom_bond_distance
_geom_bond_site_symmetry_2
Sn0 Y3 3.227861 1_556
Sn0 Y0 3.227951 1_555
Sn0 Y2 3.248065 1_555
Sn0 Y5 3.248581 1_556
Sn0 Y4 3.389573 1_566
Sn0 Y1 3.389820 1_565
Sn1 Y4 3.136247 1_555
Sn1 Y1 3.136439 1_555
Sn1 Y0 3.277795 1_555
Sn1 Y3 3.278252 1_555
Sn1 Y5 3.284947 1_655
Sn1 Y2 3.285297 1_655
Sn2 Y5 3.136250 1_655
Sn2 Y2 3.136439 1_655
Sn2 Y1 3.277795 1_655
Sn2 Y4 3.278246 1_655
Sn2 Y3 3.284952 1_545
Sn2 Y0 3.285297 1_545
Sn3 Y5 3.227861 1_556
Sn3 Y2 3.227945 1_555
Sn3 Y1 3.248066 1_555
Sn3 Y4 3.248581 1_556
Sn3 Y3 3.389573 1_446
Sn3 Y0 3.389821 1_445
Sn4 Y4 3.227861 1_556
Sn4 Y1 3.227948 1_555
Sn4 Y0 3.248060 1_555
Sn4 Y3 3.248581 1_556
Sn4 Y5 3.389573 1_656
Sn4 Y2 3.389826 1_655
Sn5 Y3 3.136243 1_545
Sn5 Y0 3.136439 1_545
Sn5 Y2 3.277795 1_545
Sn5 Y5 3.278247 1_545
Sn5 Y4 3.284953 1_555
Sn5 Y1 3.285297 1_555
Rh0 Sn2 2.829645 1_555
Rh0 Sn1 2.829645 1_555
Rh0 Sn5 2.829645 1_555
Rh0 Y3 3.013691 1_545
Rh0 Y5 3.013693 1_655
Rh0 Y4 3.013697 1_555
Rh0 Y1 3.013780 1_555
Rh0 Y0 3.013780 1_545
Rh0 Y2 3.013780 1_655
Rh1 Sn0 2.852742 1_554
Rh1 Sn3 2.852747 1_554
Rh1 Sn4 2.852750 1_554
Rh1 Y5 2.978945 1_555
Rh1 Y3 2.978947 1_555
Rh1 Y4 2.978950 1_555
Rh1 Y2 2.979007 1_554
Rh1 Y0 2.979011 1_554
Rh1 Y1 2.979018 1_554
Rh2 Sn5 2.881630 1_565
Rh2 Sn2 2.881640 1_455
Rh2 Sn1 2.881645 1_555
Rh2 Y5 2.928329 1_555
Rh2 Y3 2.928331 1_555
Rh2 Y4 2.928335 1_555
Rh2 Y2 2.928348 1_555
Rh2 Y0 2.928352 1_555
Rh2 Y1 2.928360 1_555
Rh3 Sn2 2.747252 1_455
Rh3 Sn1 2.747255 1_445
Rh3 Sn5 2.747258 1_555
Rh3 Sn3 2.752496 1_555
Rh3 Sn0 2.752496 1_545
Rh3 Sn4 2.752496 1_445
Rh3 Y0 3.093906 1_445
Rh3 Y1 3.093910 1_555
Rh3 Y2 3.093914 1_545
Rh4 Sn2 2.747178 1_455
Rh4 Sn1 2.747181 1_445
Rh4 Sn5 2.747183 1_555
Rh4 Sn3 2.752576 1_554
Rh4 Sn0 2.752576 1_544
Rh4 Sn4 2.752576 1_444
Rh4 Y5 3.094057 1_545
Rh4 Y3 3.094057 1_445
Rh4 Y4 3.094057 1_555
Au0 Sn3 2.930723 1_655
Au0 Sn0 2.930728 1_545
Au0 Sn4 2.930730 1_555
Au0 Y3 3.062792 1_546
Au0 Y5 3.062794 1_656
Au0 Y4 3.062798 1_556
Au0 Y1 3.063130 1_555
Au0 Y0 3.063130 1_545
Au0 Y2 3.063130 1_655
