# generated using pymatgen
data_Ga2Ni(SeO3)4
_symmetry_space_group_name_H-M   'P 1'
_cell_length_a   4.60162196
_cell_length_b   8.28744035
_cell_length_c   14.71838319
_cell_angle_alpha   71.30567987
_cell_angle_beta   90.00077138
_cell_angle_gamma   89.99944865
_symmetry_Int_Tables_number   1
_chemical_formula_structural   Ga2Ni(SeO3)4
_chemical_formula_sum   'Ga4 Ni2 Se8 O24'
_cell_volume   531.68257754
_cell_formula_units_Z   2
loop_
 _symmetry_equiv_pos_site_id
 _symmetry_equiv_pos_as_xyz
  1  'x, y, z'
loop_
 _atom_site_type_symbol
 _atom_site_label
 _atom_site_symmetry_multiplicity
 _atom_site_fract_x
 _atom_site_fract_y
 _atom_site_fract_z
 _atom_site_occupancy
  Ga  Ga0  1  0.53680164  0.14514812  0.79101063  1
  Ga  Ga1  1  0.96317884  0.14515725  0.29099640  1
  Ga  Ga2  1  0.46319836  0.85485188  0.20898937  1
  Ga  Ga3  1  0.03682116  0.85484275  0.70900360  1
  Ni  Ni0  1  0.00000000  0.00000000  0.00000000  1
  Ni  Ni1  1  0.50000000  0.00000000  0.50000000  1
  Se  Se0  1  0.57415020  0.78280737  0.88410642  1
  Se  Se1  1  0.92595909  0.78283541  0.38407735  1
  Se  Se2  1  0.42584980  0.21719263  0.11589358  1
  Se  Se3  1  0.07404091  0.21716459  0.61592265  1
  Se  Se4  1  0.02154295  0.34449549  0.87229687  1
  Se  Se5  1  0.47843928  0.34450086  0.37227873  1
  Se  Se6  1  0.97845705  0.65550451  0.12770313  1
  Se  Se7  1  0.52156072  0.65549914  0.62772127  1
  O  O0  1  0.75626478  0.34067140  0.79169384  1
  O  O1  1  0.74369747  0.34067052  0.29168328  1
  O  O2  1  0.24373522  0.65932860  0.20830616  1
  O  O3  1  0.25630253  0.65932948  0.70831672  1
  O  O4  1  0.83788043  0.72006548  0.82258359  1
  O  O5  1  0.66219644  0.72007205  0.32257186  1
  O  O6  1  0.16211957  0.27993452  0.17741641  1
  O  O7  1  0.33780356  0.27992795  0.67742814  1
  O  O8  1  0.22862947  0.16368255  0.87919050  1
  O  O9  1  0.27137451  0.16369977  0.37917318  1
  O  O10  1  0.77137053  0.83631745  0.12080950  1
  O  O11  1  0.72862549  0.83630023  0.62082682  1
  O  O12  1  0.71218729  0.96554508  0.90164648  1
  O  O13  1  0.78784845  0.96553863  0.40163392  1
  O  O14  1  0.28781271  0.03445492  0.09835352  1
  O  O15  1  0.21215155  0.03446137  0.59836608  1
  O  O16  1  0.35627039  0.91421668  0.79345909  1
  O  O17  1  0.14373594  0.91423423  0.29343147  1
  O  O18  1  0.64372961  0.08578332  0.20654091  1
  O  O19  1  0.85626406  0.08576577  0.70656853  1
  O  O20  1  0.86432035  0.24469359  0.97968423  1
  O  O21  1  0.63563067  0.24467208  0.47968606  1
  O  O22  1  0.13567965  0.75530641  0.02031577  1
  O  O23  1  0.36436933  0.75532792  0.52031394  1
loop_
_geom_bond_atom_site_label_1
_geom_bond_atom_site_label_2
_geom_bond_distance
_geom_bond_site_symmetry_2
Ga0 O0 1.912094 1_555
Ga0 O7 1.919335 1_555
Ga0 O8 1.961345 1_555
Ga0 O12 1.991147 1_545
Ga0 O16 2.076051 1_545
Ga0 O19 2.083272 1_555
Ga1 O1 1.912067 1_555
Ga1 O6 1.919209 1_655
Ga1 O9 1.961388 1_655
Ga1 O13 1.991150 1_545
Ga1 O17 2.076075 1_645
Ga1 O18 2.083315 1_555
Ga2 O2 1.912094 1_555
Ga2 O5 1.919335 1_555
Ga2 O10 1.961345 1_555
Ga2 O14 1.991147 1_565
Ga2 O18 2.076051 1_565
Ga2 O17 2.083272 1_555
Ga3 O3 1.912067 1_555
Ga3 O4 1.919209 1_455
Ga3 O11 1.961388 1_455
Ga3 O15 1.991150 1_565
Ga3 O19 2.076075 1_465
Ga3 O16 2.083315 1_555
Ni0 O14 2.048432 1_555
Ni0 O12 2.048432 1_444
Ni0 O20 2.050072 1_454
Ni0 O22 2.050072 1_545
Ni0 O8 2.136011 1_554
Ni0 O10 2.136011 1_445
Ni1 O15 2.048719 1_555
Ni1 O13 2.048719 1_545
Ni1 O21 2.049854 1_555
Ni1 O23 2.049854 1_545
Ni1 O11 2.136179 1_545
Ni1 O9 2.136179 1_555
O0 Se4 1.709566 1_655
O1 Se5 1.709458 1_555
O2 Se6 1.709566 1_455
O3 Se7 1.709458 1_555
O4 Se0 1.692621 1_555
O5 Se1 1.692641 1_555
O6 Se2 1.692621 1_555
O7 Se3 1.692641 1_555
O8 Se4 1.751090 1_555
O9 Se5 1.750968 1_555
O10 Se6 1.751090 1_555
O11 Se7 1.750968 1_555
O12 Se0 1.736160 1_555
O13 Se1 1.736116 1_555
O14 Se2 1.736160 1_555
O15 Se3 1.736116 1_555
O16 Se0 1.743501 1_555
O17 Se1 1.743216 1_455
O18 Se2 1.743501 1_555
O19 Se3 1.743216 1_655
O20 Se4 1.693439 1_655
O21 Se5 1.693623 1_555
O22 Se6 1.693439 1_455
O23 Se7 1.693623 1_555
