# generated using pymatgen
data_TiCu6MoSe8
_symmetry_space_group_name_H-M   'P 1'
_cell_length_a   7.93950395
_cell_length_b   7.93950395
_cell_length_c   5.60300766
_cell_angle_alpha   90.00000000
_cell_angle_beta   90.00000000
_cell_angle_gamma   90.00000000
_symmetry_Int_Tables_number   1
_chemical_formula_structural   TiCu6MoSe8
_chemical_formula_sum   'Ti1 Cu6 Mo1 Se8'
_cell_volume   353.18963905
_cell_formula_units_Z   1
loop_
 _symmetry_equiv_pos_site_id
 _symmetry_equiv_pos_as_xyz
  1  'x, y, z'
loop_
 _atom_site_type_symbol
 _atom_site_label
 _atom_site_symmetry_multiplicity
 _atom_site_fract_x
 _atom_site_fract_y
 _atom_site_fract_z
 _atom_site_occupancy
  Ti  Ti0  1  0.00000000  0.00000000  0.00000000  1
  Cu  Cu0  1  0.25084308  0.74915692  0.00000000  1
  Cu  Cu1  1  0.74915692  0.25084308  0.00000000  1
  Cu  Cu2  1  0.25084308  0.25084308  0.00000000  1
  Cu  Cu3  1  0.74915692  0.74915692  0.00000000  1
  Cu  Cu4  1  0.00000000  0.00000000  0.50000000  1
  Cu  Cu5  1  0.50000000  0.50000000  0.50000000  1
  Mo  Mo0  1  0.50000000  0.50000000  0.00000000  1
  Se  Se0  1  0.50000000  0.25352663  0.75397906  1
  Se  Se1  1  0.00000000  0.75040682  0.75109363  1
  Se  Se2  1  0.50000000  0.74647337  0.75397906  1
  Se  Se3  1  0.00000000  0.24959318  0.75109363  1
  Se  Se4  1  0.75040682  0.00000000  0.24890637  1
  Se  Se5  1  0.25352663  0.50000000  0.24602094  1
  Se  Se6  1  0.24959318  0.00000000  0.24890637  1
  Se  Se7  1  0.74647337  0.50000000  0.24602094  1
loop_
_geom_bond_atom_site_label_1
_geom_bond_atom_site_label_2
_geom_bond_distance
_geom_bond_site_symmetry_2
Cu0 Se5 2.411183 1_555
Cu0 Se2 2.411183 1_554
Cu0 Se1 2.431342 1_554
Cu0 Se6 2.431342 1_565
Cu0 Mo0 2.797572 1_555
Cu1 Se0 2.411183 1_554
Cu1 Se7 2.411183 1_555
Cu1 Se4 2.431342 1_555
Cu1 Se3 2.431342 1_654
Cu1 Mo0 2.797572 1_555
Cu2 Se5 2.411183 1_555
Cu2 Se0 2.411183 1_554
Cu2 Se6 2.431342 1_555
Cu2 Se3 2.431342 1_554
Cu2 Mo0 2.797572 1_555
Cu3 Se7 2.411183 1_555
Cu3 Se2 2.411183 1_554
Cu3 Se4 2.431342 1_565
Cu3 Se1 2.431342 1_654
Cu3 Mo0 2.797572 1_555
Cu4 Se3 2.430274 1_555
Cu4 Se6 2.430274 1_555
Cu4 Se1 2.430274 1_545
Cu4 Se4 2.430274 1_455
Cu5 Se2 2.419592 1_555
Cu5 Se7 2.419592 1_555
Cu5 Se0 2.419592 1_555
Cu5 Se5 2.419592 1_555
Cu5 Mo0 2.801504 1_556
Cu5 Mo0 2.801504 1_555
Mo0 Se7 2.393639 1_555
Mo0 Se2 2.393639 1_554
Mo0 Se5 2.393639 1_555
Mo0 Se0 2.393639 1_554
Se1 Ti0 2.423200 1_566
Se3 Ti0 2.423200 1_556
Se4 Ti0 2.423200 1_655
Se6 Ti0 2.423200 1_555
