# generated using pymatgen
data_Ca12BeFeN10
_symmetry_space_group_name_H-M   'P 1'
_cell_length_a   6.16074217
_cell_length_b   6.16074181
_cell_length_c   12.16715398
_cell_angle_alpha   90.00000000
_cell_angle_beta   90.00000000
_cell_angle_gamma   120.00000725
_symmetry_Int_Tables_number   1
_chemical_formula_structural   Ca12BeFeN10
_chemical_formula_sum   'Ca12 Be1 Fe1 N10'
_cell_volume   399.93153150
_cell_formula_units_Z   1
loop_
 _symmetry_equiv_pos_site_id
 _symmetry_equiv_pos_as_xyz
  1  'x, y, z'
loop_
 _atom_site_type_symbol
 _atom_site_label
 _atom_site_symmetry_multiplicity
 _atom_site_fract_x
 _atom_site_fract_y
 _atom_site_fract_z
 _atom_site_occupancy
  Ca  Ca0  1  0.00000000  0.39178458  0.86915731  1
  Ca  Ca1  1  0.60821542  0.60821542  0.86915731  1
  Ca  Ca2  1  0.60224469  1.00000000  0.11382587  1
  Ca  Ca3  1  0.39178458  0.00000000  0.63084269  1
  Ca  Ca4  1  0.39775531  0.39775531  0.38617413  1
  Ca  Ca5  1  0.60224469  1.00000000  0.38617413  1
  Ca  Ca6  1  0.39775531  0.39775531  0.11382587  1
  Ca  Ca7  1  1.00000000  0.60224469  0.11382587  1
  Ca  Ca8  1  0.00000000  0.39178458  0.63084269  1
  Ca  Ca9  1  0.60821542  0.60821542  0.63084269  1
  Ca  Ca10  1  0.39178458  0.00000000  0.86915731  1
  Ca  Ca11  1  1.00000000  0.60224469  0.38617413  1
  Be  Be0  1  0.00000000  0.00000000  0.75000000  1
  Fe  Fe0  1  0.00000000  0.00000000  0.25000000  1
  N  N0  1  0.72255939  0.00000000  0.75000000  1
  N  N1  1  0.27744061  0.27744061  0.75000000  1
  N  N2  1  0.27869910  1.00000000  0.25000000  1
  N  N3  1  0.66666700  0.33333300  0.49779464  1
  N  N4  1  0.33333300  0.66666700  0.00220536  1
  N  N5  1  0.33333300  0.66666700  0.49779464  1
  N  N6  1  0.66666700  0.33333300  0.00220536  1
  N  N7  1  0.72130090  0.72130090  0.25000000  1
  N  N8  1  1.00000000  0.27869910  0.25000000  1
  N  N9  1  0.00000000  0.72255939  0.75000000  1
loop_
_geom_bond_atom_site_label_1
_geom_bond_atom_site_label_2
_geom_bond_distance
_geom_bond_site_symmetry_2
Ca0 N6 2.495581 1_456
Ca0 N4 2.495582 1_556
Ca0 N9 2.500928 1_555
Ca0 N0 2.593018 1_455
Ca0 N1 2.593018 1_555
Ca1 N6 2.495585 1_556
Ca1 N4 2.495585 1_556
Ca1 N1 2.500927 1_555
Ca1 N0 2.593018 1_565
Ca1 N9 2.593018 1_655
Ca2 N6 2.324674 1_565
Ca2 N4 2.324676 1_555
Ca2 N2 2.591973 1_555
Ca2 N8 2.736892 1_565
Ca2 N7 2.736892 1_555
Ca3 N5 2.495580 1_545
Ca3 N3 2.495582 1_555
Ca3 N0 2.500928 1_555
Ca3 N9 2.593018 1_545
Ca3 N1 2.593018 1_555
Ca4 N5 2.324679 1_555
Ca4 N3 2.324679 1_555
Ca4 N7 2.591973 1_555
Ca4 N2 2.736892 1_545
Ca4 N8 2.736892 1_455
Ca5 N3 2.324674 1_565
Ca5 N5 2.324676 1_555
Ca5 N2 2.591973 1_555
Ca5 N8 2.736892 1_565
Ca5 N7 2.736892 1_555
Ca6 N4 2.324679 1_555
Ca6 N6 2.324679 1_555
Ca6 N7 2.591973 1_555
Ca6 N2 2.736892 1_545
Ca6 N8 2.736892 1_455
Ca7 N4 2.324674 1_655
Ca7 N6 2.324676 1_555
Ca7 N8 2.591973 1_555
Ca7 N2 2.736892 1_655
Ca7 N7 2.736892 1_555
Ca8 N3 2.495581 1_455
Ca8 N5 2.495582 1_555
Ca8 N9 2.500928 1_555
Ca8 N0 2.593018 1_455
Ca8 N1 2.593018 1_555
Ca9 N3 2.495585 1_555
Ca9 N5 2.495585 1_555
Ca9 N1 2.500927 1_555
Ca9 N0 2.593018 1_565
Ca9 N9 2.593018 1_655
Ca10 N4 2.495580 1_546
Ca10 N6 2.495582 1_556
Ca10 N0 2.500928 1_555
Ca10 N9 2.593018 1_545
Ca10 N1 2.593018 1_555
Ca11 N5 2.324674 1_655
Ca11 N3 2.324676 1_555
Ca11 N8 2.591973 1_555
Ca11 N2 2.736892 1_655
Ca11 N7 2.736892 1_555
Be0 N1 1.709240 1_555
Be0 N9 1.709240 1_545
Be0 N0 1.709240 1_455
Fe0 N7 1.716993 1_445
Fe0 N8 1.716993 1_455
Fe0 N2 1.716993 1_545
