# generated using pymatgen
data_Cs3NaSn3Se8
_symmetry_space_group_name_H-M   'P 1'
_cell_length_a   8.89803389
_cell_length_b   8.89803389
_cell_length_c   13.92294729
_cell_angle_alpha   90.00000000
_cell_angle_beta   90.00000000
_cell_angle_gamma   90.00000000
_symmetry_Int_Tables_number   1
_chemical_formula_structural   Cs3NaSn3Se8
_chemical_formula_sum   'Cs6 Na2 Sn6 Se16'
_cell_volume   1102.34945056
_cell_formula_units_Z   2
loop_
 _symmetry_equiv_pos_site_id
 _symmetry_equiv_pos_as_xyz
  1  'x, y, z'
loop_
 _atom_site_type_symbol
 _atom_site_label
 _atom_site_symmetry_multiplicity
 _atom_site_fract_x
 _atom_site_fract_y
 _atom_site_fract_z
 _atom_site_occupancy
  Cs  Cs0  1  0.00000000  0.00000000  0.21399045  1
  Cs  Cs1  1  0.50000000  0.50000000  0.50000000  1
  Cs  Cs2  1  0.00000000  0.00000000  0.78600955  1
  Cs  Cs3  1  0.50000000  0.50000000  0.21399045  1
  Cs  Cs4  1  0.50000000  0.50000000  0.78600955  1
  Cs  Cs5  1  0.00000000  0.00000000  0.50000000  1
  Na  Na0  1  0.50000000  0.00000000  0.50000000  1
  Na  Na1  1  0.00000000  0.50000000  0.50000000  1
  Sn  Sn0  1  0.00000000  0.50000000  0.74735299  1
  Sn  Sn1  1  0.50000000  0.00000000  0.25264701  1
  Sn  Sn2  1  0.50000000  0.00000000  0.74735299  1
  Sn  Sn3  1  0.50000000  0.00000000  0.00000000  1
  Sn  Sn4  1  0.00000000  0.50000000  0.25264701  1
  Sn  Sn5  1  0.00000000  0.50000000  0.00000000  1
  Se  Se0  1  0.83428324  0.33428324  0.35008158  1
  Se  Se1  1  0.84865598  0.65134402  0.12074101  1
  Se  Se2  1  0.15134402  0.65134402  0.87925899  1
  Se  Se3  1  0.15134402  0.34865598  0.12074101  1
  Se  Se4  1  0.65134402  0.15134402  0.12074101  1
  Se  Se5  1  0.66571676  0.16571676  0.64991842  1
  Se  Se6  1  0.33428324  0.83428324  0.64991842  1
  Se  Se7  1  0.83428324  0.66571676  0.64991842  1
  Se  Se8  1  0.16571676  0.66571676  0.35008158  1
  Se  Se9  1  0.84865598  0.34865598  0.87925899  1
  Se  Se10  1  0.34865598  0.84865598  0.12074101  1
  Se  Se11  1  0.65134402  0.84865598  0.87925899  1
  Se  Se12  1  0.33428324  0.16571676  0.35008158  1
  Se  Se13  1  0.66571676  0.83428324  0.35008158  1
  Se  Se14  1  0.34865598  0.15134402  0.87925899  1
  Se  Se15  1  0.16571676  0.33428324  0.64991842  1
loop_
_geom_bond_atom_site_label_1
_geom_bond_atom_site_label_2
_geom_bond_distance
_geom_bond_site_symmetry_2
Cs0 Se3 3.622664 1_555
Cs0 Se10 3.622664 1_545
Cs0 Se4 3.622664 1_455
Cs0 Se1 3.622664 1_445
Cs0 Se12 3.822561 1_555
Cs0 Se0 3.822561 1_455
Cs0 Se8 3.822561 1_545
Cs0 Se13 3.822561 1_445
Cs1 Se7 3.921554 1_555
Cs1 Se6 3.921554 1_555
Cs1 Se5 3.921554 1_555
Cs1 Se13 3.921554 1_555
Cs1 Se15 3.921554 1_555
Cs1 Se0 3.921554 1_555
Cs1 Se8 3.921554 1_555
Cs1 Se12 3.921554 1_555
Cs2 Se14 3.622664 1_555
Cs2 Se9 3.622664 1_455
Cs2 Se2 3.622664 1_545
Cs2 Se11 3.622664 1_445
Cs2 Se15 3.822561 1_555
Cs2 Se6 3.822561 1_545
Cs2 Se5 3.822561 1_455
Cs2 Se7 3.822561 1_445
Cs3 Se1 3.622664 1_555
Cs3 Se10 3.622664 1_555
Cs3 Se4 3.622664 1_555
Cs3 Se3 3.622664 1_555
Cs3 Se13 3.822561 1_555
Cs3 Se0 3.822561 1_555
Cs3 Se8 3.822561 1_555
Cs3 Se12 3.822561 1_555
Cs4 Se11 3.622664 1_555
Cs4 Se9 3.622664 1_555
Cs4 Se2 3.622664 1_555
Cs4 Se14 3.622664 1_555
Cs4 Se7 3.822561 1_555
Cs4 Se6 3.822561 1_555
Cs4 Se5 3.822561 1_555
Cs4 Se15 3.822561 1_555
Cs5 Se15 3.921554 1_555
Cs5 Se6 3.921554 1_545
Cs5 Se5 3.921554 1_455
Cs5 Se12 3.921554 1_555
Cs5 Se7 3.921554 1_445
Cs5 Se0 3.921554 1_455
Cs5 Se8 3.921554 1_545
Cs5 Se13 3.921554 1_445
Na0 Se5 2.950502 1_555
Na0 Se6 2.950502 1_545
Na0 Se13 2.950502 1_545
Na0 Se12 2.950502 1_555
Na1 Se7 2.950502 1_455
Na1 Se15 2.950502 1_555
Na1 Se8 2.950502 1_555
Na1 Se0 2.950502 1_455
Se0 Sn4 2.487753 1_655
Se1 Sn5 2.540277 1_655
Se1 Sn4 2.645717 1_655
Se2 Sn5 2.540277 1_556
Se2 Sn0 2.645717 1_555
Se3 Sn5 2.540277 1_555
Se3 Sn4 2.645717 1_555
Se4 Sn3 2.540277 1_555
Se4 Sn1 2.645717 1_555
Se5 Sn2 2.487753 1_555
Se6 Sn2 2.487753 1_565
Se7 Sn0 2.487753 1_655
Se8 Sn4 2.487753 1_555
Se9 Sn5 2.540277 1_656
Se9 Sn0 2.645717 1_655
Se10 Sn3 2.540277 1_565
Se10 Sn1 2.645717 1_565
Se11 Sn3 2.540277 1_566
Se11 Sn2 2.645717 1_565
Se12 Sn1 2.487753 1_555
Se13 Sn1 2.487753 1_565
Se14 Sn3 2.540277 1_556
Se14 Sn2 2.645717 1_555
Se15 Sn0 2.487753 1_555
