# generated using pymatgen
data_SiPbF6
_symmetry_space_group_name_H-M   'P 1'
_cell_length_a   4.64532543
_cell_length_b   4.64532541
_cell_length_c   4.64532527
_cell_angle_alpha   98.79011013
_cell_angle_beta   98.79011555
_cell_angle_gamma   98.79012690
_symmetry_Int_Tables_number   1
_chemical_formula_structural   SiPbF6
_chemical_formula_sum   'Si1 Pb1 F6'
_cell_volume   96.29492808
_cell_formula_units_Z   1
loop_
 _symmetry_equiv_pos_site_id
 _symmetry_equiv_pos_as_xyz
  1  'x, y, z'
loop_
 _atom_site_type_symbol
 _atom_site_label
 _atom_site_symmetry_multiplicity
 _atom_site_fract_x
 _atom_site_fract_y
 _atom_site_fract_z
 _atom_site_occupancy
  Si  Si0  1  0.00000000  0.00000000  0.00000000  1
  Pb  Pb0  1  0.50000000  0.50000000  0.50000000  1
  F  F0  1  0.73812499  0.73812499  0.07408814  1
  F  F1  1  0.07408814  0.73812499  0.73812499  1
  F  F2  1  0.92591186  0.26187501  0.26187501  1
  F  F3  1  0.26187501  0.26187501  0.92591186  1
  F  F4  1  0.26187501  0.92591186  0.26187501  1
  F  F5  1  0.73812499  0.07408814  0.73812499  1
loop_
_geom_bond_atom_site_label_1
_geom_bond_atom_site_label_2
_geom_bond_distance
_geom_bond_site_symmetry_2
F0 Si0 1.697585 1_665
F0 Pb0 2.706562 1_555
F0 Pb0 2.716985 1_554
F1 Si0 1.697585 1_566
F1 Pb0 2.706563 1_555
F1 Pb0 2.716985 1_455
F2 Si0 1.697585 1_655
F2 Pb0 2.706563 1_555
F2 Pb0 2.716985 1_655
F3 Si0 1.697585 1_556
F3 Pb0 2.706562 1_555
F3 Pb0 2.716985 1_556
F4 Si0 1.697585 1_565
F4 Pb0 2.706563 1_555
F4 Pb0 2.716985 1_565
F5 Si0 1.697585 1_656
F5 Pb0 2.706563 1_555
F5 Pb0 2.716985 1_545
