# generated using pymatgen
data_Sc2B2Ru4RhW
_symmetry_space_group_name_H-M   'P 1'
_cell_length_a   9.41360418
_cell_length_b   9.41360418
_cell_length_c   3.03267217
_cell_angle_alpha   90.00000000
_cell_angle_beta   90.00000000
_cell_angle_gamma   90.00000000
_symmetry_Int_Tables_number   1
_chemical_formula_structural   Sc2B2Ru4RhW
_chemical_formula_sum   'Sc4 B4 Ru8 Rh2 W2'
_cell_volume   268.74310579
_cell_formula_units_Z   2
loop_
 _symmetry_equiv_pos_site_id
 _symmetry_equiv_pos_as_xyz
  1  'x, y, z'
loop_
 _atom_site_type_symbol
 _atom_site_label
 _atom_site_symmetry_multiplicity
 _atom_site_fract_x
 _atom_site_fract_y
 _atom_site_fract_z
 _atom_site_occupancy
  Sc  Sc0  1  0.67698489  0.17698489  0.00000000  1
  Sc  Sc1  1  0.32301511  0.82301511  0.00000000  1
  Sc  Sc2  1  0.17698489  0.32301511  0.00000000  1
  Sc  Sc3  1  0.82301511  0.67698489  0.00000000  1
  B  B0  1  0.12295844  0.62295844  0.00000000  1
  B  B1  1  0.87704156  0.37704156  0.00000000  1
  B  B2  1  0.62295844  0.87704156  0.00000000  1
  B  B3  1  0.37704156  0.12295844  0.00000000  1
  Ru  Ru0  1  0.56845365  0.71712453  0.50000000  1
  Ru  Ru1  1  0.43154635  0.28287547  0.50000000  1
  Ru  Ru2  1  0.06845365  0.78287547  0.50000000  1
  Ru  Ru3  1  0.93154635  0.21712453  0.50000000  1
  Ru  Ru4  1  0.28287547  0.56845365  0.50000000  1
  Ru  Ru5  1  0.71712453  0.43154635  0.50000000  1
  Ru  Ru6  1  0.21712453  0.06845365  0.50000000  1
  Ru  Ru7  1  0.78287547  0.93154635  0.50000000  1
  Rh  Rh0  1  0.50000000  0.00000000  0.50000000  1
  Rh  Rh1  1  0.00000000  0.50000000  0.50000000  1
  W  W0  1  0.50000000  0.50000000  0.00000000  1
  W  W1  1  0.00000000  0.00000000  0.00000000  1
loop_
_geom_bond_atom_site_label_1
_geom_bond_atom_site_label_2
_geom_bond_distance
_geom_bond_site_symmetry_2
B0 Ru2 2.197441 1_554
B0 Ru2 2.197441 1_555
B0 Ru4 2.197441 1_554
B0 Ru4 2.197441 1_555
B0 Rh1 2.231324 1_555
B0 Rh1 2.231324 1_554
B0 Sc1 2.663324 1_555
B0 Sc3 2.868986 1_455
B0 Sc2 2.868986 1_555
B1 Ru5 2.197441 1_555
B1 Ru5 2.197441 1_554
B1 Ru3 2.197441 1_554
B1 Ru3 2.197441 1_555
B1 Rh1 2.231324 1_655
B1 Rh1 2.231324 1_654
B1 Sc0 2.663324 1_555
B1 Sc2 2.868986 1_655
B1 Sc3 2.868986 1_555
B2 Ru0 2.197441 1_555
B2 Ru0 2.197441 1_554
B2 Ru7 2.197441 1_554
B2 Ru7 2.197441 1_555
B2 Rh0 2.231324 1_565
B2 Rh0 2.231324 1_564
B2 Sc3 2.663324 1_555
B2 Sc0 2.868986 1_565
B2 Sc1 2.868986 1_555
B3 Ru6 2.197441 1_555
B3 Ru6 2.197441 1_554
B3 Ru1 2.197441 1_555
B3 Ru1 2.197441 1_554
B3 Rh0 2.231324 1_554
B3 Rh0 2.231324 1_555
B3 Sc2 2.663324 1_555
B3 Sc1 2.868986 1_545
B3 Sc0 2.868986 1_555
Ru0 W0 2.625290 1_555
Ru0 W0 2.625290 1_556
Ru0 Sc3 2.860857 1_556
Ru0 Sc3 2.860857 1_555
Ru0 Sc1 2.937880 1_555
Ru0 Sc1 2.937880 1_556
Ru1 W0 2.625290 1_555
Ru1 W0 2.625290 1_556
Ru1 Sc2 2.860857 1_555
Ru1 Sc2 2.860857 1_556
Ru1 Sc0 2.937880 1_555
Ru1 Sc0 2.937880 1_556
Ru2 W1 2.625290 1_565
Ru2 W1 2.625290 1_566
Ru2 Sc1 2.860857 1_555
Ru2 Sc1 2.860857 1_556
Ru2 Sc3 2.937880 1_456
Ru2 Sc3 2.937880 1_455
Ru3 W1 2.625290 1_655
Ru3 W1 2.625290 1_656
Ru3 Sc0 2.860857 1_556
Ru3 Sc0 2.860857 1_555
Ru3 Sc2 2.937880 1_655
Ru3 Sc2 2.937880 1_656
Ru4 W0 2.625290 1_555
Ru4 W0 2.625290 1_556
Ru4 Sc1 2.860857 1_555
Ru4 Sc1 2.860857 1_556
Ru4 Sc2 2.937880 1_556
Ru4 Sc2 2.937880 1_555
Ru5 W0 2.625290 1_555
Ru5 W0 2.625290 1_556
Ru5 Sc0 2.860857 1_556
Ru5 Sc0 2.860857 1_555
Ru5 Sc3 2.937880 1_555
Ru5 Sc3 2.937880 1_556
Ru6 W1 2.625290 1_555
Ru6 W1 2.625290 1_556
Ru6 Sc2 2.860857 1_556
Ru6 Sc2 2.860857 1_555
Ru6 Sc1 2.937880 1_545
Ru6 Sc1 2.937880 1_546
Ru7 W1 2.625290 1_666
Ru7 W1 2.625290 1_665
Ru7 Sc3 2.860857 1_556
Ru7 Sc3 2.860857 1_555
Ru7 Sc0 2.937880 1_565
Ru7 Sc0 2.937880 1_566
Rh0 Sc0 2.801932 1_555
Rh0 Sc0 2.801932 1_556
Rh0 Sc1 2.801932 1_546
Rh0 Sc1 2.801932 1_545
Rh1 Sc3 2.801932 1_456
Rh1 Sc3 2.801932 1_455
Rh1 Sc2 2.801932 1_556
Rh1 Sc2 2.801932 1_555
