# generated using pymatgen
data_Ba4HfMn3O12
_symmetry_space_group_name_H-M   'P 1'
_cell_length_a   9.94483028
_cell_length_b   9.94482992
_cell_length_c   9.94482920
_cell_angle_alpha   33.55862113
_cell_angle_beta   33.55862717
_cell_angle_gamma   33.55861551
_symmetry_Int_Tables_number   1
_chemical_formula_structural   Ba4HfMn3O12
_chemical_formula_sum   'Ba4 Hf1 Mn3 O12'
_cell_volume   267.70475758
_cell_formula_units_Z   1
loop_
 _symmetry_equiv_pos_site_id
 _symmetry_equiv_pos_as_xyz
  1  'x, y, z'
loop_
 _atom_site_type_symbol
 _atom_site_label
 _atom_site_symmetry_multiplicity
 _atom_site_fract_x
 _atom_site_fract_y
 _atom_site_fract_z
 _atom_site_occupancy
  Ba  Ba0  1  0.71490241  0.71490241  0.71490241  1
  Ba  Ba1  1  0.28509759  0.28509759  0.28509759  1
  Ba  Ba2  1  0.87053448  0.87053448  0.87053448  1
  Ba  Ba3  1  0.12946552  0.12946552  0.12946552  1
  Hf  Hf0  1  0.00000000  0.00000000  0.00000000  1
  Mn  Mn0  1  0.41041074  0.41041074  0.41041074  1
  Mn  Mn1  1  0.50000000  0.50000000  0.50000000  1
  Mn  Mn2  1  0.58958926  0.58958926  0.58958926  1
  O  O0  1  0.21328751  0.21328751  0.69890551  1
  O  O1  1  0.69890551  0.21328751  0.21328751  1
  O  O2  1  0.21328751  0.69890551  0.21328751  1
  O  O3  1  0.78671249  0.30109449  0.78671249  1
  O  O4  1  0.78671249  0.78671249  0.30109449  1
  O  O5  1  0.30109449  0.78671249  0.78671249  1
  O  O6  1  0.39732469  0.39732469  0.83545607  1
  O  O7  1  0.83545607  0.39732469  0.39732469  1
  O  O8  1  0.16454393  0.60267531  0.60267531  1
  O  O9  1  0.60267531  0.60267531  0.16454393  1
  O  O10  1  0.60267531  0.16454393  0.60267531  1
  O  O11  1  0.39732469  0.83545607  0.39732469  1
loop_
_geom_bond_atom_site_label_1
_geom_bond_atom_site_label_2
_geom_bond_distance
_geom_bond_site_symmetry_2
Ba0 O9 2.815539 1_556
Ba0 O10 2.815539 1_565
Ba0 O8 2.815539 1_655
Ba0 O0 2.876983 1_565
Ba0 O0 2.876983 1_655
Ba0 O1 2.876983 1_565
Ba0 O1 2.876983 1_556
Ba0 O2 2.876984 1_655
Ba0 O2 2.876984 1_556
Ba0 O4 3.001531 1_555
Ba0 O3 3.001532 1_555
Ba0 O5 3.001532 1_555
Ba1 O6 2.815539 1_554
Ba1 O11 2.815539 1_545
Ba1 O7 2.815539 1_455
Ba1 O4 2.876983 1_545
Ba1 O4 2.876983 1_455
Ba1 O5 2.876983 1_545
Ba1 O5 2.876983 1_554
Ba1 O3 2.876984 1_455
Ba1 O3 2.876984 1_554
Ba1 O0 3.001531 1_555
Ba1 O2 3.001532 1_555
Ba1 O1 3.001532 1_555
Ba2 O6 2.883473 1_565
Ba2 O6 2.883474 1_655
Ba2 O7 2.883474 1_565
Ba2 O7 2.883474 1_556
Ba2 O11 2.883474 1_556
Ba2 O11 2.883474 1_655
Ba2 O10 2.933493 1_565
Ba2 O8 2.933493 1_655
Ba2 O9 2.933494 1_556
Ba2 O4 2.997417 1_556
Ba2 O3 2.997417 1_565
Ba2 O5 2.997417 1_655
Ba3 O9 2.883473 1_545
Ba3 O9 2.883474 1_455
Ba3 O8 2.883474 1_545
Ba3 O8 2.883474 1_554
Ba3 O10 2.883474 1_554
Ba3 O10 2.883474 1_455
Ba3 O11 2.933493 1_545
Ba3 O7 2.933493 1_455
Ba3 O6 2.933494 1_554
Ba3 O0 2.997417 1_554
Ba3 O2 2.997417 1_545
Ba3 O1 2.997417 1_455
Hf0 O2 2.071695 1_545
Hf0 O3 2.071695 1_454
Hf0 O1 2.071695 1_455
Hf0 O5 2.071695 1_544
Hf0 O0 2.071696 1_554
Hf0 O4 2.071696 1_445
Mn0 O2 1.890707 1_555
Mn0 O1 1.890707 1_555
Mn0 O0 1.890708 1_555
Mn0 O10 1.949316 1_555
Mn0 O8 1.949317 1_555
Mn0 O9 1.949317 1_555
Mn1 O11 1.896750 1_555
Mn1 O10 1.896750 1_555
Mn1 O6 1.896750 1_555
Mn1 O9 1.896750 1_555
Mn1 O7 1.896750 1_555
Mn1 O8 1.896750 1_555
Mn2 O3 1.890707 1_555
Mn2 O5 1.890707 1_555
Mn2 O4 1.890708 1_555
Mn2 O11 1.949316 1_555
Mn2 O7 1.949317 1_555
Mn2 O6 1.949317 1_555
