# generated using pymatgen
data_Ba6Y2(TeO6)3
_symmetry_space_group_name_H-M   'P 1'
_cell_length_a   10.31299043
_cell_length_b   10.31295817
_cell_length_c   10.31296365
_cell_angle_alpha   146.50599054
_cell_angle_beta   131.91488009
_cell_angle_gamma   59.86964247
_symmetry_Int_Tables_number   1
_chemical_formula_structural   Ba6Y2(TeO6)3
_chemical_formula_sum   'Ba6 Y2 Te3 O18'
_cell_volume   446.35139718
_cell_formula_units_Z   1
loop_
 _symmetry_equiv_pos_site_id
 _symmetry_equiv_pos_as_xyz
  1  'x, y, z'
loop_
 _atom_site_type_symbol
 _atom_site_label
 _atom_site_symmetry_multiplicity
 _atom_site_fract_x
 _atom_site_fract_y
 _atom_site_fract_z
 _atom_site_occupancy
  Ba  Ba0  1  0.77696805  0.50000241  0.27697026  1
  Ba  Ba1  1  0.39153960  0.15576901  0.23576859  1
  Ba  Ba2  1  0.07999943  0.84422844  0.23576807  1
  Ba  Ba3  1  0.22303217  0.49999705  0.72302946  1
  Ba  Ba4  1  0.92000047  0.15577141  0.76423168  1
  Ba  Ba5  1  0.60846026  0.84423084  0.76423116  1
  Y  Y0  1  0.66562587  0.66562515  0.00000057  1
  Y  Y1  1  0.33437410  0.33437494  0.99999942  1
  Te  Te0  1  0.49999999  0.99999992  0.49999992  1
  Te  Te1  1  0.17180270  0.67180021  0.50000060  1
  Te  Te2  1  0.82819730  0.32820003  0.49999947  1
  O  O0  1  0.72345012  0.99999498  0.72344496  1
  O  O1  1  0.40545990  0.67184807  0.73361136  1
  O  O2  1  0.06176262  0.32815508  0.73361224  1
  O  O3  1  0.57773489  0.84353266  0.26579320  1
  O  O4  1  0.24834743  0.51893255  0.27058134  1
  O  O5  1  0.90326987  0.17776885  0.27449532  1
  O  O6  1  0.42226197  0.68805781  0.26579366  1
  O  O7  1  0.09673171  0.37122401  0.27449980  1
  O  O8  1  0.75165074  0.02223623  0.27058601  1
  O  O9  1  0.27654988  0.00000501  0.27655500  1
  O  O10  1  0.93823732  0.67184475  0.26638757  1
  O  O11  1  0.59454002  0.32815195  0.26638859  1
  O  O12  1  0.42226505  0.15646730  0.73420669  1
  O  O13  1  0.09673005  0.82223110  0.72550454  1
  O  O14  1  0.75165297  0.48106890  0.72941984  1
  O  O15  1  0.57773798  0.31194213  0.73420622  1
  O  O16  1  0.24834916  0.97776410  0.72941429  1
  O  O17  1  0.90326838  0.62877614  0.72550016  1
loop_
_geom_bond_atom_site_label_1
_geom_bond_atom_site_label_2
_geom_bond_distance
_geom_bond_site_symmetry_2
Ba0 O17 2.880619 1_555
Ba0 O5 2.880644 1_555
Ba0 O13 2.880654 1_655
Ba0 O7 2.880682 1_655
Ba0 O0 3.005436 1_555
Ba0 O0 3.005522 1_544
Ba0 O10 3.072936 1_555
Ba0 O11 3.072959 1_555
Ba0 O15 3.137377 1_554
Ba0 O12 3.137380 1_554
Ba0 O6 3.137387 1_555
Ba0 O3 3.137388 1_555
Ba1 O7 2.774976 1_555
Ba1 O13 2.774978 1_544
Ba1 O9 2.805292 1_555
Ba1 O3 2.968677 1_545
Ba1 O15 2.968707 1_555
Ba1 O1 2.985556 1_544
Ba1 O1 2.985564 1_555
Ba1 O16 3.041358 1_544
Ba1 O4 3.041364 1_555
Ba1 O11 3.091930 1_555
Ba1 O8 3.118723 1_555
Ba1 O14 3.118749 1_555
Ba2 O5 2.775006 1_465
Ba2 O17 2.775006 1_454
Ba2 O9 2.805294 1_565
Ba2 O6 2.968698 1_555
Ba2 O12 2.968718 1_565
Ba2 O2 2.985535 1_554
Ba2 O2 2.985581 1_565
Ba2 O14 3.041332 1_454
Ba2 O8 3.041372 1_465
Ba2 O10 3.091947 1_455
Ba2 O4 3.118707 1_555
Ba2 O16 3.118717 1_555
Ba3 O7 2.880621 1_555
Ba3 O13 2.880648 1_555
Ba3 O5 2.880655 1_455
Ba3 O17 2.880684 1_455
Ba3 O9 3.005433 1_555
Ba3 O9 3.005524 1_566
Ba3 O2 3.072936 1_555
Ba3 O1 3.072960 1_555
Ba3 O6 3.137376 1_556
Ba3 O3 3.137379 1_556
Ba3 O15 3.137384 1_555
Ba3 O12 3.137385 1_555
Ba4 O13 2.775006 1_645
Ba4 O7 2.775006 1_656
Ba4 O0 2.805294 1_545
Ba4 O15 2.968698 1_555
Ba4 O3 2.968717 1_545
Ba4 O10 2.985535 1_556
Ba4 O10 2.985581 1_545
Ba4 O4 3.041340 1_656
Ba4 O16 3.041371 1_645
Ba4 O2 3.091946 1_655
Ba4 O14 3.118712 1_555
Ba4 O8 3.118715 1_555
Ba5 O17 2.774977 1_555
Ba5 O5 2.774979 1_566
Ba5 O0 2.805293 1_555
Ba5 O12 2.968678 1_565
Ba5 O6 2.968707 1_555
Ba5 O11 2.985557 1_566
Ba5 O11 2.985563 1_555
Ba5 O14 3.041358 1_555
Ba5 O8 3.041360 1_566
Ba5 O1 3.091929 1_555
Ba5 O16 3.118724 1_555
Ba5 O4 3.118741 1_555
O0 Te0 1.877724 1_555
O1 Te1 1.963102 1_555
O1 Y0 2.241315 1_556
O2 Te2 1.963114 1_455
O2 Y1 2.241318 1_555
O3 Te0 1.966779 1_555
O3 Y0 2.227847 1_555
O4 Te1 1.931628 1_555
O4 Y1 2.224976 1_554
O5 Te2 1.896538 1_555
O6 Te0 1.966776 1_555
O6 Y1 2.227842 1_554
O7 Te1 1.896537 1_555
O8 Te2 1.931627 1_555
O8 Y0 2.224981 1_545
O9 Te0 1.877724 1_545
O10 Te1 1.963113 1_655
O10 Y0 2.241318 1_555
O11 Te2 1.963101 1_555
O11 Y1 2.241315 1_554
O12 Te0 1.966779 1_545
O12 Y1 2.227847 1_555
O13 Te1 1.896539 1_555
O14 Te2 1.931629 1_555
O14 Y0 2.224975 1_556
O15 Te0 1.966776 1_545
O15 Y0 2.227843 1_556
O16 Te1 1.931626 1_555
O16 Y1 2.224980 1_565
O17 Te2 1.896537 1_555
