# generated using pymatgen
data_Sc2Zn(SbAu)4
_symmetry_space_group_name_H-M   'P 1'
_cell_length_a   7.82300652
_cell_length_b   7.82300561
_cell_length_c   7.82300532
_cell_angle_alpha   131.45509423
_cell_angle_beta   131.45508878
_cell_angle_gamma   71.09101883
_symmetry_Int_Tables_number   1
_chemical_formula_structural   Sc2Zn(SbAu)4
_chemical_formula_sum   'Sc2 Zn1 Sb4 Au4'
_cell_volume   263.30873415
_cell_formula_units_Z   1
loop_
 _symmetry_equiv_pos_site_id
 _symmetry_equiv_pos_as_xyz
  1  'x, y, z'
loop_
 _atom_site_type_symbol
 _atom_site_label
 _atom_site_symmetry_multiplicity
 _atom_site_fract_x
 _atom_site_fract_y
 _atom_site_fract_z
 _atom_site_occupancy
  Sc  Sc0  1  0.75000100  0.25000000  0.50000100  1
  Sc  Sc1  1  0.25000000  0.75000100  0.50000100  1
  Zn  Zn0  1  0.00000000  0.00000000  0.00000000  1
  Sb  Sb0  1  0.26072927  0.26072927  0.00000000  1
  Sb  Sb1  1  0.73927073  0.73927073  1.00000000  1
  Sb  Sb2  1  0.50000100  0.00000000  0.50000100  1
  Sb  Sb3  1  0.00000000  0.50000100  0.50000100  1
  Au  Au0  1  0.63909766  0.11709250  0.00000000  1
  Au  Au1  1  0.11709250  0.63909766  1.00000000  1
  Au  Au2  1  0.88290750  0.88290750  0.52200615  1
  Au  Au3  1  0.36090234  0.36090234  0.47799485  1
loop_
_geom_bond_atom_site_label_1
_geom_bond_atom_site_label_2
_geom_bond_distance
_geom_bond_site_symmetry_2
Sb0 Sc1 3.218744 1_544
Sb0 Sc0 3.218744 1_454
Sb0 Sc1 3.218757 1_555
Sb0 Sc0 3.218757 1_555
Sb1 Sc0 3.218750 1_555
Sb1 Sc0 3.218750 1_566
Sb1 Sc1 3.218751 1_555
Sb1 Sc1 3.218751 1_656
Sb2 Sc0 3.182610 1_555
Sb2 Sc1 3.182610 1_545
Sb2 Zn0 3.215845 1_656
Sb2 Zn0 3.215858 1_555
Sb3 Sc1 3.182610 1_555
Sb3 Sc0 3.182610 1_455
Sb3 Zn0 3.215844 1_566
Sb3 Zn0 3.215857 1_555
Au0 Zn0 2.670979 1_655
Au0 Sb2 2.754858 1_554
Au0 Sb3 2.754867 1_655
Au0 Sc1 2.800009 1_544
Au0 Sc0 2.800016 1_555
Au0 Sb1 2.801616 1_544
Au0 Sb0 2.805066 1_555
Au1 Zn0 2.670978 1_566
Au1 Sb3 2.754858 1_555
Au1 Sb2 2.754867 1_566
Au1 Sc0 2.800009 1_455
Au1 Sc1 2.800016 1_556
Au1 Sb1 2.801617 1_455
Au1 Sb0 2.805066 1_556
Au2 Zn0 2.670971 1_666
Au2 Sb3 2.754855 1_655
Au2 Sb2 2.754855 1_565
Au2 Sc0 2.800012 1_565
Au2 Sc1 2.800012 1_655
Au2 Sb0 2.801617 1_666
Au2 Sb1 2.805073 1_554
Au3 Zn0 2.670979 1_555
Au3 Sb2 2.754866 1_555
Au3 Sb3 2.754867 1_555
Au3 Sc1 2.800016 1_555
Au3 Sc0 2.800016 1_555
Au3 Sb0 2.801616 1_555
Au3 Sb1 2.805066 1_555
