# generated using pymatgen
data_SrCuBiS3
_symmetry_space_group_name_H-M   'P 1'
_cell_length_a   4.02260611
_cell_length_b   11.40290468
_cell_length_c   11.73456773
_cell_angle_alpha   90.00000000
_cell_angle_beta   90.00000000
_cell_angle_gamma   90.00000000
_symmetry_Int_Tables_number   1
_chemical_formula_structural   SrCuBiS3
_chemical_formula_sum   'Sr4 Cu4 Bi4 S12'
_cell_volume   538.25751133
_cell_formula_units_Z   4
loop_
 _symmetry_equiv_pos_site_id
 _symmetry_equiv_pos_as_xyz
  1  'x, y, z'
loop_
 _atom_site_type_symbol
 _atom_site_label
 _atom_site_symmetry_multiplicity
 _atom_site_fract_x
 _atom_site_fract_y
 _atom_site_fract_z
 _atom_site_occupancy
  Sr  Sr0  1  0.25000000  0.00519823  0.82357387  1
  Sr  Sr1  1  0.75000000  0.50519823  0.67642613  1
  Sr  Sr2  1  0.75000000  0.99480177  0.17642613  1
  Sr  Sr3  1  0.25000000  0.49480177  0.32357387  1
  Cu  Cu0  1  0.75000000  0.78306257  0.76710978  1
  Cu  Cu1  1  0.75000000  0.71693743  0.26710978  1
  Cu  Cu2  1  0.25000000  0.28306257  0.73289022  1
  Cu  Cu3  1  0.25000000  0.21693743  0.23289022  1
  Bi  Bi0  1  0.75000000  0.31502492  0.98331652  1
  Bi  Bi1  1  0.25000000  0.81502492  0.51668348  1
  Bi  Bi2  1  0.25000000  0.68497508  0.01668348  1
  Bi  Bi3  1  0.75000000  0.18497508  0.48331652  1
  S  S0  1  0.25000000  0.44421569  0.87397601  1
  S  S1  1  0.75000000  0.19984773  0.78735322  1
  S  S2  1  0.25000000  0.05578431  0.37397601  1
  S  S3  1  0.75000000  0.94421569  0.62602399  1
  S  S4  1  0.25000000  0.35288028  0.54871575  1
  S  S5  1  0.25000000  0.80015227  0.21264678  1
  S  S6  1  0.75000000  0.30015227  0.28735322  1
  S  S7  1  0.25000000  0.69984773  0.71264678  1
  S  S8  1  0.75000000  0.55578431  0.12602399  1
  S  S9  1  0.75000000  0.85288028  0.95128425  1
  S  S10  1  0.25000000  0.14711972  0.04871575  1
  S  S11  1  0.75000000  0.64711972  0.45128425  1
loop_
_geom_bond_atom_site_label_1
_geom_bond_atom_site_label_2
_geom_bond_distance
_geom_bond_site_symmetry_2
Cu0 S9 2.303179 1_555
Cu0 S7 2.313911 1_555
Cu0 S7 2.313911 1_655
Cu0 S3 2.473413 1_555
Cu1 S11 2.303179 1_555
Cu1 S5 2.313911 1_555
Cu1 S5 2.313911 1_655
Cu1 S8 2.473413 1_555
Cu2 S4 2.303179 1_555
Cu2 S1 2.313911 1_555
Cu2 S1 2.313911 1_455
Cu2 S0 2.473413 1_555
Cu3 S10 2.303179 1_555
Cu3 S6 2.313911 1_555
Cu3 S6 2.313911 1_455
Cu3 S2 2.473413 1_555
Bi0 S1 2.648170 1_555
Bi0 S0 2.803884 1_555
Bi0 S0 2.803884 1_655
Bi0 S10 2.880974 1_556
Bi0 S10 2.880974 1_656
Bi0 S8 3.215790 1_556
Bi1 S7 2.648170 1_555
Bi1 S3 2.803884 1_455
Bi1 S3 2.803884 1_555
Bi1 S11 2.880974 1_455
Bi1 S11 2.880974 1_555
Bi1 S2 3.215790 1_565
Bi2 S5 2.648170 1_555
Bi2 S8 2.803884 1_455
Bi2 S8 2.803884 1_555
Bi2 S9 2.880974 1_454
Bi2 S9 2.880974 1_554
Bi2 S0 3.215790 1_554
Bi3 S6 2.648170 1_555
Bi3 S2 2.803884 1_555
Bi3 S2 2.803884 1_655
Bi3 S4 2.880974 1_555
Bi3 S4 2.880974 1_655
Bi3 S3 3.215790 1_545
S0 Sr1 3.146866 1_455
S0 Sr1 3.146866 1_555
S1 Sr0 3.025307 1_655
S1 Sr0 3.025307 1_555
S2 Sr2 3.146866 1_545
S2 Sr2 3.146866 1_445
S3 Sr0 3.146866 1_565
S3 Sr0 3.146866 1_665
S4 Sr1 3.050890 1_555
S4 Sr1 3.050890 1_455
S4 Sr3 3.098195 1_555
S5 Sr2 3.025307 1_455
S5 Sr2 3.025307 1_555
S6 Sr3 3.025307 1_555
S6 Sr3 3.025307 1_655
S7 Sr1 3.025307 1_455
S7 Sr1 3.025307 1_555
S8 Sr3 3.146866 1_655
S8 Sr3 3.146866 1_555
S9 Sr0 3.050890 1_565
S9 Sr0 3.050890 1_665
S9 Sr2 3.098195 1_556
S10 Sr2 3.050890 1_545
S10 Sr2 3.050890 1_445
S10 Sr0 3.098195 1_554
S11 Sr3 3.050890 1_555
S11 Sr3 3.050890 1_655
S11 Sr1 3.098195 1_555
