# generated using pymatgen
data_Be4VMo
_symmetry_space_group_name_H-M   'P 1'
_cell_length_a   4.40583721
_cell_length_b   4.40583635
_cell_length_c   7.14528597
_cell_angle_alpha   90.00000000
_cell_angle_beta   90.00000000
_cell_angle_gamma   119.99999904
_symmetry_Int_Tables_number   1
_chemical_formula_structural   Be4VMo
_chemical_formula_sum   'Be8 V2 Mo2'
_cell_volume   120.11771420
_cell_formula_units_Z   2
loop_
 _symmetry_equiv_pos_site_id
 _symmetry_equiv_pos_as_xyz
  1  'x, y, z'
loop_
 _atom_site_type_symbol
 _atom_site_label
 _atom_site_symmetry_multiplicity
 _atom_site_fract_x
 _atom_site_fract_y
 _atom_site_fract_z
 _atom_site_occupancy
  Be  Be0  1  0.00000000  0.00000000  0.00070942  1
  Be  Be1  1  0.00000000  0.00000000  0.50070942  1
  Be  Be2  1  0.82902780  0.65805560  0.24999837  1
  Be  Be3  1  0.17097220  0.82902780  0.74999837  1
  Be  Be4  1  0.65805560  0.82902780  0.74999837  1
  Be  Be5  1  0.34194440  0.17097220  0.24999837  1
  Be  Be6  1  0.82902780  0.17097220  0.24999837  1
  Be  Be7  1  0.17097220  0.34194440  0.74999837  1
  V  V0  1  0.66666700  0.33333300  0.93494697  1
  V  V1  1  0.33333300  0.66666700  0.43494697  1
  Mo  Mo0  1  0.33333300  0.66666700  0.06434850  1
  Mo  Mo1  1  0.66666700  0.33333300  0.56434850  1
loop_
_geom_bond_atom_site_label_1
_geom_bond_atom_site_label_2
_geom_bond_distance
_geom_bond_site_symmetry_2
Be0 Be2 2.207961 1_445
Be0 Be6 2.207961 1_455
Be0 Be5 2.207961 1_555
Be0 Be7 2.216166 1_554
Be0 Be3 2.216167 1_544
Be0 Be4 2.216167 1_444
Be0 Mo0 2.584032 1_545
Be0 Mo0 2.584036 1_555
Be0 Mo0 2.584036 1_445
Be0 V0 2.586745 1_454
Be0 V0 2.586749 1_444
Be0 V0 2.586749 1_554
Be1 Be7 2.207961 1_555
Be1 Be3 2.207961 1_545
Be1 Be4 2.207961 1_445
Be1 Be2 2.216166 1_445
Be1 Be6 2.216167 1_455
Be1 Be5 2.216167 1_555
Be1 Mo1 2.584032 1_455
Be1 Mo1 2.584036 1_445
Be1 Mo1 2.584036 1_555
Be1 V1 2.586745 1_545
Be1 V1 2.586749 1_555
Be1 V1 2.586749 1_445
Be2 Be6 2.146010 1_555
Be2 Be5 2.146010 1_555
Be2 Be6 2.259827 1_565
Be2 Be5 2.259827 1_665
Be2 Mo1 2.565187 1_555
Be2 V1 2.569107 1_655
Be2 V1 2.569111 1_555
Be2 V0 2.569576 1_554
Be2 Mo0 2.571688 1_655
Be2 Mo0 2.571692 1_555
Be3 Be7 2.146010 1_555
Be3 Be4 2.146010 1_555
Be3 Be7 2.259827 1_565
Be3 Be4 2.259827 1_455
Be3 Mo0 2.565185 1_556
Be3 V0 2.569109 1_565
Be3 V0 2.569109 1_455
Be3 V1 2.569574 1_555
Be3 Mo1 2.571690 1_565
Be3 Mo1 2.571690 1_455
Be4 Be7 2.146010 1_555
Be4 Be7 2.259827 1_665
Be4 Mo0 2.565187 1_556
Be4 V0 2.569107 1_565
Be4 V0 2.569110 1_555
Be4 V1 2.569576 1_555
Be4 Mo1 2.571688 1_565
Be4 Mo1 2.571691 1_555
Be5 Be6 2.146010 1_555
Be5 Be6 2.259827 1_455
Be5 Mo1 2.565187 1_555
Be5 V1 2.569107 1_545
Be5 V1 2.569110 1_555
Be5 V0 2.569576 1_554
Be5 Mo0 2.571688 1_545
Be5 Mo0 2.571691 1_555
Be6 Mo1 2.565185 1_555
Be6 V1 2.569109 1_545
Be6 V1 2.569109 1_655
Be6 V0 2.569574 1_554
Be6 Mo0 2.571690 1_545
Be6 Mo0 2.571690 1_655
Be7 Mo0 2.565187 1_556
Be7 V0 2.569107 1_455
Be7 V0 2.569111 1_555
Be7 V1 2.569576 1_555
Be7 Mo1 2.571688 1_455
Be7 Mo1 2.571692 1_555
Mo0 V1 2.648032 1_555
Mo0 V0 2.706540 1_564
Mo0 V0 2.706540 1_454
Mo0 V0 2.706547 1_554
Mo1 V0 2.648032 1_555
Mo1 V1 2.706540 1_545
Mo1 V1 2.706540 1_655
Mo1 V1 2.706547 1_555
