# generated using pymatgen
data_V2CdF12
_symmetry_space_group_name_H-M   'P 1'
_cell_length_a   9.53178094
_cell_length_b   9.53178049
_cell_length_c   9.53178048
_cell_angle_alpha   132.28398972
_cell_angle_beta   132.28398936
_cell_angle_gamma   69.78086467
_symmetry_Int_Tables_number   1
_chemical_formula_structural   V2CdF12
_chemical_formula_sum   'V4 Cd2 F24'
_cell_volume   464.83900545
_cell_formula_units_Z   2
loop_
 _symmetry_equiv_pos_site_id
 _symmetry_equiv_pos_as_xyz
  1  'x, y, z'
loop_
 _atom_site_type_symbol
 _atom_site_label
 _atom_site_symmetry_multiplicity
 _atom_site_fract_x
 _atom_site_fract_y
 _atom_site_fract_z
 _atom_site_occupancy
  V  V0  1  0.78128328  0.78128328  0.00000000  1
  V  V1  1  0.21871672  0.21871672  1.00000000  1
  V  V2  1  0.96871672  0.46871672  0.50000000  1
  V  V3  1  0.53128328  0.03128328  0.50000000  1
  Cd  Cd0  1  0.75000000  0.25000000  0.50000000  1
  Cd  Cd1  1  0.00000000  0.00000000  0.00000000  1
  F  F0  1  0.87012028  0.76648406  0.21784562  1
  F  F1  1  0.54863744  0.65227466  0.78215438  1
  F  F2  1  0.40227466  0.79863744  0.28215438  1
  F  F3  1  0.34772534  0.12987972  0.89636378  1
  F  F4  1  0.23351594  0.45136256  0.10363622  1
  F  F5  1  0.20136256  0.48351594  0.60363622  1
  F  F6  1  0.66820140  0.26825329  0.69510914  1
  F  F7  1  0.73174671  0.42685585  0.39994811  1
  F  F8  1  0.02690874  0.33179860  0.60005189  1
  F  F9  1  0.08179860  0.27690874  0.10005189  1
  F  F10  1  0.17685585  0.98174671  0.89994811  1
  F  F11  1  0.57314415  0.97309126  0.30489086  1
  F  F12  1  0.72309126  0.82314415  0.80489086  1
  F  F13  1  0.01825329  0.91820140  0.19510914  1
  F  F14  1  0.31156065  0.11039101  0.35358319  1
  F  F15  1  0.88960899  0.24319219  0.20116965  1
  F  F16  1  0.04202254  0.68843935  0.79883035  1
  F  F17  1  0.43843935  0.29202254  0.29883035  1
  F  F18  1  0.99319219  0.13960899  0.70116965  1
  F  F19  1  0.75680781  0.95797746  0.64641681  1
  F  F20  1  0.70797746  0.00680781  0.14641681  1
  F  F21  1  0.86039101  0.56156065  0.85358319  1
  F  F22  1  0.51648406  0.12012028  0.71784562  1
  F  F23  1  0.87987972  0.59772534  0.39636378  1
loop_
_geom_bond_atom_site_label_1
_geom_bond_atom_site_label_2
_geom_bond_distance
_geom_bond_site_symmetry_2
Cd0 F20 2.281509 1_555
Cd0 F21 2.281509 1_555
Cd0 F18 2.281509 1_555
Cd0 F17 2.281509 1_555
Cd0 F7 2.349211 1_555
Cd0 F6 2.349211 1_555
Cd0 F11 2.349219 1_545
Cd0 F8 2.349220 1_655
Cd1 F16 2.281509 1_544
Cd1 F19 2.281509 1_444
Cd1 F15 2.281509 1_455
Cd1 F14 2.281509 1_555
Cd1 F13 2.349211 1_545
Cd1 F10 2.349211 1_544
Cd1 F12 2.349219 1_444
Cd1 F9 2.349220 1_555
F0 V0 1.730376 1_555
F1 V0 1.730383 1_556
F2 V3 1.730383 1_565
F3 V1 1.730376 1_555
F4 V1 1.730385 1_554
F5 V2 1.730385 1_455
F6 V3 1.839288 1_555
F7 V2 1.839288 1_555
F8 V2 1.839285 1_455
F9 V1 1.839285 1_554
F10 V1 1.839288 1_565
F11 V3 1.839284 1_565
F12 V0 1.839284 1_556
F13 V0 1.839288 1_455
F14 V3 1.814930 1_555
F15 V2 1.814930 1_555
F16 V2 1.814930 1_455
F17 V1 1.814930 1_554
F18 V1 1.814930 1_655
F19 V3 1.814930 1_565
F20 V0 1.814930 1_545
F21 V0 1.814930 1_556
F22 V3 1.730376 1_555
F23 V2 1.730376 1_555
