# generated using pymatgen
data_VSbAsCl13
_symmetry_space_group_name_H-M   'P 1'
_cell_length_a   9.59538745
_cell_length_b   9.59538803
_cell_length_c   11.77349369
_cell_angle_alpha   90.00000000
_cell_angle_beta   90.00000000
_cell_angle_gamma   116.66931176
_symmetry_Int_Tables_number   1
_chemical_formula_structural   VSbAsCl13
_chemical_formula_sum   'V2 Sb2 As2 Cl26'
_cell_volume   968.67784414
_cell_formula_units_Z   2
loop_
 _symmetry_equiv_pos_site_id
 _symmetry_equiv_pos_as_xyz
  1  'x, y, z'
loop_
 _atom_site_type_symbol
 _atom_site_label
 _atom_site_symmetry_multiplicity
 _atom_site_fract_x
 _atom_site_fract_y
 _atom_site_fract_z
 _atom_site_occupancy
  V  V0  1  0.13313468  0.86686532  0.03976117  1
  V  V1  1  0.86686532  0.13313468  0.53976117  1
  Sb  Sb0  1  0.78992111  0.21007889  0.99375863  1
  Sb  Sb1  1  0.21007889  0.78992111  0.49375863  1
  As  As0  1  0.44771839  0.55228161  0.34853142  1
  As  As1  1  0.55228161  0.44771839  0.84853142  1
  Cl  Cl0  1  0.32186278  0.01516044  0.61281647  1
  Cl  Cl1  1  0.87075001  0.12924999  0.36352441  1
  Cl  Cl2  1  0.63271441  0.69771735  0.87669761  1
  Cl  Cl3  1  0.12924999  0.87075001  0.86352441  1
  Cl  Cl4  1  0.90660009  0.75530529  0.10117291  1
  Cl  Cl5  1  0.69771735  0.63271441  0.37669761  1
  Cl  Cl6  1  0.74584637  0.25415363  0.59185864  1
  Cl  Cl7  1  0.24469471  0.09339991  0.10117291  1
  Cl  Cl8  1  0.67813722  0.98483956  0.11281647  1
  Cl  Cl9  1  0.25415363  0.74584637  0.09185864  1
  Cl  Cl10  1  0.09339991  0.24469471  0.60117291  1
  Cl  Cl11  1  0.09648654  0.56529878  0.37174945  1
  Cl  Cl12  1  0.98483956  0.67813722  0.61281647  1
  Cl  Cl13  1  0.01516044  0.32186278  0.11281647  1
  Cl  Cl14  1  0.08793866  0.91206134  0.38213385  1
  Cl  Cl15  1  0.90351346  0.43470122  0.87174945  1
  Cl  Cl16  1  0.56529878  0.09648654  0.87174945  1
  Cl  Cl17  1  0.43470122  0.90351346  0.37174945  1
  Cl  Cl18  1  0.30228265  0.36728559  0.87669761  1
  Cl  Cl19  1  0.36728559  0.30228265  0.37669761  1
  Cl  Cl20  1  0.91206134  0.08793866  0.88213385  1
  Cl  Cl21  1  0.54898672  0.45101328  0.66141391  1
  Cl  Cl22  1  0.33297307  0.66702693  0.60344508  1
  Cl  Cl23  1  0.66702693  0.33297307  0.10344508  1
  Cl  Cl24  1  0.75530529  0.90660009  0.60117291  1
  Cl  Cl25  1  0.45101328  0.54898672  0.16141391  1
loop_
_geom_bond_atom_site_label_1
_geom_bond_atom_site_label_2
_geom_bond_distance
_geom_bond_site_symmetry_2
As0 Cl5 2.190453 1_555
As0 Cl19 2.190453 1_555
As0 Cl25 2.203684 1_555
As1 Cl18 2.190453 1_555
As1 Cl2 2.190453 1_555
As1 Cl21 2.203684 1_555
Cl0 Sb1 2.388593 1_545
Cl1 V1 2.075892 1_555
Cl3 V0 2.075892 1_556
Cl4 V0 2.074804 1_655
Cl6 V1 2.069679 1_555
Cl7 V0 2.074804 1_545
Cl8 Sb0 2.388593 1_564
Cl9 V0 2.069679 1_555
Cl10 V1 2.074804 1_455
Cl11 Sb1 2.405846 1_555
Cl12 Sb1 2.388593 1_655
Cl13 Sb0 2.388593 1_454
Cl14 Sb1 2.388985 1_555
Cl15 Sb0 2.405846 1_555
Cl16 Sb0 2.405846 1_555
Cl17 Sb1 2.405846 1_555
Cl20 Sb0 2.388985 1_555
Cl22 Sb1 2.386855 1_555
Cl23 Sb0 2.386855 1_554
Cl24 V1 2.074804 1_565
