# generated using pymatgen
data_K3Sr3ScAs4
_symmetry_space_group_name_H-M   'P 1'
_cell_length_a   10.39707632
_cell_length_b   10.39707770
_cell_length_c   7.73571693
_cell_angle_alpha   90.00000000
_cell_angle_beta   90.00000000
_cell_angle_gamma   119.99999562
_symmetry_Int_Tables_number   1
_chemical_formula_structural   K3Sr3ScAs4
_chemical_formula_sum   'K6 Sr6 Sc2 As8'
_cell_volume   724.19203067
_cell_formula_units_Z   2
loop_
 _symmetry_equiv_pos_site_id
 _symmetry_equiv_pos_as_xyz
  1  'x, y, z'
loop_
 _atom_site_type_symbol
 _atom_site_label
 _atom_site_symmetry_multiplicity
 _atom_site_fract_x
 _atom_site_fract_y
 _atom_site_fract_z
 _atom_site_occupancy
  K  K0  1  0.73062493  0.86531246  0.17157387  1
  K  K1  1  0.86531246  0.13468754  0.67157387  1
  K  K2  1  0.86531246  0.73062493  0.67157387  1
  K  K3  1  0.13468754  0.26937507  0.17157387  1
  K  K4  1  0.13468754  0.86531246  0.17157387  1
  K  K5  1  0.26937507  0.13468754  0.67157387  1
  Sr  Sr0  1  0.06281441  0.53140720  0.49842057  1
  Sr  Sr1  1  0.46859280  0.93718559  0.49842057  1
  Sr  Sr2  1  0.46859280  0.53140720  0.49842057  1
  Sr  Sr3  1  0.53140720  0.46859280  0.99842057  1
  Sr  Sr4  1  0.53140720  0.06281441  0.99842057  1
  Sr  Sr5  1  0.93718559  0.46859280  0.99842057  1
  Sc  Sc0  1  0.33333300  0.66666700  0.88729155  1
  Sc  Sc1  1  0.66666700  0.33333300  0.38729155  1
  As  As0  1  0.66666700  0.33333300  0.73217501  1
  As  As1  1  0.60513667  0.80256933  0.76658272  1
  As  As2  1  0.80256933  0.19743067  0.26658272  1
  As  As3  1  0.80256933  0.60513667  0.26658272  1
  As  As4  1  0.33333300  0.66666700  0.23217501  1
  As  As5  1  0.19743067  0.39486333  0.76658272  1
  As  As6  1  0.19743067  0.80256933  0.76658272  1
  As  As7  1  0.39486333  0.19743067  0.26658272  1
loop_
_geom_bond_atom_site_label_1
_geom_bond_atom_site_label_2
_geom_bond_distance
_geom_bond_site_symmetry_2
As0 Sc1 2.667921 1_555
As0 Sr5 3.189828 1_555
As0 Sr4 3.189828 1_555
As0 Sr3 3.189835 1_555
As0 K1 3.607847 1_555
As0 K5 3.607856 1_555
As0 K2 3.607856 1_555
As1 Sc0 2.619442 1_555
As1 Sr1 3.203837 1_555
As1 Sr2 3.203851 1_555
As1 K1 3.231164 1_565
As1 K2 3.231177 1_555
As1 K0 3.330427 1_556
As1 Sr4 3.633111 1_565
As1 Sr3 3.633129 1_555
As2 Sc1 2.619451 1_555
As2 Sr4 3.203850 1_554
As2 Sr5 3.203851 1_554
As2 K3 3.231157 1_655
As2 K0 3.231157 1_545
As2 K1 3.330421 1_555
As2 Sr1 3.633123 1_545
As2 Sr0 3.633124 1_655
As3 Sc1 2.619443 1_555
As3 Sr5 3.203837 1_554
As3 Sr3 3.203850 1_554
As3 K4 3.231163 1_655
As3 K0 3.231177 1_555
As3 K2 3.330427 1_555
As3 Sr0 3.633111 1_655
As3 Sr2 3.633129 1_555
As4 Sc0 2.667921 1_554
As4 Sr0 3.189828 1_555
As4 Sr1 3.189828 1_555
As4 Sr2 3.189835 1_555
As4 K4 3.607847 1_555
As4 K0 3.607856 1_555
As4 K3 3.607856 1_555
As5 Sc0 2.619443 1_555
As5 Sr0 3.203837 1_555
As5 Sr2 3.203850 1_555
As5 K1 3.231163 1_455
As5 K5 3.231177 1_555
As5 K3 3.330427 1_556
As5 Sr5 3.633111 1_455
As5 Sr3 3.633129 1_555
As6 Sc0 2.619451 1_555
As6 Sr1 3.203850 1_555
As6 Sr0 3.203851 1_555
As6 K2 3.231157 1_455
As6 K5 3.231157 1_565
As6 K4 3.330421 1_556
As6 Sr4 3.633123 1_565
As6 Sr5 3.633124 1_455
As7 Sc1 2.619442 1_555
As7 Sr4 3.203837 1_554
As7 Sr3 3.203851 1_554
As7 K4 3.231164 1_545
As7 K3 3.231177 1_555
As7 K5 3.330427 1_555
As7 Sr1 3.633111 1_545
As7 Sr2 3.633129 1_555
