# generated using pymatgen
data_Ca12As3PN4
_symmetry_space_group_name_H-M   'P 1'
_cell_length_a   6.69490680
_cell_length_b   6.71603867
_cell_length_c   9.51015013
_cell_angle_alpha   90.00000000
_cell_angle_beta   90.00000000
_cell_angle_gamma   90.02935925
_symmetry_Int_Tables_number   1
_chemical_formula_structural   Ca12As3PN4
_chemical_formula_sum   'Ca12 As3 P1 N4'
_cell_volume   427.60723019
_cell_formula_units_Z   1
loop_
 _symmetry_equiv_pos_site_id
 _symmetry_equiv_pos_as_xyz
  1  'x, y, z'
loop_
 _atom_site_type_symbol
 _atom_site_label
 _atom_site_symmetry_multiplicity
 _atom_site_fract_x
 _atom_site_fract_y
 _atom_site_fract_z
 _atom_site_occupancy
  Ca  Ca0  1  0.04532028  0.48794118  0.25000000  1
  Ca  Ca1  1  0.45576758  0.99583020  0.25000000  1
  Ca  Ca2  1  0.55263860  0.00596299  0.75000000  1
  Ca  Ca3  1  0.95576198  0.51728946  0.75000000  1
  Ca  Ca4  1  0.71194533  0.28801879  0.02214045  1
  Ca  Ca5  1  0.78611312  0.78624118  0.47664536  1
  Ca  Ca6  1  0.21040649  0.21059838  0.97099984  1
  Ca  Ca7  1  0.28540148  0.71467703  0.52240455  1
  Ca  Ca8  1  0.28540148  0.71467703  0.97759545  1
  Ca  Ca9  1  0.21040649  0.21059838  0.52900016  1
  Ca  Ca10  1  0.78611312  0.78624118  0.02335464  1
  Ca  Ca11  1  0.71194533  0.28801879  0.47785955  1
  As  As0  1  0.49716945  0.47860567  0.75000000  1
  As  As1  1  0.50436707  0.52383363  0.25000000  1
  As  As2  1  0.99817986  0.02032771  0.25000000  1
  P  P0  1  0.00287335  0.97190353  0.75000000  1
  N  N0  1  0.50012539  0.00073956  0.50101053  1
  N  N1  1  0.99997161  0.49887787  0.99926503  1
  N  N2  1  0.99997161  0.49887787  0.50073497  1
  N  N3  1  0.50012539  0.00073956  0.99898947  1
loop_
_geom_bond_atom_site_label_1
_geom_bond_atom_site_label_2
_geom_bond_distance
_geom_bond_site_symmetry_2
Ca0 N2 2.404904 1_455
Ca0 N1 2.404904 1_454
Ca1 N3 2.405773 1_564
Ca1 N0 2.405773 1_565
Ca2 N0 2.394139 1_555
Ca2 N3 2.394139 1_555
Ca2 P0 3.023063 1_645
Ca3 N1 2.392160 1_555
Ca3 N2 2.392160 1_555
Ca3 P0 3.069293 1_655
Ca4 N1 2.401739 1_554
Ca4 N3 2.404001 1_554
Ca5 N0 2.407845 1_565
Ca5 N2 2.414527 1_555
Ca5 P0 3.227544 1_655
Ca6 N1 2.410053 1_455
Ca6 N3 2.412950 1_555
Ca6 P0 2.985865 1_545
Ca7 N2 2.406613 1_455
Ca7 N0 2.407524 1_565
Ca7 P0 3.354168 1_555
Ca8 N1 2.406613 1_455
Ca8 N3 2.407524 1_565
Ca8 P0 3.354168 1_555
Ca9 N2 2.410053 1_455
Ca9 N0 2.412950 1_555
Ca9 P0 2.985865 1_545
Ca10 N3 2.407845 1_564
Ca10 N1 2.414527 1_554
Ca10 P0 3.227544 1_654
Ca11 N2 2.401739 1_555
Ca11 N0 2.404001 1_555
As0 Ca8 3.034960 1_555
As0 Ca7 3.034960 1_555
As0 Ca3 3.081074 1_555
As0 Ca2 3.196124 1_555
As0 Ca11 3.225844 1_555
As0 Ca4 3.225844 1_556
As0 Ca6 3.367405 1_555
As0 Ca9 3.367405 1_555
As0 Ca2 3.560979 1_565
As0 Ca3 3.634104 1_455
As1 Ca11 3.022847 1_555
As1 Ca4 3.022847 1_555
As1 Ca0 3.082592 1_555
As1 Ca1 3.186768 1_555
As1 Ca7 3.241139 1_555
As1 Ca8 3.241139 1_554
As1 Ca5 3.362485 1_555
As1 Ca10 3.362485 1_555
As1 Ca1 3.560821 1_545
As1 Ca0 3.629768 1_655
As2 Ca5 3.021745 1_545
As2 Ca10 3.021745 1_545
As2 Ca1 3.068006 1_645
As2 Ca0 3.156167 1_655
As2 Ca9 3.269562 1_655
As2 Ca6 3.269562 1_654
As2 Ca11 3.406428 1_555
As2 Ca4 3.406428 1_555
As2 Ca0 3.589591 1_645
As2 Ca1 3.635041 1_545
