# generated using pymatgen
data_CsNa3(In3Te5)4
_symmetry_space_group_name_H-M   'P 1'
_cell_length_a   11.03849098
_cell_length_b   11.03849047
_cell_length_c   11.03849244
_cell_angle_alpha   89.33554406
_cell_angle_beta   89.33554071
_cell_angle_gamma   89.33554100
_symmetry_Int_Tables_number   1
_chemical_formula_structural   CsNa3(In3Te5)4
_chemical_formula_sum   'Cs1 Na3 In12 Te20'
_cell_volume   1344.75203528
_cell_formula_units_Z   1
loop_
 _symmetry_equiv_pos_site_id
 _symmetry_equiv_pos_as_xyz
  1  'x, y, z'
loop_
 _atom_site_type_symbol
 _atom_site_label
 _atom_site_symmetry_multiplicity
 _atom_site_fract_x
 _atom_site_fract_y
 _atom_site_fract_z
 _atom_site_occupancy
  Cs  Cs0  1  0.50000000  0.50000000  0.50000000  1
  Na  Na0  1  0.25089137  1.00000000  0.74910863  1
  Na  Na1  1  0.74910863  0.25089137  1.00000000  1
  Na  Na2  1  0.00000000  0.74910863  0.25089137  1
  In  In0  1  0.84473385  0.87700988  0.57189872  1
  In  In1  1  0.57189872  0.84473385  0.87700988  1
  In  In2  1  0.87700988  0.57189872  0.84473385  1
  In  In3  1  0.15526615  0.42810128  0.12299012  1
  In  In4  1  0.12299012  0.15526615  0.42810128  1
  In  In5  1  0.42810128  0.12299012  0.15526615  1
  In  In6  1  0.75067403  0.16576737  0.33824099  1
  In  In7  1  0.33824099  0.75067403  0.16576737  1
  In  In8  1  0.16576737  0.33824099  0.75067403  1
  In  In9  1  0.24932597  0.66175901  0.83423263  1
  In  In10  1  0.83423263  0.24932597  0.66175901  1
  In  In11  1  0.66175901  0.83423263  0.24932597  1
  Te  Te0  1  0.16650544  0.83349456  1.00000000  1
  Te  Te1  1  0.83349456  0.00000000  0.16650544  1
  Te  Te2  1  0.17261035  0.17261035  0.17261035  1
  Te  Te3  1  0.82738965  0.82738965  0.82738965  1
  Te  Te4  1  1.00000000  0.16650544  0.83349456  1
  Te  Te5  1  0.91483376  0.50000000  0.08516624  1
  Te  Te6  1  0.08516624  0.91483376  0.50000000  1
  Te  Te7  1  0.50000000  0.08516624  0.91483376  1
  Te  Te8  1  0.77198725  0.68796923  0.42425829  1
  Te  Te9  1  0.42425829  0.77198725  0.68796923  1
  Te  Te10  1  0.68796923  0.42425829  0.77198725  1
  Te  Te11  1  0.22801275  0.57574171  0.31203077  1
  Te  Te12  1  0.31203077  0.22801275  0.57574171  1
  Te  Te13  1  0.57574171  0.31203077  0.22801275  1
  Te  Te14  1  0.67324080  0.07084914  0.56901557  1
  Te  Te15  1  0.56901557  0.67324080  0.07084914  1
  Te  Te16  1  0.07084914  0.56901557  0.67324080  1
  Te  Te17  1  0.32675920  0.43098443  0.92915086  1
  Te  Te18  1  0.92915086  0.32675920  0.43098443  1
  Te  Te19  1  0.43098443  0.92915086  0.32675920  1
loop_
_geom_bond_atom_site_label_1
_geom_bond_atom_site_label_2
_geom_bond_distance
_geom_bond_site_symmetry_2
Cs0 Te12 3.750230 1_555
Cs0 Te9 3.750230 1_555
Cs0 Te8 3.750230 1_555
Cs0 Te13 3.750230 1_555
Cs0 Te11 3.750230 1_555
Cs0 Te10 3.750230 1_555
Na0 Te9 3.217196 1_555
Na0 Te12 3.217196 1_565
Na0 Te4 3.431843 1_465
Na0 Te0 3.431843 1_555
Na0 Te7 3.465280 1_565
Na0 Te6 3.465280 1_555
Na1 Te13 3.217197 1_556
Na1 Te10 3.217197 1_555
Na1 Te4 3.431843 1_555
Na1 Te1 3.431843 1_556
Na1 Te5 3.465280 1_556
Na1 Te7 3.465280 1_555
Na2 Te11 3.217196 1_555
Na2 Te8 3.217196 1_455
Na2 Te1 3.431843 1_465
Na2 Te0 3.431843 1_554
Na2 Te5 3.465280 1_455
Na2 Te6 3.465280 1_555
In0 Te8 2.793448 1_555
In0 Te6 2.795915 1_655
In0 Te14 2.840548 1_565
In0 Te3 2.871319 1_555
In1 Te9 2.793448 1_555
In1 Te7 2.795915 1_565
In1 Te15 2.840548 1_556
In1 Te3 2.871318 1_555
In2 Te10 2.793448 1_555
In2 Te5 2.795916 1_556
In2 Te16 2.840548 1_655
In2 Te3 2.871318 1_555
In3 Te11 2.793448 1_555
In3 Te5 2.795915 1_455
In3 Te17 2.840548 1_554
In3 Te2 2.871318 1_555
In4 Te12 2.793448 1_555
In4 Te6 2.795915 1_545
In4 Te18 2.840548 1_455
In4 Te2 2.871319 1_555
In5 Te13 2.793448 1_555
In5 Te7 2.795916 1_554
In5 Te19 2.840548 1_545
In5 Te2 2.871318 1_555
In6 Te13 2.784336 1_555
In6 Te1 2.789117 1_555
In6 Te14 2.868102 1_555
In6 Te18 2.873621 1_555
In7 Te11 2.784336 1_555
In7 Te0 2.789117 1_554
In7 Te15 2.868102 1_555
In7 Te19 2.873621 1_555
In8 Te12 2.784336 1_555
In8 Te4 2.789117 1_455
In8 Te16 2.868102 1_555
In8 Te17 2.873621 1_555
In9 Te9 2.784336 1_555
In9 Te0 2.789117 1_555
In9 Te17 2.868102 1_555
In9 Te16 2.873621 1_555
In10 Te10 2.784336 1_555
In10 Te4 2.789117 1_555
In10 Te18 2.868102 1_555
In10 Te14 2.873621 1_555
In11 Te8 2.784336 1_555
In11 Te1 2.789117 1_565
In11 Te19 2.868102 1_555
In11 Te15 2.873621 1_555
