# generated using pymatgen
data_Sc29Fe6
_symmetry_space_group_name_H-M   'P 1'
_cell_length_a   14.35756100
_cell_length_b   14.35756100
_cell_length_c   14.35756100
_cell_angle_alpha   90.00000000
_cell_angle_beta   90.00000000
_cell_angle_gamma   90.00000000
_symmetry_Int_Tables_number   1
_chemical_formula_structural   Sc29Fe6
_chemical_formula_sum   'Sc116 Fe24'
_cell_volume   2959.66127661
_cell_formula_units_Z   4
loop_
 _symmetry_equiv_pos_site_id
 _symmetry_equiv_pos_as_xyz
  1  'x, y, z'
loop_
 _atom_site_type_symbol
 _atom_site_label
 _atom_site_symmetry_multiplicity
 _atom_site_fract_x
 _atom_site_fract_y
 _atom_site_fract_z
 _atom_site_occupancy
  Sc  Sc0  1  0.00000000  0.00000000  0.00000000  1
  Sc  Sc1  1  0.50000000  0.50000000  0.50000000  1
  Sc  Sc2  1  0.37507000  0.00000000  0.00000000  1
  Sc  Sc3  1  0.00000000  0.37507000  0.00000000  1
  Sc  Sc4  1  0.00000000  0.00000000  0.37507000  1
  Sc  Sc5  1  0.00000000  0.62493000  0.00000000  1
  Sc  Sc6  1  0.00000000  0.00000000  0.62493000  1
  Sc  Sc7  1  0.62493000  0.00000000  0.00000000  1
  Sc  Sc8  1  0.24971800  0.50000000  0.00000000  1
  Sc  Sc9  1  0.00000000  0.24971800  0.50000000  1
  Sc  Sc10  1  0.50000000  0.00000000  0.24971800  1
  Sc  Sc11  1  0.00000000  0.75028200  0.50000000  1
  Sc  Sc12  1  0.50000000  0.00000000  0.75028200  1
  Sc  Sc13  1  0.75028200  0.50000000  0.00000000  1
  Sc  Sc14  1  0.12453400  0.50000000  0.50000000  1
  Sc  Sc15  1  0.50000000  0.12453400  0.50000000  1
  Sc  Sc16  1  0.50000000  0.50000000  0.12453400  1
  Sc  Sc17  1  0.50000000  0.87546600  0.50000000  1
  Sc  Sc18  1  0.50000000  0.50000000  0.87546600  1
  Sc  Sc19  1  0.87546600  0.50000000  0.50000000  1
  Sc  Sc20  1  0.00000000  0.11210600  0.18773700  1
  Sc  Sc21  1  0.18773700  0.00000000  0.11210600  1
  Sc  Sc22  1  0.11210600  0.18773700  0.00000000  1
  Sc  Sc23  1  0.88789400  0.81226300  0.00000000  1
  Sc  Sc24  1  0.18773700  0.00000000  0.88789400  1
  Sc  Sc25  1  0.88789400  0.18773700  0.00000000  1
  Sc  Sc26  1  0.81226300  0.00000000  0.11210600  1
  Sc  Sc27  1  0.81226300  0.00000000  0.88789400  1
  Sc  Sc28  1  0.11210600  0.81226300  0.00000000  1
  Sc  Sc29  1  0.00000000  0.88789400  0.81226300  1
  Sc  Sc30  1  0.00000000  0.11210600  0.81226300  1
  Sc  Sc31  1  0.00000000  0.88789400  0.18773700  1
  Sc  Sc32  1  0.00000000  0.39432300  0.33448500  1
  Sc  Sc33  1  0.33448500  0.00000000  0.39432300  1
  Sc  Sc34  1  0.39432300  0.33448500  0.00000000  1
  Sc  Sc35  1  0.60567700  0.66551500  0.00000000  1
  Sc  Sc36  1  0.33448500  0.00000000  0.60567700  1
  Sc  Sc37  1  0.60567700  0.33448500  0.00000000  1
  Sc  Sc38  1  0.66551500  0.00000000  0.39432300  1
  Sc  Sc39  1  0.66551500  0.00000000  0.60567700  1
  Sc  Sc40  1  0.39432300  0.66551500  0.00000000  1
  Sc  Sc41  1  0.00000000  0.60567700  0.66551500  1
  Sc  Sc42  1  0.00000000  0.39432300  0.66551500  1
  Sc  Sc43  1  0.00000000  0.60567700  0.33448500  1
  Sc  Sc44  1  0.50000000  0.38825200  0.31107300  1
  Sc  Sc45  1  0.31107300  0.50000000  0.38825200  1
  Sc  Sc46  1  0.38825200  0.31107300  0.50000000  1
  Sc  Sc47  1  0.61174800  0.68892700  0.50000000  1
  Sc  Sc48  1  0.31107300  0.50000000  0.61174800  1
  Sc  Sc49  1  0.61174800  0.31107300  0.50000000  1
  Sc  Sc50  1  0.68892700  0.50000000  0.38825200  1
  Sc  Sc51  1  0.68892700  0.50000000  0.61174800  1
  Sc  Sc52  1  0.38825200  0.68892700  0.50000000  1
  Sc  Sc53  1  0.50000000  0.61174800  0.68892700  1
  Sc  Sc54  1  0.50000000  0.38825200  0.68892700  1
  Sc  Sc55  1  0.50000000  0.61174800  0.31107300  1
  Sc  Sc56  1  0.50000000  0.15249300  0.10571400  1
  Sc  Sc57  1  0.10571400  0.50000000  0.15249300  1
  Sc  Sc58  1  0.15249300  0.10571400  0.50000000  1
  Sc  Sc59  1  0.84750700  0.89428600  0.50000000  1
  Sc  Sc60  1  0.10571400  0.50000000  0.84750700  1
  Sc  Sc61  1  0.84750700  0.10571400  0.50000000  1
  Sc  Sc62  1  0.89428600  0.50000000  0.15249300  1
  Sc  Sc63  1  0.89428600  0.50000000  0.84750700  1
  Sc  Sc64  1  0.15249300  0.89428600  0.50000000  1
  Sc  Sc65  1  0.50000000  0.84750700  0.89428600  1
  Sc  Sc66  1  0.50000000  0.15249300  0.89428600  1
  Sc  Sc67  1  0.50000000  0.84750700  0.10571400  1
  Sc  Sc68  1  0.29241000  0.18365200  0.11260100  1
  Sc  Sc69  1  0.11260100  0.29241000  0.18365200  1
  Sc  Sc70  1  0.18365200  0.11260100  0.29241000  1
  Sc  Sc71  1  0.81634800  0.88739900  0.29241000  1
  Sc  Sc72  1  0.11260100  0.70759000  0.81634800  1
  Sc  Sc73  1  0.81634800  0.11260100  0.70759000  1
  Sc  Sc74  1  0.88739900  0.70759000  0.18365200  1
  Sc  Sc75  1  0.88739900  0.29241000  0.81634800  1
  Sc  Sc76  1  0.18365200  0.88739900  0.70759000  1
  Sc  Sc77  1  0.29241000  0.81634800  0.88739900  1
  Sc  Sc78  1  0.70759000  0.18365200  0.88739900  1
  Sc  Sc79  1  0.70759000  0.81634800  0.11260100  1
  Sc  Sc80  1  0.70759000  0.81634800  0.88739900  1
  Sc  Sc81  1  0.88739900  0.70759000  0.81634800  1
  Sc  Sc82  1  0.81634800  0.88739900  0.70759000  1
  Sc  Sc83  1  0.18365200  0.11260100  0.70759000  1
  Sc  Sc84  1  0.88739900  0.29241000  0.18365200  1
  Sc  Sc85  1  0.18365200  0.88739900  0.29241000  1
  Sc  Sc86  1  0.11260100  0.29241000  0.81634800  1
  Sc  Sc87  1  0.11260100  0.70759000  0.18365200  1
  Sc  Sc88  1  0.81634800  0.11260100  0.29241000  1
  Sc  Sc89  1  0.70759000  0.18365200  0.11260100  1
  Sc  Sc90  1  0.29241000  0.81634800  0.11260100  1
  Sc  Sc91  1  0.29241000  0.18365200  0.88739900  1
  Sc  Sc92  1  0.20085300  0.30752300  0.38825400  1
  Sc  Sc93  1  0.38825400  0.20085300  0.30752300  1
  Sc  Sc94  1  0.30752300  0.38825400  0.20085300  1
  Sc  Sc95  1  0.69247700  0.61174600  0.20085300  1
  Sc  Sc96  1  0.38825400  0.79914700  0.69247700  1
  Sc  Sc97  1  0.69247700  0.38825400  0.79914700  1
  Sc  Sc98  1  0.61174600  0.79914700  0.30752300  1
  Sc  Sc99  1  0.61174600  0.20085300  0.69247700  1
  Sc  Sc100  1  0.30752300  0.61174600  0.79914700  1
  Sc  Sc101  1  0.20085300  0.69247700  0.61174600  1
  Sc  Sc102  1  0.79914700  0.30752300  0.61174600  1
  Sc  Sc103  1  0.79914700  0.69247700  0.38825400  1
  Sc  Sc104  1  0.79914700  0.69247700  0.61174600  1
  Sc  Sc105  1  0.61174600  0.79914700  0.69247700  1
  Sc  Sc106  1  0.69247700  0.61174600  0.79914700  1
  Sc  Sc107  1  0.30752300  0.38825400  0.79914700  1
  Sc  Sc108  1  0.61174600  0.20085300  0.30752300  1
  Sc  Sc109  1  0.30752300  0.61174600  0.20085300  1
  Sc  Sc110  1  0.38825400  0.20085300  0.69247700  1
  Sc  Sc111  1  0.38825400  0.79914700  0.30752300  1
  Sc  Sc112  1  0.69247700  0.38825400  0.20085300  1
  Sc  Sc113  1  0.79914700  0.30752300  0.38825400  1
  Sc  Sc114  1  0.20085300  0.69247700  0.38825400  1
  Sc  Sc115  1  0.20085300  0.30752300  0.61174600  1
  Fe  Fe0  1  0.00000000  0.20094500  0.32887600  1
  Fe  Fe1  1  0.32887600  0.00000000  0.20094500  1
  Fe  Fe2  1  0.20094500  0.32887600  0.00000000  1
  Fe  Fe3  1  0.79905500  0.67112400  0.00000000  1
  Fe  Fe4  1  0.32887600  0.00000000  0.79905500  1
  Fe  Fe5  1  0.79905500  0.32887600  0.00000000  1
  Fe  Fe6  1  0.67112400  0.00000000  0.20094500  1
  Fe  Fe7  1  0.67112400  0.00000000  0.79905500  1
  Fe  Fe8  1  0.20094500  0.67112400  0.00000000  1
  Fe  Fe9  1  0.00000000  0.79905500  0.67112400  1
  Fe  Fe10  1  0.00000000  0.20094500  0.67112400  1
  Fe  Fe11  1  0.00000000  0.79905500  0.32887600  1
  Fe  Fe12  1  0.50000000  0.30572700  0.16799000  1
  Fe  Fe13  1  0.16799000  0.50000000  0.30572700  1
  Fe  Fe14  1  0.30572700  0.16799000  0.50000000  1
  Fe  Fe15  1  0.69427300  0.83201000  0.50000000  1
  Fe  Fe16  1  0.16799000  0.50000000  0.69427300  1
  Fe  Fe17  1  0.69427300  0.16799000  0.50000000  1
  Fe  Fe18  1  0.83201000  0.50000000  0.30572700  1
  Fe  Fe19  1  0.83201000  0.50000000  0.69427300  1
  Fe  Fe20  1  0.30572700  0.83201000  0.50000000  1
  Fe  Fe21  1  0.50000000  0.69427300  0.83201000  1
  Fe  Fe22  1  0.50000000  0.30572700  0.83201000  1
  Fe  Fe23  1  0.50000000  0.69427300  0.16799000  1
loop_
_geom_bond_atom_site_label_1
_geom_bond_atom_site_label_2
_geom_bond_distance
_geom_bond_site_symmetry_2
Sc0 Sc20 3.139449 1_555
Sc0 Sc22 3.139449 1_555
Sc0 Sc21 3.139449 1_555
Sc0 Sc26 3.139449 1_455
Sc0 Sc31 3.139449 1_545
Sc0 Sc28 3.139449 1_545
Sc0 Sc30 3.139449 1_554
Sc0 Sc24 3.139449 1_554
Sc0 Sc25 3.139449 1_455
Sc0 Sc29 3.139449 1_544
Sc0 Sc27 3.139449 1_454
Sc0 Sc23 3.139449 1_445
Sc1 Sc53 3.151510 1_555
Sc1 Sc47 3.151510 1_555
Sc1 Sc51 3.151510 1_555
Sc1 Sc52 3.151510 1_555
Sc1 Sc50 3.151510 1_555
Sc1 Sc54 3.151510 1_555
Sc1 Sc49 3.151510 1_555
Sc1 Sc55 3.151510 1_555
Sc1 Sc48 3.151510 1_555
Sc1 Sc46 3.151510 1_555
Sc1 Sc44 3.151510 1_555
Sc1 Sc45 3.151510 1_555
Sc2 Sc21 3.134470 1_555
Sc2 Sc24 3.134470 1_554
Sc2 Sc67 3.211638 1_545
Sc2 Sc56 3.211638 1_555
Sc2 Sc66 3.211638 1_554
Sc2 Sc65 3.211638 1_544
Sc2 Sc68 3.312825 1_555
Sc2 Sc90 3.312825 1_545
Sc2 Sc91 3.312825 1_554
Sc2 Sc77 3.312825 1_544
Sc2 Sc7 3.587380 1_555
Sc3 Sc60 3.211638 1_554
Sc3 Sc57 3.211638 1_555
Sc3 Sc63 3.211638 1_454
Sc3 Sc62 3.211638 1_455
Sc3 Sc69 3.312825 1_555
Sc3 Sc86 3.312825 1_554
Sc3 Sc84 3.312825 1_455
Sc3 Sc75 3.312825 1_454
Sc3 Sc5 3.587380 1_555
Sc4 Sc61 3.211638 1_455
Sc4 Sc58 3.211638 1_555
Sc4 Sc64 3.211638 1_545
Sc4 Sc59 3.211638 1_445
Sc4 Sc70 3.312825 1_555
Sc4 Sc88 3.312825 1_455
Sc4 Sc85 3.312825 1_545
Sc4 Sc71 3.312825 1_445
Sc4 Sc6 3.587380 1_555
Sc5 Sc60 3.211638 1_554
Sc5 Sc57 3.211638 1_555
Sc5 Sc62 3.211638 1_455
Sc5 Sc63 3.211638 1_454
Sc5 Sc87 3.312825 1_555
Sc5 Sc72 3.312825 1_554
Sc5 Sc74 3.312825 1_455
Sc5 Sc81 3.312825 1_454
Sc6 Sc61 3.211638 1_455
Sc6 Sc64 3.211638 1_545
Sc6 Sc83 3.312825 1_555
Sc6 Sc73 3.312825 1_455
Sc6 Sc76 3.312825 1_545
Sc6 Sc82 3.312825 1_445
Sc7 Sc89 3.312825 1_555
Sc7 Sc79 3.312825 1_545
Sc7 Sc78 3.312825 1_554
Sc7 Sc80 3.312825 1_544
Sc8 Sc94 3.402788 1_555
Sc9 Sc92 3.402788 1_555
Sc10 Sc67 3.011369 1_545
Sc10 Sc56 3.011369 1_555
Sc10 Sc38 3.155589 1_555
Sc10 Sc33 3.155589 1_555
Sc10 Sc93 3.402788 1_555
Sc10 Sc108 3.402788 1_555
Sc10 Sc111 3.402788 1_545
Sc10 Sc98 3.402788 1_545
Sc11 Sc59 3.011369 1_455
Sc11 Sc64 3.011369 1_555
Sc11 Sc41 3.155589 1_555
Sc11 Sc43 3.155589 1_555
Sc11 Sc114 3.402788 1_555
Sc12 Sc66 3.011369 1_555
Sc12 Sc65 3.011369 1_545
Sc12 Sc39 3.155589 1_555
Sc12 Sc36 3.155589 1_555
Sc12 Sc99 3.402788 1_555
Sc12 Sc96 3.402788 1_545
Sc13 Sc62 3.011369 1_555
Sc13 Sc63 3.011369 1_554
Sc13 Sc35 3.155589 1_555
Sc13 Sc37 3.155589 1_555
Sc13 Sc95 3.402788 1_555
Sc13 Sc97 3.402788 1_554
Sc14 Sc48 3.122049 1_555
Sc14 Sc45 3.122049 1_555
Sc14 Sc42 3.338606 1_555
Sc14 Sc41 3.338606 1_555
Sc14 Sc32 3.338606 1_555
Sc14 Sc43 3.338606 1_555
Sc14 Sc92 3.378122 1_555
Sc14 Sc19 3.576009 1_455
Sc15 Sc49 3.122049 1_555
Sc15 Sc46 3.122049 1_555
Sc15 Sc39 3.338606 1_555
Sc15 Sc38 3.338606 1_555
Sc15 Sc33 3.338606 1_555
Sc15 Sc36 3.338606 1_555
Sc15 Sc99 3.378122 1_555
Sc15 Sc93 3.378122 1_555
Sc15 Sc17 3.576009 1_545
Sc16 Sc55 3.122049 1_555
Sc16 Sc44 3.122049 1_555
Sc16 Sc35 3.338606 1_555
Sc16 Sc40 3.338606 1_555
Sc16 Sc37 3.338606 1_555
Sc16 Sc34 3.338606 1_555
Sc16 Sc94 3.378122 1_555
Sc16 Sc95 3.378122 1_555
Sc16 Sc18 3.576009 1_554
Sc17 Sc47 3.122049 1_555
Sc17 Sc52 3.122049 1_555
Sc17 Sc38 3.338606 1_565
Sc17 Sc39 3.338606 1_565
Sc17 Sc33 3.338606 1_565
Sc17 Sc36 3.338606 1_565
Sc17 Sc98 3.378122 1_555
Sc17 Sc96 3.378122 1_555
Sc18 Sc53 3.122049 1_555
Sc18 Sc54 3.122049 1_555
Sc18 Sc35 3.338606 1_556
Sc18 Sc40 3.338606 1_556
Sc18 Sc37 3.338606 1_556
Sc18 Sc34 3.338606 1_556
Sc18 Sc97 3.378122 1_555
Sc19 Sc51 3.122049 1_555
Sc19 Sc50 3.122049 1_555
Sc19 Sc41 3.338606 1_655
Sc19 Sc42 3.338606 1_655
Sc19 Sc32 3.338606 1_655
Sc19 Sc43 3.338606 1_655
Sc20 Sc70 3.035011 1_555
Sc20 Sc88 3.035011 1_455
Sc20 Sc69 3.052635 1_555
Sc20 Sc84 3.052635 1_455
Sc20 Sc4 3.134470 1_555
Sc21 Sc68 3.035011 1_555
Sc21 Sc90 3.035011 1_545
Sc21 Sc70 3.052635 1_555
Sc21 Sc85 3.052635 1_545
Sc22 Sc69 3.035011 1_555
Sc22 Sc86 3.035011 1_554
Sc22 Sc68 3.052635 1_555
Sc22 Sc91 3.052635 1_554
Sc22 Sc3 3.134470 1_555
Sc23 Sc74 3.035011 1_555
Sc23 Sc81 3.035011 1_554
Sc23 Sc79 3.052635 1_555
Sc23 Sc80 3.052635 1_554
Sc23 Sc5 3.134470 1_655
Sc24 Sc91 3.035011 1_555
Sc24 Sc77 3.035011 1_545
Sc24 Sc83 3.052635 1_555
Sc24 Sc76 3.052635 1_545
Sc25 Sc84 3.035011 1_555
Sc25 Sc75 3.035011 1_554
Sc25 Sc89 3.052635 1_555
Sc25 Sc78 3.052635 1_554
Sc25 Sc3 3.134470 1_655
Sc26 Sc89 3.035011 1_555
Sc26 Sc79 3.035011 1_545
Sc26 Sc88 3.052635 1_555
Sc26 Sc71 3.052635 1_545
Sc26 Sc7 3.134470 1_555
Sc27 Sc78 3.035011 1_555
Sc27 Sc80 3.035011 1_545
Sc27 Sc73 3.052635 1_555
Sc27 Sc82 3.052635 1_545
Sc27 Sc7 3.134470 1_556
Sc28 Sc87 3.035011 1_555
Sc28 Sc72 3.035011 1_554
Sc28 Sc90 3.052635 1_555
Sc28 Sc77 3.052635 1_554
Sc28 Sc5 3.134470 1_555
Sc29 Sc76 3.035011 1_555
Sc29 Sc82 3.035011 1_455
Sc29 Sc72 3.052635 1_555
Sc29 Sc81 3.052635 1_455
Sc29 Sc6 3.134470 1_565
Sc30 Sc83 3.035011 1_555
Sc30 Sc73 3.035011 1_455
Sc30 Sc86 3.052635 1_555
Sc30 Sc75 3.052635 1_455
Sc30 Sc6 3.134470 1_555
Sc31 Sc85 3.035011 1_555
Sc31 Sc71 3.035011 1_455
Sc31 Sc87 3.052635 1_555
Sc31 Sc74 3.052635 1_455
Sc31 Sc4 3.134470 1_565
Sc32 Sc43 3.034528 1_555
Sc32 Sc69 3.073183 1_555
Sc32 Sc84 3.073183 1_455
Sc32 Sc9 3.155589 1_555
Sc32 Sc92 3.234987 1_555
Sc32 Sc57 3.381325 1_555
Sc32 Sc62 3.381325 1_455
Sc33 Sc36 3.034528 1_555
Sc33 Sc70 3.073183 1_555
Sc33 Sc85 3.073183 1_545
Sc33 Sc93 3.234987 1_555
Sc33 Sc58 3.381325 1_555
Sc33 Sc64 3.381325 1_545
Sc34 Sc37 3.034528 1_555
Sc34 Sc68 3.073183 1_555
Sc34 Sc91 3.073183 1_554
Sc34 Sc8 3.155589 1_555
Sc34 Sc94 3.234987 1_555
Sc34 Sc56 3.381325 1_555
Sc34 Sc66 3.381325 1_554
Sc35 Sc40 3.034528 1_555
Sc35 Sc79 3.073183 1_555
Sc35 Sc80 3.073183 1_554
Sc35 Sc95 3.234987 1_555
Sc35 Sc67 3.381325 1_555
Sc35 Sc65 3.381325 1_554
Sc36 Sc83 3.073183 1_555
Sc36 Sc76 3.073183 1_545
Sc36 Sc96 3.234987 1_545
Sc36 Sc58 3.381325 1_555
Sc36 Sc64 3.381325 1_545
Sc37 Sc89 3.073183 1_555
Sc37 Sc78 3.073183 1_554
Sc37 Sc97 3.234987 1_554
Sc37 Sc56 3.381325 1_555
Sc37 Sc66 3.381325 1_554
Sc38 Sc39 3.034528 1_555
Sc38 Sc88 3.073183 1_555
Sc38 Sc71 3.073183 1_545
Sc38 Sc98 3.234987 1_545
Sc38 Sc61 3.381325 1_555
Sc38 Sc59 3.381325 1_545
Sc39 Sc73 3.073183 1_555
Sc39 Sc82 3.073183 1_545
Sc39 Sc99 3.234987 1_555
Sc39 Sc61 3.381325 1_555
Sc39 Sc59 3.381325 1_545
Sc40 Sc90 3.073183 1_555
Sc40 Sc77 3.073183 1_554
Sc40 Sc8 3.155589 1_555
Sc40 Sc67 3.381325 1_555
Sc40 Sc65 3.381325 1_554
Sc41 Sc42 3.034528 1_555
Sc41 Sc72 3.073183 1_555
Sc41 Sc81 3.073183 1_455
Sc41 Sc60 3.381325 1_555
Sc41 Sc63 3.381325 1_455
Sc42 Sc86 3.073183 1_555
Sc42 Sc75 3.073183 1_455
Sc42 Sc9 3.155589 1_555
Sc42 Sc60 3.381325 1_555
Sc42 Sc63 3.381325 1_455
Sc43 Sc87 3.073183 1_555
Sc43 Sc74 3.073183 1_455
Sc43 Sc57 3.381325 1_555
Sc43 Sc62 3.381325 1_455
Sc44 Sc93 3.133047 1_555
Sc44 Sc94 3.184527 1_555
Sc45 Sc94 3.133047 1_555
Sc45 Sc92 3.184527 1_555
Sc46 Sc92 3.133047 1_555
Sc46 Sc93 3.184527 1_555
Sc47 Sc98 3.184527 1_555
Sc49 Sc99 3.184527 1_555
Sc50 Sc95 3.133047 1_555
Sc51 Sc97 3.133047 1_555
Sc52 Sc96 3.184527 1_555
Sc53 Sc96 3.133047 1_555
Sc54 Sc99 3.133047 1_555
Sc54 Sc97 3.184527 1_555
Sc55 Sc98 3.133047 1_555
Sc55 Sc95 3.184527 1_555
Sc56 Sc68 3.015495 1_555
Sc56 Sc89 3.015495 1_555
Sc56 Sc7 3.211638 1_555
Sc56 Sc93 3.384024 1_555
Sc57 Sc8 3.011369 1_555
Sc57 Sc69 3.015495 1_555
Sc57 Sc87 3.015495 1_555
Sc57 Sc94 3.384024 1_555
Sc58 Sc9 3.011369 1_555
Sc58 Sc70 3.015495 1_555
Sc58 Sc83 3.015495 1_555
Sc58 Sc6 3.211638 1_555
Sc58 Sc92 3.384024 1_555
Sc59 Sc71 3.015495 1_555
Sc59 Sc82 3.015495 1_555
Sc59 Sc6 3.211638 1_665
Sc60 Sc8 3.011369 1_556
Sc60 Sc86 3.015495 1_555
Sc60 Sc72 3.015495 1_555
Sc61 Sc9 3.011369 1_655
Sc61 Sc88 3.015495 1_555
Sc61 Sc73 3.015495 1_555
Sc62 Sc84 3.015495 1_555
Sc62 Sc74 3.015495 1_555
Sc62 Sc95 3.384024 1_555
Sc63 Sc75 3.015495 1_555
Sc63 Sc81 3.015495 1_555
Sc63 Sc97 3.384024 1_555
Sc64 Sc85 3.015495 1_555
Sc64 Sc76 3.015495 1_555
Sc65 Sc77 3.015495 1_555
Sc65 Sc80 3.015495 1_555
Sc65 Sc7 3.211638 1_566
Sc65 Sc96 3.384024 1_555
Sc66 Sc91 3.015495 1_555
Sc66 Sc78 3.015495 1_555
Sc66 Sc7 3.211638 1_556
Sc66 Sc99 3.384024 1_555
Sc67 Sc90 3.015495 1_555
Sc67 Sc79 3.015495 1_555
Sc67 Sc7 3.211638 1_565
Sc67 Sc98 3.384024 1_555
Sc68 Sc93 3.128385 1_555
Sc68 Sc69 3.184914 1_555
Sc68 Sc70 3.184914 1_555
Sc68 Sc94 3.206555 1_555
Sc68 Sc91 3.233351 1_554
Sc69 Sc94 3.128385 1_555
Sc69 Sc70 3.184914 1_555
Sc69 Sc92 3.206555 1_555
Sc69 Sc84 3.233351 1_455
Sc70 Sc92 3.128385 1_555
Sc70 Sc93 3.206555 1_555
Sc70 Sc85 3.233351 1_545
Sc71 Sc74 3.184914 1_555
Sc71 Sc79 3.184914 1_555
Sc71 Sc98 3.206555 1_555
Sc71 Sc88 3.233351 1_565
Sc72 Sc76 3.184914 1_555
Sc72 Sc77 3.184914 1_555
Sc72 Sc81 3.233351 1_455
Sc73 Sc78 3.184914 1_555
Sc73 Sc75 3.184914 1_555
Sc73 Sc99 3.206555 1_555
Sc73 Sc82 3.233351 1_545
Sc74 Sc95 3.128385 1_555
Sc74 Sc79 3.184914 1_555
Sc74 Sc87 3.233351 1_655
Sc75 Sc97 3.128385 1_555
Sc75 Sc78 3.184914 1_555
Sc75 Sc86 3.233351 1_655
Sc76 Sc77 3.184914 1_555
Sc76 Sc96 3.206555 1_555
Sc76 Sc83 3.233351 1_565
Sc77 Sc96 3.128385 1_555
Sc77 Sc90 3.233351 1_556
Sc78 Sc99 3.128385 1_555
Sc78 Sc97 3.206555 1_555
Sc78 Sc89 3.233351 1_556
Sc79 Sc98 3.128385 1_555
Sc79 Sc95 3.206555 1_555
Sc79 Sc80 3.233351 1_554
Sc80 Sc82 3.184914 1_555
Sc80 Sc81 3.184914 1_555
Sc81 Sc82 3.184914 1_555
Sc83 Sc91 3.184914 1_555
Sc83 Sc86 3.184914 1_555
Sc84 Sc89 3.184914 1_555
Sc84 Sc88 3.184914 1_555
Sc85 Sc87 3.184914 1_555
Sc85 Sc90 3.184914 1_555
Sc86 Sc91 3.184914 1_555
Sc87 Sc90 3.184914 1_555
Sc88 Sc89 3.184914 1_555
Sc92 Sc93 3.305830 1_555
Sc92 Sc94 3.305830 1_555
Sc93 Sc94 3.305830 1_555
Sc95 Sc98 3.305830 1_555
Sc97 Sc99 3.305830 1_555
Sc100 Sc72 3.128385 1_555
Sc100 Sc48 3.133047 1_555
Sc100 Sc53 3.184527 1_555
Sc100 Sc77 3.206555 1_555
Sc100 Sc107 3.208800 1_555
Sc100 Sc40 3.234987 1_556
Sc100 Sc96 3.305830 1_555
Sc100 Sc101 3.305830 1_555
Sc100 Sc18 3.378122 1_555
Sc100 Sc60 3.384024 1_555
Sc100 Sc8 3.402788 1_556
Sc101 Sc76 3.128385 1_555
Sc101 Sc52 3.133047 1_555
Sc101 Sc48 3.184527 1_555
Sc101 Sc72 3.206555 1_555
Sc101 Sc114 3.208800 1_555
Sc101 Sc41 3.234987 1_555
Sc101 Sc96 3.305830 1_555
Sc101 Sc14 3.378122 1_555
Sc101 Sc64 3.384024 1_555
Sc101 Sc11 3.402788 1_555
Sc102 Sc73 3.128385 1_555
Sc102 Sc49 3.133047 1_555
Sc102 Sc51 3.184527 1_555
Sc102 Sc75 3.206555 1_555
Sc102 Sc113 3.208800 1_555
Sc102 Sc42 3.234987 1_655
Sc102 Sc97 3.305830 1_555
Sc102 Sc99 3.305830 1_555
Sc102 Sc19 3.378122 1_555
Sc102 Sc61 3.384024 1_555
Sc102 Sc9 3.402788 1_655
Sc103 Sc71 3.128385 1_555
Sc103 Sc47 3.133047 1_555
Sc103 Sc50 3.184527 1_555
Sc103 Sc74 3.206555 1_555
Sc103 Sc104 3.208800 1_555
Sc103 Sc43 3.234987 1_655
Sc103 Sc98 3.305830 1_555
Sc103 Sc95 3.305830 1_555
Sc103 Sc19 3.378122 1_555
Sc103 Sc59 3.384024 1_555
Sc103 Sc11 3.402788 1_655
Sc104 Sc82 3.128385 1_555
Sc104 Sc47 3.133047 1_555
Sc104 Sc51 3.184527 1_555
Sc104 Sc81 3.206555 1_555
Sc104 Sc41 3.234987 1_655
Sc104 Sc106 3.305830 1_555
Sc104 Sc105 3.305830 1_555
Sc104 Sc19 3.378122 1_555
Sc104 Sc59 3.384024 1_555
Sc104 Sc11 3.402788 1_655
Sc105 Sc80 3.128385 1_555
Sc105 Sc53 3.133047 1_555
Sc105 Sc47 3.184527 1_555
Sc105 Sc82 3.206555 1_555
Sc105 Sc96 3.208800 1_555
Sc105 Sc39 3.234987 1_565
Sc105 Sc106 3.305830 1_555
Sc105 Sc17 3.378122 1_555
Sc105 Sc65 3.384024 1_555
Sc105 Sc12 3.402788 1_565
Sc106 Sc81 3.128385 1_555
Sc106 Sc51 3.133047 1_555
Sc106 Sc53 3.184527 1_555
Sc106 Sc80 3.206555 1_555
Sc106 Sc97 3.208800 1_555
Sc106 Sc35 3.234987 1_556
Sc106 Sc18 3.378122 1_555
Sc106 Sc63 3.384024 1_555
Sc106 Sc13 3.402788 1_556
Sc107 Sc86 3.128385 1_555
Sc107 Sc48 3.133047 1_555
Sc107 Sc54 3.184527 1_555
Sc107 Sc91 3.206555 1_555
Sc107 Sc34 3.234987 1_556
Sc107 Sc115 3.305830 1_555
Sc107 Sc110 3.305830 1_555
Sc107 Sc18 3.378122 1_555
Sc107 Sc60 3.384024 1_555
Sc107 Sc8 3.402788 1_556
Sc108 Sc89 3.128385 1_555
Sc108 Sc44 3.133047 1_555
Sc108 Sc49 3.184527 1_555
Sc108 Sc88 3.206555 1_555
Sc108 Sc93 3.208800 1_555
Sc108 Sc38 3.234987 1_555
Sc108 Sc113 3.305830 1_555
Sc108 Sc112 3.305830 1_555
Sc108 Sc15 3.378122 1_555
Sc108 Sc56 3.384024 1_555
Sc109 Sc87 3.128385 1_555
Sc109 Sc45 3.133047 1_555
Sc109 Sc55 3.184527 1_555
Sc109 Sc90 3.206555 1_555
Sc109 Sc94 3.208800 1_555
Sc109 Sc40 3.234987 1_555
Sc109 Sc111 3.305830 1_555
Sc109 Sc114 3.305830 1_555
Sc109 Sc16 3.378122 1_555
Sc109 Sc57 3.384024 1_555
Sc109 Sc8 3.402788 1_555
Sc110 Sc91 3.128385 1_555
Sc110 Sc54 3.133047 1_555
Sc110 Sc46 3.184527 1_555
Sc110 Sc83 3.206555 1_555
Sc110 Sc99 3.208800 1_555
Sc110 Sc36 3.234987 1_555
Sc110 Sc115 3.305830 1_555
Sc110 Sc15 3.378122 1_555
Sc110 Sc66 3.384024 1_555
Sc110 Sc12 3.402788 1_555
Sc111 Sc90 3.128385 1_555
Sc111 Sc55 3.133047 1_555
Sc111 Sc52 3.184527 1_555
Sc111 Sc85 3.206555 1_555
Sc111 Sc98 3.208800 1_555
Sc111 Sc33 3.234987 1_565
Sc111 Sc114 3.305830 1_555
Sc111 Sc17 3.378122 1_555
Sc111 Sc67 3.384024 1_555
Sc112 Sc84 3.128385 1_555
Sc112 Sc50 3.133047 1_555
Sc112 Sc44 3.184527 1_555
Sc112 Sc89 3.206555 1_555
Sc112 Sc95 3.208800 1_555
Sc112 Sc37 3.234987 1_555
Sc112 Sc113 3.305830 1_555
Sc112 Sc16 3.378122 1_555
Sc112 Sc62 3.384024 1_555
Sc112 Sc13 3.402788 1_555
Sc113 Sc88 3.128385 1_555
Sc113 Sc49 3.133047 1_555
Sc113 Sc50 3.184527 1_555
Sc113 Sc84 3.206555 1_555
Sc113 Sc32 3.234987 1_655
Sc113 Sc19 3.378122 1_555
Sc113 Sc61 3.384024 1_555
Sc113 Sc9 3.402788 1_655
Sc114 Sc85 3.128385 1_555
Sc114 Sc52 3.133047 1_555
Sc114 Sc45 3.184527 1_555
Sc114 Sc87 3.206555 1_555
Sc114 Sc43 3.234987 1_555
Sc114 Sc14 3.378122 1_555
Sc114 Sc64 3.384024 1_555
Sc115 Sc83 3.128385 1_555
Sc115 Sc46 3.133047 1_555
Sc115 Sc48 3.184527 1_555
Sc115 Sc86 3.206555 1_555
Sc115 Sc92 3.208800 1_555
Sc115 Sc42 3.234987 1_555
Sc115 Sc14 3.378122 1_555
Sc115 Sc58 3.384024 1_555
Sc115 Sc9 3.402788 1_555
Fe0 Sc20 2.394426 1_555
Fe0 Sc9 2.554768 1_555
Fe0 Sc32 2.777604 1_555
Fe0 Sc69 2.947144 1_555
Fe0 Sc84 2.947144 1_455
Fe0 Sc4 2.960332 1_555
Fe0 Sc70 2.972483 1_555
Fe0 Sc88 2.972483 1_455
Fe0 Sc92 3.374074 1_555
Fe0 Sc113 3.374074 1_455
Fe1 Sc21 2.394426 1_555
Fe1 Sc10 2.554768 1_555
Fe1 Sc33 2.777604 1_555
Fe1 Sc70 2.947144 1_555
Fe1 Sc85 2.947144 1_545
Fe1 Sc2 2.960332 1_555
Fe1 Sc68 2.972483 1_555
Fe1 Sc90 2.972483 1_545
Fe1 Sc93 3.374074 1_555
Fe1 Sc111 3.374074 1_545
Fe2 Sc22 2.394426 1_555
Fe2 Sc8 2.554768 1_555
Fe2 Sc34 2.777604 1_555
Fe2 Sc68 2.947144 1_555
Fe2 Sc91 2.947144 1_554
Fe2 Sc3 2.960332 1_555
Fe2 Sc69 2.972483 1_555
Fe2 Sc86 2.972483 1_554
Fe2 Sc94 3.374074 1_555
Fe2 Sc107 3.374074 1_554
Fe3 Sc23 2.394426 1_555
Fe3 Sc13 2.554768 1_555
Fe3 Sc35 2.777604 1_555
Fe3 Sc79 2.947144 1_555
Fe3 Sc80 2.947144 1_554
Fe3 Sc5 2.960332 1_655
Fe3 Sc74 2.972483 1_555
Fe3 Sc81 2.972483 1_554
Fe3 Sc95 3.374074 1_555
Fe3 Sc106 3.374074 1_554
Fe4 Sc24 2.394426 1_555
Fe4 Sc12 2.554768 1_555
Fe4 Sc36 2.777604 1_555
Fe4 Sc83 2.947144 1_555
Fe4 Sc76 2.947144 1_545
Fe4 Sc2 2.960332 1_556
Fe4 Sc91 2.972483 1_555
Fe4 Sc77 2.972483 1_545
Fe4 Sc110 3.374074 1_555
Fe4 Sc96 3.374074 1_545
Fe5 Sc25 2.394426 1_555
Fe5 Sc13 2.554768 1_555
Fe5 Sc37 2.777604 1_555
Fe5 Sc89 2.947144 1_555
Fe5 Sc78 2.947144 1_554
Fe5 Sc3 2.960332 1_655
Fe5 Sc84 2.972483 1_555
Fe5 Sc75 2.972483 1_554
Fe5 Sc112 3.374074 1_555
Fe5 Sc97 3.374074 1_554
Fe6 Sc26 2.394426 1_555
Fe6 Sc10 2.554768 1_555
Fe6 Sc38 2.777604 1_555
Fe6 Sc88 2.947144 1_555
Fe6 Sc71 2.947144 1_545
Fe6 Sc7 2.960332 1_555
Fe6 Sc89 2.972483 1_555
Fe6 Sc79 2.972483 1_545
Fe6 Sc108 3.374074 1_555
Fe6 Sc98 3.374074 1_545
Fe7 Sc27 2.394426 1_555
Fe7 Sc12 2.554768 1_555
Fe7 Sc39 2.777604 1_555
Fe7 Sc73 2.947144 1_555
Fe7 Sc82 2.947144 1_545
Fe7 Sc7 2.960332 1_556
Fe7 Sc78 2.972483 1_555
Fe7 Sc80 2.972483 1_545
Fe7 Sc99 3.374074 1_555
Fe7 Sc105 3.374074 1_545
Fe8 Sc28 2.394426 1_555
Fe8 Sc8 2.554768 1_555
Fe8 Sc40 2.777604 1_555
Fe8 Sc90 2.947144 1_555
Fe8 Sc77 2.947144 1_554
Fe8 Sc5 2.960332 1_555
Fe8 Sc87 2.972483 1_555
Fe8 Sc72 2.972483 1_554
Fe8 Sc109 3.374074 1_555
Fe8 Sc100 3.374074 1_554
Fe9 Sc29 2.394426 1_555
Fe9 Sc11 2.554768 1_555
Fe9 Sc41 2.777604 1_555
Fe9 Sc72 2.947144 1_555
Fe9 Sc81 2.947144 1_455
Fe9 Sc6 2.960332 1_565
Fe9 Sc76 2.972483 1_555
Fe9 Sc82 2.972483 1_455
Fe9 Sc101 3.374074 1_555
Fe9 Sc104 3.374074 1_455
Fe10 Sc30 2.394426 1_555
Fe10 Sc9 2.554768 1_555
Fe10 Sc42 2.777604 1_555
Fe10 Sc86 2.947144 1_555
Fe10 Sc75 2.947144 1_455
Fe10 Sc6 2.960332 1_555
Fe10 Sc83 2.972483 1_555
Fe10 Sc73 2.972483 1_455
Fe10 Sc115 3.374074 1_555
Fe10 Sc102 3.374074 1_455
Fe11 Sc31 2.394426 1_555
Fe11 Sc11 2.554768 1_555
Fe11 Sc43 2.777604 1_555
Fe11 Sc87 2.947144 1_555
Fe11 Sc74 2.947144 1_455
Fe11 Sc4 2.960332 1_565
Fe11 Sc85 2.972483 1_555
Fe11 Sc71 2.972483 1_455
Fe11 Sc114 3.374074 1_555
Fe11 Sc103 3.374074 1_455
Fe12 Sc44 2.371525 1_555
Fe12 Sc56 2.374819 1_555
Fe12 Sc16 2.858216 1_555
Fe12 Sc34 2.879229 1_555
Fe12 Sc37 2.879229 1_555
Fe12 Sc93 2.975695 1_555
Fe12 Sc108 2.975695 1_555
Fe12 Sc94 3.043602 1_555
Fe12 Sc112 3.043602 1_555
Fe13 Sc45 2.371525 1_555
Fe13 Sc57 2.374819 1_555
Fe13 Sc14 2.858216 1_555
Fe13 Sc32 2.879229 1_555
Fe13 Sc43 2.879229 1_555
Fe13 Sc109 2.975695 1_555
Fe13 Sc94 2.975695 1_555
Fe13 Sc114 3.043602 1_555
Fe13 Sc92 3.043602 1_555
Fe14 Sc46 2.371525 1_555
Fe14 Sc58 2.374819 1_555
Fe14 Sc15 2.858216 1_555
Fe14 Sc33 2.879229 1_555
Fe14 Sc36 2.879229 1_555
Fe14 Sc115 2.975695 1_555
Fe14 Sc92 2.975695 1_555
Fe14 Sc93 3.043602 1_555
Fe14 Sc110 3.043602 1_555
Fe15 Sc47 2.371525 1_555
Fe15 Sc59 2.374819 1_555
Fe15 Sc17 2.858216 1_555
Fe15 Sc39 2.879229 1_565
Fe15 Sc38 2.879229 1_565
Fe15 Sc104 2.975695 1_555
Fe15 Sc103 2.975695 1_555
Fe15 Sc105 3.043602 1_555
Fe15 Sc98 3.043602 1_555
Fe16 Sc48 2.371525 1_555
Fe16 Sc60 2.374819 1_555
Fe16 Sc14 2.858216 1_555
Fe16 Sc41 2.879229 1_555
Fe16 Sc42 2.879229 1_555
Fe16 Sc100 2.975695 1_555
Fe16 Sc107 2.975695 1_555
Fe16 Sc115 3.043602 1_555
Fe16 Sc101 3.043602 1_555
Fe17 Sc49 2.371525 1_555
Fe17 Sc61 2.374819 1_555
Fe17 Sc15 2.858216 1_555
Fe17 Sc38 2.879229 1_555
Fe17 Sc39 2.879229 1_555
Fe17 Sc102 2.975695 1_555
Fe17 Sc113 2.975695 1_555
Fe17 Sc108 3.043602 1_555
Fe17 Sc99 3.043602 1_555
Fe18 Sc50 2.371525 1_555
Fe18 Sc62 2.374819 1_555
Fe18 Sc19 2.858216 1_555
Fe18 Sc32 2.879229 1_655
Fe18 Sc43 2.879229 1_655
Fe18 Sc95 2.975695 1_555
Fe18 Sc112 2.975695 1_555
Fe18 Sc113 3.043602 1_555
Fe18 Sc103 3.043602 1_555
Fe19 Sc51 2.371525 1_555
Fe19 Sc63 2.374819 1_555
Fe19 Sc19 2.858216 1_555
Fe19 Sc41 2.879229 1_655
Fe19 Sc42 2.879229 1_655
Fe19 Sc106 2.975695 1_555
Fe19 Sc97 2.975695 1_555
Fe19 Sc104 3.043602 1_555
Fe19 Sc102 3.043602 1_555
Fe20 Sc52 2.371525 1_555
Fe20 Sc64 2.374819 1_555
Fe20 Sc17 2.858216 1_555
Fe20 Sc33 2.879229 1_565
Fe20 Sc36 2.879229 1_565
Fe20 Sc114 2.975695 1_555
Fe20 Sc101 2.975695 1_555
Fe20 Sc111 3.043602 1_555
Fe20 Sc96 3.043602 1_555
Fe21 Sc53 2.371525 1_555
Fe21 Sc65 2.374819 1_555
Fe21 Sc18 2.858216 1_555
Fe21 Sc40 2.879229 1_556
Fe21 Sc35 2.879229 1_556
Fe21 Sc96 2.975695 1_555
Fe21 Sc105 2.975695 1_555
Fe21 Sc100 3.043602 1_555
Fe21 Sc106 3.043602 1_555
Fe22 Sc54 2.371525 1_555
Fe22 Sc66 2.374819 1_555
Fe22 Sc18 2.858216 1_555
Fe22 Sc37 2.879229 1_556
Fe22 Sc34 2.879229 1_556
Fe22 Sc99 2.975695 1_555
Fe22 Sc110 2.975695 1_555
Fe22 Sc97 3.043602 1_555
Fe22 Sc107 3.043602 1_555
Fe23 Sc55 2.371525 1_555
Fe23 Sc67 2.374819 1_555
Fe23 Sc16 2.858216 1_555
Fe23 Sc40 2.879229 1_555
Fe23 Sc35 2.879229 1_555
Fe23 Sc98 2.975695 1_555
Fe23 Sc111 2.975695 1_555
Fe23 Sc109 3.043602 1_555
Fe23 Sc95 3.043602 1_555
