# generated using pymatgen
data_Hf3Zr8Ta9Si16
_symmetry_space_group_name_H-M   'P 1'
_cell_length_a   6.90612825
_cell_length_b   6.90443690
_cell_length_c   12.70913687
_cell_angle_alpha   90.11584480
_cell_angle_beta   89.88378528
_cell_angle_gamma   90.00238731
_symmetry_Int_Tables_number   1
_chemical_formula_structural   Hf3Zr8Ta9Si16
_chemical_formula_sum   'Hf3 Zr8 Ta9 Si16'
_cell_volume   606.00635622
_cell_formula_units_Z   1
loop_
 _symmetry_equiv_pos_site_id
 _symmetry_equiv_pos_as_xyz
  1  'x, y, z'
loop_
 _atom_site_type_symbol
 _atom_site_label
 _atom_site_symmetry_multiplicity
 _atom_site_fract_x
 _atom_site_fract_y
 _atom_site_fract_z
 _atom_site_occupancy
  Hf  Hf0  1  0.50096303  0.35044926  0.62223083  1
  Hf  Hf1  1  0.50055348  0.65000026  0.12398665  1
  Hf  Hf2  1  0.14895879  0.99988802  0.87328975  1
  Zr  Zr0  1  0.00195094  0.65672973  0.03224784  1
  Zr  Zr1  1  0.99778590  0.34246626  0.52974209  1
  Zr  Zr2  1  0.65961429  0.00049302  0.96904174  1
  Zr  Zr3  1  0.15624322  0.49835301  0.78071915  1
  Zr  Zr4  1  0.84319379  0.50181030  0.28135105  1
  Zr  Zr5  1  0.50027911  0.15957995  0.22012556  1
  Zr  Zr6  1  0.50100222  0.84040848  0.71819433  1
  Zr  Zr7  1  0.33942085  0.00018187  0.46886167  1
  Ta  Ta0  1  0.34813351  0.50732941  0.37684323  1
  Ta  Ta1  1  0.85101343  0.99751111  0.37364467  1
  Ta  Ta2  1  0.00730634  0.15223122  0.12665637  1
  Ta  Ta3  1  0.99250911  0.84893198  0.62690189  1
  Ta  Ta4  1  0.65183608  0.49201711  0.87666312  1
  Ta  Ta5  1  0.67192863  0.67377799  0.49933034  1
  Ta  Ta6  1  0.82714455  0.17046012  0.74964825  1
  Ta  Ta7  1  0.17203120  0.83129574  0.25127193  1
  Ta  Ta8  1  0.32942736  0.32676648  0.00041943  1
  Si  Si0  1  0.04530769  0.70401608  0.43655477  1
  Si  Si1  1  0.95379007  0.29860366  0.93656991  1
  Si  Si2  1  0.70173932  0.04545185  0.56244542  1
  Si  Si3  1  0.20225900  0.45353198  0.18707162  1
  Si  Si4  1  0.79823438  0.54655993  0.68613639  1
  Si  Si5  1  0.45448516  0.20011699  0.81385412  1
  Si  Si6  1  0.54791124  0.80044986  0.31469366  1
  Si  Si7  1  0.29983950  0.95467788  0.06459375  1
  Si  Si8  1  0.85787842  0.78858551  0.82199811  1
  Si  Si9  1  0.13731507  0.20977294  0.32281955  1
  Si  Si10  1  0.79751626  0.86574424  0.17883007  1
  Si  Si11  1  0.28858050  0.64143517  0.57184417  1
  Si  Si12  1  0.71067202  0.35814242  0.07216718  1
  Si  Si13  1  0.63656276  0.29330725  0.42554991  1
  Si  Si14  1  0.36383092  0.70229850  0.92709683  1
  Si  Si15  1  0.20278187  0.13662738  0.67660165  1
loop_
_geom_bond_atom_site_label_1
_geom_bond_atom_site_label_2
_geom_bond_distance
_geom_bond_site_symmetry_2
Hf0 Si11 2.570432 1_555
Hf0 Si4 2.590352 1_555
Hf0 Si15 2.625973 1_555
Hf0 Si2 2.631348 1_555
Hf0 Si5 2.668037 1_555
Hf0 Si13 2.695812 1_555
Hf1 Si12 2.567318 1_555
Hf1 Si3 2.593111 1_555
Hf1 Si10 2.629086 1_555
Hf1 Si7 2.631988 1_555
Hf1 Si6 2.655832 1_555
Hf1 Si14 2.701243 1_554
Hf2 Si8 2.568206 1_455
Hf2 Si1 2.589673 1_465
Hf2 Si14 2.627070 1_555
Hf2 Si5 2.632763 1_565
Hf2 Si7 2.666053 1_556
Hf2 Si15 2.698876 1_565
Si0 Si11 2.445507 1_555
Si0 Ta1 2.560710 1_455
Si0 Ta0 2.604513 1_555
Si0 Ta3 2.640648 1_455
Si0 Ta7 2.661420 1_555
Si0 Ta5 2.705844 1_455
Si0 Zr1 2.784270 1_455
Si0 Zr4 2.790720 1_455
Si0 Zr7 2.911250 1_565
Si1 Si12 2.437898 1_556
Si1 Ta4 2.592758 1_555
Si1 Ta2 2.647212 1_656
Si1 Ta6 2.681637 1_555
Si1 Ta8 2.726541 1_656
Si1 Zr0 2.773571 1_656
Si1 Zr3 2.789244 1_655
Si1 Zr2 2.921301 1_555
Si2 Ta3 2.560462 1_545
Si2 Ta1 2.629960 1_545
Si2 Ta6 2.674986 1_555
Si2 Ta5 2.695086 1_545
Si2 Zr7 2.789963 1_555
Si2 Zr6 2.800768 1_545
Si2 Zr1 2.925400 1_555
Si3 Si9 2.453305 1_555
Si3 Ta2 2.593735 1_555
Si3 Ta0 2.641216 1_555
Si3 Ta8 2.673547 1_555
Si3 Ta7 2.739164 1_555
Si3 Zr4 2.771711 1_455
Si3 Zr0 2.788566 1_555
Si3 Zr5 2.922155 1_555
Si4 Si8 2.436120 1_555
Si4 Ta3 2.593725 1_555
Si4 Ta4 2.649732 1_555
Si4 Ta5 2.680647 1_555
Si4 Ta6 2.728319 1_555
Si4 Zr3 2.771736 1_655
Si4 Zr1 2.795241 1_555
Si4 Zr6 2.913683 1_555
Si5 Ta4 2.560141 1_555
Si5 Ta8 2.667579 1_556
Si5 Ta6 2.705961 1_555
Si5 Zr6 2.781317 1_545
Si5 Zr2 2.796254 1_555
Si5 Zr3 2.944007 1_555
Si6 Ta0 2.573935 1_555
Si6 Ta1 2.606971 1_555
Si6 Ta5 2.649792 1_555
Si6 Ta7 2.728159 1_555
Si6 Zr5 2.777556 1_565
Si6 Zr7 2.791373 1_565
Si6 Zr4 2.929684 1_555
Si7 Ta2 2.559988 1_565
Si7 Ta7 2.670816 1_555
Si7 Ta8 2.704587 1_565
Si7 Zr2 2.781641 1_564
Si7 Zr5 2.797235 1_565
Si7 Zr0 2.938177 1_555
Si8 Ta4 2.588782 1_555
Si8 Ta3 2.679706 1_555
Si8 Zr2 2.736168 1_565
Si8 Ta6 2.802319 1_565
Si8 Zr6 2.821002 1_555
Si8 Zr3 2.920336 1_655
Si8 Zr0 2.996594 1_656
Si9 Ta1 2.544198 1_445
Si9 Ta0 2.609613 1_555
Si9 Ta2 2.680374 1_555
Si9 Zr7 2.740223 1_555
Si9 Ta7 2.775347 1_545
Si9 Zr5 2.844630 1_555
Si9 Zr4 2.911762 1_455
Si9 Zr1 2.943441 1_455
Si10 Si6 2.479369 1_555
Si10 Ta2 2.540194 1_665
Si10 Ta1 2.662512 1_555
Si10 Zr0 2.743190 1_655
Si10 Ta7 2.757630 1_655
Si10 Zr4 2.850637 1_555
Si10 Zr5 2.932037 1_565
Si10 Zr2 2.983582 1_564
Si11 Ta3 2.591009 1_455
Si11 Ta0 2.674892 1_555
Si11 Zr6 2.738532 1_555
Si11 Ta5 2.810529 1_555
Si11 Zr7 2.825369 1_565
Si11 Zr1 2.929157 1_455
Si11 Zr3 2.976396 1_555
Si12 Ta2 2.589889 1_655
Si12 Ta4 2.684507 1_554
Si12 Zr5 2.743340 1_555
Si12 Ta8 2.796353 1_555
Si12 Zr2 2.815775 1_554
Si12 Zr0 2.924690 1_655
Si12 Zr4 2.981371 1_555
Si13 Si2 2.484638 1_555
Si13 Ta0 2.558030 1_555
Si13 Ta1 2.605849 1_545
Si13 Zr4 2.732635 1_555
Si13 Ta5 2.798324 1_555
Si13 Zr1 2.846664 1_555
Si13 Zr5 2.924824 1_555
Si13 Zr7 2.934233 1_555
Si14 Si7 2.503997 1_556
Si14 Ta4 2.542874 1_555
Si14 Zr3 2.738433 1_555
Si14 Ta8 2.767030 1_556
Si14 Zr0 2.849374 1_556
Si14 Zr2 2.948801 1_565
Si14 Zr6 2.975827 1_555
Si15 Si5 2.503152 1_555
Si15 Ta3 2.540052 1_445
Si15 Zr1 2.743972 1_455
Si15 Ta6 2.763276 1_455
Si15 Zr3 2.841974 1_555
Si15 Zr6 2.951821 1_545
Si15 Zr7 2.954408 1_555
