# generated using pymatgen
data_Hf9ZrSn6P
_symmetry_space_group_name_H-M   'P 1'
_cell_length_a   5.77114837
_cell_length_b   8.45924084
_cell_length_c   8.46077922
_cell_angle_alpha   120.00626339
_cell_angle_beta   89.88429679
_cell_angle_gamma   90.05788564
_symmetry_Int_Tables_number   1
_chemical_formula_structural   Hf9ZrSn6P
_chemical_formula_sum   'Hf9 Zr1 Sn6 P1'
_cell_volume   357.68960990
_cell_formula_units_Z   1
loop_
 _symmetry_equiv_pos_site_id
 _symmetry_equiv_pos_as_xyz
  1  'x, y, z'
loop_
 _atom_site_type_symbol
 _atom_site_label
 _atom_site_symmetry_multiplicity
 _atom_site_fract_x
 _atom_site_fract_y
 _atom_site_fract_z
 _atom_site_occupancy
  Hf  Hf0  1  0.49998766  0.33351503  0.66667834  1
  Hf  Hf1  1  0.49998830  0.66648603  0.33316465  1
  Hf  Hf2  1  0.99975459  0.66680703  0.33333660  1
  Hf  Hf3  1  0.99975494  0.33319436  0.66653010  1
  Hf  Hf4  1  0.75752476  0.25036330  0.00067398  1
  Hf  Hf5  1  0.75752003  0.74963856  0.75030716  1
  Hf  Hf6  1  0.76000101  0.99999744  0.24981428  1
  Hf  Hf7  1  0.24180739  0.75028127  0.99964757  1
  Hf  Hf8  1  0.24180654  0.24972232  0.24936481  1
  Zr  Zr0  1  0.24093031  0.99998844  0.75036577  1
  Sn  Sn0  1  0.74867394  0.60534408  0.00000021  1
  Sn  Sn1  1  0.74867621  0.39464103  0.39467258  1
  Sn  Sn2  1  0.74778493  0.00001534  0.60564882  1
  Sn  Sn3  1  0.25100293  0.39586037  0.00048716  1
  Sn  Sn4  1  0.25100536  0.60413197  0.60464622  1
  Sn  Sn5  1  0.25228343  0.00001473  0.39331673  1
  P  P0  1  0.50149868  0.00000071  0.00134603  1
loop_
_geom_bond_atom_site_label_1
_geom_bond_atom_site_label_2
_geom_bond_distance
_geom_bond_site_symmetry_2
Hf0 Sn4 2.965142 1_555
Hf0 Sn1 2.966304 1_555
Hf0 Sn3 2.968977 1_556
Hf0 Sn2 2.969650 1_555
Hf0 Sn0 2.970566 1_556
Hf0 Sn5 2.971674 1_555
Hf1 Sn3 2.965298 1_555
Hf1 Sn0 2.966491 1_555
Hf1 Sn4 2.969149 1_555
Hf1 Sn2 2.969817 1_565
Hf1 Sn1 2.970769 1_555
Hf1 Sn5 2.971857 1_565
Hf2 Sn3 2.969997 1_655
Hf2 Sn1 2.975709 1_555
Hf2 Sn2 2.977785 1_565
Hf2 Sn0 2.978651 1_555
Hf2 Sn4 2.980796 1_655
Hf2 Sn5 2.981689 1_665
Hf3 Sn4 2.969856 1_655
Hf3 Sn0 2.975515 1_556
Hf3 Sn2 2.977616 1_555
Hf3 Sn1 2.978456 1_555
Hf3 Sn3 2.980606 1_656
Hf3 Sn5 2.981514 1_655
Hf4 P0 2.583471 1_555
Hf4 Sn1 2.921436 1_555
Hf4 Sn2 2.929105 1_554
Hf4 Sn0 3.006209 1_555
Hf4 Sn3 3.101684 1_655
Hf4 Sn3 3.173211 1_555
Hf5 P0 2.583463 1_566
Hf5 Sn0 2.921336 1_556
Hf5 Sn2 2.929220 1_565
Hf5 Sn1 3.006182 1_555
Hf5 Sn4 3.101698 1_655
Hf5 Sn4 3.173147 1_555
Hf6 P0 2.580261 1_565
Hf6 Sn1 2.925575 1_565
Hf6 Sn0 2.925673 1_555
Hf6 Sn2 3.011245 1_565
Hf6 Sn5 3.091824 1_665
Hf6 Sn5 3.169410 1_565
Hf7 P0 2.583036 1_566
Hf7 Sn5 2.919462 1_566
Hf7 Sn4 2.926984 1_555
Hf7 Sn3 3.002213 1_556
Hf7 Sn0 3.098260 1_456
Hf7 Sn0 3.173480 1_556
Hf8 P0 2.583034 1_555
Hf8 Sn5 2.919378 1_555
Hf8 Sn3 2.927119 1_555
Hf8 Sn4 3.002244 1_555
Hf8 Sn1 3.098241 1_455
Hf8 Sn1 3.173494 1_555
Sn2 Zr0 3.100541 1_645
Sn2 Zr0 3.168819 1_545
Sn3 Zr0 2.933954 1_544
Sn4 Zr0 2.933875 1_555
Sn5 Zr0 3.021602 1_545
P0 Zr0 2.604464 1_544
