# generated using pymatgen
data_Rb2HfZn3Sb4
_symmetry_space_group_name_H-M   'P 1'
_cell_length_a   8.48133557
_cell_length_b   8.48133426
_cell_length_c   6.25353576
_cell_angle_alpha   90.00000000
_cell_angle_beta   90.00000000
_cell_angle_gamma   136.73680361
_symmetry_Int_Tables_number   1
_chemical_formula_structural   Rb2HfZn3Sb4
_chemical_formula_sum   'Rb2 Hf1 Zn3 Sb4'
_cell_volume   308.29532903
_cell_formula_units_Z   1
loop_
 _symmetry_equiv_pos_site_id
 _symmetry_equiv_pos_as_xyz
  1  'x, y, z'
loop_
 _atom_site_type_symbol
 _atom_site_label
 _atom_site_symmetry_multiplicity
 _atom_site_fract_x
 _atom_site_fract_y
 _atom_site_fract_z
 _atom_site_occupancy
  Rb  Rb0  1  0.50000000  0.00000000  0.25357772  1
  Rb  Rb1  1  0.00000000  0.50000000  0.74642228  1
  Hf  Hf0  1  0.00000000  0.00000000  0.00000000  1
  Zn  Zn0  1  0.50000000  0.50000000  0.50000000  1
  Zn  Zn1  1  0.50000000  0.50000000  0.00000000  1
  Zn  Zn2  1  0.00000000  0.00000000  0.50000000  1
  Sb  Sb0  1  0.64234046  0.85261017  0.74799710  1
  Sb  Sb1  1  0.14738983  0.35765954  0.25200290  1
  Sb  Sb2  1  0.85261017  0.64234046  0.25200290  1
  Sb  Sb3  1  0.35765954  0.14738983  0.74799710  1
loop_
_geom_bond_atom_site_label_1
_geom_bond_atom_site_label_2
_geom_bond_distance
_geom_bond_site_symmetry_2
Rb0 Sb0 3.844172 1_545
Rb0 Sb3 3.844172 1_555
Rb0 Sb2 3.859353 1_555
Rb0 Sb1 3.859353 1_545
Rb0 Sb1 3.884849 1_655
Rb0 Sb2 3.884849 1_445
Rb0 Sb0 3.900530 1_544
Rb0 Sb3 3.900530 1_554
Rb1 Sb2 3.844172 1_455
Rb1 Sb1 3.844172 1_555
Rb1 Sb0 3.859354 1_555
Rb1 Sb3 3.859354 1_455
Rb1 Sb3 3.884848 1_565
Rb1 Sb0 3.884848 1_445
Rb1 Sb2 3.900530 1_456
Rb1 Sb1 3.900530 1_556
Hf0 Sb1 2.779408 1_555
Hf0 Sb2 2.779408 1_445
Hf0 Sb3 2.779408 1_554
Hf0 Sb0 2.779408 1_444
Hf0 Zn1 3.126536 1_445
Hf0 Zn1 3.126536 1_555
Hf0 Zn2 3.126768 1_555
Hf0 Zn2 3.126768 1_554
Sb0 Zn0 2.747374 1_555
Sb0 Zn1 2.761592 1_556
Sb0 Zn2 2.765282 1_665
Sb1 Zn0 2.747375 1_555
Sb1 Zn1 2.761593 1_555
Sb1 Zn2 2.765282 1_555
Sb2 Zn0 2.747375 1_555
Sb2 Zn1 2.761593 1_555
Sb2 Zn2 2.765282 1_665
Sb3 Zn0 2.747374 1_555
Sb3 Zn1 2.761592 1_556
Sb3 Zn2 2.765282 1_555
