# generated using pymatgen
data_Lu8Si12Ir3Rh
_symmetry_space_group_name_H-M   'P 1'
_cell_length_a   8.06051382
_cell_length_b   8.06051383
_cell_length_c   7.67541078
_cell_angle_alpha   90.00000000
_cell_angle_beta   90.00000000
_cell_angle_gamma   120.00000804
_symmetry_Int_Tables_number   1
_chemical_formula_structural   Lu8Si12Ir3Rh
_chemical_formula_sum   'Lu8 Si12 Ir3 Rh1'
_cell_volume   431.87461629
_cell_formula_units_Z   1
loop_
 _symmetry_equiv_pos_site_id
 _symmetry_equiv_pos_as_xyz
  1  'x, y, z'
loop_
 _atom_site_type_symbol
 _atom_site_label
 _atom_site_symmetry_multiplicity
 _atom_site_fract_x
 _atom_site_fract_y
 _atom_site_fract_z
 _atom_site_occupancy
  Lu  Lu0  1  0.00000000  0.00000000  0.24814753  1
  Lu  Lu1  1  0.00000000  0.00000000  0.75046321  1
  Lu  Lu2  1  0.51133470  0.48866530  0.25017676  1
  Lu  Lu3  1  0.51133470  0.02266940  0.25017676  1
  Lu  Lu4  1  0.97733060  0.48866530  0.25017676  1
  Lu  Lu5  1  0.48978180  0.51021820  0.74977662  1
  Lu  Lu6  1  0.48978180  0.97956360  0.74977662  1
  Lu  Lu7  1  0.02043640  0.51021820  0.74977662  1
  Si  Si0  1  0.16633675  0.83366325  0.49663261  1
  Si  Si1  1  0.16633675  0.33267351  0.49663261  1
  Si  Si2  1  0.66732649  0.83366325  0.49663261  1
  Si  Si3  1  0.83384353  0.16615647  0.50258214  1
  Si  Si4  1  0.83384353  0.66768905  0.50258214  1
  Si  Si5  1  0.33231095  0.16615647  0.50258214  1
  Si  Si6  1  0.83380477  0.16619523  0.99777145  1
  Si  Si7  1  0.83380477  0.66760954  0.99777145  1
  Si  Si8  1  0.33239046  0.16619523  0.99777145  1
  Si  Si9  1  0.16733752  0.83266248  0.00149530  1
  Si  Si10  1  0.16733752  0.33467404  0.00149530  1
  Si  Si11  1  0.66532596  0.83266248  0.00149530  1
  Ir  Ir0  1  0.33333300  0.66666700  0.46796280  1
  Ir  Ir1  1  0.66666700  0.33333300  0.53382941  1
  Ir  Ir2  1  0.66666700  0.33333300  0.96407438  1
  Rh  Rh0  1  0.33333300  0.66666700  0.04022403  1
loop_
_geom_bond_atom_site_label_1
_geom_bond_atom_site_label_2
_geom_bond_distance
_geom_bond_site_symmetry_2
Lu0 Si2 3.005065 1_445
Lu0 Si1 3.005065 1_555
Lu0 Si0 3.005065 1_545
Lu0 Si11 3.006993 1_445
Lu0 Si10 3.006993 1_555
Lu0 Si9 3.006999 1_545
Lu0 Si8 3.012776 1_554
Lu0 Si7 3.012776 1_444
Lu0 Si6 3.012776 1_454
Lu0 Si5 3.032316 1_555
Lu0 Si4 3.032316 1_445
Lu0 Si3 3.032327 1_455
Lu1 Si8 2.997811 1_555
Lu1 Si7 2.997811 1_445
Lu1 Si6 2.997811 1_455
Lu1 Si5 3.000168 1_555
Lu1 Si4 3.000168 1_445
Lu1 Si3 3.000179 1_455
Lu1 Si11 3.028271 1_446
Lu1 Si10 3.028271 1_556
Lu1 Si9 3.028276 1_546
Lu1 Si2 3.031271 1_445
Lu1 Si1 3.031271 1_555
Lu1 Si0 3.031271 1_545
Lu2 Rh0 2.961870 1_555
Lu2 Si7 2.973337 1_554
Lu2 Si8 2.973337 1_554
Lu2 Si4 2.973566 1_555
Lu2 Si5 2.973566 1_555
Lu2 Si1 3.065279 1_555
Lu2 Si2 3.065279 1_555
Lu2 Si10 3.070931 1_555
Lu2 Si11 3.070931 1_555
Lu3 Rh0 2.961864 1_545
Lu3 Si6 2.973337 1_554
Lu3 Si8 2.973337 1_554
Lu3 Si3 2.973565 1_555
Lu3 Si5 2.973576 1_555
Lu3 Si0 3.065278 1_545
Lu3 Si2 3.065279 1_545
Lu3 Si9 3.070931 1_545
Lu3 Si11 3.070937 1_545
Lu4 Rh0 2.961864 1_655
Lu4 Si6 2.973337 1_554
Lu4 Si7 2.973337 1_554
Lu4 Si3 2.973565 1_555
Lu4 Si4 2.973576 1_555
Lu4 Si0 3.065278 1_655
Lu4 Si1 3.065279 1_655
Lu4 Si9 3.070931 1_655
Lu4 Si10 3.070937 1_655
Lu5 Si10 2.968582 1_556
Lu5 Si11 2.968582 1_556
Lu5 Si1 2.981495 1_555
Lu5 Si2 2.981495 1_555
Lu5 Si4 3.063013 1_555
Lu5 Si5 3.063013 1_555
Lu5 Si7 3.066628 1_555
Lu5 Si8 3.066628 1_555
Lu5 Rh0 3.120992 1_556
Lu6 Si9 2.968582 1_556
Lu6 Si11 2.968588 1_556
Lu6 Si0 2.981495 1_555
Lu6 Si2 2.981495 1_555
Lu6 Si3 3.063013 1_565
Lu6 Si5 3.063024 1_565
Lu6 Si6 3.066628 1_565
Lu6 Si8 3.066629 1_565
Lu6 Rh0 3.120987 1_556
Lu7 Si9 2.968582 1_556
Lu7 Si10 2.968588 1_556
Lu7 Si0 2.981495 1_555
Lu7 Si1 2.981495 1_555
Lu7 Si3 3.063013 1_455
Lu7 Si4 3.063024 1_455
Lu7 Si6 3.066628 1_455
Lu7 Si7 3.066629 1_455
Lu7 Rh0 3.120987 1_556
Si0 Si4 2.321456 1_455
Si0 Si5 2.321456 1_565
Si1 Si5 2.321442 1_555
Si1 Si3 2.321455 1_455
Si2 Si4 2.321442 1_555
Si2 Si3 2.321455 1_565
Si7 Si9 2.328478 1_656
Si8 Si9 2.328478 1_546
Si10 Si8 2.328471 1_554
Si10 Si6 2.328478 1_454
Si11 Si7 2.328471 1_554
Si11 Si6 2.328478 1_564
Ir0 Si0 2.341833 1_555
Ir0 Si2 2.341840 1_555
Ir0 Si1 2.341840 1_555
Ir0 Lu4 2.995000 1_455
Ir0 Lu3 2.995000 1_565
Ir0 Lu2 2.995006 1_555
Ir0 Lu7 3.074003 1_555
Ir0 Lu6 3.074003 1_555
Ir0 Lu5 3.074008 1_555
Ir1 Si3 2.346278 1_555
Ir1 Si5 2.346299 1_555
Ir1 Si4 2.346299 1_555
Ir1 Lu7 2.974191 1_655
Ir1 Lu6 2.974191 1_545
Ir1 Lu5 2.974197 1_555
Ir1 Lu4 3.072931 1_555
Ir1 Lu3 3.072931 1_555
Ir1 Lu2 3.072936 1_555
Ir2 Si6 2.347737 1_555
Ir2 Si8 2.347744 1_555
Ir2 Si7 2.347744 1_555
Ir2 Lu7 2.967154 1_655
Ir2 Lu6 2.967154 1_545
Ir2 Lu5 2.967160 1_555
Ir2 Lu4 3.086281 1_556
Ir2 Lu3 3.086281 1_556
Ir2 Lu2 3.086286 1_556
Rh0 Si9 2.336486 1_555
Rh0 Si11 2.336499 1_555
Rh0 Si10 2.336499 1_555
