# generated using pymatgen
data_CdSeBr18
_symmetry_space_group_name_H-M   'P 1'
_cell_length_a   9.15627636
_cell_length_b   9.14298863
_cell_length_c   9.12876860
_cell_angle_alpha   86.89310296
_cell_angle_beta   86.79807005
_cell_angle_gamma   86.95791232
_symmetry_Int_Tables_number   1
_chemical_formula_structural   CdSeBr18
_chemical_formula_sum   'Cd1 Se1 Br18'
_cell_volume   760.94655663
_cell_formula_units_Z   1
loop_
 _symmetry_equiv_pos_site_id
 _symmetry_equiv_pos_as_xyz
  1  'x, y, z'
loop_
 _atom_site_type_symbol
 _atom_site_label
 _atom_site_symmetry_multiplicity
 _atom_site_fract_x
 _atom_site_fract_y
 _atom_site_fract_z
 _atom_site_occupancy
  Cd  Cd0  1  0.00000000  0.00000000  0.00000000  1
  Se  Se0  1  0.50000000  0.50000000  0.50000000  1
  Br  Br0  1  0.78440555  0.47380282  0.49931162  1
  Br  Br1  1  0.49986280  0.78547492  0.47229835  1
  Br  Br2  1  0.47330133  0.50069926  0.78559018  1
  Br  Br3  1  0.21559445  0.52619718  0.50068838  1
  Br  Br4  1  0.50013720  0.21452508  0.52770165  1
  Br  Br5  1  0.52669867  0.49930074  0.21440982  1
  Br  Br6  1  0.89658689  0.38127826  0.75202038  1
  Br  Br7  1  0.75225582  0.89790338  0.38157291  1
  Br  Br8  1  0.38105744  0.75276176  0.89808905  1
  Br  Br9  1  0.10341311  0.61872174  0.24797962  1
  Br  Br10  1  0.24774418  0.10209662  0.61842709  1
  Br  Br11  1  0.61894256  0.24723824  0.10191095  1
  Br  Br12  1  0.02964961  0.96737389  0.69763560  1
  Br  Br13  1  0.69816905  0.02879679  0.96763361  1
  Br  Br14  1  0.96858581  0.69777031  0.02997764  1
  Br  Br15  1  0.97035039  0.03262611  0.30236440  1
  Br  Br16  1  0.30183095  0.97120321  0.03236639  1
  Br  Br17  1  0.03141419  0.30222969  0.97002236  1
loop_
_geom_bond_atom_site_label_1
_geom_bond_atom_site_label_2
_geom_bond_distance
_geom_bond_site_symmetry_2
Br0 Se0 2.602087 1_555
Br0 Br6 2.655845 1_555
Br1 Se0 2.608578 1_555
Br1 Br7 2.651273 1_555
Br2 Se0 2.605215 1_555
Br2 Br8 2.651850 1_555
Br3 Se0 2.602087 1_555
Br3 Br9 2.655845 1_555
Br4 Se0 2.608578 1_555
Br5 Se0 2.605215 1_555
Br10 Br12 2.455823 1_545
Br10 Br4 2.651273 1_555
Br11 Br13 2.455584 1_554
Br11 Br5 2.651850 1_555
Br12 Cd0 2.788981 1_566
Br13 Cd0 2.792834 1_656
Br14 Br9 2.455744 1_655
Br14 Cd0 2.790511 1_665
Br15 Br7 2.455823 1_545
Br15 Cd0 2.788981 1_655
Br16 Br8 2.455584 1_554
Br16 Cd0 2.792834 1_565
Br17 Br6 2.455744 1_455
Br17 Cd0 2.790511 1_556
