# generated using pymatgen
data_Cs2Cd25Pd
_symmetry_space_group_name_H-M   'P 1'
_cell_length_a   9.83368891
_cell_length_b   9.83368803
_cell_length_c   9.83368952
_cell_angle_alpha   60.00000137
_cell_angle_beta   60.00000433
_cell_angle_gamma   59.99999992
_symmetry_Int_Tables_number   1
_chemical_formula_structural   Cs2Cd25Pd
_chemical_formula_sum   'Cs2 Cd25 Pd1'
_cell_volume   672.41037278
_cell_formula_units_Z   1
loop_
 _symmetry_equiv_pos_site_id
 _symmetry_equiv_pos_as_xyz
  1  'x, y, z'
loop_
 _atom_site_type_symbol
 _atom_site_label
 _atom_site_symmetry_multiplicity
 _atom_site_fract_x
 _atom_site_fract_y
 _atom_site_fract_z
 _atom_site_occupancy
  Cs  Cs0  1  0.25000000  0.25000000  0.25000000  1
  Cs  Cs1  1  0.75000000  0.75000000  0.75000000  1
  Cd  Cd0  1  0.44434709  0.19571852  0.80428148  1
  Cd  Cd1  1  0.93800555  0.70805378  0.06199445  1
  Cd  Cd2  1  0.70805378  0.93800555  0.29194622  1
  Cd  Cd3  1  0.29194622  0.70805378  0.93800555  1
  Cd  Cd4  1  0.93800555  0.06199445  0.29194622  1
  Cd  Cd5  1  0.70805378  0.06199445  0.93800555  1
  Cd  Cd6  1  0.29194622  0.93800555  0.06199445  1
  Cd  Cd7  1  0.80428148  0.44434709  0.19571852  1
  Cd  Cd8  1  0.19571852  0.80428148  0.44434709  1
  Cd  Cd9  1  0.44434709  0.55565291  0.19571852  1
  Cd  Cd10  1  0.44434709  0.80428148  0.55565291  1
  Cd  Cd11  1  0.19571852  0.55565291  0.80428148  1
  Cd  Cd12  1  0.55565291  0.44434709  0.80428148  1
  Cd  Cd13  1  0.55565291  0.19571852  0.44434709  1
  Cd  Cd14  1  0.80428148  0.19571852  0.55565291  1
  Cd  Cd15  1  0.06199445  0.93800555  0.70805378  1
  Cd  Cd16  1  0.06199445  0.29194622  0.93800555  1
  Cd  Cd17  1  0.93800555  0.29194622  0.70805378  1
  Cd  Cd18  1  0.06199445  0.70805378  0.29194622  1
  Cd  Cd19  1  0.29194622  0.06199445  0.70805378  1
  Cd  Cd20  1  0.70805378  0.29194622  0.06199445  1
  Cd  Cd21  1  0.19571852  0.44434709  0.55565291  1
  Cd  Cd22  1  0.80428148  0.55565291  0.44434709  1
  Cd  Cd23  1  0.55565291  0.80428148  0.19571852  1
  Cd  Cd24  1  0.50000000  0.50000000  0.50000000  1
  Pd  Pd0  1  0.00000000  0.00000000  0.00000000  1
loop_
_geom_bond_atom_site_label_1
_geom_bond_atom_site_label_2
_geom_bond_distance
_geom_bond_site_symmetry_2
Cd0 Cd5 2.907570 1_555
Cd0 Cd6 2.944233 1_546
Cd0 Cd24 3.041846 1_555
Cd0 Cd19 3.082838 1_555
Cd0 Cd16 3.082838 1_555
Cd0 Cd11 3.138764 1_555
Cd0 Cd12 3.138764 1_555
Cd0 Cd14 3.138765 1_555
Cd0 Cd13 3.138765 1_555
Cd0 Cs1 4.011409 1_545
Cd0 Cs0 4.011410 1_556
Cd1 Cd7 2.907570 1_555
Cd1 Pd0 2.934922 1_665
Cd1 Cd11 2.944234 1_654
Cd1 Cd5 3.058934 1_564
Cd1 Cd18 3.058934 1_655
Cd1 Cd3 3.058934 1_654
Cd1 Cd15 3.058934 1_654
Cd1 Cd23 3.082838 1_555
Cd1 Cd22 3.082838 1_555
Cd1 Cd2 3.197925 1_555
Cd1 Cs0 4.079851 1_655
Cd1 Cs1 4.079852 1_554
Cd2 Pd0 2.934922 1_665
Cd2 Cd20 3.058934 1_565
Cd2 Cd4 3.058934 1_565
Cd2 Cd5 3.058934 1_564
Cd2 Cd22 3.082837 1_555
Cd2 Cd23 3.082838 1_555
Cd2 Cs0 4.079851 1_565
Cd2 Cs1 4.079852 1_555
Cd3 Pd0 2.934922 1_566
Cd3 Cd9 2.944233 1_556
Cd3 Cd6 3.058934 1_556
Cd3 Cs0 4.079851 1_556
Cd3 Cs1 4.079852 1_555
Cd4 Pd0 2.934922 1_655
Cd4 Cd8 2.944233 1_645
Cd4 Cd6 3.058934 1_645
Cd4 Cd7 3.082837 1_555
Cd4 Cs0 4.079851 1_655
Cd4 Cs1 4.079852 1_545
Cd5 Pd0 2.934922 1_656
Cd5 Cs1 4.079851 1_545
Cd5 Cs0 4.079852 1_556
Cd6 Pd0 2.934922 1_565
Cd6 Cd9 3.082837 1_555
Cd6 Cd8 3.082838 1_555
Cd6 Cs0 4.079851 1_565
Cd6 Cs1 4.079852 1_554
Cd7 Cd9 3.138764 1_555
Cd7 Cs0 4.011410 1_655
Cd7 Cs1 4.011410 1_554
Cd8 Cs0 4.011409 1_565
Cd8 Cs1 4.011410 1_455
Cd9 Cs0 4.011409 1_555
Cd9 Cs1 4.011410 1_554
Cd10 Cd2 2.907570 1_555
Cd10 Cd19 2.944233 1_565
Cd10 Cd24 3.041846 1_555
Cd10 Cd15 3.082838 1_555
Cd10 Cd3 3.082838 1_555
Cd10 Cd12 3.138764 1_555
Cd10 Cd22 3.138764 1_555
Cd10 Cd8 3.138764 1_555
Cd10 Cd23 3.138765 1_555
Cd10 Cs0 4.011410 1_565
Cd10 Cs1 4.011410 1_555
Cd11 Cd16 2.907570 1_555
Cd11 Cd24 3.041846 1_555
Cd11 Cd15 3.082837 1_555
Cd11 Cd3 3.082838 1_555
Cd11 Cd12 3.138764 1_555
Cd11 Cd21 3.138764 1_555
Cd11 Cd8 3.138765 1_555
Cd11 Cs1 4.011410 1_455
Cd11 Cs0 4.011410 1_556
Cd12 Cd3 2.907570 1_555
Cd12 Cd20 2.944233 1_556
Cd12 Cd24 3.041846 1_555
Cd12 Cd5 3.082837 1_555
Cd12 Cd17 3.082838 1_555
Cd12 Cd22 3.138765 1_555
Cd12 Cs1 4.011409 1_555
Cd12 Cs0 4.011410 1_556
Cd13 Cd19 2.907570 1_555
Cd13 Cd2 2.944233 1_545
Cd13 Cd24 3.041846 1_555
Cd13 Cd4 3.082838 1_555
Cd13 Cd20 3.082838 1_555
Cd13 Cd9 3.138764 1_555
Cd13 Cd21 3.138764 1_555
Cd13 Cd14 3.138764 1_555
Cd13 Cs1 4.011410 1_545
Cd13 Cs0 4.011410 1_555
Cd14 Cd4 2.907570 1_555
Cd14 Cd15 2.944233 1_645
Cd14 Cd24 3.041846 1_555
Cd14 Cd17 3.082838 1_555
Cd14 Cd5 3.082838 1_555
Cd14 Cd22 3.138764 1_555
Cd14 Cd7 3.138765 1_555
Cd14 Cs1 4.011409 1_545
Cd14 Cs0 4.011410 1_655
Cd15 Cd8 2.907570 1_555
Cd15 Pd0 2.934922 1_566
Cd15 Cd17 3.058933 1_465
Cd15 Cd19 3.058934 1_565
Cd15 Cd5 3.058934 1_465
Cd15 Cd3 3.197925 1_555
Cd15 Cs1 4.079851 1_455
Cd15 Cs0 4.079852 1_565
Cd16 Pd0 2.934922 1_556
Cd16 Cd7 2.944234 1_456
Cd16 Cd6 3.058934 1_546
Cd16 Cd17 3.058934 1_455
Cd16 Cd20 3.058934 1_456
Cd16 Cd4 3.058934 1_456
Cd16 Cd21 3.082838 1_555
Cd16 Cd19 3.197925 1_555
Cd16 Cs1 4.079851 1_455
Cd16 Cs0 4.079852 1_556
Cd17 Cd22 2.907570 1_555
Cd17 Pd0 2.934922 1_656
Cd17 Cd21 2.944233 1_655
Cd17 Cd19 3.058934 1_655
Cd17 Cd20 3.058934 1_556
Cd17 Cd5 3.197925 1_555
Cd17 Cs1 4.079851 1_555
Cd17 Cs0 4.079852 1_655
Cd18 Cd21 2.907570 1_555
Cd18 Pd0 2.934922 1_565
Cd18 Cd22 2.944233 1_455
Cd18 Cd4 3.058933 1_465
Cd18 Cd2 3.058934 1_455
Cd18 Cd3 3.058934 1_554
Cd18 Cd8 3.082838 1_555
Cd18 Cd9 3.082838 1_555
Cd18 Cd6 3.197925 1_555
Cd18 Cs0 4.079851 1_555
Cd18 Cs1 4.079852 1_455
Cd19 Pd0 2.934922 1_556
Cd19 Cd3 3.058934 1_545
Cd19 Cd6 3.058934 1_546
Cd19 Cd21 3.082837 1_555
Cd19 Cs1 4.079851 1_545
Cd19 Cs0 4.079852 1_555
Cd20 Cd9 2.907570 1_555
Cd20 Pd0 2.934922 1_655
Cd20 Cd5 3.058934 1_554
Cd20 Cd7 3.082838 1_555
Cd20 Cd4 3.197925 1_555
Cd20 Cs1 4.079851 1_554
Cd20 Cs0 4.079852 1_555
Cd21 Cd24 3.041846 1_555
Cd21 Cd8 3.138764 1_555
Cd21 Cd9 3.138765 1_555
Cd21 Cs1 4.011410 1_455
Cd21 Cs0 4.011410 1_555
Cd22 Cd24 3.041846 1_555
Cd22 Cd7 3.138764 1_555
Cd22 Cs0 4.011410 1_655
Cd22 Cs1 4.011410 1_555
Cd23 Cd6 2.907570 1_555
Cd23 Cd5 2.944233 1_564
Cd23 Cd24 3.041846 1_555
Cd23 Cd7 3.138764 1_555
Cd23 Cd9 3.138764 1_555
Cd23 Cd8 3.138765 1_555
Cd23 Cs0 4.011409 1_565
Cd23 Cs1 4.011410 1_554
Cd24 Cd8 3.041846 1_555
Cd24 Cd9 3.041846 1_555
Cd24 Cd7 3.041846 1_555
