# generated using pymatgen
data_ScZnCdNi3
_symmetry_space_group_name_H-M   'P 1'
_cell_length_a   4.94803081
_cell_length_b   4.94803135
_cell_length_c   4.85275457
_cell_angle_alpha   59.34838627
_cell_angle_beta   59.34837828
_cell_angle_gamma   60.00000948
_symmetry_Int_Tables_number   1
_chemical_formula_structural   ScZnCdNi3
_chemical_formula_sum   'Sc1 Zn1 Cd1 Ni3'
_cell_volume   83.17441950
_cell_formula_units_Z   1
loop_
 _symmetry_equiv_pos_site_id
 _symmetry_equiv_pos_as_xyz
  1  'x, y, z'
loop_
 _atom_site_type_symbol
 _atom_site_label
 _atom_site_symmetry_multiplicity
 _atom_site_fract_x
 _atom_site_fract_y
 _atom_site_fract_z
 _atom_site_occupancy
  Sc  Sc0  1  0.24619804  0.24619804  0.26140689  1
  Zn  Zn0  1  0.62614017  0.62614017  0.12157950  1
  Cd  Cd0  1  0.00026084  0.00026084  0.99921647  1
  Ni  Ni0  1  0.62597799  0.12544397  0.62259904  1
  Ni  Ni1  1  0.12544397  0.62597799  0.62259904  1
  Ni  Ni2  1  0.62597799  0.62597799  0.62259904  1
loop_
_geom_bond_atom_site_label_1
_geom_bond_atom_site_label_2
_geom_bond_distance
_geom_bond_site_symmetry_2
Sc0 Zn0 2.908926 1_555
Sc0 Zn0 2.908931 1_455
Sc0 Zn0 2.908931 1_545
Cd0 Ni0 2.831227 1_456
Cd0 Ni2 2.831228 1_446
Cd0 Ni1 2.831228 1_546
Cd0 Ni0 2.881567 1_555
Cd0 Ni0 2.881567 1_455
Cd0 Ni1 2.881568 1_545
Cd0 Ni2 2.881568 1_545
Cd0 Ni1 2.881568 1_555
Cd0 Ni2 2.881568 1_455
Cd0 Sc0 2.894267 1_555
Cd0 Zn0 2.896790 1_446
Cd0 Zn0 2.896794 1_546
Cd0 Zn0 2.896794 1_456
Cd0 Sc0 3.036253 1_456
Cd0 Sc0 3.036254 1_546
Cd0 Sc0 3.036261 1_556
Ni0 Zn0 2.422246 1_546
Ni0 Zn0 2.430510 1_555
Ni0 Ni2 2.471373 1_545
Ni0 Ni1 2.471374 1_645
Ni0 Ni2 2.476658 1_555
Ni0 Ni1 2.476658 1_555
Ni0 Sc0 2.851013 1_555
Ni0 Sc0 2.851021 1_655
Ni0 Sc0 2.885165 1_556
Ni1 Zn0 2.422246 1_456
Ni1 Zn0 2.430509 1_555
Ni1 Ni2 2.471373 1_455
Ni1 Ni2 2.476658 1_555
Ni1 Sc0 2.851013 1_555
Ni1 Sc0 2.851022 1_565
Ni1 Sc0 2.885165 1_556
Ni2 Zn0 2.422248 1_556
Ni2 Zn0 2.430507 1_555
Ni2 Sc0 2.851017 1_655
Ni2 Sc0 2.851018 1_565
Ni2 Sc0 2.885161 1_556
