# generated using pymatgen
data_CdP6(Pd10Pb)2
_symmetry_space_group_name_H-M   'P 1'
_cell_length_a   8.60512334
_cell_length_b   8.60512316
_cell_length_c   8.60512363
_cell_angle_alpha   60.00000193
_cell_angle_beta   60.00000265
_cell_angle_gamma   59.99999888
_symmetry_Int_Tables_number   1
_chemical_formula_structural   CdP6(Pd10Pb)2
_chemical_formula_sum   'Cd1 P6 Pd20 Pb2'
_cell_volume   450.56382282
_cell_formula_units_Z   1
loop_
 _symmetry_equiv_pos_site_id
 _symmetry_equiv_pos_as_xyz
  1  'x, y, z'
loop_
 _atom_site_type_symbol
 _atom_site_label
 _atom_site_symmetry_multiplicity
 _atom_site_fract_x
 _atom_site_fract_y
 _atom_site_fract_z
 _atom_site_occupancy
  Cd  Cd0  1  0.00000000  0.00000000  0.00000000  1
  P  P0  1  0.73470957  0.26529043  0.26529043  1
  P  P1  1  0.26529043  0.73470957  0.73470957  1
  P  P2  1  0.26529043  0.73470957  0.26529043  1
  P  P3  1  0.73470957  0.26529043  0.73470957  1
  P  P4  1  0.26529043  0.26529043  0.73470957  1
  P  P5  1  0.73470957  0.73470957  0.26529043  1
  Pd  Pd0  1  0.38433747  0.38433747  0.38433747  1
  Pd  Pd1  1  0.61566253  0.61566253  0.61566253  1
  Pd  Pd2  1  0.38433747  0.38433747  0.84698958  1
  Pd  Pd3  1  0.38433747  0.84698958  0.38433747  1
  Pd  Pd4  1  0.61566253  0.61566253  0.15301042  1
  Pd  Pd5  1  0.61566253  0.15301042  0.61566253  1
  Pd  Pd6  1  0.84698958  0.38433747  0.38433747  1
  Pd  Pd7  1  0.15301042  0.61566253  0.61566253  1
  Pd  Pd8  1  0.34202364  0.00000000  1.00000000  1
  Pd  Pd9  1  0.65797636  1.00000000  0.00000000  1
  Pd  Pd10  1  0.00000000  0.34202364  0.65797636  1
  Pd  Pd11  1  1.00000000  0.65797636  0.34202364  1
  Pd  Pd12  1  0.00000000  0.34202364  1.00000000  1
  Pd  Pd13  1  0.65797636  1.00000000  0.34202364  1
  Pd  Pd14  1  1.00000000  0.65797636  0.00000000  1
  Pd  Pd15  1  0.34202364  0.00000000  0.65797636  1
  Pd  Pd16  1  1.00000000  1.00000000  0.34202364  1
  Pd  Pd17  1  0.00000000  0.00000000  0.65797636  1
  Pd  Pd18  1  0.65797636  0.34202364  0.00000000  1
  Pd  Pd19  1  0.34202364  0.65797636  1.00000000  1
  Pb  Pb0  1  0.25000000  0.25000000  0.25000000  1
  Pb  Pb1  1  0.75000000  0.75000000  0.75000000  1
loop_
_geom_bond_atom_site_label_1
_geom_bond_atom_site_label_2
_geom_bond_distance
_geom_bond_site_symmetry_2
Cd0 Pd18 2.943156 1_455
Cd0 Pd19 2.943156 1_544
Cd0 Pd12 2.943156 1_554
Cd0 Pd14 2.943156 1_445
Cd0 Pd8 2.943156 1_554
Cd0 Pd9 2.943156 1_445
Cd0 Pd16 2.943156 1_445
Cd0 Pd17 2.943156 1_554
Cd0 Pd11 2.943156 1_445
Cd0 Pd10 2.943156 1_554
Cd0 Pd15 2.943156 1_554
Cd0 Pd13 2.943156 1_445
P0 Pd16 2.376432 1_545
P0 Pd13 2.376432 1_545
P0 Pd18 2.376432 1_555
P0 Pd12 2.376432 1_654
P0 Pd4 2.461963 1_555
P0 Pd5 2.461963 1_555
P0 Pd0 2.461963 1_555
P0 Pd6 2.461977 1_555
P1 Pd17 2.376432 1_565
P1 Pd15 2.376432 1_565
P1 Pd19 2.376432 1_555
P1 Pd14 2.376432 1_456
P1 Pd2 2.461963 1_555
P1 Pd3 2.461963 1_555
P1 Pd1 2.461963 1_555
P1 Pd7 2.461977 1_555
P2 Pd16 2.376432 1_455
P2 Pd11 2.376432 1_455
P2 Pd19 2.376432 1_554
P2 Pd8 2.376432 1_564
P2 Pd4 2.461963 1_555
P2 Pd0 2.461963 1_555
P2 Pd7 2.461963 1_555
P2 Pd3 2.461977 1_555
P3 Pd17 2.376432 1_655
P3 Pd10 2.376432 1_655
P3 Pd18 2.376432 1_556
P3 Pd9 2.376432 1_546
P3 Pd2 2.461963 1_555
P3 Pd1 2.461963 1_555
P3 Pd6 2.461963 1_555
P3 Pd5 2.461977 1_555
P4 Pd15 2.376432 1_555
P4 Pd10 2.376432 1_555
P4 Pd8 2.376432 1_555
P4 Pd12 2.376432 1_555
P4 Pd7 2.461963 1_555
P4 Pd5 2.461963 1_555
P4 Pd0 2.461963 1_555
P4 Pd2 2.461977 1_555
P5 Pd13 2.376432 1_555
P5 Pd11 2.376432 1_555
P5 Pd9 2.376432 1_555
P5 Pd14 2.376432 1_555
P5 Pd6 2.461963 1_555
P5 Pd3 2.461963 1_555
P5 Pd1 2.461963 1_555
P5 Pd4 2.461977 1_555
Pd0 Pd13 3.028935 1_545
Pd0 Pd11 3.028935 1_455
Pd0 Pd15 3.028935 1_555
Pd0 Pd10 3.028935 1_555
Pd0 Pd19 3.028935 1_554
Pd0 Pd18 3.028935 1_555
Pd1 Pd15 3.028935 1_565
Pd1 Pd10 3.028935 1_655
Pd1 Pd13 3.028935 1_555
Pd1 Pd11 3.028935 1_555
Pd1 Pd18 3.028935 1_556
Pd1 Pd19 3.028935 1_555
Pd2 Pd9 3.028930 1_546
Pd2 Pd8 3.028938 1_555
Pd3 Pd9 3.028930 1_555
Pd3 Pd8 3.028938 1_564
Pd4 Pd8 3.028930 1_564
Pd4 Pd9 3.028938 1_555
Pd5 Pd8 3.028930 1_555
Pd5 Pd9 3.028938 1_546
Pd8 Pd9 2.718812 1_546
Pd10 Pd11 2.718812 1_455
Pd10 Pd15 2.943156 1_555
Pd10 Pd17 2.943156 1_555
Pd10 Pd12 2.943156 1_555
Pd10 Pd18 2.943156 1_456
Pd10 Pd7 3.028922 1_555
Pd10 Pd6 3.028922 1_455
Pd11 Pd13 2.943156 1_555
Pd11 Pd16 2.943156 1_555
Pd11 Pd14 2.943156 1_555
Pd11 Pd19 2.943156 1_654
Pd11 Pd6 3.028922 1_555
Pd11 Pd7 3.028922 1_655
Pd12 Pd14 2.718812 1_456
Pd12 Pd8 2.943156 1_555
Pd12 Pd18 2.943156 1_456
Pd12 Pd16 2.943156 1_446
Pd12 Pd4 3.028930 1_456
Pd12 Pd7 3.028930 1_555
Pd12 Pd2 3.028938 1_555
Pd12 Pd6 3.028938 1_456
Pd13 Pd15 2.718812 1_565
Pd13 Pd16 2.943156 1_555
Pd13 Pd9 2.943156 1_555
Pd13 Pd18 2.943156 1_565
Pd13 Pd3 3.028922 1_555
Pd13 Pd5 3.028922 1_565
Pd14 Pd9 2.943156 1_555
Pd14 Pd19 2.943156 1_654
Pd14 Pd17 2.943156 1_664
Pd14 Pd2 3.028930 1_654
Pd14 Pd6 3.028930 1_555
Pd14 Pd4 3.028938 1_555
Pd14 Pd7 3.028938 1_654
Pd15 Pd17 2.943156 1_555
Pd15 Pd8 2.943156 1_555
Pd15 Pd19 2.943156 1_545
Pd15 Pd5 3.028922 1_555
Pd15 Pd3 3.028922 1_545
Pd16 Pd17 2.718812 1_665
Pd16 Pd8 2.943156 1_664
Pd16 Pd7 3.028930 1_655
Pd16 Pd5 3.028930 1_565
Pd16 Pd6 3.028938 1_565
Pd16 Pd3 3.028938 1_655
Pd17 Pd9 2.943156 1_446
Pd17 Pd6 3.028930 1_455
Pd17 Pd3 3.028930 1_545
Pd17 Pd7 3.028938 1_545
Pd17 Pd5 3.028938 1_455
Pd18 Pd19 2.718812 1_554
Pd18 Pd9 2.943156 1_545
Pd18 Pd4 3.028922 1_555
Pd18 Pd2 3.028922 1_554
Pd19 Pd8 2.943156 1_565
Pd19 Pd2 3.028922 1_555
Pd19 Pd4 3.028922 1_556
Pb0 Pd3 2.831573 1_545
Pb0 Pd6 2.831573 1_455
Pb0 Pd2 2.831573 1_554
Pb0 Pd0 2.831587 1_555
Pb0 Pd11 3.332267 1_455
Pb0 Pd13 3.332267 1_545
Pb0 Pd14 3.332267 1_455
Pb0 Pd8 3.332267 1_554
Pb0 Pd16 3.332267 1_445
Pb0 Pd12 3.332267 1_554
Pb0 Pd9 3.332267 1_545
Pb0 Pd19 3.332267 1_554
Pb0 Pd18 3.332267 1_555
Pb0 Pd15 3.332267 1_555
Pb0 Pd10 3.332267 1_555
Pb0 Pd17 3.332267 1_555
Pb1 Pd5 2.831573 1_565
Pb1 Pd7 2.831573 1_655
Pb1 Pd4 2.831573 1_556
Pb1 Pd1 2.831587 1_555
Pb1 Pd10 3.332267 1_655
Pb1 Pd15 3.332267 1_565
Pb1 Pd12 3.332267 1_655
Pb1 Pd9 3.332267 1_556
Pb1 Pd17 3.332267 1_665
Pb1 Pd14 3.332267 1_556
Pb1 Pd8 3.332267 1_565
Pb1 Pd18 3.332267 1_556
Pb1 Pd19 3.332267 1_555
Pb1 Pd13 3.332267 1_555
Pb1 Pd11 3.332267 1_555
Pb1 Pd16 3.332267 1_555
