# generated using pymatgen
data_CsBa2Cd2Bi3
_symmetry_space_group_name_H-M   'P 1'
_cell_length_a   5.17383171
_cell_length_b   13.66502557
_cell_length_c   17.42137689
_cell_angle_alpha   90.00000000
_cell_angle_beta   90.00000000
_cell_angle_gamma   90.00000000
_symmetry_Int_Tables_number   1
_chemical_formula_structural   CsBa2Cd2Bi3
_chemical_formula_sum   'Cs4 Ba8 Cd8 Bi12'
_cell_volume   1231.70079903
_cell_formula_units_Z   4
loop_
 _symmetry_equiv_pos_site_id
 _symmetry_equiv_pos_as_xyz
  1  'x, y, z'
loop_
 _atom_site_type_symbol
 _atom_site_label
 _atom_site_symmetry_multiplicity
 _atom_site_fract_x
 _atom_site_fract_y
 _atom_site_fract_z
 _atom_site_occupancy
  Cs  Cs0  1  0.25000000  0.40928292  0.44884175  1
  Cs  Cs1  1  0.25000000  0.90928292  0.05115825  1
  Cs  Cs2  1  0.75000000  0.59071708  0.55115825  1
  Cs  Cs3  1  0.75000000  0.09071708  0.94884175  1
  Ba  Ba0  1  0.25000000  0.09669714  0.57269427  1
  Ba  Ba1  1  0.25000000  0.59669714  0.92730573  1
  Ba  Ba2  1  0.75000000  0.90330286  0.42730573  1
  Ba  Ba3  1  0.75000000  0.40330286  0.07269427  1
  Ba  Ba4  1  0.25000000  0.36502166  0.71505695  1
  Ba  Ba5  1  0.25000000  0.86502166  0.78494305  1
  Ba  Ba6  1  0.75000000  0.63497834  0.28494305  1
  Ba  Ba7  1  0.75000000  0.13497834  0.21505695  1
  Cd  Cd0  1  0.25000000  0.30238172  0.91749246  1
  Cd  Cd1  1  0.25000000  0.80238172  0.58250754  1
  Cd  Cd2  1  0.75000000  0.69761828  0.08250754  1
  Cd  Cd3  1  0.75000000  0.19761828  0.41749246  1
  Cd  Cd4  1  0.25000000  0.36900891  0.21371026  1
  Cd  Cd5  1  0.25000000  0.86900891  0.28628974  1
  Cd  Cd6  1  0.75000000  0.63099109  0.78628974  1
  Cd  Cd7  1  0.75000000  0.13099109  0.71371026  1
  Bi  Bi0  1  0.25000000  0.08357924  0.36535087  1
  Bi  Bi1  1  0.25000000  0.58357924  0.13464913  1
  Bi  Bi2  1  0.75000000  0.91642076  0.63464913  1
  Bi  Bi3  1  0.75000000  0.41642076  0.86535087  1
  Bi  Bi4  1  0.25000000  0.12854772  0.80036712  1
  Bi  Bi5  1  0.25000000  0.62854772  0.69963288  1
  Bi  Bi6  1  0.75000000  0.87145228  0.19963288  1
  Bi  Bi7  1  0.75000000  0.37145228  0.30036712  1
  Bi  Bi8  1  0.25000000  0.71948146  0.41966275  1
  Bi  Bi9  1  0.25000000  0.21948146  0.08033725  1
  Bi  Bi10  1  0.75000000  0.28051854  0.58033725  1
  Bi  Bi11  1  0.75000000  0.78051854  0.91966275  1
loop_
_geom_bond_atom_site_label_1
_geom_bond_atom_site_label_2
_geom_bond_distance
_geom_bond_site_symmetry_2
Ba0 Cd7 3.598206 1_455
Ba0 Cd7 3.598206 1_555
Ba0 Bi10 3.608272 1_555
Ba0 Bi10 3.608272 1_455
Ba0 Bi0 3.616653 1_555
Ba0 Bi2 3.731735 1_445
Ba0 Bi2 3.731735 1_545
Ba0 Cd3 3.988072 1_555
Ba0 Cd3 3.988072 1_455
Ba0 Bi4 3.990183 1_555
Ba0 Cd1 4.025460 1_545
Ba1 Cd6 3.598206 1_555
Ba1 Cd6 3.598206 1_455
Ba1 Bi11 3.608272 1_555
Ba1 Bi11 3.608272 1_455
Ba1 Bi1 3.616653 1_556
Ba1 Bi3 3.731735 1_555
Ba1 Bi3 3.731735 1_455
Ba1 Cd2 3.988072 1_556
Ba1 Cd2 3.988072 1_456
Ba1 Bi5 3.990183 1_555
Ba1 Cd0 4.025460 1_555
Ba2 Cd5 3.598206 1_555
Ba2 Cd5 3.598206 1_655
Ba2 Bi8 3.608272 1_555
Ba2 Bi8 3.608272 1_655
Ba2 Bi2 3.616653 1_555
Ba2 Bi0 3.731735 1_665
Ba2 Bi0 3.731735 1_565
Ba2 Cd1 3.988072 1_555
Ba2 Cd1 3.988072 1_655
Ba2 Bi6 3.990183 1_555
Ba2 Cd3 4.025460 1_565
Ba3 Cd4 3.598206 1_655
Ba3 Cd4 3.598206 1_555
Ba3 Bi9 3.608272 1_655
Ba3 Bi9 3.608272 1_555
Ba3 Bi3 3.616653 1_554
Ba3 Bi1 3.731735 1_555
Ba3 Bi1 3.731735 1_655
Ba3 Cd0 3.988072 1_654
Ba3 Cd0 3.988072 1_554
Ba3 Bi7 3.990183 1_555
Ba3 Cd2 4.025460 1_555
Ba4 Bi4 3.556816 1_555
Ba4 Bi5 3.611102 1_555
Ba4 Cd0 3.629097 1_555
Ba4 Bi10 3.678855 1_555
Ba4 Bi10 3.678855 1_455
Ba4 Bi3 3.747145 1_555
Ba4 Bi3 3.747145 1_455
Ba5 Bi5 3.556816 1_555
Ba5 Bi4 3.611102 1_565
Ba5 Cd1 3.629097 1_555
Ba5 Bi11 3.678855 1_555
Ba5 Bi11 3.678855 1_455
Ba5 Bi2 3.747145 1_455
Ba5 Bi2 3.747145 1_555
Ba6 Bi6 3.556816 1_555
Ba6 Bi7 3.611102 1_555
Ba6 Cd2 3.629097 1_555
Ba6 Bi8 3.678855 1_555
Ba6 Bi8 3.678855 1_655
Ba6 Bi1 3.747145 1_555
Ba6 Bi1 3.747145 1_655
Ba7 Bi7 3.556816 1_555
Ba7 Bi6 3.611102 1_545
Ba7 Cd3 3.629097 1_555
Ba7 Bi9 3.678855 1_655
Ba7 Bi9 3.678855 1_555
Ba7 Bi0 3.747145 1_655
Ba7 Bi0 3.747145 1_555
Cd0 Cs3 3.918725 1_455
Cd0 Cs3 3.918725 1_555
Cd1 Cs2 3.918725 1_455
Cd1 Cs2 3.918725 1_555
Cd2 Cs1 3.918725 1_555
Cd2 Cs1 3.918725 1_655
Cd3 Cs0 3.918725 1_555
Cd3 Cs0 3.918725 1_655
Bi0 Cd3 3.153685 1_455
Bi0 Cd3 3.153685 1_555
Bi0 Cd5 3.239501 1_545
Bi1 Cd2 3.153685 1_455
Bi1 Cd2 3.153685 1_555
Bi1 Cd4 3.239501 1_555
Bi2 Cd1 3.153685 1_655
Bi2 Cd1 3.153685 1_555
Bi2 Cd7 3.239501 1_565
Bi3 Cd0 3.153685 1_555
Bi3 Cd0 3.153685 1_655
Bi3 Cd6 3.239501 1_555
Bi4 Cd7 2.995394 1_455
Bi4 Cd7 2.995394 1_555
Bi4 Cd0 3.131505 1_555
Bi4 Cs3 3.694597 1_555
Bi4 Cs3 3.694597 1_455
Bi5 Cd6 2.995394 1_455
Bi5 Cd6 2.995394 1_555
Bi5 Cd1 3.131505 1_555
Bi5 Cs2 3.694597 1_555
Bi5 Cs2 3.694597 1_455
Bi6 Cd5 2.995394 1_655
Bi6 Cd5 2.995394 1_555
Bi6 Cd2 3.131505 1_555
Bi6 Cs1 3.694597 1_655
Bi6 Cs1 3.694597 1_555
Bi7 Cd4 2.995394 1_655
Bi7 Cd4 2.995394 1_555
Bi7 Cd3 3.131505 1_555
Bi7 Cs0 3.694597 1_555
Bi7 Cs0 3.694597 1_655
Bi8 Cd1 3.054795 1_555
Bi8 Cd5 3.094173 1_555
Bi8 Cs2 3.877645 1_555
Bi8 Cs2 3.877645 1_455
Bi8 Cs0 4.269243 1_555
Bi9 Cd0 3.054795 1_554
Bi9 Cd4 3.094173 1_555
Bi9 Cs3 3.877645 1_554
Bi9 Cs3 3.877645 1_454
Bi9 Cs1 4.269243 1_545
Bi10 Cd3 3.054795 1_555
Bi10 Cd7 3.094173 1_555
Bi10 Cs0 3.877645 1_555
Bi10 Cs0 3.877645 1_655
Bi10 Cs2 4.269243 1_555
Bi11 Cd2 3.054795 1_556
Bi11 Cd6 3.094173 1_555
Bi11 Cs1 3.877645 1_556
Bi11 Cs1 3.877645 1_656
Bi11 Cs3 4.269243 1_565
