# generated using pymatgen
data_Hf8Nb2ZnSn7
_symmetry_space_group_name_H-M   'P 1'
_cell_length_a   5.78384693
_cell_length_b   8.59061293
_cell_length_c   8.59060878
_cell_angle_alpha   120.00002764
_cell_angle_beta   90.00006343
_cell_angle_gamma   89.99988479
_symmetry_Int_Tables_number   1
_chemical_formula_structural   Hf8Nb2ZnSn7
_chemical_formula_sum   'Hf8 Nb2 Zn1 Sn7'
_cell_volume   369.65398627
_cell_formula_units_Z   1
loop_
 _symmetry_equiv_pos_site_id
 _symmetry_equiv_pos_as_xyz
  1  'x, y, z'
loop_
 _atom_site_type_symbol
 _atom_site_label
 _atom_site_symmetry_multiplicity
 _atom_site_fract_x
 _atom_site_fract_y
 _atom_site_fract_z
 _atom_site_occupancy
  Hf  Hf0  1  0.00000100  0.66666472  0.33333144  1
  Hf  Hf1  1  0.00000100  0.33333328  0.66666856  1
  Hf  Hf2  1  0.73657917  0.27496041  1.00000000  1
  Hf  Hf3  1  0.73658667  0.72504618  0.72504018  1
  Hf  Hf4  1  0.73658667  0.00000600  0.27495982  1
  Hf  Hf5  1  0.26341283  0.72504159  0.00000000  1
  Hf  Hf6  1  0.26341533  0.27494982  0.27495882  1
  Hf  Hf7  1  0.26341533  0.99999200  0.72504118  1
  Nb  Nb0  1  0.50000100  0.33333700  0.66667301  1
  Nb  Nb1  1  0.50000100  0.66666400  0.33332699  1
  Zn  Zn0  1  0.50000000  0.00000100  0.00000000  1
  Sn  Sn0  1  0.75244005  0.61255247  1.00000000  1
  Sn  Sn1  1  0.75243782  0.38745487  0.38745483  1
  Sn  Sn2  1  0.75243782  0.00000004  0.61254517  1
  Sn  Sn3  1  0.24755795  0.38744953  0.00000000  1
  Sn  Sn4  1  0.24756418  0.61254513  0.61254517  1
  Sn  Sn5  1  0.24756418  0.99999996  0.38745483  1
  Sn  Sn6  1  0.99999800  0.00000200  0.00000000  1
loop_
_geom_bond_atom_site_label_1
_geom_bond_atom_site_label_2
_geom_bond_distance
_geom_bond_site_symmetry_2
Hf0 Nb1 2.891923 1_455
Hf0 Nb1 2.891923 1_555
Hf0 Sn3 3.022380 1_555
Hf0 Sn1 3.022395 1_455
Hf0 Sn4 3.022401 1_555
Hf0 Sn0 3.022402 1_454
Hf0 Sn5 3.022410 1_555
Hf0 Sn2 3.022411 1_465
Hf1 Nb0 2.891923 1_455
Hf1 Nb0 2.891923 1_555
Hf1 Sn3 3.022380 1_556
Hf1 Sn2 3.022395 1_455
Hf1 Sn5 3.022401 1_545
Hf1 Sn0 3.022401 1_455
Hf1 Sn4 3.022410 1_555
Hf1 Sn1 3.022411 1_455
Hf2 Zn0 2.729787 1_556
Hf2 Sn6 2.810800 1_556
Hf2 Sn0 2.901573 1_555
Hf2 Sn2 2.967227 1_555
Hf2 Sn1 2.967228 1_556
Hf2 Sn3 2.988947 1_556
Hf2 Sn3 3.109400 1_656
Hf2 Nb1 3.429191 1_556
Hf2 Nb0 3.429191 1_555
Hf3 Zn0 2.729788 1_566
Hf3 Sn6 2.810775 1_566
Hf3 Sn1 2.901537 1_555
Hf3 Sn2 2.967178 1_565
Hf3 Sn0 2.967219 1_555
Hf3 Sn4 2.988981 1_555
Hf3 Sn4 3.109414 1_655
Hf3 Nb1 3.429267 1_555
Hf3 Nb0 3.429285 1_555
Hf4 Zn0 2.729788 1_555
Hf4 Sn6 2.810775 1_555
Hf4 Sn2 2.901538 1_555
Hf4 Sn1 2.967178 1_555
Hf4 Sn0 2.967218 1_544
Hf4 Sn5 2.988981 1_545
Hf4 Sn5 3.109414 1_645
Hf4 Nb0 3.429267 1_555
Hf4 Nb1 3.429285 1_545
Hf5 Zn0 2.729810 1_565
Hf5 Sn6 2.810802 1_465
Hf5 Sn3 2.901572 1_555
Hf5 Sn5 2.967222 1_555
Hf5 Sn4 2.967222 1_554
Hf5 Sn0 2.988980 1_554
Hf5 Sn0 3.109367 1_454
Hf5 Nb0 3.429219 1_554
Hf5 Nb1 3.429219 1_555
Hf6 Zn0 2.729756 1_555
Hf6 Sn6 2.810761 1_455
Hf6 Sn4 2.901559 1_555
Hf6 Sn5 2.967152 1_545
Hf6 Sn3 2.967248 1_555
Hf6 Sn1 2.988988 1_555
Hf6 Sn1 3.109421 1_455
Hf6 Nb0 3.429260 1_555
Hf6 Nb1 3.429321 1_555
Hf7 Zn0 2.729760 1_566
Hf7 Sn6 2.810765 1_466
Hf7 Sn5 2.901555 1_555
Hf7 Sn4 2.967159 1_555
Hf7 Sn3 2.967242 1_566
Hf7 Sn2 2.988987 1_565
Hf7 Sn2 3.109419 1_465
Hf7 Nb1 3.429263 1_555
Hf7 Nb0 3.429314 1_565
Nb0 Sn0 3.035840 1_555
Nb0 Sn3 3.035849 1_556
Nb0 Sn4 3.035854 1_555
Nb0 Sn2 3.035862 1_555
Nb0 Sn1 3.035886 1_555
Nb0 Sn5 3.035890 1_545
Nb1 Sn0 3.035841 1_554
Nb1 Sn3 3.035848 1_555
Nb1 Sn5 3.035854 1_555
Nb1 Sn1 3.035862 1_555
Nb1 Sn2 3.035885 1_565
Nb1 Sn4 3.035890 1_555
Sn6 Zn0 2.891912 1_555
Sn6 Zn0 2.891935 1_655
