# generated using pymatgen
data_Ti8BeVBi4
_symmetry_space_group_name_H-M   'P 1'
_cell_length_a   7.89367264
_cell_length_b   7.89367272
_cell_length_c   7.89367206
_cell_angle_alpha   95.63999131
_cell_angle_beta   95.64000428
_cell_angle_gamma   143.46031297
_symmetry_Int_Tables_number   1
_chemical_formula_structural   Ti8BeVBi4
_chemical_formula_sum   'Ti8 Be1 V1 Bi4'
_cell_volume   278.07860627
_cell_formula_units_Z   1
loop_
 _symmetry_equiv_pos_site_id
 _symmetry_equiv_pos_as_xyz
  1  'x, y, z'
loop_
 _atom_site_type_symbol
 _atom_site_label
 _atom_site_symmetry_multiplicity
 _atom_site_fract_x
 _atom_site_fract_y
 _atom_site_fract_z
 _atom_site_occupancy
  Ti  Ti0  1  0.58302158  0.69704422  0.27766359  1
  Ti  Ti1  1  0.91697842  0.19464201  0.11402364  1
  Ti  Ti2  1  0.30535799  0.58302158  0.88597636  1
  Ti  Ti3  1  0.80295578  0.91697842  0.72233641  1
  Ti  Ti4  1  0.69704422  0.41938163  0.11402364  1
  Ti  Ti5  1  0.08061837  0.80295578  0.88597636  1
  Ti  Ti6  1  0.41938163  0.30535799  0.72233641  1
  Ti  Ti7  1  0.19464201  0.08061837  0.27766359  1
  Be  Be0  1  0.25000000  0.25000000  0.00000000  1
  V  V0  1  0.75000000  0.75000000  0.00000000  1
  Bi  Bi0  1  0.35971189  0.85971189  0.21942178  1
  Bi  Bi1  1  0.14028811  0.35971189  0.50000000  1
  Bi  Bi2  1  0.64028811  0.14028811  0.78057822  1
  Bi  Bi3  1  0.85971189  0.64028811  0.50000000  1
loop_
_geom_bond_atom_site_label_1
_geom_bond_atom_site_label_2
_geom_bond_distance
_geom_bond_site_symmetry_2
Ti0 V0 2.564866 1_555
Ti0 Ti7 2.997825 1_665
Ti0 Ti1 3.012327 1_565
Ti0 Ti7 3.017393 1_555
Ti0 Ti1 3.031802 1_455
Ti0 Ti4 3.181906 1_555
Ti0 Ti2 3.181922 1_554
Ti0 Ti3 3.333181 1_555
Ti1 V0 2.564868 1_545
Ti1 Ti2 2.997827 1_544
Ti1 Ti2 3.017399 1_654
Ti1 Ti7 3.181919 1_655
Ti1 Ti3 3.181923 1_544
Ti1 Ti4 3.333188 1_555
Ti2 V0 2.564868 1_556
Ti2 Ti3 3.012327 1_555
Ti2 Ti3 3.031802 1_445
Ti2 Ti6 3.181920 1_555
Ti2 Ti5 3.333188 1_555
Ti3 V0 2.564866 1_556
Ti3 Ti6 2.997825 1_555
Ti3 Ti6 3.017393 1_665
Ti3 Ti5 3.181906 1_655
Ti4 V0 2.564863 1_555
Ti4 Ti5 2.997831 1_654
Ti4 Ti7 3.012321 1_665
Ti4 Ti5 3.017396 1_544
Ti4 Ti7 3.031796 1_555
Ti4 Ti6 3.181916 1_554
Ti5 V0 2.564863 1_456
Ti5 Ti6 3.012321 1_455
Ti5 Ti6 3.031796 1_565
Ti5 Ti7 3.181917 1_566
Ti6 V0 2.564868 1_556
Ti6 Ti7 3.333181 1_555
Ti7 V0 2.564868 1_445
Be0 V0 2.474609 1_445
Be0 V0 2.474609 1_555
Be0 Ti4 2.570592 1_555
Be0 Ti5 2.570592 1_544
Be0 Ti3 2.570595 1_444
Be0 Ti0 2.570596 1_555
Be0 Ti7 2.570599 1_555
Be0 Ti2 2.570599 1_554
Be0 Ti6 2.570599 1_554
Be0 Ti1 2.570599 1_455
Bi0 Ti7 2.925944 1_565
Bi0 Ti0 2.925951 1_555
Bi0 Ti2 3.004106 1_554
Bi0 Ti5 3.004110 1_554
Bi0 Ti1 3.081544 1_565
Bi0 Ti4 3.081558 1_455
Bi0 Ti4 3.091083 1_565
Bi0 Ti1 3.091089 1_455
Bi1 Ti1 2.925941 1_455
Bi1 Ti2 2.925941 1_555
Bi1 Ti6 3.004118 1_555
Bi1 Ti7 3.004119 1_555
Bi1 Ti3 3.081556 1_555
Bi1 Ti0 3.081556 1_445
Bi1 Ti3 3.091089 1_445
Bi1 Ti0 3.091089 1_555
Bi2 Ti6 2.925944 1_555
Bi2 Ti3 2.925951 1_545
Bi2 Ti1 3.004106 1_556
Bi2 Ti4 3.004110 1_556
Bi2 Ti2 3.081544 1_545
Bi2 Ti5 3.081559 1_655
Bi2 Ti5 3.091083 1_545
Bi2 Ti2 3.091089 1_655
Bi3 Ti5 2.925940 1_655
Bi3 Ti4 2.925940 1_555
Bi3 Ti0 3.004112 1_555
Bi3 Ti3 3.004113 1_555
Bi3 Ti7 3.081552 1_665
Bi3 Ti6 3.081552 1_555
Bi3 Ti7 3.091089 1_555
Bi3 Ti6 3.091089 1_665
