# generated using pymatgen
data_CsTa(IO3)6
_symmetry_space_group_name_H-M   'P 1'
_cell_length_a   7.72730622
_cell_length_b   7.72730569
_cell_length_c   7.72730689
_cell_angle_alpha   97.83073940
_cell_angle_beta   97.83073521
_cell_angle_gamma   97.83073497
_symmetry_Int_Tables_number   1
_chemical_formula_structural   CsTa(IO3)6
_chemical_formula_sum   'Cs1 Ta1 I6 O18'
_cell_volume   447.17282818
_cell_formula_units_Z   1
loop_
 _symmetry_equiv_pos_site_id
 _symmetry_equiv_pos_as_xyz
  1  'x, y, z'
loop_
 _atom_site_type_symbol
 _atom_site_label
 _atom_site_symmetry_multiplicity
 _atom_site_fract_x
 _atom_site_fract_y
 _atom_site_fract_z
 _atom_site_occupancy
  Cs  Cs0  1  0.63916338  0.63916338  0.63916338  1
  Ta  Ta0  1  0.00396470  0.00396470  0.00396470  1
  I  I0  1  0.61788532  0.84753323  0.20103752  1
  I  I1  1  0.20103752  0.61788532  0.84753323  1
  I  I2  1  0.84753323  0.20103752  0.61788532  1
  I  I3  1  0.38012878  0.15356443  0.79054529  1
  I  I4  1  0.79054529  0.38012878  0.15356443  1
  I  I5  1  0.15356443  0.79054529  0.38012878  1
  O  O0  1  0.77964131  0.85998917  0.04087640  1
  O  O1  1  0.04087640  0.77964131  0.85998917  1
  O  O2  1  0.85998917  0.04087640  0.77964131  1
  O  O3  1  0.21759506  0.13679295  0.95131241  1
  O  O4  1  0.95131241  0.21759506  0.13679295  1
  O  O5  1  0.13679295  0.95131241  0.21759506  1
  O  O6  1  0.59090152  0.61173065  0.18651303  1
  O  O7  1  0.18651303  0.59090152  0.61173065  1
  O  O8  1  0.61173065  0.18651303  0.59090152  1
  O  O9  1  0.40990122  0.38989510  0.81717788  1
  O  O10  1  0.81717788  0.40990122  0.38989510  1
  O  O11  1  0.38989510  0.81717788  0.40990122  1
  O  O12  1  0.78655876  0.90716739  0.39567014  1
  O  O13  1  0.39567014  0.78655876  0.90716739  1
  O  O14  1  0.90716739  0.39567014  0.78655876  1
  O  O15  1  0.20931382  0.09481484  0.59988571  1
  O  O16  1  0.59988571  0.20931382  0.09481484  1
  O  O17  1  0.09481484  0.59988571  0.20931382  1
loop_
_geom_bond_atom_site_label_1
_geom_bond_atom_site_label_2
_geom_bond_distance
_geom_bond_site_symmetry_2
Cs0 O10 3.032661 1_555
Cs0 O9 3.032661 1_555
Cs0 O11 3.032661 1_555
Cs0 O14 3.182658 1_555
Cs0 O13 3.182658 1_555
Cs0 O12 3.182658 1_555
Cs0 O2 3.295390 1_565
Cs0 O1 3.295390 1_655
Cs0 O0 3.295390 1_556
Cs0 O8 3.440837 1_555
Cs0 O7 3.440837 1_555
Cs0 O6 3.440837 1_555
I0 O6 1.791803 1_555
I0 O12 1.812861 1_555
I0 O0 1.877367 1_555
I0 O11 2.555189 1_555
I0 O13 2.598579 1_554
I1 O7 1.791803 1_555
I1 O13 1.812861 1_555
I1 O1 1.877367 1_555
I1 O9 2.555189 1_555
I1 O14 2.598579 1_455
I2 O8 1.791803 1_555
I2 O14 1.812861 1_555
I2 O2 1.877367 1_555
I2 O10 2.555189 1_555
I2 O12 2.598579 1_545
I3 O9 1.788991 1_555
I3 O15 1.800961 1_555
I3 O3 1.887374 1_555
I4 O10 1.788991 1_555
I4 O16 1.800961 1_555
I4 O4 1.887374 1_555
I5 O11 1.788991 1_555
I5 O17 1.800961 1_555
I5 O5 1.887374 1_555
O0 Ta0 2.004876 1_665
O1 Ta0 2.004876 1_566
O2 Ta0 2.004876 1_656
O3 Ta0 1.944028 1_556
O4 Ta0 1.944028 1_655
O5 Ta0 1.944028 1_565
