# generated using pymatgen
data_NaScCr2O8
_symmetry_space_group_name_H-M   'P 1'
_cell_length_a   5.19536995
_cell_length_b   5.19537018
_cell_length_c   6.89160766
_cell_angle_alpha   89.16476673
_cell_angle_beta   89.16476615
_cell_angle_gamma   65.41205015
_symmetry_Int_Tables_number   1
_chemical_formula_structural   NaScCr2O8
_chemical_formula_sum   'Na1 Sc1 Cr2 O8'
_cell_volume   169.12461634
_cell_formula_units_Z   1
loop_
 _symmetry_equiv_pos_site_id
 _symmetry_equiv_pos_as_xyz
  1  'x, y, z'
loop_
 _atom_site_type_symbol
 _atom_site_label
 _atom_site_symmetry_multiplicity
 _atom_site_fract_x
 _atom_site_fract_y
 _atom_site_fract_z
 _atom_site_occupancy
  Na  Na0  1  0.00000000  0.00000000  0.00000000  1
  Sc  Sc0  1  0.00000000  0.00000000  0.50000100  1
  Cr  Cr0  1  0.64254615  0.64254615  0.26094398  1
  Cr  Cr1  1  0.35745485  0.35745485  0.73905602  1
  O  O0  1  0.72929996  0.72929996  0.05501742  1
  O  O1  1  0.77896393  0.28893045  0.27974765  1
  O  O2  1  0.28893045  0.77896393  0.27974765  1
  O  O3  1  0.76677288  0.76677288  0.43719889  1
  O  O4  1  0.23322712  0.23322712  0.56280111  1
  O  O5  1  0.71106955  0.22103607  0.72025235  1
  O  O6  1  0.22103607  0.71106955  0.72025235  1
  O  O7  1  0.27070004  0.27070004  0.94498258  1
loop_
_geom_bond_atom_site_label_1
_geom_bond_atom_site_label_2
_geom_bond_distance
_geom_bond_site_symmetry_2
Na0 O0 2.390503 1_445
Na0 O7 2.390503 1_554
Na0 O1 2.423673 1_455
Na0 O6 2.423673 1_544
Na0 O2 2.423673 1_545
Na0 O5 2.423673 1_454
Cr0 O0 1.597523 1_555
Cr0 O3 1.643439 1_555
Cr0 O2 1.675249 1_555
Cr0 O1 1.675249 1_555
Cr1 O7 1.597527 1_555
Cr1 O4 1.643445 1_555
Cr1 O5 1.675244 1_555
Cr1 O6 1.675244 1_555
O1 Sc0 2.103790 1_655
O2 Sc0 2.103790 1_565
O3 Sc0 2.091928 1_665
O4 Sc0 2.091925 1_555
O5 Sc0 2.103781 1_655
O6 Sc0 2.103781 1_565
