# generated using pymatgen
data_Y10AlCd2Co
_symmetry_space_group_name_H-M   'P 1'
_cell_length_a   9.64744382
_cell_length_b   9.67704012
_cell_length_c   9.62874279
_cell_angle_alpha   90.00000000
_cell_angle_beta   90.00000000
_cell_angle_gamma   120.10152786
_symmetry_Int_Tables_number   1
_chemical_formula_structural   Y10AlCd2Co
_chemical_formula_sum   'Y20 Al2 Cd4 Co2'
_cell_volume   777.69587830
_cell_formula_units_Z   2
loop_
 _symmetry_equiv_pos_site_id
 _symmetry_equiv_pos_as_xyz
  1  'x, y, z'
loop_
 _atom_site_type_symbol
 _atom_site_label
 _atom_site_symmetry_multiplicity
 _atom_site_fract_x
 _atom_site_fract_y
 _atom_site_fract_z
 _atom_site_occupancy
  Y  Y0  1  0.00200941  0.00100470  0.50114337  1
  Y  Y1  1  0.00200941  0.00100470  0.99885663  1
  Y  Y2  1  0.54134581  0.45626192  0.25000000  1
  Y  Y3  1  0.54134581  0.08508389  0.25000000  1
  Y  Y4  1  0.91237513  0.45618856  0.25000000  1
  Y  Y5  1  0.45665912  0.54396833  0.75000000  1
  Y  Y6  1  0.45665912  0.91269078  0.75000000  1
  Y  Y7  1  0.08293760  0.54146930  0.75000000  1
  Y  Y8  1  0.20941055  0.78834112  0.43380959  1
  Y  Y9  1  0.20941055  0.42107043  0.43380959  1
  Y  Y10  1  0.58016434  0.79008217  0.43235934  1
  Y  Y11  1  0.78922275  0.21002923  0.56347293  1
  Y  Y12  1  0.78922275  0.57919251  0.56347293  1
  Y  Y13  1  0.42410270  0.21205085  0.56718708  1
  Y  Y14  1  0.78922275  0.21002923  0.93652707  1
  Y  Y15  1  0.78922275  0.57919251  0.93652707  1
  Y  Y16  1  0.42410270  0.21205085  0.93281292  1
  Y  Y17  1  0.20941055  0.78834112  0.06619041  1
  Y  Y18  1  0.20941055  0.42107043  0.06619041  1
  Y  Y19  1  0.58016434  0.79008217  0.06764066  1
  Al  Al0  1  0.88392418  0.11292668  0.25000000  1
  Al  Al1  1  0.88392418  0.77099749  0.25000000  1
  Cd  Cd0  1  0.22760005  0.11380003  0.25000000  1
  Cd  Cd1  1  0.11606758  0.88403705  0.75000000  1
  Cd  Cd2  1  0.11606758  0.23202953  0.75000000  1
  Cd  Cd3  1  0.77009058  0.88504479  0.75000000  1
  Co  Co0  1  0.33151231  0.66575765  0.25000000  1
  Co  Co1  1  0.67240288  0.33620094  0.75000000  1
loop_
_geom_bond_atom_site_label_1
_geom_bond_atom_site_label_2
_geom_bond_distance
_geom_bond_site_symmetry_2
Y0 Y8 3.576235 1_545
Y0 Y9 3.576244 1_555
Y0 Y13 3.579881 1_555
Y0 Y11 3.582032 1_455
Y0 Y12 3.582040 1_445
Y0 Y10 3.582626 1_445
Y1 Y17 3.576235 1_546
Y1 Y18 3.576244 1_556
Y1 Y16 3.579881 1_555
Y1 Y14 3.582032 1_455
Y1 Y15 3.582040 1_445
Y1 Y19 3.582626 1_446
Y2 Y9 3.522692 1_555
Y2 Y4 3.579841 1_555
Y2 Y3 3.591905 1_555
Y3 Y8 3.522689 1_545
Y3 Y4 3.579851 1_555
Y4 Y8 3.526548 1_655
Y4 Y9 3.526552 1_655
Y5 Y6 3.568142 1_555
Y5 Y7 3.593390 1_555
Y5 Y9 3.678001 1_555
Y6 Y7 3.593385 1_555
Y6 Y8 3.678001 1_555
Y7 Y9 3.679843 1_555
Y7 Y8 3.679843 1_555
Y10 Y3 3.527796 1_565
Y10 Y2 3.527796 1_555
Y10 Y6 3.687791 1_555
Y10 Y5 3.687791 1_555
Y11 Y7 3.525035 1_655
Y11 Y6 3.540993 1_545
Y11 Y4 3.654797 1_555
Y11 Y3 3.659340 1_555
Y12 Y7 3.525025 1_655
Y12 Y5 3.540997 1_555
Y12 Y4 3.654783 1_555
Y12 Y2 3.659340 1_555
Y13 Y6 3.535813 1_545
Y13 Y5 3.535822 1_555
Y13 Y3 3.675677 1_555
Y13 Y2 3.675682 1_555
Y14 Y7 3.525035 1_655
Y14 Y6 3.540993 1_545
Y14 Y4 3.654797 1_556
Y14 Y3 3.659340 1_556
Y15 Y7 3.525025 1_655
Y15 Y5 3.540997 1_555
Y15 Y4 3.654783 1_556
Y15 Y2 3.659340 1_556
Y16 Y6 3.535813 1_545
Y16 Y5 3.535822 1_555
Y16 Y3 3.675677 1_556
Y16 Y2 3.675682 1_556
Y17 Y3 3.522689 1_565
Y17 Y4 3.526548 1_455
Y17 Y6 3.678001 1_554
Y17 Y7 3.679843 1_554
Y18 Y2 3.522692 1_555
Y18 Y4 3.526552 1_455
Y18 Y5 3.678001 1_554
Y18 Y7 3.679843 1_554
Y19 Y3 3.527796 1_565
Y19 Y2 3.527796 1_555
Y19 Y6 3.687791 1_554
Y19 Y5 3.687791 1_554
Al0 Y0 3.091308 1_655
Al0 Y1 3.091308 1_654
Al0 Y3 3.178433 1_555
Al0 Y4 3.192941 1_555
Al0 Cd0 3.311363 1_655
Al0 Y11 3.418956 1_555
Al0 Y14 3.418956 1_554
Al0 Y10 3.499715 1_545
Al0 Y19 3.499715 1_545
Al0 Y9 3.534437 1_655
Al0 Y18 3.534437 1_655
Al1 Y0 3.091308 1_665
Al1 Y1 3.091308 1_664
Al1 Y2 3.178434 1_555
Al1 Y4 3.192922 1_555
Al1 Cd0 3.311363 1_665
Al1 Y12 3.418960 1_555
Al1 Y15 3.418960 1_554
Al1 Y10 3.499715 1_555
Al1 Y19 3.499715 1_555
Al1 Y8 3.534433 1_655
Al1 Y17 3.534433 1_655
Cd0 Y0 3.064774 1_555
Cd0 Y1 3.064774 1_554
Cd0 Y3 3.175328 1_555
Cd0 Y2 3.175329 1_555
Cd0 Y13 3.466624 1_555
Cd0 Y16 3.466624 1_554
Cd0 Y8 3.539495 1_545
Cd0 Y17 3.539495 1_545
Cd0 Y9 3.539504 1_555
Cd0 Y18 3.539504 1_555
Cd1 Y1 3.079449 1_565
Cd1 Y0 3.079449 1_565
Cd1 Y6 3.155901 1_555
Cd1 Y7 3.166837 1_555
Cd1 Cd3 3.342695 1_455
Cd1 Cd2 3.367537 1_565
Cd1 Y17 3.431338 1_556
Cd1 Y8 3.431338 1_555
Cd1 Y15 3.541246 1_455
Cd1 Y12 3.541246 1_455
Cd1 Y16 3.541681 1_565
Cd1 Y13 3.541681 1_565
Cd2 Y1 3.079444 1_555
Cd2 Y0 3.079444 1_555
Cd2 Y5 3.155906 1_555
Cd2 Y7 3.166856 1_555
Cd2 Cd3 3.342696 1_445
Cd2 Y18 3.431346 1_556
Cd2 Y9 3.431346 1_555
Cd2 Y14 3.541246 1_455
Cd2 Y11 3.541246 1_455
Cd2 Y16 3.541680 1_555
Cd2 Y13 3.541680 1_555
Cd3 Y1 3.080344 1_665
Cd3 Y0 3.080344 1_665
Cd3 Y5 3.166454 1_555
Cd3 Y6 3.166459 1_555
Cd3 Y19 3.444872 1_556
Cd3 Y10 3.444872 1_555
Cd3 Y15 3.545113 1_555
Cd3 Y12 3.545113 1_555
Cd3 Y14 3.545113 1_565
Cd3 Y11 3.545113 1_565
Co0 Y8 2.707180 1_555
Co0 Y17 2.707180 1_555
Co0 Y9 2.707193 1_555
Co0 Y18 2.707193 1_555
Co0 Y10 2.718492 1_555
Co0 Y19 2.718492 1_555
Co0 Y4 3.498274 1_455
Co0 Y3 3.510606 1_565
Co0 Y2 3.510630 1_555
Co1 Y14 2.714200 1_555
Co1 Y11 2.714200 1_555
Co1 Y15 2.714201 1_555
Co1 Y12 2.714201 1_555
Co1 Y16 2.719076 1_555
Co1 Y13 2.719076 1_555
Co1 Y7 3.426475 1_655
Co1 Y6 3.545712 1_545
Co1 Y5 3.545720 1_555
