# generated using pymatgen
data_Ta2V3Cr
_symmetry_space_group_name_H-M   'P 1'
_cell_length_a   4.95685990
_cell_length_b   4.95685991
_cell_length_c   4.95685999
_cell_angle_alpha   60.86738885
_cell_angle_beta   60.86738022
_cell_angle_gamma   60.86739407
_symmetry_Int_Tables_number   1
_chemical_formula_structural   Ta2V3Cr
_chemical_formula_sum   'Ta2 V3 Cr1'
_cell_volume   87.80428559
_cell_formula_units_Z   1
loop_
 _symmetry_equiv_pos_site_id
 _symmetry_equiv_pos_as_xyz
  1  'x, y, z'
loop_
 _atom_site_type_symbol
 _atom_site_label
 _atom_site_symmetry_multiplicity
 _atom_site_fract_x
 _atom_site_fract_y
 _atom_site_fract_z
 _atom_site_occupancy
  Ta  Ta0  1  0.62517802  0.62517802  0.62517802  1
  Ta  Ta1  1  0.37482198  0.37482198  0.37482198  1
  V  V0  1  0.00000000  0.50000000  0.00000000  1
  V  V1  1  0.50000000  0.00000000  0.00000000  1
  V  V2  1  0.00000000  0.00000000  0.50000000  1
  Cr  Cr0  1  0.00000000  0.00000000  0.00000000  1
loop_
_geom_bond_atom_site_label_1
_geom_bond_atom_site_label_2
_geom_bond_distance
_geom_bond_site_symmetry_2
Ta0 V2 2.899134 1_665
Ta0 V1 2.899134 1_566
Ta0 V0 2.899134 1_656
Ta0 V0 2.929848 1_556
Ta0 V0 2.929848 1_655
Ta0 V1 2.929848 1_556
Ta0 V2 2.929848 1_655
Ta0 V1 2.929848 1_565
Ta0 V2 2.929848 1_565
Ta0 Ta1 3.019688 1_555
Ta0 Ta1 3.067167 1_556
Ta0 Ta1 3.067167 1_655
Ta0 Ta1 3.067167 1_565
Ta1 V2 2.899134 1_555
Ta1 V1 2.899134 1_555
Ta1 V0 2.899134 1_555
Ta1 V0 2.929848 1_655
Ta1 V0 2.929848 1_556
Ta1 V1 2.929848 1_565
Ta1 V2 2.929848 1_565
Ta1 V1 2.929848 1_556
Ta1 V2 2.929848 1_655
V0 V2 2.510852 1_555
V0 V2 2.510852 1_564
V0 V1 2.510852 1_555
V0 V1 2.510852 1_465
V1 V2 2.510852 1_555
V1 V2 2.510852 1_654
Cr0 V1 2.478430 1_555
Cr0 V1 2.478430 1_455
Cr0 V0 2.478430 1_555
Cr0 V0 2.478430 1_545
Cr0 V2 2.478430 1_555
Cr0 V2 2.478430 1_554
Cr0 Ta1 2.942152 1_554
Cr0 Ta0 2.942152 1_445
Cr0 Ta0 2.942152 1_544
Cr0 Ta1 2.942152 1_455
Cr0 Ta1 2.942152 1_545
Cr0 Ta0 2.942152 1_454
