# generated using pymatgen
data_VMo5P2
_symmetry_space_group_name_H-M   'P 1'
_cell_length_a   7.31040773
_cell_length_b   7.31933275
_cell_length_c   7.31933367
_cell_angle_alpha   96.12981582
_cell_angle_beta   96.02501407
_cell_angle_gamma   142.12449420
_symmetry_Int_Tables_number   1
_chemical_formula_structural   VMo5P2
_chemical_formula_sum   'V2 Mo10 P4'
_cell_volume   227.29114659
_cell_formula_units_Z   2
loop_
 _symmetry_equiv_pos_site_id
 _symmetry_equiv_pos_as_xyz
  1  'x, y, z'
loop_
 _atom_site_type_symbol
 _atom_site_label
 _atom_site_symmetry_multiplicity
 _atom_site_fract_x
 _atom_site_fract_y
 _atom_site_fract_z
 _atom_site_occupancy
  V  V0  1  0.95091447  0.95289597  0.39788097  1
  V  V1  1  0.04908553  0.44696649  0.00198150  1
  Mo  Mo0  1  0.46394162  0.05697845  0.00191522  1
  Mo  Mo1  1  0.53605838  0.53797360  0.59303683  1
  Mo  Mo2  1  0.00000000  0.35489594  0.35489594  1
  Mo  Mo3  1  0.64437843  0.00099232  0.64610052  1
  Mo  Mo4  1  0.35562157  0.00172108  0.35661388  1
  Mo  Mo5  1  1.00000000  0.64436854  0.64436854  1
  Mo  Mo6  1  0.13965789  0.13972603  0.81401364  1
  Mo  Mo7  1  0.86034211  0.67435474  0.00006814  1
  Mo  Mo8  1  0.66666348  0.84956002  0.00010899  1
  Mo  Mo9  1  0.33333652  0.33344451  0.18289653  1
  P  P0  1  0.50000000  0.21043882  0.71043882  1
  P  P1  1  0.79334474  0.50621814  0.29244501  1
  P  P2  1  0.20665526  0.49910027  0.71287440  1
  P  P3  1  0.50000000  0.79036306  0.29036306  1
loop_
_geom_bond_atom_site_label_1
_geom_bond_atom_site_label_2
_geom_bond_distance
_geom_bond_site_symmetry_2
Mo0 P0 2.458652 1_554
Mo0 P1 2.462548 1_555
Mo0 V1 2.677503 1_655
Mo0 V1 2.785069 1_545
Mo0 Mo7 2.790068 1_445
Mo0 Mo8 2.837776 1_545
Mo0 Mo7 2.857584 1_555
Mo0 Mo9 3.082890 1_555
Mo0 Mo6 3.104580 1_554
Mo1 P0 2.458652 1_555
Mo1 P2 2.462552 1_555
Mo1 V0 2.677503 1_445
Mo1 V0 2.785070 1_555
Mo1 Mo6 2.790070 1_665
Mo1 Mo9 2.837776 1_555
Mo1 Mo6 2.857590 1_555
Mo1 Mo8 3.082896 1_556
Mo1 Mo7 3.104582 1_556
Mo2 P3 2.456486 1_445
Mo2 P3 2.456487 1_555
Mo2 P1 2.514498 1_455
Mo2 P2 2.514504 1_555
Mo2 V0 2.727614 1_445
Mo2 V1 2.727614 1_555
Mo2 Mo8 2.958620 1_445
Mo2 Mo9 2.958625 1_555
Mo3 P2 2.442585 1_655
Mo3 P2 2.475348 1_545
Mo3 P0 2.488058 1_555
Mo3 P3 2.503462 1_545
Mo3 V1 2.741089 1_656
Mo3 Mo6 2.940432 1_655
Mo3 Mo8 2.962883 1_546
Mo3 V0 3.226423 1_545
Mo4 P1 2.442585 1_445
Mo4 P1 2.475348 1_555
Mo4 P0 2.488059 1_555
Mo4 P3 2.503455 1_545
Mo4 V0 2.741095 1_445
Mo4 Mo7 2.940432 1_445
Mo4 Mo9 2.962883 1_555
Mo4 V1 3.226418 1_545
Mo5 P0 2.460395 1_665
Mo5 P0 2.460395 1_555
Mo5 P1 2.480924 1_555
Mo5 P2 2.480925 1_655
Mo5 Mo7 2.942509 1_556
Mo5 Mo6 2.942511 1_665
Mo5 V0 3.239845 1_555
Mo5 V1 3.239845 1_656
Mo6 P0 2.476382 1_555
Mo6 P2 2.482924 1_555
Mo6 Mo9 2.552565 1_556
Mo6 Mo7 2.867125 1_446
Mo6 V0 2.881030 1_445
Mo6 Mo8 2.887078 1_446
Mo6 V1 3.044574 1_556
Mo6 Mo8 3.078753 1_556
Mo6 Mo7 3.119793 1_556
Mo7 P0 2.476379 1_554
Mo7 P1 2.482924 1_555
Mo7 Mo8 2.552572 1_555
Mo7 V1 2.881023 1_655
Mo7 Mo9 2.887077 1_665
Mo7 V0 3.044577 1_555
Mo7 Mo9 3.078754 1_555
Mo8 P2 2.460625 1_554
Mo8 P3 2.468217 1_555
Mo8 V1 2.759771 1_665
Mo8 V1 2.843493 1_555
Mo8 Mo9 2.907828 1_665
Mo8 V0 3.024068 1_555
Mo8 Mo9 3.038053 1_555
Mo9 P1 2.460626 1_555
Mo9 P3 2.468223 1_555
Mo9 V0 2.759770 1_445
Mo9 V0 2.843494 1_555
Mo9 V1 3.024075 1_555
P0 V0 3.178903 1_445
P0 V1 3.178903 1_656
P1 V0 2.437313 1_555
P1 V1 3.181310 1_655
P2 V1 2.437306 1_556
P2 V0 3.181313 1_445
P3 V1 2.442392 1_555
P3 V0 2.442392 1_555
