# generated using pymatgen
data_Zn4Te(PN2)6
_symmetry_space_group_name_H-M   'P 1'
_cell_length_a   7.18143287
_cell_length_b   7.18143342
_cell_length_c   7.18143317
_cell_angle_alpha   109.47121444
_cell_angle_beta   109.47121601
_cell_angle_gamma   109.47122368
_symmetry_Int_Tables_number   1
_chemical_formula_structural   Zn4Te(PN2)6
_chemical_formula_sum   'Zn4 Te1 P6 N12'
_cell_volume   285.10938805
_cell_formula_units_Z   1
loop_
 _symmetry_equiv_pos_site_id
 _symmetry_equiv_pos_as_xyz
  1  'x, y, z'
loop_
 _atom_site_type_symbol
 _atom_site_label
 _atom_site_symmetry_multiplicity
 _atom_site_fract_x
 _atom_site_fract_y
 _atom_site_fract_z
 _atom_site_occupancy
  Zn  Zn0  1  1.00000000  0.36136509  1.00000000  1
  Zn  Zn1  1  0.63863491  0.63863491  0.63863491  1
  Zn  Zn2  1  0.36136509  0.00000000  1.00000000  1
  Zn  Zn3  1  1.00000000  1.00000000  0.36136509  1
  Te  Te0  1  0.00000000  0.00000000  0.00000000  1
  P  P0  1  0.75000000  0.25000000  0.50000000  1
  P  P1  1  0.25000000  0.75000000  0.50000000  1
  P  P2  1  0.50000000  0.75000000  0.25000000  1
  P  P3  1  0.50000000  0.25000000  0.75000000  1
  P  P4  1  0.75000000  0.50000000  0.25000000  1
  P  P5  1  0.25000000  0.50000000  0.75000000  1
  N  N0  1  0.56050500  0.27552689  1.00000000  1
  N  N1  1  0.43949500  0.43949500  0.71502190  1
  N  N2  1  1.00000000  0.27552689  0.56050500  1
  N  N3  1  0.27552689  1.00000000  0.56050500  1
  N  N4  1  0.71502190  0.43949500  0.43949500  1
  N  N5  1  1.00000000  0.56050500  0.27552689  1
  N  N6  1  0.56050500  1.00000000  0.27552689  1
  N  N7  1  0.43949500  0.71502190  0.43949500  1
  N  N8  1  0.27552689  0.56050500  1.00000000  1
  N  N9  1  0.72447311  0.28497810  0.72447311  1
  N  N10  1  0.72447311  0.72447311  0.28497810  1
  N  N11  1  0.28497810  0.72447311  0.72447311  1
loop_
_geom_bond_atom_site_label_1
_geom_bond_atom_site_label_2
_geom_bond_distance
_geom_bond_site_symmetry_2
Te0 Zn2 2.595119 1_554
Te0 Zn3 2.595119 1_445
Te0 Zn0 2.595119 1_454
Te0 Zn1 2.595120 1_444
N0 P3 1.628843 1_555
N0 P4 1.628843 1_556
N0 Zn2 2.018389 1_555
N1 P5 1.628843 1_555
N1 P3 1.628843 1_555
N1 Zn1 2.018389 1_555
N2 P0 1.628843 1_555
N2 P5 1.628843 1_655
N2 Zn3 2.018390 1_545
N3 P1 1.628843 1_555
N3 P3 1.628843 1_565
N3 Zn3 2.018390 1_455
N4 P4 1.628843 1_555
N4 P0 1.628843 1_555
N4 Zn1 2.018390 1_555
N5 P4 1.628843 1_555
N5 P1 1.628843 1_655
N5 Zn0 2.018390 1_554
N6 P2 1.628843 1_555
N6 P0 1.628843 1_565
N6 Zn2 2.018390 1_564
N7 P1 1.628843 1_555
N7 P2 1.628843 1_555
N7 Zn1 2.018390 1_555
N8 P5 1.628843 1_555
N8 P2 1.628843 1_556
N8 Zn0 2.018389 1_455
N9 P3 1.628843 1_555
N9 P0 1.628843 1_555
N9 Zn0 2.018390 1_555
N10 P2 1.628843 1_555
N10 P4 1.628843 1_555
N10 Zn3 2.018390 1_555
N11 P1 1.628843 1_555
N11 P5 1.628843 1_555
N11 Zn2 2.018390 1_565
