# generated using pymatgen
data_Ba2LuHO3
_symmetry_space_group_name_H-M   'P 1'
_cell_length_a   4.27871933
_cell_length_b   4.27872323
_cell_length_c   13.93540482
_cell_angle_alpha   90.00000000
_cell_angle_beta   90.00000000
_cell_angle_gamma   90.00000000
_symmetry_Int_Tables_number   1
_chemical_formula_structural   Ba2LuHO3
_chemical_formula_sum   'Ba4 Lu2 H2 O6'
_cell_volume   255.12180742
_cell_formula_units_Z   2
loop_
 _symmetry_equiv_pos_site_id
 _symmetry_equiv_pos_as_xyz
  1  'x, y, z'
loop_
 _atom_site_type_symbol
 _atom_site_label
 _atom_site_symmetry_multiplicity
 _atom_site_fract_x
 _atom_site_fract_y
 _atom_site_fract_z
 _atom_site_occupancy
  Ba  Ba0  1  0.49999900  0.00000000  0.10179022  1
  Ba  Ba1  1  0.49999900  0.00000000  0.37553281  1
  Ba  Ba2  1  0.00000000  0.49999900  0.62446719  1
  Ba  Ba3  1  0.00000000  0.49999900  0.89820978  1
  Lu  Lu0  1  0.00000000  0.49999900  0.23481101  1
  Lu  Lu1  1  0.49999900  0.00000000  0.76518899  1
  H  H0  1  0.00000000  0.49999900  0.41975006  1
  H  H1  1  0.49999900  0.00000000  0.58025094  1
  O  O0  1  0.00000000  0.49999900  0.08472451  1
  O  O1  1  0.00000000  0.00000000  0.25691111  1
  O  O2  1  0.49999900  0.49999900  0.25690811  1
  O  O3  1  0.00000000  0.00000000  0.74309189  1
  O  O4  1  0.49999900  0.49999900  0.74308889  1
  O  O5  1  0.49999900  0.00000000  0.91527549  1
loop_
_geom_bond_atom_site_label_1
_geom_bond_atom_site_label_2
_geom_bond_distance
_geom_bond_site_symmetry_2
Ba0 O5 2.599158 1_554
Ba0 O0 3.034839 1_555
Ba0 O0 3.034845 1_655
Ba0 O0 3.034845 1_545
Ba0 O0 3.034851 1_645
Ba0 O2 3.041299 1_555
Ba0 O2 3.041305 1_545
Ba0 O1 3.041327 1_555
Ba0 O1 3.041333 1_655
Ba1 O1 2.703588 1_555
Ba1 O1 2.703595 1_655
Ba1 O2 2.703615 1_555
Ba1 O2 2.703622 1_545
Ba1 H1 2.852830 1_555
Ba1 H0 3.087616 1_555
Ba1 H0 3.087622 1_655
Ba1 H0 3.087622 1_545
Ba1 H0 3.087628 1_645
Ba2 O4 2.703588 1_555
Ba2 O4 2.703595 1_455
Ba2 O3 2.703615 1_555
Ba2 O3 2.703622 1_565
Ba2 H0 2.852816 1_555
Ba2 H1 3.087614 1_555
Ba2 H1 3.087620 1_455
Ba2 H1 3.087620 1_565
Ba2 H1 3.087626 1_465
Ba3 O0 2.599158 1_556
Ba3 O5 3.034839 1_555
Ba3 O5 3.034845 1_455
Ba3 O5 3.034845 1_565
Ba3 O5 3.034851 1_465
Ba3 O3 3.041299 1_555
Ba3 O3 3.041305 1_565
Ba3 O4 3.041327 1_555
Ba3 O4 3.041333 1_455
Lu0 O0 2.091516 1_555
Lu0 O2 2.161403 1_555
Lu0 O1 2.161411 1_555
Lu0 O2 2.161412 1_455
Lu0 O1 2.161420 1_565
Lu1 O5 2.091516 1_555
Lu1 O3 2.161403 1_555
Lu1 O4 2.161411 1_555
Lu1 O3 2.161412 1_655
Lu1 O4 2.161420 1_545
H0 Lu0 2.577201 1_555
H1 Lu1 2.577187 1_555
