# generated using pymatgen
data_V2Ni3(SeS3)2
_symmetry_space_group_name_H-M   'P 1'
_cell_length_a   3.28678143
_cell_length_b   10.03800035
_cell_length_c   13.94019354
_cell_angle_alpha   90.00000000
_cell_angle_beta   90.00000000
_cell_angle_gamma   90.00000000
_symmetry_Int_Tables_number   1
_chemical_formula_structural   V2Ni3(SeS3)2
_chemical_formula_sum   'V4 Ni6 Se4 S12'
_cell_volume   459.92480687
_cell_formula_units_Z   2
loop_
 _symmetry_equiv_pos_site_id
 _symmetry_equiv_pos_as_xyz
  1  'x, y, z'
loop_
 _atom_site_type_symbol
 _atom_site_label
 _atom_site_symmetry_multiplicity
 _atom_site_fract_x
 _atom_site_fract_y
 _atom_site_fract_z
 _atom_site_occupancy
  V  V0  1  0.50000000  0.80676705  0.87569544  1
  V  V1  1  0.50000000  0.19323295  0.12430456  1
  V  V2  1  0.50000000  0.30676705  0.62430456  1
  V  V3  1  0.50000000  0.69323295  0.37569544  1
  Ni  Ni0  1  0.00000000  0.00000000  0.00000000  1
  Ni  Ni1  1  0.00000000  0.50000000  0.50000000  1
  Ni  Ni2  1  0.00000000  0.63524279  0.76878236  1
  Ni  Ni3  1  0.00000000  0.36475721  0.23121764  1
  Ni  Ni4  1  0.00000000  0.13524279  0.73121764  1
  Ni  Ni5  1  0.00000000  0.86475721  0.26878236  1
  Se  Se0  1  0.50000000  0.56129153  0.87315699  1
  Se  Se1  1  0.50000000  0.43870847  0.12684301  1
  Se  Se2  1  0.50000000  0.06129153  0.62684301  1
  Se  Se3  1  0.50000000  0.93870847  0.37315699  1
  S  S0  1  0.00000000  0.78330042  0.99681435  1
  S  S1  1  0.00000000  0.21669958  0.00318565  1
  S  S2  1  0.00000000  0.28330042  0.50318565  1
  S  S3  1  0.00000000  0.71669958  0.49681435  1
  S  S4  1  0.00000000  0.97367973  0.84484250  1
  S  S5  1  0.00000000  0.02632027  0.15515750  1
  S  S6  1  0.00000000  0.47367973  0.65515750  1
  S  S7  1  0.00000000  0.52632027  0.34484250  1
  S  S8  1  0.50000000  0.76177111  0.71514615  1
  S  S9  1  0.50000000  0.23822889  0.28485385  1
  S  S10  1  0.50000000  0.26177111  0.78485385  1
  S  S11  1  0.50000000  0.73822889  0.21514615  1
loop_
_geom_bond_atom_site_label_1
_geom_bond_atom_site_label_2
_geom_bond_distance
_geom_bond_site_symmetry_2
Ni0 S0 2.175684 1_544
Ni0 S1 2.175684 1_555
Ni0 S5 2.179002 1_555
Ni0 S4 2.179002 1_544
Ni1 S2 2.175684 1_555
Ni1 S3 2.175684 1_555
Ni1 S6 2.179002 1_555
Ni1 S7 2.179002 1_555
Ni2 S8 2.207469 1_455
Ni2 S8 2.207469 1_555
Ni2 S6 2.266946 1_555
Ni2 Se0 2.317069 1_455
Ni2 Se0 2.317069 1_555
Ni3 S9 2.207469 1_455
Ni3 S9 2.207469 1_555
Ni3 S7 2.266946 1_555
Ni3 Se1 2.317069 1_555
Ni3 Se1 2.317069 1_455
Ni4 S10 2.207469 1_455
Ni4 S10 2.207469 1_555
Ni4 S4 2.266946 1_545
Ni4 Se2 2.317069 1_455
Ni4 Se2 2.317069 1_555
Ni5 S11 2.207469 1_555
Ni5 S11 2.207469 1_455
Ni5 S5 2.266946 1_565
Ni5 Se3 2.317069 1_555
Ni5 Se3 2.317069 1_455
Se0 V0 2.464337 1_555
Se1 V1 2.464337 1_555
Se2 V2 2.464337 1_555
Se3 V3 2.464337 1_555
S0 V0 2.367908 1_555
S0 V0 2.367908 1_455
S1 V1 2.367908 1_555
S1 V1 2.367908 1_455
S2 V2 2.367908 1_555
S2 V2 2.367908 1_455
S3 V3 2.367908 1_555
S3 V3 2.367908 1_455
S4 V0 2.385983 1_555
S4 V0 2.385983 1_455
S5 V1 2.385983 1_555
S5 V1 2.385983 1_455
S6 V2 2.385983 1_455
S6 V2 2.385983 1_555
S7 V3 2.385983 1_555
S7 V3 2.385983 1_455
S8 V0 2.283209 1_555
S9 V1 2.283209 1_555
S10 V2 2.283209 1_555
S11 V3 2.283209 1_555
