# generated using pymatgen
data_Hf8Al15Ir5Rh2
_symmetry_space_group_name_H-M   'P 1'
_cell_length_a   8.80123220
_cell_length_b   8.80123028
_cell_length_c   8.80123105
_cell_angle_alpha   120.28616027
_cell_angle_beta   119.73601690
_cell_angle_gamma   89.98145696
_symmetry_Int_Tables_number   1
_chemical_formula_structural   Hf8Al15Ir5Rh2
_chemical_formula_sum   'Hf8 Al15 Ir5 Rh2'
_cell_volume   481.98102913
_cell_formula_units_Z   1
loop_
 _symmetry_equiv_pos_site_id
 _symmetry_equiv_pos_as_xyz
  1  'x, y, z'
loop_
 _atom_site_type_symbol
 _atom_site_label
 _atom_site_symmetry_multiplicity
 _atom_site_fract_x
 _atom_site_fract_y
 _atom_site_fract_z
 _atom_site_occupancy
  Hf  Hf0  1  0.80079173  0.29685677  0.08344546  1
  Hf  Hf1  1  0.21341131  0.29685677  0.49606604  1
  Hf  Hf2  1  0.19655997  0.69655997  0.50000000  1
  Hf  Hf3  1  0.21341131  0.71734527  0.91655454  1
  Hf  Hf4  1  0.80079173  0.71734527  0.50393396  1
  Hf  Hf5  1  0.78030074  0.28030074  0.50000000  1
  Hf  Hf6  1  0.37890219  0.11939254  0.74049036  1
  Hf  Hf7  1  0.37890219  0.63841283  0.25950964  1
  Al  Al0  1  0.98784849  0.48784849  0.50000000  1
  Al  Al1  1  0.15885110  0.33221125  0.17335915  1
  Al  Al2  1  0.15885110  0.98549095  0.82664085  1
  Al  Al3  1  0.15080466  0.34384239  0.80696127  1
  Al  Al4  1  0.53688013  0.34384239  0.19303873  1
  Al  Al5  1  0.84035937  0.65838654  0.81802916  1
  Al  Al6  1  0.84035937  0.02233021  0.18197084  1
  Al  Al7  1  0.83738801  0.66167537  0.17571364  1
  Al  Al8  1  0.48596074  0.66167537  0.82428636  1
  Al  Al9  1  0.37907235  0.12100058  0.25807177  1
  Al  Al10  1  0.86293080  0.12100058  0.74192823  1
  Al  Al11  1  0.62248769  0.87662554  0.25413984  1
  Al  Al12  1  0.62248769  0.36834785  0.74586016  1
  Al  Al13  1  0.62357429  0.87834615  0.74522715  1
  Al  Al14  1  0.13311800  0.87834615  0.25477285  1
  Ir  Ir0  1  0.99914198  0.99931284  0.50208769  1
  Ir  Ir1  1  0.49722515  0.99931284  0.00017085  1
  Ir  Ir2  1  0.49856774  0.49856774  1.00000000  1
  Ir  Ir3  1  0.49722515  0.49705329  0.49791231  1
  Ir  Ir4  1  0.99914198  0.49705329  0.99982915  1
  Rh  Rh0  1  0.99896222  0.99896222  0.00000000  1
  Rh  Rh1  1  0.50569083  0.00569083  0.50000000  1
loop_
_geom_bond_atom_site_label_1
_geom_bond_atom_site_label_2
_geom_bond_distance
_geom_bond_site_symmetry_2
Hf0 Ir4 3.045988 1_554
Hf0 Rh0 3.127463 1_545
Hf0 Ir1 3.264876 1_545
Hf1 Ir3 3.045996 1_555
Hf1 Rh0 3.127469 1_445
Hf1 Ir0 3.264870 1_445
Hf2 Ir4 3.177842 1_454
Hf2 Ir0 3.177844 1_455
Hf2 Ir1 3.177844 1_556
Hf2 Ir3 3.177849 1_555
Hf3 Ir1 3.046001 1_556
Hf3 Rh0 3.127469 1_456
Hf3 Ir4 3.264876 1_455
Hf4 Ir0 3.045995 1_555
Hf4 Rh0 3.127470 1_556
Hf4 Ir3 3.264882 1_555
Hf5 Ir3 3.135861 1_555
Hf5 Ir1 3.135866 1_545
Hf5 Ir0 3.135866 1_545
Hf5 Ir4 3.135867 1_555
Hf6 Rh1 2.632983 1_555
Hf6 Ir2 2.718604 1_555
Hf6 Ir1 2.738517 1_546
Hf6 Ir0 2.738517 1_445
Hf7 Rh1 2.632975 1_565
Hf7 Ir2 2.718605 1_554
Hf7 Ir4 2.738518 1_454
Hf7 Ir3 2.738532 1_555
Al0 Hf5 2.583728 1_555
Al0 Hf2 2.598215 1_655
Al0 Hf4 2.602934 1_555
Al0 Hf3 2.602940 1_655
Al0 Hf1 2.602940 1_655
Al0 Hf0 2.602940 1_555
Al1 Rh0 2.503942 1_445
Al1 Ir4 2.552885 1_454
Al1 Ir3 2.552900 1_555
Al2 Rh0 2.503933 1_456
Al2 Ir1 2.552898 1_556
Al2 Ir0 2.552906 1_455
Al3 Ir0 2.533626 1_445
Al3 Ir4 2.533632 1_455
Al3 Ir2 2.572860 1_555
Al3 Hf5 2.825405 1_455
Al4 Ir3 2.533620 1_555
Al4 Ir1 2.533627 1_545
Al4 Ir2 2.572869 1_554
Al4 Hf5 2.825401 1_555
Al5 Rh0 2.537966 1_556
Al5 Ir4 2.569337 1_555
Al5 Ir3 2.569345 1_555
Al5 Hf5 2.885467 1_555
Al6 Rh0 2.537952 1_545
Al6 Ir0 2.569345 1_545
Al6 Ir1 2.569345 1_545
Al6 Hf5 2.885479 1_555
Al7 Ir0 2.538668 1_555
Al7 Ir4 2.538678 1_554
Al7 Ir2 2.556101 1_554
Al8 Ir1 2.538666 1_556
Al8 Ir3 2.538674 1_555
Al8 Ir2 2.556106 1_555
Al9 Rh1 2.574992 1_555
Al9 Ir3 2.696178 1_555
Al9 Ir1 2.696185 1_545
Al9 Rh0 2.740133 1_445
Al9 Hf5 2.915938 1_555
Al10 Rh1 2.575006 1_555
Al10 Ir0 2.696171 1_545
Al10 Ir4 2.696177 1_555
Al10 Rh0 2.740132 1_546
Al10 Hf5 2.915936 1_555
Al11 Rh1 2.599225 1_565
Al11 Ir2 2.709155 1_554
Al11 Ir0 2.714171 1_555
Al11 Ir1 2.714185 1_555
Al11 Hf5 2.915748 1_565
Al12 Rh1 2.599224 1_555
Al12 Ir2 2.709170 1_555
Al12 Ir3 2.714163 1_555
Al12 Ir4 2.714171 1_555
Al12 Hf5 2.915734 1_555
Al13 Rh1 2.684891 1_565
Al13 Rh0 2.706050 1_556
Al13 Ir3 2.733089 1_555
Al13 Ir1 2.733089 1_556
Al14 Rh1 2.684898 1_565
Al14 Rh0 2.706057 1_455
Al14 Ir0 2.733074 1_455
Al14 Ir4 2.733088 1_454
