# generated using pymatgen
data_Lu16In4Ir3Ru
_symmetry_space_group_name_H-M   'P 1'
_cell_length_a   9.40326652
_cell_length_b   9.40326683
_cell_length_c   9.40326571
_cell_angle_alpha   59.99007040
_cell_angle_beta   59.99006970
_cell_angle_gamma   59.99006783
_symmetry_Int_Tables_number   1
_chemical_formula_structural   Lu16In4Ir3Ru
_chemical_formula_sum   'Lu16 In4 Ir3 Ru1'
_cell_volume   587.79165471
_cell_formula_units_Z   1
loop_
 _symmetry_equiv_pos_site_id
 _symmetry_equiv_pos_as_xyz
  1  'x, y, z'
loop_
 _atom_site_type_symbol
 _atom_site_label
 _atom_site_symmetry_multiplicity
 _atom_site_fract_x
 _atom_site_fract_y
 _atom_site_fract_z
 _atom_site_occupancy
  Lu  Lu0  1  0.59935731  0.59935731  0.59935731  1
  Lu  Lu1  1  0.59788274  0.59788274  0.20511012  1
  Lu  Lu2  1  0.59788274  0.20511012  0.59788274  1
  Lu  Lu3  1  0.20511012  0.59788274  0.59788274  1
  Lu  Lu4  1  0.05934616  0.44197999  0.44197999  1
  Lu  Lu5  1  0.44228014  0.05736509  0.05736509  1
  Lu  Lu6  1  0.44197999  0.05934616  0.44197999  1
  Lu  Lu7  1  0.05736509  0.44228014  0.05736509  1
  Lu  Lu8  1  0.44197999  0.44197999  0.05934616  1
  Lu  Lu9  1  0.05736509  0.05736509  0.44228014  1
  Lu  Lu10  1  0.19103068  0.80855861  0.80855861  1
  Lu  Lu11  1  0.80740349  0.19142055  0.19142055  1
  Lu  Lu12  1  0.80855861  0.19103068  0.80855861  1
  Lu  Lu13  1  0.19142055  0.80740349  0.19142055  1
  Lu  Lu14  1  0.80855861  0.80855861  0.19103068  1
  Lu  Lu15  1  0.19142055  0.19142055  0.80740349  1
  In  In0  1  0.83356774  0.83356774  0.83356774  1
  In  In1  1  0.83391539  0.83391539  0.49878971  1
  In  In2  1  0.83391539  0.49878971  0.83391539  1
  In  In3  1  0.49878971  0.83391539  0.83391539  1
  Ir  Ir0  1  0.39098702  0.39098702  0.82920746  1
  Ir  Ir1  1  0.39098702  0.82920746  0.39098702  1
  Ir  Ir2  1  0.82920746  0.39098702  0.39098702  1
  Ru  Ru0  1  0.38969042  0.38969042  0.38969042  1
loop_
_geom_bond_atom_site_label_1
_geom_bond_atom_site_label_2
_geom_bond_distance
_geom_bond_site_symmetry_2
Lu0 Lu14 3.352935 1_555
Lu0 Lu10 3.352935 1_555
Lu0 Lu12 3.352935 1_555
Lu1 Ru0 2.777317 1_555
Lu1 Lu13 3.348499 1_555
Lu1 Lu11 3.348499 1_555
Lu1 Lu14 3.356721 1_555
Lu2 Ru0 2.777317 1_555
Lu3 Ru0 2.777317 1_555
Lu4 Ru0 2.705352 1_555
Lu6 Ru0 2.705352 1_555
Lu8 Ru0 2.705352 1_555
Lu10 Lu3 3.356720 1_555
Lu10 Lu9 3.499202 1_565
Lu10 Lu7 3.499202 1_556
Lu10 Lu8 3.508596 1_556
Lu10 Lu6 3.508597 1_565
Lu10 Lu14 3.595947 1_456
Lu10 Lu12 3.595947 1_465
Lu10 Lu13 3.596564 1_556
Lu10 Lu15 3.596565 1_565
Lu11 Ru0 3.347606 1_555
Lu11 Lu2 3.348499 1_555
Lu11 Lu8 3.484863 1_555
Lu11 Lu6 3.484863 1_555
Lu11 Lu9 3.505140 1_655
Lu11 Lu7 3.505140 1_655
Lu11 Lu12 3.596564 1_554
Lu11 Lu14 3.596565 1_545
Lu11 Lu15 3.610473 1_654
Lu11 Lu13 3.610473 1_645
Lu12 Lu2 3.356720 1_555
Lu12 Lu9 3.499202 1_655
Lu12 Lu5 3.499202 1_556
Lu12 Lu8 3.508596 1_556
Lu12 Lu4 3.508597 1_655
Lu12 Lu14 3.595947 1_546
Lu12 Lu15 3.596565 1_655
Lu13 Ru0 3.347606 1_555
Lu13 Lu3 3.348499 1_555
Lu13 Lu8 3.484863 1_555
Lu13 Lu4 3.484864 1_555
Lu13 Lu9 3.505140 1_565
Lu13 Lu5 3.505140 1_565
Lu13 Lu14 3.596565 1_455
Lu13 Lu15 3.610473 1_564
Lu14 Lu5 3.499202 1_565
Lu14 Lu7 3.499202 1_655
Lu14 Lu6 3.508596 1_565
Lu14 Lu4 3.508596 1_655
Lu15 Ru0 3.347606 1_555
Lu15 Lu2 3.348499 1_555
Lu15 Lu3 3.348499 1_555
Lu15 Lu6 3.484863 1_555
Lu15 Lu4 3.484863 1_555
Lu15 Lu5 3.505140 1_556
Lu15 Lu7 3.505140 1_556
In0 Lu14 3.143719 1_556
In0 Lu10 3.143720 1_655
In0 Lu12 3.143720 1_565
In0 In1 3.144740 1_555
In0 In3 3.144741 1_555
In0 In2 3.144741 1_555
In0 Lu5 3.366658 1_566
In0 Lu9 3.366658 1_665
In0 Lu7 3.366658 1_656
In0 Lu3 3.384081 1_655
In0 Lu2 3.384081 1_565
In0 Lu1 3.384081 1_556
In1 Lu13 3.143280 1_655
In1 Lu11 3.143280 1_565
In1 Lu14 3.150542 1_555
In1 In3 3.150803 1_555
In1 In2 3.150803 1_555
In1 Lu9 3.360743 1_665
In1 Lu0 3.364094 1_555
In1 Lu6 3.373936 1_565
In1 Lu4 3.373936 1_655
In1 Lu3 3.378295 1_655
In1 Lu2 3.378295 1_565
In2 Lu11 3.143280 1_556
In2 Lu15 3.143280 1_655
In2 Lu12 3.150543 1_555
In2 In3 3.150803 1_555
In2 Lu7 3.360743 1_656
In2 Lu0 3.364094 1_555
In2 Lu4 3.373936 1_655
In2 Lu8 3.373936 1_556
In2 Lu1 3.378294 1_556
In2 Lu3 3.378295 1_655
In3 Lu13 3.143280 1_556
In3 Lu15 3.143280 1_565
In3 Lu10 3.150543 1_555
In3 Lu5 3.360743 1_566
In3 Lu0 3.364094 1_555
In3 Lu6 3.373936 1_565
In3 Lu8 3.373937 1_556
In3 Lu1 3.378294 1_556
In3 Lu2 3.378295 1_565
Ir0 Lu8 2.729271 1_556
Ir0 Lu7 2.732422 1_556
Ir0 Lu5 2.732422 1_556
Ir0 Lu0 2.778057 1_555
Ir0 Lu3 2.782078 1_555
Ir0 Lu2 2.782078 1_555
Ir0 Lu12 3.347866 1_555
Ir0 Lu10 3.347866 1_555
Ir0 Lu15 3.373047 1_555
Ir1 Lu6 2.729271 1_565
Ir1 Lu5 2.732422 1_565
Ir1 Lu9 2.732422 1_565
Ir1 Lu0 2.778057 1_555
Ir1 Lu1 2.782078 1_555
Ir1 Lu3 2.782078 1_555
Ir1 Lu10 3.347866 1_555
Ir1 Lu14 3.347866 1_555
Ir1 Lu13 3.373047 1_555
Ir2 Lu4 2.729271 1_655
Ir2 Lu7 2.732422 1_655
Ir2 Lu9 2.732422 1_655
Ir2 Lu0 2.778057 1_555
Ir2 Lu1 2.782078 1_555
Ir2 Lu2 2.782078 1_555
Ir2 Lu12 3.347866 1_555
Ir2 Lu14 3.347866 1_555
Ir2 Lu11 3.373047 1_555
