# generated using pymatgen
data_CsAl3Se5
_symmetry_space_group_name_H-M   'P 1'
_cell_length_a   13.41027063
_cell_length_b   7.55965417
_cell_length_c   10.85751831
_cell_angle_alpha   77.50635589
_cell_angle_beta   90.00000000
_cell_angle_gamma   90.00000000
_symmetry_Int_Tables_number   1
_chemical_formula_structural   CsAl3Se5
_chemical_formula_sum   'Cs4 Al12 Se20'
_cell_volume   1074.63809587
_cell_formula_units_Z   4
loop_
 _symmetry_equiv_pos_site_id
 _symmetry_equiv_pos_as_xyz
  1  'x, y, z'
loop_
 _atom_site_type_symbol
 _atom_site_label
 _atom_site_symmetry_multiplicity
 _atom_site_fract_x
 _atom_site_fract_y
 _atom_site_fract_z
 _atom_site_occupancy
  Cs  Cs0  1  0.60839823  0.83849778  0.40765677  1
  Cs  Cs1  1  0.10839823  0.16150222  0.09234323  1
  Cs  Cs2  1  0.39160177  0.16150222  0.59234323  1
  Cs  Cs3  1  0.89160177  0.83849778  0.90765677  1
  Al  Al0  1  0.92218217  0.79351142  0.40044909  1
  Al  Al1  1  0.57781783  0.79351142  0.90044909  1
  Al  Al2  1  0.42218217  0.20648858  0.09955091  1
  Al  Al3  1  0.40010227  0.56101832  0.80302331  1
  Al  Al4  1  0.09989773  0.56101832  0.30302331  1
  Al  Al5  1  0.33608688  0.71185682  0.12362302  1
  Al  Al6  1  0.59989773  0.43898168  0.19697669  1
  Al  Al7  1  0.07781783  0.20648858  0.59955091  1
  Al  Al8  1  0.66391312  0.28814318  0.87637698  1
  Al  Al9  1  0.90010227  0.43898168  0.69697669  1
  Al  Al10  1  0.16391312  0.71185682  0.62362302  1
  Al  Al11  1  0.83608688  0.28814318  0.37637698  1
  Se  Se0  1  0.83491533  0.71585380  0.59107954  1
  Se  Se1  1  0.10349086  0.81135407  0.40940471  1
  Se  Se2  1  0.66508467  0.71585380  0.09107954  1
  Se  Se3  1  0.39650914  0.81135407  0.90940471  1
  Se  Se4  1  0.33491533  0.28414620  0.90892046  1
  Se  Se5  1  0.66440063  0.34759692  0.40344590  1
  Se  Se6  1  0.58120418  0.56679250  0.76691800  1
  Se  Se7  1  0.60349086  0.18864593  0.09059529  1
  Se  Se8  1  0.89650914  0.18864593  0.59059529  1
  Se  Se9  1  0.63780484  0.05758409  0.76238459  1
  Se  Se10  1  0.36219516  0.94241591  0.23761541  1
  Se  Se11  1  0.16508467  0.28414620  0.40892046  1
  Se  Se12  1  0.08120418  0.43320750  0.73308200  1
  Se  Se13  1  0.91879582  0.56679250  0.26691800  1
  Se  Se14  1  0.86219516  0.05758409  0.26238459  1
  Se  Se15  1  0.13780484  0.94241591  0.73761541  1
  Se  Se16  1  0.83559937  0.34759692  0.90344590  1
  Se  Se17  1  0.33559937  0.65240308  0.59655410  1
  Se  Se18  1  0.41879582  0.43320750  0.23308200  1
  Se  Se19  1  0.16440063  0.65240308  0.09655410  1
loop_
_geom_bond_atom_site_label_1
_geom_bond_atom_site_label_2
_geom_bond_distance
_geom_bond_site_symmetry_2
Cs0 Se0 3.640633 1_555
Cs0 Se10 3.781411 1_555
Cs0 Se5 3.796226 1_555
Cs0 Se2 3.825041 1_555
Cs0 Se7 3.862538 1_565
Cs0 Se5 3.911751 1_565
Cs0 Se14 3.960349 1_565
Cs0 Se6 4.012574 1_555
Cs0 Se17 4.280231 1_555
Cs1 Se4 3.640633 1_554
Cs1 Se14 3.781411 1_455
Cs1 Se19 3.796226 1_555
Cs1 Se11 3.825041 1_555
Cs1 Se1 3.862538 1_545
Cs1 Se19 3.911751 1_545
Cs1 Se10 3.960349 1_545
Cs1 Se12 4.012574 1_554
Cs1 Se16 4.280231 1_454
Cs2 Se11 3.640633 1_555
Cs2 Se9 3.781411 1_555
Cs2 Se17 3.796226 1_555
Cs2 Se4 3.825041 1_555
Cs2 Se3 3.862538 1_545
Cs2 Se17 3.911751 1_545
Cs2 Se15 3.960349 1_545
Cs2 Se18 4.012574 1_555
Cs2 Se5 4.280231 1_555
Cs3 Se2 3.640633 1_556
Cs3 Se15 3.781411 1_655
Cs3 Se16 3.796226 1_555
Cs3 Se0 3.825041 1_555
Cs3 Se8 3.862538 1_565
Cs3 Se16 3.911751 1_565
Cs3 Se9 3.960349 1_565
Cs3 Se13 4.012574 1_556
Cs3 Se19 4.280231 1_656
Al0 Se0 2.339320 1_555
Al0 Se14 2.363196 1_565
Al0 Se1 2.438242 1_655
Al0 Se13 2.473186 1_555
Al1 Se2 2.339320 1_556
Al1 Se9 2.363196 1_565
Al1 Se3 2.438242 1_555
Al1 Se6 2.473186 1_555
Al2 Se4 2.339320 1_554
Al2 Se10 2.363196 1_545
Al2 Se7 2.438242 1_555
Al2 Se18 2.473186 1_555
Al3 Se4 2.329343 1_555
Al3 Se17 2.362380 1_555
Al3 Se3 2.421476 1_555
Al3 Se6 2.458943 1_555
Al4 Se11 2.329343 1_555
Al4 Se19 2.362380 1_555
Al4 Se1 2.421476 1_555
Al4 Se13 2.458943 1_455
Al5 Se10 2.371840 1_555
Al5 Se19 2.376214 1_555
Al5 Se3 2.423860 1_554
Al5 Se18 2.448834 1_555
Al6 Se2 2.329343 1_555
Al6 Se5 2.362380 1_555
Al6 Se7 2.421476 1_555
Al6 Se18 2.458943 1_555
Al7 Se11 2.339320 1_555
Al7 Se15 2.363196 1_545
Al7 Se8 2.438242 1_455
Al7 Se12 2.473186 1_555
Al8 Se9 2.371840 1_555
Al8 Se16 2.376214 1_555
Al8 Se7 2.423860 1_556
Al8 Se6 2.448834 1_555
Al9 Se0 2.329343 1_555
Al9 Se16 2.362380 1_555
Al9 Se8 2.421476 1_555
Al9 Se12 2.458943 1_655
Al10 Se15 2.371840 1_555
Al10 Se17 2.376214 1_555
Al10 Se1 2.423860 1_555
Al10 Se12 2.448834 1_555
Al11 Se14 2.371840 1_555
Al11 Se5 2.376214 1_555
Al11 Se8 2.423860 1_555
Al11 Se13 2.448834 1_555
