# generated using pymatgen
data_Y4RuCl4
_symmetry_space_group_name_H-M   'P 1'
_cell_length_a   8.52237860
_cell_length_b   8.52238012
_cell_length_c   6.52972388
_cell_angle_alpha   89.76256526
_cell_angle_beta   89.76256978
_cell_angle_gamma   89.37084148
_symmetry_Int_Tables_number   1
_chemical_formula_structural   Y4RuCl4
_chemical_formula_sum   'Y8 Ru2 Cl8'
_cell_volume   474.22339956
_cell_formula_units_Z   2
loop_
 _symmetry_equiv_pos_site_id
 _symmetry_equiv_pos_as_xyz
  1  'x, y, z'
loop_
 _atom_site_type_symbol
 _atom_site_label
 _atom_site_symmetry_multiplicity
 _atom_site_fract_x
 _atom_site_fract_y
 _atom_site_fract_z
 _atom_site_occupancy
  Y  Y0  1  0.10662949  0.73996107  0.98788445  1
  Y  Y1  1  0.26003893  0.89337051  0.51211555  1
  Y  Y2  1  0.89337051  0.26003893  0.01211555  1
  Y  Y3  1  0.73996107  0.10662949  0.48788445  1
  Y  Y4  1  0.74156547  0.89474445  0.00890435  1
  Y  Y5  1  0.10525555  0.25843453  0.49109565  1
  Y  Y6  1  0.25843453  0.10525555  0.99109565  1
  Y  Y7  1  0.89474445  0.74156547  0.50890435  1
  Ru  Ru0  1  0.00807029  0.99192971  0.25000000  1
  Ru  Ru1  1  0.99192971  0.00807029  0.75000000  1
  Cl  Cl0  1  0.42310096  0.82004076  0.89747572  1
  Cl  Cl1  1  0.17995924  0.57689904  0.60252428  1
  Cl  Cl2  1  0.57689904  0.17995924  0.10252428  1
  Cl  Cl3  1  0.82004076  0.42310096  0.39747572  1
  Cl  Cl4  1  0.81306860  0.58013484  0.89839302  1
  Cl  Cl5  1  0.41986516  0.18693140  0.60160698  1
  Cl  Cl6  1  0.18693140  0.41986516  0.10160698  1
  Cl  Cl7  1  0.58013484  0.81306860  0.39839302  1
loop_
_geom_bond_atom_site_label_1
_geom_bond_atom_site_label_2
_geom_bond_distance
_geom_bond_site_symmetry_2
Ru0 Y1 2.867934 1_555
Ru0 Y0 2.867935 1_554
Ru0 Y6 2.888827 1_564
Ru0 Y7 2.888827 1_455
Ru0 Y4 2.899092 1_455
Ru0 Y5 2.899092 1_565
Ru0 Y3 2.919478 1_465
Ru0 Y2 2.919478 1_465
Ru1 Y3 2.867934 1_555
Ru1 Y2 2.867935 1_556
Ru1 Y4 2.888827 1_546
Ru1 Y5 2.888827 1_655
Ru1 Y6 2.899092 1_655
Ru1 Y7 2.899092 1_545
Ru1 Y1 2.919478 1_645
Ru1 Y0 2.919478 1_645
Cl0 Y0 2.848237 1_555
Cl0 Y6 2.860373 1_565
Cl0 Y4 2.891208 1_556
Cl0 Y1 2.941152 1_555
Cl1 Y1 2.848237 1_555
Cl1 Y7 2.860372 1_455
Cl1 Y5 2.891208 1_555
Cl1 Y0 2.941152 1_555
Cl2 Y2 2.848237 1_555
Cl2 Y4 2.860373 1_545
Cl2 Y6 2.891208 1_554
Cl2 Y3 2.941152 1_555
Cl3 Y3 2.848237 1_555
Cl3 Y5 2.860372 1_655
Cl3 Y7 2.891208 1_555
Cl3 Y2 2.941152 1_555
Cl4 Y4 2.838578 1_556
Cl4 Y2 2.899666 1_556
Cl4 Y0 2.923957 1_655
Cl4 Y7 2.970314 1_555
Cl5 Y5 2.838577 1_555
Cl5 Y3 2.899666 1_555
Cl5 Y1 2.923958 1_545
Cl5 Y6 2.970314 1_555
Cl6 Y6 2.838578 1_554
Cl6 Y0 2.899666 1_554
Cl6 Y2 2.923957 1_455
Cl6 Y5 2.970314 1_555
Cl7 Y7 2.838577 1_555
Cl7 Y1 2.899666 1_555
Cl7 Y3 2.923958 1_565
Cl7 Y4 2.970314 1_555
