# generated using pymatgen
data_Sr5Sn2BiH
_symmetry_space_group_name_H-M   'P 1'
_cell_length_a   10.01951884
_cell_length_b   10.01951958
_cell_length_c   10.01952737
_cell_angle_alpha   128.71625586
_cell_angle_beta   128.71625927
_cell_angle_gamma   75.46756142
_symmetry_Int_Tables_number   1
_chemical_formula_structural   Sr5Sn2BiH
_chemical_formula_sum   'Sr10 Sn4 Bi2 H2'
_cell_volume   595.88938565
_cell_formula_units_Z   2
loop_
 _symmetry_equiv_pos_site_id
 _symmetry_equiv_pos_as_xyz
  1  'x, y, z'
loop_
 _atom_site_type_symbol
 _atom_site_label
 _atom_site_symmetry_multiplicity
 _atom_site_fract_x
 _atom_site_fract_y
 _atom_site_fract_z
 _atom_site_occupancy
  Sr  Sr0  1  0.50000000  0.50000000  0.00000000  1
  Sr  Sr1  1  0.00000000  0.00000000  0.00000000  1
  Sr  Sr2  1  0.51602717  0.01602717  0.82383541  1
  Sr  Sr3  1  0.19219276  0.69219276  0.17616659  1
  Sr  Sr4  1  0.01602617  0.19218976  0.49999900  1
  Sr  Sr5  1  0.69218976  0.51602617  0.49999900  1
  Sr  Sr6  1  0.48397283  0.98397283  0.17616459  1
  Sr  Sr7  1  0.80780724  0.30780724  0.82383341  1
  Sr  Sr8  1  0.98397383  0.80781024  0.50000100  1
  Sr  Sr9  1  0.30781024  0.48397383  0.50000100  1
  Sn  Sn0  1  0.87614054  0.37614054  0.25228107  1
  Sn  Sn1  1  0.12385946  0.62385946  0.74771893  1
  Sn  Sn2  1  0.37613754  0.12386246  0.50000000  1
  Sn  Sn3  1  0.62386246  0.87613754  0.50000000  1
  Bi  Bi0  1  0.25000000  0.25000000  0.00000000  1
  Bi  Bi1  1  0.75000000  0.75000000  0.00000000  1
  H  H0  1  0.25000000  0.75000000  0.50000000  1
  H  H1  1  0.75000000  0.25000000  0.50000000  1
loop_
_geom_bond_atom_site_label_1
_geom_bond_atom_site_label_2
_geom_bond_distance
_geom_bond_site_symmetry_2
Sn0 Sn1 3.037968 1_655
Sn0 Sr5 3.405327 1_555
Sn0 Sr4 3.405327 1_655
Sn0 Sr9 3.405330 1_655
Sn0 Sr8 3.405331 1_555
Sn0 Sr0 3.434104 1_555
Sn0 Sr1 3.434104 1_655
Sn0 Sr2 3.499690 1_554
Sn0 Sr7 3.499703 1_554
Sn1 Sr9 3.405327 1_555
Sn1 Sr8 3.405327 1_455
Sn1 Sr5 3.405330 1_455
Sn1 Sr4 3.405331 1_555
Sn1 Sr0 3.434104 1_556
Sn1 Sr1 3.434104 1_566
Sn1 Sr6 3.499690 1_556
Sn1 Sr3 3.499703 1_556
Sn2 Sn3 3.038039 1_545
Sn2 Sr7 3.405322 1_555
Sn2 Sr3 3.405323 1_545
Sn2 Sr2 3.405333 1_555
Sn2 Sr6 3.405333 1_545
Sn2 Sr1 3.434088 1_555
Sn2 Sr0 3.434089 1_556
Sn2 Sr4 3.499668 1_555
Sn2 Sr9 3.499669 1_555
Sn3 Sr3 3.405322 1_555
Sn3 Sr7 3.405323 1_565
Sn3 Sr6 3.405333 1_555
Sn3 Sr2 3.405333 1_565
Sn3 Sr1 3.434088 1_666
Sn3 Sr0 3.434089 1_555
Sn3 Sr8 3.499668 1_555
Sn3 Sr5 3.499669 1_555
Bi0 Sr5 3.645417 1_555
Bi0 Sr8 3.645417 1_444
Bi0 Sr4 3.645430 1_554
Bi0 Sr9 3.645431 1_555
Bi0 Sr2 3.645432 1_554
Bi0 Sr6 3.645432 1_545
Bi0 Sr7 3.645434 1_454
Bi0 Sr3 3.645434 1_555
Bi0 Sr0 3.962033 1_555
Bi0 Sr1 3.962033 1_555
Bi1 Sr9 3.645417 1_554
Bi1 Sr4 3.645417 1_665
Bi1 Sr8 3.645430 1_555
Bi1 Sr5 3.645431 1_554
Bi1 Sr6 3.645432 1_555
Bi1 Sr2 3.645432 1_564
Bi1 Sr3 3.645434 1_655
Bi1 Sr7 3.645434 1_554
Bi1 Sr1 3.962033 1_665
Bi1 Sr0 3.962033 1_555
H0 Sr3 2.581734 1_555
H0 Sr8 2.581736 1_455
H0 Sr9 2.581736 1_555
H0 Sr2 2.581741 1_565
H1 Sr7 2.581734 1_555
H1 Sr4 2.581736 1_655
H1 Sr5 2.581736 1_555
H1 Sr6 2.581741 1_545
