# generated using pymatgen
data_K8Sc6BeBr20
_symmetry_space_group_name_H-M   'P 1'
_cell_length_a   11.59400307
_cell_length_b   11.59400298
_cell_length_c   11.59400291
_cell_angle_alpha   59.99999748
_cell_angle_beta   59.99999773
_cell_angle_gamma   59.99999667
_symmetry_Int_Tables_number   1
_chemical_formula_structural   K8Sc6BeBr20
_chemical_formula_sum   'K8 Sc6 Be1 Br20'
_cell_volume   1102.00914708
_cell_formula_units_Z   1
loop_
 _symmetry_equiv_pos_site_id
 _symmetry_equiv_pos_as_xyz
  1  'x, y, z'
loop_
 _atom_site_type_symbol
 _atom_site_label
 _atom_site_symmetry_multiplicity
 _atom_site_fract_x
 _atom_site_fract_y
 _atom_site_fract_z
 _atom_site_occupancy
  K  K0  1  0.35927250  0.35927250  0.35927250  1
  K  K1  1  0.64072750  0.64072750  0.64072750  1
  K  K2  1  0.35927250  0.35927250  0.92218150  1
  K  K3  1  0.35927250  0.92218150  0.35927250  1
  K  K4  1  0.64072750  0.64072750  0.07781850  1
  K  K5  1  0.64072750  0.07781850  0.64072750  1
  K  K6  1  0.92218150  0.35927250  0.35927250  1
  K  K7  1  0.07781850  0.64072750  0.64072750  1
  Sc  Sc0  1  0.84469707  0.15530293  0.15530293  1
  Sc  Sc1  1  0.15530293  0.84469707  0.84469707  1
  Sc  Sc2  1  0.15530293  0.84469707  0.15530293  1
  Sc  Sc3  1  0.84469707  0.15530293  0.84469707  1
  Sc  Sc4  1  0.15530293  0.15530293  0.84469707  1
  Sc  Sc5  1  0.84469707  0.84469707  0.15530293  1
  Be  Be0  1  0.00000000  0.00000000  0.00000000  1
  Br  Br0  1  0.33105742  0.00000000  0.00000000  1
  Br  Br1  1  0.66894258  1.00000000  1.00000000  1
  Br  Br2  1  0.00000000  0.33105742  0.66894258  1
  Br  Br3  1  1.00000000  0.66894258  0.33105742  1
  Br  Br4  1  0.00000000  0.33105742  0.00000000  1
  Br  Br5  1  0.66894258  1.00000000  0.33105742  1
  Br  Br6  1  1.00000000  0.66894258  1.00000000  1
  Br  Br7  1  0.33105742  0.00000000  0.66894258  1
  Br  Br8  1  0.00000000  0.00000000  0.33105742  1
  Br  Br9  1  1.00000000  1.00000000  0.66894258  1
  Br  Br10  1  0.66894258  0.33105742  0.00000000  1
  Br  Br11  1  0.33105742  0.66894258  1.00000000  1
  Br  Br12  1  0.67764913  0.32235087  0.32235087  1
  Br  Br13  1  0.32235087  0.67764913  0.67764913  1
  Br  Br14  1  0.32235087  0.67764913  0.32235087  1
  Br  Br15  1  0.67764913  0.32235087  0.67764913  1
  Br  Br16  1  0.32235087  0.32235087  0.67764913  1
  Br  Br17  1  0.67764913  0.67764913  0.32235087  1
  Br  Br18  1  0.25000000  0.25000000  0.25000000  1
  Br  Br19  1  0.75000000  0.75000000  0.75000000  1
loop_
_geom_bond_atom_site_label_1
_geom_bond_atom_site_label_2
_geom_bond_distance
_geom_bond_site_symmetry_2
Be0 Sc0 2.546408 1_455
Be0 Sc1 2.546408 1_544
Be0 Sc2 2.546408 1_545
Be0 Sc3 2.546408 1_454
Be0 Sc4 2.546408 1_554
Be0 Sc5 2.546408 1_445
Br0 Sc4 2.719248 1_554
Br0 Sc2 2.719248 1_545
Br1 Sc5 2.719248 1_556
Br1 Sc3 2.719248 1_565
Br2 Sc4 2.719248 1_555
Br2 Sc3 2.719248 1_455
Br3 Sc5 2.719248 1_555
Br3 Sc2 2.719248 1_655
Br4 Sc4 2.719248 1_554
Br4 Sc0 2.719248 1_455
Br5 Sc5 2.719248 1_555
Br5 Sc0 2.719248 1_565
Br6 Sc5 2.719248 1_556
Br6 Sc1 2.719248 1_655
Br7 Sc4 2.719248 1_555
Br7 Sc1 2.719248 1_545
Br8 Sc0 2.719248 1_455
Br8 Sc2 2.719248 1_545
Br9 Sc1 2.719248 1_655
Br9 Sc3 2.719248 1_565
Br10 Sc0 2.719248 1_555
Br10 Sc3 2.719248 1_554
Br11 Sc2 2.719248 1_556
Br11 Sc1 2.719248 1_555
Br12 Sc0 2.738984 1_555
Br12 K6 3.318858 1_555
Br12 K4 3.318865 1_555
Br12 K5 3.318865 1_555
Br12 K0 3.318870 1_555
Br13 Sc1 2.738984 1_555
Br13 K7 3.318858 1_555
Br13 K2 3.318865 1_555
Br13 K3 3.318865 1_555
Br13 K1 3.318870 1_555
Br14 Sc2 2.738984 1_555
Br14 K3 3.318858 1_555
Br14 K7 3.318865 1_555
Br14 K4 3.318865 1_555
Br14 K0 3.318870 1_555
Br15 Sc3 2.738984 1_555
Br15 K5 3.318858 1_555
Br15 K6 3.318865 1_555
Br15 K2 3.318865 1_555
Br15 K1 3.318870 1_555
Br16 Sc4 2.738984 1_555
Br16 K2 3.318858 1_555
Br16 K7 3.318865 1_555
Br16 K5 3.318865 1_555
Br16 K0 3.318870 1_555
Br17 Sc5 2.738984 1_555
Br17 K4 3.318858 1_555
Br17 K6 3.318865 1_555
Br17 K3 3.318865 1_555
Br17 K1 3.318870 1_555
Br18 K0 3.103273 1_555
Br18 K3 3.103282 1_545
Br18 K2 3.103282 1_554
Br18 K6 3.103282 1_455
Br19 K1 3.103273 1_555
Br19 K5 3.103282 1_565
Br19 K4 3.103282 1_556
Br19 K7 3.103282 1_655
