# generated using pymatgen
data_Lu12Fe(TcAg)2
_symmetry_space_group_name_H-M   'P 1'
_cell_length_a   8.10707425
_cell_length_b   8.10707498
_cell_length_c   8.10707490
_cell_angle_alpha   108.92829236
_cell_angle_beta   108.92829509
_cell_angle_gamma   110.56261142
_symmetry_Int_Tables_number   1
_chemical_formula_structural   Lu12Fe(TcAg)2
_chemical_formula_sum   'Lu12 Fe1 Tc2 Ag2'
_cell_volume   410.06453652
_cell_formula_units_Z   1
loop_
 _symmetry_equiv_pos_site_id
 _symmetry_equiv_pos_as_xyz
  1  'x, y, z'
loop_
 _atom_site_type_symbol
 _atom_site_label
 _atom_site_symmetry_multiplicity
 _atom_site_fract_x
 _atom_site_fract_y
 _atom_site_fract_z
 _atom_site_occupancy
  Lu  Lu0  1  0.30919031  0.30919031  0.61906559  1
  Lu  Lu1  1  0.69012373  0.69012373  0.38093441  1
  Lu  Lu2  1  0.69012373  0.30919031  0.00000000  1
  Lu  Lu3  1  0.30919031  0.69012373  0.00000000  1
  Lu  Lu4  1  0.18744338  0.43422419  0.24678082  1
  Lu  Lu5  1  0.81157180  0.56650422  0.75493142  1
  Lu  Lu6  1  0.18744338  0.94066156  0.75321918  1
  Lu  Lu7  1  0.94066156  0.18744338  0.75321918  1
  Lu  Lu8  1  0.81157180  0.05664138  0.24506858  1
  Lu  Lu9  1  0.05664138  0.81157180  0.24506858  1
  Lu  Lu10  1  0.43422419  0.18744338  0.24678082  1
  Lu  Lu11  1  0.56650422  0.81157180  0.75493142  1
  Fe  Fe0  1  0.63449367  0.63449367  0.00000000  1
  Tc  Tc0  1  0.37409924  0.37409924  0.00000000  1
  Tc  Tc1  1  0.99953229  0.99953229  0.00000000  1
  Ag  Ag0  1  0.99859151  0.49859151  0.50000000  1
  Ag  Ag1  1  0.49859151  0.99859151  0.50000000  1
loop_
_geom_bond_atom_site_label_1
_geom_bond_atom_site_label_2
_geom_bond_distance
_geom_bond_site_symmetry_2
Lu0 Tc0 2.790704 1_556
Lu0 Lu5 3.432715 1_555
Lu0 Lu11 3.432715 1_555
Lu0 Lu7 3.437499 1_455
Lu0 Lu6 3.437500 1_545
Lu0 Lu4 3.444685 1_555
Lu0 Lu10 3.444685 1_555
Lu0 Lu8 3.448886 1_455
Lu0 Lu9 3.448887 1_545
Lu1 Tc0 2.790701 1_555
Lu1 Lu9 3.432729 1_655
Lu1 Lu8 3.432729 1_565
Lu1 Lu4 3.437485 1_555
Lu1 Lu10 3.437485 1_555
Lu1 Lu6 3.444690 1_655
Lu1 Lu7 3.444691 1_565
Lu1 Lu5 3.448875 1_555
Lu1 Lu11 3.448875 1_555
Lu2 Tc0 2.790696 1_555
Lu2 Lu9 3.432719 1_655
Lu2 Lu5 3.432722 1_554
Lu2 Lu6 3.437489 1_544
Lu2 Lu7 3.444685 1_554
Lu2 Lu4 3.444692 1_655
Lu2 Lu8 3.448881 1_555
Lu3 Tc0 2.790696 1_555
Lu3 Lu8 3.432719 1_565
Lu3 Lu4 3.437487 1_555
Lu3 Lu7 3.437489 1_454
Lu3 Lu6 3.444685 1_554
Lu3 Lu9 3.448881 1_555
Lu3 Lu5 3.448890 1_454
Lu4 Tc0 2.894779 1_555
Lu4 Tc1 2.901697 1_445
Lu4 Lu7 3.288936 1_454
Lu4 Lu8 3.471106 1_455
Lu4 Lu9 3.574927 1_555
Lu5 Tc1 2.889048 1_556
Lu5 Lu9 3.266116 1_656
Lu5 Lu6 3.471102 1_655
Lu5 Lu7 3.574935 1_555
Lu6 Tc0 2.894786 1_566
Lu6 Tc1 2.901698 1_456
Lu6 Lu7 3.288949 1_465
Lu6 Lu9 3.574935 1_555
Lu7 Tc0 2.894786 1_656
Lu7 Tc1 2.901698 1_546
Lu7 Lu8 3.574935 1_555
Lu8 Tc1 2.889055 1_545
Lu8 Lu9 3.266129 1_645
Lu9 Tc1 2.889055 1_455
Lu10 Tc0 2.894779 1_555
Lu10 Tc1 2.901697 1_445
Lu10 Lu4 3.288935 1_555
Lu10 Lu6 3.288936 1_544
Lu10 Lu2 3.437487 1_555
Lu10 Lu3 3.444692 1_545
Lu10 Lu9 3.471106 1_545
Lu10 Lu8 3.574927 1_555
Lu10 Lu5 3.574934 1_555
Lu11 Tc1 2.889048 1_556
Lu11 Lu5 3.266102 1_555
Lu11 Lu8 3.266116 1_566
Lu11 Lu3 3.432722 1_556
Lu11 Lu2 3.448891 1_566
Lu11 Lu7 3.471102 1_565
Lu11 Lu4 3.574934 1_555
Lu11 Lu6 3.574935 1_555
Fe0 Tc0 2.404673 1_555
Fe0 Lu3 2.827373 1_555
Fe0 Lu2 2.827373 1_555
Fe0 Lu0 2.827377 1_554
Fe0 Lu1 2.827381 1_555
Fe0 Lu5 2.829815 1_554
Fe0 Lu11 2.829815 1_554
Fe0 Lu9 2.829823 1_655
Fe0 Lu8 2.829823 1_565
Ag0 Lu6 2.955660 1_655
Ag0 Lu4 2.955666 1_655
Ag0 Lu8 2.958795 1_555
Ag0 Lu5 2.958803 1_555
Ag0 Lu1 3.425018 1_555
Ag0 Lu0 3.425018 1_655
Ag0 Lu2 3.425020 1_555
Ag0 Lu3 3.425020 1_656
Ag0 Lu10 3.735063 1_555
Ag0 Lu7 3.735063 1_555
Ag0 Lu9 3.758389 1_655
Ag0 Lu11 3.758395 1_655
Ag1 Lu7 2.955660 1_565
Ag1 Lu10 2.955666 1_565
Ag1 Lu9 2.958795 1_555
Ag1 Lu11 2.958803 1_555
Ag1 Lu1 3.425018 1_555
Ag1 Lu0 3.425018 1_565
Ag1 Lu3 3.425020 1_555
Ag1 Lu2 3.425020 1_566
Ag1 Lu4 3.735063 1_555
Ag1 Lu6 3.735063 1_555
Ag1 Lu8 3.758389 1_565
Ag1 Lu5 3.758395 1_565
