# generated using pymatgen
data_Ba2TaRhS6
_symmetry_space_group_name_H-M   'P 1'
_cell_length_a   6.83301064
_cell_length_b   6.83300992
_cell_length_c   5.84337344
_cell_angle_alpha   90.00000000
_cell_angle_beta   90.00000000
_cell_angle_gamma   119.99999382
_symmetry_Int_Tables_number   1
_chemical_formula_structural   Ba2TaRhS6
_chemical_formula_sum   'Ba2 Ta1 Rh1 S6'
_cell_volume   236.27536841
_cell_formula_units_Z   1
loop_
 _symmetry_equiv_pos_site_id
 _symmetry_equiv_pos_as_xyz
  1  'x, y, z'
loop_
 _atom_site_type_symbol
 _atom_site_label
 _atom_site_symmetry_multiplicity
 _atom_site_fract_x
 _atom_site_fract_y
 _atom_site_fract_z
 _atom_site_occupancy
  Ba  Ba0  1  0.33333300  0.66666700  0.72334633  1
  Ba  Ba1  1  0.66666700  0.33333300  0.27665367  1
  Ta  Ta0  1  0.00000000  0.00000000  0.00000000  1
  Rh  Rh0  1  0.00000000  0.00000000  0.50000000  1
  S  S0  1  0.16340401  0.83659599  0.25611953  1
  S  S1  1  0.16340401  0.32680802  0.25611953  1
  S  S2  1  0.67319198  0.83659599  0.25611953  1
  S  S3  1  0.83659599  0.16340401  0.74388047  1
  S  S4  1  0.83659599  0.67319198  0.74388047  1
  S  S5  1  0.32680802  0.16340401  0.74388047  1
loop_
_geom_bond_atom_site_label_1
_geom_bond_atom_site_label_2
_geom_bond_distance
_geom_bond_site_symmetry_2
Ba0 S0 3.390948 1_555
Ba0 S1 3.390952 1_555
Ba0 S2 3.390952 1_555
Ba0 S5 3.418826 1_565
Ba0 S4 3.418826 1_455
Ba0 S3 3.418830 1_455
Ba0 S3 3.418830 1_565
Ba0 S5 3.418833 1_555
Ba0 S4 3.418833 1_555
Ba0 S0 3.706294 1_556
Ba0 S1 3.706297 1_556
Ba0 S2 3.706297 1_556
Ba1 S3 3.390948 1_555
Ba1 S4 3.390952 1_555
Ba1 S5 3.390952 1_555
Ba1 S2 3.418826 1_545
Ba1 S1 3.418826 1_655
Ba1 S0 3.418830 1_655
Ba1 S0 3.418830 1_545
Ba1 S2 3.418833 1_555
Ba1 S1 3.418833 1_555
Ba1 S3 3.706294 1_554
Ba1 S4 3.706297 1_554
Ba1 S5 3.706297 1_554
Rh0 S3 2.402261 1_455
Rh0 S0 2.402261 1_545
Rh0 S1 2.402261 1_555
Rh0 S4 2.402261 1_445
Rh0 S5 2.402262 1_555
Rh0 S2 2.402262 1_445
S0 Ta0 2.445365 1_565
S1 Ta0 2.445365 1_555
S2 Ta0 2.445365 1_665
S3 Ta0 2.445365 1_656
S4 Ta0 2.445365 1_666
S5 Ta0 2.445365 1_556
