# generated using pymatgen
data_Al2CdSe4
_symmetry_space_group_name_H-M   'P 1'
_cell_length_a   7.66811523
_cell_length_b   7.66811561
_cell_length_c   7.66811605
_cell_angle_alpha   60.00000642
_cell_angle_beta   60.00000478
_cell_angle_gamma   60.00000485
_symmetry_Int_Tables_number   1
_chemical_formula_structural   Al2CdSe4
_chemical_formula_sum   'Al4 Cd2 Se8'
_cell_volume   318.82400580
_cell_formula_units_Z   2
loop_
 _symmetry_equiv_pos_site_id
 _symmetry_equiv_pos_as_xyz
  1  'x, y, z'
loop_
 _atom_site_type_symbol
 _atom_site_label
 _atom_site_symmetry_multiplicity
 _atom_site_fract_x
 _atom_site_fract_y
 _atom_site_fract_z
 _atom_site_occupancy
  Al  Al0  1  0.50000000  -0.00000000  0.50000000  1
  Al  Al1  1  -0.00000000  0.50000000  0.50000000  1
  Al  Al2  1  0.50000000  0.50000000  0.50000000  1
  Al  Al3  1  0.50000000  0.50000000  0.00000000  1
  Cd  Cd0  1  0.87500000  0.87500000  0.87500000  1
  Cd  Cd1  1  0.12500000  0.12500000  0.12500000  1
  Se  Se0  1  0.26372425  0.26372425  0.70882824  1
  Se  Se1  1  0.73627575  0.73627575  0.73627575  1
  Se  Se2  1  0.26372425  0.26372425  0.26372425  1
  Se  Se3  1  0.73627575  0.73627575  0.29117176  1
  Se  Se4  1  0.29117176  0.73627575  0.73627575  1
  Se  Se5  1  0.73627575  0.29117176  0.73627575  1
  Se  Se6  1  0.70882824  0.26372425  0.26372425  1
  Se  Se7  1  0.26372425  0.70882824  0.26372425  1
loop_
_geom_bond_atom_site_label_1
_geom_bond_atom_site_label_2
_geom_bond_distance
_geom_bond_site_symmetry_2
Al0 Se1 2.570888 1_545
Al0 Se2 2.570888 1_555
Al0 Se4 2.570893 1_545
Al0 Se6 2.570893 1_555
Al0 Se3 2.570893 1_545
Al0 Se0 2.570893 1_555
Al1 Se2 2.570888 1_555
Al1 Se1 2.570888 1_455
Al1 Se7 2.570893 1_555
Al1 Se5 2.570893 1_455
Al1 Se3 2.570893 1_455
Al1 Se0 2.570893 1_555
Al2 Se0 2.570887 1_555
Al2 Se3 2.570887 1_555
Al2 Se5 2.570888 1_555
Al2 Se7 2.570888 1_555
Al2 Se4 2.570888 1_555
Al2 Se6 2.570888 1_555
Al3 Se2 2.570888 1_555
Al3 Se1 2.570888 1_554
Al3 Se5 2.570893 1_554
Al3 Se7 2.570893 1_555
Al3 Se4 2.570893 1_554
Al3 Se6 2.570893 1_555
Cd0 Se4 2.605647 1_655
Cd0 Se5 2.605647 1_565
Cd0 Se3 2.605648 1_556
Cd0 Se1 2.605653 1_555
Cd1 Se6 2.605647 1_455
Cd1 Se7 2.605647 1_545
Cd1 Se0 2.605648 1_554
Cd1 Se2 2.605653 1_555
