# generated using pymatgen
data_Cs3P2AuSe8
_symmetry_space_group_name_H-M   'P 1'
_cell_length_a   7.53994713
_cell_length_b   7.53994668
_cell_length_c   20.00138891
_cell_angle_alpha   86.48925001
_cell_angle_beta   86.48924800
_cell_angle_gamma   120.49839527
_symmetry_Int_Tables_number   1
_chemical_formula_structural   Cs3P2AuSe8
_chemical_formula_sum   'Cs6 P4 Au2 Se16'
_cell_volume   972.28165813
_cell_formula_units_Z   2
loop_
 _symmetry_equiv_pos_site_id
 _symmetry_equiv_pos_as_xyz
  1  'x, y, z'
loop_
 _atom_site_type_symbol
 _atom_site_label
 _atom_site_symmetry_multiplicity
 _atom_site_fract_x
 _atom_site_fract_y
 _atom_site_fract_z
 _atom_site_occupancy
  Cs  Cs0  1  0.50877396  0.35212152  0.10833468  1
  Cs  Cs1  1  0.35212152  0.50877396  0.60833468  1
  Cs  Cs2  1  0.89226417  0.70022301  0.75253378  1
  Cs  Cs3  1  0.70022301  0.89226417  0.25253378  1
  Cs  Cs4  1  0.59912796  0.04268936  0.89461708  1
  Cs  Cs5  1  0.04268936  0.59912796  0.39461708  1
  P  P0  1  0.30787224  0.42995105  0.88520575  1
  P  P1  1  0.42995105  0.30787224  0.38520575  1
  P  P2  1  0.21385852  0.66981824  0.11701291  1
  P  P3  1  0.66981824  0.21385852  0.61701291  1
  Au  Au0  1  0.07519983  0.95589029  0.99908939  1
  Au  Au1  1  0.95589029  0.07519983  0.49908939  1
  Se  Se0  1  0.49221559  0.15248966  0.71316682  1
  Se  Se1  1  0.15248966  0.49221559  0.21316682  1
  Se  Se2  1  0.11662223  0.08541227  0.88203473  1
  Se  Se3  1  0.08541227  0.11662223  0.38203473  1
  Se  Se4  1  0.32453985  0.59423556  0.79056665  1
  Se  Se5  1  0.59423556  0.32453985  0.29056665  1
  Se  Se6  1  0.59684940  0.52985321  0.92580517  1
  Se  Se7  1  0.52985321  0.59684940  0.42580517  1
  Se  Se8  1  0.09924068  0.52489626  0.94334210  1
  Se  Se9  1  0.52489626  0.09924068  0.44334210  1
  Se  Se10  1  0.04737393  0.38742071  0.05658565  1
  Se  Se11  1  0.38742071  0.04737393  0.55658565  1
  Se  Se12  1  0.53238096  0.87524593  0.07906683  1
  Se  Se13  1  0.87524593  0.53238096  0.57906683  1
  Se  Se14  1  0.02544216  0.82477445  0.11633946  1
  Se  Se15  1  0.82477445  0.02544216  0.61633946  1
loop_
_geom_bond_atom_site_label_1
_geom_bond_atom_site_label_2
_geom_bond_distance
_geom_bond_site_symmetry_2
Cs0 Se6 3.710267 1_554
Cs0 Se14 3.735858 1_655
Cs0 Se5 3.751606 1_555
Cs0 Se12 3.767954 1_545
Cs0 Se14 3.776098 1_545
Cs0 Se10 3.819981 1_555
Cs0 Se12 3.863152 1_555
Cs0 Se1 3.897501 1_555
Cs0 Se10 3.998548 1_655
Cs1 Se7 3.710267 1_555
Cs1 Se15 3.735858 1_565
Cs1 Se4 3.751606 1_555
Cs1 Se13 3.767954 1_455
Cs1 Se15 3.776098 1_455
Cs1 Se11 3.819980 1_555
Cs1 Se13 3.863152 1_555
Cs1 Se0 3.897501 1_555
Cs1 Se11 3.998548 1_565
Cs2 Se13 3.752791 1_555
Cs2 Se6 3.771926 1_555
Cs2 Se15 3.782956 1_565
Cs2 Se2 3.804846 1_665
Cs2 Se4 3.835830 1_655
Cs2 Se0 3.849548 1_555
Cs2 Se4 3.949109 1_555
Cs2 Se0 4.035943 1_665
Cs3 Se12 3.752791 1_555
Cs3 Se7 3.771926 1_555
Cs3 Se14 3.782956 1_655
Cs3 Se3 3.804846 1_665
Cs3 Se5 3.835829 1_565
Cs3 Se1 3.849548 1_555
Cs3 Se5 3.949109 1_555
Cs3 Se1 4.035943 1_665
Cs4 Se2 3.739756 1_655
Cs4 Se12 3.743666 1_546
Cs4 Se6 3.771620 1_555
Cs4 Se4 3.786119 1_545
Cs4 Se8 3.813944 1_545
Cs4 Se2 3.833325 1_555
Cs4 Se6 3.870024 1_545
Cs4 Se0 3.895440 1_555
Cs4 Se8 3.918675 1_655
Cs5 Se3 3.739756 1_565
Cs5 Se13 3.743666 1_455
Cs5 Se7 3.771620 1_555
Cs5 Se5 3.786120 1_455
Cs5 Se9 3.813944 1_455
Cs5 Se3 3.833325 1_555
Cs5 Se7 3.870024 1_455
Cs5 Se1 3.895440 1_555
Cs5 Se9 3.918675 1_565
P0 Se6 2.144759 1_555
P0 Se4 2.158466 1_555
P0 Se2 2.249672 1_555
P0 Se8 2.315199 1_555
P1 Se7 2.144758 1_555
P1 Se5 2.158466 1_555
P1 Se3 2.249673 1_555
P1 Se9 2.315199 1_555
P2 Se12 2.144762 1_555
P2 Se1 2.157019 1_555
P2 Se14 2.251375 1_555
P2 Se10 2.314794 1_555
P3 Se13 2.144762 1_555
P3 Se0 2.157019 1_555
P3 Se15 2.251375 1_555
P3 Se11 2.314795 1_555
Au0 Se14 2.418620 1_556
Au0 Se2 2.419416 1_565
Au0 Cs0 4.018461 1_566
Au0 Cs4 4.074017 1_565
Au1 Se15 2.418620 1_555
Au1 Se3 2.419416 1_655
Au1 Cs1 4.018461 1_655
Au1 Cs5 4.074017 1_655
Se10 Se8 2.355898 1_554
Se11 Se9 2.355898 1_555
