# generated using pymatgen
data_Rb(Cu2As)2
_symmetry_space_group_name_H-M   'P 1'
_cell_length_a   9.28948407
_cell_length_b   9.28948416
_cell_length_c   9.28948356
_cell_angle_alpha   25.43229211
_cell_angle_beta   25.43229423
_cell_angle_gamma   25.43228645
_symmetry_Int_Tables_number   1
_chemical_formula_structural   Rb(Cu2As)2
_chemical_formula_sum   'Rb1 Cu4 As2'
_cell_volume   130.13267886
_cell_formula_units_Z   1
loop_
 _symmetry_equiv_pos_site_id
 _symmetry_equiv_pos_as_xyz
  1  'x, y, z'
loop_
 _atom_site_type_symbol
 _atom_site_label
 _atom_site_symmetry_multiplicity
 _atom_site_fract_x
 _atom_site_fract_y
 _atom_site_fract_z
 _atom_site_occupancy
  Rb  Rb0  1  0.00000000  0.00000000  0.00000000  1
  Cu  Cu0  1  0.14620711  0.14620711  0.14620711  1
  Cu  Cu1  1  0.85379289  0.85379289  0.85379289  1
  Cu  Cu2  1  0.44803183  0.44803183  0.44803183  1
  Cu  Cu3  1  0.55196817  0.55196817  0.55196817  1
  As  As0  1  0.23805904  0.23805904  0.23805904  1
  As  As1  1  0.76194096  0.76194096  0.76194096  1
loop_
_geom_bond_atom_site_label_1
_geom_bond_atom_site_label_2
_geom_bond_distance
_geom_bond_site_symmetry_2
Cu0 Cu2 2.509232 1_545
Cu0 Cu2 2.509232 1_455
Cu0 Cu2 2.509232 1_554
Cu0 Cu1 2.606031 1_454
Cu0 Cu1 2.606031 1_544
Cu0 Cu1 2.606031 1_445
Cu1 Cu3 2.509232 1_565
Cu1 Cu3 2.509232 1_655
Cu1 Cu3 2.509232 1_556
As0 Cu3 2.418492 1_545
As0 Cu3 2.418492 1_455
As0 Cu3 2.418492 1_554
As0 Cu0 2.475704 1_555
As0 Cu1 2.731225 1_454
As0 Cu1 2.731225 1_544
As0 Cu1 2.731226 1_445
As0 Rb0 3.488461 1_556
As0 Rb0 3.488461 1_565
As0 Rb0 3.488461 1_655
As1 Cu2 2.418492 1_565
As1 Cu2 2.418492 1_655
As1 Cu2 2.418492 1_556
As1 Cu1 2.475704 1_555
As1 Cu0 2.731225 1_656
As1 Cu0 2.731225 1_566
As1 Cu0 2.731226 1_665
As1 Rb0 3.488461 1_665
As1 Rb0 3.488461 1_656
As1 Rb0 3.488461 1_566
