# generated using pymatgen
data_Na2In2SiSe6
_symmetry_space_group_name_H-M   'P 1'
_cell_length_a   7.54835083
_cell_length_b   7.54835035
_cell_length_c   12.86570553
_cell_angle_alpha   74.63583326
_cell_angle_beta   74.63583413
_cell_angle_gamma   65.66276434
_symmetry_Int_Tables_number   1
_chemical_formula_structural   Na2In2SiSe6
_chemical_formula_sum   'Na4 In4 Si2 Se12'
_cell_volume   633.84116634
_cell_formula_units_Z   2
loop_
 _symmetry_equiv_pos_site_id
 _symmetry_equiv_pos_as_xyz
  1  'x, y, z'
loop_
 _atom_site_type_symbol
 _atom_site_label
 _atom_site_symmetry_multiplicity
 _atom_site_fract_x
 _atom_site_fract_y
 _atom_site_fract_z
 _atom_site_occupancy
  Na  Na0  1  0.91005554  0.52456250  0.33455065  1
  Na  Na1  1  0.52456250  0.91005554  0.83455065  1
  Na  Na2  1  0.07221656  0.92340132  0.50946174  1
  Na  Na3  1  0.92340132  0.07221656  0.00946174  1
  In  In0  1  0.61919541  0.44924861  0.69348492  1
  In  In1  1  0.44924861  0.61919541  0.19348492  1
  In  In2  1  0.29662545  0.40954856  0.99520633  1
  In  In3  1  0.40954856  0.29662545  0.49520633  1
  Si  Si0  1  0.07279094  0.50755465  0.75033373  1
  Si  Si1  1  0.50755465  0.07279094  0.25033373  1
  Se  Se0  1  0.74133751  0.29462684  0.51917664  1
  Se  Se1  1  0.29462684  0.74133751  0.01917664  1
  Se  Se2  1  0.62113128  0.20793096  0.87898941  1
  Se  Se3  1  0.20793096  0.62113128  0.37898941  1
  Se  Se4  1  0.25318880  0.70464889  0.70402218  1
  Se  Se5  1  0.70464889  0.25318880  0.20402218  1
  Se  Se6  1  0.21920010  0.21164457  0.69392296  1
  Se  Se7  1  0.21164457  0.21920010  0.19392296  1
  Se  Se8  1  0.80305156  0.69410082  0.66693049  1
  Se  Se9  1  0.69410082  0.80305156  0.16693049  1
  Se  Se10  1  0.97192723  0.46009088  0.93461896  1
  Se  Se11  1  0.46009088  0.97192723  0.43461896  1
loop_
_geom_bond_atom_site_label_1
_geom_bond_atom_site_label_2
_geom_bond_distance
_geom_bond_site_symmetry_2
Na0 Se3 2.857755 1_655
Na0 Se0 2.882839 1_555
Na0 Se9 2.891914 1_555
Na0 Se7 3.077546 1_655
Na1 Se2 2.857755 1_565
Na1 Se1 2.882839 1_556
Na1 Se8 2.891914 1_555
Na1 Se6 3.077546 1_565
Na2 Se3 2.874875 1_555
Na2 Se0 2.890918 1_465
Na2 Se4 2.936154 1_555
Na2 Se11 2.972630 1_555
Na2 Se8 3.176062 1_455
Na3 Se2 2.874875 1_554
Na3 Se1 2.890918 1_645
Na3 Se5 2.936154 1_555
Na3 Se10 2.972630 1_554
Na3 Se9 3.176062 1_545
In0 Se0 2.577971 1_555
In0 Se2 2.589820 1_555
In0 Se4 2.630187 1_555
In0 Se8 2.643284 1_555
In1 Se1 2.577971 1_555
In1 Se3 2.589820 1_555
In1 Se5 2.630187 1_555
In1 Se9 2.643284 1_555
In2 Se1 2.596791 1_556
In2 Se2 2.596973 1_555
In2 Se10 2.616175 1_455
In2 Se7 2.637485 1_556
In3 Se0 2.596791 1_555
In3 Se3 2.596973 1_555
In3 Se11 2.616174 1_545
In3 Se6 2.637485 1_555
Se4 Si0 2.278748 1_555
Se5 Si1 2.278748 1_555
Se6 Si0 2.266415 1_555
Se7 Si1 2.266415 1_555
Se8 Si0 2.296492 1_655
Se9 Si1 2.296492 1_565
Se10 Si0 2.268834 1_655
Se11 Si1 2.268834 1_565
