# generated using pymatgen
data_BaTcH9
_symmetry_space_group_name_H-M   'P 1'
_cell_length_a   9.34837895
_cell_length_b   5.31065259
_cell_length_c   5.31211969
_cell_angle_alpha   59.91133294
_cell_angle_beta   90.00000000
_cell_angle_gamma   90.00000000
_symmetry_Int_Tables_number   1
_chemical_formula_structural   BaTcH9
_chemical_formula_sum   'Ba2 Tc2 H18'
_cell_volume   228.18860956
_cell_formula_units_Z   2
loop_
 _symmetry_equiv_pos_site_id
 _symmetry_equiv_pos_as_xyz
  1  'x, y, z'
loop_
 _atom_site_type_symbol
 _atom_site_label
 _atom_site_symmetry_multiplicity
 _atom_site_fract_x
 _atom_site_fract_y
 _atom_site_fract_z
 _atom_site_occupancy
  Ba  Ba0  1  0.50000000  0.00000000  0.00000000  1
  Ba  Ba1  1  0.00000000  0.00000000  0.00000000  1
  Tc  Tc0  1  0.25000000  0.66796952  0.66731486  1
  Tc  Tc1  1  0.75000000  0.33203048  0.33268514  1
  H  H0  1  0.25000000  0.75467453  0.93119298  1
  H  H1  1  0.75000000  0.24532547  0.06880702  1
  H  H2  1  0.25000000  0.31751965  0.93330156  1
  H  H3  1  0.75000000  0.68248035  0.06669844  1
  H  H4  1  0.25000000  0.84588845  0.31119875  1
  H  H5  1  0.75000000  0.15411155  0.68880125  1
  H  H6  1  0.35649158  0.50848950  0.53381875  1
  H  H7  1  0.85649158  0.49151050  0.46618125  1
  H  H8  1  0.64350842  0.49151050  0.46618125  1
  H  H9  1  0.14350842  0.50848950  0.53381875  1
  H  H10  1  0.35661001  0.96120557  0.53243759  1
  H  H11  1  0.85661001  0.03879443  0.46756241  1
  H  H12  1  0.64338999  0.03879443  0.46756241  1
  H  H13  1  0.14338999  0.96120557  0.53243759  1
  H  H14  1  0.40590046  0.58275081  0.83748256  1
  H  H15  1  0.90590046  0.41724919  0.16251744  1
  H  H16  1  0.59409954  0.41724919  0.16251744  1
  H  H17  1  0.09409954  0.58275081  0.83748256  1
loop_
_geom_bond_atom_site_label_1
_geom_bond_atom_site_label_2
_geom_bond_distance
_geom_bond_site_symmetry_2
Ba0 H4 2.740086 1_545
Ba0 H5 2.740086 1_554
Ba0 H1 2.787557 1_555
Ba0 H0 2.787557 1_544
Ba0 H2 2.798551 1_554
Ba0 H3 2.798551 1_545
Ba0 H14 2.889171 1_544
Ba0 H16 2.889171 1_555
Ba0 H16 2.901366 1_545
Ba0 H14 2.901366 1_554
Ba0 H8 2.918801 1_545
Ba0 H6 2.918801 1_554
Ba0 H12 2.919139 1_555
Ba0 H10 2.919139 1_544
Ba0 H8 3.038536 1_554
Ba0 H6 3.038536 1_545
Ba0 H10 3.042155 1_545
Ba0 H12 3.042155 1_554
Ba1 H4 2.740086 1_545
Ba1 H5 2.740086 1_454
Ba1 H1 2.787557 1_455
Ba1 H0 2.787557 1_544
Ba1 H2 2.798551 1_554
Ba1 H3 2.798551 1_445
Ba1 H17 2.889171 1_544
Ba1 H15 2.889171 1_455
Ba1 H15 2.901366 1_445
Ba1 H17 2.901366 1_554
Ba1 H9 2.918801 1_554
Ba1 H7 2.918801 1_445
Ba1 H11 2.919139 1_455
Ba1 H13 2.919139 1_544
Ba1 H9 3.038536 1_545
Ba1 H7 3.038536 1_454
Ba1 H13 3.042155 1_545
Ba1 H11 3.042155 1_454
H0 Tc0 1.680510 1_555
H1 Tc1 1.680510 1_555
H2 Tc0 1.680321 1_555
H3 Tc1 1.680321 1_555
H4 Tc0 1.636826 1_555
H5 Tc1 1.636826 1_555
H6 Tc0 1.677345 1_555
H7 Tc1 1.677345 1_555
H8 Tc1 1.677345 1_555
H9 Tc0 1.677345 1_555
H10 Tc0 1.677193 1_555
H11 Tc1 1.677193 1_555
H12 Tc1 1.677193 1_555
H13 Tc0 1.677193 1_555
H14 Tc0 1.654029 1_555
H15 Tc1 1.654029 1_555
H16 Tc1 1.654029 1_555
H17 Tc0 1.654029 1_555
