# generated using pymatgen
data_HfTa8CrO25
_symmetry_space_group_name_H-M   'P 1'
_cell_length_a   3.84186061
_cell_length_b   11.37507384
_cell_length_c   11.33852348
_cell_angle_alpha   88.53313102
_cell_angle_beta   80.17978064
_cell_angle_gamma   80.31836807
_symmetry_Int_Tables_number   1
_chemical_formula_structural   HfTa8CrO25
_chemical_formula_sum   'Hf1 Ta8 Cr1 O25'
_cell_volume   481.29321725
_cell_formula_units_Z   1
loop_
 _symmetry_equiv_pos_site_id
 _symmetry_equiv_pos_as_xyz
  1  'x, y, z'
loop_
 _atom_site_type_symbol
 _atom_site_label
 _atom_site_symmetry_multiplicity
 _atom_site_fract_x
 _atom_site_fract_y
 _atom_site_fract_z
 _atom_site_occupancy
  Hf  Hf0  1  0.77940980  0.12587578  0.32394908  1
  Ta  Ta0  1  0.87885999  0.80207626  0.44288919  1
  Ta  Ta1  1  0.12606178  0.19411175  0.55804851  1
  Ta  Ta2  1  0.67752083  0.44498937  0.19523330  1
  Ta  Ta3  1  0.32017471  0.55673839  0.80248475  1
  Ta  Ta4  1  0.89908947  0.32008721  0.87579061  1
  Ta  Ta5  1  0.09405763  0.68172580  0.12256121  1
  Ta  Ta6  1  0.22431364  0.87568510  0.68068663  1
  Ta  Ta7  1  0.99559538  0.00301744  0.00462121  1
  Cr  Cr0  1  0.25269035  0.49869161  0.50020343  1
  O  O0  1  0.94674866  0.61954398  0.51522563  1
  O  O1  1  0.53775421  0.51423007  0.37584541  1
  O  O2  1  0.43234904  0.48518741  0.62366118  1
  O  O3  1  0.08490694  0.37686097  0.48725319  1
  O  O4  1  0.50519181  0.99844838  0.98976258  1
  O  O5  1  0.24239671  0.14715082  0.37667623  1
  O  O6  1  0.38465333  0.36624891  0.85806068  1
  O  O7  1  0.60713615  0.63827573  0.13967036  1
  O  O8  1  0.75767782  0.85566723  0.63481415  1
  O  O9  1  0.83161296  0.95648130  0.39347000  1
  O  O10  1  0.98730384  0.72968623  0.29287635  1
  O  O11  1  0.72120470  0.29823811  0.26208427  1
  O  O12  1  0.28254230  0.70478523  0.73222523  1
  O  O13  1  0.01076431  0.26980773  0.70765285  1
  O  O14  1  0.94803769  0.16803847  0.93223254  1
  O  O15  1  0.11963933  0.93001349  0.83198256  1
  O  O16  1  0.88775390  0.06378140  0.16165044  1
  O  O17  1  0.77794490  0.39625404  0.03458591  1
  O  O18  1  0.35891952  0.79995189  0.49049930  1
  O  O19  1  0.15147806  0.49289028  0.19328095  1
  O  O20  1  0.83910796  0.51059349  0.80363152  1
  O  O21  1  0.64647511  0.19775484  0.51917110  1
  O  O22  1  0.18247753  0.03609468  0.61045407  1
  O  O23  1  0.20971832  0.60783635  0.96163069  1
  O  O24  1  0.04843933  0.83318225  0.06513187  1
loop_
_geom_bond_atom_site_label_1
_geom_bond_atom_site_label_2
_geom_bond_distance
_geom_bond_site_symmetry_2
Hf0 O16 1.940352 1_555
Hf0 O5 2.022677 1_555
Hf0 O5 2.023564 1_655
Hf0 O9 2.054413 1_545
Hf0 O11 2.054692 1_555
Hf0 O21 2.322853 1_555
Cr0 O0 1.643344 1_455
Cr0 O3 1.643402 1_555
Cr0 O2 1.656031 1_555
Cr0 O1 1.656635 1_555
O0 Ta0 2.203513 1_555
O1 Ta2 2.160484 1_555
O2 Ta3 2.151219 1_555
O3 Ta1 2.199548 1_555
O4 Ta7 1.928152 1_466
O4 Ta7 1.929361 1_566
O5 Ta1 2.092053 1_555
O6 Ta4 1.998061 1_455
O6 Ta4 2.000832 1_555
O6 Ta3 2.226301 1_555
O7 Ta5 1.990893 1_655
O7 Ta5 1.991305 1_555
O7 Ta2 2.256390 1_555
O8 Ta6 1.999443 1_655
O8 Ta6 2.001700 1_555
O8 Ta0 2.225048 1_555
O9 Ta0 1.819021 1_555
O10 Ta0 1.859937 1_555
O10 Ta5 1.975749 1_655
O11 Ta2 1.809332 1_555
O12 Ta3 1.838546 1_555
O12 Ta6 2.002704 1_555
O13 Ta1 1.872220 1_555
O13 Ta4 1.959580 1_455
O14 Ta4 1.819700 1_555
O14 Ta7 2.021778 1_556
O15 Ta6 1.794949 1_555
O15 Ta7 2.092917 1_466
O16 Ta7 1.880045 1_555
O17 Ta2 1.874591 1_555
O17 Ta4 1.966589 1_554
O18 Ta0 1.982396 1_555
O18 Ta0 2.004366 1_455
O18 Ta6 2.285755 1_555
O19 Ta2 1.983007 1_455
O19 Ta2 2.006493 1_555
O19 Ta5 2.262388 1_555
O20 Ta3 1.976593 1_555
O20 Ta3 2.002312 1_655
O20 Ta4 2.285626 1_555
O21 Ta1 1.959922 1_655
O21 Ta1 1.979836 1_555
O22 Ta1 1.867917 1_555
O22 Ta6 1.964696 1_545
O23 Ta3 1.866441 1_555
O23 Ta5 1.977319 1_556
O24 Ta5 1.817362 1_555
O24 Ta7 2.022839 1_465
