# generated using pymatgen
data_K6LuInAs4
_symmetry_space_group_name_H-M   'P 1'
_cell_length_a   9.23450423
_cell_length_b   9.23450434
_cell_length_c   9.23450308
_cell_angle_alpha   128.89098115
_cell_angle_beta   69.09756672
_cell_angle_gamma   136.79736889
_symmetry_Int_Tables_number   1
_chemical_formula_structural   K6LuInAs4
_chemical_formula_sum   'K6 Lu1 In1 As4'
_cell_volume   412.01169225
_cell_formula_units_Z   1
loop_
 _symmetry_equiv_pos_site_id
 _symmetry_equiv_pos_as_xyz
  1  'x, y, z'
loop_
 _atom_site_type_symbol
 _atom_site_label
 _atom_site_symmetry_multiplicity
 _atom_site_fract_x
 _atom_site_fract_y
 _atom_site_fract_z
 _atom_site_occupancy
  K  K0  1  0.82829036  0.21006100  0.00431723  1
  K  K1  1  0.67170964  0.67602887  0.38177264  1
  K  K2  1  0.75000000  0.25000000  0.50000000  1
  K  K3  1  0.25000000  0.75000000  0.50000100  1
  K  K4  1  0.29425722  0.28993800  0.61822836  1
  K  K5  1  0.20574278  0.82397113  0.99568177  1
  Lu  Lu0  1  0.75000000  0.75000000  0.00000000  1
  In  In0  1  0.25000000  0.25000000  0.00000000  1
  As  As0  1  0.39748281  0.69063486  0.09296513  1
  As  As1  1  0.10251719  0.19548332  0.29315205  1
  As  As2  1  0.90232927  0.80936514  0.70684795  1
  As  As3  1  0.59766973  0.30451768  0.90703487  1
loop_
_geom_bond_atom_site_label_1
_geom_bond_atom_site_label_2
_geom_bond_distance
_geom_bond_site_symmetry_2
K0 Lu0 3.728740 1_545
K1 Lu0 3.728746 1_555
K4 Lu0 3.728737 1_556
K5 Lu0 3.728740 1_456
In0 K0 3.621712 1_455
In0 K4 3.621712 1_554
In0 K1 3.621718 1_555
In0 K5 3.621718 1_544
As0 In0 2.741844 1_555
As0 Lu0 2.762202 1_555
As0 K3 3.336462 1_555
As0 K5 3.340756 1_554
As0 K2 3.353204 1_565
As0 K4 3.360050 1_554
As0 K0 3.534708 1_455
As0 K0 3.780432 1_565
As1 In0 2.741840 1_555
As1 Lu0 2.762202 1_445
As1 K3 3.336444 1_555
As1 K4 3.340768 1_555
As1 K2 3.353200 1_455
As1 K5 3.360056 1_544
As1 K1 3.534707 1_555
As1 K1 3.780438 1_445
As2 In0 2.741848 1_666
As2 Lu0 2.762202 1_556
As2 K3 3.336462 1_655
As2 K1 3.340747 1_555
As2 K2 3.353209 1_555
As2 K0 3.360036 1_566
As2 K4 3.534708 1_665
As2 K4 3.780420 1_555
As3 In0 2.741844 1_556
As3 Lu0 2.762202 1_556
As3 K3 3.336449 1_545
As3 K0 3.340758 1_556
As3 K2 3.353204 1_555
As3 K1 3.360057 1_556
As3 K5 3.534714 1_545
As3 K5 3.780426 1_655
