# generated using pymatgen
data_Cs5KP4W
_symmetry_space_group_name_H-M   'P 1'
_cell_length_a   10.77136665
_cell_length_b   10.77136595
_cell_length_c   8.55800154
_cell_angle_alpha   88.60163663
_cell_angle_beta   88.60163175
_cell_angle_gamma   120.55461949
_symmetry_Int_Tables_number   1
_chemical_formula_structural   Cs5KP4W
_chemical_formula_sum   'Cs10 K2 P8 W2'
_cell_volume   854.01105204
_cell_formula_units_Z   2
loop_
 _symmetry_equiv_pos_site_id
 _symmetry_equiv_pos_as_xyz
  1  'x, y, z'
loop_
 _atom_site_type_symbol
 _atom_site_label
 _atom_site_symmetry_multiplicity
 _atom_site_fract_x
 _atom_site_fract_y
 _atom_site_fract_z
 _atom_site_occupancy
  Cs  Cs0  1  0.46158958  0.53535354  0.48913958  1
  Cs  Cs1  1  0.07239530  0.53733380  0.49698289  1
  Cs  Cs2  1  0.53535354  0.46158958  0.98913958  1
  Cs  Cs3  1  0.53733380  0.07239530  0.99698289  1
  Cs  Cs4  1  0.85639831  0.14656825  0.68490366  1
  Cs  Cs5  1  0.28812138  0.14495504  0.69587712  1
  Cs  Cs6  1  0.85237603  0.70502356  0.67129044  1
  Cs  Cs7  1  0.14656825  0.85639831  0.18490366  1
  Cs  Cs8  1  0.70502356  0.85237603  0.17129044  1
  Cs  Cs9  1  0.14495504  0.28812138  0.19587712  1
  K  K0  1  0.47404096  0.95038519  0.51762520  1
  K  K1  1  0.95038519  0.47404096  0.01762520  1
  P  P0  1  0.66669303  0.32972274  0.65820650  1
  P  P1  1  0.32972274  0.66669303  0.15820650  1
  P  P2  1  0.78431136  0.20997178  0.30350873  1
  P  P3  1  0.42864961  0.20732821  0.31662048  1
  P  P4  1  0.78654507  0.56643001  0.29170458  1
  P  P5  1  0.20997178  0.78431136  0.80350873  1
  P  P6  1  0.56643001  0.78654507  0.79170458  1
  P  P7  1  0.20732821  0.42864961  0.81662048  1
  W  W0  1  0.66712688  0.32867838  0.38842881  1
  W  W1  1  0.32867838  0.66712688  0.88842881  1
loop_
_geom_bond_atom_site_label_1
_geom_bond_atom_site_label_2
_geom_bond_distance
_geom_bond_site_symmetry_2
Cs0 P6 3.560731 1_555
Cs0 P7 3.597769 1_555
Cs0 P4 3.702833 1_555
Cs0 P3 3.714210 1_555
Cs0 P1 3.752817 1_555
Cs0 P0 4.105462 1_555
Cs1 P5 3.560439 1_555
Cs1 P7 3.568375 1_555
Cs1 P1 3.676108 1_555
Cs1 P4 3.725982 1_455
Cs1 P2 3.770292 1_455
Cs1 P0 3.952284 1_455
Cs2 P4 3.560732 1_556
Cs2 P3 3.597769 1_556
Cs2 P6 3.702833 1_555
Cs2 P7 3.714210 1_555
Cs2 P0 3.752817 1_555
Cs2 P1 4.105462 1_556
Cs3 P2 3.560439 1_556
Cs3 P3 3.568375 1_556
Cs3 P0 3.676108 1_555
Cs3 P6 3.725981 1_545
Cs3 P5 3.770292 1_545
Cs3 P1 3.952284 1_546
Cs4 P0 3.495580 1_555
Cs4 P2 3.503846 1_555
Cs4 P6 3.605850 1_545
Cs4 P7 3.672719 1_655
Cs5 P3 3.449183 1_555
Cs5 P0 3.513698 1_555
Cs5 P5 3.620801 1_545
Cs5 P7 3.738564 1_555
Cs6 P0 3.488152 1_555
Cs6 P4 3.543582 1_555
Cs6 P5 3.709631 1_655
Cs6 P6 3.736123 1_555
Cs7 P1 3.495580 1_555
Cs7 P5 3.503845 1_554
Cs7 P4 3.605850 1_455
Cs7 P3 3.672719 1_565
Cs8 P1 3.488152 1_555
Cs8 P6 3.543582 1_554
Cs8 P2 3.709631 1_565
Cs8 P4 3.736123 1_555
Cs9 P7 3.449183 1_554
Cs9 P1 3.513698 1_555
Cs9 P2 3.620801 1_455
Cs9 P3 3.738564 1_555
K0 P6 3.362140 1_555
K0 P5 3.398501 1_555
K0 P3 3.470212 1_565
K0 P2 3.506457 1_565
K0 P0 3.766953 1_565
K1 P4 3.362140 1_555
K1 P2 3.398501 1_555
K1 P7 3.470212 1_654
K1 P5 3.506457 1_654
K1 P1 3.766953 1_655
P0 W0 2.308962 1_555
P1 W1 2.308962 1_554
P2 W0 2.323317 1_555
P3 W0 2.321002 1_555
P4 W0 2.322374 1_555
P5 W1 2.323318 1_555
P6 W1 2.322374 1_555
P7 W1 2.321002 1_555
