# generated using pymatgen
data_Hf5Zr2Pt9Au
_symmetry_space_group_name_H-M   'P 1'
_cell_length_a   8.13606179
_cell_length_b   8.13606185
_cell_length_c   9.63624228
_cell_angle_alpha   90.09118559
_cell_angle_beta   90.09118470
_cell_angle_gamma   107.11689142
_symmetry_Int_Tables_number   1
_chemical_formula_structural   Hf5Zr2Pt9Au
_chemical_formula_sum   'Hf10 Zr4 Pt18 Au2'
_cell_volume   609.61981469
_cell_formula_units_Z   2
loop_
 _symmetry_equiv_pos_site_id
 _symmetry_equiv_pos_as_xyz
  1  'x, y, z'
loop_
 _atom_site_type_symbol
 _atom_site_label
 _atom_site_symmetry_multiplicity
 _atom_site_fract_x
 _atom_site_fract_y
 _atom_site_fract_z
 _atom_site_occupancy
  Hf  Hf0  1  0.00000000  0.00000000  0.00000000  1
  Hf  Hf1  1  0.50000000  0.50000000  0.50000000  1
  Hf  Hf2  1  0.99989352  0.50140202  0.25066652  1
  Hf  Hf3  1  0.00010648  0.49859798  0.74933348  1
  Hf  Hf4  1  0.49859798  0.00010648  0.74933348  1
  Hf  Hf5  1  0.50140202  0.99989352  0.25066652  1
  Hf  Hf6  1  0.30937431  0.30937431  0.19098259  1
  Hf  Hf7  1  0.69062569  0.69062569  0.80901741  1
  Hf  Hf8  1  0.17553309  0.17553309  0.67556196  1
  Hf  Hf9  1  0.82446691  0.82446691  0.32443804  1
  Zr  Zr0  1  0.69616702  0.30383298  1.00000000  1
  Zr  Zr1  1  0.30383298  0.69616702  0.00000000  1
  Zr  Zr2  1  0.80961593  0.19038407  0.50000000  1
  Zr  Zr3  1  0.19038407  0.80961593  0.50000000  1
  Pt  Pt0  1  0.85083978  0.14181641  0.20780303  1
  Pt  Pt1  1  0.14916022  0.85818359  0.79219697  1
  Pt  Pt2  1  0.65051513  0.36006099  0.70791559  1
  Pt  Pt3  1  0.63993901  0.34948487  0.29208441  1
  Pt  Pt4  1  0.34948487  0.63993901  0.29208441  1
  Pt  Pt5  1  0.36006099  0.65051513  0.70791559  1
  Pt  Pt6  1  0.85818359  0.14916022  0.79219697  1
  Pt  Pt7  1  0.14181641  0.85083978  0.20780303  1
  Pt  Pt8  1  0.93542408  0.64561935  0.99574796  1
  Pt  Pt9  1  0.06457592  0.35438065  0.00425204  1
  Pt  Pt10  1  0.56309206  0.85389422  0.49725850  1
  Pt  Pt11  1  0.14610578  0.43690794  0.50274150  1
  Pt  Pt12  1  0.43690794  0.14610578  0.50274150  1
  Pt  Pt13  1  0.85389422  0.56309206  0.49725850  1
  Pt  Pt14  1  0.35438065  0.06457592  0.00425204  1
  Pt  Pt15  1  0.64561935  0.93542408  0.99574796  1
  Pt  Pt16  1  0.10666059  0.10666059  0.39255792  1
  Pt  Pt17  1  0.89333941  0.89333941  0.60744208  1
  Au  Au0  1  0.39071124  0.39071124  0.88939360  1
  Au  Au1  1  0.60928876  0.60928876  0.11060640  1
loop_
_geom_bond_atom_site_label_1
_geom_bond_atom_site_label_2
_geom_bond_distance
_geom_bond_site_symmetry_2
Hf0 Pt0 2.763781 1_455
Hf0 Pt1 2.763781 1_544
Hf0 Pt7 2.763781 1_545
Hf0 Pt6 2.763781 1_454
Hf0 Pt14 2.774666 1_555
Hf0 Pt15 2.774666 1_444
Hf0 Pt9 2.774666 1_555
Hf0 Pt8 2.774666 1_444
Hf1 Pt5 2.762289 1_555
Hf1 Pt3 2.762289 1_555
Hf1 Pt2 2.762289 1_555
Hf1 Pt4 2.762289 1_555
Hf1 Pt13 2.772158 1_555
Hf1 Pt11 2.772158 1_555
Hf1 Pt10 2.772158 1_555
Hf1 Pt12 2.772158 1_555
Hf2 Pt4 2.761806 1_655
Hf2 Pt7 2.767610 1_655
Hf2 Pt13 2.768662 1_555
Hf2 Pt9 2.776971 1_655
Hf2 Pt11 2.820120 1_655
Hf2 Pt8 2.837859 1_554
Hf2 Pt0 2.847203 1_555
Hf2 Pt3 2.852770 1_555
Hf3 Pt2 2.761806 1_455
Hf3 Pt6 2.767610 1_455
Hf3 Pt11 2.768662 1_555
Hf3 Pt8 2.776971 1_455
Hf3 Pt13 2.820120 1_455
Hf3 Pt9 2.837859 1_556
Hf3 Pt1 2.847203 1_555
Hf3 Pt5 2.852770 1_555
Hf4 Pt5 2.761806 1_545
Hf4 Pt1 2.767610 1_545
Hf4 Pt12 2.768662 1_555
Hf4 Pt15 2.776971 1_545
Hf4 Pt10 2.820120 1_545
Hf4 Pt14 2.837859 1_556
Hf4 Pt6 2.847203 1_555
Hf4 Pt2 2.852770 1_555
Hf5 Pt3 2.761806 1_565
Hf5 Pt0 2.767610 1_565
Hf5 Pt10 2.768662 1_555
Hf5 Pt14 2.776971 1_565
Hf5 Pt12 2.820120 1_565
Hf5 Pt15 2.837859 1_554
Hf5 Pt7 2.847203 1_555
Hf5 Pt4 2.852770 1_555
Hf6 Pt16 2.762705 1_555
Hf6 Pt14 2.785444 1_555
Hf6 Pt9 2.785444 1_555
Hf6 Pt3 2.786221 1_555
Hf6 Pt4 2.786221 1_555
Hf7 Pt17 2.762705 1_555
Hf7 Pt15 2.785444 1_555
Hf7 Pt8 2.785444 1_555
Hf7 Pt5 2.786221 1_555
Hf7 Pt2 2.786221 1_555
Hf8 Pt6 2.767621 1_455
Hf8 Pt1 2.767621 1_545
Hf8 Pt12 2.768150 1_555
Hf8 Pt11 2.768150 1_555
Hf8 Pt17 2.803759 1_445
Hf8 Pt16 2.805437 1_555
Hf9 Pt7 2.767621 1_655
Hf9 Pt0 2.767621 1_565
Hf9 Pt10 2.768150 1_555
Hf9 Pt13 2.768150 1_555
Hf9 Pt16 2.803759 1_665
Hf9 Pt17 2.805437 1_555
Pt0 Pt16 2.814928 1_655
Pt0 Pt15 2.847976 1_544
Pt0 Pt9 2.848449 1_655
Pt0 Pt3 2.857505 1_555
Pt0 Zr2 2.876486 1_555
Pt0 Zr0 2.882332 1_554
Pt1 Pt17 2.814928 1_455
Pt1 Pt14 2.847976 1_566
Pt1 Pt8 2.848449 1_455
Pt1 Pt5 2.857505 1_555
Pt1 Zr3 2.876486 1_555
Pt1 Zr1 2.882332 1_556
Pt2 Pt6 2.857505 1_555
Pt2 Zr0 2.893093 1_555
Pt2 Zr2 2.940555 1_555
Pt3 Zr0 2.893093 1_554
Pt3 Zr2 2.940555 1_555
Pt4 Pt7 2.857505 1_555
Pt4 Zr1 2.893093 1_555
Pt4 Zr3 2.940555 1_555
Pt5 Zr1 2.893093 1_556
Pt5 Zr3 2.940555 1_555
Pt6 Pt9 2.847976 1_656
Pt6 Zr2 2.876486 1_555
Pt6 Zr0 2.882332 1_555
Pt7 Pt8 2.847976 1_454
Pt7 Zr3 2.876486 1_555
Pt7 Zr1 2.882332 1_555
Pt8 Pt9 2.862091 1_656
Pt8 Zr0 2.887560 1_555
Pt8 Zr1 2.903297 1_656
Pt9 Zr1 2.887560 1_555
Pt9 Zr0 2.903297 1_454
Pt10 Pt17 2.816392 1_555
Pt10 Pt5 2.828390 1_555
Pt10 Pt12 2.854048 1_565
Pt10 Pt4 2.856017 1_555
Pt10 Zr2 2.878537 1_565
Pt10 Zr3 2.946696 1_555
Pt11 Pt16 2.816392 1_555
Pt11 Pt4 2.828390 1_555
Pt11 Pt13 2.854048 1_455
Pt11 Pt5 2.856017 1_555
Pt11 Zr2 2.878537 1_455
Pt11 Zr3 2.946696 1_555
Pt12 Pt16 2.816392 1_555
Pt12 Pt3 2.828390 1_555
Pt12 Pt2 2.856017 1_555
Pt12 Zr3 2.878537 1_545
Pt12 Zr2 2.946696 1_555
Pt13 Pt17 2.816392 1_555
Pt13 Pt2 2.828390 1_555
Pt13 Pt3 2.856017 1_555
Pt13 Zr3 2.878537 1_655
Pt13 Zr2 2.946696 1_555
Pt14 Pt7 2.848449 1_545
Pt14 Pt15 2.862091 1_544
Pt14 Zr0 2.887560 1_554
Pt14 Zr1 2.903297 1_545
Pt15 Pt6 2.848449 1_565
Pt15 Zr1 2.887560 1_556
Pt15 Zr0 2.903297 1_565
Pt16 Pt7 2.814928 1_545
Pt16 Zr2 2.889897 1_455
Pt16 Zr3 2.889897 1_545
Pt16 Pt17 2.926087 1_445
Pt17 Pt6 2.814928 1_565
Pt17 Zr3 2.889897 1_655
Pt17 Zr2 2.889897 1_565
Au0 Pt9 2.811035 1_556
Au0 Pt14 2.811035 1_556
Au0 Pt2 2.812312 1_555
Au0 Pt5 2.812312 1_555
Au0 Hf8 2.923796 1_555
Au0 Zr1 2.973196 1_556
Au0 Zr0 2.973196 1_555
Au0 Au1 2.997223 1_556
Au0 Hf7 3.002567 1_555
Au0 Hf6 3.012677 1_556
Au1 Pt8 2.811035 1_554
Au1 Pt15 2.811035 1_554
Au1 Pt4 2.812312 1_555
Au1 Pt3 2.812312 1_555
Au1 Hf9 2.923796 1_555
Au1 Zr0 2.973196 1_554
Au1 Zr1 2.973196 1_555
Au1 Hf6 3.002567 1_555
Au1 Hf7 3.012677 1_554
