# generated using pymatgen
data_Ca2B2O5
_symmetry_space_group_name_H-M   'P 1'
_cell_length_a   5.18531569
_cell_length_b   7.18702360
_cell_length_c   11.52097550
_cell_angle_alpha   86.72439680
_cell_angle_beta   90.00000000
_cell_angle_gamma   90.00000000
_symmetry_Int_Tables_number   1
_chemical_formula_structural   Ca2B2O5
_chemical_formula_sum   'Ca8 B8 O20'
_cell_volume   428.65057583
_cell_formula_units_Z   4
loop_
 _symmetry_equiv_pos_site_id
 _symmetry_equiv_pos_as_xyz
  1  'x, y, z'
loop_
 _atom_site_type_symbol
 _atom_site_label
 _atom_site_symmetry_multiplicity
 _atom_site_fract_x
 _atom_site_fract_y
 _atom_site_fract_z
 _atom_site_occupancy
  Ca  Ca0  1  0.56375580  0.38170723  0.36697335  1
  Ca  Ca1  1  0.06375580  0.61829277  0.13302665  1
  Ca  Ca2  1  0.43624420  0.61829277  0.63302665  1
  Ca  Ca3  1  0.93624420  0.38170723  0.86697335  1
  Ca  Ca4  1  0.60189073  0.87582679  0.33485968  1
  Ca  Ca5  1  0.10189073  0.12417321  0.16514032  1
  Ca  Ca6  1  0.39810927  0.12417321  0.66514032  1
  Ca  Ca7  1  0.89810927  0.87582679  0.83485968  1
  B  B0  1  0.43698895  0.66340349  0.91147864  1
  B  B1  1  0.93698895  0.33659651  0.58852136  1
  B  B2  1  0.56301105  0.33659651  0.08852136  1
  B  B3  1  0.06301105  0.66340349  0.41147864  1
  B  B4  1  0.57671031  0.84521747  0.09585975  1
  B  B5  1  0.07671031  0.15478253  0.40414025  1
  B  B6  1  0.42328969  0.15478253  0.90414025  1
  B  B7  1  0.92328969  0.84521747  0.59585975  1
  O  O0  1  0.90790579  0.77241736  0.48485113  1
  O  O1  1  0.40790579  0.22758264  0.01514887  1
  O  O2  1  0.09209421  0.22758264  0.51514887  1
  O  O3  1  0.59209421  0.77241736  0.98485113  1
  O  O4  1  0.17878552  0.64391675  0.92899360  1
  O  O5  1  0.67878552  0.35608325  0.57100640  1
  O  O6  1  0.82121448  0.35608325  0.07100640  1
  O  O7  1  0.32121448  0.64391675  0.42899360  1
  O  O8  1  0.58042170  0.59181485  0.82578104  1
  O  O9  1  0.08042170  0.40818515  0.67421896  1
  O  O10  1  0.41957830  0.40818515  0.17421896  1
  O  O11  1  0.91957830  0.59181485  0.32578104  1
  O  O12  1  0.19348401  0.10735791  0.85788913  1
  O  O13  1  0.69348401  0.89264209  0.64211087  1
  O  O14  1  0.80651599  0.89264209  0.14211087  1
  O  O15  1  0.30651599  0.10735791  0.35788913  1
  O  O16  1  0.14507064  0.85409290  0.65710370  1
  O  O17  1  0.64507064  0.14590710  0.84289630  1
  O  O18  1  0.85492936  0.14590710  0.34289630  1
  O  O19  1  0.35492936  0.85409290  0.15710370  1
loop_
_geom_bond_atom_site_label_1
_geom_bond_atom_site_label_2
_geom_bond_distance
_geom_bond_site_symmetry_2
Ca0 O18 2.298316 1_555
Ca0 O10 2.340604 1_555
Ca0 O15 2.387794 1_555
Ca0 O7 2.407798 1_555
Ca0 O11 2.414082 1_555
Ca0 O5 2.421945 1_555
Ca1 O19 2.298316 1_555
Ca1 O11 2.340604 1_455
Ca1 O14 2.387794 1_455
Ca1 O6 2.407798 1_455
Ca1 O10 2.414082 1_555
Ca1 O4 2.421945 1_554
Ca2 O16 2.298316 1_555
Ca2 O8 2.340604 1_555
Ca2 O13 2.387794 1_555
Ca2 O5 2.407798 1_555
Ca2 O9 2.414082 1_555
Ca2 O7 2.421945 1_555
Ca3 O17 2.298316 1_555
Ca3 O9 2.340604 1_655
Ca3 O12 2.387794 1_655
Ca3 O4 2.407798 1_655
Ca3 O8 2.414082 1_555
Ca3 O6 2.421945 1_556
Ca4 O15 2.288153 1_565
Ca4 O18 2.349137 1_565
Ca4 O7 2.421943 1_555
Ca4 O19 2.427922 1_555
Ca4 O0 2.430972 1_555
Ca4 O14 2.457857 1_555
Ca4 O11 2.629728 1_555
Ca5 O14 2.288153 1_445
Ca5 O19 2.349137 1_545
Ca5 O6 2.421943 1_455
Ca5 O18 2.427922 1_455
Ca5 O1 2.430972 1_555
Ca5 O15 2.457857 1_555
Ca5 O10 2.629728 1_555
Ca6 O13 2.288153 1_545
Ca6 O16 2.349137 1_545
Ca6 O5 2.421943 1_555
Ca6 O17 2.427922 1_555
Ca6 O2 2.430972 1_555
Ca6 O12 2.457857 1_555
Ca6 O9 2.629728 1_555
Ca7 O12 2.288153 1_665
Ca7 O17 2.349137 1_565
Ca7 O4 2.421943 1_655
Ca7 O16 2.427922 1_655
Ca7 O3 2.430972 1_555
Ca7 O13 2.457857 1_555
Ca7 O8 2.629728 1_555
B0 O4 1.360025 1_555
B0 O8 1.360414 1_555
B0 O3 1.432116 1_555
B1 O5 1.360025 1_555
B1 O9 1.360414 1_655
B1 O2 1.432116 1_655
B2 O6 1.360025 1_555
B2 O10 1.360414 1_555
B2 O1 1.432116 1_555
B3 O7 1.360025 1_555
B3 O11 1.360414 1_455
B3 O0 1.432116 1_455
B4 O19 1.352619 1_555
B4 O14 1.356765 1_555
B4 O3 1.411469 1_554
B5 O18 1.352619 1_455
B5 O15 1.356765 1_555
B5 O2 1.411469 1_555
B6 O17 1.352619 1_555
B6 O12 1.356765 1_555
B6 O1 1.411469 1_556
B7 O16 1.352619 1_655
B7 O13 1.356765 1_555
B7 O0 1.411469 1_555
