# generated using pymatgen
data_CsBi(WO4)2
_symmetry_space_group_name_H-M   'P 1'
_cell_length_a   7.68522315
_cell_length_b   7.68516018
_cell_length_c   7.65501801
_cell_angle_alpha   62.61720417
_cell_angle_beta   62.61700719
_cell_angle_gamma   89.88183484
_symmetry_Int_Tables_number   1
_chemical_formula_structural   CsBi(WO4)2
_chemical_formula_sum   'Cs2 Bi2 W4 O16'
_cell_volume   343.66874845
_cell_formula_units_Z   2
loop_
 _symmetry_equiv_pos_site_id
 _symmetry_equiv_pos_as_xyz
  1  'x, y, z'
loop_
 _atom_site_type_symbol
 _atom_site_label
 _atom_site_symmetry_multiplicity
 _atom_site_fract_x
 _atom_site_fract_y
 _atom_site_fract_z
 _atom_site_occupancy
  Cs  Cs0  1  0.70004353  0.29996703  0.24999438  1
  Cs  Cs1  1  0.29995647  0.70003297  0.75000562  1
  Bi  Bi0  1  0.72106440  0.27894658  0.74999229  1
  Bi  Bi1  1  0.27893560  0.72105342  0.25000771  1
  W  W0  1  0.18837347  0.19499629  0.77485919  1
  W  W1  1  0.19498061  0.18836756  0.27487886  1
  W  W2  1  0.80501939  0.81163244  0.72512114  1
  W  W3  1  0.81162653  0.80500371  0.22514081  1
  O  O0  1  0.44428727  0.28542880  0.70010297  1
  O  O1  1  0.71457236  0.55571081  0.79990183  1
  O  O2  1  0.55571273  0.71457120  0.29989703  1
  O  O3  1  0.28542764  0.44428919  0.20009817  1
  O  O4  1  0.12249366  0.43118629  0.63622893  1
  O  O5  1  0.56881364  0.87751062  0.86378071  1
  O  O6  1  0.87750634  0.56881371  0.36377107  1
  O  O7  1  0.43118636  0.12248938  0.13621929  1
  O  O8  1  0.12352465  0.24849219  0.06575537  1
  O  O9  1  0.75150095  0.87647893  0.43425959  1
  O  O10  1  0.87647535  0.75150781  0.93424463  1
  O  O11  1  0.24849905  0.12352107  0.56574041  1
  O  O12  1  0.08452559  0.87498467  0.47084142  1
  O  O13  1  0.12501190  0.91547660  0.02916008  1
  O  O14  1  0.91547441  0.12501533  0.52915858  1
  O  O15  1  0.87498810  0.08452340  0.97083992  1
loop_
_geom_bond_atom_site_label_1
_geom_bond_atom_site_label_2
_geom_bond_distance
_geom_bond_site_symmetry_2
Cs0 O10 3.001990 1_554
Cs0 O11 3.002036 1_555
Cs0 O9 3.003871 1_545
Cs0 O8 3.003881 1_655
Cs0 O1 3.027288 1_554
Cs0 O0 3.027362 1_555
Cs0 O6 3.105986 1_555
Cs0 O7 3.106113 1_555
Cs0 O14 3.117384 1_555
Cs0 O15 3.117390 1_554
Cs1 O8 3.001990 1_556
Cs1 O9 3.002036 1_555
Cs1 O11 3.003871 1_565
Cs1 O10 3.003881 1_455
Cs1 O3 3.027288 1_556
Cs1 O2 3.027362 1_555
Cs1 O4 3.105986 1_555
Cs1 O5 3.106113 1_555
Cs1 O12 3.117384 1_555
Cs1 O13 3.117390 1_556
Bi0 O1 2.324227 1_555
Bi0 O0 2.324258 1_555
Bi0 O6 2.414945 1_555
Bi0 O7 2.414996 1_556
Bi0 O14 2.449167 1_555
Bi0 O15 2.449227 1_555
Bi1 O3 2.324227 1_555
Bi1 O2 2.324258 1_555
Bi1 O4 2.414945 1_555
Bi1 O5 2.414996 1_554
Bi1 O12 2.449167 1_555
Bi1 O13 2.449227 1_555
O0 W0 1.811932 1_555
O1 W2 1.811935 1_555
O2 W3 1.811932 1_555
O3 W1 1.811935 1_555
O4 W0 1.842785 1_555
O5 W2 1.842926 1_555
O6 W3 1.842785 1_555
O7 W1 1.842926 1_555
O8 W1 1.790246 1_555
O8 W0 2.279590 1_554
O9 W3 1.790311 1_555
O9 W2 2.279455 1_555
O10 W2 1.790246 1_555
O10 W3 2.279590 1_556
O11 W0 1.790311 1_555
O11 W1 2.279455 1_555
O12 W2 1.981540 1_455
O12 W1 2.070026 1_565
O13 W0 1.981644 1_564
O13 W3 2.070066 1_455
O14 W1 1.981540 1_655
O14 W2 2.070026 1_545
O15 W3 1.981644 1_546
O15 W0 2.070066 1_655
