# generated using pymatgen
data_Mg(BeRu)2
_symmetry_space_group_name_H-M   'P 1'
_cell_length_a   12.10329441
_cell_length_b   12.10329441
_cell_length_c   6.23698013
_cell_angle_alpha   90.00000000
_cell_angle_beta   90.00000000
_cell_angle_gamma   90.00000000
_symmetry_Int_Tables_number   1
_chemical_formula_structural   Mg(BeRu)2
_chemical_formula_sum   'Mg16 Be32 Ru32'
_cell_volume   913.65357103
_cell_formula_units_Z   16
loop_
 _symmetry_equiv_pos_site_id
 _symmetry_equiv_pos_as_xyz
  1  'x, y, z'
loop_
 _atom_site_type_symbol
 _atom_site_label
 _atom_site_symmetry_multiplicity
 _atom_site_fract_x
 _atom_site_fract_y
 _atom_site_fract_z
 _atom_site_occupancy
  Mg  Mg0_0  1  0.25000000  0.25000000  0.00000000  1
  Mg  Mg0_1  1  0.25000000  0.25000000  0.50000000  1
  Mg  Mg0_2  1  0.25000000  0.75000000  0.00000000  1
  Mg  Mg0_3  1  0.25000000  0.75000000  0.50000000  1
  Mg  Mg0_4  1  0.75000000  0.25000000  0.00000000  1
  Mg  Mg0_5  1  0.75000000  0.25000000  0.50000000  1
  Mg  Mg0_6  1  0.75000000  0.75000000  0.00000000  1
  Mg  Mg0_7  1  0.75000000  0.75000000  0.50000000  1
  Mg  Mg1_0  1  0.00000000  0.00000000  0.00000000  1
  Mg  Mg1_1  1  0.00000000  0.00000000  0.50000000  1
  Mg  Mg1_2  1  0.00000000  0.50000000  0.00000000  1
  Mg  Mg1_3  1  0.00000000  0.50000000  0.50000000  1
  Mg  Mg1_4  1  0.50000000  0.00000000  0.00000000  1
  Mg  Mg1_5  1  0.50000000  0.00000000  0.50000000  1
  Mg  Mg1_6  1  0.50000000  0.50000000  0.00000000  1
  Mg  Mg1_7  1  0.50000000  0.50000000  0.50000000  1
  Be  Be0_0  1  0.05994468  0.30994468  0.00000000  1
  Be  Be0_1  1  0.05994468  0.30994468  0.50000000  1
  Be  Be0_2  1  0.05994468  0.80994468  0.00000000  1
  Be  Be0_3  1  0.05994468  0.80994468  0.50000000  1
  Be  Be0_4  1  0.55994468  0.30994468  0.00000000  1
  Be  Be0_5  1  0.55994468  0.30994468  0.50000000  1
  Be  Be0_6  1  0.55994468  0.80994468  0.00000000  1
  Be  Be0_7  1  0.55994468  0.80994468  0.50000000  1
  Be  Be1_0  1  0.44005532  0.19005532  0.00000000  1
  Be  Be1_1  1  0.44005532  0.19005532  0.50000000  1
  Be  Be1_2  1  0.44005532  0.69005532  0.00000000  1
  Be  Be1_3  1  0.44005532  0.69005532  0.50000000  1
  Be  Be1_4  1  0.94005532  0.19005532  0.00000000  1
  Be  Be1_5  1  0.94005532  0.19005532  0.50000000  1
  Be  Be1_6  1  0.94005532  0.69005532  0.00000000  1
  Be  Be1_7  1  0.94005532  0.69005532  0.50000000  1
  Be  Be2_0  1  0.30994468  0.44005532  0.00000000  1
  Be  Be2_1  1  0.30994468  0.44005532  0.50000000  1
  Be  Be2_2  1  0.30994468  0.94005532  0.00000000  1
  Be  Be2_3  1  0.30994468  0.94005532  0.50000000  1
  Be  Be2_4  1  0.80994468  0.44005532  0.00000000  1
  Be  Be2_5  1  0.80994468  0.44005532  0.50000000  1
  Be  Be2_6  1  0.80994468  0.94005532  0.00000000  1
  Be  Be2_7  1  0.80994468  0.94005532  0.50000000  1
  Be  Be3_0  1  0.19005532  0.05994468  0.00000000  1
  Be  Be3_1  1  0.19005532  0.05994468  0.50000000  1
  Be  Be3_2  1  0.19005532  0.55994468  0.00000000  1
  Be  Be3_3  1  0.19005532  0.55994468  0.50000000  1
  Be  Be3_4  1  0.69005532  0.05994468  0.00000000  1
  Be  Be3_5  1  0.69005532  0.05994468  0.50000000  1
  Be  Be3_6  1  0.69005532  0.55994468  0.00000000  1
  Be  Be3_7  1  0.69005532  0.55994468  0.50000000  1
  Ru  Ru0_0  1  0.33573027  0.08573027  0.25000000  1
  Ru  Ru0_1  1  0.33573027  0.08573027  0.75000000  1
  Ru  Ru0_2  1  0.33573027  0.58573027  0.25000000  1
  Ru  Ru0_3  1  0.33573027  0.58573027  0.75000000  1
  Ru  Ru0_4  1  0.83573027  0.08573027  0.25000000  1
  Ru  Ru0_5  1  0.83573027  0.08573027  0.75000000  1
  Ru  Ru0_6  1  0.83573027  0.58573027  0.25000000  1
  Ru  Ru0_7  1  0.83573027  0.58573027  0.75000000  1
  Ru  Ru1_0  1  0.16426973  0.41426973  0.25000000  1
  Ru  Ru1_1  1  0.16426973  0.41426973  0.75000000  1
  Ru  Ru1_2  1  0.16426973  0.91426973  0.25000000  1
  Ru  Ru1_3  1  0.16426973  0.91426973  0.75000000  1
  Ru  Ru1_4  1  0.66426973  0.41426973  0.25000000  1
  Ru  Ru1_5  1  0.66426973  0.41426973  0.75000000  1
  Ru  Ru1_6  1  0.66426973  0.91426973  0.25000000  1
  Ru  Ru1_7  1  0.66426973  0.91426973  0.75000000  1
  Ru  Ru2_0  1  0.08573027  0.16426973  0.25000000  1
  Ru  Ru2_1  1  0.08573027  0.16426973  0.75000000  1
  Ru  Ru2_2  1  0.08573027  0.66426973  0.25000000  1
  Ru  Ru2_3  1  0.08573027  0.66426973  0.75000000  1
  Ru  Ru2_4  1  0.58573027  0.16426973  0.25000000  1
  Ru  Ru2_5  1  0.58573027  0.16426973  0.75000000  1
  Ru  Ru2_6  1  0.58573027  0.66426973  0.25000000  1
  Ru  Ru2_7  1  0.58573027  0.66426973  0.75000000  1
  Ru  Ru3_0  1  0.41426973  0.33573027  0.25000000  1
  Ru  Ru3_1  1  0.41426973  0.33573027  0.75000000  1
  Ru  Ru3_2  1  0.41426973  0.83573027  0.25000000  1
  Ru  Ru3_3  1  0.41426973  0.83573027  0.75000000  1
  Ru  Ru3_4  1  0.91426973  0.33573027  0.25000000  1
  Ru  Ru3_5  1  0.91426973  0.33573027  0.75000000  1
  Ru  Ru3_6  1  0.91426973  0.83573027  0.25000000  1
  Ru  Ru3_7  1  0.91426973  0.83573027  0.75000000  1
loop_
_geom_bond_atom_site_label_1
_geom_bond_atom_site_label_2
_geom_bond_distance
_geom_bond_site_symmetry_2
Mg0_0 Ru2_0 2.731457 1_555
Mg0_0 Ru2_1 2.731457 1_554
Mg0_0 Ru0_1 2.731457 1_554
Mg0_0 Ru0_0 2.731457 1_555
Mg0_0 Ru1_1 2.731457 1_554
Mg0_0 Ru3_1 2.731457 1_554
Mg0_0 Ru1_0 2.731457 1_555
Mg0_0 Ru3_0 2.731457 1_555
Mg0_0 Mg0_1 3.118490 1_555
Mg0_0 Mg0_1 3.118490 1_554
Mg0_1 Ru2_0 2.731457 1_555
Mg0_1 Ru2_1 2.731457 1_555
Mg0_1 Ru0_1 2.731457 1_555
Mg0_1 Ru0_0 2.731457 1_555
Mg0_1 Ru3_1 2.731457 1_555
Mg0_1 Ru1_0 2.731457 1_555
Mg0_1 Ru3_0 2.731457 1_555
Mg0_1 Ru1_1 2.731457 1_555
Mg0_2 Ru2_3 2.731457 1_554
Mg0_2 Ru0_3 2.731457 1_554
Mg0_2 Ru0_2 2.731457 1_555
Mg0_2 Ru2_2 2.731457 1_555
Mg0_2 Ru1_3 2.731457 1_554
Mg0_2 Ru3_3 2.731457 1_554
Mg0_2 Ru3_2 2.731457 1_555
Mg0_2 Ru1_2 2.731457 1_555
Mg0_2 Mg0_3 3.118490 1_555
Mg0_2 Mg0_3 3.118490 1_554
Mg0_3 Ru0_2 2.731457 1_555
Mg0_3 Ru2_3 2.731457 1_555
Mg0_3 Ru0_3 2.731457 1_555
Mg0_3 Ru2_2 2.731457 1_555
Mg0_3 Ru3_2 2.731457 1_555
Mg0_3 Ru3_3 2.731457 1_555
Mg0_3 Ru1_2 2.731457 1_555
Mg0_3 Ru1_3 2.731457 1_555
Mg0_4 Ru2_4 2.731457 1_555
Mg0_4 Ru2_5 2.731457 1_554
Mg0_4 Ru1_4 2.731457 1_555
Mg0_4 Ru0_5 2.731457 1_554
Mg0_4 Ru1_5 2.731457 1_554
Mg0_4 Ru0_4 2.731457 1_555
Mg0_4 Ru3_5 2.731457 1_554
Mg0_4 Ru3_4 2.731457 1_555
Mg0_4 Mg0_5 3.118490 1_554
Mg0_4 Mg0_5 3.118490 1_555
Mg0_5 Ru2_4 2.731457 1_555
Mg0_5 Ru2_5 2.731457 1_555
Mg0_5 Ru1_5 2.731457 1_555
Mg0_5 Ru1_4 2.731457 1_555
Mg0_5 Ru0_5 2.731457 1_555
Mg0_5 Ru0_4 2.731457 1_555
Mg0_5 Ru3_4 2.731457 1_555
Mg0_5 Ru3_5 2.731457 1_555
Mg0_6 Ru2_6 2.731457 1_555
Mg0_6 Ru2_7 2.731457 1_554
Mg0_6 Ru0_7 2.731457 1_554
Mg0_6 Ru0_6 2.731457 1_555
Mg0_6 Ru1_6 2.731457 1_555
Mg0_6 Ru1_7 2.731457 1_554
Mg0_6 Ru3_6 2.731457 1_555
Mg0_6 Ru3_7 2.731457 1_554
Mg0_6 Mg0_7 3.118490 1_554
Mg0_6 Mg0_7 3.118490 1_555
Mg0_7 Ru2_7 2.731457 1_555
Mg0_7 Ru2_6 2.731457 1_555
Mg0_7 Ru0_7 2.731457 1_555
Mg0_7 Ru0_6 2.731457 1_555
Mg0_7 Ru1_6 2.731457 1_555
Mg0_7 Ru1_7 2.731457 1_555
Mg0_7 Ru3_6 2.731457 1_555
Mg0_7 Ru3_7 2.731457 1_555
Mg1_0 Ru3_6 2.731457 1_445
Mg1_0 Ru3_7 2.731457 1_444
Mg1_0 Ru0_4 2.731457 1_455
Mg1_0 Ru0_5 2.731457 1_454
Mg1_0 Ru1_3 2.731457 1_544
Mg1_0 Ru1_2 2.731457 1_545
Mg1_0 Ru2_1 2.731457 1_554
Mg1_0 Ru2_0 2.731457 1_555
Mg1_0 Mg1_1 3.118490 1_554
Mg1_0 Mg1_1 3.118490 1_555
Mg1_1 Ru3_6 2.731457 1_445
Mg1_1 Ru3_7 2.731457 1_445
Mg1_1 Ru0_4 2.731457 1_455
Mg1_1 Ru0_5 2.731457 1_455
Mg1_1 Ru1_3 2.731457 1_545
Mg1_1 Ru1_2 2.731457 1_545
Mg1_1 Ru2_1 2.731457 1_555
Mg1_1 Ru2_0 2.731457 1_555
Mg1_2 Ru3_4 2.731457 1_455
Mg1_2 Ru3_5 2.731457 1_454
Mg1_2 Ru1_1 2.731457 1_554
Mg1_2 Ru0_6 2.731457 1_455
Mg1_2 Ru1_0 2.731457 1_555
Mg1_2 Ru0_7 2.731457 1_454
Mg1_2 Ru2_2 2.731457 1_555
Mg1_2 Ru2_3 2.731457 1_554
Mg1_2 Mg1_3 3.118490 1_554
Mg1_2 Mg1_3 3.118490 1_555
Mg1_3 Ru3_5 2.731457 1_455
Mg1_3 Ru3_4 2.731457 1_455
Mg1_3 Ru1_1 2.731457 1_555
Mg1_3 Ru0_6 2.731457 1_455
Mg1_3 Ru0_7 2.731457 1_455
Mg1_3 Ru1_0 2.731457 1_555
Mg1_3 Ru2_3 2.731457 1_555
Mg1_3 Ru2_2 2.731457 1_555
Mg1_4 Ru3_2 2.731457 1_545
Mg1_4 Ru3_3 2.731457 1_544
Mg1_4 Ru0_0 2.731457 1_555
Mg1_4 Ru0_1 2.731457 1_554
Mg1_4 Ru2_5 2.731457 1_554
Mg1_4 Ru2_4 2.731457 1_555
Mg1_4 Ru1_7 2.731457 1_544
Mg1_4 Ru1_6 2.731457 1_545
Mg1_4 Mg1_5 3.118490 1_555
Mg1_4 Mg1_5 3.118490 1_554
Mg1_5 Ru3_2 2.731457 1_545
Mg1_5 Ru3_3 2.731457 1_545
Mg1_5 Ru0_1 2.731457 1_555
Mg1_5 Ru0_0 2.731457 1_555
Mg1_5 Ru2_4 2.731457 1_555
Mg1_5 Ru1_7 2.731457 1_545
Mg1_5 Ru1_6 2.731457 1_545
Mg1_5 Ru2_5 2.731457 1_555
Mg1_6 Ru3_0 2.731457 1_555
Mg1_6 Ru3_1 2.731457 1_554
Mg1_6 Ru0_3 2.731457 1_554
Mg1_6 Ru0_2 2.731457 1_555
Mg1_6 Ru1_5 2.731457 1_554
Mg1_6 Ru1_4 2.731457 1_555
Mg1_6 Ru2_6 2.731457 1_555
Mg1_6 Ru2_7 2.731457 1_554
Mg1_6 Mg1_7 3.118490 1_554
Mg1_6 Mg1_7 3.118490 1_555
Mg1_7 Ru3_0 2.731457 1_555
Mg1_7 Ru3_1 2.731457 1_555
Mg1_7 Ru0_2 2.731457 1_555
Mg1_7 Ru0_3 2.731457 1_555
Mg1_7 Ru1_5 2.731457 1_555
Mg1_7 Ru1_4 2.731457 1_555
Mg1_7 Ru2_6 2.731457 1_555
Mg1_7 Ru2_7 2.731457 1_555
Be0_0 Be1_4 2.052104 1_455
Be0_0 Ru1_0 2.370643 1_555
Be0_0 Ru1_1 2.370643 1_554
Be0_0 Ru3_4 2.374307 1_455
Be0_0 Ru3_5 2.374307 1_454
Be0_0 Ru2_1 2.374307 1_554
Be0_0 Ru2_0 2.374307 1_555
Be0_0 Mg1_2 2.412001 1_555
Be0_0 Mg0_0 2.412001 1_555
Be0_1 Be1_5 2.052104 1_455
Be0_1 Ru1_0 2.370643 1_555
Be0_1 Ru1_1 2.370643 1_555
Be0_1 Ru3_4 2.374307 1_455
Be0_1 Ru3_5 2.374307 1_455
Be0_1 Ru2_0 2.374307 1_555
Be0_1 Ru2_1 2.374307 1_555
Be0_1 Mg0_1 2.412001 1_555
Be0_1 Mg1_3 2.412001 1_555
Be0_2 Be1_6 2.052104 1_455
Be0_2 Ru1_2 2.370643 1_555
Be0_2 Ru1_3 2.370643 1_554
Be0_2 Ru2_2 2.374307 1_555
Be0_2 Ru2_3 2.374307 1_554
Be0_2 Ru3_7 2.374307 1_454
Be0_2 Ru3_6 2.374307 1_455
Be0_2 Mg1_0 2.412001 1_565
Be0_2 Mg0_2 2.412001 1_555
Be0_3 Be1_7 2.052104 1_455
Be0_3 Ru1_2 2.370643 1_555
Be0_3 Ru1_3 2.370643 1_555
Be0_3 Ru2_3 2.374307 1_555
Be0_3 Ru2_2 2.374307 1_555
Be0_3 Ru3_7 2.374307 1_455
Be0_3 Ru3_6 2.374307 1_455
Be0_3 Mg0_3 2.412001 1_555
Be0_3 Mg1_1 2.412001 1_565
Be0_4 Be1_0 2.052104 1_555
Be0_4 Ru1_5 2.370643 1_554
Be0_4 Ru1_4 2.370643 1_555
Be0_4 Ru3_1 2.374307 1_554
Be0_4 Ru3_0 2.374307 1_555
Be0_4 Ru2_5 2.374307 1_554
Be0_4 Ru2_4 2.374307 1_555
Be0_4 Mg0_4 2.412001 1_555
Be0_4 Mg1_6 2.412001 1_555
Be0_5 Be1_1 2.052104 1_555
Be0_5 Ru1_4 2.370643 1_555
Be0_5 Ru1_5 2.370643 1_555
Be0_5 Ru3_0 2.374307 1_555
Be0_5 Ru3_1 2.374307 1_555
Be0_5 Ru2_4 2.374307 1_555
Be0_5 Ru2_5 2.374307 1_555
Be0_5 Mg1_7 2.412001 1_555
Be0_5 Mg0_5 2.412001 1_555
Be0_6 Be1_2 2.052104 1_555
Be0_6 Ru1_6 2.370643 1_555
Be0_6 Ru1_7 2.370643 1_554
Be0_6 Ru2_7 2.374307 1_554
Be0_6 Ru2_6 2.374307 1_555
Be0_6 Ru3_3 2.374307 1_554
Be0_6 Ru3_2 2.374307 1_555
Be0_6 Mg0_6 2.412001 1_555
Be0_6 Mg1_4 2.412001 1_565
Be0_7 Be1_3 2.052104 1_555
Be0_7 Ru1_6 2.370643 1_555
Be0_7 Ru1_7 2.370643 1_555
Be0_7 Ru2_7 2.374307 1_555
Be0_7 Ru2_6 2.374307 1_555
Be0_7 Ru3_2 2.374307 1_555
Be0_7 Ru3_3 2.374307 1_555
Be0_7 Mg0_7 2.412001 1_555
Be0_7 Mg1_5 2.412001 1_565
Be1_0 Ru0_1 2.370643 1_554
Be1_0 Ru0_0 2.370643 1_555
Be1_0 Ru3_0 2.374307 1_555
Be1_0 Ru3_1 2.374307 1_554
Be1_0 Ru2_5 2.374307 1_554
Be1_0 Ru2_4 2.374307 1_555
Be1_0 Mg1_4 2.412001 1_555
Be1_0 Mg0_0 2.412001 1_555
Be1_1 Ru0_1 2.370643 1_555
Be1_1 Ru0_0 2.370643 1_555
Be1_1 Ru3_0 2.374307 1_555
Be1_1 Ru3_1 2.374307 1_555
Be1_1 Ru2_4 2.374307 1_555
Be1_1 Ru2_5 2.374307 1_555
Be1_1 Mg1_5 2.412001 1_555
Be1_1 Mg0_1 2.412001 1_555
Be1_2 Ru0_3 2.370643 1_554
Be1_2 Ru0_2 2.370643 1_555
Be1_2 Ru3_3 2.374307 1_554
Be1_2 Ru3_2 2.374307 1_555
Be1_2 Ru2_6 2.374307 1_555
Be1_2 Ru2_7 2.374307 1_554
Be1_2 Mg0_2 2.412001 1_555
Be1_2 Mg1_6 2.412001 1_555
Be1_3 Ru0_3 2.370643 1_555
Be1_3 Ru0_2 2.370643 1_555
Be1_3 Ru3_2 2.374307 1_555
Be1_3 Ru3_3 2.374307 1_555
Be1_3 Ru2_7 2.374307 1_555
Be1_3 Ru2_6 2.374307 1_555
Be1_3 Mg0_3 2.412001 1_555
Be1_3 Mg1_7 2.412001 1_555
Be1_4 Ru0_4 2.370643 1_555
Be1_4 Ru0_5 2.370643 1_554
Be1_4 Ru2_0 2.374307 1_655
Be1_4 Ru2_1 2.374307 1_654
Be1_4 Ru3_5 2.374307 1_554
Be1_4 Ru3_4 2.374307 1_555
Be1_4 Mg1_0 2.412001 1_655
Be1_4 Mg0_4 2.412001 1_555
Be1_5 Ru0_4 2.370643 1_555
Be1_5 Ru0_5 2.370643 1_555
Be1_5 Ru2_0 2.374307 1_655
Be1_5 Ru2_1 2.374307 1_655
Be1_5 Ru3_5 2.374307 1_555
Be1_5 Ru3_4 2.374307 1_555
Be1_5 Mg1_1 2.412001 1_655
Be1_5 Mg0_5 2.412001 1_555
Be1_6 Ru0_7 2.370643 1_554
Be1_6 Ru0_6 2.370643 1_555
Be1_6 Ru2_3 2.374307 1_654
Be1_6 Ru2_2 2.374307 1_655
Be1_6 Ru3_7 2.374307 1_554
Be1_6 Ru3_6 2.374307 1_555
Be1_6 Mg1_2 2.412001 1_655
Be1_6 Mg0_6 2.412001 1_555
Be1_7 Ru0_7 2.370643 1_555
Be1_7 Ru0_6 2.370643 1_555
Be1_7 Ru2_3 2.374307 1_655
Be1_7 Ru2_2 2.374307 1_655
Be1_7 Ru3_6 2.374307 1_555
Be1_7 Ru3_7 2.374307 1_555
Be1_7 Mg0_7 2.412001 1_555
Be1_7 Mg1_3 2.412001 1_655
Be2_0 Be3_2 2.052104 1_555
Be2_0 Ru3_0 2.370643 1_555
Be2_0 Ru3_1 2.370643 1_554
Be2_0 Ru1_1 2.374307 1_554
Be2_0 Ru1_0 2.374307 1_555
Be2_0 Ru0_3 2.374307 1_554
Be2_0 Ru0_2 2.374307 1_555
Be2_0 Mg0_0 2.412001 1_555
Be2_0 Mg1_6 2.412001 1_555
Be2_1 Be3_3 2.052104 1_555
Be2_1 Ru3_0 2.370643 1_555
Be2_1 Ru3_1 2.370643 1_555
Be2_1 Ru1_1 2.374307 1_555
Be2_1 Ru1_0 2.374307 1_555
Be2_1 Ru0_3 2.374307 1_555
Be2_1 Ru0_2 2.374307 1_555
Be2_1 Mg0_1 2.412001 1_555
Be2_1 Mg1_7 2.412001 1_555
Be2_2 Be3_0 2.052104 1_565
Be2_2 Ru3_3 2.370643 1_554
Be2_2 Ru3_2 2.370643 1_555
Be2_2 Ru1_3 2.374307 1_554
Be2_2 Ru1_2 2.374307 1_555
Be2_2 Ru0_0 2.374307 1_565
Be2_2 Ru0_1 2.374307 1_564
Be2_2 Mg0_2 2.412001 1_555
Be2_2 Mg1_4 2.412001 1_565
Be2_3 Be3_1 2.052104 1_565
Be2_3 Ru3_2 2.370643 1_555
Be2_3 Ru3_3 2.370643 1_555
Be2_3 Ru1_2 2.374307 1_555
Be2_3 Ru1_3 2.374307 1_555
Be2_3 Ru0_0 2.374307 1_565
Be2_3 Ru0_1 2.374307 1_565
Be2_3 Mg0_3 2.412001 1_555
Be2_3 Mg1_5 2.412001 1_565
Be2_4 Be3_6 2.052104 1_555
Be2_4 Ru3_4 2.370643 1_555
Be2_4 Ru3_5 2.370643 1_554
Be2_4 Ru1_5 2.374307 1_554
Be2_4 Ru1_4 2.374307 1_555
Be2_4 Ru0_7 2.374307 1_554
Be2_4 Ru0_6 2.374307 1_555
Be2_4 Mg0_4 2.412001 1_555
Be2_4 Mg1_2 2.412001 1_655
Be2_5 Be3_7 2.052104 1_555
Be2_5 Ru3_4 2.370643 1_555
Be2_5 Ru3_5 2.370643 1_555
Be2_5 Ru1_5 2.374307 1_555
Be2_5 Ru1_4 2.374307 1_555
Be2_5 Ru0_7 2.374307 1_555
Be2_5 Ru0_6 2.374307 1_555
Be2_5 Mg0_5 2.412001 1_555
Be2_5 Mg1_3 2.412001 1_655
Be2_6 Be3_4 2.052104 1_565
Be2_6 Ru3_7 2.370643 1_554
Be2_6 Ru3_6 2.370643 1_555
Be2_6 Ru1_6 2.374307 1_555
Be2_6 Ru1_7 2.374307 1_554
Be2_6 Ru0_5 2.374307 1_564
Be2_6 Ru0_4 2.374307 1_565
Be2_6 Mg0_6 2.412001 1_555
Be2_6 Mg1_0 2.412001 1_665
Be2_7 Be3_5 2.052104 1_565
Be2_7 Ru3_7 2.370643 1_555
Be2_7 Ru3_6 2.370643 1_555
Be2_7 Ru1_6 2.374307 1_555
Be2_7 Ru1_7 2.374307 1_555
Be2_7 Ru0_4 2.374307 1_565
Be2_7 Ru0_5 2.374307 1_565
Be2_7 Mg0_7 2.412001 1_555
Be2_7 Mg1_1 2.412001 1_665
Be3_0 Ru2_1 2.370643 1_554
Be3_0 Ru2_0 2.370643 1_555
Be3_0 Ru1_3 2.374307 1_544
Be3_0 Ru1_2 2.374307 1_545
Be3_0 Ru0_1 2.374307 1_554
Be3_0 Ru0_0 2.374307 1_555
Be3_0 Mg1_0 2.412001 1_555
Be3_0 Mg0_0 2.412001 1_555
Be3_1 Ru2_1 2.370643 1_555
Be3_1 Ru2_0 2.370643 1_555
Be3_1 Ru1_3 2.374307 1_545
Be3_1 Ru1_2 2.374307 1_545
Be3_1 Ru0_1 2.374307 1_555
Be3_1 Ru0_0 2.374307 1_555
Be3_1 Mg1_1 2.412001 1_555
Be3_1 Mg0_1 2.412001 1_555
Be3_2 Ru2_2 2.370643 1_555
Be3_2 Ru2_3 2.370643 1_554
Be3_2 Ru1_1 2.374307 1_554
Be3_2 Ru1_0 2.374307 1_555
Be3_2 Ru0_3 2.374307 1_554
Be3_2 Ru0_2 2.374307 1_555
Be3_2 Mg1_2 2.412001 1_555
Be3_2 Mg0_2 2.412001 1_555
Be3_3 Ru2_3 2.370643 1_555
Be3_3 Ru2_2 2.370643 1_555
Be3_3 Ru1_0 2.374307 1_555
Be3_3 Ru1_1 2.374307 1_555
Be3_3 Ru0_2 2.374307 1_555
Be3_3 Ru0_3 2.374307 1_555
Be3_3 Mg1_3 2.412001 1_555
Be3_3 Mg0_3 2.412001 1_555
Be3_4 Ru2_4 2.370643 1_555
Be3_4 Ru2_5 2.370643 1_554
Be3_4 Ru1_7 2.374307 1_544
Be3_4 Ru1_6 2.374307 1_545
Be3_4 Ru0_4 2.374307 1_555
Be3_4 Ru0_5 2.374307 1_554
Be3_4 Mg1_4 2.412001 1_555
Be3_4 Mg0_4 2.412001 1_555
Be3_5 Ru2_4 2.370643 1_555
Be3_5 Ru2_5 2.370643 1_555
Be3_5 Ru1_7 2.374307 1_545
Be3_5 Ru1_6 2.374307 1_545
Be3_5 Ru0_4 2.374307 1_555
Be3_5 Ru0_5 2.374307 1_555
Be3_5 Mg1_5 2.412001 1_555
Be3_5 Mg0_5 2.412001 1_555
Be3_6 Ru2_6 2.370643 1_555
Be3_6 Ru2_7 2.370643 1_554
Be3_6 Ru1_5 2.374307 1_554
Be3_6 Ru1_4 2.374307 1_555
Be3_6 Ru0_7 2.374307 1_554
Be3_6 Ru0_6 2.374307 1_555
Be3_6 Mg1_6 2.412001 1_555
Be3_6 Mg0_6 2.412001 1_555
Be3_7 Ru2_7 2.370643 1_555
Be3_7 Ru2_6 2.370643 1_555
Be3_7 Ru1_5 2.374307 1_555
Be3_7 Ru1_4 2.374307 1_555
Be3_7 Ru0_7 2.374307 1_555
Be3_7 Ru0_6 2.374307 1_555
Be3_7 Mg1_7 2.412001 1_555
Be3_7 Mg0_7 2.412001 1_555
