# generated using pymatgen
data_Rb2Sr(NbCl3)6
_symmetry_space_group_name_H-M   'P 1'
_cell_length_a   10.33690740
_cell_length_b   10.33690688
_cell_length_c   10.33690671
_cell_angle_alpha   54.64399645
_cell_angle_beta   54.64399730
_cell_angle_gamma   54.64399652
_symmetry_Int_Tables_number   1
_chemical_formula_structural   Rb2Sr(NbCl3)6
_chemical_formula_sum   'Rb2 Sr1 Nb6 Cl18'
_cell_volume   683.54307502
_cell_formula_units_Z   1
loop_
 _symmetry_equiv_pos_site_id
 _symmetry_equiv_pos_as_xyz
  1  'x, y, z'
loop_
 _atom_site_type_symbol
 _atom_site_label
 _atom_site_symmetry_multiplicity
 _atom_site_fract_x
 _atom_site_fract_y
 _atom_site_fract_z
 _atom_site_occupancy
  Rb  Rb0  1  0.72320320  0.72320320  0.72320320  1
  Rb  Rb1  1  0.27679680  0.27679680  0.27679680  1
  Sr  Sr0  1  0.00000000  0.00000000  0.00000000  1
  Nb  Nb0  1  0.57764940  0.35271578  0.70587108  1
  Nb  Nb1  1  0.35271578  0.70587108  0.57764940  1
  Nb  Nb2  1  0.70587108  0.57764940  0.35271578  1
  Nb  Nb3  1  0.64728422  0.29412892  0.42235060  1
  Nb  Nb4  1  0.42235060  0.64728422  0.29412892  1
  Nb  Nb5  1  0.29412892  0.42235060  0.64728422  1
  Cl  Cl0  1  0.91545486  0.34952063  0.23411027  1
  Cl  Cl1  1  0.83447145  0.41905693  0.57029787  1
  Cl  Cl2  1  0.76588973  0.08454514  0.65047937  1
  Cl  Cl3  1  0.08454514  0.65047937  0.76588973  1
  Cl  Cl4  1  0.66896612  0.17061022  0.97145362  1
  Cl  Cl5  1  0.23411027  0.91545486  0.34952063  1
  Cl  Cl6  1  0.42970213  0.16552855  0.58094307  1
  Cl  Cl7  1  0.65047937  0.76588973  0.08454514  1
  Cl  Cl8  1  0.58094307  0.42970213  0.16552855  1
  Cl  Cl9  1  0.02854638  0.33103388  0.82938978  1
  Cl  Cl10  1  0.57029787  0.83447145  0.41905693  1
  Cl  Cl11  1  0.34952063  0.23411027  0.91545486  1
  Cl  Cl12  1  0.97145362  0.66896612  0.17061022  1
  Cl  Cl13  1  0.16552855  0.58094307  0.42970213  1
  Cl  Cl14  1  0.82938978  0.02854638  0.33103388  1
  Cl  Cl15  1  0.41905693  0.57029787  0.83447145  1
  Cl  Cl16  1  0.17061022  0.97145362  0.66896612  1
  Cl  Cl17  1  0.33103388  0.82938978  0.02854638  1
loop_
_geom_bond_atom_site_label_1
_geom_bond_atom_site_label_2
_geom_bond_distance
_geom_bond_site_symmetry_2
Cl0 Nb3 2.470510 1_555
Cl0 Nb2 2.473255 1_555
Cl0 Rb1 3.603492 1_655
Cl1 Nb0 2.484140 1_555
Cl1 Nb2 2.486792 1_555
Cl1 Rb0 3.628705 1_555
Cl1 Rb1 3.687898 1_655
Cl2 Nb0 2.470510 1_555
Cl2 Nb3 2.473255 1_555
Cl2 Rb0 3.603492 1_545
Cl3 Nb1 2.470510 1_555
Cl3 Nb5 2.473255 1_555
Cl3 Rb0 3.603492 1_455
Cl4 Nb0 2.633073 1_555
Cl4 Sr0 2.913538 1_656
Cl4 Rb1 3.413577 1_556
Cl5 Nb4 2.470510 1_555
Cl5 Nb1 2.473255 1_555
Cl5 Rb1 3.603492 1_565
Cl6 Nb5 2.484140 1_555
Cl6 Nb3 2.486792 1_555
Cl6 Rb1 3.628705 1_555
Cl6 Rb0 3.687898 1_545
Cl7 Nb2 2.470510 1_555
Cl7 Nb4 2.473255 1_555
Cl7 Rb0 3.603492 1_554
Cl8 Nb3 2.484140 1_555
Cl8 Nb4 2.486792 1_555
Cl8 Rb1 3.628705 1_555
Cl8 Rb0 3.687898 1_554
Cl9 Nb5 2.633073 1_555
Cl9 Sr0 2.913538 1_556
Cl9 Rb0 3.413577 1_455
Cl10 Nb2 2.484140 1_555
Cl10 Nb1 2.486792 1_555
Cl10 Rb0 3.628705 1_555
Cl10 Rb1 3.687898 1_565
Cl11 Nb5 2.470510 1_555
Cl11 Nb0 2.473255 1_555
Cl11 Rb1 3.603492 1_556
Cl12 Nb2 2.633073 1_555
Cl12 Sr0 2.913538 1_665
Cl12 Rb1 3.413577 1_655
Cl13 Nb4 2.484140 1_555
Cl13 Nb5 2.486792 1_555
Cl13 Rb1 3.628705 1_555
Cl13 Rb0 3.687898 1_455
Cl14 Nb3 2.633073 1_555
Cl14 Sr0 2.913538 1_655
Cl14 Rb0 3.413577 1_545
Cl15 Nb1 2.484140 1_555
Cl15 Nb0 2.486792 1_555
Cl15 Rb0 3.628705 1_555
Cl15 Rb1 3.687898 1_556
Cl16 Nb1 2.633073 1_555
Cl16 Sr0 2.913538 1_566
Cl16 Rb1 3.413577 1_565
Cl17 Nb4 2.633073 1_555
Cl17 Sr0 2.913538 1_565
Cl17 Rb0 3.413577 1_554
