# generated using pymatgen
data_Y3Bi(Rh2O7)2
_symmetry_space_group_name_H-M   'P 1'
_cell_length_a   7.19960164
_cell_length_b   7.19960236
_cell_length_c   7.19960205
_cell_angle_alpha   59.45943472
_cell_angle_beta   59.45942824
_cell_angle_gamma   59.45943124
_symmetry_Int_Tables_number   1
_chemical_formula_structural   Y3Bi(Rh2O7)2
_chemical_formula_sum   'Y3 Bi1 Rh4 O14'
_cell_volume   260.63746575
_cell_formula_units_Z   1
loop_
 _symmetry_equiv_pos_site_id
 _symmetry_equiv_pos_as_xyz
  1  'x, y, z'
loop_
 _atom_site_type_symbol
 _atom_site_label
 _atom_site_symmetry_multiplicity
 _atom_site_fract_x
 _atom_site_fract_y
 _atom_site_fract_z
 _atom_site_occupancy
  Y  Y0  1  0.00000000  0.50000000  0.50000000  1
  Y  Y1  1  0.50000000  0.50000000  0.00000000  1
  Y  Y2  1  0.50000000  0.00000000  0.50000000  1
  Bi  Bi0  1  0.50000000  0.50000000  0.50000000  1
  Rh  Rh0  1  0.00000000  0.00000000  0.00000000  1
  Rh  Rh1  1  0.50000000  0.00000000  0.00000000  1
  Rh  Rh2  1  0.00000000  0.00000000  0.50000000  1
  Rh  Rh3  1  0.00000000  0.50000000  0.00000000  1
  O  O0  1  0.37356870  0.37356870  0.37356870  1
  O  O1  1  0.62643130  0.62643130  0.62643130  1
  O  O2  1  0.91650594  0.33581277  0.33581277  1
  O  O3  1  0.33598345  0.91433624  0.91433624  1
  O  O4  1  0.33581277  0.33581277  0.91650594  1
  O  O5  1  0.91433624  0.91433624  0.33598345  1
  O  O6  1  0.91433624  0.33598345  0.91433624  1
  O  O7  1  0.33581277  0.91650594  0.33581277  1
  O  O8  1  0.08349406  0.66418723  0.66418723  1
  O  O9  1  0.66401655  0.08566376  0.08566376  1
  O  O10  1  0.66418723  0.66418723  0.08349406  1
  O  O11  1  0.08566376  0.08566376  0.66401655  1
  O  O12  1  0.08566376  0.66401655  0.08566376  1
  O  O13  1  0.66418723  0.08349406  0.66418723  1
loop_
_geom_bond_atom_site_label_1
_geom_bond_atom_site_label_2
_geom_bond_distance
_geom_bond_site_symmetry_2
Bi0 O1 2.238726 1_555
Bi0 O0 2.238726 1_555
Bi0 O8 2.449876 1_555
Bi0 O2 2.449876 1_555
Bi0 O10 2.449876 1_555
Bi0 O4 2.449876 1_555
Bi0 O7 2.449876 1_555
Bi0 O13 2.449876 1_555
O0 Y0 2.180989 1_555
O0 Y1 2.180989 1_555
O0 Y2 2.180989 1_555
O1 Y0 2.180989 1_655
O1 Y1 2.180989 1_556
O1 Y2 2.180989 1_565
O2 Rh3 1.986112 1_655
O2 Rh2 1.986112 1_655
O2 Y0 2.453650 1_655
O3 Rh0 1.991546 1_566
O3 Rh1 2.005504 1_566
O3 Y2 2.442098 1_565
O3 Y1 2.442098 1_556
O4 Rh3 1.986111 1_556
O4 Rh1 1.986112 1_556
O4 Y1 2.453650 1_556
O5 Rh0 1.991546 1_665
O5 Rh2 2.005504 1_665
O5 Y2 2.442098 1_565
O5 Y0 2.442098 1_655
O6 Rh0 1.991546 1_656
O6 Rh3 2.005504 1_656
O6 Y1 2.442098 1_556
O6 Y0 2.442098 1_655
O7 Rh2 1.986111 1_565
O7 Rh1 1.986111 1_565
O7 Y2 2.453650 1_565
O8 Rh3 1.986112 1_556
O8 Rh2 1.986112 1_565
O8 Y0 2.453650 1_555
O9 Rh0 1.991546 1_655
O9 Rh1 2.005504 1_555
O9 Y2 2.442098 1_555
O9 Y1 2.442098 1_555
O10 Rh3 1.986111 1_655
O10 Rh1 1.986112 1_565
O10 Y1 2.453650 1_555
O11 Rh0 1.991546 1_556
O11 Rh2 2.005504 1_555
O11 Y2 2.442098 1_555
O11 Y0 2.442098 1_555
O12 Rh0 1.991546 1_565
O12 Rh3 2.005504 1_555
O12 Y1 2.442098 1_555
O12 Y0 2.442098 1_555
O13 Rh2 1.986111 1_655
O13 Rh1 1.986111 1_556
O13 Y2 2.453650 1_555
