# generated using pymatgen
data_Ba2SnSe5
_symmetry_space_group_name_H-M   'P 1'
_cell_length_a   12.57113500
_cell_length_b   17.59336600
_cell_length_c   18.44793100
_cell_angle_alpha   90.00000000
_cell_angle_beta   90.00000000
_cell_angle_gamma   90.00000000
_symmetry_Int_Tables_number   1
_chemical_formula_structural   Ba2SnSe5
_chemical_formula_sum   'Ba32 Sn16 Se80'
_cell_volume   4080.10268643
_cell_formula_units_Z   16
loop_
 _symmetry_equiv_pos_site_id
 _symmetry_equiv_pos_as_xyz
  1  'x, y, z'
loop_
 _atom_site_type_symbol
 _atom_site_label
 _atom_site_symmetry_multiplicity
 _atom_site_fract_x
 _atom_site_fract_y
 _atom_site_fract_z
 _atom_site_occupancy
  Ba  Ba0  1  0.36336700  0.17744900  0.00320800  1
  Ba  Ba1  1  0.86336700  0.32255100  0.99679200  1
  Ba  Ba2  1  0.63663300  0.67744900  0.49679200  1
  Ba  Ba3  1  0.13663300  0.82255100  0.50320800  1
  Ba  Ba4  1  0.35842500  0.17745000  0.25382900  1
  Ba  Ba5  1  0.85842500  0.32255000  0.74617100  1
  Ba  Ba6  1  0.64157500  0.67745000  0.24617100  1
  Ba  Ba7  1  0.14157500  0.82255000  0.75382900  1
  Ba  Ba8  1  0.49546400  0.42738100  0.74345100  1
  Ba  Ba9  1  0.99546400  0.07261900  0.25654900  1
  Ba  Ba10  1  0.50453600  0.92738100  0.75654900  1
  Ba  Ba11  1  0.00453600  0.57261900  0.24345100  1
  Ba  Ba12  1  0.48902300  0.43448400  0.49418400  1
  Ba  Ba13  1  0.98902300  0.06551600  0.50581600  1
  Ba  Ba14  1  0.51097700  0.93448400  0.00581600  1
  Ba  Ba15  1  0.01097700  0.56551600  0.99418400  1
  Ba  Ba16  1  0.36631400  0.17681100  0.75348200  1
  Ba  Ba17  1  0.86631400  0.32318900  0.24651800  1
  Ba  Ba18  1  0.63368600  0.67681100  0.74651800  1
  Ba  Ba19  1  0.13368600  0.82318900  0.25348200  1
  Ba  Ba20  1  0.86718000  0.31743700  0.49648800  1
  Ba  Ba21  1  0.36718000  0.18256300  0.50351200  1
  Ba  Ba22  1  0.13282000  0.81743700  0.00351200  1
  Ba  Ba23  1  0.63282000  0.68256300  0.99648800  1
  Ba  Ba24  1  0.00559100  0.56650500  0.74613600  1
  Ba  Ba25  1  0.50559100  0.93349500  0.25386400  1
  Ba  Ba26  1  0.99440900  0.06650500  0.75386400  1
  Ba  Ba27  1  0.49440900  0.43349500  0.24613600  1
  Ba  Ba28  1  0.00694600  0.56875900  0.49384900  1
  Ba  Ba29  1  0.50694600  0.93124100  0.50615100  1
  Ba  Ba30  1  0.99305400  0.06875900  0.00615100  1
  Ba  Ba31  1  0.49305400  0.43124100  0.99384900  1
  Sn  Sn0  1  0.18473600  0.37120600  0.87138300  1
  Sn  Sn1  1  0.68473600  0.12879400  0.12861700  1
  Sn  Sn2  1  0.81526400  0.87120600  0.62861700  1
  Sn  Sn3  1  0.31526400  0.62879400  0.37138300  1
  Sn  Sn4  1  0.18147900  0.36735200  0.07281400  1
  Sn  Sn5  1  0.68147900  0.13264800  0.92718600  1
  Sn  Sn6  1  0.81852100  0.86735200  0.42718600  1
  Sn  Sn7  1  0.31852100  0.63264800  0.57281400  1
  Sn  Sn8  1  0.67937100  0.13033800  0.32868600  1
  Sn  Sn9  1  0.17937100  0.36966200  0.67131400  1
  Sn  Sn10  1  0.32062900  0.63033800  0.17131400  1
  Sn  Sn11  1  0.82062900  0.86966200  0.82868600  1
  Sn  Sn12  1  0.15151900  0.31415700  0.36004400  1
  Sn  Sn13  1  0.65151900  0.18584300  0.63995600  1
  Sn  Sn14  1  0.84848100  0.81415700  0.13995600  1
  Sn  Sn15  1  0.34848100  0.68584300  0.86004400  1
  Se  Se0  1  0.35757000  0.32519900  0.36983100  1
  Se  Se1  1  0.85757000  0.17480100  0.63016900  1
  Se  Se2  1  0.64243000  0.82519900  0.13016900  1
  Se  Se3  1  0.14243000  0.67480100  0.86983100  1
  Se  Se4  1  0.36214800  0.32457000  0.12362300  1
  Se  Se5  1  0.86214800  0.17543000  0.87637700  1
  Se  Se6  1  0.63785200  0.82457000  0.37637700  1
  Se  Se7  1  0.13785200  0.67543000  0.62362300  1
  Se  Se8  1  0.01391800  0.42259000  0.36851300  1
  Se  Se9  1  0.51391800  0.07741000  0.63148700  1
  Se  Se10  1  0.98608200  0.92259000  0.13148700  1
  Se  Se11  1  0.48608200  0.57741000  0.86851300  1
  Se  Se12  1  0.50810200  0.07498700  0.87940800  1
  Se  Se13  1  0.00810200  0.42501300  0.12059200  1
  Se  Se14  1  0.49189800  0.57498700  0.62059200  1
  Se  Se15  1  0.99189800  0.92501300  0.37940800  1
  Se  Se16  1  0.37988900  0.31595100  0.87287700  1
  Se  Se17  1  0.87988900  0.18404900  0.12712300  1
  Se  Se18  1  0.62011100  0.81595100  0.62712300  1
  Se  Se19  1  0.12011100  0.68404900  0.37287700  1
  Se  Se20  1  0.85748600  0.17399800  0.38101400  1
  Se  Se21  1  0.35748600  0.32600200  0.61898600  1
  Se  Se22  1  0.14251400  0.67399800  0.11898600  1
  Se  Se23  1  0.64251400  0.82600200  0.88101400  1
  Se  Se24  1  0.48984200  0.07524800  0.13149200  1
  Se  Se25  1  0.98984200  0.42475200  0.86850800  1
  Se  Se26  1  0.51015800  0.57524800  0.36850800  1
  Se  Se27  1  0.01015800  0.92475200  0.63149200  1
  Se  Se28  1  0.62111800  0.23842900  0.24186100  1
  Se  Se29  1  0.12111800  0.26157100  0.75813900  1
  Se  Se30  1  0.37888200  0.73842900  0.25813900  1
  Se  Se31  1  0.87888200  0.76157100  0.74186100  1
  Se  Se32  1  0.18824700  0.10128200  0.12832400  1
  Se  Se33  1  0.68824700  0.39871800  0.87167600  1
  Se  Se34  1  0.81175300  0.60128200  0.37167600  1
  Se  Se35  1  0.31175300  0.89871800  0.62832400  1
  Se  Se36  1  0.50826800  0.07662500  0.38309800  1
  Se  Se37  1  0.00826800  0.42337500  0.61690200  1
  Se  Se38  1  0.49173200  0.57662500  0.11690200  1
  Se  Se39  1  0.99173200  0.92337500  0.88309800  1
  Se  Se40  1  0.23902800  0.47441100  0.76179900  1
  Se  Se41  1  0.73902800  0.02558900  0.23820100  1
  Se  Se42  1  0.76097200  0.97441100  0.73820100  1
  Se  Se43  1  0.26097200  0.52558900  0.26179900  1
  Se  Se44  1  0.62139200  0.23712900  0.01986600  1
  Se  Se45  1  0.12139200  0.26287100  0.98013400  1
  Se  Se46  1  0.37860800  0.73712900  0.48013400  1
  Se  Se47  1  0.87860800  0.76287100  0.51986600  1
  Se  Se48  1  0.18874100  0.10370900  0.38740100  1
  Se  Se49  1  0.68874100  0.39629100  0.61259900  1
  Se  Se50  1  0.81125900  0.60370900  0.11259900  1
  Se  Se51  1  0.31125900  0.89629100  0.88740100  1
  Se  Se52  1  0.18761000  0.10740100  0.88037400  1
  Se  Se53  1  0.68761000  0.39259900  0.11962600  1
  Se  Se54  1  0.81239000  0.60740100  0.61962600  1
  Se  Se55  1  0.31239000  0.89259900  0.38037400  1
  Se  Se56  1  0.23938600  0.47269100  0.98123900  1
  Se  Se57  1  0.73938600  0.02730900  0.01876100  1
  Se  Se58  1  0.76061400  0.97269100  0.51876100  1
  Se  Se59  1  0.26061400  0.52730900  0.48123900  1
  Se  Se60  1  0.81106800  0.60840200  0.87358500  1
  Se  Se61  1  0.31106800  0.89159800  0.12641500  1
  Se  Se62  1  0.18893200  0.10840200  0.62641500  1
  Se  Se63  1  0.68893200  0.39159800  0.37358500  1
  Se  Se64  1  0.24874300  0.99605900  0.05322900  1
  Se  Se65  1  0.74874300  0.50394100  0.94677100  1
  Se  Se66  1  0.75125700  0.49605900  0.44677100  1
  Se  Se67  1  0.25125700  0.00394100  0.55322900  1
  Se  Se68  1  0.25038100  0.99728300  0.30670100  1
  Se  Se69  1  0.75038100  0.50271700  0.69329900  1
  Se  Se70  1  0.74961900  0.49728300  0.19329900  1
  Se  Se71  1  0.24961900  0.00271700  0.80670100  1
  Se  Se72  1  0.11245100  0.23409900  0.47407700  1
  Se  Se73  1  0.61245100  0.26590100  0.52592300  1
  Se  Se74  1  0.88754900  0.73409900  0.02592300  1
  Se  Se75  1  0.38754900  0.76590100  0.97407700  1
  Se  Se76  1  0.11035700  0.24844800  0.23867400  1
  Se  Se77  1  0.61035700  0.25155200  0.76132600  1
  Se  Se78  1  0.88964300  0.74844800  0.26132600  1
  Se  Se79  1  0.38964300  0.75155200  0.73867400  1
loop_
_geom_bond_atom_site_label_1
_geom_bond_atom_site_label_2
_geom_bond_distance
_geom_bond_site_symmetry_2
Ba0 Se24 3.370695 1_555
Ba0 Se52 3.396381 1_554
Ba0 Se4 3.410933 1_555
Ba0 Se45 3.419494 1_554
Ba0 Se44 3.423194 1_555
Ba0 Se16 3.429514 1_554
Ba0 Se12 3.431626 1_554
Ba0 Se32 3.459707 1_555
Ba0 Se64 3.621053 1_545
Ba1 Se25 3.370695 1_555
Ba1 Se53 3.396381 1_556
Ba1 Se5 3.410933 1_555
Ba1 Se44 3.419494 1_556
Ba1 Se45 3.423194 1_655
Ba1 Se17 3.429514 1_556
Ba1 Se13 3.431626 1_656
Ba1 Se33 3.459707 1_555
Ba1 Se65 3.621053 1_555
Ba2 Se26 3.370695 1_555
Ba2 Se54 3.396381 1_555
Ba2 Se6 3.410933 1_555
Ba2 Se47 3.419494 1_555
Ba2 Se46 3.423194 1_555
Ba2 Se18 3.429514 1_555
Ba2 Se14 3.431626 1_555
Ba2 Se34 3.459707 1_555
Ba2 Se66 3.621053 1_555
Ba3 Se27 3.370695 1_555
Ba3 Se55 3.396381 1_555
Ba3 Se7 3.410933 1_555
Ba3 Se46 3.419494 1_555
Ba3 Se47 3.423194 1_455
Ba3 Se19 3.429514 1_555
Ba3 Se15 3.431626 1_455
Ba3 Se35 3.459707 1_555
Ba3 Se67 3.621053 1_565
Ba4 Se24 3.325030 1_555
Ba4 Se0 3.366986 1_555
Ba4 Se76 3.370967 1_555
Ba4 Se32 3.425365 1_555
Ba4 Se28 3.479254 1_555
Ba4 Se48 3.507884 1_555
Ba4 Se36 3.518788 1_555
Ba4 Se4 3.531491 1_555
Ba4 Se68 3.583775 1_545
Ba5 Se25 3.325030 1_555
Ba5 Se1 3.366986 1_555
Ba5 Se77 3.370967 1_555
Ba5 Se33 3.425365 1_555
Ba5 Se29 3.479254 1_655
Ba5 Se49 3.507884 1_555
Ba5 Se37 3.518788 1_655
Ba5 Se5 3.531491 1_555
Ba5 Se69 3.583775 1_555
Ba6 Se26 3.325030 1_555
Ba6 Se2 3.366986 1_555
Ba6 Se78 3.370967 1_555
Ba6 Se34 3.425365 1_555
Ba6 Se30 3.479254 1_555
Ba6 Se50 3.507884 1_555
Ba6 Se38 3.518788 1_555
Ba6 Se6 3.531491 1_555
Ba6 Se70 3.583775 1_555
Ba7 Se27 3.325030 1_555
Ba7 Se3 3.366986 1_555
Ba7 Se79 3.370967 1_555
Ba7 Se35 3.425365 1_555
Ba7 Se31 3.479254 1_455
Ba7 Se51 3.507884 1_555
Ba7 Se39 3.518788 1_455
Ba7 Se7 3.531491 1_555
Ba7 Se71 3.583775 1_565
Ba8 Se40 3.345351 1_555
Ba8 Se21 3.385561 1_555
Ba8 Se16 3.413951 1_555
Ba8 Se33 3.423913 1_555
Ba8 Se77 3.429886 1_555
Ba8 Se14 3.447147 1_555
Ba8 Se49 3.468404 1_555
Ba8 Se11 3.507681 1_555
Ba8 Se69 3.589172 1_555
Ba9 Se41 3.345351 1_555
Ba9 Se20 3.385561 1_555
Ba9 Se17 3.413951 1_555
Ba9 Se32 3.423913 1_655
Ba9 Se76 3.429886 1_655
Ba9 Se15 3.447147 1_545
Ba9 Se48 3.468404 1_655
Ba9 Se10 3.507681 1_545
Ba9 Se68 3.589172 1_645
Ba10 Se42 3.345351 1_555
Ba10 Se23 3.385561 1_555
Ba10 Se18 3.413951 1_555
Ba10 Se35 3.423913 1_555
Ba10 Se79 3.429886 1_555
Ba10 Se12 3.447147 1_565
Ba10 Se51 3.468404 1_555
Ba10 Se9 3.507681 1_565
Ba10 Se71 3.589172 1_565
Ba11 Se43 3.345351 1_555
Ba11 Se22 3.385561 1_555
Ba11 Se19 3.413951 1_555
Ba11 Se34 3.423913 1_455
Ba11 Se78 3.429886 1_455
Ba11 Se13 3.447147 1_555
Ba11 Se50 3.468404 1_455
Ba11 Se8 3.507681 1_555
Ba11 Se70 3.589172 1_455
Ba12 Se59 3.311913 1_555
Ba12 Se49 3.395162 1_555
Ba12 Se73 3.398118 1_555
Ba12 Se14 3.398494 1_555
Ba12 Se26 3.402789 1_555
Ba12 Se21 3.417261 1_555
Ba12 Se0 3.419098 1_555
Ba12 Se63 3.440147 1_555
Ba12 Se66 3.578554 1_555
Ba13 Se58 3.311913 1_545
Ba13 Se48 3.395162 1_655
Ba13 Se72 3.398118 1_655
Ba13 Se15 3.398494 1_545
Ba13 Se27 3.402789 1_645
Ba13 Se20 3.417261 1_555
Ba13 Se1 3.419098 1_555
Ba13 Se62 3.440147 1_655
Ba13 Se67 3.578554 1_655
Ba14 Se57 3.311913 1_565
Ba14 Se51 3.395162 1_554
Ba14 Se75 3.398118 1_554
Ba14 Se12 3.398494 1_564
Ba14 Se24 3.402789 1_565
Ba14 Se23 3.417261 1_554
Ba14 Se2 3.419098 1_555
Ba14 Se61 3.440147 1_555
Ba14 Se64 3.578554 1_555
Ba15 Se56 3.311913 1_555
Ba15 Se50 3.395162 1_456
Ba15 Se74 3.398118 1_456
Ba15 Se13 3.398494 1_556
Ba15 Se25 3.402789 1_455
Ba15 Se22 3.417261 1_556
Ba15 Se3 3.419098 1_555
Ba15 Se60 3.440147 1_455
Ba15 Se65 3.578554 1_455
Ba16 Se16 3.297415 1_555
Ba16 Se77 3.340961 1_555
Ba16 Se9 3.400935 1_555
Ba16 Se29 3.425236 1_555
Ba16 Se12 3.432632 1_555
Ba16 Se62 3.451935 1_555
Ba16 Se52 3.466674 1_555
Ba16 Se71 3.535152 1_555
Ba16 Se21 3.613580 1_555
Ba17 Se17 3.297415 1_555
Ba17 Se76 3.340961 1_655
Ba17 Se8 3.400935 1_655
Ba17 Se28 3.425236 1_555
Ba17 Se13 3.432632 1_655
Ba17 Se63 3.451935 1_555
Ba17 Se53 3.466674 1_555
Ba17 Se70 3.535152 1_555
Ba17 Se20 3.613580 1_555
Ba18 Se18 3.297415 1_555
Ba18 Se79 3.340961 1_555
Ba18 Se11 3.400935 1_555
Ba18 Se31 3.425236 1_555
Ba18 Se14 3.432632 1_555
Ba18 Se60 3.451935 1_555
Ba18 Se54 3.466674 1_555
Ba18 Se69 3.535152 1_555
Ba18 Se23 3.613580 1_555
Ba19 Se19 3.297415 1_555
Ba19 Se78 3.340961 1_455
Ba19 Se10 3.400935 1_455
Ba19 Se30 3.425236 1_555
Ba19 Se15 3.432632 1_455
Ba19 Se61 3.451935 1_555
Ba19 Se55 3.466674 1_555
Ba19 Se68 3.535152 1_555
Ba19 Se22 3.613580 1_555
Ba20 Se20 3.304735 1_555
Ba20 Se73 3.372128 1_555
Ba20 Se49 3.397746 1_555
Ba20 Se37 3.399136 1_655
Ba20 Se72 3.439130 1_655
Ba20 Se63 3.444433 1_555
Ba20 Se1 3.520477 1_555
Ba20 Se8 3.521220 1_655
Ba20 Se66 3.583376 1_555
Ba21 Se21 3.304735 1_555
Ba21 Se72 3.372128 1_555
Ba21 Se48 3.397746 1_555
Ba21 Se36 3.399136 1_555
Ba21 Se73 3.439130 1_555
Ba21 Se62 3.444433 1_555
Ba21 Se0 3.520477 1_555
Ba21 Se9 3.521220 1_555
Ba21 Se67 3.583376 1_555
Ba22 Se22 3.304735 1_555
Ba22 Se75 3.372128 1_554
Ba22 Se51 3.397746 1_554
Ba22 Se39 3.399136 1_454
Ba22 Se74 3.439130 1_455
Ba22 Se61 3.444433 1_555
Ba22 Se3 3.520477 1_554
Ba22 Se10 3.521220 1_455
Ba22 Se64 3.583376 1_555
Ba23 Se23 3.304735 1_555
Ba23 Se74 3.372128 1_556
Ba23 Se50 3.397746 1_556
Ba23 Se38 3.399136 1_556
Ba23 Se75 3.439130 1_555
Ba23 Se60 3.444433 1_555
Ba23 Se2 3.520477 1_556
Ba23 Se11 3.521220 1_555
Ba23 Se65 3.583376 1_555
Ba24 Se40 3.364576 1_555
Ba24 Se25 3.369740 1_455
Ba24 Se7 3.397794 1_555
Ba24 Se3 3.434595 1_555
Ba24 Se54 3.444325 1_455
Ba24 Se37 3.467865 1_555
Ba24 Se60 3.471482 1_455
Ba24 Se69 3.535901 1_455
Ba24 Se31 3.784335 1_455
Ba25 Se41 3.364576 1_565
Ba25 Se24 3.369740 1_565
Ba25 Se6 3.397794 1_555
Ba25 Se2 3.434595 1_555
Ba25 Se55 3.444325 1_555
Ba25 Se36 3.467865 1_565
Ba25 Se61 3.471482 1_555
Ba25 Se68 3.535901 1_555
Ba25 Se30 3.784335 1_555
Ba26 Se42 3.364576 1_545
Ba26 Se27 3.369740 1_645
Ba26 Se5 3.397794 1_555
Ba26 Se1 3.434595 1_555
Ba26 Se52 3.444325 1_655
Ba26 Se39 3.467865 1_545
Ba26 Se62 3.471482 1_655
Ba26 Se71 3.535901 1_655
Ba26 Se29 3.784335 1_655
Ba27 Se43 3.364576 1_555
Ba27 Se26 3.369740 1_555
Ba27 Se4 3.397794 1_555
Ba27 Se0 3.434595 1_555
Ba27 Se53 3.444325 1_555
Ba27 Se38 3.467865 1_555
Ba27 Se63 3.471482 1_555
Ba27 Se70 3.535901 1_555
Ba27 Se28 3.784335 1_555
Ba28 Se59 3.279476 1_555
Ba28 Se19 3.334426 1_555
Ba28 Se34 3.380579 1_455
Ba28 Se37 3.419915 1_555
Ba28 Se54 3.439184 1_455
Ba28 Se7 3.458564 1_555
Ba28 Se8 3.459343 1_555
Ba28 Se66 3.566784 1_455
Ba28 Se47 3.807370 1_455
Ba29 Se58 3.279476 1_555
Ba29 Se18 3.334426 1_555
Ba29 Se35 3.380579 1_555
Ba29 Se36 3.419915 1_565
Ba29 Se55 3.439184 1_555
Ba29 Se6 3.458564 1_555
Ba29 Se9 3.459343 1_565
Ba29 Se67 3.566784 1_565
Ba29 Se46 3.807370 1_555
Ba30 Se57 3.279476 1_555
Ba30 Se17 3.334426 1_555
Ba30 Se32 3.380579 1_655
Ba30 Se39 3.419915 1_544
Ba30 Se52 3.439184 1_654
Ba30 Se5 3.458564 1_554
Ba30 Se10 3.459343 1_545
Ba30 Se64 3.566784 1_645
Ba30 Se45 3.807370 1_654
Ba31 Se56 3.279476 1_555
Ba31 Se16 3.334426 1_555
Ba31 Se33 3.380579 1_555
Ba31 Se38 3.419915 1_556
Ba31 Se53 3.439184 1_556
Ba31 Se4 3.458564 1_556
Ba31 Se11 3.459343 1_555
Ba31 Se65 3.566784 1_555
Ba31 Se44 3.807370 1_556
Se0 Sn12 2.603837 1_555
Se1 Sn13 2.603837 1_555
Se2 Sn14 2.603837 1_555
Se3 Sn15 2.603837 1_555
Se4 Sn4 2.569730 1_555
Se5 Sn5 2.569730 1_555
Se6 Sn6 2.569730 1_555
Se7 Sn7 2.569730 1_555
Se8 Sn12 2.579912 1_555
Se9 Sn13 2.579912 1_555
Se10 Sn14 2.579912 1_555
Se11 Sn15 2.579912 1_555
Se12 Sn5 2.560548 1_555
Se13 Sn4 2.560548 1_555
Se14 Sn7 2.560548 1_555
Se15 Sn6 2.560548 1_555
Se16 Sn0 2.639022 1_555
Se17 Sn1 2.639022 1_555
Se18 Sn2 2.639022 1_555
Se19 Sn3 2.639022 1_555
Se20 Sn8 2.556464 1_555
Se21 Sn9 2.556464 1_555
Se22 Sn10 2.556464 1_555
Se23 Sn11 2.556464 1_555
Se24 Sn1 2.625447 1_555
Se25 Sn0 2.625447 1_655
Se26 Sn3 2.625447 1_555
Se27 Sn2 2.625447 1_455
Se28 Sn8 2.591959 1_555
Se28 Sn1 2.953721 1_555
Se29 Sn9 2.591959 1_555
Se29 Sn0 2.953721 1_555
Se30 Sn10 2.591959 1_555
Se30 Sn3 2.953721 1_555
Se31 Sn11 2.591959 1_555
Se31 Sn2 2.953721 1_555
Se32 Se64 2.434049 1_545
Se33 Se65 2.434049 1_555
Se34 Se66 2.434049 1_555
Se35 Se67 2.434049 1_565
Se36 Sn8 2.554844 1_555
Se37 Sn9 2.554844 1_555
Se38 Sn10 2.554844 1_555
Se39 Sn11 2.554844 1_555
Se40 Sn9 2.597133 1_555
Se40 Sn0 2.801702 1_555
Se41 Sn8 2.597133 1_555
Se41 Sn1 2.801702 1_555
Se42 Sn11 2.597133 1_555
Se42 Sn2 2.801702 1_555
Se43 Sn10 2.597133 1_555
Se43 Sn3 2.801702 1_555
Se44 Sn5 2.621585 1_554
Se44 Sn1 2.879551 1_555
Se45 Sn4 2.621585 1_556
Se45 Sn0 2.879551 1_555
Se46 Sn7 2.621585 1_555
Se46 Sn3 2.879551 1_555
Se47 Sn6 2.621585 1_555
Se47 Sn2 2.879551 1_555
Se48 Se68 2.514491 1_545
Se48 Se72 2.956178 1_555
Se49 Se69 2.514491 1_555
Se49 Se73 2.956178 1_555
Se50 Se70 2.514491 1_555
Se50 Se74 2.956178 1_555
Se51 Se71 2.514491 1_565
Se51 Se75 2.956178 1_555
Se52 Se71 2.418030 1_555
Se53 Se70 2.418030 1_555
Se54 Se69 2.418030 1_555
Se55 Se68 2.418030 1_555
Se56 Sn4 2.611224 1_556
Se56 Sn0 2.786940 1_555
Se57 Sn5 2.611224 1_554
Se57 Sn1 2.786940 1_555
Se58 Sn6 2.611224 1_555
Se58 Sn2 2.786940 1_555
Se59 Sn7 2.611224 1_555
Se59 Sn3 2.786940 1_555
Se60 Se65 2.411286 1_555
Se61 Se64 2.411286 1_555
Se62 Se67 2.411286 1_555
Se63 Se66 2.411286 1_555
Se72 Sn12 2.578855 1_555
Se73 Sn13 2.578855 1_555
Se74 Sn14 2.578855 1_555
Se75 Sn15 2.578855 1_555
Se76 Sn12 2.572436 1_555
Se77 Sn13 2.572436 1_555
Se78 Sn14 2.572436 1_555
Se79 Sn15 2.572436 1_555
