# generated using pymatgen
data_Ti10BeSb5
_symmetry_space_group_name_H-M   'P 1'
_cell_length_a   7.83898443
_cell_length_b   7.83898490
_cell_length_c   7.83898398
_cell_angle_alpha   96.28719121
_cell_angle_beta   96.28719377
_cell_angle_gamma   141.35000348
_symmetry_Int_Tables_number   1
_chemical_formula_structural   Ti10BeSb5
_chemical_formula_sum   'Ti10 Be1 Sb5'
_cell_volume   283.90202545
_cell_formula_units_Z   1
loop_
 _symmetry_equiv_pos_site_id
 _symmetry_equiv_pos_as_xyz
  1  'x, y, z'
loop_
 _atom_site_type_symbol
 _atom_site_label
 _atom_site_symmetry_multiplicity
 _atom_site_fract_x
 _atom_site_fract_y
 _atom_site_fract_z
 _atom_site_occupancy
  Ti  Ti0  1  0.50000000  0.00000000  0.50000000  1
  Ti  Ti1  1  0.00000000  0.50000000  0.50000000  1
  Ti  Ti2  1  0.48069731  0.33845001  0.29215568  1
  Ti  Ti3  1  0.04629533  0.18854263  0.70784432  1
  Ti  Ti4  1  0.51930269  0.81145737  0.85775270  1
  Ti  Ti5  1  0.95370467  0.66154999  0.14224730  1
  Ti  Ti6  1  0.33845001  0.04629533  0.85775270  1
  Ti  Ti7  1  0.18854263  0.48069731  0.14224730  1
  Ti  Ti8  1  0.81145737  0.95370467  0.29215568  1
  Ti  Ti9  1  0.66154999  0.51930269  0.70784432  1
  Be  Be0  1  0.50000000  0.50000000  0.00000000  1
  Sb  Sb0  1  0.91345578  0.41345578  0.82691155  1
  Sb  Sb1  1  0.58654422  0.08654422  0.17308845  1
  Sb  Sb2  1  0.08654422  0.91345578  0.50000000  1
  Sb  Sb3  1  0.41345578  0.58654422  0.50000000  1
  Sb  Sb4  1  0.00000000  0.00000000  0.00000000  1
loop_
_geom_bond_atom_site_label_1
_geom_bond_atom_site_label_2
_geom_bond_distance
_geom_bond_site_symmetry_2
Ti0 Ti1 2.594125 1_545
Ti0 Ti1 2.594125 1_655
Be0 Sb4 2.594125 1_665
Be0 Sb4 2.594125 1_555
Be0 Ti5 2.698788 1_555
Be0 Ti7 2.698788 1_555
Be0 Ti4 2.698788 1_554
Be0 Ti6 2.698789 1_554
Be0 Ti3 2.698793 1_554
Be0 Ti8 2.698793 1_555
Be0 Ti2 2.698795 1_555
Be0 Ti9 2.698795 1_554
Sb0 Ti0 2.744154 1_555
Sb0 Ti1 2.744154 1_655
Sb0 Ti9 2.790008 1_555
Sb0 Ti3 2.790008 1_655
Sb0 Ti7 2.794636 1_656
Sb0 Ti5 2.794636 1_556
Sb0 Ti4 2.964294 1_655
Sb0 Ti6 2.964294 1_555
Sb0 Ti4 3.084416 1_545
Sb0 Ti6 3.084416 1_665
Sb1 Ti1 2.744154 1_655
Sb1 Ti0 2.744154 1_555
Sb1 Ti2 2.790008 1_555
Sb1 Ti8 2.790008 1_545
Sb1 Ti6 2.794636 1_554
Sb1 Ti4 2.794636 1_544
Sb1 Ti5 2.964294 1_555
Sb1 Ti7 2.964294 1_545
Sb1 Ti5 3.084416 1_445
Sb1 Ti7 3.084416 1_655
Sb2 Ti0 2.744154 1_565
Sb2 Ti1 2.744154 1_555
Sb2 Ti6 2.790005 1_565
Sb2 Ti5 2.790006 1_455
Sb2 Ti8 2.794632 1_455
Sb2 Ti3 2.794632 1_565
Sb2 Ti2 2.964292 1_455
Sb2 Ti9 2.964292 1_565
Sb2 Ti9 3.084410 1_455
Sb2 Ti2 3.084410 1_565
Sb3 Ti1 2.744154 1_555
Sb3 Ti0 2.744154 1_565
Sb3 Ti7 2.790005 1_555
Sb3 Ti4 2.790006 1_555
Sb3 Ti9 2.794632 1_555
Sb3 Ti2 2.794632 1_555
Sb3 Ti8 2.964288 1_555
Sb3 Ti3 2.964288 1_555
Sb3 Ti3 3.084415 1_665
Sb3 Ti8 3.084415 1_445
Sb4 Ti4 2.765276 1_444
Sb4 Ti6 2.765276 1_554
Sb4 Ti5 2.765276 1_445
Sb4 Ti7 2.765276 1_555
Sb4 Ti2 2.765280 1_555
Sb4 Ti9 2.765281 1_444
Sb4 Ti8 2.765283 1_445
Sb4 Ti3 2.765283 1_554
