# generated using pymatgen
data_Li4As6Ir5Pt2
_symmetry_space_group_name_H-M   'P 1'
_cell_length_a   6.95989902
_cell_length_b   6.95077175
_cell_length_c   6.95077205
_cell_angle_alpha   110.02582101
_cell_angle_beta   109.16848298
_cell_angle_gamma   109.16847847
_symmetry_Int_Tables_number   1
_chemical_formula_structural   Li4As6Ir5Pt2
_chemical_formula_sum   'Li4 As6 Ir5 Pt2'
_cell_volume   258.99724931
_cell_formula_units_Z   1
loop_
 _symmetry_equiv_pos_site_id
 _symmetry_equiv_pos_as_xyz
  1  'x, y, z'
loop_
 _atom_site_type_symbol
 _atom_site_label
 _atom_site_symmetry_multiplicity
 _atom_site_fract_x
 _atom_site_fract_y
 _atom_site_fract_z
 _atom_site_occupancy
  Li  Li0  1  0.00000000  0.00014604  0.50238854  1
  Li  Li1  1  0.50000000  0.00020912  0.99979088  1
  Li  Li2  1  1.00000000  0.49761146  0.99985396  1
  Li  Li3  1  0.50000000  0.50020912  0.49979088  1
  As  As0  1  0.69587377  0.68890608  0.00696869  1
  As  As1  1  0.31829926  0.31213824  0.00616102  1
  As  As2  1  1.00000000  0.69495323  0.68433869  1
  As  As3  1  0.00000000  0.31566131  0.30504677  1
  As  As4  1  0.68170074  0.99383898  0.68786176  1
  As  As5  1  0.30412623  0.99303131  0.31109392  1
  Ir  Ir0  1  0.00000000  0.99969140  0.00030860  1
  Ir  Ir1  1  0.50000000  0.25073507  0.74926493  1
  Ir  Ir2  1  0.50000000  0.75073507  0.24926493  1
  Ir  Ir3  1  0.75187614  0.50113813  0.25073801  1
  Ir  Ir4  1  0.24812386  0.74926199  0.49886187  1
  Pt  Pt0  1  0.25065454  0.50119449  0.74946005  1
  Pt  Pt1  1  0.74934546  0.25053995  0.49880551  1
loop_
_geom_bond_atom_site_label_1
_geom_bond_atom_site_label_2
_geom_bond_distance
_geom_bond_site_symmetry_2
Li0 Pt0 2.840447 1_555
Li0 Pt1 2.840447 1_455
Li1 Pt0 2.828552 1_545
Li1 Pt1 2.828552 1_556
Li2 Pt1 2.840447 1_555
Li2 Pt0 2.840447 1_655
Li3 Pt1 2.828552 1_555
Li3 Pt0 2.828552 1_555
As0 Ir3 2.478135 1_555
As0 Ir2 2.505251 1_555
As0 Ir1 2.505257 1_554
As0 Ir0 2.505812 1_655
As0 Pt0 2.571227 1_554
As0 Li0 2.850030 1_665
As0 Li2 2.850036 1_554
As0 Li1 2.917085 1_564
As0 Li3 2.917091 1_554
As1 Ir3 2.494054 1_555
As1 Ir2 2.507044 1_555
As1 Ir1 2.507044 1_554
As1 Ir0 2.519265 1_545
As1 Pt0 2.567601 1_554
As1 Li1 2.841423 1_554
As1 Li3 2.841423 1_555
As1 Li0 2.902073 1_554
As1 Li2 2.902073 1_454
As2 Ir0 2.474669 1_656
As2 Ir3 2.480734 1_555
As2 Ir4 2.480734 1_655
As2 Pt1 2.550278 1_555
As2 Pt0 2.550278 1_655
As2 Li0 2.817252 1_665
As2 Li1 2.893748 1_665
As2 Li3 2.893748 1_555
As2 Li2 2.958268 1_555
As3 Ir0 2.474669 1_545
As3 Ir4 2.480734 1_555
As3 Ir3 2.480734 1_455
As3 Pt0 2.550278 1_555
As3 Pt1 2.550278 1_455
As3 Li2 2.817252 1_454
As3 Li1 2.893748 1_454
As3 Li3 2.893748 1_555
As3 Li0 2.958268 1_555
As4 Ir4 2.494054 1_555
As4 Ir2 2.507044 1_555
As4 Ir1 2.507044 1_565
As4 Ir0 2.519265 1_656
As4 Pt1 2.567601 1_565
As4 Li3 2.841423 1_555
As4 Li1 2.841423 1_565
As4 Li2 2.902073 1_565
As4 Li0 2.902073 1_665
As5 Ir4 2.478135 1_555
As5 Ir2 2.505251 1_555
As5 Ir1 2.505257 1_565
As5 Ir0 2.505812 1_555
As5 Pt1 2.571227 1_565
As5 Li2 2.850030 1_454
As5 Li0 2.850036 1_565
As5 Li1 2.917086 1_564
As5 Li3 2.917091 1_565
Ir1 Pt0 2.833069 1_555
Ir1 Pt1 2.833069 1_555
Ir1 Li3 2.841328 1_555
Ir1 Ir4 2.842652 1_545
Ir1 Ir3 2.842652 1_556
Ir1 Li2 2.852983 1_555
Ir1 Li0 2.852983 1_555
Ir1 Li1 2.853309 1_555
Ir2 Pt1 2.833069 1_565
Ir2 Pt0 2.833069 1_554
Ir2 Li1 2.841328 1_564
Ir2 Ir3 2.842652 1_555
Ir2 Ir4 2.842652 1_555
Ir2 Li0 2.852983 1_665
Ir2 Li2 2.852983 1_454
Ir2 Li3 2.853309 1_555
Ir3 Li0 2.828417 1_665
Ir3 Li2 2.828418 1_554
Ir3 Ir4 2.831477 1_655
Ir3 Li1 2.839541 1_554
Ir3 Li3 2.839541 1_555
Ir3 Pt1 2.839757 1_555
Ir4 Li2 2.828417 1_454
Ir4 Li0 2.828418 1_565
Ir4 Li1 2.839541 1_565
Ir4 Li3 2.839541 1_555
Ir4 Pt0 2.839757 1_555
Pt0 Pt1 2.860356 1_455
