# generated using pymatgen
data_Y(NbSe2)3
_symmetry_space_group_name_H-M   'P 1'
_cell_length_a   6.09358285
_cell_length_b   6.09358308
_cell_length_c   14.34276055
_cell_angle_alpha   90.00000000
_cell_angle_beta   90.00000000
_cell_angle_gamma   120.00000955
_symmetry_Int_Tables_number   1
_chemical_formula_structural   Y(NbSe2)3
_chemical_formula_sum   'Y2 Nb6 Se12'
_cell_volume   461.22070402
_cell_formula_units_Z   2
loop_
 _symmetry_equiv_pos_site_id
 _symmetry_equiv_pos_as_xyz
  1  'x, y, z'
loop_
 _atom_site_type_symbol
 _atom_site_label
 _atom_site_symmetry_multiplicity
 _atom_site_fract_x
 _atom_site_fract_y
 _atom_site_fract_z
 _atom_site_occupancy
  Y  Y0  1  0.00000000  0.00000000  0.00000000  1
  Y  Y1  1  0.00000000  0.00000000  0.50000000  1
  Nb  Nb0  1  0.33333300  0.66666700  0.25000000  1
  Nb  Nb1  1  0.00000000  0.00000000  0.25000000  1
  Nb  Nb2  1  0.00000000  0.00000000  0.75000000  1
  Nb  Nb3  1  0.33333300  0.66666700  0.75000000  1
  Nb  Nb4  1  0.66666700  0.33333300  0.75000000  1
  Nb  Nb5  1  0.66666700  0.33333300  0.25000000  1
  Se  Se0  1  0.00000000  0.66082742  0.63385666  1
  Se  Se1  1  0.00000000  0.66082742  0.86614334  1
  Se  Se2  1  1.00000000  0.33917258  0.13385666  1
  Se  Se3  1  1.00000000  0.33917258  0.36614334  1
  Se  Se4  1  0.33917258  0.33917258  0.63385666  1
  Se  Se5  1  0.33917258  0.33917258  0.86614334  1
  Se  Se6  1  0.66082742  0.66082742  0.13385666  1
  Se  Se7  1  0.66082742  0.66082742  0.36614334  1
  Se  Se8  1  0.33917258  1.00000000  0.13385666  1
  Se  Se9  1  0.33917258  1.00000000  0.36614334  1
  Se  Se10  1  0.66082742  0.00000000  0.63385666  1
  Se  Se11  1  0.66082742  0.00000000  0.86614334  1
loop_
_geom_bond_atom_site_label_1
_geom_bond_atom_site_label_2
_geom_bond_distance
_geom_bond_site_symmetry_2
Nb0 Se9 2.613364 1_555
Nb0 Se8 2.613364 1_555
Nb0 Se3 2.613367 1_455
Nb0 Se2 2.613367 1_455
Nb0 Se7 2.613369 1_555
Nb0 Se6 2.613369 1_555
Nb1 Se7 2.654526 1_445
Nb1 Se6 2.654526 1_445
Nb1 Se9 2.654526 1_545
Nb1 Se8 2.654526 1_545
Nb1 Se3 2.654526 1_455
Nb1 Se2 2.654526 1_455
Nb2 Se5 2.654526 1_555
Nb2 Se4 2.654526 1_555
Nb2 Se11 2.654526 1_455
Nb2 Se10 2.654526 1_455
Nb2 Se1 2.654526 1_545
Nb2 Se0 2.654526 1_545
Nb3 Se1 2.613364 1_555
Nb3 Se0 2.613364 1_555
Nb3 Se11 2.613367 1_565
Nb3 Se10 2.613367 1_565
Nb3 Se5 2.613369 1_555
Nb3 Se4 2.613369 1_555
Nb4 Se11 2.613364 1_555
Nb4 Se10 2.613364 1_555
Nb4 Se1 2.613367 1_655
Nb4 Se0 2.613367 1_655
Nb4 Se5 2.613369 1_555
Nb4 Se4 2.613369 1_555
Nb5 Se3 2.613364 1_555
Nb5 Se2 2.613364 1_555
Nb5 Se9 2.613367 1_545
Nb5 Se8 2.613367 1_545
Nb5 Se7 2.613369 1_555
Nb5 Se6 2.613369 1_555
Se0 Y1 2.820901 1_565
Se1 Y0 2.820901 1_566
Se2 Y0 2.820901 1_655
Se3 Y1 2.820901 1_655
Se4 Y1 2.820900 1_555
Se5 Y0 2.820900 1_556
Se6 Y0 2.820900 1_665
Se7 Y1 2.820900 1_665
Se8 Y0 2.820901 1_565
Se9 Y1 2.820901 1_565
Se10 Y1 2.820901 1_655
Se11 Y0 2.820901 1_656
