# generated using pymatgen
data_Na12Ga8Pt3Au
_symmetry_space_group_name_H-M   'P 1'
_cell_length_a   8.93309348
_cell_length_b   8.93309321
_cell_length_c   9.00374506
_cell_angle_alpha   60.25923241
_cell_angle_beta   60.25923519
_cell_angle_gamma   60.00000864
_symmetry_Int_Tables_number   1
_chemical_formula_structural   Na12Ga8Pt3Au
_chemical_formula_sum   'Na12 Ga8 Pt3 Au1'
_cell_volume   510.03807897
_cell_formula_units_Z   1
loop_
 _symmetry_equiv_pos_site_id
 _symmetry_equiv_pos_as_xyz
  1  'x, y, z'
loop_
 _atom_site_type_symbol
 _atom_site_label
 _atom_site_symmetry_multiplicity
 _atom_site_fract_x
 _atom_site_fract_y
 _atom_site_fract_z
 _atom_site_occupancy
  Na  Na0  1  0.45751427  0.04415487  0.04081660  1
  Na  Na1  1  0.79419746  0.20479013  0.79622227  1
  Na  Na2  1  0.45751427  0.45751427  0.04081660  1
  Na  Na3  1  0.79248573  0.79248573  0.20918340  1
  Na  Na4  1  0.20479013  0.79419746  0.79622227  1
  Na  Na5  1  0.04520987  0.45580254  0.45377773  1
  Na  Na6  1  0.04520987  0.04520987  0.45377773  1
  Na  Na7  1  0.20479013  0.20479013  0.79622227  1
  Na  Na8  1  0.45580254  0.04520987  0.45377773  1
  Na  Na9  1  0.79248573  0.20584513  0.20918340  1
  Na  Na10  1  0.04415487  0.45751427  0.04081660  1
  Na  Na11  1  0.20584513  0.79248573  0.20918340  1
  Ga  Ga0  1  0.41854674  0.41854674  0.43198028  1
  Ga  Ga1  1  0.73092625  0.41854674  0.43198028  1
  Ga  Ga2  1  0.83145326  0.83145326  0.81801972  1
  Ga  Ga3  1  0.42256213  0.42256213  0.73231460  1
  Ga  Ga4  1  0.82743787  0.82743787  0.51768540  1
  Ga  Ga5  1  0.41854674  0.73092625  0.43198028  1
  Ga  Ga6  1  0.83145326  0.51907375  0.81801972  1
  Ga  Ga7  1  0.51907375  0.83145326  0.81801972  1
  Pt  Pt0  1  0.62500000  0.12500000  0.62500000  1
  Pt  Pt1  1  0.12500000  0.62500000  0.62500000  1
  Pt  Pt2  1  0.62500000  0.62500000  0.62500000  1
  Au  Au0  1  0.62500000  0.62500000  0.12500000  1
loop_
_geom_bond_atom_site_label_1
_geom_bond_atom_site_label_2
_geom_bond_distance
_geom_bond_site_symmetry_2
Na0 Pt0 3.101173 1_554
Na1 Pt0 3.106218 1_555
Na1 Pt2 3.106218 1_555
Na2 Pt2 3.101172 1_554
Na3 Pt2 3.101172 1_555
Na4 Pt1 3.106218 1_555
Na4 Pt2 3.106218 1_555
Na5 Pt1 3.106218 1_555
Na5 Pt2 3.106218 1_455
Na6 Pt1 3.106218 1_545
Na6 Pt0 3.106218 1_455
Na7 Pt1 3.106218 1_555
Na7 Pt0 3.106218 1_555
Na8 Pt0 3.106218 1_555
Na8 Pt2 3.106218 1_545
Na9 Pt0 3.101173 1_555
Na10 Pt1 3.101173 1_554
Na11 Pt1 3.101173 1_555
Ga0 Pt0 2.668387 1_555
Ga0 Pt1 2.668387 1_555
Ga0 Ga3 2.740195 1_555
Ga0 Ga5 2.790515 1_555
Ga0 Ga1 2.790515 1_555
Ga0 Na7 3.044292 1_555
Ga0 Na8 3.094726 1_555
Ga0 Na5 3.094726 1_555
Ga0 Na11 3.095010 1_555
Ga0 Na9 3.095011 1_555
Ga0 Na2 3.214783 1_555
Ga1 Pt0 2.668386 1_555
Ga1 Pt2 2.668386 1_555
Ga1 Ga3 2.740191 1_555
Ga1 Ga5 2.790516 1_555
Ga1 Na1 3.044292 1_555
Ga1 Na5 3.094726 1_655
Ga1 Na6 3.094726 1_655
Ga1 Na3 3.095010 1_555
Ga1 Na9 3.095010 1_555
Ga1 Na10 3.214783 1_655
Ga2 Pt0 2.668387 1_565
Ga2 Pt1 2.668387 1_655
Ga2 Ga4 2.740195 1_555
Ga2 Ga6 2.790515 1_555
Ga2 Ga7 2.790515 1_555
Ga2 Na6 3.044292 1_665
Ga2 Na1 3.094726 1_565
Ga2 Na4 3.094726 1_655
Ga2 Na10 3.095010 1_656
Ga2 Na0 3.095011 1_566
Ga2 Na3 3.214783 1_556
Ga3 Pt2 2.697639 1_555
Ga3 Pt1 2.697647 1_555
Ga3 Pt0 2.697647 1_555
Ga3 Ga5 2.740191 1_555
Ga3 Na4 3.076252 1_555
Ga3 Na1 3.076252 1_555
Ga3 Na7 3.076259 1_555
Ga3 Na2 3.119114 1_556
Ga3 Na0 3.119119 1_556
Ga3 Na10 3.119119 1_556
Ga4 Pt2 2.697639 1_555
Ga4 Pt1 2.697647 1_655
Ga4 Pt0 2.697647 1_565
Ga4 Ga6 2.740191 1_555
Ga4 Ga7 2.740191 1_555
Ga4 Na5 3.076252 1_655
Ga4 Na8 3.076252 1_565
Ga4 Na6 3.076259 1_665
Ga4 Na3 3.119114 1_555
Ga4 Na9 3.119119 1_565
Ga4 Na11 3.119119 1_655
Ga5 Pt1 2.668386 1_555
Ga5 Pt2 2.668386 1_555
Ga5 Na4 3.044292 1_555
Ga5 Na8 3.094726 1_565
Ga5 Na6 3.094726 1_565
Ga5 Na3 3.095010 1_555
Ga5 Na11 3.095010 1_555
Ga5 Na0 3.214783 1_565
Ga6 Pt1 2.668386 1_655
Ga6 Pt2 2.668386 1_555
Ga6 Ga7 2.790516 1_555
Ga6 Na5 3.044292 1_655
Ga6 Na1 3.094726 1_555
Ga6 Na7 3.094726 1_655
Ga6 Na2 3.095010 1_556
Ga6 Na10 3.095010 1_656
Ga6 Na9 3.214783 1_556
Ga7 Pt0 2.668386 1_565
Ga7 Pt2 2.668386 1_555
Ga7 Na8 3.044292 1_565
Ga7 Na4 3.094726 1_555
Ga7 Na7 3.094726 1_565
Ga7 Na2 3.095010 1_556
Ga7 Na0 3.095010 1_566
Ga7 Na11 3.214783 1_556
Au0 Ga2 2.780017 1_554
Au0 Ga0 2.780017 1_555
Au0 Ga1 2.780017 1_555
Au0 Ga7 2.780017 1_554
Au0 Ga5 2.780017 1_555
Au0 Ga6 2.780017 1_554
Au0 Na3 3.088743 1_555
Au0 Na2 3.088743 1_555
Au0 Na0 3.088743 1_565
Au0 Na9 3.088743 1_555
Au0 Na10 3.088744 1_655
Au0 Na11 3.088744 1_555
