# generated using pymatgen
data_Sr3Cd2(AgP2)2
_symmetry_space_group_name_H-M   'P 1'
_cell_length_a   4.38932719
_cell_length_b   4.38932610
_cell_length_c   15.61403949
_cell_angle_alpha   90.00000000
_cell_angle_beta   90.00000000
_cell_angle_gamma   120.00000086
_symmetry_Int_Tables_number   1
_chemical_formula_structural   Sr3Cd2(AgP2)2
_chemical_formula_sum   'Sr3 Cd2 Ag2 P4'
_cell_volume   260.52038083
_cell_formula_units_Z   1
loop_
 _symmetry_equiv_pos_site_id
 _symmetry_equiv_pos_as_xyz
  1  'x, y, z'
loop_
 _atom_site_type_symbol
 _atom_site_label
 _atom_site_symmetry_multiplicity
 _atom_site_fract_x
 _atom_site_fract_y
 _atom_site_fract_z
 _atom_site_occupancy
  Sr  Sr0  1  0.00000000  0.00000000  0.26732052  1
  Sr  Sr1  1  0.00000000  0.00000000  0.00000000  1
  Sr  Sr2  1  0.00000000  0.00000000  0.73267948  1
  Cd  Cd0  1  0.33333300  0.66666700  0.56308513  1
  Cd  Cd1  1  0.66666700  0.33333300  0.43691487  1
  Ag  Ag0  1  0.33333300  0.66666700  0.13497977  1
  Ag  Ag1  1  0.66666700  0.33333300  0.86502023  1
  P  P0  1  0.33333300  0.66666700  0.86626025  1
  P  P1  1  0.66666700  0.33333300  0.13373975  1
  P  P2  1  0.33333300  0.66666700  0.38566745  1
  P  P3  1  0.66666700  0.33333300  0.61433255  1
loop_
_geom_bond_atom_site_label_1
_geom_bond_atom_site_label_2
_geom_bond_distance
_geom_bond_site_symmetry_2
Cd0 P3 2.657505 1_565
Cd0 P3 2.657506 1_455
Cd0 P3 2.657513 1_555
Cd0 P2 2.770207 1_555
Cd1 P2 2.657505 1_545
Cd1 P2 2.657506 1_655
Cd1 P2 2.657513 1_555
Cd1 P3 2.770207 1_555
Ag0 P1 2.534250 1_565
Ag0 P1 2.534251 1_455
Ag0 P1 2.534258 1_555
Ag0 Sr0 3.269855 1_565
Ag0 Sr0 3.269857 1_555
Ag0 Sr0 3.269858 1_665
Ag0 Sr1 3.296049 1_565
Ag0 Sr1 3.296052 1_555
Ag0 Sr1 3.296053 1_665
Ag1 P0 2.534250 1_545
Ag1 P0 2.534251 1_655
Ag1 P0 2.534258 1_555
Ag1 Sr2 3.269855 1_655
Ag1 Sr2 3.269857 1_665
Ag1 Sr2 3.269858 1_555
Ag1 Sr1 3.296049 1_656
Ag1 Sr1 3.296052 1_666
Ag1 Sr1 3.296053 1_556
P0 Sr2 3.282125 1_565
P0 Sr2 3.282127 1_555
P0 Sr2 3.282128 1_665
P0 Sr1 3.283703 1_566
P0 Sr1 3.283705 1_556
P0 Sr1 3.283706 1_666
P1 Sr0 3.282125 1_655
P1 Sr0 3.282127 1_665
P1 Sr0 3.282128 1_555
P1 Sr1 3.283703 1_655
P1 Sr1 3.283705 1_665
P1 Sr1 3.283706 1_555
P2 Sr0 3.136349 1_565
P2 Sr0 3.136352 1_555
P2 Sr0 3.136353 1_665
P3 Sr2 3.136349 1_655
P3 Sr2 3.136352 1_665
P3 Sr2 3.136353 1_555
