# generated using pymatgen
data_Cs3Nb2AsS11
_symmetry_space_group_name_H-M   'P 1'
_cell_length_a   10.14459310
_cell_length_b   10.14459316
_cell_length_c   9.96292653
_cell_angle_alpha   84.80267482
_cell_angle_beta   84.80267644
_cell_angle_gamma   85.22659687
_symmetry_Int_Tables_number   1
_chemical_formula_structural   Cs3Nb2AsS11
_chemical_formula_sum   'Cs6 Nb4 As2 S22'
_cell_volume   1013.98636733
_cell_formula_units_Z   2
loop_
 _symmetry_equiv_pos_site_id
 _symmetry_equiv_pos_as_xyz
  1  'x, y, z'
loop_
 _atom_site_type_symbol
 _atom_site_label
 _atom_site_symmetry_multiplicity
 _atom_site_fract_x
 _atom_site_fract_y
 _atom_site_fract_z
 _atom_site_occupancy
  Cs  Cs0  1  0.30332887  0.45179093  0.33805309  1
  Cs  Cs1  1  0.45179093  0.30332887  0.83805309  1
  Cs  Cs2  1  0.56689505  0.70131283  0.67189397  1
  Cs  Cs3  1  0.70131283  0.56689505  0.17189397  1
  Cs  Cs4  1  0.93241313  0.09591745  0.92760287  1
  Cs  Cs5  1  0.09591745  0.93241313  0.42760287  1
  Nb  Nb0  1  0.20402928  0.66316761  0.94526553  1
  Nb  Nb1  1  0.66316761  0.20402928  0.44526553  1
  Nb  Nb2  1  0.95177101  0.53921601  0.76199493  1
  Nb  Nb3  1  0.53921601  0.95177101  0.26199493  1
  As  As0  1  0.99966400  0.32848401  0.50746585  1
  As  As1  1  0.32848401  0.99966400  0.00746585  1
  S  S0  1  0.21649157  0.63651274  0.69810364  1
  S  S1  1  0.63651274  0.21649157  0.19810364  1
  S  S2  1  0.23313750  0.82760740  0.74942578  1
  S  S3  1  0.82760740  0.23313750  0.24942578  1
  S  S4  1  0.40652176  0.58631234  0.99927100  1
  S  S5  1  0.58631234  0.40652176  0.49927100  1
  S  S6  1  0.11097185  0.34254322  0.69428147  1
  S  S7  1  0.34254322  0.11097185  0.19428147  1
  S  S8  1  0.56474180  0.05381487  0.63098438  1
  S  S9  1  0.05381487  0.56474180  0.13098438  1
  S  S10  1  0.77099561  0.44024669  0.84659836  1
  S  S11  1  0.44024669  0.77099561  0.34659836  1
  S  S12  1  0.91316635  0.53825354  0.51610568  1
  S  S13  1  0.53825354  0.91316635  0.01610568  1
  S  S14  1  0.88903005  0.77751367  0.70663598  1
  S  S15  1  0.77751367  0.88903005  0.20663598  1
  S  S16  1  0.85311709  0.18171483  0.59351670  1
  S  S17  1  0.18171483  0.85311709  0.09351670  1
  S  S18  1  0.09160493  0.44763789  0.97093545  1
  S  S19  1  0.44763789  0.09160493  0.47093545  1
  S  S20  1  0.93122728  0.72934584  0.90321531  1
  S  S21  1  0.72934584  0.93122728  0.40321531  1
loop_
_geom_bond_atom_site_label_1
_geom_bond_atom_site_label_2
_geom_bond_distance
_geom_bond_site_symmetry_2
Cs0 S5 3.393278 1_555
Cs0 S9 3.465706 1_555
Cs0 S4 3.621285 1_554
Cs0 S11 3.639010 1_555
Cs0 S7 3.837862 1_555
Cs0 S19 3.978895 1_555
Cs1 S4 3.393278 1_555
Cs1 S8 3.465706 1_555
Cs1 S5 3.621285 1_555
Cs1 S10 3.639009 1_555
Cs1 S6 3.837862 1_555
Cs1 S18 3.978895 1_555
Cs2 S14 3.474274 1_555
Cs2 S8 3.560738 1_565
Cs2 S2 3.561676 1_555
Cs2 S5 3.565432 1_555
Cs2 S11 3.583571 1_555
Cs2 S10 3.638107 1_555
Cs2 S4 3.648464 1_555
Cs2 S0 3.650460 1_555
Cs2 S21 3.745757 1_555
Cs2 S12 3.999403 1_555
Cs2 S13 4.185052 1_556
Cs3 S15 3.474274 1_555
Cs3 S9 3.560738 1_655
Cs3 S3 3.561676 1_555
Cs3 S4 3.565432 1_554
Cs3 S10 3.583571 1_554
Cs3 S11 3.638107 1_555
Cs3 S5 3.648464 1_555
Cs3 S1 3.650460 1_555
Cs3 S20 3.745757 1_554
Cs3 S13 3.999403 1_555
Cs3 S12 4.185052 1_555
Cs4 S16 3.510999 1_555
Cs4 S3 3.645989 1_556
Cs4 S15 3.647313 1_546
Cs4 S6 3.725869 1_655
Cs4 S20 3.749631 1_545
Cs4 S17 3.765427 1_646
Cs4 S10 3.783001 1_555
Cs4 S18 4.109727 1_655
Cs5 S17 3.510999 1_555
Cs5 S2 3.645989 1_555
Cs5 S14 3.647313 1_455
Cs5 S7 3.725869 1_565
Cs5 S21 3.749630 1_455
Cs5 S16 3.765427 1_465
Cs5 S11 3.783001 1_555
Cs5 S19 4.109727 1_565
Nb0 S4 2.230431 1_555
Nb0 S2 2.462692 1_555
Nb0 S9 2.480010 1_556
Nb0 S0 2.492254 1_555
Nb0 S17 2.515644 1_556
Nb0 S18 2.531329 1_555
Nb0 S20 2.852187 1_455
Nb1 S5 2.230431 1_555
Nb1 S3 2.462692 1_555
Nb1 S8 2.480010 1_555
Nb1 S1 2.492254 1_555
Nb1 S16 2.515644 1_555
Nb1 S19 2.531329 1_555
Nb1 S21 2.852187 1_545
Nb2 S10 2.225921 1_555
Nb2 S20 2.472823 1_555
Nb2 S14 2.473711 1_555
Nb2 S12 2.516676 1_555
Nb2 S6 2.560136 1_655
Nb2 S18 2.678429 1_655
Nb2 S0 2.934087 1_655
Nb3 S11 2.225921 1_555
Nb3 S21 2.472823 1_555
Nb3 S15 2.473711 1_555
Nb3 S13 2.516676 1_555
Nb3 S7 2.560136 1_565
Nb3 S19 2.678429 1_565
Nb3 S1 2.934087 1_565
As0 S12 2.239332 1_555
As0 S16 2.251274 1_555
As0 S6 2.283683 1_655
As0 Cs0 3.635962 1_655
As1 S13 2.239332 1_555
As1 S17 2.251274 1_555
As1 S7 2.283683 1_565
As1 Cs1 3.635962 1_564
S0 S2 2.073103 1_555
S1 S3 2.073103 1_555
S14 S20 2.049746 1_555
S15 S21 2.049746 1_555
S18 S9 2.063371 1_556
S19 S8 2.063371 1_555
