# generated using pymatgen
data_Hf7Nb3(Sn3B)2
_symmetry_space_group_name_H-M   'P 1'
_cell_length_a   8.36626983
_cell_length_b   8.36626874
_cell_length_c   5.62374192
_cell_angle_alpha   90.00000000
_cell_angle_beta   90.00000000
_cell_angle_gamma   119.99999653
_symmetry_Int_Tables_number   1
_chemical_formula_structural   Hf7Nb3(Sn3B)2
_chemical_formula_sum   'Hf7 Nb3 Sn6 B2'
_cell_volume   340.89427509
_cell_formula_units_Z   1
loop_
 _symmetry_equiv_pos_site_id
 _symmetry_equiv_pos_as_xyz
  1  'x, y, z'
loop_
 _atom_site_type_symbol
 _atom_site_label
 _atom_site_symmetry_multiplicity
 _atom_site_fract_x
 _atom_site_fract_y
 _atom_site_fract_z
 _atom_site_occupancy
  Hf  Hf0  1  0.66666700  0.33333300  0.00000000  1
  Hf  Hf1  1  0.76676953  0.76689545  0.75032449  1
  Hf  Hf2  1  0.23310455  0.99987408  0.75032449  1
  Hf  Hf3  1  0.00012592  0.23323047  0.75032449  1
  Hf  Hf4  1  0.23310455  0.23323047  0.24967551  1
  Hf  Hf5  1  0.76676953  0.99987408  0.24967551  1
  Hf  Hf6  1  0.00012592  0.76689545  0.24967551  1
  Nb  Nb0  1  0.33333300  0.66666700  0.00000000  1
  Nb  Nb1  1  0.33333300  0.66666700  0.50000000  1
  Nb  Nb2  1  0.66666700  0.33333300  0.50000000  1
  Sn  Sn0  1  0.40127567  0.40297262  0.74713789  1
  Sn  Sn1  1  0.59702738  0.99830304  0.74713789  1
  Sn  Sn2  1  0.00169696  0.59872433  0.74713789  1
  Sn  Sn3  1  0.59702738  0.59872433  0.25286211  1
  Sn  Sn4  1  0.40127567  0.99830304  0.25286211  1
  Sn  Sn5  1  0.00169696  0.40297262  0.25286211  1
  B  B0  1  0.00000000  0.00000000  0.00000000  1
  B  B1  1  0.00000000  0.00000000  0.50000000  1
loop_
_geom_bond_atom_site_label_1
_geom_bond_atom_site_label_2
_geom_bond_distance
_geom_bond_site_symmetry_2
Hf0 Nb2 2.811871 1_555
Hf0 Nb2 2.811871 1_554
Hf0 Sn1 2.930032 1_544
Hf0 Sn5 2.930033 1_655
Hf0 Sn4 2.930035 1_545
Hf0 Sn2 2.930035 1_654
Hf0 Sn3 2.930040 1_555
Hf0 Sn0 2.930040 1_554
Hf1 Sn1 2.917970 1_555
Hf1 Sn2 2.933985 1_655
Hf1 Sn0 3.051322 1_555
Hf1 Sn3 3.134451 1_555
Hf1 Sn3 3.159952 1_556
Hf2 Sn2 2.917971 1_555
Hf2 Sn0 2.933985 1_565
Hf2 Sn1 3.051322 1_555
Hf2 Sn4 3.134451 1_555
Hf2 Sn4 3.159952 1_556
Hf3 Sn0 2.917971 1_555
Hf3 Sn1 2.933986 1_445
Hf3 Sn2 3.051322 1_555
Hf3 Sn5 3.134451 1_555
Hf3 Sn5 3.159951 1_556
Hf4 Sn5 2.917971 1_555
Hf4 Sn4 2.933985 1_545
Hf4 Sn3 3.051322 1_555
Hf4 Sn0 3.134451 1_555
Hf4 Sn0 3.159952 1_554
Hf5 Sn3 2.917970 1_555
Hf5 Sn5 2.933985 1_665
Hf5 Sn4 3.051322 1_555
Hf5 Sn1 3.134451 1_555
Hf5 Sn1 3.159952 1_554
Hf6 Sn4 2.917971 1_555
Hf6 Sn3 2.933986 1_455
Hf6 Sn5 3.051322 1_555
Hf6 Sn2 3.134451 1_555
Hf6 Sn2 3.159951 1_554
Nb0 Sn4 2.909693 1_555
Nb0 Sn2 2.909693 1_554
Nb0 Sn1 2.909695 1_554
Nb0 Sn5 2.909696 1_555
Nb0 Sn0 2.909700 1_554
Nb0 Sn3 2.909700 1_555
Nb1 Sn4 2.894096 1_555
Nb1 Sn2 2.894097 1_555
Nb1 Sn1 2.894099 1_555
Nb1 Sn5 2.894099 1_555
Nb1 Sn0 2.894104 1_555
Nb1 Sn3 2.894104 1_555
Nb2 Sn1 2.914545 1_545
Nb2 Sn5 2.914545 1_655
Nb2 Sn4 2.914547 1_545
Nb2 Sn2 2.914547 1_655
Nb2 Sn3 2.914552 1_555
Nb2 Sn0 2.914552 1_555
B0 Hf3 2.403523 1_554
B0 Hf6 2.403523 1_545
B0 Hf4 2.403523 1_555
B0 Hf1 2.403523 1_444
B0 Hf2 2.403523 1_544
B0 Hf5 2.403523 1_445
B1 Hf3 2.405657 1_555
B1 Hf6 2.405657 1_545
B1 Hf4 2.405657 1_555
B1 Hf1 2.405657 1_445
B1 Hf2 2.405657 1_545
B1 Hf5 2.405657 1_445
