# generated using pymatgen
data_NaLu3As6Rh7
_symmetry_space_group_name_H-M   'P 1'
_cell_length_a   7.13272071
_cell_length_b   7.13272104
_cell_length_c   7.13271866
_cell_angle_alpha   109.46225529
_cell_angle_beta   109.46225660
_cell_angle_gamma   109.46225730
_symmetry_Int_Tables_number   1
_chemical_formula_structural   NaLu3As6Rh7
_chemical_formula_sum   'Na1 Lu3 As6 Rh7'
_cell_volume   279.43944955
_cell_formula_units_Z   1
loop_
 _symmetry_equiv_pos_site_id
 _symmetry_equiv_pos_as_xyz
  1  'x, y, z'
loop_
 _atom_site_type_symbol
 _atom_site_label
 _atom_site_symmetry_multiplicity
 _atom_site_fract_x
 _atom_site_fract_y
 _atom_site_fract_z
 _atom_site_occupancy
  Na  Na0  1  0.50000000  0.50000000  0.50000000  1
  Lu  Lu0  1  0.00000000  0.50000000  0.00000000  1
  Lu  Lu1  1  0.50000000  0.00000000  0.00000000  1
  Lu  Lu2  1  0.00000000  0.00000000  0.50000000  1
  As  As0  1  0.67876361  0.99291365  0.67876361  1
  As  As1  1  0.67876361  0.67876361  0.99291365  1
  As  As2  1  0.32123639  0.32123639  0.00708635  1
  As  As3  1  0.99291365  0.67876361  0.67876361  1
  As  As4  1  0.00708635  0.32123639  0.32123639  1
  As  As5  1  0.32123639  0.00708635  0.32123639  1
  Rh  Rh0  1  0.50000000  0.75308793  0.24691207  1
  Rh  Rh1  1  0.75308793  0.24691207  0.50000000  1
  Rh  Rh2  1  0.24691207  0.75308793  0.50000000  1
  Rh  Rh3  1  0.24691207  0.50000000  0.75308793  1
  Rh  Rh4  1  0.00000000  0.00000000  0.00000000  1
  Rh  Rh5  1  0.50000000  0.24691207  0.75308793  1
  Rh  Rh6  1  0.75308793  0.50000000  0.24691207  1
loop_
_geom_bond_atom_site_label_1
_geom_bond_atom_site_label_2
_geom_bond_distance
_geom_bond_site_symmetry_2
Na0 Rh6 2.947725 1_555
Na0 Rh3 2.947725 1_555
Na0 Rh5 2.947725 1_555
Na0 Rh0 2.947725 1_555
Na0 Rh2 2.947725 1_555
Na0 Rh1 2.947725 1_555
Lu0 Rh3 2.875794 1_554
Lu0 Rh6 2.875794 1_455
Lu0 Rh2 2.912948 1_555
Lu0 Rh1 2.912948 1_454
Lu0 Rh0 2.912948 1_555
Lu0 Rh5 2.912948 1_454
Lu1 Rh5 2.875794 1_554
Lu1 Rh0 2.875794 1_545
Lu1 Rh1 2.912948 1_555
Lu1 Rh2 2.912948 1_544
Lu1 Rh6 2.912948 1_555
Lu1 Rh3 2.912948 1_544
Lu2 Rh2 2.875795 1_545
Lu2 Rh1 2.875795 1_455
Lu2 Rh5 2.912948 1_555
Lu2 Rh0 2.912948 1_445
Lu2 Rh3 2.912948 1_555
Lu2 Rh6 2.912948 1_445
As0 Rh0 2.541299 1_555
As0 Rh2 2.541300 1_555
As0 Rh1 2.557123 1_565
As0 Rh5 2.557124 1_565
As0 Rh4 2.617205 1_666
As0 Na0 2.924826 1_555
As0 Lu1 2.964958 1_566
As0 Lu2 2.964959 1_665
As0 Lu0 3.006429 1_666
As1 Rh3 2.541300 1_555
As1 Rh5 2.541300 1_555
As1 Rh0 2.557123 1_556
As1 Rh6 2.557123 1_556
As1 Rh4 2.617205 1_666
As1 Na0 2.924825 1_555
As1 Lu0 2.964959 1_656
As1 Lu1 2.964959 1_566
As1 Lu2 3.006429 1_666
As2 Rh6 2.541300 1_555
As2 Rh0 2.541300 1_555
As2 Rh5 2.557123 1_554
As2 Rh3 2.557123 1_554
As2 Rh4 2.617205 1_555
As2 Na0 2.924825 1_555
As2 Lu0 2.964959 1_555
As2 Lu1 2.964959 1_555
As2 Lu2 3.006429 1_554
As3 Rh6 2.541299 1_555
As3 Rh1 2.541300 1_555
As3 Rh2 2.557123 1_655
As3 Rh3 2.557124 1_655
As3 Rh4 2.617205 1_666
As3 Na0 2.924826 1_555
As3 Lu0 2.964959 1_656
As3 Lu2 2.964959 1_665
As3 Lu1 3.006429 1_666
As4 Rh3 2.541299 1_555
As4 Rh2 2.541300 1_555
As4 Rh1 2.557123 1_455
As4 Rh6 2.557124 1_455
As4 Rh4 2.617205 1_555
As4 Na0 2.924826 1_555
As4 Lu0 2.964959 1_555
As4 Lu2 2.964959 1_555
As4 Lu1 3.006429 1_455
As5 Rh5 2.541299 1_555
As5 Rh1 2.541300 1_555
As5 Rh2 2.557123 1_545
As5 Rh0 2.557124 1_545
As5 Rh4 2.617205 1_555
As5 Na0 2.924826 1_555
As5 Lu1 2.964958 1_555
As5 Lu2 2.964959 1_555
As5 Lu0 3.006429 1_545
