# generated using pymatgen
data_Cs2Ni(PdS2)2
_symmetry_space_group_name_H-M   'P 1'
_cell_length_a   6.06085883
_cell_length_b   6.06085810
_cell_length_c   7.90978095
_cell_angle_alpha   102.06457493
_cell_angle_beta   102.06457175
_cell_angle_gamma   117.02947206
_symmetry_Int_Tables_number   1
_chemical_formula_structural   Cs2Ni(PdS2)2
_chemical_formula_sum   'Cs2 Ni1 Pd2 S4'
_cell_volume   237.19136321
_cell_formula_units_Z   1
loop_
 _symmetry_equiv_pos_site_id
 _symmetry_equiv_pos_as_xyz
  1  'x, y, z'
loop_
 _atom_site_type_symbol
 _atom_site_label
 _atom_site_symmetry_multiplicity
 _atom_site_fract_x
 _atom_site_fract_y
 _atom_site_fract_z
 _atom_site_occupancy
  Cs  Cs0  1  0.66133815  0.66133815  0.32267429  1
  Cs  Cs1  1  0.33866185  0.33866185  0.67732571  1
  Ni  Ni0  1  0.00000000  0.00000000  0.00000000  1
  Pd  Pd0  1  0.00000000  0.50000000  0.00000000  1
  Pd  Pd1  1  0.50000000  0.00000000  0.00000000  1
  S  S0  1  0.73887500  0.05749628  0.79637228  1
  S  S1  1  0.94250372  0.26112500  0.20362772  1
  S  S2  1  0.05749628  0.73887500  0.79637228  1
  S  S3  1  0.26112500  0.94250372  0.20362772  1
loop_
_geom_bond_atom_site_label_1
_geom_bond_atom_site_label_2
_geom_bond_distance
_geom_bond_site_symmetry_2
Cs0 S1 3.625920 1_555
Cs0 S3 3.625920 1_555
Cs0 S1 3.671071 1_565
Cs0 S3 3.671072 1_655
Cs0 S3 3.671077 1_545
Cs0 S1 3.671077 1_455
Cs0 S0 3.808205 1_565
Cs0 S2 3.808205 1_655
Cs1 S2 3.625920 1_555
Cs1 S0 3.625920 1_555
Cs1 S2 3.671071 1_545
Cs1 S0 3.671072 1_455
Cs1 S0 3.671077 1_565
Cs1 S2 3.671077 1_655
Cs1 S3 3.808205 1_545
Cs1 S1 3.808205 1_455
Ni0 S1 2.211492 1_455
Ni0 S2 2.211492 1_544
Ni0 S3 2.211492 1_545
Ni0 S0 2.211492 1_454
Pd0 S1 2.358513 1_455
Pd0 S2 2.358513 1_554
Pd0 S3 2.358517 1_555
Pd0 S0 2.358517 1_454
Pd1 S3 2.358513 1_545
Pd1 S0 2.358513 1_554
Pd1 S1 2.358517 1_555
Pd1 S2 2.358517 1_544
