# generated using pymatgen
data_Rb12In2BiSb5
_symmetry_space_group_name_H-M   'P 1'
_cell_length_a   6.34069439
_cell_length_b   10.96372539
_cell_length_c   12.69550306
_cell_angle_alpha   79.06056296
_cell_angle_beta   90.00000000
_cell_angle_gamma   90.00000000
_symmetry_Int_Tables_number   1
_chemical_formula_structural   Rb12In2BiSb5
_chemical_formula_sum   'Rb12 In2 Bi1 Sb5'
_cell_volume   866.52369264
_cell_formula_units_Z   1
loop_
 _symmetry_equiv_pos_site_id
 _symmetry_equiv_pos_as_xyz
  1  'x, y, z'
loop_
 _atom_site_type_symbol
 _atom_site_label
 _atom_site_symmetry_multiplicity
 _atom_site_fract_x
 _atom_site_fract_y
 _atom_site_fract_z
 _atom_site_occupancy
  Rb  Rb0  1  0.75000000  0.46446401  0.07579799  1
  Rb  Rb1  1  0.25000000  0.53697328  0.92371758  1
  Rb  Rb2  1  0.75000000  0.74860953  0.21919900  1
  Rb  Rb3  1  0.25000000  0.25621618  0.77834686  1
  Rb  Rb4  1  0.25000000  0.56123787  0.53398055  1
  Rb  Rb5  1  0.75000000  0.43950594  0.46606096  1
  Rb  Rb6  1  0.25000000  0.86291868  0.01886803  1
  Rb  Rb7  1  0.75000000  0.13280198  0.97608047  1
  Rb  Rb8  1  0.25000000  0.87844224  0.67495231  1
  Rb  Rb9  1  0.75000000  0.12118234  0.32724437  1
  Rb  Rb10  1  0.25000000  0.91559151  0.36978300  1
  Rb  Rb11  1  0.75000000  0.08170723  0.63232738  1
  In  In0  1  0.25000000  0.32480152  0.28156577  1
  In  In1  1  0.75000000  0.67748723  0.72079567  1
  Bi  Bi0  1  0.25000000  0.16932855  0.11893362  1
  Sb  Sb0  1  0.75000000  0.82800060  0.87929642  1
  Sb  Sb1  1  0.25000000  0.21075533  0.49798798  1
  Sb  Sb2  1  0.75000000  0.78811707  0.50351967  1
  Sb  Sb3  1  0.25000000  0.58032035  0.22299670  1
  Sb  Sb4  1  0.75000000  0.42153957  0.77854568  1
loop_
_geom_bond_atom_site_label_1
_geom_bond_atom_site_label_2
_geom_bond_distance
_geom_bond_site_symmetry_2
Rb0 Sb4 3.890611 1_554
Rb0 Sb3 4.007213 1_655
Rb0 Sb3 4.007213 1_555
Rb0 Sb0 4.282003 1_554
Rb1 Sb3 3.917574 1_556
Rb1 Sb4 3.991848 1_555
Rb1 Sb4 3.991848 1_455
Rb2 Sb3 3.663874 1_655
Rb2 Sb3 3.663874 1_555
Rb2 Sb2 3.716208 1_555
Rb2 Sb0 4.237132 1_554
Rb3 Sb4 3.652153 1_555
Rb3 Sb4 3.652153 1_455
Rb3 Sb1 3.686507 1_555
Rb4 Sb3 3.913788 1_555
Rb4 Sb1 3.954839 1_555
Rb4 Sb2 4.002864 1_455
Rb4 Sb2 4.002864 1_555
Rb5 Sb4 3.934526 1_555
Rb5 Sb2 3.940087 1_555
Rb5 Sb1 4.014901 1_555
Rb5 Sb1 4.014901 1_655
Rb6 Sb3 3.642543 1_555
Rb6 Sb0 3.687122 1_554
Rb6 Sb0 3.687122 1_454
Rb7 Sb4 3.646538 1_555
Rb7 Sb0 3.773002 1_545
Rb8 Sb1 3.900642 1_565
Rb8 Sb0 4.067254 1_455
Rb8 Sb0 4.067254 1_555
Rb8 Sb2 4.072671 1_455
Rb8 Sb2 4.072671 1_555
Rb9 Sb2 3.903977 1_545
Rb9 Sb1 4.064764 1_555
Rb9 Sb1 4.064764 1_655
Rb10 Sb2 3.739848 1_455
Rb10 Sb2 3.739848 1_555
Rb10 Sb1 3.888520 1_565
Rb11 Sb1 3.747773 1_555
Rb11 Sb1 3.747773 1_655
Rb11 Sb0 3.775940 1_545
Rb11 Sb2 3.877226 1_545
In0 Sb3 2.758684 1_555
In0 Sb1 2.794414 1_555
In0 Rb9 3.857429 1_455
In0 Rb9 3.857429 1_555
In1 Sb4 2.762444 1_555
In1 Sb2 2.794680 1_555
In1 Sb0 2.834177 1_555
In1 Rb8 3.841524 1_555
In1 Rb8 3.841524 1_655
Bi0 In0 2.916209 1_555
Bi0 Rb7 3.711637 1_454
Bi0 Rb7 3.711637 1_554
Bi0 Rb10 3.810317 1_545
Bi0 Rb6 3.810404 1_545
Bi0 Rb9 4.098032 1_555
Bi0 Rb9 4.098032 1_455
Bi0 Rb3 4.247401 1_554
Bi0 Rb1 4.312514 1_554
