# generated using pymatgen
data_CsRb5(HgH5)2
_symmetry_space_group_name_H-M   'P 1'
_cell_length_a   8.32519943
_cell_length_b   8.32519990
_cell_length_c   8.32519939
_cell_angle_alpha   121.96782060
_cell_angle_beta   121.96781996
_cell_angle_gamma   86.62413261
_symmetry_Int_Tables_number   1
_chemical_formula_structural   CsRb5(HgH5)2
_chemical_formula_sum   'Cs1 Rb5 Hg2 H10'
_cell_volume   395.12625783
_cell_formula_units_Z   1
loop_
 _symmetry_equiv_pos_site_id
 _symmetry_equiv_pos_as_xyz
  1  'x, y, z'
loop_
 _atom_site_type_symbol
 _atom_site_label
 _atom_site_symmetry_multiplicity
 _atom_site_fract_x
 _atom_site_fract_y
 _atom_site_fract_z
 _atom_site_occupancy
  Cs  Cs0  1  0.75000000  0.75000000  0.00000000  1
  Rb  Rb0  1  0.81885164  0.31885164  0.13770228  1
  Rb  Rb1  1  0.68114836  0.81885164  0.50000000  1
  Rb  Rb2  1  0.31885164  0.18114836  0.50000000  1
  Rb  Rb3  1  0.18114836  0.68114836  0.86229772  1
  Rb  Rb4  1  0.25000000  0.25000000  0.00000000  1
  Hg  Hg0  1  0.25000000  0.75000000  0.50000000  1
  Hg  Hg1  1  0.75000000  0.25000000  0.50000000  1
  H  H0  1  0.00729554  0.00729554  0.00000000  1
  H  H1  1  0.49270446  0.49270446  1.00000000  1
  H  H2  1  0.28600078  0.53429717  0.49976916  1
  H  H3  1  0.03452901  0.78623262  0.50023084  1
  H  H4  1  0.78623262  0.28600078  0.75170361  1
  H  H5  1  0.53429717  0.03452901  0.24829639  1
  H  H6  1  0.46547099  0.96570283  0.75170361  1
  H  H7  1  0.21399922  0.71376738  0.24829639  1
  H  H8  1  0.96570283  0.21399922  0.50023084  1
  H  H9  1  0.71376738  0.46547099  0.49976916  1
loop_
_geom_bond_atom_site_label_1
_geom_bond_atom_site_label_2
_geom_bond_distance
_geom_bond_site_symmetry_2
Cs0 H0 3.117213 1_665
Cs0 H1 3.117213 1_554
Cs0 H9 3.369508 1_554
Cs0 H3 3.369508 1_655
Cs0 H2 3.369512 1_554
Cs0 H8 3.369512 1_565
Cs0 H5 3.369514 1_565
Cs0 H6 3.369515 1_554
Cs0 H7 3.369515 1_655
Cs0 H4 3.369515 1_554
H0 Rb4 2.940438 1_555
H0 Rb0 2.963053 1_455
H0 Rb3 2.963054 1_544
H0 Rb2 2.963055 1_555
H0 Rb1 2.963055 1_444
H1 Rb4 2.940438 1_556
H1 Rb3 2.963053 1_555
H1 Rb0 2.963054 1_556
H1 Rb2 2.963055 1_555
H1 Rb1 2.963055 1_556
H2 Hg0 1.802273 1_555
H2 Rb2 2.937573 1_555
H2 Rb0 3.179882 1_455
H2 Rb3 3.181604 1_555
H3 Hg0 1.802266 1_555
H3 Rb1 2.937580 1_455
H3 Rb3 3.179897 1_555
H3 Rb0 3.181605 1_455
H4 Hg1 1.802269 1_555
H4 Rb0 2.937568 1_556
H4 Rb1 3.179882 1_545
H4 Rb2 3.181605 1_555
H5 Hg1 1.802270 1_555
H5 Rb3 2.937577 1_544
H5 Rb2 3.179882 1_555
H5 Rb1 3.181604 1_545
H6 Hg0 1.802270 1_555
H6 Rb0 2.937577 1_566
H6 Rb2 3.179882 1_565
H6 Rb1 3.181604 1_555
H7 Hg0 1.802269 1_555
H7 Rb3 2.937568 1_554
H7 Rb1 3.179882 1_555
H7 Rb2 3.181605 1_565
H8 Hg1 1.802273 1_555
H8 Rb2 2.937572 1_655
H8 Rb3 3.179883 1_655
H8 Rb0 3.181604 1_555
H9 Hg1 1.802266 1_555
H9 Rb1 2.937581 1_555
H9 Rb0 3.179897 1_555
H9 Rb3 3.181605 1_655
