# generated using pymatgen
data_Sr4Al19Ir5
_symmetry_space_group_name_H-M   'P 1'
_cell_length_a   7.63739843
_cell_length_b   7.63739997
_cell_length_c   9.77488008
_cell_angle_alpha   89.85652706
_cell_angle_beta   89.85652810
_cell_angle_gamma   119.02894785
_symmetry_Int_Tables_number   1
_chemical_formula_structural   Sr4Al19Ir5
_chemical_formula_sum   'Sr4 Al19 Ir5'
_cell_volume   498.53389374
_cell_formula_units_Z   1
loop_
 _symmetry_equiv_pos_site_id
 _symmetry_equiv_pos_as_xyz
  1  'x, y, z'
loop_
 _atom_site_type_symbol
 _atom_site_label
 _atom_site_symmetry_multiplicity
 _atom_site_fract_x
 _atom_site_fract_y
 _atom_site_fract_z
 _atom_site_occupancy
  Sr  Sr0  1  0.99768172  0.67913283  0.24941529  1
  Sr  Sr1  1  0.00231828  0.32086717  0.75058471  1
  Sr  Sr2  1  0.67913283  0.99768172  0.24941529  1
  Sr  Sr3  1  0.32086717  0.00231828  0.75058471  1
  Al  Al0  1  0.14563353  0.14563353  0.26340642  1
  Al  Al1  1  0.85436647  0.85436647  0.73659358  1
  Al  Al2  1  0.00867934  0.35102468  0.07430533  1
  Al  Al3  1  0.99132066  0.64897532  0.92569467  1
  Al  Al4  1  0.99812515  0.66231754  0.56520260  1
  Al  Al5  1  0.33768246  0.00187485  0.43479740  1
  Al  Al6  1  0.00187485  0.33768246  0.43479740  1
  Al  Al7  1  0.66231754  0.99812515  0.56520260  1
  Al  Al8  1  0.64897532  0.99132066  0.92569467  1
  Al  Al9  1  0.35102468  0.00867934  0.07430533  1
  Al  Al10  1  0.33432187  0.33432187  0.53652257  1
  Al  Al11  1  0.66567813  0.66567813  0.46347743  1
  Al  Al12  1  0.65053093  0.65053093  0.05295329  1
  Al  Al13  1  0.34946907  0.34946907  0.94704671  1
  Al  Al14  1  0.33881201  0.54785836  0.25209452  1
  Al  Al15  1  0.66118799  0.45214164  0.74790548  1
  Al  Al16  1  0.54785836  0.33881201  0.25209452  1
  Al  Al17  1  0.45214164  0.66118799  0.74790548  1
  Al  Al18  1  0.00000000  0.00000000  0.00000000  1
  Ir  Ir0  1  0.67034661  0.32965339  1.00000000  1
  Ir  Ir1  1  0.32965339  0.67034661  0.00000000  1
  Ir  Ir2  1  0.33054538  0.66945462  0.50000000  1
  Ir  Ir3  1  0.66945462  0.33054538  0.50000000  1
  Ir  Ir4  1  0.00000000  0.00000000  0.50000000  1
loop_
_geom_bond_atom_site_label_1
_geom_bond_atom_site_label_2
_geom_bond_distance
_geom_bond_site_symmetry_2
Al0 Ir4 2.568329 1_555
Al0 Al5 2.780210 1_555
Al0 Al6 2.780210 1_555
Al0 Al18 2.816331 1_555
Al0 Sr2 3.175768 1_445
Al0 Sr0 3.175769 1_445
Al1 Ir4 2.568329 1_665
Al1 Al7 2.780210 1_555
Al1 Al4 2.780210 1_555
Al1 Al18 2.816331 1_666
Al1 Sr3 3.175768 1_665
Al1 Sr1 3.175769 1_665
Al2 Ir1 2.581614 1_555
Al2 Ir0 2.613776 1_454
Al2 Sr0 3.072691 1_455
Al2 Sr2 3.148113 1_445
Al2 Sr1 3.172059 1_554
Al3 Ir0 2.581614 1_555
Al3 Ir1 2.613776 1_656
Al3 Sr1 3.072691 1_655
Al3 Sr3 3.148113 1_665
Al3 Sr0 3.172059 1_556
Al4 Ir2 2.590798 1_655
Al4 Ir3 2.640264 1_555
Al4 Ir4 2.648325 1_665
Al4 Al6 2.803121 1_655
Al4 Al5 2.918133 1_665
Al4 Sr0 3.089211 1_555
Al4 Sr3 3.152215 1_665
Al4 Sr1 3.184799 1_655
Al5 Ir2 2.590799 1_545
Al5 Ir3 2.640264 1_555
Al5 Ir4 2.648324 1_555
Al5 Al7 2.803121 1_545
Al5 Sr3 3.089211 1_555
Al5 Sr0 3.152215 1_445
Al5 Sr2 3.184799 1_545
Al6 Ir3 2.590798 1_455
Al6 Ir2 2.640264 1_555
Al6 Ir4 2.648325 1_555
Al6 Al7 2.918133 1_445
Al6 Sr1 3.089211 1_555
Al6 Sr2 3.152215 1_445
Al6 Sr0 3.184799 1_455
Al7 Ir3 2.590799 1_565
Al7 Ir2 2.640264 1_555
Al7 Ir4 2.648324 1_665
Al7 Sr2 3.089211 1_555
Al7 Sr1 3.152215 1_665
Al7 Sr3 3.184799 1_565
Al8 Ir1 2.581614 1_556
Al8 Ir0 2.613777 1_565
Al8 Sr3 3.072691 1_565
Al8 Sr1 3.148113 1_665
Al8 Sr2 3.172059 1_556
Al9 Ir0 2.581614 1_554
Al9 Ir1 2.613777 1_545
Al9 Sr2 3.072691 1_545
Al9 Sr0 3.148113 1_445
Al9 Sr3 3.172059 1_554
Al10 Ir3 2.597434 1_555
Al10 Ir2 2.597434 1_555
Al10 Ir4 2.616961 1_555
Al10 Al6 2.740772 1_555
Al10 Al5 2.740772 1_555
Al10 Sr1 3.246197 1_555
Al10 Sr3 3.246198 1_555
Al11 Ir2 2.597434 1_555
Al11 Ir3 2.597434 1_555
Al11 Ir4 2.616961 1_665
Al11 Al4 2.740772 1_555
Al11 Al7 2.740772 1_555
Al11 Sr0 3.246197 1_555
Al11 Sr2 3.246198 1_555
Al12 Al13 2.557029 1_554
Al12 Ir1 2.581184 1_555
Al12 Ir0 2.581185 1_554
Al12 Al18 2.754625 1_665
Al12 Al14 2.868671 1_555
Al12 Al16 2.868672 1_555
Al12 Al3 2.887158 1_554
Al12 Al8 2.887159 1_554
Al12 Sr0 3.198545 1_555
Al12 Sr2 3.198545 1_555
Al13 Ir0 2.581184 1_555
Al13 Ir1 2.581185 1_556
Al13 Al18 2.754625 1_556
Al13 Al15 2.868671 1_555
Al13 Al17 2.868672 1_555
Al13 Al2 2.887158 1_556
Al13 Al9 2.887159 1_556
Al13 Sr1 3.198545 1_555
Al13 Sr3 3.198545 1_555
Al14 Ir2 2.608824 1_555
Al14 Ir1 2.646717 1_555
Al14 Al6 2.888229 1_555
Al14 Sr2 3.145170 1_555
Al14 Sr0 3.213875 1_455
Al15 Ir3 2.608824 1_555
Al15 Ir0 2.646717 1_555
Al15 Al4 2.888229 1_555
Al15 Sr3 3.145170 1_555
Al15 Sr1 3.213875 1_655
Al16 Ir3 2.608824 1_555
Al16 Ir0 2.646717 1_554
Al16 Al5 2.888229 1_555
Al16 Sr0 3.145169 1_555
Al16 Sr2 3.213875 1_545
Al17 Ir2 2.608824 1_555
Al17 Ir1 2.646717 1_556
Al17 Al7 2.888229 1_555
Al17 Sr1 3.145169 1_555
Al17 Sr3 3.213875 1_565
Al18 Al9 2.748959 1_555
Al18 Al8 2.748959 1_444
Al18 Al2 2.748959 1_555
Al18 Al3 2.748959 1_444
Al18 Sr2 3.446350 1_445
Al18 Sr3 3.446350 1_554
Al18 Sr0 3.446350 1_445
Al18 Sr1 3.446350 1_554
