# generated using pymatgen
data_Sc22Os3Ru3Pt2
_symmetry_space_group_name_H-M   'P 1'
_cell_length_a   9.47460357
_cell_length_b   9.50585222
_cell_length_c   9.44567890
_cell_angle_alpha   59.99087879
_cell_angle_beta   60.31970796
_cell_angle_gamma   59.68941672
_symmetry_Int_Tables_number   1
_chemical_formula_structural   Sc22Os3Ru3Pt2
_chemical_formula_sum   'Sc22 Os3 Ru3 Pt2'
_cell_volume   601.51158282
_cell_formula_units_Z   1
loop_
 _symmetry_equiv_pos_site_id
 _symmetry_equiv_pos_as_xyz
  1  'x, y, z'
loop_
 _atom_site_type_symbol
 _atom_site_label
 _atom_site_symmetry_multiplicity
 _atom_site_fract_x
 _atom_site_fract_y
 _atom_site_fract_z
 _atom_site_occupancy
  Sc  Sc0  1  0.80435957  0.80435957  0.19564043  1
  Sc  Sc1  1  0.19608847  0.80391153  0.19608847  1
  Sc  Sc2  1  0.80380282  0.19619718  0.19619718  1
  Sc  Sc3  1  0.19564043  0.19564043  0.80435957  1
  Sc  Sc4  1  0.80391153  0.19608847  0.80391153  1
  Sc  Sc5  1  0.19619718  0.80380282  0.80380282  1
  Sc  Sc6  1  0.61595763  0.61949042  0.15099363  1
  Sc  Sc7  1  0.61356031  0.15099363  0.61949042  1
  Sc  Sc8  1  0.15099363  0.61356031  0.61595763  1
  Sc  Sc9  1  0.61949042  0.61595763  0.61356031  1
  Sc  Sc10  1  0.38404237  0.38050958  0.84900637  1
  Sc  Sc11  1  0.38643969  0.84900637  0.38050958  1
  Sc  Sc12  1  0.84900637  0.38643969  0.38404237  1
  Sc  Sc13  1  0.38050958  0.38404237  0.38643969  1
  Sc  Sc14  1  0.84038989  0.84209987  0.46936175  1
  Sc  Sc15  1  0.84814749  0.46936175  0.84209987  1
  Sc  Sc16  1  0.46936175  0.84814749  0.84038989  1
  Sc  Sc17  1  0.84209987  0.84038989  0.84814749  1
  Sc  Sc18  1  0.15961011  0.15790013  0.53063825  1
  Sc  Sc19  1  0.15185251  0.53063825  0.15790013  1
  Sc  Sc20  1  0.53063825  0.15185251  0.15961011  1
  Sc  Sc21  1  0.15790013  0.15961011  0.15185251  1
  Os  Os0  1  0.50000000  0.50000000  0.50000000  1
  Os  Os1  1  0.00000000  0.50000000  0.50000000  1
  Os  Os2  1  0.50000000  0.00000000  0.00000000  1
  Ru  Ru0  1  0.00000000  0.00000000  0.00000000  1
  Ru  Ru1  1  0.50000000  0.00000000  0.50000000  1
  Ru  Ru2  1  0.00000000  0.50000000  0.00000000  1
  Pt  Pt0  1  0.00000000  0.00000000  0.50000000  1
  Pt  Pt1  1  0.50000000  0.50000000  0.00000000  1
loop_
_geom_bond_atom_site_label_1
_geom_bond_atom_site_label_2
_geom_bond_distance
_geom_bond_site_symmetry_2
Os0 Sc11 2.700397 1_555
Os0 Sc7 2.700397 1_555
Os0 Sc10 2.700397 1_555
Os0 Sc6 2.700397 1_555
Os0 Sc12 2.700397 1_555
Os0 Sc8 2.700397 1_555
Os0 Sc9 2.700412 1_555
Os0 Sc13 2.700412 1_555
Os1 Sc15 2.733863 1_455
Os1 Sc19 2.733863 1_555
Os1 Sc14 2.733863 1_455
Os1 Sc18 2.733863 1_555
Os1 Sc13 2.950384 1_555
Os1 Sc9 2.950384 1_455
Os1 Sc8 2.950400 1_555
Os1 Sc12 2.950400 1_455
Os2 Sc21 2.733866 1_555
Os2 Sc17 2.733866 1_544
Os2 Sc20 2.733871 1_555
Os2 Sc16 2.733871 1_544
Os2 Sc11 2.950384 1_545
Os2 Sc7 2.950384 1_554
Os2 Sc10 2.950384 1_554
Os2 Sc6 2.950384 1_545
Ru0 Sc1 2.610669 1_545
Ru0 Sc4 2.610669 1_454
Ru0 Sc2 2.629540 1_455
Ru0 Sc5 2.629540 1_544
Ru0 Sc3 2.638006 1_554
Ru0 Sc0 2.638006 1_445
Ru1 Sc16 2.713259 1_545
Ru1 Sc20 2.713259 1_555
Ru1 Sc14 2.713260 1_545
Ru1 Sc18 2.713260 1_555
Ru1 Sc13 2.978836 1_555
Ru1 Sc9 2.978836 1_545
Ru1 Sc7 2.978852 1_555
Ru1 Sc11 2.978852 1_545
Ru2 Sc17 2.713262 1_454
Ru2 Sc21 2.713262 1_555
Ru2 Sc19 2.713268 1_555
Ru2 Sc15 2.713268 1_454
Ru2 Sc12 2.978837 1_455
Ru2 Sc8 2.978837 1_554
Ru2 Sc10 2.978837 1_554
Ru2 Sc6 2.978837 1_455
Pt0 Sc17 2.789721 1_445
Pt0 Sc21 2.789721 1_555
Pt0 Sc18 2.789727 1_555
Pt0 Sc14 2.789727 1_445
Pt0 Sc12 2.993845 1_455
Pt0 Sc8 2.993845 1_545
Pt0 Sc11 2.993845 1_545
Pt0 Sc7 2.993845 1_455
Pt1 Sc16 2.789719 1_554
Pt1 Sc20 2.789719 1_555
Pt1 Sc15 2.789719 1_554
Pt1 Sc19 2.789719 1_555
Pt1 Sc13 2.993844 1_555
Pt1 Sc9 2.993844 1_554
Pt1 Sc6 2.993860 1_555
Pt1 Sc10 2.993860 1_554
