# generated using pymatgen
data_Zn21GaAgRh3
_symmetry_space_group_name_H-M   'P 1'
_cell_length_a   7.82034930
_cell_length_b   7.83700120
_cell_length_c   7.82030529
_cell_angle_alpha   109.51364320
_cell_angle_beta   109.42724389
_cell_angle_gamma   109.51365258
_symmetry_Int_Tables_number   1
_chemical_formula_structural   Zn21GaAgRh3
_chemical_formula_sum   'Zn21 Ga1 Ag1 Rh3'
_cell_volume   368.77234554
_cell_formula_units_Z   1
loop_
 _symmetry_equiv_pos_site_id
 _symmetry_equiv_pos_as_xyz
  1  'x, y, z'
loop_
 _atom_site_type_symbol
 _atom_site_label
 _atom_site_symmetry_multiplicity
 _atom_site_fract_x
 _atom_site_fract_y
 _atom_site_fract_z
 _atom_site_occupancy
  Zn  Zn0  1  0.77720211  0.99720510  0.00000061  1
  Zn  Zn1  1  0.00000660  0.99720510  0.77721522  1
  Zn  Zn2  1  0.22279246  0.21998705  0.22278501  1
  Zn  Zn3  1  0.35680596  0.62373514  0.35680625  1
  Zn  Zn4  1  0.26918435  0.00378977  0.65080887  1
  Zn  Zn5  1  0.65079318  0.00378647  0.26916066  1
  Zn  Zn6  1  0.28267502  0.65309704  0.99999966  1
  Zn  Zn7  1  0.73081775  0.73460265  0.38162227  1
  Zn  Zn8  1  0.38163066  0.73462511  0.73084114  1
  Zn  Zn9  1  0.99999638  0.65308243  0.28266429  1
  Zn  Zn10  1  0.00000481  0.26693367  0.64318980  1
  Zn  Zn11  1  0.64318823  0.26692559  0.00000189  1
  Zn  Zn12  1  0.34918916  0.35297778  0.61836780  1
  Zn  Zn13  1  0.61836431  0.35297851  0.34918833  1
  Zn  Zn14  1  0.71733383  0.37041642  0.71734012  1
  Zn  Zn15  1  0.35528755  0.35300218  0.99999870  1
  Zn  Zn16  1  0.00000826  0.63627412  0.64334545  1
  Zn  Zn17  1  0.99999432  0.35300299  0.35527854  1
  Zn  Zn18  1  0.35666646  0.99292880  0.35665538  1
  Zn  Zn19  1  0.64470991  0.99772057  0.64471334  1
  Zn  Zn20  1  0.64333123  0.63625936  0.99999973  1
  Ga  Ga0  1  0.00001062  0.79322099  0.00000463  1
  Ag  Ag0  1  0.99999692  0.35428227  0.00000335  1
  Rh  Rh0  1  0.33894122  0.99696504  0.00000427  1
  Rh  Rh1  1  0.00000643  0.99697082  0.33894571  1
  Rh  Rh2  1  0.66106231  0.65802702  0.66105898  1
loop_
_geom_bond_atom_site_label_1
_geom_bond_atom_site_label_2
_geom_bond_distance
_geom_bond_site_symmetry_2
Zn0 Zn5 2.599293 1_565
Zn0 Zn8 2.599407 1_554
Zn0 Zn19 2.624620 1_554
Zn0 Zn17 2.624640 1_565
Zn0 Zn11 2.654525 1_565
Zn0 Zn20 2.668203 1_554
Zn0 Zn1 2.844440 1_654
Zn0 Zn2 2.844530 1_665
Zn1 Zn4 2.599413 1_565
Zn1 Zn7 2.599564 1_455
Zn1 Zn15 2.624659 1_565
Zn1 Zn19 2.624706 1_455
Zn1 Zn10 2.654643 1_565
Zn1 Zn16 2.668105 1_555
Zn1 Zn2 2.844383 1_566
Zn2 Zn3 2.654664 1_555
Zn3 Zn7 2.675746 1_555
Zn3 Zn8 2.675865 1_555
Zn3 Zn9 2.759865 1_455
Zn3 Zn6 2.759891 1_554
Zn4 Zn9 2.662908 1_445
Zn4 Zn8 2.714756 1_545
Zn5 Zn6 2.662742 1_544
Zn5 Zn7 2.714937 1_545
Zn6 Zn8 2.662604 1_555
Zn7 Zn9 2.662749 1_555
Zn10 Zn17 2.557147 1_455
Zn10 Zn12 2.675676 1_555
Zn10 Zn5 2.675932 1_455
Zn10 Zn14 2.759872 1_455
Zn10 Zn6 2.759976 1_555
Zn10 Zn15 2.879934 1_555
Zn10 Zn19 2.879969 1_445
Zn10 Zn16 2.894106 1_555
Zn11 Zn15 2.557123 1_554
Zn11 Zn13 2.675681 1_555
Zn11 Zn4 2.675772 1_554
Zn11 Zn14 2.759809 1_554
Zn11 Zn9 2.759944 1_555
Zn11 Zn17 2.879866 1_555
Zn11 Zn19 2.879887 1_544
Zn11 Zn20 2.894101 1_554
Zn12 Zn20 2.592729 1_555
Zn12 Zn2 2.599447 1_555
Zn12 Zn14 2.662825 1_555
Zn12 Zn4 2.714827 1_555
Zn12 Zn8 2.714960 1_555
Zn12 Zn17 2.820205 1_455
Zn12 Zn18 2.913076 1_545
Zn12 Zn15 2.968883 1_555
Zn13 Zn16 2.592834 1_655
Zn13 Zn2 2.599376 1_555
Zn13 Zn14 2.662867 1_555
Zn13 Zn5 2.714797 1_555
Zn13 Zn7 2.714820 1_555
Zn13 Zn15 2.820122 1_554
Zn13 Zn18 2.912994 1_545
Zn13 Zn17 2.968913 1_555
Zn14 Zn19 2.597163 1_545
Zn14 Zn20 2.853349 1_555
Zn14 Zn16 2.853442 1_655
Zn14 Zn18 2.867414 1_545
Zn15 Zn20 2.580974 1_555
Zn15 Zn6 2.597272 1_555
Zn15 Zn2 2.624574 1_556
Zn15 Zn4 2.820174 1_555
Zn15 Zn3 2.879908 1_556
Zn15 Zn7 2.968961 1_556
Zn16 Zn17 2.581077 1_455
Zn16 Zn8 2.592592 1_555
Zn16 Zn6 2.853322 1_555
Zn16 Zn9 2.867298 1_455
Zn16 Zn4 2.913041 1_565
Zn16 Zn7 2.913062 1_455
Zn17 Zn9 2.597157 1_555
Zn17 Zn2 2.624664 1_655
Zn17 Zn5 2.820205 1_555
Zn17 Zn3 2.879898 1_655
Zn17 Zn8 2.969134 1_655
Zn18 Zn19 2.581016 1_555
Zn18 Zn5 2.592551 1_565
Zn18 Zn4 2.592682 1_565
Zn18 Zn2 2.668069 1_565
Zn18 Zn6 2.853332 1_554
Zn18 Zn9 2.853473 1_455
Zn18 Zn3 2.894130 1_555
Zn19 Zn3 2.557270 1_555
Zn19 Zn8 2.820183 1_555
Zn19 Zn7 2.820218 1_555
Zn19 Zn4 2.968823 1_565
Zn19 Zn5 2.968977 1_565
Zn20 Zn7 2.592602 1_556
Zn20 Zn9 2.853380 1_556
Zn20 Zn6 2.867234 1_555
Zn20 Zn8 2.913036 1_555
Zn20 Zn5 2.913063 1_566
Ga0 Rh0 2.597620 1_555
Ga0 Rh1 2.597703 1_555
Ga0 Rh2 2.597776 1_454
Ga0 Zn16 2.645841 1_554
Ga0 Zn18 2.645876 1_555
Ga0 Zn20 2.645999 1_454
Ga0 Zn1 2.729810 1_554
Ga0 Zn2 2.729846 1_565
Ga0 Zn0 2.729943 1_455
Ga0 Zn6 2.777436 1_554
Ga0 Zn9 2.777475 1_455
Ga0 Zn14 2.777622 1_454
Ag0 Zn14 2.629012 1_554
Ag0 Zn9 2.629020 1_555
Ag0 Zn6 2.629184 1_654
Ag0 Zn11 2.641706 1_555
Ag0 Zn10 2.641765 1_654
Ag0 Zn3 2.641769 1_655
Ag0 Zn0 2.758525 1_545
Ag0 Zn2 2.758538 1_655
Ag0 Zn1 2.758561 1_644
Ag0 Zn17 2.781732 1_555
Ag0 Zn15 2.781876 1_654
Ag0 Zn19 2.781926 1_544
Rh0 Zn6 2.581434 1_554
Rh0 Zn11 2.602762 1_565
Rh0 Zn5 2.608449 1_565
Rh0 Zn8 2.608455 1_554
Rh0 Zn4 2.623715 1_564
Rh0 Zn13 2.623734 1_565
Rh0 Zn2 2.644666 1_565
Rh0 Zn1 2.644740 1_554
Rh0 Zn15 2.750219 1_564
Rh0 Zn18 2.757552 1_555
Rh0 Zn16 2.757708 1_554
Rh1 Zn9 2.581554 1_455
Rh1 Zn10 2.602745 1_565
Rh1 Zn4 2.608597 1_565
Rh1 Zn7 2.608635 1_455
Rh1 Zn12 2.623711 1_565
Rh1 Zn5 2.623807 1_465
Rh1 Zn2 2.644738 1_565
Rh1 Zn0 2.644809 1_455
Rh1 Zn17 2.750229 1_465
Rh1 Zn18 2.757688 1_555
Rh1 Zn20 2.757842 1_454
Rh2 Zn14 2.581566 1_555
Rh2 Zn3 2.602802 1_555
Rh2 Zn13 2.608609 1_555
Rh2 Zn12 2.608659 1_555
Rh2 Zn7 2.623662 1_555
Rh2 Zn8 2.623797 1_555
Rh2 Zn1 2.644805 1_655
Rh2 Zn0 2.644826 1_556
Rh2 Zn19 2.750235 1_555
Rh2 Zn16 2.757662 1_655
Rh2 Zn20 2.757697 1_555
