# generated using pymatgen
data_Rb4SnS4
_symmetry_space_group_name_H-M   'P 1'
_cell_length_a   13.54395197
_cell_length_b   13.54395197
_cell_length_c   13.54395197
_cell_angle_alpha   90.00000000
_cell_angle_beta   90.00000000
_cell_angle_gamma   90.00000000
_symmetry_Int_Tables_number   1
_chemical_formula_structural   Rb4SnS4
_chemical_formula_sum   'Rb32 Sn8 S32'
_cell_volume   2484.48406142
_cell_formula_units_Z   8
loop_
 _symmetry_equiv_pos_site_id
 _symmetry_equiv_pos_as_xyz
  1  'x, y, z'
loop_
 _atom_site_type_symbol
 _atom_site_label
 _atom_site_symmetry_multiplicity
 _atom_site_fract_x
 _atom_site_fract_y
 _atom_site_fract_z
 _atom_site_occupancy
  Rb  Rb0  1  0.91554419  0.86356063  0.65235692  1
  Rb  Rb1  1  0.91554419  0.13643937  0.34764308  1
  Rb  Rb2  1  0.86356063  0.65235692  0.91554419  1
  Rb  Rb3  1  0.13643937  0.65235692  0.08445581  1
  Rb  Rb4  1  0.65235692  0.91554419  0.86356063  1
  Rb  Rb5  1  0.34764308  0.08445581  0.86356063  1
  Rb  Rb6  1  0.58445581  0.84764308  0.36356063  1
  Rb  Rb7  1  0.58445581  0.15235692  0.63643937  1
  Rb  Rb8  1  0.41554419  0.84764308  0.63643937  1
  Rb  Rb9  1  0.15235692  0.63643937  0.58445581  1
  Rb  Rb10  1  0.63643937  0.41554419  0.84764308  1
  Rb  Rb11  1  0.63643937  0.58445581  0.15235692  1
  Rb  Rb12  1  0.84764308  0.36356063  0.58445581  1
  Rb  Rb13  1  0.36356063  0.58445581  0.84764308  1
  Rb  Rb14  1  0.84764308  0.63643937  0.41554419  1
  Rb  Rb15  1  0.15235692  0.36356063  0.41554419  1
  Rb  Rb16  1  0.36356063  0.41554419  0.15235692  1
  Rb  Rb17  1  0.34764308  0.91554419  0.13643937  1
  Rb  Rb18  1  0.65235692  0.08445581  0.13643937  1
  Rb  Rb19  1  0.86356063  0.34764308  0.08445581  1
  Rb  Rb20  1  0.13643937  0.34764308  0.91554419  1
  Rb  Rb21  1  0.08445581  0.13643937  0.65235692  1
  Rb  Rb22  1  0.08445581  0.86356063  0.34764308  1
  Rb  Rb23  1  0.41554419  0.15235692  0.36356063  1
  Rb  Rb24  1  0.15377482  0.15377482  0.15377482  1
  Rb  Rb25  1  0.34622518  0.65377482  0.34622518  1
  Rb  Rb26  1  0.65377482  0.34622518  0.34622518  1
  Rb  Rb27  1  0.34622518  0.34622518  0.65377482  1
  Rb  Rb28  1  0.15377482  0.84622518  0.84622518  1
  Rb  Rb29  1  0.84622518  0.84622518  0.15377482  1
  Rb  Rb30  1  0.84622518  0.15377482  0.84622518  1
  Rb  Rb31  1  0.65377482  0.65377482  0.65377482  1
  Sn  Sn0  1  0.75000000  -0.00000000  0.50000000  1
  Sn  Sn1  1  0.50000000  0.75000000  -0.00000000  1
  Sn  Sn2  1  0.50000000  0.25000000  -0.00000000  1
  Sn  Sn3  1  0.00000000  0.50000000  0.25000000  1
  Sn  Sn4  1  0.00000000  0.50000000  0.75000000  1
  Sn  Sn5  1  0.25000000  -0.00000000  0.50000000  1
  Sn  Sn6  1  0.50000000  0.50000000  0.50000000  1
  Sn  Sn7  1  0.00000000  -0.00000000  -0.00000000  1
  S  S0  1  0.65341427  0.90178879  0.61175675  1
  S  S1  1  0.65341427  0.09821121  0.38824325  1
  S  S2  1  0.90178879  0.61175675  0.65341427  1
  S  S3  1  0.09821121  0.61175675  0.34658573  1
  S  S4  1  0.61175675  0.65341427  0.90178879  1
  S  S5  1  0.38824325  0.34658573  0.90178879  1
  S  S6  1  0.84658573  0.88824325  0.40178879  1
  S  S7  1  0.84658573  0.11175675  0.59821121  1
  S  S8  1  0.15341427  0.88824325  0.59821121  1
  S  S9  1  0.11175675  0.59821121  0.84658573  1
  S  S10  1  0.59821121  0.15341427  0.88824325  1
  S  S11  1  0.59821121  0.84658573  0.11175675  1
  S  S12  1  0.88824325  0.40178879  0.84658573  1
  S  S13  1  0.40178879  0.84658573  0.88824325  1
  S  S14  1  0.88824325  0.59821121  0.15341427  1
  S  S15  1  0.11175675  0.40178879  0.15341427  1
  S  S16  1  0.40178879  0.15341427  0.11175675  1
  S  S17  1  0.38824325  0.65341427  0.09821121  1
  S  S18  1  0.61175675  0.34658573  0.09821121  1
  S  S19  1  0.90178879  0.38824325  0.34658573  1
  S  S20  1  0.09821121  0.38824325  0.65341427  1
  S  S21  1  0.34658573  0.09821121  0.61175675  1
  S  S22  1  0.34658573  0.90178879  0.38824325  1
  S  S23  1  0.15341427  0.11175675  0.40178879  1
  S  S24  1  0.89785103  0.89785103  0.89785103  1
  S  S25  1  0.60214897  0.39785103  0.60214897  1
  S  S26  1  0.39785103  0.60214897  0.60214897  1
  S  S27  1  0.60214897  0.60214897  0.39785103  1
  S  S28  1  0.89785103  0.10214897  0.10214897  1
  S  S29  1  0.10214897  0.10214897  0.89785103  1
  S  S30  1  0.10214897  0.89785103  0.10214897  1
  S  S31  1  0.39785103  0.39785103  0.39785103  1
loop_
_geom_bond_atom_site_label_1
_geom_bond_atom_site_label_2
_geom_bond_distance
_geom_bond_site_symmetry_2
Rb0 S8 3.320980 1_655
Rb0 S24 3.365781 1_555
Rb0 S2 3.415535 1_555
Rb0 S6 3.535695 1_555
Rb0 Sn0 3.563712 1_565
Rb0 S7 3.565131 1_565
Rb0 S0 3.629725 1_555
Rb1 S23 3.320980 1_655
Rb1 S28 3.365781 1_555
Rb1 S19 3.415535 1_555
Rb1 S7 3.535695 1_555
Rb1 Sn0 3.563712 1_555
Rb1 S6 3.565131 1_545
Rb1 S1 3.629725 1_555
Rb2 S14 3.320980 1_556
Rb2 S24 3.365781 1_555
Rb2 S4 3.415535 1_555
Rb2 S12 3.535695 1_555
Rb2 Sn4 3.563712 1_655
Rb2 S9 3.565131 1_655
Rb2 S2 3.629725 1_555
Rb3 S9 3.320980 1_554
Rb3 S30 3.365781 1_555
Rb3 S17 3.415535 1_555
Rb3 S15 3.535695 1_555
Rb3 Sn3 3.563712 1_555
Rb3 S14 3.565131 1_455
Rb3 S3 3.629725 1_555
Rb4 S10 3.320980 1_565
Rb4 S24 3.365781 1_555
Rb4 S0 3.415535 1_555
Rb4 S13 3.535695 1_555
Rb4 Sn1 3.563712 1_556
Rb4 S11 3.565131 1_556
Rb4 S4 3.629725 1_555
Rb5 S13 3.320980 1_545
Rb5 S29 3.365781 1_555
Rb5 S21 3.415535 1_555
Rb5 S10 3.535695 1_555
Rb5 Sn2 3.563712 1_556
Rb5 S16 3.565131 1_556
Rb5 S5 3.629725 1_555
Rb6 S22 3.320980 1_555
Rb6 S27 3.365781 1_555
Rb6 S11 3.415535 1_555
Rb6 S1 3.535695 1_565
Rb6 Sn0 3.563712 1_565
Rb6 S0 3.565131 1_555
Rb6 S6 3.629725 1_555
Rb7 S21 3.320980 1_555
Rb7 S25 3.365781 1_555
Rb7 S10 3.415535 1_555
Rb7 S0 3.535695 1_545
Rb7 Sn0 3.563712 1_555
Rb7 S1 3.565131 1_555
Rb7 S7 3.629725 1_555
Rb8 S0 3.320980 1_555
Rb8 S26 3.365781 1_555
Rb8 S13 3.415535 1_555
Rb8 S21 3.535695 1_565
Rb8 Sn5 3.563712 1_565
Rb8 S22 3.565131 1_555
Rb8 S8 3.629725 1_555
Rb9 S3 3.320980 1_555
Rb9 S26 3.365781 1_555
Rb9 S8 3.415535 1_555
Rb9 S2 3.535695 1_455
Rb9 Sn4 3.563712 1_555
Rb9 S20 3.565131 1_555
Rb9 S9 3.629725 1_555
Rb10 S4 3.320980 1_555
Rb10 S25 3.365781 1_555
Rb10 S12 3.415535 1_555
Rb10 S18 3.535695 1_556
Rb10 Sn2 3.563712 1_556
Rb10 S5 3.565131 1_555
Rb10 S10 3.629725 1_555
Rb11 S18 3.320980 1_555
Rb11 S27 3.365781 1_555
Rb11 S14 3.415535 1_555
Rb11 S4 3.535695 1_554
Rb11 Sn1 3.563712 1_555
Rb11 S17 3.565131 1_555
Rb11 S11 3.629725 1_555
Rb12 S19 3.320980 1_555
Rb12 S25 3.365781 1_555
Rb12 S7 3.415535 1_555
Rb12 S20 3.535695 1_655
Rb12 Sn4 3.563712 1_655
Rb12 S2 3.565131 1_555
Rb12 S12 3.629725 1_555
Rb13 S5 3.320980 1_555
Rb13 S26 3.365781 1_555
Rb13 S9 3.415535 1_555
Rb13 S17 3.535695 1_556
Rb13 Sn1 3.563712 1_556
Rb13 S4 3.565131 1_555
Rb13 S13 3.629725 1_555
Rb14 S2 3.320980 1_555
Rb14 S27 3.365781 1_555
Rb14 S6 3.415535 1_555
Rb14 S3 3.535695 1_655
Rb14 Sn3 3.563712 1_655
Rb14 S19 3.565131 1_555
Rb14 S14 3.629725 1_555
Rb15 S20 3.320980 1_555
Rb15 S31 3.365781 1_555
Rb15 S23 3.415535 1_555
Rb15 S19 3.535695 1_455
Rb15 Sn3 3.563712 1_555
Rb15 S3 3.565131 1_555
Rb15 S15 3.629725 1_555
Rb16 S17 3.320980 1_555
Rb16 S31 3.365781 1_555
Rb16 S15 3.415535 1_555
Rb16 S5 3.535695 1_554
Rb16 Sn2 3.563712 1_555
Rb16 S18 3.565131 1_555
Rb16 S16 3.629725 1_555
Rb17 S16 3.320980 1_565
Rb17 S30 3.365781 1_555
Rb17 S22 3.415535 1_555
Rb17 S11 3.535695 1_555
Rb17 Sn1 3.563712 1_555
Rb17 S13 3.565131 1_554
Rb17 S17 3.629725 1_555
Rb18 S11 3.320980 1_545
Rb18 S28 3.365781 1_555
Rb18 S1 3.415535 1_555
Rb18 S16 3.535695 1_555
Rb18 Sn2 3.563712 1_555
Rb18 S10 3.565131 1_554
Rb18 S18 3.629725 1_555
Rb19 S12 3.320980 1_554
Rb19 S28 3.365781 1_555
Rb19 S18 3.415535 1_555
Rb19 S14 3.535695 1_555
Rb19 Sn3 3.563712 1_655
Rb19 S15 3.565131 1_655
Rb19 S19 3.629725 1_555
Rb20 S15 3.320980 1_556
Rb20 S29 3.365781 1_555
Rb20 S5 3.415535 1_555
Rb20 S9 3.535695 1_555
Rb20 Sn4 3.563712 1_555
Rb20 S12 3.565131 1_455
Rb20 S20 3.629725 1_555
Rb21 S7 3.320980 1_455
Rb21 S29 3.365781 1_555
Rb21 S20 3.415535 1_555
Rb21 S23 3.535695 1_555
Rb21 Sn5 3.563712 1_555
Rb21 S8 3.565131 1_545
Rb21 S21 3.629725 1_555
Rb22 S6 3.320980 1_455
Rb22 S30 3.365781 1_555
Rb22 S3 3.415535 1_555
Rb22 S8 3.535695 1_555
Rb22 Sn5 3.563712 1_565
Rb22 S23 3.565131 1_565
Rb22 S22 3.629725 1_555
Rb23 S1 3.320980 1_555
Rb23 S31 3.365781 1_555
Rb23 S16 3.415535 1_555
Rb23 S22 3.535695 1_545
Rb23 Sn5 3.563712 1_555
Rb23 S21 3.565131 1_555
Rb23 S23 3.629725 1_555
Rb24 S23 3.406959 1_555
Rb24 S16 3.406959 1_555
Rb24 S15 3.406959 1_555
Rb24 S28 3.604510 1_455
Rb24 S29 3.604510 1_554
Rb24 S30 3.604510 1_545
Rb25 S3 3.406959 1_555
Rb25 S22 3.406959 1_555
Rb25 S17 3.406959 1_555
Rb25 S31 3.604510 1_555
Rb25 S26 3.604510 1_555
Rb25 S27 3.604510 1_555
Rb26 S19 3.406959 1_555
Rb26 S1 3.406959 1_555
Rb26 S18 3.406959 1_555
Rb26 S31 3.604510 1_555
Rb26 S25 3.604510 1_555
Rb26 S27 3.604510 1_555
Rb27 S21 3.406959 1_555
Rb27 S20 3.406959 1_555
Rb27 S5 3.406959 1_555
Rb27 S31 3.604510 1_555
Rb27 S25 3.604510 1_555
Rb27 S26 3.604510 1_555
Rb28 S13 3.406959 1_555
Rb28 S9 3.406959 1_555
Rb28 S8 3.406959 1_555
Rb28 S29 3.604510 1_565
Rb28 S24 3.604510 1_455
Rb28 S30 3.604510 1_556
Rb29 S6 3.406959 1_555
Rb29 S14 3.406959 1_555
Rb29 S11 3.406959 1_555
Rb29 S30 3.604510 1_655
Rb29 S28 3.604510 1_565
Rb29 S24 3.604510 1_554
Rb30 S12 3.406959 1_555
Rb30 S10 3.406959 1_555
Rb30 S7 3.406959 1_555
Rb30 S28 3.604510 1_556
Rb30 S24 3.604510 1_545
Rb30 S29 3.604510 1_655
Rb31 S0 3.406959 1_555
Rb31 S4 3.406959 1_555
Rb31 S2 3.406959 1_555
Rb31 S27 3.604510 1_555
Rb31 S25 3.604510 1_555
Rb31 S26 3.604510 1_555
S0 Sn0 2.402432 1_565
S1 Sn0 2.402432 1_555
S2 Sn4 2.402432 1_655
S3 Sn3 2.402432 1_555
S4 Sn1 2.402432 1_556
S5 Sn2 2.402432 1_556
S6 Sn0 2.402432 1_565
S7 Sn0 2.402432 1_555
S8 Sn5 2.402432 1_565
S9 Sn4 2.402432 1_555
S10 Sn2 2.402432 1_556
S11 Sn1 2.402432 1_555
S12 Sn4 2.402432 1_655
S13 Sn1 2.402432 1_556
S14 Sn3 2.402432 1_655
S15 Sn3 2.402432 1_555
S16 Sn2 2.402432 1_555
S17 Sn1 2.402432 1_555
S18 Sn2 2.402432 1_555
S19 Sn3 2.402432 1_655
S20 Sn4 2.402432 1_555
S21 Sn5 2.402432 1_555
S22 Sn5 2.402432 1_565
S23 Sn5 2.402432 1_555
S24 Sn7 2.396294 1_666
S25 Sn6 2.396294 1_555
S26 Sn6 2.396294 1_555
S27 Sn6 2.396294 1_555
S28 Sn7 2.396294 1_655
S29 Sn7 2.396294 1_556
S30 Sn7 2.396294 1_565
S31 Sn6 2.396294 1_555
