# generated using pymatgen
data_RbMgRhF6
_symmetry_space_group_name_H-M   'P 1'
_cell_length_a   7.27465271
_cell_length_b   7.27465232
_cell_length_c   7.27465333
_cell_angle_alpha   120.20001448
_cell_angle_beta   120.74466154
_cell_angle_gamma   89.18447721
_symmetry_Int_Tables_number   1
_chemical_formula_structural   RbMgRhF6
_chemical_formula_sum   'Rb2 Mg2 Rh2 F12'
_cell_volume   270.24016314
_cell_formula_units_Z   2
loop_
 _symmetry_equiv_pos_site_id
 _symmetry_equiv_pos_as_xyz
  1  'x, y, z'
loop_
 _atom_site_type_symbol
 _atom_site_label
 _atom_site_symmetry_multiplicity
 _atom_site_fract_x
 _atom_site_fract_y
 _atom_site_fract_z
 _atom_site_occupancy
  Rb  Rb0  1  0.34854129  0.59854129  0.75000000  1
  Rb  Rb1  1  0.65145871  0.40145871  0.25000000  1
  Mg  Mg0  1  0.00000000  0.00000000  0.50000000  1
  Mg  Mg1  1  0.00000000  0.50000000  0.00000000  1
  Rh  Rh0  1  0.00000000  0.00000000  0.00000000  1
  Rh  Rh1  1  0.50000000  0.00000000  0.50000000  1
  F  F0  1  0.33236769  0.08236769  0.25000000  1
  F  F1  1  0.93980270  0.68980270  0.25000000  1
  F  F2  1  0.32812487  0.67465654  0.24482815  1
  F  F3  1  0.92982939  0.08329672  0.25517185  1
  F  F4  1  0.32812487  0.08329672  0.65346833  1
  F  F5  1  0.92982939  0.67465654  0.84653167  1
  F  F6  1  0.66763231  0.91763231  0.75000000  1
  F  F7  1  0.06019730  0.31019730  0.75000000  1
  F  F8  1  0.67187513  0.32534346  0.75517185  1
  F  F9  1  0.07017061  0.91670328  0.74482815  1
  F  F10  1  0.67187513  0.91670328  0.34653167  1
  F  F11  1  0.07017061  0.32534346  0.15346833  1
loop_
_geom_bond_atom_site_label_1
_geom_bond_atom_site_label_2
_geom_bond_distance
_geom_bond_site_symmetry_2
F0 Rh0 1.990390 1_555
F0 Rh1 1.990391 1_555
F0 Rb1 3.306060 1_555
F1 Mg0 1.917434 1_665
F1 Mg1 1.917434 1_655
F1 Rb1 2.987494 1_555
F2 Rh1 1.975342 1_565
F2 Mg1 1.986768 1_555
F2 Rb1 3.055404 1_555
F3 Rh0 1.975337 1_655
F3 Mg0 1.986770 1_655
F3 Rb1 3.055409 1_555
F4 Rh1 1.975342 1_555
F4 Mg0 1.986768 1_555
F4 Rb1 3.055404 1_556
F5 Rh0 1.975342 1_666
F5 Mg1 1.986768 1_656
F5 Rb1 3.055404 1_555
F6 Rh0 1.990390 1_666
F6 Rh1 1.990391 1_565
F6 Rb0 3.306060 1_555
F7 Mg0 1.917434 1_555
F7 Mg1 1.917434 1_556
F7 Rb0 2.987494 1_555
F8 Rh1 1.975342 1_555
F8 Mg1 1.986768 1_656
F8 Rb0 3.055404 1_555
F9 Rh0 1.975337 1_566
F9 Mg0 1.986770 1_565
F9 Rb0 3.055409 1_555
F10 Rh1 1.975342 1_565
F10 Mg0 1.986768 1_665
F10 Rb0 3.055404 1_554
F11 Rh0 1.975342 1_555
F11 Mg1 1.986768 1_555
F11 Rb0 3.055404 1_555
