# generated using pymatgen
data_K2Hf(WO4)3
_symmetry_space_group_name_H-M   'P 1'
_cell_length_a   7.39437556
_cell_length_b   7.39437591
_cell_length_c   7.34879437
_cell_angle_alpha   59.77722496
_cell_angle_beta   59.77722700
_cell_angle_gamma   61.21566581
_symmetry_Int_Tables_number   1
_chemical_formula_structural   K2Hf(WO4)3
_chemical_formula_sum   'K2 Hf1 W3 O12'
_cell_volume   285.65213959
_cell_formula_units_Z   1
loop_
 _symmetry_equiv_pos_site_id
 _symmetry_equiv_pos_as_xyz
  1  'x, y, z'
loop_
 _atom_site_type_symbol
 _atom_site_label
 _atom_site_symmetry_multiplicity
 _atom_site_fract_x
 _atom_site_fract_y
 _atom_site_fract_z
 _atom_site_occupancy
  K  K0  1  0.94649145  0.73427444  0.90678590  1
  K  K1  1  0.26572556  0.05350855  0.09321410  1
  Hf  Hf0  1  0.48057481  0.51942519  0.00000000  1
  W  W0  1  0.51852648  0.98088207  0.48588384  1
  W  W1  1  0.01911793  0.48147352  0.51411616  1
  W  W2  1  0.51668051  0.48331949  0.50000000  1
  O  O0  1  0.17501438  0.19677992  0.56605619  1
  O  O1  1  0.54390993  0.59003079  0.19676662  1
  O  O2  1  0.53607674  0.19632839  0.20208059  1
  O  O3  1  0.18423649  0.56568823  0.56059210  1
  O  O4  1  0.15385714  0.57993214  0.20019710  1
  O  O5  1  0.55042046  0.20187341  0.55524695  1
  O  O6  1  0.80322008  0.82498562  0.43394381  1
  O  O7  1  0.40996921  0.45609007  0.80323338  1
  O  O8  1  0.42006786  0.84614286  0.79980290  1
  O  O9  1  0.79812659  0.44957954  0.44475305  1
  O  O10  1  0.80367161  0.46392326  0.79791941  1
  O  O11  1  0.43431177  0.81576351  0.43940790  1
loop_
_geom_bond_atom_site_label_1
_geom_bond_atom_site_label_2
_geom_bond_distance
_geom_bond_site_symmetry_2
K0 O4 2.732898 1_656
K0 O3 2.774297 1_655
K0 O7 2.952445 1_655
K0 O1 2.987226 1_556
K0 O10 3.200846 1_555
K0 O9 3.277792 1_556
K1 O8 2.732898 1_544
K1 O11 2.774296 1_545
K1 O1 2.952445 1_545
K1 O7 2.987226 1_554
K1 O2 3.200846 1_555
K1 O5 3.277792 1_554
Hf0 O10 2.044291 1_554
Hf0 O2 2.044291 1_555
Hf0 O4 2.060254 1_555
Hf0 O8 2.060254 1_554
Hf0 O7 2.063985 1_554
Hf0 O1 2.063985 1_555
O0 W1 1.789740 1_555
O0 W0 2.209707 1_545
O1 W2 1.886811 1_555
O2 W0 1.867152 1_545
O3 W1 1.833374 1_555
O3 W2 2.083572 1_555
O4 W1 1.881068 1_555
O5 W2 1.819196 1_555
O5 W0 2.077599 1_545
O6 W0 1.789740 1_555
O6 W1 2.209707 1_655
O7 W2 1.886811 1_555
O8 W0 1.881068 1_555
O9 W2 1.819196 1_555
O9 W1 2.077599 1_655
O10 W1 1.867152 1_655
O11 W0 1.833374 1_555
O11 W2 2.083572 1_555
