# generated using pymatgen
data_Cs4ScTaI12
_symmetry_space_group_name_H-M   'P 1'
_cell_length_a   8.37012099
_cell_length_b   8.37012099
_cell_length_c   11.67311546
_cell_angle_alpha   90.00000000
_cell_angle_beta   90.00000000
_cell_angle_gamma   90.00000000
_symmetry_Int_Tables_number   1
_chemical_formula_structural   Cs4ScTaI12
_chemical_formula_sum   'Cs4 Sc1 Ta1 I12'
_cell_volume   817.80592470
_cell_formula_units_Z   1
loop_
 _symmetry_equiv_pos_site_id
 _symmetry_equiv_pos_as_xyz
  1  'x, y, z'
loop_
 _atom_site_type_symbol
 _atom_site_label
 _atom_site_symmetry_multiplicity
 _atom_site_fract_x
 _atom_site_fract_y
 _atom_site_fract_z
 _atom_site_occupancy
  Cs  Cs0  1  0.50000000  0.00000000  0.77262044  1
  Cs  Cs1  1  0.00000000  0.50000000  0.22737956  1
  Cs  Cs2  1  0.50000000  0.00000000  0.22737956  1
  Cs  Cs3  1  0.00000000  0.50000000  0.77262044  1
  Sc  Sc0  1  0.00000000  0.00000000  0.00000000  1
  Ta  Ta0  1  0.50000000  0.50000000  0.50000000  1
  I  I0  1  0.00000000  0.00000000  0.75002033  1
  I  I1  1  0.50000000  0.50000000  0.26338845  1
  I  I2  1  0.73375900  0.73375900  0.50000000  1
  I  I3  1  0.24502857  0.24502857  0.00000000  1
  I  I4  1  0.73375900  0.26624100  0.50000000  1
  I  I5  1  0.24502857  0.75497143  0.00000000  1
  I  I6  1  0.00000000  0.00000000  0.24997967  1
  I  I7  1  0.50000000  0.50000000  0.73661155  1
  I  I8  1  0.26624100  0.26624100  0.50000000  1
  I  I9  1  0.75497143  0.75497143  0.00000000  1
  I  I10  1  0.26624100  0.73375900  0.50000000  1
  I  I11  1  0.75497143  0.24502857  0.00000000  1
loop_
_geom_bond_atom_site_label_1
_geom_bond_atom_site_label_2
_geom_bond_distance
_geom_bond_site_symmetry_2
Cs0 I11 3.975645 1_556
Cs0 I9 3.975645 1_546
Cs0 I3 3.975645 1_556
Cs0 I5 3.975645 1_546
Cs0 I0 4.193367 1_555
Cs0 I0 4.193367 1_655
Cs0 I7 4.206116 1_555
Cs0 I7 4.206116 1_545
Cs0 I4 4.349891 1_555
Cs0 I8 4.349891 1_555
Cs0 I2 4.349891 1_545
Cs0 I10 4.349891 1_545
Cs1 I5 3.975645 1_555
Cs1 I3 3.975645 1_555
Cs1 I9 3.975645 1_455
Cs1 I11 3.975645 1_455
Cs1 I6 4.193367 1_555
Cs1 I6 4.193367 1_565
Cs1 I1 4.206116 1_555
Cs1 I1 4.206116 1_455
Cs1 I10 4.349891 1_555
Cs1 I8 4.349891 1_555
Cs1 I2 4.349891 1_455
Cs1 I4 4.349891 1_455
Cs2 I11 3.975645 1_555
Cs2 I3 3.975645 1_555
Cs2 I9 3.975645 1_545
Cs2 I5 3.975645 1_545
Cs2 I6 4.193367 1_655
Cs2 I6 4.193367 1_555
Cs2 I1 4.206116 1_555
Cs2 I1 4.206116 1_545
Cs2 I4 4.349891 1_555
Cs2 I8 4.349891 1_555
Cs2 I2 4.349891 1_545
Cs2 I10 4.349891 1_545
Cs3 I5 3.975645 1_556
Cs3 I9 3.975645 1_456
Cs3 I3 3.975645 1_556
Cs3 I11 3.975645 1_456
Cs3 I0 4.193367 1_555
Cs3 I0 4.193367 1_565
Cs3 I7 4.206116 1_555
Cs3 I7 4.206116 1_455
Cs3 I10 4.349891 1_555
Cs3 I8 4.349891 1_555
Cs3 I2 4.349891 1_455
Cs3 I4 4.349891 1_455
I0 Sc0 2.918042 1_556
I1 Ta0 2.761994 1_555
I2 Ta0 2.767038 1_555
I3 Sc0 2.900437 1_555
I4 Ta0 2.767038 1_555
I5 Sc0 2.900437 1_565
I6 Sc0 2.918042 1_555
I7 Ta0 2.761994 1_555
I8 Ta0 2.767038 1_555
I9 Sc0 2.900437 1_665
I10 Ta0 2.767038 1_555
I11 Sc0 2.900437 1_655
