# generated using pymatgen
data_Lu3Zr5(Ta3Si4)4
_symmetry_space_group_name_H-M   'P 1'
_cell_length_a   6.88653019
_cell_length_b   6.88577276
_cell_length_c   12.71599863
_cell_angle_alpha   89.95986521
_cell_angle_beta   90.05432004
_cell_angle_gamma   89.85502502
_symmetry_Int_Tables_number   1
_chemical_formula_structural   Lu3Zr5(Ta3Si4)4
_chemical_formula_sum   'Lu3 Zr5 Ta12 Si16'
_cell_volume   602.97863203
_cell_formula_units_Z   1
loop_
 _symmetry_equiv_pos_site_id
 _symmetry_equiv_pos_as_xyz
  1  'x, y, z'
loop_
 _atom_site_type_symbol
 _atom_site_label
 _atom_site_symmetry_multiplicity
 _atom_site_fract_x
 _atom_site_fract_y
 _atom_site_fract_z
 _atom_site_occupancy
  Lu  Lu0  1  0.99889904  0.66023354  0.03092712  1
  Lu  Lu1  1  0.00204343  0.33816218  0.53028291  1
  Lu  Lu2  1  0.66061793  0.99893871  0.96905426  1
  Zr  Zr0  1  0.16052457  0.49785448  0.78117062  1
  Zr  Zr1  1  0.84005211  0.50206772  0.28260275  1
  Zr  Zr2  1  0.49771168  0.16071309  0.21903296  1
  Zr  Zr3  1  0.50240963  0.84024362  0.71809647  1
  Zr  Zr4  1  0.34212608  0.99727460  0.46835451  1
  Ta  Ta0  1  0.34740802  0.50590706  0.37600874  1
  Ta  Ta1  1  0.84578875  0.99634275  0.37340273  1
  Ta  Ta2  1  0.00536991  0.15338982  0.12792203  1
  Ta  Ta3  1  0.99531225  0.84814573  0.62612281  1
  Ta  Ta4  1  0.65163360  0.49452557  0.87490402  1
  Ta  Ta5  1  0.50395661  0.34834076  0.62382997  1
  Ta  Ta6  1  0.49441411  0.65144999  0.12528604  1
  Ta  Ta7  1  0.15394303  0.00474526  0.87221313  1
  Ta  Ta8  1  0.66845722  0.67225970  0.50016086  1
  Ta  Ta9  1  0.83042638  0.16948323  0.74937296  1
  Ta  Ta10  1  0.16999449  0.83082634  0.25088584  1
  Ta  Ta11  1  0.32963355  0.32946242  0.00002279  1
  Si  Si0  1  0.04445224  0.70390516  0.43682248  1
  Si  Si1  1  0.95582944  0.29681906  0.93659077  1
  Si  Si2  1  0.70160145  0.04576822  0.56323937  1
  Si  Si3  1  0.20120598  0.45580898  0.18692504  1
  Si  Si4  1  0.79878649  0.54387109  0.68608062  1
  Si  Si5  1  0.45610975  0.20118541  0.81332541  1
  Si  Si6  1  0.54425247  0.79855790  0.31353314  1
  Si  Si7  1  0.29734352  0.95570323  0.06348970  1
  Si  Si8  1  0.86592809  0.79126556  0.81983575  1
  Si  Si9  1  0.13551854  0.20769695  0.32163003  1
  Si  Si10  1  0.79158244  0.86567871  0.18028950  1
  Si  Si11  1  0.29350830  0.63726212  0.57219773  1
  Si  Si12  1  0.70554253  0.36387007  0.07221346  1
  Si  Si13  1  0.63374120  0.29329932  0.42749806  1
  Si  Si14  1  0.36392295  0.70499899  0.92798730  1
  Si  Si15  1  0.20995019  0.13394468  0.67868913  1
loop_
_geom_bond_atom_site_label_1
_geom_bond_atom_site_label_2
_geom_bond_distance
_geom_bond_site_symmetry_2
Lu0 Si10 2.765055 1_555
Lu0 Si1 2.792169 1_554
Lu0 Si3 2.799688 1_655
Lu0 Si14 2.852538 1_654
Lu0 Si12 2.922783 1_555
Lu0 Si7 2.924989 1_655
Lu0 Si8 2.974136 1_554
Lu1 Si15 2.751282 1_555
Lu1 Si0 2.800059 1_555
Lu1 Si4 2.808850 1_455
Lu1 Si13 2.869651 1_455
Lu1 Si2 2.920882 1_455
Lu1 Si11 2.928304 1_555
Lu1 Si9 2.948787 1_555
Lu2 Si8 2.764586 1_555
Lu2 Si7 2.792511 1_556
Lu2 Si5 2.797349 1_565
Lu2 Si12 2.852819 1_566
Lu2 Si1 2.920975 1_565
Lu2 Si14 2.926488 1_555
Lu2 Si10 2.976259 1_556
Si0 Si11 2.470809 1_555
Si0 Ta1 2.560971 1_455
Si0 Ta0 2.607610 1_555
Si0 Ta3 2.626501 1_455
Si0 Ta10 2.665762 1_555
Si0 Ta8 2.721619 1_455
Si0 Zr1 2.786961 1_455
Si0 Zr4 2.909340 1_555
Si1 Si12 2.482113 1_556
Si1 Ta7 2.562574 1_655
Si1 Ta4 2.614952 1_555
Si1 Ta2 2.646597 1_656
Si1 Ta9 2.680482 1_555
Si1 Ta11 2.706834 1_656
Si1 Zr0 2.796516 1_655
Si2 Ta3 2.561976 1_545
Si2 Ta5 2.603232 1_555
Si2 Ta1 2.633055 1_545
Si2 Ta9 2.667864 1_555
Si2 Ta8 2.704742 1_545
Si2 Zr4 2.773923 1_545
Si2 Zr3 2.788027 1_545
Si3 Si9 2.461451 1_555
Si3 Ta6 2.553729 1_555
Si3 Ta2 2.594717 1_555
Si3 Ta0 2.629089 1_555
Si3 Ta11 2.681517 1_555
Si3 Ta10 2.715944 1_555
Si3 Zr1 2.787398 1_455
Si3 Zr2 2.905369 1_555
Si4 Si8 2.452567 1_555
Si4 Ta5 2.563972 1_555
Si4 Ta3 2.610884 1_555
Si4 Ta4 2.629214 1_555
Si4 Ta8 2.676818 1_555
Si4 Ta9 2.708314 1_555
Si4 Zr0 2.785304 1_655
Si4 Zr3 2.911665 1_555
Si5 Ta4 2.553433 1_555
Si5 Ta7 2.595421 1_555
Si5 Ta5 2.634647 1_555
Si5 Ta11 2.679152 1_556
Si5 Ta9 2.712031 1_555
Si5 Zr3 2.783161 1_545
Si5 Zr0 2.908590 1_555
Si6 Ta0 2.557944 1_555
Si6 Ta1 2.599834 1_555
Si6 Ta6 2.622499 1_555
Si6 Ta8 2.666325 1_555
Si6 Ta10 2.705479 1_555
Si6 Zr4 2.772176 1_555
Si6 Zr2 2.785027 1_565
Si6 Zr1 2.907538 1_555
Si7 Ta2 2.560842 1_565
Si7 Ta6 2.613366 1_555
Si7 Ta7 2.645338 1_564
Si7 Ta10 2.681745 1_555
Si7 Ta11 2.706403 1_565
Si7 Zr2 2.795954 1_565
Si8 Ta7 2.559689 1_665
Si8 Ta4 2.618854 1_555
Si8 Ta3 2.649432 1_555
Si8 Ta9 2.763725 1_565
Si8 Zr3 2.836077 1_555
Si8 Zr0 2.902061 1_655
Si9 Ta1 2.558948 1_445
Si9 Ta0 2.615163 1_555
Si9 Ta2 2.647499 1_555
Si9 Zr4 2.754182 1_545
Si9 Ta10 2.756889 1_545
Si9 Zr2 2.833847 1_555
Si9 Zr1 2.910474 1_455
Si10 Si6 2.448214 1_555
Si10 Ta2 2.559403 1_665
Si10 Ta6 2.620535 1_555
Si10 Ta1 2.642350 1_555
Si10 Ta10 2.765233 1_655
Si10 Zr1 2.839571 1_555
Si10 Zr2 2.906530 1_565
Si11 Ta5 2.543834 1_555
Si11 Ta3 2.604759 1_455
Si11 Ta0 2.680075 1_555
Si11 Zr3 2.733825 1_555
Si11 Ta8 2.751675 1_555
Si11 Zr4 2.828684 1_555
Si11 Zr0 2.971006 1_555
Si12 Ta6 2.545544 1_555
Si12 Ta2 2.616537 1_655
Si12 Ta4 2.689910 1_554
Si12 Zr2 2.739050 1_555
Si12 Ta11 2.756652 1_555
Si12 Zr1 2.987338 1_555
Si13 Si2 2.468442 1_555
Si13 Ta0 2.538040 1_555
Si13 Ta1 2.602967 1_545
Si13 Ta5 2.679384 1_555
Si13 Zr1 2.737047 1_555
Si13 Ta8 2.779598 1_555
Si13 Zr4 2.911866 1_545
Si13 Zr2 2.956519 1_555
Si14 Si7 2.482109 1_556
Si14 Ta4 2.543828 1_555
Si14 Ta7 2.614373 1_565
Si14 Ta6 2.688974 1_556
Si14 Zr0 2.736921 1_555
Si14 Ta11 2.753484 1_556
Si14 Zr3 2.984297 1_555
Si15 Si5 2.453297 1_555
Si15 Ta3 2.553256 1_445
Si15 Ta5 2.604179 1_555
Si15 Ta7 2.645084 1_555
Si15 Ta9 2.774922 1_455
Si15 Zr0 2.845030 1_555
Si15 Zr3 2.893685 1_545
Si15 Zr4 2.978511 1_545
