# generated using pymatgen
data_Ba5CrHN4
_symmetry_space_group_name_H-M   'P 1'
_cell_length_a   7.89930910
_cell_length_b   7.89930879
_cell_length_c   9.78793089
_cell_angle_alpha   77.07994754
_cell_angle_beta   77.07994932
_cell_angle_gamma   95.29341977
_symmetry_Int_Tables_number   1
_chemical_formula_structural   Ba5CrHN4
_chemical_formula_sum   'Ba10 Cr2 H2 N8'
_cell_volume   573.68290546
_cell_formula_units_Z   2
loop_
 _symmetry_equiv_pos_site_id
 _symmetry_equiv_pos_as_xyz
  1  'x, y, z'
loop_
 _atom_site_type_symbol
 _atom_site_label
 _atom_site_symmetry_multiplicity
 _atom_site_fract_x
 _atom_site_fract_y
 _atom_site_fract_z
 _atom_site_occupancy
  Ba  Ba0  1  0.37805420  0.37805420  0.37696105  1
  Ba  Ba1  1  0.62194580  0.62194580  0.62303895  1
  Ba  Ba2  1  0.65955755  0.65955755  0.00748233  1
  Ba  Ba3  1  0.34044245  0.34044245  0.99251767  1
  Ba  Ba4  1  0.94348821  0.94348821  0.19124386  1
  Ba  Ba5  1  0.05651179  0.05651179  0.80875614  1
  Ba  Ba6  1  0.57309135  0.07160941  0.76331564  1
  Ba  Ba7  1  0.92839059  0.42690865  0.23668436  1
  Ba  Ba8  1  0.42690865  0.92839059  0.23668436  1
  Ba  Ba9  1  0.07160941  0.57309135  0.76331564  1
  Cr  Cr0  1  0.75506694  0.24493306  0.00000000  1
  Cr  Cr1  1  0.24493306  0.75506694  0.00000000  1
  H  H0  1  0.65837072  0.65837072  0.30500054  1
  H  H1  1  0.34162928  0.34162928  0.69499946  1
  N  N0  1  0.71486909  0.02196297  0.00026329  1
  N  N1  1  0.97803703  0.28513091  0.99973671  1
  N  N2  1  0.28513091  0.97803703  0.99973671  1
  N  N3  1  0.02196297  0.71486909  0.00026329  1
  N  N4  1  0.38044095  0.71396528  0.84688754  1
  N  N5  1  0.28603472  0.61955905  0.15311146  1
  N  N6  1  0.61955905  0.28603472  0.15311146  1
  N  N7  1  0.71396528  0.38044095  0.84688754  1
loop_
_geom_bond_atom_site_label_1
_geom_bond_atom_site_label_2
_geom_bond_distance
_geom_bond_site_symmetry_2
Ba0 H0 2.828928 1_555
Ba0 N5 2.840292 1_555
Ba0 N6 2.840292 1_555
Ba0 H1 3.006595 1_555
Ba1 H1 2.828928 1_555
Ba1 N7 2.840285 1_555
Ba1 N4 2.840285 1_555
Ba1 H0 3.006595 1_555
Ba2 N0 2.838344 1_565
Ba2 N3 2.838344 1_655
Ba2 H0 2.907920 1_555
Ba2 N6 2.929733 1_555
Ba2 N5 2.929733 1_555
Ba2 N7 2.989880 1_554
Ba2 N4 2.989880 1_554
Ba3 N2 2.838344 1_545
Ba3 N1 2.838344 1_455
Ba3 H1 2.907920 1_555
Ba3 N4 2.929735 1_555
Ba3 N7 2.929735 1_555
Ba3 N5 2.989874 1_556
Ba3 N6 2.989874 1_556
Ba4 H0 2.864624 1_555
Ba4 N1 2.871318 1_564
Ba4 N2 2.871319 1_654
Ba4 N3 2.887552 1_655
Ba4 N0 2.887552 1_565
Ba5 H1 2.864624 1_555
Ba5 N3 2.871318 1_546
Ba5 N0 2.871319 1_456
Ba5 N1 2.887552 1_455
Ba5 N2 2.887552 1_545
Ba6 N0 2.760928 1_556
Ba6 N2 2.765230 1_545
Ba6 N4 2.929688 1_545
Ba6 N7 2.942348 1_555
Ba6 H1 2.994696 1_555
Ba7 N1 2.760928 1_554
Ba7 N3 2.765230 1_655
Ba7 N5 2.929687 1_655
Ba7 N6 2.942354 1_555
Ba7 H0 2.994696 1_555
Ba8 N2 2.760928 1_554
Ba8 N0 2.765230 1_565
Ba8 N6 2.929687 1_565
Ba8 N5 2.942354 1_555
Ba8 H0 2.994696 1_555
Ba9 N3 2.760928 1_556
Ba9 N1 2.765230 1_455
Ba9 N7 2.929688 1_455
Ba9 N4 2.942348 1_555
Ba9 H1 2.994696 1_555
Cr0 N6 1.749713 1_555
Cr0 N7 1.749721 1_554
Cr0 N0 1.759959 1_555
Cr0 N1 1.759960 1_554
Cr1 N5 1.749713 1_555
Cr1 N4 1.749721 1_554
Cr1 N2 1.759959 1_554
Cr1 N3 1.759960 1_555
