# generated using pymatgen
data_Cs8Zr6CrBr20
_symmetry_space_group_name_H-M   'P 1'
_cell_length_a   12.38907209
_cell_length_b   12.38907219
_cell_length_c   12.38907116
_cell_angle_alpha   60.00000013
_cell_angle_beta   59.99999987
_cell_angle_gamma   60.00000169
_symmetry_Int_Tables_number   1
_chemical_formula_structural   Cs8Zr6CrBr20
_chemical_formula_sum   'Cs8 Zr6 Cr1 Br20'
_cell_volume   1344.62542473
_cell_formula_units_Z   1
loop_
 _symmetry_equiv_pos_site_id
 _symmetry_equiv_pos_as_xyz
  1  'x, y, z'
loop_
 _atom_site_type_symbol
 _atom_site_label
 _atom_site_symmetry_multiplicity
 _atom_site_fract_x
 _atom_site_fract_y
 _atom_site_fract_z
 _atom_site_occupancy
  Cs  Cs0  1  0.36090588  0.36090588  0.36090588  1
  Cs  Cs1  1  0.63909412  0.63909412  0.63909412  1
  Cs  Cs2  1  0.36090588  0.36090588  0.91728235  1
  Cs  Cs3  1  0.36090588  0.91728235  0.36090588  1
  Cs  Cs4  1  0.63909412  0.63909412  0.08271765  1
  Cs  Cs5  1  0.63909412  0.08271765  0.63909412  1
  Cs  Cs6  1  0.91728235  0.36090588  0.36090588  1
  Cs  Cs7  1  0.08271765  0.63909412  0.63909412  1
  Zr  Zr0  1  0.85973899  0.14026101  0.14026101  1
  Zr  Zr1  1  0.14026101  0.85973899  0.85973899  1
  Zr  Zr2  1  0.14026101  0.85973899  0.14026101  1
  Zr  Zr3  1  0.85973899  0.14026101  0.85973899  1
  Zr  Zr4  1  0.14026101  0.14026101  0.85973899  1
  Zr  Zr5  1  0.85973899  0.85973899  0.14026101  1
  Cr  Cr0  1  0.00000000  0.00000000  0.00000000  1
  Br  Br0  1  0.31460850  1.00000000  1.00000000  1
  Br  Br1  1  0.68539150  0.00000000  0.00000000  1
  Br  Br2  1  1.00000000  0.31460850  0.68539150  1
  Br  Br3  1  0.00000000  0.68539150  0.31460850  1
  Br  Br4  1  1.00000000  0.31460850  1.00000000  1
  Br  Br5  1  0.68539150  0.00000000  0.31460850  1
  Br  Br6  1  0.00000000  0.68539150  0.00000000  1
  Br  Br7  1  0.31460850  1.00000000  0.68539150  1
  Br  Br8  1  0.00000000  0.00000000  0.31460850  1
  Br  Br9  1  1.00000000  1.00000000  0.68539150  1
  Br  Br10  1  0.68539150  0.31460850  1.00000000  1
  Br  Br11  1  0.31460850  0.68539150  0.00000000  1
  Br  Br12  1  0.69298966  0.30701034  0.30701034  1
  Br  Br13  1  0.30701034  0.69298966  0.69298966  1
  Br  Br14  1  0.30701034  0.69298966  0.30701034  1
  Br  Br15  1  0.69298966  0.30701034  0.69298966  1
  Br  Br16  1  0.30701034  0.30701034  0.69298966  1
  Br  Br17  1  0.69298966  0.69298966  0.30701034  1
  Br  Br18  1  0.25000000  0.25000000  0.25000000  1
  Br  Br19  1  0.75000000  0.75000000  0.75000000  1
loop_
_geom_bond_atom_site_label_1
_geom_bond_atom_site_label_2
_geom_bond_distance
_geom_bond_site_symmetry_2
Cr0 Zr2 2.457484 1_545
Cr0 Zr3 2.457484 1_454
Cr0 Zr0 2.457484 1_455
Cr0 Zr1 2.457484 1_544
Cr0 Zr4 2.457484 1_554
Cr0 Zr5 2.457484 1_445
Br0 Zr4 2.772225 1_565
Br0 Zr2 2.772225 1_556
Br1 Zr5 2.772225 1_545
Br1 Zr3 2.772225 1_554
Br2 Zr4 2.772225 1_655
Br2 Zr3 2.772225 1_555
Br3 Zr5 2.772225 1_455
Br3 Zr2 2.772225 1_555
Br4 Zr4 2.772225 1_655
Br4 Zr0 2.772225 1_556
Br5 Zr5 2.772225 1_545
Br5 Zr0 2.772225 1_555
Br6 Zr5 2.772225 1_455
Br6 Zr1 2.772225 1_554
Br7 Zr4 2.772225 1_565
Br7 Zr1 2.772225 1_555
Br8 Zr2 2.772225 1_545
Br8 Zr0 2.772225 1_455
Br9 Zr3 2.772225 1_565
Br9 Zr1 2.772225 1_655
Br10 Zr3 2.772225 1_555
Br10 Zr0 2.772225 1_556
Br11 Zr2 2.772225 1_555
Br11 Zr1 2.772225 1_554
Br12 Zr0 2.921580 1_555
Br12 Cs5 3.573515 1_555
Br12 Cs6 3.573515 1_555
Br12 Cs4 3.573515 1_555
Br12 Cs0 3.573515 1_555
Br13 Zr1 2.921580 1_555
Br13 Cs3 3.573515 1_555
Br13 Cs7 3.573515 1_555
Br13 Cs2 3.573515 1_555
Br13 Cs1 3.573515 1_555
Br14 Zr2 2.921580 1_555
Br14 Cs7 3.573515 1_555
Br14 Cs4 3.573515 1_555
Br14 Cs3 3.573515 1_555
Br14 Cs0 3.573515 1_555
Br15 Zr3 2.921580 1_555
Br15 Cs6 3.573515 1_555
Br15 Cs2 3.573515 1_555
Br15 Cs5 3.573515 1_555
Br15 Cs1 3.573515 1_555
Br16 Zr4 2.921580 1_555
Br16 Cs0 3.573515 1_555
Br16 Cs2 3.573515 1_555
Br16 Cs5 3.573515 1_555
Br16 Cs7 3.573515 1_555
Br17 Zr5 2.921580 1_555
Br17 Cs1 3.573515 1_555
Br17 Cs4 3.573515 1_555
Br17 Cs3 3.573515 1_555
Br17 Cs6 3.573515 1_555
Br18 Cs2 3.365650 1_554
Br18 Cs0 3.365650 1_555
Br18 Cs6 3.365650 1_455
Br18 Cs3 3.365650 1_545
Br19 Cs4 3.365650 1_556
Br19 Cs1 3.365650 1_555
Br19 Cs7 3.365650 1_655
Br19 Cs5 3.365650 1_565
