# generated using pymatgen
data_Ti8Al14SiIr7
_symmetry_space_group_name_H-M   'P 1'
_cell_length_a   8.59355634
_cell_length_b   8.59355701
_cell_length_c   8.59355634
_cell_angle_alpha   120.06505151
_cell_angle_beta   119.88491608
_cell_angle_gamma   90.04340832
_symmetry_Int_Tables_number   1
_chemical_formula_structural   Ti8Al14SiIr7
_chemical_formula_sum   'Ti8 Al14 Si1 Ir7'
_cell_volume   448.91748433
_cell_formula_units_Z   1
loop_
 _symmetry_equiv_pos_site_id
 _symmetry_equiv_pos_as_xyz
  1  'x, y, z'
loop_
 _atom_site_type_symbol
 _atom_site_label
 _atom_site_symmetry_multiplicity
 _atom_site_fract_x
 _atom_site_fract_y
 _atom_site_fract_z
 _atom_site_occupancy
  Ti  Ti0  1  0.79879407  0.29692422  0.08889597  1
  Ti  Ti1  1  0.20802925  0.29692422  0.49813015  1
  Ti  Ti2  1  0.20112738  0.70112738  0.50000000  1
  Ti  Ti3  1  0.20802925  0.70990010  0.91110403  1
  Ti  Ti4  1  0.79879407  0.70990010  0.50186985  1
  Ti  Ti5  1  0.79085157  0.29085157  0.50000000  1
  Ti  Ti6  1  0.37963096  0.12287357  0.74324261  1
  Ti  Ti7  1  0.37963096  0.63638835  0.25675739  1
  Al  Al0  1  0.15775940  0.33920380  0.18144340  1
  Al  Al1  1  0.15775940  0.97631500  0.81855660  1
  Al  Al2  1  0.15262329  0.34281023  0.80981306  1
  Al  Al3  1  0.53299617  0.34281023  0.19018694  1
  Al  Al4  1  0.84139010  0.65649574  0.81510665  1
  Al  Al5  1  0.84139010  0.02628345  0.18489335  1
  Al  Al6  1  0.83927128  0.65842721  0.18084407  1
  Al  Al7  1  0.47758114  0.65842721  0.81915593  1
  Al  Al8  1  0.38013014  0.12049495  0.25963518  1
  Al  Al9  1  0.86086077  0.12049495  0.74036482  1
  Al  Al10  1  0.62123043  0.87971614  0.25848571  1
  Al  Al11  1  0.62123043  0.36274372  0.74151429  1
  Al  Al12  1  0.62231027  0.87907849  0.74323077  1
  Al  Al13  1  0.13584672  0.87907849  0.25676923  1
  Si  Si0  1  0.99664618  0.49664618  0.50000000  1
  Ir  Ir0  1  0.00228343  0.99966335  0.50173093  1
  Ir  Ir1  1  0.49793243  0.99966335  0.99737992  1
  Ir  Ir2  1  0.49731367  0.49731367  1.00000000  1
  Ir  Ir3  1  0.49793243  0.50055151  0.49826907  1
  Ir  Ir4  1  0.00228343  0.50055151  0.00262008  1
  Ir  Ir5  1  0.99975436  0.99975436  0.00000000  1
  Ir  Ir6  1  0.49858495  0.99858495  0.50000000  1
loop_
_geom_bond_atom_site_label_1
_geom_bond_atom_site_label_2
_geom_bond_distance
_geom_bond_site_symmetry_2
Al0 Ir5 2.472061 1_445
Al0 Ir4 2.482112 1_555
Al0 Ir3 2.482127 1_555
Al1 Ir5 2.472051 1_456
Al1 Ir1 2.482125 1_555
Al1 Ir0 2.482133 1_555
Al2 Ir4 2.477377 1_556
Al2 Ir0 2.477379 1_545
Al2 Ir2 2.490700 1_555
Al3 Ir3 2.477373 1_555
Al3 Ir1 2.477381 1_544
Al3 Ir2 2.490702 1_554
Al4 Ir5 2.494195 1_556
Al4 Ir3 2.500105 1_555
Al4 Ir4 2.500106 1_656
Al5 Ir5 2.494187 1_545
Al5 Ir1 2.500105 1_544
Al5 Ir0 2.500106 1_645
Al6 Ir0 2.491529 1_655
Al6 Ir4 2.491531 1_655
Al6 Ir2 2.500920 1_554
Al7 Ir1 2.491525 1_555
Al7 Ir3 2.491539 1_555
Al7 Ir2 2.500916 1_555
Al8 Ir6 2.544592 1_545
Al8 Ir3 2.666943 1_555
Al8 Ir1 2.666950 1_544
Al8 Ir5 2.673405 1_445
Al9 Ir6 2.544599 1_545
Al9 Ir0 2.666943 1_645
Al9 Ir4 2.666943 1_656
Al9 Ir5 2.673405 1_546
Al10 Ir6 2.553248 1_555
Al10 Ir0 2.677649 1_655
Al10 Ir1 2.677649 1_554
Al10 Ir2 2.681561 1_554
Al11 Ir6 2.553242 1_545
Al11 Ir4 2.677649 1_656
Al11 Ir3 2.677649 1_555
Al11 Ir2 2.681561 1_555
Al12 Ir6 2.547944 1_555
Al12 Ir5 2.652372 1_556
Al12 Ir1 2.654543 1_555
Al12 Ir3 2.654544 1_555
Al13 Ir6 2.547951 1_555
Al13 Ir5 2.652378 1_455
Al13 Ir0 2.654529 1_555
Al13 Ir4 2.654543 1_555
Si0 Ti2 2.484144 1_655
Si0 Ti5 2.500100 1_555
Si0 Ti0 2.500391 1_555
Si0 Ti3 2.500392 1_655
Si0 Ti1 2.500398 1_655
Si0 Ti4 2.500404 1_555
Ir0 Ti6 2.651465 1_565
Ir1 Ti6 2.651465 1_565
Ir2 Ti7 2.627327 1_556
Ir2 Ti6 2.627328 1_555
Ir3 Ti7 2.651472 1_555
Ir4 Ti7 2.651465 1_555
Ir6 Ti6 2.539528 1_565
Ir6 Ti7 2.539528 1_555
