# generated using pymatgen
data_RbSb3(SeO6)2
_symmetry_space_group_name_H-M   'P 1'
_cell_length_a   7.20256157
_cell_length_b   7.20256185
_cell_length_c   12.00053449
_cell_angle_alpha   90.00000000
_cell_angle_beta   90.00000000
_cell_angle_gamma   120.00000754
_symmetry_Int_Tables_number   1
_chemical_formula_structural   RbSb3(SeO6)2
_chemical_formula_sum   'Rb2 Sb6 Se4 O24'
_cell_volume   539.14448116
_cell_formula_units_Z   2
loop_
 _symmetry_equiv_pos_site_id
 _symmetry_equiv_pos_as_xyz
  1  'x, y, z'
loop_
 _atom_site_type_symbol
 _atom_site_label
 _atom_site_symmetry_multiplicity
 _atom_site_fract_x
 _atom_site_fract_y
 _atom_site_fract_z
 _atom_site_occupancy
  Rb  Rb0  1  0.33333300  0.66666700  0.54790247  1
  Rb  Rb1  1  0.66666700  0.33333300  0.04790247  1
  Sb  Sb0  1  0.16655886  0.33305723  0.20812108  1
  Sb  Sb1  1  0.16649838  0.83344114  0.20812108  1
  Sb  Sb2  1  0.33305723  0.16649838  0.70812108  1
  Sb  Sb3  1  0.83344114  0.66694277  0.70812108  1
  Sb  Sb4  1  0.66694277  0.83350162  0.20812108  1
  Sb  Sb5  1  0.83350162  0.16655886  0.70812108  1
  Se  Se0  1  0.00000000  0.00000000  0.43271989  1
  Se  Se1  1  0.33333300  0.66666700  0.97939651  1
  Se  Se2  1  0.66666700  0.33333300  0.47939651  1
  Se  Se3  1  0.00000000  0.00000000  0.93271989  1
  O  O0  1  0.73981778  0.86991308  0.66792314  1
  O  O1  1  0.86990569  0.73981778  0.16792314  1
  O  O2  1  0.86991308  0.13009431  0.16792314  1
  O  O3  1  0.13008692  0.86990569  0.66792314  1
  O  O4  1  0.13009431  0.26018222  0.66792314  1
  O  O5  1  0.26018222  0.13008692  0.16792314  1
  O  O6  1  0.53432203  0.06862655  0.74081668  1
  O  O7  1  0.46569548  0.53432203  0.24081668  1
  O  O8  1  0.06862655  0.53430452  0.24081668  1
  O  O9  1  0.93137345  0.46569548  0.74081668  1
  O  O10  1  0.53430452  0.46567797  0.74081668  1
  O  O11  1  0.46567797  0.93137345  0.24081668  1
  O  O12  1  0.20916509  0.79070574  0.04085001  1
  O  O13  1  0.41845935  0.20916509  0.54085001  1
  O  O14  1  0.79070573  0.58154065  0.54085001  1
  O  O15  1  0.20929427  0.41845935  0.04085001  1
  O  O16  1  0.58154065  0.79083491  0.04085001  1
  O  O17  1  0.79083491  0.20929426  0.54085001  1
  O  O18  1  0.12470158  0.87531892  0.37118581  1
  O  O19  1  0.24938266  0.12470158  0.87118581  1
  O  O20  1  0.87531892  0.75061734  0.87118581  1
  O  O21  1  0.12468108  0.24938266  0.37118581  1
  O  O22  1  0.75061734  0.87529842  0.37118581  1
  O  O23  1  0.87529842  0.12468108  0.87118581  1
loop_
_geom_bond_atom_site_label_1
_geom_bond_atom_site_label_2
_geom_bond_distance
_geom_bond_site_symmetry_2
O0 Sb3 1.952024 1_555
O0 Sb5 1.952282 1_565
O0 Rb0 2.916026 1_555
O1 Sb1 1.952018 1_655
O1 Sb4 1.952289 1_555
O1 Rb1 2.916026 1_555
O2 Sb4 1.952019 1_545
O2 Sb0 1.952284 1_655
O2 Rb1 2.916026 1_555
O3 Sb2 1.952019 1_565
O3 Sb3 1.952284 1_455
O3 Rb0 2.916026 1_555
O4 Sb5 1.952018 1_455
O4 Sb2 1.952289 1_555
O4 Rb0 2.916026 1_555
O5 Sb0 1.952024 1_555
O5 Sb1 1.952282 1_545
O5 Rb1 2.916026 1_555
O6 Sb2 1.942719 1_555
O6 Sb5 1.942922 1_555
O7 Sb0 1.942719 1_555
O7 Sb4 1.942922 1_555
O8 Sb1 1.942719 1_555
O8 Sb0 1.942923 1_555
O9 Sb5 1.942719 1_555
O9 Sb3 1.942923 1_555
O10 Sb3 1.942719 1_555
O10 Sb2 1.942922 1_555
O11 Sb4 1.942719 1_555
O11 Sb1 1.942922 1_555
O12 Se1 1.714887 1_554
O12 Sb1 2.076824 1_555
O13 Se2 1.714892 1_555
O13 Sb2 2.076824 1_555
O14 Se2 1.714892 1_555
O14 Sb3 2.076824 1_555
O15 Se1 1.714892 1_554
O15 Sb0 2.076824 1_555
O16 Se1 1.714892 1_554
O16 Sb4 2.076824 1_555
O17 Se2 1.714887 1_555
O17 Sb5 2.076824 1_555
O18 Se0 1.721927 1_565
O18 Sb1 2.025272 1_555
O18 Rb0 3.357404 1_555
O19 Se3 1.721926 1_555
O19 Sb2 2.025272 1_555
O19 Rb1 3.357408 1_556
O20 Se3 1.721926 1_665
O20 Sb3 2.025272 1_555
O20 Rb1 3.357408 1_556
O21 Se0 1.721926 1_555
O21 Sb0 2.025272 1_555
O21 Rb0 3.357408 1_555
O22 Se0 1.721926 1_665
O22 Sb4 2.025272 1_555
O22 Rb0 3.357408 1_555
O23 Se3 1.721927 1_655
O23 Sb5 2.025272 1_555
O23 Rb1 3.357404 1_556
