# generated using pymatgen
data_Cs2YP2S7
_symmetry_space_group_name_H-M   'P 1'
_cell_length_a   9.60250227
_cell_length_b   9.60250281
_cell_length_c   9.29449558
_cell_angle_alpha   72.35115041
_cell_angle_beta   72.35115197
_cell_angle_gamma   71.08009522
_symmetry_Int_Tables_number   1
_chemical_formula_structural   Cs2YP2S7
_chemical_formula_sum   'Cs4 Y2 P4 S14'
_cell_volume   752.34820778
_cell_formula_units_Z   2
loop_
 _symmetry_equiv_pos_site_id
 _symmetry_equiv_pos_as_xyz
  1  'x, y, z'
loop_
 _atom_site_type_symbol
 _atom_site_label
 _atom_site_symmetry_multiplicity
 _atom_site_fract_x
 _atom_site_fract_y
 _atom_site_fract_z
 _atom_site_occupancy
  Cs  Cs0  1  0.61165902  0.04912303  0.16567883  1
  Cs  Cs1  1  0.95087697  0.38834098  0.83432117  1
  Cs  Cs2  1  0.38834098  0.95087697  0.83432117  1
  Cs  Cs3  1  0.04912303  0.61165902  0.16567883  1
  Y  Y0  1  0.68429463  0.31570537  0.50000000  1
  Y  Y1  1  0.31570537  0.68429463  0.50000000  1
  P  P0  1  0.94706281  0.94706281  0.44171875  1
  P  P1  1  0.05293719  0.05293719  0.55828125  1
  P  P2  1  0.39345955  0.39345955  0.81693702  1
  P  P3  1  0.60654045  0.60654045  0.18306298  1
  S  S0  1  0.68109378  0.37924460  0.19671989  1
  S  S1  1  0.62075540  0.31890622  0.80328011  1
  S  S2  1  0.31890622  0.62075540  0.80328011  1
  S  S3  1  0.37924460  0.68109378  0.19671989  1
  S  S4  1  0.00597713  0.00597713  0.21375392  1
  S  S5  1  0.99402287  0.99402287  0.78624608  1
  S  S6  1  0.71899678  0.01692086  0.53056030  1
  S  S7  1  0.98307914  0.28100322  0.46943970  1
  S  S8  1  0.28100322  0.98307914  0.46943970  1
  S  S9  1  0.01692086  0.71899678  0.53056030  1
  S  S10  1  0.27727757  0.27727757  0.00203631  1
  S  S11  1  0.72272243  0.72272243  0.99796369  1
  S  S12  1  0.36777745  0.36777745  0.60853247  1
  S  S13  1  0.63222255  0.63222255  0.39146753  1
loop_
_geom_bond_atom_site_label_1
_geom_bond_atom_site_label_2
_geom_bond_distance
_geom_bond_site_symmetry_2
Cs0 S0 3.552253 1_555
Cs0 S1 3.569535 1_554
Cs0 S11 3.630118 1_544
Cs0 S8 3.638558 1_545
Cs0 S10 3.715096 1_555
Cs0 S6 3.733163 1_555
Cs0 S4 3.821620 1_655
Cs0 S13 3.887648 1_545
Cs1 S1 3.552253 1_555
Cs1 S0 3.569535 1_556
Cs1 S10 3.630118 1_656
Cs1 S9 3.638558 1_655
Cs1 S11 3.715096 1_555
Cs1 S7 3.733163 1_555
Cs1 S5 3.821620 1_545
Cs1 S12 3.887647 1_655
Cs2 S2 3.552253 1_555
Cs2 S3 3.569535 1_556
Cs2 S10 3.630118 1_566
Cs2 S6 3.638558 1_565
Cs2 S11 3.715096 1_555
Cs2 S8 3.733163 1_555
Cs2 S5 3.821620 1_455
Cs2 S12 3.887648 1_565
Cs3 S3 3.552253 1_555
Cs3 S2 3.569535 1_554
Cs3 S11 3.630118 1_454
Cs3 S7 3.638558 1_455
Cs3 S10 3.715096 1_555
Cs3 S9 3.733163 1_555
Cs3 S4 3.821620 1_565
Cs3 S13 3.887647 1_455
P0 S4 1.970626 1_665
P0 S6 2.052951 1_565
P0 S9 2.052951 1_655
P0 P1 2.290622 1_665
P1 S5 1.970626 1_445
P1 S8 2.052951 1_545
P1 S7 2.052951 1_455
P2 S10 1.982065 1_556
P2 S1 2.041134 1_555
P2 S2 2.041134 1_555
P2 S12 2.119532 1_555
P3 S11 1.982065 1_554
P3 S3 2.041134 1_555
P3 S0 2.041134 1_555
P3 S13 2.119532 1_555
S0 Y0 2.704912 1_555
S1 Y0 2.704912 1_555
S2 Y1 2.704912 1_555
S3 Y1 2.704912 1_555
S6 Y0 2.714145 1_555
S7 Y0 2.714145 1_555
S8 Y1 2.714145 1_555
S9 Y1 2.714145 1_555
S12 Y0 2.822501 1_555
S12 Y1 2.822501 1_555
S13 Y1 2.822501 1_555
S13 Y0 2.822501 1_555
