# generated using pymatgen
data_Ca3Cd(SiO4)2
_symmetry_space_group_name_H-M   'P 1'
_cell_length_a   5.08083561
_cell_length_b   6.67156657
_cell_length_c   11.29104153
_cell_angle_alpha   90.62340603
_cell_angle_beta   90.00000000
_cell_angle_gamma   90.00000000
_symmetry_Int_Tables_number   1
_chemical_formula_structural   Ca3Cd(SiO4)2
_chemical_formula_sum   'Ca6 Cd2 Si4 O16'
_cell_volume   382.71128139
_cell_formula_units_Z   2
loop_
 _symmetry_equiv_pos_site_id
 _symmetry_equiv_pos_as_xyz
  1  'x, y, z'
loop_
 _atom_site_type_symbol
 _atom_site_label
 _atom_site_symmetry_multiplicity
 _atom_site_fract_x
 _atom_site_fract_y
 _atom_site_fract_z
 _atom_site_occupancy
  Ca  Ca0  1  0.48927451  0.74859330  0.77981919  1
  Ca  Ca1  1  0.98927451  0.25140670  0.72018081  1
  Ca  Ca2  1  0.51072549  0.25140670  0.22018081  1
  Ca  Ca3  1  0.01072549  0.74859330  0.27981919  1
  Ca  Ca4  1  0.50000000  0.00000000  0.50000000  1
  Ca  Ca5  1  0.00000000  0.00000000  0.00000000  1
  Cd  Cd0  1  0.50000000  0.50000000  0.50000000  1
  Cd  Cd1  1  0.00000000  0.50000000  0.00000000  1
  Si  Si0  1  0.92591641  0.74755128  0.59574529  1
  Si  Si1  1  0.42591641  0.25244872  0.90425471  1
  Si  Si2  1  0.07408359  0.25244872  0.40425471  1
  Si  Si3  1  0.57408359  0.74755128  0.09574529  1
  O  O0  1  0.20485756  0.44754612  0.33844722  1
  O  O1  1  0.70485756  0.55245388  0.16155278  1
  O  O2  1  0.79472694  0.94547545  0.66074417  1
  O  O3  1  0.29472694  0.05452455  0.83925583  1
  O  O4  1  0.79514244  0.55245388  0.66155278  1
  O  O5  1  0.29514244  0.44754612  0.83844722  1
  O  O6  1  0.20527306  0.05452455  0.33925583  1
  O  O7  1  0.70527306  0.94547545  0.16074417  1
  O  O8  1  0.79905692  0.74556338  0.46029166  1
  O  O9  1  0.29905692  0.25443662  0.03970834  1
  O  O10  1  0.20094308  0.25443662  0.53970834  1
  O  O11  1  0.70094308  0.74556338  0.96029166  1
  O  O12  1  0.25389611  0.75145229  0.09434471  1
  O  O13  1  0.75389611  0.24854771  0.40565529  1
  O  O14  1  0.74610389  0.24854771  0.90565529  1
  O  O15  1  0.24610389  0.75145229  0.59434471  1
loop_
_geom_bond_atom_site_label_1
_geom_bond_atom_site_label_2
_geom_bond_distance
_geom_bond_site_symmetry_2
Ca0 O11 2.304391 1_555
Ca0 O5 2.339642 1_555
Ca0 O3 2.358703 1_565
Ca0 O4 2.423340 1_555
Ca0 O15 2.431747 1_555
Ca0 O2 2.445390 1_555
Ca1 O10 2.304391 1_655
Ca1 O4 2.339642 1_555
Ca1 O2 2.358703 1_545
Ca1 O5 2.423340 1_655
Ca1 O14 2.431747 1_555
Ca1 O3 2.445390 1_655
Ca2 O9 2.304391 1_555
Ca2 O1 2.339642 1_555
Ca2 O7 2.358703 1_545
Ca2 O0 2.423340 1_555
Ca2 O13 2.431747 1_555
Ca2 O6 2.445390 1_555
Ca3 O8 2.304391 1_455
Ca3 O0 2.339642 1_555
Ca3 O6 2.358703 1_565
Ca3 O1 2.423340 1_455
Ca3 O12 2.431747 1_555
Ca3 O7 2.445390 1_455
Ca4 O8 2.318337 1_545
Ca4 O10 2.318337 1_555
Ca4 O13 2.363671 1_555
Ca4 O15 2.363671 1_545
Ca4 O2 2.383944 1_545
Ca4 O6 2.383944 1_555
Ca5 O9 2.318337 1_555
Ca5 O11 2.318337 1_444
Ca5 O12 2.363671 1_545
Ca5 O14 2.363671 1_454
Ca5 O7 2.383944 1_445
Ca5 O3 2.383944 1_554
Cd0 O8 2.282489 1_555
Cd0 O10 2.282489 1_555
Cd0 O15 2.360987 1_555
Cd0 O13 2.360987 1_555
Cd0 O4 2.384245 1_555
Cd0 O0 2.384245 1_555
Cd1 O9 2.282489 1_555
Cd1 O11 2.282489 1_454
Cd1 O12 2.360987 1_555
Cd1 O14 2.360987 1_454
Cd1 O1 2.384245 1_455
Cd1 O5 2.384245 1_554
O0 Si2 1.645845 1_555
O1 Si3 1.645845 1_555
O2 Si0 1.644824 1_555
O3 Si1 1.644824 1_555
O4 Si0 1.645845 1_555
O5 Si1 1.645845 1_555
O6 Si2 1.644824 1_555
O7 Si3 1.644824 1_555
O8 Si0 1.659604 1_555
O9 Si1 1.659604 1_554
O10 Si2 1.659604 1_555
O11 Si3 1.659604 1_556
O12 Si3 1.627108 1_555
O13 Si2 1.627108 1_655
O14 Si1 1.627108 1_555
O15 Si0 1.627108 1_455
