# generated using pymatgen
data_Zr3AlPd2N
_symmetry_space_group_name_H-M   'P 1'
_cell_length_a   8.60114279
_cell_length_b   8.60114301
_cell_length_c   8.60114295
_cell_angle_alpha   60.00000025
_cell_angle_beta   59.99999939
_cell_angle_gamma   59.99999608
_symmetry_Int_Tables_number   1
_chemical_formula_structural   Zr3AlPd2N
_chemical_formula_sum   'Zr12 Al4 Pd8 N4'
_cell_volume   449.93883539
_cell_formula_units_Z   4
loop_
 _symmetry_equiv_pos_site_id
 _symmetry_equiv_pos_as_xyz
  1  'x, y, z'
loop_
 _atom_site_type_symbol
 _atom_site_label
 _atom_site_symmetry_multiplicity
 _atom_site_fract_x
 _atom_site_fract_y
 _atom_site_fract_z
 _atom_site_occupancy
  Zr  Zr0  1  0.81169376  0.81169376  0.18830624  1
  Zr  Zr1  1  0.18830624  0.18830624  0.81169376  1
  Zr  Zr2  1  0.81169376  0.18830624  0.81169376  1
  Zr  Zr3  1  0.18830624  0.81169376  0.18830624  1
  Zr  Zr4  1  0.18830624  0.81169376  0.81169376  1
  Zr  Zr5  1  0.81169376  0.18830624  0.18830624  1
  Zr  Zr6  1  0.43830624  0.43830624  0.06169376  1
  Zr  Zr7  1  0.06169376  0.06169376  0.43830624  1
  Zr  Zr8  1  0.43830624  0.06169376  0.43830624  1
  Zr  Zr9  1  0.06169376  0.43830624  0.06169376  1
  Zr  Zr10  1  0.06169376  0.43830624  0.43830624  1
  Zr  Zr11  1  0.43830624  0.06169376  0.06169376  1
  Al  Al0  1  0.12500000  0.62500000  0.62500000  1
  Al  Al1  1  0.62500000  0.12500000  0.62500000  1
  Al  Al2  1  0.62500000  0.62500000  0.12500000  1
  Al  Al3  1  0.62500000  0.62500000  0.62500000  1
  Pd  Pd0  1  0.75954576  0.41348508  0.41348508  1
  Pd  Pd1  1  0.41348508  0.75954576  0.41348508  1
  Pd  Pd2  1  0.41348508  0.41348508  0.75954576  1
  Pd  Pd3  1  0.41348508  0.41348508  0.41348508  1
  Pd  Pd4  1  0.49045424  0.83651492  0.83651492  1
  Pd  Pd5  1  0.83651492  0.49045424  0.83651492  1
  Pd  Pd6  1  0.83651492  0.83651492  0.49045424  1
  Pd  Pd7  1  0.83651492  0.83651492  0.83651492  1
  N  N0  1  0.62500000  0.12500000  0.12500000  1
  N  N1  1  0.12500000  0.62500000  0.12500000  1
  N  N2  1  0.12500000  0.12500000  0.62500000  1
  N  N3  1  0.12500000  0.12500000  0.12500000  1
loop_
_geom_bond_atom_site_label_1
_geom_bond_atom_site_label_2
_geom_bond_distance
_geom_bond_site_symmetry_2
Al0 Pd7 2.656647 1_455
Al0 Pd3 2.656647 1_555
Al0 Pd2 2.656652 1_555
Al0 Pd6 2.656652 1_455
Al0 Pd1 2.656652 1_555
Al0 Pd5 2.656652 1_455
Al1 Pd7 2.656647 1_545
Al1 Pd3 2.656647 1_555
Al1 Pd2 2.656652 1_555
Al1 Pd6 2.656652 1_545
Al1 Pd0 2.656652 1_555
Al1 Pd4 2.656652 1_545
Al2 Pd7 2.656647 1_554
Al2 Pd3 2.656647 1_555
Al2 Pd1 2.656652 1_555
Al2 Pd5 2.656652 1_554
Al2 Pd0 2.656652 1_555
Al2 Pd4 2.656652 1_554
Al3 Pd5 2.656645 1_555
Al3 Pd1 2.656645 1_555
Al3 Pd4 2.656645 1_555
Al3 Pd0 2.656645 1_555
Al3 Pd6 2.656645 1_555
Al3 Pd2 2.656645 1_555
Pd0 Zr10 2.828469 1_655
Pd0 Zr7 2.828473 1_655
Pd0 Zr9 2.828474 1_655
Pd0 Zr2 3.117248 1_555
Pd0 Zr0 3.117248 1_555
Pd0 Zr5 3.117255 1_555
Pd1 Zr8 2.828469 1_565
Pd1 Zr7 2.828473 1_565
Pd1 Zr11 2.828474 1_565
Pd1 Zr0 3.117248 1_555
Pd1 Zr4 3.117248 1_555
Pd1 Zr3 3.117255 1_555
Pd2 Zr6 2.828469 1_556
Pd2 Zr9 2.828474 1_556
Pd2 Zr11 2.828474 1_556
Pd2 Zr2 3.117248 1_555
Pd2 Zr4 3.117248 1_555
Pd2 Zr1 3.117255 1_555
Pd3 Zr10 2.828477 1_555
Pd3 Zr6 2.828477 1_555
Pd3 Zr8 2.828477 1_555
Pd3 Zr5 3.117251 1_555
Pd3 Zr3 3.117251 1_555
Pd3 Zr1 3.117251 1_555
Pd4 Zr4 2.828469 1_555
Pd4 Zr1 2.828473 1_565
Pd4 Zr3 2.828474 1_556
Pd4 Zr8 3.117248 1_565
Pd4 Zr6 3.117248 1_556
Pd4 Zr11 3.117255 1_566
Pd5 Zr2 2.828469 1_555
Pd5 Zr1 2.828473 1_655
Pd5 Zr5 2.828474 1_556
Pd5 Zr6 3.117248 1_556
Pd5 Zr10 3.117248 1_655
Pd5 Zr9 3.117255 1_656
Pd6 Zr0 2.828469 1_555
Pd6 Zr3 2.828474 1_655
Pd6 Zr5 2.828474 1_565
Pd6 Zr8 3.117248 1_565
Pd6 Zr10 3.117248 1_655
Pd6 Zr7 3.117255 1_665
Pd7 Zr4 2.828477 1_655
Pd7 Zr0 2.828477 1_556
Pd7 Zr2 2.828477 1_565
Pd7 Zr11 3.117251 1_566
Pd7 Zr9 3.117251 1_656
Pd7 Zr7 3.117251 1_665
N0 Zr0 2.284010 1_545
N0 Zr6 2.284010 1_555
N0 Zr8 2.284010 1_555
N0 Zr2 2.284010 1_554
N0 Zr5 2.284010 1_555
N0 Zr11 2.284010 1_555
N1 Zr6 2.284010 1_555
N1 Zr0 2.284010 1_455
N1 Zr3 2.284010 1_555
N1 Zr9 2.284010 1_555
N1 Zr10 2.284010 1_555
N1 Zr4 2.284010 1_554
N2 Zr8 2.284010 1_555
N2 Zr2 2.284010 1_455
N2 Zr10 2.284010 1_555
N2 Zr4 2.284010 1_545
N2 Zr1 2.284010 1_555
N2 Zr7 2.284010 1_555
N3 Zr11 2.284010 1_555
N3 Zr5 2.284010 1_455
N3 Zr9 2.284010 1_555
N3 Zr3 2.284010 1_545
N3 Zr7 2.284010 1_555
N3 Zr1 2.284010 1_554
