# generated using pymatgen
data_Ca10TaReN10
_symmetry_space_group_name_H-M   'P 1'
_cell_length_a   6.91948804
_cell_length_b   6.91948733
_cell_length_c   8.95485790
_cell_angle_alpha   79.73666826
_cell_angle_beta   79.73666766
_cell_angle_gamma   59.60361401
_symmetry_Int_Tables_number   1
_chemical_formula_structural   Ca10TaReN10
_chemical_formula_sum   'Ca10 Ta1 Re1 N10'
_cell_volume   361.93893351
_cell_formula_units_Z   1
loop_
 _symmetry_equiv_pos_site_id
 _symmetry_equiv_pos_as_xyz
  1  'x, y, z'
loop_
 _atom_site_type_symbol
 _atom_site_label
 _atom_site_symmetry_multiplicity
 _atom_site_fract_x
 _atom_site_fract_y
 _atom_site_fract_z
 _atom_site_occupancy
  Ca  Ca0  1  0.87325966  0.34788315  0.82905447  1
  Ca  Ca1  1  0.87168920  0.87168920  0.82572111  1
  Ca  Ca2  1  0.74065595  0.74065595  0.52651950  1
  Ca  Ca3  1  0.75612296  0.24350137  0.50664323  1
  Ca  Ca4  1  0.63730813  0.13686694  0.15335859  1
  Ca  Ca5  1  0.34788315  0.87325966  0.82905447  1
  Ca  Ca6  1  0.24350137  0.75612296  0.50664323  1
  Ca  Ca7  1  0.24397488  0.24397488  0.49638597  1
  Ca  Ca8  1  0.14148302  0.14148302  0.15564312  1
  Ca  Ca9  1  0.13686694  0.63730813  0.15335859  1
  Ta  Ta0  1  0.36877714  0.36877714  0.77755206  1
  Re  Re0  1  0.63112126  0.63112126  0.22576688  1
  N  N0  1  0.90467982  0.47507447  0.31491749  1
  N  N1  1  0.99815715  0.99815715  0.01140131  1
  N  N2  1  0.67311171  0.67311171  0.01940314  1
  N  N3  1  0.53413582  0.53413582  0.69079082  1
  N  N4  1  0.47507447  0.90467982  0.31491749  1
  N  N5  1  0.53587714  0.08371170  0.68239702  1
  N  N6  1  0.47499292  0.47499292  0.29909637  1
  N  N7  1  0.32695860  0.32695860  0.99920347  1
  N  N8  1  0.06294200  0.06294200  0.64558065  1
  N  N9  1  0.08371170  0.53587714  0.68239702  1
loop_
_geom_bond_atom_site_label_1
_geom_bond_atom_site_label_2
_geom_bond_distance
_geom_bond_site_symmetry_2
Ca0 N8 2.465079 1_655
Ca0 N3 2.471156 1_555
Ca0 N9 2.482769 1_655
Ca0 N1 2.499532 1_546
Ca0 N2 2.694371 1_556
Ca1 N1 2.471483 1_556
Ca1 N9 2.478085 1_655
Ca1 N5 2.478085 1_565
Ca1 N8 2.521040 1_665
Ca1 N2 2.645058 1_556
Ca2 N0 2.572859 1_555
Ca2 N4 2.572859 1_555
Ca2 N5 2.581308 1_565
Ca2 N9 2.581308 1_655
Ca2 N3 2.610828 1_555
Ca3 N8 2.306360 1_655
Ca3 N5 2.500481 1_555
Ca3 N3 2.505214 1_555
Ca3 N0 2.574784 1_555
Ca3 N6 2.622662 1_555
Ca4 N1 2.377012 1_545
Ca4 N7 2.407950 1_554
Ca4 N6 2.518965 1_555
Ca4 N4 2.520426 1_545
Ca5 N8 2.465079 1_565
Ca5 N3 2.471156 1_555
Ca5 N5 2.482769 1_565
Ca5 N1 2.499533 1_456
Ca5 N2 2.694371 1_556
Ca6 N8 2.306360 1_565
Ca6 N9 2.500481 1_555
Ca6 N3 2.505214 1_555
Ca6 N4 2.574784 1_555
Ca6 N6 2.622662 1_555
Ca7 N8 2.306166 1_555
Ca7 N9 2.521505 1_555
Ca7 N5 2.521505 1_555
Ca7 N4 2.709997 1_545
Ca7 N0 2.709997 1_455
Ca7 N6 2.967310 1_555
Ca8 N1 2.354521 1_445
Ca8 N7 2.375326 1_554
Ca8 N0 2.561291 1_455
Ca8 N4 2.561291 1_545
Ca9 N1 2.377012 1_455
Ca9 N7 2.407949 1_554
Ca9 N6 2.518966 1_555
Ca9 N0 2.520426 1_455
N0 Re0 1.883944 1_555
N2 Re0 1.812886 1_555
N3 Ta0 1.978203 1_555
N4 Re0 1.883943 1_555
N5 Ta0 1.973230 1_555
N6 Re0 1.854965 1_555
N7 Ta0 1.944871 1_555
N9 Ta0 1.973230 1_555
