# generated using pymatgen
data_Zr2Ni3BIr3
_symmetry_space_group_name_H-M   'P 1'
_cell_length_a   5.63004953
_cell_length_b   5.63004952
_cell_length_c   5.48911113
_cell_angle_alpha   59.14695030
_cell_angle_beta   59.14695443
_cell_angle_gamma   59.99999785
_symmetry_Int_Tables_number   1
_chemical_formula_structural   Zr2Ni3BIr3
_chemical_formula_sum   'Zr2 Ni3 B1 Ir3'
_cell_volume   121.41985509
_cell_formula_units_Z   1
loop_
 _symmetry_equiv_pos_site_id
 _symmetry_equiv_pos_as_xyz
  1  'x, y, z'
loop_
 _atom_site_type_symbol
 _atom_site_label
 _atom_site_symmetry_multiplicity
 _atom_site_fract_x
 _atom_site_fract_y
 _atom_site_fract_z
 _atom_site_occupancy
  Zr  Zr0  1  0.75672973  0.75672973  0.72981082  1
  Zr  Zr1  1  0.24867450  0.24867450  0.25397551  1
  Ni  Ni0  1  0.73706398  0.73706398  0.24681248  1
  Ni  Ni1  1  0.27905956  0.73706398  0.24681248  1
  Ni  Ni2  1  0.73706398  0.27905956  0.24681248  1
  B  B0  1  0.98531073  0.98531073  0.04406682  1
  Ir  Ir0  1  0.25601506  0.25601506  0.74390347  1
  Ir  Ir1  1  0.74406641  0.25601506  0.74390347  1
  Ir  Ir2  1  0.25601506  0.74406641  0.74390347  1
loop_
_geom_bond_atom_site_label_1
_geom_bond_atom_site_label_2
_geom_bond_distance
_geom_bond_site_symmetry_2
Ni0 Zr0 2.728697 1_554
Ni0 Zr0 2.769109 1_555
Ni0 Zr1 2.818510 1_655
Ni0 Zr1 2.818510 1_565
Ni1 Zr0 2.728697 1_554
Ni1 Zr0 2.769109 1_455
Ni1 Zr1 2.818508 1_565
Ni1 Zr1 2.818514 1_555
Ni2 Zr0 2.728697 1_554
Ni2 Zr0 2.769109 1_545
Ni2 Zr1 2.818508 1_655
Ni2 Zr1 2.818514 1_555
B0 Ni0 1.976869 1_555
B0 Ni1 1.976873 1_655
B0 Ni2 1.976873 1_565
B0 Ir1 2.128833 1_564
B0 Ir2 2.128833 1_654
B0 Ir0 2.128837 1_664
Ir0 Ni1 2.684343 1_555
Ir0 Ni2 2.684343 1_555
Ir0 Zr1 2.732267 1_555
Ir0 Zr1 2.758057 1_556
Ir0 Zr0 2.815983 1_455
Ir0 Zr0 2.815983 1_545
Ir1 Ni2 2.684343 1_555
Ir1 Ni0 2.684343 1_555
Ir1 Zr1 2.732264 1_655
Ir1 Zr1 2.758060 1_556
Ir1 Zr0 2.815983 1_545
Ir1 Zr0 2.815983 1_555
Ir2 Ni1 2.684343 1_555
Ir2 Ni0 2.684343 1_555
Ir2 Zr1 2.732264 1_565
Ir2 Zr1 2.758059 1_556
Ir2 Zr0 2.815983 1_455
Ir2 Zr0 2.815983 1_555
