# generated using pymatgen
data_Cd(GaSe2)2
_symmetry_space_group_name_H-M   'P 1'
_cell_length_a   5.80225749
_cell_length_b   5.80225784
_cell_length_c   6.80004481
_cell_angle_alpha   115.25412335
_cell_angle_beta   115.25411308
_cell_angle_gamma   90.00000003
_symmetry_Int_Tables_number   1
_chemical_formula_structural   Cd(GaSe2)2
_chemical_formula_sum   'Cd1 Ga2 Se4'
_cell_volume   182.56738138
_cell_formula_units_Z   1
loop_
 _symmetry_equiv_pos_site_id
 _symmetry_equiv_pos_as_xyz
  1  'x, y, z'
loop_
 _atom_site_type_symbol
 _atom_site_label
 _atom_site_symmetry_multiplicity
 _atom_site_fract_x
 _atom_site_fract_y
 _atom_site_fract_z
 _atom_site_occupancy
  Cd  Cd0  1  0.00000000  0.00000000  0.00000000  1
  Ga  Ga0  1  0.25000000  0.75000000  0.50000000  1
  Ga  Ga1  1  0.50000000  0.50000000  0.00000000  1
  Se  Se0  1  0.86512063  0.87545430  0.27587901  1
  Se  Se1  1  0.41075738  0.40042371  0.27587901  1
  Se  Se2  1  0.12454570  0.58924262  0.72412099  1
  Se  Se3  1  0.59957629  0.13487937  0.72412099  1
loop_
_geom_bond_atom_site_label_1
_geom_bond_atom_site_label_2
_geom_bond_distance
_geom_bond_site_symmetry_2
Cd0 Se1 2.657720 1_555
Cd0 Se2 2.657723 1_544
Cd0 Se3 2.657724 1_454
Cd0 Se0 2.657727 1_445
Ga0 Se2 2.425310 1_555
Ga0 Se1 2.425313 1_555
Ga0 Se0 2.425314 1_455
Ga0 Se3 2.425317 1_565
Ga1 Se0 2.423831 1_555
Ga1 Se3 2.423835 1_554
Ga1 Se2 2.423835 1_554
Ga1 Se1 2.423838 1_555
