# generated using pymatgen
data_LuZr4(Re7Tc)3
_symmetry_space_group_name_H-M   'P 1'
_cell_length_a   8.46127526
_cell_length_b   8.44702111
_cell_length_c   8.44702023
_cell_angle_alpha   109.43701365
_cell_angle_beta   109.50540509
_cell_angle_gamma   109.50541215
_symmetry_Int_Tables_number   1
_chemical_formula_structural   LuZr4(Re7Tc)3
_chemical_formula_sum   'Lu1 Zr4 Re21 Tc3'
_cell_volume   464.55551361
_cell_formula_units_Z   1
loop_
 _symmetry_equiv_pos_site_id
 _symmetry_equiv_pos_as_xyz
  1  'x, y, z'
loop_
 _atom_site_type_symbol
 _atom_site_label
 _atom_site_symmetry_multiplicity
 _atom_site_fract_x
 _atom_site_fract_y
 _atom_site_fract_z
 _atom_site_occupancy
  Lu  Lu0  1  0.99959638  0.00000000  0.00000000  1
  Zr  Zr0  1  0.62569379  1.00000000  0.00000000  1
  Zr  Zr1  1  0.99980872  0.62765763  1.00000000  1
  Zr  Zr2  1  0.99980872  1.00000000  0.62765763  1
  Zr  Zr3  1  0.37215109  0.37234237  0.37234237  1
  Re  Re0  1  0.67486978  0.39531464  0.00000000  1
  Re  Re1  1  0.00145922  0.39677740  0.67610418  1
  Re  Re2  1  0.32535404  0.72067322  0.32389582  1
  Re  Re3  1  0.32535404  0.32389582  0.72067322  1
  Re  Re4  1  0.00145922  0.67610418  0.39677740  1
  Re  Re5  1  0.67486978  1.00000000  0.39531464  1
  Re  Re6  1  0.60468081  0.60322260  0.27932678  1
  Re  Re7  1  0.27955414  0.60468536  0.60468536  1
  Re  Re8  1  0.60468081  0.27932678  0.60322260  1
  Re  Re9  1  0.37575091  0.19542660  0.00000000  1
  Re  Re10  1  0.18032432  0.80457340  0.80457340  1
  Re  Re11  1  0.37575091  0.00000000  0.19542660  1
  Re  Re12  1  0.19473670  0.37851094  0.00000000  1
  Re  Re13  1  0.00049420  0.37692827  0.19439928  1
  Re  Re14  1  0.80609592  0.18252899  0.80560072  1
  Re  Re15  1  0.80609592  0.80560072  0.18252899  1
  Re  Re16  1  0.00049420  0.19439928  0.37692827  1
  Re  Re17  1  0.19473670  0.00000000  0.37851094  1
  Re  Re18  1  0.62356693  0.62307173  0.81747101  1
  Re  Re19  1  0.81622577  0.62148906  0.62148906  1
  Re  Re20  1  0.62356693  0.81747101  0.62307173  1
  Tc  Tc0  1  0.39672614  0.67736236  0.00000000  1
  Tc  Tc1  1  0.71936478  0.32263764  0.32263764  1
  Tc  Tc2  1  0.39672614  1.00000000  0.67736236  1
loop_
_geom_bond_atom_site_label_1
_geom_bond_atom_site_label_2
_geom_bond_distance
_geom_bond_site_symmetry_2
Lu0 Re15 3.054460 1_545
Lu0 Re20 3.054460 1_544
Lu0 Re18 3.054460 1_544
Lu0 Re14 3.054461 1_554
Lu0 Re16 3.054465 1_655
Lu0 Re13 3.054465 1_655
Lu0 Re9 3.057181 1_655
Lu0 Re10 3.057181 1_644
Lu0 Re11 3.057181 1_655
Lu0 Re19 3.069777 1_544
Lu0 Re17 3.069777 1_655
Lu0 Re12 3.069777 1_655
Lu0 Zr2 3.145784 1_544
Lu0 Zr3 3.145784 1_655
Lu0 Zr1 3.145784 1_544
Lu0 Zr0 3.163693 1_545
Re0 Re9 2.530369 1_555
Re0 Re13 2.783148 1_655
Re0 Re14 2.783155 1_554
Re0 Zr1 2.794211 1_554
Re0 Re6 2.806872 1_555
Re0 Re3 2.806872 1_554
Re0 Re15 2.889957 1_555
Re0 Re18 2.889957 1_554
Re0 Tc1 2.920393 1_555
Re0 Tc2 2.920394 1_544
Re0 Re8 2.939816 1_554
Re0 Re4 2.939818 1_655
Re0 Zr0 3.224244 1_545
Re1 Re16 2.531909 1_555
Re1 Re12 2.765007 1_556
Re1 Re14 2.780558 1_455
Re1 Zr1 2.789558 1_455
Re1 Re7 2.806860 1_555
Re1 Tc1 2.828828 1_455
Re1 Re10 2.875382 1_555
Re1 Re19 2.891170 1_455
Re1 Tc0 2.927231 1_556
Re1 Re3 2.936556 1_555
Re1 Re8 2.936573 1_455
Re1 Re5 2.939819 1_445
Re1 Zr2 3.233093 1_445
Re2 Re20 2.531919 1_555
Re2 Zr1 2.789553 1_454
Re2 Re5 2.806872 1_555
Re2 Tc2 2.828828 1_555
Re2 Tc0 2.927236 1_555
Re2 Re4 2.936556 1_555
Re2 Re6 2.936564 1_555
Re2 Re7 2.939819 1_555
Re2 Zr3 3.233097 1_555
Re3 Zr2 2.789553 1_445
Re3 Tc0 2.828828 1_556
Re3 Re9 2.875382 1_556
Re3 Tc2 2.927236 1_545
Re3 Re8 2.936564 1_555
Re3 Re7 2.939819 1_555
Re3 Zr3 3.233096 1_555
Re4 Zr2 2.789558 1_455
Re4 Re7 2.806860 1_555
Re4 Tc1 2.828828 1_455
Re4 Tc2 2.927231 1_555
Re4 Re6 2.936573 1_455
Re4 Zr1 3.233093 1_454
Re5 Zr2 2.794211 1_555
Re5 Re8 2.806872 1_565
Re5 Tc1 2.920393 1_565
Re5 Tc0 2.920394 1_555
Re5 Re6 2.939816 1_555
Re5 Zr0 3.224244 1_555
Re6 Zr3 2.789553 1_555
Re6 Tc0 2.828828 1_555
Re6 Re9 2.875382 1_555
Re6 Tc1 2.927241 1_555
Re6 Zr2 3.233096 1_555
Re7 Zr3 2.794218 1_555
Re7 Tc0 2.920393 1_556
Re7 Tc2 2.920393 1_555
Re7 Zr0 3.224246 1_556
Re8 Zr3 2.789553 1_555
Re8 Tc2 2.828828 1_545
Re8 Tc1 2.927240 1_555
Re8 Zr1 3.233096 1_555
Re9 Tc2 2.776401 1_544
Re9 Tc1 2.776406 1_555
Re9 Zr3 3.015389 1_555
Re9 Zr2 3.015389 1_444
Re9 Zr0 3.086894 1_545
Re10 Re19 2.513826 1_455
Re10 Re7 2.530362 1_555
Re10 Re11 2.695131 1_566
Re10 Re9 2.695131 1_566
Re10 Tc2 2.776401 1_555
Re10 Tc0 2.776401 1_556
Re10 Re4 2.875382 1_555
Re10 Zr1 3.015389 1_455
Re10 Zr2 3.015389 1_455
Re10 Zr0 3.086894 1_556
Re11 Re17 2.513826 1_555
Re11 Re5 2.530369 1_545
Re11 Re9 2.695131 1_555
Re11 Tc0 2.776401 1_545
Re11 Tc1 2.776406 1_555
Re11 Re8 2.875382 1_555
Re11 Re2 2.875382 1_545
Re11 Zr1 3.015389 1_444
Re11 Zr3 3.015389 1_555
Re11 Zr0 3.086894 1_545
Re12 Re9 2.513826 1_555
Re12 Tc0 2.532283 1_555
Re12 Re14 2.683290 1_454
Re12 Re13 2.683296 1_555
Re12 Re2 2.765009 1_555
Re12 Re3 2.891164 1_554
Re12 Re6 2.891164 1_555
Re12 Zr2 3.026012 1_444
Re12 Zr3 3.026012 1_555
Re12 Zr1 3.076917 1_454
Re13 Re16 2.517260 1_555
Re13 Re4 2.531910 1_555
Re13 Re14 2.680963 1_454
Re13 Re2 2.780558 1_555
Re13 Re7 2.889957 1_555
Re13 Tc1 2.892200 1_455
Re13 Zr3 3.018853 1_555
Re13 Zr0 3.031652 1_445
Re13 Zr1 3.081972 1_454
Re14 Re20 2.517260 1_545
Re14 Re8 2.531919 1_555
Re14 Re5 2.889957 1_545
Re14 Tc2 2.892215 1_545
Re14 Zr2 3.018846 1_545
Re14 Zr0 3.031656 1_546
Re14 Zr1 3.081972 1_555
Re15 Re18 2.517260 1_554
Re15 Re6 2.531919 1_555
Re15 Re16 2.680963 1_665
Re15 Re17 2.683290 1_665
Re15 Re4 2.780558 1_655
Re15 Re5 2.783155 1_555
Re15 Tc0 2.892215 1_555
Re15 Zr1 3.018846 1_554
Re15 Zr0 3.031656 1_555
Re15 Zr2 3.081972 1_555
Re16 Re17 2.683297 1_555
Re16 Re3 2.780558 1_555
Re16 Re5 2.783148 1_445
Re16 Re7 2.889957 1_555
Re16 Tc1 2.892200 1_455
Re16 Zr3 3.018853 1_555
Re16 Zr0 3.031652 1_445
Re16 Zr2 3.081972 1_445
Re17 Tc2 2.532283 1_545
Re17 Re4 2.765007 1_545
Re17 Re3 2.765009 1_555
Re17 Re8 2.891164 1_555
Re17 Re2 2.891164 1_545
Re17 Zr1 3.026012 1_444
Re17 Zr3 3.026012 1_555
Re17 Zr2 3.076917 1_445
Re18 Re3 2.531919 1_555
Re18 Re20 2.680963 1_555
Re18 Re19 2.683290 1_555
Re18 Re8 2.780554 1_555
Re18 Re7 2.783162 1_555
Re18 Tc0 2.892215 1_556
Re18 Zr1 3.018846 1_555
Re18 Zr0 3.031656 1_556
Re18 Zr3 3.081972 1_555
Re19 Tc1 2.532286 1_555
Re19 Re20 2.683290 1_555
Re19 Re6 2.765009 1_555
Re19 Re8 2.765009 1_555
Re19 Re4 2.891170 1_655
Re19 Zr1 3.026012 1_555
Re19 Zr2 3.026012 1_555
Re19 Zr3 3.076917 1_555
Re20 Re6 2.780554 1_555
Re20 Re7 2.783162 1_555
Re20 Re5 2.889957 1_555
Re20 Tc2 2.892215 1_555
Re20 Zr2 3.018846 1_555
Re20 Zr0 3.031656 1_556
Re20 Zr3 3.081972 1_555
Tc0 Zr0 2.766743 1_555
Tc0 Zr1 3.242482 1_454
Tc1 Zr0 2.766740 1_545
Tc1 Zr3 3.242490 1_555
Tc2 Zr0 2.766743 1_556
Tc2 Zr2 3.242482 1_455
