# generated using pymatgen
data_ZrCu2Te3
_symmetry_space_group_name_H-M   'P 1'
_cell_length_a   10.46104166
_cell_length_b   10.46104166
_cell_length_c   7.35918738
_cell_angle_alpha   81.11659077
_cell_angle_beta   81.11659077
_cell_angle_gamma   22.54698579
_symmetry_Int_Tables_number   1
_chemical_formula_structural   ZrCu2Te3
_chemical_formula_sum   'Zr2 Cu4 Te6'
_cell_volume   304.94834841
_cell_formula_units_Z   2
loop_
 _symmetry_equiv_pos_site_id
 _symmetry_equiv_pos_as_xyz
  1  'x, y, z'
loop_
 _atom_site_type_symbol
 _atom_site_label
 _atom_site_symmetry_multiplicity
 _atom_site_fract_x
 _atom_site_fract_y
 _atom_site_fract_z
 _atom_site_occupancy
  Zr  Zr0  1  0.85350836  0.85350836  0.05189581  1
  Zr  Zr1  1  0.14649164  0.14649164  0.94810419  1
  Cu  Cu0  1  0.54937844  0.54937844  0.85114170  1
  Cu  Cu1  1  0.45062156  0.45062156  0.14885830  1
  Cu  Cu2  1  0.78597000  0.78597000  0.42372114  1
  Cu  Cu3  1  0.21403000  0.21403000  0.57627886  1
  Te  Te0  1  0.57912860  0.57912860  0.17842342  1
  Te  Te1  1  0.42087140  0.42087140  0.82157658  1
  Te  Te2  1  0.25001170  0.25001170  0.22158914  1
  Te  Te3  1  0.74998830  0.74998830  0.77841086  1
  Te  Te4  1  0.91481547  0.91481547  0.36035359  1
  Te  Te5  1  0.08518553  0.08518553  0.63964641  1
loop_
_geom_bond_atom_site_label_1
_geom_bond_atom_site_label_2
_geom_bond_distance
_geom_bond_site_symmetry_2
Cu0 Te0 2.576167 1_556
Cu0 Te5 2.604688 1_655
Cu0 Te5 2.604688 1_565
Cu0 Te1 2.679646 1_555
Cu0 Cu1 2.740101 1_556
Cu0 Zr1 3.018225 1_655
Cu0 Zr1 3.018225 1_565
Cu1 Te1 2.576167 1_554
Cu1 Te4 2.604685 1_455
Cu1 Te4 2.604685 1_545
Cu1 Te0 2.679646 1_555
Cu1 Zr0 3.018225 1_455
Cu1 Zr0 3.018225 1_545
Cu2 Te3 2.598359 1_555
Cu2 Te4 2.611202 1_555
Cu2 Cu3 2.664519 1_565
Cu2 Cu3 2.664519 1_655
Cu2 Te2 2.699070 1_565
Cu2 Te2 2.699070 1_655
Cu2 Zr0 2.865958 1_555
Cu3 Te2 2.598359 1_555
Cu3 Te5 2.611182 1_555
Cu3 Te3 2.699070 1_455
Cu3 Te3 2.699070 1_545
Cu3 Zr1 2.865958 1_555
Te0 Zr1 2.868411 1_564
Te0 Zr1 2.868411 1_654
Te1 Zr0 2.868411 1_546
Te1 Zr0 2.868411 1_456
Te2 Zr0 3.068585 1_455
Te2 Zr0 3.068585 1_545
Te2 Zr1 3.147795 1_554
Te3 Zr1 3.068585 1_565
Te3 Zr1 3.068585 1_655
Te3 Zr0 3.147795 1_556
Te4 Zr0 2.763065 1_555
Te5 Zr1 2.763053 1_555
