# generated using pymatgen
data_Cs3TaSO3
_symmetry_space_group_name_H-M   'P 1'
_cell_length_a   6.52795935
_cell_length_b   7.20251611
_cell_length_c   9.76033116
_cell_angle_alpha   79.23379833
_cell_angle_beta   90.00000000
_cell_angle_gamma   90.00000000
_symmetry_Int_Tables_number   1
_chemical_formula_structural   Cs3TaSO3
_chemical_formula_sum   'Cs6 Ta2 S2 O6'
_cell_volume   450.83075170
_cell_formula_units_Z   2
loop_
 _symmetry_equiv_pos_site_id
 _symmetry_equiv_pos_as_xyz
  1  'x, y, z'
loop_
 _atom_site_type_symbol
 _atom_site_label
 _atom_site_symmetry_multiplicity
 _atom_site_fract_x
 _atom_site_fract_y
 _atom_site_fract_z
 _atom_site_occupancy
  Cs  Cs0  1  0.75000000  0.68575560  0.46838593  1
  Cs  Cs1  1  0.25000000  0.25731059  0.00891708  1
  Cs  Cs2  1  0.25000000  0.31424440  0.53161407  1
  Cs  Cs3  1  0.75000000  0.74268941  0.99108292  1
  Cs  Cs4  1  0.25000000  0.78138977  0.72934967  1
  Cs  Cs5  1  0.75000000  0.21861023  0.27065033  1
  Ta  Ta0  1  0.75000000  0.29689495  0.78934157  1
  Ta  Ta1  1  0.25000000  0.70310505  0.21065843  1
  S  S0  1  0.75000000  0.06655663  0.64733508  1
  S  S1  1  0.25000000  0.93344337  0.35266492  1
  O  O0  1  0.25000000  0.81415342  0.02502363  1
  O  O1  1  0.75000000  0.18584658  0.97497637  1
  O  O2  1  0.97852402  0.44739886  0.75071900  1
  O  O3  1  0.02147598  0.55260114  0.24928100  1
  O  O4  1  0.52147598  0.44739886  0.75071900  1
  O  O5  1  0.47852402  0.55260114  0.24928100  1
loop_
_geom_bond_atom_site_label_1
_geom_bond_atom_site_label_2
_geom_bond_distance
_geom_bond_site_symmetry_2
Cs0 O3 3.065941 1_655
Cs0 O5 3.065941 1_555
Cs0 O2 3.316470 1_555
Cs0 O4 3.316470 1_555
Cs0 S0 3.516091 1_565
Cs0 S1 3.789334 1_555
Cs0 S1 3.789334 1_655
Cs1 O0 3.166249 1_545
Cs1 O4 3.174423 1_554
Cs1 O2 3.174423 1_454
Cs1 O1 3.330457 1_554
Cs1 O1 3.330457 1_454
Cs1 S1 3.711336 1_545
Cs1 O5 3.757244 1_555
Cs1 O3 3.757244 1_555
Cs2 O4 3.065941 1_555
Cs2 O2 3.065941 1_455
Cs2 O5 3.316470 1_555
Cs2 O3 3.316470 1_555
Cs2 S1 3.516091 1_545
Cs2 S0 3.789334 1_555
Cs2 S0 3.789334 1_455
Cs3 O1 3.166249 1_565
Cs3 O3 3.174423 1_656
Cs3 O5 3.174423 1_556
Cs3 O0 3.330457 1_556
Cs3 O0 3.330457 1_656
Cs3 S0 3.711336 1_565
Cs3 O2 3.757244 1_555
Cs3 O4 3.757244 1_555
Cs4 O0 2.939114 1_556
Cs4 O4 2.963694 1_555
Cs4 O2 2.963694 1_455
Cs5 O1 2.939114 1_554
Cs5 O3 2.963694 1_655
Cs5 O5 2.963694 1_555
S0 Ta0 2.352125 1_555
S1 Ta1 2.352125 1_555
O0 Ta1 1.838786 1_555
O1 Ta0 1.838786 1_555
O2 Ta0 1.841185 1_555
O3 Ta1 1.841185 1_555
O4 Ta0 1.841185 1_555
O5 Ta1 1.841185 1_555
