# generated using pymatgen
data_ErP5O14
_symmetry_space_group_name_H-M   'P 1'
_cell_length_a   8.65860921
_cell_length_b   8.89029643
_cell_length_c   12.60346332
_cell_angle_alpha   90.00000000
_cell_angle_beta   90.00000000
_cell_angle_gamma   90.00000000
_symmetry_Int_Tables_number   1
_chemical_formula_structural   ErP5O14
_chemical_formula_sum   'Er4 P20 O56'
_cell_volume   970.18439018
_cell_formula_units_Z   4
loop_
 _symmetry_equiv_pos_site_id
 _symmetry_equiv_pos_as_xyz
  1  'x, y, z'
loop_
 _atom_site_type_symbol
 _atom_site_label
 _atom_site_symmetry_multiplicity
 _atom_site_fract_x
 _atom_site_fract_y
 _atom_site_fract_z
 _atom_site_occupancy
  Er  Er0  1  0.01872131  0.55332896  0.25000000  1
  Er  Er1  1  0.51872131  0.94667104  0.25000000  1
  Er  Er2  1  0.48127869  0.05332896  0.75000000  1
  Er  Er3  1  0.98127869  0.44667104  0.75000000  1
  P  P0  1  0.42746003  0.50676192  0.25000000  1
  P  P1  1  0.92746003  0.99323808  0.25000000  1
  P  P2  1  0.07253997  0.00676192  0.75000000  1
  P  P3  1  0.57253997  0.49323808  0.75000000  1
  P  P4  1  0.00856074  0.79747827  0.91906845  1
  P  P5  1  0.50856074  0.70252173  0.58093155  1
  P  P6  1  0.49143926  0.29747827  0.08093155  1
  P  P7  1  0.99143926  0.20252173  0.41906845  1
  P  P8  1  0.99143926  0.20252173  0.08093155  1
  P  P9  1  0.49143926  0.29747827  0.41906845  1
  P  P10  1  0.50856074  0.70252173  0.91906845  1
  P  P11  1  0.00856074  0.79747827  0.58093155  1
  P  P12  1  0.75657946  0.72642875  0.07130738  1
  P  P13  1  0.25657946  0.77357125  0.42869262  1
  P  P14  1  0.74342054  0.22642875  0.92869262  1
  P  P15  1  0.24342054  0.27357125  0.57130738  1
  P  P16  1  0.24342054  0.27357125  0.92869262  1
  P  P17  1  0.74342054  0.22642875  0.57130738  1
  P  P18  1  0.25657946  0.77357125  0.07130738  1
  P  P19  1  0.75657946  0.72642875  0.42869262  1
  O  O0  1  0.82655738  0.60182996  0.13061684  1
  O  O1  1  0.32655738  0.89817004  0.36938316  1
  O  O2  1  0.67344262  0.10182996  0.86938316  1
  O  O3  1  0.17344262  0.39817004  0.63061684  1
  O  O4  1  0.17344262  0.39817004  0.86938316  1
  O  O5  1  0.67344262  0.10182996  0.63061684  1
  O  O6  1  0.32655738  0.89817004  0.13061684  1
  O  O7  1  0.82655738  0.60182996  0.36938316  1
  O  O8  1  0.27131909  0.43954263  0.25000000  1
  O  O9  1  0.77131909  0.06045837  0.25000000  1
  O  O10  1  0.22868091  0.93954163  0.75000000  1
  O  O11  1  0.72868091  0.56045837  0.75000000  1
  O  O12  1  0.97442313  0.93561834  0.84728107  1
  O  O13  1  0.47442313  0.56438166  0.65271893  1
  O  O14  1  0.52557687  0.43561834  0.15271893  1
  O  O15  1  0.02557687  0.06438166  0.34728107  1
  O  O16  1  0.02557687  0.06438166  0.15271893  1
  O  O17  1  0.52557687  0.43561834  0.34728107  1
  O  O18  1  0.47442313  0.56438166  0.84728107  1
  O  O19  1  0.88680361  0.81944171  0.00837510  1
  O  O20  1  0.97442313  0.93561834  0.65271893  1
  O  O21  1  0.45855292  0.66860791  0.25000000  1
  O  O22  1  0.54144708  0.33139209  0.75000000  1
  O  O23  1  0.04144708  0.16860791  0.75000000  1
  O  O24  1  0.84402247  0.33970274  0.62101383  1
  O  O25  1  0.34402247  0.16029726  0.87898617  1
  O  O26  1  0.65597753  0.83970274  0.37898617  1
  O  O27  1  0.15597753  0.66029726  0.12101383  1
  O  O28  1  0.15597753  0.66029726  0.37898617  1
  O  O29  1  0.65597753  0.83970274  0.12101383  1
  O  O30  1  0.34402247  0.16029726  0.62101383  1
  O  O31  1  0.84402247  0.33970274  0.87898617  1
  O  O32  1  0.16458585  0.84423455  0.52766432  1
  O  O33  1  0.66458585  0.65576545  0.97233568  1
  O  O34  1  0.33541415  0.34423455  0.47233568  1
  O  O35  1  0.83541415  0.15576545  0.02766432  1
  O  O36  1  0.83541415  0.15576545  0.47233568  1
  O  O37  1  0.33541415  0.34423455  0.02766432  1
  O  O38  1  0.66458585  0.65576545  0.52766432  1
  O  O39  1  0.16458585  0.84423455  0.97233568  1
  O  O40  1  0.00656597  0.65233695  0.63472213  1
  O  O41  1  0.50656597  0.84766305  0.86527787  1
  O  O42  1  0.49343403  0.15233695  0.36527787  1
  O  O43  1  0.99343403  0.34766305  0.13472213  1
  O  O44  1  0.99343403  0.34766305  0.36527787  1
  O  O45  1  0.49343403  0.15233695  0.13472213  1
  O  O46  1  0.50656597  0.84766305  0.63472213  1
  O  O47  1  0.00656597  0.65233695  0.86527787  1
  O  O48  1  0.88680361  0.81944171  0.49162490  1
  O  O49  1  0.38680361  0.68055829  0.00837510  1
  O  O50  1  0.61319639  0.31944171  0.50837510  1
  O  O51  1  0.11319639  0.18055829  0.99162490  1
  O  O52  1  0.11319639  0.18055829  0.50837510  1
  O  O53  1  0.61319639  0.31944171  0.99162490  1
  O  O54  1  0.38680361  0.68055829  0.49162490  1
  O  O55  1  0.95855292  0.83139209  0.25000000  1
loop_
_geom_bond_atom_site_label_1
_geom_bond_atom_site_label_2
_geom_bond_distance
_geom_bond_site_symmetry_2
Er0 O27 2.227012 1_555
Er0 O28 2.227012 1_555
Er0 O0 2.284369 1_455
Er0 O7 2.284369 1_455
Er0 O44 2.345638 1_455
Er0 O43 2.345638 1_455
Er0 O8 2.409757 1_555
Er0 O55 2.526364 1_455
Er1 O26 2.227012 1_555
Er1 O29 2.227012 1_555
Er1 O1 2.284369 1_555
Er1 O6 2.284369 1_555
Er1 O45 2.345638 1_565
Er1 O42 2.345638 1_565
Er1 O9 2.409761 1_565
Er1 O21 2.526364 1_555
Er2 O30 2.227012 1_555
Er2 O25 2.227012 1_555
Er2 O5 2.284369 1_555
Er2 O2 2.284369 1_555
Er2 O41 2.345638 1_545
Er2 O46 2.345638 1_545
Er2 O10 2.409761 1_545
Er2 O22 2.526364 1_555
Er3 O24 2.227012 1_555
Er3 O31 2.227012 1_555
Er3 O3 2.284369 1_655
Er3 O4 2.284369 1_655
Er3 O47 2.345638 1_655
Er3 O40 2.345638 1_655
Er3 O11 2.409761 1_555
Er3 O23 2.526364 1_655
O0 P12 1.467289 1_555
O1 P13 1.467289 1_555
O2 P14 1.467289 1_555
O3 P15 1.467289 1_555
O4 P16 1.467289 1_555
O5 P17 1.467289 1_555
O6 P18 1.467289 1_555
O7 P19 1.467289 1_555
O8 P0 1.478151 1_555
O9 P1 1.478154 1_545
O10 P2 1.478154 1_565
O11 P3 1.478154 1_555
O12 P4 1.553777 1_655
O12 P2 1.620202 1_665
O13 P5 1.553777 1_555
O13 P3 1.620202 1_555
O14 P6 1.553777 1_555
O14 P0 1.620202 1_555
O15 P7 1.553777 1_455
O15 P1 1.620202 1_445
O16 P8 1.553777 1_455
O16 P1 1.620202 1_445
O17 P9 1.553777 1_555
O17 P0 1.620202 1_555
O18 P10 1.553777 1_555
O18 P3 1.620202 1_555
O19 P4 1.554503 1_654
O19 P12 1.607572 1_555
O20 P11 1.553777 1_655
O20 P2 1.620202 1_665
O21 P0 1.463829 1_555
O22 P3 1.463829 1_555
O23 P2 1.463829 1_555
O24 P17 1.471518 1_555
O25 P16 1.471518 1_555
O26 P19 1.471518 1_555
O27 P18 1.471518 1_555
O28 P13 1.471518 1_555
O29 P12 1.471518 1_555
O30 P15 1.471518 1_555
O31 P14 1.471518 1_555
O32 P11 1.564799 1_555
O32 P13 1.607825 1_555
O33 P10 1.564799 1_555
O33 P12 1.607825 1_556
O34 P9 1.564799 1_555
O34 P15 1.607825 1_555
O35 P8 1.564799 1_555
O35 P14 1.607825 1_554
O36 P7 1.564799 1_555
O36 P17 1.607825 1_555
O37 P6 1.564799 1_555
O37 P16 1.607825 1_554
O38 P5 1.564799 1_555
O38 P19 1.607825 1_555
O39 P4 1.564799 1_555
O39 P18 1.607825 1_556
O40 P11 1.457708 1_555
O41 P10 1.457708 1_555
O42 P9 1.457708 1_555
O43 P8 1.457708 1_555
O44 P7 1.457708 1_555
O45 P6 1.457708 1_555
O46 P5 1.457708 1_555
O47 P4 1.457708 1_555
O48 P11 1.554503 1_655
O48 P19 1.607572 1_555
O49 P10 1.554503 1_554
O49 P18 1.607572 1_555
O50 P9 1.554503 1_555
O50 P17 1.607572 1_555
O51 P8 1.554503 1_456
O51 P16 1.607572 1_555
O52 P7 1.554503 1_455
O52 P15 1.607572 1_555
O53 P6 1.554503 1_556
O53 P14 1.607572 1_555
O54 P5 1.554503 1_555
O54 P13 1.607572 1_555
O55 P1 1.463829 1_555
