# generated using pymatgen
data_BaIrOF5
_symmetry_space_group_name_H-M   'P 1'
_cell_length_a   4.86408858
_cell_length_b   10.51712207
_cell_length_c   9.83810863
_cell_angle_alpha   90.00000000
_cell_angle_beta   90.00000000
_cell_angle_gamma   90.00000000
_symmetry_Int_Tables_number   1
_chemical_formula_structural   BaIrOF5
_chemical_formula_sum   'Ba4 Ir4 O4 F20'
_cell_volume   503.28038429
_cell_formula_units_Z   4
loop_
 _symmetry_equiv_pos_site_id
 _symmetry_equiv_pos_as_xyz
  1  'x, y, z'
loop_
 _atom_site_type_symbol
 _atom_site_label
 _atom_site_symmetry_multiplicity
 _atom_site_fract_x
 _atom_site_fract_y
 _atom_site_fract_z
 _atom_site_occupancy
  Ba  Ba0  1  0.51537818  0.00000000  0.75000000  1
  Ba  Ba1  1  0.48462182  0.50000000  0.25000000  1
  Ba  Ba2  1  0.48462182  0.00000000  0.25000000  1
  Ba  Ba3  1  0.51537818  0.50000000  0.75000000  1
  Ir  Ir0  1  0.12262786  0.25000000  0.43659590  1
  Ir  Ir1  1  0.87737214  0.75000000  0.56340410  1
  Ir  Ir2  1  0.12262786  0.75000000  0.06340410  1
  Ir  Ir3  1  0.87737214  0.25000000  0.93659590  1
  O  O0  1  0.85049597  0.25000000  0.55597204  1
  O  O1  1  0.14950403  0.75000000  0.44402796  1
  O  O2  1  0.85049597  0.75000000  0.94402796  1
  O  O3  1  0.14950403  0.25000000  0.05597204  1
  F  F0  1  0.56092769  0.75000000  0.69601535  1
  F  F1  1  0.43907231  0.25000000  0.30398465  1
  F  F2  1  0.56092769  0.25000000  0.80398465  1
  F  F3  1  0.43907231  0.75000000  0.19601535  1
  F  F4  1  0.02844756  0.11122252  0.82415040  1
  F  F5  1  0.97155244  0.61122252  0.17584960  1
  F  F6  1  0.02844756  0.88877748  0.67584960  1
  F  F7  1  0.97155244  0.38877748  0.32415040  1
  F  F8  1  0.97155244  0.88877748  0.17584960  1
  F  F9  1  0.02844756  0.38877748  0.82415040  1
  F  F10  1  0.97155244  0.11122252  0.32415040  1
  F  F11  1  0.02844756  0.61122252  0.67584960  1
  F  F12  1  0.32476995  0.10890996  0.52294197  1
  F  F13  1  0.67523005  0.60890996  0.47705803  1
  F  F14  1  0.32476995  0.89109004  0.97705803  1
  F  F15  1  0.67523005  0.39109004  0.02294197  1
  F  F16  1  0.67523005  0.89109004  0.47705803  1
  F  F17  1  0.32476995  0.39109004  0.52294197  1
  F  F18  1  0.67523005  0.10890996  0.02294197  1
  F  F19  1  0.32476995  0.60890996  0.97705803  1
loop_
_geom_bond_atom_site_label_1
_geom_bond_atom_site_label_2
_geom_bond_distance
_geom_bond_site_symmetry_2
Ba0 F14 2.676102 1_545
Ba0 F12 2.676102 1_555
Ba0 F2 2.691520 1_555
Ba0 F0 2.691520 1_545
Ba0 F4 2.740462 1_555
Ba0 F6 2.740462 1_545
Ba0 F4 2.851062 1_655
Ba0 F6 2.851062 1_645
Ba0 F18 3.021096 1_556
Ba0 F16 3.021096 1_545
Ba1 F13 2.676102 1_555
Ba1 F15 2.676102 1_555
Ba1 F1 2.691520 1_555
Ba1 F3 2.691520 1_555
Ba1 F5 2.740462 1_555
Ba1 F7 2.740462 1_555
Ba1 F5 2.851062 1_455
Ba1 F7 2.851062 1_455
Ba1 F17 3.021096 1_555
Ba1 F19 3.021096 1_554
Ba2 F16 2.676102 1_545
Ba2 F18 2.676102 1_555
Ba2 F1 2.691520 1_555
Ba2 F3 2.691520 1_545
Ba2 F10 2.740462 1_555
Ba2 F8 2.740462 1_545
Ba2 F10 2.851062 1_455
Ba2 F8 2.851062 1_445
Ba2 F12 3.021096 1_555
Ba2 F14 3.021096 1_544
Ba3 F19 2.676102 1_555
Ba3 F17 2.676102 1_555
Ba3 F2 2.691520 1_555
Ba3 F0 2.691520 1_555
Ba3 F11 2.740462 1_555
Ba3 F9 2.740462 1_555
Ba3 F11 2.851062 1_655
Ba3 F9 2.851062 1_655
Ba3 F15 3.021096 1_556
Ba3 F13 3.021096 1_555
Ir0 O0 1.769579 1_455
Ir1 O1 1.769579 1_655
Ir2 O2 1.769579 1_454
Ir3 O3 1.769579 1_656
F0 Ir1 2.017740 1_555
F1 Ir0 2.017740 1_555
F2 Ir3 2.017740 1_555
F3 Ir2 2.017740 1_555
F4 Ir3 1.973333 1_455
F5 Ir2 1.973333 1_655
F6 Ir1 1.973333 1_455
F7 Ir0 1.973333 1_655
F8 Ir2 1.973333 1_655
F9 Ir3 1.973333 1_455
F10 Ir0 1.973333 1_655
F11 Ir1 1.973333 1_455
F12 Ir0 1.972364 1_555
F13 Ir1 1.972364 1_555
F14 Ir2 1.972364 1_556
F15 Ir3 1.972364 1_554
F16 Ir1 1.972364 1_555
F17 Ir0 1.972364 1_555
F18 Ir3 1.972364 1_554
F19 Ir2 1.972364 1_556
