# generated using pymatgen
data_Co(PO3)4
_symmetry_space_group_name_H-M   'P 1'
_cell_length_a   13.63465300
_cell_length_b   5.19367100
_cell_length_c   7.20428569
_cell_angle_alpha   82.42880194
_cell_angle_beta   90.00000000
_cell_angle_gamma   90.00000000
_symmetry_Int_Tables_number   1
_chemical_formula_structural   Co(PO3)4
_chemical_formula_sum   'Co2 P8 O24'
_cell_volume   505.71592238
_cell_formula_units_Z   2
loop_
 _symmetry_equiv_pos_site_id
 _symmetry_equiv_pos_as_xyz
  1  'x, y, z'
loop_
 _atom_site_type_symbol
 _atom_site_label
 _atom_site_symmetry_multiplicity
 _atom_site_fract_x
 _atom_site_fract_y
 _atom_site_fract_z
 _atom_site_occupancy
  Co  Co0  1  0.23633800  0.48406500  0.50754900  1
  Co  Co1  1  0.73633800  0.51593500  0.49245100  1
  P  P0  1  0.16764700  0.14369000  0.89770000  1
  P  P1  1  0.32271500  0.78614300  0.11351900  1
  P  P2  1  0.37712300  0.99674300  0.46049000  1
  P  P3  1  0.59792600  0.02347500  0.45605200  1
  P  P4  1  0.66764700  0.85631000  0.10230000  1
  P  P5  1  0.82271500  0.21385700  0.88648100  1
  P  P6  1  0.09792600  0.97652500  0.54394800  1
  P  P7  1  0.87712300  0.00325700  0.53951000  1
  O  O0  1  0.36167400  0.26665000  0.50738200  1
  O  O1  1  0.60979800  0.29297700  0.50669200  1
  O  O2  1  0.40276600  0.64352900  0.02467500  1
  O  O3  1  0.16449800  0.18609000  0.44703400  1
  O  O4  1  0.10979800  0.70702300  0.49330800  1
  O  O5  1  0.36605100  0.99975600  0.23590800  1
  O  O6  1  0.10671900  0.96674800  0.76809500  1
  O  O7  1  0.10846500  0.18424600  0.06498300  1
  O  O8  1  0.70969500  0.62228300  0.22500400  1
  O  O9  1  0.81633500  0.22172400  0.43705800  1
  O  O10  1  0.75401100  0.39752800  0.76659500  1
  O  O11  1  0.31633500  0.77827600  0.56294200  1
  O  O12  1  0.86605100  0.00024400  0.76409200  1
  O  O13  1  0.48912100  0.91661500  0.49851800  1
  O  O14  1  0.76103700  0.04298100  0.04295900  1
  O  O15  1  0.66449800  0.81391000  0.55296600  1
  O  O16  1  0.98912100  0.08338500  0.50148200  1
  O  O17  1  0.90276600  0.35647100  0.97532500  1
  O  O18  1  0.26103700  0.95701900  0.95704100  1
  O  O19  1  0.20969500  0.37771700  0.77499600  1
  O  O20  1  0.25401100  0.60247200  0.23340500  1
  O  O21  1  0.60846500  0.81575400  0.93501700  1
  O  O22  1  0.86167400  0.73335000  0.49261800  1
  O  O23  1  0.60671900  0.03325200  0.23190500  1
loop_
_geom_bond_atom_site_label_1
_geom_bond_atom_site_label_2
_geom_bond_distance
_geom_bond_site_symmetry_2
Co0 O3 1.929333 1_555
Co0 O11 1.960747 1_555
Co0 O19 1.966983 1_555
Co0 O20 2.004211 1_555
Co0 O0 2.048364 1_555
Co0 O4 2.072891 1_555
Co1 O15 1.929333 1_555
Co1 O9 1.960747 1_555
Co1 O8 1.966983 1_555
Co1 O10 2.004211 1_555
Co1 O22 2.048364 1_555
Co1 O1 2.072891 1_555
O0 P2 1.499451 1_545
O1 P3 1.501012 1_555
O2 P1 1.508153 1_555
O3 P6 1.515176 1_545
O4 P6 1.501012 1_555
O5 P1 1.617156 1_555
O5 P2 1.623002 1_555
O6 P6 1.613377 1_555
O6 P0 1.622519 1_565
O7 P0 1.488216 1_554
O8 P4 1.518003 1_555
O9 P7 1.516068 1_555
O10 P5 1.521953 1_555
O11 P2 1.516068 1_555
O12 P5 1.617156 1_555
O12 P7 1.623002 1_555
O13 P2 1.596901 1_555
O13 P3 1.599281 1_565
O14 P5 1.581776 1_554
O14 P4 1.623233 1_545
O15 P3 1.515176 1_565
O16 P7 1.596901 1_555
O16 P6 1.599281 1_645
O17 P5 1.508153 1_555
O18 P1 1.581776 1_556
O18 P0 1.623233 1_565
O19 P0 1.518003 1_555
O20 P1 1.521953 1_555
O21 P4 1.488216 1_556
O22 P7 1.499451 1_565
O23 P3 1.613377 1_555
O23 P4 1.622519 1_545
