# generated using pymatgen
data_Rb4Zr6NCl18
_symmetry_space_group_name_H-M   'P 1'
_cell_length_a   10.21154842
_cell_length_b   10.21154836
_cell_length_c   9.83770477
_cell_angle_alpha   77.16028789
_cell_angle_beta   77.16028637
_cell_angle_gamma   117.68137377
_symmetry_Int_Tables_number   1
_chemical_formula_structural   Rb4Zr6NCl18
_chemical_formula_sum   'Rb4 Zr6 N1 Cl18'
_cell_volume   820.37158614
_cell_formula_units_Z   1
loop_
 _symmetry_equiv_pos_site_id
 _symmetry_equiv_pos_as_xyz
  1  'x, y, z'
loop_
 _atom_site_type_symbol
 _atom_site_label
 _atom_site_symmetry_multiplicity
 _atom_site_fract_x
 _atom_site_fract_y
 _atom_site_fract_z
 _atom_site_occupancy
  Rb  Rb0  1  0.76776451  0.44267742  0.68823887  1
  Rb  Rb1  1  0.55732258  0.23223549  0.31176113  1
  Rb  Rb2  1  0.23223549  0.55732258  0.31176113  1
  Rb  Rb3  1  0.44267742  0.76776451  0.68823887  1
  Zr  Zr0  1  0.12447494  0.12447494  0.14049146  1
  Zr  Zr1  1  0.87552506  0.87552506  0.85950854  1
  Zr  Zr2  1  0.94858811  0.76585656  0.15110424  1
  Zr  Zr3  1  0.23414344  0.05141189  0.84889576  1
  Zr  Zr4  1  0.05141189  0.23414344  0.84889576  1
  Zr  Zr5  1  0.76585656  0.94858811  0.15110424  1
  N  N0  1  0.00000000  0.00000000  0.00000000  1
  Cl  Cl0  1  0.80435090  0.59726200  0.01293185  1
  Cl  Cl1  1  0.40273900  0.19564910  0.98706815  1
  Cl  Cl2  1  0.19564910  0.40273900  0.98706815  1
  Cl  Cl3  1  0.59726100  0.80435090  0.01293185  1
  Cl  Cl4  1  0.20579033  0.79420967  0.00000000  1
  Cl  Cl5  1  0.79420967  0.20579033  1.00000000  1
  Cl  Cl6  1  0.32139969  0.32139969  0.66373286  1
  Cl  Cl7  1  0.67860031  0.67860031  0.33626714  1
  Cl  Cl8  1  0.88766027  0.49537540  0.32793526  1
  Cl  Cl9  1  0.50462460  0.11233973  0.67206474  1
  Cl  Cl10  1  0.11233973  0.50462460  0.67206474  1
  Cl  Cl11  1  0.49537540  0.88766027  0.32793526  1
  Cl  Cl12  1  0.26749104  0.26749104  0.29513457  1
  Cl  Cl13  1  0.73250896  0.73250896  0.70486543  1
  Cl  Cl14  1  0.08295552  0.87618140  0.32238224  1
  Cl  Cl15  1  0.12381860  0.91704448  0.67761776  1
  Cl  Cl16  1  0.91704448  0.12381860  0.67761776  1
  Cl  Cl17  1  0.87618140  0.08295552  0.32238224  1
loop_
_geom_bond_atom_site_label_1
_geom_bond_atom_site_label_2
_geom_bond_distance
_geom_bond_site_symmetry_2
N0 Zr5 2.260376 1_445
N0 Zr3 2.260376 1_554
N0 Zr4 2.260376 1_554
N0 Zr2 2.260376 1_445
N0 Zr0 2.280794 1_555
N0 Zr1 2.280794 1_444
Cl0 Zr2 2.560269 1_555
Cl0 Zr1 2.562801 1_554
Cl0 Rb1 3.463724 1_555
Cl0 Rb0 3.880463 1_554
Cl1 Zr3 2.560274 1_555
Cl1 Zr0 2.562809 1_556
Cl1 Rb0 3.463719 1_555
Cl1 Rb1 3.880458 1_556
Cl2 Zr4 2.560274 1_555
Cl2 Zr0 2.562809 1_556
Cl2 Rb3 3.463719 1_555
Cl2 Rb2 3.880458 1_556
Cl3 Zr5 2.560274 1_555
Cl3 Zr1 2.562809 1_554
Cl3 Rb2 3.463719 1_555
Cl3 Rb3 3.880458 1_554
Cl4 Zr2 2.560991 1_455
Cl4 Zr3 2.560991 1_564
Cl4 Rb3 3.606748 1_554
Cl4 Rb2 3.606748 1_555
Cl5 Zr4 2.560991 1_655
Cl5 Zr5 2.560991 1_546
Cl5 Rb1 3.606748 1_556
Cl5 Rb0 3.606748 1_555
Cl6 Zr4 2.545046 1_555
Cl6 Zr3 2.545046 1_555
Cl7 Zr2 2.545046 1_555
Cl7 Zr5 2.545046 1_555
Cl8 Zr2 2.613232 1_555
Cl8 Rb2 3.231834 1_655
Cl8 Rb1 3.260599 1_555
Cl8 Rb0 3.311163 1_555
Cl9 Zr3 2.613232 1_555
Cl9 Rb3 3.231834 1_545
Cl9 Rb0 3.260599 1_555
Cl9 Rb1 3.311163 1_555
Cl10 Zr4 2.613232 1_555
Cl10 Rb0 3.231834 1_455
Cl10 Rb3 3.260599 1_555
Cl10 Rb2 3.311163 1_555
Cl11 Zr5 2.613232 1_555
Cl11 Rb1 3.231834 1_565
Cl11 Rb2 3.260599 1_555
Cl11 Rb3 3.311163 1_555
Cl12 Zr0 2.563865 1_555
Cl12 Rb2 3.177219 1_555
Cl12 Rb1 3.177219 1_555
Cl13 Zr1 2.563865 1_555
Cl13 Rb0 3.177219 1_555
Cl13 Rb3 3.177219 1_555
Cl14 Zr2 2.534966 1_455
Cl14 Zr0 2.541229 1_565
Cl15 Zr3 2.534966 1_565
Cl15 Zr1 2.541229 1_455
Cl16 Zr4 2.534966 1_655
Cl16 Zr1 2.541229 1_545
Cl17 Zr5 2.534966 1_545
Cl17 Zr0 2.541229 1_655
