# generated using pymatgen
data_TaAgP2F12
_symmetry_space_group_name_H-M   'P 1'
_cell_length_a   8.41029660
_cell_length_b   8.69592922
_cell_length_c   7.91047843
_cell_angle_alpha   90.00000000
_cell_angle_beta   117.92581846
_cell_angle_gamma   90.00000000
_symmetry_Int_Tables_number   1
_chemical_formula_structural   TaAgP2F12
_chemical_formula_sum   'Ta2 Ag2 P4 F24'
_cell_volume   511.16780443
_cell_formula_units_Z   2
loop_
 _symmetry_equiv_pos_site_id
 _symmetry_equiv_pos_as_xyz
  1  'x, y, z'
loop_
 _atom_site_type_symbol
 _atom_site_label
 _atom_site_symmetry_multiplicity
 _atom_site_fract_x
 _atom_site_fract_y
 _atom_site_fract_z
 _atom_site_occupancy
  Ta  Ta0  1  0.00000000  0.50000000  0.50000000  1
  Ta  Ta1  1  0.00000000  0.00000000  0.00000000  1
  Ag  Ag0  1  0.00000000  0.00000000  0.50000000  1
  Ag  Ag1  1  0.00000000  0.50000000  0.00000000  1
  P  P0  1  0.68170460  0.02535381  0.34286707  1
  P  P1  1  0.31829540  0.52535381  0.15713293  1
  P  P2  1  0.31829540  0.97464619  0.65713293  1
  P  P3  1  0.68170460  0.47464619  0.84286707  1
  F  F0  1  0.15814010  0.41917844  0.74768314  1
  F  F1  1  0.84185990  0.91917844  0.75231686  1
  F  F2  1  0.84185990  0.58082156  0.25231686  1
  F  F3  1  0.15814010  0.08082156  0.24768314  1
  F  F4  1  0.14858598  0.41574155  0.39944105  1
  F  F5  1  0.85141402  0.91574155  0.10055895  1
  F  F6  1  0.85141402  0.58425845  0.60055895  1
  F  F7  1  0.14858598  0.08425845  0.89944105  1
  F  F8  1  0.13525408  0.68754891  0.56164314  1
  F  F9  1  0.86474592  0.18754891  0.93835686  1
  F  F10  1  0.86474592  0.31245109  0.43835686  1
  F  F11  1  0.13525408  0.81245109  0.06164314  1
  F  F12  1  0.59344591  0.11214553  0.44757045  1
  F  F13  1  0.40655409  0.61214553  0.05242955  1
  F  F14  1  0.40655409  0.88785447  0.55242955  1
  F  F15  1  0.59344591  0.38785447  0.94757045  1
  F  F16  1  0.59459670  0.11016395  0.14872427  1
  F  F17  1  0.40540330  0.61016395  0.35127573  1
  F  F18  1  0.40540330  0.88983605  0.85127573  1
  F  F19  1  0.59459670  0.38983605  0.64872427  1
  F  F20  1  0.56861062  0.87601134  0.28724604  1
  F  F21  1  0.43138938  0.37601134  0.21275396  1
  F  F22  1  0.43138938  0.12398866  0.71275396  1
  F  F23  1  0.56861062  0.62398866  0.78724604  1
loop_
_geom_bond_atom_site_label_1
_geom_bond_atom_site_label_2
_geom_bond_distance
_geom_bond_site_symmetry_2
Ag0 P2 2.375517 1_545
Ag0 P0 2.375517 1_455
Ag1 P1 2.375517 1_555
Ag1 P3 2.375517 1_454
F0 Ta0 1.913345 1_555
F1 Ta1 1.913345 1_666
F2 Ta0 1.913345 1_655
F3 Ta1 1.913345 1_555
F4 Ta0 1.913727 1_555
F5 Ta1 1.913727 1_665
F6 Ta0 1.913727 1_655
F7 Ta1 1.913727 1_556
F8 Ta0 1.916264 1_555
F9 Ta1 1.916264 1_656
F10 Ta0 1.916264 1_655
F11 Ta1 1.916264 1_565
F12 P0 1.543524 1_555
F13 P1 1.543524 1_555
F14 P2 1.543524 1_555
F15 P3 1.543524 1_555
F16 P0 1.544457 1_555
F17 P1 1.544457 1_555
F18 P2 1.544457 1_555
F19 P3 1.544457 1_555
F20 P0 1.546882 1_565
F21 P1 1.546882 1_555
F22 P2 1.546882 1_545
F23 P3 1.546882 1_555
