# generated using pymatgen
data_FeCuAg2F7
_symmetry_space_group_name_H-M   'P 1'
_cell_length_a   7.39533009
_cell_length_b   7.39726351
_cell_length_c   7.39356549
_cell_angle_alpha   118.84643075
_cell_angle_beta   119.31582750
_cell_angle_gamma   91.57491383
_symmetry_Int_Tables_number   1
_chemical_formula_structural   FeCuAg2F7
_chemical_formula_sum   'Fe2 Cu2 Ag4 F14'
_cell_volume   289.90901225
_cell_formula_units_Z   2
loop_
 _symmetry_equiv_pos_site_id
 _symmetry_equiv_pos_as_xyz
  1  'x, y, z'
loop_
 _atom_site_type_symbol
 _atom_site_label
 _atom_site_symmetry_multiplicity
 _atom_site_fract_x
 _atom_site_fract_y
 _atom_site_fract_z
 _atom_site_occupancy
  Fe  Fe0  1  0.00000000  0.00000000  0.50000000  1
  Fe  Fe1  1  0.00000000  0.50000000  0.00000000  1
  Cu  Cu0  1  0.50000000  0.00000000  0.50000000  1
  Cu  Cu1  1  0.00000000  0.50000000  0.50000000  1
  Ag  Ag0  1  0.00000000  0.00000000  0.00000000  1
  Ag  Ag1  1  0.50000000  0.50000000  0.00000000  1
  Ag  Ag2  1  0.50000000  0.00000000  0.00000000  1
  Ag  Ag3  1  0.50000000  0.50000000  0.50000000  1
  F  F0  1  0.37385413  0.09302850  0.28083321  1
  F  F1  1  0.68804614  0.40725943  0.28081862  1
  F  F2  1  0.69060213  0.32952977  0.77946623  1
  F  F3  1  0.94984371  0.17045317  0.36091391  1
  F  F4  1  0.94999374  0.58879405  0.77916394  1
  F  F5  1  0.69049346  0.91130544  0.36137916  1
  F  F6  1  0.30950654  0.08869456  0.63862084  1
  F  F7  1  0.05000626  0.41120595  0.22083606  1
  F  F8  1  0.05015629  0.82954683  0.63908609  1
  F  F9  1  0.30939787  0.67047023  0.22053377  1
  F  F10  1  0.92394987  0.75008968  0.17386936  1
  F  F11  1  0.62614587  0.90697150  0.71916679  1
  F  F12  1  0.31195386  0.59274057  0.71918138  1
  F  F13  1  0.07605013  0.24991032  0.82613064  1
loop_
_geom_bond_atom_site_label_1
_geom_bond_atom_site_label_2
_geom_bond_distance
_geom_bond_site_symmetry_2
Cu0 F11 1.897523 1_545
Cu0 F0 1.897523 1_555
Cu0 F5 2.069138 1_545
Cu0 F6 2.069138 1_555
Cu0 F2 2.072977 1_555
Cu0 F9 2.072977 1_545
Cu1 F12 1.896918 1_555
Cu1 F1 1.896918 1_455
Cu1 F4 2.069058 1_455
Cu1 F7 2.069058 1_555
Cu1 F8 2.072567 1_555
Cu1 F3 2.072567 1_455
Ag0 F0 2.307369 1_555
Ag0 F11 2.307369 1_444
Ag0 F3 2.568336 1_455
Ag0 F8 2.568336 1_544
Ag0 F7 2.570944 1_555
Ag0 F4 2.570944 1_444
Ag1 F1 2.305385 1_555
Ag1 F12 2.305385 1_554
Ag1 F2 2.569047 1_554
Ag1 F9 2.569047 1_555
Ag1 F5 2.571939 1_555
Ag1 F6 2.571939 1_554
Ag2 F0 2.491680 1_555
Ag2 F11 2.491680 1_544
Ag2 F1 2.495450 1_555
Ag2 F12 2.495450 1_544
Ag3 F0 2.493429 1_555
Ag3 F11 2.493429 1_555
Ag3 F1 2.493441 1_555
Ag3 F12 2.493441 1_555
F2 Fe1 1.920465 1_656
F3 Fe0 1.920480 1_655
F4 Fe1 1.921203 1_656
F5 Fe0 1.921289 1_665
F6 Fe0 1.921289 1_555
F7 Fe1 1.921203 1_555
F8 Fe0 1.920480 1_565
F9 Fe1 1.920465 1_555
F10 Fe0 1.965106 1_665
F10 Fe1 1.965120 1_655
F13 Fe0 1.965106 1_555
F13 Fe1 1.965120 1_556
