# generated using pymatgen
data_Cs2NaNbO4
_symmetry_space_group_name_H-M   'P 1'
_cell_length_a   6.32753227
_cell_length_b   6.20333705
_cell_length_c   8.57587867
_cell_angle_alpha   86.97619076
_cell_angle_beta   90.00000000
_cell_angle_gamma   90.00000000
_symmetry_Int_Tables_number   1
_chemical_formula_structural   Cs2NaNbO4
_chemical_formula_sum   'Cs4 Na2 Nb2 O8'
_cell_volume   336.15013206
_cell_formula_units_Z   2
loop_
 _symmetry_equiv_pos_site_id
 _symmetry_equiv_pos_as_xyz
  1  'x, y, z'
loop_
 _atom_site_type_symbol
 _atom_site_label
 _atom_site_symmetry_multiplicity
 _atom_site_fract_x
 _atom_site_fract_y
 _atom_site_fract_z
 _atom_site_occupancy
  Cs  Cs0  1  0.75000000  0.18068132  0.81500606  1
  Cs  Cs1  1  0.25000000  0.81931868  0.18499394  1
  Cs  Cs2  1  0.25000000  0.29991639  0.48634181  1
  Cs  Cs3  1  0.75000000  0.70008361  0.51365819  1
  Na  Na0  1  0.75000000  0.63757713  0.02130012  1
  Na  Na1  1  0.25000000  0.36242287  0.97869988  1
  Nb  Nb0  1  0.25000000  0.79012618  0.75592314  1
  Nb  Nb1  1  0.75000000  0.20987382  0.24407686  1
  O  O0  1  0.51333569  0.36271073  0.16702442  1
  O  O1  1  0.01333569  0.63728927  0.83297458  1
  O  O2  1  0.48666431  0.63728927  0.83297458  1
  O  O3  1  0.98666431  0.36271073  0.16702442  1
  O  O4  1  0.75000000  0.20150126  0.46298421  1
  O  O5  1  0.75000000  0.92683975  0.17605325  1
  O  O6  1  0.25000000  0.79849874  0.53701579  1
  O  O7  1  0.25000000  0.07316025  0.82394675  1
loop_
_geom_bond_atom_site_label_1
_geom_bond_atom_site_label_2
_geom_bond_distance
_geom_bond_site_symmetry_2
Cs0 O4 3.014844 1_555
Cs0 O7 3.233384 1_555
Cs0 O7 3.233384 1_655
Cs0 O2 3.296855 1_555
Cs0 O1 3.296855 1_655
Cs0 O5 3.398858 1_546
Cs1 O6 3.014844 1_555
Cs1 O5 3.233384 1_455
Cs1 O5 3.233384 1_555
Cs1 O3 3.296855 1_455
Cs1 O0 3.296855 1_555
Cs1 O7 3.398858 1_564
Cs2 O6 3.117888 1_545
Cs2 O6 3.145875 1_555
Cs2 O7 3.151429 1_555
Cs2 O3 3.211638 1_455
Cs2 O0 3.211638 1_555
Cs2 O4 3.230349 1_455
Cs2 O4 3.230349 1_555
Cs3 O4 3.117888 1_565
Cs3 O4 3.145875 1_555
Cs3 O5 3.151429 1_555
Cs3 O2 3.211631 1_555
Cs3 O1 3.211631 1_655
Cs3 O6 3.230349 1_555
Cs3 O6 3.230349 1_655
Na0 O5 2.287445 1_555
Na0 O2 2.320594 1_554
Na0 O1 2.320594 1_654
Na0 O0 2.546922 1_555
Na0 O3 2.546922 1_555
Na1 O7 2.287445 1_555
Na1 O3 2.320588 1_456
Na1 O0 2.320588 1_556
Na1 O1 2.546926 1_555
Na1 O2 2.546926 1_555
Nb0 O1 1.874017 1_555
Nb0 O2 1.874017 1_555
Nb0 O6 1.875300 1_555
Nb0 O7 1.879109 1_565
Nb1 O0 1.874020 1_555
Nb1 O3 1.874020 1_555
Nb1 O4 1.875300 1_555
Nb1 O5 1.879109 1_545
