# generated using pymatgen
data_LiTaPdPt5
_symmetry_space_group_name_H-M   'P 1'
_cell_length_a   5.53452903
_cell_length_b   5.54071555
_cell_length_c   5.53452899
_cell_angle_alpha   59.96301583
_cell_angle_beta   59.91400821
_cell_angle_gamma   59.96302365
_symmetry_Int_Tables_number   1
_chemical_formula_structural   LiTaPdPt5
_chemical_formula_sum   'Li1 Ta1 Pd1 Pt5'
_cell_volume   119.86337327
_cell_formula_units_Z   1
loop_
 _symmetry_equiv_pos_site_id
 _symmetry_equiv_pos_as_xyz
  1  'x, y, z'
loop_
 _atom_site_type_symbol
 _atom_site_label
 _atom_site_symmetry_multiplicity
 _atom_site_fract_x
 _atom_site_fract_y
 _atom_site_fract_z
 _atom_site_occupancy
  Li  Li0  1  0.00000000  0.00000000  0.00000000  1
  Ta  Ta0  1  0.50000000  0.50000000  0.50000000  1
  Pd  Pd0  1  0.50000000  0.00000000  0.50000000  1
  Pt  Pt0  1  0.00000000  0.00000000  0.50000000  1
  Pt  Pt1  1  0.00000000  0.50000000  0.50000000  1
  Pt  Pt2  1  0.50000000  0.50000000  0.00000000  1
  Pt  Pt3  1  0.00000000  0.50000000  0.00000000  1
  Pt  Pt4  1  0.50000000  0.00000000  0.00000000  1
loop_
_geom_bond_atom_site_label_1
_geom_bond_atom_site_label_2
_geom_bond_distance
_geom_bond_site_symmetry_2
Li0 Pd0 2.763667 1_455
Li0 Pd0 2.763667 1_554
Li0 Pt1 2.767264 1_545
Li0 Pt1 2.767264 1_554
Li0 Pt0 2.767264 1_554
Li0 Pt0 2.767264 1_555
Li0 Pt4 2.767265 1_455
Li0 Pt4 2.767265 1_555
Li0 Pt2 2.767265 1_545
Li0 Pt2 2.767265 1_455
Li0 Pt3 2.770358 1_555
Li0 Pt3 2.770358 1_545
Pd0 Pt2 2.767264 1_546
Pd0 Pt2 2.767264 1_555
Pd0 Pt4 2.767264 1_555
Pd0 Pt4 2.767264 1_556
Pd0 Pt0 2.767265 1_655
Pd0 Pt0 2.767265 1_555
Pd0 Pt1 2.767265 1_555
Pd0 Pt1 2.767265 1_645
Pd0 Ta0 2.770358 1_555
Pd0 Ta0 2.770358 1_545
Pt0 Pt4 2.763667 1_555
Pt0 Pt4 2.763667 1_456
Pt0 Pt3 2.767264 1_555
Pt0 Pt3 2.767264 1_546
Pt0 Ta0 2.767265 1_455
Pt0 Ta0 2.767265 1_545
Pt0 Pt1 2.770358 1_555
Pt0 Pt1 2.770358 1_545
Pt1 Pt2 2.763667 1_555
Pt1 Pt2 2.763667 1_456
Pt1 Pt3 2.767264 1_556
Pt1 Pt3 2.767264 1_555
Pt1 Ta0 2.767265 1_455
Pt1 Ta0 2.767265 1_555
Pt2 Ta0 2.767264 1_555
Pt2 Ta0 2.767264 1_554
Pt2 Pt3 2.767265 1_555
Pt2 Pt3 2.767265 1_655
Pt2 Pt4 2.770358 1_555
Pt2 Pt4 2.770358 1_565
Pt3 Ta0 2.763667 1_455
Pt3 Ta0 2.763667 1_554
Pt3 Pt4 2.767265 1_555
Pt3 Pt4 2.767265 1_465
Pt4 Ta0 2.767264 1_554
Pt4 Ta0 2.767264 1_545
