# generated using pymatgen
data_Ba6Sc3CrSe12
_symmetry_space_group_name_H-M   'P 1'
_cell_length_a   8.60522078
_cell_length_b   8.60522032
_cell_length_c   8.60522067
_cell_angle_alpha   93.74430573
_cell_angle_beta   93.74430915
_cell_angle_gamma   93.74430095
_symmetry_Int_Tables_number   1
_chemical_formula_structural   Ba6Sc3CrSe12
_chemical_formula_sum   'Ba6 Sc3 Cr1 Se12'
_cell_volume   632.94708615
_cell_formula_units_Z   1
loop_
 _symmetry_equiv_pos_site_id
 _symmetry_equiv_pos_as_xyz
  1  'x, y, z'
loop_
 _atom_site_type_symbol
 _atom_site_label
 _atom_site_symmetry_multiplicity
 _atom_site_fract_x
 _atom_site_fract_y
 _atom_site_fract_z
 _atom_site_occupancy
  Ba  Ba0  1  0.36524260  0.74753655  0.13261607  1
  Ba  Ba1  1  0.13261607  0.36524260  0.74753655  1
  Ba  Ba2  1  0.74753655  0.13261607  0.36524260  1
  Ba  Ba3  1  0.63475740  0.25246345  0.86738393  1
  Ba  Ba4  1  0.86738393  0.63475740  0.25246345  1
  Ba  Ba5  1  0.25246345  0.86738393  0.63475740  1
  Sc  Sc0  1  0.00000000  0.00000000  0.00000000  1
  Sc  Sc1  1  0.25360853  0.25360853  0.25360853  1
  Sc  Sc2  1  0.74639147  0.74639147  0.74639147  1
  Cr  Cr0  1  0.50000000  0.50000000  0.50000000  1
  Se  Se0  1  0.53010077  0.41305073  0.20926827  1
  Se  Se1  1  0.20926827  0.53010077  0.41305073  1
  Se  Se2  1  0.41305073  0.20926827  0.53010077  1
  Se  Se3  1  0.96884341  0.30104749  0.09559419  1
  Se  Se4  1  0.09559419  0.96884341  0.30104749  1
  Se  Se5  1  0.30104749  0.09559419  0.96884341  1
  Se  Se6  1  0.46989923  0.58694927  0.79073173  1
  Se  Se7  1  0.79073173  0.46989923  0.58694927  1
  Se  Se8  1  0.58694927  0.79073173  0.46989923  1
  Se  Se9  1  0.03115659  0.69895251  0.90440581  1
  Se  Se10  1  0.69895251  0.90440581  0.03115659  1
  Se  Se11  1  0.90440581  0.03115659  0.69895251  1
loop_
_geom_bond_atom_site_label_1
_geom_bond_atom_site_label_2
_geom_bond_distance
_geom_bond_site_symmetry_2
Ba0 Se10 3.287239 1_555
Ba0 Se8 3.353380 1_555
Ba0 Se9 3.360754 1_554
Ba0 Se6 3.369510 1_554
Ba0 Se0 3.375121 1_555
Ba0 Se4 3.430382 1_555
Ba0 Se1 3.436677 1_555
Ba0 Se5 3.453650 1_564
Ba1 Se9 3.287239 1_555
Ba1 Se6 3.353381 1_555
Ba1 Se11 3.360754 1_455
Ba1 Se7 3.369510 1_455
Ba1 Se1 3.375121 1_555
Ba1 Se5 3.430382 1_555
Ba1 Se2 3.436677 1_555
Ba1 Se3 3.453650 1_456
Ba2 Se11 3.287239 1_555
Ba2 Se7 3.353380 1_555
Ba2 Se10 3.360754 1_545
Ba2 Se8 3.369510 1_545
Ba2 Se2 3.375121 1_555
Ba2 Se3 3.430383 1_555
Ba2 Se0 3.436677 1_555
Ba2 Se4 3.453650 1_645
Ba3 Se5 3.287239 1_555
Ba3 Se2 3.353380 1_555
Ba3 Se3 3.360754 1_556
Ba3 Se0 3.369510 1_556
Ba3 Se6 3.375121 1_555
Ba3 Se11 3.430382 1_555
Ba3 Se7 3.436677 1_555
Ba3 Se10 3.453650 1_546
Ba4 Se3 3.287239 1_555
Ba4 Se0 3.353381 1_555
Ba4 Se4 3.360754 1_655
Ba4 Se1 3.369510 1_655
Ba4 Se7 3.375121 1_555
Ba4 Se10 3.430382 1_555
Ba4 Se8 3.436677 1_555
Ba4 Se9 3.453650 1_654
Ba5 Se4 3.287239 1_555
Ba5 Se1 3.353380 1_555
Ba5 Se5 3.360754 1_565
Ba5 Se2 3.369510 1_565
Ba5 Se8 3.375121 1_555
Ba5 Se9 3.430383 1_555
Ba5 Se6 3.436677 1_555
Ba5 Se11 3.453650 1_465
Sc0 Se3 2.702011 1_455
Sc0 Se9 2.702011 1_544
Sc0 Se4 2.702011 1_545
Sc0 Se11 2.702011 1_454
Sc0 Se5 2.702011 1_554
Sc0 Se10 2.702011 1_445
Sc1 Se1 2.729397 1_555
Sc1 Se2 2.729397 1_555
Sc1 Se0 2.729397 1_555
Sc1 Se3 2.790754 1_455
Sc1 Se5 2.790754 1_554
Sc1 Se4 2.790754 1_545
Sc2 Se7 2.729397 1_555
Sc2 Se8 2.729397 1_555
Sc2 Se6 2.729397 1_555
Sc2 Se9 2.790754 1_655
Sc2 Se10 2.790754 1_556
Sc2 Se11 2.790754 1_565
Cr0 Se7 2.598354 1_555
Cr0 Se1 2.598354 1_555
Cr0 Se8 2.598354 1_555
Cr0 Se2 2.598354 1_555
Cr0 Se6 2.598354 1_555
Cr0 Se0 2.598354 1_555
