# generated using pymatgen
data_Cs2Mg3Se4
_symmetry_space_group_name_H-M   'P 1'
_cell_length_a   10.09397491
_cell_length_b   10.09397429
_cell_length_c   10.09397428
_cell_angle_alpha   143.48146473
_cell_angle_beta   106.24628294
_cell_angle_gamma   85.21418398
_symmetry_Int_Tables_number   1
_chemical_formula_structural   Cs2Mg3Se4
_chemical_formula_sum   'Cs4 Mg6 Se8'
_cell_volume   569.29633906
_cell_formula_units_Z   2
loop_
 _symmetry_equiv_pos_site_id
 _symmetry_equiv_pos_as_xyz
  1  'x, y, z'
loop_
 _atom_site_type_symbol
 _atom_site_label
 _atom_site_symmetry_multiplicity
 _atom_site_fract_x
 _atom_site_fract_y
 _atom_site_fract_z
 _atom_site_occupancy
  Cs  Cs0  1  0.88129365  0.76753971  0.64883236  1
  Cs  Cs1  1  0.61870635  0.26753971  0.88624606  1
  Cs  Cs2  1  0.38129365  0.73246029  0.11375394  1
  Cs  Cs3  1  0.11870635  0.23246029  0.35116764  1
  Mg  Mg0  1  0.25000000  0.75000000  0.50000000  1
  Mg  Mg1  1  0.75000000  0.25000000  0.50000000  1
  Mg  Mg2  1  0.02079935  0.25000000  0.77079935  1
  Mg  Mg3  1  0.47920065  0.25000000  0.22920065  1
  Mg  Mg4  1  0.97920065  0.75000000  0.22920065  1
  Mg  Mg5  1  0.52079935  0.75000000  0.77079935  1
  Se  Se0  1  0.78535773  0.93138914  0.41352332  1
  Se  Se1  1  0.71464227  0.12816560  0.14603142  1
  Se  Se2  1  0.98213418  0.56861086  0.85396858  1
  Se  Se3  1  0.51786582  0.37183440  0.58647668  1
  Se  Se4  1  0.21464227  0.06861086  0.58647668  1
  Se  Se5  1  0.28535773  0.87183440  0.85396858  1
  Se  Se6  1  0.01786582  0.43138914  0.14603142  1
  Se  Se7  1  0.48213418  0.62816560  0.41352332  1
loop_
_geom_bond_atom_site_label_1
_geom_bond_atom_site_label_2
_geom_bond_distance
_geom_bond_site_symmetry_2
Cs0 Se0 3.751613 1_555
Cs0 Se7 3.751622 1_555
Cs0 Se5 3.810272 1_655
Cs0 Se2 3.810280 1_555
Cs0 Se6 3.824461 1_655
Cs0 Se1 3.824470 1_555
Cs0 Se6 3.950414 1_666
Cs0 Se1 3.950422 1_566
Cs1 Se1 3.751622 1_556
Cs1 Se6 3.751622 1_656
Cs1 Se3 3.810271 1_555
Cs1 Se4 3.810271 1_555
Cs1 Se0 3.824469 1_545
Cs1 Se7 3.824469 1_545
Cs1 Se7 3.950416 1_556
Cs1 Se0 3.950416 1_556
Cs2 Se5 3.751622 1_554
Cs2 Se2 3.751622 1_454
Cs2 Se7 3.810271 1_555
Cs2 Se0 3.810271 1_555
Cs2 Se4 3.824469 1_565
Cs2 Se3 3.824469 1_565
Cs2 Se3 3.950416 1_554
Cs2 Se4 3.950416 1_554
Cs3 Se4 3.751613 1_555
Cs3 Se3 3.751622 1_555
Cs3 Se1 3.810272 1_455
Cs3 Se6 3.810280 1_555
Cs3 Se2 3.824461 1_455
Cs3 Se5 3.824470 1_555
Cs3 Se2 3.950414 1_444
Cs3 Se5 3.950422 1_544
Mg0 Se4 2.588992 1_565
Mg0 Se5 2.588992 1_555
Mg0 Se7 2.588993 1_555
Mg0 Se6 2.588993 1_555
Mg1 Se0 2.588992 1_545
Mg1 Se1 2.588992 1_555
Mg1 Se3 2.588993 1_555
Mg1 Se2 2.588993 1_555
Mg2 Se6 2.570244 1_556
Mg2 Se4 2.570244 1_555
Mg2 Se2 2.614256 1_455
Mg2 Se0 2.614256 1_445
Mg3 Se7 2.570244 1_555
Mg3 Se5 2.570244 1_544
Mg3 Se3 2.614256 1_555
Mg3 Se1 2.614256 1_555
Mg4 Se2 2.570244 1_554
Mg4 Se0 2.570244 1_555
Mg4 Se6 2.614256 1_655
Mg4 Se4 2.614256 1_665
Mg5 Se3 2.570244 1_555
Mg5 Se1 2.570244 1_566
Mg5 Se7 2.614256 1_555
Mg5 Se5 2.614256 1_555
