# generated using pymatgen
data_Sr6Sn8PAu
_symmetry_space_group_name_H-M   'P 1'
_cell_length_a   8.87012726
_cell_length_b   8.87012618
_cell_length_c   8.87012692
_cell_angle_alpha   120.47180945
_cell_angle_beta   120.47180960
_cell_angle_gamma   89.18472602
_symmetry_Int_Tables_number   1
_chemical_formula_structural   Sr6Sn8PAu
_chemical_formula_sum   'Sr6 Sn8 P1 Au1'
_cell_volume   489.91258514
_cell_formula_units_Z   1
loop_
 _symmetry_equiv_pos_site_id
 _symmetry_equiv_pos_as_xyz
  1  'x, y, z'
loop_
 _atom_site_type_symbol
 _atom_site_label
 _atom_site_symmetry_multiplicity
 _atom_site_fract_x
 _atom_site_fract_y
 _atom_site_fract_z
 _atom_site_occupancy
  Sr  Sr0  1  0.26334085  0.26334085  0.00000000  1
  Sr  Sr1  1  0.73665915  0.73665915  0.00000000  1
  Sr  Sr2  1  0.18234387  0.65246569  0.83480856  1
  Sr  Sr3  1  0.81765613  0.34753431  0.16519144  1
  Sr  Sr4  1  0.65246569  0.81765613  0.47012181  1
  Sr  Sr5  1  0.34753431  0.18234387  0.52987819  1
  Sn  Sn0  1  0.83791839  0.32699415  0.78516781  1
  Sn  Sn1  1  0.16208161  0.67300585  0.21483219  1
  Sn  Sn2  1  0.54182733  0.05275157  0.21483219  1
  Sn  Sn3  1  0.32699415  0.54182733  0.48907476  1
  Sn  Sn4  1  0.94724843  0.16208161  0.48907476  1
  Sn  Sn5  1  0.45817267  0.94724843  0.78516781  1
  Sn  Sn6  1  0.67300585  0.45817267  0.51092524  1
  Sn  Sn7  1  0.05275157  0.83791839  0.51092524  1
  P  P0  1  0.50000000  0.50000000  0.00000000  1
  Au  Au0  1  0.00000000  0.00000000  0.00000000  1
loop_
_geom_bond_atom_site_label_1
_geom_bond_atom_site_label_2
_geom_bond_distance
_geom_bond_site_symmetry_2
Sn0 Sn6 2.936727 1_555
Sn0 Sn4 2.936742 1_555
Sn0 Sn1 3.079887 1_656
Sn0 Sr3 3.379174 1_556
Sn0 Sr0 3.453576 1_656
Sn0 Sr1 3.501768 1_556
Sn0 Sr5 3.593959 1_555
Sn0 Sr4 3.697410 1_545
Sn1 Sn3 2.936727 1_555
Sn1 Sn7 2.936742 1_555
Sn1 Sr2 3.379174 1_554
Sn1 Sr1 3.453576 1_455
Sn1 Sr0 3.501768 1_555
Sn1 Sr4 3.593959 1_555
Sn1 Sr5 3.697410 1_565
Sn2 Sn4 2.936727 1_555
Sn2 Sn6 2.936728 1_555
Sn2 Sn5 3.079874 1_544
Sn2 Sr2 3.379174 1_544
Sn2 Sr0 3.453573 1_555
Sn2 Sr1 3.501766 1_545
Sn2 Sr4 3.593967 1_545
Sn2 Sr5 3.697419 1_555
Sn3 Sn5 2.936728 1_555
Sn3 Sn6 3.079886 1_555
Sn3 Sr5 3.379179 1_555
Sn3 Sr0 3.453570 1_555
Sn3 Sr1 3.501775 1_556
Sn3 Sr2 3.593960 1_555
Sn3 Sr3 3.697413 1_455
Sn4 Sn7 3.079898 1_645
Sn4 Sr5 3.379171 1_655
Sn4 Sr1 3.453573 1_545
Sn4 Sr0 3.501777 1_656
Sn4 Sr2 3.593960 1_655
Sn4 Sr3 3.697396 1_555
Sn5 Sn7 2.936727 1_555
Sn5 Sr3 3.379174 1_566
Sn5 Sr1 3.453573 1_556
Sn5 Sr0 3.501766 1_566
Sn5 Sr5 3.593967 1_565
Sn5 Sr4 3.697419 1_555
Sn6 Sr4 3.379179 1_555
Sn6 Sr1 3.453570 1_556
Sn6 Sr0 3.501775 1_555
Sn6 Sr3 3.593960 1_555
Sn6 Sr2 3.697413 1_655
Sn7 Sr4 3.379171 1_455
Sn7 Sr0 3.453573 1_566
Sn7 Sr1 3.501777 1_455
Sn7 Sr3 3.593960 1_455
Sn7 Sr2 3.697396 1_555
P0 Sr1 2.989758 1_555
P0 Sr0 2.989758 1_555
P0 Sr4 3.103083 1_555
P0 Sr5 3.103083 1_554
P0 Sr2 3.103085 1_554
P0 Sr3 3.103085 1_555
Au0 Sr0 3.326833 1_555
Au0 Sr1 3.326833 1_445
Au0 Sr5 3.456366 1_555
Au0 Sr4 3.456366 1_444
Au0 Sr3 3.456368 1_455
Au0 Sr2 3.456368 1_544
