# generated using pymatgen
data_Nb3V4SbO20
_symmetry_space_group_name_H-M   'P 1'
_cell_length_a   5.57781998
_cell_length_b   6.99683899
_cell_length_c   11.94691723
_cell_angle_alpha   89.88188591
_cell_angle_beta   90.00000000
_cell_angle_gamma   90.00000000
_symmetry_Int_Tables_number   1
_chemical_formula_structural   Nb3V4SbO20
_chemical_formula_sum   'Nb3 V4 Sb1 O20'
_cell_volume   466.25264160
_cell_formula_units_Z   1
loop_
 _symmetry_equiv_pos_site_id
 _symmetry_equiv_pos_as_xyz
  1  'x, y, z'
loop_
 _atom_site_type_symbol
 _atom_site_label
 _atom_site_symmetry_multiplicity
 _atom_site_fract_x
 _atom_site_fract_y
 _atom_site_fract_z
 _atom_site_occupancy
  Nb  Nb0  1  0.50000000  0.65446206  0.05994631  1
  Nb  Nb1  1  0.00000000  0.14846446  0.44440815  1
  Nb  Nb2  1  0.00000000  0.33902961  0.94034726  1
  V  V0  1  0.50000000  0.02716872  0.84228596  1
  V  V1  1  0.50000000  0.47164394  0.34799725  1
  V  V2  1  0.00000000  0.97044928  0.15494634  1
  V  V3  1  0.00000000  0.53296209  0.65376412  1
  Sb  Sb0  1  0.50000000  0.83326266  0.56018131  1
  O  O0  1  0.50000000  0.82256040  0.92085686  1
  O  O1  1  0.50000000  0.68649896  0.42062429  1
  O  O2  1  0.00000000  0.17861418  0.07759237  1
  O  O3  1  0.00000000  0.32647754  0.58024416  1
  O  O4  1  0.50000000  0.97622334  0.70062906  1
  O  O5  1  0.50000000  0.52199052  0.20453662  1
  O  O6  1  0.00000000  0.02901990  0.29546792  1
  O  O7  1  0.00000000  0.47796536  0.79348372  1
  O  O8  1  0.25054893  0.99838093  0.50177078  1
  O  O9  1  0.75030680  0.49969069  0.99839505  1
  O  O10  1  0.74945107  0.99838093  0.50177078  1
  O  O11  1  0.24969320  0.49969069  0.99839505  1
  O  O12  1  0.25476097  0.65983514  0.62308958  1
  O  O13  1  0.75057712  0.84283030  0.12403512  1
  O  O14  1  0.74769250  0.34434920  0.38001988  1
  O  O15  1  0.25066760  0.15651574  0.87403574  1
  O  O16  1  0.25230750  0.34434920  0.38001988  1
  O  O17  1  0.74933240  0.15651574  0.87403574  1
  O  O18  1  0.74523903  0.65983514  0.62308958  1
  O  O19  1  0.24942288  0.84283030  0.12403512  1
loop_
_geom_bond_atom_site_label_1
_geom_bond_atom_site_label_2
_geom_bond_distance
_geom_bond_site_symmetry_2
Nb0 O9 1.914679 1_554
Nb0 O11 1.914679 1_554
Nb0 O5 1.958686 1_555
Nb0 O0 2.033839 1_554
Nb0 O13 2.069051 1_555
Nb0 O19 2.069051 1_555
Nb1 O8 1.876823 1_545
Nb1 O10 1.876823 1_445
Nb1 O6 1.967426 1_555
Nb1 O3 2.047737 1_555
Nb1 O16 2.108655 1_555
Nb1 O14 2.108655 1_455
Nb2 O11 1.920293 1_555
Nb2 O9 1.920293 1_455
Nb2 O2 1.985111 1_556
Nb2 O7 2.004114 1_555
Nb2 O15 2.053647 1_555
Nb2 O17 2.053647 1_455
O0 V0 1.710290 1_565
O1 V1 1.737284 1_555
O1 Sb0 1.959938 1_555
O2 V2 1.723331 1_545
O3 V3 1.692329 1_555
O4 V0 1.730214 1_565
O4 Sb0 1.955217 1_555
O5 V1 1.749028 1_555
O6 V2 1.728915 1_545
O7 V3 1.712225 1_555
O8 Sb0 1.937613 1_555
O10 Sb0 1.937613 1_555
O12 V3 1.714718 1_555
O12 Sb0 1.976026 1_555
O13 V2 1.694284 1_655
O14 V1 1.687308 1_555
O15 V0 1.702495 1_555
O16 V1 1.687308 1_555
O17 V0 1.702495 1_555
O18 V3 1.714718 1_655
O18 Sb0 1.976026 1_555
O19 V2 1.694284 1_555
