# generated using pymatgen
data_Tl(WO3)6
_symmetry_space_group_name_H-M   'P 1'
_cell_length_a   7.40927038
_cell_length_b   7.40927037
_cell_length_c   7.61520159
_cell_angle_alpha   89.99999719
_cell_angle_beta   90.00000030
_cell_angle_gamma   119.99997978
_symmetry_Int_Tables_number   1
_chemical_formula_structural   Tl(WO3)6
_chemical_formula_sum   'Tl1 W6 O18'
_cell_volume   362.04538088
_cell_formula_units_Z   1
loop_
 _symmetry_equiv_pos_site_id
 _symmetry_equiv_pos_as_xyz
  1  'x, y, z'
loop_
 _atom_site_type_symbol
 _atom_site_label
 _atom_site_symmetry_multiplicity
 _atom_site_fract_x
 _atom_site_fract_y
 _atom_site_fract_z
 _atom_site_occupancy
  Tl  Tl0  1  -0.00000001  -0.00000001  0.49999998  1
  W  W0  1  0.00000007  0.50000009  0.75058060  1
  W  W1  1  0.49999994  0.49999995  0.75058065  1
  W  W2  1  0.49999997  0.50000002  0.24941932  1
  W  W3  1  0.50000004  -0.00000004  0.24941937  1
  W  W4  1  0.50000002  -0.00000008  0.75058070  1
  W  W5  1  0.00000006  0.50000007  0.24941940  1
  O  O0  1  0.21263014  0.78736978  0.25156938  1
  O  O1  1  0.21263017  0.78736980  0.74843062  1
  O  O2  1  0.21262969  0.42525932  0.74843058  1
  O  O3  1  0.21262967  0.42525930  0.25156942  1
  O  O4  1  0.57474069  0.78737027  0.25156935  1
  O  O5  1  0.57474070  0.78737031  0.74843065  1
  O  O6  1  0.49999999  0.50000003  0.50000002  1
  O  O7  1  0.49999998  0.49999997  -0.00000001  1
  O  O8  1  0.42525927  0.21262970  0.25156935  1
  O  O9  1  0.42525928  0.21262971  0.74843066  1
  O  O10  1  0.50000001  0.00000000  -0.00000004  1
  O  O11  1  0.78737029  0.57474072  0.74843059  1
  O  O12  1  0.78737030  0.57474071  0.25156940  1
  O  O13  1  0.49999999  -0.00000004  0.50000003  1
  O  O14  1  0.78736985  0.21263020  0.25156938  1
  O  O15  1  0.78736985  0.21263020  0.74843061  1
  O  O16  1  0.00000002  0.50000002  0.50000000  1
  O  O17  1  0.00000000  0.50000001  -0.00000001  1
loop_
_geom_bond_atom_site_label_1
_geom_bond_atom_site_label_2
_geom_bond_distance
_geom_bond_site_symmetry_2
O0 W5 1.913463 1_555
O0 W3 1.913464 1_565
O1 W0 1.913463 1_555
O1 W4 1.913464 1_565
O2 W1 1.913464 1_555
O2 W0 1.913465 1_555
O3 W2 1.913465 1_555
O3 W5 1.913465 1_555
O4 W2 1.913464 1_555
O4 W3 1.913465 1_565
O5 W4 1.913464 1_565
O5 W1 1.913465 1_555
O6 W1 1.908222 1_555
O6 W2 1.908223 1_555
O7 W2 1.899378 1_555
O7 W1 1.899379 1_554
O8 W2 1.913465 1_555
O8 W3 1.913466 1_555
O9 W1 1.913464 1_555
O9 W4 1.913466 1_555
O10 W4 1.899378 1_554
O10 W3 1.899379 1_555
O11 W1 1.913465 1_555
O11 W0 1.913465 1_655
O12 W2 1.913465 1_555
O12 W5 1.913465 1_655
O13 W3 1.908222 1_555
O13 W4 1.908222 1_555
O14 W3 1.913464 1_555
O14 W5 1.913464 1_655
O15 W4 1.913464 1_555
O15 W0 1.913464 1_655
O16 W5 1.908222 1_555
O16 W0 1.908222 1_555
O17 W0 1.899379 1_554
O17 W5 1.899379 1_555
