# generated using pymatgen
data_Nb4CrB2P
_symmetry_space_group_name_H-M   'P 1'
_cell_length_a   6.04631783
_cell_length_b   6.04631801
_cell_length_c   7.16930862
_cell_angle_alpha   114.94074094
_cell_angle_beta   114.94074685
_cell_angle_gamma   89.99999516
_symmetry_Int_Tables_number   1
_chemical_formula_structural   Nb4CrB2P
_chemical_formula_sum   'Nb8 Cr2 B4 P2'
_cell_volume   210.39099635
_cell_formula_units_Z   2
loop_
 _symmetry_equiv_pos_site_id
 _symmetry_equiv_pos_as_xyz
  1  'x, y, z'
loop_
 _atom_site_type_symbol
 _atom_site_label
 _atom_site_symmetry_multiplicity
 _atom_site_fract_x
 _atom_site_fract_y
 _atom_site_fract_z
 _atom_site_occupancy
  Nb  Nb0  1  0.03389834  0.53389834  0.72499736  1
  Nb  Nb1  1  0.69109902  0.19109902  0.72499736  1
  Nb  Nb2  1  0.19109902  0.03389834  0.72499736  1
  Nb  Nb3  1  0.53389834  0.69109902  0.72499736  1
  Nb  Nb4  1  0.96610166  0.46610166  0.27500264  1
  Nb  Nb5  1  0.30890098  0.80890098  0.27500264  1
  Nb  Nb6  1  0.80890098  0.96610166  0.27500264  1
  Nb  Nb7  1  0.46610166  0.30890098  0.27500264  1
  Cr  Cr0  1  0.50000000  0.50000000  0.00000000  1
  Cr  Cr1  1  0.00000000  0.00000000  0.00000000  1
  B  B0  1  0.38212804  0.88212804  0.00000000  1
  B  B1  1  0.61787196  0.11787196  0.00000000  1
  B  B2  1  0.11787196  0.38212804  1.00000000  1
  B  B3  1  0.88212804  0.61787196  0.00000000  1
  P  P0  1  0.25000000  0.25000000  0.50000000  1
  P  P1  1  0.75000000  0.75000000  0.50000000  1
loop_
_geom_bond_atom_site_label_1
_geom_bond_atom_site_label_2
_geom_bond_distance
_geom_bond_site_symmetry_2
Nb0 P1 2.588072 1_455
Nb0 P0 2.588072 1_555
Nb1 P0 2.588072 1_555
Nb1 P1 2.588072 1_545
Nb2 P1 2.588072 1_445
Nb2 P0 2.588072 1_555
Nb3 P1 2.588072 1_555
Nb3 P0 2.588072 1_555
Nb4 P0 2.588072 1_655
Nb4 P1 2.588072 1_555
Nb5 P1 2.588072 1_555
Nb5 P0 2.588072 1_565
Nb6 P0 2.588072 1_665
Nb6 P1 2.588072 1_555
Nb7 P0 2.588072 1_555
Nb7 P1 2.588072 1_555
Cr0 Nb4 2.743393 1_555
Cr0 Nb0 2.743393 1_554
Cr0 Nb5 2.743393 1_555
Cr0 Nb1 2.743393 1_554
Cr0 Nb7 2.743393 1_555
Cr0 Nb3 2.743393 1_554
Cr0 Nb6 2.743393 1_555
Cr0 Nb2 2.743393 1_554
Cr0 P1 2.877499 1_555
Cr0 P0 2.877499 1_554
Cr1 Nb5 2.743393 1_545
Cr1 Nb1 2.743393 1_454
Cr1 Nb7 2.743393 1_555
Cr1 Nb3 2.743393 1_444
Cr1 Nb4 2.743393 1_455
Cr1 Nb0 2.743393 1_544
Cr1 Nb6 2.743393 1_445
Cr1 Nb2 2.743393 1_554
Cr1 P0 2.877499 1_555
Cr1 P1 2.877499 1_444
B0 B1 2.015796 1_565
B0 Nb6 2.380881 1_555
B0 Nb2 2.380881 1_564
B0 Nb3 2.380881 1_554
B0 Nb7 2.380881 1_565
B0 Nb0 2.398243 1_554
B0 Nb5 2.398243 1_555
B0 Cr1 2.417889 1_565
B0 Cr0 2.417889 1_555
B1 Nb2 2.380881 1_554
B1 Nb6 2.380881 1_545
B1 Nb7 2.380881 1_555
B1 Nb3 2.380881 1_544
B1 Nb4 2.398243 1_555
B1 Nb1 2.398243 1_554
B1 Cr1 2.417889 1_655
B1 Cr0 2.417889 1_555
B2 B3 2.015795 1_456
B2 Nb1 2.380881 1_455
B2 Nb0 2.380881 1_555
B2 Nb4 2.380881 1_456
B2 Nb5 2.380881 1_556
B2 Nb7 2.398242 1_556
B2 Nb2 2.398243 1_555
B2 Cr0 2.417890 1_556
B2 Cr1 2.417890 1_556
B3 Nb5 2.380881 1_655
B3 Nb4 2.380881 1_555
B3 Nb0 2.380881 1_654
B3 Nb1 2.380881 1_554
B3 Nb3 2.398242 1_554
B3 Nb6 2.398243 1_555
B3 Cr0 2.417890 1_555
B3 Cr1 2.417890 1_665
