# generated using pymatgen
data_LuAlGaPd5
_symmetry_space_group_name_H-M   'P 1'
_cell_length_a   7.95093280
_cell_length_b   7.95093279
_cell_length_c   7.95093216
_cell_angle_alpha   150.27476455
_cell_angle_beta   150.27476418
_cell_angle_gamma   42.53822820
_symmetry_Int_Tables_number   1
_chemical_formula_structural   LuAlGaPd5
_chemical_formula_sum   'Lu1 Al1 Ga1 Pd5'
_cell_volume   123.27065895
_cell_formula_units_Z   1
loop_
 _symmetry_equiv_pos_site_id
 _symmetry_equiv_pos_as_xyz
  1  'x, y, z'
loop_
 _atom_site_type_symbol
 _atom_site_label
 _atom_site_symmetry_multiplicity
 _atom_site_fract_x
 _atom_site_fract_y
 _atom_site_fract_z
 _atom_site_occupancy
  Lu  Lu0  1  0.00011445  0.00011445  1.00000000  1
  Al  Al0  1  0.74628714  0.74628714  0.00000000  1
  Ga  Ga0  1  0.25361867  0.25361867  1.00000000  1
  Pd  Pd0  1  0.64167622  0.14167622  0.50000000  1
  Pd  Pd1  1  0.35840082  0.85840082  0.50000000  1
  Pd  Pd2  1  0.14167622  0.64167622  0.50000000  1
  Pd  Pd3  1  0.85840082  0.35840082  0.50000000  1
  Pd  Pd4  1  0.49982566  0.49982566  0.00000000  1
loop_
_geom_bond_atom_site_label_1
_geom_bond_atom_site_label_2
_geom_bond_distance
_geom_bond_site_symmetry_2
Lu0 Pd4 2.884195 1_557
Lu0 Pd4 2.884195 1_445
Lu0 Pd4 2.884196 1_546
Lu0 Pd4 2.884196 1_456
Lu0 Pd2 2.925732 1_545
Lu0 Pd0 2.925732 1_455
Lu0 Pd2 2.925732 1_556
Lu0 Pd0 2.925732 1_556
Lu0 Pd3 2.927346 1_456
Lu0 Pd1 2.927346 1_546
Lu0 Pd3 2.927346 1_445
Lu0 Pd1 2.927347 1_445
Al0 Pd0 2.561720 1_565
Al0 Pd2 2.561720 1_655
Al0 Pd0 2.561720 1_554
Al0 Pd2 2.561720 1_554
Al0 Pd3 2.630490 1_554
Al0 Pd1 2.630490 1_554
Al0 Pd3 2.630490 1_565
Al0 Pd1 2.630490 1_655
Al0 Ga0 2.886238 1_553
Al0 Ga0 2.886238 1_665
Al0 Ga0 2.886238 1_564
Al0 Ga0 2.886238 1_654
Ga0 Pd1 2.563256 1_545
Ga0 Pd3 2.563256 1_455
Ga0 Pd1 2.563256 1_556
Ga0 Pd3 2.563256 1_556
Ga0 Pd2 2.628888 1_556
Ga0 Pd0 2.628888 1_556
Ga0 Pd2 2.628888 1_545
Ga0 Pd0 2.628888 1_455
Pd0 Pd2 2.884192 1_544
Pd0 Pd2 2.884192 1_656
Pd0 Pd2 2.884192 1_645
Pd0 Pd2 2.884192 1_555
Pd0 Pd4 2.928802 1_556
Pd0 Pd4 2.928802 1_545
Pd1 Pd3 2.884192 1_454
Pd1 Pd3 2.884192 1_566
Pd1 Pd3 2.884192 1_465
Pd1 Pd3 2.884192 1_555
Pd1 Pd4 2.924278 1_555
Pd1 Pd4 2.924278 1_566
Pd2 Pd4 2.928802 1_556
Pd2 Pd4 2.928802 1_455
Pd3 Pd4 2.924278 1_555
Pd3 Pd4 2.924278 1_656
