# generated using pymatgen
data_Bi4Ir3RhS4
_symmetry_space_group_name_H-M   'P 1'
_cell_length_a   6.18752861
_cell_length_b   6.18752861
_cell_length_c   6.18752861
_cell_angle_alpha   89.91611771
_cell_angle_beta   89.91611771
_cell_angle_gamma   90.08388229
_symmetry_Int_Tables_number   1
_chemical_formula_structural   Bi4Ir3RhS4
_chemical_formula_sum   'Bi4 Ir3 Rh1 S4'
_cell_volume   236.89192742
_cell_formula_units_Z   1
loop_
 _symmetry_equiv_pos_site_id
 _symmetry_equiv_pos_as_xyz
  1  'x, y, z'
loop_
 _atom_site_type_symbol
 _atom_site_label
 _atom_site_symmetry_multiplicity
 _atom_site_fract_x
 _atom_site_fract_y
 _atom_site_fract_z
 _atom_site_occupancy
  Bi  Bi0  1  0.12995685  0.62995685  0.87004315  1
  Bi  Bi1  1  0.62794429  0.87221536  0.13080916  1
  Bi  Bi2  1  0.86919084  0.12794429  0.62778464  1
  Bi  Bi3  1  0.37221536  0.36919084  0.37205571  1
  Ir  Ir0  1  0.97899880  0.52049986  0.47752619  1
  Ir  Ir1  1  0.52247381  0.47899880  0.97950014  1
  Ir  Ir2  1  0.02049986  0.02247381  0.02100120  1
  Rh  Rh0  1  0.47811242  0.97811242  0.52188758  1
  S  S0  1  0.88281580  0.38281580  0.11718420  1
  S  S1  1  0.38197086  0.12052174  0.88469862  1
  S  S2  1  0.11530138  0.88197086  0.37947826  1
  S  S3  1  0.62052174  0.61530138  0.61802914  1
loop_
_geom_bond_atom_site_label_1
_geom_bond_atom_site_label_2
_geom_bond_distance
_geom_bond_site_symmetry_2
Bi0 S0 2.644758 1_456
Bi0 Ir0 2.690612 1_455
Bi0 Ir2 2.690612 1_566
Bi0 Ir1 2.690612 1_555
Bi1 S1 2.646256 1_564
Bi1 Rh0 2.672857 1_555
Bi1 Ir2 2.685616 1_665
Bi1 Ir1 2.688103 1_554
Bi2 S2 2.646256 1_645
Bi2 Rh0 2.672857 1_545
Bi2 Ir0 2.685616 1_555
Bi2 Ir2 2.688103 1_656
Bi3 S3 2.646256 1_555
Bi3 Rh0 2.672857 1_545
Bi3 Ir1 2.685616 1_554
Bi3 Ir0 2.688103 1_455
Ir0 S3 2.453456 1_555
Ir0 S0 2.461535 1_555
Ir0 S2 2.463895 1_655
Ir1 S1 2.453456 1_555
Ir1 S0 2.461535 1_556
Ir1 S3 2.463895 1_555
Ir2 S2 2.453456 1_545
Ir2 S0 2.461535 1_455
Ir2 S1 2.463895 1_554
Rh0 S2 2.484620 1_555
Rh0 S3 2.484620 1_555
Rh0 S1 2.484620 1_565
