# generated using pymatgen
data_Ca7TaV2N9
_symmetry_space_group_name_H-M   'P 1'
_cell_length_a   6.09964102
_cell_length_b   10.03779945
_cell_length_c   9.03245465
_cell_angle_alpha   90.00000000
_cell_angle_beta   92.01262160
_cell_angle_gamma   90.00000000
_symmetry_Int_Tables_number   1
_chemical_formula_structural   Ca7TaV2N9
_chemical_formula_sum   'Ca14 Ta2 V4 N18'
_cell_volume   552.68870314
_cell_formula_units_Z   2
loop_
 _symmetry_equiv_pos_site_id
 _symmetry_equiv_pos_as_xyz
  1  'x, y, z'
loop_
 _atom_site_type_symbol
 _atom_site_label
 _atom_site_symmetry_multiplicity
 _atom_site_fract_x
 _atom_site_fract_y
 _atom_site_fract_z
 _atom_site_occupancy
  Ca  Ca0  1  0.06809301  0.41856494  0.17184760  1
  Ca  Ca1  1  0.93190699  0.91856394  0.82815240  1
  Ca  Ca2  1  0.93190699  0.58143606  0.82815240  1
  Ca  Ca3  1  0.06809301  0.08143606  0.17184760  1
  Ca  Ca4  1  0.24545457  0.91852780  0.50908815  1
  Ca  Ca5  1  0.75454543  0.41852780  0.49091185  1
  Ca  Ca6  1  0.75454543  0.08147220  0.49091185  1
  Ca  Ca7  1  0.24545457  0.58147220  0.50908815  1
  Ca  Ca8  1  0.57856489  0.93122856  0.15881135  1
  Ca  Ca9  1  0.42143511  0.43122856  0.84118865  1
  Ca  Ca10  1  0.42143511  0.06877144  0.84118865  1
  Ca  Ca11  1  0.57856489  0.56877144  0.15881135  1
  Ca  Ca12  1  0.90926086  0.25000000  0.79771338  1
  Ca  Ca13  1  0.09073914  0.75000000  0.20228662  1
  Ta  Ta0  1  0.27799558  0.25000000  0.56125697  1
  Ta  Ta1  1  0.72200442  0.75000000  0.43874303  1
  V  V0  1  0.45935086  0.25000000  0.27532778  1
  V  V1  1  0.54064914  0.75000000  0.72467222  1
  V  V2  1  0.67616132  0.25000000  0.06469715  1
  V  V3  1  0.32383868  0.75000000  0.93530285  1
  N  N0  1  0.11465818  0.39954914  0.65586005  1
  N  N1  1  0.88534182  0.89954914  0.34413995  1
  N  N2  1  0.88534182  0.60045086  0.34413995  1
  N  N3  1  0.11465818  0.10045086  0.65586005  1
  N  N4  1  0.23196062  0.90476427  0.01914228  1
  N  N5  1  0.76803938  0.40476427  0.98085772  1
  N  N6  1  0.76803938  0.09523573  0.98085772  1
  N  N7  1  0.23196062  0.59523573  0.01914228  1
  N  N8  1  0.36579085  0.39228125  0.37497396  1
  N  N9  1  0.63420915  0.89228125  0.62502604  1
  N  N10  1  0.63420915  0.60771875  0.62502604  1
  N  N11  1  0.36579085  0.10771875  0.37497396  1
  N  N12  1  0.35722081  0.25000000  0.06797433  1
  N  N13  1  0.64277919  0.75000000  0.93202567  1
  N  N14  1  0.55198755  0.25000000  0.66839262  1
  N  N15  1  0.44801245  0.75000000  0.33160738  1
  N  N16  1  0.77763437  0.25000000  0.27119301  1
  N  N17  1  0.22236563  0.75000000  0.72880699  1
loop_
_geom_bond_atom_site_label_1
_geom_bond_atom_site_label_2
_geom_bond_distance
_geom_bond_site_symmetry_2
Ca0 N5 2.474494 1_454
Ca0 N7 2.478564 1_555
Ca0 N8 2.549341 1_555
Ca0 N16 2.630343 1_455
Ca0 N12 2.640006 1_555
Ca0 N2 2.668253 1_455
Ca1 N4 2.474493 1_656
Ca1 N6 2.478571 1_565
Ca1 N9 2.549340 1_555
Ca1 N17 2.630337 1_655
Ca1 N13 2.640000 1_555
Ca1 N3 2.668260 1_665
Ca2 N7 2.474493 1_656
Ca2 N5 2.478571 1_555
Ca2 N10 2.549340 1_555
Ca2 N17 2.630337 1_655
Ca2 N13 2.640000 1_555
Ca2 N0 2.668260 1_655
Ca3 N6 2.474493 1_454
Ca3 N4 2.478571 1_545
Ca3 N11 2.549340 1_555
Ca3 N16 2.630337 1_455
Ca3 N12 2.640000 1_555
Ca3 N1 2.668260 1_445
Ca4 N11 2.382246 1_565
Ca4 N3 2.408935 1_565
Ca4 N9 2.571870 1_555
Ca4 N17 2.615297 1_555
Ca4 N1 2.617453 1_455
Ca4 N15 2.664060 1_555
Ca5 N10 2.382246 1_555
Ca5 N2 2.408935 1_555
Ca5 N8 2.571870 1_555
Ca5 N16 2.615297 1_555
Ca5 N0 2.617453 1_655
Ca5 N14 2.664060 1_555
Ca6 N9 2.382246 1_545
Ca6 N1 2.408935 1_545
Ca6 N11 2.571870 1_555
Ca6 N16 2.615297 1_555
Ca6 N3 2.617453 1_655
Ca6 N14 2.664060 1_555
Ca7 N8 2.382246 1_555
Ca7 N0 2.408935 1_555
Ca7 N10 2.571870 1_555
Ca7 N17 2.615297 1_555
Ca7 N2 2.617453 1_455
Ca7 N15 2.664060 1_555
Ca8 N4 2.438120 1_555
Ca8 N1 2.486923 1_555
Ca8 N15 2.542970 1_555
Ca8 N6 2.599999 1_564
Ca8 N13 2.777607 1_554
Ca8 N11 2.968676 1_565
Ca9 N5 2.438120 1_555
Ca9 N0 2.486923 1_555
Ca9 N14 2.542970 1_555
Ca9 N7 2.599999 1_556
Ca9 N12 2.777607 1_556
Ca9 N10 2.968676 1_555
Ca10 N6 2.438120 1_555
Ca10 N3 2.486923 1_555
Ca10 N14 2.542970 1_555
Ca10 N4 2.599999 1_546
Ca10 N12 2.777607 1_556
Ca10 N9 2.968676 1_545
Ca11 N7 2.438120 1_555
Ca11 N2 2.486923 1_555
Ca11 N15 2.542970 1_555
Ca11 N5 2.599999 1_554
Ca11 N13 2.777607 1_554
Ca11 N8 2.968676 1_555
Ca12 N0 2.361675 1_655
Ca12 N3 2.361675 1_655
Ca12 N14 2.436125 1_555
Ca12 N5 2.447848 1_555
Ca12 N6 2.447848 1_555
Ca13 N1 2.361675 1_455
Ca13 N2 2.361675 1_455
Ca13 N15 2.436125 1_555
Ca13 N4 2.447848 1_555
Ca13 N7 2.447848 1_555
N0 Ta0 2.008983 1_555
N1 Ta1 2.008983 1_555
N2 Ta1 2.008983 1_555
N3 Ta0 2.008983 1_555
N4 V3 1.825018 1_554
N5 V2 1.825018 1_556
N6 V2 1.825018 1_556
N7 V3 1.825018 1_554
N8 V0 1.792087 1_555
N8 Ta0 2.284933 1_555
N9 V1 1.792087 1_555
N9 Ta1 2.284933 1_555
N10 V1 1.792087 1_555
N10 Ta1 2.284933 1_555
N11 V0 1.792087 1_555
N11 Ta0 2.284933 1_555
N12 V2 1.946687 1_555
N12 V0 1.952925 1_555
N13 V3 1.946687 1_555
N13 V1 1.952925 1_555
N14 Ta0 1.901560 1_555
N15 Ta1 1.901560 1_555
N16 V0 1.943085 1_555
N16 V2 1.944441 1_555
N17 V1 1.943085 1_555
N17 V3 1.944441 1_555
