# generated using pymatgen
data_BaMnO3
_symmetry_space_group_name_H-M   'P 1'
_cell_length_a   5.66658882
_cell_length_b   5.66658908
_cell_length_c   9.25043075
_cell_angle_alpha   89.99999844
_cell_angle_beta   89.99999857
_cell_angle_gamma   59.99992362
_symmetry_Int_Tables_number   1
_chemical_formula_structural   BaMnO3
_chemical_formula_sum   'Ba4 Mn4 O12'
_cell_volume   257.23832595
_cell_formula_units_Z   4
loop_
 _symmetry_equiv_pos_site_id
 _symmetry_equiv_pos_as_xyz
  1  'x, y, z'
loop_
 _atom_site_type_symbol
 _atom_site_label
 _atom_site_symmetry_multiplicity
 _atom_site_fract_x
 _atom_site_fract_y
 _atom_site_fract_z
 _atom_site_occupancy
  Ba  Ba0  1  0.00000019  0.99999917  0.99999518  1
  Ba  Ba1  1  -0.00000008  -0.00000004  0.50000625  1
  Ba  Ba2  1  0.33333352  0.33333337  0.74999885  1
  Ba  Ba3  1  0.66666681  0.66666608  0.25000082  1
  Mn  Mn0  1  0.66666632  0.66666662  0.61262222  1
  Mn  Mn1  1  0.33333383  0.33333323  0.11262314  1
  Mn  Mn2  1  0.66666655  0.66666644  0.88737730  1
  Mn  Mn3  1  0.33333350  0.33333335  0.38737820  1
  O  O0  1  0.18838448  0.62323291  0.25000048  1
  O  O1  1  0.18838391  0.18838400  0.25000065  1
  O  O2  1  0.81161671  0.37676678  0.74999872  1
  O  O3  1  0.37676637  0.81161581  0.74999887  1
  O  O4  1  0.81161523  0.81161723  0.74999893  1
  O  O5  1  0.62323325  0.18838332  0.25000068  1
  O  O6  1  0.50000008  0.49999960  0.99999837  1
  O  O7  1  -0.00000018  0.49999968  0.99999870  1
  O  O8  1  -0.00000004  0.50000019  0.50000062  1
  O  O9  1  0.49999970  0.00000046  0.50000070  1
  O  O10  1  0.50000014  -0.00000022  0.99999857  1
  O  O11  1  0.49999969  0.50000002  0.50000074  1
loop_
_geom_bond_atom_site_label_1
_geom_bond_atom_site_label_2
_geom_bond_distance
_geom_bond_site_symmetry_2
Ba0 O6 2.833290 1_555
Ba0 O7 2.833293 1_555
Ba0 O6 2.833293 1_465
Ba0 O10 2.833293 1_465
Ba0 O10 2.833296 1_565
Ba0 O7 2.833296 1_565
Ba0 O3 2.960843 1_555
Ba0 O4 2.960846 1_455
Ba0 O2 2.960849 1_465
Ba0 O0 2.960908 1_556
Ba0 O5 2.960912 1_466
Ba0 O1 2.960918 1_566
Ba1 O11 2.833290 1_545
Ba1 O11 2.833292 1_455
Ba1 O8 2.833293 1_545
Ba1 O9 2.833294 1_455
Ba1 O9 2.833295 1_555
Ba1 O8 2.833296 1_555
Ba1 O3 2.960817 1_545
Ba1 O2 2.960818 1_455
Ba1 O4 2.960822 1_445
Ba1 O5 2.960912 1_455
Ba1 O0 2.960914 1_545
Ba1 O1 2.960917 1_555
Ba2 O9 2.832652 1_555
Ba2 O11 2.832652 1_555
Ba2 O8 2.832654 1_555
Ba2 O6 2.832663 1_555
Ba2 O10 2.832666 1_555
Ba2 O7 2.832667 1_555
Ba2 O4 2.841292 1_545
Ba2 O3 2.841294 1_555
Ba2 O2 2.841300 1_555
Ba2 O2 2.841301 1_455
Ba2 O4 2.841304 1_455
Ba2 O3 2.841306 1_545
Ba3 O8 2.832665 1_655
Ba3 O11 2.832667 1_555
Ba3 O9 2.832669 1_565
Ba3 O7 2.832682 1_654
Ba3 O10 2.832685 1_564
Ba3 O6 2.832686 1_554
Ba3 O0 2.841295 1_555
Ba3 O1 2.841296 1_655
Ba3 O5 2.841298 1_555
Ba3 O1 2.841300 1_565
Ba3 O5 2.841303 1_565
Ba3 O0 2.841306 1_655
Mn0 O2 1.907580 1_555
Mn0 O3 1.907582 1_555
Mn0 O4 1.907582 1_555
Mn0 O11 1.939380 1_555
Mn0 O8 1.939381 1_655
Mn0 O9 1.939381 1_565
Mn1 O0 1.907585 1_555
Mn1 O5 1.907585 1_555
Mn1 O1 1.907585 1_555
Mn1 O6 1.939394 1_554
Mn1 O10 1.939395 1_554
Mn1 O7 1.939396 1_554
Mn2 O4 1.907592 1_555
Mn2 O2 1.907593 1_555
Mn2 O3 1.907593 1_555
Mn2 O10 1.939378 1_565
Mn2 O7 1.939378 1_655
Mn2 O6 1.939378 1_555
Mn3 O1 1.907585 1_555
Mn3 O5 1.907586 1_555
Mn3 O0 1.907587 1_555
Mn3 O9 1.939382 1_555
Mn3 O11 1.939384 1_555
Mn3 O8 1.939384 1_555
