# generated using pymatgen
data_Pr3MoO7
_symmetry_space_group_name_H-M   'P 1'
_cell_length_a   7.62193605
_cell_length_b   7.64154085
_cell_length_c   11.00557648
_cell_angle_alpha   90.00000000
_cell_angle_beta   90.00000000
_cell_angle_gamma   90.00000000
_symmetry_Int_Tables_number   1
_chemical_formula_structural   Pr3MoO7
_chemical_formula_sum   'Pr12 Mo4 O28'
_cell_volume   641.00148530
_cell_formula_units_Z   4
loop_
 _symmetry_equiv_pos_site_id
 _symmetry_equiv_pos_as_xyz
  1  'x, y, z'
loop_
 _atom_site_type_symbol
 _atom_site_label
 _atom_site_symmetry_multiplicity
 _atom_site_fract_x
 _atom_site_fract_y
 _atom_site_fract_z
 _atom_site_occupancy
  Pr  Pr0  1  0.76069596  0.21030045  0.49670894  1
  Pr  Pr1  1  0.49770454  0.45142203  0.77919590  1
  Pr  Pr2  1  0.00229546  0.54857797  0.27919590  1
  Pr  Pr3  1  0.99770454  0.04857797  0.22080410  1
  Pr  Pr4  1  0.50229546  0.95142203  0.72080410  1
  Pr  Pr5  1  0.23930404  0.71030045  0.00329106  1
  Pr  Pr6  1  0.26069596  0.28969955  0.50329106  1
  Pr  Pr7  1  0.73930404  0.78969955  0.99670894  1
  Pr  Pr8  1  0.00002639  0.05593147  0.77318540  1
  Pr  Pr9  1  -0.00002639  0.55593147  0.72681460  1
  Pr  Pr10  1  0.50002639  0.44406853  0.22681460  1
  Pr  Pr11  1  0.49997361  0.94406853  0.27318540  1
  Mo  Mo0  1  0.75403032  0.25409051  0.00069363  1
  Mo  Mo1  1  0.24596968  0.75409051  0.49930637  1
  Mo  Mo2  1  0.25403032  0.24590949  0.99930637  1
  Mo  Mo3  1  0.74596968  0.74590949  0.50069363  1
  O  O0  1  0.50970582  0.23321272  0.63180004  1
  O  O1  1  0.49029418  0.73321272  0.86819996  1
  O  O2  1  0.00970582  0.26678728  0.36819996  1
  O  O3  1  0.99029418  0.76678728  0.13180004  1
  O  O4  1  0.71473510  0.06281908  0.87675362  1
  O  O5  1  0.28526490  0.56281908  0.62324638  1
  O  O6  1  0.21473510  0.43718092  0.12324638  1
  O  O7  1  0.78526490  0.93718092  0.37675362  1
  O  O8  1  0.49630754  0.81446833  0.49559445  1
  O  O9  1  0.50369246  0.31446833  0.00440555  1
  O  O10  1  0.99630754  0.68553167  0.50440555  1
  O  O11  1  0.00369246  0.18553167  0.99559445  1
  O  O12  1  0.71433087  0.04821460  0.12075214  1
  O  O13  1  0.28566913  0.54821460  0.37924786  1
  O  O14  1  0.21433087  0.45178540  0.87924786  1
  O  O15  1  0.78566913  0.95178540  0.62075214  1
  O  O16  1  0.71261774  0.57242395  0.37643888  1
  O  O17  1  0.28738226  0.07242395  0.12356112  1
  O  O18  1  0.21261774  0.92757605  0.62356112  1
  O  O19  1  0.78738226  0.42757605  0.87643888  1
  O  O20  1  0.70508364  0.60513759  0.63933814  1
  O  O21  1  0.29491636  0.10513759  0.86066186  1
  O  O22  1  0.49935766  0.21722314  0.36799072  1
  O  O23  1  0.79491636  0.39486241  0.13933814  1
  O  O24  1  0.00064234  0.78277686  0.86799072  1
  O  O25  1  -0.00064234  0.28277686  0.63200928  1
  O  O26  1  0.50064234  0.71722314  0.13200928  1
  O  O27  1  0.20508364  0.89486241  0.36066186  1
loop_
_geom_bond_atom_site_label_1
_geom_bond_atom_site_label_2
_geom_bond_distance
_geom_bond_site_symmetry_2
Mo0 O23 1.892758 1_555
Mo0 O19 1.921493 1_554
Mo0 O9 1.963474 1_555
Mo0 O11 1.974507 1_654
Mo0 O4 2.021530 1_554
Mo0 O12 2.076635 1_555
Mo1 O27 1.892758 1_555
Mo1 O18 1.921493 1_555
Mo1 O8 1.963474 1_555
Mo1 O10 1.974507 1_455
Mo1 O5 2.021530 1_555
Mo1 O13 2.076635 1_555
Mo2 O21 1.892758 1_555
Mo2 O17 1.921493 1_556
Mo2 O11 1.963474 1_555
Mo2 O9 1.974507 1_556
Mo2 O6 2.021530 1_556
Mo2 O14 2.076635 1_555
Mo3 O20 1.892758 1_555
Mo3 O16 1.921493 1_555
Mo3 O10 1.963474 1_555
Mo3 O8 1.974507 1_555
Mo3 O7 2.021530 1_555
Mo3 O15 2.076635 1_555
O0 Pr1 2.328139 1_555
O0 Pr4 2.366317 1_545
O0 Pr6 2.405987 1_555
O0 Pr0 2.429153 1_555
O1 Pr4 2.328139 1_555
O1 Pr1 2.366317 1_555
O1 Pr7 2.405987 1_555
O1 Pr5 2.429153 1_556
O2 Pr3 2.328139 1_455
O2 Pr2 2.366317 1_555
O2 Pr0 2.405987 1_455
O2 Pr6 2.429153 1_555
O3 Pr2 2.328139 1_655
O3 Pr3 2.366317 1_565
O3 Pr5 2.405987 1_655
O3 Pr7 2.429153 1_554
O4 Pr8 2.455668 1_655
O4 Pr7 2.476637 1_545
O4 Pr4 2.508419 1_545
O5 Pr9 2.455668 1_555
O5 Pr6 2.476637 1_555
O5 Pr1 2.508419 1_555
O6 Pr10 2.455668 1_555
O6 Pr5 2.476637 1_555
O6 Pr2 2.508419 1_555
O7 Pr11 2.455668 1_555
O7 Pr0 2.476637 1_565
O7 Pr3 2.508419 1_565
O8 Pr11 2.640643 1_555
O8 Pr4 2.690835 1_555
O9 Pr10 2.640643 1_555
O9 Pr1 2.690835 1_554
O10 Pr9 2.640643 1_655
O10 Pr2 2.690835 1_655
O11 Pr8 2.640643 1_555
O11 Pr3 2.690835 1_456
O12 Pr7 2.408802 1_544
O12 Pr3 2.424350 1_555
O12 Pr11 2.473279 1_545
O13 Pr6 2.408802 1_555
O13 Pr2 2.424350 1_555
O13 Pr10 2.473279 1_555
O14 Pr5 2.408802 1_556
O14 Pr1 2.424350 1_555
O14 Pr9 2.473279 1_555
O15 Pr0 2.408802 1_565
O15 Pr4 2.424350 1_555
O15 Pr8 2.473279 1_665
O16 Pr2 2.460368 1_655
O16 Pr10 2.509824 1_555
O17 Pr3 2.460368 1_455
O17 Pr11 2.509824 1_545
O18 Pr4 2.460368 1_555
O18 Pr8 2.509824 1_565
O19 Pr1 2.460368 1_555
O19 Pr9 2.509824 1_655
O20 Pr9 2.473880 1_655
O20 Pr1 2.499463 1_555
O21 Pr8 2.473880 1_555
O21 Pr4 2.499463 1_545
O22 Pr10 2.327859 1_555
O22 Pr11 2.333579 1_545
O22 Pr6 2.415164 1_555
O22 Pr0 2.444849 1_555
O23 Pr10 2.473880 1_555
O23 Pr2 2.499463 1_655
O24 Pr9 2.327859 1_555
O24 Pr8 2.333579 1_565
O24 Pr5 2.415164 1_556
O24 Pr7 2.444849 1_455
O25 Pr8 2.327859 1_555
O25 Pr9 2.333579 1_555
O25 Pr0 2.415164 1_455
O25 Pr6 2.444849 1_555
O26 Pr11 2.327859 1_555
O26 Pr10 2.333579 1_555
O26 Pr7 2.415164 1_554
O26 Pr5 2.444849 1_555
O27 Pr11 2.473880 1_555
O27 Pr3 2.499463 1_465
