# generated using pymatgen
data_Zr10AlSn5Se
_symmetry_space_group_name_H-M   'P 1'
_cell_length_a   5.85519291
_cell_length_b   8.54976863
_cell_length_c   8.56156415
_cell_angle_alpha   119.95435284
_cell_angle_beta   89.98713477
_cell_angle_gamma   90.02527279
_symmetry_Int_Tables_number   1
_chemical_formula_structural   Zr10AlSn5Se
_chemical_formula_sum   'Zr10 Al1 Sn5 Se1'
_cell_volume   371.34608849
_cell_formula_units_Z   1
loop_
 _symmetry_equiv_pos_site_id
 _symmetry_equiv_pos_as_xyz
  1  'x, y, z'
loop_
 _atom_site_type_symbol
 _atom_site_label
 _atom_site_symmetry_multiplicity
 _atom_site_fract_x
 _atom_site_fract_y
 _atom_site_fract_z
 _atom_site_occupancy
  Zr  Zr0  1  0.50226541  0.33576205  0.67040299  1
  Zr  Zr1  1  0.50226539  0.66535764  0.32958165  1
  Zr  Zr2  1  0.99761953  0.66587616  0.32913361  1
  Zr  Zr3  1  0.99761903  0.33672573  0.67085453  1
  Zr  Zr4  1  0.75997496  0.26298590  0.99996424  1
  Zr  Zr5  1  0.76396520  0.74043833  0.74944181  1
  Zr  Zr6  1  0.76396852  0.99104409  0.25058038  1
  Zr  Zr7  1  0.23053336  0.74534722  0.99996581  1
  Zr  Zr8  1  0.23839237  0.25634796  0.25583163  1
  Zr  Zr9  1  0.23839164  0.00059047  0.74420791  1
  Al  Al0  1  0.74764460  0.60483438  0.99997545  1
  Sn  Sn0  1  0.74854968  0.38994825  0.39154477  1
  Sn  Sn1  1  0.74854528  0.99849816  0.60850998  1
  Sn  Sn2  1  0.25211887  0.39608760  0.99994269  1
  Sn  Sn3  1  0.25329607  0.60793570  0.60649265  1
  Sn  Sn4  1  0.25330601  0.00153121  0.39356345  1
  Se  Se0  1  0.50154208  0.00069315  0.00000744  1
loop_
_geom_bond_atom_site_label_1
_geom_bond_atom_site_label_2
_geom_bond_distance
_geom_bond_site_symmetry_2
Zr0 Zr3 2.900397 1_555
Zr0 Zr3 2.954813 1_455
Zr1 Zr2 2.900400 1_555
Zr1 Zr2 2.954810 1_455
Al0 Zr5 2.904713 1_555
Al0 Zr6 2.905296 1_556
Al0 Zr4 2.923601 1_555
Al0 Zr0 2.972360 1_555
Al0 Zr1 2.972536 1_556
Al0 Zr3 2.981206 1_555
Al0 Zr2 2.981416 1_556
Al0 Zr7 3.071576 1_655
Al0 Zr7 3.257920 1_555
Sn0 Zr4 2.964477 1_554
Sn0 Zr6 2.997712 1_545
Sn0 Zr0 3.016039 1_555
Sn0 Zr3 3.023425 1_555
Sn0 Zr1 3.025929 1_555
Sn0 Zr5 3.034362 1_555
Sn0 Zr2 3.038617 1_555
Sn0 Zr8 3.091431 1_655
Sn0 Zr8 3.201648 1_555
Sn1 Zr4 2.963448 1_565
Sn1 Zr5 2.998457 1_555
Sn1 Zr1 3.016683 1_555
Sn1 Zr2 3.024033 1_555
Sn1 Zr0 3.025292 1_565
Sn1 Zr6 3.034443 1_555
Sn1 Zr3 3.037978 1_565
Sn1 Zr9 3.091443 1_665
Sn1 Zr9 3.201602 1_565
Sn2 Zr9 2.973340 1_555
Sn2 Zr8 2.974422 1_556
Sn2 Zr0 2.986140 1_555
Sn2 Zr1 2.986773 1_556
Sn2 Zr7 2.988719 1_555
Sn2 Zr3 2.998283 1_455
Sn2 Zr2 2.998920 1_456
Sn2 Zr4 3.097731 1_455
Sn2 Zr4 3.184412 1_555
Sn3 Zr9 2.952188 1_565
Sn3 Zr7 2.965489 1_555
Sn3 Zr8 3.007422 1_555
Sn3 Zr0 3.019003 1_555
Sn3 Zr1 3.024382 1_555
Sn3 Zr3 3.032171 1_455
Sn3 Zr2 3.049973 1_455
Sn3 Zr5 3.099502 1_455
Sn3 Zr5 3.214938 1_555
Sn4 Zr8 2.951312 1_555
Sn4 Zr7 2.966491 1_544
Sn4 Zr9 3.007338 1_555
Sn4 Zr1 3.019453 1_545
Sn4 Zr0 3.023693 1_555
Sn4 Zr2 3.032641 1_445
Sn4 Zr3 3.049321 1_455
Sn4 Zr6 3.099599 1_445
Sn4 Zr6 3.214942 1_545
Se0 Zr6 2.673657 1_545
Se0 Zr5 2.673734 1_544
Se0 Zr8 2.677604 1_555
Se0 Zr9 2.677675 1_554
Se0 Zr7 2.698197 1_544
Se0 Zr4 2.704908 1_554
