# generated using pymatgen
data_K2CO3
_symmetry_space_group_name_H-M   'P 1'
_cell_length_a   9.74207117
_cell_length_b   5.62452534
_cell_length_c   6.88402284
_cell_angle_alpha   80.63901306
_cell_angle_beta   90.00000000
_cell_angle_gamma   90.00000000
_symmetry_Int_Tables_number   1
_chemical_formula_structural   K2CO3
_chemical_formula_sum   'K8 C4 O12'
_cell_volume   372.18356088
_cell_formula_units_Z   4
loop_
 _symmetry_equiv_pos_site_id
 _symmetry_equiv_pos_as_xyz
  1  'x, y, z'
loop_
 _atom_site_type_symbol
 _atom_site_label
 _atom_site_symmetry_multiplicity
 _atom_site_fract_x
 _atom_site_fract_y
 _atom_site_fract_z
 _atom_site_occupancy
  K  K0  1  0.76743340  0.73792823  0.52992331  1
  K  K1  1  0.26743340  0.26207177  0.97007669  1
  K  K2  1  0.23256660  0.26207177  0.47007669  1
  K  K3  1  0.73256660  0.73792823  0.02992331  1
  K  K4  1  0.58204562  0.24044913  0.29971902  1
  K  K5  1  0.08204562  0.75955087  0.20028098  1
  K  K6  1  0.41795438  0.75955087  0.70028098  1
  K  K7  1  0.91795438  0.24044913  0.79971902  1
  C  C0  1  0.58299779  0.24972968  0.74505832  1
  C  C1  1  0.91700221  0.24972968  0.24505832  1
  C  C2  1  0.41700221  0.75027032  0.25494168  1
  C  C3  1  0.08299779  0.75027032  0.75494168  1
  O  O0  1  0.84457828  0.06461307  0.21695509  1
  O  O1  1  0.34457828  0.93538693  0.28304491  1
  O  O2  1  0.15542172  0.93538693  0.78304491  1
  O  O3  1  0.65542172  0.06461307  0.71695509  1
  O  O4  1  0.86312130  0.41808102  0.32817680  1
  O  O5  1  0.63687870  0.41808102  0.82817680  1
  O  O6  1  0.13687870  0.58191898  0.67182320  1
  O  O7  1  0.36312130  0.58191898  0.17182320  1
  O  O8  1  0.95624788  0.73424280  0.81386642  1
  O  O9  1  0.45624788  0.26575720  0.68613358  1
  O  O10  1  0.04375212  0.26575720  0.18613358  1
  O  O11  1  0.54375212  0.73424280  0.31386642  1
loop_
_geom_bond_atom_site_label_1
_geom_bond_atom_site_label_2
_geom_bond_distance
_geom_bond_site_symmetry_2
K0 O4 2.616672 1_555
K0 O11 2.640303 1_555
K0 O3 2.644679 1_565
K0 O8 2.681705 1_555
K0 O0 2.700928 1_565
K0 O5 2.804997 1_555
K1 O7 2.616672 1_556
K1 O10 2.640303 1_556
K1 O2 2.644679 1_545
K1 O9 2.681705 1_555
K1 O1 2.700928 1_546
K1 O6 2.804997 1_555
K2 O6 2.616672 1_555
K2 O9 2.640303 1_555
K2 O1 2.644679 1_545
K2 O10 2.681705 1_555
K2 O2 2.700928 1_545
K2 O7 2.804997 1_555
K3 O5 2.616672 1_554
K3 O8 2.640303 1_554
K3 O0 2.644679 1_565
K3 O11 2.681705 1_555
K3 O3 2.700928 1_564
K3 O4 2.804997 1_555
K4 O11 2.819637 1_555
K4 O0 2.833268 1_555
K4 O11 2.857417 1_545
K4 O1 2.893656 1_545
K4 O7 2.909045 1_555
K4 O4 2.932287 1_555
K4 O9 2.953206 1_555
K4 O3 2.968990 1_555
K4 O5 3.281117 1_554
K5 O10 2.819637 1_555
K5 O1 2.833268 1_555
K5 O10 2.857417 1_565
K5 O0 2.893656 1_465
K5 O4 2.909045 1_455
K5 O7 2.932287 1_555
K5 O8 2.953206 1_454
K5 O2 2.968990 1_554
K5 O6 3.281117 1_555
K6 O9 2.819637 1_555
K6 O2 2.833268 1_555
K6 O9 2.857417 1_565
K6 O3 2.893656 1_565
K6 O5 2.909045 1_555
K6 O6 2.932287 1_555
K6 O11 2.953206 1_555
K6 O1 2.968990 1_555
K6 O7 3.281117 1_556
K7 O8 2.819637 1_555
K7 O3 2.833268 1_555
K7 O8 2.857417 1_545
K7 O2 2.893656 1_645
K7 O6 2.909045 1_655
K7 O5 2.932287 1_555
K7 O10 2.953206 1_656
K7 O0 2.968990 1_556
K7 O4 3.281117 1_555
C0 O5 1.294527 1_555
C0 O3 1.298019 1_555
C0 O9 1.298276 1_555
C1 O4 1.294527 1_555
C1 O0 1.298019 1_555
C1 O10 1.298276 1_655
C2 O7 1.294527 1_555
C2 O1 1.298019 1_555
C2 O11 1.298276 1_555
C3 O6 1.294527 1_555
C3 O2 1.298019 1_555
C3 O8 1.298276 1_455
