# generated using pymatgen
data_KCuF3
_symmetry_space_group_name_H-M   'P 1'
_cell_length_a   5.75495727
_cell_length_b   5.75495727
_cell_length_c   5.75495727
_cell_angle_alpha   119.83815272
_cell_angle_beta   119.83815272
_cell_angle_gamma   90.28055705
_symmetry_Int_Tables_number   1
_chemical_formula_structural   KCuF3
_chemical_formula_sum   'K2 Cu2 F6'
_cell_volume   135.10356228
_cell_formula_units_Z   2
loop_
 _symmetry_equiv_pos_site_id
 _symmetry_equiv_pos_as_xyz
  1  'x, y, z'
loop_
 _atom_site_type_symbol
 _atom_site_label
 _atom_site_symmetry_multiplicity
 _atom_site_fract_x
 _atom_site_fract_y
 _atom_site_fract_z
 _atom_site_occupancy
  K  K0  1  0.25000000  0.25000000  0.00000000  1
  K  K1  1  0.75000000  0.75000000  0.00000000  1
  Cu  Cu0  1  0.50000000  0.00000000  0.50000000  1
  Cu  Cu1  1  0.00000000  0.50000000  0.50000000  1
  F  F0  1  0.75681400  0.25681400  0.01362800  1
  F  F1  1  0.25681400  0.24318600  0.50000000  1
  F  F2  1  0.74318600  0.75681400  0.50000000  1
  F  F3  1  0.24318600  0.74318600  0.98637200  1
  F  F4  1  0.25000000  0.75000000  0.50000000  1
  F  F5  1  0.75000000  0.25000000  0.50000000  1
loop_
_geom_bond_atom_site_label_1
_geom_bond_atom_site_label_2
_geom_bond_distance
_geom_bond_site_symmetry_2
Cu0 F2 1.984067 1_545
Cu0 F1 1.984067 1_555
Cu0 F5 2.029697 1_555
Cu0 F4 2.029697 1_545
Cu0 F0 2.095253 1_556
Cu0 F3 2.095253 1_544
Cu1 F0 1.984067 1_455
Cu1 F3 1.984067 1_555
Cu1 F5 2.029697 1_455
Cu1 F4 2.029697 1_555
Cu1 F2 2.095253 1_455
Cu1 F1 2.095253 1_555
F0 K1 2.878016 1_545
F0 K0 2.878016 1_555
F0 K0 2.878016 1_655
F0 K1 2.878016 1_555
F1 K0 2.878016 1_555
F1 K0 2.878016 1_556
F1 K1 2.878016 1_445
F1 K1 2.878016 1_556
F2 K0 2.878016 1_555
F2 K1 2.878016 1_555
F2 K0 2.878016 1_666
F2 K1 2.878016 1_556
F3 K1 2.878016 1_456
F3 K0 2.878016 1_556
F3 K0 2.878016 1_566
F3 K1 2.878016 1_556
F4 K0 2.884515 1_555
F4 K0 2.884515 1_566
F4 K1 2.884515 1_556
F4 K1 2.884515 1_455
F5 K0 2.884515 1_555
F5 K0 2.884515 1_656
F5 K1 2.884515 1_545
F5 K1 2.884515 1_556
