# generated using pymatgen
data_Y10Cd3Co
_symmetry_space_group_name_H-M   'P 1'
_cell_length_a   9.67281526
_cell_length_b   9.67281525
_cell_length_c   9.69843849
_cell_angle_alpha   90.00000000
_cell_angle_beta   90.00000000
_cell_angle_gamma   119.99999314
_symmetry_Int_Tables_number   1
_chemical_formula_structural   Y10Cd3Co
_chemical_formula_sum   'Y20 Cd6 Co2'
_cell_volume   785.84747797
_cell_formula_units_Z   2
loop_
 _symmetry_equiv_pos_site_id
 _symmetry_equiv_pos_as_xyz
  1  'x, y, z'
loop_
 _atom_site_type_symbol
 _atom_site_label
 _atom_site_symmetry_multiplicity
 _atom_site_fract_x
 _atom_site_fract_y
 _atom_site_fract_z
 _atom_site_occupancy
  Y  Y0  1  0.00000000  0.00000000  0.50000000  1
  Y  Y1  1  0.00000000  0.00000000  0.00000000  1
  Y  Y2  1  0.54286637  0.45713363  0.25000000  1
  Y  Y3  1  0.54286637  0.08573174  0.25000000  1
  Y  Y4  1  0.91426826  0.45713363  0.25000000  1
  Y  Y5  1  0.45713363  0.54286637  0.75000000  1
  Y  Y6  1  0.45713363  0.91426826  0.75000000  1
  Y  Y7  1  0.08573174  0.54286637  0.75000000  1
  Y  Y8  1  0.21146023  0.78853977  0.43450796  1
  Y  Y9  1  0.21146023  0.42292147  0.43450796  1
  Y  Y10  1  0.57707853  0.78853977  0.43450796  1
  Y  Y11  1  0.78853977  0.21146023  0.56549204  1
  Y  Y12  1  0.78853977  0.57707853  0.56549204  1
  Y  Y13  1  0.42292147  0.21146023  0.56549204  1
  Y  Y14  1  0.78853977  0.21146023  0.93450796  1
  Y  Y15  1  0.78853977  0.57707853  0.93450796  1
  Y  Y16  1  0.42292147  0.21146023  0.93450796  1
  Y  Y17  1  0.21146023  0.78853977  0.06549204  1
  Y  Y18  1  0.21146023  0.42292147  0.06549204  1
  Y  Y19  1  0.57707853  0.78853977  0.06549204  1
  Cd  Cd0  1  0.88460049  0.11539951  0.25000000  1
  Cd  Cd1  1  0.88460049  0.76920099  0.25000000  1
  Cd  Cd2  1  0.23079901  0.11539951  0.25000000  1
  Cd  Cd3  1  0.11539951  0.88460049  0.75000000  1
  Cd  Cd4  1  0.11539951  0.23079901  0.75000000  1
  Cd  Cd5  1  0.76920099  0.88460049  0.75000000  1
  Co  Co0  1  0.33333300  0.66666700  0.25000000  1
  Co  Co1  1  0.66666700  0.33333300  0.75000000  1
loop_
_geom_bond_atom_site_label_1
_geom_bond_atom_site_label_2
_geom_bond_distance
_geom_bond_site_symmetry_2
Cd0 Y1 3.101079 1_655
Cd0 Y0 3.101079 1_655
Cd0 Y4 3.171797 1_555
Cd0 Y3 3.171797 1_555
Cd0 Cd1 3.348714 1_545
Cd0 Cd2 3.348714 1_655
Cd0 Y11 3.457220 1_555
Cd0 Y14 3.457220 1_554
Cd0 Y19 3.555524 1_545
Cd0 Y10 3.555524 1_545
Cd0 Y18 3.555524 1_655
Cd0 Y9 3.555524 1_655
Cd1 Y0 3.101080 1_665
Cd1 Y1 3.101080 1_665
Cd1 Y2 3.171802 1_555
Cd1 Y4 3.171807 1_555
Cd1 Cd2 3.348715 1_665
Cd1 Y12 3.457224 1_555
Cd1 Y15 3.457224 1_554
Cd1 Y17 3.555520 1_655
Cd1 Y8 3.555520 1_655
Cd1 Y19 3.555528 1_555
Cd1 Y10 3.555528 1_555
Cd2 Y0 3.101080 1_555
Cd2 Y1 3.101080 1_555
Cd2 Y2 3.171802 1_555
Cd2 Y3 3.171807 1_555
Cd2 Y13 3.457224 1_555
Cd2 Y16 3.457224 1_554
Cd2 Y17 3.555520 1_545
Cd2 Y8 3.555520 1_545
Cd2 Y18 3.555528 1_555
Cd2 Y9 3.555528 1_555
Cd3 Y0 3.101079 1_565
Cd3 Y1 3.101079 1_566
Cd3 Y7 3.171797 1_555
Cd3 Y6 3.171797 1_555
Cd3 Cd4 3.348714 1_565
Cd3 Cd5 3.348714 1_455
Cd3 Y8 3.457220 1_555
Cd3 Y17 3.457220 1_556
Cd3 Y16 3.555524 1_565
Cd3 Y13 3.555524 1_565
Cd3 Y15 3.555524 1_455
Cd3 Y12 3.555524 1_455
Cd4 Y0 3.101080 1_555
Cd4 Y1 3.101080 1_556
Cd4 Y5 3.171802 1_555
Cd4 Y7 3.171807 1_555
Cd4 Cd5 3.348715 1_445
Cd4 Y9 3.457224 1_555
Cd4 Y18 3.457224 1_556
Cd4 Y14 3.555520 1_455
Cd4 Y11 3.555520 1_455
Cd4 Y16 3.555528 1_555
Cd4 Y13 3.555528 1_555
Cd5 Y0 3.101080 1_665
Cd5 Y1 3.101080 1_666
Cd5 Y5 3.171802 1_555
Cd5 Y6 3.171807 1_555
Cd5 Y10 3.457224 1_555
Cd5 Y19 3.457224 1_556
Cd5 Y14 3.555520 1_565
Cd5 Y11 3.555520 1_565
Cd5 Y15 3.555528 1_555
Cd5 Y12 3.555528 1_555
Co0 Y17 2.714991 1_555
Co0 Y8 2.714991 1_555
Co0 Y18 2.714991 1_555
Co0 Y9 2.714991 1_555
Co0 Y19 2.714991 1_555
Co0 Y10 2.714991 1_555
Co1 Y14 2.714991 1_555
Co1 Y11 2.714991 1_555
Co1 Y15 2.714991 1_555
Co1 Y12 2.714991 1_555
Co1 Y16 2.714991 1_555
Co1 Y13 2.714991 1_555
