# generated using pymatgen
data_Cs2Li3AlO4
_symmetry_space_group_name_H-M   'P 1'
_cell_length_a   8.10871180
_cell_length_b   8.10871268
_cell_length_c   8.10871231
_cell_angle_alpha   144.27605361
_cell_angle_beta   105.11585587
_cell_angle_gamma   85.83602016
_symmetry_Int_Tables_number   1
_chemical_formula_structural   Cs2Li3AlO4
_chemical_formula_sum   'Cs4 Li6 Al2 O8'
_cell_volume   291.23614832
_cell_formula_units_Z   2
loop_
 _symmetry_equiv_pos_site_id
 _symmetry_equiv_pos_as_xyz
  1  'x, y, z'
loop_
 _atom_site_type_symbol
 _atom_site_label
 _atom_site_symmetry_multiplicity
 _atom_site_fract_x
 _atom_site_fract_y
 _atom_site_fract_z
 _atom_site_occupancy
  Cs  Cs0  1  0.37254658  0.23881000  0.61135758  1
  Cs  Cs1  1  0.62745342  0.76119000  0.38864242  1
  Cs  Cs2  1  0.87254658  0.26119000  0.13373658  1
  Cs  Cs3  1  0.12745342  0.73881000  0.86626342  1
  Li  Li0  1  0.49018776  0.75000000  0.74018776  1
  Li  Li1  1  0.99018776  0.25000000  0.74018776  1
  Li  Li2  1  0.00981224  0.75000000  0.25981224  1
  Li  Li3  1  0.25000000  0.75000000  0.50000000  1
  Li  Li4  1  0.50981224  0.25000000  0.25981224  1
  Li  Li5  1  0.75000000  0.25000000  0.50000000  1
  Al  Al0  1  0.75000000  0.75000000  0.00000000  1
  Al  Al1  1  0.25000000  0.25000000  0.00000000  1
  O  O0  1  0.06545119  0.95557101  0.66320301  1
  O  O1  1  0.20763200  0.54442899  0.10988018  1
  O  O2  1  0.79236800  0.45557101  0.89011982  1
  O  O3  1  0.56545119  0.90224719  0.10988018  1
  O  O4  1  0.93454881  0.04442899  0.33679699  1
  O  O5  1  0.70763200  0.59775281  0.66320301  1
  O  O6  1  0.43454881  0.09775281  0.89011982  1
  O  O7  1  0.29236800  0.40224719  0.33679699  1
loop_
_geom_bond_atom_site_label_1
_geom_bond_atom_site_label_2
_geom_bond_distance
_geom_bond_site_symmetry_2
Cs0 O6 3.192514 1_555
Cs0 O2 3.192529 1_555
Cs0 O1 3.216029 1_556
Cs0 O3 3.216032 1_556
Cs0 O4 3.323579 1_455
Cs0 O7 3.323580 1_555
Cs0 O1 3.332943 1_545
Cs0 O3 3.332948 1_545
Cs1 O3 3.192514 1_555
Cs1 O1 3.192529 1_555
Cs1 O2 3.216029 1_554
Cs1 O6 3.216032 1_554
Cs1 O0 3.323579 1_655
Cs1 O5 3.323580 1_555
Cs1 O2 3.332943 1_565
Cs1 O6 3.332948 1_565
Cs2 O7 3.192529 1_655
Cs2 O4 3.192529 1_555
Cs2 O5 3.216029 1_544
Cs2 O0 3.216035 1_644
Cs2 O6 3.323579 1_554
Cs2 O2 3.323579 1_554
Cs2 O5 3.332942 1_555
Cs2 O0 3.332945 1_655
Cs3 O5 3.192529 1_455
Cs3 O0 3.192529 1_555
Cs3 O7 3.216029 1_566
Cs3 O4 3.216035 1_466
Cs3 O3 3.323579 1_556
Cs3 O1 3.323579 1_556
Cs3 O7 3.332942 1_555
Cs3 O4 3.332945 1_455
Li0 O5 2.007297 1_555
Li0 O3 2.007304 1_556
Li0 O7 2.041566 1_555
Li0 O6 2.041573 1_565
Li1 O1 2.007300 1_656
Li1 O0 2.007300 1_645
Li1 O4 2.041565 1_555
Li1 O2 2.041565 1_555
Li2 O2 2.007300 1_454
Li2 O4 2.007300 1_465
Li2 O0 2.041565 1_555
Li2 O1 2.041565 1_555
Li3 O1 1.964212 1_555
Li3 O0 1.964212 1_555
Li3 O6 1.964214 1_565
Li3 O7 1.964219 1_555
Li4 O7 2.007297 1_555
Li4 O6 2.007304 1_554
Li4 O5 2.041566 1_555
Li4 O3 2.041573 1_545
Li5 O2 1.964212 1_555
Li5 O4 1.964212 1_555
Li5 O3 1.964214 1_545
Li5 O5 1.964219 1_555
Al0 O3 1.788414 1_555
Al0 O4 1.788416 1_565
Al0 O2 1.788416 1_554
Al0 O5 1.788420 1_554
Al1 O6 1.788414 1_554
Al1 O0 1.788416 1_544
Al1 O1 1.788416 1_555
Al1 O7 1.788420 1_555
