# generated using pymatgen
data_RbNa3(In3Te5)4
_symmetry_space_group_name_H-M   'P 1'
_cell_length_a   10.98705970
_cell_length_b   10.98705903
_cell_length_c   10.98706035
_cell_angle_alpha   89.58240075
_cell_angle_beta   89.58239658
_cell_angle_gamma   89.58239846
_symmetry_Int_Tables_number   1
_chemical_formula_structural   RbNa3(In3Te5)4
_chemical_formula_sum   'Rb1 Na3 In12 Te20'
_cell_volume   1326.20301845
_cell_formula_units_Z   1
loop_
 _symmetry_equiv_pos_site_id
 _symmetry_equiv_pos_as_xyz
  1  'x, y, z'
loop_
 _atom_site_type_symbol
 _atom_site_label
 _atom_site_symmetry_multiplicity
 _atom_site_fract_x
 _atom_site_fract_y
 _atom_site_fract_z
 _atom_site_occupancy
  Rb  Rb0  1  0.50000000  0.50000000  0.50000000  1
  Na  Na0  1  0.25412258  0.00000000  0.74587742  1
  Na  Na1  1  0.74587742  0.25412258  0.00000000  1
  Na  Na2  1  1.00000000  0.74587742  0.25412258  1
  In  In0  1  0.84386239  0.87519145  0.57204930  1
  In  In1  1  0.57204930  0.84386239  0.87519145  1
  In  In2  1  0.87519145  0.57204930  0.84386239  1
  In  In3  1  0.15613761  0.42795070  0.12480855  1
  In  In4  1  0.12480855  0.15613761  0.42795070  1
  In  In5  1  0.42795070  0.12480855  0.15613761  1
  In  In6  1  0.75069176  0.16659995  0.33824831  1
  In  In7  1  0.33824831  0.75069176  0.16659995  1
  In  In8  1  0.16659995  0.33824831  0.75069176  1
  In  In9  1  0.24930824  0.66175169  0.83340005  1
  In  In10  1  0.83340005  0.24930824  0.66175169  1
  In  In11  1  0.66175169  0.83340005  0.24930824  1
  Te  Te0  1  0.16600438  0.83399562  1.00000000  1
  Te  Te1  1  0.83399562  1.00000000  0.16600438  1
  Te  Te2  1  0.17127680  0.17127680  0.17127680  1
  Te  Te3  1  0.82872320  0.82872320  0.82872320  1
  Te  Te4  1  0.00000000  0.16600438  0.83399562  1
  Te  Te5  1  0.91460305  0.50000000  0.08539695  1
  Te  Te6  1  0.08539695  0.91460305  0.50000000  1
  Te  Te7  1  0.50000000  0.08539695  0.91460305  1
  Te  Te8  1  0.76678881  0.68384507  0.42566442  1
  Te  Te9  1  0.42566442  0.76678881  0.68384507  1
  Te  Te10  1  0.68384507  0.42566442  0.76678881  1
  Te  Te11  1  0.23321119  0.57433558  0.31615493  1
  Te  Te12  1  0.31615493  0.23321119  0.57433558  1
  Te  Te13  1  0.57433558  0.31615493  0.23321119  1
  Te  Te14  1  0.67186712  0.06949529  0.56852043  1
  Te  Te15  1  0.56852043  0.67186712  0.06949529  1
  Te  Te16  1  0.06949529  0.56852043  0.67186712  1
  Te  Te17  1  0.32813288  0.43147957  0.93050471  1
  Te  Te18  1  0.93050471  0.32813288  0.43147957  1
  Te  Te19  1  0.43147957  0.93050471  0.32813288  1
loop_
_geom_bond_atom_site_label_1
_geom_bond_atom_site_label_2
_geom_bond_distance
_geom_bond_site_symmetry_2
Rb0 Te9 3.656029 1_555
Rb0 Te12 3.656029 1_555
Rb0 Te8 3.656029 1_555
Rb0 Te13 3.656029 1_555
Rb0 Te11 3.656029 1_555
Rb0 Te10 3.656030 1_555
Na0 Te9 3.243224 1_545
Na0 Te12 3.243225 1_555
Na0 Te7 3.427849 1_555
Na0 Te6 3.427849 1_545
Na0 Te4 3.460007 1_555
Na0 Te0 3.460007 1_545
Na1 Te13 3.243225 1_555
Na1 Te10 3.243225 1_554
Na1 Te5 3.427849 1_555
Na1 Te7 3.427849 1_554
Na1 Te4 3.460007 1_654
Na1 Te1 3.460007 1_545
Na2 Te11 3.243225 1_655
Na2 Te8 3.243225 1_555
Na2 Te5 3.427849 1_555
Na2 Te6 3.427849 1_655
Na2 Te1 3.460007 1_555
Na2 Te0 3.460007 1_654
In0 Te8 2.796202 1_555
In0 Te6 2.799589 1_655
In0 Te14 2.840968 1_565
In0 Te3 2.866122 1_555
In1 Te9 2.796202 1_555
In1 Te7 2.799588 1_565
In1 Te15 2.840968 1_556
In1 Te3 2.866122 1_555
In2 Te10 2.796202 1_555
In2 Te5 2.799589 1_556
In2 Te16 2.840968 1_655
In2 Te3 2.866122 1_555
In3 Te11 2.796202 1_555
In3 Te5 2.799589 1_455
In3 Te17 2.840968 1_554
In3 Te2 2.866122 1_555
In4 Te12 2.796202 1_555
In4 Te6 2.799588 1_545
In4 Te18 2.840968 1_455
In4 Te2 2.866122 1_555
In5 Te13 2.796202 1_555
In5 Te7 2.799589 1_554
In5 Te19 2.840968 1_545
In5 Te2 2.866122 1_555
In6 Te13 2.782950 1_555
In6 Te1 2.787551 1_545
In6 Te18 2.865179 1_555
In6 Te14 2.869052 1_555
In7 Te11 2.782950 1_555
In7 Te0 2.787551 1_554
In7 Te19 2.865179 1_555
In7 Te15 2.869052 1_555
In8 Te12 2.782950 1_555
In8 Te4 2.787551 1_555
In8 Te17 2.865179 1_555
In8 Te16 2.869052 1_555
In9 Te9 2.782950 1_555
In9 Te0 2.787551 1_555
In9 Te16 2.865179 1_555
In9 Te17 2.869052 1_555
In10 Te10 2.782950 1_555
In10 Te4 2.787551 1_655
In10 Te14 2.865179 1_555
In10 Te18 2.869052 1_555
In11 Te8 2.782950 1_555
In11 Te1 2.787551 1_555
In11 Te15 2.865179 1_555
In11 Te19 2.869052 1_555
