# generated using pymatgen
data_YCdIr2O7
_symmetry_space_group_name_H-M   'P 1'
_cell_length_a   7.18990633
_cell_length_b   7.18990649
_cell_length_c   7.29042988
_cell_angle_alpha   59.53642292
_cell_angle_beta   59.53642217
_cell_angle_gamma   59.35764924
_symmetry_Int_Tables_number   1
_chemical_formula_structural   YCdIr2O7
_chemical_formula_sum   'Y2 Cd2 Ir4 O14'
_cell_volume   263.31929562
_cell_formula_units_Z   2
loop_
 _symmetry_equiv_pos_site_id
 _symmetry_equiv_pos_as_xyz
  1  'x, y, z'
loop_
 _atom_site_type_symbol
 _atom_site_label
 _atom_site_symmetry_multiplicity
 _atom_site_fract_x
 _atom_site_fract_y
 _atom_site_fract_z
 _atom_site_occupancy
  Y  Y0  1  0.12500000  0.12500000  0.62500000  1
  Y  Y1  1  0.12500000  0.12500000  0.12500000  1
  Cd  Cd0  1  0.62500000  0.12500000  0.12500000  1
  Cd  Cd1  1  0.12500000  0.62500000  0.12500000  1
  Ir  Ir0  1  0.12500000  0.62500000  0.62500000  1
  Ir  Ir1  1  0.62500000  0.12500000  0.62500000  1
  Ir  Ir2  1  0.62500000  0.62500000  0.12500000  1
  Ir  Ir3  1  0.62500000  0.62500000  0.62500000  1
  O  O0  1  0.70055396  0.70055396  0.29944604  1
  O  O1  1  0.28926415  0.28926415  0.71073585  1
  O  O2  1  0.71163035  0.29419628  0.69690948  1
  O  O3  1  0.29419628  0.71163035  0.29726389  1
  O  O4  1  0.29419628  0.71163035  0.69690948  1
  O  O5  1  0.71163035  0.29419628  0.29726389  1
  O  O6  1  0.54944604  0.54944604  0.95055396  1
  O  O7  1  0.96073585  0.96073585  0.53926415  1
  O  O8  1  0.53836965  0.95580372  0.55309052  1
  O  O9  1  0.95580372  0.53836965  0.95273611  1
  O  O10  1  0.95580372  0.53836965  0.55309052  1
  O  O11  1  0.53836965  0.95580372  0.95273611  1
  O  O12  1  0.24942011  0.24942011  0.25057989  1
  O  O13  1  0.00057989  0.00057989  0.99942011  1
loop_
_geom_bond_atom_site_label_1
_geom_bond_atom_site_label_2
_geom_bond_distance
_geom_bond_site_symmetry_2
Cd0 O13 2.188994 1_654
Cd0 O12 2.188994 1_555
Cd0 O6 2.510145 1_554
Cd0 O0 2.510145 1_545
Cd0 O5 2.561206 1_555
Cd0 O11 2.561206 1_544
Cd0 O8 2.561206 1_545
Cd0 O2 2.561206 1_554
Cd1 O13 2.188994 1_564
Cd1 O12 2.188994 1_555
Cd1 O6 2.510145 1_554
Cd1 O0 2.510145 1_455
Cd1 O3 2.561206 1_555
Cd1 O9 2.561206 1_454
Cd1 O10 2.561206 1_455
Cd1 O4 2.561206 1_554
Ir0 O4 1.973028 1_555
Ir0 O10 1.973028 1_455
Ir0 O3 1.973028 1_555
Ir0 O9 1.973028 1_455
Ir0 O7 1.981167 1_455
Ir0 O1 1.981167 1_555
Ir1 O2 1.973028 1_555
Ir1 O8 1.973028 1_545
Ir1 O11 1.973028 1_545
Ir1 O5 1.973028 1_555
Ir1 O7 1.981167 1_545
Ir1 O1 1.981167 1_555
Ir2 O9 1.968872 1_554
Ir2 O3 1.968872 1_555
Ir2 O11 1.968872 1_554
Ir2 O5 1.968872 1_555
Ir2 O0 1.977243 1_555
Ir2 O6 1.977243 1_554
Ir3 O10 1.968872 1_555
Ir3 O4 1.968872 1_555
Ir3 O8 1.968872 1_555
Ir3 O2 1.968872 1_555
Ir3 O6 1.977243 1_555
Ir3 O0 1.977243 1_555
O1 Y0 2.469686 1_555
O1 Y1 2.469686 1_556
O2 Y0 2.443207 1_655
O3 Y1 2.443207 1_565
O4 Y0 2.443207 1_565
O5 Y1 2.443207 1_655
O7 Y0 2.469686 1_665
O7 Y1 2.469686 1_665
O8 Y0 2.443207 1_565
O9 Y1 2.443207 1_656
O10 Y0 2.443207 1_655
O11 Y1 2.443207 1_566
O12 Y1 2.217061 1_555
O12 Y0 2.217061 1_555
O13 Y1 2.217061 1_556
O13 Y0 2.217061 1_555
