# generated using pymatgen
data_CsRb2SbSe4
_symmetry_space_group_name_H-M   'P 1'
_cell_length_a   10.20982496
_cell_length_b   10.45683568
_cell_length_c   11.50925119
_cell_angle_alpha   90.00000000
_cell_angle_beta   90.00000000
_cell_angle_gamma   90.00000000
_symmetry_Int_Tables_number   1
_chemical_formula_structural   CsRb2SbSe4
_chemical_formula_sum   'Cs4 Rb8 Sb4 Se16'
_cell_volume   1228.75599264
_cell_formula_units_Z   4
loop_
 _symmetry_equiv_pos_site_id
 _symmetry_equiv_pos_as_xyz
  1  'x, y, z'
loop_
 _atom_site_type_symbol
 _atom_site_label
 _atom_site_symmetry_multiplicity
 _atom_site_fract_x
 _atom_site_fract_y
 _atom_site_fract_z
 _atom_site_occupancy
  Cs  Cs0  1  0.14508532  0.91140512  0.75000000  1
  Cs  Cs1  1  0.64508532  0.58859488  0.75000000  1
  Cs  Cs2  1  0.35491468  0.41140512  0.25000000  1
  Cs  Cs3  1  0.85491468  0.08859488  0.25000000  1
  Rb  Rb0  1  0.94031721  0.29979849  0.95354414  1
  Rb  Rb1  1  0.44031721  0.20020151  0.95354414  1
  Rb  Rb2  1  0.55968279  0.79979849  0.45354414  1
  Rb  Rb3  1  0.05968279  0.70020151  0.04645586  1
  Rb  Rb4  1  0.05968279  0.70020151  0.45354414  1
  Rb  Rb5  1  0.44031721  0.20020151  0.54645586  1
  Rb  Rb6  1  0.55968279  0.79979849  0.04645586  1
  Rb  Rb7  1  0.94031721  0.29979849  0.54645586  1
  Sb  Sb0  1  0.77754785  0.52133924  0.25000000  1
  Sb  Sb1  1  0.27754785  0.97866076  0.25000000  1
  Sb  Sb2  1  0.72245215  0.02133924  0.75000000  1
  Sb  Sb3  1  0.22245215  0.47866076  0.75000000  1
  Se  Se0  1  0.65642310  0.46284216  0.07083992  1
  Se  Se1  1  0.15642310  0.03715784  0.42916008  1
  Se  Se2  1  0.84357690  0.96284216  0.92916008  1
  Se  Se3  1  0.34357690  0.53715784  0.57083992  1
  Se  Se4  1  0.34357690  0.53715784  0.92916008  1
  Se  Se5  1  0.84357690  0.96284216  0.57083992  1
  Se  Se6  1  0.15642310  0.03715784  0.07083992  1
  Se  Se7  1  0.65642310  0.46284216  0.42916008  1
  Se  Se8  1  0.00212284  0.58229743  0.75000000  1
  Se  Se9  1  0.50212284  0.91770257  0.75000000  1
  Se  Se10  1  0.49787716  0.08229743  0.25000000  1
  Se  Se11  1  0.99787716  0.41770257  0.25000000  1
  Se  Se12  1  0.18858815  0.24359110  0.75000000  1
  Se  Se13  1  0.81141185  0.75640890  0.25000000  1
  Se  Se14  1  0.31141185  0.74359110  0.25000000  1
  Se  Se15  1  0.68858815  0.25640890  0.75000000  1
loop_
_geom_bond_atom_site_label_1
_geom_bond_atom_site_label_2
_geom_bond_distance
_geom_bond_site_symmetry_2
Cs0 Se12 3.501895 1_565
Cs0 Se9 3.645885 1_555
Cs0 Se8 3.738168 1_555
Cs0 Se2 3.743978 1_455
Cs0 Se5 3.743978 1_455
Cs0 Se6 3.921486 1_566
Cs0 Se1 3.921486 1_565
Cs1 Se15 3.501895 1_555
Cs1 Se8 3.645885 1_655
Cs1 Se9 3.738168 1_555
Cs1 Se4 3.743978 1_555
Cs1 Se3 3.743978 1_555
Cs1 Se0 3.921486 1_556
Cs1 Se7 3.921486 1_555
Cs2 Se14 3.501895 1_555
Cs2 Se11 3.645885 1_455
Cs2 Se10 3.738168 1_555
Cs2 Se7 3.743978 1_555
Cs2 Se0 3.743978 1_555
Cs2 Se3 3.921486 1_555
Cs2 Se4 3.921486 1_554
Cs3 Se13 3.501895 1_545
Cs3 Se10 3.645885 1_555
Cs3 Se11 3.738168 1_555
Cs3 Se1 3.743978 1_655
Cs3 Se6 3.743978 1_655
Cs3 Se5 3.921486 1_545
Cs3 Se2 3.921486 1_544
Rb0 Se12 3.501234 1_655
Rb0 Se15 3.507034 1_555
Rb0 Se0 3.623613 1_556
Rb0 Se2 3.670061 1_545
Rb0 Se11 3.675195 1_556
Rb0 Se6 3.772710 1_656
Rb0 Se8 3.822635 1_655
Rb1 Se15 3.501234 1_555
Rb1 Se12 3.507034 1_555
Rb1 Se6 3.623613 1_556
Rb1 Se4 3.670061 1_555
Rb1 Se10 3.675195 1_556
Rb1 Se0 3.772710 1_556
Rb1 Se9 3.822635 1_545
Rb2 Se14 3.501234 1_555
Rb2 Se13 3.507034 1_555
Rb2 Se5 3.623613 1_555
Rb2 Se7 3.670061 1_555
Rb2 Se9 3.675195 1_555
Rb2 Se3 3.772710 1_555
Rb2 Se10 3.822635 1_565
Rb3 Se13 3.501234 1_455
Rb3 Se14 3.507034 1_555
Rb3 Se4 3.623613 1_554
Rb3 Se6 3.670061 1_565
Rb3 Se8 3.675195 1_554
Rb3 Se2 3.772710 1_454
Rb3 Se11 3.822635 1_455
Rb4 Se13 3.501234 1_455
Rb4 Se14 3.507034 1_555
Rb4 Se3 3.623613 1_555
Rb4 Se1 3.670061 1_565
Rb4 Se8 3.675195 1_555
Rb4 Se5 3.772710 1_455
Rb4 Se11 3.822635 1_455
Rb5 Se15 3.501234 1_555
Rb5 Se12 3.507034 1_555
Rb5 Se1 3.623613 1_555
Rb5 Se3 3.670061 1_555
Rb5 Se10 3.675195 1_555
Rb5 Se7 3.772710 1_555
Rb5 Se9 3.822635 1_545
Rb6 Se14 3.501234 1_555
Rb6 Se13 3.507034 1_555
Rb6 Se2 3.623613 1_554
Rb6 Se0 3.670061 1_555
Rb6 Se9 3.675195 1_554
Rb6 Se4 3.772710 1_554
Rb6 Se10 3.822635 1_565
Rb7 Se12 3.501234 1_655
Rb7 Se15 3.507034 1_555
Rb7 Se7 3.623613 1_555
Rb7 Se5 3.670061 1_545
Rb7 Se11 3.675195 1_555
Rb7 Se1 3.772710 1_655
Rb7 Se8 3.822635 1_655
Sb0 Se7 2.480996 1_555
Sb0 Se0 2.480996 1_555
Sb0 Se13 2.482281 1_555
Sb0 Se11 2.496956 1_555
Sb1 Se1 2.480996 1_565
Sb1 Se6 2.480996 1_565
Sb1 Se14 2.482281 1_555
Sb1 Se10 2.496956 1_565
Sb2 Se2 2.480996 1_545
Sb2 Se5 2.480996 1_545
Sb2 Se15 2.482281 1_555
Sb2 Se9 2.496956 1_545
Sb3 Se4 2.480996 1_555
Sb3 Se3 2.480996 1_555
Sb3 Se12 2.482281 1_555
Sb3 Se8 2.496956 1_555
