# generated using pymatgen
data_Sc3(MnGa3)2
_symmetry_space_group_name_H-M   'P 1'
_cell_length_a   8.09309000
_cell_length_b   8.55235500
_cell_length_c   10.60663800
_cell_angle_alpha   90.00000000
_cell_angle_beta   90.00000000
_cell_angle_gamma   90.00000000
_symmetry_Int_Tables_number   1
_chemical_formula_structural   Sc3(MnGa3)2
_chemical_formula_sum   'Sc12 Mn8 Ga24'
_cell_volume   734.13822353
_cell_formula_units_Z   4
loop_
 _symmetry_equiv_pos_site_id
 _symmetry_equiv_pos_as_xyz
  1  'x, y, z'
loop_
 _atom_site_type_symbol
 _atom_site_label
 _atom_site_symmetry_multiplicity
 _atom_site_fract_x
 _atom_site_fract_y
 _atom_site_fract_z
 _atom_site_occupancy
  Sc  Sc0  1  0.56297000  0.94520900  0.13871000  1
  Sc  Sc1  1  0.06297000  0.55479100  0.36129000  1
  Sc  Sc2  1  0.43703000  0.44520900  0.86129000  1
  Sc  Sc3  1  0.93703000  0.05479100  0.63871000  1
  Sc  Sc4  1  0.43703000  0.05479100  0.86129000  1
  Sc  Sc5  1  0.93703000  0.44520900  0.63871000  1
  Sc  Sc6  1  0.56297000  0.55479100  0.13871000  1
  Sc  Sc7  1  0.06297000  0.94520900  0.36129000  1
  Sc  Sc8  1  0.95779200  0.75000000  0.06302800  1
  Sc  Sc9  1  0.45779200  0.75000000  0.43697200  1
  Sc  Sc10  1  0.04220800  0.25000000  0.93697200  1
  Sc  Sc11  1  0.54220800  0.25000000  0.56302800  1
  Mn  Mn0  1  0.36245900  0.75000000  0.73427500  1
  Mn  Mn1  1  0.86245900  0.75000000  0.76572500  1
  Mn  Mn2  1  0.63754100  0.25000000  0.26572500  1
  Mn  Mn3  1  0.13754100  0.25000000  0.23427500  1
  Mn  Mn4  1  0.31026400  0.75000000  0.98299400  1
  Mn  Mn5  1  0.81026400  0.75000000  0.51700600  1
  Mn  Mn6  1  0.68973600  0.25000000  0.01700600  1
  Mn  Mn7  1  0.18973600  0.25000000  0.48299400  1
  Ga  Ga0  1  0.70493300  0.49480200  0.41334300  1
  Ga  Ga1  1  0.20493300  0.00519800  0.08665700  1
  Ga  Ga2  1  0.29506700  0.99480200  0.58665700  1
  Ga  Ga3  1  0.79506700  0.50519800  0.91334300  1
  Ga  Ga4  1  0.20493300  0.49480200  0.08665700  1
  Ga  Ga5  1  0.70493300  0.00519800  0.41334300  1
  Ga  Ga6  1  0.79506700  0.99480200  0.91334300  1
  Ga  Ga7  1  0.29506700  0.50519800  0.58665700  1
  Ga  Ga8  1  0.88213400  0.41657600  0.15457800  1
  Ga  Ga9  1  0.38213400  0.08342400  0.34542200  1
  Ga  Ga10  1  0.11786600  0.91657600  0.84542200  1
  Ga  Ga11  1  0.61786600  0.58342400  0.65457800  1
  Ga  Ga12  1  0.11786600  0.58342400  0.84542200  1
  Ga  Ga13  1  0.61786600  0.91657600  0.65457800  1
  Ga  Ga14  1  0.88213400  0.08342400  0.15457800  1
  Ga  Ga15  1  0.38213400  0.41657600  0.34542200  1
  Ga  Ga16  1  0.09497400  0.75000000  0.58606300  1
  Ga  Ga17  1  0.59497400  0.75000000  0.91393700  1
  Ga  Ga18  1  0.90502600  0.25000000  0.41393700  1
  Ga  Ga19  1  0.40502600  0.25000000  0.08606300  1
  Ga  Ga20  1  0.77826100  0.75000000  0.28141800  1
  Ga  Ga21  1  0.27826100  0.75000000  0.21858200  1
  Ga  Ga22  1  0.22173900  0.25000000  0.71858200  1
  Ga  Ga23  1  0.72173900  0.25000000  0.78141800  1
loop_
_geom_bond_atom_site_label_1
_geom_bond_atom_site_label_2
_geom_bond_distance
_geom_bond_site_symmetry_2
Mn0 Mn4 2.671678 1_555
Mn0 Sc4 2.995657 1_565
Mn0 Sc2 2.995657 1_555
Mn0 Sc9 3.246400 1_555
Mn1 Mn5 2.671678 1_555
Mn1 Sc5 2.995657 1_555
Mn1 Sc3 2.995657 1_565
Mn1 Sc8 3.246400 1_556
Mn2 Mn6 2.671678 1_555
Mn2 Sc0 2.995657 1_545
Mn2 Sc6 2.995657 1_555
Mn2 Sc11 3.246400 1_555
Mn3 Mn7 2.671678 1_555
Mn3 Sc7 2.995657 1_545
Mn3 Sc1 2.995657 1_555
Mn3 Sc10 3.246400 1_554
Mn4 Sc8 2.976218 1_456
Mn4 Sc2 3.084422 1_555
Mn4 Sc4 3.084422 1_565
Mn4 Sc0 3.114130 1_556
Mn4 Sc6 3.114130 1_556
Mn5 Sc9 2.976218 1_555
Mn5 Sc5 3.084422 1_555
Mn5 Sc3 3.084422 1_565
Mn5 Sc1 3.114130 1_655
Mn5 Sc7 3.114130 1_655
Mn6 Sc10 2.976218 1_654
Mn6 Sc0 3.084422 1_545
Mn6 Sc6 3.084422 1_555
Mn6 Sc2 3.114130 1_554
Mn6 Sc4 3.114130 1_554
Mn7 Sc11 2.976218 1_555
Mn7 Sc7 3.084422 1_545
Mn7 Sc1 3.084422 1_555
Mn7 Sc3 3.114130 1_455
Mn7 Sc5 3.114130 1_455
Ga0 Mn5 2.588264 1_555
Ga0 Ga18 2.646829 1_555
Ga0 Ga20 2.659637 1_555
Ga0 Mn2 2.670634 1_555
Ga0 Ga11 2.760050 1_555
Ga0 Ga15 2.791313 1_555
Ga0 Sc11 2.939099 1_555
Ga0 Sc9 2.971001 1_555
Ga0 Sc1 2.994040 1_655
Ga0 Sc5 3.069553 1_555
Ga0 Sc6 3.173076 1_555
Ga1 Mn4 2.588264 1_544
Ga1 Ga19 2.646829 1_555
Ga1 Ga21 2.659637 1_545
Ga1 Mn3 2.670634 1_555
Ga1 Ga10 2.760050 1_544
Ga1 Ga14 2.791313 1_455
Ga1 Sc10 2.939099 1_554
Ga1 Sc8 2.971001 1_445
Ga1 Sc0 2.994040 1_545
Ga1 Sc4 3.069553 1_554
Ga1 Sc7 3.173076 1_545
Ga2 Mn7 2.588264 1_565
Ga2 Ga22 2.659637 1_565
Ga2 Mn0 2.670634 1_555
Ga2 Ga9 2.760050 1_565
Ga2 Sc9 2.939099 1_555
Ga2 Sc11 2.971001 1_565
Ga2 Sc3 2.994040 1_465
Ga2 Sc7 3.069553 1_555
Ga2 Sc4 3.173076 1_565
Ga3 Mn6 2.588264 1_556
Ga3 Mn1 2.670634 1_555
Ga3 Ga8 2.760050 1_556
Ga3 Sc8 2.939099 1_556
Ga3 Sc10 2.971001 1_655
Ga3 Sc2 2.994040 1_555
Ga3 Sc6 3.069553 1_556
Ga3 Sc5 3.173076 1_555
Ga4 Mn4 2.588264 1_554
Ga4 Mn3 2.670634 1_555
Ga4 Ga8 2.791313 1_455
Ga4 Sc10 2.939099 1_554
Ga4 Sc8 2.971001 1_455
Ga4 Sc6 2.994040 1_555
Ga4 Sc2 3.069553 1_554
Ga4 Sc1 3.173076 1_555
Ga5 Mn5 2.588264 1_545
Ga5 Mn2 2.670634 1_555
Ga5 Ga9 2.791313 1_555
Ga5 Sc11 2.939099 1_555
Ga5 Sc9 2.971001 1_545
Ga5 Sc7 2.994040 1_645
Ga5 Sc3 3.069553 1_555
Ga5 Sc0 3.173076 1_545
Ga6 Mn6 2.588264 1_566
Ga6 Mn1 2.670634 1_555
Ga6 Sc8 2.939099 1_556
Ga6 Sc10 2.971001 1_665
Ga6 Sc4 2.994040 1_565
Ga6 Sc0 3.069553 1_556
Ga6 Sc3 3.173076 1_565
Ga7 Mn7 2.588264 1_555
Ga7 Mn0 2.670634 1_555
Ga7 Sc9 2.939099 1_555
Ga7 Sc11 2.971001 1_555
Ga7 Sc5 2.994040 1_455
Ga7 Sc1 3.069553 1_555
Ga7 Sc2 3.173076 1_555
Ga8 Mn6 2.565789 1_555
Ga8 Mn3 2.648908 1_655
Ga8 Mn2 2.708838 1_555
Ga8 Sc6 2.845630 1_555
Ga8 Sc1 2.888999 1_655
Ga8 Sc10 3.005830 1_654
Ga8 Sc8 3.073960 1_555
Ga9 Mn7 2.565789 1_555
Ga9 Mn2 2.648908 1_555
Ga9 Mn3 2.708838 1_555
Ga9 Sc7 2.845630 1_545
Ga9 Sc0 2.888999 1_545
Ga9 Sc11 3.005830 1_555
Ga9 Sc9 3.073960 1_545
Ga10 Mn4 2.565789 1_555
Ga10 Mn1 2.648908 1_455
Ga10 Mn0 2.708838 1_555
Ga10 Ga6 2.791313 1_455
Ga10 Sc4 2.845630 1_565
Ga10 Ga12 2.849234 1_555
Ga10 Sc3 2.888999 1_465
Ga10 Sc8 3.005830 1_456
Ga10 Sc10 3.073960 1_565
Ga11 Mn5 2.565789 1_555
Ga11 Mn0 2.648908 1_555
Ga11 Mn1 2.708838 1_555
Ga11 Ga7 2.791313 1_555
Ga11 Sc5 2.845630 1_555
Ga11 Ga13 2.849234 1_555
Ga11 Sc2 2.888999 1_555
Ga11 Sc9 3.005830 1_555
Ga11 Sc11 3.073960 1_555
Ga12 Mn4 2.565789 1_555
Ga12 Mn1 2.648908 1_455
Ga12 Mn0 2.708838 1_555
Ga12 Ga4 2.760050 1_556
Ga12 Ga3 2.791313 1_455
Ga12 Sc2 2.845630 1_555
Ga12 Sc5 2.888999 1_455
Ga12 Sc8 3.005830 1_456
Ga12 Sc10 3.073960 1_555
Ga13 Mn5 2.565789 1_555
Ga13 Mn0 2.648908 1_555
Ga13 Mn1 2.708838 1_555
Ga13 Ga5 2.760050 1_565
Ga13 Ga2 2.791313 1_555
Ga13 Sc3 2.845630 1_565
Ga13 Sc4 2.888999 1_565
Ga13 Sc9 3.005830 1_555
Ga13 Sc11 3.073960 1_565
Ga14 Mn6 2.565789 1_555
Ga14 Mn3 2.648908 1_655
Ga14 Mn2 2.708838 1_555
Ga14 Ga6 2.760050 1_544
Ga14 Sc0 2.845630 1_545
Ga14 Ga8 2.849234 1_555
Ga14 Sc7 2.888999 1_645
Ga14 Sc10 3.005830 1_654
Ga14 Sc8 3.073960 1_545
Ga15 Mn7 2.565789 1_555
Ga15 Mn2 2.648908 1_555
Ga15 Mn3 2.708838 1_555
Ga15 Ga7 2.760050 1_555
Ga15 Sc1 2.845630 1_555
Ga15 Ga9 2.849234 1_555
Ga15 Sc6 2.888999 1_555
Ga15 Sc11 3.005830 1_555
Ga15 Sc9 3.073960 1_555
Ga16 Mn5 2.417801 1_455
Ga16 Ga2 2.646829 1_555
Ga16 Ga7 2.646829 1_555
Ga16 Mn0 2.675361 1_555
Ga16 Mn1 2.678131 1_455
Ga16 Sc1 2.922015 1_555
Ga16 Sc7 2.922015 1_555
Ga16 Sc5 2.956440 1_455
Ga16 Sc3 2.956440 1_465
Ga16 Sc9 3.335064 1_555
Ga17 Mn4 2.417801 1_555
Ga17 Ga3 2.646829 1_555
Ga17 Ga6 2.646829 1_555
Ga17 Mn1 2.675361 1_555
Ga17 Mn0 2.678131 1_555
Ga17 Sc6 2.922015 1_556
Ga17 Sc0 2.922015 1_556
Ga17 Sc2 2.956440 1_555
Ga17 Sc4 2.956440 1_565
Ga17 Sc8 3.335064 1_556
Ga18 Mn7 2.417801 1_655
Ga18 Ga5 2.646829 1_555
Ga18 Mn2 2.675361 1_555
Ga18 Mn3 2.678131 1_655
Ga18 Sc3 2.922015 1_555
Ga18 Sc5 2.922015 1_555
Ga18 Sc7 2.956440 1_645
Ga18 Sc1 2.956440 1_655
Ga18 Sc11 3.335064 1_555
Ga19 Mn6 2.417801 1_555
Ga19 Ga4 2.646829 1_555
Ga19 Mn3 2.675361 1_555
Ga19 Mn2 2.678131 1_555
Ga19 Sc4 2.922015 1_554
Ga19 Sc2 2.922015 1_554
Ga19 Sc6 2.956440 1_555
Ga19 Sc0 2.956440 1_545
Ga19 Sc10 3.335064 1_554
Ga20 Mn5 2.512184 1_555
Ga20 Ga5 2.659637 1_565
Ga20 Sc8 2.734361 1_555
Ga20 Sc6 2.848546 1_555
Ga20 Sc0 2.848546 1_555
Ga20 Sc1 2.968863 1_655
Ga20 Sc7 2.968863 1_655
Ga20 Sc9 3.073901 1_555
Ga21 Mn4 2.512184 1_554
Ga21 Ga4 2.659637 1_555
Ga21 Sc9 2.734361 1_555
Ga21 Sc7 2.848546 1_555
Ga21 Sc1 2.848546 1_555
Ga21 Sc0 2.968863 1_555
Ga21 Sc6 2.968863 1_555
Ga21 Sc8 3.073901 1_455
Ga22 Mn7 2.512184 1_555
Ga22 Ga7 2.659637 1_555
Ga22 Sc10 2.734361 1_555
Ga22 Sc4 2.848546 1_555
Ga22 Sc2 2.848546 1_555
Ga22 Sc5 2.968863 1_455
Ga22 Sc3 2.968863 1_455
Ga22 Sc11 3.073901 1_555
Ga23 Mn6 2.512184 1_556
Ga23 Ga3 2.659637 1_555
Ga23 Ga6 2.659637 1_545
Ga23 Sc11 2.734361 1_555
Ga23 Sc3 2.848546 1_555
Ga23 Sc5 2.848546 1_555
Ga23 Sc4 2.968863 1_555
Ga23 Sc2 2.968863 1_555
Ga23 Sc10 3.073901 1_655
