# generated using pymatgen
data_Hf6Al8Si8Ir7
_symmetry_space_group_name_H-M   'P 1'
_cell_length_a   8.51282693
_cell_length_b   8.51282636
_cell_length_c   8.51282687
_cell_angle_alpha   59.99999419
_cell_angle_beta   59.99999643
_cell_angle_gamma   59.99999979
_symmetry_Int_Tables_number   1
_chemical_formula_structural   Hf6Al8Si8Ir7
_chemical_formula_sum   'Hf6 Al8 Si8 Ir7'
_cell_volume   436.22078044
_cell_formula_units_Z   1
loop_
 _symmetry_equiv_pos_site_id
 _symmetry_equiv_pos_as_xyz
  1  'x, y, z'
loop_
 _atom_site_type_symbol
 _atom_site_label
 _atom_site_symmetry_multiplicity
 _atom_site_fract_x
 _atom_site_fract_y
 _atom_site_fract_z
 _atom_site_occupancy
  Hf  Hf0  1  0.69152464  0.30847536  0.30847536  1
  Hf  Hf1  1  0.30847536  0.69152464  0.69152464  1
  Hf  Hf2  1  0.30847536  0.69152464  0.30847536  1
  Hf  Hf3  1  0.69152464  0.30847536  0.69152464  1
  Hf  Hf4  1  0.30847536  0.30847536  0.69152464  1
  Hf  Hf5  1  0.69152464  0.69152464  0.30847536  1
  Al  Al0  1  0.11992665  0.11992665  0.11992665  1
  Al  Al1  1  0.88007335  0.88007335  0.88007335  1
  Al  Al2  1  0.11992665  0.11992665  0.64022004  1
  Al  Al3  1  0.11992665  0.64022004  0.11992665  1
  Al  Al4  1  0.88007335  0.88007335  0.35977996  1
  Al  Al5  1  0.88007335  0.35977996  0.88007335  1
  Al  Al6  1  0.64022004  0.11992665  0.11992665  1
  Al  Al7  1  0.35977996  0.88007335  0.88007335  1
  Si  Si0  1  0.34227443  0.34227443  0.34227443  1
  Si  Si1  1  0.65772557  0.65772557  0.65772557  1
  Si  Si2  1  0.34227443  0.34227443  0.97317670  1
  Si  Si3  1  0.34227443  0.97317670  0.34227443  1
  Si  Si4  1  0.65772557  0.65772557  0.02682330  1
  Si  Si5  1  0.65772557  0.02682330  0.65772557  1
  Si  Si6  1  0.97317670  0.34227443  0.34227443  1
  Si  Si7  1  0.02682330  0.65772557  0.65772557  1
  Ir  Ir0  1  0.50000000  0.00000000  0.00000000  1
  Ir  Ir1  1  0.00000000  0.50000000  0.50000000  1
  Ir  Ir2  1  0.00000000  0.50000000  0.00000000  1
  Ir  Ir3  1  0.50000000  0.00000000  0.50000000  1
  Ir  Ir4  1  0.00000000  0.00000000  0.50000000  1
  Ir  Ir5  1  0.50000000  0.50000000  0.00000000  1
  Ir  Ir6  1  0.00000000  0.00000000  0.00000000  1
loop_
_geom_bond_atom_site_label_1
_geom_bond_atom_site_label_2
_geom_bond_distance
_geom_bond_site_symmetry_2
Hf0 Si4 2.716034 1_555
Hf0 Si5 2.716034 1_555
Hf0 Si0 2.716034 1_555
Hf0 Si6 2.716034 1_555
Hf1 Si2 2.716034 1_555
Hf1 Si3 2.716034 1_555
Hf1 Si1 2.716034 1_555
Hf1 Si7 2.716034 1_555
Hf2 Si0 2.716034 1_555
Hf2 Si7 2.716034 1_555
Hf2 Si3 2.716034 1_555
Hf2 Si4 2.716034 1_555
Hf3 Si1 2.716034 1_555
Hf3 Si6 2.716034 1_555
Hf3 Si5 2.716034 1_555
Hf3 Si2 2.716034 1_555
Hf4 Si7 2.716034 1_555
Hf4 Si5 2.716034 1_555
Hf4 Si0 2.716034 1_555
Hf4 Si2 2.716034 1_555
Hf5 Si6 2.716034 1_555
Hf5 Si3 2.716034 1_555
Hf5 Si1 2.716034 1_555
Hf5 Si4 2.716034 1_555
Al0 Ir6 2.500720 1_555
Al0 Ir2 2.643655 1_555
Al0 Ir4 2.643656 1_555
Al0 Ir0 2.643656 1_555
Al0 Si2 2.753108 1_554
Al0 Si6 2.753108 1_455
Al0 Si3 2.753108 1_545
Al0 Al4 2.887583 1_445
Al0 Al5 2.887583 1_454
Al0 Al7 2.887583 1_544
Al0 Hf4 3.053137 1_554
Al0 Hf2 3.053137 1_545
Al0 Hf0 3.053137 1_455
Al1 Ir6 2.500720 1_666
Al1 Ir2 2.643655 1_656
Al1 Ir4 2.643656 1_665
Al1 Ir0 2.643656 1_566
Al1 Si4 2.753108 1_556
Al1 Si7 2.753108 1_655
Al1 Si5 2.753108 1_565
Al1 Al2 2.887583 1_665
Al1 Al3 2.887583 1_656
Al1 Al6 2.887583 1_566
Al1 Hf5 3.053137 1_556
Al1 Hf3 3.053137 1_565
Al1 Hf1 3.053137 1_655
Al2 Ir6 2.500720 1_556
Al2 Ir1 2.643655 1_555
Al2 Ir3 2.643656 1_555
Al2 Ir4 2.643656 1_555
Al2 Si0 2.753108 1_555
Al2 Si6 2.753108 1_455
Al2 Si3 2.753108 1_545
Al2 Al7 2.887583 1_545
Al2 Al5 2.887583 1_455
Al2 Hf1 3.053137 1_545
Al2 Hf4 3.053137 1_555
Al2 Hf3 3.053137 1_455
Al3 Ir6 2.500720 1_565
Al3 Ir1 2.643656 1_555
Al3 Ir5 2.643656 1_555
Al3 Ir2 2.643656 1_555
Al3 Si6 2.753108 1_455
Al3 Si0 2.753108 1_555
Al3 Si2 2.753108 1_554
Al3 Al7 2.887583 1_554
Al3 Al4 2.887583 1_455
Al3 Hf1 3.053137 1_554
Al3 Hf5 3.053137 1_455
Al3 Hf2 3.053137 1_555
Al4 Ir6 2.500720 1_665
Al4 Ir1 2.643655 1_655
Al4 Ir3 2.643656 1_565
Al4 Ir4 2.643656 1_665
Al4 Si1 2.753108 1_555
Al4 Si7 2.753108 1_655
Al4 Si5 2.753108 1_565
Al4 Al6 2.887583 1_565
Al4 Hf0 3.053137 1_565
Al4 Hf5 3.053137 1_555
Al4 Hf2 3.053137 1_655
Al5 Ir6 2.500720 1_656
Al5 Ir1 2.643656 1_655
Al5 Ir5 2.643656 1_556
Al5 Ir2 2.643656 1_656
Al5 Si7 2.753108 1_655
Al5 Si1 2.753108 1_555
Al5 Si4 2.753108 1_556
Al5 Al6 2.887583 1_556
Al5 Hf0 3.053137 1_556
Al5 Hf4 3.053137 1_655
Al5 Hf3 3.053137 1_555
Al6 Ir6 2.500720 1_655
Al6 Ir5 2.643655 1_555
Al6 Ir3 2.643656 1_555
Al6 Ir0 2.643656 1_555
Al6 Si3 2.753108 1_545
Al6 Si0 2.753108 1_555
Al6 Si2 2.753108 1_554
Al6 Hf5 3.053137 1_545
Al6 Hf3 3.053137 1_554
Al6 Hf0 3.053137 1_555
Al7 Ir6 2.500720 1_566
Al7 Ir5 2.643655 1_556
Al7 Ir3 2.643656 1_565
Al7 Ir0 2.643656 1_566
Al7 Si5 2.753108 1_565
Al7 Si1 2.753108 1_555
Al7 Si4 2.753108 1_556
Al7 Hf4 3.053137 1_565
Al7 Hf2 3.053137 1_556
Al7 Hf1 3.053137 1_555
Ir0 Si2 2.464504 1_554
Ir0 Si4 2.464504 1_545
Ir0 Si3 2.464504 1_545
Ir0 Si5 2.464504 1_554
Ir1 Si0 2.464504 1_555
Ir1 Si1 2.464504 1_455
Ir1 Si7 2.464504 1_555
Ir1 Si6 2.464504 1_455
Ir2 Si6 2.464504 1_455
Ir2 Si7 2.464504 1_554
Ir2 Si2 2.464504 1_554
Ir2 Si4 2.464504 1_455
Ir3 Si0 2.464503 1_555
Ir3 Si1 2.464503 1_545
Ir3 Si5 2.464504 1_555
Ir3 Si3 2.464504 1_545
Ir4 Si6 2.464503 1_455
Ir4 Si7 2.464503 1_545
Ir4 Si3 2.464504 1_545
Ir4 Si5 2.464504 1_455
Ir5 Si0 2.464503 1_555
Ir5 Si1 2.464503 1_554
Ir5 Si4 2.464504 1_555
Ir5 Si2 2.464504 1_554
