# generated using pymatgen
data_CsLuZrSe4
_symmetry_space_group_name_H-M   'P 1'
_cell_length_a   3.99096145
_cell_length_b   6.78570137
_cell_length_c   8.92436067
_cell_angle_alpha   75.47541889
_cell_angle_beta   90.00000000
_cell_angle_gamma   90.00000000
_symmetry_Int_Tables_number   1
_chemical_formula_structural   CsLuZrSe4
_chemical_formula_sum   'Cs1 Lu1 Zr1 Se4'
_cell_volume   233.96061364
_cell_formula_units_Z   1
loop_
 _symmetry_equiv_pos_site_id
 _symmetry_equiv_pos_as_xyz
  1  'x, y, z'
loop_
 _atom_site_type_symbol
 _atom_site_label
 _atom_site_symmetry_multiplicity
 _atom_site_fract_x
 _atom_site_fract_y
 _atom_site_fract_z
 _atom_site_occupancy
  Cs  Cs0  1  0.00000000  0.50000000  0.50000000  1
  Lu  Lu0  1  0.50000000  0.50000000  0.00000000  1
  Zr  Zr0  1  0.00000000  0.00000000  0.00000000  1
  Se  Se0  1  0.50000000  0.78568728  0.17833034  1
  Se  Se1  1  0.00000000  0.26388147  0.17796003  1
  Se  Se2  1  0.50000000  0.21431272  0.82166966  1
  Se  Se3  1  0.00000000  0.73611853  0.82203997  1
loop_
_geom_bond_atom_site_label_1
_geom_bond_atom_site_label_2
_geom_bond_distance
_geom_bond_site_symmetry_2
Cs0 Se3 3.624466 1_555
Cs0 Se1 3.624466 1_555
Cs0 Se2 3.631744 1_555
Cs0 Se2 3.631744 1_455
Cs0 Se0 3.631744 1_555
Cs0 Se0 3.631744 1_455
Lu0 Se1 2.791959 1_555
Lu0 Se1 2.791959 1_655
Lu0 Se3 2.791959 1_554
Lu0 Se3 2.791959 1_654
Lu0 Se0 2.799727 1_555
Lu0 Se2 2.799727 1_554
Se0 Zr0 2.732900 1_565
Se0 Zr0 2.732900 1_665
Se1 Zr0 2.674897 1_555
Se2 Zr0 2.732900 1_556
Se2 Zr0 2.732900 1_656
Se3 Zr0 2.674897 1_566
