# generated using pymatgen
data_Sr2SnO4
_symmetry_space_group_name_H-M   'P 1'
_cell_length_a   4.06418316
_cell_length_b   4.06418169
_cell_length_c   6.94136615
_cell_angle_alpha   107.02271352
_cell_angle_beta   107.02271874
_cell_angle_gamma   90.00000050
_symmetry_Int_Tables_number   1
_chemical_formula_structural   Sr2SnO4
_chemical_formula_sum   'Sr2 Sn1 O4'
_cell_volume   104.36676147
_cell_formula_units_Z   1
loop_
 _symmetry_equiv_pos_site_id
 _symmetry_equiv_pos_as_xyz
  1  'x, y, z'
loop_
 _atom_site_type_symbol
 _atom_site_label
 _atom_site_symmetry_multiplicity
 _atom_site_fract_x
 _atom_site_fract_y
 _atom_site_fract_z
 _atom_site_occupancy
  Sr  Sr0  1  0.64618423  0.64618423  0.29236745  1
  Sr  Sr1  1  0.35381577  0.35381577  0.70763255  1
  Sn  Sn0  1  0.00000000  0.00000000  0.00000000  1
  O  O0  1  0.83664229  0.83664229  0.67328558  1
  O  O1  1  0.16335771  0.16335771  0.32671442  1
  O  O2  1  0.00000000  0.50000000  0.00000000  1
  O  O3  1  0.50000000  0.00000000  0.00000000  1
loop_
_geom_bond_atom_site_label_1
_geom_bond_atom_site_label_2
_geom_bond_distance
_geom_bond_site_symmetry_2
O0 Sn0 2.064354 1_666
O0 Sr0 2.406841 1_555
O0 Sr1 2.881994 1_665
O0 Sr1 2.881994 1_555
O0 Sr1 2.881994 1_565
O0 Sr1 2.881994 1_655
O1 Sn0 2.064354 1_555
O1 Sr1 2.406841 1_555
O1 Sr0 2.881994 1_445
O1 Sr0 2.881994 1_555
O1 Sr0 2.881994 1_545
O1 Sr0 2.881994 1_455
O2 Sn0 2.032091 1_555
O2 Sn0 2.032091 1_565
O2 Sr0 2.746274 1_455
O2 Sr1 2.746274 1_554
O2 Sr0 2.746277 1_555
O2 Sr1 2.746277 1_454
O3 Sn0 2.032092 1_555
O3 Sn0 2.032092 1_655
O3 Sr0 2.746273 1_545
O3 Sr1 2.746273 1_554
O3 Sr0 2.746277 1_555
O3 Sr1 2.746277 1_544
