# generated using pymatgen
data_KCaBe3F9
_symmetry_space_group_name_H-M   'P 1'
_cell_length_a   6.76596297
_cell_length_b   6.76596410
_cell_length_c   10.02086746
_cell_angle_alpha   90.00000000
_cell_angle_beta   90.00000000
_cell_angle_gamma   119.99999911
_symmetry_Int_Tables_number   1
_chemical_formula_structural   KCaBe3F9
_chemical_formula_sum   'K2 Ca2 Be6 F18'
_cell_volume   397.27867993
_cell_formula_units_Z   2
loop_
 _symmetry_equiv_pos_site_id
 _symmetry_equiv_pos_as_xyz
  1  'x, y, z'
loop_
 _atom_site_type_symbol
 _atom_site_label
 _atom_site_symmetry_multiplicity
 _atom_site_fract_x
 _atom_site_fract_y
 _atom_site_fract_z
 _atom_site_occupancy
  K  K0  1  0.66666700  0.33333300  0.00000000  1
  K  K1  1  0.66666700  0.33333300  0.50000000  1
  Ca  Ca0  1  0.33333300  0.66666700  0.00000000  1
  Ca  Ca1  1  0.33333300  0.66666700  0.50000000  1
  Be  Be0  1  0.22788541  0.96605061  0.25000000  1
  Be  Be1  1  0.22788541  0.26183480  0.75000000  1
  Be  Be2  1  0.73816520  0.96605061  0.75000000  1
  Be  Be3  1  0.03394939  0.77211459  0.75000000  1
  Be  Be4  1  0.03394939  0.26183480  0.25000000  1
  Be  Be5  1  0.73816520  0.77211459  0.25000000  1
  F  F0  1  0.04858979  0.65289814  0.62337032  1
  F  F1  1  0.60430935  0.95141021  0.62337032  1
  F  F2  1  0.34710186  0.39569065  0.62337032  1
  F  F3  1  0.34710186  0.95141021  0.37662968  1
  F  F4  1  0.22909616  0.19932349  0.25000000  1
  F  F5  1  0.97022733  0.77090384  0.25000000  1
  F  F6  1  0.80067651  0.02977267  0.25000000  1
  F  F7  1  0.80067651  0.77090384  0.75000000  1
  F  F8  1  0.97022733  0.19932349  0.75000000  1
  F  F9  1  0.22909616  0.02977267  0.75000000  1
  F  F10  1  0.34710186  0.95141021  0.12336932  1
  F  F11  1  0.60430935  0.65289814  0.37662968  1
  F  F12  1  0.04858979  0.39569065  0.37662968  1
  F  F13  1  0.04858979  0.39569065  0.12336932  1
  F  F14  1  0.60430935  0.65289814  0.12336932  1
  F  F15  1  0.04858979  0.65289814  0.87662968  1
  F  F16  1  0.60430935  0.95141021  0.87662968  1
  F  F17  1  0.34710186  0.39569065  0.87662968  1
loop_
_geom_bond_atom_site_label_1
_geom_bond_atom_site_label_2
_geom_bond_distance
_geom_bond_site_symmetry_2
Ca0 F10 2.251489 1_555
Ca0 F13 2.251494 1_555
Ca0 F15 2.251494 1_554
Ca0 F16 2.251499 1_554
Ca0 F14 2.251500 1_555
Ca0 F17 2.251505 1_554
Ca1 F0 2.251494 1_555
Ca1 F3 2.251494 1_555
Ca1 F12 2.251499 1_555
Ca1 F1 2.251499 1_555
Ca1 F11 2.251505 1_555
Ca1 F2 2.251505 1_555
Be0 F3 1.533149 1_555
Be0 F10 1.533157 1_555
Be0 F4 1.574236 1_565
Be0 F5 1.575014 1_455
Be1 F2 1.533147 1_555
Be1 F17 1.533147 1_555
Be1 F9 1.574236 1_555
Be1 F8 1.575014 1_455
Be2 F1 1.533145 1_555
Be2 F16 1.533145 1_555
Be2 F8 1.574236 1_565
Be2 F7 1.575014 1_555
Be3 F0 1.533149 1_555
Be3 F15 1.533149 1_555
Be3 F7 1.574236 1_455
Be3 F9 1.575014 1_565
Be4 F12 1.533145 1_555
Be4 F13 1.533153 1_555
Be4 F6 1.574236 1_455
Be4 F4 1.575014 1_555
Be5 F11 1.533147 1_555
Be5 F14 1.533155 1_555
Be5 F5 1.574236 1_555
Be5 F6 1.575014 1_565
F0 K1 2.700665 1_455
F1 K1 2.700665 1_565
F2 K1 2.700665 1_555
F3 K1 2.700665 1_565
F10 K0 2.700660 1_565
F11 K1 2.700665 1_555
F12 K1 2.700665 1_455
F13 K0 2.700660 1_455
F14 K0 2.700660 1_555
F15 K0 2.700665 1_456
F16 K0 2.700665 1_566
F17 K0 2.700665 1_556
