# generated using pymatgen
data_HfTa7(TiSi3)2
_symmetry_space_group_name_H-M   'P 1'
_cell_length_a   7.52513862
_cell_length_b   7.56600549
_cell_length_c   7.54427032
_cell_angle_alpha   129.00449405
_cell_angle_beta   128.85816374
_cell_angle_gamma   75.14676919
_symmetry_Int_Tables_number   1
_chemical_formula_structural   HfTa7(TiSi3)2
_chemical_formula_sum   'Hf1 Ta7 Ti2 Si6'
_cell_volume   253.02051386
_cell_formula_units_Z   1
loop_
 _symmetry_equiv_pos_site_id
 _symmetry_equiv_pos_as_xyz
  1  'x, y, z'
loop_
 _atom_site_type_symbol
 _atom_site_label
 _atom_site_symmetry_multiplicity
 _atom_site_fract_x
 _atom_site_fract_y
 _atom_site_fract_z
 _atom_site_occupancy
  Hf  Hf0  1  0.01176460  0.18460607  0.49986319  1
  Ta  Ta0  1  0.68387027  0.52109652  0.49991818  1
  Ta  Ta1  1  0.51651620  0.01622074  0.83038319  1
  Ta  Ta2  1  0.18608870  0.68588148  0.16943776  1
  Ta  Ta3  1  0.98480142  0.81041567  0.50010151  1
  Ta  Ta4  1  0.31449258  0.48171803  0.50005010  1
  Ta  Ta5  1  0.48329800  0.98321613  0.16775744  1
  Ta  Ta6  1  0.81559054  0.31541103  0.83251815  1
  Ti  Ti0  1  0.00131376  0.00081766  0.99890352  1
  Ti  Ti1  1  0.50245888  0.50193630  0.00108855  1
  Si  Si0  1  0.74755040  0.74605002  0.99626773  1
  Si  Si1  1  0.25101299  0.24993796  0.00368279  1
  Si  Si2  1  0.36981009  0.13058055  0.49998179  1
  Si  Si3  1  0.63191845  0.87082113  0.50002142  1
  Si  Si4  1  0.86815753  0.36909502  0.23684014  1
  Si  Si5  1  0.13135658  0.63219669  0.76318455  1
loop_
_geom_bond_atom_site_label_1
_geom_bond_atom_site_label_2
_geom_bond_distance
_geom_bond_site_symmetry_2
Hf0 Si2 2.619038 1_555
Hf0 Si5 2.659973 1_555
Hf0 Si4 2.660103 1_455
Hf0 Si0 2.726310 1_444
Hf0 Si1 2.727176 1_556
Hf0 Ta3 2.890990 1_445
Si0 Ta4 2.691323 1_555
Si0 Ta6 2.697409 1_555
Si0 Ta0 2.700462 1_555
Si0 Ta5 2.706386 1_556
Si0 Ta2 2.715333 1_656
Si0 Ta1 2.726753 1_565
Si0 Ta3 2.733695 1_556
Si0 Ti1 2.954554 1_556
Si0 Ti0 3.025522 1_665
Si1 Ta4 2.691678 1_555
Si1 Ta5 2.698315 1_545
Si1 Ta0 2.700215 1_555
Si1 Ta6 2.704245 1_454
Si1 Ta1 2.717403 1_554
Si1 Ta2 2.725826 1_555
Si1 Ta3 2.732708 1_444
Si1 Ti0 2.954636 1_554
Si1 Ti1 3.026369 1_555
Si2 Si3 2.401152 1_545
Si2 Ti0 2.552310 1_554
Si2 Ti1 2.552445 1_556
Si2 Ta4 2.581267 1_555
Si2 Ta6 2.632766 1_555
Si2 Ta5 2.633345 1_545
Si2 Ta2 2.635877 1_545
Si2 Ta1 2.636818 1_555
Si3 Ti0 2.544417 1_665
Si3 Ti1 2.544753 1_555
Si3 Ta0 2.573265 1_555
Si3 Ta3 2.576167 1_555
Si3 Ta6 2.632405 1_565
Si3 Ta5 2.633500 1_555
Si3 Ta2 2.635988 1_555
Si3 Ta1 2.636453 1_565
Si4 Si5 2.419938 1_655
Si4 Ti1 2.537160 1_555
Si4 Ti0 2.553387 1_654
Si4 Ta6 2.575779 1_554
Si4 Ta1 2.582290 1_554
Si4 Ta3 2.613739 1_555
Si4 Ta4 2.630372 1_655
Si4 Ta0 2.635866 1_555
Si5 Ti0 2.537676 1_565
Si5 Ti1 2.552954 1_556
Si5 Ta5 2.577351 1_556
Si5 Ta2 2.581264 1_556
Si5 Ta3 2.614108 1_455
Si5 Ta4 2.630541 1_555
Si5 Ta0 2.635938 1_455
