# generated using pymatgen
data_Rb3Sb
_symmetry_space_group_name_H-M   'P 1'
_cell_length_a   6.26721031
_cell_length_b   6.26720885
_cell_length_c   6.26720868
_cell_angle_alpha   60.00000435
_cell_angle_beta   60.00000224
_cell_angle_gamma   60.00000310
_symmetry_Int_Tables_number   1
_chemical_formula_structural   Rb3Sb
_chemical_formula_sum   'Rb3 Sb1'
_cell_volume   174.06346560
_cell_formula_units_Z   1
loop_
 _symmetry_equiv_pos_site_id
 _symmetry_equiv_pos_as_xyz
  1  'x, y, z'
loop_
 _atom_site_type_symbol
 _atom_site_label
 _atom_site_symmetry_multiplicity
 _atom_site_fract_x
 _atom_site_fract_y
 _atom_site_fract_z
 _atom_site_occupancy
  Rb  Rb0  1  -0.00000000  -0.00000000  0.00000000  1
  Rb  Rb1  1  0.25000000  0.25000000  0.25000000  1
  Rb  Rb2  1  0.75000000  0.75000000  0.75000000  1
  Sb  Sb0  1  0.50000000  0.50000000  0.50000000  1
loop_
_geom_bond_atom_site_label_1
_geom_bond_atom_site_label_2
_geom_bond_distance
_geom_bond_site_symmetry_2
Rb0 Rb2 3.837866 1_445
Rb0 Rb1 3.837866 1_554
Rb0 Rb1 3.837866 1_555
Rb0 Rb2 3.837866 1_444
Rb0 Rb2 3.837866 1_454
Rb0 Rb1 3.837866 1_545
Rb0 Rb2 3.837867 1_544
Rb0 Rb1 3.837867 1_455
Rb1 Sb0 3.837866 1_554
Rb1 Sb0 3.837866 1_555
Rb1 Sb0 3.837866 1_545
Rb1 Sb0 3.837867 1_455
Rb2 Sb0 3.837866 1_556
Rb2 Sb0 3.837866 1_555
Rb2 Sb0 3.837866 1_565
Rb2 Sb0 3.837867 1_655
