# generated using pymatgen
data_Sr6SiGeI4
_symmetry_space_group_name_H-M   'P 1'
_cell_length_a   15.71951787
_cell_length_b   14.98706874
_cell_length_c   8.32083241
_cell_angle_alpha   79.19755242
_cell_angle_beta   69.47348656
_cell_angle_gamma   31.32896958
_symmetry_Int_Tables_number   1
_chemical_formula_structural   Sr6SiGeI4
_chemical_formula_sum   'Sr12 Si2 Ge2 I8'
_cell_volume   928.91202629
_cell_formula_units_Z   2
loop_
 _symmetry_equiv_pos_site_id
 _symmetry_equiv_pos_as_xyz
  1  'x, y, z'
loop_
 _atom_site_type_symbol
 _atom_site_label
 _atom_site_symmetry_multiplicity
 _atom_site_fract_x
 _atom_site_fract_y
 _atom_site_fract_z
 _atom_site_occupancy
  Sr  Sr0  1  0.36646289  0.94946678  0.58792636  1
  Sr  Sr1  1  0.58792636  0.09614698  0.36646289  1
  Sr  Sr2  1  0.30074713  0.88372276  0.15409781  1
  Sr  Sr3  1  0.94946678  0.36646289  0.09614698  1
  Sr  Sr4  1  0.45278888  0.04721112  0.04721112  1
  Sr  Sr5  1  0.88372276  0.30074713  0.66143030  1
  Sr  Sr6  1  0.09614698  0.58792636  0.94946678  1
  Sr  Sr7  1  0.66143030  0.15409781  0.88372276  1
  Sr  Sr8  1  0.79745333  0.20254667  0.20254667  1
  Sr  Sr9  1  0.20254667  0.79745333  0.79745333  1
  Sr  Sr10  1  0.15409781  0.66143030  0.30074713  1
  Sr  Sr11  1  0.04721112  0.45278888  0.45278888  1
  Si  Si0  1  0.16599362  0.16599362  0.33400638  1
  Si  Si1  1  0.33400638  0.33400638  0.16599362  1
  Ge  Ge0  1  0.08418185  0.08418185  0.91581815  1
  Ge  Ge1  1  0.91581815  0.91581815  0.08418185  1
  I  I0  1  0.67306413  0.67306413  0.82693587  1
  I  I1  1  0.74399498  0.74399498  0.25600502  1
  I  I2  1  0.25600502  0.25600502  0.74399498  1
  I  I3  1  0.57706479  0.57706479  0.42293521  1
  I  I4  1  0.99416782  0.99416782  0.50583218  1
  I  I5  1  0.82693587  0.82693587  0.67306413  1
  I  I6  1  0.42293521  0.42293521  0.57706479  1
  I  I7  1  0.50583218  0.50583218  0.99416782  1
loop_
_geom_bond_atom_site_label_1
_geom_bond_atom_site_label_2
_geom_bond_distance
_geom_bond_site_symmetry_2
Si0 Sr5 3.076578 1_455
Si0 Sr2 3.076586 1_545
Si0 Sr11 3.086307 1_555
Si0 Sr4 3.086307 1_555
Si0 Sr3 3.090936 1_455
Si0 Sr0 3.090957 1_545
Si1 Sr10 3.076560 1_555
Si1 Sr7 3.076566 1_554
Si1 Sr4 3.086307 1_555
Si1 Sr11 3.086307 1_555
Si1 Sr6 3.090940 1_554
Si1 Sr1 3.090959 1_555
Ge0 Sr0 3.078864 1_545
Ge0 Sr3 3.078877 1_456
Ge0 Sr9 3.088667 1_545
Ge0 Sr8 3.088667 1_456
Ge0 Sr2 3.094202 1_546
Ge0 Sr5 3.094216 1_455
Ge1 Sr6 3.078837 1_654
Ge1 Sr1 3.078846 1_565
Ge1 Sr8 3.088667 1_565
Ge1 Sr9 3.088667 1_654
Ge1 Sr10 3.094205 1_655
Ge1 Sr7 3.094217 1_564
I0 Sr2 3.480394 1_556
I0 Sr5 3.480400 1_555
I0 Sr4 3.608750 1_566
I0 Sr11 3.608750 1_655
I0 Sr0 3.724164 1_555
I0 Sr3 3.724184 1_556
I1 Sr11 3.421011 1_655
I1 Sr4 3.421011 1_565
I1 Sr3 3.578101 1_555
I1 Sr0 3.578110 1_555
I1 Sr6 3.582552 1_654
I1 Sr1 3.582560 1_565
I2 Sr11 3.421011 1_555
I2 Sr4 3.421011 1_556
I2 Sr1 3.578128 1_555
I2 Sr6 3.578140 1_555
I2 Sr0 3.582518 1_545
I2 Sr3 3.582529 1_456
I3 Sr3 3.480440 1_555
I3 Sr0 3.480449 1_555
I3 Sr8 3.612828 1_555
I3 Sr9 3.612828 1_555
I3 Sr5 3.721422 1_555
I3 Sr2 3.721435 1_555
I4 Sr9 3.421084 1_655
I4 Sr8 3.421084 1_565
I4 Sr5 3.581550 1_565
I4 Sr2 3.581557 1_655
I4 Sr7 3.586581 1_565
I4 Sr10 3.586589 1_655
I5 Sr7 3.480375 1_565
I5 Sr10 3.480383 1_655
I5 Sr11 3.608750 1_655
I5 Sr4 3.608750 1_566
I5 Sr1 3.724169 1_565
I5 Sr6 3.724189 1_655
I6 Sr1 3.480410 1_555
I6 Sr6 3.480423 1_555
I6 Sr9 3.612828 1_555
I6 Sr8 3.612828 1_555
I6 Sr7 3.721425 1_555
I6 Sr10 3.721439 1_555
I7 Sr9 3.421084 1_555
I7 Sr8 3.421084 1_556
I7 Sr10 3.581573 1_556
I7 Sr7 3.581578 1_555
I7 Sr2 3.586563 1_556
I7 Sr5 3.586569 1_555
