# generated using pymatgen
data_Ti6BeTe2
_symmetry_space_group_name_H-M   'P 1'
_cell_length_a   7.02098874
_cell_length_b   7.02098969
_cell_length_c   3.64427914
_cell_angle_alpha   90.00000000
_cell_angle_beta   90.00000000
_cell_angle_gamma   120.00000022
_symmetry_Int_Tables_number   1
_chemical_formula_structural   Ti6BeTe2
_chemical_formula_sum   'Ti6 Be1 Te2'
_cell_volume   155.57466613
_cell_formula_units_Z   1
loop_
 _symmetry_equiv_pos_site_id
 _symmetry_equiv_pos_as_xyz
  1  'x, y, z'
loop_
 _atom_site_type_symbol
 _atom_site_label
 _atom_site_symmetry_multiplicity
 _atom_site_fract_x
 _atom_site_fract_y
 _atom_site_fract_z
 _atom_site_occupancy
  Ti  Ti0  1  0.38784337  0.00000000  0.00000000  1
  Ti  Ti1  1  0.00000000  0.38784337  0.00000000  1
  Ti  Ti2  1  0.61215663  0.61215663  0.00000000  1
  Ti  Ti3  1  0.77280872  0.00000000  0.50000000  1
  Ti  Ti4  1  0.22719128  0.22719128  0.50000000  1
  Ti  Ti5  1  1.00000000  0.77280872  0.50000000  1
  Be  Be0  1  0.00000000  0.00000000  0.00000000  1
  Te  Te0  1  0.66666700  0.33333400  0.50000000  1
  Te  Te1  1  0.33333300  0.66666600  0.50000000  1
loop_
_geom_bond_atom_site_label_1
_geom_bond_atom_site_label_2
_geom_bond_distance
_geom_bond_site_symmetry_2
Be0 Ti3 2.421685 1_454
Be0 Ti3 2.421685 1_455
Be0 Ti4 2.421685 1_554
Be0 Ti4 2.421685 1_555
Be0 Ti5 2.421686 1_445
Be0 Ti5 2.421686 1_444
Be0 Ti0 2.723044 1_555
Be0 Ti2 2.723044 1_445
Be0 Ti1 2.723044 1_555
Te0 Ti5 2.788646 1_555
Te0 Ti4 2.788650 1_555
Te0 Ti3 2.788652 1_555
Te0 Ti2 2.836920 1_555
Te0 Ti2 2.836920 1_556
Te0 Ti1 2.836922 1_656
Te0 Ti1 2.836922 1_655
Te0 Ti0 2.836925 1_556
Te0 Ti0 2.836925 1_555
Te1 Ti4 2.788646 1_555
Te1 Ti5 2.788650 1_455
Te1 Ti3 2.788652 1_565
Te1 Ti1 2.836920 1_555
Te1 Ti1 2.836920 1_556
Te1 Ti2 2.836922 1_555
Te1 Ti2 2.836922 1_556
Te1 Ti0 2.836925 1_566
Te1 Ti0 2.836925 1_565
