# generated using pymatgen
data_Rb2Ga2Te3
_symmetry_space_group_name_H-M   'P 1'
_cell_length_a   7.83459114
_cell_length_b   7.83459108
_cell_length_c   10.10102775
_cell_angle_alpha   82.51053474
_cell_angle_beta   82.51053891
_cell_angle_gamma   120.02702993
_symmetry_Int_Tables_number   1
_chemical_formula_structural   Rb2Ga2Te3
_chemical_formula_sum   'Rb4 Ga4 Te6'
_cell_volume   518.22133323
_cell_formula_units_Z   2
loop_
 _symmetry_equiv_pos_site_id
 _symmetry_equiv_pos_as_xyz
  1  'x, y, z'
loop_
 _atom_site_type_symbol
 _atom_site_label
 _atom_site_symmetry_multiplicity
 _atom_site_fract_x
 _atom_site_fract_y
 _atom_site_fract_z
 _atom_site_occupancy
  Rb  Rb0  1  0.65396107  0.34603893  0.00000000  1
  Rb  Rb1  1  0.34603893  0.65396107  1.00000000  1
  Rb  Rb2  1  0.00000000  0.00000000  0.00000000  1
  Rb  Rb3  1  0.50000000  0.50000000  0.50000000  1
  Ga  Ga0  1  0.87385250  0.20963830  0.37430268  1
  Ga  Ga1  1  0.79036170  0.12614750  0.62569732  1
  Ga  Ga2  1  0.20963830  0.87385250  0.37430268  1
  Ga  Ga3  1  0.12614750  0.79036170  0.62569732  1
  Te  Te0  1  0.42028759  0.05344897  0.73605442  1
  Te  Te1  1  0.05344897  0.42028759  0.73605442  1
  Te  Te2  1  0.94655103  0.57971241  0.26394558  1
  Te  Te3  1  0.78881120  0.78881120  0.72939278  1
  Te  Te4  1  0.57971241  0.94655103  0.26394558  1
  Te  Te5  1  0.21118880  0.21118880  0.27060722  1
loop_
_geom_bond_atom_site_label_1
_geom_bond_atom_site_label_2
_geom_bond_distance
_geom_bond_site_symmetry_2
Rb0 Te4 3.583385 1_545
Rb0 Te1 3.583385 1_654
Rb0 Te3 3.705222 1_554
Rb0 Te5 3.705223 1_555
Rb0 Te2 3.792111 1_555
Rb0 Te0 3.792111 1_554
Rb1 Te0 3.583385 1_565
Rb1 Te2 3.583385 1_456
Rb1 Te5 3.705222 1_556
Rb1 Te3 3.705223 1_555
Rb1 Te1 3.792111 1_555
Rb1 Te4 3.792111 1_556
Rb2 Te5 3.544703 1_555
Rb2 Te3 3.544703 1_444
Rb2 Te2 3.763825 1_445
Rb2 Te1 3.763825 1_554
Rb2 Te4 3.763825 1_445
Rb2 Te0 3.763825 1_554
Rb3 Te3 3.635687 1_555
Rb3 Te5 3.635687 1_555
Rb3 Te0 3.683160 1_555
Rb3 Te4 3.683160 1_555
Rb3 Te2 3.683160 1_555
Rb3 Te1 3.683160 1_555
Ga0 Ga1 2.451483 1_555
Ga0 Te2 2.704186 1_555
Ga0 Te4 2.704896 1_545
Ga0 Te5 2.706481 1_655
Ga1 Te0 2.704186 1_555
Ga1 Te1 2.704896 1_655
Ga1 Te3 2.706481 1_545
Ga2 Ga3 2.451483 1_555
Ga2 Te4 2.704186 1_555
Ga2 Te2 2.704896 1_455
Ga2 Te5 2.706481 1_565
Ga3 Te1 2.704186 1_555
Ga3 Te0 2.704896 1_565
Ga3 Te3 2.706481 1_455
