# generated using pymatgen
data_Al4(B2O5)3
_symmetry_space_group_name_H-M   'P 1'
_cell_length_a   6.93571229
_cell_length_b   6.93571311
_cell_length_c   6.93571271
_cell_angle_alpha   110.75395584
_cell_angle_beta   110.75395851
_cell_angle_gamma   110.75395177
_symmetry_Int_Tables_number   1
_chemical_formula_structural   Al4(B2O5)3
_chemical_formula_sum   'Al4 B6 O15'
_cell_volume   243.87534353
_cell_formula_units_Z   1
loop_
 _symmetry_equiv_pos_site_id
 _symmetry_equiv_pos_as_xyz
  1  'x, y, z'
loop_
 _atom_site_type_symbol
 _atom_site_label
 _atom_site_symmetry_multiplicity
 _atom_site_fract_x
 _atom_site_fract_y
 _atom_site_fract_z
 _atom_site_occupancy
  Al  Al0  1  0.08388486  0.80337723  0.29284521  1
  Al  Al1  1  0.80337723  0.29284521  0.08388486  1
  Al  Al2  1  0.29284521  0.08388486  0.80337723  1
  Al  Al3  1  0.00252166  0.00252166  0.00252166  1
  B  B0  1  0.17247595  0.27420722  0.50092481  1
  B  B1  1  0.27420722  0.50092481  0.17247595  1
  B  B2  1  0.50092481  0.17247595  0.27420722  1
  B  B3  1  0.59915784  0.52496058  0.85667866  1
  B  B4  1  0.52496058  0.85667866  0.59915784  1
  B  B5  1  0.85667866  0.59915784  0.52496058  1
  O  O0  1  0.07711686  0.52591210  0.10418127  1
  O  O1  1  0.68971933  0.39254488  0.50085420  1
  O  O2  1  0.50085420  0.68971933  0.39254488  1
  O  O3  1  0.39254488  0.50085420  0.68971933  1
  O  O4  1  0.10418127  0.07711686  0.52591210  1
  O  O5  1  0.24067383  0.27936504  0.02717075  1
  O  O6  1  0.02717075  0.24067383  0.27936504  1
  O  O7  1  0.01685225  0.82447177  0.74457732  1
  O  O8  1  0.74457732  0.01685225  0.82447177  1
  O  O9  1  0.82447177  0.74457732  0.01685225  1
  O  O10  1  0.57730640  0.33134484  0.87517814  1
  O  O11  1  0.87517814  0.57730640  0.33134484  1
  O  O12  1  0.33134484  0.87517814  0.57730640  1
  O  O13  1  0.27936504  0.02717075  0.24067383  1
  O  O14  1  0.52591210  0.10418127  0.07711686  1
loop_
_geom_bond_atom_site_label_1
_geom_bond_atom_site_label_2
_geom_bond_distance
_geom_bond_site_symmetry_2
Al0 O12 1.839657 1_555
Al0 O0 1.877665 1_555
Al0 O9 1.885087 1_455
Al0 O11 1.894008 1_455
Al0 O13 1.905948 1_565
Al0 O4 1.926580 1_565
Al1 O11 1.839657 1_555
Al1 O14 1.877665 1_555
Al1 O8 1.885087 1_554
Al1 O10 1.894007 1_554
Al1 O6 1.905948 1_655
Al1 O0 1.926580 1_655
Al2 O10 1.839657 1_555
Al2 O4 1.877665 1_555
Al2 O7 1.885087 1_545
Al2 O12 1.894008 1_545
Al2 O5 1.905948 1_556
Al2 O14 1.926580 1_556
Al3 O8 1.839226 1_454
Al3 O7 1.839227 1_544
Al3 O9 1.839227 1_445
Al3 O13 1.940065 1_555
Al3 O6 1.940065 1_555
Al3 O5 1.940065 1_555
B0 O4 1.374836 1_555
B0 O6 1.383531 1_555
B0 O3 1.392724 1_555
B1 O0 1.374835 1_555
B1 O5 1.383531 1_555
B1 O2 1.392724 1_555
B2 O14 1.374835 1_555
B2 O13 1.383531 1_555
B2 O1 1.392724 1_555
B3 O10 1.354389 1_555
B3 O9 1.371052 1_556
B3 O3 1.392602 1_555
B4 O12 1.354389 1_555
B4 O8 1.371052 1_565
B4 O2 1.392602 1_555
B5 O11 1.354389 1_555
B5 O7 1.371052 1_655
B5 O1 1.392602 1_555
