# generated using pymatgen
data_CdHg4MoO6
_symmetry_space_group_name_H-M   'P 1'
_cell_length_a   8.34949438
_cell_length_b   8.34949388
_cell_length_c   6.66245332
_cell_angle_alpha   85.77991300
_cell_angle_beta   85.77991232
_cell_angle_gamma   87.23173338
_symmetry_Int_Tables_number   1
_chemical_formula_structural   CdHg4MoO6
_chemical_formula_sum   'Cd2 Hg8 Mo2 O12'
_cell_volume   461.52189439
_cell_formula_units_Z   2
loop_
 _symmetry_equiv_pos_site_id
 _symmetry_equiv_pos_as_xyz
  1  'x, y, z'
loop_
 _atom_site_type_symbol
 _atom_site_label
 _atom_site_symmetry_multiplicity
 _atom_site_fract_x
 _atom_site_fract_y
 _atom_site_fract_z
 _atom_site_occupancy
  Cd  Cd0  1  0.00000000  0.00000000  0.00000000  1
  Cd  Cd1  1  0.00000000  0.00000000  0.50000000  1
  Hg  Hg0  1  0.33540099  0.18503159  0.74344079  1
  Hg  Hg1  1  0.81496841  0.66459901  0.75655921  1
  Hg  Hg2  1  0.66459901  0.81496841  0.25655921  1
  Hg  Hg3  1  0.18503159  0.33540099  0.24344079  1
  Hg  Hg4  1  0.93803577  0.38039204  0.73050897  1
  Hg  Hg5  1  0.38039204  0.93803577  0.23050897  1
  Hg  Hg6  1  0.06196423  0.61960796  0.26949103  1
  Hg  Hg7  1  0.61960796  0.06196423  0.76949103  1
  Mo  Mo0  1  0.30400560  0.69599440  0.75000000  1
  Mo  Mo1  1  0.69599440  0.30400560  0.25000000  1
  O  O0  1  0.27090283  0.48910029  0.78015230  1
  O  O1  1  0.51089971  0.72909717  0.71984770  1
  O  O2  1  0.72909717  0.51089971  0.21984770  1
  O  O3  1  0.48910029  0.27090283  0.28015230  1
  O  O4  1  0.21399392  0.79390302  0.96345579  1
  O  O5  1  0.20609698  0.78600608  0.53654421  1
  O  O6  1  0.78600608  0.20609698  0.03654421  1
  O  O7  1  0.79390302  0.21399392  0.46345579  1
  O  O8  1  0.83590145  0.91683211  0.77574022  1
  O  O9  1  0.08316789  0.16409855  0.72425978  1
  O  O10  1  0.16409855  0.08316789  0.22425978  1
  O  O11  1  0.91683211  0.83590145  0.27574022  1
loop_
_geom_bond_atom_site_label_1
_geom_bond_atom_site_label_2
_geom_bond_distance
_geom_bond_site_symmetry_2
Cd0 O10 2.266667 1_555
Cd0 O8 2.266667 1_444
Cd0 O9 2.295244 1_554
Cd0 O11 2.295244 1_445
Cd0 O6 2.431778 1_455
Cd0 O4 2.431778 1_544
Cd1 O9 2.266666 1_555
Cd1 O11 2.266666 1_445
Cd1 O10 2.295244 1_555
Cd1 O8 2.295244 1_445
Cd1 O5 2.431778 1_545
Cd1 O7 2.431778 1_455
Hg0 O9 2.135567 1_555
Hg0 O0 2.595261 1_555
Hg1 O8 2.135567 1_555
Hg1 O1 2.595262 1_555
Hg2 O11 2.135567 1_555
Hg2 O2 2.595261 1_555
Hg3 O10 2.135567 1_555
Hg3 O3 2.595262 1_555
Hg4 O9 2.126928 1_655
Hg5 O10 2.126928 1_565
Hg6 O11 2.126928 1_455
Hg7 O8 2.126928 1_545
Mo0 O0 1.757198 1_555
Mo0 O1 1.757198 1_555
Mo0 O4 1.791662 1_555
Mo0 O5 1.791662 1_555
Mo1 O2 1.757198 1_555
Mo1 O3 1.757198 1_555
Mo1 O6 1.791662 1_555
Mo1 O7 1.791662 1_555
