# generated using pymatgen
data_Sc3(ReSi2)2
_symmetry_space_group_name_H-M   'P 1'
_cell_length_a   10.15633872
_cell_length_b   10.15633872
_cell_length_c   13.69314321
_cell_angle_alpha   55.95864629
_cell_angle_beta   55.95864629
_cell_angle_gamma   30.58656014
_symmetry_Int_Tables_number   1
_chemical_formula_structural   Sc3(ReSi2)2
_chemical_formula_sum   'Sc12 Re8 Si16'
_cell_volume   585.30417114
_cell_formula_units_Z   4
loop_
 _symmetry_equiv_pos_site_id
 _symmetry_equiv_pos_as_xyz
  1  'x, y, z'
loop_
 _atom_site_type_symbol
 _atom_site_label
 _atom_site_symmetry_multiplicity
 _atom_site_fract_x
 _atom_site_fract_y
 _atom_site_fract_z
 _atom_site_occupancy
  Sc  Sc0  1  0.75164644  0.48108105  0.04658283  1
  Sc  Sc1  1  0.53219526  0.30307338  0.15910789  1
  Sc  Sc2  1  0.51891895  0.24835356  0.45341717  1
  Sc  Sc3  1  0.46780474  0.69692662  0.84089211  1
  Sc  Sc4  1  0.29284728  0.03659042  0.13830157  1
  Sc  Sc5  1  0.96340958  0.70715272  0.36169843  1
  Sc  Sc6  1  0.70715272  0.96340958  0.86169843  1
  Sc  Sc7  1  0.03659042  0.29284728  0.63830157  1
  Sc  Sc8  1  0.24835356  0.51891895  0.95341717  1
  Sc  Sc9  1  0.48108105  0.75164644  0.54658283  1
  Sc  Sc10  1  0.30307338  0.53219526  0.65910789  1
  Sc  Sc11  1  0.69692662  0.46780474  0.34089211  1
  Re  Re0  1  0.64410055  0.82712639  0.28303129  1
  Re  Re1  1  0.82712639  0.64410055  0.78303129  1
  Re  Re2  1  0.35589945  0.17287361  0.71696871  1
  Re  Re3  1  0.17287361  0.35589945  0.21696871  1
  Re  Re4  1  0.13772428  0.91270315  0.07644163  1
  Re  Re5  1  0.08729685  0.86227572  0.42355837  1
  Re  Re6  1  0.86227572  0.08729685  0.92355837  1
  Re  Re7  1  0.91270315  0.13772428  0.57644163  1
  Si  Si0  1  0.89131485  0.10868515  0.25000000  1
  Si  Si1  1  0.10868515  0.89131485  0.75000000  1
  Si  Si2  1  0.35744720  0.64255280  0.25000000  1
  Si  Si3  1  0.64255280  0.35744720  0.75000000  1
  Si  Si4  1  0.00333368  0.22843528  0.87479132  1
  Si  Si5  1  0.77156472  0.99666632  0.62520868  1
  Si  Si6  1  0.99666632  0.77156472  0.12520868  1
  Si  Si7  1  0.22843528  0.00333368  0.37479132  1
  Si  Si8  1  0.60258601  0.04921183  0.07280449  1
  Si  Si9  1  0.95078817  0.39741399  0.42719551  1
  Si  Si10  1  0.39741399  0.95078817  0.92719551  1
  Si  Si11  1  0.04921183  0.60258601  0.57280449  1
  Si  Si12  1  0.39063224  0.15265899  0.38999428  1
  Si  Si13  1  0.84734101  0.60936776  0.11000572  1
  Si  Si14  1  0.60936776  0.84734101  0.61000572  1
  Si  Si15  1  0.15265899  0.39063224  0.88999428  1
loop_
_geom_bond_atom_site_label_1
_geom_bond_atom_site_label_2
_geom_bond_distance
_geom_bond_site_symmetry_2
Sc0 Si10 2.584081 1_554
Sc0 Si4 2.717466 1_654
Sc0 Si0 2.732645 1_555
Sc0 Si13 2.790793 1_555
Sc0 Si2 2.793111 1_555
Sc0 Si15 2.831197 1_654
Sc1 Si12 2.771550 1_555
Sc1 Si8 2.801277 1_555
Sc1 Si6 2.849420 1_545
Sc1 Si6 2.869599 1_455
Sc1 Si2 2.895227 1_555
Sc1 Si0 2.946746 1_555
Sc2 Si11 2.584081 1_555
Sc2 Si5 2.717466 1_545
Sc2 Si0 2.732645 1_555
Sc2 Si12 2.790793 1_555
Sc2 Si2 2.793111 1_555
Sc2 Si14 2.831197 1_545
Sc3 Si14 2.771550 1_555
Sc3 Si10 2.801277 1_555
Sc3 Si4 2.849420 1_565
Sc3 Si4 2.869599 1_655
Sc3 Si3 2.895227 1_555
Sc3 Si1 2.946746 1_555
Sc4 Si7 2.795108 1_555
Sc4 Si10 2.834300 1_544
Sc4 Si13 2.839039 1_545
Sc4 Si8 2.850221 1_555
Sc4 Si2 2.921552 1_545
Sc4 Si13 2.930011 1_455
Sc4 Si0 2.938665 1_455
Sc4 Si15 3.071617 1_554
Sc5 Si6 2.795108 1_555
Sc5 Si11 2.834300 1_655
Sc5 Si12 2.839039 1_655
Sc5 Si9 2.850221 1_555
Sc5 Si2 2.921552 1_655
Sc5 Si12 2.930011 1_565
Sc5 Si0 2.938665 1_565
Sc5 Si14 3.071617 1_555
Sc6 Si5 2.795108 1_555
Sc6 Si8 2.834300 1_566
Sc6 Si15 2.839039 1_565
Sc6 Si10 2.850221 1_555
Sc6 Si3 2.921552 1_565
Sc6 Si15 2.930011 1_655
Sc6 Si1 2.938665 1_655
Sc6 Si13 3.071617 1_556
Sc7 Si4 2.795108 1_555
Sc7 Si9 2.834300 1_455
Sc7 Si14 2.839039 1_455
Sc7 Si11 2.850221 1_555
Sc7 Si3 2.921552 1_455
Sc7 Si14 2.930011 1_545
Sc7 Si1 2.938665 1_545
Sc7 Si12 3.071617 1_555
Sc8 Si8 2.584081 1_556
Sc8 Si6 2.717466 1_456
Sc8 Si1 2.732645 1_555
Sc8 Si15 2.790793 1_555
Sc8 Si3 2.793111 1_555
Sc8 Si13 2.831197 1_456
Sc9 Si9 2.584081 1_555
Sc9 Si7 2.717466 1_565
Sc9 Si1 2.732645 1_555
Sc9 Si14 2.790793 1_555
Sc9 Si3 2.793111 1_555
Sc9 Si12 2.831197 1_565
Sc10 Si15 2.771550 1_555
Sc10 Si11 2.801277 1_555
Sc10 Si5 2.849420 1_455
Sc10 Si5 2.869599 1_545
Sc10 Si3 2.895227 1_555
Sc10 Si1 2.946746 1_555
Sc11 Si13 2.771550 1_555
Sc11 Si9 2.801277 1_555
Sc11 Si7 2.849420 1_655
Sc11 Si7 2.869599 1_565
Sc11 Si2 2.895227 1_555
Sc11 Si0 2.946746 1_555
Re0 Si8 2.450325 1_565
Re0 Si7 2.484888 1_565
Re0 Si12 2.499918 1_565
Re0 Si9 2.545491 1_555
Re0 Si6 2.652039 1_555
Re0 Si13 2.701235 1_555
Re0 Re3 2.778555 1_565
Re0 Re3 2.778555 1_655
Re0 Sc11 2.846282 1_555
Re0 Sc9 2.958216 1_555
Re0 Sc5 2.966524 1_555
Re0 Sc1 3.324801 1_565
Re0 Sc4 3.362805 1_565
Re1 Si11 2.450325 1_655
Re1 Si4 2.484888 1_655
Re1 Si15 2.499918 1_655
Re1 Si10 2.545491 1_555
Re1 Si5 2.652039 1_555
Re1 Si14 2.701235 1_555
Re1 Re2 2.778555 1_565
Re1 Re2 2.778555 1_655
Re1 Sc3 2.846282 1_555
Re1 Sc0 2.958216 1_556
Re1 Sc6 2.966524 1_555
Re1 Sc10 3.324801 1_655
Re1 Sc7 3.362805 1_655
Re2 Si10 2.450325 1_545
Re2 Si5 2.484888 1_545
Re2 Si14 2.499918 1_545
Re2 Si11 2.545491 1_555
Re2 Si4 2.652039 1_555
Re2 Si15 2.701235 1_555
Re2 Sc10 2.846282 1_555
Re2 Sc2 2.958216 1_555
Re2 Sc7 2.966524 1_555
Re2 Sc3 3.324801 1_545
Re2 Sc6 3.362805 1_545
Re3 Si9 2.450325 1_455
Re3 Si6 2.484888 1_455
Re3 Si13 2.499918 1_455
Re3 Si8 2.545491 1_555
Re3 Si7 2.652039 1_555
Re3 Si12 2.701235 1_555
Re3 Sc1 2.846282 1_555
Re3 Sc8 2.958216 1_554
Re3 Sc4 2.966524 1_555
Re3 Sc11 3.324801 1_455
Re3 Sc5 3.362805 1_455
Re4 Si0 2.435942 1_465
Re4 Si6 2.438465 1_455
Re4 Si10 2.473722 1_554
Re4 Si2 2.500294 1_555
Re4 Si4 2.557495 1_564
Re4 Sc0 3.007754 1_465
Re4 Re6 3.035293 1_464
Re4 Sc3 3.098915 1_554
Re4 Sc1 3.173700 1_465
Re4 Sc1 3.192191 1_555
Re4 Sc0 3.217750 1_555
Re4 Sc4 3.298971 1_565
Re5 Si0 2.435942 1_465
Re5 Si7 2.438465 1_565
Re5 Si11 2.473722 1_555
Re5 Si2 2.500294 1_555
Re5 Si5 2.557495 1_455
Re5 Sc2 3.007754 1_465
Re5 Re7 3.035293 1_465
Re5 Sc10 3.098915 1_555
Re5 Sc11 3.173700 1_465
Re5 Sc11 3.192191 1_555
Re5 Sc2 3.217750 1_555
Re5 Sc5 3.298971 1_455
Re6 Si1 2.435942 1_645
Re6 Si4 2.438465 1_655
Re6 Si8 2.473722 1_556
Re6 Si3 2.500294 1_555
Re6 Si6 2.557495 1_546
Re6 Sc8 3.007754 1_645
Re6 Sc1 3.098915 1_556
Re6 Sc3 3.173700 1_645
Re6 Sc3 3.192191 1_555
Re6 Sc8 3.217750 1_555
Re6 Sc6 3.298971 1_545
Re7 Si1 2.435942 1_645
Re7 Si5 2.438465 1_545
Re7 Si9 2.473722 1_555
Re7 Si3 2.500294 1_555
Re7 Si7 2.557495 1_655
Re7 Sc9 3.007754 1_645
Re7 Sc11 3.098915 1_555
Re7 Sc10 3.173700 1_645
Re7 Sc10 3.192191 1_555
Re7 Sc9 3.217750 1_555
Re7 Sc7 3.298971 1_655
Si0 Si2 2.497383 1_645
Si0 Si2 2.860287 1_555
Si1 Si3 2.497383 1_465
Si1 Si3 2.860287 1_555
Si6 Si8 2.450320 1_565
Si7 Si9 2.450320 1_455
Si10 Si4 2.450320 1_565
Si10 Si15 2.479021 1_565
Si11 Si5 2.450320 1_455
Si11 Si14 2.479021 1_455
Si12 Si9 2.479021 1_455
Si13 Si8 2.479021 1_565
