# generated using pymatgen
data_Hf13In3(Ir2N)4
_symmetry_space_group_name_H-M   'P 1'
_cell_length_a   8.62579798
_cell_length_b   8.63370649
_cell_length_c   8.62578707
_cell_angle_alpha   60.03034819
_cell_angle_beta   59.99996952
_cell_angle_gamma   60.03033242
_symmetry_Int_Tables_number   1
_chemical_formula_structural   Hf13In3(Ir2N)4
_chemical_formula_sum   'Hf13 In3 Ir8 N4'
_cell_volume   454.44278247
_cell_formula_units_Z   1
loop_
 _symmetry_equiv_pos_site_id
 _symmetry_equiv_pos_as_xyz
  1  'x, y, z'
loop_
 _atom_site_type_symbol
 _atom_site_label
 _atom_site_symmetry_multiplicity
 _atom_site_fract_x
 _atom_site_fract_y
 _atom_site_fract_z
 _atom_site_occupancy
  Hf  Hf0  1  0.62500173  0.12499482  0.62500173  1
  Hf  Hf1  1  0.81216191  0.81850106  0.18466752  1
  Hf  Hf2  1  0.18451466  0.19036755  0.81255840  1
  Hf  Hf3  1  0.81255940  0.19036755  0.81255840  1
  Hf  Hf4  1  0.18466852  0.81850206  0.18466752  1
  Hf  Hf5  1  0.18466852  0.81850206  0.81216091  1
  Hf  Hf6  1  0.81255940  0.19036655  0.18451466  1
  Hf  Hf7  1  0.43783469  0.43149312  0.06533560  1
  Hf  Hf8  1  0.06549165  0.05963132  0.43744002  1
  Hf  Hf9  1  0.43743902  0.05963032  0.43744002  1
  Hf  Hf10  1  0.06533660  0.43149312  0.06533560  1
  Hf  Hf11  1  0.06533660  0.43149212  0.43783469  1
  Hf  Hf12  1  0.43744002  0.05962932  0.06549065  1
  In  In0  1  0.12496809  0.62500475  0.62501108  1
  In  In1  1  0.62501308  0.62500275  0.12497109  1
  In  In2  1  0.62501608  0.62500475  0.62501108  1
  Ir  Ir0  1  0.77309440  0.40090631  0.41300165  1
  Ir  Ir1  1  0.40923765  0.77228604  0.40923965  1
  Ir  Ir2  1  0.41299965  0.40090931  0.77309240  1
  Ir  Ir3  1  0.41299865  0.40090631  0.41300065  1
  Ir  Ir4  1  0.47689499  0.84911212  0.83699645  1
  Ir  Ir5  1  0.84077599  0.47767003  0.84077799  1
  Ir  Ir6  1  0.83699645  0.84911512  0.47689199  1
  Ir  Ir7  1  0.83699545  0.84911112  0.83699745  1
  N  N0  1  0.62499881  0.12500017  0.12500101  1
  N  N1  1  0.12500102  0.62499593  0.12500202  1
  N  N2  1  0.12500101  0.12500117  0.62499881  1
  N  N3  1  0.12500101  0.12500117  0.12500001  1
loop_
_geom_bond_atom_site_label_1
_geom_bond_atom_site_label_2
_geom_bond_distance
_geom_bond_site_symmetry_2
Hf0 Ir6 2.646087 1_545
Hf0 Ir4 2.646094 1_545
Hf0 Ir7 2.646097 1_545
Hf0 Ir0 2.646221 1_555
Hf0 Ir3 2.646222 1_555
Hf0 Ir2 2.646230 1_555
Hf1 N0 2.252945 1_565
Hf1 N1 2.303026 1_655
Hf1 Ir7 2.780582 1_554
Hf1 Ir6 2.780590 1_555
Hf1 Ir1 3.141937 1_555
Hf1 In2 3.169719 1_555
Hf1 In1 3.169729 1_555
Hf1 Ir0 3.232212 1_555
Hf2 N2 2.287278 1_555
Hf2 N3 2.287293 1_556
Hf2 Ir5 2.745353 1_455
Hf2 Ir4 2.751910 1_545
Hf2 Ir3 3.097476 1_555
Hf2 Ir2 3.097503 1_555
Hf2 In0 3.130911 1_555
Hf3 N2 2.287291 1_655
Hf3 N0 2.287297 1_556
Hf3 Ir5 2.745351 1_555
Hf3 Ir7 2.751917 1_545
Hf3 Ir0 3.097469 1_555
Hf3 Ir2 3.097497 1_555
Hf3 In2 3.130911 1_555
Hf4 N3 2.252947 1_565
Hf4 N1 2.303027 1_555
Hf4 Ir6 2.780586 1_455
Hf4 Ir4 2.780587 1_554
Hf4 Ir1 3.141948 1_555
Hf4 In0 3.169721 1_555
Hf4 In1 3.169738 1_555
Hf4 Ir3 3.232220 1_555
Hf5 N2 2.252943 1_565
Hf5 N1 2.303038 1_556
Hf5 Ir4 2.780595 1_555
Hf5 Ir7 2.780604 1_455
Hf5 Ir1 3.141914 1_555
Hf5 In0 3.169751 1_555
Hf5 In2 3.169753 1_555
Hf5 Ir2 3.232199 1_555
Hf6 N0 2.287287 1_555
Hf6 N3 2.287296 1_655
Hf6 Ir5 2.745345 1_554
Hf6 Ir6 2.751878 1_545
Hf6 Ir3 3.097499 1_555
Hf6 Ir0 3.097505 1_555
Hf6 In1 3.130908 1_555
Hf7 N0 2.252910 1_555
Hf7 N1 2.302988 1_555
Hf7 Ir2 2.780600 1_554
Hf7 Ir3 2.780611 1_555
Hf7 Ir5 3.141942 1_554
Hf7 In1 3.169674 1_555
Hf7 In2 3.169685 1_554
Hf7 Ir4 3.232370 1_554
Hf8 N2 2.287267 1_555
Hf8 N3 2.287282 1_555
Hf8 Ir1 2.745541 1_545
Hf8 Ir0 2.752068 1_455
Hf8 Ir6 3.097453 1_445
Hf8 Ir7 3.097458 1_445
Hf8 In0 3.130938 1_545
Hf9 N2 2.287268 1_555
Hf9 N0 2.287274 1_555
Hf9 Ir1 2.745535 1_545
Hf9 Ir3 2.752068 1_555
Hf9 Ir6 3.097440 1_545
Hf9 Ir4 3.097442 1_545
Hf9 In2 3.130930 1_545
Hf10 N3 2.252901 1_555
Hf10 N1 2.302987 1_555
Hf10 Ir2 2.780605 1_554
Hf10 Ir0 2.780616 1_455
Hf10 Ir5 3.141941 1_454
Hf10 In1 3.169675 1_455
Hf10 In0 3.169685 1_554
Hf10 Ir7 3.232367 1_454
Hf11 N2 2.252898 1_555
Hf11 N1 2.302982 1_555
Hf11 Ir0 2.780594 1_455
Hf11 Ir3 2.780600 1_555
Hf11 Ir5 3.141956 1_455
Hf11 In0 3.169656 1_555
Hf11 In2 3.169658 1_455
Hf11 Ir6 3.232390 1_455
Hf12 N3 2.287273 1_555
Hf12 N0 2.287280 1_555
Hf12 Ir1 2.745547 1_545
Hf12 Ir2 2.752096 1_554
Hf12 Ir7 3.097434 1_544
Hf12 Ir4 3.097438 1_544
Hf12 In1 3.130932 1_545
In0 Ir5 2.697958 1_455
In0 Ir1 2.698224 1_555
In0 Ir6 2.729166 1_455
In0 Ir7 2.729173 1_455
In0 Ir3 2.729362 1_555
In0 Ir2 2.729386 1_555
In1 Ir5 2.697952 1_554
In1 Ir1 2.698224 1_555
In1 Ir7 2.729167 1_554
In1 Ir4 2.729180 1_554
In1 Ir3 2.729371 1_555
In1 Ir0 2.729378 1_555
In2 Ir5 2.697959 1_555
In2 Ir1 2.698218 1_555
In2 Ir6 2.729164 1_555
In2 Ir4 2.729171 1_555
In2 Ir0 2.729354 1_555
In2 Ir2 2.729378 1_555
