# generated using pymatgen
data_Cs6ScSe4
_symmetry_space_group_name_H-M   'P 1'
_cell_length_a   11.42729947
_cell_length_b   11.42729994
_cell_length_c   8.71759670
_cell_angle_alpha   90.00000000
_cell_angle_beta   90.00000000
_cell_angle_gamma   119.99999864
_symmetry_Int_Tables_number   1
_chemical_formula_structural   Cs6ScSe4
_chemical_formula_sum   'Cs12 Sc2 Se8'
_cell_volume   985.85863947
_cell_formula_units_Z   2
loop_
 _symmetry_equiv_pos_site_id
 _symmetry_equiv_pos_as_xyz
  1  'x, y, z'
loop_
 _atom_site_type_symbol
 _atom_site_label
 _atom_site_symmetry_multiplicity
 _atom_site_fract_x
 _atom_site_fract_y
 _atom_site_fract_z
 _atom_site_occupancy
  Cs  Cs0  1  0.13695753  0.86304247  0.54880261  1
  Cs  Cs1  1  0.27391505  0.13695753  0.04880261  1
  Cs  Cs2  1  0.86304247  0.72608495  0.04880261  1
  Cs  Cs3  1  0.13695753  0.27391505  0.54880261  1
  Cs  Cs4  1  0.72608495  0.86304247  0.54880261  1
  Cs  Cs5  1  0.86304247  0.13695753  0.04880261  1
  Cs  Cs6  1  0.53164045  0.46835955  0.35738836  1
  Cs  Cs7  1  0.06328090  0.53164045  0.85738836  1
  Cs  Cs8  1  0.46835955  0.93671910  0.85738836  1
  Cs  Cs9  1  0.53164045  0.06328090  0.35738836  1
  Cs  Cs10  1  0.93671910  0.46835955  0.35738836  1
  Cs  Cs11  1  0.46835955  0.53164045  0.85738836  1
  Sc  Sc0  1  0.33333300  0.66666700  0.25670481  1
  Sc  Sc1  1  0.66666700  0.33333300  0.75670481  1
  Se  Se0  1  0.33333300  0.66666700  0.55485515  1
  Se  Se1  1  0.66666700  0.33333300  0.05485515  1
  Se  Se2  1  0.20957972  0.79042028  0.15985672  1
  Se  Se3  1  0.41915945  0.20957972  0.65985672  1
  Se  Se4  1  0.79042028  0.58084055  0.65985672  1
  Se  Se5  1  0.20957972  0.41915945  0.15985672  1
  Se  Se6  1  0.58084055  0.79042028  0.15985672  1
  Se  Se7  1  0.79042028  0.20957972  0.65985672  1
loop_
_geom_bond_atom_site_label_1
_geom_bond_atom_site_label_2
_geom_bond_distance
_geom_bond_site_symmetry_2
Cs0 Se2 3.682763 1_555
Cs0 Se4 3.774644 1_455
Cs0 Se3 3.774644 1_565
Cs0 Se0 3.887152 1_555
Cs1 Se3 3.682763 1_554
Cs1 Se5 3.774644 1_555
Cs1 Se2 3.774644 1_545
Cs1 Se1 3.887162 1_555
Cs2 Se4 3.682763 1_554
Cs2 Se6 3.774644 1_555
Cs2 Se2 3.774644 1_655
Cs2 Se1 3.887162 1_555
Cs3 Se5 3.682763 1_555
Cs3 Se7 3.774644 1_455
Cs3 Se3 3.774644 1_555
Cs3 Se0 3.887162 1_555
Cs4 Se6 3.682763 1_555
Cs4 Se4 3.774644 1_555
Cs4 Se7 3.774644 1_565
Cs4 Se0 3.887162 1_555
Cs5 Se7 3.682763 1_554
Cs5 Se5 3.774644 1_655
Cs5 Se6 3.774644 1_545
Cs5 Se1 3.887152 1_555
Cs6 Se4 3.680843 1_555
Cs6 Se3 3.680843 1_555
Cs6 Se1 3.754747 1_555
Cs6 Se5 3.841449 1_555
Cs6 Se6 3.841449 1_555
Cs7 Se5 3.680843 1_556
Cs7 Se2 3.680843 1_556
Cs7 Se0 3.754740 1_555
Cs7 Se4 3.841449 1_455
Cs7 Se7 3.841449 1_455
Cs8 Se6 3.680843 1_556
Cs8 Se2 3.680843 1_556
Cs8 Se0 3.754740 1_555
Cs8 Se3 3.841449 1_565
Cs8 Se7 3.841449 1_565
Cs9 Se3 3.680843 1_555
Cs9 Se7 3.680843 1_555
Cs9 Se1 3.754740 1_555
Cs9 Se6 3.841449 1_545
Cs9 Se2 3.841449 1_545
Cs10 Se4 3.680843 1_555
Cs10 Se7 3.680843 1_555
Cs10 Se1 3.754740 1_555
Cs10 Se5 3.841449 1_655
Cs10 Se2 3.841449 1_655
Cs11 Se5 3.680843 1_556
Cs11 Se6 3.680843 1_556
Cs11 Se0 3.754747 1_555
Cs11 Se4 3.841449 1_555
Cs11 Se3 3.841449 1_555
Sc0 Se2 2.590831 1_555
Sc0 Se6 2.590841 1_555
Sc0 Se5 2.590841 1_555
Sc0 Se0 2.599154 1_555
Sc1 Se7 2.590831 1_555
Sc1 Se3 2.590841 1_555
Sc1 Se4 2.590841 1_555
Sc1 Se1 2.599154 1_556
