# generated using pymatgen
data_NbSiNi3Rh
_symmetry_space_group_name_H-M   'P 1'
_cell_length_a   4.74695289
_cell_length_b   4.74695223
_cell_length_c   4.63054161
_cell_angle_alpha   59.16483791
_cell_angle_beta   59.16484339
_cell_angle_gamma   60.00000178
_symmetry_Int_Tables_number   1
_chemical_formula_structural   NbSiNi3Rh
_chemical_formula_sum   'Nb1 Si1 Ni3 Rh1'
_cell_volume   72.83621453
_cell_formula_units_Z   1
loop_
 _symmetry_equiv_pos_site_id
 _symmetry_equiv_pos_as_xyz
  1  'x, y, z'
loop_
 _atom_site_type_symbol
 _atom_site_label
 _atom_site_symmetry_multiplicity
 _atom_site_fract_x
 _atom_site_fract_y
 _atom_site_fract_z
 _atom_site_occupancy
  Nb  Nb0  1  0.00199052  0.00199052  0.99402943  1
  Si  Si0  1  0.62287523  0.62287523  0.13137531  1
  Ni  Ni0  1  0.62376893  0.12560976  0.62685437  1
  Ni  Ni1  1  0.12560976  0.62376893  0.62685437  1
  Ni  Ni2  1  0.62376893  0.62376893  0.62685437  1
  Rh  Rh0  1  0.25198862  0.25198862  0.24403414  1
loop_
_geom_bond_atom_site_label_1
_geom_bond_atom_site_label_2
_geom_bond_distance
_geom_bond_site_symmetry_2
Nb0 Ni2 2.733212 1_446
Nb0 Ni1 2.733213 1_546
Nb0 Ni0 2.733214 1_456
Nb0 Ni1 2.740713 1_545
Nb0 Ni0 2.740713 1_455
Nb0 Ni2 2.740715 1_455
Nb0 Ni2 2.740716 1_545
Nb0 Ni1 2.740717 1_555
Nb0 Ni0 2.740718 1_555
Nb0 Si0 2.788185 1_456
Nb0 Si0 2.788185 1_446
Nb0 Si0 2.788185 1_546
Nb0 Rh0 2.799274 1_555
Nb0 Rh0 2.895147 1_556
Nb0 Rh0 2.895150 1_546
Nb0 Rh0 2.895151 1_456
Ni0 Si0 2.298691 1_555
Ni0 Si0 2.331866 1_546
Ni0 Ni2 2.364738 1_555
Ni0 Ni1 2.364738 1_555
Ni0 Ni2 2.382214 1_545
Ni0 Ni1 2.382215 1_645
Ni0 Rh0 2.677752 1_556
Ni0 Rh0 2.770372 1_655
Ni0 Rh0 2.770380 1_555
Ni1 Si0 2.298691 1_555
Ni1 Si0 2.331866 1_456
Ni1 Ni2 2.364738 1_555
Ni1 Ni2 2.382215 1_455
Ni1 Rh0 2.677752 1_556
Ni1 Rh0 2.770372 1_565
Ni1 Rh0 2.770380 1_555
Ni2 Si0 2.298693 1_555
Ni2 Si0 2.331864 1_556
Ni2 Rh0 2.677756 1_556
Ni2 Rh0 2.770376 1_565
Ni2 Rh0 2.770376 1_655
Rh0 Si0 2.772722 1_545
Rh0 Si0 2.772722 1_455
Rh0 Si0 2.772726 1_555
