# generated using pymatgen
data_Ba(PdSe2)2
_symmetry_space_group_name_H-M   'P 1'
_cell_length_a   7.13519079
_cell_length_b   7.00863132
_cell_length_c   7.69495393
_cell_angle_alpha   70.11180954
_cell_angle_beta   90.02655236
_cell_angle_gamma   90.06895878
_symmetry_Int_Tables_number   1
_chemical_formula_structural   Ba(PdSe2)2
_chemical_formula_sum   'Ba2 Pd4 Se8'
_cell_volume   361.85773449
_cell_formula_units_Z   2
loop_
 _symmetry_equiv_pos_site_id
 _symmetry_equiv_pos_as_xyz
  1  'x, y, z'
loop_
 _atom_site_type_symbol
 _atom_site_label
 _atom_site_symmetry_multiplicity
 _atom_site_fract_x
 _atom_site_fract_y
 _atom_site_fract_z
 _atom_site_occupancy
  Ba  Ba0  1  0.25031703  0.28376433  0.50710408  1
  Ba  Ba1  1  0.75225458  0.71728276  0.49243740  1
  Pd  Pd0  1  0.99956532  0.99953356  0.00027097  1
  Pd  Pd1  1  0.49960488  0.00012795  0.99981082  1
  Pd  Pd2  1  0.24983416  0.51620916  0.99045753  1
  Pd  Pd3  1  0.74957772  0.48345101  0.00958738  1
  Se  Se0  1  0.25026902  0.78547967  0.50632952  1
  Se  Se1  1  0.75030203  0.21470239  0.49379570  1
  Se  Se2  1  0.74952520  0.95872408  0.79623628  1
  Se  Se3  1  0.24966925  0.04125979  0.20380636  1
  Se  Se4  1  0.00395760  0.36967170  0.85186079  1
  Se  Se5  1  0.50436949  0.63004148  0.14867496  1
  Se  Se6  1  0.49531201  0.37038172  0.85112567  1
  Se  Se7  1  0.99544170  0.62936940  0.14850255  1
loop_
_geom_bond_atom_site_label_1
_geom_bond_atom_site_label_2
_geom_bond_distance
_geom_bond_site_symmetry_2
Ba0 Se3 3.321815 1_555
Ba0 Se6 3.393923 1_555
Ba0 Se4 3.403510 1_555
Ba0 Se0 3.494325 1_545
Ba0 Se5 3.496118 1_555
Ba0 Se7 3.499600 1_455
Ba0 Se0 3.514315 1_555
Ba0 Se1 3.605898 1_455
Ba0 Se1 3.606933 1_555
Ba1 Se2 3.319685 1_555
Ba1 Se7 3.392803 1_555
Ba1 Se5 3.404844 1_555
Ba1 Se1 3.489845 1_565
Ba1 Se4 3.497390 1_655
Ba1 Se6 3.509799 1_555
Ba1 Se1 3.518869 1_555
Ba1 Se0 3.591247 1_655
Ba1 Se0 3.620517 1_555
Pd0 Se7 2.453371 1_555
Pd0 Se4 2.453373 1_664
Pd0 Se3 2.455779 1_665
Pd0 Se2 2.455908 1_554
Pd1 Se5 2.453524 1_546
Pd1 Se6 2.454383 1_555
Pd1 Se2 2.455838 1_545
Pd1 Se3 2.457476 1_556
Pd2 Se4 2.451364 1_555
Pd2 Se6 2.452255 1_555
Pd2 Se7 2.462620 1_456
Pd2 Se5 2.464243 1_556
Pd2 Se3 3.171377 1_556
Pd3 Se7 2.450261 1_555
Pd3 Se5 2.452826 1_555
Pd3 Se6 2.461340 1_554
Pd3 Se4 2.463209 1_654
Pd3 Se2 3.173363 1_554
Se0 Se3 2.406973 1_565
Se1 Se2 2.407096 1_545
