# generated using pymatgen
data_Ta3Ti8Mo3P8
_symmetry_space_group_name_H-M   'P 1'
_cell_length_a   7.48784164
_cell_length_b   7.48783964
_cell_length_c   13.57781500
_cell_angle_alpha   76.35295885
_cell_angle_beta   76.35296168
_cell_angle_gamma   26.13335946
_symmetry_Int_Tables_number   1
_chemical_formula_structural   Ta3Ti8Mo3P8
_chemical_formula_sum   'Ta3 Ti8 Mo3 P8'
_cell_volume   325.32936093
_cell_formula_units_Z   1
loop_
 _symmetry_equiv_pos_site_id
 _symmetry_equiv_pos_as_xyz
  1  'x, y, z'
loop_
 _atom_site_type_symbol
 _atom_site_label
 _atom_site_symmetry_multiplicity
 _atom_site_fract_x
 _atom_site_fract_y
 _atom_site_fract_z
 _atom_site_occupancy
  Ta  Ta0  1  0.50000000  0.50000000  0.50000000  1
  Ta  Ta1  1  0.42878269  0.42878269  0.17254261  1
  Ta  Ta2  1  0.57121731  0.57121731  0.82745739  1
  Ti  Ti0  1  0.20862197  0.20862197  0.20447608  1
  Ti  Ti1  1  0.79137803  0.79137803  0.79552392  1
  Ti  Ti2  1  0.33955477  0.33955477  0.97000174  1
  Ti  Ti3  1  0.66044523  0.66044523  0.02999826  1
  Ti  Ti4  1  0.00268974  0.00268974  0.33328924  1
  Ti  Ti5  1  0.99731026  0.99731026  0.66671076  1
  Ti  Ti6  1  0.17752984  0.17752984  0.45934938  1
  Ti  Ti7  1  0.82247016  0.82247016  0.54065062  1
  Mo  Mo0  1  0.00000000  0.00000000  0.00000000  1
  Mo  Mo1  1  0.19738889  0.19738889  0.68910541  1
  Mo  Mo2  1  0.80261111  0.80261111  0.31089459  1
  P  P0  1  0.18025125  0.18025125  0.89158205  1
  P  P1  1  0.81974875  0.81974875  0.10841795  1
  P  P2  1  0.37344767  0.37344767  0.39652125  1
  P  P3  1  0.62655233  0.62655233  0.60347875  1
  P  P4  1  0.36986313  0.36986313  0.66177810  1
  P  P5  1  0.63013687  0.63013687  0.33822190  1
  P  P6  1  0.06409570  0.06409570  0.15080795  1
  P  P7  1  0.93590430  0.93590430  0.84919205  1
loop_
_geom_bond_atom_site_label_1
_geom_bond_atom_site_label_2
_geom_bond_distance
_geom_bond_site_symmetry_2
Mo0 P6 2.448383 1_555
Mo0 P7 2.448383 1_444
Mo0 P0 2.684423 1_554
Mo0 P1 2.684423 1_445
Mo0 Ta1 2.873090 1_545
Mo0 Ta2 2.873090 1_454
Mo0 Ta1 2.873091 1_455
Mo0 Ta2 2.873091 1_544
Mo0 Ti3 2.995299 1_455
Mo0 Ti2 2.995299 1_544
Mo0 Ti3 2.995301 1_545
Mo0 Ti2 2.995301 1_454
Mo1 P3 2.422267 1_545
Mo1 P3 2.422268 1_455
Mo1 P4 2.452733 1_555
Mo1 P0 2.699556 1_555
Mo1 Ti1 2.791655 1_455
Mo1 Ti1 2.791656 1_545
Mo1 Ta2 2.847369 1_545
Mo1 Ta2 2.847370 1_455
Mo1 Ti7 2.911464 1_455
Mo1 Ti7 2.911465 1_545
Mo1 Ti5 3.006889 1_445
Mo1 Ti6 3.202114 1_555
Mo2 P2 2.422267 1_565
Mo2 P2 2.422268 1_655
Mo2 P5 2.452733 1_555
Mo2 P1 2.699556 1_555
Mo2 Ti0 2.791655 1_655
Mo2 Ti0 2.791656 1_565
Mo2 Ta1 2.847369 1_565
Mo2 Ta1 2.847370 1_655
Mo2 Ti6 2.911464 1_655
Mo2 Ti6 2.911465 1_565
Mo2 Ti4 3.006889 1_665
Mo2 Ti7 3.202114 1_555
P0 Ti1 2.484092 1_455
P0 Ti1 2.484094 1_545
P0 Ti3 2.493673 1_546
P0 Ti3 2.493673 1_456
P0 Ta2 2.612421 1_545
P0 Ta2 2.612422 1_455
P0 Ti2 2.780817 1_555
P1 Ti0 2.484092 1_655
P1 Ti0 2.484094 1_565
P1 Ti2 2.493673 1_564
P1 Ti2 2.493673 1_654
P1 Ta1 2.612421 1_565
P1 Ta1 2.612422 1_655
P1 Ti3 2.780817 1_555
P2 Ti4 2.524575 1_565
P2 Ti4 2.524576 1_655
P2 Ti7 2.558048 1_545
P2 Ti7 2.558048 1_455
P2 Ta0 2.576588 1_555
P2 Ti6 2.777592 1_555
P2 Ta1 2.951431 1_555
P3 Ti5 2.524575 1_545
P3 Ti5 2.524576 1_455
P3 Ti6 2.558048 1_565
P3 Ti6 2.558048 1_655
P3 Ta0 2.576588 1_555
P3 Ti7 2.777592 1_555
P3 Ta2 2.951431 1_555
P4 Ti5 2.527302 1_455
P4 Ti5 2.527303 1_545
P4 Ta0 2.531594 1_555
P4 Ti1 2.543091 1_545
P4 Ti1 2.543091 1_455
P4 Ti7 2.568955 1_545
P4 Ti7 2.568955 1_455
P5 Ti4 2.527302 1_655
P5 Ti4 2.527303 1_565
P5 Ta0 2.531594 1_555
P5 Ti0 2.543091 1_565
P5 Ti0 2.543091 1_655
P5 Ti6 2.568955 1_565
P5 Ti6 2.568955 1_655
P6 Ti0 2.391720 1_555
P6 Ti4 2.422033 1_555
P6 Ti3 2.532831 1_455
P6 Ti3 2.532832 1_545
P6 Ta1 2.562652 1_545
P6 Ta1 2.562654 1_455
P7 Ti1 2.391720 1_555
P7 Ti5 2.422033 1_555
P7 Ti2 2.532831 1_655
P7 Ti2 2.532832 1_565
P7 Ta2 2.562652 1_565
P7 Ta2 2.562654 1_655
