# generated using pymatgen
data_Sr4Si6NiHg
_symmetry_space_group_name_H-M   'P 1'
_cell_length_a   11.82133443
_cell_length_b   10.26873321
_cell_length_c   8.28549871
_cell_angle_alpha   78.35311633
_cell_angle_beta   58.29613831
_cell_angle_gamma   43.35073986
_symmetry_Int_Tables_number   1
_chemical_formula_structural   Sr4Si6NiHg
_chemical_formula_sum   'Sr8 Si12 Ni2 Hg2'
_cell_volume   558.71821209
_cell_formula_units_Z   2
loop_
 _symmetry_equiv_pos_site_id
 _symmetry_equiv_pos_as_xyz
  1  'x, y, z'
loop_
 _atom_site_type_symbol
 _atom_site_label
 _atom_site_symmetry_multiplicity
 _atom_site_fract_x
 _atom_site_fract_y
 _atom_site_fract_z
 _atom_site_occupancy
  Sr  Sr0  1  0.13164217  0.11704333  0.87196426  1
  Sr  Sr1  1  0.87196526  0.87934924  0.13164117  1
  Sr  Sr2  1  0.13295767  0.11835883  0.37065076  1
  Sr  Sr3  1  0.37065176  0.37803574  0.13295667  1
  Sr  Sr4  1  0.61846464  0.63082830  0.37815477  1
  Sr  Sr5  1  0.37815477  0.37255229  0.61846464  1
  Sr  Sr6  1  0.61917270  0.63153536  0.87744771  1
  Sr  Sr7  1  0.87744871  0.87184623  0.61917170  1
  Si  Si0  1  0.90625955  0.59177556  0.43640358  1
  Si  Si1  1  0.09669414  0.39928048  0.57825484  1
  Si  Si2  1  0.43640358  0.06556131  0.90625955  1
  Si  Si3  1  0.57825484  0.92576954  0.09669414  1
  Si  Si4  1  0.32423046  0.67174516  0.85071952  1
  Si  Si5  1  0.65822444  0.34374045  0.18443869  1
  Si  Si6  1  0.85071952  0.15330586  0.32423046  1
  Si  Si7  1  0.18443869  0.81359642  0.65822444  1
  Si  Si8  1  0.90701041  0.59299059  0.90700941  1
  Si  Si9  1  0.57558763  0.92441337  0.57558663  1
  Si  Si10  1  0.32558763  0.67441337  0.32558763  1
  Si  Si11  1  0.65700941  0.34299059  0.65700941  1
  Ni  Ni0  1  0.16696818  0.83303182  0.16696818  1
  Ni  Ni1  1  0.41696818  0.08303182  0.41696818  1
  Hg  Hg0  1  0.08259283  0.41740717  0.08259283  1
  Hg  Hg1  1  0.83259283  0.16740717  0.83259283  1
loop_
_geom_bond_atom_site_label_1
_geom_bond_atom_site_label_2
_geom_bond_distance
_geom_bond_site_symmetry_2
Si0 Si9 2.389863 1_555
Si0 Si1 2.393281 1_655
Si0 Sr7 3.236079 1_555
Si0 Sr6 3.254275 1_555
Si0 Sr3 3.387242 1_655
Si0 Sr1 3.403677 1_555
Si0 Sr4 3.410514 1_555
Si0 Sr2 3.420463 1_655
Si1 Si8 2.384437 1_455
Si1 Sr3 3.299552 1_555
Si1 Sr2 3.300611 1_555
Si1 Sr0 3.310605 1_555
Si1 Sr5 3.325195 1_555
Si1 Sr6 3.434834 1_455
Si1 Sr7 3.439491 1_455
Si2 Si9 2.389863 1_545
Si2 Si3 2.393280 1_546
Si2 Sr6 3.236056 1_545
Si2 Sr7 3.254293 1_545
Si2 Sr2 3.387221 1_556
Si2 Sr0 3.403677 1_555
Si2 Sr5 3.410514 1_555
Si2 Sr3 3.420494 1_556
Si3 Si8 2.384433 1_554
Si3 Sr2 3.299526 1_565
Si3 Sr3 3.300651 1_565
Si3 Sr1 3.310611 1_555
Si3 Sr4 3.325188 1_555
Si3 Sr7 3.434853 1_554
Si3 Sr6 3.439459 1_554
Si4 Si7 2.393288 1_555
Si4 Sr0 3.299540 1_565
Si4 Sr1 3.300638 1_456
Si4 Sr3 3.310603 1_556
Si4 Sr6 3.325195 1_555
Si4 Sr5 3.434852 1_555
Si4 Sr4 3.439474 1_555
Si5 Si6 2.393288 1_555
Si5 Sr5 3.236060 1_555
Si5 Sr4 3.254279 1_555
Si5 Sr1 3.387230 1_545
Si5 Sr3 3.403654 1_555
Si5 Sr6 3.410515 1_554
Si5 Sr0 3.420476 1_654
Si6 Sr1 3.299554 1_545
Si6 Sr0 3.300639 1_654
Si6 Sr2 3.310623 1_655
Si6 Sr7 3.325181 1_545
Si6 Sr4 3.434843 1_555
Si6 Sr5 3.439478 1_555
Si7 Sr4 3.236060 1_555
Si7 Sr5 3.254279 1_555
Si7 Sr0 3.387224 1_565
Si7 Sr2 3.403680 1_565
Si7 Sr7 3.410496 1_455
Si7 Sr1 3.420470 1_456
Si8 Sr6 3.266907 1_555
Si8 Sr7 3.266914 1_555
Si8 Sr5 3.422588 1_655
Si8 Sr4 3.422601 1_556
Si8 Sr1 3.451094 1_556
Si8 Sr0 3.451112 1_655
Si9 Sr1 3.286836 1_555
Si9 Sr0 3.286844 1_565
Si9 Sr5 3.304364 1_565
Si9 Sr4 3.304377 1_555
Si9 Sr6 3.410220 1_555
Si9 Sr7 3.410227 1_555
Si10 Si7 2.389855 1_555
Si10 Si5 2.389862 1_555
Si10 Sr3 3.286831 1_555
Si10 Sr2 3.286845 1_565
Si10 Sr7 3.304364 1_455
Si10 Sr6 3.304373 1_554
Si10 Sr4 3.410204 1_555
Si10 Sr5 3.410216 1_555
Si11 Si6 2.384427 1_555
Si11 Si4 2.384431 1_555
Si11 Sr4 3.266907 1_555
Si11 Sr5 3.266907 1_555
Si11 Sr7 3.422585 1_545
Si11 Sr6 3.422607 1_555
Si11 Sr3 3.451101 1_556
Si11 Sr2 3.451122 1_655
Ni0 Si10 2.276027 1_555
Ni0 Si4 2.284593 1_554
Ni0 Si6 2.284597 1_465
Ni0 Sr7 3.324385 1_455
Ni0 Sr6 3.324403 1_554
Ni0 Sr0 3.328330 1_564
Ni0 Sr1 3.328330 1_455
Ni0 Sr3 3.341281 1_555
Ni0 Sr2 3.341313 1_565
Ni1 Si9 2.276019 1_545
Ni1 Si1 2.284597 1_555
Ni1 Si3 2.284600 1_545
Ni1 Sr4 3.324393 1_545
Ni1 Sr5 3.324394 1_555
Ni1 Sr2 3.328307 1_555
Ni1 Sr3 3.328333 1_555
Ni1 Sr0 3.341289 1_555
Ni1 Sr1 3.341295 1_545
Hg0 Si8 2.519435 1_454
Hg0 Si0 2.532462 1_455
Hg0 Si2 2.532462 1_554
Hg0 Sr2 3.369907 1_555
Hg0 Sr3 3.369933 1_555
Hg0 Sr1 3.376958 1_455
Hg0 Sr0 3.376963 1_554
Hg0 Sr5 3.385335 1_554
Hg0 Sr4 3.385335 1_455
Hg1 Si11 2.519442 1_555
Hg1 Si5 2.532462 1_556
Hg1 Si7 2.532462 1_645
Hg1 Sr1 3.369909 1_546
Hg1 Sr0 3.369910 1_655
Hg1 Sr3 3.376945 1_556
Hg1 Sr2 3.376966 1_655
Hg1 Sr7 3.385317 1_545
Hg1 Sr6 3.385339 1_555
