# generated using pymatgen
data_Hf6Al16Cu3Rh4
_symmetry_space_group_name_H-M   'P 1'
_cell_length_a   8.57750927
_cell_length_b   8.61503834
_cell_length_c   8.61107053
_cell_angle_alpha   59.72870187
_cell_angle_beta   59.75984126
_cell_angle_gamma   60.11211163
_symmetry_Int_Tables_number   1
_chemical_formula_structural   Hf6Al16Cu3Rh4
_chemical_formula_sum   'Hf6 Al16 Cu3 Rh4'
_cell_volume   448.57460378
_cell_formula_units_Z   1
loop_
 _symmetry_equiv_pos_site_id
 _symmetry_equiv_pos_as_xyz
  1  'x, y, z'
loop_
 _atom_site_type_symbol
 _atom_site_label
 _atom_site_symmetry_multiplicity
 _atom_site_fract_x
 _atom_site_fract_y
 _atom_site_fract_z
 _atom_site_occupancy
  Hf  Hf0  1  0.69191654  0.30956431  0.30806673  1
  Hf  Hf1  1  0.30805841  0.69047648  0.69192661  1
  Hf  Hf2  1  0.31189835  0.68813489  0.31190533  1
  Hf  Hf3  1  0.32035450  0.32012230  0.67967706  1
  Hf  Hf4  1  0.68809047  0.31193126  0.68811664  1
  Hf  Hf5  1  0.67966962  0.67988203  0.32034101  1
  Al  Al0  1  0.33614201  0.33494320  0.33202441  1
  Al  Al1  1  0.33338364  0.33479853  0.99986785  1
  Al  Al2  1  0.99984188  0.33191785  0.33345661  1
  Al  Al3  1  0.33207620  0.99695702  0.33614940  1
  Al  Al4  1  0.66380482  0.66515280  0.66798776  1
  Al  Al5  1  0.66656459  0.66527741  0.00015640  1
  Al  Al6  1  0.66804471  0.00310136  0.66380600  1
  Al  Al7  1  0.00016903  0.66797046  0.66660442  1
  Al  Al8  1  0.12456804  0.11618018  0.11640042  1
  Al  Al9  1  0.12335543  0.12253020  0.64058546  1
  Al  Al10  1  0.64058957  0.11364167  0.12330883  1
  Al  Al11  1  0.11631829  0.64282690  0.12454329  1
  Al  Al12  1  0.87553279  0.88371840  0.88355793  1
  Al  Al13  1  0.87667451  0.87747175  0.35941456  1
  Al  Al14  1  0.88355467  0.35715365  0.87550894  1
  Al  Al15  1  0.35942203  0.88648884  0.87666343  1
  Cu  Cu0  1  0.99996028  0.49961322  0.00003056  1
  Cu  Cu1  1  0.00012211  0.99988905  0.49992057  1
  Cu  Cu2  1  0.49983144  0.50020442  0.00000554  1
  Rh  Rh0  1  0.00000781  0.99997248  0.99998797  1
  Rh  Rh1  1  0.50006689  0.00002462  0.99997743  1
  Rh  Rh2  1  0.99996086  0.49999980  0.50002081  1
  Rh  Rh3  1  0.50001849  0.00005190  0.49998603  1
loop_
_geom_bond_atom_site_label_1
_geom_bond_atom_site_label_2
_geom_bond_distance
_geom_bond_site_symmetry_2
Hf0 Rh3 3.121208 1_555
Hf0 Hf3 3.183953 1_555
Hf0 Hf5 3.192962 1_555
Hf0 Hf2 3.266221 1_555
Hf0 Hf4 3.266508 1_555
Hf1 Rh3 3.122004 1_565
Hf1 Hf5 3.184057 1_555
Hf1 Hf3 3.192962 1_555
Hf1 Hf2 3.266092 1_555
Hf1 Hf4 3.266166 1_555
Hf2 Rh1 3.117448 1_564
Hf2 Rh2 3.117592 1_455
Hf2 Hf5 3.156528 1_555
Hf2 Hf3 3.156855 1_555
Hf3 Hf4 3.156502 1_555
Hf3 Rh1 3.156869 1_555
Hf3 Rh2 3.157261 1_455
Hf3 Rh3 3.168166 1_555
Hf4 Rh2 3.116736 1_555
Hf4 Rh1 3.116814 1_555
Hf4 Hf5 3.156604 1_555
Hf5 Rh2 3.156625 1_555
Hf5 Rh1 3.156849 1_564
Hf5 Rh3 3.168666 1_565
Al0 Cu2 2.453058 1_555
Al0 Rh3 2.488099 1_555
Al0 Rh2 2.493100 1_455
Al0 Al9 2.698462 1_555
Al0 Al11 2.722842 1_555
Al0 Al10 2.729426 1_555
Al0 Hf0 2.854713 1_555
Al0 Hf2 2.864589 1_555
Al0 Hf3 2.867085 1_555
Al0 Al1 2.872843 1_554
Al0 Al2 2.891474 1_455
Al0 Al3 2.911447 1_545
Al1 Cu2 2.469792 1_556
Al1 Cu0 2.479172 1_456
Al1 Rh1 2.500246 1_555
Al1 Al8 2.721846 1_556
Al1 Al10 2.734862 1_556
Al1 Al11 2.756088 1_556
Al1 Al2 2.856275 1_456
Al1 Hf1 2.862325 1_555
Al1 Hf4 2.865521 1_555
Al1 Hf3 2.882094 1_555
Al1 Al3 2.891237 1_546
Al2 Cu1 2.469746 1_645
Al2 Cu0 2.479372 1_555
Al2 Rh2 2.500174 1_555
Al2 Al9 2.734716 1_655
Al2 Al8 2.756616 1_655
Al2 Hf0 2.862169 1_555
Al2 Hf4 2.865320 1_555
Al2 Al3 2.872685 1_645
Al2 Hf5 2.882285 1_555
Al3 Cu1 2.452844 1_555
Al3 Rh3 2.487861 1_565
Al3 Rh1 2.493235 1_564
Al3 Al8 2.723003 1_565
Al3 Al9 2.729387 1_565
Al3 Hf1 2.854951 1_555
Al3 Hf2 2.864814 1_555
Al3 Hf5 2.866869 1_555
Al4 Cu2 2.452973 1_556
Al4 Rh3 2.488019 1_565
Al4 Rh2 2.493141 1_555
Al4 Hf1 2.854742 1_555
Al4 Hf4 2.864655 1_555
Al4 Hf5 2.867094 1_555
Al4 Al5 2.872866 1_556
Al4 Al7 2.891333 1_655
Al4 Al6 2.911633 1_565
Al5 Cu2 2.469497 1_555
Al5 Cu0 2.479056 1_555
Al5 Rh1 2.499876 1_564
Al5 Al7 2.856385 1_654
Al5 Hf0 2.862385 1_555
Al5 Hf2 2.865318 1_555
Al5 Hf5 2.882057 1_555
Al5 Al6 2.891454 1_564
Al6 Cu1 2.453085 1_645
Al6 Rh3 2.488135 1_555
Al6 Rh1 2.493208 1_555
Al6 Hf0 2.854711 1_555
Al6 Hf4 2.864574 1_555
Al6 Hf3 2.867107 1_555
Al6 Al7 2.872961 1_645
Al7 Cu1 2.469488 1_555
Al7 Cu0 2.479149 1_456
Al7 Rh2 2.499928 1_455
Al7 Hf1 2.862270 1_555
Al7 Hf2 2.865411 1_555
Al7 Hf3 2.881793 1_555
Al8 Rh0 2.511023 1_544
Al8 Rh1 2.631954 1_554
Al8 Cu1 2.688684 1_545
Al8 Cu0 2.698362 1_455
Al8 Hf2 3.094370 1_545
Al8 Hf0 3.116529 1_455
Al8 Hf3 3.157141 1_554
Al9 Rh0 2.516543 1_545
Al9 Rh3 2.639689 1_555
Al9 Rh2 2.655579 1_455
Al9 Cu1 2.719148 1_545
Al9 Hf1 3.119192 1_545
Al9 Hf4 3.135566 1_455
Al9 Hf3 3.143822 1_555
Al10 Rh0 2.516567 1_644
Al10 Rh3 2.639856 1_555
Al10 Rh1 2.655557 1_554
Al10 Al3 2.698298 1_545
Al10 Cu2 2.719336 1_555
Al10 Al12 2.863727 1_544
Al10 Al13 2.871282 1_545
Al10 Al14 2.943178 1_554
Al10 Hf0 3.118875 1_555
Al10 Hf4 3.135175 1_554
Al10 Hf5 3.144438 1_545
Al11 Rh0 2.510785 1_554
Al11 Rh2 2.631859 1_455
Al11 Cu2 2.688501 1_555
Al11 Cu0 2.703098 1_455
Al11 Al2 2.721652 1_455
Al11 Al13 2.862760 1_455
Al11 Al12 2.929537 1_454
Al11 Al15 2.944919 1_554
Al11 Hf2 3.095710 1_555
Al11 Hf1 3.116254 1_554
Al11 Hf5 3.156390 1_455
Al12 Rh0 2.510868 1_655
Al12 Rh1 2.631669 1_565
Al12 Cu1 2.689539 1_655
Al12 Cu0 2.703227 1_556
Al12 Al5 2.721465 1_556
Al12 Al6 2.722473 1_565
Al12 Al7 2.756185 1_655
Al12 Al9 2.944127 1_665
Al12 Hf4 3.095400 1_565
Al12 Hf1 3.115504 1_655
Al12 Hf5 3.157408 1_556
Al13 Rh0 2.516704 1_654
Al13 Rh3 2.639649 1_565
Al13 Rh2 2.655593 1_555
Al13 Al4 2.698443 1_555
Al13 Cu1 2.717930 1_655
Al13 Al6 2.729358 1_565
Al13 Al7 2.735042 1_655
Al13 Al8 2.943935 1_665
Al13 Hf0 3.119464 1_565
Al13 Hf2 3.135303 1_655
Al13 Hf5 3.143746 1_555
Al14 Rh0 2.511030 1_645
Al14 Rh2 2.631936 1_555
Al14 Cu2 2.690109 1_556
Al14 Cu0 2.698028 1_556
Al14 Al7 2.721611 1_655
Al14 Al4 2.722976 1_555
Al14 Al5 2.756635 1_556
Al14 Al9 2.862959 1_655
Al14 Al8 2.930351 1_656
Al14 Hf4 3.094586 1_555
Al14 Hf0 3.115932 1_556
Al14 Hf3 3.157556 1_655
Al15 Rh0 2.516553 1_555
Al15 Rh3 2.639867 1_565
Al15 Rh1 2.655757 1_565
Al15 Al6 2.698749 1_565
Al15 Cu2 2.717311 1_556
Al15 Al4 2.729255 1_555
Al15 Al5 2.734664 1_556
Al15 Al8 2.862237 1_566
Al15 Al9 2.871001 1_565
Al15 Hf1 3.119601 1_555
Al15 Hf2 3.135506 1_556
Al15 Hf3 3.143525 1_565
Cu0 Hf0 3.093788 1_555
Cu0 Hf1 3.097873 1_654
Cu0 Hf3 3.159554 1_654
Cu0 Hf5 3.162467 1_555
Cu1 Hf1 3.123184 1_555
Cu1 Hf0 3.124458 1_465
Cu1 Hf2 3.138632 1_555
Cu1 Hf4 3.141517 1_465
Cu2 Hf1 3.123238 1_554
Cu2 Hf0 3.124439 1_555
Cu2 Hf2 3.139322 1_555
Cu2 Hf4 3.140796 1_554
