# generated using pymatgen
data_Mg2PN3
_symmetry_space_group_name_H-M   'P 1'
_cell_length_a   4.70687708
_cell_length_b   5.61704675
_cell_length_c   5.61704662
_cell_angle_alpha   119.64451761
_cell_angle_beta   90.00000000
_cell_angle_gamma   90.00000000
_symmetry_Int_Tables_number   1
_chemical_formula_structural   Mg2PN3
_chemical_formula_sum   'Mg4 P2 N6'
_cell_volume   129.06964409
_cell_formula_units_Z   2
loop_
 _symmetry_equiv_pos_site_id
 _symmetry_equiv_pos_as_xyz
  1  'x, y, z'
loop_
 _atom_site_type_symbol
 _atom_site_label
 _atom_site_symmetry_multiplicity
 _atom_site_fract_x
 _atom_site_fract_y
 _atom_site_fract_z
 _atom_site_occupancy
  Mg  Mg0  1  0.47103202  0.82940177  0.50305494  1
  Mg  Mg1  1  0.47103202  0.50305494  0.82940177  1
  Mg  Mg2  1  0.97103202  0.17059823  0.49694506  1
  Mg  Mg3  1  0.97103202  0.49694506  0.17059823  1
  P  P0  1  0.49199859  0.16167916  0.16167916  1
  P  P1  1  0.99199859  0.83832084  0.83832084  1
  N  N0  1  0.34555525  0.89062901  0.89062901  1
  N  N1  1  0.84555525  0.10937099  0.10937099  1
  N  N2  1  0.42014056  0.16254093  0.44309403  1
  N  N3  1  0.92014056  0.83745907  0.55690597  1
  N  N4  1  0.42014056  0.44309403  0.16254093  1
  N  N5  1  0.92014056  0.55690597  0.83745907  1
loop_
_geom_bond_atom_site_label_1
_geom_bond_atom_site_label_2
_geom_bond_distance
_geom_bond_site_symmetry_2
Mg0 N2 2.072651 1_565
Mg0 N4 2.078117 1_555
Mg0 N0 2.113258 1_555
Mg0 N3 2.132738 1_555
Mg0 N3 2.608359 1_455
Mg1 N4 2.072651 1_556
Mg1 N2 2.078117 1_555
Mg1 N0 2.113259 1_555
Mg1 N5 2.132738 1_555
Mg1 N5 2.608359 1_455
Mg2 N3 2.072651 1_545
Mg2 N5 2.078117 1_555
Mg2 N1 2.113258 1_555
Mg2 N2 2.132738 1_655
Mg2 N2 2.608359 1_555
Mg3 N5 2.072651 1_554
Mg3 N3 2.078117 1_555
Mg3 N1 2.113259 1_555
Mg3 N4 2.132738 1_655
Mg3 N4 2.608359 1_555
N0 P0 1.678716 1_566
N0 P1 1.690161 1_455
N1 P1 1.678716 1_544
N1 P0 1.690161 1_555
N2 P0 1.614165 1_555
N3 P1 1.614165 1_555
N4 P0 1.614165 1_555
N5 P1 1.614165 1_555
