# generated using pymatgen
data_LuZr4Sn3
_symmetry_space_group_name_H-M   'P 1'
_cell_length_a   8.55101159
_cell_length_b   8.60213371
_cell_length_c   5.86750598
_cell_angle_alpha   90.00000000
_cell_angle_beta   90.00000000
_cell_angle_gamma   120.19796605
_symmetry_Int_Tables_number   1
_chemical_formula_structural   LuZr4Sn3
_chemical_formula_sum   'Lu2 Zr8 Sn6'
_cell_volume   373.02509393
_cell_formula_units_Z   2
loop_
 _symmetry_equiv_pos_site_id
 _symmetry_equiv_pos_as_xyz
  1  'x, y, z'
loop_
 _atom_site_type_symbol
 _atom_site_label
 _atom_site_symmetry_multiplicity
 _atom_site_fract_x
 _atom_site_fract_y
 _atom_site_fract_z
 _atom_site_occupancy
  Lu  Lu0  1  0.75812956  0.99797834  0.25000000  1
  Lu  Lu1  1  0.24187044  0.23984878  0.25000000  1
  Zr  Zr0  1  0.66685048  0.33479342  0.99882102  1
  Zr  Zr1  1  0.33314852  0.66794294  0.99882102  1
  Zr  Zr2  1  1.00000000  0.74886229  0.25000000  1
  Zr  Zr3  1  0.66685048  0.33479342  0.50117898  1
  Zr  Zr4  1  0.33314852  0.66794294  0.50117898  1
  Zr  Zr5  1  0.24552756  0.00007918  0.75000000  1
  Zr  Zr6  1  0.00000000  0.25180466  0.75000000  1
  Zr  Zr7  1  0.75447244  0.75455162  0.75000000  1
  Sn  Sn0  1  0.39341465  0.99854490  0.25000000  1
  Sn  Sn1  1  1.00000000  0.39492644  0.25000000  1
  Sn  Sn2  1  0.60658435  0.60512925  0.25000000  1
  Sn  Sn3  1  0.60957447  0.00076039  0.75000000  1
  Sn  Sn4  1  0.39042453  0.39118492  0.75000000  1
  Sn  Sn5  1  0.00000000  0.61085451  0.75000000  1
loop_
_geom_bond_atom_site_label_1
_geom_bond_atom_site_label_2
_geom_bond_distance
_geom_bond_site_symmetry_2
Lu0 Sn2 2.948535 1_555
Lu0 Sn1 2.971982 1_565
Lu0 Sn0 3.121136 1_555
Lu0 Sn3 3.201830 1_564
Lu0 Sn3 3.201830 1_565
Lu1 Sn0 2.948528 1_545
Lu1 Sn1 2.971982 1_455
Lu1 Sn2 3.121127 1_555
Lu1 Sn4 3.201826 1_554
Lu1 Sn4 3.201826 1_555
Sn0 Zr2 2.943055 1_455
Sn0 Zr4 3.008486 1_555
Sn0 Zr1 3.008486 1_554
Sn0 Zr3 3.033461 1_565
Sn0 Zr0 3.033461 1_564
Sn0 Zr5 3.197350 1_564
Sn0 Zr5 3.197350 1_565
Sn1 Zr4 3.012089 1_655
Sn1 Zr1 3.012089 1_654
Sn1 Zr3 3.012093 1_555
Sn1 Zr0 3.012093 1_554
Sn1 Zr2 3.044604 1_555
Sn1 Zr6 3.181610 1_655
Sn1 Zr6 3.181610 1_654
Sn2 Zr2 2.943062 1_555
Sn2 Zr3 3.008486 1_555
Sn2 Zr0 3.008486 1_554
Sn2 Zr4 3.033466 1_555
Sn2 Zr1 3.033466 1_554
Sn2 Zr7 3.197353 1_554
Sn2 Zr7 3.197353 1_555
Sn3 Zr6 2.925166 1_655
Sn3 Zr7 2.942892 1_545
Sn3 Zr1 3.017853 1_545
Sn3 Zr4 3.017853 1_545
Sn3 Zr0 3.035136 1_555
Sn3 Zr3 3.035136 1_555
Sn3 Zr5 3.110026 1_555
Sn4 Zr6 2.925159 1_555
Sn4 Zr5 2.942885 1_555
Sn4 Zr0 3.017853 1_555
Sn4 Zr3 3.017853 1_555
Sn4 Zr1 3.035143 1_555
Sn4 Zr4 3.035143 1_555
Sn4 Zr7 3.110034 1_555
Sn5 Zr5 2.923458 1_565
Sn5 Zr7 2.923458 1_455
Sn5 Zr1 3.013423 1_555
Sn5 Zr4 3.013423 1_555
Sn5 Zr0 3.013431 1_455
Sn5 Zr3 3.013431 1_455
Sn5 Zr6 3.088595 1_555
Sn5 Zr2 3.164847 1_455
Sn5 Zr2 3.164847 1_456
