# generated using pymatgen
data_Zr4IrAuN
_symmetry_space_group_name_H-M   'P 1'
_cell_length_a   8.87420738
_cell_length_b   8.87420662
_cell_length_c   8.87420712
_cell_angle_alpha   60.00000179
_cell_angle_beta   60.00000463
_cell_angle_gamma   60.00000236
_symmetry_Int_Tables_number   1
_chemical_formula_structural   Zr4IrAuN
_chemical_formula_sum   'Zr16 Ir4 Au4 N4'
_cell_volume   494.16695540
_cell_formula_units_Z   4
loop_
 _symmetry_equiv_pos_site_id
 _symmetry_equiv_pos_as_xyz
  1  'x, y, z'
loop_
 _atom_site_type_symbol
 _atom_site_label
 _atom_site_symmetry_multiplicity
 _atom_site_fract_x
 _atom_site_fract_y
 _atom_site_fract_z
 _atom_site_occupancy
  Zr  Zr0  1  0.09570310  0.63476530  0.63476530  1
  Zr  Zr1  1  0.63476530  0.09570310  0.63476530  1
  Zr  Zr2  1  0.63476530  0.63476530  0.09570310  1
  Zr  Zr3  1  0.63476530  0.63476530  0.63476530  1
  Zr  Zr4  1  0.81847667  0.81847667  0.18152333  1
  Zr  Zr5  1  0.18152333  0.18152333  0.81847667  1
  Zr  Zr6  1  0.81847667  0.18152333  0.81847667  1
  Zr  Zr7  1  0.18152333  0.81847667  0.18152333  1
  Zr  Zr8  1  0.18152333  0.81847667  0.81847667  1
  Zr  Zr9  1  0.81847667  0.18152333  0.18152333  1
  Zr  Zr10  1  0.43208140  0.43208140  0.06791860  1
  Zr  Zr11  1  0.06791860  0.06791860  0.43208140  1
  Zr  Zr12  1  0.43208140  0.06791860  0.43208140  1
  Zr  Zr13  1  0.06791860  0.43208140  0.06791860  1
  Zr  Zr14  1  0.06791860  0.43208140  0.43208140  1
  Zr  Zr15  1  0.43208140  0.06791860  0.06791860  1
  Ir  Ir0  1  0.45354319  0.84881827  0.84881827  1
  Ir  Ir1  1  0.84881827  0.45354319  0.84881827  1
  Ir  Ir2  1  0.84881827  0.84881827  0.45354319  1
  Ir  Ir3  1  0.84881827  0.84881827  0.84881827  1
  Au  Au0  1  0.76275871  0.41241410  0.41241410  1
  Au  Au1  1  0.41241410  0.76275871  0.41241410  1
  Au  Au2  1  0.41241410  0.41241410  0.76275871  1
  Au  Au3  1  0.41241410  0.41241410  0.41241410  1
  N  N0  1  0.62164611  0.12611796  0.12611796  1
  N  N1  1  0.12611796  0.62164611  0.12611796  1
  N  N2  1  0.12611796  0.12611796  0.62164611  1
  N  N3  1  0.12611796  0.12611796  0.12611796  1
loop_
_geom_bond_atom_site_label_1
_geom_bond_atom_site_label_2
_geom_bond_distance
_geom_bond_site_symmetry_2
Ir0 Zr3 2.702123 1_555
Ir0 Zr1 2.702129 1_565
Ir0 Zr2 2.702129 1_556
Ir0 Zr8 2.710103 1_555
Ir0 Zr5 2.710114 1_565
Ir0 Zr7 2.710114 1_556
Ir1 Zr3 2.702123 1_555
Ir1 Zr2 2.702129 1_556
Ir1 Zr0 2.702129 1_655
Ir1 Zr6 2.710103 1_555
Ir1 Zr9 2.710114 1_556
Ir1 Zr5 2.710114 1_655
Ir2 Zr3 2.702123 1_555
Ir2 Zr1 2.702129 1_565
Ir2 Zr0 2.702129 1_655
Ir2 Zr4 2.710103 1_555
Ir2 Zr9 2.710114 1_565
Ir2 Zr7 2.710114 1_655
Ir3 Zr1 2.702124 1_565
Ir3 Zr0 2.702124 1_655
Ir3 Zr2 2.702124 1_556
Ir3 Zr6 2.710121 1_565
Ir3 Zr4 2.710121 1_556
Ir3 Zr8 2.710121 1_655
Au0 Zr14 2.893132 1_655
Au0 Zr11 2.893137 1_655
Au0 Zr13 2.893137 1_655
Au0 Zr3 2.913438 1_555
Au0 Zr1 2.913452 1_555
Au0 Zr2 2.913452 1_555
Au0 Zr4 3.288321 1_555
Au0 Zr6 3.288322 1_555
Au0 Zr9 3.288329 1_555
Au1 Zr12 2.893132 1_565
Au1 Zr15 2.893137 1_565
Au1 Zr11 2.893137 1_565
Au1 Zr3 2.913438 1_555
Au1 Zr2 2.913452 1_555
Au1 Zr0 2.913452 1_555
Au1 Zr8 3.288322 1_555
Au1 Zr4 3.288322 1_555
Au1 Zr7 3.288329 1_555
Au2 Zr10 2.893132 1_556
Au2 Zr15 2.893137 1_556
Au2 Zr13 2.893137 1_556
Au2 Zr3 2.913438 1_555
Au2 Zr1 2.913452 1_555
Au2 Zr0 2.913452 1_555
Au2 Zr8 3.288321 1_555
Au2 Zr6 3.288322 1_555
Au2 Zr5 3.288329 1_555
Au3 Zr12 2.893141 1_555
Au3 Zr10 2.893141 1_555
Au3 Zr14 2.893141 1_555
Au3 Zr1 2.913443 1_555
Au3 Zr2 2.913443 1_555
Au3 Zr0 2.913443 1_555
Au3 Zr7 3.288325 1_555
Au3 Zr5 3.288325 1_555
Au3 Zr9 3.288325 1_555
N0 Zr10 2.316854 1_555
N0 Zr15 2.316854 1_555
N0 Zr12 2.316854 1_555
N0 Zr4 2.343908 1_545
N0 Zr9 2.343908 1_555
N0 Zr6 2.343908 1_554
N1 Zr13 2.316854 1_555
N1 Zr14 2.316854 1_555
N1 Zr10 2.316854 1_555
N1 Zr7 2.343907 1_555
N1 Zr8 2.343908 1_554
N1 Zr4 2.343908 1_455
N2 Zr14 2.316854 1_555
N2 Zr11 2.316854 1_555
N2 Zr12 2.316854 1_555
N2 Zr8 2.343908 1_545
N2 Zr5 2.343908 1_555
N2 Zr6 2.343908 1_455
N3 Zr13 2.316854 1_555
N3 Zr11 2.316854 1_555
N3 Zr15 2.316854 1_555
N3 Zr7 2.343907 1_545
N3 Zr5 2.343908 1_554
N3 Zr9 2.343908 1_455
