# generated using pymatgen
data_YMg2(P3Pd10)2
_symmetry_space_group_name_H-M   'P 1'
_cell_length_a   8.54406465
_cell_length_b   8.54406482
_cell_length_c   8.54406383
_cell_angle_alpha   60.00000007
_cell_angle_beta   59.99999941
_cell_angle_gamma   59.99999590
_symmetry_Int_Tables_number   1
_chemical_formula_structural   YMg2(P3Pd10)2
_chemical_formula_sum   'Y1 Mg2 P6 Pd20'
_cell_volume   441.04056051
_cell_formula_units_Z   1
loop_
 _symmetry_equiv_pos_site_id
 _symmetry_equiv_pos_as_xyz
  1  'x, y, z'
loop_
 _atom_site_type_symbol
 _atom_site_label
 _atom_site_symmetry_multiplicity
 _atom_site_fract_x
 _atom_site_fract_y
 _atom_site_fract_z
 _atom_site_occupancy
  Y  Y0  1  0.75000000  0.75000000  0.75000000  1
  Mg  Mg0  1  0.25000000  0.25000000  0.25000000  1
  Mg  Mg1  1  0.00000000  0.00000000  0.00000000  1
  P  P0  1  0.73635430  0.26364570  0.26364570  1
  P  P1  1  0.26364570  0.73635430  0.73635430  1
  P  P2  1  0.26364570  0.73635430  0.26364570  1
  P  P3  1  0.73635430  0.26364570  0.73635430  1
  P  P4  1  0.26364570  0.26364570  0.73635430  1
  P  P5  1  0.73635430  0.73635430  0.26364570  1
  Pd  Pd0  1  0.38104523  0.38104523  0.38104523  1
  Pd  Pd1  1  0.61367371  0.61367371  0.61367371  1
  Pd  Pd2  1  0.38104523  0.38104523  0.85686330  1
  Pd  Pd3  1  0.38104523  0.85686330  0.38104523  1
  Pd  Pd4  1  0.61367371  0.61367371  0.15897988  1
  Pd  Pd5  1  0.61367371  0.15897988  0.61367371  1
  Pd  Pd6  1  0.85686330  0.38104523  0.38104523  1
  Pd  Pd7  1  0.15897988  0.61367371  0.61367371  1
  Pd  Pd8  1  0.34422056  0.99916240  0.99916240  1
  Pd  Pd9  1  0.65745465  0.99916240  0.99916240  1
  Pd  Pd10  1  0.99916240  0.34422056  0.65745465  1
  Pd  Pd11  1  0.99916240  0.65745465  0.34422056  1
  Pd  Pd12  1  0.99916240  0.34422056  0.99916240  1
  Pd  Pd13  1  0.65745465  0.99916240  0.34422056  1
  Pd  Pd14  1  0.99916240  0.65745465  0.99916240  1
  Pd  Pd15  1  0.34422056  0.99916240  0.65745465  1
  Pd  Pd16  1  0.99916240  0.99916240  0.34422056  1
  Pd  Pd17  1  0.99916240  0.99916240  0.65745465  1
  Pd  Pd18  1  0.65745465  0.34422056  0.99916240  1
  Pd  Pd19  1  0.34422056  0.65745465  0.99916240  1
loop_
_geom_bond_atom_site_label_1
_geom_bond_atom_site_label_2
_geom_bond_distance
_geom_bond_site_symmetry_2
Mg0 Pd0 2.742593 1_555
Mg0 Pd2 2.742600 1_554
Mg0 Pd6 2.742600 1_455
Mg0 Pd3 2.742600 1_545
Mg0 Pd10 3.313157 1_455
Mg0 Pd15 3.313157 1_545
Mg0 Pd9 3.313157 1_544
Mg0 Pd12 3.313157 1_454
Mg0 Pd14 3.313157 1_454
Mg0 Pd8 3.313157 1_544
Mg0 Pd13 3.313157 1_545
Mg0 Pd11 3.313158 1_455
Mg0 Pd17 3.313158 1_445
Mg0 Pd18 3.313158 1_554
Mg0 Pd19 3.313158 1_554
Mg0 Pd16 3.313158 1_445
Mg1 Pd16 2.933903 1_445
Mg1 Pd17 2.933903 1_444
Mg1 Pd13 2.933903 1_445
Mg1 Pd15 2.933903 1_544
Mg1 Pd19 2.933903 1_544
Mg1 Pd18 2.933903 1_454
Mg1 Pd11 2.933904 1_445
Mg1 Pd10 2.933904 1_454
Mg1 Pd8 2.933904 1_544
Mg1 Pd9 2.933904 1_444
Mg1 Pd14 2.933904 1_444
Mg1 Pd12 2.933904 1_454
P0 Pd18 2.353397 1_554
P0 Pd16 2.353397 1_545
P0 Pd12 2.353397 1_554
P0 Pd13 2.353397 1_545
P0 Pd5 2.443482 1_555
P0 Pd4 2.443482 1_555
P0 Pd6 2.478747 1_555
P0 Pd0 2.478754 1_555
P1 Pd19 2.353397 1_555
P1 Pd17 2.353397 1_455
P1 Pd14 2.353397 1_455
P1 Pd15 2.353397 1_555
P1 Pd7 2.443475 1_555
P1 Pd1 2.443481 1_555
P1 Pd3 2.478754 1_555
P1 Pd2 2.478754 1_555
P2 Pd19 2.353397 1_554
P2 Pd16 2.353397 1_455
P2 Pd8 2.353397 1_554
P2 Pd11 2.353397 1_455
P2 Pd7 2.443482 1_555
P2 Pd4 2.443482 1_555
P2 Pd3 2.478747 1_555
P2 Pd0 2.478754 1_555
P3 Pd18 2.353397 1_555
P3 Pd17 2.353397 1_545
P3 Pd9 2.353397 1_545
P3 Pd10 2.353397 1_555
P3 Pd5 2.443475 1_555
P3 Pd1 2.443481 1_555
P3 Pd6 2.478754 1_555
P3 Pd2 2.478754 1_555
P4 Pd12 2.353397 1_455
P4 Pd8 2.353397 1_545
P4 Pd10 2.353397 1_455
P4 Pd15 2.353397 1_545
P4 Pd5 2.443482 1_555
P4 Pd7 2.443482 1_555
P4 Pd2 2.478747 1_555
P4 Pd0 2.478754 1_555
P5 Pd14 2.353397 1_554
P5 Pd9 2.353397 1_554
P5 Pd11 2.353397 1_555
P5 Pd13 2.353397 1_555
P5 Pd4 2.443475 1_555
P5 Pd1 2.443481 1_555
P5 Pd3 2.478754 1_555
P5 Pd6 2.478754 1_555
Pd0 Pd18 2.983344 1_554
Pd0 Pd19 2.983344 1_554
Pd0 Pd11 2.983344 1_455
Pd0 Pd13 2.983344 1_545
Pd0 Pd10 2.983344 1_455
Pd0 Pd15 2.983344 1_545
Pd1 Y0 2.853118 1_555
Pd1 Pd19 3.012704 1_555
Pd1 Pd18 3.012704 1_555
Pd1 Pd10 3.012704 1_555
Pd1 Pd15 3.012704 1_555
Pd1 Pd11 3.012704 1_555
Pd1 Pd13 3.012704 1_555
Pd2 Pd8 2.983342 1_545
Pd2 Pd9 2.983346 1_545
Pd3 Pd8 2.983342 1_554
Pd3 Pd9 2.983346 1_554
Pd4 Y0 2.853125 1_554
Pd4 Pd9 3.012703 1_554
Pd4 Pd8 3.012707 1_554
Pd5 Y0 2.853125 1_545
Pd5 Pd9 3.012703 1_545
Pd5 Pd8 3.012707 1_545
Pd7 Y0 2.853125 1_455
Pd8 Pd9 2.676292 1_555
Pd8 Y0 3.294650 1_555
Pd9 Y0 3.294650 1_555
Pd10 Pd11 2.676292 1_555
Pd10 Pd12 2.919573 1_555
Pd10 Pd18 2.919573 1_555
Pd10 Pd15 2.948199 1_645
Pd10 Pd17 2.948199 1_545
Pd10 Pd6 2.983350 1_555
Pd10 Pd7 3.012711 1_655
Pd10 Y0 3.294650 1_555
Pd11 Pd13 2.919573 1_555
Pd11 Pd16 2.919573 1_555
Pd11 Pd14 2.948199 1_554
Pd11 Pd19 2.948199 1_654
Pd11 Pd6 2.983350 1_555
Pd11 Pd7 3.012711 1_655
Pd11 Y0 3.294650 1_555
Pd12 Pd14 2.676292 1_555
Pd12 Pd18 2.919573 1_555
Pd12 Pd8 2.948199 1_645
Pd12 Pd16 2.948199 1_546
Pd12 Pd6 2.983342 1_556
Pd12 Pd2 2.983342 1_655
Pd12 Pd4 3.012707 1_556
Pd12 Pd7 3.012707 1_655
Pd12 Y0 3.294650 1_555
Pd13 Pd15 2.676292 1_555
Pd13 Pd16 2.919573 1_555
Pd13 Pd9 2.948199 1_554
Pd13 Pd18 2.948199 1_564
Pd13 Pd3 2.983350 1_555
Pd13 Pd5 3.012711 1_565
Pd13 Y0 3.294650 1_555
Pd14 Pd9 2.919573 1_555
Pd14 Pd17 2.919573 1_555
Pd14 Pd19 2.948199 1_655
Pd14 Pd2 2.983346 1_655
Pd14 Pd6 2.983346 1_556
Pd14 Pd7 3.012703 1_655
Pd14 Pd4 3.012703 1_556
Pd14 Y0 3.294650 1_555
Pd15 Pd8 2.919573 1_555
Pd15 Pd19 2.919573 1_555
Pd15 Pd17 2.948199 1_455
Pd15 Pd3 2.983350 1_555
Pd15 Pd5 3.012711 1_565
Pd15 Y0 3.294650 1_555
Pd16 Pd17 2.676292 1_555
Pd16 Pd8 2.948199 1_654
Pd16 Pd3 2.983342 1_655
Pd16 Pd6 2.983342 1_565
Pd16 Pd5 3.012707 1_565
Pd16 Pd7 3.012707 1_655
Pd16 Y0 3.294650 1_555
Pd17 Pd9 2.919573 1_555
Pd17 Pd3 2.983346 1_655
Pd17 Pd6 2.983346 1_565
Pd17 Pd5 3.012703 1_565
Pd17 Pd7 3.012703 1_655
Pd17 Y0 3.294651 1_555
Pd18 Pd19 2.676292 1_555
Pd18 Pd9 2.948199 1_545
Pd18 Pd2 2.983350 1_555
Pd18 Pd4 3.012711 1_556
Pd18 Y0 3.294651 1_555
Pd19 Pd8 2.919573 1_555
Pd19 Pd2 2.983350 1_555
Pd19 Pd4 3.012711 1_556
Pd19 Y0 3.294650 1_555
