# generated using pymatgen
data_RbBa2Cd2Sb3
_symmetry_space_group_name_H-M   'P 1'
_cell_length_a   5.02627028
_cell_length_b   13.35617787
_cell_length_c   17.01897373
_cell_angle_alpha   90.00000000
_cell_angle_beta   90.00000000
_cell_angle_gamma   90.00000000
_symmetry_Int_Tables_number   1
_chemical_formula_structural   RbBa2Cd2Sb3
_chemical_formula_sum   'Rb4 Ba8 Cd8 Sb12'
_cell_volume   1142.51365759
_cell_formula_units_Z   4
loop_
 _symmetry_equiv_pos_site_id
 _symmetry_equiv_pos_as_xyz
  1  'x, y, z'
loop_
 _atom_site_type_symbol
 _atom_site_label
 _atom_site_symmetry_multiplicity
 _atom_site_fract_x
 _atom_site_fract_y
 _atom_site_fract_z
 _atom_site_occupancy
  Rb  Rb0  1  0.25000000  0.40353508  0.55190955  1
  Rb  Rb1  1  0.75000000  0.09646492  0.05190955  1
  Rb  Rb2  1  0.25000000  0.90353508  0.94809045  1
  Rb  Rb3  1  0.75000000  0.59646492  0.44809045  1
  Ba  Ba0  1  0.25000000  0.36895502  0.28793821  1
  Ba  Ba1  1  0.75000000  0.13104498  0.78793821  1
  Ba  Ba2  1  0.25000000  0.86895502  0.21206179  1
  Ba  Ba3  1  0.75000000  0.63104498  0.71206179  1
  Ba  Ba4  1  0.25000000  0.09677576  0.42782268  1
  Ba  Ba5  1  0.75000000  0.40322424  0.92782268  1
  Ba  Ba6  1  0.25000000  0.59677576  0.07217732  1
  Ba  Ba7  1  0.75000000  0.90322424  0.57217732  1
  Cd  Cd0  1  0.25000000  0.30112219  0.08393476  1
  Cd  Cd1  1  0.75000000  0.19887781  0.58393476  1
  Cd  Cd2  1  0.25000000  0.80112219  0.41606524  1
  Cd  Cd3  1  0.75000000  0.69887781  0.91606524  1
  Cd  Cd4  1  0.25000000  0.37078425  0.78361848  1
  Cd  Cd5  1  0.75000000  0.12921575  0.28361848  1
  Cd  Cd6  1  0.25000000  0.87078425  0.71638152  1
  Cd  Cd7  1  0.75000000  0.62921575  0.21638152  1
  Sb  Sb0  1  0.25000000  0.13187715  0.19811642  1
  Sb  Sb1  1  0.75000000  0.36812285  0.69811642  1
  Sb  Sb2  1  0.25000000  0.63187715  0.30188358  1
  Sb  Sb3  1  0.75000000  0.86812285  0.80188358  1
  Sb  Sb4  1  0.25000000  0.71896345  0.57782752  1
  Sb  Sb5  1  0.75000000  0.78103655  0.07782752  1
  Sb  Sb6  1  0.25000000  0.21896345  0.92217248  1
  Sb  Sb7  1  0.75000000  0.28103655  0.42217248  1
  Sb  Sb8  1  0.25000000  0.08212584  0.63367110  1
  Sb  Sb9  1  0.75000000  0.41787416  0.13367110  1
  Sb  Sb10  1  0.25000000  0.58212584  0.86632890  1
  Sb  Sb11  1  0.75000000  0.91787416  0.36632890  1
loop_
_geom_bond_atom_site_label_1
_geom_bond_atom_site_label_2
_geom_bond_distance
_geom_bond_site_symmetry_2
Rb0 Sb1 3.568073 1_455
Rb0 Sb1 3.568073 1_555
Rb0 Sb7 3.723968 1_455
Rb0 Sb7 3.723968 1_555
Rb0 Sb4 4.235946 1_555
Rb1 Sb0 3.568073 1_555
Rb1 Sb0 3.568073 1_655
Rb1 Sb6 3.723968 1_654
Rb1 Sb6 3.723968 1_554
Rb1 Sb5 4.235946 1_545
Rb2 Sb3 3.568073 1_455
Rb2 Sb3 3.568073 1_555
Rb2 Sb5 3.723968 1_556
Rb2 Sb5 3.723968 1_456
Rb2 Sb6 4.235946 1_565
Rb3 Sb2 3.568073 1_555
Rb3 Sb2 3.568073 1_655
Rb3 Sb4 3.723968 1_555
Rb3 Sb4 3.723968 1_655
Rb3 Sb7 4.235946 1_555
Ba0 Sb0 3.516145 1_555
Ba0 Sb2 3.519646 1_555
Ba0 Cd0 3.588190 1_555
Ba0 Sb7 3.593577 1_455
Ba0 Sb7 3.593577 1_555
Ba0 Sb9 3.692672 1_455
Ba0 Sb9 3.692672 1_555
Ba1 Sb1 3.516145 1_555
Ba1 Sb3 3.519646 1_545
Ba1 Cd1 3.588190 1_555
Ba1 Sb6 3.593577 1_655
Ba1 Sb6 3.593577 1_555
Ba1 Sb8 3.692672 1_655
Ba1 Sb8 3.692672 1_555
Ba2 Sb2 3.516145 1_555
Ba2 Sb0 3.519646 1_565
Ba2 Cd2 3.588190 1_555
Ba2 Sb5 3.593577 1_455
Ba2 Sb5 3.593577 1_555
Ba2 Sb11 3.692672 1_455
Ba2 Sb11 3.692672 1_555
Ba3 Sb3 3.516145 1_555
Ba3 Sb1 3.519646 1_555
Ba3 Cd3 3.588190 1_555
Ba3 Sb4 3.593577 1_555
Ba3 Sb4 3.593577 1_655
Ba3 Sb10 3.692672 1_655
Ba3 Sb10 3.692672 1_555
Ba4 Sb8 3.508789 1_555
Ba4 Sb7 3.518766 1_455
Ba4 Sb7 3.518766 1_555
Ba4 Cd5 3.539309 1_455
Ba4 Cd5 3.539309 1_555
Ba4 Sb11 3.622233 1_545
Ba4 Sb11 3.622233 1_445
Ba4 Cd1 3.903134 1_555
Ba4 Cd1 3.903134 1_455
Ba4 Sb0 3.937375 1_555
Ba4 Cd2 3.953868 1_545
Ba5 Sb9 3.508789 1_556
Ba5 Sb6 3.518766 1_555
Ba5 Sb6 3.518766 1_655
Ba5 Cd4 3.539309 1_655
Ba5 Cd4 3.539309 1_555
Ba5 Sb10 3.622233 1_655
Ba5 Sb10 3.622233 1_555
Ba5 Cd0 3.903134 1_556
Ba5 Cd0 3.903134 1_656
Ba5 Sb1 3.937375 1_555
Ba5 Cd3 3.953868 1_555
Ba6 Sb10 3.508789 1_554
Ba6 Sb5 3.518766 1_555
Ba6 Sb5 3.518766 1_455
Ba6 Cd7 3.539309 1_555
Ba6 Cd7 3.539309 1_455
Ba6 Sb9 3.622233 1_455
Ba6 Sb9 3.622233 1_555
Ba6 Cd3 3.903134 1_554
Ba6 Cd3 3.903134 1_454
Ba6 Sb2 3.937375 1_555
Ba6 Cd0 3.953868 1_555
Ba7 Sb11 3.508789 1_555
Ba7 Sb4 3.518766 1_555
Ba7 Sb4 3.518766 1_655
Ba7 Cd6 3.539309 1_555
Ba7 Cd6 3.539309 1_655
Ba7 Sb8 3.622233 1_565
Ba7 Sb8 3.622233 1_665
Ba7 Cd2 3.903134 1_555
Ba7 Cd2 3.903134 1_655
Ba7 Sb3 3.937375 1_555
Ba7 Cd1 3.953868 1_565
Cd0 Sb6 2.963661 1_554
Cd0 Sb0 2.980931 1_555
Cd0 Sb9 3.076353 1_455
Cd0 Sb9 3.076353 1_555
Cd0 Rb1 3.752946 1_555
Cd0 Rb1 3.752946 1_455
Cd1 Sb7 2.963661 1_555
Cd1 Sb1 2.980931 1_555
Cd1 Sb8 3.076353 1_555
Cd1 Sb8 3.076353 1_655
Cd1 Rb0 3.752946 1_555
Cd1 Rb0 3.752946 1_655
Cd2 Sb4 2.963661 1_555
Cd2 Sb2 2.980931 1_555
Cd2 Sb11 3.076353 1_455
Cd2 Sb11 3.076353 1_555
Cd2 Rb3 3.752946 1_555
Cd2 Rb3 3.752946 1_455
Cd3 Sb5 2.963661 1_556
Cd3 Sb3 2.980931 1_555
Cd3 Sb10 3.076353 1_555
Cd3 Sb10 3.076353 1_655
Cd3 Rb2 3.752946 1_555
Cd3 Rb2 3.752946 1_655
Cd4 Sb1 2.904237 1_455
Cd4 Sb1 2.904237 1_555
Cd4 Sb6 3.110006 1_555
Cd4 Sb10 3.154234 1_555
Cd5 Sb0 2.904237 1_555
Cd5 Sb0 2.904237 1_655
Cd5 Sb7 3.110006 1_555
Cd5 Sb11 3.154234 1_545
Cd6 Sb3 2.904237 1_555
Cd6 Sb3 2.904237 1_455
Cd6 Sb4 3.110006 1_555
Cd6 Sb8 3.154234 1_565
Cd7 Sb2 2.904237 1_555
Cd7 Sb2 2.904237 1_655
Cd7 Sb5 3.110006 1_555
Cd7 Sb9 3.154234 1_555
