# generated using pymatgen
data_Ca10Cd2Cu3Pd
_symmetry_space_group_name_H-M   'P 1'
_cell_length_a   9.23500934
_cell_length_b   9.23500841
_cell_length_c   9.22931587
_cell_angle_alpha   129.33287159
_cell_angle_beta   129.33286557
_cell_angle_gamma   74.52201925
_symmetry_Int_Tables_number   1
_chemical_formula_structural   Ca10Cd2Cu3Pd
_chemical_formula_sum   'Ca10 Cd2 Cu3 Pd1'
_cell_volume   458.78952428
_cell_formula_units_Z   1
loop_
 _symmetry_equiv_pos_site_id
 _symmetry_equiv_pos_as_xyz
  1  'x, y, z'
loop_
 _atom_site_type_symbol
 _atom_site_label
 _atom_site_symmetry_multiplicity
 _atom_site_fract_x
 _atom_site_fract_y
 _atom_site_fract_z
 _atom_site_occupancy
  Ca  Ca0  1  0.53098183  0.02801063  0.83584316  1
  Ca  Ca1  1  0.19513868  0.69216747  0.16415684  1
  Ca  Ca2  1  0.03019660  0.19216887  0.50000000  1
  Ca  Ca3  1  0.69012762  0.53338167  0.50000000  1
  Ca  Ca4  1  0.47198937  0.96901817  0.16415684  1
  Ca  Ca5  1  0.80783253  0.30486132  0.83584316  1
  Ca  Ca6  1  0.96661833  0.80987238  0.50000000  1
  Ca  Ca7  1  0.30783113  0.46980340  0.50000000  1
  Ca  Ca8  1  0.50099721  0.50230291  0.00330011  1
  Ca  Ca9  1  0.99769709  0.99900279  0.99669989  1
  Cd  Cd0  1  0.25128481  0.24871519  1.00000000  1
  Cd  Cd1  1  0.75128481  0.74871519  1.00000000  1
  Cu  Cu0  1  0.38277650  0.11722350  0.50000000  1
  Cu  Cu1  1  0.11117367  0.61107984  0.72225351  1
  Cu  Cu2  1  0.88892016  0.38882633  0.27774649  1
  Pd  Pd0  1  0.61515064  0.88484936  0.50000000  1
loop_
_geom_bond_atom_site_label_1
_geom_bond_atom_site_label_2
_geom_bond_distance
_geom_bond_site_symmetry_2
Ca0 Pd0 3.044758 1_545
Ca0 Cu0 3.068733 1_555
Ca0 Cu2 3.197704 1_556
Ca0 Cd1 3.366429 1_545
Ca0 Cd0 3.370156 1_555
Ca1 Pd0 3.044758 1_555
Ca1 Cu0 3.068733 1_565
Ca1 Cu1 3.197704 1_554
Ca1 Cd0 3.366428 1_554
Ca1 Cd1 3.370156 1_454
Ca2 Cu1 3.045222 1_555
Ca2 Cu2 3.045222 1_455
Ca2 Cu0 3.142969 1_555
Ca2 Cd0 3.362594 1_555
Ca2 Cd1 3.362594 1_444
Ca3 Cu2 3.058505 1_555
Ca3 Cu1 3.058505 1_655
Ca3 Pd0 3.132916 1_555
Ca3 Cd1 3.351314 1_555
Ca3 Cd0 3.351314 1_554
Ca4 Pd0 3.044758 1_555
Ca4 Cu0 3.068733 1_565
Ca4 Cu1 3.197704 1_554
Ca4 Cd1 3.366429 1_554
Ca4 Cd0 3.370156 1_564
Ca5 Pd0 3.044758 1_545
Ca5 Cu0 3.068733 1_555
Ca5 Cu2 3.197704 1_556
Ca5 Cd0 3.366429 1_655
Ca5 Cd1 3.370156 1_555
Ca6 Cu2 3.058504 1_555
Ca6 Cu1 3.058504 1_655
Ca6 Pd0 3.132916 1_555
Ca6 Cd1 3.351314 1_554
Ca6 Cd0 3.351314 1_665
Ca7 Cu1 3.045222 1_555
Ca7 Cu2 3.045223 1_455
Ca7 Cu0 3.142968 1_555
Ca7 Cd0 3.362594 1_554
Ca7 Cd1 3.362594 1_555
Ca8 Pd0 3.152606 1_555
Ca8 Cu0 3.181021 1_554
Ca8 Cu2 3.194732 1_555
Ca8 Cu1 3.198913 1_554
Ca8 Cd0 3.675116 1_554
Ca8 Cd1 3.675116 1_554
Ca9 Pd0 3.152606 1_555
Ca9 Cu0 3.181021 1_666
Ca9 Cu1 3.194732 1_655
Ca9 Cu2 3.198912 1_566
Ca9 Cd1 3.675116 1_555
Ca9 Cd0 3.675116 1_665
Cu0 Pd0 2.598551 1_545
Cu1 Cu2 2.481194 1_455
