# generated using pymatgen
data_In2Hg(SeO3)4
_symmetry_space_group_name_H-M   'P 1'
_cell_length_a   4.83652264
_cell_length_b   8.58893454
_cell_length_c   16.94323895
_cell_angle_alpha   69.72289768
_cell_angle_beta   90.00000000
_cell_angle_gamma   90.00000000
_symmetry_Int_Tables_number   1
_chemical_formula_structural   In2Hg(SeO3)4
_chemical_formula_sum   'In4 Hg2 Se8 O24'
_cell_volume   660.21369413
_cell_formula_units_Z   2
loop_
 _symmetry_equiv_pos_site_id
 _symmetry_equiv_pos_as_xyz
  1  'x, y, z'
loop_
 _atom_site_type_symbol
 _atom_site_label
 _atom_site_symmetry_multiplicity
 _atom_site_fract_x
 _atom_site_fract_y
 _atom_site_fract_z
 _atom_site_occupancy
  In  In0  1  0.52992738  0.15254315  0.78539157  1
  In  In1  1  0.97007262  0.15254315  0.28539157  1
  In  In2  1  0.47007262  0.84745685  0.21460843  1
  In  In3  1  0.02992738  0.84745685  0.71460843  1
  Hg  Hg0  1  0.00000000  0.00000000  0.00000000  1
  Hg  Hg1  1  0.50000000  0.00000000  0.50000000  1
  Se  Se0  1  0.55037466  0.77502617  0.87457057  1
  Se  Se1  1  0.94962534  0.77502617  0.37457057  1
  Se  Se2  1  0.44962534  0.22497383  0.12542943  1
  Se  Se3  1  0.05037466  0.22497383  0.62542943  1
  Se  Se4  1  0.01351395  0.35494059  0.86080706  1
  Se  Se5  1  0.48648605  0.35494059  0.36080706  1
  Se  Se6  1  0.98648605  0.64505941  0.13919294  1
  Se  Se7  1  0.51351395  0.64505941  0.63919294  1
  O  O0  1  0.75652788  0.35806542  0.79142948  1
  O  O1  1  0.74347212  0.35806542  0.29142948  1
  O  O2  1  0.24347212  0.64193458  0.20857052  1
  O  O3  1  0.25652788  0.64193458  0.70857052  1
  O  O4  1  0.81647240  0.71183386  0.82839692  1
  O  O5  1  0.68352760  0.71183386  0.32839692  1
  O  O6  1  0.18352760  0.28816614  0.17160308  1
  O  O7  1  0.31647240  0.28816614  0.67160308  1
  O  O8  1  0.20506079  0.18349363  0.86310716  1
  O  O9  1  0.29493921  0.18349363  0.36310716  1
  O  O10  1  0.79493921  0.81650637  0.13689284  1
  O  O11  1  0.70506079  0.81650637  0.63689284  1
  O  O12  1  0.67649849  0.94329968  0.89479984  1
  O  O13  1  0.82350151  0.94329968  0.39479984  1
  O  O14  1  0.32350151  0.05670032  0.10520016  1
  O  O15  1  0.17649849  0.05670032  0.60520016  1
  O  O16  1  0.35958667  0.90399988  0.78923715  1
  O  O17  1  0.14041333  0.90399988  0.28923715  1
  O  O18  1  0.64041333  0.09600012  0.21076285  1
  O  O19  1  0.85958667  0.09600012  0.71076285  1
  O  O20  1  0.86703253  0.25838735  0.95749531  1
  O  O21  1  0.63296747  0.25838735  0.45749531  1
  O  O22  1  0.13296747  0.74161265  0.04250469  1
  O  O23  1  0.36703253  0.74161265  0.54250469  1
loop_
_geom_bond_atom_site_label_1
_geom_bond_atom_site_label_2
_geom_bond_distance
_geom_bond_site_symmetry_2
In0 O0 2.110154 1_555
In0 O8 2.125058 1_555
In0 O7 2.140812 1_555
In0 O19 2.191448 1_555
In0 O12 2.204444 1_545
In0 O16 2.267954 1_545
In1 O1 2.110154 1_555
In1 O9 2.125058 1_655
In1 O6 2.140812 1_655
In1 O18 2.191448 1_555
In1 O13 2.204444 1_545
In1 O17 2.267954 1_645
In2 O2 2.110154 1_555
In2 O10 2.125058 1_555
In2 O5 2.140812 1_555
In2 O17 2.191448 1_555
In2 O14 2.204444 1_565
In2 O18 2.267954 1_565
In3 O3 2.110154 1_555
In3 O11 2.125058 1_455
In3 O4 2.140812 1_455
In3 O16 2.191448 1_555
In3 O15 2.204444 1_565
In3 O19 2.267954 1_465
Hg0 O20 2.179359 1_454
Hg0 O22 2.179359 1_545
Hg0 O8 2.512659 1_554
Hg0 O10 2.512659 1_445
Hg0 O14 2.542425 1_555
Hg0 O12 2.542425 1_444
Hg1 O21 2.179359 1_555
Hg1 O23 2.179359 1_545
Hg1 O9 2.512659 1_555
Hg1 O11 2.512659 1_545
Hg1 O15 2.542425 1_555
Hg1 O13 2.542425 1_545
O0 Se4 1.704540 1_655
O1 Se5 1.704540 1_555
O2 Se6 1.704540 1_455
O3 Se7 1.704540 1_555
O4 Se0 1.690346 1_555
O5 Se1 1.690346 1_555
O6 Se2 1.690346 1_555
O7 Se3 1.690346 1_555
O8 Se4 1.728697 1_555
O9 Se5 1.728697 1_555
O10 Se6 1.728697 1_555
O11 Se7 1.728697 1_555
O12 Se0 1.709326 1_555
O13 Se1 1.709326 1_555
O14 Se2 1.709326 1_555
O15 Se3 1.709326 1_555
O16 Se0 1.748963 1_555
O17 Se1 1.748963 1_455
O18 Se2 1.748963 1_555
O19 Se3 1.748963 1_655
O20 Se4 1.712231 1_655
O21 Se5 1.712231 1_555
O22 Se6 1.712231 1_455
O23 Se7 1.712231 1_555
