# generated using pymatgen
data_Rb2Li2SiS4
_symmetry_space_group_name_H-M   'P 1'
_cell_length_a   12.06636125
_cell_length_b   12.06636081
_cell_length_c   5.79240787
_cell_angle_alpha   83.05508636
_cell_angle_beta   83.05508753
_cell_angle_gamma   144.59202643
_symmetry_Int_Tables_number   1
_chemical_formula_structural   Rb2Li2SiS4
_chemical_formula_sum   'Rb4 Li4 Si2 S8'
_cell_volume   448.34950721
_cell_formula_units_Z   2
loop_
 _symmetry_equiv_pos_site_id
 _symmetry_equiv_pos_as_xyz
  1  'x, y, z'
loop_
 _atom_site_type_symbol
 _atom_site_label
 _atom_site_symmetry_multiplicity
 _atom_site_fract_x
 _atom_site_fract_y
 _atom_site_fract_z
 _atom_site_occupancy
  Rb  Rb0  1  0.80014000  0.19986000  0.75000000  1
  Rb  Rb1  1  0.06297243  0.93702757  0.75000000  1
  Rb  Rb2  1  0.19986000  0.80014000  0.25000000  1
  Rb  Rb3  1  0.93702757  0.06297243  0.25000000  1
  Li  Li0  1  0.63012257  0.36987743  0.25000000  1
  Li  Li1  1  0.50584755  0.49415245  0.25000000  1
  Li  Li2  1  0.49415245  0.50584755  0.75000000  1
  Li  Li3  1  0.36987743  0.63012257  0.75000000  1
  Si  Si0  1  0.37706214  0.62293786  0.25000000  1
  Si  Si1  1  0.62293786  0.37706214  0.75000000  1
  S  S0  1  0.51520124  0.86245138  0.36060750  1
  S  S1  1  0.74683903  0.61394661  0.43951959  1
  S  S2  1  0.25316097  0.38605339  0.56048041  1
  S  S3  1  0.48479876  0.13754862  0.63939250  1
  S  S4  1  0.38605339  0.25316097  0.06048041  1
  S  S5  1  0.13754862  0.48479876  0.13939250  1
  S  S6  1  0.86245138  0.51520124  0.86060750  1
  S  S7  1  0.61394661  0.74683903  0.93951959  1
loop_
_geom_bond_atom_site_label_1
_geom_bond_atom_site_label_2
_geom_bond_distance
_geom_bond_site_symmetry_2
Rb0 S6 3.390647 1_555
Rb0 S3 3.390647 1_555
Rb0 S0 3.415442 1_546
Rb0 S5 3.415443 1_655
Rb0 S7 3.750520 1_545
Rb0 S2 3.750520 1_655
Rb0 S0 3.842153 1_545
Rb0 S5 3.842153 1_656
Rb1 S6 3.306548 1_455
Rb1 S3 3.306549 1_565
Rb1 S1 3.478025 1_455
Rb1 S4 3.478025 1_566
Rb1 S2 3.675787 1_565
Rb1 S7 3.675787 1_455
Rb1 S1 3.742992 1_456
Rb1 S4 3.742992 1_565
Rb2 S5 3.390647 1_555
Rb2 S0 3.390647 1_555
Rb2 S3 3.415442 1_564
Rb2 S6 3.415443 1_455
Rb2 S4 3.750520 1_565
Rb2 S1 3.750520 1_455
Rb2 S3 3.842153 1_565
Rb2 S6 3.842153 1_454
Rb3 S5 3.306548 1_655
Rb3 S0 3.306549 1_545
Rb3 S2 3.478025 1_655
Rb3 S7 3.478025 1_544
Rb3 S1 3.675787 1_545
Rb3 S4 3.675787 1_655
Rb3 S2 3.742992 1_654
Rb3 S7 3.742992 1_545
Li0 S3 2.349964 1_555
Li0 S6 2.349964 1_554
Li0 S1 2.501288 1_555
Li0 S4 2.501288 1_555
Li1 S7 2.419899 1_554
Li1 S2 2.419899 1_555
Li1 S4 2.460546 1_555
Li1 S1 2.460546 1_555
Li2 S4 2.419899 1_556
Li2 S1 2.419899 1_555
Li2 S7 2.460546 1_555
Li2 S2 2.460546 1_555
Li3 S0 2.349964 1_555
Li3 S5 2.349964 1_556
Li3 S2 2.501288 1_555
Li3 S7 2.501288 1_555
S0 Si0 2.096354 1_555
S1 Si1 2.186391 1_555
S2 Si0 2.186391 1_555
S3 Si1 2.096354 1_555
S4 Si1 2.186391 1_554
S5 Si0 2.096354 1_555
S6 Si1 2.096354 1_555
S7 Si0 2.186391 1_556
