# generated using pymatgen
data_Hf2NbSb3
_symmetry_space_group_name_H-M   'P 1'
_cell_length_a   5.42035830
_cell_length_b   5.42035832
_cell_length_c   13.69460422
_cell_angle_alpha   90.00000000
_cell_angle_beta   90.00000000
_cell_angle_gamma   138.81367910
_symmetry_Int_Tables_number   1
_chemical_formula_structural   Hf2NbSb3
_chemical_formula_sum   'Hf4 Nb2 Sb6'
_cell_volume   264.95231866
_cell_formula_units_Z   2
loop_
 _symmetry_equiv_pos_site_id
 _symmetry_equiv_pos_as_xyz
  1  'x, y, z'
loop_
 _atom_site_type_symbol
 _atom_site_label
 _atom_site_symmetry_multiplicity
 _atom_site_fract_x
 _atom_site_fract_y
 _atom_site_fract_z
 _atom_site_occupancy
  Hf  Hf0  1  0.93023733  0.06976267  0.61180358  1
  Hf  Hf1  1  0.06976267  0.93023733  0.38819642  1
  Hf  Hf2  1  0.06976267  0.93023733  0.11180358  1
  Hf  Hf3  1  0.93023733  0.06976267  0.88819642  1
  Nb  Nb0  1  0.39172754  0.60827246  0.25000000  1
  Nb  Nb1  1  0.60827246  0.39172754  0.75000000  1
  Sb  Sb0  1  0.68288562  0.31711438  0.25000000  1
  Sb  Sb1  1  0.31711438  0.68288562  0.75000000  1
  Sb  Sb2  1  0.64136453  0.35863547  0.54881221  1
  Sb  Sb3  1  0.35863547  0.64136453  0.45118779  1
  Sb  Sb4  1  0.35863547  0.64136453  0.04881221  1
  Sb  Sb5  1  0.64136453  0.35863547  0.95118779  1
loop_
_geom_bond_atom_site_label_1
_geom_bond_atom_site_label_2
_geom_bond_distance
_geom_bond_site_symmetry_2
Hf0 Sb1 2.921356 1_545
Hf0 Sb1 2.921356 1_655
Hf0 Sb2 2.994879 1_655
Hf0 Sb2 2.994879 1_545
Hf0 Sb3 3.000138 1_545
Hf0 Sb3 3.000138 1_655
Hf0 Sb2 3.055774 1_555
Hf0 Nb1 3.237383 1_655
Hf0 Nb1 3.237384 1_545
Hf1 Sb0 2.921356 1_565
Hf1 Sb0 2.921356 1_455
Hf1 Sb3 2.994879 1_455
Hf1 Sb3 2.994879 1_565
Hf1 Sb2 3.000138 1_565
Hf1 Sb2 3.000138 1_455
Hf1 Sb3 3.055774 1_555
Hf1 Nb0 3.237383 1_455
Hf1 Nb0 3.237384 1_565
Hf2 Sb0 2.921356 1_565
Hf2 Sb0 2.921356 1_455
Hf2 Sb4 2.994879 1_455
Hf2 Sb4 2.994879 1_565
Hf2 Sb5 3.000138 1_564
Hf2 Sb5 3.000138 1_454
Hf2 Sb4 3.055774 1_555
Hf2 Nb0 3.237383 1_455
Hf2 Nb0 3.237384 1_565
Hf3 Sb1 2.921356 1_545
Hf3 Sb1 2.921356 1_655
Hf3 Sb5 2.994879 1_655
Hf3 Sb5 2.994879 1_545
Hf3 Sb4 3.000138 1_546
Hf3 Sb4 3.000138 1_656
Hf3 Sb5 3.055774 1_555
Hf3 Nb1 3.237383 1_655
Hf3 Nb1 3.237384 1_545
Nb0 Sb3 2.775577 1_555
Nb0 Sb4 2.775577 1_555
Nb0 Sb0 2.850668 1_455
Nb0 Sb0 2.850668 1_565
Nb0 Sb0 2.954676 1_555
Nb1 Sb5 2.775577 1_555
Nb1 Sb2 2.775577 1_555
Nb1 Sb1 2.850668 1_655
Nb1 Sb1 2.850668 1_545
Nb1 Sb1 2.954676 1_555
