# generated using pymatgen
data_Na2TbO3
_symmetry_space_group_name_H-M   'P 1'
_cell_length_a   5.90616174
_cell_length_b   5.90616174
_cell_length_c   5.91680117
_cell_angle_alpha   79.26935892
_cell_angle_beta   79.26935892
_cell_angle_gamma   118.56335300
_symmetry_Int_Tables_number   1
_chemical_formula_structural   Na2TbO3
_chemical_formula_sum   'Na4 Tb2 O6'
_cell_volume   168.80293542
_cell_formula_units_Z   2
loop_
 _symmetry_equiv_pos_site_id
 _symmetry_equiv_pos_as_xyz
  1  'x, y, z'
loop_
 _atom_site_type_symbol
 _atom_site_label
 _atom_site_symmetry_multiplicity
 _atom_site_fract_x
 _atom_site_fract_y
 _atom_site_fract_z
 _atom_site_occupancy
  Na  Na0  1  0.91956400  0.08043600  0.75000000  1
  Na  Na1  1  0.24573100  0.75426900  0.75000000  1
  Na  Na2  1  0.08043600  0.91956400  0.25000000  1
  Na  Na3  1  0.75426900  0.24573100  0.25000000  1
  Tb  Tb0  1  0.59450800  0.40549200  0.75000000  1
  Tb  Tb1  1  0.40549200  0.59450800  0.25000000  1
  O  O0  1  0.64476900  0.78502600  0.49223100  1
  O  O1  1  0.35523100  0.21497400  0.50776900  1
  O  O2  1  0.21497400  0.35523100  0.00776900  1
  O  O3  1  0.00000000  0.50000000  0.50000000  1
  O  O4  1  0.78502600  0.64476900  0.99223100  1
  O  O5  1  0.50000000  0.00000000  0.00000000  1
loop_
_geom_bond_atom_site_label_1
_geom_bond_atom_site_label_2
_geom_bond_distance
_geom_bond_site_symmetry_2
Na0 O1 2.356675 1_655
Na0 O4 2.356675 1_545
Na0 O5 2.408711 1_556
Na0 O3 2.408711 1_655
Na0 O2 2.684994 1_656
Na0 O0 2.684994 1_545
Na1 O0 2.462207 1_555
Na1 O2 2.462207 1_556
Na1 O3 2.468216 1_555
Na1 O5 2.468216 1_566
Na1 O4 2.529046 1_455
Na1 O1 2.529046 1_565
Na2 O2 2.356675 1_565
Na2 O0 2.356675 1_455
Na2 O3 2.408711 1_555
Na2 O5 2.408711 1_565
Na2 O4 2.684994 1_454
Na2 O1 2.684994 1_565
Na3 O4 2.462207 1_554
Na3 O1 2.462207 1_555
Na3 O5 2.468216 1_555
Na3 O3 2.468216 1_655
Na3 O0 2.529046 1_545
Na3 O2 2.529046 1_655
O0 Tb1 2.269719 1_555
O0 Tb0 2.315376 1_555
O1 Tb0 2.269719 1_555
O1 Tb1 2.315376 1_555
O2 Tb1 2.269719 1_555
O2 Tb0 2.315376 1_554
O3 Tb1 2.308720 1_555
O3 Tb0 2.308720 1_455
O4 Tb0 2.269719 1_555
O4 Tb1 2.315376 1_556
O5 Tb0 2.308720 1_554
O5 Tb1 2.308720 1_545
