# generated using pymatgen
data_K4Zr6SBr18
_symmetry_space_group_name_H-M   'P 1'
_cell_length_a   10.36606162
_cell_length_b   10.52848799
_cell_length_c   10.56802634
_cell_angle_alpha   118.14327118
_cell_angle_beta   100.92545751
_cell_angle_gamma   104.47280020
_symmetry_Int_Tables_number   1
_chemical_formula_structural   K4Zr6SBr18
_chemical_formula_sum   'K4 Zr6 S1 Br18'
_cell_volume   918.69913856
_cell_formula_units_Z   1
loop_
 _symmetry_equiv_pos_site_id
 _symmetry_equiv_pos_as_xyz
  1  'x, y, z'
loop_
 _atom_site_type_symbol
 _atom_site_label
 _atom_site_symmetry_multiplicity
 _atom_site_fract_x
 _atom_site_fract_y
 _atom_site_fract_z
 _atom_site_occupancy
  K  K0  1  0.19407248  0.72973936  0.57019568  1
  K  K1  1  0.84260223  0.96188620  0.76725220  1
  K  K2  1  0.15739777  0.03811380  0.23274780  1
  K  K3  1  0.80592752  0.27026064  0.42980432  1
  Zr  Zr0  1  0.34049992  0.44210075  0.76150989  1
  Zr  Zr1  1  0.36259273  0.63213330  0.13926852  1
  Zr  Zr2  1  0.65236374  0.74579878  0.04517607  1
  Zr  Zr3  1  0.65950008  0.55789925  0.23849011  1
  Zr  Zr4  1  0.34763626  0.25420122  0.95482393  1
  Zr  Zr5  1  0.63740727  0.36786670  0.86073148  1
  S  S0  1  0.50000000  0.50000000  0.00000000  1
  Br  Br0  1  0.82802894  0.41937341  0.11173091  1
  Br  Br1  1  0.52623614  0.71201883  0.42184597  1
  Br  Br2  1  0.17014803  0.97541690  0.90064572  1
  Br  Br3  1  0.17197106  0.58062659  0.88826909  1
  Br  Br4  1  0.84473962  0.84128861  0.31878368  1
  Br  Br5  1  0.50626346  0.29224770  0.21673218  1
  Br  Br6  1  0.78830868  0.21905285  0.70436681  1
  Br  Br7  1  0.15526038  0.15871139  0.68121632  1
  Br  Br8  1  0.51622850  0.92060281  0.20262354  1
  Br  Br9  1  0.82285887  0.62867158  0.89903861  1
  Br  Br10  1  0.21169132  0.78094715  0.29563319  1
  Br  Br11  1  0.15585589  0.37623760  0.49133860  1
  Br  Br12  1  0.49373654  0.70775230  0.78326782  1
  Br  Br13  1  0.82985197  0.02458310  0.09935428  1
  Br  Br14  1  0.47376386  0.28798117  0.57815403  1
  Br  Br15  1  0.17714113  0.37132842  0.10096139  1
  Br  Br16  1  0.84414411  0.62376240  0.50866140  1
  Br  Br17  1  0.48377150  0.07939719  0.79737646  1
loop_
_geom_bond_atom_site_label_1
_geom_bond_atom_site_label_2
_geom_bond_distance
_geom_bond_site_symmetry_2
S0 Zr3 2.434089 1_555
S0 Zr0 2.434089 1_554
S0 Zr4 2.434186 1_554
S0 Zr2 2.434186 1_555
S0 Zr5 2.446208 1_554
S0 Zr1 2.446208 1_555
Br0 Zr3 2.700213 1_555
Br0 Zr5 2.712070 1_554
Br1 Zr3 2.732217 1_555
Br1 Zr1 2.738625 1_555
Br1 K1 3.618163 1_555
Br2 Zr4 2.764812 1_565
Br2 K2 3.287077 1_566
Br2 K0 3.327940 1_555
Br2 K1 3.360126 1_455
Br3 Zr0 2.700213 1_555
Br3 Zr1 2.712070 1_556
Br4 Zr2 2.723609 1_555
Br4 Zr3 2.727589 1_555
Br5 Zr4 2.724874 1_554
Br5 Zr3 2.726345 1_555
Br5 K3 3.601809 1_555
Br6 Zr5 2.719340 1_555
Br6 K3 3.220346 1_555
Br6 K1 3.225949 1_545
Br7 Zr4 2.723609 1_555
Br7 Zr0 2.727589 1_555
Br8 Zr2 2.728847 1_555
Br8 Zr1 2.732894 1_555
Br8 K3 3.426098 1_565
Br9 Zr2 2.712348 1_556
Br9 Zr5 2.723458 1_555
Br10 Zr1 2.719340 1_555
Br10 K0 3.220346 1_555
Br10 K2 3.225949 1_565
Br11 Zr0 2.773753 1_555
Br11 K0 3.303852 1_555
Br11 K2 3.317987 1_555
Br11 K3 3.350231 1_455
Br12 Zr2 2.724874 1_556
Br12 Zr0 2.726345 1_555
Br12 K0 3.601809 1_555
Br13 Zr2 2.764812 1_545
Br13 K1 3.287077 1_544
Br13 K3 3.327940 1_555
Br13 K2 3.360126 1_655
Br14 Zr0 2.732217 1_555
Br14 Zr5 2.738625 1_555
Br14 K2 3.618163 1_555
Br15 Zr4 2.712348 1_554
Br15 Zr1 2.723458 1_555
Br16 Zr3 2.773753 1_555
Br16 K3 3.303852 1_555
Br16 K1 3.317987 1_555
Br16 K0 3.350231 1_655
Br17 Zr4 2.728847 1_555
Br17 Zr5 2.732894 1_555
Br17 K0 3.426098 1_545
