# generated using pymatgen
data_Zr3Cu2SnN
_symmetry_space_group_name_H-M   'P 1'
_cell_length_a   8.61307583
_cell_length_b   8.61307578
_cell_length_c   8.61307654
_cell_angle_alpha   60.00000086
_cell_angle_beta   60.00000104
_cell_angle_gamma   59.99999395
_symmetry_Int_Tables_number   1
_chemical_formula_structural   Zr3Cu2SnN
_chemical_formula_sum   'Zr12 Cu8 Sn4 N4'
_cell_volume   451.81415656
_cell_formula_units_Z   4
loop_
 _symmetry_equiv_pos_site_id
 _symmetry_equiv_pos_as_xyz
  1  'x, y, z'
loop_
 _atom_site_type_symbol
 _atom_site_label
 _atom_site_symmetry_multiplicity
 _atom_site_fract_x
 _atom_site_fract_y
 _atom_site_fract_z
 _atom_site_occupancy
  Zr  Zr0  1  0.81393350  0.18606650  0.18606650  1
  Zr  Zr1  1  0.18606650  0.81393350  0.18606650  1
  Zr  Zr2  1  0.81393350  0.81393350  0.18606650  1
  Zr  Zr3  1  0.18606650  0.81393350  0.81393350  1
  Zr  Zr4  1  0.81393350  0.18606650  0.81393350  1
  Zr  Zr5  1  0.18606650  0.18606650  0.81393350  1
  Zr  Zr6  1  0.43606650  0.06393350  0.06393350  1
  Zr  Zr7  1  0.06393350  0.43606650  0.06393350  1
  Zr  Zr8  1  0.43606650  0.43606650  0.06393350  1
  Zr  Zr9  1  0.06393350  0.43606650  0.43606650  1
  Zr  Zr10  1  0.43606650  0.06393350  0.43606650  1
  Zr  Zr11  1  0.06393350  0.06393350  0.43606650  1
  Cu  Cu0  1  0.41432665  0.41432665  0.75701906  1
  Cu  Cu1  1  0.41432665  0.41432665  0.41432665  1
  Cu  Cu2  1  0.75701906  0.41432665  0.41432665  1
  Cu  Cu3  1  0.41432665  0.75701906  0.41432665  1
  Cu  Cu4  1  0.83567335  0.83567335  0.49298094  1
  Cu  Cu5  1  0.83567335  0.83567335  0.83567335  1
  Cu  Cu6  1  0.49298094  0.83567335  0.83567335  1
  Cu  Cu7  1  0.83567335  0.49298094  0.83567335  1
  Sn  Sn0  1  0.62500000  0.62500000  0.12500000  1
  Sn  Sn1  1  0.62500000  0.62500000  0.62500000  1
  Sn  Sn2  1  0.12500000  0.62500000  0.62500000  1
  Sn  Sn3  1  0.62500000  0.12500000  0.62500000  1
  N  N0  1  0.12500000  0.12500000  0.62500000  1
  N  N1  1  0.12500000  0.12500000  0.12500000  1
  N  N2  1  0.62500000  0.12500000  0.12500000  1
  N  N3  1  0.12500000  0.62500000  0.12500000  1
loop_
_geom_bond_atom_site_label_1
_geom_bond_atom_site_label_2
_geom_bond_distance
_geom_bond_site_symmetry_2
Cu0 Sn3 2.654065 1_555
Cu0 Sn2 2.654065 1_555
Cu0 Sn1 2.654072 1_555
Cu0 Zr6 2.843079 1_556
Cu0 Zr7 2.843079 1_556
Cu0 Zr8 2.843084 1_556
Cu0 Cu3 2.951636 1_555
Cu0 Cu2 2.951636 1_555
Cu0 Cu1 2.951636 1_555
Cu0 Zr5 3.147779 1_555
Cu0 Zr3 3.147786 1_555
Cu0 Zr4 3.147786 1_555
Cu1 Sn3 2.654070 1_555
Cu1 Sn2 2.654070 1_555
Cu1 Sn0 2.654070 1_555
Cu1 Zr10 2.843075 1_555
Cu1 Zr9 2.843075 1_555
Cu1 Zr8 2.843075 1_555
Cu1 Cu3 2.951636 1_555
Cu1 Cu2 2.951636 1_555
Cu1 Zr1 3.147783 1_555
Cu1 Zr0 3.147783 1_555
Cu1 Zr5 3.147783 1_555
Cu2 Sn0 2.654065 1_555
Cu2 Sn3 2.654065 1_555
Cu2 Sn1 2.654072 1_555
Cu2 Zr11 2.843078 1_655
Cu2 Zr7 2.843079 1_655
Cu2 Zr9 2.843083 1_655
Cu2 Cu3 2.951635 1_555
Cu2 Zr0 3.147779 1_555
Cu2 Zr2 3.147786 1_555
Cu2 Zr4 3.147786 1_555
Cu3 Sn0 2.654065 1_555
Cu3 Sn2 2.654065 1_555
Cu3 Sn1 2.654072 1_555
Cu3 Zr11 2.843078 1_565
Cu3 Zr6 2.843079 1_565
Cu3 Zr10 2.843083 1_565
Cu3 Zr1 3.147779 1_555
Cu3 Zr2 3.147786 1_555
Cu3 Zr3 3.147786 1_555
Cu4 Sn3 2.654065 1_565
Cu4 Sn2 2.654065 1_655
Cu4 Sn1 2.654072 1_555
Cu4 Zr0 2.843079 1_565
Cu4 Zr1 2.843079 1_655
Cu4 Zr2 2.843084 1_555
Cu4 Cu7 2.951636 1_555
Cu4 Cu6 2.951636 1_555
Cu4 Cu5 2.951636 1_555
Cu4 Zr11 3.147779 1_665
Cu4 Zr9 3.147786 1_655
Cu4 Zr10 3.147786 1_565
Cu5 Sn3 2.654070 1_565
Cu5 Sn2 2.654070 1_655
Cu5 Sn0 2.654070 1_556
Cu5 Zr4 2.843075 1_565
Cu5 Zr3 2.843075 1_655
Cu5 Zr2 2.843075 1_556
Cu5 Cu7 2.951636 1_555
Cu5 Cu6 2.951636 1_555
Cu5 Zr7 3.147783 1_656
Cu5 Zr6 3.147783 1_566
Cu5 Zr11 3.147783 1_665
Cu6 Sn0 2.654065 1_556
Cu6 Sn3 2.654065 1_565
Cu6 Sn1 2.654072 1_555
Cu6 Zr5 2.843078 1_565
Cu6 Zr1 2.843079 1_556
Cu6 Zr3 2.843083 1_555
Cu6 Cu7 2.951635 1_555
Cu6 Zr6 3.147779 1_566
Cu6 Zr8 3.147786 1_556
Cu6 Zr10 3.147786 1_565
Cu7 Sn0 2.654065 1_556
Cu7 Sn2 2.654065 1_655
Cu7 Sn1 2.654072 1_555
Cu7 Zr5 2.843078 1_655
Cu7 Zr0 2.843079 1_556
Cu7 Zr4 2.843083 1_555
Cu7 Zr7 3.147779 1_656
Cu7 Zr8 3.147786 1_556
Cu7 Zr9 3.147786 1_655
Sn0 Zr6 3.151629 1_565
Sn0 Zr0 3.151629 1_555
Sn0 Zr7 3.151629 1_655
Sn0 Zr1 3.151629 1_555
Sn0 Zr2 3.151630 1_555
Sn0 Zr8 3.151630 1_555
Sn1 Zr10 3.151629 1_565
Sn1 Zr4 3.151629 1_555
Sn1 Zr9 3.151629 1_655
Sn1 Zr3 3.151629 1_555
Sn1 Zr8 3.151630 1_556
Sn1 Zr2 3.151630 1_555
Sn2 Zr11 3.151629 1_565
Sn2 Zr5 3.151629 1_555
Sn2 Zr3 3.151630 1_555
Sn2 Zr9 3.151630 1_555
Sn2 Zr7 3.151630 1_556
Sn2 Zr1 3.151630 1_555
Sn3 Zr11 3.151629 1_655
Sn3 Zr5 3.151629 1_555
Sn3 Zr4 3.151630 1_555
Sn3 Zr10 3.151630 1_555
Sn3 Zr6 3.151630 1_556
Sn3 Zr0 3.151630 1_555
N0 Zr9 2.278126 1_555
N0 Zr3 2.278126 1_545
N0 Zr10 2.278126 1_555
N0 Zr4 2.278126 1_455
N0 Zr5 2.278126 1_555
N0 Zr11 2.278126 1_555
N1 Zr7 2.278126 1_555
N1 Zr1 2.278126 1_545
N1 Zr6 2.278126 1_555
N1 Zr0 2.278126 1_455
N1 Zr11 2.278126 1_555
N1 Zr5 2.278126 1_554
N2 Zr8 2.278126 1_555
N2 Zr2 2.278126 1_545
N2 Zr0 2.278126 1_555
N2 Zr6 2.278126 1_555
N2 Zr10 2.278126 1_555
N2 Zr4 2.278126 1_554
N3 Zr8 2.278126 1_555
N3 Zr2 2.278126 1_455
N3 Zr1 2.278126 1_555
N3 Zr7 2.278126 1_555
N3 Zr9 2.278126 1_555
N3 Zr3 2.278126 1_554
