# generated using pymatgen
data_Mg4Sb(PN2)6
_symmetry_space_group_name_H-M   'P 1'
_cell_length_a   7.29175134
_cell_length_b   7.29175117
_cell_length_c   7.29175168
_cell_angle_alpha   109.47122205
_cell_angle_beta   109.47122160
_cell_angle_gamma   109.47121629
_symmetry_Int_Tables_number   1
_chemical_formula_structural   Mg4Sb(PN2)6
_chemical_formula_sum   'Mg4 Sb1 P6 N12'
_cell_volume   298.45144122
_cell_formula_units_Z   1
loop_
 _symmetry_equiv_pos_site_id
 _symmetry_equiv_pos_as_xyz
  1  'x, y, z'
loop_
 _atom_site_type_symbol
 _atom_site_label
 _atom_site_symmetry_multiplicity
 _atom_site_fract_x
 _atom_site_fract_y
 _atom_site_fract_z
 _atom_site_occupancy
  Mg  Mg0  1  0.38019593  0.38019593  0.38019593  1
  Mg  Mg1  1  0.00000000  0.61980407  1.00000000  1
  Mg  Mg2  1  0.61980407  0.00000000  0.00000000  1
  Mg  Mg3  1  0.00000000  0.00000000  0.61980407  1
  Sb  Sb0  1  0.00000000  0.00000000  0.00000000  1
  P  P0  1  0.50000000  0.25000000  0.75000000  1
  P  P1  1  0.50000000  0.75000000  0.25000000  1
  P  P2  1  0.75000000  0.25000000  0.50000000  1
  P  P3  1  0.25000000  0.50000000  0.75000000  1
  P  P4  1  0.75000000  0.50000000  0.25000000  1
  P  P5  1  0.25000000  0.75000000  0.50000000  1
  N  N0  1  0.00000000  0.71800944  0.42696552  1
  N  N1  1  0.28199056  0.70895609  0.28199056  1
  N  N2  1  0.29104391  0.57303448  0.57303448  1
  N  N3  1  0.57303448  0.57303448  0.29104391  1
  N  N4  1  0.57303448  0.29104391  0.57303448  1
  N  N5  1  0.71800944  0.00000000  0.42696552  1
  N  N6  1  0.42696552  0.00000000  0.71800944  1
  N  N7  1  0.71800944  0.42696552  1.00000000  1
  N  N8  1  0.28199056  0.28199056  0.70895609  1
  N  N9  1  0.70895609  0.28199056  0.28199056  1
  N  N10  1  0.00000000  0.42696552  0.71800944  1
  N  N11  1  0.42696552  0.71800944  1.00000000  1
loop_
_geom_bond_atom_site_label_1
_geom_bond_atom_site_label_2
_geom_bond_distance
_geom_bond_site_symmetry_2
Mg0 N2 2.068249 1_555
Mg0 N4 2.068249 1_555
Mg0 N3 2.068249 1_555
Mg0 Sb0 2.772294 1_555
Mg1 N10 2.068249 1_555
Mg1 N1 2.068249 1_556
Mg1 N7 2.068249 1_455
Mg1 Sb0 2.772294 1_566
Mg2 N9 2.068249 1_555
Mg2 N6 2.068249 1_554
Mg2 N11 2.068249 1_544
Mg2 Sb0 2.772294 1_655
Mg3 N0 2.068249 1_545
Mg3 N5 2.068249 1_455
Mg3 N8 2.068249 1_555
Mg3 Sb0 2.772294 1_556
N0 P5 1.627150 1_555
N0 P4 1.627150 1_455
N1 P1 1.627150 1_555
N1 P5 1.627150 1_555
N2 P5 1.627150 1_555
N2 P3 1.627150 1_555
N3 P1 1.627150 1_555
N3 P4 1.627150 1_555
N4 P2 1.627150 1_555
N4 P0 1.627150 1_555
N5 P2 1.627150 1_555
N5 P1 1.627150 1_545
N6 P0 1.627150 1_555
N6 P5 1.627150 1_545
N7 P0 1.627150 1_555
N7 P4 1.627150 1_556
N8 P3 1.627150 1_555
N8 P0 1.627150 1_555
N9 P4 1.627150 1_555
N9 P2 1.627150 1_555
N10 P3 1.627150 1_555
N10 P2 1.627150 1_455
N11 P3 1.627150 1_555
N11 P1 1.627150 1_556
