# generated using pymatgen
data_Rb2NaVO4
_symmetry_space_group_name_H-M   'P 1'
_cell_length_a   6.01195717
_cell_length_b   5.92521775
_cell_length_c   7.93187267
_cell_angle_alpha   87.09617591
_cell_angle_beta   90.00000000
_cell_angle_gamma   90.00000000
_symmetry_Int_Tables_number   1
_chemical_formula_structural   Rb2NaVO4
_chemical_formula_sum   'Rb4 Na2 V2 O8'
_cell_volume   282.18759916
_cell_formula_units_Z   2
loop_
 _symmetry_equiv_pos_site_id
 _symmetry_equiv_pos_as_xyz
  1  'x, y, z'
loop_
 _atom_site_type_symbol
 _atom_site_label
 _atom_site_symmetry_multiplicity
 _atom_site_fract_x
 _atom_site_fract_y
 _atom_site_fract_z
 _atom_site_occupancy
  Rb  Rb0  1  0.75000000  0.13195304  0.82536199  1
  Rb  Rb1  1  0.25000000  0.86804696  0.17463801  1
  Rb  Rb2  1  0.25000000  0.30803045  0.48413598  1
  Rb  Rb3  1  0.75000000  0.69196955  0.51586402  1
  Na  Na0  1  0.75000000  0.61761758  0.02925840  1
  Na  Na1  1  0.25000000  0.38238242  0.97074160  1
  V  V0  1  0.25000000  0.80335436  0.74544599  1
  V  V1  1  0.75000000  0.19664564  0.25455401  1
  O  O0  1  0.51907408  0.33751717  0.17353906  1
  O  O1  1  0.01907408  0.66248283  0.82645994  1
  O  O2  1  0.48092592  0.66248283  0.82645994  1
  O  O3  1  0.98092592  0.33751717  0.17353906  1
  O  O4  1  0.75000000  0.19833996  0.47104824  1
  O  O5  1  0.75000000  0.92273732  0.19005541  1
  O  O6  1  0.25000000  0.80166004  0.52895176  1
  O  O7  1  0.25000000  0.07726268  0.80994459  1
loop_
_geom_bond_atom_site_label_1
_geom_bond_atom_site_label_2
_geom_bond_distance
_geom_bond_site_symmetry_2
Na0 O5 2.264692 1_555
Na0 O1 2.287286 1_654
Na0 O2 2.287286 1_554
Na0 O3 2.408138 1_555
Na0 O0 2.408138 1_555
Na1 O7 2.264692 1_555
Na1 O0 2.287280 1_556
Na1 O3 2.287280 1_456
Na1 O2 2.408142 1_555
Na1 O1 2.408142 1_555
O0 V1 1.727058 1_555
O0 Rb2 2.945020 1_555
O0 Rb1 3.217511 1_545
O1 V0 1.727055 1_555
O1 Rb3 2.945014 1_455
O1 Rb0 3.217511 1_465
O2 V0 1.727055 1_555
O2 Rb3 2.945014 1_555
O2 Rb0 3.217511 1_565
O3 V1 1.727058 1_555
O3 Rb2 2.945020 1_655
O3 Rb1 3.217511 1_645
O4 V1 1.717743 1_555
O4 Rb0 2.817962 1_555
O4 Rb3 2.964208 1_555
O4 Rb3 3.003403 1_545
O4 Rb2 3.078302 1_655
O4 Rb2 3.078302 1_555
O5 V1 1.726231 1_565
O5 Rb3 2.861833 1_555
O5 Rb1 3.026530 1_555
O5 Rb1 3.026530 1_655
O5 Rb0 3.088872 1_564
O6 V0 1.717743 1_555
O6 Rb1 2.817962 1_555
O6 Rb2 2.964208 1_555
O6 Rb2 3.003403 1_565
O6 Rb3 3.078302 1_455
O6 Rb3 3.078302 1_555
O7 V0 1.726231 1_545
O7 Rb2 2.861833 1_555
O7 Rb0 3.026530 1_455
O7 Rb0 3.026530 1_555
O7 Rb1 3.088872 1_546
