# generated using pymatgen
data_CsScMnTe3
_symmetry_space_group_name_H-M   'P 1'
_cell_length_a   8.81523673
_cell_length_b   8.81523708
_cell_length_c   11.42383969
_cell_angle_alpha   90.00000000
_cell_angle_beta   90.00000000
_cell_angle_gamma   151.37112551
_symmetry_Int_Tables_number   1
_chemical_formula_structural   CsScMnTe3
_chemical_formula_sum   'Cs2 Sc2 Mn2 Te6'
_cell_volume   425.34105446
_cell_formula_units_Z   2
loop_
 _symmetry_equiv_pos_site_id
 _symmetry_equiv_pos_as_xyz
  1  'x, y, z'
loop_
 _atom_site_type_symbol
 _atom_site_label
 _atom_site_symmetry_multiplicity
 _atom_site_fract_x
 _atom_site_fract_y
 _atom_site_fract_z
 _atom_site_occupancy
  Cs  Cs0  1  0.25254383  0.74745417  0.25000000  1
  Cs  Cs1  1  0.74745417  0.25254383  0.75000000  1
  Sc  Sc0  1  0.00000000  0.00000000  0.00000000  1
  Sc  Sc1  1  0.00000000  0.00000000  0.50000000  1
  Mn  Mn0  1  0.53607661  0.46392139  0.25000000  1
  Mn  Mn1  1  0.46392139  0.53607661  0.75000000  1
  Te  Te0  1  0.61510964  0.38488736  0.04724152  1
  Te  Te1  1  0.94006092  0.05993708  0.25000000  1
  Te  Te2  1  0.61510964  0.38488736  0.45275848  1
  Te  Te3  1  0.38488736  0.61510964  0.54724152  1
  Te  Te4  1  0.05993708  0.94006092  0.75000000  1
  Te  Te5  1  0.38488736  0.61510964  0.95275948  1
loop_
_geom_bond_atom_site_label_1
_geom_bond_atom_site_label_2
_geom_bond_distance
_geom_bond_site_symmetry_2
Cs0 Te1 3.874514 1_565
Cs0 Te1 3.874515 1_455
Cs0 Te2 3.953168 1_565
Cs0 Te0 3.953168 1_565
Cs0 Te2 3.953170 1_455
Cs0 Te0 3.953170 1_455
Cs0 Te5 4.079427 1_554
Cs0 Te3 4.079436 1_555
Cs1 Te4 3.874514 1_545
Cs1 Te4 3.874515 1_655
Cs1 Te3 3.953168 1_655
Cs1 Te3 3.953170 1_545
Cs1 Te5 3.953175 1_655
Cs1 Te5 3.953177 1_545
Cs1 Te0 4.079436 1_556
Cs1 Te2 4.079436 1_555
Sc0 Te5 2.984697 1_554
Sc0 Te0 2.984699 1_555
Sc0 Te5 2.984706 1_444
Sc0 Te0 2.984708 1_445
Sc0 Te1 3.033964 1_455
Sc0 Te4 3.033964 1_544
Sc1 Te2 2.984699 1_555
Sc1 Te3 2.984699 1_555
Sc1 Te3 2.984708 1_445
Sc1 Te2 2.984708 1_445
Sc1 Te1 3.033964 1_455
Sc1 Te4 3.033964 1_545
Mn0 Te2 2.681050 1_555
Mn0 Te0 2.681050 1_555
Mn0 Te1 2.727757 1_455
Mn0 Te1 2.727757 1_565
Mn1 Te3 2.681050 1_555
Mn1 Te5 2.681060 1_555
Mn1 Te4 2.727757 1_655
Mn1 Te4 2.727757 1_545
