# generated using pymatgen
data_Na3ZrF7
_symmetry_space_group_name_H-M   'P 1'
_cell_length_a   5.36697938
_cell_length_b   5.36697938
_cell_length_c   6.25755692
_cell_angle_alpha   66.26826764
_cell_angle_beta   66.26826764
_cell_angle_gamma   89.58392500
_symmetry_Int_Tables_number   1
_chemical_formula_structural   Na3ZrF7
_chemical_formula_sum   'Na3 Zr1 F7'
_cell_volume   148.45496679
_cell_formula_units_Z   1
loop_
 _symmetry_equiv_pos_site_id
 _symmetry_equiv_pos_as_xyz
  1  'x, y, z'
loop_
 _atom_site_type_symbol
 _atom_site_label
 _atom_site_symmetry_multiplicity
 _atom_site_fract_x
 _atom_site_fract_y
 _atom_site_fract_z
 _atom_site_occupancy
  Na  Na0  1  0.22351679  0.76295135  0.51046628  1
  Na  Na1  1  0.50995138  0.50995138  0.96217119  1
  Na  Na2  1  0.76295135  0.22351679  0.51046628  1
  Zr  Zr0  1  0.04841647  0.04841647  0.97110200  1
  F  F0  1  0.84617080  0.84617080  0.84916137  1
  F  F1  1  0.36045265  0.89589059  0.76104457  1
  F  F2  1  0.03244542  0.66482151  0.24575545  1
  F  F3  1  0.89589059  0.36045265  0.76104457  1
  F  F4  1  0.37971140  0.37971140  0.71514706  1
  F  F5  1  0.66482151  0.03244542  0.24575545  1
  F  F6  1  0.15066964  0.15066964  0.21788379  1
loop_
_geom_bond_atom_site_label_1
_geom_bond_atom_site_label_2
_geom_bond_distance
_geom_bond_site_symmetry_2
F0 Zr0 2.071012 1_665
F0 Na1 2.237287 1_555
F0 Na2 2.467136 1_565
F0 Na0 2.467136 1_655
F1 Zr0 2.068045 1_565
F1 Na1 2.282216 1_555
F1 Na2 2.307919 1_565
F1 Na0 2.311600 1_555
F2 Zr0 2.058048 1_564
F2 Na2 2.325710 1_455
F2 Na0 2.479932 1_555
F2 Na1 2.811299 1_554
F3 Zr0 2.068045 1_655
F3 Na1 2.282216 1_555
F3 Na0 2.307919 1_655
F3 Na2 2.311600 1_555
F4 Zr0 2.085587 1_555
F4 Na1 2.261209 1_555
F4 Na2 2.300544 1_555
F4 Na0 2.300544 1_555
F5 Zr0 2.058048 1_654
F5 Na0 2.325710 1_545
F5 Na2 2.479932 1_555
F5 Na1 2.811299 1_554
F6 Zr0 2.087032 1_554
F6 Na1 2.254714 1_554
F6 Na0 2.309272 1_545
F6 Na2 2.309272 1_455
