# generated using pymatgen
data_Lu6Ti7Al9Ir8
_symmetry_space_group_name_H-M   'P 1'
_cell_length_a   8.95082765
_cell_length_b   8.95082811
_cell_length_c   8.95082873
_cell_angle_alpha   60.11520522
_cell_angle_beta   60.11521051
_cell_angle_gamma   60.11521784
_symmetry_Int_Tables_number   1
_chemical_formula_structural   Lu6Ti7Al9Ir8
_chemical_formula_sum   'Lu6 Ti7 Al9 Ir8'
_cell_volume   508.40146071
_cell_formula_units_Z   1
loop_
 _symmetry_equiv_pos_site_id
 _symmetry_equiv_pos_as_xyz
  1  'x, y, z'
loop_
 _atom_site_type_symbol
 _atom_site_label
 _atom_site_symmetry_multiplicity
 _atom_site_fract_x
 _atom_site_fract_y
 _atom_site_fract_z
 _atom_site_occupancy
  Lu  Lu0  1  0.21097119  0.21097119  0.79059983  1
  Lu  Lu1  1  0.79059983  0.21097119  0.21097119  1
  Lu  Lu2  1  0.21097119  0.79059983  0.21097119  1
  Lu  Lu3  1  0.79382701  0.79382701  0.19729775  1
  Lu  Lu4  1  0.19729775  0.79382701  0.79382701  1
  Lu  Lu5  1  0.79382701  0.19729775  0.79382701  1
  Ti  Ti0  1  0.37965249  0.37965249  0.37965249  1
  Ti  Ti1  1  0.38166411  0.86151142  0.38166411  1
  Ti  Ti2  1  0.86151142  0.38166411  0.38166411  1
  Ti  Ti3  1  0.38166411  0.38166411  0.86151142  1
  Ti  Ti4  1  0.83419799  0.49746732  0.83419799  1
  Ti  Ti5  1  0.49746732  0.83419799  0.83419799  1
  Ti  Ti6  1  0.83419799  0.83419799  0.49746732  1
  Al  Al0  1  0.17183251  0.17183251  0.17183251  1
  Al  Al1  1  0.16976208  0.49322287  0.16976208  1
  Al  Al2  1  0.49322287  0.16976208  0.16976208  1
  Al  Al3  1  0.16976208  0.16976208  0.49322287  1
  Al  Al4  1  0.61904335  0.61904335  0.61904335  1
  Al  Al5  1  0.61832764  0.14346443  0.61832764  1
  Al  Al6  1  0.14346443  0.61832764  0.61832764  1
  Al  Al7  1  0.61832764  0.61832764  0.14346443  1
  Al  Al8  1  0.82354568  0.82354568  0.82354568  1
  Ir  Ir0  1  0.00035652  0.00035652  0.49702468  1
  Ir  Ir1  1  0.49702468  0.00035652  0.00035652  1
  Ir  Ir2  1  0.00035652  0.49702468  0.00035652  1
  Ir  Ir3  1  0.50254075  0.50254075  0.99862121  1
  Ir  Ir4  1  0.99862121  0.50254075  0.50254075  1
  Ir  Ir5  1  0.50254075  0.99862121  0.50254075  1
  Ir  Ir6  1  0.50056513  0.50056513  0.50056513  1
  Ir  Ir7  1  0.00285476  0.00285476  0.00285476  1
loop_
_geom_bond_atom_site_label_1
_geom_bond_atom_site_label_2
_geom_bond_distance
_geom_bond_site_symmetry_2
Lu0 Ti5 3.028090 1_545
Lu0 Ti4 3.028090 1_455
Lu0 Ti0 3.048326 1_555
Lu0 Ti3 3.054567 1_555
Lu1 Ti4 3.028090 1_554
Lu1 Ti6 3.028090 1_545
Lu1 Ti0 3.048326 1_555
Lu1 Ti2 3.054567 1_555
Lu2 Ti5 3.028090 1_554
Lu2 Ti6 3.028090 1_455
Lu2 Ti0 3.048326 1_555
Lu2 Ti1 3.054567 1_555
Lu3 Ti2 3.066383 1_555
Lu3 Ti1 3.066383 1_555
Lu3 Ti6 3.089493 1_555
Lu4 Ti1 3.066383 1_555
Lu4 Ti3 3.066383 1_555
Lu4 Ti5 3.089493 1_555
Lu5 Ti2 3.066383 1_555
Lu5 Ti3 3.066383 1_555
Lu5 Ti4 3.089493 1_555
Ti4 Ti6 3.019265 1_555
Ti4 Ti5 3.019266 1_555
Ti5 Ti6 3.019265 1_555
Al0 Ir0 2.574400 1_555
Al0 Ir2 2.574400 1_555
Al0 Ir1 2.574400 1_555
Al0 Ti3 2.808580 1_554
Al0 Ti1 2.808580 1_545
Al0 Ti2 2.808580 1_455
Al0 Al2 2.858362 1_555
Al0 Al1 2.858363 1_555
Al0 Al3 2.858363 1_555
Al0 Lu1 3.103120 1_455
Al0 Lu2 3.103120 1_545
Al0 Lu0 3.103120 1_554
Al1 Ir2 2.605376 1_555
Al1 Ir3 2.607519 1_554
Al1 Ir4 2.607519 1_455
Al1 Ti0 2.793435 1_555
Al1 Ti2 2.801853 1_455
Al1 Ti3 2.801853 1_554
Al1 Al3 2.900282 1_555
Al1 Al2 2.900283 1_555
Al1 Lu4 3.071678 1_554
Al1 Lu3 3.071678 1_455
Al1 Lu2 3.074001 1_555
Al2 Ir1 2.605376 1_555
Al2 Ir3 2.607519 1_554
Al2 Ir5 2.607519 1_545
Al2 Ti0 2.793435 1_555
Al2 Ti1 2.801853 1_545
Al2 Ti3 2.801853 1_554
Al2 Al3 2.900282 1_555
Al2 Lu5 3.071678 1_554
Al2 Lu3 3.071678 1_545
Al2 Lu1 3.074001 1_555
Al3 Ir0 2.605376 1_555
Al3 Ir5 2.607519 1_545
Al3 Ir4 2.607519 1_455
Al3 Ti0 2.793435 1_555
Al3 Ti2 2.801853 1_455
Al3 Ti1 2.801853 1_545
Al3 Lu4 3.071678 1_545
Al3 Lu5 3.071678 1_455
Al3 Lu0 3.074002 1_555
Al4 Ir6 2.595366 1_555
Al4 Ir4 2.782185 1_555
Al4 Ir5 2.782185 1_555
Al4 Ir3 2.782185 1_555
Al4 Ti6 2.849696 1_555
Al4 Ti4 2.849697 1_555
Al4 Ti5 2.849697 1_555
Al4 Ti3 3.007911 1_555
Al4 Ti1 3.007911 1_555
Al4 Ti2 3.007911 1_555
Al4 Lu3 3.132741 1_555
Al4 Lu5 3.132741 1_555
Al4 Lu4 3.132741 1_555
Al5 Ir6 2.613635 1_555
Al5 Ir5 2.752691 1_545
Al5 Al8 2.797702 1_545
Al5 Ir1 2.798887 1_556
Al5 Ir0 2.798887 1_655
Al5 Ti5 2.852671 1_545
Al5 Ti6 2.852671 1_545
Al5 Lu5 3.022417 1_555
Al5 Ti0 3.023899 1_555
Al5 Lu0 3.027816 1_555
Al5 Lu1 3.027816 1_555
Al5 Ti2 3.049627 1_555
Al5 Ti3 3.049628 1_555
Al6 Ir6 2.613635 1_555
Al6 Ir4 2.752691 1_455
Al6 Al8 2.797703 1_455
Al6 Ir2 2.798887 1_556
Al6 Ir0 2.798887 1_565
Al6 Ti4 2.852671 1_455
Al6 Ti6 2.852671 1_455
Al6 Lu4 3.022417 1_555
Al6 Ti0 3.023900 1_555
Al6 Lu0 3.027816 1_555
Al6 Lu2 3.027816 1_555
Al6 Ti1 3.049627 1_555
Al6 Ti3 3.049628 1_555
Al7 Ir6 2.613635 1_555
Al7 Ir3 2.752691 1_554
Al7 Al8 2.797702 1_554
Al7 Ir1 2.798887 1_565
Al7 Ir2 2.798887 1_655
Al7 Ti5 2.852671 1_554
Al7 Ti4 2.852671 1_554
Al7 Lu3 3.022417 1_555
Al7 Ti0 3.023899 1_555
Al7 Lu2 3.027816 1_555
Al7 Lu1 3.027816 1_555
Al7 Ti2 3.049628 1_555
Al7 Ti1 3.049628 1_555
Al8 Ir0 2.613131 1_665
Al8 Ir2 2.613132 1_656
Al8 Ir1 2.613132 1_566
Al8 Ti5 2.826880 1_555
Al8 Ti4 2.826880 1_555
Al8 Ti6 2.826880 1_555
Al8 Lu4 3.103237 1_655
Al8 Lu5 3.103237 1_565
Al8 Lu3 3.103237 1_556
Ir0 Ti6 2.572228 1_445
Ir0 Ti1 2.792747 1_545
Ir0 Ti2 2.792747 1_455
Ir0 Lu1 3.176151 1_455
Ir0 Lu2 3.176152 1_545
Ir0 Lu4 3.179290 1_545
Ir0 Lu5 3.179291 1_455
Ir1 Ti5 2.572228 1_544
Ir1 Ti3 2.792747 1_554
Ir1 Ti1 2.792747 1_545
Ir1 Lu2 3.176151 1_545
Ir1 Lu0 3.176151 1_554
Ir1 Lu5 3.179290 1_554
Ir1 Lu3 3.179290 1_545
Ir2 Ti4 2.572228 1_454
Ir2 Ti3 2.792747 1_554
Ir2 Ti2 2.792747 1_455
Ir2 Lu1 3.176151 1_455
Ir2 Lu0 3.176152 1_554
Ir2 Lu4 3.179290 1_554
Ir2 Lu3 3.179291 1_455
Ir3 Ti5 2.561089 1_555
Ir3 Ti4 2.561089 1_555
Ir3 Ti3 2.767716 1_555
Ir3 Ti0 2.789366 1_556
Ir4 Ti4 2.561089 1_555
Ir4 Ti6 2.561089 1_555
Ir4 Ti2 2.767716 1_555
Ir4 Ti0 2.789366 1_655
Ir5 Ti5 2.561089 1_555
Ir5 Ti6 2.561089 1_555
Ir5 Ti1 2.767716 1_555
Ir5 Ti0 2.789366 1_565
Ir6 Ti3 2.641794 1_555
Ir6 Ti1 2.641794 1_555
Ir6 Ti2 2.641794 1_555
Ir6 Ti0 2.648694 1_555
Ir7 Lu0 2.637063 1_554
Ir7 Lu2 2.637063 1_545
Ir7 Lu1 2.637063 1_455
Ir7 Lu3 2.651152 1_445
Ir7 Lu5 2.651152 1_454
Ir7 Lu4 2.651152 1_544
