# generated using pymatgen
data_BaFe2(Pd3O8)2
_symmetry_space_group_name_H-M   'P 1'
_cell_length_a   6.09067882
_cell_length_b   7.22470896
_cell_length_c   7.26569725
_cell_angle_alpha   87.28813959
_cell_angle_beta   77.61496416
_cell_angle_gamma   77.97041090
_symmetry_Int_Tables_number   1
_chemical_formula_structural   BaFe2(Pd3O8)2
_chemical_formula_sum   'Ba1 Fe2 Pd6 O16'
_cell_volume   305.41627348
_cell_formula_units_Z   1
loop_
 _symmetry_equiv_pos_site_id
 _symmetry_equiv_pos_as_xyz
  1  'x, y, z'
loop_
 _atom_site_type_symbol
 _atom_site_label
 _atom_site_symmetry_multiplicity
 _atom_site_fract_x
 _atom_site_fract_y
 _atom_site_fract_z
 _atom_site_occupancy
  Ba  Ba0  1  0.24501058  0.99280095  0.01334045  1
  Fe  Fe0  1  0.08019875  0.18840761  0.48654564  1
  Fe  Fe1  1  0.58353301  0.18776684  0.47807232  1
  Pd  Pd0  1  0.32220196  0.51048812  0.18215847  1
  Pd  Pd1  1  0.82179475  0.51811512  0.18481216  1
  Pd  Pd2  1  0.17062447  0.47624532  0.81531234  1
  Pd  Pd3  1  0.67499800  0.47369288  0.81538451  1
  Pd  Pd4  1  0.41242808  0.82176521  0.51392474  1
  Pd  Pd5  1  0.91243273  0.82197556  0.51923712  1
  O  O0  1  0.38299681  0.05333303  0.35454518  1
  O  O1  1  0.90946944  0.05206993  0.35768090  1
  O  O2  1  0.08605103  0.35818633  0.29383420  1
  O  O3  1  0.57600189  0.38261368  0.29871920  1
  O  O4  1  0.07812504  0.64709087  0.04780525  1
  O  O5  1  0.56015802  0.64937857  0.04372654  1
  O  O6  1  0.26224744  0.28176718  0.61851309  1
  O  O7  1  0.78023751  0.29127231  0.60840618  1
  O  O8  1  0.22347227  0.72248825  0.36420508  1
  O  O9  1  0.72633767  0.72542882  0.36783174  1
  O  O10  1  0.42025764  0.33869527  0.95160936  1
  O  O11  1  0.92137863  0.34353228  0.95519742  1
  O  O12  1  0.41274729  0.62273374  0.71493555  1
  O  O13  1  0.90816773  0.62618337  0.72053419  1
  O  O14  1  0.59312571  0.95256924  0.64841452  1
  O  O15  1  0.09858154  0.96140052  0.64525284  1
loop_
_geom_bond_atom_site_label_1
_geom_bond_atom_site_label_2
_geom_bond_distance
_geom_bond_site_symmetry_2
Ba0 O5 2.834409 1_555
Ba0 O1 2.857035 1_465
Ba0 O0 2.862342 1_565
Ba0 O4 2.867754 1_555
Ba0 O10 2.895826 1_564
Ba0 O11 2.942549 1_464
Ba0 O14 3.002441 1_554
Ba0 O15 3.027251 1_554
Fe0 O2 1.816764 1_555
Fe0 O6 1.852765 1_555
Fe0 O7 1.864529 1_455
Fe0 O15 1.957524 1_545
Fe0 O0 1.962915 1_555
Fe0 O1 1.964695 1_455
Fe1 O3 1.872707 1_555
Fe1 O7 1.954079 1_555
Fe1 O6 1.996690 1_555
Fe1 O1 2.047489 1_555
Fe1 O14 2.052615 1_545
Fe1 O0 2.070717 1_555
O0 Pd4 1.988160 1_545
O1 Pd5 1.988358 1_545
O2 Pd0 2.003114 1_555
O2 Pd1 2.058663 1_455
O3 Pd0 1.962786 1_555
O3 Pd1 1.971598 1_555
O4 Pd0 2.014112 1_555
O4 Pd1 2.036808 1_455
O4 Pd2 2.047828 1_554
O5 Pd0 2.001111 1_555
O5 Pd3 2.045535 1_554
O5 Pd1 2.113843 1_555
O6 Pd2 1.962431 1_555
O7 Pd3 1.957365 1_555
O8 Pd0 1.980819 1_555
O8 Pd5 1.991985 1_455
O8 Pd4 1.994300 1_555
O9 Pd1 1.960483 1_555
O9 Pd4 1.977690 1_555
O9 Pd5 1.979493 1_555
O10 Pd0 2.040029 1_556
O10 Pd2 2.050098 1_555
O10 Pd3 2.053985 1_555
O11 Pd2 2.027198 1_655
O11 Pd3 2.035535 1_555
O11 Pd1 2.046514 1_556
O12 Pd2 1.985663 1_555
O12 Pd3 1.988014 1_555
O12 Pd4 2.000507 1_555
O13 Pd3 1.966224 1_555
O13 Pd2 1.970482 1_655
O13 Pd5 1.985937 1_555
O14 Pd4 2.010324 1_555
O14 Pd5 2.022197 1_555
O15 Pd4 2.021642 1_555
O15 Pd5 2.036424 1_455
