# generated using pymatgen
data_Rb6Na3GaSb4
_symmetry_space_group_name_H-M   'P 1'
_cell_length_a   10.47964122
_cell_length_b   10.47964098
_cell_length_c   10.82588333
_cell_angle_alpha   90.00000000
_cell_angle_beta   90.00000000
_cell_angle_gamma   119.99999464
_symmetry_Int_Tables_number   1
_chemical_formula_structural   Rb6Na3GaSb4
_chemical_formula_sum   'Rb12 Na6 Ga2 Sb8'
_cell_volume   1029.64334409
_cell_formula_units_Z   2
loop_
 _symmetry_equiv_pos_site_id
 _symmetry_equiv_pos_as_xyz
  1  'x, y, z'
loop_
 _atom_site_type_symbol
 _atom_site_label
 _atom_site_symmetry_multiplicity
 _atom_site_fract_x
 _atom_site_fract_y
 _atom_site_fract_z
 _atom_site_occupancy
  Rb  Rb0  1  0.20851716  0.41703332  0.54052956  1
  Rb  Rb1  1  0.79148284  0.20851716  0.04052956  1
  Rb  Rb2  1  0.41703332  0.20851716  0.04052956  1
  Rb  Rb3  1  0.58296668  0.79148284  0.54052956  1
  Rb  Rb4  1  0.20851716  0.79148284  0.54052956  1
  Rb  Rb5  1  0.79148284  0.58296668  0.45947044  1
  Rb  Rb6  1  0.79148284  0.20851716  0.45947044  1
  Rb  Rb7  1  0.79148284  0.58296668  0.04052956  1
  Rb  Rb8  1  0.41703332  0.20851716  0.45947044  1
  Rb  Rb9  1  0.58296668  0.79148284  0.95947044  1
  Rb  Rb10  1  0.20851716  0.41703332  0.95947044  1
  Rb  Rb11  1  0.20851716  0.79148284  0.95947044  1
  Na  Na0  1  0.11626052  0.23252003  0.25000000  1
  Na  Na1  1  0.88373948  0.11626052  0.75000000  1
  Na  Na2  1  0.23252003  0.11626052  0.75000000  1
  Na  Na3  1  0.76747997  0.88373948  0.25000000  1
  Na  Na4  1  0.11626052  0.88373948  0.25000000  1
  Na  Na5  1  0.88373948  0.76747997  0.75000000  1
  Ga  Ga0  1  0.33333300  0.66666700  0.25000000  1
  Ga  Ga1  1  0.66666700  0.33333300  0.75000000  1
  Sb  Sb0  1  0.47726518  0.52273482  0.25000000  1
  Sb  Sb1  1  0.95452937  0.47726518  0.75000000  1
  Sb  Sb2  1  0.52273482  0.04547063  0.75000000  1
  Sb  Sb3  1  0.47726518  0.95452937  0.25000000  1
  Sb  Sb4  1  0.04547063  0.52273482  0.25000000  1
  Sb  Sb5  1  0.52273482  0.47726518  0.75000000  1
  Sb  Sb6  1  0.00000000  0.00000000  0.00000000  1
  Sb  Sb7  1  0.00000000  0.00000000  0.50000000  1
loop_
_geom_bond_atom_site_label_1
_geom_bond_atom_site_label_2
_geom_bond_distance
_geom_bond_site_symmetry_2
Rb0 Sb5 3.782263 1_555
Rb0 Sb1 3.782280 1_455
Rb0 Sb7 3.810190 1_555
Rb0 Sb4 3.991469 1_555
Rb0 Sb0 3.991469 1_555
Rb1 Sb4 3.782269 1_655
Rb1 Sb3 3.782269 1_545
Rb1 Sb6 3.810199 1_655
Rb1 Sb1 3.991469 1_554
Rb1 Sb2 3.991469 1_554
Rb2 Sb0 3.782263 1_555
Rb2 Sb3 3.782279 1_545
Rb2 Sb6 3.810190 1_555
Rb2 Sb2 3.991469 1_554
Rb2 Sb5 3.991469 1_554
Rb3 Sb5 3.782263 1_555
Rb3 Sb2 3.782279 1_565
Rb3 Sb7 3.810190 1_665
Rb3 Sb3 3.991469 1_555
Rb3 Sb0 3.991469 1_555
Rb4 Sb1 3.782269 1_455
Rb4 Sb2 3.782269 1_565
Rb4 Sb7 3.810199 1_565
Rb4 Sb4 3.991469 1_555
Rb4 Sb3 3.991469 1_555
Rb5 Sb0 3.782263 1_555
Rb5 Sb4 3.782280 1_655
Rb5 Sb7 3.810190 1_665
Rb5 Sb1 3.991469 1_555
Rb5 Sb5 3.991469 1_555
Rb6 Sb4 3.782269 1_655
Rb6 Sb3 3.782269 1_545
Rb6 Sb7 3.810199 1_655
Rb6 Sb1 3.991469 1_555
Rb6 Sb2 3.991469 1_555
Rb7 Sb0 3.782263 1_555
Rb7 Sb4 3.782280 1_655
Rb7 Sb6 3.810190 1_665
Rb7 Sb1 3.991469 1_554
Rb7 Sb5 3.991469 1_554
Rb8 Sb0 3.782263 1_555
Rb8 Sb3 3.782279 1_545
Rb8 Sb7 3.810190 1_555
Rb8 Sb2 3.991469 1_555
Rb8 Sb5 3.991469 1_555
Rb9 Sb5 3.782263 1_555
Rb9 Sb2 3.782279 1_565
Rb9 Sb6 3.810190 1_666
Rb9 Sb3 3.991469 1_556
Rb9 Sb0 3.991469 1_556
Rb10 Sb5 3.782263 1_555
Rb10 Sb1 3.782280 1_455
Rb10 Sb6 3.810190 1_556
Rb10 Sb4 3.991469 1_556
Rb10 Sb0 3.991469 1_556
Rb11 Sb1 3.782269 1_455
Rb11 Sb2 3.782269 1_565
Rb11 Sb6 3.810199 1_566
Rb11 Sb4 3.991469 1_556
Rb11 Sb3 3.991469 1_556
Na0 Sb7 3.431940 1_555
Na0 Sb6 3.431940 1_555
Na0 Sb4 3.472228 1_555
Na0 Sb0 3.472228 1_555
Na0 Rb10 3.563247 1_554
Na0 Rb0 3.563247 1_555
Na1 Sb6 3.431945 1_656
Na1 Sb7 3.431945 1_655
Na1 Sb1 3.472228 1_555
Na1 Sb2 3.472228 1_555
Na1 Rb6 3.563247 1_555
Na1 Rb1 3.563247 1_556
Na2 Sb7 3.431940 1_555
Na2 Sb6 3.431940 1_556
Na2 Sb2 3.472228 1_555
Na2 Sb5 3.472228 1_555
Na2 Rb8 3.563247 1_555
Na2 Rb2 3.563247 1_556
Na3 Sb6 3.431940 1_665
Na3 Sb7 3.431940 1_665
Na3 Sb3 3.472228 1_555
Na3 Sb0 3.472228 1_555
Na3 Rb9 3.563247 1_554
Na3 Rb3 3.563247 1_555
Na4 Sb6 3.431945 1_565
Na4 Sb7 3.431945 1_565
Na4 Sb4 3.472228 1_555
Na4 Sb3 3.472228 1_555
Na4 Rb11 3.563247 1_554
Na4 Rb4 3.563247 1_555
Na5 Sb6 3.431940 1_666
Na5 Sb7 3.431940 1_665
Na5 Sb1 3.472228 1_555
Na5 Sb5 3.472228 1_555
Na5 Rb5 3.563247 1_555
Na5 Rb7 3.563247 1_556
Ga0 Sb3 2.612534 1_555
Ga0 Sb4 2.612534 1_555
Ga0 Sb0 2.612552 1_555
Ga0 Rb11 3.876251 1_554
Ga0 Rb4 3.876251 1_555
Ga0 Rb10 3.876261 1_554
Ga0 Rb0 3.876261 1_555
Ga0 Rb9 3.876261 1_554
Ga0 Rb3 3.876261 1_555
Ga1 Sb2 2.612534 1_555
Ga1 Sb1 2.612534 1_555
Ga1 Sb5 2.612552 1_555
Ga1 Rb6 3.876251 1_555
Ga1 Rb1 3.876251 1_556
Ga1 Rb5 3.876261 1_555
Ga1 Rb7 3.876261 1_556
Ga1 Rb8 3.876261 1_555
Ga1 Rb2 3.876261 1_556
