# generated using pymatgen
data_LiV(CuS2)2
_symmetry_space_group_name_H-M   'P 1'
_cell_length_a   5.94749996
_cell_length_b   5.35677903
_cell_length_c   5.35677903
_cell_angle_alpha   90.00000000
_cell_angle_beta   90.00000000
_cell_angle_gamma   90.00000000
_symmetry_Int_Tables_number   1
_chemical_formula_structural   LiV(CuS2)2
_chemical_formula_sum   'Li1 V1 Cu2 S4'
_cell_volume   170.66399635
_cell_formula_units_Z   1
loop_
 _symmetry_equiv_pos_site_id
 _symmetry_equiv_pos_as_xyz
  1  'x, y, z'
loop_
 _atom_site_type_symbol
 _atom_site_label
 _atom_site_symmetry_multiplicity
 _atom_site_fract_x
 _atom_site_fract_y
 _atom_site_fract_z
 _atom_site_occupancy
  Li  Li0  1  0.50000000  0.00000000  0.00000000  1
  V  V0  1  0.00000000  0.00000000  0.00000000  1
  Cu  Cu0  1  0.00000000  0.00000000  0.50000000  1
  Cu  Cu1  1  0.00000000  0.50000000  0.00000000  1
  S  S0  1  0.21432258  0.23487278  0.23487278  1
  S  S1  1  0.21432258  0.76512722  0.76512722  1
  S  S2  1  0.78567742  0.23487278  0.76512722  1
  S  S3  1  0.78567742  0.76512722  0.23487278  1
loop_
_geom_bond_atom_site_label_1
_geom_bond_atom_site_label_2
_geom_bond_distance
_geom_bond_site_symmetry_2
Li0 S2 2.460237 1_554
Li0 S3 2.460237 1_545
Li0 S0 2.460237 1_555
Li0 S1 2.460237 1_544
Cu0 S1 2.285790 1_545
Cu0 S2 2.285790 1_455
Cu0 S0 2.285790 1_555
Cu0 S3 2.285790 1_445
Cu1 S1 2.285790 1_554
Cu1 S3 2.285790 1_455
Cu1 S0 2.285790 1_555
Cu1 S2 2.285790 1_454
S0 V0 2.188780 1_555
S1 V0 2.188780 1_566
S2 V0 2.188780 1_656
S3 V0 2.188780 1_665
