# generated using pymatgen
data_Tb3SiBr3
_symmetry_space_group_name_H-M   'P 1'
_cell_length_a   10.02343780
_cell_length_b   10.02372117
_cell_length_c   10.02331155
_cell_angle_alpha   109.47088627
_cell_angle_beta   109.47022212
_cell_angle_gamma   109.47244192
_symmetry_Int_Tables_number   1
_chemical_formula_structural   Tb3SiBr3
_chemical_formula_sum   'Tb12 Si4 Br12'
_cell_volume   775.23900239
_cell_formula_units_Z   4
loop_
 _symmetry_equiv_pos_site_id
 _symmetry_equiv_pos_as_xyz
  1  'x, y, z'
loop_
 _atom_site_type_symbol
 _atom_site_label
 _atom_site_symmetry_multiplicity
 _atom_site_fract_x
 _atom_site_fract_y
 _atom_site_fract_z
 _atom_site_occupancy
  Tb  Tb0  1  0.26183896  0.01183481  0.02367270  1
  Tb  Tb1  1  0.02367614  0.26184035  0.01183412  1
  Tb  Tb2  1  0.48816031  0.74999898  0.01183553  1
  Tb  Tb3  1  0.74999878  0.23815692  0.26183751  1
  Tb  Tb4  1  0.01183595  0.02367412  0.26183761  1
  Tb  Tb5  1  0.01183506  0.48815690  0.74999867  1
  Tb  Tb6  1  0.23815891  0.26184304  0.74999763  1
  Tb  Tb7  1  0.26183764  0.75000367  0.23816439  1
  Tb  Tb8  1  0.23816073  0.47632261  0.48816874  1
  Tb  Tb9  1  0.47633201  0.48816429  0.23816455  1
  Tb  Tb10  1  0.75000443  0.01184593  0.48816971  1
  Tb  Tb11  1  0.48816221  0.23815711  0.47632206  1
  Si  Si0  1  -0.00000031  0.25000263  0.50000898  1
  Si  Si1  1  0.25000007  0.50000305  -0.00000371  1
  Si  Si2  1  0.49999259  -0.00000005  0.24999791  1
  Si  Si3  1  0.25000911  0.24999363  0.24999712  1
  Br  Br0  1  0.75647865  0.74356064  0.25001173  1
  Br  Br1  1  0.50646002  0.25000988  0.99354106  1
  Br  Br2  1  0.24998378  0.99355993  0.50645951  1
  Br  Br3  1  0.51289572  0.50644687  0.75643828  1
  Br  Br4  1  0.99353000  0.98709163  0.74351896  1
  Br  Br5  1  0.74356774  0.99355735  0.98709520  1
  Br  Br6  1  0.50645388  0.75644290  0.51292123  1
  Br  Br7  1  0.75647549  0.51290816  0.50646177  1
  Br  Br8  1  0.99354030  0.50644363  0.25001427  1
  Br  Br9  1  0.98707581  0.74354566  0.99354524  1
  Br  Br10  1  0.24998439  0.75643283  0.74352130  1
  Br  Br11  1  0.74355461  0.25000151  0.75646792  1
loop_
_geom_bond_atom_site_label_1
_geom_bond_atom_site_label_2
_geom_bond_distance
_geom_bond_site_symmetry_2
Si0 Tb6 2.759822 1_555
Si0 Tb10 2.759838 1_455
Si0 Tb5 2.759845 1_555
Si0 Tb8 2.759885 1_555
Si0 Tb3 2.759937 1_455
Si0 Tb4 2.760006 1_555
Si1 Tb2 2.759868 1_555
Si1 Tb5 2.759877 1_554
Si1 Tb6 2.759900 1_554
Si1 Tb1 2.759908 1_555
Si1 Tb7 2.759984 1_555
Si1 Tb9 2.760010 1_555
Si2 Tb0 2.759863 1_555
Si2 Tb11 2.759868 1_555
Si2 Tb7 2.759872 1_545
Si2 Tb3 2.759904 1_555
Si2 Tb2 2.759984 1_545
Si2 Tb10 2.760004 1_555
Si3 Tb11 2.759869 1_555
Si3 Tb0 2.759877 1_555
Si3 Tb9 2.759918 1_555
Si3 Tb4 2.759957 1_555
Si3 Tb1 2.760032 1_555
Si3 Tb8 2.760083 1_555
Br0 Tb10 2.979011 1_565
Br0 Tb2 2.979081 1_555
Br0 Tb4 3.038664 1_665
Br0 Tb9 3.038948 1_555
Br1 Tb9 2.978930 1_556
Br1 Tb0 2.979014 1_556
Br1 Tb6 3.038873 1_555
Br1 Tb3 3.038933 1_556
Br2 Tb4 2.978786 1_565
Br2 Tb11 2.978932 1_565
Br2 Tb6 3.038703 1_565
Br2 Tb7 3.039031 1_555
Br3 Tb8 2.978761 1_555
Br3 Tb6 2.978855 1_555
Br3 Tb11 3.038839 1_555
Br3 Tb2 3.038913 1_556
Br4 Tb6 2.978878 1_665
Br4 Tb1 2.979013 1_666
Br4 Tb10 3.038587 1_565
Br4 Tb0 3.039100 1_666
Br5 Tb4 2.978834 1_666
Br5 Tb3 2.978957 1_566
Br5 Tb1 3.038691 1_666
Br5 Tb2 3.038999 1_556
Br6 Tb9 2.978974 1_555
Br6 Tb7 2.979077 1_555
Br6 Tb8 3.038754 1_555
Br6 Tb10 3.039006 1_565
Br7 Tb3 2.978904 1_555
Br7 Tb11 2.979014 1_555
Br7 Tb5 3.038696 1_655
Br7 Tb9 3.038972 1_555
Br8 Tb8 2.978860 1_655
Br8 Tb1 2.979010 1_655
Br8 Tb3 3.038691 1_555
Br8 Tb7 3.039004 1_655
Br9 Tb0 2.979009 1_666
Br9 Tb7 2.979025 1_656
Br9 Tb4 3.038796 1_666
Br9 Tb5 3.038990 1_655
Br10 Tb5 2.978884 1_555
Br10 Tb2 2.979020 1_556
Br10 Tb8 3.038671 1_555
Br10 Tb0 3.039002 1_566
Br11 Tb5 2.978881 1_655
Br11 Tb10 2.978917 1_555
Br11 Tb1 3.038703 1_656
Br11 Tb11 3.038958 1_555
