# generated using pymatgen
data_Hf9Ti(ZnSb3)2
_symmetry_space_group_name_H-M   'P 1'
_cell_length_a   8.51577581
_cell_length_b   8.51577570
_cell_length_c   5.72073463
_cell_angle_alpha   90.00000000
_cell_angle_beta   90.00000000
_cell_angle_gamma   119.99999659
_symmetry_Int_Tables_number   1
_chemical_formula_structural   Hf9Ti(ZnSb3)2
_chemical_formula_sum   'Hf9 Ti1 Zn2 Sb6'
_cell_volume   359.27821355
_cell_formula_units_Z   1
loop_
 _symmetry_equiv_pos_site_id
 _symmetry_equiv_pos_as_xyz
  1  'x, y, z'
loop_
 _atom_site_type_symbol
 _atom_site_label
 _atom_site_symmetry_multiplicity
 _atom_site_fract_x
 _atom_site_fract_y
 _atom_site_fract_z
 _atom_site_occupancy
  Hf  Hf0  1  0.73354952  0.73176054  0.24802250  1
  Hf  Hf1  1  0.73354952  0.00178897  0.75197750  1
  Hf  Hf2  1  0.99821103  0.26645048  0.24802250  1
  Hf  Hf3  1  0.99821103  0.73176054  0.75197750  1
  Hf  Hf4  1  0.26823946  0.26645048  0.75197750  1
  Hf  Hf5  1  0.26823946  0.00178897  0.24802250  1
  Hf  Hf6  1  0.66666700  0.33333300  0.00000000  1
  Hf  Hf7  1  0.66666700  0.33333300  0.50000000  1
  Hf  Hf8  1  0.33333300  0.66666700  0.00000000  1
  Ti  Ti0  1  0.33333300  0.66666700  0.50000000  1
  Zn  Zn0  1  0.00000000  0.00000000  0.00000000  1
  Zn  Zn1  1  0.00000000  0.00000000  0.50000000  1
  Sb  Sb0  1  0.38569495  0.99628666  0.74628285  1
  Sb  Sb1  1  0.38569495  0.38940829  0.25371715  1
  Sb  Sb2  1  0.00371334  0.61430505  0.25371715  1
  Sb  Sb3  1  0.00371334  0.38940829  0.74628285  1
  Sb  Sb4  1  0.61059171  0.61430505  0.74628285  1
  Sb  Sb5  1  0.61059171  0.99628666  0.25371715  1
loop_
_geom_bond_atom_site_label_1
_geom_bond_atom_site_label_2
_geom_bond_distance
_geom_bond_site_symmetry_2
Hf0 Zn0 2.682630 1_665
Hf0 Zn1 2.694665 1_665
Hf0 Sb5 2.920711 1_555
Hf0 Sb2 2.931841 1_655
Hf0 Sb1 2.939284 1_555
Hf0 Sb4 3.028924 1_555
Hf0 Sb4 3.047662 1_554
Hf1 Zn0 2.682630 1_656
Hf1 Zn1 2.694665 1_655
Hf1 Sb4 2.920711 1_545
Hf1 Sb3 2.931841 1_655
Hf1 Sb0 2.939284 1_545
Hf1 Sb5 3.028924 1_545
Hf1 Sb5 3.047662 1_546
Hf2 Zn0 2.682630 1_655
Hf2 Zn1 2.694665 1_655
Hf2 Sb1 2.920711 1_655
Hf2 Sb5 2.931841 1_545
Hf2 Sb2 2.939284 1_655
Hf2 Sb3 3.028924 1_655
Hf2 Sb3 3.047662 1_654
Hf3 Zn0 2.682630 1_666
Hf3 Zn1 2.694665 1_665
Hf3 Sb0 2.920711 1_655
Hf3 Sb4 2.931841 1_555
Hf3 Sb3 2.939284 1_655
Hf3 Sb2 3.028924 1_655
Hf3 Sb2 3.047662 1_656
Hf4 Zn0 2.682630 1_556
Hf4 Zn1 2.694665 1_555
Hf4 Sb3 2.920711 1_555
Hf4 Sb0 2.931841 1_545
Hf4 Sb4 2.939284 1_555
Hf4 Sb1 3.028924 1_555
Hf4 Sb1 3.047662 1_556
Hf5 Zn0 2.682630 1_555
Hf5 Zn1 2.694665 1_555
Hf5 Sb2 2.920711 1_545
Hf5 Sb1 2.931841 1_555
Hf5 Sb5 2.939284 1_545
Hf5 Sb0 3.028924 1_545
Hf5 Sb0 3.047662 1_544
Hf6 Hf7 2.860367 1_554
Hf6 Hf7 2.860367 1_555
Hf6 Sb5 3.033521 1_545
Hf6 Sb3 3.033521 1_654
Hf6 Sb0 3.033523 1_544
Hf6 Sb2 3.033523 1_655
Hf6 Sb4 3.033528 1_554
Hf6 Sb1 3.033528 1_555
Hf7 Sb5 3.013403 1_545
Hf7 Sb3 3.013403 1_655
Hf7 Sb0 3.013406 1_545
Hf7 Sb2 3.013406 1_655
Hf7 Sb4 3.013410 1_555
Hf7 Sb1 3.013410 1_555
Hf8 Ti0 2.860367 1_554
Hf8 Ti0 2.860367 1_555
Hf8 Sb0 2.988806 1_554
Hf8 Sb2 2.988806 1_555
Hf8 Sb5 2.988809 1_555
Hf8 Sb3 2.988809 1_554
Hf8 Sb1 2.988813 1_555
Hf8 Sb4 2.988813 1_554
Sb0 Ti0 2.968385 1_555
Sb1 Ti0 2.968393 1_555
Sb2 Ti0 2.968385 1_555
Sb3 Ti0 2.968388 1_555
Sb4 Ti0 2.968393 1_555
Sb5 Ti0 2.968388 1_555
