# generated using pymatgen
data_Hg2Mo2O7
_symmetry_space_group_name_H-M   'P 1'
_cell_length_a   3.97265336
_cell_length_b   6.03324757
_cell_length_c   14.18200788
_cell_angle_alpha   99.67592448
_cell_angle_beta   90.00486297
_cell_angle_gamma   89.99650257
_symmetry_Int_Tables_number   1
_chemical_formula_structural   Hg2Mo2O7
_chemical_formula_sum   'Hg4 Mo4 O14'
_cell_volume   335.07882074
_cell_formula_units_Z   2
loop_
 _symmetry_equiv_pos_site_id
 _symmetry_equiv_pos_as_xyz
  1  'x, y, z'
loop_
 _atom_site_type_symbol
 _atom_site_label
 _atom_site_symmetry_multiplicity
 _atom_site_fract_x
 _atom_site_fract_y
 _atom_site_fract_z
 _atom_site_occupancy
  Hg  Hg0  1  0.33531231  0.58158099  0.93625745  1
  Hg  Hg1  1  0.33533064  0.91837647  0.56372089  1
  Hg  Hg2  1  0.66468738  0.41841932  0.06374315  1
  Hg  Hg3  1  0.66466873  0.08162406  0.43627902  1
  Mo  Mo0  1  0.96470111  0.49504276  0.68444146  1
  Mo  Mo1  1  0.96476465  0.00490833  0.81549785  1
  Mo  Mo2  1  0.03530066  0.50495655  0.31555895  1
  Mo  Mo3  1  0.03523665  0.99509202  0.18450230  1
  O  O0  1  0.04262657  0.24996462  0.74996228  1
  O  O1  1  0.95737366  0.75003603  0.25003765  1
  O  O2  1  0.52897331  0.50586102  0.69611765  1
  O  O3  1  0.52898807  0.99407975  0.80382039  1
  O  O4  1  0.47102670  0.49413919  0.30388250  1
  O  O5  1  0.47101115  0.00591985  0.19617957  1
  O  O6  1  0.02527688  0.36326633  0.56925386  1
  O  O7  1  0.02535733  0.13670443  0.93068065  1
  O  O8  1  0.96853206  0.19686447  0.33115146  1
  O  O9  1  0.96843379  0.30318947  0.16891112  1
  O  O10  1  0.03146716  0.80313477  0.66884896  1
  O  O11  1  0.97472310  0.63673376  0.43074655  1
  O  O12  1  0.97464257  0.86329547  0.06931951  1
  O  O13  1  0.03156653  0.69681035  0.83108879  1
loop_
_geom_bond_atom_site_label_1
_geom_bond_atom_site_label_2
_geom_bond_distance
_geom_bond_site_symmetry_2
Hg0 O13 2.124173 1_555
Hg1 O10 2.124228 1_555
Hg2 O9 2.124168 1_555
Hg3 O8 2.124219 1_555
Mo0 O6 1.709410 1_655
Mo0 O2 1.739088 1_555
Mo0 O0 1.899299 1_655
Mo0 O10 1.926814 1_655
Mo0 O13 2.242030 1_655
Mo0 O2 2.247895 1_655
Mo1 O7 1.709370 1_655
Mo1 O3 1.739264 1_545
Mo1 O0 1.899329 1_655
Mo1 O13 1.926827 1_645
Mo1 O10 2.242010 1_645
Mo1 O3 2.247724 1_645
Mo2 O11 1.709412 1_455
Mo2 O4 1.739081 1_555
Mo2 O1 1.899311 1_455
Mo2 O8 1.926816 1_455
Mo2 O9 2.242035 1_455
Mo2 O4 2.247902 1_455
Mo3 O12 1.709372 1_455
Mo3 O5 1.739255 1_565
Mo3 O1 1.899327 1_455
Mo3 O9 1.926825 1_465
Mo3 O8 2.242012 1_465
Mo3 O5 2.247732 1_465
