# generated using pymatgen
data_AlNi20(B3Sb)2
_symmetry_space_group_name_H-M   'P 1'
_cell_length_a   7.43371158
_cell_length_b   7.43371089
_cell_length_c   7.43370995
_cell_angle_alpha   59.99999987
_cell_angle_beta   60.00000294
_cell_angle_gamma   59.99999390
_symmetry_Int_Tables_number   1
_chemical_formula_structural   AlNi20(B3Sb)2
_chemical_formula_sum   'Al1 Ni20 B6 Sb2'
_cell_volume   290.47046254
_cell_formula_units_Z   1
loop_
 _symmetry_equiv_pos_site_id
 _symmetry_equiv_pos_as_xyz
  1  'x, y, z'
loop_
 _atom_site_type_symbol
 _atom_site_label
 _atom_site_symmetry_multiplicity
 _atom_site_fract_x
 _atom_site_fract_y
 _atom_site_fract_z
 _atom_site_occupancy
  Al  Al0  1  0.00000000  0.00000000  0.00000000  1
  Ni  Ni0  1  1.00000000  1.00000000  0.66340417  1
  Ni  Ni1  1  0.61548262  0.61548262  0.15355213  1
  Ni  Ni2  1  0.38451738  0.84644787  0.38451738  1
  Ni  Ni3  1  0.66340417  0.33659583  0.00000000  1
  Ni  Ni4  1  0.00000000  0.33659583  0.66340417  1
  Ni  Ni5  1  0.66340417  1.00000000  0.00000000  1
  Ni  Ni6  1  0.00000000  0.00000000  0.33659583  1
  Ni  Ni7  1  0.00000000  0.33659583  1.00000000  1
  Ni  Ni8  1  0.33659583  0.00000000  0.66340417  1
  Ni  Ni9  1  0.66340417  1.00000000  0.33659583  1
  Ni  Ni10  1  0.33659583  0.00000000  1.00000000  1
  Ni  Ni11  1  1.00000000  0.66340417  0.00000000  1
  Ni  Ni12  1  0.38451738  0.38451738  0.84644787  1
  Ni  Ni13  1  1.00000000  0.66340417  0.33659583  1
  Ni  Ni14  1  0.33659583  0.66340417  1.00000000  1
  Ni  Ni15  1  0.61548262  0.15355213  0.61548262  1
  Ni  Ni16  1  0.15355213  0.61548262  0.61548262  1
  Ni  Ni17  1  0.38451738  0.38451738  0.38451738  1
  Ni  Ni18  1  0.84644787  0.38451738  0.38451738  1
  Ni  Ni19  1  0.61548262  0.61548262  0.61548262  1
  B  B0  1  0.72792155  0.72792155  0.27207845  1
  B  B1  1  0.72792155  0.27207845  0.72792155  1
  B  B2  1  0.27207845  0.72792155  0.27207845  1
  B  B3  1  0.72792155  0.27207845  0.27207845  1
  B  B4  1  0.27207845  0.72792155  0.72792155  1
  B  B5  1  0.27207845  0.27207845  0.72792155  1
  Sb  Sb0  1  0.25000000  0.25000000  0.25000000  1
  Sb  Sb1  1  0.75000000  0.75000000  0.75000000  1
loop_
_geom_bond_atom_site_label_1
_geom_bond_atom_site_label_2
_geom_bond_distance
_geom_bond_site_symmetry_2
Al0 Ni6 2.502156 1_555
Al0 Ni0 2.502156 1_444
Al0 Ni4 2.502156 1_554
Al0 Ni13 2.502156 1_445
Al0 Ni3 2.502156 1_455
Al0 Ni14 2.502156 1_544
Al0 Ni7 2.502156 1_554
Al0 Ni11 2.502156 1_445
Al0 Ni9 2.502156 1_445
Al0 Ni8 2.502156 1_554
Al0 Ni10 2.502156 1_554
Al0 Ni5 2.502156 1_445
Ni1 Sb1 2.449400 1_554
Ni2 Sb0 2.449400 1_565
Ni12 Sb0 2.449400 1_556
Ni15 Sb1 2.449400 1_545
Ni16 Sb1 2.449400 1_455
Ni17 Sb0 2.449400 1_555
Ni18 Sb0 2.449400 1_655
Ni19 Sb1 2.449400 1_555
B0 Ni5 2.078638 1_555
B0 Ni9 2.078638 1_555
B0 Ni11 2.078639 1_555
B0 Ni13 2.078639 1_555
B0 Ni19 2.084489 1_555
B0 Ni18 2.084489 1_555
B0 Ni1 2.084490 1_555
B0 Ni2 2.084490 1_555
B1 Ni3 2.078638 1_556
B1 Ni0 2.078638 1_545
B1 Ni5 2.078639 1_546
B1 Ni4 2.078639 1_655
B1 Ni18 2.084489 1_555
B1 Ni19 2.084489 1_555
B1 Ni15 2.084490 1_555
B1 Ni12 2.084490 1_555
B2 Ni14 2.078638 1_554
B2 Ni6 2.078638 1_565
B2 Ni10 2.078639 1_564
B2 Ni13 2.078639 1_455
B2 Ni16 2.084489 1_555
B2 Ni17 2.084489 1_555
B2 Ni2 2.084490 1_555
B2 Ni1 2.084490 1_555
B3 Ni3 2.078638 1_555
B3 Ni6 2.078638 1_655
B3 Ni9 2.078639 1_545
B3 Ni7 2.078639 1_654
B3 Ni15 2.084489 1_555
B3 Ni1 2.084489 1_555
B3 Ni18 2.084490 1_555
B3 Ni17 2.084490 1_555
B4 Ni14 2.078638 1_555
B4 Ni0 2.078638 1_455
B4 Ni8 2.078639 1_565
B4 Ni11 2.078639 1_456
B4 Ni2 2.084489 1_555
B4 Ni12 2.084489 1_555
B4 Ni16 2.084490 1_555
B4 Ni19 2.084490 1_555
B5 Ni10 2.078638 1_555
B5 Ni8 2.078638 1_555
B5 Ni7 2.078639 1_555
B5 Ni4 2.078639 1_555
B5 Ni17 2.084489 1_555
B5 Ni16 2.084489 1_555
B5 Ni12 2.084490 1_555
B5 Ni15 2.084490 1_555
