# generated using pymatgen
data_NaGaI3
_symmetry_space_group_name_H-M   'P 1'
_cell_length_a   11.94109904
_cell_length_b   7.48034022
_cell_length_c   8.89255113
_cell_angle_alpha   89.27877241
_cell_angle_beta   90.00000000
_cell_angle_gamma   90.00000000
_symmetry_Int_Tables_number   1
_chemical_formula_structural   NaGaI3
_chemical_formula_sum   'Na4 Ga4 I12'
_cell_volume   794.25071392
_cell_formula_units_Z   4
loop_
 _symmetry_equiv_pos_site_id
 _symmetry_equiv_pos_as_xyz
  1  'x, y, z'
loop_
 _atom_site_type_symbol
 _atom_site_label
 _atom_site_symmetry_multiplicity
 _atom_site_fract_x
 _atom_site_fract_y
 _atom_site_fract_z
 _atom_site_occupancy
  Na  Na0  1  0.50000000  0.00000000  0.50000000  1
  Na  Na1  1  0.50000000  0.50000000  0.00000000  1
  Na  Na2  1  0.00000000  0.00000000  0.50000000  1
  Na  Na3  1  0.00000000  0.50000000  0.00000000  1
  Ga  Ga0  1  0.25000000  0.03996785  0.97133666  1
  Ga  Ga1  1  0.75000000  0.86039520  0.76686700  1
  Ga  Ga2  1  0.75000000  0.96003215  0.02866334  1
  Ga  Ga3  1  0.25000000  0.13960480  0.23313300  1
  I  I0  1  0.75000000  0.30526309  0.06905641  1
  I  I1  1  0.57935549  0.66116763  0.68577533  1
  I  I2  1  0.07935549  0.33883237  0.31422467  1
  I  I3  1  0.42064451  0.33883237  0.31422467  1
  I  I4  1  0.07662414  0.16553643  0.82001461  1
  I  I5  1  0.57662414  0.83446357  0.17998539  1
  I  I6  1  0.92337586  0.83446357  0.17998539  1
  I  I7  1  0.42337586  0.16553643  0.82001461  1
  I  I8  1  0.25000000  0.69473691  0.93094359  1
  I  I9  1  0.75000000  0.13045421  0.57446548  1
  I  I10  1  0.25000000  0.86954579  0.42553452  1
  I  I11  1  0.92064451  0.66116763  0.68577533  1
loop_
_geom_bond_atom_site_label_1
_geom_bond_atom_site_label_2
_geom_bond_distance
_geom_bond_site_symmetry_2
Ga0 Ga3 2.453353 1_556
Ga0 I8 2.611780 1_545
Ga0 I7 2.635780 1_555
Ga0 I4 2.635780 1_555
Ga1 Ga2 2.453353 1_556
Ga1 I11 2.630622 1_555
Ga1 I1 2.630622 1_555
Ga1 I9 2.630825 1_565
Ga2 I0 2.611780 1_565
Ga2 I6 2.635780 1_555
Ga2 I5 2.635780 1_555
Ga3 I3 2.630622 1_555
Ga3 I2 2.630622 1_555
Ga3 I10 2.630825 1_545
I0 Na3 3.374673 1_655
I0 Na1 3.374673 1_555
I1 Na0 3.153693 1_565
I1 Na1 3.174027 1_556
I2 Na2 3.153693 1_555
I2 Na3 3.174027 1_555
I3 Na0 3.153693 1_555
I3 Na1 3.174027 1_555
I4 Na3 3.123971 1_556
I4 Na2 3.249227 1_555
I5 Na1 3.123971 1_555
I5 Na0 3.249227 1_565
I6 Na3 3.123971 1_655
I6 Na2 3.249227 1_665
I7 Na1 3.123971 1_556
I7 Na0 3.249227 1_555
I8 Na3 3.374673 1_556
I8 Na1 3.374673 1_556
I9 Na2 3.212303 1_655
I9 Na0 3.212303 1_555
I10 Na2 3.212303 1_565
I10 Na0 3.212303 1_565
I11 Na2 3.153693 1_665
I11 Na3 3.174027 1_656
