# generated using pymatgen
data_Mg(SbO3)2
_symmetry_space_group_name_H-M   'P 1'
_cell_length_a   4.66240552
_cell_length_b   4.66240552
_cell_length_c   9.26369198
_cell_angle_alpha   90.00000000
_cell_angle_beta   90.00000000
_cell_angle_gamma   90.00000000
_symmetry_Int_Tables_number   1
_chemical_formula_structural   Mg(SbO3)2
_chemical_formula_sum   'Mg2 Sb4 O12'
_cell_volume   201.37437001
_cell_formula_units_Z   2
loop_
 _symmetry_equiv_pos_site_id
 _symmetry_equiv_pos_as_xyz
  1  'x, y, z'
loop_
 _atom_site_type_symbol
 _atom_site_label
 _atom_site_symmetry_multiplicity
 _atom_site_fract_x
 _atom_site_fract_y
 _atom_site_fract_z
 _atom_site_occupancy
  Mg  Mg0  1  -0.00000000  -0.00000000  0.00000000  1
  Mg  Mg1  1  0.50000000  0.50000000  0.50000000  1
  Sb  Sb0  1  0.50000000  0.50000000  0.83229364  1
  Sb  Sb1  1  -0.00000000  -0.00000000  0.33229364  1
  Sb  Sb2  1  0.50000000  0.50000000  0.16770636  1
  Sb  Sb3  1  -0.00000000  -0.00000000  0.66770636  1
  O  O0  1  0.69835289  0.69835289  0.67189016  1
  O  O1  1  0.30164711  0.30164711  0.67189016  1
  O  O2  1  0.69835289  0.69835289  0.32810984  1
  O  O3  1  0.19835289  0.80164711  0.17189016  1
  O  O4  1  0.80164711  0.19835289  0.17189016  1
  O  O5  1  0.80164711  0.19835289  0.82810984  1
  O  O6  1  0.30992276  0.30992276  0.00000000  1
  O  O7  1  0.19007724  0.80992276  0.50000000  1
  O  O8  1  0.80992276  0.19007724  0.50000000  1
  O  O9  1  0.69007724  0.69007724  0.00000000  1
  O  O10  1  0.30164711  0.30164711  0.32810984  1
  O  O11  1  0.19835289  0.80164711  0.82810984  1
loop_
_geom_bond_atom_site_label_1
_geom_bond_atom_site_label_2
_geom_bond_distance
_geom_bond_site_symmetry_2
Mg0 O6 2.043518 1_555
Mg0 O9 2.043518 1_445
Mg0 O4 2.060596 1_455
Mg0 O3 2.060596 1_545
Mg0 O5 2.060596 1_454
Mg0 O11 2.060596 1_544
Mg1 O7 2.043518 1_555
Mg1 O8 2.043518 1_555
Mg1 O2 2.060596 1_555
Mg1 O10 2.060596 1_555
Mg1 O1 2.060596 1_555
Mg1 O0 2.060596 1_555
O0 Sb0 1.979520 1_555
O0 Sb3 1.989329 1_665
O1 Sb0 1.979520 1_555
O1 Sb3 1.989329 1_555
O2 Sb2 1.979520 1_555
O2 Sb1 1.989329 1_665
O3 Sb1 1.979520 1_565
O3 Sb2 1.989329 1_555
O4 Sb1 1.979520 1_655
O4 Sb2 1.989329 1_555
O5 Sb3 1.979520 1_655
O5 Sb0 1.989329 1_555
O6 Sb2 1.996089 1_555
O6 Sb0 1.996089 1_554
O7 Sb1 1.996089 1_565
O7 Sb3 1.996089 1_565
O8 Sb1 1.996089 1_655
O8 Sb3 1.996089 1_655
O9 Sb2 1.996089 1_555
O9 Sb0 1.996089 1_554
O10 Sb2 1.979520 1_555
O10 Sb1 1.989329 1_555
O11 Sb3 1.979520 1_565
O11 Sb0 1.989329 1_555
