# generated using pymatgen
data_RbSb12Ir3Os
_symmetry_space_group_name_H-M   'P 1'
_cell_length_a   8.12876988
_cell_length_b   8.12877099
_cell_length_c   8.12877052
_cell_angle_alpha   109.50156545
_cell_angle_beta   109.50156400
_cell_angle_gamma   109.50156676
_symmetry_Int_Tables_number   1
_chemical_formula_structural   RbSb12Ir3Os
_chemical_formula_sum   'Rb1 Sb12 Ir3 Os1'
_cell_volume   413.01307988
_cell_formula_units_Z   1
loop_
 _symmetry_equiv_pos_site_id
 _symmetry_equiv_pos_as_xyz
  1  'x, y, z'
loop_
 _atom_site_type_symbol
 _atom_site_label
 _atom_site_symmetry_multiplicity
 _atom_site_fract_x
 _atom_site_fract_y
 _atom_site_fract_z
 _atom_site_occupancy
  Rb  Rb0  1  0.00000000  0.00000000  0.00000000  1
  Sb  Sb0  1  0.34368304  0.18840886  0.84513609  1
  Sb  Sb1  1  0.65631696  0.81159114  0.15486391  1
  Sb  Sb2  1  0.65707901  0.50224705  0.84239271  1
  Sb  Sb3  1  0.34292099  0.49775295  0.15760729  1
  Sb  Sb4  1  0.18840886  0.84513609  0.34368304  1
  Sb  Sb5  1  0.81159114  0.15486391  0.65631696  1
  Sb  Sb6  1  0.50224705  0.84239271  0.65707901  1
  Sb  Sb7  1  0.49775295  0.15760729  0.34292099  1
  Sb  Sb8  1  0.84513609  0.34368304  0.18840886  1
  Sb  Sb9  1  0.15486391  0.65631696  0.81159114  1
  Sb  Sb10  1  0.84239271  0.65707901  0.50224705  1
  Sb  Sb11  1  0.15760729  0.34292099  0.49775295  1
  Ir  Ir0  1  0.00000000  0.00000000  0.50000000  1
  Ir  Ir1  1  0.50000000  0.00000000  0.00000000  1
  Ir  Ir2  1  0.00000000  0.50000000  0.00000000  1
  Os  Os0  1  0.50000000  0.50000000  0.50000000  1
loop_
_geom_bond_atom_site_label_1
_geom_bond_atom_site_label_2
_geom_bond_distance
_geom_bond_site_symmetry_2
Rb0 Sb7 3.522356 1_555
Rb0 Sb6 3.522356 1_444
Rb0 Sb3 3.522356 1_555
Rb0 Sb2 3.522356 1_444
Rb0 Sb11 3.522356 1_555
Rb0 Sb10 3.522356 1_444
Rb0 Sb0 3.537485 1_554
Rb0 Sb1 3.537485 1_445
Rb0 Sb8 3.537485 1_455
Rb0 Sb9 3.537485 1_544
Rb0 Sb5 3.537485 1_454
Rb0 Sb4 3.537485 1_545
Sb0 Sb3 2.920839 1_556
Sb0 Sb2 2.955557 1_555
Sb1 Sb2 2.920839 1_554
Sb1 Sb3 2.955557 1_555
Sb4 Sb7 2.920839 1_565
Sb4 Sb6 2.955557 1_555
Sb5 Sb6 2.920839 1_545
Sb5 Sb7 2.955557 1_555
Sb10 Sb9 2.920839 1_655
Sb10 Sb8 2.955557 1_555
Sb11 Sb8 2.920839 1_455
Sb11 Sb9 2.955557 1_555
Ir0 Sb0 2.657608 1_555
Ir0 Sb1 2.657608 1_445
Ir0 Sb5 2.657719 1_455
Ir0 Sb4 2.657719 1_545
Ir0 Sb11 2.660303 1_555
Ir0 Sb10 2.660303 1_445
Ir1 Sb8 2.657608 1_555
Ir1 Sb9 2.657608 1_544
Ir1 Sb0 2.657719 1_554
Ir1 Sb1 2.657719 1_545
Ir1 Sb7 2.660303 1_555
Ir1 Sb6 2.660303 1_544
Ir2 Sb4 2.657608 1_555
Ir2 Sb5 2.657608 1_454
Ir2 Sb9 2.657719 1_554
Ir2 Sb8 2.657719 1_455
Ir2 Sb3 2.660302 1_555
Ir2 Sb2 2.660302 1_454
Os0 Sb10 2.637200 1_555
Os0 Sb11 2.637200 1_555
Os0 Sb2 2.637200 1_555
Os0 Sb3 2.637200 1_555
Os0 Sb6 2.637200 1_555
Os0 Sb7 2.637200 1_555
