# generated using pymatgen
data_Sr(FeBr4)2
_symmetry_space_group_name_H-M   'P 1'
_cell_length_a   7.49041818
_cell_length_b   7.68271562
_cell_length_c   13.49725527
_cell_angle_alpha   84.86572420
_cell_angle_beta   90.00000000
_cell_angle_gamma   90.00000000
_symmetry_Int_Tables_number   1
_chemical_formula_structural   Sr(FeBr4)2
_chemical_formula_sum   'Sr2 Fe4 Br16'
_cell_volume   773.60677192
_cell_formula_units_Z   2
loop_
 _symmetry_equiv_pos_site_id
 _symmetry_equiv_pos_as_xyz
  1  'x, y, z'
loop_
 _atom_site_type_symbol
 _atom_site_label
 _atom_site_symmetry_multiplicity
 _atom_site_fract_x
 _atom_site_fract_y
 _atom_site_fract_z
 _atom_site_occupancy
  Sr  Sr0  1  0.14609585  0.50000000  0.25000000  1
  Sr  Sr1  1  0.85390415  0.50000000  0.75000000  1
  Fe  Fe0  1  0.26313946  0.67760501  0.57643946  1
  Fe  Fe1  1  0.73686054  0.67760501  0.07643946  1
  Fe  Fe2  1  0.73686054  0.32239499  0.42356054  1
  Fe  Fe3  1  0.26313946  0.32239499  0.92356054  1
  Br  Br0  1  0.53388295  0.74264848  0.65168737  1
  Br  Br1  1  0.30148806  0.74971882  0.40470033  1
  Br  Br2  1  0.81704937  0.38501869  0.11280163  1
  Br  Br3  1  0.18295063  0.61498131  0.88719837  1
  Br  Br4  1  0.46611705  0.25735152  0.34831263  1
  Br  Br5  1  0.30148806  0.25028118  0.09529967  1
  Br  Br6  1  0.69851194  0.25028118  0.59529967  1
  Br  Br7  1  0.46611705  0.74264848  0.15168737  1
  Br  Br8  1  0.18295063  0.38501869  0.61280163  1
  Br  Br9  1  0.53388295  0.25735152  0.84831263  1
  Br  Br10  1  0.81704937  0.61498131  0.38719837  1
  Br  Br11  1  0.97313960  0.84083336  0.13673253  1
  Br  Br12  1  0.69851194  0.74971882  0.90470033  1
  Br  Br13  1  0.02686040  0.15916664  0.86326747  1
  Br  Br14  1  0.97313960  0.15916664  0.36326747  1
  Br  Br15  1  0.02686040  0.84083336  0.63673253  1
loop_
_geom_bond_atom_site_label_1
_geom_bond_atom_site_label_2
_geom_bond_distance
_geom_bond_site_symmetry_2
Br0 Fe0 2.341961 1_555
Br0 Sr1 3.246436 1_555
Br1 Fe0 2.352182 1_555
Br1 Sr0 3.179992 1_555
Br2 Fe1 2.336035 1_555
Br2 Sr0 3.252232 1_655
Br3 Fe3 2.336035 1_555
Br3 Sr1 3.252232 1_455
Br4 Fe2 2.341961 1_555
Br4 Sr0 3.246436 1_555
Br5 Fe3 2.352182 1_554
Br5 Sr0 3.179992 1_555
Br6 Fe2 2.352182 1_555
Br6 Sr1 3.179992 1_555
Br7 Fe1 2.341961 1_555
Br7 Sr0 3.246436 1_555
Br8 Fe0 2.336035 1_555
Br8 Sr1 3.252232 1_455
Br9 Fe3 2.341961 1_555
Br9 Sr1 3.246436 1_555
Br10 Fe2 2.336035 1_555
Br10 Sr0 3.252232 1_655
Br11 Fe1 2.355804 1_555
Br11 Sr0 3.186812 1_655
Br12 Fe1 2.352182 1_556
Br12 Sr1 3.179992 1_555
Br13 Fe3 2.355804 1_555
Br13 Sr1 3.186812 1_455
Br14 Fe2 2.355804 1_555
Br14 Sr0 3.186812 1_655
Br15 Fe0 2.355804 1_555
Br15 Sr1 3.186812 1_455
