# generated using pymatgen
data_Cs3MoRuBr9
_symmetry_space_group_name_H-M   'P 1'
_cell_length_a   7.69810325
_cell_length_b   7.69810328
_cell_length_c   18.66103592
_cell_angle_alpha   90.00000000
_cell_angle_beta   90.00000000
_cell_angle_gamma   119.99999589
_symmetry_Int_Tables_number   1
_chemical_formula_structural   Cs3MoRuBr9
_chemical_formula_sum   'Cs6 Mo2 Ru2 Br18'
_cell_volume   957.70965058
_cell_formula_units_Z   2
loop_
 _symmetry_equiv_pos_site_id
 _symmetry_equiv_pos_as_xyz
  1  'x, y, z'
loop_
 _atom_site_type_symbol
 _atom_site_label
 _atom_site_symmetry_multiplicity
 _atom_site_fract_x
 _atom_site_fract_y
 _atom_site_fract_z
 _atom_site_occupancy
  Cs  Cs0  1  0.66666700  0.33333300  0.93080616  1
  Cs  Cs1  1  0.33333300  0.66666700  0.43080616  1
  Cs  Cs2  1  0.66666700  0.33333300  0.57327186  1
  Cs  Cs3  1  0.33333300  0.66666700  0.07327186  1
  Cs  Cs4  1  0.00000000  0.00000000  0.74731638  1
  Cs  Cs5  1  0.00000000  0.00000000  0.24731638  1
  Mo  Mo0  1  0.66666700  0.33333300  0.32554171  1
  Mo  Mo1  1  0.33333300  0.66666700  0.82554171  1
  Ru  Ru0  1  0.33333300  0.66666700  0.67438662  1
  Ru  Ru1  1  0.66666700  0.33333300  0.17438662  1
  Br  Br0  1  0.82031482  0.64063063  0.09643668  1
  Br  Br1  1  0.17968518  0.82031482  0.59643668  1
  Br  Br2  1  0.64063063  0.82031482  0.59643668  1
  Br  Br3  1  0.35936937  0.17968518  0.09643668  1
  Br  Br4  1  0.82031482  0.17968518  0.09643668  1
  Br  Br5  1  0.17692914  0.35385827  0.90532639  1
  Br  Br6  1  0.17692914  0.82307086  0.90532639  1
  Br  Br7  1  0.17968518  0.35936937  0.59643668  1
  Br  Br8  1  0.64614173  0.82307086  0.90532639  1
  Br  Br9  1  0.35385827  0.17692914  0.40532639  1
  Br  Br10  1  0.82307086  0.64614173  0.40532639  1
  Br  Br11  1  0.82307086  0.17692914  0.40532639  1
  Br  Br12  1  0.50422847  0.00845694  0.24779536  1
  Br  Br13  1  0.49577153  0.50422847  0.74779536  1
  Br  Br14  1  0.00845694  0.50422847  0.74779536  1
  Br  Br15  1  0.99154306  0.49577153  0.24779536  1
  Br  Br16  1  0.50422847  0.49577153  0.24779536  1
  Br  Br17  1  0.49577153  0.99154306  0.74779536  1
loop_
_geom_bond_atom_site_label_1
_geom_bond_atom_site_label_2
_geom_bond_distance
_geom_bond_site_symmetry_2
Br0 Ru1 2.512572 1_555
Br0 Cs5 3.696949 1_665
Br0 Cs0 3.708147 1_554
Br0 Cs3 3.877137 1_555
Br0 Cs3 3.877137 1_655
Br1 Ru0 2.512561 1_555
Br1 Cs4 3.696953 1_565
Br1 Cs1 3.708139 1_555
Br1 Cs2 3.877138 1_455
Br1 Cs2 3.877138 1_565
Br2 Ru0 2.512572 1_555
Br2 Cs4 3.696949 1_665
Br2 Cs1 3.708147 1_555
Br2 Cs2 3.877137 1_555
Br2 Cs2 3.877137 1_565
Br3 Ru1 2.512572 1_555
Br3 Cs5 3.696949 1_555
Br3 Cs0 3.708147 1_554
Br3 Cs3 3.877137 1_555
Br3 Cs3 3.877137 1_545
Br4 Ru1 2.512561 1_555
Br4 Cs5 3.696953 1_655
Br4 Cs0 3.708139 1_554
Br4 Cs3 3.877138 1_655
Br4 Cs3 3.877138 1_545
Br5 Mo1 2.562360 1_555
Br5 Cs3 3.764460 1_556
Br5 Cs4 3.776203 1_555
Br5 Cs0 3.880718 1_455
Br5 Cs0 3.880726 1_555
Br6 Mo1 2.562355 1_555
Br6 Cs3 3.764456 1_556
Br6 Cs4 3.776203 1_565
Br6 Cs0 3.880722 1_455
Br6 Cs0 3.880722 1_565
Br7 Ru0 2.512572 1_555
Br7 Cs4 3.696949 1_555
Br7 Cs1 3.708147 1_555
Br7 Cs2 3.877137 1_555
Br7 Cs2 3.877137 1_455
Br8 Mo1 2.562360 1_555
Br8 Cs3 3.764460 1_556
Br8 Cs4 3.776203 1_665
Br8 Cs0 3.880718 1_565
Br8 Cs0 3.880726 1_555
Br9 Mo0 2.562360 1_555
Br9 Cs2 3.764460 1_555
Br9 Cs5 3.776203 1_555
Br9 Cs1 3.880718 1_545
Br9 Cs1 3.880726 1_555
Br10 Mo0 2.562360 1_555
Br10 Cs2 3.764460 1_555
Br10 Cs5 3.776203 1_665
Br10 Cs1 3.880718 1_655
Br10 Cs1 3.880726 1_555
Br11 Mo0 2.562355 1_555
Br11 Cs2 3.764456 1_555
Br11 Cs5 3.776203 1_655
Br11 Cs1 3.880722 1_655
Br11 Cs1 3.880722 1_545
Br12 Ru1 2.562726 1_555
Br12 Mo0 2.606892 1_555
Br12 Cs5 3.849475 1_655
Br12 Cs5 3.849475 1_555
Br12 Cs3 3.974774 1_545
Br12 Cs1 4.105550 1_545
Br13 Ru0 2.562732 1_555
Br13 Mo1 2.606898 1_555
Br13 Cs4 3.849475 1_665
Br13 Cs4 3.849475 1_555
Br13 Cs2 3.974778 1_555
Br13 Cs0 4.105554 1_555
Br14 Ru0 2.562726 1_555
Br14 Mo1 2.606892 1_555
Br14 Cs4 3.849475 1_565
Br14 Cs4 3.849475 1_555
Br14 Cs2 3.974774 1_455
Br14 Cs0 4.105550 1_455
Br15 Ru1 2.562726 1_555
Br15 Mo0 2.606892 1_555
Br15 Cs5 3.849475 1_655
Br15 Cs5 3.849475 1_665
Br15 Cs3 3.974774 1_655
Br15 Cs1 4.105550 1_655
Br16 Ru1 2.562732 1_555
Br16 Mo0 2.606898 1_555
Br16 Cs5 3.849475 1_555
Br16 Cs5 3.849475 1_665
Br16 Cs3 3.974778 1_555
Br16 Cs1 4.105554 1_555
Br17 Ru0 2.562726 1_555
Br17 Mo1 2.606892 1_555
Br17 Cs4 3.849475 1_565
Br17 Cs4 3.849475 1_665
Br17 Cs2 3.974774 1_565
Br17 Cs0 4.105550 1_565
