# generated using pymatgen
data_Na3MnCr3O8
_symmetry_space_group_name_H-M   'P 1'
_cell_length_a   6.33992527
_cell_length_b   6.33992581
_cell_length_c   6.33992250
_cell_angle_alpha   55.32601926
_cell_angle_beta   55.32603075
_cell_angle_gamma   55.32602006
_symmetry_Int_Tables_number   1
_chemical_formula_structural   Na3MnCr3O8
_chemical_formula_sum   'Na3 Mn1 Cr3 O8'
_cell_volume   160.62345218
_cell_formula_units_Z   1
loop_
 _symmetry_equiv_pos_site_id
 _symmetry_equiv_pos_as_xyz
  1  'x, y, z'
loop_
 _atom_site_type_symbol
 _atom_site_label
 _atom_site_symmetry_multiplicity
 _atom_site_fract_x
 _atom_site_fract_y
 _atom_site_fract_z
 _atom_site_occupancy
  Na  Na0  1  0.50000000  0.00000000  0.00000000  1
  Na  Na1  1  0.00000000  0.50000000  0.00000000  1
  Na  Na2  1  0.00000000  0.00000000  0.50000000  1
  Mn  Mn0  1  0.00000000  0.00000000  0.00000000  1
  Cr  Cr0  1  0.50000000  0.50000000  0.00000000  1
  Cr  Cr1  1  0.00000000  0.50000000  0.50000000  1
  Cr  Cr2  1  0.50000000  0.00000000  0.50000000  1
  O  O0  1  0.77669552  0.25751306  0.77669652  1
  O  O1  1  0.25751406  0.77669552  0.77669552  1
  O  O2  1  0.77669552  0.77669652  0.25751206  1
  O  O3  1  0.26795184  0.26795184  0.26795184  1
  O  O4  1  0.73204816  0.73204816  0.73204816  1
  O  O5  1  0.22330448  0.22330348  0.74248794  1
  O  O6  1  0.74248594  0.22330448  0.22330448  1
  O  O7  1  0.22330448  0.74248694  0.22330348  1
loop_
_geom_bond_atom_site_label_1
_geom_bond_atom_site_label_2
_geom_bond_distance
_geom_bond_site_symmetry_2
Na0 O3 2.352124 1_555
Na0 O4 2.352124 1_544
Na0 O2 2.355852 1_545
Na0 O5 2.355852 1_554
Na0 O0 2.355858 1_554
Na0 O7 2.355858 1_545
Na1 O3 2.352124 1_555
Na1 O4 2.352124 1_454
Na1 O2 2.355856 1_455
Na1 O5 2.355856 1_554
Na1 O1 2.355862 1_554
Na1 O6 2.355862 1_455
Na2 O3 2.352125 1_555
Na2 O4 2.352125 1_445
Na2 O1 2.355860 1_545
Na2 O6 2.355860 1_455
Na2 O0 2.355861 1_455
Na2 O7 2.355861 1_545
Mn0 O7 1.922180 1_545
Mn0 O0 1.922180 1_454
Mn0 O5 1.922181 1_554
Mn0 O2 1.922181 1_445
Mn0 O6 1.922185 1_455
Mn0 O1 1.922185 1_544
Cr0 O4 1.997477 1_554
Cr0 O3 1.997477 1_555
Cr0 O6 2.006779 1_555
Cr0 O1 2.006779 1_554
Cr0 O7 2.006780 1_555
Cr0 O0 2.006780 1_554
Cr1 O4 1.997476 1_455
Cr1 O3 1.997476 1_555
Cr1 O7 2.006784 1_555
Cr1 O0 2.006784 1_455
Cr1 O5 2.006788 1_555
Cr1 O2 2.006788 1_455
Cr2 O4 1.997476 1_545
Cr2 O3 1.997476 1_555
Cr2 O6 2.006780 1_555
Cr2 O1 2.006780 1_545
Cr2 O5 2.006784 1_555
Cr2 O2 2.006784 1_545
