# generated using pymatgen
data_Sr3C3BrCl
_symmetry_space_group_name_H-M   'P 1'
_cell_length_a   7.59669590
_cell_length_b   7.59669521
_cell_length_c   11.96315940
_cell_angle_alpha   90.00000000
_cell_angle_beta   90.00000000
_cell_angle_gamma   148.57177710
_symmetry_Int_Tables_number   1
_chemical_formula_structural   Sr3C3BrCl
_chemical_formula_sum   'Sr6 C6 Br2 Cl2'
_cell_volume   359.99076393
_cell_formula_units_Z   2
loop_
 _symmetry_equiv_pos_site_id
 _symmetry_equiv_pos_as_xyz
  1  'x, y, z'
loop_
 _atom_site_type_symbol
 _atom_site_label
 _atom_site_symmetry_multiplicity
 _atom_site_fract_x
 _atom_site_fract_y
 _atom_site_fract_z
 _atom_site_occupancy
  Sr  Sr0  1  0.66002416  0.33997584  0.56669413  1
  Sr  Sr1  1  0.33997584  0.66002416  0.43330587  1
  Sr  Sr2  1  0.33997584  0.66002416  0.06669413  1
  Sr  Sr3  1  0.66002416  0.33997584  0.93330587  1
  Sr  Sr4  1  0.11739985  0.88260015  0.25000000  1
  Sr  Sr5  1  0.88260015  0.11739985  0.75000000  1
  C  C0  1  0.27020799  0.72979201  0.63893315  1
  C  C1  1  0.72979201  0.27020799  0.36106685  1
  C  C2  1  0.72979201  0.27020799  0.13893315  1
  C  C3  1  0.27020799  0.72979201  0.86106685  1
  C  C4  1  0.73795486  0.26204514  0.25000000  1
  C  C5  1  0.26204514  0.73795486  0.75000000  1
  Br  Br0  1  0.00000000  0.00000000  0.00000000  1
  Br  Br1  1  0.00000000  0.00000000  0.50000000  1
  Cl  Cl0  1  0.52843996  0.47156004  0.75000000  1
  Cl  Cl1  1  0.47156004  0.52843996  0.25000000  1
loop_
_geom_bond_atom_site_label_1
_geom_bond_atom_site_label_2
_geom_bond_distance
_geom_bond_site_symmetry_2
C0 C5 1.334063 1_555
C0 Sr1 2.663187 1_555
C0 Sr0 2.752628 1_565
C0 Sr0 2.752629 1_455
C0 Sr5 2.949698 1_455
C0 Sr5 2.949699 1_565
C1 C4 1.334063 1_555
C1 Sr0 2.663187 1_555
C1 Sr1 2.752628 1_545
C1 Sr1 2.752629 1_655
C1 Sr4 2.949698 1_655
C1 Sr4 2.949699 1_545
C2 C4 1.334063 1_555
C2 Sr3 2.663187 1_554
C2 Sr2 2.752628 1_545
C2 Sr2 2.752629 1_655
C2 Sr4 2.949698 1_655
C2 Sr4 2.949699 1_545
C3 C5 1.334063 1_555
C3 Sr2 2.663187 1_556
C3 Sr3 2.752628 1_565
C3 Sr3 2.752629 1_455
C3 Sr5 2.949698 1_455
C3 Sr5 2.949699 1_565
C4 Sr4 2.709611 1_655
C4 Sr4 2.709612 1_545
C5 Sr5 2.709611 1_455
C5 Sr5 2.709612 1_565
Br0 Sr2 3.216744 1_555
Br0 Sr3 3.216744 1_444
Br0 Sr3 3.216744 1_554
Br0 Sr2 3.216744 1_445
Br0 Sr5 3.448628 1_454
Br0 Sr4 3.448628 1_545
Br1 Sr0 3.216744 1_445
Br1 Sr1 3.216744 1_555
Br1 Sr0 3.216744 1_555
Br1 Sr1 3.216744 1_445
Br1 Sr4 3.448628 1_545
Br1 Sr5 3.448628 1_455
Cl0 Sr3 2.917627 1_555
Cl0 Sr0 2.917627 1_555
Cl0 Sr5 2.963581 1_565
Cl0 Sr5 2.963581 1_455
Cl1 Sr1 2.917627 1_555
Cl1 Sr2 2.917627 1_555
Cl1 Sr4 2.963581 1_545
Cl1 Sr4 2.963581 1_655
