# generated using pymatgen
data_Sr2Zn2CuAs3
_symmetry_space_group_name_H-M   'P 1'
_cell_length_a   4.23500256
_cell_length_b   4.23499775
_cell_length_c   23.08879854
_cell_angle_alpha   90.00000000
_cell_angle_beta   90.00000000
_cell_angle_gamma   119.99823233
_symmetry_Int_Tables_number   1
_chemical_formula_structural   Sr2Zn2CuAs3
_chemical_formula_sum   'Sr4 Zn4 Cu2 As6'
_cell_volume   358.62995592
_cell_formula_units_Z   2
loop_
 _symmetry_equiv_pos_site_id
 _symmetry_equiv_pos_as_xyz
  1  'x, y, z'
loop_
 _atom_site_type_symbol
 _atom_site_label
 _atom_site_symmetry_multiplicity
 _atom_site_fract_x
 _atom_site_fract_y
 _atom_site_fract_z
 _atom_site_occupancy
  Sr  Sr0  1  0.00000174  0.00000007  0.65717121  1
  Sr  Sr1  1  0.99999826  0.99999993  0.34282879  1
  Sr  Sr2  1  0.99999826  0.99999993  0.15717121  1
  Sr  Sr3  1  0.00000174  0.00000007  0.84282879  1
  Zn  Zn0  1  0.33333568  0.66666477  0.95923510  1
  Zn  Zn1  1  0.66666432  0.33333523  0.45923510  1
  Zn  Zn2  1  0.66666432  0.33333523  0.04076490  1
  Zn  Zn3  1  0.33333568  0.66666477  0.54076490  1
  Cu  Cu0  1  0.66667566  0.33333696  0.75000000  1
  Cu  Cu1  1  0.33332434  0.66666304  0.25000000  1
  As  As0  1  0.66666506  0.33333576  0.57144450  1
  As  As1  1  0.33333494  0.66666424  0.42855550  1
  As  As2  1  0.33333493  0.66667059  0.75000000  1
  As  As3  1  0.66666506  0.33333576  0.92855550  1
  As  As4  1  0.33333494  0.66666424  0.07144450  1
  As  As5  1  0.66666507  0.33332941  0.25000000  1
loop_
_geom_bond_atom_site_label_1
_geom_bond_atom_site_label_2
_geom_bond_distance
_geom_bond_site_symmetry_2
Cu0 Sr3 3.251460 1_655
Cu0 Sr0 3.251460 1_655
Cu0 Sr3 3.251509 1_665
Cu0 Sr0 3.251509 1_665
Cu0 Sr3 3.251541 1_555
Cu0 Sr0 3.251541 1_555
Cu1 Sr1 3.251460 1_455
Cu1 Sr2 3.251460 1_455
Cu1 Sr1 3.251509 1_445
Cu1 Sr2 3.251509 1_445
Cu1 Sr1 3.251541 1_555
Cu1 Sr2 3.251541 1_555
As0 Zn3 2.545569 1_555
As0 Zn3 2.545675 1_545
As0 Zn3 2.545676 1_655
As0 Zn1 2.590780 1_555
As0 Sr0 3.145813 1_655
As0 Sr0 3.145839 1_555
As0 Sr0 3.145840 1_665
As1 Zn1 2.545569 1_555
As1 Zn1 2.545675 1_565
As1 Zn1 2.545676 1_455
As1 Zn3 2.590780 1_555
As1 Sr1 3.145813 1_455
As1 Sr1 3.145839 1_555
As1 Sr1 3.145840 1_445
As2 Cu0 2.445085 1_555
As2 Cu0 2.445096 1_455
As2 Cu0 2.445120 1_565
As2 Sr3 3.251459 1_565
As2 Sr0 3.251459 1_565
As2 Sr3 3.251521 1_665
As2 Sr0 3.251521 1_665
As2 Sr3 3.251529 1_555
As2 Sr0 3.251529 1_555
As3 Zn0 2.545569 1_555
As3 Zn0 2.545675 1_545
As3 Zn0 2.545676 1_655
As3 Zn2 2.590780 1_556
As3 Sr3 3.145813 1_655
As3 Sr3 3.145839 1_555
As3 Sr3 3.145840 1_665
As4 Zn2 2.545569 1_555
As4 Zn2 2.545675 1_565
As4 Zn2 2.545676 1_455
As4 Zn0 2.590780 1_554
As4 Sr2 3.145813 1_455
As4 Sr2 3.145839 1_555
As4 Sr2 3.145840 1_445
As5 Cu1 2.445085 1_555
As5 Cu1 2.445096 1_655
As5 Cu1 2.445120 1_545
As5 Sr1 3.251459 1_545
As5 Sr2 3.251459 1_545
As5 Sr1 3.251521 1_445
As5 Sr2 3.251521 1_445
As5 Sr1 3.251529 1_555
As5 Sr2 3.251529 1_555
