# generated using pymatgen
data_Zr5Nb5(ZnSn3)2
_symmetry_space_group_name_H-M   'P 1'
_cell_length_a   8.50310549
_cell_length_b   8.50310488
_cell_length_c   5.72732315
_cell_angle_alpha   90.00000000
_cell_angle_beta   90.00000000
_cell_angle_gamma   120.22729052
_symmetry_Int_Tables_number   1
_chemical_formula_structural   Zr5Nb5(ZnSn3)2
_chemical_formula_sum   'Zr5 Nb5 Zn2 Sn6'
_cell_volume   357.79822458
_cell_formula_units_Z   1
loop_
 _symmetry_equiv_pos_site_id
 _symmetry_equiv_pos_as_xyz
  1  'x, y, z'
loop_
 _atom_site_type_symbol
 _atom_site_label
 _atom_site_symmetry_multiplicity
 _atom_site_fract_x
 _atom_site_fract_y
 _atom_site_fract_z
 _atom_site_occupancy
  Zr  Zr0  1  0.27519439  0.00416125  0.75000000  1
  Zr  Zr1  1  0.00416125  0.27519439  0.75000000  1
  Zr  Zr2  1  0.26398200  0.26398200  0.25000000  1
  Zr  Zr3  1  0.73108400  0.99989776  0.25000000  1
  Zr  Zr4  1  0.99989776  0.73108400  0.25000000  1
  Nb  Nb0  1  0.66668430  0.33406891  0.99963678  1
  Nb  Nb1  1  0.33406891  0.66668430  0.99963678  1
  Nb  Nb2  1  0.33406891  0.66668430  0.50036322  1
  Nb  Nb3  1  0.66668430  0.33406891  0.50036322  1
  Nb  Nb4  1  0.72917044  0.72917044  0.75000000  1
  Zn  Zn0  1  0.99435573  0.99435573  0.99186776  1
  Zn  Zn1  1  0.99435573  0.99435573  0.50813224  1
  Sn  Sn0  1  0.39255247  0.39255247  0.75000000  1
  Sn  Sn1  1  0.61655357  0.99808324  0.75000000  1
  Sn  Sn2  1  0.99808324  0.61655357  0.75000000  1
  Sn  Sn3  1  0.61099333  0.61099333  0.25000000  1
  Sn  Sn4  1  0.38804840  0.00006227  0.25000000  1
  Sn  Sn5  1  0.00006227  0.38804840  0.25000000  1
loop_
_geom_bond_atom_site_label_1
_geom_bond_atom_site_label_2
_geom_bond_distance
_geom_bond_site_symmetry_2
Nb0 Nb3 2.859501 1_555
Nb0 Nb3 2.867822 1_556
Nb0 Sn0 2.981953 1_555
Nb0 Sn2 2.989876 1_555
Nb0 Sn3 2.991281 1_556
Nb0 Sn4 2.993417 1_556
Nb0 Sn5 2.998752 1_656
Nb0 Sn1 3.026833 1_545
Nb1 Nb2 2.859501 1_555
Nb1 Nb2 2.867822 1_556
Nb1 Sn0 2.981953 1_555
Nb1 Sn1 2.989876 1_555
Nb1 Sn3 2.991281 1_556
Nb1 Sn5 2.993417 1_556
Nb1 Sn4 2.998752 1_566
Nb1 Sn2 3.026834 1_455
Nb2 Sn0 2.981953 1_555
Nb2 Sn1 2.989876 1_555
Nb2 Sn3 2.991281 1_555
Nb2 Sn5 2.993417 1_555
Nb2 Sn4 2.998752 1_565
Nb2 Sn2 3.026834 1_455
Nb3 Sn0 2.981953 1_555
Nb3 Sn2 2.989876 1_555
Nb3 Sn3 2.991281 1_555
Nb3 Sn4 2.993417 1_555
Nb3 Sn5 2.998752 1_655
Nb3 Sn1 3.026833 1_545
Nb4 Zn0 2.639811 1_555
Nb4 Zn1 2.639811 1_555
Nb4 Sn0 2.852459 1_555
Nb4 Sn1 2.889663 1_555
Nb4 Sn2 2.889663 1_555
Nb4 Sn3 3.033710 1_555
Nb4 Sn3 3.033710 1_556
Zn0 Zr4 2.702883 1_556
Zn0 Zr3 2.702883 1_556
Zn0 Zr2 2.721379 1_666
Zn0 Zr1 2.725428 1_665
Zn0 Zr0 2.725428 1_665
Zn0 Zn1 2.770510 1_555
Zn0 Zn1 2.956813 1_556
Zn1 Zr4 2.702883 1_555
Zn1 Zr3 2.702883 1_555
Zn1 Zr2 2.721379 1_665
Zn1 Zr1 2.725428 1_665
Zn1 Zr0 2.725428 1_665
Sn0 Zr0 2.929896 1_555
Sn0 Zr1 2.929897 1_555
Sn0 Zr2 3.063910 1_556
Sn0 Zr2 3.063910 1_555
Sn1 Zr0 2.928972 1_565
Sn1 Zr1 2.931818 1_665
Sn1 Zr3 3.022264 1_555
Sn1 Zr3 3.022264 1_556
Sn2 Zr1 2.928972 1_655
Sn2 Zr0 2.931817 1_665
Sn2 Zr4 3.022264 1_555
Sn2 Zr4 3.022264 1_556
Sn3 Zr3 2.928873 1_555
Sn3 Zr4 2.928874 1_555
Sn3 Zr2 2.940531 1_555
Sn4 Zr3 2.917572 1_545
Sn4 Zr4 2.919546 1_445
Sn4 Zr2 2.921091 1_555
Sn4 Zr0 3.025938 1_555
Sn4 Zr0 3.025938 1_554
Sn5 Zr4 2.917572 1_455
Sn5 Zr3 2.919546 1_445
Sn5 Zr2 2.921091 1_555
Sn5 Zr1 3.025938 1_555
Sn5 Zr1 3.025938 1_554
