# generated using pymatgen
data_AcBrO
_symmetry_space_group_name_H-M   'P 1'
_cell_length_a   4.31037031
_cell_length_b   4.31037031
_cell_length_c   7.54277441
_cell_angle_alpha   90.00000000
_cell_angle_beta   90.00000000
_cell_angle_gamma   90.00000000
_symmetry_Int_Tables_number   1
_chemical_formula_structural   AcBrO
_chemical_formula_sum   'Ac2 Br2 O2'
_cell_volume   140.13940983
_cell_formula_units_Z   2
loop_
 _symmetry_equiv_pos_site_id
 _symmetry_equiv_pos_as_xyz
  1  'x, y, z'
loop_
 _atom_site_type_symbol
 _atom_site_label
 _atom_site_symmetry_multiplicity
 _atom_site_fract_x
 _atom_site_fract_y
 _atom_site_fract_z
 _atom_site_occupancy
  Ac  Ac0  1  0.75000000  0.75000000  0.83497005  1
  Ac  Ac1  1  0.25000000  0.25000000  0.16502995  1
  Br  Br0  1  0.25000000  0.25000000  0.63469444  1
  Br  Br1  1  0.75000000  0.75000000  0.36530556  1
  O  O0  1  0.75000000  0.25000000  -0.00000000  1
  O  O1  1  0.25000000  0.75000000  -0.00000000  1
loop_
_geom_bond_atom_site_label_1
_geom_bond_atom_site_label_2
_geom_bond_distance
_geom_bond_site_symmetry_2
Ac0 O1 2.488837 1_656
Ac0 O0 2.488837 1_556
Ac0 O1 2.488837 1_556
Ac0 O0 2.488837 1_566
Ac0 Br0 3.401714 1_565
Ac0 Br0 3.401714 1_655
Ac0 Br0 3.401714 1_665
Ac0 Br0 3.401714 1_555
Ac0 Br1 3.542573 1_555
Ac1 O0 2.488837 1_455
Ac1 O1 2.488837 1_545
Ac1 O0 2.488837 1_555
Ac1 O1 2.488837 1_555
Ac1 Br1 3.401714 1_545
Ac1 Br1 3.401714 1_455
Ac1 Br1 3.401714 1_445
Ac1 Br1 3.401714 1_555
Ac1 Br0 3.542573 1_555
