# generated using pymatgen
data_LiZn2ReN4
_symmetry_space_group_name_H-M   'P 1'
_cell_length_a   6.58007492
_cell_length_b   5.56738743
_cell_length_c   5.29536467
_cell_angle_alpha   90.00000000
_cell_angle_beta   90.00000000
_cell_angle_gamma   90.00000000
_symmetry_Int_Tables_number   1
_chemical_formula_structural   LiZn2ReN4
_chemical_formula_sum   'Li2 Zn4 Re2 N8'
_cell_volume   193.98946979
_cell_formula_units_Z   2
loop_
 _symmetry_equiv_pos_site_id
 _symmetry_equiv_pos_as_xyz
  1  'x, y, z'
loop_
 _atom_site_type_symbol
 _atom_site_label
 _atom_site_symmetry_multiplicity
 _atom_site_fract_x
 _atom_site_fract_y
 _atom_site_fract_z
 _atom_site_occupancy
  Li  Li0  1  0.00000000  0.33718756  0.72270532  1
  Li  Li1  1  0.50000000  0.66281244  0.22270532  1
  Zn  Zn0  1  0.25283972  0.82955183  0.73149630  1
  Zn  Zn1  1  0.24716028  0.17044817  0.23149630  1
  Zn  Zn2  1  0.74716028  0.82955183  0.73149630  1
  Zn  Zn3  1  0.75283972  0.17044817  0.23149630  1
  Re  Re0  1  0.00000000  0.67437548  0.23018014  1
  Re  Re1  1  0.50000000  0.32562452  0.73018014  1
  N  N0  1  0.77310522  0.82631165  0.11236998  1
  N  N1  1  0.72689478  0.17368835  0.61236998  1
  N  N2  1  0.22689478  0.82631165  0.11236998  1
  N  N3  1  0.27310522  0.17368835  0.61236998  1
  N  N4  1  0.00000000  0.36122075  0.12522176  1
  N  N5  1  0.50000000  0.63877925  0.62522176  1
  N  N6  1  0.00000000  0.68901610  0.57341622  1
  N  N7  1  0.50000000  0.31098390  0.07341622  1
loop_
_geom_bond_atom_site_label_1
_geom_bond_atom_site_label_2
_geom_bond_distance
_geom_bond_site_symmetry_2
Li0 N3 2.097462 1_555
Li0 N1 2.097462 1_455
Li0 N6 2.112278 1_555
Li0 N4 2.135667 1_556
Li1 N0 2.097462 1_555
Li1 N2 2.097462 1_555
Li1 N7 2.112278 1_555
Li1 N5 2.135667 1_555
N0 Re0 1.825846 1_655
N0 Zn3 2.021520 1_565
N0 Zn2 2.024158 1_554
N1 Re1 1.825846 1_555
N1 Zn2 2.021520 1_545
N1 Zn3 2.024158 1_555
N2 Re0 1.825846 1_555
N2 Zn1 2.021520 1_565
N2 Zn0 2.024158 1_554
N3 Re1 1.825846 1_555
N3 Zn0 2.021520 1_545
N3 Zn1 2.024158 1_555
N4 Re0 1.829901 1_555
N4 Zn1 2.022308 1_555
N4 Zn3 2.022308 1_455
N5 Re1 1.829901 1_555
N5 Zn2 2.022308 1_555
N5 Zn0 2.022308 1_555
N6 Re0 1.819387 1_555
N6 Zn0 2.020102 1_555
N6 Zn2 2.020102 1_455
N7 Re1 1.819387 1_554
N7 Zn3 2.020102 1_555
N7 Zn1 2.020102 1_555
