# generated using pymatgen
data_Lu16In6TcIr
_symmetry_space_group_name_H-M   'P 1'
_cell_length_a   10.12621290
_cell_length_b   10.12621180
_cell_length_c   6.88338879
_cell_angle_alpha   90.00000000
_cell_angle_beta   90.00000000
_cell_angle_gamma   120.00000044
_symmetry_Int_Tables_number   1
_chemical_formula_structural   Lu16In6TcIr
_chemical_formula_sum   'Lu16 In6 Tc1 Ir1'
_cell_volume   611.26142681
_cell_formula_units_Z   1
loop_
 _symmetry_equiv_pos_site_id
 _symmetry_equiv_pos_as_xyz
  1  'x, y, z'
loop_
 _atom_site_type_symbol
 _atom_site_label
 _atom_site_symmetry_multiplicity
 _atom_site_fract_x
 _atom_site_fract_y
 _atom_site_fract_z
 _atom_site_occupancy
  Lu  Lu0  1  0.53326142  0.06652484  0.52339333  1
  Lu  Lu1  1  0.93347516  0.46673858  0.52339333  1
  Lu  Lu2  1  0.53326142  0.46673858  0.52339333  1
  Lu  Lu3  1  0.46781896  0.93563692  0.02429097  1
  Lu  Lu4  1  0.06436308  0.53218104  0.02429097  1
  Lu  Lu5  1  0.46781896  0.53218104  0.02429097  1
  Lu  Lu6  1  0.17714543  0.35429186  0.73123616  1
  Lu  Lu7  1  0.64570814  0.82285457  0.73123616  1
  Lu  Lu8  1  0.17714543  0.82285457  0.73123616  1
  Lu  Lu9  1  0.82354610  0.64709120  0.22842383  1
  Lu  Lu10  1  0.35290880  0.17645390  0.22842383  1
  Lu  Lu11  1  0.82354610  0.17645390  0.22842383  1
  Lu  Lu12  1  0.66666700  0.33333300  0.90100568  1
  Lu  Lu13  1  0.33333300  0.66666700  0.40523621  1
  Lu  Lu14  1  0.00000000  0.00000000  0.50767028  1
  Lu  Lu15  1  0.00000000  0.00000000  0.00797396  1
  In  In0  1  0.83716773  0.67433647  0.76813316  1
  In  In1  1  0.32566353  0.16283227  0.76813316  1
  In  In2  1  0.83716773  0.16283227  0.76813316  1
  In  In3  1  0.16323747  0.32647295  0.27157291  1
  In  In4  1  0.67352705  0.83676253  0.27157291  1
  In  In5  1  0.16323747  0.83676253  0.27157291  1
  Tc  Tc0  1  0.66666700  0.33333300  0.29303828  1
  Ir  Ir0  1  0.33333300  0.66666700  0.79960452  1
loop_
_geom_bond_atom_site_label_1
_geom_bond_atom_site_label_2
_geom_bond_distance
_geom_bond_site_symmetry_2
Lu0 Tc0 2.826449 1_555
Lu1 Tc0 2.826449 1_555
Lu2 Tc0 2.826471 1_555
Lu9 Tc0 2.787235 1_555
Lu10 Tc0 2.787236 1_555
Lu11 Tc0 2.787236 1_555
Lu12 Tc0 2.698513 1_556
In0 Lu7 3.000140 1_555
In0 Lu8 3.000140 1_655
In0 Lu12 3.127188 1_555
In0 Lu9 3.177356 1_556
In0 Lu1 3.202866 1_555
In0 Lu2 3.202873 1_555
In0 Lu15 3.298763 1_666
In0 Lu14 3.372044 1_665
In0 Lu5 3.712904 1_556
In0 Lu4 3.712921 1_656
In0 Lu9 3.722704 1_555
In1 Lu8 3.000140 1_545
In1 Lu6 3.000140 1_555
In1 Lu12 3.127188 1_555
In1 Lu10 3.177356 1_556
In1 Lu0 3.202866 1_555
In1 Lu2 3.202873 1_555
In1 Lu15 3.298763 1_556
In1 Lu14 3.372044 1_555
In1 Lu5 3.712904 1_556
In1 Lu3 3.712920 1_546
In1 Lu10 3.722704 1_555
In2 Lu7 3.000140 1_545
In2 Lu6 3.000140 1_655
In2 Lu12 3.127171 1_555
In2 Lu11 3.177354 1_556
In2 Lu1 3.202874 1_555
In2 Lu0 3.202875 1_555
In2 Lu15 3.298770 1_656
In2 Lu14 3.372051 1_655
In2 Lu4 3.712906 1_656
In2 Lu3 3.712906 1_546
In2 Lu11 3.722703 1_555
In3 Lu10 3.000428 1_555
In3 Lu11 3.000438 1_455
In3 Lu13 3.122001 1_555
In3 Lu6 3.173432 1_555
In3 Lu5 3.213152 1_555
In3 Lu4 3.213158 1_555
In3 Lu14 3.292114 1_555
In3 Lu15 3.389564 1_555
In3 Lu2 3.706695 1_555
In3 Lu1 3.706728 1_455
In3 Lu6 3.727340 1_554
In4 Lu9 3.000428 1_555
In4 Lu11 3.000437 1_565
In4 Lu13 3.122001 1_555
In4 Lu7 3.173432 1_555
In4 Lu5 3.213151 1_555
In4 Lu3 3.213158 1_555
In4 Lu14 3.292114 1_665
In4 Lu15 3.389564 1_665
In4 Lu2 3.706694 1_555
In4 Lu0 3.706728 1_565
In4 Lu7 3.727340 1_554
In5 Lu10 3.000437 1_565
In5 Lu9 3.000437 1_455
In5 Lu13 3.121976 1_555
In5 Lu8 3.173430 1_555
In5 Lu4 3.213150 1_555
In5 Lu3 3.213150 1_555
In5 Lu14 3.292129 1_565
In5 Lu15 3.389579 1_565
In5 Lu1 3.706699 1_455
In5 Lu0 3.706700 1_565
In5 Lu8 3.727339 1_554
Ir0 Lu13 2.714590 1_555
Ir0 Lu6 2.779521 1_555
Ir0 Lu8 2.779521 1_555
Ir0 Lu7 2.779521 1_555
Ir0 Lu3 2.820580 1_556
Ir0 Lu4 2.820580 1_556
Ir0 Lu5 2.820595 1_556
