# generated using pymatgen
data_Zr6SiPN2
_symmetry_space_group_name_H-M   'P 1'
_cell_length_a   5.79989391
_cell_length_b   5.79989246
_cell_length_c   8.50356362
_cell_angle_alpha   90.00000000
_cell_angle_beta   90.00000000
_cell_angle_gamma   145.18029301
_symmetry_Int_Tables_number   1
_chemical_formula_structural   Zr6SiPN2
_chemical_formula_sum   'Zr6 Si1 P1 N2'
_cell_volume   163.33302268
_cell_formula_units_Z   1
loop_
 _symmetry_equiv_pos_site_id
 _symmetry_equiv_pos_as_xyz
  1  'x, y, z'
loop_
 _atom_site_type_symbol
 _atom_site_label
 _atom_site_symmetry_multiplicity
 _atom_site_fract_x
 _atom_site_fract_y
 _atom_site_fract_z
 _atom_site_occupancy
  Zr  Zr0  1  0.63338815  0.36661185  0.94205952  1
  Zr  Zr1  1  0.36841479  0.63158521  0.44709153  1
  Zr  Zr2  1  0.36841479  0.63158521  0.05290847  1
  Zr  Zr3  1  0.63338815  0.36661185  0.55794048  1
  Zr  Zr4  1  0.93467112  0.06532888  0.75000000  1
  Zr  Zr5  1  0.05943349  0.94056651  0.25000000  1
  Si  Si0  1  0.74560465  0.25439535  0.25000000  1
  P  P0  1  0.25465116  0.74534884  0.75000000  1
  N  N0  1  0.00101585  0.99898415  0.99756491  1
  N  N1  1  0.00101585  0.99898415  0.50243509  1
loop_
_geom_bond_atom_site_label_1
_geom_bond_atom_site_label_2
_geom_bond_distance
_geom_bond_site_symmetry_2
Si0 Zr5 2.693992 1_655
Si0 Zr5 2.693993 1_545
Si0 Zr1 2.769132 1_545
Si0 Zr2 2.769132 1_545
Si0 Zr1 2.769133 1_655
Si0 Zr2 2.769133 1_655
Si0 Zr3 2.898228 1_555
Si0 Zr0 2.898228 1_554
P0 Zr4 2.642279 1_455
P0 Zr4 2.642280 1_565
P0 Zr0 2.735002 1_565
P0 Zr3 2.735002 1_565
P0 Zr0 2.735002 1_455
P0 Zr3 2.735002 1_455
P0 Zr2 2.867104 1_556
P0 Zr1 2.867104 1_555
N0 Zr4 2.229583 1_465
N0 Zr5 2.241865 1_556
N0 Zr0 2.319676 1_455
N0 Zr0 2.319677 1_565
N0 Zr2 2.320997 1_566
N0 Zr2 2.320998 1_456
N1 Zr4 2.229583 1_465
N1 Zr5 2.241865 1_555
N1 Zr3 2.319676 1_455
N1 Zr3 2.319677 1_565
N1 Zr1 2.320997 1_565
N1 Zr1 2.320998 1_455
