# generated using pymatgen
data_Lu12In2Fe2Re
_symmetry_space_group_name_H-M   'P 1'
_cell_length_a   8.17471737
_cell_length_b   8.17471747
_cell_length_c   8.17471692
_cell_angle_alpha   108.87802809
_cell_angle_beta   108.87802964
_cell_angle_gamma   110.66422863
_symmetry_Int_Tables_number   1
_chemical_formula_structural   Lu12In2Fe2Re
_chemical_formula_sum   'Lu12 In2 Fe2 Re1'
_cell_volume   420.39231670
_cell_formula_units_Z   1
loop_
 _symmetry_equiv_pos_site_id
 _symmetry_equiv_pos_as_xyz
  1  'x, y, z'
loop_
 _atom_site_type_symbol
 _atom_site_label
 _atom_site_symmetry_multiplicity
 _atom_site_fract_x
 _atom_site_fract_y
 _atom_site_fract_z
 _atom_site_occupancy
  Lu  Lu0  1  0.30895905  0.30895905  0.61791810  1
  Lu  Lu1  1  0.69104095  0.69104095  0.38208190  1
  Lu  Lu2  1  0.69104095  0.30895905  1.00000000  1
  Lu  Lu3  1  0.30895905  0.69104095  0.00000000  1
  Lu  Lu4  1  0.19050343  0.43054817  0.24004474  1
  Lu  Lu5  1  0.80949657  0.56945183  0.75995526  1
  Lu  Lu6  1  0.19050343  0.95045868  0.75995526  1
  Lu  Lu7  1  0.95045868  0.19050343  0.75995526  1
  Lu  Lu8  1  0.80949657  0.04954132  0.24004474  1
  Lu  Lu9  1  0.04954132  0.80949657  0.24004474  1
  Lu  Lu10  1  0.43054817  0.19050343  0.24004474  1
  Lu  Lu11  1  0.56945183  0.80949657  0.75995526  1
  In  In0  1  0.00000000  0.50000000  0.50000000  1
  In  In1  1  0.50000000  0.00000000  0.50000000  1
  Fe  Fe0  1  0.37797368  0.37797368  1.00000000  1
  Fe  Fe1  1  0.62202632  0.62202632  0.00000000  1
  Re  Re0  1  0.00000000  0.00000000  0.00000000  1
loop_
_geom_bond_atom_site_label_1
_geom_bond_atom_site_label_2
_geom_bond_distance
_geom_bond_site_symmetry_2
Lu4 Re0 2.889329 1_555
Lu5 Re0 2.889329 1_666
Lu6 Re0 2.889329 1_566
Lu7 Re0 2.889329 1_656
Lu8 Re0 2.889329 1_655
Lu9 Re0 2.889329 1_565
Lu10 Re0 2.889329 1_555
Lu11 Re0 2.889329 1_666
In0 Lu4 3.041095 1_555
In0 Lu5 3.041095 1_455
In0 Lu6 3.041095 1_555
In0 Lu8 3.041095 1_455
In0 Lu3 3.453923 1_556
In0 Lu2 3.453923 1_454
In0 Lu0 3.453923 1_555
In0 Lu1 3.453923 1_455
In0 Lu9 3.793938 1_555
In0 Lu7 3.793938 1_455
In0 Lu11 3.793938 1_555
In0 Lu10 3.793938 1_455
In1 Lu11 3.041095 1_545
In1 Lu10 3.041095 1_555
In1 Lu7 3.041095 1_555
In1 Lu9 3.041095 1_545
In1 Lu2 3.453923 1_555
In1 Lu3 3.453923 1_545
In1 Lu0 3.453923 1_555
In1 Lu1 3.453923 1_545
In1 Lu6 3.793938 1_545
In1 Lu8 3.793938 1_555
In1 Lu5 3.793938 1_555
In1 Lu4 3.793938 1_545
Fe0 Fe1 2.269656 1_556
Fe0 Lu0 2.808386 1_555
Fe0 Lu2 2.808386 1_555
Fe0 Lu3 2.808386 1_556
Fe0 Lu1 2.808386 1_556
Fe0 Lu10 2.872119 1_556
Fe0 Lu4 2.872119 1_556
Fe0 Lu7 2.872119 1_455
Fe0 Lu6 2.872119 1_545
Fe1 Lu1 2.808386 1_555
Fe1 Lu3 2.808386 1_555
Fe1 Lu2 2.808386 1_554
Fe1 Lu0 2.808386 1_554
Fe1 Lu11 2.872119 1_554
Fe1 Lu5 2.872119 1_554
Fe1 Lu9 2.872119 1_655
Fe1 Lu8 2.872119 1_565
