# generated using pymatgen
data_Y16MgIn3Ir4
_symmetry_space_group_name_H-M   'P 1'
_cell_length_a   9.70355685
_cell_length_b   9.70355692
_cell_length_c   9.70355766
_cell_angle_alpha   59.88073318
_cell_angle_beta   59.88073097
_cell_angle_gamma   59.88073681
_symmetry_Int_Tables_number   1
_chemical_formula_structural   Y16MgIn3Ir4
_chemical_formula_sum   'Y16 Mg1 In3 Ir4'
_cell_volume   644.31920040
_cell_formula_units_Z   1
loop_
 _symmetry_equiv_pos_site_id
 _symmetry_equiv_pos_as_xyz
  1  'x, y, z'
loop_
 _atom_site_type_symbol
 _atom_site_label
 _atom_site_symmetry_multiplicity
 _atom_site_fract_x
 _atom_site_fract_y
 _atom_site_fract_z
 _atom_site_occupancy
  Y  Y0  1  0.81060671  0.18965635  0.81060671  1
  Y  Y1  1  0.93935502  0.56047016  0.56047016  1
  Y  Y2  1  0.56047016  0.93935502  0.56047016  1
  Y  Y3  1  0.80806915  0.19257052  0.19257052  1
  Y  Y4  1  0.19257052  0.80806915  0.19257052  1
  Y  Y5  1  0.34726495  0.95734723  0.34726495  1
  Y  Y6  1  0.93956066  0.93956066  0.56005974  1
  Y  Y7  1  0.56005974  0.93956066  0.93956066  1
  Y  Y8  1  0.18965635  0.81060671  0.81060671  1
  Y  Y9  1  0.34726495  0.34726495  0.95734723  1
  Y  Y10  1  0.56047016  0.56047016  0.93935502  1
  Y  Y11  1  0.34932174  0.34932174  0.34932174  1
  Y  Y12  1  0.19257052  0.19257052  0.80806915  1
  Y  Y13  1  0.81060671  0.81060671  0.18965635  1
  Y  Y14  1  0.93956066  0.56005974  0.93956066  1
  Y  Y15  1  0.95734723  0.34726495  0.34726495  1
  Mg  Mg0  1  0.57584591  0.57584591  0.57584591  1
  In  In0  1  0.58346092  0.25069786  0.58346092  1
  In  In1  1  0.58346092  0.58346092  0.25069786  1
  In  In2  1  0.25069786  0.58346092  0.58346092  1
  Ir  Ir0  1  0.14160318  0.14160318  0.57789153  1
  Ir  Ir1  1  0.57789153  0.14160318  0.14160318  1
  Ir  Ir2  1  0.14160318  0.57789153  0.14160318  1
  Ir  Ir3  1  0.14068028  0.14068028  0.14068028  1
loop_
_geom_bond_atom_site_label_1
_geom_bond_atom_site_label_2
_geom_bond_distance
_geom_bond_site_symmetry_2
Mg0 Y1 3.384167 1_555
Mg0 Y2 3.384167 1_555
Mg0 Y10 3.384167 1_555
Mg0 Y9 3.464088 1_555
Mg0 Y15 3.464088 1_555
Mg0 Y5 3.464088 1_555
Mg0 Y13 3.534828 1_555
Mg0 Y8 3.534828 1_555
Mg0 Y0 3.534829 1_555
In0 Mg0 3.082702 1_555
In0 In1 3.223163 1_555
In0 In2 3.223163 1_555
In0 Y7 3.246125 1_545
In0 Y6 3.246125 1_545
In0 Y2 3.260303 1_545
In0 Y11 3.472163 1_555
In0 Y12 3.474493 1_555
In0 Y3 3.474494 1_555
In0 Y15 3.493554 1_555
In0 Y9 3.493555 1_555
In0 Y0 3.510315 1_555
In1 Mg0 3.082702 1_555
In1 In2 3.223163 1_555
In1 Y14 3.246125 1_554
In1 Y7 3.246125 1_554
In1 Y10 3.260303 1_554
In1 Y11 3.472163 1_555
In1 Y3 3.474494 1_555
In1 Y4 3.474494 1_555
In1 Y5 3.493555 1_555
In1 Y15 3.493555 1_555
In1 Y13 3.510315 1_555
In2 Mg0 3.082702 1_555
In2 Y14 3.246125 1_455
In2 Y6 3.246125 1_455
In2 Y1 3.260303 1_455
In2 Y11 3.472163 1_555
In2 Y12 3.474493 1_555
In2 Y4 3.474494 1_555
In2 Y5 3.493554 1_555
In2 Y9 3.493555 1_555
In2 Y8 3.510315 1_555
Ir0 Y0 2.812005 1_455
Ir0 Y8 2.812005 1_545
Ir0 Y12 2.817906 1_555
Ir0 Y5 2.853079 1_545
Ir0 Y15 2.853080 1_455
Ir0 Y11 2.854596 1_555
Ir0 Y2 3.469611 1_545
Ir0 Y1 3.469611 1_455
Ir0 Y6 3.500821 1_445
Ir1 Y0 2.812005 1_554
Ir1 Y13 2.812005 1_545
Ir1 Y3 2.817906 1_555
Ir1 Y5 2.853079 1_545
Ir1 Y9 2.853079 1_554
Ir1 Y11 2.854596 1_555
Ir1 Y10 3.469611 1_554
Ir1 Y2 3.469611 1_545
Ir1 Y7 3.500821 1_544
Ir2 Y13 2.812005 1_455
Ir2 Y8 2.812005 1_554
Ir2 Y4 2.817906 1_555
Ir2 Y15 2.853079 1_455
Ir2 Y9 2.853079 1_554
Ir2 Y11 2.854596 1_555
Ir2 Y10 3.469610 1_554
Ir2 Y1 3.469611 1_455
Ir2 Y14 3.500821 1_454
Ir3 Y3 2.813609 1_455
Ir3 Y4 2.813609 1_545
Ir3 Y12 2.813609 1_554
Ir3 Y9 2.841932 1_554
Ir3 Y15 2.841932 1_455
Ir3 Y5 2.841932 1_545
Ir3 Y6 3.472646 1_445
Ir3 Y7 3.472646 1_544
Ir3 Y14 3.472647 1_454
