# generated using pymatgen
data_DyRh5
_symmetry_space_group_name_H-M   'P 1'
_cell_length_a   5.17276676
_cell_length_b   5.17276629
_cell_length_c   4.30634940
_cell_angle_alpha   90.00000000
_cell_angle_beta   90.00000000
_cell_angle_gamma   119.99999172
_symmetry_Int_Tables_number   1
_chemical_formula_structural   DyRh5
_chemical_formula_sum   'Dy1 Rh5'
_cell_volume   99.78969264
_cell_formula_units_Z   1
loop_
 _symmetry_equiv_pos_site_id
 _symmetry_equiv_pos_as_xyz
  1  'x, y, z'
loop_
 _atom_site_type_symbol
 _atom_site_label
 _atom_site_symmetry_multiplicity
 _atom_site_fract_x
 _atom_site_fract_y
 _atom_site_fract_z
 _atom_site_occupancy
  Dy  Dy0  1  -0.00000000  -0.00000000  -0.00000000  1
  Rh  Rh0  1  -0.00000000  0.50000000  0.50000000  1
  Rh  Rh1  1  0.33333300  0.66666700  0.00000000  1
  Rh  Rh2  1  0.66666700  0.33333300  0.00000000  1
  Rh  Rh3  1  0.50000000  -0.00000000  0.50000000  1
  Rh  Rh4  1  0.50000000  0.50000000  0.50000000  1
loop_
_geom_bond_atom_site_label_1
_geom_bond_atom_site_label_2
_geom_bond_distance
_geom_bond_site_symmetry_2
Dy0 Rh1 2.986495 1_545
Dy0 Rh2 2.986495 1_455
Dy0 Rh1 2.986500 1_555
Dy0 Rh2 2.986500 1_445
Dy0 Rh1 2.986500 1_445
Dy0 Rh2 2.986500 1_555
Dy0 Rh0 3.365344 1_545
Dy0 Rh0 3.365344 1_555
Dy0 Rh0 3.365344 1_554
Dy0 Rh0 3.365344 1_544
Dy0 Rh3 3.365344 1_454
Dy0 Rh3 3.365344 1_455
Dy0 Rh3 3.365344 1_554
Dy0 Rh3 3.365344 1_555
Dy0 Rh4 3.365344 1_445
Dy0 Rh4 3.365344 1_555
Dy0 Rh4 3.365344 1_554
Dy0 Rh4 3.365344 1_444
Rh0 Rh4 2.586383 1_455
Rh0 Rh4 2.586383 1_555
Rh0 Rh3 2.586384 1_455
Rh0 Rh3 2.586384 1_565
Rh0 Rh2 2.620296 1_456
Rh0 Rh1 2.620296 1_555
Rh0 Rh1 2.620296 1_556
Rh0 Rh2 2.620296 1_455
Rh1 Rh3 2.620296 1_565
Rh1 Rh3 2.620296 1_564
Rh1 Rh4 2.620298 1_554
Rh1 Rh4 2.620298 1_555
Rh1 Rh2 2.986495 1_565
Rh1 Rh2 2.986496 1_455
Rh1 Rh2 2.986504 1_555
Rh2 Rh3 2.620296 1_555
Rh2 Rh3 2.620296 1_554
Rh2 Rh4 2.620298 1_554
Rh2 Rh4 2.620298 1_555
Rh3 Rh4 2.586383 1_545
Rh3 Rh4 2.586383 1_555
