# generated using pymatgen
data_Sr3Ca(ScSe2)8
_symmetry_space_group_name_H-M   'P 1'
_cell_length_a   3.94862736
_cell_length_b   12.21981168
_cell_length_c   14.29948381
_cell_angle_alpha   89.99257487
_cell_angle_beta   90.00000000
_cell_angle_gamma   90.00000000
_symmetry_Int_Tables_number   1
_chemical_formula_structural   Sr3Ca(ScSe2)8
_chemical_formula_sum   'Sr3 Ca1 Sc8 Se16'
_cell_volume   689.97129046
_cell_formula_units_Z   1
loop_
 _symmetry_equiv_pos_site_id
 _symmetry_equiv_pos_as_xyz
  1  'x, y, z'
loop_
 _atom_site_type_symbol
 _atom_site_label
 _atom_site_symmetry_multiplicity
 _atom_site_fract_x
 _atom_site_fract_y
 _atom_site_fract_z
 _atom_site_occupancy
  Sr  Sr0  1  0.25000000  0.23819537  0.33124790  1
  Sr  Sr1  1  0.75000000  0.26107122  0.83069826  1
  Sr  Sr2  1  0.25000000  0.73813002  0.16947338  1
  Ca  Ca0  1  0.75000000  0.76139559  0.66849868  1
  Sc  Sc0  1  0.25000000  0.08235590  0.59748326  1
  Sc  Sc1  1  0.25000000  0.05626966  0.11009388  1
  Sc  Sc2  1  0.75000000  0.41856075  0.09690185  1
  Sc  Sc3  1  0.75000000  0.94033731  0.88725009  1
  Sc  Sc4  1  0.75000000  0.44559042  0.61110579  1
  Sc  Sc5  1  0.25000000  0.55814929  0.39167602  1
  Sc  Sc6  1  0.75000000  0.91644270  0.40578837  1
  Sc  Sc7  1  0.25000000  0.58248306  0.90219050  1
  Se  Se0  1  0.25000000  0.87407694  0.53361182  1
  Se  Se1  1  0.25000000  0.79549843  0.83164965  1
  Se  Se2  1  0.25000000  0.96948980  0.28619179  1
  Se  Se3  1  0.75000000  0.41121349  0.42676114  1
  Se  Se4  1  0.25000000  0.47129016  0.21578834  1
  Se  Se5  1  0.25000000  0.08781321  0.92485038  1
  Se  Se6  1  0.75000000  0.20255437  0.15898829  1
  Se  Se7  1  0.75000000  0.02888342  0.71493021  1
  Se  Se8  1  0.25000000  0.59389838  0.57660534  1
  Se  Se9  1  0.75000000  0.70275198  0.34128932  1
  Se  Se10  1  0.25000000  0.29844387  0.65911260  1
  Se  Se11  1  0.25000000  0.37653233  0.97088334  1
  Se  Se12  1  0.75000000  0.62480849  0.02793747  1
  Se  Se13  1  0.75000000  0.53132078  0.78419896  1
  Se  Se14  1  0.75000000  0.12319745  0.47153606  1
  Se  Se15  1  0.75000000  0.90924260  0.07326030  1
loop_
_geom_bond_atom_site_label_1
_geom_bond_atom_site_label_2
_geom_bond_distance
_geom_bond_site_symmetry_2
Ca0 Se0 3.084400 1_655
Ca0 Se0 3.084400 1_555
Ca0 Se1 3.084575 1_655
Ca0 Se1 3.084575 1_555
Ca0 Se8 3.132827 1_555
Ca0 Se8 3.132827 1_655
Ca0 Se13 3.261960 1_555
Ca0 Se7 3.335486 1_565
Sc0 Se7 2.673028 1_455
Sc0 Se7 2.673028 1_555
Sc0 Se0 2.704156 1_545
Sc0 Se14 2.718508 1_455
Sc0 Se14 2.718508 1_555
Sc0 Se10 2.783839 1_555
Sc1 Se5 2.676735 1_554
Sc1 Se15 2.720937 1_445
Sc1 Se15 2.720937 1_545
Sc1 Se2 2.732160 1_545
Sc1 Se6 2.753631 1_555
Sc1 Se6 2.753631 1_455
Sc2 Se4 2.683921 1_655
Sc2 Se4 2.683921 1_555
Sc2 Se12 2.706254 1_555
Sc2 Se11 2.721970 1_554
Sc2 Se11 2.721970 1_654
Sc2 Se6 2.784753 1_555
Sc3 Se15 2.686804 1_556
Sc3 Se7 2.691057 1_565
Sc3 Se5 2.726704 1_565
Sc3 Se5 2.726704 1_665
Sc3 Se1 2.768204 1_655
Sc3 Se1 2.768204 1_555
Sc4 Se3 2.669349 1_555
Sc4 Se13 2.687841 1_555
Sc4 Se8 2.724973 1_655
Sc4 Se8 2.724973 1_555
Sc4 Se10 2.757175 1_655
Sc4 Se10 2.757175 1_555
Sc5 Se8 2.680290 1_555
Sc5 Se3 2.715383 1_455
Sc5 Se3 2.715383 1_555
Sc5 Se4 2.730020 1_555
Sc5 Se9 2.745735 1_555
Sc5 Se9 2.745735 1_455
Sc6 Se2 2.691190 1_555
Sc6 Se2 2.691190 1_655
Sc6 Se14 2.695874 1_565
Sc6 Se0 2.739812 1_555
Sc6 Se0 2.739812 1_655
Sc6 Se9 2.769467 1_555
Sc7 Se13 2.671284 1_455
Sc7 Se13 2.671284 1_555
Sc7 Se11 2.701461 1_555
Sc7 Se12 2.720089 1_556
Sc7 Se12 2.720089 1_456
Sc7 Se1 2.791494 1_555
Se2 Sr2 3.283251 1_555
Se2 Sr0 3.346225 1_565
Se3 Sr0 3.199077 1_655
Se3 Sr0 3.199077 1_555
Se4 Sr0 3.292090 1_555
Se4 Sr2 3.327226 1_555
Se5 Sr1 3.192526 1_455
Se5 Sr1 3.192526 1_555
Se6 Sr0 3.186745 1_655
Se6 Sr0 3.186745 1_555
Se7 Sr1 3.285097 1_555
Se9 Sr2 3.181319 1_555
Se9 Sr2 3.181319 1_655
Se10 Sr1 3.182181 1_455
Se10 Sr1 3.182181 1_555
Se11 Sr1 3.147641 1_455
Se11 Sr1 3.147641 1_555
Se12 Sr2 3.148389 1_555
Se12 Sr2 3.148389 1_655
Se13 Sr1 3.368587 1_555
Se14 Sr0 3.145815 1_655
Se14 Sr0 3.145815 1_555
Se15 Sr2 3.187807 1_555
Se15 Sr2 3.187807 1_655
