# generated using pymatgen
data_CsAlGeSe4
_symmetry_space_group_name_H-M   'P 1'
_cell_length_a   17.20261453
_cell_length_b   7.27133359
_cell_length_c   8.11523182
_cell_angle_alpha   69.84562121
_cell_angle_beta   90.00000000
_cell_angle_gamma   90.00000000
_symmetry_Int_Tables_number   1
_chemical_formula_structural   CsAlGeSe4
_chemical_formula_sum   'Cs4 Al4 Ge4 Se16'
_cell_volume   952.94443913
_cell_formula_units_Z   4
loop_
 _symmetry_equiv_pos_site_id
 _symmetry_equiv_pos_as_xyz
  1  'x, y, z'
loop_
 _atom_site_type_symbol
 _atom_site_label
 _atom_site_symmetry_multiplicity
 _atom_site_fract_x
 _atom_site_fract_y
 _atom_site_fract_z
 _atom_site_occupancy
  Cs  Cs0  1  0.39707531  0.94393335  0.17303656  1
  Cs  Cs1  1  0.89707531  0.05606665  0.82696344  1
  Cs  Cs2  1  0.60077558  0.52940546  0.83636201  1
  Cs  Cs3  1  0.10077558  0.47059454  0.16363799  1
  Al  Al0  1  0.58358584  0.17171131  0.47909484  1
  Al  Al1  1  0.08358584  0.82828869  0.52090516  1
  Al  Al2  1  0.27135277  0.58749008  0.69755614  1
  Al  Al3  1  0.77135277  0.41250992  0.30244386  1
  Ge  Ge0  1  0.42002911  0.32276678  0.53516271  1
  Ge  Ge1  1  0.92002911  0.67723322  0.46483729  1
  Ge  Ge2  1  0.72559765  0.91693487  0.28679775  1
  Ge  Ge3  1  0.22559765  0.08306513  0.71320225  1
  Se  Se0  1  0.59654259  0.89262783  0.38724057  1
  Se  Se1  1  0.09654259  0.10737217  0.61275943  1
  Se  Se2  1  0.40716412  0.59508569  0.62660172  1
  Se  Se3  1  0.90716412  0.40491431  0.37339828  1
  Se  Se4  1  0.80233626  0.79287030  0.54809207  1
  Se  Se5  1  0.30233626  0.20712970  0.45190793  1
  Se  Se6  1  0.19981869  0.71655465  0.43665680  1
  Se  Se7  1  0.69981869  0.28344535  0.56334320  1
  Se  Se8  1  0.76323680  0.23305500  0.10366448  1
  Se  Se9  1  0.26323680  0.76694500  0.89633552  1
  Se  Se10  1  0.23744874  0.26840370  0.89867403  1
  Se  Se11  1  0.73744874  0.73159630  0.10132597  1
  Se  Se12  1  0.99919567  0.91863097  0.26587797  1
  Se  Se13  1  0.49919567  0.08136903  0.73412203  1
  Se  Se14  1  0.99583887  0.59752181  0.72338521  1
  Se  Se15  1  0.49583887  0.40247819  0.27661479  1
loop_
_geom_bond_atom_site_label_1
_geom_bond_atom_site_label_2
_geom_bond_distance
_geom_bond_site_symmetry_2
Cs0 Se2 3.684928 1_555
Cs0 Se9 3.740422 1_554
Cs0 Se13 3.784046 1_564
Cs0 Se5 3.798016 1_565
Cs0 Se10 3.800578 1_564
Cs0 Se0 3.806344 1_555
Cs0 Se6 4.048162 1_555
Cs0 Se15 4.079402 1_565
Cs0 Se15 4.100413 1_555
Cs1 Se3 3.684928 1_555
Cs1 Se8 3.740422 1_556
Cs1 Se12 3.784046 1_546
Cs1 Se4 3.798016 1_545
Cs1 Se11 3.800578 1_546
Cs1 Se1 3.806344 1_655
Cs1 Se7 4.048162 1_555
Cs1 Se14 4.079402 1_545
Cs1 Se14 4.100413 1_555
Cs2 Se0 3.692074 1_555
Cs2 Se2 3.695753 1_555
Cs2 Se7 3.706890 1_555
Cs2 Se8 3.733431 1_556
Cs2 Se11 3.806746 1_556
Cs2 Se15 3.821363 1_556
Cs2 Se13 4.027159 1_555
Cs2 Se13 4.189929 1_565
Cs2 Se4 4.251717 1_555
Cs3 Se1 3.692074 1_555
Cs3 Se3 3.695753 1_455
Cs3 Se6 3.706890 1_555
Cs3 Se9 3.733431 1_554
Cs3 Se10 3.806746 1_554
Cs3 Se14 3.821363 1_454
Cs3 Se12 4.027159 1_455
Cs3 Se12 4.189929 1_445
Cs3 Se5 4.251717 1_555
Al0 Se7 2.346984 1_555
Al0 Se0 2.401212 1_545
Al0 Se13 2.425996 1_555
Al0 Se15 2.427790 1_555
Al1 Se6 2.346984 1_555
Al1 Se1 2.401212 1_565
Al1 Se12 2.425996 1_455
Al1 Se14 2.427790 1_455
Al2 Se6 2.347038 1_555
Al2 Se2 2.402299 1_555
Al2 Se9 2.403111 1_555
Al2 Se10 2.403691 1_555
Al3 Se7 2.347038 1_555
Al3 Se3 2.402299 1_555
Al3 Se8 2.403111 1_555
Al3 Se11 2.403691 1_555
Ge0 Se2 2.352239 1_555
Ge0 Se13 2.364251 1_555
Ge0 Se15 2.366644 1_555
Ge0 Se5 2.377828 1_555
Ge1 Se3 2.352239 1_555
Ge1 Se12 2.364251 1_555
Ge1 Se14 2.366644 1_555
Ge1 Se4 2.377828 1_555
Ge2 Se11 2.349681 1_555
Ge2 Se0 2.350564 1_555
Ge2 Se8 2.357438 1_565
Ge2 Se4 2.394717 1_555
Ge3 Se10 2.349681 1_555
Ge3 Se1 2.350564 1_555
Ge3 Se9 2.357438 1_545
Ge3 Se5 2.394717 1_555
