# generated using pymatgen
data_MoOs2Cl15
_symmetry_space_group_name_H-M   'P 1'
_cell_length_a   12.52523299
_cell_length_b   12.51720391
_cell_length_c   6.21328519
_cell_angle_alpha   85.97076768
_cell_angle_beta   86.04145072
_cell_angle_gamma   90.03656603
_symmetry_Int_Tables_number   1
_chemical_formula_structural   MoOs2Cl15
_chemical_formula_sum   'Mo2 Os4 Cl30'
_cell_volume   969.38368748
_cell_formula_units_Z   2
loop_
 _symmetry_equiv_pos_site_id
 _symmetry_equiv_pos_as_xyz
  1  'x, y, z'
loop_
 _atom_site_type_symbol
 _atom_site_label
 _atom_site_symmetry_multiplicity
 _atom_site_fract_x
 _atom_site_fract_y
 _atom_site_fract_z
 _atom_site_occupancy
  Mo  Mo0  1  0.44260758  0.22470251  0.56673315  1
  Mo  Mo1  1  0.55739242  0.77529749  0.43326685  1
  Os  Os0  1  0.89535254  0.10473984  0.00011798  1
  Os  Os1  1  0.10464746  0.89526016  0.99988202  1
  Os  Os2  1  0.77064941  0.56199997  0.43318438  1
  Os  Os3  1  0.22935059  0.43800003  0.56681562  1
  Cl  Cl0  1  0.50738736  0.31987862  0.82467878  1
  Cl  Cl1  1  0.25933216  0.26385121  0.75337528  1
  Cl  Cl2  1  0.17500775  0.97847955  0.68375851  1
  Cl  Cl3  1  0.59652896  0.59284855  0.61988015  1
  Cl  Cl4  1  0.21931048  0.59637972  0.37588689  1
  Cl  Cl5  1  0.74066784  0.73614879  0.24662472  1
  Cl  Cl6  1  0.15252499  0.35133782  0.30533625  1
  Cl  Cl7  1  0.07326175  0.07368048  0.13316165  1
  Cl  Cl8  1  0.65384773  0.84102801  0.68895408  1
  Cl  Cl9  1  0.60094394  0.21231889  0.37647649  1
  Cl  Cl10  1  0.11201880  0.73508549  0.86207518  1
  Cl  Cl11  1  0.02305626  0.82427118  0.31598205  1
  Cl  Cl12  1  0.92862200  0.54999187  0.24355195  1
  Cl  Cl13  1  0.82499225  0.02152045  0.31624149  1
  Cl  Cl14  1  0.39905606  0.78768111  0.62352351  1
  Cl  Cl15  1  0.78068952  0.40362028  0.62411311  1
  Cl  Cl16  1  0.54607357  0.93440391  0.24201024  1
  Cl  Cl17  1  0.97694374  0.17572882  0.68401795  1
  Cl  Cl18  1  0.84747501  0.64866218  0.69466375  1
  Cl  Cl19  1  0.88798120  0.26491451  0.13792482  1
  Cl  Cl20  1  0.49261264  0.68012138  0.17532122  1
  Cl  Cl21  1  0.34615227  0.15897199  0.31104592  1
  Cl  Cl22  1  0.07137800  0.45000813  0.75644805  1
  Cl  Cl23  1  0.73468258  0.11060344  0.86189713  1
  Cl  Cl24  1  0.45392643  0.06559609  0.75798976  1
  Cl  Cl25  1  0.40347104  0.40715145  0.38011985  1
  Cl  Cl26  1  0.31636138  0.51413585  0.82878341  1
  Cl  Cl27  1  0.26531742  0.88939656  0.13810287  1
  Cl  Cl28  1  0.92673825  0.92631952  0.86683835  1
  Cl  Cl29  1  0.68363862  0.48586415  0.17121659  1
loop_
_geom_bond_atom_site_label_1
_geom_bond_atom_site_label_2
_geom_bond_distance
_geom_bond_site_symmetry_2
Cl0 Mo0 2.256740 1_555
Cl1 Os3 2.437719 1_555
Cl1 Mo0 2.562873 1_555
Cl2 Os1 2.278593 1_555
Cl3 Os2 2.442486 1_555
Cl3 Mo1 2.551076 1_555
Cl4 Os3 2.245822 1_555
Cl5 Os2 2.437719 1_555
Cl5 Mo1 2.562873 1_555
Cl6 Os3 2.281298 1_555
Cl7 Os0 2.451594 1_455
Cl7 Os1 2.458476 1_544
Cl8 Mo1 2.260033 1_555
Cl9 Mo0 2.248771 1_555
Cl10 Os1 2.234281 1_555
Cl11 Os1 2.273279 1_554
Cl12 Os2 2.242600 1_555
Cl13 Os0 2.278593 1_555
Cl14 Mo1 2.248771 1_555
Cl15 Os2 2.245822 1_555
Cl16 Mo1 2.256016 1_555
Cl17 Os0 2.273279 1_556
Cl18 Os2 2.281298 1_555
Cl19 Os0 2.234281 1_555
Cl20 Mo1 2.256740 1_555
Cl21 Mo0 2.260033 1_555
Cl22 Os3 2.242600 1_555
Cl23 Os0 2.241151 1_556
Cl24 Mo0 2.256016 1_555
Cl25 Os3 2.442486 1_555
Cl25 Mo0 2.551076 1_555
Cl26 Os3 2.281860 1_555
Cl27 Os1 2.241151 1_554
Cl28 Os1 2.451594 1_655
Cl28 Os0 2.458476 1_566
Cl29 Os2 2.281860 1_555
