# generated using pymatgen
data_K2Rb2HfSe4
_symmetry_space_group_name_H-M   'P 1'
_cell_length_a   8.46480081
_cell_length_b   10.41093472
_cell_length_c   15.45412023
_cell_angle_alpha   90.00000000
_cell_angle_beta   90.00000000
_cell_angle_gamma   90.00000000
_symmetry_Int_Tables_number   1
_chemical_formula_structural   K2Rb2HfSe4
_chemical_formula_sum   'K8 Rb8 Hf4 Se16'
_cell_volume   1361.91735088
_cell_formula_units_Z   4
loop_
 _symmetry_equiv_pos_site_id
 _symmetry_equiv_pos_as_xyz
  1  'x, y, z'
loop_
 _atom_site_type_symbol
 _atom_site_label
 _atom_site_symmetry_multiplicity
 _atom_site_fract_x
 _atom_site_fract_y
 _atom_site_fract_z
 _atom_site_occupancy
  K  K0  1  0.84223419  0.05583939  0.27219318  1
  K  K1  1  0.34223419  0.94416061  0.22780682  1
  K  K2  1  0.15776581  0.55583939  0.72780682  1
  K  K3  1  0.65776581  0.44416061  0.77219318  1
  K  K4  1  0.15776581  0.94416061  0.72780682  1
  K  K5  1  0.65776581  0.05583939  0.77219318  1
  K  K6  1  0.84223419  0.44416061  0.27219318  1
  K  K7  1  0.34223419  0.55583939  0.22780682  1
  Rb  Rb0  1  0.00000000  0.00000000  0.00000000  1
  Rb  Rb1  1  0.50000000  0.00000000  0.50000000  1
  Rb  Rb2  1  0.00000000  0.50000000  0.00000000  1
  Rb  Rb3  1  0.50000000  0.50000000  0.50000000  1
  Rb  Rb4  1  0.99143160  0.75000000  0.43094183  1
  Rb  Rb5  1  0.49143160  0.25000000  0.06905817  1
  Rb  Rb6  1  0.00856840  0.25000000  0.56905817  1
  Rb  Rb7  1  0.50856840  0.75000000  0.93094183  1
  Hf  Hf0  1  0.75804892  0.75000000  0.67351077  1
  Hf  Hf1  1  0.24195108  0.25000000  0.32648923  1
  Hf  Hf2  1  0.74195108  0.75000000  0.17351077  1
  Hf  Hf3  1  0.25804892  0.25000000  0.82648923  1
  Se  Se0  1  0.96175343  0.25000000  0.82071590  1
  Se  Se1  1  0.53824657  0.25000000  0.32071590  1
  Se  Se2  1  0.46175343  0.75000000  0.67928410  1
  Se  Se3  1  0.03824657  0.75000000  0.17928410  1
  Se  Se4  1  0.64812573  0.55296429  0.09803288  1
  Se  Se5  1  0.14812573  0.44703571  0.40196712  1
  Se  Se6  1  0.35187427  0.05296429  0.90196712  1
  Se  Se7  1  0.85187427  0.94703571  0.59803288  1
  Se  Se8  1  0.35187427  0.44703571  0.90196712  1
  Se  Se9  1  0.85187427  0.55296429  0.59803288  1
  Se  Se10  1  0.64812573  0.94703571  0.09803288  1
  Se  Se11  1  0.14812573  0.05296429  0.40196712  1
  Se  Se12  1  0.62510083  0.75000000  0.32359280  1
  Se  Se13  1  0.12510083  0.25000000  0.17640720  1
  Se  Se14  1  0.37489917  0.25000000  0.67640720  1
  Se  Se15  1  0.87489917  0.75000000  0.82359280  1
loop_
_geom_bond_atom_site_label_1
_geom_bond_atom_site_label_2
_geom_bond_distance
_geom_bond_site_symmetry_2
K0 Se11 3.275306 1_655
K0 Se10 3.350672 1_545
K0 Se1 3.357034 1_555
K0 Se13 3.465614 1_655
K0 Se12 3.761317 1_545
K1 Se10 3.275306 1_555
K1 Se11 3.350672 1_565
K1 Se3 3.357034 1_555
K1 Se12 3.465614 1_555
K1 Se13 3.761317 1_565
K2 Se9 3.275306 1_455
K2 Se8 3.350672 1_555
K2 Se2 3.357034 1_555
K2 Se15 3.465614 1_455
K2 Se14 3.761317 1_555
K3 Se8 3.275306 1_555
K3 Se9 3.350672 1_555
K3 Se0 3.357034 1_555
K3 Se14 3.465614 1_555
K3 Se15 3.761317 1_555
K4 Se7 3.275306 1_455
K4 Se6 3.350672 1_565
K4 Se2 3.357034 1_555
K4 Se15 3.465614 1_455
K4 Se14 3.761317 1_565
K5 Se6 3.275306 1_555
K5 Se7 3.350672 1_545
K5 Se0 3.357034 1_555
K5 Se14 3.465614 1_555
K5 Se15 3.761317 1_545
K6 Se5 3.275306 1_655
K6 Se4 3.350672 1_555
K6 Se1 3.357034 1_555
K6 Se13 3.465614 1_655
K6 Se12 3.761317 1_555
K7 Se4 3.275306 1_555
K7 Se5 3.350672 1_555
K7 Se3 3.357034 1_555
K7 Se12 3.465614 1_555
K7 Se13 3.761317 1_555
Rb0 Se6 3.386893 1_554
Rb0 Se10 3.386893 1_445
Rb0 Se3 3.815192 1_545
Rb0 Se0 3.815192 1_454
Rb0 Se13 3.915082 1_555
Rb0 Se15 3.915082 1_444
Rb1 Se7 3.386893 1_545
Rb1 Se11 3.386893 1_555
Rb1 Se2 3.815192 1_545
Rb1 Se1 3.815192 1_555
Rb1 Se14 3.915082 1_555
Rb1 Se12 3.915082 1_545
Rb2 Se4 3.386893 1_455
Rb2 Se8 3.386893 1_554
Rb2 Se3 3.815192 1_555
Rb2 Se0 3.815192 1_454
Rb2 Se13 3.915082 1_555
Rb2 Se15 3.915082 1_454
Rb3 Se9 3.386893 1_555
Rb3 Se5 3.386893 1_555
Rb3 Se2 3.815192 1_555
Rb3 Se1 3.815192 1_555
Rb3 Se14 3.915082 1_555
Rb3 Se12 3.915082 1_555
Rb4 Se11 3.450856 1_665
Rb4 Se5 3.450856 1_655
Rb4 Se7 3.503064 1_555
Rb4 Se9 3.503064 1_555
Rb4 Se12 3.516805 1_555
Rb4 Se3 3.909286 1_655
Rb5 Se4 3.450856 1_555
Rb5 Se10 3.450856 1_545
Rb5 Se8 3.503064 1_554
Rb5 Se6 3.503064 1_554
Rb5 Se13 3.516805 1_555
Rb5 Se1 3.909286 1_555
Rb6 Se9 3.450856 1_455
Rb6 Se7 3.450856 1_445
Rb6 Se5 3.503064 1_555
Rb6 Se11 3.503064 1_555
Rb6 Se14 3.516805 1_555
Rb6 Se0 3.909286 1_455
Rb7 Se6 3.450856 1_565
Rb7 Se8 3.450856 1_555
Rb7 Se10 3.503064 1_556
Rb7 Se4 3.503064 1_556
Rb7 Se15 3.516805 1_555
Rb7 Se2 3.909286 1_555
Hf0 Se7 2.489840 1_555
Hf0 Se9 2.489840 1_555
Hf0 Se2 2.509669 1_555
Hf0 Se15 2.521487 1_555
Hf1 Se5 2.489840 1_555
Hf1 Se11 2.489840 1_555
Hf1 Se1 2.509669 1_555
Hf1 Se13 2.521487 1_555
Hf2 Se10 2.489840 1_555
Hf2 Se4 2.489840 1_555
Hf2 Se3 2.509669 1_655
Hf2 Se12 2.521487 1_555
Hf3 Se8 2.489840 1_555
Hf3 Se6 2.489840 1_555
Hf3 Se0 2.509669 1_455
Hf3 Se14 2.521487 1_555
