# generated using pymatgen
data_Y3B6Ir7Os
_symmetry_space_group_name_H-M   'P 1'
_cell_length_a   9.96106977
_cell_length_b   9.14290855
_cell_length_c   5.55549593
_cell_angle_alpha   81.37571307
_cell_angle_beta   65.16017163
_cell_angle_gamma   33.46411482
_symmetry_Int_Tables_number   1
_chemical_formula_structural   Y3B6Ir7Os
_chemical_formula_sum   'Y3 B6 Ir7 Os1'
_cell_volume   231.97098649
_cell_formula_units_Z   1
loop_
 _symmetry_equiv_pos_site_id
 _symmetry_equiv_pos_as_xyz
  1  'x, y, z'
loop_
 _atom_site_type_symbol
 _atom_site_label
 _atom_site_symmetry_multiplicity
 _atom_site_fract_x
 _atom_site_fract_y
 _atom_site_fract_z
 _atom_site_occupancy
  Y  Y0  1  0.00000000  0.00000000  0.00000000  1
  Y  Y1  1  0.17800570  0.17800570  0.82199430  1
  Y  Y2  1  0.82199430  0.82199430  0.17800570  1
  B  B0  1  0.82235255  0.52686048  0.48506978  1
  B  B1  1  0.16571719  0.48506978  0.52686048  1
  B  B2  1  0.48506978  0.16571719  0.82235255  1
  B  B3  1  0.66930162  0.33069838  0.66930162  1
  B  B4  1  0.52686048  0.82235255  0.16571719  1
  B  B5  1  0.33069838  0.66930162  0.33069838  1
  Ir  Ir0  1  0.41377213  0.41377213  0.58622787  1
  Ir  Ir1  1  0.58532955  0.58532955  0.91467045  1
  Ir  Ir2  1  0.08580957  0.08580957  0.41419043  1
  Ir  Ir3  1  0.91467045  0.91467045  0.58532955  1
  Ir  Ir4  1  0.58622787  0.58622787  0.41377213  1
  Ir  Ir5  1  0.25000000  0.25000000  0.25000000  1
  Ir  Ir6  1  0.41419043  0.41419043  0.08580957  1
  Os  Os0  1  0.75000000  0.75000000  0.75000000  1
loop_
_geom_bond_atom_site_label_1
_geom_bond_atom_site_label_2
_geom_bond_distance
_geom_bond_site_symmetry_2
Y0 Y1 3.103147 1_554
Y0 Y2 3.103147 1_445
B0 Os0 2.098564 1_555
B0 Ir4 2.138186 1_555
B0 Ir5 2.141427 1_655
B0 Ir1 2.258043 1_555
B0 Ir2 2.292274 1_655
B0 Y2 2.966457 1_555
B0 Y1 3.104283 1_565
B0 Y1 3.162286 1_654
B1 Os0 2.098564 1_455
B1 Ir0 2.138186 1_555
B1 Ir5 2.141427 1_555
B1 Ir3 2.258043 1_455
B1 Ir6 2.292273 1_555
B1 Y1 2.966457 1_555
B1 Y2 3.104283 1_456
B1 Y2 3.162286 1_545
B2 Os0 2.098564 1_545
B2 Ir0 2.138186 1_555
B2 Ir5 2.141427 1_556
B2 Ir3 2.258042 1_545
B2 Ir6 2.292273 1_556
B2 Y1 2.966457 1_555
B2 Y2 3.104283 1_545
B2 Y2 3.162286 1_456
B3 Ir1 2.173131 1_555
B3 Ir3 2.173131 1_545
B3 Ir2 2.178867 1_655
B3 Ir6 2.178867 1_556
B3 Ir0 2.219212 1_555
B3 Ir4 2.219212 1_555
B3 Y0 3.188923 1_656
B3 Y0 3.206555 1_566
B3 Y0 3.206555 1_655
B4 Os0 2.098564 1_554
B4 Ir4 2.138186 1_555
B4 Ir5 2.141427 1_565
B4 Ir1 2.258043 1_554
B4 Ir2 2.292273 1_565
B4 Y2 2.966457 1_555
B4 Y1 3.104283 1_654
B4 Y1 3.162286 1_565
B5 Ir3 2.173130 1_455
B5 Ir1 2.173130 1_554
B5 Ir6 2.178867 1_555
B5 Ir2 2.178867 1_565
B5 Ir4 2.219212 1_555
B5 Ir0 2.219212 1_555
B5 Y0 3.188923 1_565
B5 Y0 3.206555 1_655
B5 Y0 3.206555 1_566
Ir0 Y0 3.142658 1_655
Ir0 Y0 3.142658 1_566
Ir0 Y2 3.190068 1_456
Ir0 Y2 3.190068 1_545
Ir1 Y0 3.150976 1_566
Ir1 Y0 3.150976 1_656
Ir1 Y1 3.213421 1_655
Ir1 Y1 3.213422 1_565
Ir2 Y0 3.154935 1_556
Ir2 Y0 3.154935 1_555
Ir2 Y1 3.209223 1_554
Ir2 Y1 3.209223 1_555
Ir3 Y0 3.150976 1_665
Ir3 Y0 3.150976 1_666
Ir3 Y2 3.213422 1_556
Ir3 Y2 3.213422 1_555
Ir4 Y0 3.142658 1_566
Ir4 Y0 3.142658 1_655
Ir4 Y1 3.190068 1_654
Ir4 Y1 3.190068 1_565
Ir5 Y2 3.048126 1_545
Ir5 Y1 3.048126 1_555
Ir5 Y1 3.048126 1_554
Ir5 Y2 3.048126 1_455
Ir6 Y0 3.154935 1_655
Ir6 Y0 3.154935 1_565
Ir6 Y2 3.209222 1_455
Ir6 Y2 3.209223 1_545
Os0 Y1 3.048126 1_565
Os0 Y2 3.048126 1_555
Os0 Y2 3.048126 1_556
Os0 Y1 3.048126 1_655
