# generated using pymatgen
data_Na3ZnH5
_symmetry_space_group_name_H-M   'P 1'
_cell_length_a   6.85262940
_cell_length_b   6.85262949
_cell_length_c   6.85263050
_cell_angle_alpha   122.44997107
_cell_angle_beta   122.44997102
_cell_angle_gamma   85.80644490
_symmetry_Int_Tables_number   1
_chemical_formula_structural   Na3ZnH5
_chemical_formula_sum   'Na6 Zn2 H10'
_cell_volume   218.47557639
_cell_formula_units_Z   2
loop_
 _symmetry_equiv_pos_site_id
 _symmetry_equiv_pos_as_xyz
  1  'x, y, z'
loop_
 _atom_site_type_symbol
 _atom_site_label
 _atom_site_symmetry_multiplicity
 _atom_site_fract_x
 _atom_site_fract_y
 _atom_site_fract_z
 _atom_site_occupancy
  Na  Na0  1  0.18136218  0.68136218  0.86272236  1
  Na  Na1  1  0.81863782  0.31863782  0.13727764  1
  Na  Na2  1  0.68136218  0.81863782  0.50000000  1
  Na  Na3  1  0.31863782  0.18136218  0.50000000  1
  Na  Na4  1  0.25000000  0.25000000  0.00000000  1
  Na  Na5  1  0.75000000  0.75000000  0.00000000  1
  Zn  Zn0  1  0.25000000  0.75000000  0.50000000  1
  Zn  Zn1  1  0.75000000  0.25000000  0.50000000  1
  H  H0  1  0.48573392  0.98573392  0.77575918  1
  H  H1  1  0.20997475  0.70997475  0.22424082  1
  H  H2  1  0.98573392  0.20997475  0.50000000  1
  H  H3  1  0.70997475  0.48573392  0.50000000  1
  H  H4  1  0.51426608  0.01426608  0.22424082  1
  H  H5  1  0.79002525  0.29002525  0.77575918  1
  H  H6  1  0.01426608  0.79002525  0.50000000  1
  H  H7  1  0.29002525  0.51426608  0.50000000  1
  H  H8  1  0.50000000  0.50000000  0.00000000  1
  H  H9  1  0.00000000  0.00000000  0.00000000  1
loop_
_geom_bond_atom_site_label_1
_geom_bond_atom_site_label_2
_geom_bond_distance
_geom_bond_site_symmetry_2
H0 Zn0 1.618622 1_555
H0 Na1 2.275348 1_566
H0 Na2 2.617464 1_555
H0 Na3 2.617464 1_565
H1 Zn0 1.618622 1_555
H1 Na0 2.275361 1_554
H1 Na2 2.617464 1_555
H1 Na3 2.617464 1_565
H2 Zn1 1.618622 1_555
H2 Na3 2.275347 1_655
H2 Na1 2.617453 1_555
H2 Na0 2.617464 1_655
H3 Zn1 1.618622 1_555
H3 Na2 2.275347 1_555
H3 Na1 2.617453 1_555
H3 Na0 2.617464 1_655
H4 Zn1 1.618622 1_555
H4 Na0 2.275348 1_544
H4 Na3 2.617464 1_555
H4 Na2 2.617464 1_545
H5 Zn1 1.618622 1_555
H5 Na1 2.275361 1_556
H5 Na3 2.617464 1_555
H5 Na2 2.617464 1_545
H6 Zn0 1.618622 1_555
H6 Na2 2.275347 1_455
H6 Na0 2.617453 1_555
H6 Na1 2.617464 1_455
H7 Zn0 1.618622 1_555
H7 Na3 2.275347 1_555
H7 Na0 2.617453 1_555
H7 Na1 2.617464 1_455
H8 Na2 2.418819 1_555
H8 Na3 2.418819 1_554
H8 Na1 2.418821 1_555
H8 Na0 2.418821 1_554
H8 Na4 2.509791 1_555
H8 Na5 2.509791 1_555
H9 Na3 2.418819 1_555
H9 Na2 2.418819 1_444
H9 Na1 2.418821 1_455
H9 Na0 2.418821 1_544
H9 Na4 2.509791 1_555
H9 Na5 2.509791 1_445
