# generated using pymatgen
data_LuAgI4
_symmetry_space_group_name_H-M   'P 1'
_cell_length_a   8.73295783
_cell_length_b   8.73295767
_cell_length_c   8.73295810
_cell_angle_alpha   120.92911530
_cell_angle_beta   121.10439917
_cell_angle_gamma   88.24783435
_symmetry_Int_Tables_number   1
_chemical_formula_structural   LuAgI4
_chemical_formula_sum   'Lu2 Ag2 I8'
_cell_volume   463.46956523
_cell_formula_units_Z   2
loop_
 _symmetry_equiv_pos_site_id
 _symmetry_equiv_pos_as_xyz
  1  'x, y, z'
loop_
 _atom_site_type_symbol
 _atom_site_label
 _atom_site_symmetry_multiplicity
 _atom_site_fract_x
 _atom_site_fract_y
 _atom_site_fract_z
 _atom_site_occupancy
  Lu  Lu0  1  0.50000000  0.00000000  0.50000000  1
  Lu  Lu1  1  0.00000000  0.00000000  0.00000000  1
  Ag  Ag0  1  0.00000000  0.00000000  0.50000000  1
  Ag  Ag1  1  0.00000000  0.50000000  0.00000000  1
  I  I0  1  0.22626754  0.23561574  0.99065180  1
  I  I1  1  0.74496293  0.23561574  0.50934820  1
  I  I2  1  0.74023020  0.23383864  0.99360843  1
  I  I3  1  0.74023020  0.74662177  0.50639157  1
  I  I4  1  0.25976980  0.25337823  0.49360843  1
  I  I5  1  0.25503707  0.76438426  0.49065180  1
  I  I6  1  0.25976980  0.76616136  0.00639157  1
  I  I7  1  0.77373246  0.76438426  0.00934820  1
loop_
_geom_bond_atom_site_label_1
_geom_bond_atom_site_label_2
_geom_bond_distance
_geom_bond_site_symmetry_2
Ag0 I0 2.989301 1_555
Ag0 I7 2.989301 1_445
Ag0 I5 2.989307 1_545
Ag0 I1 2.989307 1_455
Ag0 I4 3.257370 1_555
Ag0 I3 3.257370 1_445
Ag1 I7 2.989300 1_455
Ag1 I0 2.989300 1_554
Ag1 I5 2.989301 1_555
Ag1 I1 2.989301 1_454
Ag1 I6 3.257370 1_555
Ag1 I2 3.257370 1_454
I0 Lu1 2.955160 1_556
I1 Lu0 2.955154 1_555
I2 Lu1 3.003782 1_656
I2 Lu0 3.003782 1_555
I3 Lu0 3.003782 1_565
I3 Lu1 3.003782 1_666
I4 Lu0 3.003782 1_555
I4 Lu1 3.003782 1_555
I5 Lu0 2.955154 1_565
I6 Lu1 3.003782 1_565
I6 Lu0 3.003782 1_565
I7 Lu1 2.955160 1_665
