# generated using pymatgen
data_MgTa3(NbN2)6
_symmetry_space_group_name_H-M   'P 1'
_cell_length_a   5.24905042
_cell_length_b   5.24904973
_cell_length_c   10.35606833
_cell_angle_alpha   90.00000000
_cell_angle_beta   90.00000000
_cell_angle_gamma   119.99999810
_symmetry_Int_Tables_number   1
_chemical_formula_structural   MgTa3(NbN2)6
_chemical_formula_sum   'Mg1 Ta3 Nb6 N12'
_cell_volume   247.10809875
_cell_formula_units_Z   1
loop_
 _symmetry_equiv_pos_site_id
 _symmetry_equiv_pos_as_xyz
  1  'x, y, z'
loop_
 _atom_site_type_symbol
 _atom_site_label
 _atom_site_symmetry_multiplicity
 _atom_site_fract_x
 _atom_site_fract_y
 _atom_site_fract_z
 _atom_site_occupancy
  Mg  Mg0  1  0.66666700  0.33333300  0.00000000  1
  Ta  Ta0  1  0.33333300  0.66666700  0.00000000  1
  Ta  Ta1  1  0.33333300  0.66666700  0.50000000  1
  Ta  Ta2  1  0.66666700  0.33333300  0.50000000  1
  Nb  Nb0  1  0.68129073  0.67714403  0.75019096  1
  Nb  Nb1  1  0.32285597  0.00414670  0.75019096  1
  Nb  Nb2  1  0.99585330  0.31870927  0.75019096  1
  Nb  Nb3  1  0.32285597  0.31870927  0.24980904  1
  Nb  Nb4  1  0.68129073  0.00414670  0.24980904  1
  Nb  Nb5  1  0.99585330  0.67714403  0.24980904  1
  N  N0  1  0.65542001  0.65600742  0.38217789  1
  N  N1  1  0.34399258  0.99941258  0.38217789  1
  N  N2  1  0.00058742  0.34457999  0.38217789  1
  N  N3  1  0.34399258  0.34457999  0.61782211  1
  N  N4  1  0.65542001  0.99941258  0.61782211  1
  N  N5  1  0.00058742  0.65600742  0.61782211  1
  N  N6  1  0.34518620  0.35344020  0.87599058  1
  N  N7  1  0.64655980  0.99174599  0.87599058  1
  N  N8  1  0.00825401  0.65481380  0.87599058  1
  N  N9  1  0.64655980  0.65481380  0.12400942  1
  N  N10  1  0.34518620  0.99174599  0.12400942  1
  N  N11  1  0.00825401  0.35344020  0.12400942  1
loop_
_geom_bond_atom_site_label_1
_geom_bond_atom_site_label_2
_geom_bond_distance
_geom_bond_site_symmetry_2
Mg0 N7 2.164734 1_544
Mg0 N11 2.164734 1_655
Mg0 N10 2.164736 1_545
Mg0 N8 2.164736 1_654
Mg0 N9 2.164738 1_555
Mg0 N6 2.164738 1_554
N0 Ta1 2.108282 1_555
N0 Ta2 2.112116 1_555
N0 Nb5 2.210520 1_555
N0 Nb3 2.229445 1_555
N0 Nb4 2.233568 1_565
N1 Ta1 2.108277 1_555
N1 Ta2 2.112114 1_565
N1 Nb3 2.210520 1_565
N1 Nb4 2.229445 1_565
N1 Nb5 2.233569 1_455
N2 Ta1 2.108279 1_555
N2 Ta2 2.112112 1_455
N2 Nb4 2.210520 1_455
N2 Nb5 2.229445 1_455
N2 Nb3 2.233569 1_555
N3 Ta1 2.108282 1_555
N3 Ta2 2.112117 1_555
N3 Nb1 2.210520 1_555
N3 Nb0 2.229445 1_555
N3 Nb2 2.233569 1_455
N4 Ta1 2.108279 1_555
N4 Ta2 2.112112 1_565
N4 Nb2 2.210520 1_565
N4 Nb1 2.229445 1_565
N4 Nb0 2.233568 1_555
N5 Ta1 2.108277 1_555
N5 Ta2 2.112114 1_455
N5 Nb0 2.210520 1_455
N5 Nb2 2.229445 1_455
N5 Nb1 2.233569 1_565
N6 Ta0 2.111557 1_556
N6 Nb0 2.167756 1_555
N6 Nb2 2.181408 1_455
N6 Nb1 2.204011 1_555
N7 Ta0 2.111554 1_556
N7 Nb1 2.167756 1_565
N7 Nb0 2.181408 1_555
N7 Nb2 2.204012 1_565
N8 Ta0 2.111553 1_556
N8 Nb2 2.167756 1_455
N8 Nb1 2.181408 1_565
N8 Nb0 2.204012 1_455
N9 Ta0 2.111557 1_555
N9 Nb3 2.167756 1_555
N9 Nb4 2.181408 1_565
N9 Nb5 2.204012 1_555
N10 Ta0 2.111552 1_555
N10 Nb4 2.167756 1_565
N10 Nb5 2.181408 1_455
N10 Nb3 2.204011 1_565
N11 Ta0 2.111554 1_555
N11 Nb5 2.167756 1_455
N11 Nb3 2.181408 1_555
N11 Nb4 2.204012 1_455
