# generated using pymatgen
data_ZrCd3P6N13
_symmetry_space_group_name_H-M   'P 1'
_cell_length_a   7.23434274
_cell_length_b   7.23535526
_cell_length_c   7.23535618
_cell_angle_alpha   109.47405255
_cell_angle_beta   109.46839087
_cell_angle_gamma   109.46839114
_symmetry_Int_Tables_number   1
_chemical_formula_structural   ZrCd3P6N13
_chemical_formula_sum   'Zr1 Cd3 P6 N13'
_cell_volume   291.54937664
_cell_formula_units_Z   1
loop_
 _symmetry_equiv_pos_site_id
 _symmetry_equiv_pos_as_xyz
  1  'x, y, z'
loop_
 _atom_site_type_symbol
 _atom_site_label
 _atom_site_symmetry_multiplicity
 _atom_site_fract_x
 _atom_site_fract_y
 _atom_site_fract_z
 _atom_site_occupancy
  Zr  Zr0  1  0.65331299  0.00000000  0.00000000  1
  Cd  Cd0  1  0.00896769  0.00000000  0.72489030  1
  Cd  Cd1  1  0.00896769  0.72489030  0.00000000  1
  Cd  Cd2  1  0.28407739  0.27510970  0.27510970  1
  P  P0  1  0.25132429  0.74596766  0.49371361  1
  P  P1  1  0.75760968  0.25225405  0.50628639  1
  P  P2  1  0.75760968  0.50628639  0.25225405  1
  P  P3  1  0.25132429  0.49371361  0.74596766  1
  P  P4  1  0.50535563  0.74774595  0.25403234  1
  P  P5  1  0.50535563  0.25403234  0.74774595  1
  N  N0  1  0.92435020  1.00000000  1.00000000  1
  N  N1  1  0.72761336  0.28751733  0.28751733  1
  N  N2  1  0.28361928  0.71223407  0.27723476  1
  N  N3  1  0.30638957  0.57900368  0.57900368  1
  N  N4  1  0.57138521  0.56499968  0.28776593  1
  N  N5  1  0.44009603  0.71248267  1.00000000  1
  N  N6  1  0.00638453  0.72276524  0.43500032  1
  N  N7  1  0.57138521  0.28776593  0.56499968  1
  N  N8  1  0.72738589  1.00000000  0.42099632  1
  N  N9  1  0.44009603  1.00000000  0.71248267  1
  N  N10  1  0.72738589  0.42099632  1.00000000  1
  N  N11  1  0.28361928  0.27723476  0.71223407  1
  N  N12  1  0.00638453  0.43500032  0.72276524  1
loop_
_geom_bond_atom_site_label_1
_geom_bond_atom_site_label_2
_geom_bond_distance
_geom_bond_site_symmetry_2
Cd0 N0 2.269164 1_445
Cd0 N6 2.359433 1_545
Cd0 N11 2.359437 1_555
Cd0 N8 2.449211 1_445
Cd1 N0 2.269164 1_454
Cd1 N12 2.359433 1_554
Cd1 N2 2.359437 1_555
Cd1 N10 2.449211 1_454
Cd2 N0 2.269164 1_444
Cd2 N4 2.359433 1_555
Cd2 N7 2.359433 1_555
Cd2 N3 2.449211 1_555
N0 Zr0 1.960776 1_566
N1 P2 1.641613 1_555
N1 P1 1.641613 1_555
N1 Zr0 2.137277 1_555
N2 P0 1.610744 1_555
N2 P4 1.612737 1_555
N3 P0 1.628759 1_555
N3 P3 1.628759 1_555
N4 P4 1.610754 1_555
N4 P2 1.612734 1_555
N5 P3 1.641612 1_555
N5 P4 1.641613 1_556
N5 Zr0 2.137277 1_566
N6 P2 1.610748 1_455
N6 P0 1.612745 1_555
N7 P5 1.610754 1_555
N7 P1 1.612734 1_555
N8 P4 1.628762 1_555
N8 P1 1.628762 1_565
N9 P0 1.641612 1_555
N9 P5 1.641613 1_565
N9 Zr0 2.137277 1_566
N10 P5 1.628762 1_555
N10 P2 1.628762 1_556
N11 P3 1.610744 1_555
N11 P5 1.612737 1_555
N12 P1 1.610748 1_455
N12 P3 1.612745 1_555
