# generated using pymatgen
data_ZrTi2TeCl7
_symmetry_space_group_name_H-M   'P 1'
_cell_length_a   7.13148295
_cell_length_b   7.26198237
_cell_length_c   6.84295817
_cell_angle_alpha   89.87508872
_cell_angle_beta   90.00000000
_cell_angle_gamma   119.40730920
_symmetry_Int_Tables_number   1
_chemical_formula_structural   ZrTi2TeCl7
_chemical_formula_sum   'Zr1 Ti2 Te1 Cl7'
_cell_volume   308.72449790
_cell_formula_units_Z   1
loop_
 _symmetry_equiv_pos_site_id
 _symmetry_equiv_pos_as_xyz
  1  'x, y, z'
loop_
 _atom_site_type_symbol
 _atom_site_label
 _atom_site_symmetry_multiplicity
 _atom_site_fract_x
 _atom_site_fract_y
 _atom_site_fract_z
 _atom_site_occupancy
  Zr  Zr0  1  0.15361709  0.30723318  0.50229924  1
  Ti  Ti0  1  0.15185067  0.84560564  0.49638057  1
  Ti  Ti1  1  0.69375497  0.84560564  0.49638057  1
  Te  Te0  1  0.99923264  0.99846627  0.78797712  1
  Cl  Cl0  1  0.32378099  0.15711853  0.28192751  1
  Cl  Cl1  1  0.83333854  0.15711853  0.28192751  1
  Cl  Cl2  1  0.84260084  0.68520268  0.28460948  1
  Cl  Cl3  1  0.33441343  0.66882587  0.29090825  1
  Cl  Cl4  1  0.00685877  0.51134276  0.68489413  1
  Cl  Cl5  1  0.50448399  0.51134276  0.68489413  1
  Cl  Cl6  1  0.48940207  0.97880215  0.67767948  1
loop_
_geom_bond_atom_site_label_1
_geom_bond_atom_site_label_2
_geom_bond_distance
_geom_bond_site_symmetry_2
Te0 Ti1 2.755817 1_555
Te0 Ti0 2.755821 1_655
Te0 Zr0 2.760075 1_665
Cl0 Ti0 2.456848 1_545
Cl0 Zr0 2.498270 1_555
Cl1 Ti1 2.456847 1_545
Cl1 Zr0 2.498270 1_655
Cl2 Ti1 2.409408 1_555
Cl2 Ti0 2.409413 1_655
Cl3 Ti1 2.639938 1_555
Cl3 Ti0 2.639944 1_555
Cl3 Zr0 2.703469 1_555
Cl4 Ti0 2.479327 1_555
Cl4 Zr0 2.526887 1_555
Cl5 Ti1 2.479327 1_555
Cl5 Zr0 2.526882 1_555
Cl6 Ti1 2.447066 1_555
Cl6 Ti0 2.447077 1_555
