# generated using pymatgen
data_Sr21Al8BiPb6
_symmetry_space_group_name_H-M   'P 1'
_cell_length_a   12.24032548
_cell_length_b   12.24032588
_cell_length_c   12.24032452
_cell_angle_alpha   60.00000369
_cell_angle_beta   60.00000261
_cell_angle_gamma   59.99999974
_symmetry_Int_Tables_number   1
_chemical_formula_structural   Sr21Al8BiPb6
_chemical_formula_sum   'Sr21 Al8 Bi1 Pb6'
_cell_volume   1296.77282408
_cell_formula_units_Z   1
loop_
 _symmetry_equiv_pos_site_id
 _symmetry_equiv_pos_as_xyz
  1  'x, y, z'
loop_
 _atom_site_type_symbol
 _atom_site_label
 _atom_site_symmetry_multiplicity
 _atom_site_fract_x
 _atom_site_fract_y
 _atom_site_fract_z
 _atom_site_occupancy
  Sr  Sr0  1  0.87083319  0.87083319  0.38749744  1
  Sr  Sr1  1  0.61250256  0.12916681  0.12916681  1
  Sr  Sr2  1  0.87083319  0.38749744  0.87083319  1
  Sr  Sr3  1  0.12916681  0.12916681  0.12916681  1
  Sr  Sr4  1  0.38749744  0.87083319  0.87083319  1
  Sr  Sr5  1  0.87083319  0.87083319  0.87083319  1
  Sr  Sr6  1  0.18005084  0.81994916  0.50000000  1
  Sr  Sr7  1  0.81994916  0.50000000  0.50000000  1
  Sr  Sr8  1  0.12916681  0.12916681  0.61250256  1
  Sr  Sr9  1  0.81994916  0.18005084  0.50000000  1
  Sr  Sr10  1  0.18005084  0.50000000  0.50000000  1
  Sr  Sr11  1  0.12916681  0.61250256  0.12916681  1
  Sr  Sr12  1  0.50000000  0.50000000  0.18005084  1
  Sr  Sr13  1  0.50000000  0.18005084  0.81994916  1
  Sr  Sr14  1  0.50000000  0.81994916  0.18005084  1
  Sr  Sr15  1  0.50000000  0.50000000  0.81994916  1
  Sr  Sr16  1  0.50000000  0.18005084  0.50000000  1
  Sr  Sr17  1  0.18005084  0.50000000  0.81994916  1
  Sr  Sr18  1  0.00000000  0.00000000  0.00000000  1
  Sr  Sr19  1  0.50000000  0.81994916  0.50000000  1
  Sr  Sr20  1  0.81994916  0.50000000  0.18005084  1
  Al  Al0  1  0.69456321  0.91631237  0.69456321  1
  Al  Al1  1  0.69456321  0.69456321  0.91631237  1
  Al  Al2  1  0.69456321  0.69456321  0.69456321  1
  Al  Al3  1  0.30543679  0.08368763  0.30543679  1
  Al  Al4  1  0.91631237  0.69456321  0.69456321  1
  Al  Al5  1  0.30543679  0.30543679  0.08368763  1
  Al  Al6  1  0.08368763  0.30543679  0.30543679  1
  Al  Al7  1  0.30543679  0.30543679  0.30543679  1
  Bi  Bi0  1  0.50000000  0.50000000  0.50000000  1
  Pb  Pb0  1  0.78692593  0.21307407  0.78692593  1
  Pb  Pb1  1  0.78692593  0.21307407  0.21307407  1
  Pb  Pb2  1  0.21307407  0.78692593  0.21307407  1
  Pb  Pb3  1  0.21307407  0.78692593  0.78692593  1
  Pb  Pb4  1  0.78692593  0.78692593  0.21307407  1
  Pb  Pb5  1  0.21307407  0.21307407  0.78692593  1
loop_
_geom_bond_atom_site_label_1
_geom_bond_atom_site_label_2
_geom_bond_distance
_geom_bond_site_symmetry_2
Al0 Al4 2.714282 1_555
Al0 Al1 2.714282 1_555
Al0 Al2 2.714282 1_555
Al0 Sr5 3.445786 1_555
Al0 Sr0 3.445839 1_555
Al0 Sr4 3.445839 1_555
Al0 Sr13 3.472765 1_565
Al0 Sr9 3.472766 1_565
Al0 Sr16 3.472779 1_565
Al1 Al2 2.714282 1_555
Al1 Al4 2.714282 1_555
Al1 Sr5 3.445786 1_555
Al1 Sr4 3.445839 1_555
Al1 Sr2 3.445839 1_555
Al1 Sr14 3.472765 1_556
Al1 Sr20 3.472765 1_556
Al1 Sr12 3.472779 1_556
Al2 Al4 2.714282 1_555
Al2 Sr4 3.445815 1_555
Al2 Sr2 3.445815 1_555
Al2 Sr0 3.445815 1_555
Al2 Sr19 3.472785 1_555
Al2 Sr7 3.472785 1_555
Al2 Sr15 3.472785 1_555
Al3 Al6 2.714282 1_555
Al3 Al5 2.714282 1_555
Al3 Al7 2.714282 1_555
Al3 Sr3 3.445786 1_555
Al3 Sr8 3.445839 1_555
Al3 Sr1 3.445839 1_555
Al3 Sr14 3.472765 1_545
Al3 Sr6 3.472766 1_545
Al3 Sr19 3.472779 1_545
Al4 Sr5 3.445786 1_555
Al4 Sr0 3.445839 1_555
Al4 Sr2 3.445839 1_555
Al4 Sr17 3.472765 1_655
Al4 Sr6 3.472765 1_655
Al4 Sr10 3.472779 1_655
Al5 Al7 2.714282 1_555
Al5 Al6 2.714282 1_555
Al5 Sr3 3.445786 1_555
Al5 Sr1 3.445839 1_555
Al5 Sr11 3.445839 1_555
Al5 Sr13 3.472765 1_554
Al5 Sr17 3.472765 1_554
Al5 Sr15 3.472779 1_554
Al6 Al7 2.714282 1_555
Al6 Sr3 3.445786 1_555
Al6 Sr8 3.445839 1_555
Al6 Sr11 3.445839 1_555
Al6 Sr20 3.472765 1_455
Al6 Sr9 3.472765 1_455
Al6 Sr7 3.472779 1_455
Al7 Sr1 3.445815 1_555
Al7 Sr11 3.445815 1_555
Al7 Sr8 3.445815 1_555
Al7 Sr16 3.472785 1_555
Al7 Sr10 3.472785 1_555
Al7 Sr12 3.472785 1_555
Bi0 Sr15 3.916281 1_555
Bi0 Sr12 3.916281 1_555
Bi0 Sr7 3.916282 1_555
Bi0 Sr17 3.916282 1_555
Bi0 Sr20 3.916282 1_555
Bi0 Sr10 3.916282 1_555
Bi0 Sr6 3.916282 1_555
Bi0 Sr9 3.916282 1_555
Bi0 Sr14 3.916282 1_555
Bi0 Sr13 3.916282 1_555
Bi0 Sr19 3.916282 1_555
Bi0 Sr16 3.916282 1_555
Pb0 Sr2 3.479689 1_555
Pb0 Sr1 3.479717 1_556
Pb0 Sr8 3.479717 1_655
Pb0 Sr5 3.479723 1_545
Pb0 Sr9 3.535251 1_555
Pb0 Sr15 3.535252 1_555
Pb0 Sr13 3.535252 1_555
Pb0 Sr7 3.535252 1_555
Pb0 Sr18 3.688405 1_656
Pb1 Sr1 3.479689 1_555
Pb1 Sr2 3.479717 1_554
Pb1 Sr0 3.479717 1_545
Pb1 Sr3 3.479723 1_655
Pb1 Sr9 3.535251 1_555
Pb1 Sr12 3.535252 1_555
Pb1 Sr16 3.535252 1_555
Pb1 Sr20 3.535252 1_555
Pb1 Sr18 3.688405 1_655
Pb2 Sr11 3.479689 1_555
Pb2 Sr4 3.479717 1_554
Pb2 Sr0 3.479717 1_455
Pb2 Sr3 3.479723 1_565
Pb2 Sr6 3.535251 1_555
Pb2 Sr12 3.535252 1_555
Pb2 Sr14 3.535252 1_555
Pb2 Sr10 3.535252 1_555
Pb2 Sr18 3.688405 1_565
Pb3 Sr4 3.479689 1_555
Pb3 Sr11 3.479717 1_556
Pb3 Sr8 3.479717 1_565
Pb3 Sr5 3.479723 1_455
Pb3 Sr6 3.535251 1_555
Pb3 Sr15 3.535252 1_555
Pb3 Sr19 3.535252 1_555
Pb3 Sr17 3.535252 1_555
Pb3 Sr18 3.688405 1_566
Pb4 Sr0 3.479689 1_555
Pb4 Sr11 3.479717 1_655
Pb4 Sr1 3.479717 1_565
Pb4 Sr5 3.479723 1_554
Pb4 Sr14 3.535251 1_555
Pb4 Sr19 3.535251 1_555
Pb4 Sr20 3.535252 1_555
Pb4 Sr7 3.535252 1_555
Pb4 Sr18 3.688405 1_665
Pb5 Sr8 3.479689 1_555
Pb5 Sr2 3.479717 1_455
Pb5 Sr4 3.479717 1_545
Pb5 Sr3 3.479723 1_556
Pb5 Sr13 3.535251 1_555
Pb5 Sr16 3.535251 1_555
Pb5 Sr10 3.535252 1_555
Pb5 Sr17 3.535252 1_555
Pb5 Sr18 3.688405 1_556
