# generated using pymatgen
data_Rb3GeIrBr8
_symmetry_space_group_name_H-M   'P 1'
_cell_length_a   8.40392014
_cell_length_b   10.29446473
_cell_length_c   10.15826961
_cell_angle_alpha   90.00000000
_cell_angle_beta   90.00000000
_cell_angle_gamma   90.00000000
_symmetry_Int_Tables_number   1
_chemical_formula_structural   Rb3GeIrBr8
_chemical_formula_sum   'Rb6 Ge2 Ir2 Br16'
_cell_volume   878.83110885
_cell_formula_units_Z   2
loop_
 _symmetry_equiv_pos_site_id
 _symmetry_equiv_pos_as_xyz
  1  'x, y, z'
loop_
 _atom_site_type_symbol
 _atom_site_label
 _atom_site_symmetry_multiplicity
 _atom_site_fract_x
 _atom_site_fract_y
 _atom_site_fract_z
 _atom_site_occupancy
  Rb  Rb0  1  0.93781177  0.24198108  0.36776791  1
  Rb  Rb1  1  0.43781177  0.25801892  0.63223209  1
  Rb  Rb2  1  0.93781177  0.75801892  0.36776791  1
  Rb  Rb3  1  0.98824946  0.00000000  0.86587865  1
  Rb  Rb4  1  0.48824946  0.50000000  0.13412135  1
  Rb  Rb5  1  0.43781177  0.74198108  0.63223209  1
  Ge  Ge0  1  0.51624993  0.00000000  0.11175600  1
  Ge  Ge1  1  0.01624993  0.50000000  0.88824400  1
  Ir  Ir0  1  0.85737955  0.50000000  0.69784203  1
  Ir  Ir1  1  0.35737955  0.00000000  0.30215797  1
  Br  Br0  1  0.59927429  0.50000000  0.82037389  1
  Br  Br1  1  0.19516173  0.67678398  0.92221618  1
  Br  Br2  1  0.69516173  0.17678398  0.07778382  1
  Br  Br3  1  0.19220563  0.00000000  0.52214309  1
  Br  Br4  1  0.69220563  0.50000000  0.47785691  1
  Br  Br5  1  0.84750212  0.74403638  0.69288749  1
  Br  Br6  1  0.09927429  0.00000000  0.17962611  1
  Br  Br7  1  0.11190906  0.50000000  0.56388701  1
  Br  Br8  1  0.69516173  0.82321602  0.07778382  1
  Br  Br9  1  0.40497984  0.00000000  0.89140120  1
  Br  Br10  1  0.19516173  0.32321602  0.92221618  1
  Br  Br11  1  0.61190906  0.00000000  0.43611299  1
  Br  Br12  1  0.90497984  0.50000000  0.10859880  1
  Br  Br13  1  0.84750212  0.25596362  0.69288749  1
  Br  Br14  1  0.34750212  0.75596362  0.30711251  1
  Br  Br15  1  0.34750212  0.24403638  0.30711251  1
loop_
_geom_bond_atom_site_label_1
_geom_bond_atom_site_label_2
_geom_bond_distance
_geom_bond_site_symmetry_2
Ge0 Ir1 2.350221 1_555
Ge1 Ir0 2.350221 1_455
Br0 Ir0 2.500857 1_555
Br0 Rb4 3.320900 1_556
Br0 Rb5 3.420424 1_555
Br0 Rb1 3.420424 1_555
Br1 Ge1 2.385752 1_555
Br1 Rb5 3.645026 1_555
Br1 Rb4 3.743322 1_556
Br1 Rb3 3.797679 1_465
Br2 Ge0 2.385752 1_555
Br2 Rb0 3.645026 1_555
Br2 Rb3 3.743322 1_554
Br2 Rb4 3.797679 1_555
Br3 Ir1 2.630701 1_555
Br3 Rb1 3.544879 1_555
Br3 Rb5 3.544879 1_545
Br3 Rb0 3.638029 1_455
Br3 Rb2 3.638029 1_445
Br3 Rb3 3.889766 1_455
Br4 Ir0 2.630701 1_555
Br4 Rb2 3.544879 1_555
Br4 Rb0 3.544879 1_555
Br4 Rb5 3.638029 1_555
Br4 Rb1 3.638029 1_555
Br4 Rb4 3.889766 1_555
Br5 Ir0 2.514099 1_555
Br5 Rb3 3.380891 1_565
Br5 Rb2 3.391791 1_555
Br5 Rb5 3.497767 1_555
Br6 Ir1 2.500857 1_555
Br6 Rb3 3.320900 1_454
Br6 Rb0 3.420424 1_455
Br6 Rb2 3.420424 1_445
Br7 Ir0 2.535185 1_455
Br7 Rb2 3.628342 1_455
Br7 Rb0 3.628342 1_455
Br7 Rb5 3.766799 1_555
Br7 Rb1 3.766799 1_555
Br8 Ge0 2.385752 1_565
Br8 Rb2 3.645026 1_555
Br8 Rb3 3.743322 1_564
Br8 Rb4 3.797679 1_555
Br9 Ge0 2.425894 1_556
Br9 Rb3 3.511752 1_455
Br9 Rb1 3.750002 1_555
Br9 Rb5 3.750002 1_545
Br10 Ge1 2.385752 1_555
Br10 Rb1 3.645026 1_555
Br10 Rb4 3.743322 1_556
Br10 Rb3 3.797679 1_455
Br11 Ir1 2.535185 1_555
Br11 Rb1 3.628342 1_555
Br11 Rb5 3.628342 1_545
Br11 Rb0 3.766799 1_555
Br11 Rb2 3.766799 1_545
Br12 Ge1 2.425894 1_654
Br12 Rb4 3.511752 1_555
Br12 Rb2 3.750002 1_555
Br12 Rb0 3.750002 1_555
Br13 Ir0 2.514099 1_555
Br13 Rb3 3.380891 1_555
Br13 Rb0 3.391791 1_555
Br13 Rb1 3.497767 1_555
Br14 Ir1 2.514099 1_565
Br14 Rb4 3.380891 1_555
Br14 Rb5 3.391791 1_555
Br14 Rb2 3.497767 1_455
Br15 Ir1 2.514099 1_555
Br15 Rb4 3.380891 1_555
Br15 Rb1 3.391791 1_555
Br15 Rb0 3.497767 1_455
