# generated using pymatgen
data_BSO4F
_symmetry_space_group_name_H-M   'P 1'
_cell_length_a   8.01384584
_cell_length_b   6.83091430
_cell_length_c   6.76311018
_cell_angle_alpha   80.44667337
_cell_angle_beta   89.99127631
_cell_angle_gamma   89.99318341
_symmetry_Int_Tables_number   1
_chemical_formula_structural   BSO4F
_chemical_formula_sum   'B4 S4 O16 F4'
_cell_volume   365.09100573
_cell_formula_units_Z   4
loop_
 _symmetry_equiv_pos_site_id
 _symmetry_equiv_pos_as_xyz
  1  'x, y, z'
loop_
 _atom_site_type_symbol
 _atom_site_label
 _atom_site_symmetry_multiplicity
 _atom_site_fract_x
 _atom_site_fract_y
 _atom_site_fract_z
 _atom_site_occupancy
  B  B0  1  0.70701597  0.88596831  0.14268040  1
  B  B1  1  0.20702292  0.61404658  0.35728242  1
  B  B2  1  0.29298574  0.11402775  0.85730200  1
  B  B3  1  0.79297576  0.38595751  0.64273526  1
  S  S0  1  0.88075180  0.55099951  0.26905963  1
  S  S1  1  0.38072083  0.94902096  0.23099076  1
  S  S2  1  0.61927622  0.05098361  0.76897720  1
  S  S3  1  0.11924098  0.44899572  0.73097705  1
  O  O0  1  0.92540106  0.37678322  0.19789109  1
  O  O1  1  0.52636794  0.83279873  0.16727274  1
  O  O2  1  0.47362295  0.16719120  0.83271204  1
  O  O3  1  0.07460207  0.62319891  0.80217000  1
  O  O4  1  0.02638128  0.66724668  0.33270202  1
  O  O5  1  0.42532491  0.12320925  0.30219088  1
  O  O6  1  0.57467121  0.87679824  0.69774875  1
  O  O7  1  0.97362607  0.33276714  0.66731695  1
  O  O8  1  0.28859323  0.80580685  0.38264887  1
  O  O9  1  0.76555527  0.52191049  0.44881040  1
  O  O10  1  0.23444803  0.47811605  0.55122110  1
  O  O11  1  0.71141764  0.19422218  0.61733077  1
  O  O12  1  0.78860798  0.69418128  0.11738266  1
  O  O13  1  0.26552921  0.97814211  0.05126659  1
  O  O14  1  0.73447427  0.02182493  0.94870423  1
  O  O15  1  0.21139553  0.30580111  0.88262973  1
  F  F0  1  0.27096603  0.53407378  0.20554626  1
  F  F1  1  0.77090955  0.96600402  0.29437051  1
  F  F2  1  0.22908398  0.03401567  0.70558873  1
  F  F3  1  0.72902856  0.46591220  0.79448895  1
loop_
_geom_bond_atom_site_label_1
_geom_bond_atom_site_label_2
_geom_bond_distance
_geom_bond_site_symmetry_2
B0 F1 1.341619 1_555
B0 O14 1.492157 1_564
B0 O1 1.495115 1_555
B0 O12 1.499095 1_555
B1 F0 1.341631 1_555
B1 O10 1.492188 1_555
B1 O4 1.495072 1_555
B1 O8 1.499135 1_555
B2 F2 1.341688 1_555
B2 O13 1.492189 1_546
B2 O2 1.495020 1_555
B2 O15 1.499058 1_555
B3 F3 1.341676 1_555
B3 O9 1.492183 1_555
B3 O7 1.495125 1_555
B3 O11 1.499008 1_555
O0 S0 1.402109 1_555
O1 S1 1.513774 1_555
O2 S2 1.513798 1_555
O3 S3 1.402087 1_555
O4 S0 1.513820 1_455
O5 S1 1.402056 1_545
O6 S2 1.402133 1_565
O7 S3 1.513701 1_655
O8 S1 1.490309 1_555
O9 S0 1.512979 1_555
O10 S3 1.513057 1_555
O11 S2 1.490408 1_555
O12 S0 1.490367 1_555
O13 S1 1.513011 1_555
O14 S2 1.513057 1_555
O15 S3 1.490362 1_555
