# generated using pymatgen
data_Rb2VAs2
_symmetry_space_group_name_H-M   'P 1'
_cell_length_a   8.51781971
_cell_length_b   8.51781941
_cell_length_c   8.51781987
_cell_angle_alpha   136.58157067
_cell_angle_beta   127.88092709
_cell_angle_gamma   70.10020908
_symmetry_Int_Tables_number   1
_chemical_formula_structural   Rb2VAs2
_chemical_formula_sum   'Rb4 V2 As4'
_cell_volume   328.84368517
_cell_formula_units_Z   2
loop_
 _symmetry_equiv_pos_site_id
 _symmetry_equiv_pos_as_xyz
  1  'x, y, z'
loop_
 _atom_site_type_symbol
 _atom_site_label
 _atom_site_symmetry_multiplicity
 _atom_site_fract_x
 _atom_site_fract_y
 _atom_site_fract_z
 _atom_site_occupancy
  Rb  Rb0  1  0.69324323  0.34813527  0.34510696  1
  Rb  Rb1  1  0.00302831  0.84813527  0.15489304  1
  Rb  Rb2  1  0.99697169  0.15186473  0.84510696  1
  Rb  Rb3  1  0.30675677  0.65186473  0.65489304  1
  V  V0  1  0.50000000  0.75000000  0.25000000  1
  V  V1  1  0.50000000  0.25000000  0.75000000  1
  As  As0  1  0.23301813  0.40617740  0.82684073  1
  As  As1  1  0.76698187  0.59382260  0.17315927  1
  As  As2  1  0.42066334  0.09382260  0.32684073  1
  As  As3  1  0.57933666  0.90617740  0.67315927  1
loop_
_geom_bond_atom_site_label_1
_geom_bond_atom_site_label_2
_geom_bond_distance
_geom_bond_site_symmetry_2
As0 V0 2.423466 1_556
As0 V1 2.423466 1_555
As0 Rb1 3.498305 1_545
As0 Rb1 3.498305 1_556
As0 Rb2 3.549336 1_455
As0 Rb3 3.660080 1_555
As0 Rb0 3.694969 1_455
As1 V1 2.423466 1_554
As1 V0 2.423466 1_555
As1 Rb2 3.498305 1_565
As1 Rb2 3.498305 1_554
As1 Rb1 3.549336 1_655
As1 Rb0 3.660080 1_555
As1 Rb3 3.694969 1_655
As2 V0 2.423466 1_545
As2 V1 2.423466 1_555
As2 Rb3 3.498302 1_544
As2 Rb3 3.498307 1_555
As2 Rb0 3.549343 1_555
As2 Rb1 3.660085 1_545
As2 Rb2 3.694975 1_454
As3 V1 2.423466 1_565
As3 V0 2.423466 1_555
As3 Rb0 3.498302 1_566
As3 Rb0 3.498307 1_555
As3 Rb3 3.549343 1_555
As3 Rb2 3.660085 1_565
As3 Rb1 3.694975 1_656
