# generated using pymatgen
data_CaSn6(RuRh)2
_symmetry_space_group_name_H-M   'P 1'
_cell_length_a   6.91573147
_cell_length_b   6.91409713
_cell_length_c   6.91573119
_cell_angle_alpha   120.07603509
_cell_angle_beta   120.09554143
_cell_angle_gamma   89.85822851
_symmetry_Int_Tables_number   1
_chemical_formula_structural   CaSn6(RuRh)2
_chemical_formula_sum   'Ca1 Sn6 Ru2 Rh2'
_cell_volume   233.51031105
_cell_formula_units_Z   1
loop_
 _symmetry_equiv_pos_site_id
 _symmetry_equiv_pos_as_xyz
  1  'x, y, z'
loop_
 _atom_site_type_symbol
 _atom_site_label
 _atom_site_symmetry_multiplicity
 _atom_site_fract_x
 _atom_site_fract_y
 _atom_site_fract_z
 _atom_site_occupancy
  Ca  Ca0  1  0.99999744  0.00000000  0.99999744  1
  Sn  Sn0  1  0.88051005  0.53079223  0.00229582  1
  Sn  Sn1  1  0.53575081  0.88483827  0.00459426  1
  Sn  Sn2  1  0.11975599  0.11516173  0.65091154  1
  Sn  Sn3  1  0.99788775  0.50000000  0.49788775  1
  Sn  Sn4  1  0.47150359  0.46920777  0.34971683  1
  Sn  Sn5  1  0.50682613  0.00000000  0.50682613  1
  Ru  Ru0  1  0.58871714  0.25051558  0.99777509  1
  Ru  Ru1  1  0.74725951  0.74948442  0.33820156  1
  Rh  Rh0  1  0.24591031  0.59148339  0.99736465  1
  Rh  Rh1  1  0.40588226  0.40851661  0.65442692  1
loop_
_geom_bond_atom_site_label_1
_geom_bond_atom_site_label_2
_geom_bond_distance
_geom_bond_site_symmetry_2
Ca0 Rh0 3.290330 1_645
Ca0 Rh1 3.290331 1_656
Ca0 Ru1 3.323988 1_545
Ca0 Ru0 3.323988 1_555
Ca0 Sn1 3.329170 1_546
Ca0 Sn2 3.329177 1_655
Ca0 Sn0 3.359422 1_546
Ca0 Sn4 3.359424 1_656
Ca0 Sn5 3.405714 1_555
Ca0 Sn3 3.453514 1_545
Ca0 Sn3 3.453514 1_556
Ca0 Sn5 3.500028 1_656
Ca0 Sn0 3.753840 1_556
Ca0 Sn4 3.753842 1_545
Ca0 Sn2 3.775654 1_656
Ca0 Sn1 3.775661 1_646
Ru0 Sn1 2.582685 1_546
Ru0 Sn5 2.651556 1_555
Ru0 Sn2 2.666674 1_555
Ru0 Sn4 2.674205 1_556
Ru0 Sn3 2.678467 1_556
Ru0 Sn0 2.779173 1_556
Ru0 Ru1 2.817084 1_556
Ru1 Sn2 2.582686 1_665
Ru1 Sn5 2.651556 1_565
Ru1 Sn1 2.666673 1_555
Ru1 Sn0 2.674210 1_555
Ru1 Sn3 2.678467 1_555
Ru1 Sn4 2.779168 1_555
Rh0 Sn0 2.582449 1_456
Rh0 Sn3 2.673471 1_455
Rh0 Sn5 2.705984 1_566
Rh0 Sn4 2.707818 1_556
Rh0 Sn2 2.712353 1_555
Rh0 Sn1 2.819975 1_556
Rh0 Ru1 2.830639 1_556
Rh0 Rh1 2.840142 1_555
Rh1 Sn4 2.582452 1_555
Rh1 Sn3 2.673477 1_455
Rh1 Sn5 2.705981 1_555
Rh1 Sn0 2.707818 1_556
Rh1 Sn1 2.712353 1_556
Rh1 Sn2 2.819975 1_555
Rh1 Ru0 2.830639 1_555
