# generated using pymatgen
data_ScBe9W2
_symmetry_space_group_name_H-M   'P 1'
_cell_length_a   7.55968551
_cell_length_b   7.55968519
_cell_length_c   7.55968492
_cell_angle_alpha   34.46237662
_cell_angle_beta   34.46238089
_cell_angle_gamma   34.46237364
_symmetry_Int_Tables_number   1
_chemical_formula_structural   ScBe9W2
_chemical_formula_sum   'Sc1 Be9 W2'
_cell_volume   123.40535275
_cell_formula_units_Z   1
loop_
 _symmetry_equiv_pos_site_id
 _symmetry_equiv_pos_as_xyz
  1  'x, y, z'
loop_
 _atom_site_type_symbol
 _atom_site_label
 _atom_site_symmetry_multiplicity
 _atom_site_fract_x
 _atom_site_fract_y
 _atom_site_fract_z
 _atom_site_occupancy
  Sc  Sc0  1  0.00000000  0.00000000  0.00000000  1
  Be  Be0  1  0.41322619  0.92100504  0.41322619  1
  Be  Be1  1  0.41322619  0.41322619  0.92100504  1
  Be  Be2  1  0.92100504  0.41322619  0.41322619  1
  Be  Be3  1  0.58677381  0.07899496  0.58677381  1
  Be  Be4  1  0.58677381  0.58677381  0.07899496  1
  Be  Be5  1  0.07899496  0.58677381  0.58677381  1
  Be  Be6  1  0.66488590  0.66488590  0.66488590  1
  Be  Be7  1  0.33511410  0.33511410  0.33511410  1
  Be  Be8  1  0.50000000  0.50000000  0.50000000  1
  W  W0  1  0.85385304  0.85385304  0.85385304  1
  W  W1  1  0.14614696  0.14614696  0.14614696  1
loop_
_geom_bond_atom_site_label_1
_geom_bond_atom_site_label_2
_geom_bond_distance
_geom_bond_site_symmetry_2
Sc0 W1 3.114546 1_555
Sc0 W0 3.114546 1_444
Be0 Be6 2.192645 1_555
Be0 Be8 2.194108 1_555
Be0 Be2 2.204551 1_465
Be0 Be1 2.204551 1_564
Be0 Be7 2.230693 1_565
Be0 Be2 2.274230 1_555
Be0 Be1 2.274230 1_555
Be0 W1 2.537464 1_565
Be0 W0 2.599839 1_554
Be0 W0 2.599839 1_455
Be0 Sc0 2.869434 1_566
Be0 Sc0 2.869434 1_665
Be1 Be6 2.192645 1_555
Be1 Be8 2.194108 1_555
Be1 Be2 2.204551 1_456
Be1 Be7 2.230693 1_556
Be1 Be2 2.274230 1_555
Be1 W1 2.537465 1_556
Be1 W0 2.599838 1_545
Be1 W0 2.599839 1_455
Be1 Sc0 2.869433 1_566
Be1 Sc0 2.869434 1_656
Be2 Be6 2.192645 1_555
Be2 Be8 2.194109 1_555
Be2 Be7 2.230694 1_655
Be2 W1 2.537464 1_655
Be2 W0 2.599838 1_554
Be2 W0 2.599839 1_545
Be2 Sc0 2.869433 1_656
Be2 Sc0 2.869434 1_665
Be3 Be7 2.192645 1_555
Be3 Be8 2.194108 1_555
Be3 Be5 2.204551 1_645
Be3 Be4 2.204551 1_546
Be3 Be6 2.230693 1_545
Be3 Be5 2.274230 1_555
Be3 Be4 2.274230 1_555
Be3 W0 2.537464 1_545
Be3 W1 2.599839 1_556
Be3 W1 2.599839 1_655
Be3 Sc0 2.869434 1_655
Be3 Sc0 2.869434 1_556
Be4 Be7 2.192645 1_555
Be4 Be8 2.194108 1_555
Be4 Be5 2.204551 1_654
Be4 Be6 2.230693 1_554
Be4 Be5 2.274230 1_555
Be4 W0 2.537465 1_554
Be4 W1 2.599838 1_565
Be4 W1 2.599839 1_655
Be4 Sc0 2.869433 1_655
Be4 Sc0 2.869434 1_565
Be5 Be7 2.192645 1_555
Be5 Be8 2.194109 1_555
Be5 Be6 2.230694 1_455
Be5 W0 2.537464 1_455
Be5 W1 2.599838 1_556
Be5 W1 2.599839 1_565
Be5 Sc0 2.869433 1_565
Be5 Sc0 2.869434 1_556
Be6 Sc0 2.586104 1_656
Be6 Sc0 2.586104 1_566
Be6 Sc0 2.586104 1_665
Be6 Be7 2.586939 1_565
Be6 Be7 2.586939 1_655
Be6 Be7 2.586939 1_556
Be7 Sc0 2.586104 1_565
Be7 Sc0 2.586104 1_655
Be7 Sc0 2.586104 1_556
Be8 W0 2.622541 1_545
Be8 W1 2.622541 1_565
Be8 W0 2.622541 1_455
Be8 W1 2.622541 1_655
Be8 W0 2.622541 1_554
Be8 W1 2.622541 1_556
W0 W1 2.729726 1_656
W0 W1 2.729726 1_665
W0 W1 2.729727 1_566
