# generated using pymatgen
data_K16HfGeSb8
_symmetry_space_group_name_H-M   'P 1'
_cell_length_a   11.50566879
_cell_length_b   11.50566780
_cell_length_c   11.50566946
_cell_angle_alpha   59.99999803
_cell_angle_beta   60.00000088
_cell_angle_gamma   59.99999611
_symmetry_Int_Tables_number   1
_chemical_formula_structural   K16HfGeSb8
_chemical_formula_sum   'K16 Hf1 Ge1 Sb8'
_cell_volume   1077.01208902
_cell_formula_units_Z   1
loop_
 _symmetry_equiv_pos_site_id
 _symmetry_equiv_pos_as_xyz
  1  'x, y, z'
loop_
 _atom_site_type_symbol
 _atom_site_label
 _atom_site_symmetry_multiplicity
 _atom_site_fract_x
 _atom_site_fract_y
 _atom_site_fract_z
 _atom_site_occupancy
  K  K0  1  0.62107158  0.13678526  0.62107158  1
  K  K1  1  0.62107158  0.62107158  0.13678526  1
  K  K2  1  0.13678526  0.62107158  0.62107158  1
  K  K3  1  0.62107158  0.62107158  0.62107158  1
  K  K4  1  0.02073384  0.02073384  0.47926616  1
  K  K5  1  0.77879137  0.22120863  0.22120863  1
  K  K6  1  0.22120863  0.77879137  0.77879137  1
  K  K7  1  0.77879137  0.77879137  0.22120863  1
  K  K8  1  0.77879137  0.22120863  0.77879137  1
  K  K9  1  0.22120863  0.77879137  0.22120863  1
  K  K10  1  0.47926616  0.02073384  0.47926616  1
  K  K11  1  0.47926616  0.02073384  0.02073384  1
  K  K12  1  0.02073384  0.47926616  0.47926616  1
  K  K13  1  0.02073384  0.47926616  0.02073384  1
  K  K14  1  0.22120863  0.22120863  0.77879137  1
  K  K15  1  0.47926616  0.47926616  0.02073384  1
  Hf  Hf0  1  0.75000000  0.75000000  0.75000000  1
  Ge  Ge0  1  0.50000000  0.50000000  0.50000000  1
  Sb  Sb0  1  0.40071079  0.79786863  0.40071079  1
  Sb  Sb1  1  0.85080801  0.85080801  0.44757497  1
  Sb  Sb2  1  0.44757497  0.85080801  0.85080801  1
  Sb  Sb3  1  0.85080801  0.85080801  0.85080801  1
  Sb  Sb4  1  0.79786863  0.40071079  0.40071079  1
  Sb  Sb5  1  0.40071079  0.40071079  0.40071079  1
  Sb  Sb6  1  0.40071079  0.40071079  0.79786863  1
  Sb  Sb7  1  0.85080801  0.44757497  0.85080801  1
loop_
_geom_bond_atom_site_label_1
_geom_bond_atom_site_label_2
_geom_bond_distance
_geom_bond_site_symmetry_2
K0 Sb5 3.620460 1_555
K0 Sb6 3.620467 1_555
K0 Sb4 3.620467 1_555
K0 Sb3 3.793743 1_545
K0 Sb1 3.793750 1_545
K0 Sb2 3.793750 1_545
K1 Sb5 3.620460 1_555
K1 Sb4 3.620467 1_555
K1 Sb0 3.620467 1_555
K1 Sb3 3.793743 1_554
K1 Sb2 3.793750 1_554
K1 Sb7 3.793750 1_554
K2 Sb5 3.620460 1_555
K2 Sb6 3.620467 1_555
K2 Sb0 3.620467 1_555
K2 Sb3 3.793743 1_455
K2 Sb1 3.793750 1_455
K2 Sb7 3.793750 1_455
K3 Sb6 3.620458 1_555
K3 Sb4 3.620459 1_555
K3 Sb0 3.620459 1_555
K3 Sb1 3.793741 1_555
K3 Sb2 3.793741 1_555
K3 Sb7 3.793741 1_555
K4 Sb3 3.609162 1_445
K4 Sb1 3.609169 1_445
K4 Sb4 3.696109 1_455
K4 Sb0 3.696109 1_545
K5 Sb1 3.627583 1_545
K5 Sb7 3.627583 1_554
K5 Sb5 3.708244 1_555
K5 Sb4 3.708251 1_555
K6 Sb2 3.627575 1_555
K6 Sb3 3.627586 1_455
K6 Sb6 3.708241 1_555
K6 Sb0 3.708241 1_555
K7 Sb1 3.627575 1_555
K7 Sb3 3.627586 1_554
K7 Sb4 3.708241 1_555
K7 Sb0 3.708241 1_555
K8 Sb7 3.627575 1_555
K8 Sb3 3.627586 1_545
K8 Sb6 3.708241 1_555
K8 Sb4 3.708241 1_555
K9 Sb1 3.627583 1_455
K9 Sb2 3.627583 1_554
K9 Sb5 3.708244 1_555
K9 Sb0 3.708251 1_555
K10 Sb1 3.609159 1_545
K10 Sb2 3.609159 1_545
K10 Sb0 3.696101 1_545
K10 Sb5 3.696111 1_555
K11 Sb3 3.609161 1_544
K11 Sb2 3.609169 1_544
K11 Sb6 3.696109 1_554
K11 Sb0 3.696109 1_545
K12 Sb1 3.609158 1_455
K12 Sb7 3.609159 1_455
K12 Sb4 3.696101 1_455
K12 Sb5 3.696112 1_555
K13 Sb3 3.609161 1_454
K13 Sb7 3.609169 1_454
K13 Sb6 3.696109 1_554
K13 Sb4 3.696110 1_455
K14 Sb2 3.627583 1_545
K14 Sb7 3.627583 1_455
K14 Sb5 3.708244 1_555
K14 Sb6 3.708251 1_555
K15 Sb2 3.609158 1_554
K15 Sb7 3.609159 1_554
K15 Sb6 3.696101 1_554
K15 Sb5 3.696112 1_555
Hf0 Sb3 2.841074 1_555
Hf0 Sb7 2.841083 1_555
Hf0 Sb2 2.841083 1_555
Hf0 Sb1 2.841083 1_555
Hf0 K0 3.633591 1_565
Hf0 K2 3.633592 1_655
Hf0 K3 3.633592 1_555
Hf0 K1 3.633592 1_556
Ge0 Sb5 2.798270 1_555
Ge0 Sb0 2.798279 1_555
Ge0 Sb4 2.798279 1_555
Ge0 Sb6 2.798279 1_555
Ge0 K0 3.412162 1_555
Ge0 K2 3.412162 1_555
Ge0 K3 3.412163 1_555
Ge0 K1 3.412163 1_555
