# generated using pymatgen
data_Y2Co9Mo3P7
_symmetry_space_group_name_H-M   'P 1'
_cell_length_a   3.69439902
_cell_length_b   9.00038430
_cell_length_c   9.00038469
_cell_angle_alpha   120.00000141
_cell_angle_beta   90.00000000
_cell_angle_gamma   90.00000000
_symmetry_Int_Tables_number   1
_chemical_formula_structural   Y2Co9Mo3P7
_chemical_formula_sum   'Y2 Co9 Mo3 P7'
_cell_volume   259.17705528
_cell_formula_units_Z   1
loop_
 _symmetry_equiv_pos_site_id
 _symmetry_equiv_pos_as_xyz
  1  'x, y, z'
loop_
 _atom_site_type_symbol
 _atom_site_label
 _atom_site_symmetry_multiplicity
 _atom_site_fract_x
 _atom_site_fract_y
 _atom_site_fract_z
 _atom_site_occupancy
  Y  Y0  1  0.00000000  0.66666700  0.33333300  1
  Y  Y1  1  0.50000000  0.33333300  0.66666700  1
  Co  Co0  1  0.00000000  0.56781111  0.93871091  1
  Co  Co1  1  0.00000000  0.37089881  0.43218889  1
  Co  Co2  1  0.00000000  0.06128909  0.62910119  1
  Co  Co3  1  0.00000000  0.87787881  0.15970245  1
  Co  Co4  1  0.00000000  0.28182364  0.12212119  1
  Co  Co5  1  0.00000000  0.84029755  0.71817636  1
  Co  Co6  1  0.50000000  0.94770786  0.38566728  1
  Co  Co7  1  0.50000000  0.43795842  0.05229214  1
  Co  Co8  1  0.50000000  0.61433272  0.56204158  1
  Mo  Mo0  1  0.50000000  0.77917224  0.90249075  1
  Mo  Mo1  1  0.50000000  0.12331851  0.22082776  1
  Mo  Mo2  1  0.50000000  0.09750925  0.87668149  1
  P  P0  1  0.00000000  0.00000000  0.00000000  1
  P  P1  1  0.50000000  0.70925764  0.11850309  1
  P  P2  1  0.50000000  0.40924546  0.29074236  1
  P  P3  1  0.50000000  0.88149691  0.59075454  1
  P  P4  1  0.00000000  0.58676748  0.69701518  1
  P  P5  1  0.00000000  0.11024870  0.41323252  1
  P  P6  1  0.00000000  0.30298482  0.88975130  1
loop_
_geom_bond_atom_site_label_1
_geom_bond_atom_site_label_2
_geom_bond_distance
_geom_bond_site_symmetry_2
Co0 P6 2.196614 1_555
Co0 P4 2.265485 1_555
Co0 P1 2.364602 1_556
Co0 P1 2.364602 1_456
Co0 Mo0 2.785217 1_555
Co0 Mo0 2.785217 1_455
Co0 Y1 2.948518 1_555
Co0 Y1 2.948518 1_455
Co0 Y0 3.201005 1_556
Co1 P4 2.196620 1_555
Co1 P5 2.265467 1_555
Co1 P2 2.364606 1_455
Co1 P2 2.364606 1_555
Co1 Mo1 2.785213 1_555
Co1 Mo1 2.785213 1_455
Co1 Y1 2.948518 1_455
Co1 Y1 2.948518 1_555
Co1 Y0 3.201022 1_555
Co2 P5 2.196632 1_555
Co2 P6 2.265475 1_555
Co2 P3 2.364600 1_545
Co2 P3 2.364600 1_445
Co2 Mo2 2.785211 1_455
Co2 Mo2 2.785211 1_555
Co2 Y1 2.948518 1_455
Co2 Y1 2.948518 1_555
Co2 Y0 3.201010 1_545
Co3 P5 2.192855 1_565
Co3 P0 2.203193 1_565
Co3 P1 2.300035 1_455
Co3 P1 2.300035 1_555
Co3 Mo1 2.716507 1_565
Co3 Mo1 2.716507 1_465
Co3 Mo0 2.739342 1_554
Co3 Mo0 2.739342 1_454
Co3 Y0 3.004441 1_555
Co4 P6 2.192860 1_554
Co4 P0 2.203192 1_555
Co4 P2 2.300035 1_555
Co4 P2 2.300035 1_455
Co4 Mo2 2.716507 1_554
Co4 Mo2 2.716507 1_454
Co4 Mo1 2.739342 1_555
Co4 Mo1 2.739342 1_455
Co4 Y0 3.004449 1_555
Co5 P4 2.192851 1_555
Co5 P0 2.203192 1_566
Co5 P3 2.300035 1_555
Co5 P3 2.300035 1_455
Co5 Mo0 2.716507 1_555
Co5 Mo0 2.716507 1_455
Co5 Mo2 2.739342 1_565
Co5 Mo2 2.739342 1_465
Co5 Y0 3.004449 1_555
Co6 P3 2.205070 1_555
Co6 P1 2.286343 1_555
Co6 P5 2.291487 1_665
Co6 P5 2.291487 1_565
Co6 Mo1 2.654102 1_565
Co6 Y0 2.973349 1_655
Co6 Y0 2.973349 1_555
Co6 Y1 3.108809 1_565
Co7 P1 2.205079 1_555
Co7 P2 2.286338 1_555
Co7 P6 2.291483 1_654
Co7 P6 2.291483 1_554
Co7 Mo2 2.654095 1_554
Co7 Y0 2.973354 1_555
Co7 Y0 2.973354 1_655
Co7 Y1 3.108809 1_554
Co8 P2 2.205077 1_555
Co8 P3 2.286347 1_555
Co8 P4 2.291477 1_655
Co8 P4 2.291477 1_555
Co8 Mo0 2.654095 1_555
Co8 Y0 2.973363 1_655
Co8 Y0 2.973363 1_555
Co8 Y1 3.108809 1_555
Mo0 P1 2.323630 1_556
Mo0 P0 2.527520 1_666
Mo0 P0 2.527520 1_566
Mo0 P4 2.574597 1_655
Mo0 P4 2.574597 1_555
Mo1 P2 2.323630 1_555
Mo1 P0 2.527520 1_655
Mo1 P0 2.527520 1_555
Mo1 P5 2.574594 1_555
Mo1 P5 2.574594 1_655
Mo2 P3 2.323630 1_545
Mo2 P0 2.527520 1_556
Mo2 P0 2.527520 1_656
Mo2 P6 2.574600 1_555
Mo2 P6 2.574600 1_655
P1 Y0 2.835296 1_655
P1 Y0 2.835296 1_555
P2 Y0 2.835303 1_555
P2 Y0 2.835303 1_655
P3 Y0 2.835300 1_655
P3 Y0 2.835300 1_555
P4 Y1 2.840194 1_455
P4 Y1 2.840194 1_555
P5 Y1 2.840189 1_455
P5 Y1 2.840189 1_555
P6 Y1 2.840181 1_555
P6 Y1 2.840181 1_455
