# generated using pymatgen
data_BaNa2HgSb2
_symmetry_space_group_name_H-M   'P 1'
_cell_length_a   4.89776361
_cell_length_b   8.51906256
_cell_length_c   9.07507229
_cell_angle_alpha   90.00000000
_cell_angle_beta   90.00000000
_cell_angle_gamma   90.00000000
_symmetry_Int_Tables_number   1
_chemical_formula_structural   BaNa2HgSb2
_chemical_formula_sum   'Ba2 Na4 Hg2 Sb4'
_cell_volume   378.65153401
_cell_formula_units_Z   2
loop_
 _symmetry_equiv_pos_site_id
 _symmetry_equiv_pos_as_xyz
  1  'x, y, z'
loop_
 _atom_site_type_symbol
 _atom_site_label
 _atom_site_symmetry_multiplicity
 _atom_site_fract_x
 _atom_site_fract_y
 _atom_site_fract_z
 _atom_site_occupancy
  Ba  Ba0  1  0.00000000  0.98928561  0.06005889  1
  Ba  Ba1  1  0.00000000  0.48928561  0.93994111  1
  Na  Na0  1  0.50000000  0.03737946  0.43184324  1
  Na  Na1  1  0.00000000  0.36275664  0.33309603  1
  Na  Na2  1  0.50000000  0.53737946  0.56815676  1
  Na  Na3  1  0.00000000  0.86275664  0.66690397  1
  Hg  Hg0  1  0.50000000  0.15426384  0.81219334  1
  Hg  Hg1  1  0.50000000  0.65426384  0.18780666  1
  Sb  Sb0  1  0.00000000  0.22608076  0.64888644  1
  Sb  Sb1  1  0.50000000  0.27583470  0.13614993  1
  Sb  Sb2  1  0.00000000  0.72608076  0.35111356  1
  Sb  Sb3  1  0.50000000  0.77583470  0.86385007  1
loop_
_geom_bond_atom_site_label_1
_geom_bond_atom_site_label_2
_geom_bond_distance
_geom_bond_site_symmetry_2
Ba0 Sb2 3.464738 1_555
Ba0 Sb1 3.526042 1_565
Ba0 Sb1 3.526042 1_465
Ba0 Sb3 3.531880 1_454
Ba0 Sb3 3.531880 1_554
Ba0 Hg0 3.610004 1_464
Ba0 Hg0 3.610004 1_564
Ba0 Hg1 3.935323 1_555
Ba0 Hg1 3.935323 1_455
Ba1 Sb0 3.464738 1_555
Ba1 Sb3 3.526042 1_455
Ba1 Sb3 3.526042 1_555
Ba1 Sb1 3.531880 1_456
Ba1 Sb1 3.531880 1_556
Ba1 Hg1 3.610004 1_456
Ba1 Hg1 3.610004 1_556
Ba1 Hg0 3.935323 1_555
Ba1 Hg0 3.935323 1_455
Na0 Sb1 3.365633 1_555
Na0 Sb0 3.530002 1_555
Na0 Sb0 3.530002 1_655
Na0 Sb2 3.683304 1_645
Na0 Sb2 3.683304 1_545
Na1 Sb0 3.093322 1_555
Na1 Sb2 3.099497 1_555
Na1 Sb1 3.120864 1_455
Na1 Sb1 3.120864 1_555
Na2 Sb3 3.365633 1_555
Na2 Sb2 3.530002 1_555
Na2 Sb2 3.530002 1_655
Na2 Sb0 3.683304 1_555
Na2 Sb0 3.683304 1_655
Na3 Sb2 3.093322 1_555
Na3 Sb0 3.099497 1_565
Na3 Sb3 3.120864 1_455
Na3 Sb3 3.120864 1_555
Hg0 Sb0 2.927068 1_555
Hg0 Sb0 2.927068 1_655
Hg0 Sb1 3.117017 1_556
Hg0 Sb3 3.257767 1_545
Hg0 Na0 3.592461 1_555
Hg0 Na3 3.728621 1_645
Hg0 Na3 3.728621 1_545
Hg1 Sb2 2.927068 1_655
Hg1 Sb2 2.927068 1_555
Hg1 Sb3 3.117017 1_554
Hg1 Sb1 3.257767 1_555
Hg1 Na2 3.592461 1_555
Hg1 Na1 3.728621 1_655
Hg1 Na1 3.728621 1_555
