# generated using pymatgen
data_Rb8Zr6CrI20
_symmetry_space_group_name_H-M   'P 1'
_cell_length_a   12.76536047
_cell_length_b   12.76536108
_cell_length_c   12.76536076
_cell_angle_alpha   60.00000326
_cell_angle_beta   60.00000170
_cell_angle_gamma   60.00000269
_symmetry_Int_Tables_number   1
_chemical_formula_structural   Rb8Zr6CrI20
_chemical_formula_sum   'Rb8 Zr6 Cr1 I20'
_cell_volume   1470.90392508
_cell_formula_units_Z   1
loop_
 _symmetry_equiv_pos_site_id
 _symmetry_equiv_pos_as_xyz
  1  'x, y, z'
loop_
 _atom_site_type_symbol
 _atom_site_label
 _atom_site_symmetry_multiplicity
 _atom_site_fract_x
 _atom_site_fract_y
 _atom_site_fract_z
 _atom_site_occupancy
  Rb  Rb0  1  0.36114049  0.36114049  0.36114049  1
  Rb  Rb1  1  0.63885951  0.63885951  0.63885951  1
  Rb  Rb2  1  0.36114049  0.36114049  0.91657854  1
  Rb  Rb3  1  0.36114049  0.91657854  0.36114049  1
  Rb  Rb4  1  0.63885951  0.63885951  0.08342146  1
  Rb  Rb5  1  0.63885951  0.08342146  0.63885951  1
  Rb  Rb6  1  0.91657854  0.36114049  0.36114049  1
  Rb  Rb7  1  0.08342146  0.63885951  0.63885951  1
  Zr  Zr0  1  0.86154289  0.13845711  0.13845711  1
  Zr  Zr1  1  0.13845711  0.86154289  0.86154289  1
  Zr  Zr2  1  0.13845711  0.86154289  0.13845711  1
  Zr  Zr3  1  0.86154289  0.13845711  0.86154289  1
  Zr  Zr4  1  0.13845711  0.13845711  0.86154289  1
  Zr  Zr5  1  0.86154289  0.86154289  0.13845711  1
  Cr  Cr0  1  0.00000000  0.00000000  0.00000000  1
  I  I0  1  0.32569788  1.00000000  1.00000000  1
  I  I1  1  0.67430212  0.00000000  0.00000000  1
  I  I2  1  1.00000000  0.32569788  0.67430212  1
  I  I3  1  0.00000000  0.67430212  0.32569788  1
  I  I4  1  1.00000000  0.32569788  1.00000000  1
  I  I5  1  0.67430212  1.00000000  0.32569788  1
  I  I6  1  0.00000000  0.67430212  0.00000000  1
  I  I7  1  0.32569788  0.00000000  0.67430212  1
  I  I8  1  1.00000000  1.00000000  0.32569788  1
  I  I9  1  0.00000000  0.00000000  0.67430212  1
  I  I10  1  0.67430212  0.32569788  1.00000000  1
  I  I11  1  0.32569788  0.67430212  0.00000000  1
  I  I12  1  0.68320204  0.31679796  0.31679796  1
  I  I13  1  0.31679796  0.68320204  0.68320204  1
  I  I14  1  0.31679796  0.68320204  0.31679796  1
  I  I15  1  0.68320204  0.31679796  0.68320204  1
  I  I16  1  0.31679796  0.31679796  0.68320204  1
  I  I17  1  0.68320204  0.68320204  0.31679796  1
  I  I18  1  0.25000000  0.25000000  0.25000000  1
  I  I19  1  0.75000000  0.75000000  0.75000000  1
loop_
_geom_bond_atom_site_label_1
_geom_bond_atom_site_label_2
_geom_bond_distance
_geom_bond_site_symmetry_2
Cr0 Zr4 2.499559 1_554
Cr0 Zr5 2.499559 1_445
Cr0 Zr2 2.499559 1_545
Cr0 Zr0 2.499559 1_455
Cr0 Zr3 2.499559 1_454
Cr0 Zr1 2.499559 1_544
I0 Zr2 2.972698 1_556
I0 Zr4 2.972698 1_565
I1 Zr3 2.972698 1_554
I1 Zr5 2.972698 1_545
I2 Zr3 2.972698 1_555
I2 Zr4 2.972698 1_655
I3 Zr2 2.972698 1_555
I3 Zr5 2.972698 1_455
I4 Zr0 2.972698 1_556
I4 Zr4 2.972698 1_655
I5 Zr0 2.972698 1_565
I5 Zr5 2.972698 1_555
I6 Zr1 2.972698 1_554
I6 Zr5 2.972698 1_455
I7 Zr1 2.972698 1_545
I7 Zr4 2.972698 1_555
I8 Zr0 2.972698 1_565
I8 Zr2 2.972698 1_655
I9 Zr1 2.972698 1_545
I9 Zr3 2.972698 1_455
I10 Zr3 2.972698 1_555
I10 Zr0 2.972698 1_556
I11 Zr2 2.972698 1_555
I11 Zr1 2.972698 1_554
I12 Zr0 3.219578 1_555
I12 Rb6 3.634439 1_555
I12 Rb0 3.634439 1_555
I12 Rb5 3.634439 1_555
I12 Rb4 3.634439 1_555
I13 Zr1 3.219578 1_555
I13 Rb7 3.634439 1_555
I13 Rb1 3.634439 1_555
I13 Rb3 3.634439 1_555
I13 Rb2 3.634439 1_555
I14 Zr2 3.219578 1_555
I14 Rb3 3.634439 1_555
I14 Rb4 3.634439 1_555
I14 Rb7 3.634439 1_555
I14 Rb0 3.634439 1_555
I15 Zr3 3.219578 1_555
I15 Rb5 3.634439 1_555
I15 Rb2 3.634439 1_555
I15 Rb6 3.634439 1_555
I15 Rb1 3.634439 1_555
I16 Zr4 3.219578 1_555
I16 Rb2 3.634439 1_555
I16 Rb0 3.634439 1_555
I16 Rb5 3.634439 1_555
I16 Rb7 3.634439 1_555
I17 Zr5 3.219578 1_555
I17 Rb4 3.634439 1_555
I17 Rb1 3.634439 1_555
I17 Rb3 3.634439 1_555
I17 Rb6 3.634439 1_555
I18 Rb0 3.475210 1_555
I18 Rb6 3.475210 1_455
I18 Rb2 3.475210 1_554
I18 Rb3 3.475210 1_545
I19 Rb1 3.475210 1_555
I19 Rb7 3.475210 1_655
I19 Rb4 3.475210 1_556
I19 Rb5 3.475210 1_565
