# generated using pymatgen
data_Be2Cr
_symmetry_space_group_name_H-M   'P 1'
_cell_length_a   4.31335148
_cell_length_b   4.31335078
_cell_length_c   7.09951696
_cell_angle_alpha   90.00000444
_cell_angle_beta   89.99997648
_cell_angle_gamma   119.99944678
_symmetry_Int_Tables_number   1
_chemical_formula_structural   Be2Cr
_chemical_formula_sum   'Be8 Cr4'
_cell_volume   114.39090100
_cell_formula_units_Z   4
loop_
 _symmetry_equiv_pos_site_id
 _symmetry_equiv_pos_as_xyz
  1  'x, y, z'
loop_
 _atom_site_type_symbol
 _atom_site_label
 _atom_site_symmetry_multiplicity
 _atom_site_fract_x
 _atom_site_fract_y
 _atom_site_fract_z
 _atom_site_occupancy
  Be  Be0  1  0.00000000  -0.00000000  -0.00000046  1
  Be  Be1  1  0.00000000  -0.00000000  0.50000411  1
  Be  Be2  1  0.83164331  0.66328162  0.25004963  1
  Be  Be3  1  0.16835952  0.83164148  0.74993769  1
  Be  Be4  1  0.66328596  0.83164448  0.74993869  1
  Be  Be5  1  0.33671738  0.16835569  0.25004863  1
  Be  Be6  1  0.83164031  0.16836069  0.25004963  1
  Be  Be7  1  0.16835552  0.33671404  0.74993769  1
  Cr  Cr0  1  0.33333500  0.66666600  0.06442068  1
  Cr  Cr1  1  0.66666600  0.33333400  0.56449818  1
  Cr  Cr2  1  0.66666600  0.33333400  0.93554738  1
  Cr  Cr3  1  0.33333400  0.66666600  0.43556716  1
loop_
_geom_bond_atom_site_label_1
_geom_bond_atom_site_label_2
_geom_bond_distance
_geom_bond_site_symmetry_2
Be0 Be5 2.175663 1_555
Be0 Be6 2.175668 1_455
Be0 Be2 2.175670 1_445
Be0 Be4 2.175724 1_444
Be0 Be7 2.175729 1_554
Be0 Be3 2.175732 1_544
Be0 Cr0 2.531966 1_545
Be0 Cr0 2.531972 1_445
Be0 Cr0 2.531975 1_555
Be0 Cr2 2.532002 1_454
Be0 Cr2 2.532015 1_444
Be0 Cr2 2.532015 1_554
Be1 Be7 2.174986 1_555
Be1 Be3 2.174989 1_545
Be1 Be4 2.174992 1_445
Be1 Be6 2.175115 1_455
Be1 Be2 2.175117 1_445
Be1 Be5 2.175120 1_555
Be1 Cr3 2.531983 1_545
Be1 Cr3 2.531996 1_555
Be1 Cr3 2.531996 1_445
Be1 Cr1 2.532056 1_455
Be1 Cr1 2.532069 1_445
Be1 Cr1 2.532069 1_555
Be2 Be6 2.134761 1_555
Be2 Be5 2.134807 1_555
Be2 Be5 2.178580 1_665
Be2 Be6 2.178590 1_565
Be2 Cr3 2.527073 1_655
Be2 Cr3 2.527083 1_555
Be2 Cr0 2.527488 1_655
Be2 Cr0 2.527492 1_555
Be2 Cr1 2.550069 1_555
Be2 Cr2 2.550403 1_554
Be3 Be4 2.134785 1_555
Be3 Be7 2.134787 1_555
Be3 Be7 2.178564 1_565
Be3 Be4 2.178566 1_455
Be3 Cr1 2.526802 1_565
Be3 Cr1 2.526807 1_455
Be3 Cr2 2.527433 1_565
Be3 Cr2 2.527436 1_455
Be3 Cr3 2.549583 1_555
Be3 Cr0 2.550285 1_556
Be4 Be7 2.134827 1_555
Be4 Be7 2.178561 1_665
Be4 Cr1 2.526791 1_565
Be4 Cr1 2.526794 1_555
Be4 Cr2 2.527413 1_565
Be4 Cr2 2.527417 1_555
Be4 Cr3 2.549599 1_555
Be4 Cr0 2.550283 1_556
Be5 Be6 2.134766 1_555
Be5 Be6 2.178586 1_455
Be5 Cr3 2.527074 1_545
Be5 Cr3 2.527088 1_555
Be5 Cr0 2.527481 1_545
Be5 Cr0 2.527492 1_555
Be5 Cr1 2.550078 1_555
Be5 Cr2 2.550398 1_554
Be6 Cr3 2.527092 1_655
Be6 Cr3 2.527095 1_545
Be6 Cr0 2.527505 1_655
Be6 Cr0 2.527506 1_545
Be6 Cr1 2.550064 1_555
Be6 Cr2 2.550399 1_554
Be7 Cr1 2.526788 1_455
Be7 Cr1 2.526790 1_555
Be7 Cr2 2.527417 1_455
Be7 Cr2 2.527421 1_555
Be7 Cr3 2.549592 1_555
Be7 Cr0 2.550291 1_556
Cr0 Cr3 2.634961 1_555
Cr0 Cr2 2.653050 1_554
Cr0 Cr2 2.653087 1_564
Cr0 Cr2 2.653091 1_454
Cr1 Cr2 2.634270 1_555
Cr1 Cr3 2.653195 1_555
Cr1 Cr3 2.653228 1_655
Cr1 Cr3 2.653229 1_545
