# generated using pymatgen
data_Zr10InCu2Sb5
_symmetry_space_group_name_H-M   'P 1'
_cell_length_a   8.63248290
_cell_length_b   8.63248211
_cell_length_c   5.83943313
_cell_angle_alpha   90.00000000
_cell_angle_beta   90.00000000
_cell_angle_gamma   120.16482650
_symmetry_Int_Tables_number   1
_chemical_formula_structural   Zr10InCu2Sb5
_chemical_formula_sum   'Zr10 In1 Cu2 Sb5'
_cell_volume   376.22618250
_cell_formula_units_Z   1
loop_
 _symmetry_equiv_pos_site_id
 _symmetry_equiv_pos_as_xyz
  1  'x, y, z'
loop_
 _atom_site_type_symbol
 _atom_site_label
 _atom_site_symmetry_multiplicity
 _atom_site_fract_x
 _atom_site_fract_y
 _atom_site_fract_z
 _atom_site_occupancy
  Zr  Zr0  1  0.66824066  0.33225095  0.99894346  1
  Zr  Zr1  1  0.33225095  0.66824066  0.99894346  1
  Zr  Zr2  1  0.33225095  0.66824066  0.50105654  1
  Zr  Zr3  1  0.66824066  0.33225095  0.50105654  1
  Zr  Zr4  1  0.73553758  0.73553758  0.75000000  1
  Zr  Zr5  1  0.26657636  0.99921979  0.75000000  1
  Zr  Zr6  1  0.99921979  0.26657636  0.75000000  1
  Zr  Zr7  1  0.25655890  0.25655890  0.25000000  1
  Zr  Zr8  1  0.74035880  0.99873534  0.25000000  1
  Zr  Zr9  1  0.99873534  0.74035880  0.25000000  1
  In  In0  1  0.38378452  0.38378452  0.75000000  1
  Cu  Cu0  1  0.00332562  0.00332562  0.51347978  1
  Cu  Cu1  1  0.00332562  0.00332562  0.98652022  1
  Sb  Sb0  1  0.61601971  0.99947603  0.75000000  1
  Sb  Sb1  1  0.99947603  0.61601971  0.75000000  1
  Sb  Sb2  1  0.60801759  0.60801759  0.25000000  1
  Sb  Sb3  1  0.38723885  0.00084508  0.25000000  1
  Sb  Sb4  1  0.00084508  0.38723885  0.25000000  1
loop_
_geom_bond_atom_site_label_1
_geom_bond_atom_site_label_2
_geom_bond_distance
_geom_bond_site_symmetry_2
Zr0 Zr3 2.907377 1_555
Zr0 Zr3 2.932056 1_556
Zr1 Zr2 2.907377 1_555
Zr1 Zr2 2.932056 1_556
In0 Zr5 2.944287 1_545
In0 Zr6 2.944287 1_455
In0 Zr4 3.028934 1_555
In0 Zr1 3.072251 1_555
In0 Zr2 3.072251 1_555
In0 Zr0 3.072251 1_555
In0 Zr3 3.072251 1_555
In0 Zr7 3.118484 1_555
In0 Zr7 3.118484 1_556
Cu0 Zr7 2.668736 1_555
Cu0 Zr6 2.674706 1_455
Cu0 Zr5 2.674706 1_545
Cu0 Zr4 2.687898 1_445
Cu0 Zr9 2.726084 1_445
Cu0 Zr8 2.726084 1_445
Cu1 Zr7 2.668736 1_556
Cu1 Zr6 2.674706 1_455
Cu1 Zr5 2.674706 1_545
Cu1 Zr4 2.687898 1_445
Cu1 Zr9 2.726084 1_446
Cu1 Zr8 2.726084 1_446
Sb0 Zr6 2.931519 1_565
Sb0 Zr4 2.935684 1_555
Sb0 Zr5 3.015453 1_555
Sb0 Zr1 3.041491 1_555
Sb0 Zr2 3.041491 1_555
Sb0 Zr0 3.044215 1_565
Sb0 Zr3 3.044215 1_565
Sb0 Zr8 3.111876 1_555
Sb0 Zr8 3.111876 1_556
Sb1 Zr5 2.931518 1_655
Sb1 Zr4 2.935684 1_555
Sb1 Zr6 3.015453 1_555
Sb1 Zr0 3.041491 1_555
Sb1 Zr3 3.041491 1_555
Sb1 Zr1 3.044215 1_655
Sb1 Zr2 3.044215 1_655
Sb1 Zr9 3.111876 1_556
Sb1 Zr9 3.111876 1_555
Sb2 Zr8 2.967981 1_555
Sb2 Zr9 2.967981 1_555
Sb2 Zr7 3.026399 1_555
Sb2 Zr3 3.054550 1_555
Sb2 Zr0 3.054550 1_554
Sb2 Zr2 3.054551 1_555
Sb2 Zr1 3.054551 1_554
Sb2 Zr4 3.119376 1_555
Sb2 Zr4 3.119376 1_554
Sb3 Zr7 2.940749 1_555
Sb3 Zr9 2.953828 1_445
Sb3 Zr3 3.040347 1_555
Sb3 Zr0 3.040347 1_554
Sb3 Zr2 3.041162 1_545
Sb3 Zr1 3.041162 1_544
Sb3 Zr8 3.057494 1_545
Sb3 Zr5 3.097615 1_544
Sb3 Zr5 3.097615 1_545
Sb4 Zr7 2.940749 1_555
Sb4 Zr8 2.953828 1_445
Sb4 Zr2 3.040347 1_555
Sb4 Zr1 3.040347 1_554
Sb4 Zr3 3.041162 1_455
Sb4 Zr0 3.041162 1_454
Sb4 Zr9 3.057494 1_455
Sb4 Zr6 3.097615 1_455
Sb4 Zr6 3.097615 1_454
