# generated using pymatgen
data_Bi2SbRuO8
_symmetry_space_group_name_H-M   'P 1'
_cell_length_a   5.15906971
_cell_length_b   5.21908748
_cell_length_c   13.51757217
_cell_angle_alpha   67.94110620
_cell_angle_beta   90.00000000
_cell_angle_gamma   90.00000000
_symmetry_Int_Tables_number   1
_chemical_formula_structural   Bi2SbRuO8
_chemical_formula_sum   'Bi4 Sb2 Ru2 O16'
_cell_volume   337.32606713
_cell_formula_units_Z   2
loop_
 _symmetry_equiv_pos_site_id
 _symmetry_equiv_pos_as_xyz
  1  'x, y, z'
loop_
 _atom_site_type_symbol
 _atom_site_label
 _atom_site_symmetry_multiplicity
 _atom_site_fract_x
 _atom_site_fract_y
 _atom_site_fract_z
 _atom_site_occupancy
  Bi  Bi0  1  0.75335477  0.66424367  0.33458259  1
  Bi  Bi1  1  0.74664523  0.66424367  0.83458259  1
  Bi  Bi2  1  0.24655281  0.33282924  0.66750983  1
  Bi  Bi3  1  0.25344719  0.33282924  0.16750983  1
  Sb  Sb0  1  0.24981930  0.06998364  0.93236748  1
  Sb  Sb1  1  0.25018070  0.06998364  0.43236748  1
  Ru  Ru0  1  0.74912939  0.92753759  0.07015368  1
  Ru  Ru1  1  0.75087061  0.92753759  0.57015368  1
  O  O0  1  0.43820804  0.74906137  0.04349901  1
  O  O1  1  0.06179196  0.74906137  0.54349901  1
  O  O2  1  0.56322640  0.25481534  0.95838116  1
  O  O3  1  0.93677360  0.25481534  0.45838116  1
  O  O4  1  0.60935793  0.02651433  0.18007703  1
  O  O5  1  0.89064207  0.02651433  0.68007703  1
  O  O6  1  0.39418042  0.97511057  0.81586775  1
  O  O7  1  0.10581958  0.97511057  0.31586775  1
  O  O8  1  0.06145581  0.15627896  0.04812222  1
  O  O9  1  0.43854419  0.15627896  0.54812222  1
  O  O10  1  0.93600834  0.83669493  0.95364503  1
  O  O11  1  0.56399166  0.83669493  0.45364503  1
  O  O12  1  0.88770719  0.60618138  0.17640103  1
  O  O13  1  0.61229281  0.60618138  0.67640103  1
  O  O14  1  0.10749038  0.40074599  0.81939419  1
  O  O15  1  0.39250962  0.40074599  0.31939419  1
loop_
_geom_bond_atom_site_label_1
_geom_bond_atom_site_label_2
_geom_bond_distance
_geom_bond_site_symmetry_2
Bi0 O11 2.332979 1_555
Bi0 O4 2.350034 1_565
Bi0 O3 2.361365 1_555
Bi0 O15 2.368776 1_555
Bi0 O12 2.372969 1_555
Bi0 O7 2.386329 1_655
Bi1 O10 2.332979 1_555
Bi1 O5 2.350034 1_565
Bi1 O2 2.361365 1_555
Bi1 O14 2.368776 1_655
Bi1 O13 2.372969 1_555
Bi1 O6 2.386329 1_555
Bi2 O6 2.296771 1_545
Bi2 O14 2.324271 1_555
Bi2 O9 2.356164 1_555
Bi2 O1 2.387992 1_555
Bi2 O13 2.395594 1_555
Bi2 O5 2.398369 1_455
Bi3 O7 2.296771 1_545
Bi3 O15 2.324271 1_555
Bi3 O8 2.356164 1_555
Bi3 O0 2.387992 1_555
Bi3 O12 2.395594 1_455
Bi3 O4 2.398369 1_555
O0 Ru0 1.955146 1_555
O0 Sb0 2.028980 1_564
O1 Ru1 1.955146 1_455
O1 Sb1 2.028980 1_565
O2 Sb0 1.980739 1_555
O2 Ru0 2.044939 1_546
O3 Sb1 1.980739 1_655
O3 Ru1 2.044939 1_545
O4 Ru0 1.889772 1_545
O5 Ru1 1.889772 1_545
O6 Sb0 1.966093 1_565
O7 Sb1 1.966093 1_565
O8 Ru0 1.960404 1_445
O8 Sb0 2.030983 1_554
O9 Ru1 1.960404 1_545
O9 Sb1 2.030983 1_555
O10 Sb0 1.980707 1_665
O10 Ru0 2.048298 1_556
O11 Sb1 1.980707 1_565
O11 Ru1 2.048298 1_555
O12 Ru0 1.891424 1_555
O13 Ru1 1.891424 1_555
O14 Sb0 1.967533 1_555
O15 Sb1 1.967533 1_555
