# generated using pymatgen
data_ZnH11C5NO6
_symmetry_space_group_name_H-M   'P 1'
_cell_length_a   14.04925713
_cell_length_b   8.18756840
_cell_length_c   8.60076407
_cell_angle_alpha   90.00000000
_cell_angle_beta   120.92346181
_cell_angle_gamma   90.00000000
_symmetry_Int_Tables_number   1
_chemical_formula_structural   ZnH11C5NO6
_chemical_formula_sum   'Zn4 H44 C20 N4 O24'
_cell_volume   848.70936374
_cell_formula_units_Z   4
loop_
 _symmetry_equiv_pos_site_id
 _symmetry_equiv_pos_as_xyz
  1  'x, y, z'
loop_
 _atom_site_type_symbol
 _atom_site_label
 _atom_site_symmetry_multiplicity
 _atom_site_fract_x
 _atom_site_fract_y
 _atom_site_fract_z
 _atom_site_occupancy
  Zn  Zn0  1  0.99994354  0.25225771  0.99984474  1
  Zn  Zn1  1  0.99994354  0.74774226  0.49984475  1
  Zn  Zn2  1  0.49994355  0.75225774  0.99984474  1
  Zn  Zn3  1  0.49994355  0.24774229  0.49984475  1
  H  H0  1  0.68689437  0.14682908  0.06646292  1
  H  H1  1  0.68689437  0.85317091  0.56646293  1
  H  H2  1  0.18689440  0.64682808  0.06646292  1
  H  H3  1  0.18689440  0.35317192  0.56646293  1
  H  H4  1  0.69255141  0.34520637  0.98359659  1
  H  H5  1  0.69255141  0.65479363  0.48359656  1
  H  H6  1  0.19255142  0.84520637  0.98359659  1
  H  H7  1  0.19255142  0.15479363  0.48359656  1
  H  H8  1  0.62612592  0.31678685  0.11084515  1
  H  H9  1  0.62612592  0.68321315  0.61084516  1
  H  H10  1  0.12612692  0.81678584  0.11084515  1
  H  H11  1  0.12612692  0.18321415  0.61084516  1
  H  H12  1  0.24925011  0.35097036  0.24948072  1
  H  H13  1  0.24925011  0.64902961  0.74948075  1
  H  H14  1  0.74925011  0.85097039  0.24948072  1
  H  H15  1  0.74925011  0.14902964  0.74948075  1
  H  H16  1  0.00907160  0.57076286  0.82733629  1
  H  H17  1  0.00907160  0.42923717  0.32733626  1
  H  H18  1  0.50907058  0.07076383  0.82733629  1
  H  H19  1  0.50907058  0.92923619  0.32733626  1
  H  H20  1  0.03721339  0.95353511  0.23672442  1
  H  H21  1  0.03721339  0.04646490  0.73672440  1
  H  H22  1  0.53721340  0.45353508  0.23672342  1
  H  H23  1  0.53721340  0.54646489  0.73672345  1
  H  H24  1  0.86317743  0.25801374  0.24630621  1
  H  H25  1  0.86317743  0.74198626  0.74630619  1
  H  H26  1  0.36317740  0.75801374  0.24630621  1
  H  H27  1  0.36317740  0.24198627  0.74630619  1
  H  H28  1  0.81446618  0.43416288  0.28453340  1
  H  H29  1  0.81446618  0.56583715  0.78453337  1
  H  H30  1  0.31446615  0.93416285  0.28453340  1
  H  H31  1  0.31446615  0.06583713  0.78453337  1
  H  H32  1  0.88421336  0.26417554  0.54369173  1
  H  H33  1  0.88421336  0.73582446  0.04369173  1
  H  H34  1  0.38421339  0.76417554  0.54369072  1
  H  H35  1  0.38421339  0.23582446  0.04369073  1
  H  H36  1  0.79342643  0.10539317  0.40577087  1
  H  H37  1  0.79342643  0.89460680  0.90577087  1
  H  H38  1  0.29342545  0.60539320  0.40577087  1
  H  H39  1  0.29342545  0.39460683  0.90577087  1
  H  H40  1  0.73652206  0.28910201  0.43443105  1
  H  H41  1  0.73652206  0.71089799  0.93443105  1
  H  H42  1  0.23652105  0.78910201  0.43443105  1
  H  H43  1  0.23652105  0.21089799  0.93443105  1
  C  C0  1  0.69390646  0.27745678  0.09338499  1
  C  C1  1  0.69390646  0.72254319  0.59338497  1
  C  C2  1  0.19390549  0.77745776  0.09338499  1
  C  C3  1  0.19390549  0.22254221  0.59338497  1
  C  C4  1  0.24762433  0.21646825  0.24866981  1
  C  C5  1  0.24762433  0.78353174  0.74866979  1
  C  C6  1  0.74762435  0.71646826  0.24866981  1
  C  C7  1  0.74762435  0.28353177  0.74866979  1
  C  C8  1  0.03326198  0.47848177  0.76085954  1
  C  C9  1  0.03326198  0.52151823  0.26085957  1
  C  C10  1  0.53326201  0.97848278  0.76085859  1
  C  C11  1  0.53326201  0.02151722  0.26085856  1
  C  C12  1  0.97779276  0.02504369  0.25574199  1
  C  C13  1  0.97779276  0.97495629  0.75574199  1
  C  C14  1  0.47779273  0.52504472  0.25574199  1
  C  C15  1  0.47779273  0.47495530  0.75574199  1
  C  C16  1  0.80422983  0.23693515  0.42405099  1
  C  C17  1  0.80422983  0.76306483  0.92405099  1
  C  C18  1  0.30423087  0.73693416  0.42405200  1
  C  C19  1  0.30423087  0.26306584  0.92405200  1
  N  N0  1  0.80067352  0.30849885  0.26296627  1
  N  N1  1  0.80067352  0.69150118  0.76296630  1
  N  N2  1  0.30067352  0.80849882  0.26296627  1
  N  N3  1  0.30067352  0.19150116  0.76296630  1
  O  O0  1  0.15608983  0.14366658  0.16123005  1
  O  O1  1  0.15608983  0.85633344  0.66123007  1
  O  O2  1  0.65608985  0.64366656  0.16123005  1
  O  O3  1  0.65608985  0.35633344  0.66123007  1
  O  O4  1  0.04668773  0.52401961  0.63321826  1
  O  O5  1  0.04668773  0.47598039  0.13321829  1
  O  O6  1  0.54668675  0.02401961  0.63321927  1
  O  O7  1  0.54668675  0.97598039  0.13321929  1
  O  O8  1  0.04649957  0.33359804  0.81861990  1
  O  O9  1  0.04649957  0.66640199  0.31861987  1
  O  O10  1  0.54649954  0.83359801  0.81861990  1
  O  O11  1  0.54649954  0.16640196  0.31861987  1
  O  O12  1  0.94304130  0.96778648  0.35319241  1
  O  O13  1  0.94304130  0.03221354  0.85319238  1
  O  O14  1  0.44304130  0.46778645  0.35319241  1
  O  O15  1  0.44304130  0.53221352  0.85319238  1
  O  O16  1  0.94765124  0.16289779  0.17673429  1
  O  O17  1  0.94765124  0.83710222  0.67673432  1
  O  O18  1  0.44765121  0.66289778  0.17673429  1
  O  O19  1  0.44765121  0.33710222  0.67673432  1
  O  O20  1  0.33968664  0.14215548  0.33750842  1
  O  O21  1  0.33968664  0.85784451  0.83750842  1
  O  O22  1  0.83968664  0.64215651  0.33750842  1
  O  O23  1  0.83968664  0.35784352  0.83750842  1
loop_
_geom_bond_atom_site_label_1
_geom_bond_atom_site_label_2
_geom_bond_distance
_geom_bond_site_symmetry_2
H24 N0 1.044907 1_555
H25 N1 1.044908 1_555
H26 N2 1.044907 1_555
H27 N3 1.044907 1_555
H28 N0 1.045760 1_555
H29 N1 1.045760 1_555
H30 N2 1.045760 1_555
H31 N3 1.045760 1_555
C0 H8 1.086293 1_555
C0 H4 1.086839 1_554
C0 H0 1.088005 1_555
C0 N0 1.480986 1_555
C1 H9 1.086293 1_555
C1 H5 1.086839 1_555
C1 H1 1.088005 1_555
C1 N1 1.480986 1_555
C2 H10 1.086262 1_555
C2 H6 1.086840 1_554
C2 H2 1.088022 1_555
C2 N2 1.480991 1_555
C3 H11 1.086262 1_555
C3 H7 1.086840 1_555
C3 H3 1.088022 1_555
C3 N3 1.480991 1_555
C4 H12 1.101430 1_555
C4 O0 1.257239 1_555
C4 O20 1.269329 1_555
C5 H13 1.101430 1_555
C5 O1 1.257239 1_555
C5 O21 1.269329 1_555
C6 H14 1.101430 1_555
C6 O2 1.257239 1_555
C6 O22 1.269324 1_555
C7 H15 1.101430 1_555
C7 O3 1.257239 1_555
C7 O23 1.269324 1_555
C8 H16 1.101354 1_555
C8 O4 1.261986 1_555
C8 O8 1.262379 1_555
C9 H17 1.101354 1_555
C9 O5 1.261986 1_555
C9 O9 1.262379 1_555
C10 H18 1.101368 1_565
C10 O6 1.261959 1_565
C10 O10 1.262390 1_555
C11 H19 1.101368 1_545
C11 O7 1.261959 1_545
C11 O11 1.262390 1_555
C12 H20 1.098545 1_645
C12 O12 1.257464 1_545
C12 O16 1.272505 1_555
C13 H21 1.098545 1_665
C13 O13 1.257463 1_565
C13 O17 1.272505 1_555
C14 H22 1.098554 1_555
C14 O14 1.257467 1_555
C14 O18 1.272497 1_555
C15 H23 1.098554 1_555
C15 O15 1.257466 1_555
C15 O19 1.272498 1_555
C16 H40 1.087451 1_555
C16 H32 1.087605 1_555
C16 H36 1.087740 1_555
C16 N0 1.481264 1_555
C17 H41 1.087451 1_555
C17 H33 1.087605 1_556
C17 H37 1.087740 1_555
C17 N1 1.481264 1_555
C18 H42 1.087476 1_555
C18 H34 1.087591 1_555
C18 H38 1.087734 1_555
C18 N2 1.481269 1_555
C19 H43 1.087476 1_555
C19 H35 1.087591 1_556
C19 H39 1.087734 1_555
C19 N3 1.481269 1_555
O0 Zn0 2.097626 1_454
O1 Zn1 2.097626 1_455
O2 Zn2 2.097627 1_554
O3 Zn3 2.097626 1_555
O4 Zn1 2.080427 1_455
O5 Zn0 2.080427 1_454
O6 Zn3 2.080430 1_555
O7 Zn2 2.080430 1_554
O8 Zn0 2.085336 1_455
O9 Zn1 2.085336 1_455
O10 Zn2 2.085335 1_555
O11 Zn3 2.085335 1_555
O12 Zn1 2.107019 1_555
O13 Zn0 2.107018 1_555
O14 Zn3 2.107018 1_555
O15 Zn2 2.107019 1_555
O16 Zn0 2.130356 1_554
O17 Zn1 2.130356 1_555
O18 Zn2 2.130356 1_554
O19 Zn3 2.130357 1_555
O20 Zn3 2.129572 1_555
O21 Zn2 2.129572 1_555
O22 Zn1 2.129568 1_555
O23 Zn0 2.129568 1_555
