# generated using pymatgen
data_Cs3Tc3(SI)4
_symmetry_space_group_name_H-M   'P 1'
_cell_length_a   11.40638383
_cell_length_b   11.40638308
_cell_length_c   11.40638262
_cell_angle_alpha   60.00000132
_cell_angle_beta   60.00000349
_cell_angle_gamma   60.00000336
_symmetry_Int_Tables_number   1
_chemical_formula_structural   Cs3Tc3(SI)4
_chemical_formula_sum   'Cs6 Tc6 S8 I8'
_cell_volume   1049.37061632
_cell_formula_units_Z   2
loop_
 _symmetry_equiv_pos_site_id
 _symmetry_equiv_pos_as_xyz
  1  'x, y, z'
loop_
 _atom_site_type_symbol
 _atom_site_label
 _atom_site_symmetry_multiplicity
 _atom_site_fract_x
 _atom_site_fract_y
 _atom_site_fract_z
 _atom_site_occupancy
  Cs  Cs0  1  0.50000000  0.00000000  0.00000000  1
  Cs  Cs1  1  0.50000000  0.00000000  0.50000000  1
  Cs  Cs2  1  0.00000000  0.50000000  0.00000000  1
  Cs  Cs3  1  0.00000000  0.00000000  0.50000000  1
  Cs  Cs4  1  0.00000000  0.50000000  0.50000000  1
  Cs  Cs5  1  0.50000000  0.50000000  0.00000000  1
  Tc  Tc0  1  0.61279966  0.38720034  0.38720034  1
  Tc  Tc1  1  0.38720034  0.61279966  0.61279966  1
  Tc  Tc2  1  0.38720034  0.38720034  0.61279966  1
  Tc  Tc3  1  0.61279966  0.38720034  0.61279966  1
  Tc  Tc4  1  0.61279966  0.61279966  0.38720034  1
  Tc  Tc5  1  0.38720034  0.61279966  0.38720034  1
  S  S0  1  0.39545114  0.81364758  0.39545114  1
  S  S1  1  0.60454886  0.60454886  0.60454886  1
  S  S2  1  0.18635242  0.60454886  0.60454886  1
  S  S3  1  0.39545114  0.39545114  0.39545114  1
  S  S4  1  0.60454886  0.60454886  0.18635242  1
  S  S5  1  0.81364758  0.39545114  0.39545114  1
  S  S6  1  0.60454886  0.18635242  0.60454886  1
  S  S7  1  0.39545114  0.39545114  0.81364758  1
  I  I0  1  0.21367242  0.21367242  0.78632758  1
  I  I1  1  0.21367242  0.78632758  0.78632758  1
  I  I2  1  0.78632758  0.21367242  0.21367242  1
  I  I3  1  0.75000000  0.75000000  0.75000000  1
  I  I4  1  0.21367242  0.78632758  0.21367242  1
  I  I5  1  0.25000000  0.25000000  0.25000000  1
  I  I6  1  0.78632758  0.78632758  0.21367242  1
  I  I7  1  0.78632758  0.21367242  0.78632758  1
loop_
_geom_bond_atom_site_label_1
_geom_bond_atom_site_label_2
_geom_bond_distance
_geom_bond_site_symmetry_2
Cs0 S6 3.722135 1_554
Cs0 S0 3.722135 1_545
Cs0 S7 3.722135 1_554
Cs0 S4 3.722135 1_545
Cs0 I5 4.032765 1_555
Cs0 I3 4.032765 1_544
Cs0 I6 4.075119 1_545
Cs0 I0 4.075119 1_554
Cs0 I7 4.075119 1_554
Cs0 I4 4.075119 1_545
Cs1 S6 3.722126 1_555
Cs1 S0 3.722126 1_545
Cs1 S3 3.722137 1_555
Cs1 S1 3.722137 1_545
Cs1 I3 4.032765 1_545
Cs1 I5 4.032765 1_555
Cs1 I0 4.075119 1_555
Cs1 I6 4.075119 1_545
Cs1 I2 4.075119 1_555
Cs1 I1 4.075119 1_545
Cs2 S5 3.722135 1_455
Cs2 S2 3.722135 1_554
Cs2 S7 3.722136 1_554
Cs2 S4 3.722136 1_455
Cs2 I5 4.032765 1_555
Cs2 I3 4.032765 1_454
Cs2 I6 4.075119 1_455
Cs2 I0 4.075119 1_554
Cs2 I1 4.075119 1_554
Cs2 I2 4.075119 1_455
Cs3 S5 3.722135 1_455
Cs3 S2 3.722135 1_545
Cs3 S0 3.722136 1_545
Cs3 S6 3.722136 1_455
Cs3 I3 4.032766 1_445
Cs3 I5 4.032766 1_555
Cs3 I7 4.075119 1_455
Cs3 I1 4.075119 1_545
Cs3 I4 4.075119 1_545
Cs3 I2 4.075119 1_455
Cs4 S2 3.722126 1_555
Cs4 S5 3.722126 1_455
Cs4 S3 3.722137 1_555
Cs4 S1 3.722137 1_455
Cs4 I5 4.032765 1_555
Cs4 I3 4.032765 1_455
Cs4 I0 4.075119 1_555
Cs4 I6 4.075119 1_455
Cs4 I4 4.075119 1_555
Cs4 I7 4.075119 1_455
Cs5 S4 3.722126 1_555
Cs5 S7 3.722126 1_554
Cs5 S3 3.722136 1_555
Cs5 S1 3.722136 1_554
Cs5 I3 4.032766 1_554
Cs5 I5 4.032766 1_555
Cs5 I2 4.075119 1_555
Cs5 I4 4.075119 1_555
Cs5 I1 4.075119 1_554
Cs5 I7 4.075119 1_554
S0 Tc1 2.388765 1_555
S0 Tc4 2.388765 1_555
S0 Tc5 2.388771 1_555
S1 Tc4 2.388759 1_555
S1 Tc3 2.388759 1_555
S1 Tc1 2.388760 1_555
S2 Tc5 2.388765 1_555
S2 Tc2 2.388765 1_555
S2 Tc1 2.388771 1_555
S3 Tc2 2.388759 1_555
S3 Tc5 2.388759 1_555
S3 Tc0 2.388760 1_555
S4 Tc0 2.388765 1_555
S4 Tc5 2.388765 1_555
S4 Tc4 2.388771 1_555
S5 Tc3 2.388765 1_555
S5 Tc4 2.388765 1_555
S5 Tc0 2.388771 1_555
S6 Tc0 2.388765 1_555
S6 Tc2 2.388765 1_555
S6 Tc3 2.388771 1_555
S7 Tc1 2.388765 1_555
S7 Tc3 2.388765 1_555
S7 Tc2 2.388771 1_555
I0 Tc2 2.799190 1_555
I1 Tc1 2.799190 1_555
I2 Tc0 2.799190 1_555
I4 Tc5 2.799190 1_555
I6 Tc4 2.799190 1_555
I7 Tc3 2.799190 1_555
