# generated using pymatgen
data_Lu4Sc(ZnTe)2
_symmetry_space_group_name_H-M   'P 1'
_cell_length_a   8.37568957
_cell_length_b   8.37569063
_cell_length_c   7.64240019
_cell_angle_alpha   90.00000000
_cell_angle_beta   90.00000000
_cell_angle_gamma   125.71190589
_symmetry_Int_Tables_number   1
_chemical_formula_structural   Lu4Sc(ZnTe)2
_chemical_formula_sum   'Lu8 Sc2 Zn4 Te4'
_cell_volume   435.31818975
_cell_formula_units_Z   2
loop_
 _symmetry_equiv_pos_site_id
 _symmetry_equiv_pos_as_xyz
  1  'x, y, z'
loop_
 _atom_site_type_symbol
 _atom_site_label
 _atom_site_symmetry_multiplicity
 _atom_site_fract_x
 _atom_site_fract_y
 _atom_site_fract_z
 _atom_site_occupancy
  Lu  Lu0  1  0.78721367  0.54311712  0.16504551  1
  Lu  Lu1  1  0.45688288  0.21278633  0.83495449  1
  Lu  Lu2  1  0.95688288  0.71278633  0.66504551  1
  Lu  Lu3  1  0.28721367  0.04311712  0.33495449  1
  Lu  Lu4  1  0.21278633  0.45688288  0.83495449  1
  Lu  Lu5  1  0.54311712  0.78721367  0.16504551  1
  Lu  Lu6  1  0.04311712  0.28721367  0.33495449  1
  Lu  Lu7  1  0.71278633  0.95688288  0.66504551  1
  Sc  Sc0  1  0.00000000  0.00000000  0.00000000  1
  Sc  Sc1  1  0.50000000  0.50000000  0.50000000  1
  Zn  Zn0  1  0.87031419  0.87031419  0.37217949  1
  Zn  Zn1  1  0.12968581  0.12968581  0.62782051  1
  Zn  Zn2  1  0.62968581  0.62968581  0.87217949  1
  Zn  Zn3  1  0.37031419  0.37031419  0.12782051  1
  Te  Te0  1  0.20574888  0.79425112  0.00000000  1
  Te  Te1  1  0.70574888  0.29425112  0.50000000  1
  Te  Te2  1  0.79425112  0.20574888  0.00000000  1
  Te  Te3  1  0.29425112  0.70574888  0.50000000  1
loop_
_geom_bond_atom_site_label_1
_geom_bond_atom_site_label_2
_geom_bond_distance
_geom_bond_site_symmetry_2
Lu0 Zn0 2.876437 1_555
Lu0 Zn2 2.897054 1_554
Lu0 Zn3 2.910080 1_555
Lu0 Te0 3.113836 1_655
Lu0 Te1 3.114946 1_555
Lu0 Te2 3.126250 1_555
Lu1 Zn1 2.876436 1_555
Lu1 Zn3 2.897054 1_556
Lu1 Zn2 2.910081 1_555
Lu1 Te0 3.113836 1_546
Lu1 Te1 3.114946 1_555
Lu1 Te2 3.126250 1_556
Lu2 Zn2 2.876436 1_555
Lu2 Zn0 2.897054 1_555
Lu2 Zn1 2.910081 1_665
Lu2 Te1 3.113836 1_555
Lu2 Te0 3.114946 1_656
Lu2 Te3 3.126250 1_655
Lu3 Zn3 2.876437 1_555
Lu3 Zn1 2.897054 1_555
Lu3 Zn0 2.910080 1_445
Lu3 Te1 3.113836 1_555
Lu3 Te0 3.114946 1_545
Lu3 Te3 3.126250 1_545
Lu4 Zn1 2.876437 1_555
Lu4 Zn3 2.897054 1_556
Lu4 Zn2 2.910080 1_555
Lu4 Te2 3.113836 1_456
Lu4 Te3 3.114946 1_555
Lu4 Te0 3.126250 1_556
Lu5 Zn0 2.876436 1_555
Lu5 Zn2 2.897054 1_554
Lu5 Zn3 2.910081 1_555
Lu5 Te2 3.113836 1_565
Lu5 Te3 3.114946 1_555
Lu5 Te0 3.126250 1_555
Lu6 Zn3 2.876436 1_555
Lu6 Zn1 2.897054 1_555
Lu6 Zn0 2.910081 1_445
Lu6 Te3 3.113836 1_555
Lu6 Te2 3.114946 1_455
Lu6 Te1 3.126250 1_455
Lu7 Zn2 2.876437 1_555
Lu7 Zn0 2.897054 1_555
Lu7 Zn1 2.910080 1_665
Lu7 Te3 3.113836 1_555
Lu7 Te2 3.114946 1_566
Lu7 Te1 3.126250 1_565
Sc0 Zn3 2.993959 1_555
Sc0 Zn2 2.993959 1_444
Sc0 Zn0 3.012078 1_445
Sc0 Zn1 3.012078 1_554
Sc0 Te2 3.066980 1_455
Sc0 Te0 3.066980 1_545
Sc1 Zn0 2.993959 1_555
Sc1 Zn1 2.993959 1_555
Sc1 Zn2 3.012078 1_555
Sc1 Zn3 3.012078 1_555
Sc1 Te1 3.066980 1_555
Sc1 Te3 3.066980 1_555
Zn0 Zn1 2.783210 1_665
Zn2 Zn3 2.783210 1_556
