# generated using pymatgen
data_Cs4Bi3Au
_symmetry_space_group_name_H-M   'P 1'
_cell_length_a   7.72129624
_cell_length_b   14.43879670
_cell_length_c   14.88280395
_cell_angle_alpha   71.34077272
_cell_angle_beta   90.00000000
_cell_angle_gamma   90.00000000
_symmetry_Int_Tables_number   1
_chemical_formula_structural   Cs4Bi3Au
_chemical_formula_sum   'Cs16 Bi12 Au4'
_cell_volume   1572.01564778
_cell_formula_units_Z   4
loop_
 _symmetry_equiv_pos_site_id
 _symmetry_equiv_pos_as_xyz
  1  'x, y, z'
loop_
 _atom_site_type_symbol
 _atom_site_label
 _atom_site_symmetry_multiplicity
 _atom_site_fract_x
 _atom_site_fract_y
 _atom_site_fract_z
 _atom_site_occupancy
  Cs  Cs0  1  0.54221819  0.34284181  0.15073977  1
  Cs  Cs1  1  0.04221819  0.15715819  0.84926023  1
  Cs  Cs2  1  0.45778181  0.65715819  0.84926023  1
  Cs  Cs3  1  0.95778181  0.84284181  0.15073977  1
  Cs  Cs4  1  0.80695201  0.46338043  0.38564539  1
  Cs  Cs5  1  0.30695201  0.03661957  0.61435461  1
  Cs  Cs6  1  0.19304799  0.53661957  0.61435461  1
  Cs  Cs7  1  0.69304799  0.96338043  0.38564539  1
  Cs  Cs8  1  0.56608806  0.32539177  0.66479300  1
  Cs  Cs9  1  0.06608806  0.17460823  0.33520700  1
  Cs  Cs10  1  0.43391194  0.67460823  0.33520700  1
  Cs  Cs11  1  0.93391194  0.82539277  0.66479300  1
  Cs  Cs12  1  0.84935639  0.46197840  0.88836200  1
  Cs  Cs13  1  0.34935639  0.03802160  0.11163800  1
  Cs  Cs14  1  0.15064361  0.53802160  0.11163800  1
  Cs  Cs15  1  0.65064361  0.96197840  0.88836200  1
  Bi  Bi0  1  0.83489757  0.12928863  0.10268195  1
  Bi  Bi1  1  0.33489757  0.37071137  0.89731805  1
  Bi  Bi2  1  0.16510243  0.87071137  0.89731805  1
  Bi  Bi3  1  0.66510243  0.62928863  0.10268195  1
  Bi  Bi4  1  0.57154574  0.21571582  0.41214726  1
  Bi  Bi5  1  0.07154574  0.28428418  0.58785274  1
  Bi  Bi6  1  0.42845426  0.78428418  0.58785274  1
  Bi  Bi7  1  0.92845426  0.71571582  0.41214726  1
  Bi  Bi8  1  0.80888939  0.12847741  0.58080525  1
  Bi  Bi9  1  0.30888939  0.37152259  0.41919475  1
  Bi  Bi10  1  0.19111061  0.87152259  0.41919475  1
  Bi  Bi11  1  0.69111061  0.62847741  0.58080525  1
  Au  Au0  1  0.09964512  0.26193558  0.03059605  1
  Au  Au1  1  0.59964512  0.23806442  0.96940395  1
  Au  Au2  1  0.90035488  0.73806442  0.96940395  1
  Au  Au3  1  0.40035488  0.76193558  0.03059605  1
loop_
_geom_bond_atom_site_label_1
_geom_bond_atom_site_label_2
_geom_bond_distance
_geom_bond_site_symmetry_2
Bi0 Cs1 3.997305 1_654
Bi0 Cs0 4.066620 1_555
Bi0 Cs3 4.077379 1_545
Bi0 Cs9 4.127912 1_655
Bi0 Cs7 4.268235 1_545
Bi1 Cs0 3.997305 1_556
Bi1 Cs1 4.066620 1_555
Bi1 Cs2 4.077379 1_555
Bi1 Cs8 4.127912 1_555
Bi1 Cs6 4.268235 1_555
Bi2 Cs3 3.997305 1_456
Bi2 Cs2 4.066620 1_555
Bi2 Cs1 4.077379 1_565
Bi2 Cs11 4.127906 1_455
Bi2 Cs5 4.268235 1_565
Bi3 Cs2 3.997305 1_554
Bi3 Cs3 4.066620 1_555
Bi3 Cs0 4.077379 1_555
Bi3 Cs10 4.127912 1_555
Bi3 Cs4 4.268235 1_555
Bi4 Bi8 3.036863 1_555
Bi4 Bi9 3.055477 1_555
Bi4 Cs0 3.739900 1_555
Bi4 Cs5 3.864955 1_555
Bi4 Cs7 3.902530 1_545
Bi4 Cs4 3.917206 1_555
Bi4 Cs9 4.084044 1_655
Bi4 Cs9 4.162953 1_555
Bi5 Bi9 3.036863 1_555
Bi5 Bi8 3.055477 1_455
Bi5 Cs1 3.739900 1_555
Bi5 Cs4 3.864955 1_455
Bi5 Cs6 3.902530 1_555
Bi5 Cs5 3.917206 1_555
Bi5 Cs8 4.084044 1_555
Bi5 Cs8 4.162953 1_455
Bi6 Cs2 3.739900 1_555
Bi6 Cs7 3.864955 1_555
Bi6 Cs5 3.902530 1_565
Bi6 Cs6 3.917206 1_555
Bi6 Cs11 4.084048 1_455
Bi6 Cs11 4.162956 1_555
Bi7 Cs3 3.739900 1_555
Bi7 Cs6 3.864955 1_655
Bi7 Cs4 3.902530 1_555
Bi7 Cs7 3.917206 1_555
Bi7 Cs10 4.084044 1_555
Bi7 Cs10 4.162953 1_655
Bi8 Cs8 3.928739 1_555
Bi8 Cs9 4.023685 1_655
Bi8 Cs5 4.046479 1_655
Bi8 Cs5 4.074924 1_555
Bi8 Cs11 4.259699 1_545
Bi8 Cs7 4.398774 1_545
Bi8 Cs1 4.520939 1_655
Bi8 Cs15 4.602485 1_545
Bi9 Cs9 3.928739 1_555
Bi9 Cs8 4.023685 1_555
Bi9 Cs4 4.046479 1_555
Bi9 Cs4 4.074924 1_455
Bi9 Cs10 4.259713 1_555
Bi9 Cs6 4.398774 1_555
Bi9 Cs0 4.520939 1_555
Bi9 Cs14 4.602485 1_555
Bi10 Bi6 3.036863 1_555
Bi10 Bi7 3.055477 1_455
Bi10 Cs10 3.928739 1_555
Bi10 Cs11 4.023686 1_455
Bi10 Cs7 4.046479 1_455
Bi10 Cs7 4.074924 1_555
Bi10 Cs9 4.259713 1_565
Bi10 Cs5 4.398774 1_565
Bi10 Cs3 4.520939 1_455
Bi10 Cs13 4.602485 1_565
Bi11 Bi7 3.036863 1_555
Bi11 Bi6 3.055477 1_555
Bi11 Cs11 3.928751 1_555
Bi11 Cs10 4.023685 1_555
Bi11 Cs6 4.046479 1_555
Bi11 Cs6 4.074924 1_655
Bi11 Cs8 4.259713 1_555
Bi11 Cs4 4.398774 1_555
Bi11 Cs2 4.520939 1_555
Bi11 Cs12 4.602485 1_555
Au0 Bi0 2.771849 1_455
Au0 Bi1 2.776201 1_554
Au0 Cs1 3.518714 1_554
Au0 Cs12 3.556141 1_454
Au0 Cs13 3.623495 1_555
Au0 Cs0 4.192371 1_555
Au0 Cs9 4.307158 1_555
Au1 Bi1 2.771849 1_555
Au1 Bi0 2.776201 1_556
Au1 Cs0 3.518714 1_556
Au1 Cs13 3.556141 1_556
Au1 Cs12 3.623495 1_555
Au1 Cs1 4.192371 1_655
Au1 Cs8 4.307158 1_555
Au2 Bi2 2.771849 1_655
Au2 Bi3 2.776201 1_556
Au2 Cs3 3.518714 1_556
Au2 Cs14 3.556141 1_656
Au2 Cs15 3.623495 1_555
Au2 Cs2 4.192371 1_555
Au2 Cs11 4.307157 1_555
Au3 Bi3 2.771849 1_555
Au3 Bi2 2.776201 1_554
Au3 Cs2 3.518714 1_554
Au3 Cs15 3.556141 1_554
Au3 Cs14 3.623495 1_555
Au3 Cs3 4.192371 1_455
Au3 Cs10 4.307158 1_555
