# generated using pymatgen
data_Lu16Co3Ag4Rh
_symmetry_space_group_name_H-M   'P 1'
_cell_length_a   9.17596854
_cell_length_b   9.13386694
_cell_length_c   9.13386581
_cell_angle_alpha   60.00000407
_cell_angle_beta   60.15166631
_cell_angle_gamma   60.15166572
_symmetry_Int_Tables_number   1
_chemical_formula_structural   Lu16Co3Ag4Rh
_chemical_formula_sum   'Lu16 Co3 Ag4 Rh1'
_cell_volume   542.54783470
_cell_formula_units_Z   1
loop_
 _symmetry_equiv_pos_site_id
 _symmetry_equiv_pos_as_xyz
  1  'x, y, z'
loop_
 _atom_site_type_symbol
 _atom_site_label
 _atom_site_symmetry_multiplicity
 _atom_site_fract_x
 _atom_site_fract_y
 _atom_site_fract_z
 _atom_site_occupancy
  Lu  Lu0  1  0.59258944  0.60531753  0.60531753  1
  Lu  Lu1  1  0.59258944  0.60531753  0.19677650  1
  Lu  Lu2  1  0.59258944  0.19677650  0.60531753  1
  Lu  Lu3  1  0.21404453  0.59531916  0.59531916  1
  Lu  Lu4  1  0.06789605  0.43793998  0.43793998  1
  Lu  Lu5  1  0.43695590  0.06218992  0.06218992  1
  Lu  Lu6  1  0.43695590  0.06218992  0.43866526  1
  Lu  Lu7  1  0.06789605  0.43793998  0.05622299  1
  Lu  Lu8  1  0.43695590  0.43866526  0.06218992  1
  Lu  Lu9  1  0.06789605  0.05622299  0.43793998  1
  Lu  Lu10  1  0.18327157  0.81468525  0.81468525  1
  Lu  Lu11  1  0.81053855  0.18837225  0.18837225  1
  Lu  Lu12  1  0.81053855  0.18837225  0.81271594  1
  Lu  Lu13  1  0.18327157  0.81468525  0.18735793  1
  Lu  Lu14  1  0.81053855  0.81271594  0.18837225  1
  Lu  Lu15  1  0.18327157  0.18735793  0.81468525  1
  Co  Co0  1  0.39612979  0.38956107  0.38956107  1
  Co  Co1  1  0.39612979  0.38956107  0.82474606  1
  Co  Co2  1  0.39612979  0.82474606  0.38956107  1
  Ag  Ag0  1  0.83352062  0.83035781  0.83035781  1
  Ag  Ag1  1  0.83352062  0.83035781  0.50576477  1
  Ag  Ag2  1  0.83352062  0.50576477  0.83035781  1
  Ag  Ag3  1  0.50303630  0.83232090  0.83232090  1
  Rh  Rh0  1  0.82020842  0.39326286  0.39326286  1
loop_
_geom_bond_atom_site_label_1
_geom_bond_atom_site_label_2
_geom_bond_distance
_geom_bond_site_symmetry_2
Lu0 Rh0 2.750118 1_555
Lu1 Rh0 2.750093 1_555
Lu2 Rh0 2.750094 1_555
Lu4 Rh0 2.740710 1_455
Lu7 Rh0 2.740698 1_455
Lu9 Rh0 2.740698 1_455
Lu11 Rh0 3.293229 1_555
Lu12 Rh0 3.293245 1_555
Lu14 Rh0 3.293245 1_555
Co0 Lu8 2.644556 1_555
Co0 Lu6 2.644557 1_555
Co0 Lu4 2.647172 1_555
Co0 Lu3 2.671395 1_555
Co0 Lu2 2.672156 1_555
Co0 Lu1 2.672156 1_555
Co0 Lu11 3.267876 1_555
Co1 Lu5 2.644566 1_556
Co1 Lu8 2.644583 1_556
Co1 Lu7 2.647175 1_556
Co1 Lu3 2.671368 1_555
Co1 Lu2 2.672136 1_555
Co1 Lu0 2.672155 1_555
Co1 Lu12 3.267878 1_555
Co2 Lu5 2.644566 1_565
Co2 Lu6 2.644583 1_565
Co2 Lu9 2.647175 1_565
Co2 Lu3 2.671368 1_555
Co2 Lu1 2.672136 1_555
Co2 Lu0 2.672155 1_555
Co2 Lu14 3.267878 1_555
Ag0 Ag1 2.964789 1_555
Ag0 Ag2 2.964790 1_555
Ag0 Ag3 3.014772 1_555
Ag0 Lu10 3.073515 1_655
Ag0 Lu14 3.095830 1_556
Ag0 Lu12 3.095830 1_565
Ag0 Lu1 3.254639 1_556
Ag0 Lu2 3.254639 1_565
Ag0 Lu9 3.328250 1_665
Ag0 Lu7 3.328250 1_656
Ag0 Lu3 3.330923 1_655
Ag0 Lu5 3.369422 1_566
Ag1 Ag2 2.964790 1_555
Ag1 Ag3 3.014763 1_555
Ag1 Lu13 3.073519 1_655
Ag1 Lu11 3.095838 1_565
Ag1 Lu14 3.095848 1_555
Ag1 Lu0 3.254639 1_555
Ag1 Lu2 3.254639 1_565
Ag1 Lu9 3.328242 1_665
Ag1 Lu4 3.328257 1_655
Ag1 Lu3 3.330927 1_655
Ag1 Lu6 3.369422 1_565
Ag2 Ag3 3.014764 1_555
Ag2 Lu15 3.073519 1_655
Ag2 Lu11 3.095838 1_556
Ag2 Lu12 3.095848 1_555
Ag2 Lu1 3.254638 1_556
Ag2 Lu0 3.254638 1_555
Ag2 Lu7 3.328241 1_656
Ag2 Lu4 3.328257 1_655
Ag2 Lu3 3.330927 1_655
Ag2 Lu8 3.369422 1_556
Ag3 Lu10 3.102906 1_555
Ag3 Lu13 3.102911 1_556
Ag3 Lu15 3.102911 1_565
Ag3 Lu0 3.190685 1_555
Ag3 Lu1 3.190700 1_556
Ag3 Lu2 3.190701 1_565
Ag3 Lu6 3.325346 1_565
Ag3 Lu8 3.325347 1_556
Ag3 Lu5 3.325362 1_566
