# generated using pymatgen
data_Sr6Cr2TcH27
_symmetry_space_group_name_H-M   'P 1'
_cell_length_a   9.08274431
_cell_length_b   9.08274557
_cell_length_c   5.07696130
_cell_angle_alpha   90.00000000
_cell_angle_beta   90.00000000
_cell_angle_gamma   120.00000309
_symmetry_Int_Tables_number   1
_chemical_formula_structural   Sr6Cr2TcH27
_chemical_formula_sum   'Sr6 Cr2 Tc1 H27'
_cell_volume   362.71766628
_cell_formula_units_Z   1
loop_
 _symmetry_equiv_pos_site_id
 _symmetry_equiv_pos_as_xyz
  1  'x, y, z'
loop_
 _atom_site_type_symbol
 _atom_site_label
 _atom_site_symmetry_multiplicity
 _atom_site_fract_x
 _atom_site_fract_y
 _atom_site_fract_z
 _atom_site_occupancy
  Sr  Sr0  1  0.25801827  0.99527595  0.50000000  1
  Sr  Sr1  1  0.00472405  0.26274232  0.50000000  1
  Sr  Sr2  1  0.73725768  0.74198173  0.50000000  1
  Sr  Sr3  1  0.58140355  0.95647646  0.00000000  1
  Sr  Sr4  1  0.04352354  0.62492709  0.00000000  1
  Sr  Sr5  1  0.37507291  0.41859645  0.00000000  1
  Cr  Cr0  1  0.00000000  0.00000000  0.00000000  1
  Cr  Cr1  1  0.33333300  0.66666700  0.50000000  1
  Tc  Tc0  1  0.66666700  0.33333300  0.50000000  1
  H  H0  1  0.84431784  0.00326117  0.23539443  1
  H  H1  1  0.99673883  0.84105768  0.23539443  1
  H  H2  1  0.84431784  0.00326117  0.76460557  1
  H  H3  1  0.99673883  0.84105768  0.76460557  1
  H  H4  1  0.15894232  0.15568216  0.23539443  1
  H  H5  1  0.15894232  0.15568216  0.76460557  1
  H  H6  1  0.30777668  0.96645748  0.00000000  1
  H  H7  1  0.03354252  0.34131920  0.00000000  1
  H  H8  1  0.65868080  0.69222332  0.00000000  1
  H  H9  1  0.21629680  0.53646214  0.27457919  1
  H  H10  1  0.46353786  0.67983366  0.27457919  1
  H  H11  1  0.21629680  0.53646214  0.72542081  1
  H  H12  1  0.53642663  0.20818424  0.74030323  1
  H  H13  1  0.32016634  0.78370320  0.27457919  1
  H  H14  1  0.46353786  0.67983366  0.72542081  1
  H  H15  1  0.67175760  0.46357337  0.74030323  1
  H  H16  1  0.53642663  0.20818424  0.25969677  1
  H  H17  1  0.32016634  0.78370320  0.72542081  1
  H  H18  1  0.67175760  0.46357337  0.25969677  1
  H  H19  1  0.79181576  0.32824240  0.74030323  1
  H  H20  1  0.79181576  0.32824240  0.25969677  1
  H  H21  1  0.34872093  0.49764672  0.50000000  1
  H  H22  1  0.50235328  0.85107421  0.50000000  1
  H  H23  1  0.48649952  0.33963866  0.50000000  1
  H  H24  1  0.14892579  0.65127907  0.50000000  1
  H  H25  1  0.85313914  0.51350048  0.50000000  1
  H  H26  1  0.66036134  0.14686086  0.50000000  1
loop_
_geom_bond_atom_site_label_1
_geom_bond_atom_site_label_2
_geom_bond_distance
_geom_bond_site_symmetry_2
Cr0 H1 1.862909 1_445
Cr0 H3 1.862909 1_444
Cr0 H4 1.862912 1_555
Cr0 H5 1.862912 1_554
Cr0 H0 1.862915 1_455
Cr0 H2 1.862915 1_454
Cr1 H17 1.606608 1_555
Cr1 H13 1.606608 1_555
Cr1 H11 1.606615 1_555
Cr1 H9 1.606615 1_555
Cr1 H14 1.606620 1_555
Cr1 H10 1.606620 1_555
Cr1 H24 1.609599 1_555
Cr1 H22 1.609603 1_555
Cr1 H21 1.609608 1_555
H0 Sr1 2.459302 1_655
H0 Sr2 2.464629 1_545
H0 Sr3 2.509290 1_545
H1 Sr2 2.459300 1_555
H1 Sr0 2.464628 1_655
H1 Sr4 2.509298 1_655
H2 Sr1 2.459302 1_655
H2 Sr2 2.464629 1_545
H2 Sr3 2.509290 1_546
H3 Sr2 2.459300 1_555
H3 Sr0 2.464628 1_655
H3 Sr4 2.509298 1_656
H4 Sr0 2.459308 1_545
H4 Sr1 2.464622 1_555
H4 Sr5 2.509293 1_555
H5 Sr0 2.459308 1_545
H5 Sr1 2.464622 1_555
H5 Sr5 2.509293 1_556
H6 Sr3 2.531828 1_555
H6 Sr0 2.614373 1_555
H6 Sr0 2.614373 1_554
H6 Sr4 2.817441 1_555
H7 Sr4 2.531828 1_555
H7 Sr1 2.614373 1_554
H7 Sr1 2.614373 1_555
H7 Sr5 2.817441 1_555
H8 Sr5 2.531828 1_555
H8 Sr2 2.614373 1_555
H8 Sr2 2.614373 1_554
H8 Sr3 2.817441 1_555
H9 Sr4 2.512449 1_555
H9 Sr1 2.530986 1_555
H9 Sr5 2.590937 1_555
H10 Sr5 2.512442 1_555
H10 Sr2 2.530983 1_555
H10 Sr3 2.590944 1_555
H11 Sr4 2.512449 1_556
H11 Sr1 2.530986 1_555
H11 Sr5 2.590937 1_556
H12 Tc0 1.683807 1_555
H12 Sr0 2.594679 1_545
H12 Sr3 2.840051 1_546
H13 Sr3 2.512443 1_555
H13 Sr0 2.530991 1_555
H13 Sr4 2.590943 1_555
H14 Sr5 2.512442 1_556
H14 Sr2 2.530983 1_555
H14 Sr3 2.590944 1_556
H15 Tc0 1.683810 1_555
H15 Sr2 2.594679 1_555
H15 Sr5 2.840051 1_556
H16 Tc0 1.683807 1_555
H16 Sr0 2.594679 1_545
H16 Sr3 2.840051 1_545
H17 Sr3 2.512443 1_556
H17 Sr0 2.530991 1_555
H17 Sr4 2.590943 1_556
H18 Tc0 1.683810 1_555
H18 Sr2 2.594679 1_555
H18 Sr5 2.840051 1_555
H19 Tc0 1.683803 1_555
H19 Sr1 2.594679 1_655
H19 Sr4 2.840051 1_656
H20 Tc0 1.683803 1_555
H20 Sr1 2.594679 1_655
H20 Sr4 2.840051 1_655
H21 Sr5 2.681145 1_555
H21 Sr5 2.681145 1_556
H21 Sr1 2.765506 1_555
H22 Sr3 2.681145 1_556
H22 Sr3 2.681145 1_555
H22 Sr2 2.765506 1_555
H23 Tc0 1.665790 1_555
H23 Sr0 2.756564 1_545
H23 Sr5 2.950976 1_555
H23 Sr5 2.950976 1_556
H24 Sr4 2.681145 1_555
H24 Sr4 2.681145 1_556
H24 Sr0 2.765507 1_555
H25 Tc0 1.665785 1_555
H25 Sr2 2.756564 1_555
H25 Sr4 2.950976 1_656
H25 Sr4 2.950976 1_655
H26 Tc0 1.665781 1_555
H26 Sr1 2.756563 1_655
H26 Sr3 2.950976 1_545
H26 Sr3 2.950976 1_546
