# generated using pymatgen
data_Re2TcP4
_symmetry_space_group_name_H-M   'P 1'
_cell_length_a   6.27459531
_cell_length_b   6.27459400
_cell_length_c   6.03253965
_cell_angle_alpha   66.84999048
_cell_angle_beta   66.84999418
_cell_angle_gamma   28.00335143
_symmetry_Int_Tables_number   1
_chemical_formula_structural   Re2TcP4
_chemical_formula_sum   'Re2 Tc1 P4'
_cell_volume   101.95012091
_cell_formula_units_Z   1
loop_
 _symmetry_equiv_pos_site_id
 _symmetry_equiv_pos_as_xyz
  1  'x, y, z'
loop_
 _atom_site_type_symbol
 _atom_site_label
 _atom_site_symmetry_multiplicity
 _atom_site_fract_x
 _atom_site_fract_y
 _atom_site_fract_z
 _atom_site_occupancy
  Re  Re0  1  0.73678982  0.73678982  0.31799804  1
  Re  Re1  1  0.26321018  0.26321018  0.68200196  1
  Tc  Tc0  1  0.00000000  0.00000000  0.00000000  1
  P  P0  1  0.91316378  0.91316378  0.43672355  1
  P  P1  1  0.08683622  0.08683622  0.56327645  1
  P  P2  1  0.64807472  0.64807472  0.02395431  1
  P  P3  1  0.35192528  0.35192528  0.97604569  1
loop_
_geom_bond_atom_site_label_1
_geom_bond_atom_site_label_2
_geom_bond_distance
_geom_bond_site_symmetry_2
P0 Re1 2.374585 1_655
P0 Re1 2.374586 1_565
P0 Tc0 2.408628 1_665
P0 P1 2.522505 1_665
P0 Re0 2.524191 1_555
P1 Re0 2.374585 1_455
P1 Re0 2.374586 1_545
P1 Tc0 2.408628 1_556
P1 Re1 2.524191 1_555
P2 Tc0 2.405743 1_655
P2 Tc0 2.405744 1_565
P2 Re0 2.422006 1_555
P2 Re1 2.486353 1_564
P2 Re1 2.486353 1_654
P3 Tc0 2.405743 1_566
P3 Tc0 2.405744 1_656
P3 Re1 2.422006 1_555
P3 Re0 2.486353 1_546
P3 Re0 2.486353 1_456
