# generated using pymatgen
data_InAg(IrS2)4
_symmetry_space_group_name_H-M   'P 1'
_cell_length_a   7.21836746
_cell_length_b   7.21836760
_cell_length_c   7.21836690
_cell_angle_alpha   59.99999428
_cell_angle_beta   59.99999363
_cell_angle_gamma   59.99999382
_symmetry_Int_Tables_number   1
_chemical_formula_structural   InAg(IrS2)4
_chemical_formula_sum   'In1 Ag1 Ir4 S8'
_cell_volume   265.95115275
_cell_formula_units_Z   1
loop_
 _symmetry_equiv_pos_site_id
 _symmetry_equiv_pos_as_xyz
  1  'x, y, z'
loop_
 _atom_site_type_symbol
 _atom_site_label
 _atom_site_symmetry_multiplicity
 _atom_site_fract_x
 _atom_site_fract_y
 _atom_site_fract_z
 _atom_site_occupancy
  In  In0  1  0.00000000  0.00000000  0.00000000  1
  Ag  Ag0  1  0.75000000  0.75000000  0.75000000  1
  Ir  Ir0  1  0.37707905  0.37707905  0.37707905  1
  Ir  Ir1  1  0.37707905  0.86876085  0.37707905  1
  Ir  Ir2  1  0.86876085  0.37707905  0.37707905  1
  Ir  Ir3  1  0.37707905  0.37707905  0.86876085  1
  S  S0  1  0.14278851  0.14278851  0.14278851  1
  S  S1  1  0.14278851  0.57163247  0.14278851  1
  S  S2  1  0.57163247  0.14278851  0.14278851  1
  S  S3  1  0.14278851  0.14278851  0.57163247  1
  S  S4  1  0.60751404  0.60751404  0.60751404  1
  S  S5  1  0.60751404  0.17745787  0.60751404  1
  S  S6  1  0.17745787  0.60751404  0.60751404  1
  S  S7  1  0.60751404  0.60751404  0.17745787  1
loop_
_geom_bond_atom_site_label_1
_geom_bond_atom_site_label_2
_geom_bond_distance
_geom_bond_site_symmetry_2
In0 S0 2.524689 1_555
In0 S3 2.524700 1_554
In0 S2 2.524700 1_455
In0 S1 2.524701 1_545
Ag0 S7 2.519339 1_556
Ag0 S6 2.519339 1_655
Ag0 S5 2.519339 1_565
Ag0 S4 2.519339 1_555
Ir0 S5 2.362845 1_555
Ir0 S6 2.362845 1_555
Ir0 S7 2.362845 1_555
Ir0 S1 2.408850 1_555
Ir0 S2 2.408850 1_555
Ir0 S3 2.408850 1_555
Ir1 S7 2.362834 1_555
Ir1 S6 2.362834 1_555
Ir1 S4 2.362843 1_555
Ir1 S0 2.408850 1_565
Ir1 S3 2.408850 1_565
Ir1 S2 2.408850 1_565
Ir2 S7 2.362834 1_555
Ir2 S5 2.362834 1_555
Ir2 S4 2.362843 1_555
Ir2 S0 2.408850 1_655
Ir2 S3 2.408850 1_655
Ir2 S1 2.408850 1_655
Ir3 S5 2.362834 1_555
Ir3 S6 2.362834 1_555
Ir3 S4 2.362843 1_555
Ir3 S1 2.408850 1_556
Ir3 S2 2.408850 1_556
Ir3 S0 2.408850 1_556
