# generated using pymatgen
data_K4Sn(SeS)2
_symmetry_space_group_name_H-M   'P 1'
_cell_length_a   8.19325535
_cell_length_b   10.03960938
_cell_length_c   14.49661945
_cell_angle_alpha   90.00000000
_cell_angle_beta   90.00000000
_cell_angle_gamma   90.00000000
_symmetry_Int_Tables_number   1
_chemical_formula_structural   K4Sn(SeS)2
_chemical_formula_sum   'K16 Sn4 Se8 S8'
_cell_volume   1192.44963304
_cell_formula_units_Z   4
loop_
 _symmetry_equiv_pos_site_id
 _symmetry_equiv_pos_as_xyz
  1  'x, y, z'
loop_
 _atom_site_type_symbol
 _atom_site_label
 _atom_site_symmetry_multiplicity
 _atom_site_fract_x
 _atom_site_fract_y
 _atom_site_fract_z
 _atom_site_occupancy
  K  K0  1  0.50000000  0.50000000  0.50000000  1
  K  K1  1  0.14721797  0.45436349  0.27384212  1
  K  K2  1  0.14721797  0.04563651  0.27384212  1
  K  K3  1  0.99528368  0.75000000  0.43474268  1
  K  K4  1  0.00471632  0.25000000  0.56525732  1
  K  K5  1  0.64721797  0.95436349  0.22615788  1
  K  K6  1  0.35278203  0.04563651  0.77384212  1
  K  K7  1  0.85278203  0.95436349  0.72615788  1
  K  K8  1  0.35278203  0.45436349  0.77384212  1
  K  K9  1  0.00000000  0.50000000  0.00000000  1
  K  K10  1  0.49528368  0.25000000  0.06525732  1
  K  K11  1  0.64721797  0.54563651  0.22615788  1
  K  K12  1  0.50471632  0.75000000  0.93474268  1
  K  K13  1  0.00000000  0.00000000  0.00000000  1
  K  K14  1  0.85278203  0.54563651  0.72615788  1
  K  K15  1  0.50000000  0.00000000  0.50000000  1
  Sn  Sn0  1  0.74354363  0.25000000  0.83668280  1
  Sn  Sn1  1  0.75645637  0.25000000  0.33668280  1
  Sn  Sn2  1  0.24354363  0.75000000  0.66331720  1
  Sn  Sn3  1  0.25645637  0.75000000  0.16331720  1
  Se  Se0  1  0.55403072  0.75000000  0.66814793  1
  Se  Se1  1  0.44596928  0.25000000  0.33185207  1
  Se  Se2  1  0.36628804  0.75000000  0.32884881  1
  Se  Se3  1  0.13371196  0.75000000  0.82884881  1
  Se  Se4  1  0.05403072  0.25000000  0.83185207  1
  Se  Se5  1  0.94596928  0.75000000  0.16814793  1
  Se  Se6  1  0.63371196  0.25000000  0.67115119  1
  Se  Se7  1  0.86628804  0.25000000  0.17115119  1
  S  S0  1  0.84790849  0.44749307  0.41168318  1
  S  S1  1  0.65209151  0.05250693  0.91168318  1
  S  S2  1  0.34790849  0.94749307  0.08831682  1
  S  S3  1  0.34790849  0.55250693  0.08831682  1
  S  S4  1  0.15209151  0.55250693  0.58831682  1
  S  S5  1  0.84790849  0.05250693  0.41168318  1
  S  S6  1  0.15209151  0.94749307  0.58831682  1
  S  S7  1  0.65209151  0.44749307  0.91168318  1
loop_
_geom_bond_atom_site_label_1
_geom_bond_atom_site_label_2
_geom_bond_distance
_geom_bond_site_symmetry_2
K0 S0 3.168976 1_555
K0 S4 3.168976 1_555
K0 Se0 3.526664 1_555
K0 Se1 3.526664 1_555
K0 Se6 3.695367 1_555
K0 Se2 3.695367 1_555
K1 S0 3.164103 1_455
K1 S3 3.302721 1_555
K1 Se1 3.302764 1_555
K1 Se7 3.423989 1_455
K1 Sn3 3.489655 1_555
K1 Se2 3.559071 1_555
K1 Se5 3.725043 1_455
K2 S5 3.164103 1_455
K2 S2 3.302721 1_545
K2 Se1 3.302764 1_555
K2 Se7 3.423989 1_455
K2 Sn3 3.489655 1_545
K2 Se2 3.559071 1_545
K2 Se5 3.725043 1_445
K3 S6 3.246286 1_655
K3 S4 3.246286 1_655
K3 S5 3.285337 1_565
K3 S0 3.285337 1_555
K3 Se2 3.405366 1_655
K3 Se5 3.885786 1_555
K4 S0 3.246286 1_455
K4 S5 3.246286 1_455
K4 S4 3.285337 1_555
K4 S6 3.285337 1_545
K4 Se6 3.405366 1_455
K4 Se4 3.885786 1_555
K5 S2 3.164103 1_555
K5 S5 3.302721 1_565
K5 Se5 3.302764 1_555
K5 Se2 3.423989 1_555
K5 Sn1 3.489655 1_565
K5 Se7 3.559071 1_565
K5 Se1 3.725043 1_565
K6 S1 3.164103 1_555
K6 S6 3.302721 1_545
K6 Se4 3.302764 1_555
K6 Se6 3.423989 1_555
K6 Sn2 3.489655 1_545
K6 Se3 3.559071 1_545
K6 Se0 3.725043 1_545
K7 S6 3.164103 1_655
K7 S1 3.302721 1_565
K7 Se0 3.302764 1_555
K7 Se3 3.423989 1_655
K7 Sn0 3.489655 1_565
K7 Se6 3.559071 1_565
K7 Se4 3.725043 1_665
K8 S7 3.164103 1_555
K8 S4 3.302721 1_555
K8 Se4 3.302764 1_555
K8 Se6 3.423989 1_555
K8 Sn2 3.489655 1_555
K8 Se3 3.559071 1_555
K8 Se0 3.725043 1_555
K9 S7 3.168976 1_454
K9 S3 3.168976 1_555
K9 Se5 3.526664 1_455
K9 Se4 3.526664 1_554
K9 Se7 3.695367 1_455
K9 Se3 3.695367 1_554
K10 S7 3.246286 1_554
K10 S1 3.246286 1_554
K10 S3 3.285337 1_555
K10 S2 3.285337 1_545
K10 Se7 3.405366 1_555
K10 Se1 3.885786 1_555
K11 S3 3.164103 1_555
K11 S0 3.302721 1_555
K11 Se5 3.302764 1_555
K11 Se2 3.423989 1_555
K11 Sn1 3.489655 1_555
K11 Se7 3.559071 1_555
K11 Se1 3.725043 1_555
K12 S2 3.246286 1_556
K12 S3 3.246286 1_556
K12 S1 3.285337 1_565
K12 S7 3.285337 1_555
K12 Se3 3.405366 1_555
K12 Se0 3.885786 1_555
K13 S1 3.168976 1_454
K13 S2 3.168976 1_545
K13 Se5 3.526664 1_445
K13 Se4 3.526664 1_554
K13 Se7 3.695367 1_455
K13 Se3 3.695367 1_544
K14 S4 3.164103 1_655
K14 S7 3.302721 1_555
K14 Se0 3.302764 1_555
K14 Se3 3.423989 1_655
K14 Sn0 3.489655 1_555
K14 Se6 3.559071 1_555
K14 Se4 3.725043 1_655
K15 S5 3.168976 1_555
K15 S6 3.168976 1_545
K15 Se0 3.526664 1_545
K15 Se1 3.526664 1_555
K15 Se6 3.695367 1_555
K15 Se2 3.695367 1_545
Se0 Sn2 2.544864 1_555
Se1 Sn1 2.544864 1_555
Se2 Sn3 2.562830 1_555
Se3 Sn2 2.562830 1_555
Se4 Sn0 2.544864 1_455
Se5 Sn3 2.544864 1_655
Se6 Sn0 2.562830 1_555
Se7 Sn1 2.562830 1_555
S0 Sn1 2.382197 1_555
S1 Sn0 2.382197 1_555
S2 Sn3 2.382197 1_555
S3 Sn3 2.382197 1_555
S4 Sn2 2.382197 1_555
S5 Sn1 2.382197 1_555
S6 Sn2 2.382197 1_555
S7 Sn0 2.382197 1_555
