# generated using pymatgen
data_Ti8Al12Si3Ir7
_symmetry_space_group_name_H-M   'P 1'
_cell_length_a   8.55852524
_cell_length_b   8.55852426
_cell_length_c   8.55852504
_cell_angle_alpha   119.78486719
_cell_angle_beta   120.08006763
_cell_angle_gamma   90.11720124
_symmetry_Int_Tables_number   1
_chemical_formula_structural   Ti8Al12Si3Ir7
_chemical_formula_sum   'Ti8 Al12 Si3 Ir7'
_cell_volume   443.73148667
_cell_formula_units_Z   1
loop_
 _symmetry_equiv_pos_site_id
 _symmetry_equiv_pos_as_xyz
  1  'x, y, z'
loop_
 _atom_site_type_symbol
 _atom_site_label
 _atom_site_symmetry_multiplicity
 _atom_site_fract_x
 _atom_site_fract_y
 _atom_site_fract_z
 _atom_site_occupancy
  Ti  Ti0  1  0.80468004  0.29754568  0.09169215  1
  Ti  Ti1  1  0.20585253  0.29754568  0.49286565  1
  Ti  Ti2  1  0.19698497  0.69698497  0.50000000  1
  Ti  Ti3  1  0.20585253  0.71298788  0.90830785  1
  Ti  Ti4  1  0.80468004  0.71298788  0.50713435  1
  Ti  Ti5  1  0.78723756  0.28723756  0.50000000  1
  Ti  Ti6  1  0.37907610  0.12403384  0.74495775  1
  Ti  Ti7  1  0.37907610  0.63411935  0.25504225  1
  Al  Al0  1  0.15134524  0.34666259  0.80468265  1
  Al  Al1  1  0.54197894  0.34666259  0.19531735  1
  Al  Al2  1  0.83905753  0.65968483  0.82062831  1
  Al  Al3  1  0.83905753  0.01842922  0.17937169  1
  Al  Al4  1  0.83645512  0.66095458  0.17550054  1
  Al  Al5  1  0.48545405  0.66095458  0.82449946  1
  Al  Al6  1  0.38160638  0.12215870  0.25944868  1
  Al  Al7  1  0.86271003  0.12215870  0.74055132  1
  Al  Al8  1  0.61931391  0.87785886  0.25854495  1
  Al  Al9  1  0.61931391  0.36076996  0.74145505  1
  Al  Al10  1  0.62097238  0.87953895  0.74143343  1
  Al  Al11  1  0.13810452  0.87953895  0.25856657  1
  Si  Si0  1  0.99128688  0.49128688  0.50000000  1
  Si  Si1  1  0.15684173  0.34607455  0.18923182  1
  Si  Si2  1  0.15684173  0.96760992  0.81076818  1
  Ir  Ir0  1  0.00474918  0.99917761  0.50738976  1
  Ir  Ir1  1  0.49178885  0.99917761  0.99442842  1
  Ir  Ir2  1  0.49679757  0.49679757  1.00000000  1
  Ir  Ir3  1  0.49178885  0.49735843  0.49261024  1
  Ir  Ir4  1  0.00474918  0.49735843  0.00557158  1
  Ir  Ir5  1  0.00811904  0.00811904  0.00000000  1
  Ir  Ir6  1  0.49822360  0.99822360  0.50000000  1
loop_
_geom_bond_atom_site_label_1
_geom_bond_atom_site_label_2
_geom_bond_distance
_geom_bond_site_symmetry_2
Al0 Ir2 2.466361 1_555
Al0 Ir4 2.481841 1_556
Al0 Ir0 2.481843 1_545
Al1 Ir2 2.466363 1_554
Al1 Ir3 2.481831 1_555
Al1 Ir1 2.481846 1_544
Al2 Ir3 2.527669 1_555
Al2 Ir4 2.527674 1_656
Al2 Ir5 2.559426 1_666
Al3 Ir1 2.527667 1_544
Al3 Ir0 2.527674 1_645
Al3 Ir5 2.559419 1_655
Al4 Ir2 2.488025 1_554
Al4 Ir0 2.497028 1_655
Al4 Ir4 2.497031 1_655
Al5 Ir2 2.488025 1_555
Al5 Ir1 2.497026 1_555
Al5 Ir3 2.497033 1_555
Al6 Ir6 2.544372 1_545
Al6 Ir5 2.611503 1_555
Al6 Ir3 2.630199 1_555
Al6 Ir1 2.630221 1_544
Al6 Si2 2.781105 1_544
Al6 Si1 2.781107 1_555
Al7 Ir6 2.544372 1_545
Al7 Ir5 2.611509 1_656
Al7 Ir4 2.630200 1_656
Al7 Ir0 2.630207 1_645
Al7 Si1 2.781105 1_656
Al7 Si2 2.781105 1_645
Al8 Ir6 2.538088 1_555
Al8 Ir2 2.668830 1_554
Al8 Ir0 2.691141 1_655
Al8 Ir1 2.691141 1_554
Al9 Ir6 2.538094 1_545
Al9 Ir2 2.668830 1_555
Al9 Ir3 2.691127 1_555
Al9 Ir4 2.691141 1_656
Al10 Ir6 2.513695 1_555
Al10 Ir1 2.675993 1_555
Al10 Ir3 2.676006 1_555
Al10 Ir5 2.702285 1_666
Al11 Ir6 2.513702 1_555
Al11 Ir0 2.675993 1_555
Al11 Ir4 2.676006 1_555
Al11 Ir5 2.702285 1_565
Si0 Ti5 2.467200 1_555
Si0 Ti1 2.479851 1_655
Si0 Ti3 2.479857 1_655
Si0 Ti4 2.479857 1_555
Si0 Ti0 2.479857 1_555
Si0 Ti2 2.487136 1_655
Si1 Ti0 2.661157 1_455
Si1 Ti1 2.661166 1_555
Si1 Ti2 2.712142 1_555
Si1 Ti7 2.745851 1_555
Si2 Ti3 2.661157 1_555
Si2 Ti4 2.661157 1_455
Si2 Ti2 2.712148 1_555
Si2 Ti6 2.745852 1_565
Ir0 Si2 2.412353 1_555
Ir0 Ti6 2.614837 1_565
Ir1 Si2 2.412360 1_555
Ir1 Ti6 2.614837 1_565
Ir2 Ti6 2.611823 1_555
Ir2 Ti7 2.611824 1_556
Ir3 Si1 2.412358 1_555
Ir3 Ti7 2.614851 1_555
Ir4 Si1 2.412338 1_555
Ir4 Ti7 2.614838 1_555
Ir5 Si2 2.423562 1_544
Ir5 Si1 2.423569 1_555
Ir5 Ti3 3.039621 1_544
Ir5 Ti0 3.039627 1_455
Ir5 Ti4 3.039627 1_444
Ir5 Ti1 3.039628 1_555
Ir6 Ti7 2.549358 1_555
Ir6 Ti6 2.549365 1_565
