# generated using pymatgen
data_AlHg2Ir3S8
_symmetry_space_group_name_H-M   'P 1'
_cell_length_a   7.19277006
_cell_length_b   7.19277039
_cell_length_c   7.19277077
_cell_angle_alpha   61.08869841
_cell_angle_beta   61.08869707
_cell_angle_gamma   61.08869391
_symmetry_Int_Tables_number   1
_chemical_formula_structural   AlHg2Ir3S8
_chemical_formula_sum   'Al1 Hg2 Ir3 S8'
_cell_volume   269.58079194
_cell_formula_units_Z   1
loop_
 _symmetry_equiv_pos_site_id
 _symmetry_equiv_pos_as_xyz
  1  'x, y, z'
loop_
 _atom_site_type_symbol
 _atom_site_label
 _atom_site_symmetry_multiplicity
 _atom_site_fract_x
 _atom_site_fract_y
 _atom_site_fract_z
 _atom_site_occupancy
  Al  Al0  1  0.62500000  0.62500000  0.62500000  1
  Hg  Hg0  1  0.24684348  0.24684348  0.24684348  1
  Hg  Hg1  1  0.00315652  0.00315652  0.00315652  1
  Ir  Ir0  1  0.12500000  0.62500000  0.62500000  1
  Ir  Ir1  1  0.62500000  0.12500000  0.62500000  1
  Ir  Ir2  1  0.62500000  0.62500000  0.12500000  1
  S  S0  1  0.82193720  0.39081150  0.39081150  1
  S  S1  1  0.39081150  0.82193720  0.39081150  1
  S  S2  1  0.39081150  0.39081150  0.82193720  1
  S  S3  1  0.39377062  0.39377062  0.39377062  1
  S  S4  1  0.42806280  0.85918850  0.85918850  1
  S  S5  1  0.85918850  0.42806280  0.85918850  1
  S  S6  1  0.85918850  0.85918850  0.42806280  1
  S  S7  1  0.85622938  0.85622938  0.85622938  1
loop_
_geom_bond_atom_site_label_1
_geom_bond_atom_site_label_2
_geom_bond_distance
_geom_bond_site_symmetry_2
Al0 S5 2.410529 1_555
Al0 S1 2.410529 1_555
Al0 S4 2.410529 1_555
Al0 S0 2.410529 1_555
Al0 S6 2.410529 1_555
Al0 S2 2.410529 1_555
Hg0 S0 2.530204 1_455
Hg0 S1 2.530204 1_545
Hg0 S2 2.530204 1_554
Hg0 S3 2.567149 1_555
Hg1 S4 2.530204 1_544
Hg1 S5 2.530204 1_454
Hg1 S6 2.530204 1_445
Hg1 S7 2.567149 1_444
Ir0 S2 2.386827 1_555
Ir0 S6 2.386827 1_455
Ir0 S1 2.386827 1_555
Ir0 S5 2.386827 1_455
Ir0 S7 2.393011 1_455
Ir0 S3 2.393011 1_555
Ir1 S2 2.386827 1_555
Ir1 S6 2.386827 1_545
Ir1 S0 2.386827 1_555
Ir1 S4 2.386827 1_545
Ir1 S7 2.393011 1_545
Ir1 S3 2.393011 1_555
Ir2 S1 2.386827 1_555
Ir2 S5 2.386827 1_554
Ir2 S0 2.386827 1_555
Ir2 S4 2.386827 1_554
Ir2 S7 2.393011 1_554
Ir2 S3 2.393011 1_555
