# generated using pymatgen
data_SnBSbS4
_symmetry_space_group_name_H-M   'P 1'
_cell_length_a   6.15041326
_cell_length_b   6.26873233
_cell_length_c   9.45937351
_cell_angle_alpha   90.00000000
_cell_angle_beta   107.76502442
_cell_angle_gamma   90.00000000
_symmetry_Int_Tables_number   1
_chemical_formula_structural   SnBSbS4
_chemical_formula_sum   'Sn2 B2 Sb2 S8'
_cell_volume   347.31808601
_cell_formula_units_Z   2
loop_
 _symmetry_equiv_pos_site_id
 _symmetry_equiv_pos_as_xyz
  1  'x, y, z'
loop_
 _atom_site_type_symbol
 _atom_site_label
 _atom_site_symmetry_multiplicity
 _atom_site_fract_x
 _atom_site_fract_y
 _atom_site_fract_z
 _atom_site_occupancy
  Sn  Sn0  1  0.72190808  0.32655992  0.43556244  1
  Sn  Sn1  1  0.27809192  0.82655992  0.56443756  1
  B  B0  1  0.16898558  0.24768433  0.20210373  1
  B  B1  1  0.83101442  0.74768433  0.79789627  1
  Sb  Sb0  1  0.70023060  0.24748684  0.83477168  1
  Sb  Sb1  1  0.29976940  0.74748684  0.16522832  1
  S  S0  1  0.42115412  0.23144208  0.58110273  1
  S  S1  1  0.57884588  0.73144208  0.41889727  1
  S  S2  1  0.01418518  0.49048202  0.20816419  1
  S  S3  1  0.98581482  0.99048202  0.79183581  1
  S  S4  1  0.97528400  0.50304456  0.77796440  1
  S  S5  1  0.02471600  0.00304456  0.22203560  1
  S  S6  1  0.44276871  0.24549925  0.16883810  1
  S  S7  1  0.55723129  0.74549925  0.83116190  1
loop_
_geom_bond_atom_site_label_1
_geom_bond_atom_site_label_2
_geom_bond_distance
_geom_bond_site_symmetry_2
B0 S6 1.804992 1_555
B0 S2 1.805450 1_555
B0 S5 1.810205 1_555
B1 S7 1.804992 1_555
B1 S3 1.805450 1_555
B1 S4 1.810205 1_555
S0 Sb0 2.490136 1_555
S0 Sn1 2.675137 1_545
S0 Sn0 2.688218 1_555
S1 Sb1 2.490136 1_555
S1 Sn0 2.675137 1_555
S1 Sn1 2.688218 1_555
S2 Sb1 2.506204 1_555
S3 Sb0 2.506204 1_565
S4 Sb0 2.504353 1_555
S5 Sb1 2.504353 1_545
S6 Sn0 2.632142 1_555
S7 Sn1 2.632142 1_555
