# generated using pymatgen
data_Rb4As2PdS8
_symmetry_space_group_name_H-M   'P 1'
_cell_length_a   6.75262752
_cell_length_b   7.17096253
_cell_length_c   9.43717347
_cell_angle_alpha   87.51385105
_cell_angle_beta   81.05630325
_cell_angle_gamma   84.73722219
_symmetry_Int_Tables_number   1
_chemical_formula_structural   Rb4As2PdS8
_chemical_formula_sum   'Rb4 As2 Pd1 S8'
_cell_volume   449.31870245
_cell_formula_units_Z   1
loop_
 _symmetry_equiv_pos_site_id
 _symmetry_equiv_pos_as_xyz
  1  'x, y, z'
loop_
 _atom_site_type_symbol
 _atom_site_label
 _atom_site_symmetry_multiplicity
 _atom_site_fract_x
 _atom_site_fract_y
 _atom_site_fract_z
 _atom_site_occupancy
  Rb  Rb0  1  0.28876150  0.32696351  0.13995076  1
  Rb  Rb1  1  0.74197401  0.22469590  0.48476657  1
  Rb  Rb2  1  0.25802599  0.77530410  0.51523343  1
  Rb  Rb3  1  0.71123850  0.67303649  0.86004924  1
  As  As0  1  0.83020776  0.73276429  0.26061272  1
  As  As1  1  0.16979224  0.26723571  0.73938728  1
  Pd  Pd0  1  0.00000000  0.00000000  0.00000000  1
  S  S0  1  0.68774021  0.97179348  0.14586966  1
  S  S1  1  0.77619527  0.47098033  0.18204917  1
  S  S2  1  0.13792632  0.81223884  0.17715815  1
  S  S3  1  0.76201847  0.74251605  0.49013404  1
  S  S4  1  0.23798153  0.25748395  0.50986596  1
  S  S5  1  0.86207368  0.18776116  0.82284185  1
  S  S6  1  0.22380473  0.52901967  0.81795083  1
  S  S7  1  0.31225979  0.02820652  0.85413034  1
loop_
_geom_bond_atom_site_label_1
_geom_bond_atom_site_label_2
_geom_bond_distance
_geom_bond_site_symmetry_2
Rb0 S6 3.382572 1_554
Rb0 S4 3.472870 1_555
Rb0 S1 3.486602 1_455
Rb0 S7 3.492345 1_554
Rb0 S0 3.538929 1_545
Rb0 S2 3.551753 1_555
Rb0 S1 3.622686 1_555
Rb0 S2 3.905219 1_545
Rb1 S1 3.281109 1_555
Rb1 S4 3.361704 1_555
Rb1 S5 3.405697 1_555
Rb1 S4 3.424257 1_655
Rb1 S3 3.446391 1_545
Rb1 S3 3.730939 1_555
Rb1 S0 3.826353 1_545
Rb2 S6 3.281109 1_555
Rb2 S3 3.361704 1_555
Rb2 S2 3.405697 1_555
Rb2 S3 3.424257 1_455
Rb2 S4 3.446391 1_565
Rb2 S4 3.730939 1_555
Rb2 S7 3.826353 1_565
Rb3 S1 3.382572 1_556
Rb3 S3 3.472870 1_555
Rb3 S6 3.486602 1_655
Rb3 S0 3.492345 1_556
Rb3 S7 3.538929 1_565
Rb3 S5 3.551753 1_555
Rb3 S6 3.622686 1_555
Rb3 S5 3.905219 1_565
As0 S1 2.130070 1_555
As0 S3 2.146097 1_555
As0 S0 2.212798 1_555
As0 S2 2.220865 1_655
As1 S6 2.130070 1_555
As1 S4 2.146097 1_555
As1 S7 2.212798 1_555
As1 S5 2.220865 1_455
Pd0 S7 2.352357 1_554
Pd0 S0 2.352357 1_445
Pd0 S2 2.352505 1_545
Pd0 S5 2.352505 1_454
Pd0 Rb0 3.598873 1_555
Pd0 Rb3 3.598873 1_444
