# generated using pymatgen
data_RbSnAsIr2
_symmetry_space_group_name_H-M   'P 1'
_cell_length_a   8.07194554
_cell_length_b   8.07194562
_cell_length_c   8.07194551
_cell_angle_alpha   150.56273434
_cell_angle_beta   150.56273520
_cell_angle_gamma   42.11599049
_symmetry_Int_Tables_number   1
_chemical_formula_structural   RbSnAsIr2
_chemical_formula_sum   'Rb1 Sn1 As1 Ir2'
_cell_volume   126.73386444
_cell_formula_units_Z   1
loop_
 _symmetry_equiv_pos_site_id
 _symmetry_equiv_pos_as_xyz
  1  'x, y, z'
loop_
 _atom_site_type_symbol
 _atom_site_label
 _atom_site_symmetry_multiplicity
 _atom_site_fract_x
 _atom_site_fract_y
 _atom_site_fract_z
 _atom_site_occupancy
  Rb  Rb0  1  0.01532424  0.01532424  1.00000000  1
  Sn  Sn0  1  0.35085612  0.35085612  0.00000000  1
  As  As0  1  0.65501816  0.65501816  1.00000000  1
  Ir  Ir0  1  0.73940074  0.23940074  0.50000000  1
  Ir  Ir1  1  0.23940074  0.73940074  0.50000000  1
loop_
_geom_bond_atom_site_label_1
_geom_bond_atom_site_label_2
_geom_bond_distance
_geom_bond_site_symmetry_2
Rb0 Sn0 3.814672 1_456
Rb0 Sn0 3.814672 1_546
Rb0 Sn0 3.814672 1_557
Rb0 Sn0 3.814672 1_445
As0 Ir1 2.412923 1_555
As0 Ir0 2.412923 1_555
As0 Ir1 2.412923 1_656
As0 Ir0 2.412923 1_566
As0 Rb0 3.583485 1_565
As0 Rb0 3.583485 1_655
As0 Rb0 3.583485 1_666
As0 Rb0 3.583485 1_554
Ir0 Sn0 2.650585 1_555
Ir0 Sn0 2.650585 1_656
Ir1 Sn0 2.650585 1_555
Ir1 Sn0 2.650585 1_566
