# generated using pymatgen
data_Ta2Be9W
_symmetry_space_group_name_H-M   'P 1'
_cell_length_a   7.40114795
_cell_length_b   7.40114823
_cell_length_c   7.40114799
_cell_angle_alpha   35.38676633
_cell_angle_beta   35.38676382
_cell_angle_gamma   35.38676233
_symmetry_Int_Tables_number   1
_chemical_formula_structural   Ta2Be9W
_chemical_formula_sum   'Ta2 Be9 W1'
_cell_volume   121.47181972
_cell_formula_units_Z   1
loop_
 _symmetry_equiv_pos_site_id
 _symmetry_equiv_pos_as_xyz
  1  'x, y, z'
loop_
 _atom_site_type_symbol
 _atom_site_label
 _atom_site_symmetry_multiplicity
 _atom_site_fract_x
 _atom_site_fract_y
 _atom_site_fract_z
 _atom_site_occupancy
  Ta  Ta0  1  0.14216601  0.14216601  0.14216601  1
  Ta  Ta1  1  0.99856931  0.99856931  0.99856931  1
  Be  Be0  1  0.41621901  0.92166201  0.41621901  1
  Be  Be1  1  0.41621901  0.41621901  0.92166201  1
  Be  Be2  1  0.92166201  0.41621901  0.41621901  1
  Be  Be3  1  0.58546769  0.07472023  0.58546769  1
  Be  Be4  1  0.58546769  0.58546769  0.07472023  1
  Be  Be5  1  0.07472023  0.58546769  0.58546769  1
  Be  Be6  1  0.66603577  0.66603577  0.66603577  1
  Be  Be7  1  0.33511568  0.33511568  0.33511568  1
  Be  Be8  1  0.50005687  0.50005687  0.50005687  1
  W  W0  1  0.85830373  0.85830373  0.85830373  1
loop_
_geom_bond_atom_site_label_1
_geom_bond_atom_site_label_2
_geom_bond_distance
_geom_bond_site_symmetry_2
Ta0 W0 2.793604 1_544
Ta0 W0 2.793604 1_445
Ta0 W0 2.793604 1_454
Ta0 Ta1 2.985556 1_444
Ta1 W0 2.916298 1_555
Be0 Be6 2.140845 1_555
Be0 Be7 2.163791 1_565
Be0 Be8 2.195568 1_555
Be0 Be2 2.224892 1_465
Be0 Be1 2.224893 1_564
Be0 Be2 2.273866 1_555
Be0 Be1 2.273866 1_555
Be0 W0 2.569457 1_554
Be0 W0 2.569457 1_455
Be0 Ta0 2.608611 1_565
Be0 Ta1 2.804224 1_455
Be0 Ta1 2.804224 1_554
Be1 Be6 2.140845 1_555
Be1 Be7 2.163791 1_556
Be1 Be8 2.195568 1_555
Be1 Be2 2.224893 1_456
Be1 Be2 2.273866 1_555
Be1 W0 2.569457 1_455
Be1 W0 2.569457 1_545
Be1 Ta0 2.608612 1_556
Be1 Ta1 2.804224 1_545
Be1 Ta1 2.804224 1_455
Be2 Be6 2.140845 1_555
Be2 Be7 2.163791 1_655
Be2 Be8 2.195567 1_555
Be2 W0 2.569457 1_554
Be2 W0 2.569457 1_545
Be2 Ta0 2.608611 1_655
Be2 Ta1 2.804224 1_545
Be2 Ta1 2.804224 1_554
Be3 Be7 2.129211 1_555
Be3 Be6 2.134988 1_545
Be3 Be5 2.201029 1_645
Be3 Be4 2.201029 1_546
Be3 Be8 2.207076 1_555
Be3 Be5 2.297729 1_555
Be3 Be4 2.297730 1_555
Be3 Ta0 2.575127 1_556
Be3 Ta0 2.575128 1_655
Be3 W0 2.611861 1_545
Be3 Ta1 2.839216 1_544
Be3 Ta1 2.839216 1_445
Be4 Be7 2.129212 1_555
Be4 Be6 2.134988 1_554
Be4 Be5 2.201029 1_654
Be4 Be8 2.207075 1_555
Be4 Be5 2.297729 1_555
Be4 Ta0 2.575127 1_655
Be4 Ta0 2.575128 1_565
Be4 W0 2.611861 1_554
Be4 Ta1 2.839216 1_454
Be4 Ta1 2.839216 1_544
Be5 Be7 2.129211 1_555
Be5 Be6 2.134988 1_455
Be5 Be8 2.207075 1_555
Be5 Ta0 2.575128 1_556
Be5 Ta0 2.575128 1_565
Be5 W0 2.611861 1_455
Be5 Ta1 2.839216 1_454
Be5 Ta1 2.839217 1_445
Be6 Ta1 2.597413 1_455
Be6 Ta1 2.597413 1_545
Be6 Ta1 2.597413 1_554
Be7 Ta1 2.598218 1_544
Be7 Ta1 2.598218 1_454
Be7 Ta1 2.598219 1_445
Be8 Ta0 2.647068 1_655
Be8 Ta0 2.647068 1_565
Be8 Ta0 2.647068 1_556
Be8 W0 2.648506 1_455
Be8 W0 2.648506 1_545
Be8 W0 2.648506 1_554
