# generated using pymatgen
data_KCo3Sb12Os
_symmetry_space_group_name_H-M   'P 1'
_cell_length_a   7.92117427
_cell_length_b   7.97514981
_cell_length_c   7.97515097
_cell_angle_alpha   109.60791680
_cell_angle_beta   109.33417459
_cell_angle_gamma   109.33417039
_symmetry_Int_Tables_number   1
_chemical_formula_structural   KCo3Sb12Os
_chemical_formula_sum   'K1 Co3 Sb12 Os1'
_cell_volume   388.48764673
_cell_formula_units_Z   1
loop_
 _symmetry_equiv_pos_site_id
 _symmetry_equiv_pos_as_xyz
  1  'x, y, z'
loop_
 _atom_site_type_symbol
 _atom_site_label
 _atom_site_symmetry_multiplicity
 _atom_site_fract_x
 _atom_site_fract_y
 _atom_site_fract_z
 _atom_site_occupancy
  K  K0  1  0.00000000  0.00000000  0.00000000  1
  Co  Co0  1  0.00000000  0.00000000  0.50000000  1
  Co  Co1  1  0.00000000  0.50000000  0.00000000  1
  Co  Co2  1  0.50000000  0.50000000  0.50000000  1
  Sb  Sb0  1  0.33417942  0.18069497  0.83621069  1
  Sb  Sb1  1  0.66582058  0.81930503  0.16378931  1
  Sb  Sb2  1  0.66193435  0.50185109  0.83947281  1
  Sb  Sb3  1  0.33806565  0.49814891  0.16052719  1
  Sb  Sb4  1  0.17753945  0.83947281  0.33762071  1
  Sb  Sb5  1  0.82246055  0.16052719  0.66237929  1
  Sb  Sb6  1  0.50203127  0.83621069  0.65551672  1
  Sb  Sb7  1  0.49796873  0.16378931  0.34448328  1
  Sb  Sb8  1  0.84651555  0.34448328  0.18069497  1
  Sb  Sb9  1  0.15348445  0.65551672  0.81930503  1
  Sb  Sb10  1  0.83991874  0.66237929  0.50185109  1
  Sb  Sb11  1  0.16008126  0.33762071  0.49814891  1
  Os  Os0  1  0.50000000  0.00000000  0.00000000  1
loop_
_geom_bond_atom_site_label_1
_geom_bond_atom_site_label_2
_geom_bond_distance
_geom_bond_site_symmetry_2
K0 Sb8 3.437599 1_455
K0 Sb9 3.437599 1_544
K0 Sb7 3.437603 1_555
K0 Sb6 3.437603 1_444
K0 Sb0 3.437605 1_554
K0 Sb1 3.437605 1_445
K0 Sb4 3.444573 1_545
K0 Sb5 3.444573 1_454
K0 Sb3 3.444577 1_555
K0 Sb2 3.444577 1_444
K0 Sb11 3.444580 1_555
K0 Sb10 3.444580 1_444
Co0 Sb0 2.540527 1_555
Co0 Sb1 2.540527 1_445
Co0 Sb5 2.564973 1_455
Co0 Sb4 2.564973 1_545
Co0 Sb11 2.576118 1_555
Co0 Sb10 2.576118 1_445
Co1 Sb9 2.540530 1_554
Co1 Sb8 2.540530 1_455
Co1 Sb3 2.564962 1_555
Co1 Sb2 2.564962 1_454
Co1 Sb4 2.576123 1_555
Co1 Sb5 2.576123 1_454
Co2 Sb6 2.540527 1_555
Co2 Sb7 2.540527 1_555
Co2 Sb10 2.564977 1_555
Co2 Sb11 2.564977 1_555
Co2 Sb2 2.576128 1_555
Co2 Sb3 2.576128 1_555
Sb0 Sb3 2.932783 1_556
Sb0 Sb2 2.967921 1_555
Sb1 Sb2 2.932783 1_554
Sb1 Sb3 2.967921 1_555
Sb4 Sb7 2.932779 1_565
Sb4 Sb6 2.967926 1_555
Sb5 Sb6 2.932779 1_545
Sb5 Sb7 2.967926 1_555
Sb10 Sb9 2.932774 1_655
Sb10 Sb8 2.967921 1_555
Sb11 Sb8 2.932774 1_455
Sb11 Sb9 2.967921 1_555
Os0 Sb7 2.624660 1_555
Os0 Sb6 2.624660 1_544
Os0 Sb8 2.624663 1_555
Os0 Sb9 2.624663 1_544
Os0 Sb1 2.624666 1_545
Os0 Sb0 2.624666 1_554
