# generated using pymatgen
data_Ba6ScAlP6
_symmetry_space_group_name_H-M   'P 1'
_cell_length_a   10.43535741
_cell_length_b   10.43535749
_cell_length_c   13.12075093
_cell_angle_alpha   90.00000000
_cell_angle_beta   90.00000000
_cell_angle_gamma   141.31364274
_symmetry_Int_Tables_number   1
_chemical_formula_structural   Ba6ScAlP6
_chemical_formula_sum   'Ba12 Sc2 Al2 P12'
_cell_volume   893.08509635
_cell_formula_units_Z   2
loop_
 _symmetry_equiv_pos_site_id
 _symmetry_equiv_pos_as_xyz
  1  'x, y, z'
loop_
 _atom_site_type_symbol
 _atom_site_label
 _atom_site_symmetry_multiplicity
 _atom_site_fract_x
 _atom_site_fract_y
 _atom_site_fract_z
 _atom_site_occupancy
  Ba  Ba0  1  0.84319019  0.84744284  0.34265558  1
  Ba  Ba1  1  0.15255716  0.15680981  0.65734442  1
  Ba  Ba2  1  0.65255716  0.65680981  0.84265558  1
  Ba  Ba3  1  0.34319019  0.34744284  0.15734442  1
  Ba  Ba4  1  0.85545867  0.49489847  0.13263470  1
  Ba  Ba5  1  0.50510153  0.14454133  0.86736530  1
  Ba  Ba6  1  0.00510153  0.64454133  0.63263470  1
  Ba  Ba7  1  0.35545867  0.99489847  0.36736530  1
  Ba  Ba8  1  0.14014663  0.49144749  0.87012502  1
  Ba  Ba9  1  0.50855251  0.85985337  0.12987498  1
  Ba  Ba10  1  0.00855251  0.35985337  0.37012502  1
  Ba  Ba11  1  0.64014663  0.99144749  0.62987498  1
  Sc  Sc0  1  0.08199215  0.91800785  0.00000000  1
  Sc  Sc1  1  0.58199215  0.41800785  0.50000000  1
  Al  Al0  1  0.91774278  0.08225722  0.00000000  1
  Al  Al1  1  0.41774278  0.58225722  0.50000000  1
  P  P0  1  0.78853779  0.79954274  0.09408074  1
  P  P1  1  0.20045726  0.21146221  0.90591926  1
  P  P2  1  0.70045726  0.71146221  0.59408074  1
  P  P3  1  0.28853779  0.29954274  0.40591926  1
  P  P4  1  0.03104926  0.33891795  0.11567213  1
  P  P5  1  0.66108205  0.96895074  0.88432787  1
  P  P6  1  0.16108205  0.46895074  0.61567213  1
  P  P7  1  0.53104926  0.83891795  0.38432787  1
  P  P8  1  0.95724918  0.64311716  0.88024877  1
  P  P9  1  0.35688284  0.04275082  0.11975123  1
  P  P10  1  0.85688284  0.54275082  0.38024877  1
  P  P11  1  0.45724918  0.14311716  0.61975123  1
loop_
_geom_bond_atom_site_label_1
_geom_bond_atom_site_label_2
_geom_bond_distance
_geom_bond_site_symmetry_2
Ba0 P3 3.211817 1_665
Ba0 P7 3.234890 1_555
Ba0 P0 3.281368 1_555
Ba0 P10 3.329061 1_555
Ba0 P2 3.437316 1_555
Ba1 P2 3.211817 1_445
Ba1 P6 3.234890 1_555
Ba1 P1 3.281368 1_555
Ba1 P11 3.329061 1_555
Ba1 P3 3.437316 1_555
Ba2 P1 3.211817 1_555
Ba2 P5 3.234890 1_555
Ba2 P2 3.281368 1_555
Ba2 P8 3.329061 1_555
Ba2 P0 3.437316 1_556
Ba3 P0 3.211817 1_555
Ba3 P4 3.234890 1_555
Ba3 P3 3.281368 1_555
Ba3 P9 3.329061 1_555
Ba3 P1 3.437316 1_554
Ba4 P4 3.273027 1_655
Ba4 P10 3.285305 1_555
Ba4 P9 3.322084 1_555
Ba4 Sc0 3.437581 1_655
Ba4 P8 3.452784 1_554
Ba4 P9 3.659383 1_665
Ba4 P0 3.783646 1_555
Ba5 P5 3.273027 1_545
Ba5 P11 3.285305 1_555
Ba5 P8 3.322084 1_555
Ba5 Sc0 3.437581 1_546
Ba5 P9 3.452784 1_556
Ba5 P8 3.659383 1_445
Ba5 P1 3.783646 1_555
Ba6 P6 3.273027 1_555
Ba6 P8 3.285305 1_455
Ba6 P11 3.322084 1_565
Ba6 Sc1 3.437581 1_455
Ba6 P10 3.452784 1_455
Ba6 P11 3.659383 1_455
Ba6 P2 3.783646 1_455
Ba7 P7 3.273027 1_555
Ba7 P9 3.285305 1_565
Ba7 P10 3.322084 1_455
Ba7 Sc1 3.437581 1_565
Ba7 P11 3.452784 1_565
Ba7 P10 3.659383 1_565
Ba7 P3 3.783646 1_565
Ba8 P8 3.298691 1_455
Ba8 P6 3.365895 1_555
Ba8 P4 3.373484 1_556
Ba8 P1 3.467562 1_555
Ba8 P5 3.482445 1_555
Ba8 P5 3.493142 1_445
Ba9 P9 3.298691 1_565
Ba9 P7 3.365895 1_555
Ba9 P5 3.373484 1_554
Ba9 P0 3.467562 1_555
Ba9 P4 3.482445 1_555
Ba9 P4 3.493142 1_665
Ba10 P10 3.298691 1_455
Ba10 P4 3.365895 1_555
Ba10 P6 3.373484 1_555
Ba10 P3 3.467562 1_555
Ba10 P7 3.482445 1_445
Ba10 P7 3.493142 1_555
Ba11 P11 3.298691 1_565
Ba11 P5 3.365895 1_555
Ba11 P7 3.373484 1_555
Ba11 P2 3.467562 1_555
Ba11 P6 3.482445 1_665
Ba11 P6 3.493142 1_555
Al0 P1 2.415690 1_654
Al0 P0 2.415690 1_545
Al0 P5 2.435375 1_544
Al0 P4 2.435375 1_655
Al0 Ba9 3.324475 1_545
Al0 Ba8 3.324475 1_654
Al1 P2 2.415690 1_555
Al1 P3 2.415690 1_555
Al1 P6 2.435375 1_555
Al1 P7 2.435375 1_555
Al1 Ba10 3.324475 1_555
Al1 Ba11 3.324475 1_555
P0 Sc0 2.553358 1_655
P1 Sc0 2.553358 1_546
P2 Sc1 2.553358 1_555
P3 Sc1 2.553358 1_555
P8 Sc0 2.561728 1_656
P9 Sc0 2.561728 1_545
P10 Sc1 2.561728 1_555
P11 Sc1 2.561728 1_555
