# generated using pymatgen
data_Ba10PWN10
_symmetry_space_group_name_H-M   'P 1'
_cell_length_a   8.04207129
_cell_length_b   8.04207099
_cell_length_c   9.39709832
_cell_angle_alpha   76.16224720
_cell_angle_beta   76.16224670
_cell_angle_gamma   95.82526264
_symmetry_Int_Tables_number   1
_chemical_formula_structural   Ba10PWN10
_chemical_formula_sum   'Ba10 P1 W1 N10'
_cell_volume   564.81449154
_cell_formula_units_Z   1
loop_
 _symmetry_equiv_pos_site_id
 _symmetry_equiv_pos_as_xyz
  1  'x, y, z'
loop_
 _atom_site_type_symbol
 _atom_site_label
 _atom_site_symmetry_multiplicity
 _atom_site_fract_x
 _atom_site_fract_y
 _atom_site_fract_z
 _atom_site_occupancy
  Ba  Ba0  1  0.38944443  0.40488591  0.37375282  1
  Ba  Ba1  1  0.59511409  0.61055557  0.62624718  1
  Ba  Ba2  1  0.66828971  0.66949686  0.00433387  1
  Ba  Ba3  1  0.33050314  0.33171029  0.99566613  1
  Ba  Ba4  1  0.93161071  0.91421011  0.20280325  1
  Ba  Ba5  1  0.08578989  0.06838929  0.79719675  1
  Ba  Ba6  1  0.55100447  0.08390402  0.75595814  1
  Ba  Ba7  1  0.91609598  0.44899553  0.24404186  1
  Ba  Ba8  1  0.43128489  0.90073651  0.24114427  1
  Ba  Ba9  1  0.09926349  0.56871511  0.75885573  1
  P  P0  1  0.24178588  0.75821412  0.00000000  1
  W  W0  1  0.75823397  0.24176603  0.00000000  1
  N  N0  1  0.65320749  0.65264394  0.31278575  1
  N  N1  1  0.34735606  0.34679251  0.68721425  1
  N  N2  1  0.71912092  0.01390574  0.98459460  1
  N  N3  1  0.98609426  0.28087908  0.01540540  1
  N  N4  1  0.27900327  0.96640316  0.00466456  1
  N  N5  1  0.03359684  0.72099673  0.99533544  1
  N  N6  1  0.37710448  0.72896867  0.84547845  1
  N  N7  1  0.27103133  0.62289552  0.15452055  1
  N  N8  1  0.59959986  0.26453813  0.17368863  1
  N  N9  1  0.73546187  0.40040014  0.82631037  1
loop_
_geom_bond_atom_site_label_1
_geom_bond_atom_site_label_2
_geom_bond_distance
_geom_bond_site_symmetry_2
Ba0 N0 2.610065 1_555
Ba0 N8 2.747209 1_555
Ba0 N7 2.788284 1_555
Ba0 N1 2.800401 1_555
Ba1 N1 2.610065 1_555
Ba1 N9 2.747203 1_555
Ba1 N6 2.788278 1_555
Ba1 N0 2.800401 1_555
Ba2 N2 2.713158 1_564
Ba2 N0 2.841700 1_555
Ba2 N5 2.902918 1_654
Ba2 N9 3.051315 1_554
Ba2 N6 3.082017 1_554
Ba2 N7 3.112242 1_555
Ba2 N8 3.190465 1_555
Ba3 N3 2.713158 1_456
Ba3 N1 2.841700 1_555
Ba3 N4 2.902918 1_546
Ba3 N8 3.051309 1_556
Ba3 N7 3.082011 1_556
Ba3 N6 3.112244 1_555
Ba3 N9 3.190467 1_555
Ba4 N0 2.720847 1_555
Ba4 N5 2.798377 1_654
Ba4 N4 2.889274 1_655
Ba4 N3 2.978770 1_565
Ba4 N2 2.989236 1_564
Ba5 N1 2.720847 1_555
Ba5 N4 2.798377 1_546
Ba5 N5 2.889274 1_545
Ba5 N2 2.978770 1_455
Ba5 N3 2.989236 1_456
Ba6 N4 2.686734 1_546
Ba6 N2 2.779639 1_555
Ba6 N1 2.850419 1_555
Ba6 N6 2.879149 1_545
Ba6 N9 3.102203 1_555
Ba7 N5 2.686734 1_654
Ba7 N3 2.779639 1_555
Ba7 N0 2.850419 1_555
Ba7 N7 2.879149 1_655
Ba7 N8 3.102208 1_555
Ba8 N4 2.754755 1_555
Ba8 N2 2.802146 1_564
Ba8 N7 2.846661 1_555
Ba8 N0 2.876494 1_555
Ba8 N8 2.948291 1_565
Ba9 N5 2.754755 1_555
Ba9 N3 2.802146 1_456
Ba9 N6 2.846656 1_555
Ba9 N1 2.876494 1_555
Ba9 N9 2.948292 1_455
N2 W0 1.873370 1_556
N3 W0 1.873370 1_555
N4 P0 1.683552 1_555
N5 P0 1.683552 1_556
N6 P0 1.675556 1_556
N7 P0 1.675549 1_555
N8 W0 1.876012 1_555
N9 W0 1.876019 1_556
