# generated using pymatgen
data_TiMnV3W
_symmetry_space_group_name_H-M   'P 1'
_cell_length_a   4.83369970
_cell_length_b   4.83369787
_cell_length_c   4.83369818
_cell_angle_alpha   61.70577416
_cell_angle_beta   61.70578492
_cell_angle_gamma   61.70577126
_symmetry_Int_Tables_number   1
_chemical_formula_structural   TiMnV3W
_chemical_formula_sum   'Ti1 Mn1 V3 W1'
_cell_volume   82.91235655
_cell_formula_units_Z   1
loop_
 _symmetry_equiv_pos_site_id
 _symmetry_equiv_pos_as_xyz
  1  'x, y, z'
loop_
 _atom_site_type_symbol
 _atom_site_label
 _atom_site_symmetry_multiplicity
 _atom_site_fract_x
 _atom_site_fract_y
 _atom_site_fract_z
 _atom_site_occupancy
  Ti  Ti0  1  0.62567524  0.62567524  0.62567524  1
  Mn  Mn0  1  0.99957425  0.99957425  0.99957425  1
  V  V0  1  0.00018235  0.49971403  0.00018235  1
  V  V1  1  0.49971403  0.00018235  0.00018235  1
  V  V2  1  0.00018235  0.00018235  0.49971403  1
  W  W0  1  0.37467179  0.37467179  0.37467179  1
loop_
_geom_bond_atom_site_label_1
_geom_bond_atom_site_label_2
_geom_bond_distance
_geom_bond_site_symmetry_2
Ti0 V1 2.818087 1_566
Ti0 V0 2.818087 1_656
Ti0 V2 2.818088 1_665
Ti0 V2 2.881076 1_655
Ti0 V1 2.881076 1_565
Ti0 V1 2.881076 1_556
Ti0 V0 2.881077 1_655
Ti0 V2 2.881077 1_565
Ti0 V0 2.881078 1_556
Ti0 W0 2.933015 1_555
Ti0 W0 3.019722 1_565
Ti0 W0 3.019723 1_556
Ti0 W0 3.019724 1_655
Mn0 V0 2.413390 1_656
Mn0 V2 2.413391 1_665
Mn0 V1 2.413391 1_566
Mn0 V0 2.420315 1_666
Mn0 V2 2.420315 1_666
Mn0 V1 2.420316 1_666
Mn0 Ti0 2.901362 1_565
Mn0 Ti0 2.901362 1_556
Mn0 Ti0 2.901362 1_655
Mn0 W0 2.903682 1_656
Mn0 W0 2.903683 1_665
Mn0 W0 2.903683 1_566
V0 V2 2.476570 1_555
V0 V1 2.476570 1_555
V0 V2 2.481214 1_564
V0 V1 2.481214 1_465
V0 W0 2.819691 1_555
V0 W0 2.879324 1_554
V0 W0 2.879325 1_455
V1 V2 2.476571 1_555
V1 V2 2.481215 1_654
V1 W0 2.819691 1_555
V1 W0 2.879324 1_554
V1 W0 2.879324 1_545
V2 W0 2.819692 1_555
V2 W0 2.879324 1_545
V2 W0 2.879325 1_455
