# generated using pymatgen
data_Zr2As2PdRu
_symmetry_space_group_name_H-M   'P 1'
_cell_length_a   3.94746370
_cell_length_b   6.67232057
_cell_length_c   7.64209071
_cell_angle_alpha   90.00000000
_cell_angle_beta   90.00000000
_cell_angle_gamma   90.00000000
_symmetry_Int_Tables_number   1
_chemical_formula_structural   Zr2As2PdRu
_chemical_formula_sum   'Zr4 As4 Pd2 Ru2'
_cell_volume   201.28306532
_cell_formula_units_Z   2
loop_
 _symmetry_equiv_pos_site_id
 _symmetry_equiv_pos_as_xyz
  1  'x, y, z'
loop_
 _atom_site_type_symbol
 _atom_site_label
 _atom_site_symmetry_multiplicity
 _atom_site_fract_x
 _atom_site_fract_y
 _atom_site_fract_z
 _atom_site_occupancy
  Zr  Zr0  1  0.75000000  0.53176555  0.31812266  1
  Zr  Zr1  1  0.25000000  0.97349285  0.81452384  1
  Zr  Zr2  1  0.75000000  0.03176555  0.18187734  1
  Zr  Zr3  1  0.25000000  0.47349285  0.68547616  1
  As  As0  1  0.25000000  0.74888115  0.11229873  1
  As  As1  1  0.25000000  0.24888115  0.38770127  1
  As  As2  1  0.75000000  0.25956365  0.86694943  1
  As  As3  1  0.75000000  0.75956365  0.63305057  1
  Pd  Pd0  1  0.25000000  0.35121232  0.06861550  1
  Pd  Pd1  1  0.25000000  0.85121232  0.43138450  1
  Ru  Ru0  1  0.75000000  0.13508448  0.55436812  1
  Ru  Ru1  1  0.75000000  0.63508448  0.94563188  1
loop_
_geom_bond_atom_site_label_1
_geom_bond_atom_site_label_2
_geom_bond_distance
_geom_bond_site_symmetry_2
As0 Ru1 2.468685 1_454
As0 Ru1 2.468685 1_554
As0 Pd1 2.532270 1_555
As0 Pd0 2.674292 1_555
As0 Zr1 2.724794 1_554
As0 Zr2 2.782263 1_465
As0 Zr2 2.782263 1_565
As0 Zr0 2.910041 1_555
As0 Zr0 2.910041 1_455
As1 Ru0 2.468685 1_555
As1 Ru0 2.468685 1_455
As1 Pd0 2.532270 1_555
As1 Pd1 2.674292 1_545
As1 Zr3 2.724794 1_555
As1 Zr0 2.782263 1_555
As1 Zr0 2.782263 1_455
As1 Zr2 2.910041 1_455
As1 Zr2 2.910041 1_555
As2 Ru0 2.529048 1_555
As2 Ru1 2.576736 1_555
As2 Pd0 2.577733 1_556
As2 Pd0 2.577733 1_656
As2 Zr1 2.774794 1_645
As2 Zr1 2.774794 1_545
As2 Zr3 2.802929 1_555
As2 Zr3 2.802929 1_655
As2 Zr2 2.846483 1_556
As3 Ru1 2.529048 1_555
As3 Ru0 2.576736 1_565
As3 Pd1 2.577733 1_655
As3 Pd1 2.577733 1_555
As3 Zr3 2.774794 1_655
As3 Zr3 2.774794 1_555
As3 Zr1 2.802929 1_655
As3 Zr1 2.802929 1_555
As3 Zr0 2.846483 1_555
Pd0 Ru1 2.892490 1_554
Pd0 Ru1 2.892490 1_454
Pd0 Zr0 2.997109 1_455
Pd0 Zr0 2.997109 1_555
Pd0 Zr2 3.031153 1_455
Pd0 Zr2 3.031153 1_555
Pd0 Zr3 3.039537 1_554
Pd0 Zr1 3.181555 1_544
Pd1 Ru0 2.892490 1_565
Pd1 Ru0 2.892490 1_465
Pd1 Zr2 2.997109 1_465
Pd1 Zr2 2.997109 1_565
Pd1 Zr0 3.031153 1_555
Pd1 Zr0 3.031153 1_455
Pd1 Zr1 3.039537 1_555
Pd1 Zr3 3.181555 1_555
Ru0 Zr2 2.928894 1_555
Ru0 Zr1 3.001798 1_645
Ru0 Zr1 3.001798 1_545
Ru0 Zr3 3.161950 1_655
Ru0 Zr3 3.161950 1_555
Ru0 Zr0 3.203898 1_555
Ru1 Zr0 2.928894 1_556
Ru1 Zr3 3.001798 1_555
Ru1 Zr3 3.001798 1_655
Ru1 Zr1 3.161950 1_655
Ru1 Zr1 3.161950 1_555
Ru1 Zr2 3.203898 1_566
