# generated using pymatgen
data_HfSc5(PRu)6
_symmetry_space_group_name_H-M   'P 1'
_cell_length_a   7.46585543
_cell_length_b   7.46486276
_cell_length_c   7.46585560
_cell_angle_alpha   128.06768418
_cell_angle_beta   121.54352044
_cell_angle_gamma   81.97098779
_symmetry_Int_Tables_number   1
_chemical_formula_structural   HfSc5(PRu)6
_chemical_formula_sum   'Hf1 Sc5 P6 Ru6'
_cell_volume   268.60229282
_cell_formula_units_Z   1
loop_
 _symmetry_equiv_pos_site_id
 _symmetry_equiv_pos_as_xyz
  1  'x, y, z'
loop_
 _atom_site_type_symbol
 _atom_site_label
 _atom_site_symmetry_multiplicity
 _atom_site_fract_x
 _atom_site_fract_y
 _atom_site_fract_z
 _atom_site_occupancy
  Hf  Hf0  1  0.94940734  0.65344945  0.20404211  1
  Sc  Sc0  1  0.46420786  0.68402904  0.71982219  1
  Sc  Sc1  1  0.53646192  0.25477306  0.21831214  1
  Sc  Sc2  1  0.74803672  0.83809751  0.59006078  1
  Sc  Sc3  1  0.25189613  0.84025309  0.08835596  1
  Sc  Sc4  1  0.05022245  0.25706280  0.70684035  1
  P  P0  1  0.26621306  0.27025421  0.50404216  1
  P  P1  1  0.73012582  0.22138511  0.99126029  1
  P  P2  1  0.33143435  0.58706796  0.25142884  1
  P  P3  1  0.66992614  0.92127628  0.25753438  1
  P  P4  1  0.16374190  0.92127628  0.75134915  1
  P  P5  1  0.83563912  0.58706796  0.75563361  1
  Ru  Ru0  1  0.50875176  0.49716187  0.00390602  1
  Ru  Ru1  1  0.99325584  0.49716187  0.48841010  1
  Ru  Ru2  1  0.10433729  0.25548998  0.11503318  1
  Ru  Ru3  1  0.90169163  0.00915328  0.15495540  1
  Ru  Ru4  1  0.35419788  0.00915328  0.60746165  1
  Ru  Ru5  1  0.64045680  0.25548998  0.65115269  1
loop_
_geom_bond_atom_site_label_1
_geom_bond_atom_site_label_2
_geom_bond_distance
_geom_bond_site_symmetry_2
Hf0 P4 2.689290 1_655
Hf0 P3 2.689296 1_555
Hf0 P2 2.696505 1_655
Hf0 P5 2.696505 1_554
Hf0 Ru5 2.830995 1_554
Hf0 Ru2 2.830995 1_655
Hf0 P1 2.835809 1_554
Hf0 Ru4 2.847962 1_665
Hf0 Ru3 2.847962 1_565
Hf0 Ru0 2.862900 1_555
Hf0 Ru1 2.862900 1_555
P0 Ru4 2.407092 1_555
P0 Ru3 2.407097 1_455
P0 Ru5 2.424378 1_555
P0 Ru2 2.424384 1_555
P0 Ru0 2.462969 1_556
P0 Ru1 2.462975 1_455
P0 Sc0 2.639782 1_555
P0 Sc3 2.722199 1_545
P0 Sc4 2.772212 1_555
P1 Ru3 2.413946 1_556
P1 Ru4 2.413952 1_555
P1 Ru2 2.435463 1_656
P1 Ru5 2.435468 1_555
P1 Ru1 2.439583 1_556
P1 Ru0 2.439588 1_556
P1 Sc2 2.630544 1_545
P1 Sc1 2.639860 1_556
P2 Ru2 2.509134 1_555
P2 Ru4 2.524039 1_565
P2 Ru0 2.529809 1_555
P2 Sc2 2.671255 1_555
P2 Sc1 2.671374 1_555
P2 Sc4 2.677557 1_554
P2 Sc3 2.678542 1_555
P2 Sc0 2.680939 1_555
P3 Ru3 2.516740 1_565
P3 Ru0 2.518760 1_555
P3 Ru5 2.527957 1_565
P3 Sc0 2.674430 1_554
P3 Sc3 2.676244 1_555
P3 Sc2 2.678414 1_555
P3 Sc1 2.678993 1_565
P3 Sc4 2.692735 1_665
P4 Ru4 2.516733 1_565
P4 Ru1 2.518762 1_455
P4 Ru2 2.527961 1_566
P4 Sc0 2.674434 1_555
P4 Sc3 2.676246 1_556
P4 Sc2 2.678416 1_455
P4 Sc1 2.678999 1_566
P4 Sc4 2.692732 1_565
P5 Ru5 2.509134 1_555
P5 Ru3 2.524039 1_566
P5 Ru1 2.529809 1_555
P5 Sc2 2.671255 1_555
P5 Sc1 2.671368 1_555
P5 Sc4 2.677557 1_655
P5 Sc3 2.678536 1_656
P5 Sc0 2.680934 1_555
Ru0 Ru5 2.740844 1_554
Ru0 Ru4 2.768938 1_554
Ru0 Sc2 2.859223 1_555
Ru0 Sc3 2.921646 1_555
Ru0 Sc4 2.952698 1_554
Ru0 Sc1 2.999954 1_555
Ru0 Sc0 3.055432 1_554
Ru1 Ru2 2.740844 1_655
Ru1 Ru3 2.768938 1_555
Ru1 Sc2 2.859223 1_555
Ru1 Sc3 2.921641 1_656
Ru1 Sc4 2.952698 1_655
Ru1 Sc1 2.999949 1_555
Ru1 Sc0 3.055436 1_655
Ru2 Ru3 2.772016 1_455
Ru2 Sc4 2.864479 1_554
Ru2 Sc1 2.898331 1_555
Ru2 Sc2 2.914259 1_444
Ru2 Sc3 3.061977 1_545
Ru2 Sc0 3.120144 1_555
Ru3 Sc4 2.832117 1_655
Ru3 Sc3 2.887756 1_645
Ru3 Sc0 2.915746 1_544
Ru3 Sc2 3.072339 1_544
Ru3 Sc1 3.147073 1_555
Ru4 Ru5 2.772016 1_555
Ru4 Sc4 2.832117 1_555
Ru4 Sc3 2.887761 1_545
Ru4 Sc0 2.915751 1_545
Ru4 Sc2 3.072339 1_545
Ru4 Sc1 3.147078 1_556
Ru5 Sc4 2.864479 1_655
Ru5 Sc1 2.898326 1_555
Ru5 Sc2 2.914259 1_545
Ru5 Sc3 3.061981 1_545
Ru5 Sc0 3.120140 1_555
