# generated using pymatgen
data_Hf2Zr3GaSb3
_symmetry_space_group_name_H-M   'P 1'
_cell_length_a   8.65246347
_cell_length_b   8.65246354
_cell_length_c   5.78525564
_cell_angle_alpha   90.00000000
_cell_angle_beta   90.00000000
_cell_angle_gamma   119.99999976
_symmetry_Int_Tables_number   1
_chemical_formula_structural   Hf2Zr3GaSb3
_chemical_formula_sum   'Hf4 Zr6 Ga2 Sb6'
_cell_volume   375.08762833
_cell_formula_units_Z   2
loop_
 _symmetry_equiv_pos_site_id
 _symmetry_equiv_pos_as_xyz
  1  'x, y, z'
loop_
 _atom_site_type_symbol
 _atom_site_label
 _atom_site_symmetry_multiplicity
 _atom_site_fract_x
 _atom_site_fract_y
 _atom_site_fract_z
 _atom_site_occupancy
  Hf  Hf0  1  0.33333300  0.66666700  0.50000000  1
  Hf  Hf1  1  0.66666700  0.33333300  0.00000000  1
  Hf  Hf2  1  0.66666700  0.33333300  0.50000000  1
  Hf  Hf3  1  0.33333300  0.66666700  0.00000000  1
  Zr  Zr0  1  0.73136554  0.73136554  0.25000000  1
  Zr  Zr1  1  0.73136554  0.00000000  0.75000000  1
  Zr  Zr2  1  0.00000000  0.26863446  0.25000000  1
  Zr  Zr3  1  1.00000000  0.73136554  0.75000000  1
  Zr  Zr4  1  0.26863446  0.26863446  0.75000000  1
  Zr  Zr5  1  0.26863446  0.00000000  0.25000000  1
  Ga  Ga0  1  0.00000000  0.00000000  0.00000000  1
  Ga  Ga1  1  0.00000000  0.00000000  0.50000000  1
  Sb  Sb0  1  0.38921559  0.00000000  0.75000000  1
  Sb  Sb1  1  0.38921559  0.38921559  0.25000000  1
  Sb  Sb2  1  0.00000000  0.61078441  0.25000000  1
  Sb  Sb3  1  1.00000000  0.38921559  0.75000000  1
  Sb  Sb4  1  0.61078441  0.61078441  0.75000000  1
  Sb  Sb5  1  0.61078441  0.00000000  0.25000000  1
loop_
_geom_bond_atom_site_label_1
_geom_bond_atom_site_label_2
_geom_bond_distance
_geom_bond_site_symmetry_2
Hf0 Sb2 3.041282 1_555
Hf0 Sb0 3.041282 1_565
Hf0 Sb3 3.041285 1_455
Hf0 Sb5 3.041285 1_565
Hf0 Sb4 3.041290 1_555
Hf0 Sb1 3.041290 1_555
Hf1 Sb3 3.041282 1_554
Hf1 Sb5 3.041282 1_555
Hf1 Sb2 3.041285 1_655
Hf1 Sb0 3.041285 1_554
Hf1 Sb1 3.041290 1_555
Hf1 Sb4 3.041290 1_554
Hf2 Sb3 3.041282 1_555
Hf2 Sb5 3.041282 1_555
Hf2 Sb2 3.041285 1_655
Hf2 Sb0 3.041285 1_555
Hf2 Sb1 3.041290 1_555
Hf2 Sb4 3.041290 1_555
Hf3 Sb2 3.041282 1_555
Hf3 Sb0 3.041282 1_564
Hf3 Sb3 3.041285 1_454
Hf3 Sb5 3.041285 1_565
Hf3 Sb4 3.041290 1_554
Hf3 Sb1 3.041290 1_555
Ga0 Zr5 2.737595 1_555
Ga0 Zr1 2.737595 1_454
Ga0 Zr3 2.737595 1_444
Ga0 Zr4 2.737595 1_554
Ga0 Zr2 2.737595 1_555
Ga0 Zr0 2.737595 1_445
Ga1 Zr5 2.737595 1_555
Ga1 Zr1 2.737595 1_455
Ga1 Zr4 2.737595 1_555
Ga1 Zr3 2.737595 1_445
Ga1 Zr2 2.737595 1_555
Ga1 Zr0 2.737595 1_445
Sb0 Zr1 2.960440 1_555
Sb0 Zr3 2.985997 1_445
Sb0 Zr4 2.985997 1_555
Sb0 Zr5 3.075032 1_556
Sb0 Zr5 3.075032 1_555
Sb1 Zr0 2.960440 1_555
Sb1 Zr2 2.985997 1_555
Sb1 Zr5 2.985997 1_555
Sb1 Zr4 3.075032 1_554
Sb1 Zr4 3.075032 1_555
Sb2 Zr2 2.960440 1_555
Sb2 Zr0 2.985997 1_455
Sb2 Zr5 2.985997 1_565
Sb2 Zr3 3.075032 1_455
Sb2 Zr3 3.075032 1_454
Sb3 Zr3 2.960440 1_555
Sb3 Zr4 2.985997 1_655
Sb3 Zr1 2.985997 1_555
Sb3 Zr2 3.075032 1_655
Sb3 Zr2 3.075032 1_656
Sb4 Zr4 2.960440 1_555
Sb4 Zr3 2.985997 1_555
Sb4 Zr1 2.985997 1_565
Sb4 Zr0 3.075032 1_555
Sb4 Zr0 3.075032 1_556
Sb5 Zr5 2.960440 1_555
Sb5 Zr0 2.985997 1_545
Sb5 Zr2 2.985997 1_655
Sb5 Zr1 3.075032 1_555
Sb5 Zr1 3.075032 1_554
