# generated using pymatgen
data_KBa4(GeIr)10
_symmetry_space_group_name_H-M   'P 1'
_cell_length_a   8.98500767
_cell_length_b   8.98500846
_cell_length_c   8.98500845
_cell_angle_alpha   117.06283890
_cell_angle_beta   117.06283938
_cell_angle_gamma   95.16735479
_symmetry_Int_Tables_number   1
_chemical_formula_structural   KBa4(GeIr)10
_chemical_formula_sum   'K1 Ba4 Ge10 Ir10'
_cell_volume   533.33247738
_cell_formula_units_Z   1
loop_
 _symmetry_equiv_pos_site_id
 _symmetry_equiv_pos_as_xyz
  1  'x, y, z'
loop_
 _atom_site_type_symbol
 _atom_site_label
 _atom_site_symmetry_multiplicity
 _atom_site_fract_x
 _atom_site_fract_y
 _atom_site_fract_z
 _atom_site_occupancy
  K  K0  1  0.00000000  0.00000000  0.00000000  1
  Ba  Ba0  1  0.19769761  0.60294580  0.80064341  1
  Ba  Ba1  1  0.39705420  0.19769761  0.59475282  1
  Ba  Ba2  1  0.60294580  0.80230239  0.40524718  1
  Ba  Ba3  1  0.80230239  0.39705420  0.19935659  1
  Ge  Ge0  1  0.44455210  0.04672473  0.19901769  1
  Ge  Ge1  1  0.64462260  0.64462260  0.00000000  1
  Ge  Ge2  1  0.84770804  0.24553441  0.80098231  1
  Ge  Ge3  1  0.04672473  0.84770804  0.60217463  1
  Ge  Ge4  1  0.24553441  0.44455210  0.39782537  1
  Ge  Ge5  1  0.35537740  0.35537740  1.00000000  1
  Ge  Ge6  1  0.55544790  0.95327527  0.80098231  1
  Ge  Ge7  1  0.75446559  0.55544790  0.60217463  1
  Ge  Ge8  1  0.95327527  0.15229196  0.39782537  1
  Ge  Ge9  1  0.15229196  0.75446559  0.19901769  1
  Ir  Ir0  1  0.35148787  0.05155529  0.89994159  1
  Ir  Ir1  1  0.54845472  0.64851213  0.70006842  1
  Ir  Ir2  1  0.75000000  0.25000000  0.50000000  1
  Ir  Ir3  1  0.94844471  0.84838730  0.29993158  1
  Ir  Ir4  1  0.15161270  0.45154528  0.10005841  1
  Ir  Ir5  1  0.45154528  0.35148787  0.29993158  1
  Ir  Ir6  1  0.64851213  0.94844471  0.10005841  1
  Ir  Ir7  1  0.84838730  0.54845472  0.89994159  1
  Ir  Ir8  1  0.05155529  0.15161270  0.70006842  1
  Ir  Ir9  1  0.25000000  0.75000000  0.50000000  1
loop_
_geom_bond_atom_site_label_1
_geom_bond_atom_site_label_2
_geom_bond_distance
_geom_bond_site_symmetry_2
Ba0 Ge3 3.429464 1_555
Ba0 Ge7 3.429468 1_455
Ba0 Ge0 3.438982 1_566
Ba0 Ge9 3.438987 1_556
Ba0 Ge1 3.470978 1_556
Ba0 Ge5 3.470978 1_555
Ba0 Ge8 3.485445 1_455
Ba0 Ge4 3.485452 1_555
Ba0 Ir6 3.674441 1_556
Ba0 Ir4 3.674451 1_556
Ba0 Ir2 3.681647 1_455
Ba0 Ir9 3.681647 1_555
Ba0 Ir7 3.681704 1_455
Ba0 Ir0 3.681714 1_565
Ba0 Ir1 3.689474 1_555
Ba0 Ir8 3.689485 1_555
Ba1 Ge9 3.429470 1_545
Ba1 Ge0 3.429476 1_555
Ba1 Ge8 3.438977 1_455
Ba1 Ge4 3.438998 1_555
Ba1 Ge5 3.470970 1_555
Ba1 Ge1 3.470976 1_556
Ba1 Ge6 3.485430 1_545
Ba1 Ge2 3.485444 1_555
Ba1 Ir8 3.674442 1_555
Ba1 Ir1 3.674442 1_555
Ba1 Ir9 3.681643 1_545
Ba1 Ir2 3.681653 1_555
Ba1 Ir3 3.681707 1_445
Ba1 Ir5 3.681727 1_555
Ba1 Ir0 3.689464 1_555
Ba1 Ir7 3.689483 1_555
Ba2 Ge2 3.429470 1_565
Ba2 Ge6 3.429476 1_555
Ba2 Ge3 3.438977 1_655
Ba2 Ge7 3.438998 1_555
Ba2 Ge1 3.470970 1_555
Ba2 Ge5 3.470976 1_554
Ba2 Ge0 3.485430 1_565
Ba2 Ge9 3.485444 1_555
Ba2 Ir3 3.674442 1_555
Ba2 Ir5 3.674442 1_555
Ba2 Ir2 3.681643 1_565
Ba2 Ir9 3.681653 1_555
Ba2 Ir8 3.681707 1_665
Ba2 Ir1 3.681727 1_555
Ba2 Ir6 3.689464 1_555
Ba2 Ir4 3.689483 1_555
Ba3 Ge8 3.429464 1_555
Ba3 Ge4 3.429468 1_655
Ba3 Ge6 3.438982 1_544
Ba3 Ge2 3.438987 1_554
Ba3 Ge5 3.470978 1_554
Ba3 Ge1 3.470978 1_555
Ba3 Ge3 3.485445 1_655
Ba3 Ge7 3.485452 1_555
Ba3 Ir0 3.674441 1_554
Ba3 Ir7 3.674451 1_554
Ba3 Ir9 3.681647 1_655
Ba3 Ir2 3.681647 1_555
Ba3 Ir4 3.681704 1_655
Ba3 Ir6 3.681714 1_545
Ba3 Ir5 3.689474 1_555
Ba3 Ir3 3.689485 1_555
Ge0 Ir5 2.445873 1_555
Ge0 Ir6 2.447132 1_545
Ge0 Ir0 2.447485 1_554
Ge0 Ir2 2.455705 1_555
Ge0 K0 3.441497 1_555
Ge1 Ir1 2.445925 1_554
Ge1 Ir3 2.445931 1_555
Ge1 Ir6 2.445932 1_555
Ge1 Ir7 2.445938 1_554
Ge2 Ir8 2.445858 1_655
Ge2 Ir7 2.447140 1_555
Ge2 Ir4 2.447474 1_656
Ge2 Ir2 2.455704 1_555
Ge2 K0 3.441495 1_656
Ge3 Ir0 2.445863 1_565
Ge3 Ir3 2.447157 1_455
Ge3 Ir8 2.447470 1_565
Ge3 Ir9 2.455717 1_555
Ge3 K0 3.441481 1_566
Ge4 Ir4 2.445846 1_555
Ge4 Ir1 2.447144 1_555
Ge4 Ir5 2.447472 1_555
Ge4 Ir9 2.455703 1_555
Ge4 K0 3.441493 1_555
Ge5 Ir5 2.445925 1_556
Ge5 Ir8 2.445931 1_555
Ge5 Ir0 2.445932 1_555
Ge5 Ir4 2.445938 1_556
Ge6 Ir1 2.445873 1_555
Ge6 Ir0 2.447132 1_565
Ge6 Ir6 2.447485 1_556
Ge6 Ir9 2.455705 1_555
Ge6 K0 3.441497 1_666
Ge7 Ir7 2.445846 1_555
Ge7 Ir5 2.447144 1_555
Ge7 Ir1 2.447472 1_555
Ge7 Ir2 2.455703 1_555
Ge7 K0 3.441493 1_666
Ge8 Ir6 2.445863 1_545
Ge8 Ir8 2.447157 1_655
Ge8 Ir3 2.447470 1_545
Ge8 Ir2 2.455717 1_555
Ge8 K0 3.441481 1_655
Ge9 Ir3 2.445858 1_455
Ge9 Ir4 2.447140 1_555
Ge9 Ir7 2.447474 1_454
Ge9 Ir9 2.455704 1_555
Ge9 K0 3.441495 1_565
