# generated using pymatgen
data_Ba4SiPt4Pb3
_symmetry_space_group_name_H-M   'P 1'
_cell_length_a   7.14942823
_cell_length_b   7.14942894
_cell_length_c   7.14942804
_cell_angle_alpha   90.82283618
_cell_angle_beta   90.82283963
_cell_angle_gamma   90.82283504
_symmetry_Int_Tables_number   1
_chemical_formula_structural   Ba4SiPt4Pb3
_chemical_formula_sum   'Ba4 Si1 Pt4 Pb3'
_cell_volume   365.32407079
_cell_formula_units_Z   1
loop_
 _symmetry_equiv_pos_site_id
 _symmetry_equiv_pos_as_xyz
  1  'x, y, z'
loop_
 _atom_site_type_symbol
 _atom_site_label
 _atom_site_symmetry_multiplicity
 _atom_site_fract_x
 _atom_site_fract_y
 _atom_site_fract_z
 _atom_site_occupancy
  Ba  Ba0  1  0.59558580  0.40088467  0.89516466  1
  Ba  Ba1  1  0.40088467  0.89516466  0.59558580  1
  Ba  Ba2  1  0.10287809  0.10287809  0.10287809  1
  Ba  Ba3  1  0.89516466  0.59558580  0.40088467  1
  Si  Si0  1  0.40847022  0.40847022  0.40847022  1
  Pt  Pt0  1  0.20141686  0.33939456  0.63889967  1
  Pt  Pt1  1  0.63889967  0.20141686  0.33939456  1
  Pt  Pt2  1  0.82974748  0.82974748  0.82974748  1
  Pt  Pt3  1  0.33939456  0.63889967  0.20141686  1
  Pb  Pb0  1  0.58150792  0.91240497  0.09364610  1
  Pb  Pb1  1  0.09364610  0.58150792  0.91240497  1
  Pb  Pb2  1  0.91240497  0.09364610  0.58150792  1
loop_
_geom_bond_atom_site_label_1
_geom_bond_atom_site_label_2
_geom_bond_distance
_geom_bond_site_symmetry_2
Ba0 Pt3 3.338000 1_556
Ba0 Pt0 3.359258 1_555
Ba0 Pt1 3.511557 1_556
Ba0 Pt2 3.512661 1_555
Ba0 Si0 3.711321 1_555
Ba0 Pb1 3.770035 1_655
Ba0 Pb0 3.789014 1_546
Ba0 Pb1 3.834310 1_555
Ba0 Pb2 3.889923 1_555
Ba0 Pb0 3.906868 1_556
Ba1 Pt1 3.338000 1_565
Ba1 Pt3 3.359258 1_555
Ba1 Pt0 3.511558 1_565
Ba1 Pt2 3.512661 1_555
Ba1 Si0 3.711321 1_555
Ba1 Pb0 3.770035 1_556
Ba1 Pb2 3.789014 1_465
Ba1 Pb0 3.834310 1_555
Ba1 Pb1 3.889923 1_555
Ba1 Pb2 3.906868 1_565
Ba2 Pt2 3.333299 1_444
Ba2 Pb2 3.702179 1_455
Ba2 Pb0 3.702179 1_545
Ba2 Pb1 3.702180 1_554
Ba2 Si0 3.729460 1_555
Ba2 Pt0 3.814885 1_554
Ba2 Pt1 3.814885 1_455
Ba2 Pt3 3.814885 1_545
Ba2 Pb2 3.949379 1_454
Ba2 Pb0 3.949379 1_445
Ba2 Pb1 3.949379 1_544
Ba3 Pt0 3.338000 1_655
Ba3 Pt1 3.359258 1_555
Ba3 Pt3 3.511557 1_655
Ba3 Pt2 3.512661 1_555
Ba3 Si0 3.711321 1_555
Ba3 Pb2 3.770035 1_565
Ba3 Pb1 3.789014 1_654
Ba3 Pb2 3.834311 1_555
Ba3 Pb0 3.889923 1_555
Ba3 Pb1 3.906867 1_655
Pt0 Si0 2.285101 1_555
Pt1 Si0 2.285101 1_555
Pt3 Si0 2.285101 1_555
Pb0 Pt2 2.674517 1_554
Pb0 Pt1 2.715772 1_565
Pb0 Pt3 2.719911 1_555
Pb1 Pt2 2.674517 1_455
Pb1 Pt3 2.715772 1_556
Pb1 Pt0 2.719910 1_555
Pb2 Pt2 2.674517 1_545
Pb2 Pt0 2.715772 1_655
Pb2 Pt1 2.719910 1_555
