# generated using pymatgen
data_Cs3K2HfP3
_symmetry_space_group_name_H-M   'P 1'
_cell_length_a   11.45920826
_cell_length_b   11.45920827
_cell_length_c   15.94762799
_cell_angle_alpha   90.00000000
_cell_angle_beta   90.00000000
_cell_angle_gamma   141.09090052
_symmetry_Int_Tables_number   1
_chemical_formula_structural   Cs3K2HfP3
_chemical_formula_sum   'Cs12 K8 Hf4 P12'
_cell_volume   1315.30018807
_cell_formula_units_Z   4
loop_
 _symmetry_equiv_pos_site_id
 _symmetry_equiv_pos_as_xyz
  1  'x, y, z'
loop_
 _atom_site_type_symbol
 _atom_site_label
 _atom_site_symmetry_multiplicity
 _atom_site_fract_x
 _atom_site_fract_y
 _atom_site_fract_z
 _atom_site_occupancy
  Cs  Cs0  1  0.92054996  0.58942803  0.81836393  1
  Cs  Cs1  1  0.57945004  0.91057197  0.31836393  1
  Cs  Cs2  1  0.41057197  0.07945004  0.18163607  1
  Cs  Cs3  1  0.07945004  0.41057197  0.18163607  1
  Cs  Cs4  1  0.91057197  0.57945004  0.31836393  1
  Cs  Cs5  1  0.42054996  0.08942803  0.68163607  1
  Cs  Cs6  1  0.58942803  0.92054996  0.81836393  1
  Cs  Cs7  1  0.25554560  0.25554560  0.30879894  1
  Cs  Cs8  1  0.75554560  0.75554560  0.19120106  1
  Cs  Cs9  1  0.24445440  0.24445440  0.80879894  1
  Cs  Cs10  1  0.74445440  0.74445440  0.69120106  1
  Cs  Cs11  1  0.08942803  0.42054996  0.68163607  1
  K  K0  1  0.92373627  0.07626373  0.00000000  1
  K  K1  1  0.57626373  0.42373627  0.50000000  1
  K  K2  1  0.07626373  0.92373627  0.00000000  1
  K  K3  1  0.42373627  0.57626373  0.50000000  1
  K  K4  1  0.76092897  0.23907103  0.00000000  1
  K  K5  1  0.73907103  0.26092897  0.50000000  1
  K  K6  1  0.23907103  0.76092897  0.00000000  1
  K  K7  1  0.26092897  0.73907103  0.50000000  1
  Hf  Hf0  1  0.58164366  0.41835634  0.00000000  1
  Hf  Hf1  1  0.91835634  0.08164366  0.50000000  1
  Hf  Hf2  1  0.41835634  0.58164366  0.00000000  1
  Hf  Hf3  1  0.08164366  0.91835634  0.50000000  1
  P  P0  1  0.83844938  0.54230833  0.09253803  1
  P  P1  1  0.45769167  0.16155062  0.90746197  1
  P  P2  1  0.66155062  0.95769167  0.59253803  1
  P  P3  1  0.95769167  0.66155062  0.59253803  1
  P  P4  1  0.16155062  0.45769167  0.90746197  1
  P  P5  1  0.54230833  0.83844938  0.09253803  1
  P  P6  1  0.33844938  0.04230833  0.40746197  1
  P  P7  1  0.17507818  0.17507818  0.58172672  1
  P  P8  1  0.67507818  0.67507818  0.91827328  1
  P  P9  1  0.32492182  0.32492182  0.08172672  1
  P  P10  1  0.04230833  0.33844938  0.40746197  1
  P  P11  1  0.82492182  0.82492182  0.41827328  1
loop_
_geom_bond_atom_site_label_1
_geom_bond_atom_site_label_2
_geom_bond_distance
_geom_bond_site_symmetry_2
Cs0 P3 3.645100 1_555
Cs0 P1 3.703908 1_555
Cs0 P8 3.963720 1_555
Cs1 P5 3.645100 1_555
Cs1 P10 3.703908 1_665
Cs1 P11 3.963720 1_555
Cs2 P6 3.645100 1_555
Cs2 P0 3.703908 1_555
Cs2 P9 3.963720 1_555
Cs3 P10 3.645100 1_555
Cs3 P5 3.703908 1_555
Cs3 P9 3.963720 1_555
Cs4 P0 3.645100 1_555
Cs4 P6 3.703908 1_665
Cs4 P11 3.963720 1_555
Cs5 P1 3.645100 1_555
Cs5 P3 3.703908 1_445
Cs5 P7 3.963720 1_555
Cs6 P2 3.645100 1_555
Cs6 P4 3.703908 1_555
Cs6 P8 3.963720 1_555
Cs7 P10 3.600252 1_555
Cs7 P6 3.600252 1_555
Cs7 P9 3.659779 1_555
Cs7 P11 3.721906 1_445
Cs8 P5 3.600252 1_555
Cs8 P0 3.600252 1_555
Cs8 P11 3.659779 1_555
Cs8 P9 3.721906 1_555
Cs9 P1 3.600252 1_555
Cs9 P4 3.600252 1_555
Cs9 P7 3.659779 1_555
Cs9 P8 3.721906 1_555
Cs10 P3 3.600252 1_555
Cs10 P2 3.600252 1_555
Cs10 P8 3.659779 1_555
Cs10 P7 3.721906 1_665
Cs11 P4 3.645100 1_555
Cs11 P2 3.703908 1_445
Cs11 P7 3.963720 1_555
K0 P5 3.189264 1_545
K0 P4 3.189264 1_654
K0 P9 3.250558 1_655
K0 P8 3.250558 1_544
K1 P3 3.189264 1_555
K1 P6 3.189264 1_555
K1 P7 3.250558 1_555
K1 P11 3.250558 1_555
K2 P1 3.189264 1_564
K2 P0 3.189264 1_455
K2 P8 3.250558 1_454
K2 P9 3.250558 1_565
K3 P10 3.189264 1_555
K3 P2 3.189264 1_555
K3 P11 3.250558 1_555
K3 P7 3.250558 1_555
K4 P1 3.199640 1_554
K4 P0 3.199640 1_555
K4 P4 3.410379 1_654
K4 P5 3.410379 1_545
K5 P10 3.199640 1_655
K5 P2 3.199640 1_545
K5 P6 3.410379 1_555
K5 P3 3.410379 1_555
K6 P5 3.199640 1_555
K6 P4 3.199640 1_554
K6 P0 3.410379 1_455
K6 P1 3.410379 1_564
K7 P3 3.199640 1_455
K7 P6 3.199640 1_565
K7 P2 3.410379 1_555
K7 P10 3.410379 1_555
Hf0 P0 2.519971 1_555
Hf0 P1 2.519971 1_554
Hf0 P9 2.568558 1_555
Hf0 P8 2.568558 1_554
Hf1 P2 2.519971 1_545
Hf1 P10 2.519971 1_655
Hf1 P7 2.568558 1_655
Hf1 P11 2.568558 1_545
Hf2 P4 2.519971 1_554
Hf2 P5 2.519971 1_555
Hf2 P8 2.568558 1_554
Hf2 P9 2.568558 1_555
Hf3 P6 2.519971 1_565
Hf3 P3 2.519971 1_455
Hf3 P11 2.568558 1_455
Hf3 P7 2.568558 1_565
