# generated using pymatgen
data_Mg(BeRu)2
_symmetry_space_group_name_H-M   'P 1'
_cell_length_a   6.05164721
_cell_length_b   6.05164721
_cell_length_c   3.11849007
_cell_angle_alpha   90.00000000
_cell_angle_beta   90.00000000
_cell_angle_gamma   90.00000000
_symmetry_Int_Tables_number   1
_chemical_formula_structural   Mg(BeRu)2
_chemical_formula_sum   'Mg2 Be4 Ru4'
_cell_volume   114.20669638
_cell_formula_units_Z   2
loop_
 _symmetry_equiv_pos_site_id
 _symmetry_equiv_pos_as_xyz
  1  'x, y, z'
loop_
 _atom_site_type_symbol
 _atom_site_label
 _atom_site_symmetry_multiplicity
 _atom_site_fract_x
 _atom_site_fract_y
 _atom_site_fract_z
 _atom_site_occupancy
  Mg  Mg0  1  0.50000000  0.50000000  0.00000000  1
  Mg  Mg1  1  0.00000000  0.00000000  0.00000000  1
  Be  Be0  1  0.11988937  0.61988937  0.00000000  1
  Be  Be1  1  0.88011063  0.38011063  0.00000000  1
  Be  Be2  1  0.61988937  0.88011063  0.00000000  1
  Be  Be3  1  0.38011063  0.11988937  0.00000000  1
  Ru  Ru0  1  0.67146055  0.17146055  0.50000000  1
  Ru  Ru1  1  0.32853945  0.82853945  0.50000000  1
  Ru  Ru2  1  0.17146055  0.32853945  0.50000000  1
  Ru  Ru3  1  0.82853945  0.67146055  0.50000000  1
loop_
_geom_bond_atom_site_label_1
_geom_bond_atom_site_label_2
_geom_bond_distance
_geom_bond_site_symmetry_2
Mg0 Ru2 2.731457 1_555
Mg0 Ru2 2.731457 1_554
Mg0 Ru3 2.731457 1_555
Mg0 Ru0 2.731457 1_555
Mg0 Ru0 2.731457 1_554
Mg0 Ru3 2.731457 1_554
Mg0 Ru1 2.731457 1_555
Mg0 Ru1 2.731457 1_554
Mg1 Ru0 2.731457 1_455
Mg1 Ru3 2.731457 1_444
Mg1 Ru0 2.731457 1_454
Mg1 Ru3 2.731457 1_445
Mg1 Ru1 2.731457 1_545
Mg1 Ru2 2.731457 1_554
Mg1 Ru1 2.731457 1_544
Mg1 Ru2 2.731457 1_555
Be0 Be1 2.052104 1_455
Be0 Ru1 2.370643 1_555
Be0 Ru1 2.370643 1_554
Be0 Ru2 2.374307 1_554
Be0 Ru2 2.374307 1_555
Be0 Ru3 2.374307 1_454
Be0 Ru3 2.374307 1_455
Be0 Mg1 2.412001 1_565
Be0 Mg0 2.412001 1_555
Be1 Ru0 2.370643 1_555
Be1 Ru0 2.370643 1_554
Be1 Ru2 2.374307 1_654
Be1 Ru2 2.374307 1_655
Be1 Ru3 2.374307 1_554
Be1 Ru3 2.374307 1_555
Be1 Mg1 2.412001 1_655
Be1 Mg0 2.412001 1_555
Be2 Be3 2.052104 1_565
Be2 Ru3 2.370643 1_554
Be2 Ru3 2.370643 1_555
Be2 Ru1 2.374307 1_555
Be2 Ru1 2.374307 1_554
Be2 Ru0 2.374307 1_565
Be2 Ru0 2.374307 1_564
Be2 Mg0 2.412001 1_555
Be2 Mg1 2.412001 1_665
Be3 Ru2 2.370643 1_554
Be3 Ru2 2.370643 1_555
Be3 Ru1 2.374307 1_545
Be3 Ru1 2.374307 1_544
Be3 Ru0 2.374307 1_555
Be3 Ru0 2.374307 1_554
Be3 Mg1 2.412001 1_555
Be3 Mg0 2.412001 1_555
