# generated using pymatgen
data_KRb3H6Ru
_symmetry_space_group_name_H-M   'P 1'
_cell_length_a   7.48321769
_cell_length_b   7.48321750
_cell_length_c   7.48321724
_cell_angle_alpha   89.96071161
_cell_angle_beta   89.96071765
_cell_angle_gamma   89.96070938
_symmetry_Int_Tables_number   1
_chemical_formula_structural   KRb3H6Ru
_chemical_formula_sum   'K2 Rb6 H12 Ru2'
_cell_volume   419.04898614
_cell_formula_units_Z   2
loop_
 _symmetry_equiv_pos_site_id
 _symmetry_equiv_pos_as_xyz
  1  'x, y, z'
loop_
 _atom_site_type_symbol
 _atom_site_label
 _atom_site_symmetry_multiplicity
 _atom_site_fract_x
 _atom_site_fract_y
 _atom_site_fract_z
 _atom_site_occupancy
  K  K0  1  0.25000000  0.25000000  0.25000000  1
  K  K1  1  0.75000000  0.75000000  0.75000000  1
  Rb  Rb0  1  0.88891265  0.61108735  0.25000000  1
  Rb  Rb1  1  0.25000000  0.88891265  0.61108735  1
  Rb  Rb2  1  0.61108735  0.25000000  0.88891265  1
  Rb  Rb3  1  0.75000000  0.11108735  0.38891265  1
  Rb  Rb4  1  0.38891265  0.75000000  0.11108735  1
  Rb  Rb5  1  0.11108735  0.38891265  0.75000000  1
  H  H0  1  0.27822903  0.55014163  0.43615124  1
  H  H1  1  0.43615124  0.27822903  0.55014163  1
  H  H2  1  0.55014163  0.43615124  0.27822903  1
  H  H3  1  0.93615124  0.05014163  0.77822903  1
  H  H4  1  0.77822903  0.93615124  0.05014163  1
  H  H5  1  0.05014163  0.77822903  0.93615124  1
  H  H6  1  0.72177097  0.44985837  0.56384876  1
  H  H7  1  0.56384876  0.72177097  0.44985837  1
  H  H8  1  0.44985837  0.56384876  0.72177097  1
  H  H9  1  0.06384876  0.94985837  0.22177097  1
  H  H10  1  0.22177097  0.06384876  0.94985837  1
  H  H11  1  0.94985837  0.22177097  0.06384876  1
  Ru  Ru0  1  0.50000000  0.50000000  0.50000000  1
  Ru  Ru1  1  0.00000000  0.00000000  0.00000000  1
loop_
_geom_bond_atom_site_label_1
_geom_bond_atom_site_label_2
_geom_bond_distance
_geom_bond_site_symmetry_2
H0 Ru0 1.767259 1_555
H0 K0 2.652372 1_555
H0 Rb1 2.861553 1_555
H0 Rb5 2.920639 1_555
H0 Rb4 2.972191 1_555
H0 Rb0 3.261732 1_455
H1 Ru0 1.767260 1_555
H1 K0 2.652371 1_555
H1 Rb2 2.861552 1_555
H1 Rb3 2.920640 1_555
H1 Rb5 2.972191 1_555
H1 Rb1 3.261732 1_545
H2 Ru0 1.767259 1_555
H2 K0 2.652372 1_555
H2 Rb0 2.861553 1_555
H2 Rb4 2.920639 1_555
H2 Rb3 2.972191 1_555
H2 Rb2 3.261732 1_554
H3 Ru1 1.767259 1_656
H3 K1 2.652372 1_545
H3 Rb5 2.861553 1_655
H3 Rb1 2.920640 1_645
H3 Rb2 2.972191 1_555
H3 Rb3 3.261732 1_555
H4 Ru1 1.767260 1_665
H4 K1 2.652372 1_554
H4 Rb3 2.861552 1_565
H4 Rb2 2.920639 1_564
H4 Rb0 2.972191 1_555
H4 Rb4 3.261732 1_555
H5 Ru1 1.767260 1_566
H5 K1 2.652372 1_455
H5 Rb4 2.861552 1_556
H5 Rb0 2.920639 1_456
H5 Rb1 2.972191 1_555
H5 Rb5 3.261732 1_555
H6 Ru0 1.767259 1_555
H6 K1 2.652372 1_555
H6 Rb3 2.861553 1_555
H6 Rb0 2.920639 1_555
H6 Rb2 2.972191 1_555
H6 Rb5 3.261732 1_655
H7 Ru0 1.767260 1_555
H7 K1 2.652371 1_555
H7 Rb4 2.861552 1_555
H7 Rb1 2.920640 1_555
H7 Rb0 2.972191 1_555
H7 Rb3 3.261732 1_565
H8 Ru0 1.767259 1_555
H8 K1 2.652372 1_555
H8 Rb5 2.861553 1_555
H8 Rb2 2.920639 1_555
H8 Rb1 2.972191 1_555
H8 Rb4 3.261732 1_556
H9 Ru1 1.767259 1_565
H9 K0 2.652372 1_565
H9 Rb0 2.861553 1_455
H9 Rb3 2.920640 1_465
H9 Rb4 2.972191 1_555
H9 Rb1 3.261732 1_555
H10 Ru1 1.767260 1_556
H10 K0 2.652372 1_556
H10 Rb1 2.861552 1_545
H10 Rb4 2.920639 1_546
H10 Rb5 2.972191 1_555
H10 Rb2 3.261732 1_555
H11 Ru1 1.767260 1_655
H11 K0 2.652372 1_655
H11 Rb2 2.861552 1_554
H11 Rb5 2.920639 1_654
H11 Rb3 2.972191 1_555
H11 Rb0 3.261732 1_555
