# generated using pymatgen
data_SbTeBrO3
_symmetry_space_group_name_H-M   'P 1'
_cell_length_a   5.46562670
_cell_length_b   7.38867387
_cell_length_c   11.64524725
_cell_angle_alpha   90.00000000
_cell_angle_beta   90.00000000
_cell_angle_gamma   90.00000000
_symmetry_Int_Tables_number   1
_chemical_formula_structural   SbTeBrO3
_chemical_formula_sum   'Sb4 Te4 Br4 O12'
_cell_volume   470.27855773
_cell_formula_units_Z   4
loop_
 _symmetry_equiv_pos_site_id
 _symmetry_equiv_pos_as_xyz
  1  'x, y, z'
loop_
 _atom_site_type_symbol
 _atom_site_label
 _atom_site_symmetry_multiplicity
 _atom_site_fract_x
 _atom_site_fract_y
 _atom_site_fract_z
 _atom_site_occupancy
  Sb  Sb0  1  0.25000000  0.94896393  0.75342326  1
  Sb  Sb1  1  0.75000000  0.05103607  0.24657674  1
  Sb  Sb2  1  0.75000000  0.44896393  0.74657674  1
  Sb  Sb3  1  0.25000000  0.55103607  0.25342326  1
  Te  Te0  1  0.75000000  0.83717707  0.91971021  1
  Te  Te1  1  0.75000000  0.66282293  0.41971021  1
  Te  Te2  1  0.25000000  0.16282293  0.08028979  1
  Te  Te3  1  0.25000000  0.33717707  0.58028979  1
  Br  Br0  1  0.75000000  0.10122059  0.58192524  1
  Br  Br1  1  0.25000000  0.89877941  0.41807476  1
  Br  Br2  1  0.25000000  0.60122059  0.91807476  1
  Br  Br3  1  0.75000000  0.39877941  0.08192524  1
  O  O0  1  0.99632065  0.00475030  0.87350641  1
  O  O1  1  0.00367935  0.99524970  0.12649359  1
  O  O2  1  0.75000000  0.78004070  0.27439355  1
  O  O3  1  0.49632065  0.50475030  0.62649359  1
  O  O4  1  0.99632065  0.49524970  0.37350641  1
  O  O5  1  0.50367935  0.49524970  0.37350641  1
  O  O6  1  0.75000000  0.71995930  0.77439355  1
  O  O7  1  0.49632065  0.99524970  0.12649359  1
  O  O8  1  0.50367935  0.00475030  0.87350641  1
  O  O9  1  0.25000000  0.21995930  0.72560645  1
  O  O10  1  0.00367935  0.50475030  0.62649359  1
  O  O11  1  0.25000000  0.28004070  0.22560645  1
loop_
_geom_bond_atom_site_label_1
_geom_bond_atom_site_label_2
_geom_bond_distance
_geom_bond_site_symmetry_2
Br0 Sb2 3.205943 1_555
Br0 Te3 3.241619 1_555
Br0 Te3 3.241619 1_655
Br1 Sb3 3.205943 1_555
Br1 Te1 3.241619 1_555
Br1 Te1 3.241619 1_455
Br2 Sb0 3.205943 1_555
Br2 Te0 3.241619 1_555
Br2 Te0 3.241619 1_455
Br3 Sb1 3.205943 1_555
Br3 Te2 3.241619 1_555
Br3 Te2 3.241619 1_655
O0 Te0 1.906572 1_545
O0 Sb0 2.011925 1_645
O1 Te2 1.906572 1_565
O1 Sb1 2.011925 1_465
O2 Te1 1.901001 1_555
O2 Sb1 2.028330 1_565
O3 Te3 1.906572 1_555
O3 Sb2 2.011925 1_555
O4 Te1 1.906572 1_555
O4 Sb3 2.011925 1_655
O5 Te1 1.906572 1_555
O5 Sb3 2.011925 1_555
O6 Te0 1.901001 1_555
O6 Sb2 2.028330 1_555
O7 Te2 1.906572 1_565
O7 Sb1 2.011925 1_565
O8 Te0 1.906572 1_545
O8 Sb0 2.011925 1_545
O9 Te3 1.901001 1_555
O9 Sb0 2.028330 1_545
O10 Te3 1.906572 1_555
O10 Sb2 2.011925 1_455
O11 Te2 1.901001 1_555
O11 Sb3 2.028330 1_555
