# generated using pymatgen
data_Li2CdSbPt4
_symmetry_space_group_name_H-M   'P 1'
_cell_length_a   5.54221864
_cell_length_b   5.54221864
_cell_length_c   5.72448293
_cell_angle_alpha   58.90603238
_cell_angle_beta   58.90603235
_cell_angle_gamma   62.18793282
_symmetry_Int_Tables_number   1
_chemical_formula_structural   Li2CdSbPt4
_chemical_formula_sum   'Li2 Cd1 Sb1 Pt4'
_cell_volume   124.05545248
_cell_formula_units_Z   1
loop_
 _symmetry_equiv_pos_site_id
 _symmetry_equiv_pos_as_xyz
  1  'x, y, z'
loop_
 _atom_site_type_symbol
 _atom_site_label
 _atom_site_symmetry_multiplicity
 _atom_site_fract_x
 _atom_site_fract_y
 _atom_site_fract_z
 _atom_site_occupancy
  Li  Li0  1  0.50000000  0.50000000  0.00000000  1
  Li  Li1  1  0.00000000  0.00000000  0.50000000  1
  Cd  Cd0  1  0.50000000  0.50000000  0.50000000  1
  Sb  Sb0  1  0.00000000  0.00000000  0.00000000  1
  Pt  Pt0  1  0.00000000  0.50000000  0.50000000  1
  Pt  Pt1  1  0.50000000  0.00000000  0.00000000  1
  Pt  Pt2  1  0.00000000  0.50000000  0.00000000  1
  Pt  Pt3  1  0.50000000  0.00000000  0.50000000  1
loop_
_geom_bond_atom_site_label_1
_geom_bond_atom_site_label_2
_geom_bond_distance
_geom_bond_site_symmetry_2
Li0 Pt2 2.771109 1_555
Li0 Pt2 2.771109 1_655
Li0 Pt1 2.771109 1_565
Li0 Pt1 2.771109 1_555
Li0 Pt0 2.771110 1_555
Li0 Pt0 2.771110 1_654
Li0 Pt3 2.771110 1_564
Li0 Pt3 2.771110 1_555
Li0 Sb0 2.862241 1_655
Li0 Sb0 2.862241 1_565
Li1 Pt3 2.771109 1_455
Li1 Pt3 2.771109 1_555
Li1 Pt0 2.771109 1_555
Li1 Pt0 2.771109 1_545
Li1 Pt1 2.771110 1_456
Li1 Pt1 2.771110 1_555
Li1 Pt2 2.771110 1_555
Li1 Pt2 2.771110 1_546
Li1 Sb0 2.862241 1_555
Li1 Sb0 2.862241 1_556
Cd0 Pt0 2.771109 1_555
Cd0 Pt0 2.771109 1_655
Cd0 Pt3 2.771109 1_555
Cd0 Pt3 2.771109 1_565
Cd0 Pt2 2.771110 1_556
Cd0 Pt2 2.771110 1_655
Cd0 Pt1 2.771110 1_556
Cd0 Pt1 2.771110 1_565
Cd0 Li1 2.862241 1_655
Cd0 Li1 2.862241 1_565
Cd0 Li0 2.862241 1_556
Cd0 Li0 2.862241 1_555
Pt0 Sb0 2.771110 1_556
Pt0 Sb0 2.771110 1_565
Pt1 Sb0 2.771109 1_655
Pt1 Sb0 2.771109 1_555
Pt2 Sb0 2.771109 1_565
Pt2 Sb0 2.771109 1_555
Pt3 Sb0 2.771110 1_655
Pt3 Sb0 2.771110 1_556
