# generated using pymatgen
data_HfTa(NbN2)3
_symmetry_space_group_name_H-M   'P 1'
_cell_length_a   5.26902815
_cell_length_b   5.26902928
_cell_length_c   10.49002281
_cell_angle_alpha   90.00000000
_cell_angle_beta   90.00000000
_cell_angle_gamma   119.99999913
_symmetry_Int_Tables_number   1
_chemical_formula_structural   HfTa(NbN2)3
_chemical_formula_sum   'Hf2 Ta2 Nb6 N12'
_cell_volume   252.21342432
_cell_formula_units_Z   2
loop_
 _symmetry_equiv_pos_site_id
 _symmetry_equiv_pos_as_xyz
  1  'x, y, z'
loop_
 _atom_site_type_symbol
 _atom_site_label
 _atom_site_symmetry_multiplicity
 _atom_site_fract_x
 _atom_site_fract_y
 _atom_site_fract_z
 _atom_site_occupancy
  Hf  Hf0  1  0.66666700  0.33333300  0.00000000  1
  Hf  Hf1  1  0.33333300  0.66666700  0.00000000  1
  Ta  Ta0  1  0.33333300  0.66666700  0.50000000  1
  Ta  Ta1  1  0.66666700  0.33333300  0.50000000  1
  Nb  Nb0  1  0.67710492  0.67710492  0.74665773  1
  Nb  Nb1  1  0.32289508  1.00000000  0.74665773  1
  Nb  Nb2  1  0.00000000  0.32289508  0.74665773  1
  Nb  Nb3  1  0.32289508  0.32289508  0.25334227  1
  Nb  Nb4  1  0.67710492  0.00000000  0.25334227  1
  Nb  Nb5  1  1.00000000  0.67710492  0.25334227  1
  N  N0  1  0.65522904  0.65522904  0.38381569  1
  N  N1  1  0.34477096  0.00000000  0.38381569  1
  N  N2  1  1.00000000  0.34477096  0.38381569  1
  N  N3  1  0.34477096  0.34477096  0.61618431  1
  N  N4  1  0.65522904  1.00000000  0.61618431  1
  N  N5  1  0.00000000  0.65522904  0.61618431  1
  N  N6  1  0.34679473  0.34679473  0.87384377  1
  N  N7  1  0.65320527  1.00000000  0.87384377  1
  N  N8  1  0.00000000  0.65320527  0.87384377  1
  N  N9  1  0.65320527  0.65320527  0.12615623  1
  N  N10  1  0.34679473  0.00000000  0.12615623  1
  N  N11  1  1.00000000  0.34679473  0.12615623  1
loop_
_geom_bond_atom_site_label_1
_geom_bond_atom_site_label_2
_geom_bond_distance
_geom_bond_site_symmetry_2
Hf0 N11 2.171756 1_555
Hf0 N7 2.171757 1_544
Hf0 N8 2.171759 1_654
Hf0 N10 2.171759 1_555
Hf0 N6 2.171761 1_554
Hf0 N9 2.171761 1_555
Hf1 N8 2.171756 1_554
Hf1 N10 2.171757 1_565
Hf1 N11 2.171759 1_455
Hf1 N7 2.171759 1_554
Hf1 N9 2.171761 1_555
Hf1 N6 2.171761 1_554
N0 Ta0 2.113753 1_555
N0 Ta1 2.113753 1_555
N0 Nb3 2.222505 1_555
N0 Nb5 2.230967 1_555
N0 Nb4 2.230968 1_565
N1 Ta0 2.113749 1_545
N1 Ta1 2.113750 1_555
N1 Nb4 2.222504 1_555
N1 Nb5 2.230967 1_445
N1 Nb3 2.230967 1_555
N2 Ta1 2.113748 1_555
N2 Ta0 2.113750 1_655
N2 Nb5 2.222505 1_555
N2 Nb3 2.230967 1_655
N2 Nb4 2.230967 1_555
N3 Ta1 2.113753 1_555
N3 Ta0 2.113753 1_555
N3 Nb0 2.222505 1_555
N3 Nb2 2.230967 1_555
N3 Nb1 2.230968 1_545
N4 Ta1 2.113749 1_565
N4 Ta0 2.113750 1_555
N4 Nb1 2.222504 1_555
N4 Nb2 2.230967 1_665
N4 Nb0 2.230967 1_555
N5 Ta0 2.113748 1_555
N5 Ta1 2.113750 1_455
N5 Nb2 2.222505 1_555
N5 Nb0 2.230967 1_455
N5 Nb1 2.230967 1_555
N6 Nb0 2.192963 1_555
N6 Nb2 2.214661 1_555
N6 Nb1 2.214661 1_545
N7 Nb1 2.192963 1_555
N7 Nb2 2.214661 1_665
N7 Nb0 2.214661 1_555
N8 Nb2 2.192964 1_555
N8 Nb0 2.214661 1_455
N8 Nb1 2.214661 1_555
N9 Nb3 2.192963 1_555
N9 Nb5 2.214661 1_555
N9 Nb4 2.214661 1_565
N10 Nb4 2.192963 1_555
N10 Nb5 2.214661 1_445
N10 Nb3 2.214661 1_555
N11 Nb5 2.192964 1_555
N11 Nb3 2.214661 1_655
N11 Nb4 2.214661 1_555
