# generated using pymatgen
data_Er(FeB)2
_symmetry_space_group_name_H-M   'P 1'
_cell_length_a   3.45821415
_cell_length_b   3.45821371
_cell_length_c   5.33087899
_cell_angle_alpha   108.92662136
_cell_angle_beta   108.92661961
_cell_angle_gamma   89.99999889
_symmetry_Int_Tables_number   1
_chemical_formula_structural   Er(FeB)2
_chemical_formula_sum   'Er1 Fe2 B2'
_cell_volume   56.65027477
_cell_formula_units_Z   1
loop_
 _symmetry_equiv_pos_site_id
 _symmetry_equiv_pos_as_xyz
  1  'x, y, z'
loop_
 _atom_site_type_symbol
 _atom_site_label
 _atom_site_symmetry_multiplicity
 _atom_site_fract_x
 _atom_site_fract_y
 _atom_site_fract_z
 _atom_site_occupancy
  Er  Er0  1  -0.00000000  -0.00000000  -0.00000000  1
  Fe  Fe0  1  0.25000000  0.75000000  0.50000000  1
  Fe  Fe1  1  0.75000000  0.25000000  0.50000000  1
  B  B0  1  0.61329109  0.61329109  0.22658318  1
  B  B1  1  0.38670891  0.38670891  0.77341682  1
loop_
_geom_bond_atom_site_label_1
_geom_bond_atom_site_label_2
_geom_bond_distance
_geom_bond_site_symmetry_2
Er0 Fe1 2.932485 1_444
Er0 Fe0 2.932485 1_555
Er0 Fe0 2.932486 1_444
Er0 Fe1 2.932486 1_555
Er0 Fe0 2.932486 1_545
Er0 Fe1 2.932486 1_454
Er0 Fe1 2.932486 1_455
Er0 Fe0 2.932486 1_544
B0 B1 2.146624 1_554
B0 Fe1 2.160381 1_555
B0 Fe0 2.160381 1_555
B0 Fe1 2.160383 1_565
B0 Fe0 2.160384 1_655
B0 Er0 2.670507 1_555
B0 Er0 2.670509 1_655
B0 Er0 2.670509 1_565
B0 Er0 2.670512 1_665
B1 Fe0 2.160381 1_555
B1 Fe1 2.160381 1_555
B1 Fe0 2.160383 1_545
B1 Fe1 2.160384 1_455
B1 Er0 2.670507 1_666
B1 Er0 2.670509 1_566
B1 Er0 2.670509 1_656
B1 Er0 2.670512 1_556
