# generated using pymatgen
data_Ta2Ni7(B3Ru7)2
_symmetry_space_group_name_H-M   'P 1'
_cell_length_a   7.75607560
_cell_length_b   7.75607565
_cell_length_c   7.75607607
_cell_angle_alpha   60.58881976
_cell_angle_beta   60.58881831
_cell_angle_gamma   60.58881796
_symmetry_Int_Tables_number   1
_chemical_formula_structural   Ta2Ni7(B3Ru7)2
_chemical_formula_sum   'Ta2 Ni7 B6 Ru14'
_cell_volume   334.30968516
_cell_formula_units_Z   1
loop_
 _symmetry_equiv_pos_site_id
 _symmetry_equiv_pos_as_xyz
  1  'x, y, z'
loop_
 _atom_site_type_symbol
 _atom_site_label
 _atom_site_symmetry_multiplicity
 _atom_site_fract_x
 _atom_site_fract_y
 _atom_site_fract_z
 _atom_site_occupancy
  Ta  Ta0  1  0.25258922  0.25258922  0.25258922  1
  Ta  Ta1  1  0.74741078  0.74741078  0.74741078  1
  Ni  Ni0  1  0.38067890  0.38067890  0.84976417  1
  Ni  Ni1  1  0.38067890  0.84976417  0.38067890  1
  Ni  Ni2  1  0.61932110  0.61932110  0.15023583  1
  Ni  Ni3  1  0.61932110  0.15023583  0.61932110  1
  Ni  Ni4  1  0.84976417  0.38067890  0.38067890  1
  Ni  Ni5  1  0.15023583  0.61932110  0.61932110  1
  Ni  Ni6  1  0.00000000  0.00000000  0.00000000  1
  B  B0  1  0.72386283  0.28005406  0.28005406  1
  B  B1  1  0.27613717  0.71994594  0.71994594  1
  B  B2  1  0.28005406  0.72386283  0.28005406  1
  B  B3  1  0.71994594  0.27613717  0.71994594  1
  B  B4  1  0.28005406  0.28005406  0.72386283  1
  B  B5  1  0.71994594  0.71994594  0.27613717  1
  Ru  Ru0  1  0.33808344  0.00206424  0.00206424  1
  Ru  Ru1  1  0.66191656  0.99793576  0.99793576  1
  Ru  Ru2  1  1.00000000  0.33941309  0.66058691  1
  Ru  Ru3  1  0.00000000  0.66058691  0.33941309  1
  Ru  Ru4  1  0.00206424  0.33808344  0.00206424  1
  Ru  Ru5  1  0.66058691  0.00000000  0.33941309  1
  Ru  Ru6  1  0.99793576  0.66191656  0.99793576  1
  Ru  Ru7  1  0.33941309  1.00000000  0.66058691  1
  Ru  Ru8  1  0.00206424  0.00206424  0.33808344  1
  Ru  Ru9  1  0.99793576  0.99793576  0.66191656  1
  Ru  Ru10  1  0.66058691  0.33941309  0.00000000  1
  Ru  Ru11  1  0.33941309  0.66058691  1.00000000  1
  Ru  Ru12  1  0.38707053  0.38707053  0.38707053  1
  Ru  Ru13  1  0.61292947  0.61292947  0.61292947  1
loop_
_geom_bond_atom_site_label_1
_geom_bond_atom_site_label_2
_geom_bond_distance
_geom_bond_site_symmetry_2
Ni0 Ta0 2.570561 1_556
Ni0 Ru4 2.700106 1_556
Ni0 Ru0 2.700106 1_556
Ni0 Ru6 2.764580 1_455
Ni0 Ru1 2.764580 1_545
Ni1 Ta0 2.570561 1_565
Ni1 Ru8 2.700106 1_565
Ni1 Ru0 2.700106 1_565
Ni1 Ru9 2.764580 1_455
Ni1 Ru1 2.764581 1_554
Ni2 Ta1 2.570561 1_554
Ni2 Ru6 2.700106 1_554
Ni2 Ru1 2.700106 1_554
Ni2 Ru4 2.764580 1_655
Ni2 Ru0 2.764580 1_565
Ni3 Ta1 2.570561 1_545
Ni3 Ru9 2.700106 1_545
Ni3 Ru1 2.700106 1_545
Ni3 Ru8 2.764580 1_655
Ni3 Ru0 2.764581 1_556
Ni4 Ta0 2.570561 1_655
Ni4 Ru8 2.700106 1_655
Ni4 Ru4 2.700106 1_655
Ni4 Ru9 2.764581 1_545
Ni4 Ru6 2.764581 1_554
Ni5 Ta1 2.570561 1_455
Ni5 Ru9 2.700106 1_455
Ni5 Ru6 2.700106 1_455
Ni5 Ru8 2.764581 1_565
Ni5 Ru4 2.764581 1_556
Ni6 Ru0 2.638023 1_555
Ni6 Ru1 2.638023 1_444
Ni6 Ru4 2.638023 1_555
Ni6 Ru6 2.638023 1_444
Ni6 Ru8 2.638024 1_555
Ni6 Ru9 2.638024 1_444
Ni6 Ru11 2.655908 1_544
Ni6 Ru10 2.655908 1_455
Ni6 Ru7 2.655908 1_544
Ni6 Ru5 2.655908 1_455
Ni6 Ru3 2.655908 1_545
Ni6 Ru2 2.655908 1_454
B0 Ni4 2.065676 1_555
B0 Ru12 2.149209 1_555
B0 Ni2 2.167845 1_555
B0 Ni3 2.167846 1_555
B0 Ru8 2.222320 1_655
B0 Ru4 2.222320 1_655
B0 Ru5 2.239157 1_555
B0 Ru10 2.239157 1_555
B1 Ni5 2.065676 1_555
B1 Ru13 2.149209 1_555
B1 Ni0 2.167845 1_555
B1 Ni1 2.167846 1_555
B1 Ru9 2.222320 1_455
B1 Ru6 2.222320 1_455
B1 Ru7 2.239157 1_555
B1 Ru11 2.239157 1_555
B2 Ni1 2.065676 1_555
B2 Ru12 2.149209 1_555
B2 Ni2 2.167845 1_555
B2 Ni5 2.167846 1_555
B2 Ru8 2.222320 1_565
B2 Ru0 2.222320 1_565
B2 Ru3 2.239157 1_555
B2 Ru11 2.239157 1_554
B3 Ni3 2.065676 1_555
B3 Ru13 2.149209 1_555
B3 Ni0 2.167845 1_555
B3 Ni4 2.167846 1_555
B3 Ru9 2.222320 1_545
B3 Ru1 2.222320 1_545
B3 Ru2 2.239157 1_555
B3 Ru10 2.239157 1_556
B4 Ni0 2.065676 1_555
B4 Ru12 2.149209 1_555
B4 Ni3 2.167845 1_555
B4 Ni5 2.167845 1_555
B4 Ru4 2.222320 1_556
B4 Ru0 2.222320 1_556
B4 Ru2 2.239157 1_455
B4 Ru7 2.239157 1_545
B5 Ni2 2.065676 1_555
B5 Ru13 2.149209 1_555
B5 Ni1 2.167845 1_555
B5 Ni4 2.167845 1_555
B5 Ru6 2.222320 1_554
B5 Ru1 2.222320 1_554
B5 Ru3 2.239157 1_655
B5 Ru5 2.239157 1_565
Ru0 Ru1 2.480642 1_544
Ru0 Ru4 2.629351 1_555
Ru0 Ru8 2.629351 1_555
Ru0 Ru11 2.651358 1_544
Ru0 Ru7 2.651358 1_544
Ru0 Ta0 3.027900 1_555
Ru0 Ta1 3.065219 1_544
Ru1 Ru6 2.629351 1_555
Ru1 Ru9 2.629351 1_555
Ru1 Ru10 2.651358 1_566
Ru1 Ru5 2.651358 1_566
Ru1 Ta1 3.027900 1_555
Ru1 Ta0 3.065219 1_566
Ru2 Ru9 2.651358 1_545
Ru2 Ru4 2.651358 1_656
Ru3 Ru8 2.651358 1_565
Ru3 Ru6 2.651358 1_454
Ru4 Ru6 2.480642 1_454
Ru4 Ru8 2.629351 1_555
Ru4 Ta0 3.027900 1_555
Ru4 Ta1 3.065219 1_454
Ru5 Ru8 2.651358 1_655
Ru6 Ru9 2.629351 1_555
Ru6 Ta1 3.027900 1_555
Ru6 Ta0 3.065219 1_656
Ru7 Ru9 2.651358 1_455
Ru8 Ru9 2.480642 1_445
Ru8 Ta0 3.027900 1_555
Ru8 Ta1 3.065219 1_445
Ru9 Ta1 3.027900 1_555
Ru9 Ta0 3.065219 1_665
Ru10 Ru4 2.651358 1_655
Ru11 Ru6 2.651358 1_455
Ru12 Ta0 2.543505 1_555
Ru13 Ta1 2.543505 1_555
