# generated using pymatgen
data_Ca5Sb3Br
_symmetry_space_group_name_H-M   'P 1'
_cell_length_a   9.16887417
_cell_length_b   9.16887468
_cell_length_c   7.21856240
_cell_angle_alpha   90.00000000
_cell_angle_beta   90.00000000
_cell_angle_gamma   120.00000173
_symmetry_Int_Tables_number   1
_chemical_formula_structural   Ca5Sb3Br
_chemical_formula_sum   'Ca10 Sb6 Br2'
_cell_volume   525.54921151
_cell_formula_units_Z   2
loop_
 _symmetry_equiv_pos_site_id
 _symmetry_equiv_pos_as_xyz
  1  'x, y, z'
loop_
 _atom_site_type_symbol
 _atom_site_label
 _atom_site_symmetry_multiplicity
 _atom_site_fract_x
 _atom_site_fract_y
 _atom_site_fract_z
 _atom_site_occupancy
  Ca  Ca0  1  0.26245551  0.00000000  0.25000000  1
  Ca  Ca1  1  0.00000000  0.73754449  0.75000000  1
  Ca  Ca2  1  0.73754449  0.73754449  0.25000000  1
  Ca  Ca3  1  0.26245551  0.26245551  0.75000000  1
  Ca  Ca4  1  0.73754449  1.00000000  0.75000000  1
  Ca  Ca5  1  0.00000000  0.26245551  0.25000000  1
  Ca  Ca6  1  0.66666700  0.33333300  0.50000000  1
  Ca  Ca7  1  0.33333300  0.66666700  0.00000000  1
  Ca  Ca8  1  0.33333300  0.66666700  0.50000000  1
  Ca  Ca9  1  0.66666700  0.33333300  0.00000000  1
  Sb  Sb0  1  0.60806831  0.60806831  0.75000000  1
  Sb  Sb1  1  0.00000000  0.60806831  0.25000000  1
  Sb  Sb2  1  0.60806831  1.00000000  0.25000000  1
  Sb  Sb3  1  0.39193169  0.00000000  0.75000000  1
  Sb  Sb4  1  0.00000000  0.39193169  0.75000000  1
  Sb  Sb5  1  0.39193169  0.39193169  0.25000000  1
  Br  Br0  1  0.00000000  0.00000000  0.50000000  1
  Br  Br1  1  0.00000000  0.00000000  0.00000000  1
loop_
_geom_bond_atom_site_label_1
_geom_bond_atom_site_label_2
_geom_bond_distance
_geom_bond_site_symmetry_2
Ca0 Sb2 3.168880 1_545
Ca0 Sb1 3.171274 1_545
Ca0 Sb5 3.171274 1_555
Ca0 Sb3 3.799505 1_555
Ca0 Sb3 3.799505 1_554
Ca1 Sb4 3.168880 1_555
Ca1 Sb0 3.171274 1_455
Ca1 Sb3 3.171274 1_565
Ca1 Sb1 3.799505 1_556
Ca1 Sb1 3.799505 1_555
Ca2 Sb5 3.168880 1_555
Ca2 Sb1 3.171274 1_655
Ca2 Sb2 3.171274 1_555
Ca2 Sb0 3.799505 1_555
Ca2 Sb0 3.799505 1_554
Ca3 Sb0 3.168880 1_555
Ca3 Sb4 3.171274 1_555
Ca3 Sb3 3.171274 1_555
Ca3 Sb5 3.799505 1_555
Ca3 Sb5 3.799505 1_556
Ca4 Sb3 3.168880 1_565
Ca4 Sb4 3.171274 1_665
Ca4 Sb0 3.171274 1_555
Ca4 Sb2 3.799505 1_555
Ca4 Sb2 3.799505 1_556
Ca5 Sb1 3.168880 1_555
Ca5 Sb5 3.171274 1_555
Ca5 Sb2 3.171274 1_445
Ca5 Sb4 3.799505 1_555
Ca5 Sb4 3.799505 1_554
Ca6 Sb4 3.353238 1_655
Ca6 Sb2 3.353238 1_545
Ca6 Sb1 3.353241 1_655
Ca6 Sb3 3.353241 1_555
Ca6 Sb5 3.353246 1_555
Ca6 Sb0 3.353246 1_555
Ca7 Sb1 3.353238 1_555
Ca7 Sb3 3.353238 1_564
Ca7 Sb4 3.353241 1_554
Ca7 Sb2 3.353241 1_555
Ca7 Sb0 3.353246 1_554
Ca7 Sb5 3.353246 1_555
Ca8 Sb1 3.353238 1_555
Ca8 Sb3 3.353238 1_565
Ca8 Sb4 3.353241 1_555
Ca8 Sb2 3.353241 1_555
Ca8 Sb0 3.353246 1_555
Ca8 Sb5 3.353246 1_555
Ca9 Sb4 3.353238 1_654
Ca9 Sb2 3.353238 1_545
Ca9 Sb1 3.353241 1_655
Ca9 Sb3 3.353241 1_554
Ca9 Sb5 3.353246 1_555
Ca9 Sb0 3.353246 1_554
Br0 Ca0 3.007922 1_555
Br0 Ca4 3.007922 1_445
Br0 Ca3 3.007922 1_555
Br0 Ca2 3.007922 1_445
Br0 Ca5 3.007922 1_555
Br0 Ca1 3.007922 1_545
Br1 Ca0 3.007922 1_555
Br1 Ca4 3.007922 1_444
Br1 Ca3 3.007922 1_554
Br1 Ca2 3.007922 1_445
Br1 Ca5 3.007922 1_555
Br1 Ca1 3.007922 1_544
