# generated using pymatgen
data_Hf5Zr(PtN)2
_symmetry_space_group_name_H-M   'P 1'
_cell_length_a   5.89214423
_cell_length_b   5.89214404
_cell_length_c   8.81270125
_cell_angle_alpha   90.00000000
_cell_angle_beta   90.00000000
_cell_angle_gamma   147.39468277
_symmetry_Int_Tables_number   1
_chemical_formula_structural   Hf5Zr(PtN)2
_chemical_formula_sum   'Hf5 Zr1 Pt2 N2'
_cell_volume   164.86285831
_cell_formula_units_Z   1
loop_
 _symmetry_equiv_pos_site_id
 _symmetry_equiv_pos_as_xyz
  1  'x, y, z'
loop_
 _atom_site_type_symbol
 _atom_site_label
 _atom_site_symmetry_multiplicity
 _atom_site_fract_x
 _atom_site_fract_y
 _atom_site_fract_z
 _atom_site_occupancy
  Hf  Hf0  1  0.36981045  0.63018855  0.05349285  1
  Hf  Hf1  1  0.36981045  0.63018855  0.44650815  1
  Hf  Hf2  1  0.62951706  0.37048194  0.55528075  1
  Hf  Hf3  1  0.94753924  0.05245976  0.75000000  1
  Hf  Hf4  1  0.62951706  0.37048194  0.94471925  1
  Zr  Zr0  1  0.05220475  0.94779425  0.25000000  1
  Pt  Pt0  1  0.75228795  0.24771005  0.25000000  1
  Pt  Pt1  1  0.25065872  0.74933928  0.75000000  1
  N  N0  1  0.99932416  0.00067584  0.99681124  1
  N  N1  1  0.99932416  0.00067584  0.50318876  1
loop_
_geom_bond_atom_site_label_1
_geom_bond_atom_site_label_2
_geom_bond_distance
_geom_bond_site_symmetry_2
Hf0 N0 2.265171 1_454
Hf0 N0 2.265174 1_564
Hf0 Pt0 2.738890 1_565
Hf0 Pt0 2.738892 1_455
Hf0 Pt1 2.994932 1_554
Hf1 N1 2.265169 1_455
Hf1 N1 2.265172 1_565
Hf1 Pt0 2.738896 1_565
Hf1 Pt0 2.738898 1_455
Hf1 Pt1 2.994924 1_555
Hf2 N1 2.261598 1_455
Hf2 N1 2.261600 1_565
Hf2 Pt1 2.749132 1_655
Hf2 Pt1 2.749134 1_545
Hf2 Pt0 3.027571 1_555
Hf3 N0 2.252554 1_555
Hf3 N1 2.252554 1_555
Hf3 Pt1 2.773868 1_655
Hf3 Pt1 2.773870 1_545
Hf4 N0 2.261598 1_455
Hf4 N0 2.261600 1_565
Hf4 Pt1 2.749132 1_655
Hf4 Pt1 2.749134 1_545
Hf4 Pt0 3.027571 1_556
Pt0 Zr0 2.803040 1_545
Pt0 Zr0 2.803042 1_655
N0 Zr0 2.310050 1_646
N1 Zr0 2.310050 1_645
