# generated using pymatgen
data_Na2(Ga3Ir)3
_symmetry_space_group_name_H-M   'P 1'
_cell_length_a   7.39697858
_cell_length_b   7.39697758
_cell_length_c   9.75434392
_cell_angle_alpha   90.00000000
_cell_angle_beta   90.00000000
_cell_angle_gamma   119.63808525
_symmetry_Int_Tables_number   1
_chemical_formula_structural   Na2(Ga3Ir)3
_chemical_formula_sum   'Na4 Ga18 Ir6'
_cell_volume   463.88428533
_cell_formula_units_Z   2
loop_
 _symmetry_equiv_pos_site_id
 _symmetry_equiv_pos_as_xyz
  1  'x, y, z'
loop_
 _atom_site_type_symbol
 _atom_site_label
 _atom_site_symmetry_multiplicity
 _atom_site_fract_x
 _atom_site_fract_y
 _atom_site_fract_z
 _atom_site_occupancy
  Na  Na0  1  0.99905463  0.32790842  0.75000000  1
  Na  Na1  1  0.00094537  0.67209158  0.25000000  1
  Na  Na2  1  0.32790842  0.99905463  0.75000000  1
  Na  Na3  1  0.67209158  0.00094537  0.25000000  1
  Ga  Ga0  1  0.66281694  0.66281694  0.43070304  1
  Ga  Ga1  1  0.33718306  0.33718306  0.93070304  1
  Ga  Ga2  1  0.66281694  0.66281694  0.06929696  1
  Ga  Ga3  1  0.33718306  0.33718306  0.56929696  1
  Ga  Ga4  1  0.00545915  0.33440188  0.42928048  1
  Ga  Ga5  1  0.99454085  0.66559812  0.92928048  1
  Ga  Ga6  1  0.33440188  0.00545915  0.07071952  1
  Ga  Ga7  1  0.66559812  0.99454085  0.57071952  1
  Ga  Ga8  1  0.99454085  0.66559812  0.57071952  1
  Ga  Ga9  1  0.00545915  0.33440188  0.07071952  1
  Ga  Ga10  1  0.66559812  0.99454085  0.92928048  1
  Ga  Ga11  1  0.33440188  0.00545915  0.42928048  1
  Ga  Ga12  1  0.12813542  0.12813542  0.25000000  1
  Ga  Ga13  1  0.87186458  0.87186458  0.75000000  1
  Ga  Ga14  1  0.66238657  0.44627898  0.75000000  1
  Ga  Ga15  1  0.33761343  0.55372102  0.25000000  1
  Ga  Ga16  1  0.44627898  0.66238657  0.75000000  1
  Ga  Ga17  1  0.55372102  0.33761343  0.25000000  1
  Ir  Ir0  1  0.00000000  0.00000000  0.50000000  1
  Ir  Ir1  1  0.00000000  0.00000000  0.00000000  1
  Ir  Ir2  1  0.67368276  0.32631724  0.50000000  1
  Ir  Ir3  1  0.32631724  0.67368276  0.00000000  1
  Ir  Ir4  1  0.32631724  0.67368276  0.50000000  1
  Ir  Ir5  1  0.67368276  0.32631724  0.00000000  1
loop_
_geom_bond_atom_site_label_1
_geom_bond_atom_site_label_2
_geom_bond_distance
_geom_bond_site_symmetry_2
Ga0 Ir0 2.597268 1_665
Ga0 Ir2 2.618540 1_555
Ga0 Ir4 2.618540 1_555
Ga0 Ga17 2.761290 1_555
Ga0 Ga15 2.761291 1_555
Ga0 Ga3 2.773639 1_555
Ga0 Ga7 2.799416 1_555
Ga0 Ga8 2.799417 1_555
Ga0 Na3 3.032745 1_565
Ga0 Na1 3.032745 1_655
Ga1 Ir1 2.597268 1_556
Ga1 Ir3 2.618540 1_556
Ga1 Ir5 2.618540 1_556
Ga1 Ga16 2.761290 1_555
Ga1 Ga14 2.761291 1_555
Ga1 Ga2 2.773639 1_556
Ga1 Ga6 2.799416 1_556
Ga1 Ga9 2.799417 1_556
Ga1 Na2 3.032745 1_545
Ga1 Na0 3.032745 1_455
Ga2 Ir1 2.597268 1_665
Ga2 Ir5 2.618540 1_555
Ga2 Ir3 2.618540 1_555
Ga2 Ga5 2.799417 1_554
Ga2 Na3 3.032745 1_565
Ga2 Na1 3.032745 1_655
Ga3 Ir0 2.597268 1_555
Ga3 Ir4 2.618540 1_555
Ga3 Ir2 2.618540 1_555
Ga3 Ga4 2.799417 1_555
Ga3 Na2 3.032745 1_545
Ga3 Na0 3.032745 1_455
Ga4 Ir2 2.521328 1_455
Ga4 Ir0 2.548963 1_555
Ga4 Ir4 2.552660 1_555
Ga4 Ga8 2.847350 1_455
Ga4 Ga7 2.879689 1_445
Ga4 Na3 3.034335 1_455
Ga4 Na1 3.062874 1_555
Ga4 Na0 3.128776 1_455
Ga5 Ir3 2.521328 1_656
Ga5 Ir1 2.548963 1_666
Ga5 Ir5 2.552660 1_556
Ga5 Ga9 2.847350 1_656
Ga5 Ga6 2.879689 1_666
Ga5 Na2 3.034335 1_655
Ga5 Na0 3.062874 1_555
Ga5 Na1 3.128776 1_656
Ga6 Ir3 2.521328 1_545
Ga6 Ir1 2.548963 1_555
Ga6 Ir5 2.552660 1_555
Ga6 Na1 3.034335 1_545
Ga6 Na3 3.062874 1_555
Ga6 Na2 3.128776 1_544
Ga7 Ir2 2.521328 1_565
Ga7 Ir0 2.548963 1_665
Ga7 Ir4 2.552660 1_555
Ga7 Na0 3.034335 1_565
Ga7 Na2 3.062874 1_555
Ga7 Na3 3.128776 1_565
Ga8 Ir4 2.521328 1_655
Ga8 Ir0 2.548963 1_665
Ga8 Ir2 2.552660 1_555
Ga8 Na2 3.034335 1_655
Ga8 Na0 3.062874 1_555
Ga8 Na1 3.128776 1_655
Ga9 Ir5 2.521328 1_455
Ga9 Ir1 2.548963 1_555
Ga9 Ir3 2.552660 1_555
Ga9 Na3 3.034335 1_455
Ga9 Na1 3.062874 1_555
Ga9 Na0 3.128776 1_454
Ga10 Ir5 2.521328 1_566
Ga10 Ir1 2.548963 1_666
Ga10 Ir3 2.552660 1_556
Ga10 Ga13 2.752973 1_555
Ga10 Ga16 2.790049 1_555
Ga10 Ga2 2.799416 1_556
Ga10 Ga6 2.847350 1_566
Ga10 Ga9 2.879689 1_666
Ga10 Na0 3.034335 1_565
Ga10 Na2 3.062874 1_555
Ga10 Na3 3.128776 1_566
Ga11 Ir4 2.521328 1_545
Ga11 Ir0 2.548963 1_555
Ga11 Ir2 2.552660 1_555
Ga11 Ga12 2.752973 1_555
Ga11 Ga17 2.790049 1_555
Ga11 Ga3 2.799416 1_555
Ga11 Ga7 2.847350 1_545
Ga11 Ga8 2.879689 1_445
Ga11 Na1 3.034335 1_545
Ga11 Na3 3.062874 1_555
Ga11 Na2 3.128776 1_545
Ga12 Ir0 2.618187 1_555
Ga12 Ir1 2.618187 1_555
Ga12 Ga15 2.736186 1_555
Ga12 Ga17 2.736187 1_555
Ga12 Ga4 2.752973 1_555
Ga12 Ga9 2.752973 1_555
Ga12 Ga6 2.752973 1_555
Ga12 Na1 3.020874 1_545
Ga12 Na3 3.020874 1_455
Ga13 Ir0 2.618187 1_665
Ga13 Ir1 2.618187 1_666
Ga13 Ga14 2.736186 1_555
Ga13 Ga16 2.736187 1_555
Ga13 Ga5 2.752973 1_555
Ga13 Ga8 2.752973 1_555
Ga13 Ga7 2.752973 1_555
Ga13 Na0 3.020874 1_565
Ga13 Na2 3.020874 1_655
Ga14 Ir2 2.610443 1_555
Ga14 Ir5 2.610443 1_556
Ga14 Ga3 2.761291 1_555
Ga14 Ga16 2.763695 1_555
Ga14 Ga5 2.790049 1_555
Ga14 Ga8 2.790049 1_555
Ga14 Na2 2.994982 1_545
Ga14 Na0 3.020756 1_555
Ga15 Ir4 2.610443 1_555
Ga15 Ir3 2.610443 1_555
Ga15 Ga2 2.761291 1_555
Ga15 Ga17 2.763695 1_555
Ga15 Ga4 2.790049 1_555
Ga15 Ga9 2.790049 1_555
Ga15 Na3 2.994982 1_565
Ga15 Na1 3.020756 1_555
Ga16 Ir4 2.610443 1_555
Ga16 Ir3 2.610443 1_556
Ga16 Ga3 2.761290 1_555
Ga16 Ga7 2.790049 1_555
Ga16 Na0 2.994982 1_455
Ga16 Na2 3.020756 1_555
Ga17 Ir5 2.610443 1_555
Ga17 Ir2 2.610443 1_555
Ga17 Ga2 2.761290 1_555
Ga17 Ga6 2.790049 1_555
Ga17 Na1 2.994982 1_655
Ga17 Na3 3.020756 1_555
