# generated using pymatgen
data_Rb2Sn(WO4)3
_symmetry_space_group_name_H-M   'P 1'
_cell_length_a   7.39724542
_cell_length_b   7.39724597
_cell_length_c   7.29134426
_cell_angle_alpha   59.49400199
_cell_angle_beta   59.49399945
_cell_angle_gamma   60.26574507
_symmetry_Int_Tables_number   1
_chemical_formula_structural   Rb2Sn(WO4)3
_chemical_formula_sum   'Rb2 Sn1 W3 O12'
_cell_volume   280.49129577
_cell_formula_units_Z   1
loop_
 _symmetry_equiv_pos_site_id
 _symmetry_equiv_pos_as_xyz
  1  'x, y, z'
loop_
 _atom_site_type_symbol
 _atom_site_label
 _atom_site_symmetry_multiplicity
 _atom_site_fract_x
 _atom_site_fract_y
 _atom_site_fract_z
 _atom_site_occupancy
  Rb  Rb0  1  0.90306042  0.82846617  0.89259733  1
  Rb  Rb1  1  0.17153383  0.09693958  0.10740267  1
  Sn  Sn0  1  0.48686592  0.51313408  1.00000000  1
  W  W0  1  0.51914096  0.97625307  0.48567730  1
  W  W1  1  0.02374693  0.48085904  0.51432270  1
  W  W2  1  0.52680616  0.47319384  0.50000000  1
  O  O0  1  0.18761634  0.19062260  0.56137976  1
  O  O1  1  0.55494498  0.57978639  0.19466168  1
  O  O2  1  0.55397352  0.18542921  0.19412534  1
  O  O3  1  0.19097378  0.55680385  0.56406978  1
  O  O4  1  0.15884603  0.57786594  0.19663799  1
  O  O5  1  0.56305997  0.19005884  0.55518542  1
  O  O6  1  0.80937740  0.81238366  0.43862024  1
  O  O7  1  0.42021361  0.44505502  0.80533832  1
  O  O8  1  0.42213406  0.84115397  0.80336201  1
  O  O9  1  0.80994116  0.43694003  0.44481458  1
  O  O10  1  0.81457079  0.44602648  0.80587466  1
  O  O11  1  0.44319615  0.80902622  0.43593022  1
loop_
_geom_bond_atom_site_label_1
_geom_bond_atom_site_label_2
_geom_bond_distance
_geom_bond_site_symmetry_2
O0 W1 1.813650 1_555
O0 W0 2.119003 1_545
O0 Rb0 3.362154 1_445
O1 W2 1.879276 1_555
O1 Sn0 2.047853 1_554
O1 Rb0 3.113416 1_554
O1 Rb1 3.417842 1_565
O2 W0 1.865353 1_545
O2 Sn0 2.040187 1_554
O2 Rb0 3.441005 1_544
O3 W1 1.824595 1_555
O3 W2 2.088824 1_555
O3 Rb0 3.126401 1_455
O4 W1 1.884875 1_555
O4 Sn0 2.045739 1_554
O4 Rb0 2.921987 1_454
O5 W2 1.821321 1_555
O5 W0 2.086723 1_545
O5 Rb0 3.529940 1_545
O6 W0 1.813649 1_555
O6 W1 2.119003 1_655
O6 Rb1 3.362154 1_665
O7 W2 1.879276 1_555
O7 Sn0 2.047853 1_555
O7 Rb1 3.113416 1_556
O7 Rb0 3.417842 1_455
O8 W0 1.884875 1_555
O8 Sn0 2.045739 1_555
O8 Rb1 2.921987 1_566
O9 W2 1.821321 1_555
O9 W1 2.086723 1_655
O9 Rb1 3.529940 1_655
O10 W1 1.865353 1_655
O10 Sn0 2.040187 1_555
O10 Rb1 3.441005 1_656
O11 W0 1.824595 1_555
O11 W2 2.088824 1_555
O11 Rb1 3.126401 1_565
