# generated using pymatgen
data_Ta3NbS6
_symmetry_space_group_name_H-M   'P 1'
_cell_length_a   5.77990326
_cell_length_b   5.77990248
_cell_length_c   12.77829526
_cell_angle_alpha   90.00000000
_cell_angle_beta   90.00000000
_cell_angle_gamma   119.99999310
_symmetry_Int_Tables_number   1
_chemical_formula_structural   Ta3NbS6
_chemical_formula_sum   'Ta6 Nb2 S12'
_cell_volume   369.69592295
_cell_formula_units_Z   2
loop_
 _symmetry_equiv_pos_site_id
 _symmetry_equiv_pos_as_xyz
  1  'x, y, z'
loop_
 _atom_site_type_symbol
 _atom_site_label
 _atom_site_symmetry_multiplicity
 _atom_site_fract_x
 _atom_site_fract_y
 _atom_site_fract_z
 _atom_site_occupancy
  Ta  Ta0  1  0.00000000  0.00000000  0.50000000  1
  Ta  Ta1  1  0.00000000  0.00000000  0.00000000  1
  Ta  Ta2  1  0.33333300  0.66666700  0.99869304  1
  Ta  Ta3  1  0.66666700  0.33333300  0.00130696  1
  Ta  Ta4  1  0.66666700  0.33333300  0.49869304  1
  Ta  Ta5  1  0.33333300  0.66666700  0.50130696  1
  Nb  Nb0  1  0.33333300  0.66666700  0.25000000  1
  Nb  Nb1  1  0.66666700  0.33333300  0.75000000  1
  S  S0  1  0.33191055  0.33095229  0.37747672  1
  S  S1  1  0.66904771  0.00095926  0.37747672  1
  S  S2  1  0.99904074  0.66808945  0.37747672  1
  S  S3  1  0.33095229  0.33191055  0.62252328  1
  S  S4  1  0.00095926  0.66904771  0.62252328  1
  S  S5  1  0.66808945  0.99904074  0.62252328  1
  S  S6  1  0.66808945  0.66904771  0.87747672  1
  S  S7  1  0.33095229  0.99904074  0.87747672  1
  S  S8  1  0.00095926  0.33191055  0.87747672  1
  S  S9  1  0.66904771  0.66808945  0.12252328  1
  S  S10  1  0.99904074  0.33095229  0.12252328  1
  S  S11  1  0.33191055  0.00095926  0.12252328  1
loop_
_geom_bond_atom_site_label_1
_geom_bond_atom_site_label_2
_geom_bond_distance
_geom_bond_site_symmetry_2
Nb0 S11 2.530354 1_565
Nb0 S0 2.530354 1_555
Nb0 S2 2.530354 1_455
Nb0 S9 2.530354 1_555
Nb0 S10 2.530354 1_455
Nb0 S1 2.530354 1_565
Nb1 S5 2.530354 1_545
Nb1 S6 2.530354 1_555
Nb1 S8 2.530354 1_655
Nb1 S3 2.530354 1_555
Nb1 S4 2.530354 1_655
Nb1 S7 2.530354 1_545
S0 Ta4 2.473147 1_555
S0 Ta0 2.474051 1_555
S0 Ta5 2.500612 1_555
S1 Ta4 2.473138 1_555
S1 Ta0 2.474054 1_655
S1 Ta5 2.500612 1_545
S2 Ta4 2.473143 1_555
S2 Ta0 2.474049 1_665
S2 Ta5 2.500612 1_655
S3 Ta5 2.473147 1_555
S3 Ta0 2.474051 1_555
S3 Ta4 2.500612 1_555
S4 Ta5 2.473138 1_555
S4 Ta0 2.474053 1_565
S4 Ta4 2.500612 1_455
S5 Ta5 2.473143 1_555
S5 Ta0 2.474049 1_665
S5 Ta4 2.500612 1_565
S6 Ta2 2.473147 1_555
S6 Ta1 2.474051 1_666
S6 Ta3 2.500612 1_556
S7 Ta2 2.473138 1_555
S7 Ta1 2.474054 1_566
S7 Ta3 2.500612 1_566
S8 Ta2 2.473143 1_555
S8 Ta1 2.474049 1_556
S8 Ta3 2.500612 1_456
S9 Ta3 2.473147 1_555
S9 Ta1 2.474051 1_665
S9 Ta2 2.500612 1_554
S10 Ta3 2.473138 1_555
S10 Ta1 2.474053 1_655
S10 Ta2 2.500612 1_654
S11 Ta3 2.473143 1_555
S11 Ta1 2.474049 1_555
S11 Ta2 2.500612 1_544
