# generated using pymatgen
data_KNb6BiSe12
_symmetry_space_group_name_H-M   'P 1'
_cell_length_a   6.10408174
_cell_length_b   6.10408108
_cell_length_c   15.94258157
_cell_angle_alpha   90.00000000
_cell_angle_beta   90.00000000
_cell_angle_gamma   119.99999266
_symmetry_Int_Tables_number   1
_chemical_formula_structural   KNb6BiSe12
_chemical_formula_sum   'K1 Nb6 Bi1 Se12'
_cell_volume   514.43433336
_cell_formula_units_Z   1
loop_
 _symmetry_equiv_pos_site_id
 _symmetry_equiv_pos_as_xyz
  1  'x, y, z'
loop_
 _atom_site_type_symbol
 _atom_site_label
 _atom_site_symmetry_multiplicity
 _atom_site_fract_x
 _atom_site_fract_y
 _atom_site_fract_z
 _atom_site_occupancy
  K  K0  1  0.00000000  0.00000000  0.50000000  1
  Nb  Nb0  1  0.00000000  0.00000000  0.76851845  1
  Nb  Nb1  1  0.00000000  0.00000000  0.23148155  1
  Nb  Nb2  1  0.33333300  0.66666700  0.23265456  1
  Nb  Nb3  1  0.66666700  0.33333300  0.76734544  1
  Nb  Nb4  1  0.66666700  0.33333300  0.23265456  1
  Nb  Nb5  1  0.33333300  0.66666700  0.76734544  1
  Bi  Bi0  1  0.00000000  0.00000000  0.00000000  1
  Se  Se0  1  0.34023572  0.00000000  0.12849424  1
  Se  Se1  1  0.00000000  0.34023572  0.12849424  1
  Se  Se2  1  0.65976428  0.65976428  0.12849424  1
  Se  Se3  1  0.33399155  0.33399155  0.66441682  1
  Se  Se4  1  0.66600845  0.66600845  0.33558318  1
  Se  Se5  1  0.66600845  0.00000000  0.66441682  1
  Se  Se6  1  0.00000000  0.66600845  0.66441682  1
  Se  Se7  1  1.00000000  0.65976428  0.87150576  1
  Se  Se8  1  0.34023572  0.34023572  0.87150576  1
  Se  Se9  1  1.00000000  0.33399155  0.33558318  1
  Se  Se10  1  0.33399155  1.00000000  0.33558318  1
  Se  Se11  1  0.65976428  1.00000000  0.87150576  1
loop_
_geom_bond_atom_site_label_1
_geom_bond_atom_site_label_2
_geom_bond_distance
_geom_bond_site_symmetry_2
K0 Se6 3.320720 1_545
K0 Se9 3.320720 1_455
K0 Se5 3.320720 1_455
K0 Se10 3.320720 1_545
K0 Se3 3.320721 1_555
K0 Se4 3.320721 1_445
Nb0 Se6 2.628836 1_545
Nb0 Se5 2.628836 1_455
Nb0 Se3 2.628836 1_555
Nb0 Se7 2.647450 1_445
Nb0 Se11 2.647450 1_445
Nb0 Se8 2.647450 1_555
Nb1 Se9 2.628836 1_455
Nb1 Se10 2.628836 1_545
Nb1 Se4 2.628836 1_445
Nb1 Se1 2.647450 1_555
Nb1 Se0 2.647450 1_555
Nb1 Se2 2.647450 1_445
Nb2 Se0 2.610279 1_565
Nb2 Se1 2.610281 1_555
Nb2 Se2 2.610284 1_555
Nb2 Se10 2.612378 1_555
Nb2 Se9 2.612380 1_455
Nb2 Se4 2.612383 1_555
Nb3 Se11 2.610279 1_545
Nb3 Se7 2.610281 1_555
Nb3 Se8 2.610284 1_555
Nb3 Se5 2.612378 1_555
Nb3 Se6 2.612380 1_655
Nb3 Se3 2.612383 1_555
Nb4 Se1 2.610279 1_655
Nb4 Se0 2.610281 1_555
Nb4 Se2 2.610283 1_555
Nb4 Se9 2.612378 1_555
Nb4 Se10 2.612380 1_545
Nb4 Se4 2.612383 1_555
Nb5 Se7 2.610279 1_455
Nb5 Se11 2.610281 1_555
Nb5 Se8 2.610283 1_555
Nb5 Se6 2.612378 1_555
Nb5 Se5 2.612380 1_565
Nb5 Se3 2.612383 1_555
Bi0 Se1 2.917136 1_555
Bi0 Se7 2.917136 1_444
Bi0 Se0 2.917136 1_555
Bi0 Se11 2.917136 1_444
Bi0 Se2 2.917136 1_445
Bi0 Se8 2.917136 1_554
