# generated using pymatgen
data_Rb2Os(Cl2F)2
_symmetry_space_group_name_H-M   'P 1'
_cell_length_a   6.82127522
_cell_length_b   6.82127564
_cell_length_c   6.82127847
_cell_angle_alpha   118.14741086
_cell_angle_beta   118.14741280
_cell_angle_gamma   93.23986005
_symmetry_Int_Tables_number   1
_chemical_formula_structural   Rb2Os(Cl2F)2
_chemical_formula_sum   'Rb2 Os1 Cl4 F2'
_cell_volume   230.31676324
_cell_formula_units_Z   1
loop_
 _symmetry_equiv_pos_site_id
 _symmetry_equiv_pos_as_xyz
  1  'x, y, z'
loop_
 _atom_site_type_symbol
 _atom_site_label
 _atom_site_symmetry_multiplicity
 _atom_site_fract_x
 _atom_site_fract_y
 _atom_site_fract_z
 _atom_site_occupancy
  Rb  Rb0  1  0.74999900  0.25000000  0.49999900  1
  Rb  Rb1  1  0.25000000  0.74999900  0.49999900  1
  Os  Os0  1  0.00000000  0.00000000  0.00000000  1
  Cl  Cl0  1  0.76210984  0.23789016  0.00000000  1
  Cl  Cl1  1  0.23789016  0.76210984  1.00000000  1
  Cl  Cl2  1  0.23789016  0.23789016  0.47578033  1
  Cl  Cl3  1  0.76210884  0.76210884  0.52421867  1
  F  F0  1  0.20537493  0.20537493  0.00000000  1
  F  F1  1  0.79462507  0.79462507  1.00000000  1
loop_
_geom_bond_atom_site_label_1
_geom_bond_atom_site_label_2
_geom_bond_distance
_geom_bond_site_symmetry_2
Cl0 Os0 2.358822 1_655
Cl0 Rb0 3.412749 1_555
Cl0 Rb1 3.412749 1_655
Cl0 Rb0 3.412756 1_554
Cl0 Rb1 3.412756 1_544
Cl1 Os0 2.358822 1_566
Cl1 Rb1 3.412749 1_556
Cl1 Rb0 3.412749 1_566
Cl1 Rb1 3.412756 1_555
Cl1 Rb0 3.412756 1_455
Cl2 Os0 2.358824 1_555
Cl2 Rb0 3.412747 1_555
Cl2 Rb1 3.412747 1_555
Cl2 Rb0 3.412754 1_455
Cl2 Rb1 3.412754 1_545
Cl3 Os0 2.358829 1_666
Cl3 Rb1 3.412744 1_555
Cl3 Rb0 3.412744 1_555
Cl3 Rb1 3.412757 1_655
Cl3 Rb0 3.412758 1_565
F0 Os0 1.924400 1_555
F0 Rb0 3.530535 1_555
F0 Rb1 3.530535 1_555
F0 Rb0 3.530549 1_454
F0 Rb1 3.530549 1_544
F1 Os0 1.924400 1_666
F1 Rb1 3.530542 1_656
F1 Rb1 3.530542 1_555
F1 Rb0 3.530542 1_566
F1 Rb0 3.530542 1_555
