# generated using pymatgen
data_Ti8Al15Ir3Pt4
_symmetry_space_group_name_H-M   'P 1'
_cell_length_a   8.63676194
_cell_length_b   8.63502108
_cell_length_c   8.64741176
_cell_angle_alpha   120.01746009
_cell_angle_beta   120.00590590
_cell_angle_gamma   90.00998154
_symmetry_Int_Tables_number   1
_chemical_formula_structural   Ti8Al15Ir3Pt4
_chemical_formula_sum   'Ti8 Al15 Ir3 Pt4'
_cell_volume   455.82079427
_cell_formula_units_Z   1
loop_
 _symmetry_equiv_pos_site_id
 _symmetry_equiv_pos_as_xyz
  1  'x, y, z'
loop_
 _atom_site_type_symbol
 _atom_site_label
 _atom_site_symmetry_multiplicity
 _atom_site_fract_x
 _atom_site_fract_y
 _atom_site_fract_z
 _atom_site_occupancy
  Ti  Ti0  1  0.78660394  0.28935389  0.07472813  1
  Ti  Ti1  1  0.21447078  0.28765808  0.50268909  1
  Ti  Ti2  1  0.21133111  0.71439271  0.50189914  1
  Ti  Ti3  1  0.21206671  0.71199183  0.92190010  1
  Ti  Ti4  1  0.79103084  0.71358349  0.50093186  1
  Ti  Ti5  1  0.78749387  0.28764845  0.50155512  1
  Ti  Ti6  1  0.38014083  0.12065225  0.73948922  1
  Ti  Ti7  1  0.37472985  0.63748337  0.25508279  1
  Al  Al0  1  0.99947772  0.49728030  0.49795834  1
  Al  Al1  1  0.15026212  0.34485107  0.19186669  1
  Al  Al2  1  0.15522487  0.96825505  0.81273177  1
  Al  Al3  1  0.15276569  0.34333034  0.80939056  1
  Al  Al4  1  0.53467058  0.34390520  0.18984678  1
  Al  Al5  1  0.84816938  0.65400197  0.80930968  1
  Al  Al6  1  0.84859957  0.04059817  0.19236251  1
  Al  Al7  1  0.84688084  0.65239418  0.18961257  1
  Al  Al8  1  0.46137700  0.65271759  0.80658688  1
  Al  Al9  1  0.37467353  0.11900561  0.25731012  1
  Al  Al10  1  0.86310361  0.12412275  0.74738418  1
  Al  Al11  1  0.62194238  0.87986697  0.25898586  1
  Al  Al12  1  0.62621824  0.36462587  0.74468438  1
  Al  Al13  1  0.62785236  0.88039910  0.74570321  1
  Al  Al14  1  0.13263437  0.87629729  0.25033276  1
  Ir  Ir0  1  0.00149842  0.49987328  0.00060582  1
  Ir  Ir1  1  0.00053241  0.99907125  0.99871146  1
  Ir  Ir2  1  0.49871014  0.99846437  0.49915674  1
  Pt  Pt0  1  0.99722139  0.99804420  0.49733685  1
  Pt  Pt1  1  0.50084763  0.99842434  0.00101776  1
  Pt  Pt2  1  0.50001659  0.50204166  0.00163199  1
  Pt  Pt3  1  0.49945124  0.49966536  0.49919863  1
loop_
_geom_bond_atom_site_label_1
_geom_bond_atom_site_label_2
_geom_bond_distance
_geom_bond_site_symmetry_2
Ti0 Ti6 2.905875 1_554
Ti1 Ti6 2.888751 1_555
Ti2 Ti6 2.905902 1_565
Ti2 Ti7 2.929622 1_555
Ti3 Ti7 2.914674 1_556
Ti4 Ti7 2.972417 1_555
Al0 Ti0 2.587021 1_555
Al0 Ti3 2.591187 1_655
Al0 Ti1 2.593311 1_655
Al0 Ti4 2.594185 1_555
Al0 Ti2 2.595447 1_655
Al0 Ti5 2.596509 1_555
Al1 Ir1 2.495145 1_544
Al1 Ir0 2.503692 1_555
Al1 Pt3 2.524476 1_555
Al1 Ti0 2.729882 1_455
Al1 Ti1 2.759194 1_555
Al1 Ti2 2.770182 1_555
Al1 Al10 2.773349 1_454
Al1 Al9 2.808652 1_555
Al1 Ti7 2.828196 1_555
Al2 Ir1 2.482594 1_555
Al2 Pt1 2.518668 1_556
Al2 Pt0 2.519202 1_455
Al2 Ti4 2.753612 1_455
Al2 Ti3 2.766906 1_555
Al2 Ti2 2.769976 1_555
Al2 Al9 2.787622 1_566
Al2 Ti6 2.823106 1_565
Al3 Ir0 2.488597 1_556
Al3 Pt0 2.509794 1_445
Al3 Pt2 2.523684 1_556
Al3 Ti5 2.754872 1_455
Al3 Ti1 2.772591 1_555
Al3 Ti3 2.783010 1_555
Al3 Ti7 2.791888 1_556
Al3 Ti6 2.818648 1_555
Al4 Pt3 2.504351 1_555
Al4 Pt1 2.510000 1_545
Al4 Pt2 2.517887 1_555
Al4 Ti0 2.764956 1_555
Al4 Ti5 2.773660 1_555
Al4 Ti4 2.788806 1_555
Al4 Ti6 2.820128 1_554
Al4 Al9 2.821378 1_555
Al4 Ti7 2.828904 1_555
Al5 Ir1 2.500567 1_655
Al5 Ir0 2.504753 1_656
Al5 Pt3 2.526482 1_555
Al5 Ti3 2.743648 1_655
Al5 Ti5 2.746963 1_555
Al5 Ti4 2.770546 1_555
Al6 Ir1 2.500370 1_644
Al6 Pt1 2.513440 1_545
Al6 Pt0 2.514290 1_545
Al6 Ti1 2.743390 1_655
Al6 Ti0 2.752676 1_555
Al6 Ti5 2.771839 1_555
Al7 Ir0 2.493802 1_655
Al7 Pt0 2.504338 1_555
Al7 Pt2 2.513789 1_555
Al7 Ti0 2.729742 1_555
Al7 Ti2 2.745578 1_655
Al7 Ti4 2.763150 1_555
Al8 Pt1 2.501812 1_556
Al8 Pt3 2.505974 1_555
Al8 Pt2 2.506342 1_556
Al8 Ti1 2.737646 1_555
Al8 Ti3 2.744077 1_555
Al8 Ti2 2.757303 1_555
Al9 Ir2 2.557802 1_545
Al9 Ir1 2.639947 1_544
Al9 Pt3 2.684423 1_555
Al9 Pt1 2.700116 1_545
Al9 Ti1 2.895358 1_555
Al9 Ti3 2.908967 1_544
Al9 Ti5 2.946669 1_555
Al10 Ir2 2.569325 1_545
Al10 Ir0 2.650169 1_656
Al10 Ir1 2.658313 1_645
Al10 Pt0 2.711575 1_545
Al10 Al3 2.787536 1_655
Al10 Al2 2.798652 1_645
Al10 Ti0 2.883575 1_556
Al10 Al13 2.914788 1_545
Al10 Al12 2.915725 1_555
Al10 Ti5 2.924801 1_555
Al10 Ti4 2.934258 1_545
Al10 Al11 2.985215 1_545
Al11 Ir2 2.564782 1_555
Al11 Pt0 2.647199 1_555
Al11 Pt1 2.658944 1_555
Al11 Pt2 2.663848 1_555
Al11 Al8 2.823176 1_554
Al11 Al7 2.824951 1_555
Al11 Al6 2.831510 1_565
Al11 Ti5 2.907186 1_565
Al11 Ti4 2.919282 1_555
Al11 Ti3 2.929086 1_554
Al11 Ti7 2.965829 1_555
Al11 Al9 2.970794 1_565
Al12 Ir2 2.580946 1_545
Al12 Ir0 2.646782 1_656
Al12 Pt3 2.686500 1_555
Al12 Pt2 2.705150 1_556
Al12 Al7 2.776462 1_556
Al12 Al5 2.785772 1_555
Al12 Al8 2.816578 1_555
Al12 Ti5 2.886753 1_555
Al12 Ti0 2.896366 1_556
Al12 Ti1 2.937976 1_555
Al12 Ti6 2.960655 1_555
Al12 Al9 2.979531 1_555
Al13 Ir2 2.574008 1_555
Al13 Ir1 2.628577 1_655
Al13 Pt3 2.684198 1_555
Al13 Pt1 2.699558 1_556
Al13 Al6 2.784780 1_566
Al13 Al5 2.788446 1_555
Al13 Al8 2.828700 1_555
Al13 Ti4 2.911194 1_555
Al13 Ti0 2.913643 1_566
Al13 Ti2 2.971484 1_555
Al13 Ti6 2.980278 1_565
Al13 Ti7 2.999439 1_555
Al14 Ir2 2.581197 1_555
Al14 Ir1 2.643013 1_554
Al14 Ir0 2.653476 1_555
Al14 Pt0 2.699540 1_455
Al14 Al5 2.750940 1_454
Al14 Al6 2.786549 1_465
Al14 Al7 2.791279 1_455
Al14 Ti3 2.909848 1_554
Al14 Al9 2.917482 1_565
Al14 Ti1 2.929166 1_565
Al14 Ti7 2.937091 1_555
Al14 Ti2 2.951825 1_555
Al14 Ti6 2.989787 1_565
Ir0 Ti7 2.633079 1_555
Ir0 Ti5 3.083258 1_454
Ir0 Ti3 3.099945 1_554
Ir0 Ti2 3.100683 1_555
Ir1 Ti4 3.077549 1_455
Ir1 Ti3 3.080912 1_555
Ir1 Ti1 3.113749 1_566
Ir2 Ti6 2.533011 1_565
Ir2 Ti7 2.544297 1_555
Pt0 Ti6 2.701363 1_665
Pt0 Ti4 3.055496 1_555
Pt0 Ti2 3.073385 1_655
Pt0 Ti5 3.084229 1_565
Pt0 Ti1 3.093957 1_665
Pt1 Ti6 2.710320 1_564
Pt1 Ti3 3.066647 1_554
Pt1 Ti2 3.083615 1_554
Pt1 Ti5 3.092841 1_565
Pt2 Ti7 2.673954 1_555
Pt2 Ti6 2.690439 1_554
Pt2 Ti3 3.079644 1_554
Pt2 Ti1 3.080444 1_554
Pt2 Ti4 3.090214 1_555
Pt3 Ti7 2.696741 1_555
Pt3 Ti5 3.086952 1_555
Pt3 Ti1 3.088428 1_555
Pt3 Ti2 3.105990 1_555
Pt3 Ti4 3.112412 1_555
