# generated using pymatgen
data_Ho3InN
_symmetry_space_group_name_H-M   'P 1'
_cell_length_a   4.76233324
_cell_length_b   4.76233324
_cell_length_c   4.76233324
_cell_angle_alpha   90.00000000
_cell_angle_beta   90.00000000
_cell_angle_gamma   90.00000000
_symmetry_Int_Tables_number   1
_chemical_formula_structural   Ho3InN
_chemical_formula_sum   'Ho3 In1 N1'
_cell_volume   108.00885061
_cell_formula_units_Z   1
loop_
 _symmetry_equiv_pos_site_id
 _symmetry_equiv_pos_as_xyz
  1  'x, y, z'
loop_
 _atom_site_type_symbol
 _atom_site_label
 _atom_site_symmetry_multiplicity
 _atom_site_fract_x
 _atom_site_fract_y
 _atom_site_fract_z
 _atom_site_occupancy
  Ho  Ho0  1  0.50000000  0.50000000  -0.00000000  1
  Ho  Ho1  1  -0.00000000  0.50000000  0.50000000  1
  Ho  Ho2  1  0.50000000  0.00000000  0.50000000  1
  In  In0  1  -0.00000000  0.00000000  -0.00000000  1
  N  N0  1  0.50000000  0.50000000  0.50000000  1
loop_
_geom_bond_atom_site_label_1
_geom_bond_atom_site_label_2
_geom_bond_distance
_geom_bond_site_symmetry_2
Ho0 N0 2.381167 1_554
Ho0 N0 2.381167 1_555
Ho0 In0 3.367478 1_555
Ho0 In0 3.367478 1_565
Ho0 In0 3.367478 1_665
Ho0 In0 3.367478 1_655
Ho1 N0 2.381167 1_455
Ho1 N0 2.381167 1_555
Ho1 In0 3.367478 1_555
Ho1 In0 3.367478 1_556
Ho1 In0 3.367478 1_565
Ho1 In0 3.367478 1_566
Ho2 N0 2.381167 1_545
Ho2 N0 2.381167 1_555
Ho2 In0 3.367478 1_656
Ho2 In0 3.367478 1_555
Ho2 In0 3.367478 1_556
Ho2 In0 3.367478 1_655
