# generated using pymatgen
data_Hf4Ta5TcN12
_symmetry_space_group_name_H-M   'P 1'
_cell_length_a   5.23122657
_cell_length_b   5.23122837
_cell_length_c   10.57600981
_cell_angle_alpha   90.00000000
_cell_angle_beta   90.00000000
_cell_angle_gamma   120.02386159
_symmetry_Int_Tables_number   1
_chemical_formula_structural   Hf4Ta5TcN12
_chemical_formula_sum   'Hf4 Ta5 Tc1 N12'
_cell_volume   250.58508205
_cell_formula_units_Z   1
loop_
 _symmetry_equiv_pos_site_id
 _symmetry_equiv_pos_as_xyz
  1  'x, y, z'
loop_
 _atom_site_type_symbol
 _atom_site_label
 _atom_site_symmetry_multiplicity
 _atom_site_fract_x
 _atom_site_fract_y
 _atom_site_fract_z
 _atom_site_occupancy
  Hf  Hf0  1  0.66802358  0.33548357  0.00474552  1
  Hf  Hf1  1  0.33548357  0.66802358  0.00474552  1
  Hf  Hf2  1  0.33548357  0.66802358  0.49525448  1
  Hf  Hf3  1  0.66802358  0.33548357  0.49525448  1
  Ta  Ta0  1  0.32129350  0.99731301  0.75000000  1
  Ta  Ta1  1  0.99731301  0.32129350  0.75000000  1
  Ta  Ta2  1  0.32387363  0.32387363  0.25000000  1
  Ta  Ta3  1  0.67687959  0.00099610  0.25000000  1
  Ta  Ta4  1  0.00099610  0.67687959  0.25000000  1
  Tc  Tc0  1  0.67346274  0.67346274  0.75000000  1
  N  N0  1  0.65870465  0.65870465  0.37670665  1
  N  N1  1  0.34347299  0.00100293  0.37621483  1
  N  N2  1  0.00100293  0.34347299  0.37621483  1
  N  N3  1  0.34098321  0.34098321  0.62830124  1
  N  N4  1  0.65189639  0.00352289  0.62851113  1
  N  N5  1  0.00352289  0.65189639  0.62851113  1
  N  N6  1  0.34098321  0.34098321  0.87169876  1
  N  N7  1  0.65189639  0.00352289  0.87148887  1
  N  N8  1  0.00352289  0.65189639  0.87148887  1
  N  N9  1  0.65870465  0.65870465  0.12329335  1
  N  N10  1  0.34347299  0.00100293  0.12378517  1
  N  N11  1  0.00100293  0.34347299  0.12378517  1
loop_
_geom_bond_atom_site_label_1
_geom_bond_atom_site_label_2
_geom_bond_distance
_geom_bond_site_symmetry_2
Hf0 N9 2.125026 1_555
Hf0 N11 2.132620 1_655
Hf0 N10 2.134540 1_555
Hf0 N7 2.205073 1_554
Hf0 N8 2.213394 1_654
Hf0 N6 2.226418 1_554
Hf1 N9 2.125026 1_555
Hf1 N10 2.132620 1_565
Hf1 N11 2.134540 1_555
Hf1 N8 2.205073 1_554
Hf1 N7 2.213394 1_564
Hf1 N6 2.226418 1_554
Hf2 N0 2.125026 1_555
Hf2 N1 2.132620 1_565
Hf2 N2 2.134540 1_555
Hf2 N5 2.205073 1_555
Hf2 N4 2.213394 1_565
Hf2 N3 2.226418 1_555
Hf3 N0 2.125026 1_555
Hf3 N2 2.132620 1_655
Hf3 N1 2.134540 1_555
Hf3 N4 2.205073 1_555
Hf3 N5 2.213394 1_655
Hf3 N3 2.226418 1_555
N0 Ta4 2.200152 1_655
N0 Ta3 2.200153 1_565
N0 Ta2 2.204891 1_555
N1 Ta2 2.195083 1_555
N1 Ta3 2.196328 1_555
N1 Ta4 2.196947 1_545
N2 Ta2 2.195082 1_555
N2 Ta4 2.196329 1_555
N2 Ta3 2.196947 1_455
N3 Tc0 2.163214 1_555
N3 Ta1 2.171183 1_455
N3 Ta0 2.171184 1_545
N4 Ta0 2.141669 1_545
N4 Ta1 2.161802 1_555
N4 Tc0 2.199946 1_545
N5 Ta1 2.141669 1_455
N5 Ta0 2.161802 1_555
N5 Tc0 2.199946 1_455
N6 Tc0 2.163214 1_555
N6 Ta1 2.171183 1_455
N6 Ta0 2.171184 1_545
N7 Ta0 2.141669 1_545
N7 Ta1 2.161802 1_555
N7 Tc0 2.199946 1_545
N8 Ta1 2.141669 1_455
N8 Ta0 2.161802 1_555
N8 Tc0 2.199946 1_455
N9 Ta4 2.200152 1_655
N9 Ta3 2.200153 1_565
N9 Ta2 2.204891 1_555
N10 Ta2 2.195083 1_555
N10 Ta3 2.196328 1_555
N10 Ta4 2.196947 1_545
N11 Ta2 2.195082 1_555
N11 Ta4 2.196329 1_555
N11 Ta3 2.196947 1_455
