# generated using pymatgen
data_ZnFeAg2F7
_symmetry_space_group_name_H-M   'P 1'
_cell_length_a   7.42388491
_cell_length_b   7.42388541
_cell_length_c   7.42388484
_cell_angle_alpha   119.78007607
_cell_angle_beta   118.86492332
_cell_angle_gamma   91.17931375
_symmetry_Int_Tables_number   1
_chemical_formula_structural   ZnFeAg2F7
_chemical_formula_sum   'Zn2 Fe2 Ag4 F14'
_cell_volume   292.19322116
_cell_formula_units_Z   2
loop_
 _symmetry_equiv_pos_site_id
 _symmetry_equiv_pos_as_xyz
  1  'x, y, z'
loop_
 _atom_site_type_symbol
 _atom_site_label
 _atom_site_symmetry_multiplicity
 _atom_site_fract_x
 _atom_site_fract_y
 _atom_site_fract_z
 _atom_site_occupancy
  Zn  Zn0  1  0.50000000  0.00000000  0.50000000  1
  Zn  Zn1  1  0.00000000  0.50000000  0.50000000  1
  Fe  Fe0  1  0.00000000  0.00000000  0.50000000  1
  Fe  Fe1  1  0.00000000  0.50000000  0.00000000  1
  Ag  Ag0  1  0.00000000  0.00000000  0.00000000  1
  Ag  Ag1  1  0.50000000  0.50000000  0.00000000  1
  Ag  Ag2  1  0.50000000  0.00000000  0.00000000  1
  Ag  Ag3  1  0.50000000  0.50000000  0.50000000  1
  F  F0  1  0.36760543  0.09704029  0.27056414  1
  F  F1  1  0.67352285  0.40295971  0.27056414  1
  F  F2  1  0.69628430  0.32170534  0.77663830  1
  F  F3  1  0.95493296  0.17829466  0.37457896  1
  F  F4  1  0.95493296  0.58035500  0.77663830  1
  F  F5  1  0.69628430  0.91964500  0.37457896  1
  F  F6  1  0.30371570  0.08035500  0.62542104  1
  F  F7  1  0.04506704  0.41964500  0.22336170  1
  F  F8  1  0.04506704  0.82170534  0.62542104  1
  F  F9  1  0.30371570  0.67829466  0.22336170  1
  F  F10  1  0.91497371  0.75000000  0.16497371  1
  F  F11  1  0.63239457  0.90295971  0.72943586  1
  F  F12  1  0.32647715  0.59704029  0.72943586  1
  F  F13  1  0.08502629  0.25000000  0.83502629  1
loop_
_geom_bond_atom_site_label_1
_geom_bond_atom_site_label_2
_geom_bond_distance
_geom_bond_site_symmetry_2
Ag0 F0 2.278269 1_555
Ag0 F11 2.278269 1_444
Ag0 F7 2.618615 1_555
Ag0 F4 2.618615 1_444
Ag0 F3 2.618621 1_455
Ag0 F8 2.618621 1_544
Ag1 F1 2.278262 1_555
Ag1 F12 2.278262 1_554
Ag1 F5 2.618616 1_555
Ag1 F6 2.618616 1_554
Ag1 F2 2.618621 1_554
Ag1 F9 2.618621 1_555
Ag2 F11 2.453065 1_544
Ag2 F0 2.453065 1_555
Ag2 F1 2.453071 1_555
Ag2 F12 2.453071 1_544
Ag3 F1 2.453065 1_555
Ag3 F12 2.453065 1_555
Ag3 F11 2.453071 1_555
Ag3 F0 2.453071 1_555
F0 Zn0 2.004494 1_555
F1 Zn1 2.004500 1_655
F2 Fe1 1.916412 1_656
F2 Zn0 2.034763 1_555
F3 Fe0 1.916412 1_655
F3 Zn1 2.034763 1_655
F4 Fe1 1.916417 1_656
F4 Zn1 2.034761 1_655
F5 Fe0 1.916412 1_665
F5 Zn0 2.034763 1_565
F6 Fe0 1.916412 1_555
F6 Zn0 2.034763 1_555
F7 Fe1 1.916417 1_555
F7 Zn1 2.034761 1_555
F8 Fe0 1.916412 1_565
F8 Zn1 2.034763 1_555
F9 Fe1 1.916412 1_555
F9 Zn0 2.034763 1_565
F10 Fe0 1.969708 1_665
F10 Fe1 1.969708 1_655
F11 Zn0 2.004494 1_565
F12 Zn1 2.004500 1_555
F13 Fe0 1.969708 1_555
F13 Fe1 1.969708 1_556
