# generated using pymatgen
data_Lu12Al2Tc2Pb
_symmetry_space_group_name_H-M   'P 1'
_cell_length_a   8.24581774
_cell_length_b   8.24582513
_cell_length_c   8.24581863
_cell_angle_alpha   109.95458614
_cell_angle_beta   109.93791990
_cell_angle_gamma   108.52523811
_symmetry_Int_Tables_number   1
_chemical_formula_structural   Lu12Al2Tc2Pb
_chemical_formula_sum   'Lu12 Al2 Tc2 Pb1'
_cell_volume   431.51045382
_cell_formula_units_Z   1
loop_
 _symmetry_equiv_pos_site_id
 _symmetry_equiv_pos_as_xyz
  1  'x, y, z'
loop_
 _atom_site_type_symbol
 _atom_site_label
 _atom_site_symmetry_multiplicity
 _atom_site_fract_x
 _atom_site_fract_y
 _atom_site_fract_z
 _atom_site_occupancy
  Lu  Lu0  1  0.32143805  0.31709512  0.63853380  1
  Lu  Lu1  1  0.67856195  0.68290488  0.36146620  1
  Lu  Lu2  1  0.32144067  0.68290488  0.00434393  1
  Lu  Lu3  1  0.67855933  0.31709512  0.99565607  1
  Lu  Lu4  1  0.44395912  0.19035640  0.25360211  1
  Lu  Lu5  1  0.55604088  0.80964360  0.74639789  1
  Lu  Lu6  1  0.93675429  0.19035640  0.74639728  1
  Lu  Lu7  1  0.19524171  0.94690665  0.75166494  1
  Lu  Lu8  1  0.06324571  0.80964360  0.25360272  1
  Lu  Lu9  1  0.80475829  0.05309335  0.24833506  1
  Lu  Lu10  1  0.19524259  0.44357235  0.24832976  1
  Lu  Lu11  1  0.80475741  0.55642765  0.75167024  1
  Al  Al0  1  0.00000000  0.00000000  0.00000000  1
  Al  Al1  1  0.50000000  0.00000000  0.50000000  1
  Tc  Tc0  1  0.33398389  0.33398237  0.00000047  1
  Tc  Tc1  1  0.66601611  0.66601763  0.99999953  1
  Pb  Pb0  1  0.00000000  0.50000000  0.50000000  1
loop_
_geom_bond_atom_site_label_1
_geom_bond_atom_site_label_2
_geom_bond_distance
_geom_bond_site_symmetry_2
Lu0 Tc0 2.900218 1_556
Lu0 Tc1 2.900219 1_555
Lu0 Lu3 3.380704 1_555
Lu0 Lu11 3.443543 1_555
Lu0 Lu7 3.443556 1_545
Lu0 Lu2 3.462222 1_556
Lu0 Pb0 3.500861 1_555
Lu0 Lu6 3.520950 1_455
Lu0 Lu5 3.520962 1_555
Lu0 Lu8 3.575107 1_545
Lu0 Lu4 3.575111 1_555
Lu0 Lu9 3.635869 1_455
Lu0 Lu10 3.635885 1_555
Lu1 Tc1 2.900218 1_554
Lu1 Tc0 2.900219 1_555
Lu1 Lu2 3.380704 1_555
Lu1 Lu10 3.443543 1_555
Lu1 Lu9 3.443556 1_565
Lu1 Lu3 3.462222 1_554
Lu1 Pb0 3.500861 1_655
Lu1 Lu8 3.520950 1_655
Lu1 Lu4 3.520962 1_555
Lu1 Lu6 3.575107 1_565
Lu1 Lu5 3.575111 1_555
Lu1 Lu7 3.635869 1_655
Lu1 Lu11 3.635885 1_555
Lu2 Tc1 2.900193 1_554
Lu2 Tc0 2.900221 1_555
Lu2 Lu9 3.443546 1_565
Lu2 Pb0 3.500872 1_554
Lu2 Lu5 3.520947 1_554
Lu2 Lu6 3.520967 1_454
Lu2 Lu4 3.575111 1_565
Lu2 Lu8 3.575119 1_555
Lu2 Lu7 3.635879 1_554
Lu3 Tc0 2.900193 1_556
Lu3 Tc1 2.900221 1_555
Lu3 Lu7 3.443546 1_545
Lu3 Pb0 3.500872 1_656
Lu3 Lu4 3.520947 1_556
Lu3 Lu8 3.520967 1_656
Lu3 Lu5 3.575111 1_545
Lu3 Lu6 3.575119 1_555
Lu3 Lu9 3.635879 1_556
Lu4 Tc0 2.770815 1_555
Lu4 Lu7 3.360066 1_544
Lu4 Lu9 3.511185 1_555
Lu4 Lu8 3.667142 1_545
Lu4 Pb0 3.786350 1_655
Lu5 Tc1 2.770815 1_555
Lu5 Lu9 3.360066 1_566
Lu5 Lu7 3.511185 1_555
Lu5 Lu6 3.667142 1_565
Lu5 Pb0 3.786350 1_555
Lu6 Tc0 2.770831 1_656
Lu6 Lu7 3.360065 1_645
Lu6 Lu9 3.511185 1_555
Lu6 Pb0 3.786350 1_655
Lu7 Tc0 2.703747 1_566
Lu7 Pb0 3.034833 1_555
Lu7 Lu8 3.511185 1_555
Lu8 Tc1 2.770831 1_454
Lu8 Lu9 3.360065 1_465
Lu8 Pb0 3.786350 1_555
Lu9 Tc1 2.703747 1_544
Lu9 Pb0 3.034833 1_655
Lu10 Tc0 2.703704 1_555
Lu10 Pb0 3.034874 1_555
Lu10 Lu4 3.360034 1_555
Lu10 Lu6 3.360035 1_454
Lu10 Lu2 3.443541 1_555
Lu10 Lu8 3.511222 1_555
Lu10 Lu5 3.511223 1_555
Lu10 Lu3 3.635900 1_454
Lu11 Tc1 2.703704 1_555
Lu11 Pb0 3.034874 1_655
Lu11 Lu5 3.360034 1_555
Lu11 Lu8 3.360035 1_656
Lu11 Lu3 3.443541 1_555
Lu11 Lu6 3.511222 1_555
Lu11 Lu4 3.511223 1_555
Lu11 Lu2 3.635900 1_656
Al0 Lu10 3.010127 1_555
Al0 Lu11 3.010127 1_444
Al0 Lu9 3.010157 1_455
Al0 Lu7 3.010157 1_544
Al0 Lu4 3.020846 1_555
Al0 Lu5 3.020846 1_444
Al0 Lu8 3.020846 1_545
Al0 Lu6 3.020846 1_454
Al0 Tc0 3.217020 1_555
Al0 Tc1 3.217020 1_444
Al1 Lu6 2.966931 1_555
Al1 Lu8 2.966931 1_545
Al1 Lu5 2.966931 1_545
Al1 Lu4 2.966931 1_555
Al1 Lu3 3.444464 1_555
Al1 Lu2 3.444464 1_545
Al1 Lu0 3.444466 1_555
Al1 Lu1 3.444466 1_545
Tc0 Tc1 3.198249 1_554
