# generated using pymatgen
data_KSr4Sb2As
_symmetry_space_group_name_H-M   'P 1'
_cell_length_a   8.45243912
_cell_length_b   9.96918626
_cell_length_c   13.62841105
_cell_angle_alpha   90.00000000
_cell_angle_beta   90.00000000
_cell_angle_gamma   90.00000000
_symmetry_Int_Tables_number   1
_chemical_formula_structural   KSr4Sb2As
_chemical_formula_sum   'K4 Sr16 Sb8 As4'
_cell_volume   1148.38361034
_cell_formula_units_Z   4
loop_
 _symmetry_equiv_pos_site_id
 _symmetry_equiv_pos_as_xyz
  1  'x, y, z'
loop_
 _atom_site_type_symbol
 _atom_site_label
 _atom_site_symmetry_multiplicity
 _atom_site_fract_x
 _atom_site_fract_y
 _atom_site_fract_z
 _atom_site_occupancy
  K  K0  1  0.00709116  0.75000000  0.49954118  1
  K  K1  1  0.99290884  0.25000000  0.50045882  1
  K  K2  1  0.50709116  0.25000000  0.00045882  1
  K  K3  1  0.49290884  0.75000000  0.99954118  1
  Sr  Sr0  1  0.84021869  0.75000000  0.79838958  1
  Sr  Sr1  1  0.15978131  0.25000000  0.20161042  1
  Sr  Sr2  1  0.34021869  0.25000000  0.70161042  1
  Sr  Sr3  1  0.65978131  0.75000000  0.29838958  1
  Sr  Sr4  1  0.68903698  0.50254259  0.57681903  1
  Sr  Sr5  1  0.31096302  0.49745741  0.42318097  1
  Sr  Sr6  1  0.18903698  0.49745741  0.92318097  1
  Sr  Sr7  1  0.31096302  0.00254259  0.42318097  1
  Sr  Sr8  1  0.81096302  0.50254259  0.07681903  1
  Sr  Sr9  1  0.68903698  0.99745741  0.57681903  1
  Sr  Sr10  1  0.81096302  0.99745741  0.07681903  1
  Sr  Sr11  1  0.18903698  0.00254259  0.92318097  1
  Sr  Sr12  1  0.33852404  0.75000000  0.70318328  1
  Sr  Sr13  1  0.66147596  0.25000000  0.29681672  1
  Sr  Sr14  1  0.83852404  0.25000000  0.79681672  1
  Sr  Sr15  1  0.16147596  0.75000000  0.20318328  1
  Sb  Sb0  1  0.55927457  0.50043735  0.82055757  1
  Sb  Sb1  1  0.44072543  0.49956265  0.17944243  1
  Sb  Sb2  1  0.05927457  0.49956265  0.67944243  1
  Sb  Sb3  1  0.44072543  0.00043735  0.17944243  1
  Sb  Sb4  1  0.94072543  0.50043735  0.32055757  1
  Sb  Sb5  1  0.55927457  0.99956265  0.82055757  1
  Sb  Sb6  1  0.94072543  0.99956265  0.32055757  1
  Sb  Sb7  1  0.05927457  0.00043735  0.67944243  1
  As  As0  1  0.00467995  0.75000000  0.99960844  1
  As  As1  1  0.99532005  0.25000000  0.00039156  1
  As  As2  1  0.50467995  0.25000000  0.50039156  1
  As  As3  1  0.49532005  0.75000000  0.49960844  1
loop_
_geom_bond_atom_site_label_1
_geom_bond_atom_site_label_2
_geom_bond_distance
_geom_bond_site_symmetry_2
K0 Sb7 3.526898 1_565
K0 Sb2 3.526898 1_555
K0 Sb6 3.529093 1_455
K0 Sb4 3.529093 1_455
K1 Sb4 3.526898 1_555
K1 Sb6 3.526898 1_545
K1 Sb2 3.529093 1_655
K1 Sb7 3.529093 1_655
K2 Sb0 3.526898 1_554
K2 Sb5 3.526898 1_544
K2 Sb1 3.529093 1_555
K2 Sb3 3.529093 1_555
K3 Sb3 3.526898 1_566
K3 Sb1 3.526898 1_556
K3 Sb5 3.529093 1_555
K3 Sb0 3.529093 1_555
Sb0 Sr6 3.427850 1_555
Sb0 Sr14 3.450968 1_555
Sb0 Sr0 3.452554 1_555
Sb0 Sr12 3.497161 1_555
Sb0 Sr4 3.498225 1_555
Sb0 Sr2 3.505623 1_555
Sb1 Sr8 3.427850 1_555
Sb1 Sr15 3.450968 1_555
Sb1 Sr1 3.452554 1_555
Sb1 Sr13 3.497161 1_555
Sb1 Sr5 3.498225 1_555
Sb1 Sr3 3.505623 1_555
Sb2 Sr4 3.427850 1_455
Sb2 Sr12 3.450968 1_555
Sb2 Sr2 3.452554 1_555
Sb2 Sr14 3.497161 1_455
Sb2 Sr6 3.498225 1_555
Sb2 Sr0 3.505623 1_455
Sb3 Sr10 3.427850 1_545
Sb3 Sr15 3.450968 1_545
Sb3 Sr1 3.452554 1_555
Sb3 Sr13 3.497161 1_555
Sb3 Sr7 3.498225 1_555
Sb3 Sr3 3.505623 1_545
Sb4 Sr5 3.427850 1_655
Sb4 Sr13 3.450968 1_555
Sb4 Sr3 3.452554 1_555
Sb4 Sr15 3.497161 1_655
Sb4 Sr8 3.498225 1_555
Sb4 Sr1 3.505623 1_655
Sb5 Sr11 3.427850 1_565
Sb5 Sr14 3.450968 1_565
Sb5 Sr0 3.452554 1_555
Sb5 Sr12 3.497161 1_555
Sb5 Sr9 3.498225 1_555
Sb5 Sr2 3.505623 1_565
Sb6 Sr7 3.427850 1_665
Sb6 Sr13 3.450968 1_565
Sb6 Sr3 3.452554 1_555
Sb6 Sr15 3.497161 1_655
Sb6 Sr10 3.498225 1_555
Sb6 Sr1 3.505623 1_665
Sb7 Sr9 3.427850 1_445
Sb7 Sr12 3.450968 1_545
Sb7 Sr2 3.452554 1_555
Sb7 Sr14 3.497161 1_455
Sb7 Sr11 3.498225 1_555
Sb7 Sr0 3.505623 1_445
As0 Sr0 3.074500 1_455
As0 Sr15 3.074695 1_556
As0 Sr11 3.138730 1_565
As0 Sr6 3.138730 1_555
As0 Sr10 3.142308 1_456
As0 Sr8 3.142308 1_456
As1 Sr1 3.074500 1_655
As1 Sr14 3.074695 1_554
As1 Sr8 3.138730 1_555
As1 Sr10 3.138730 1_545
As1 Sr6 3.142308 1_654
As1 Sr11 3.142308 1_654
As2 Sr2 3.074500 1_555
As2 Sr13 3.074695 1_555
As2 Sr4 3.138730 1_555
As2 Sr9 3.138730 1_545
As2 Sr5 3.142308 1_555
As2 Sr7 3.142308 1_555
As3 Sr3 3.074500 1_555
As3 Sr12 3.074695 1_555
As3 Sr7 3.138730 1_565
As3 Sr5 3.138730 1_555
As3 Sr9 3.142308 1_555
As3 Sr4 3.142308 1_555
