# generated using pymatgen
data_Hf13In3(Pd2N)4
_symmetry_space_group_name_H-M   'P 1'
_cell_length_a   8.67558193
_cell_length_b   8.67915702
_cell_length_c   8.67558112
_cell_angle_alpha   60.01362452
_cell_angle_beta   59.99999934
_cell_angle_gamma   60.01362690
_symmetry_Int_Tables_number   1
_chemical_formula_structural   Hf13In3(Pd2N)4
_chemical_formula_sum   'Hf13 In3 Pd8 N4'
_cell_volume   462.00763153
_cell_formula_units_Z   1
loop_
 _symmetry_equiv_pos_site_id
 _symmetry_equiv_pos_as_xyz
  1  'x, y, z'
loop_
 _atom_site_type_symbol
 _atom_site_label
 _atom_site_symmetry_multiplicity
 _atom_site_fract_x
 _atom_site_fract_y
 _atom_site_fract_z
 _atom_site_occupancy
  Hf  Hf0  1  0.62500000  0.12500000  0.62500000  1
  Hf  Hf1  1  0.81622257  0.81636049  0.18370847  1
  Hf  Hf2  1  0.18164596  0.18654964  0.81590170  1
  Hf  Hf3  1  0.81590170  0.18654964  0.81590170  1
  Hf  Hf4  1  0.18370847  0.81636049  0.18370847  1
  Hf  Hf5  1  0.18370847  0.81636049  0.81622257  1
  Hf  Hf6  1  0.81590170  0.18654964  0.18164596  1
  Hf  Hf7  1  0.43377743  0.43363951  0.06629153  1
  Hf  Hf8  1  0.06835404  0.06345036  0.43409830  1
  Hf  Hf9  1  0.43409830  0.06345036  0.43409830  1
  Hf  Hf10  1  0.06629153  0.43363951  0.06629153  1
  Hf  Hf11  1  0.06629153  0.43363951  0.43377743  1
  Hf  Hf12  1  0.43409830  0.06345036  0.06835404  1
  In  In0  1  0.12500000  0.62500000  0.62500000  1
  In  In1  1  0.62500000  0.62500000  0.12500000  1
  In  In2  1  0.62500000  0.62500000  0.62500000  1
  Pd  Pd0  1  0.77524536  0.40075832  0.41199916  1
  Pd  Pd1  1  0.40719979  0.77840164  0.40719979  1
  Pd  Pd2  1  0.41199916  0.40075832  0.77524536  1
  Pd  Pd3  1  0.41199916  0.40075832  0.41199916  1
  Pd  Pd4  1  0.47475464  0.84924168  0.83800084  1
  Pd  Pd5  1  0.84280021  0.47159836  0.84280021  1
  Pd  Pd6  1  0.83800084  0.84924168  0.47475464  1
  Pd  Pd7  1  0.83800084  0.84924168  0.83800084  1
  N  N0  1  0.62500000  0.12500000  0.12500000  1
  N  N1  1  0.12500000  0.62500000  0.12500000  1
  N  N2  1  0.12500000  0.12500000  0.62500000  1
  N  N3  1  0.12500000  0.12500000  0.12500000  1
loop_
_geom_bond_atom_site_label_1
_geom_bond_atom_site_label_2
_geom_bond_distance
_geom_bond_site_symmetry_2
Hf0 Pd7 2.670331 1_545
Hf0 Pd3 2.670331 1_555
Hf0 Pd0 2.670341 1_555
Hf0 Pd4 2.670341 1_545
Hf0 Pd2 2.670341 1_555
Hf0 Pd6 2.670341 1_545
Hf1 N0 2.286101 1_565
Hf1 N1 2.286440 1_655
Hf1 Pd6 2.782803 1_555
Hf1 Pd7 2.782821 1_554
Hf1 Pd1 3.179569 1_555
Hf1 In2 3.196043 1_555
Hf1 In1 3.196043 1_555
Hf1 Pd0 3.239847 1_555
Hf2 N2 2.287032 1_555
Hf2 N3 2.287040 1_556
Hf2 Pd5 2.727296 1_455
Hf2 Pd4 2.749309 1_545
Hf2 Pd3 3.150885 1_555
Hf2 Pd2 3.150898 1_555
Hf2 In0 3.179644 1_555
Hf3 N0 2.287038 1_556
Hf3 N2 2.287038 1_655
Hf3 Pd5 2.727296 1_555
Hf3 Pd7 2.749313 1_545
Hf3 Pd0 3.150875 1_555
Hf3 Pd2 3.150876 1_555
Hf3 In2 3.179642 1_555
Hf4 N3 2.286101 1_565
Hf4 N1 2.286440 1_555
Hf4 Pd4 2.782813 1_554
Hf4 Pd6 2.782813 1_455
Hf4 Pd1 3.179577 1_555
Hf4 In0 3.196043 1_555
Hf4 In1 3.196044 1_555
Hf4 Pd3 3.239854 1_555
Hf5 N2 2.286101 1_565
Hf5 N1 2.286440 1_556
Hf5 Pd4 2.782804 1_555
Hf5 Pd7 2.782821 1_455
Hf5 Pd1 3.179569 1_555
Hf5 In0 3.196043 1_555
Hf5 In2 3.196044 1_555
Hf5 Pd2 3.239847 1_555
Hf6 N0 2.287032 1_555
Hf6 N3 2.287040 1_655
Hf6 Pd5 2.727296 1_554
Hf6 Pd6 2.749309 1_545
Hf6 Pd3 3.150885 1_555
Hf6 Pd0 3.150898 1_555
Hf6 In1 3.179644 1_555
Hf7 N0 2.286101 1_555
Hf7 N1 2.286440 1_555
Hf7 Pd2 2.782803 1_554
Hf7 Pd3 2.782821 1_555
Hf7 Pd5 3.179569 1_554
Hf7 In2 3.196043 1_554
Hf7 In1 3.196043 1_555
Hf7 Pd4 3.239847 1_554
Hf8 N2 2.287032 1_555
Hf8 N3 2.287040 1_555
Hf8 Pd1 2.727296 1_545
Hf8 Pd0 2.749309 1_455
Hf8 Pd7 3.150885 1_445
Hf8 Pd6 3.150898 1_445
Hf8 In0 3.179644 1_545
Hf9 N0 2.287038 1_555
Hf9 N2 2.287038 1_555
Hf9 Pd1 2.727296 1_545
Hf9 Pd3 2.749313 1_555
Hf9 Pd4 3.150875 1_545
Hf9 Pd6 3.150876 1_545
Hf9 In2 3.179642 1_545
Hf10 N3 2.286101 1_555
Hf10 N1 2.286440 1_555
Hf10 Pd0 2.782813 1_455
Hf10 Pd2 2.782813 1_554
Hf10 Pd5 3.179577 1_454
Hf10 In0 3.196043 1_554
Hf10 In1 3.196044 1_455
Hf10 Pd7 3.239854 1_454
Hf11 N2 2.286101 1_555
Hf11 N1 2.286440 1_555
Hf11 Pd0 2.782804 1_455
Hf11 Pd3 2.782821 1_555
Hf11 Pd5 3.179569 1_455
Hf11 In0 3.196043 1_555
Hf11 In2 3.196044 1_455
Hf11 Pd6 3.239847 1_455
Hf12 N0 2.287032 1_555
Hf12 N3 2.287040 1_555
Hf12 Pd1 2.727296 1_545
Hf12 Pd2 2.749309 1_554
Hf12 Pd7 3.150885 1_544
Hf12 Pd4 3.150898 1_544
Hf12 In1 3.179644 1_545
In0 Pd1 2.730272 1_555
In0 Pd5 2.730272 1_455
In0 Pd7 2.748107 1_455
In0 Pd3 2.748107 1_555
In0 Pd2 2.748117 1_555
In0 Pd6 2.748117 1_455
In1 Pd1 2.730272 1_555
In1 Pd5 2.730272 1_554
In1 Pd7 2.748107 1_554
In1 Pd3 2.748107 1_555
In1 Pd0 2.748117 1_555
In1 Pd4 2.748117 1_554
In2 Pd5 2.730265 1_555
In2 Pd1 2.730265 1_555
In2 Pd4 2.748103 1_555
In2 Pd0 2.748103 1_555
In2 Pd6 2.748104 1_555
In2 Pd2 2.748104 1_555
