# generated using pymatgen
data_Mg2Zr3(ReTc)12
_symmetry_space_group_name_H-M   'P 1'
_cell_length_a   8.38965879
_cell_length_b   8.38180910
_cell_length_c   8.38180918
_cell_angle_alpha   109.45224013
_cell_angle_beta   109.49018956
_cell_angle_gamma   109.49019892
_symmetry_Int_Tables_number   1
_chemical_formula_structural   Mg2Zr3(ReTc)12
_chemical_formula_sum   'Mg2 Zr3 Re12 Tc12'
_cell_volume   453.62417966
_cell_formula_units_Z   1
loop_
 _symmetry_equiv_pos_site_id
 _symmetry_equiv_pos_as_xyz
  1  'x, y, z'
loop_
 _atom_site_type_symbol
 _atom_site_label
 _atom_site_symmetry_multiplicity
 _atom_site_fract_x
 _atom_site_fract_y
 _atom_site_fract_z
 _atom_site_occupancy
  Mg  Mg0  1  0.99573671  1.00000000  0.00000000  1
  Mg  Mg1  1  0.63649133  0.00000000  1.00000000  1
  Zr  Zr0  1  0.00095999  0.63272683  1.00000000  1
  Zr  Zr1  1  0.00095999  0.00000000  0.63272683  1
  Zr  Zr2  1  0.36823317  0.36727317  0.36727317  1
  Re  Re0  1  0.37957394  0.19251202  0.00000000  1
  Re  Re1  1  0.18706292  0.80748798  0.80748798  1
  Re  Re2  1  0.37957394  0.00000000  0.19251202  1
  Re  Re3  1  0.19590362  0.37729864  0.00000000  1
  Re  Re4  1  0.99696769  0.37447274  0.19038817  1
  Re  Re5  1  0.80657952  0.18408458  0.80961183  1
  Re  Re6  1  0.80657952  0.80961183  0.18408458  1
  Re  Re7  1  0.99696769  0.19038817  0.37447274  1
  Re  Re8  1  0.19590362  1.00000000  0.37729864  1
  Re  Re9  1  0.62249494  0.62552726  0.81591542  1
  Re  Re10  1  0.81860398  0.62270136  0.62270136  1
  Re  Re11  1  0.62249494  0.81591542  0.62552726  1
  Tc  Tc0  1  0.39757821  0.67540283  1.00000000  1
  Tc  Tc1  1  0.72217338  0.32459717  0.32459717  1
  Tc  Tc2  1  0.39757821  0.00000000  0.67540283  1
  Tc  Tc3  1  0.67650019  0.39756552  1.00000000  1
  Tc  Tc4  1  0.99615516  0.39477785  0.67386632  1
  Tc  Tc5  1  0.32228884  0.72090954  0.32613368  1
  Tc  Tc6  1  0.32228884  0.32613368  0.72090954  1
  Tc  Tc7  1  0.99615516  0.67386632  0.39477785  1
  Tc  Tc8  1  0.67650019  1.00000000  0.39756552  1
  Tc  Tc9  1  0.60137831  0.60522215  0.27909046  1
  Tc  Tc10  1  0.27893667  0.60243448  0.60243448  1
  Tc  Tc11  1  0.60137831  0.27909046  0.60522215  1
loop_
_geom_bond_atom_site_label_1
_geom_bond_atom_site_label_2
_geom_bond_distance
_geom_bond_site_symmetry_2
Mg0 Re9 3.004957 1_554
Mg0 Re6 3.004957 1_555
Mg0 Re4 3.004958 1_565
Mg0 Re7 3.004958 1_565
Mg0 Re11 3.004958 1_554
Mg0 Re5 3.004958 1_564
Mg0 Mg1 3.013946 1_564
Mg0 Re10 3.045876 1_554
Mg0 Re3 3.045877 1_665
Mg0 Re8 3.045878 1_655
Mg0 Re0 3.083247 1_665
Mg0 Re2 3.083247 1_665
Mg0 Re1 3.083254 1_654
Mg0 Zr2 3.093310 1_665
Mg0 Zr0 3.093310 1_654
Mg0 Zr1 3.093310 1_664
Mg1 Tc0 2.789424 1_545
Mg1 Tc2 2.789425 1_555
Mg1 Tc1 2.789431 1_556
Mg1 Re4 2.941743 1_556
Mg1 Re5 2.941743 1_555
Mg1 Re9 2.941743 1_545
Mg1 Re11 2.941743 1_545
Mg1 Re7 2.941743 1_556
Mg1 Re6 2.941743 1_546
Mg1 Re1 3.093619 1_545
Mg1 Re2 3.093626 1_556
Mg1 Re0 3.093626 1_556
Mg1 Tc10 3.235831 1_545
Mg1 Tc3 3.235835 1_555
Mg1 Tc8 3.235835 1_546
Re0 Tc3 2.510499 1_554
Re0 Re3 2.523092 1_555
Re0 Re1 2.634687 1_544
Re0 Re2 2.634687 1_555
Re0 Tc1 2.746196 1_555
Re0 Tc2 2.746206 1_554
Re0 Tc9 2.882971 1_555
Re0 Tc6 2.882983 1_554
Re0 Zr1 2.986039 1_554
Re0 Zr2 2.986039 1_555
Re1 Tc10 2.510506 1_555
Re1 Re10 2.523106 1_455
Re1 Re2 2.634688 1_566
Re1 Tc2 2.746201 1_565
Re1 Tc0 2.746201 1_555
Re1 Tc4 2.882968 1_455
Re1 Tc7 2.882968 1_455
Re1 Zr0 2.986043 1_555
Re1 Zr1 2.986043 1_565
Re2 Tc8 2.510499 1_545
Re2 Re8 2.523092 1_545
Re2 Tc1 2.746196 1_555
Re2 Tc0 2.746206 1_544
Re2 Tc11 2.882971 1_555
Re2 Tc5 2.882983 1_545
Re2 Zr0 2.986038 1_544
Re2 Zr2 2.986038 1_555
Re3 Tc0 2.506985 1_554
Re3 Re5 2.666226 1_454
Re3 Re4 2.666226 1_455
Re3 Tc5 2.770562 1_555
Re3 Tc4 2.770572 1_454
Re3 Tc9 2.840921 1_555
Re3 Tc6 2.840927 1_554
Re3 Zr1 2.976142 1_554
Re3 Zr2 2.976142 1_555
Re3 Zr0 3.097598 1_554
Re4 Re7 2.519351 1_555
Re4 Tc7 2.527482 1_555
Re4 Re5 2.605621 1_554
Re4 Tc3 2.739099 1_554
Re4 Tc5 2.759427 1_655
Re4 Tc1 2.855847 1_555
Re4 Tc10 2.883009 1_655
Re4 Zr2 3.001192 1_655
Re4 Zr0 3.085669 1_654
Re5 Tc11 2.527490 1_555
Re5 Tc3 2.739099 1_555
Re5 Tc4 2.759437 1_555
Re5 Tc2 2.855832 1_555
Re5 Tc8 2.883006 1_545
Re5 Zr1 3.001192 1_655
Re5 Zr0 3.085669 1_655
Re6 Re9 2.519351 1_554
Re6 Tc9 2.527490 1_555
Re6 Re7 2.605621 1_565
Re6 Re8 2.666226 1_655
Re6 Tc8 2.739099 1_555
Re6 Tc7 2.759437 1_555
Re6 Tc0 2.855832 1_554
Re6 Tc3 2.883006 1_554
Re6 Zr0 3.001192 1_654
Re6 Zr1 3.085669 1_665
Re7 Tc4 2.527482 1_555
Re7 Re8 2.666226 1_645
Re7 Tc8 2.739099 1_545
Re7 Tc6 2.759428 1_655
Re7 Tc1 2.855847 1_555
Re7 Tc10 2.883009 1_655
Re7 Zr2 3.001192 1_655
Re7 Zr1 3.085669 1_655
Re8 Tc2 2.506986 1_565
Re8 Tc6 2.770562 1_565
Re8 Tc7 2.770572 1_455
Re8 Tc11 2.840921 1_565
Re8 Tc5 2.840927 1_555
Re8 Zr2 2.976142 1_565
Re8 Zr0 2.976142 1_554
Re8 Zr1 3.097598 1_565
Re9 Tc6 2.527476 1_555
Re9 Tc10 2.739086 1_555
Re9 Tc11 2.759428 1_555
Re9 Tc0 2.855832 1_555
Re9 Tc3 2.883006 1_555
Re9 Zr0 3.001192 1_655
Re9 Zr2 3.085669 1_555
Re10 Tc1 2.506983 1_555
Re10 Re9 2.666219 1_555
Re10 Re11 2.666219 1_555
Re10 Tc11 2.770553 1_555
Re10 Tc9 2.770554 1_555
Re10 Tc7 2.840918 1_555
Re10 Tc4 2.840918 1_555
Re10 Zr1 2.976143 1_665
Re10 Zr0 2.976144 1_655
Re10 Zr2 3.097592 1_555
Re11 Re5 2.519351 1_565
Re11 Tc5 2.527476 1_555
Re11 Re9 2.605621 1_555
Re11 Tc10 2.739085 1_555
Re11 Tc9 2.759428 1_555
Re11 Tc2 2.855832 1_565
Re11 Tc8 2.883005 1_555
Re11 Zr1 3.001192 1_665
Re11 Zr2 3.085669 1_555
Tc0 Tc6 2.767736 1_555
Tc0 Tc9 2.767745 1_556
Tc0 Tc8 2.914132 1_556
Tc0 Tc10 2.914134 1_555
Tc0 Tc4 2.938619 1_455
Tc0 Tc5 2.938621 1_556
Tc0 Zr0 3.225819 1_555
Tc1 Tc7 2.767736 1_555
Tc1 Tc4 2.767736 1_555
Tc1 Tc8 2.914134 1_545
Tc1 Tc3 2.914134 1_554
Tc1 Tc11 2.938600 1_555
Tc1 Tc9 2.938600 1_555
Tc1 Zr2 3.225802 1_555
Tc2 Tc5 2.767736 1_545
Tc2 Tc3 2.914132 1_555
Tc2 Tc7 2.938619 1_445
Tc2 Tc6 2.938621 1_555
Tc2 Zr1 3.225819 1_555
Tc3 Zr0 2.777530 1_655
Tc3 Tc9 2.811204 1_556
Tc3 Tc6 2.811205 1_555
Tc3 Tc7 2.886986 1_556
Tc4 Zr0 2.773718 1_655
Tc4 Tc8 2.886985 1_545
Tc4 Tc6 2.907699 1_655
Tc4 Zr1 3.226147 1_655
Tc5 Zr0 2.773724 1_554
Tc5 Tc8 2.811205 1_555
Tc5 Tc9 2.907691 1_555
Tc5 Tc7 2.907699 1_455
Tc5 Zr2 3.226130 1_555
Tc6 Zr1 2.773724 1_555
Tc6 Zr2 3.226130 1_555
Tc7 Zr1 2.773718 1_665
Tc7 Tc9 2.907691 1_555
Tc7 Zr0 3.226147 1_654
Tc8 Zr1 2.777530 1_665
Tc8 Tc9 2.886990 1_555
Tc9 Zr2 2.773710 1_555
Tc9 Zr1 3.226139 1_665
Tc10 Zr2 2.777518 1_555
Tc10 Tc4 2.811210 1_455
Tc10 Tc7 2.811210 1_455
Tc10 Tc5 2.886971 1_555
Tc10 Tc6 2.886971 1_555
Tc10 Tc2 2.914133 1_565
Tc11 Tc2 2.767744 1_555
Tc11 Zr2 2.773710 1_555
Tc11 Tc8 2.811204 1_545
Tc11 Tc3 2.886990 1_555
Tc11 Tc4 2.907691 1_555
Tc11 Tc6 2.907691 1_555
Tc11 Zr0 3.226139 1_655
