# generated using pymatgen
data_Ca3C3BrCl
_symmetry_space_group_name_H-M   'P 1'
_cell_length_a   7.10567824
_cell_length_b   7.10567894
_cell_length_c   11.56377387
_cell_angle_alpha   90.00000000
_cell_angle_beta   90.00000000
_cell_angle_gamma   148.27252501
_symmetry_Int_Tables_number   1
_chemical_formula_structural   Ca3C3BrCl
_chemical_formula_sum   'Ca6 C6 Br2 Cl2'
_cell_volume   307.04145547
_cell_formula_units_Z   2
loop_
 _symmetry_equiv_pos_site_id
 _symmetry_equiv_pos_as_xyz
  1  'x, y, z'
loop_
 _atom_site_type_symbol
 _atom_site_label
 _atom_site_symmetry_multiplicity
 _atom_site_fract_x
 _atom_site_fract_y
 _atom_site_fract_z
 _atom_site_occupancy
  Ca  Ca0  1  0.66155079  0.33844921  0.56474994  1
  Ca  Ca1  1  0.33844921  0.66155079  0.43525006  1
  Ca  Ca2  1  0.33844921  0.66155079  0.06474994  1
  Ca  Ca3  1  0.66155079  0.33844921  0.93525006  1
  Ca  Ca4  1  0.11796292  0.88203708  0.25000000  1
  Ca  Ca5  1  0.88203708  0.11796292  0.75000000  1
  C  C0  1  0.27026658  0.72973342  0.63556334  1
  C  C1  1  0.72973342  0.27026658  0.36443666  1
  C  C2  1  0.72973342  0.27026658  0.13556334  1
  C  C3  1  0.27026658  0.72973342  0.86443666  1
  C  C4  1  0.73864331  0.26135669  0.25000000  1
  C  C5  1  0.26135669  0.73864331  0.75000000  1
  Br  Br0  1  0.00000000  0.00000000  0.00000000  1
  Br  Br1  1  0.00000000  0.00000000  0.50000000  1
  Cl  Cl0  1  0.53198795  0.46801205  0.75000000  1
  Cl  Cl1  1  0.46801205  0.53198795  0.25000000  1
loop_
_geom_bond_atom_site_label_1
_geom_bond_atom_site_label_2
_geom_bond_distance
_geom_bond_site_symmetry_2
Ca0 Cl0 2.779552 1_555
Ca1 Cl1 2.779552 1_555
Ca2 Cl1 2.779552 1_555
Ca3 Cl0 2.779552 1_555
Ca4 Cl1 2.823925 1_455
Ca4 Cl1 2.823925 1_565
Ca5 Cl0 2.823925 1_655
Ca5 Cl0 2.823925 1_545
C0 C5 1.328913 1_555
C0 Ca1 2.496868 1_555
C0 Ca0 2.579127 1_455
C0 Ca0 2.579127 1_565
C0 Ca5 2.803281 1_565
C0 Ca5 2.803282 1_455
C1 C4 1.328913 1_555
C1 Ca0 2.496868 1_555
C1 Ca1 2.579127 1_655
C1 Ca1 2.579127 1_545
C1 Ca4 2.803281 1_545
C1 Ca4 2.803282 1_655
C2 C4 1.328913 1_555
C2 Ca3 2.496868 1_554
C2 Ca2 2.579127 1_655
C2 Ca2 2.579127 1_545
C2 Ca4 2.803281 1_545
C2 Ca4 2.803282 1_655
C3 C5 1.328913 1_555
C3 Ca2 2.496868 1_556
C3 Ca3 2.579127 1_455
C3 Ca3 2.579127 1_565
C3 Ca5 2.803281 1_565
C3 Ca5 2.803282 1_455
C4 Ca4 2.548380 1_545
C4 Ca4 2.548381 1_655
C5 Ca5 2.548380 1_565
C5 Ca5 2.548381 1_455
Br0 Ca2 3.034868 1_445
Br0 Ca3 3.034868 1_554
Br0 Ca2 3.034869 1_555
Br0 Ca3 3.034869 1_444
Br0 Ca4 3.310276 1_545
Br0 Ca5 3.310276 1_454
Br1 Ca0 3.034868 1_555
Br1 Ca1 3.034868 1_445
Br1 Ca0 3.034869 1_445
Br1 Ca1 3.034869 1_555
Br1 Ca4 3.310276 1_545
Br1 Ca5 3.310276 1_455
