# generated using pymatgen
data_K3Na2TaAs3
_symmetry_space_group_name_H-M   'P 1'
_cell_length_a   10.46535174
_cell_length_b   10.46535281
_cell_length_c   15.24301849
_cell_angle_alpha   90.00000000
_cell_angle_beta   90.00000000
_cell_angle_gamma   141.97649974
_symmetry_Int_Tables_number   1
_chemical_formula_structural   K3Na2TaAs3
_chemical_formula_sum   'K12 Na8 Ta4 As12'
_cell_volume   1028.36800648
_cell_formula_units_Z   4
loop_
 _symmetry_equiv_pos_site_id
 _symmetry_equiv_pos_as_xyz
  1  'x, y, z'
loop_
 _atom_site_type_symbol
 _atom_site_label
 _atom_site_symmetry_multiplicity
 _atom_site_fract_x
 _atom_site_fract_y
 _atom_site_fract_z
 _atom_site_occupancy
  K  K0  1  0.60716271  0.93720889  0.82444448  1
  K  K1  1  0.27361582  0.27361582  0.31467833  1
  K  K2  1  0.22638418  0.22638418  0.81467833  1
  K  K3  1  0.72638418  0.72638418  0.68532167  1
  K  K4  1  0.43720889  0.10716271  0.67555552  1
  K  K5  1  0.89283729  0.56279111  0.32444448  1
  K  K6  1  0.06279111  0.39283729  0.17555552  1
  K  K7  1  0.39283729  0.06279111  0.17555552  1
  K  K8  1  0.56279111  0.89283729  0.32444448  1
  K  K9  1  0.10716271  0.43720889  0.67555552  1
  K  K10  1  0.93720889  0.60716271  0.82444448  1
  K  K11  1  0.77361582  0.77361582  0.18532167  1
  Na  Na0  1  0.07953979  0.92046021  0.00000000  1
  Na  Na1  1  0.57953979  0.42046021  0.50000000  1
  Na  Na2  1  0.92046021  0.07953979  0.00000000  1
  Na  Na3  1  0.75593990  0.24406010  0.00000000  1
  Na  Na4  1  0.74406010  0.25593990  0.50000000  1
  Na  Na5  1  0.24406010  0.75593990  0.00000000  1
  Na  Na6  1  0.25593990  0.74406010  0.50000000  1
  Na  Na7  1  0.42046021  0.57953979  0.50000000  1
  Ta  Ta0  1  0.08068533  0.91931467  0.50000000  1
  Ta  Ta1  1  0.41931467  0.58068533  0.00000000  1
  Ta  Ta2  1  0.91931467  0.08068533  0.50000000  1
  Ta  Ta3  1  0.58068533  0.41931467  0.00000000  1
  As  As0  1  0.05400968  0.36103189  0.40093241  1
  As  As1  1  0.86103189  0.55400968  0.09906759  1
  As  As2  1  0.44599032  0.13896811  0.90093241  1
  As  As3  1  0.63896811  0.94599032  0.59906759  1
  As  As4  1  0.94599032  0.63896811  0.59906759  1
  As  As5  1  0.13896811  0.44599032  0.90093241  1
  As  As6  1  0.55400968  0.86103189  0.09906759  1
  As  As7  1  0.36103189  0.05400968  0.40093241  1
  As  As8  1  0.20765146  0.20765146  0.59386450  1
  As  As9  1  0.70765146  0.70765146  0.90613550  1
  As  As10  1  0.29234854  0.29234854  0.09386450  1
  As  As11  1  0.79234854  0.79234854  0.40613550  1
loop_
_geom_bond_atom_site_label_1
_geom_bond_atom_site_label_2
_geom_bond_distance
_geom_bond_site_symmetry_2
As0 Ta2 2.521786 1_455
As0 Na4 2.896734 1_455
As0 Na7 2.898302 1_555
As0 Na6 3.077044 1_555
As0 K1 3.340676 1_555
As0 K6 3.445748 1_555
As0 K8 3.479895 1_445
As0 K8 3.741201 1_555
As0 K5 3.778084 1_455
As1 Ta3 2.521785 1_555
As1 Na3 2.896734 1_555
As1 Na0 2.898302 1_655
As1 Na5 3.077044 1_655
As1 K11 3.340676 1_555
As1 K5 3.445748 1_555
As1 K7 3.479895 1_555
As1 K7 3.741201 1_665
As1 K6 3.778084 1_655
As2 Ta3 2.521786 1_556
As2 Na3 2.896734 1_556
As2 Na0 2.898302 1_546
As2 Na5 3.077044 1_546
As2 K2 3.340676 1_555
As2 K4 3.445748 1_555
As2 K10 3.479895 1_555
As2 K10 3.741201 1_445
As2 K0 3.778084 1_545
As3 Ta2 2.521785 1_565
As3 Na4 2.896734 1_565
As3 Na7 2.898302 1_555
As3 Na6 3.077044 1_555
As3 K3 3.340676 1_555
As3 K0 3.445748 1_555
As3 K9 3.479895 1_665
As3 K9 3.741201 1_555
As3 K4 3.778084 1_565
As4 Ta0 2.521786 1_655
As4 Na6 2.896734 1_655
As4 Na1 2.898302 1_555
As4 Na4 3.077044 1_555
As4 K3 3.340676 1_555
As4 K10 3.445748 1_555
As4 K4 3.479895 1_665
As4 K4 3.741201 1_555
As4 K9 3.778084 1_655
As5 Ta1 2.521785 1_556
As5 Na5 2.896734 1_556
As5 Na2 2.898302 1_456
As5 Na3 3.077044 1_456
As5 K2 3.340676 1_555
As5 K9 3.445748 1_555
As5 K0 3.479895 1_555
As5 K0 3.741201 1_445
As5 K10 3.778084 1_455
As6 Ta1 2.521786 1_555
As6 Na5 2.896734 1_555
As6 Na2 2.898302 1_565
As6 Na3 3.077044 1_565
As6 K11 3.340676 1_555
As6 K8 3.445748 1_555
As6 K6 3.479895 1_555
As6 K6 3.741201 1_665
As6 K7 3.778084 1_565
As7 Ta0 2.521785 1_545
As7 Na6 2.896734 1_545
As7 Na1 2.898302 1_555
As7 Na4 3.077044 1_555
As7 K1 3.340676 1_555
As7 K7 3.445748 1_555
As7 K5 3.479895 1_445
As7 K5 3.741201 1_555
As7 K8 3.778084 1_545
As8 Ta2 2.569273 1_455
As8 Ta0 2.569273 1_545
As8 Na1 2.915152 1_555
As8 Na7 2.915152 1_555
As8 K2 3.368292 1_555
As8 K4 3.522581 1_555
As8 K9 3.522581 1_555
As8 K3 3.565337 1_445
As8 K3 3.801767 1_555
As9 Ta1 2.569273 1_556
As9 Ta3 2.569273 1_556
As9 Na0 2.915152 1_656
As9 Na2 2.915152 1_566
As9 K3 3.368292 1_555
As9 K10 3.522581 1_555
As9 K0 3.522581 1_555
As9 K2 3.565337 1_555
As9 K2 3.801767 1_665
As10 Ta3 2.569273 1_555
As10 Ta1 2.569273 1_555
As10 Na2 2.915152 1_455
As10 Na0 2.915152 1_545
As10 K1 3.368292 1_555
As10 K6 3.522581 1_555
As10 K7 3.522581 1_555
As10 K11 3.565337 1_555
As10 K11 3.801767 1_445
As11 Ta0 2.569273 1_655
As11 Ta2 2.569273 1_565
As11 Na7 2.915152 1_555
As11 Na1 2.915152 1_555
As11 K11 3.368292 1_555
As11 K8 3.522581 1_555
As11 K5 3.522581 1_555
As11 K1 3.565337 1_665
As11 K1 3.801767 1_555
