# generated using pymatgen
data_Hf18Ta5Re3As2
_symmetry_space_group_name_H-M   'P 1'
_cell_length_a   8.66124944
_cell_length_b   8.71966741
_cell_length_c   8.77074852
_cell_angle_alpha   90.00000000
_cell_angle_beta   90.00000000
_cell_angle_gamma   120.22242780
_symmetry_Int_Tables_number   1
_chemical_formula_structural   Hf18Ta5Re3As2
_chemical_formula_sum   'Hf18 Ta5 Re3 As2'
_cell_volume   572.36094252
_cell_formula_units_Z   1
loop_
 _symmetry_equiv_pos_site_id
 _symmetry_equiv_pos_as_xyz
  1  'x, y, z'
loop_
 _atom_site_type_symbol
 _atom_site_label
 _atom_site_symmetry_multiplicity
 _atom_site_fract_x
 _atom_site_fract_y
 _atom_site_fract_z
 _atom_site_occupancy
  Hf  Hf0  1  0.80339514  0.60775334  0.54512546  1
  Hf  Hf1  1  0.80332954  0.19570083  0.54507569  1
  Hf  Hf2  1  0.38868236  0.19434023  0.54282842  1
  Hf  Hf3  1  0.19550640  0.39075322  0.45181309  1
  Hf  Hf4  1  0.19557628  0.80468801  0.45184773  1
  Hf  Hf5  1  0.60951601  0.80476982  0.45276392  1
  Hf  Hf6  1  0.19550640  0.39075322  0.04818691  1
  Hf  Hf7  1  0.19557628  0.80468801  0.04815227  1
  Hf  Hf8  1  0.60951601  0.80476982  0.04723608  1
  Hf  Hf9  1  0.80339514  0.60775334  0.95487454  1
  Hf  Hf10  1  0.80332954  0.19570083  0.95492431  1
  Hf  Hf11  1  0.38868236  0.19434023  0.95717158  1
  Hf  Hf12  1  0.46013488  0.92138639  0.75000000  1
  Hf  Hf13  1  0.46008967  0.53880284  0.75000000  1
  Hf  Hf14  1  0.07904622  0.53953020  0.75000000  1
  Hf  Hf15  1  0.53813041  0.08065485  0.25000000  1
  Hf  Hf16  1  0.53819245  0.45746645  0.25000000  1
  Hf  Hf17  1  0.92007872  0.46003495  0.25000000  1
  Ta  Ta0  1  0.11015841  0.22036833  0.75000000  1
  Ta  Ta1  1  0.11020153  0.88982843  0.75000000  1
  Ta  Ta2  1  0.77899170  0.88953464  0.75000000  1
  Ta  Ta3  1  0.89585418  0.78299893  0.25000000  1
  Ta  Ta4  1  0.89579448  0.11280657  0.25000000  1
  Re  Re0  1  0.22304997  0.11149905  0.25000000  1
  Re  Re1  1  0.00024231  0.00011737  0.50117418  1
  Re  Re2  1  0.00024231  0.00011737  0.99882582  1
  As  As0  1  0.66459042  0.33233078  0.75000000  1
  As  As1  1  0.33319090  0.66651195  0.25000000  1
loop_
_geom_bond_atom_site_label_1
_geom_bond_atom_site_label_2
_geom_bond_distance
_geom_bond_site_symmetry_2
Hf0 Ta3 2.905959 1_555
Hf0 Re1 2.981332 1_665
Hf0 Ta1 3.124103 1_655
Hf0 Ta2 3.135825 1_555
Hf1 Ta4 2.905945 1_555
Hf1 Re1 2.982222 1_655
Hf1 Ta0 3.124686 1_655
Hf1 Ta2 3.136153 1_545
Hf2 Re0 2.851820 1_555
Hf2 Re1 2.929949 1_555
Hf2 Ta1 3.118052 1_545
Hf2 Ta0 3.118311 1_555
Hf3 Ta0 2.913422 1_555
Hf3 Re1 2.974997 1_555
Hf3 Ta4 3.067880 1_455
Hf3 Re0 3.115130 1_555
Hf4 Ta1 2.913575 1_555
Hf4 Re1 2.975861 1_565
Hf4 Ta3 3.068342 1_455
Hf4 Re0 3.115619 1_565
Hf5 Ta2 2.899152 1_555
Hf5 Re1 2.954858 1_665
Hf5 Ta4 3.133772 1_565
Hf5 Ta3 3.134215 1_555
Hf6 Ta0 2.913422 1_554
Hf6 Re2 2.974997 1_554
Hf6 Ta4 3.067880 1_455
Hf6 Re0 3.115130 1_555
Hf7 Ta1 2.913575 1_554
Hf7 Re2 2.975861 1_564
Hf7 Ta3 3.068342 1_455
Hf7 Re0 3.115619 1_565
Hf8 Ta2 2.899152 1_554
Hf8 Re2 2.954858 1_664
Hf8 Ta4 3.133772 1_565
Hf8 Ta3 3.134215 1_555
Hf9 Ta3 2.905959 1_556
Hf9 Re2 2.981332 1_665
Hf9 Ta1 3.124103 1_655
Hf9 Ta2 3.135825 1_555
Hf10 Ta4 2.905945 1_556
Hf10 Re2 2.982222 1_655
Hf10 Ta0 3.124686 1_655
Hf10 Ta2 3.136153 1_545
Hf11 Re0 2.851820 1_556
Hf11 Re2 2.929949 1_555
Hf11 Ta1 3.118052 1_545
Hf11 Ta0 3.118311 1_555
Hf12 Ta1 2.902105 1_555
Hf12 Ta2 2.911407 1_555
Hf13 Ta0 2.902354 1_555
Hf13 Ta2 2.911733 1_555
Hf14 Ta0 2.927899 1_555
Hf14 Ta1 2.927955 1_555
Hf15 Re0 2.873781 1_555
Hf15 Ta4 2.966607 1_555
Hf16 Re0 2.874265 1_555
Hf16 Ta3 2.966709 1_555
Hf17 Ta3 2.927370 1_555
Hf17 Ta4 2.927491 1_555
Ta0 Ta2 2.866898 1_445
Ta0 Ta1 2.882386 1_545
Ta1 Ta2 2.867402 1_455
Ta3 Ta4 2.876073 1_565
Re0 Re1 2.762910 1_555
Re0 Re2 2.762910 1_554
Re0 Ta3 2.839707 1_445
Re0 Ta4 2.840197 1_455
Re1 Ta2 2.739456 1_445
Re1 Ta1 2.741666 1_545
Re1 Ta0 2.741695 1_555
Re1 Ta3 2.744378 1_445
Re1 Ta4 2.744440 1_455
Re2 Ta2 2.739456 1_445
Re2 Ta1 2.741666 1_545
Re2 Ta0 2.741695 1_555
Re2 Ta3 2.744378 1_446
Re2 Ta4 2.744440 1_456
As0 Hf10 2.744993 1_555
As0 Hf1 2.744993 1_555
As0 Hf9 2.745033 1_555
As0 Hf0 2.745033 1_555
As0 Hf11 2.750538 1_555
As0 Hf2 2.750538 1_555
As0 Hf12 3.096423 1_545
As0 Hf13 3.096591 1_555
As0 Hf14 3.101785 1_655
As1 Hf8 2.727520 1_555
As1 Hf5 2.727520 1_555
As1 Hf3 2.729510 1_555
As1 Hf6 2.729510 1_555
As1 Hf4 2.729872 1_555
As1 Hf7 2.729872 1_555
As1 Hf17 3.091729 1_455
As1 Hf16 3.119861 1_555
As1 Hf15 3.120640 1_565
