# generated using pymatgen
data_Zr6Nb4Ga12Ru7
_symmetry_space_group_name_H-M   'P 1'
_cell_length_a   8.78940536
_cell_length_b   8.78940534
_cell_length_c   8.78940563
_cell_angle_alpha   60.00000262
_cell_angle_beta   60.00000268
_cell_angle_gamma   60.00000598
_symmetry_Int_Tables_number   1
_chemical_formula_structural   Zr6Nb4Ga12Ru7
_chemical_formula_sum   'Zr6 Nb4 Ga12 Ru7'
_cell_volume   480.13518640
_cell_formula_units_Z   1
loop_
 _symmetry_equiv_pos_site_id
 _symmetry_equiv_pos_as_xyz
  1  'x, y, z'
loop_
 _atom_site_type_symbol
 _atom_site_label
 _atom_site_symmetry_multiplicity
 _atom_site_fract_x
 _atom_site_fract_y
 _atom_site_fract_z
 _atom_site_occupancy
  Zr  Zr0  1  0.70286151  0.70286151  0.29713849  1
  Zr  Zr1  1  0.29713849  0.70286151  0.29713849  1
  Zr  Zr2  1  0.70286151  0.29713849  0.29713849  1
  Zr  Zr3  1  0.29713849  0.29713849  0.70286151  1
  Zr  Zr4  1  0.70286151  0.29713849  0.70286151  1
  Zr  Zr5  1  0.29713849  0.70286151  0.70286151  1
  Nb  Nb0  1  0.87809762  0.87809762  0.36570914  1
  Nb  Nb1  1  0.87809762  0.36570914  0.87809762  1
  Nb  Nb2  1  0.36570914  0.87809762  0.87809762  1
  Nb  Nb3  1  0.87809762  0.87809762  0.87809762  1
  Ga  Ga0  1  0.12055230  0.12055230  0.63834210  1
  Ga  Ga1  1  0.12055230  0.63834210  0.12055230  1
  Ga  Ga2  1  0.63834210  0.12055230  0.12055230  1
  Ga  Ga3  1  0.12055230  0.12055230  0.12055230  1
  Ga  Ga4  1  0.65727919  0.65727919  0.02816144  1
  Ga  Ga5  1  0.65727919  0.02816144  0.65727919  1
  Ga  Ga6  1  0.02816144  0.65727919  0.65727919  1
  Ga  Ga7  1  0.65727919  0.65727919  0.65727919  1
  Ga  Ga8  1  0.33791963  0.33791963  0.98624111  1
  Ga  Ga9  1  0.33791963  0.98624111  0.33791963  1
  Ga  Ga10  1  0.98624111  0.33791963  0.33791963  1
  Ga  Ga11  1  0.33791963  0.33791963  0.33791963  1
  Ru  Ru0  1  0.00000000  0.00000000  0.00000000  1
  Ru  Ru1  1  0.99767700  0.99767700  0.50232300  1
  Ru  Ru2  1  0.50232300  0.99767700  0.50232300  1
  Ru  Ru3  1  0.99767700  0.50232300  0.50232300  1
  Ru  Ru4  1  0.50232300  0.50232300  0.99767700  1
  Ru  Ru5  1  0.99767700  0.50232300  0.99767700  1
  Ru  Ru6  1  0.50232300  0.99767700  0.99767700  1
loop_
_geom_bond_atom_site_label_1
_geom_bond_atom_site_label_2
_geom_bond_distance
_geom_bond_site_symmetry_2
Nb0 Ru0 2.624519 1_665
Nb0 Ru1 2.698125 1_555
Nb0 Ru3 2.698139 1_555
Nb0 Ru2 2.698139 1_555
Nb0 Zr2 3.055579 1_565
Nb0 Zr1 3.055579 1_655
Nb0 Zr0 3.055594 1_555
Nb1 Ru0 2.624519 1_656
Nb1 Ru5 2.698125 1_555
Nb1 Ru3 2.698139 1_555
Nb1 Ru4 2.698139 1_555
Nb1 Zr3 3.055579 1_655
Nb1 Zr2 3.055579 1_556
Nb1 Zr4 3.055594 1_555
Nb2 Ru0 2.624519 1_566
Nb2 Ru6 2.698125 1_555
Nb2 Ru2 2.698139 1_555
Nb2 Ru4 2.698139 1_555
Nb2 Zr3 3.055579 1_565
Nb2 Zr1 3.055579 1_556
Nb2 Zr5 3.055594 1_555
Nb3 Ru0 2.624504 1_666
Nb3 Ru5 2.698139 1_555
Nb3 Ru1 2.698139 1_555
Nb3 Ru6 2.698139 1_555
Nb3 Zr0 3.055582 1_556
Nb3 Zr4 3.055582 1_565
Nb3 Zr5 3.055582 1_655
Ga0 Ru0 2.595445 1_556
Ga0 Ru1 2.740589 1_445
Ga0 Ru3 2.740597 1_455
Ga0 Ru2 2.740597 1_545
Ga0 Ga10 2.798773 1_455
Ga0 Ga9 2.798773 1_545
Ga0 Ga11 2.798777 1_555
Ga0 Nb3 3.013828 1_445
Ga0 Nb1 3.013847 1_455
Ga0 Nb2 3.013847 1_545
Ga0 Zr5 3.051034 1_545
Ga0 Zr4 3.051034 1_455
Ga0 Zr3 3.051041 1_555
Ga1 Ru0 2.595445 1_565
Ga1 Ru5 2.740589 1_454
Ga1 Ru3 2.740597 1_455
Ga1 Ru4 2.740597 1_554
Ga1 Ga10 2.798772 1_455
Ga1 Ga8 2.798773 1_554
Ga1 Ga11 2.798777 1_555
Ga1 Nb3 3.013829 1_454
Ga1 Nb2 3.013847 1_554
Ga1 Nb0 3.013847 1_455
Ga1 Zr0 3.051034 1_455
Ga1 Zr5 3.051034 1_554
Ga1 Zr1 3.051041 1_555
Ga2 Ru0 2.595445 1_655
Ga2 Ru6 2.740589 1_544
Ga2 Ru2 2.740597 1_545
Ga2 Ru4 2.740597 1_554
Ga2 Ga9 2.798772 1_545
Ga2 Ga8 2.798773 1_554
Ga2 Nb3 3.013829 1_544
Ga2 Nb1 3.013847 1_554
Ga2 Nb0 3.013847 1_545
Ga2 Zr0 3.051034 1_545
Ga2 Zr4 3.051034 1_554
Ga2 Zr2 3.051041 1_555
Ga3 Ru0 2.595438 1_555
Ga3 Ru5 2.740597 1_454
Ga3 Ru1 2.740597 1_445
Ga3 Ru6 2.740597 1_544
Ga3 Ga8 2.798779 1_554
Ga3 Ga9 2.798780 1_545
Ga3 Nb0 3.013829 1_445
Ga3 Nb1 3.013829 1_454
Ga3 Nb2 3.013829 1_544
Ga3 Zr3 3.051035 1_554
Ga3 Zr1 3.051036 1_545
Ga3 Zr2 3.051036 1_455
Ga4 Ru4 2.523203 1_554
Ga4 Ru6 2.523211 1_554
Ga4 Ru5 2.523211 1_554
Ga4 Nb1 2.814343 1_554
Ga4 Nb2 2.814343 1_554
Ga4 Nb3 2.814364 1_554
Ga4 Zr2 2.822244 1_555
Ga4 Zr1 2.822244 1_555
Ga4 Zr0 2.822249 1_555
Ga5 Ru2 2.523203 1_545
Ga5 Ru1 2.523211 1_545
Ga5 Ru6 2.523211 1_545
Ga5 Nb2 2.814343 1_545
Ga5 Nb0 2.814343 1_545
Ga5 Nb3 2.814364 1_545
Ga5 Zr2 2.822244 1_555
Ga5 Zr3 2.822244 1_555
Ga5 Zr4 2.822249 1_555
Ga6 Ru3 2.523203 1_455
Ga6 Ru1 2.523211 1_455
Ga6 Ru5 2.523211 1_455
Ga6 Nb1 2.814343 1_455
Ga6 Nb0 2.814343 1_455
Ga6 Nb3 2.814364 1_455
Ga6 Zr1 2.822244 1_555
Ga6 Zr3 2.822244 1_555
Ga6 Zr5 2.822249 1_555
Ga7 Ru4 2.523209 1_555
Ga7 Ru2 2.523209 1_555
Ga7 Ru3 2.523209 1_555
Ga7 Nb0 2.814358 1_555
Ga7 Nb1 2.814358 1_555
Ga7 Nb2 2.814358 1_555
Ga7 Zr4 2.822241 1_555
Ga7 Zr5 2.822241 1_555
Ga7 Zr0 2.822241 1_555
Ga8 Ru4 2.562174 1_555
Ga8 Ru6 2.562174 1_545
Ga8 Ru5 2.562174 1_455
Ga8 Zr3 2.893923 1_555
Ga8 Zr5 2.893923 1_555
Ga8 Zr4 2.893923 1_555
Ga9 Ru2 2.562174 1_555
Ga9 Ru1 2.562174 1_455
Ga9 Ru6 2.562174 1_554
Ga9 Zr1 2.893923 1_555
Ga9 Zr5 2.893923 1_555
Ga9 Zr0 2.893923 1_555
Ga10 Ru3 2.562174 1_555
Ga10 Ru1 2.562174 1_545
Ga10 Ru5 2.562174 1_554
Ga10 Ga3 2.798780 1_655
Ga10 Zr2 2.893923 1_555
Ga10 Zr4 2.893923 1_555
Ga10 Zr0 2.893923 1_555
Ga11 Ru4 2.562174 1_554
Ga11 Ru2 2.562174 1_545
Ga11 Ru3 2.562174 1_455
Ga11 Ga2 2.798777 1_555
Ga11 Zr1 2.893923 1_555
Ga11 Zr2 2.893923 1_555
Ga11 Zr3 2.893923 1_555
Ru1 Zr4 3.162414 1_565
Ru1 Zr5 3.162414 1_655
Ru1 Zr2 3.162414 1_565
Ru1 Zr1 3.162414 1_655
Ru2 Zr5 3.162414 1_555
Ru2 Zr2 3.162414 1_565
Ru2 Zr0 3.162414 1_555
Ru2 Zr3 3.162414 1_565
Ru3 Zr4 3.162414 1_555
Ru3 Zr1 3.162414 1_655
Ru3 Zr0 3.162414 1_555
Ru3 Zr3 3.162414 1_655
Ru4 Zr4 3.162414 1_555
Ru4 Zr5 3.162414 1_555
Ru4 Zr2 3.162414 1_556
Ru4 Zr1 3.162414 1_556
Ru5 Zr5 3.162414 1_655
Ru5 Zr2 3.162414 1_556
Ru5 Zr0 3.162414 1_556
Ru5 Zr3 3.162414 1_655
Ru6 Zr4 3.162414 1_565
Ru6 Zr1 3.162414 1_556
Ru6 Zr0 3.162414 1_556
Ru6 Zr3 3.162414 1_565
