# generated using pymatgen
data_Hf6P2CN
_symmetry_space_group_name_H-M   'P 1'
_cell_length_a   5.71526231
_cell_length_b   5.71526256
_cell_length_c   8.39883281
_cell_angle_alpha   89.39002498
_cell_angle_beta   90.60997527
_cell_angle_gamma   145.54197600
_symmetry_Int_Tables_number   1
_chemical_formula_structural   Hf6P2CN
_chemical_formula_sum   'Hf6 P2 C1 N1'
_cell_volume   155.21333544
_cell_formula_units_Z   1
loop_
 _symmetry_equiv_pos_site_id
 _symmetry_equiv_pos_as_xyz
  1  'x, y, z'
loop_
 _atom_site_type_symbol
 _atom_site_label
 _atom_site_symmetry_multiplicity
 _atom_site_fract_x
 _atom_site_fract_y
 _atom_site_fract_z
 _atom_site_occupancy
  Hf  Hf0  1  0.93610592  0.06389408  0.24676796  1
  Hf  Hf1  1  0.06389408  0.93610592  0.75323204  1
  Hf  Hf2  1  0.63307668  0.36692332  0.44002599  1
  Hf  Hf3  1  0.36692332  0.63307668  0.55997401  1
  Hf  Hf4  1  0.63478488  0.36521512  0.05741662  1
  Hf  Hf5  1  0.36521512  0.63478488  0.94258338  1
  P  P0  1  0.25557921  0.74442079  0.24933564  1
  P  P1  1  0.74442079  0.25557921  0.75066436  1
  C  C0  1  0.00000000  0.00000000  0.50000000  1
  N  N0  1  0.00000000  0.00000000  0.00000000  1
loop_
_geom_bond_atom_site_label_1
_geom_bond_atom_site_label_2
_geom_bond_distance
_geom_bond_site_symmetry_2
Hf0 N0 2.194163 1_655
Hf0 P0 2.598377 1_545
Hf0 P0 2.598377 1_655
Hf1 N0 2.194163 1_566
Hf1 P1 2.598377 1_565
Hf1 P1 2.598377 1_455
Hf2 P0 2.695765 1_655
Hf2 P0 2.695765 1_545
Hf2 P1 2.865989 1_555
Hf3 P1 2.695765 1_455
Hf3 P1 2.695765 1_565
Hf3 P0 2.865989 1_555
Hf4 N0 2.290796 1_555
Hf4 N0 2.290796 1_665
Hf4 P0 2.675002 1_655
Hf4 P0 2.675002 1_545
Hf4 P1 2.852911 1_554
Hf5 N0 2.290796 1_666
Hf5 N0 2.290796 1_556
Hf5 P1 2.675002 1_455
Hf5 P1 2.675002 1_565
Hf5 P0 2.852911 1_556
C0 Hf1 2.230928 1_545
C0 Hf0 2.230928 1_455
C0 Hf3 2.290528 1_445
C0 Hf2 2.290528 1_555
C0 Hf3 2.290528 1_555
C0 Hf2 2.290528 1_445
