# generated using pymatgen
data_CsCdSnSb2
_symmetry_space_group_name_H-M   'P 1'
_cell_length_a   9.28144966
_cell_length_b   9.39430414
_cell_length_c   9.77776184
_cell_angle_alpha   71.91116639
_cell_angle_beta   74.89254854
_cell_angle_gamma   73.04368897
_symmetry_Int_Tables_number   1
_chemical_formula_structural   CsCdSnSb2
_chemical_formula_sum   'Cs4 Cd4 Sn4 Sb8'
_cell_volume   761.50105129
_cell_formula_units_Z   4
loop_
 _symmetry_equiv_pos_site_id
 _symmetry_equiv_pos_as_xyz
  1  'x, y, z'
loop_
 _atom_site_type_symbol
 _atom_site_label
 _atom_site_symmetry_multiplicity
 _atom_site_fract_x
 _atom_site_fract_y
 _atom_site_fract_z
 _atom_site_occupancy
  Cs  Cs0  1  0.45968064  0.77970033  0.31618829  1
  Cs  Cs1  1  0.54031936  0.22029967  0.68381171  1
  Cs  Cs2  1  0.44899027  0.80126818  0.81310826  1
  Cs  Cs3  1  0.55100973  0.19873182  0.18689174  1
  Cd  Cd0  1  0.00165810  0.89455322  0.69025419  1
  Cd  Cd1  1  0.99834190  0.10544678  0.30974581  1
  Cd  Cd2  1  0.96041665  0.81862901  0.17518151  1
  Cd  Cd3  1  0.03958335  0.18137099  0.82481849  1
  Sn  Sn0  1  0.95521102  0.59328436  0.59785181  1
  Sn  Sn1  1  0.04478898  0.40671564  0.40214819  1
  Sn  Sn2  1  0.15951584  0.44732091  0.97349993  1
  Sn  Sn3  1  0.84048416  0.55267909  0.02650007  1
  Sb  Sb0  1  0.80415929  0.89013995  0.45482313  1
  Sb  Sb1  1  0.19584071  0.10986005  0.54517687  1
  Sb  Sb2  1  0.77267335  0.39797264  0.32498609  1
  Sb  Sb3  1  0.22732665  0.60202736  0.67501391  1
  Sb  Sb4  1  0.78047971  0.88140017  0.95682090  1
  Sb  Sb5  1  0.21952029  0.11859983  0.04317910  1
  Sb  Sb6  1  0.76514098  0.42787820  0.83026006  1
  Sb  Sb7  1  0.23485902  0.57212180  0.16973994  1
loop_
_geom_bond_atom_site_label_1
_geom_bond_atom_site_label_2
_geom_bond_distance
_geom_bond_site_symmetry_2
Cs0 Sb3 3.776960 1_555
Cs0 Sb2 3.894703 1_555
Cs0 Sb7 3.984010 1_555
Cs0 Sb5 3.989389 1_565
Cs0 Sb4 4.030635 1_554
Cs0 Sb1 4.201672 1_565
Cs0 Sb0 4.266581 1_555
Cs1 Sb2 3.776960 1_555
Cs1 Sb3 3.894703 1_555
Cs1 Sb6 3.984010 1_555
Cs1 Sb4 3.989389 1_545
Cs1 Sb5 4.030635 1_556
Cs1 Sb0 4.201672 1_545
Cs1 Sb1 4.266581 1_555
Cs2 Sb3 3.850047 1_555
Cs2 Sb6 3.851002 1_555
Cs2 Sb7 3.868474 1_556
Cs2 Sb1 3.912462 1_565
Cs2 Sb4 4.033453 1_555
Cs2 Sb5 4.055531 1_566
Cs2 Sb0 4.195929 1_555
Cs3 Sb2 3.850047 1_555
Cs3 Sb7 3.851002 1_555
Cs3 Sb6 3.868474 1_554
Cs3 Sb0 3.912462 1_545
Cs3 Sb5 4.033453 1_555
Cs3 Sb4 4.055531 1_544
Cs3 Sb1 4.195929 1_555
Cd0 Sb4 2.860392 1_455
Cd0 Sb1 2.891986 1_565
Cd0 Sb3 2.948804 1_555
Cd0 Sb0 3.311224 1_455
Cd0 Sn0 3.393348 1_455
Cd1 Sb5 2.860392 1_655
Cd1 Sb0 2.891986 1_545
Cd1 Sb2 2.948804 1_555
Cd1 Sb1 3.311224 1_655
Cd1 Sn1 3.393348 1_655
Cd2 Sb4 2.863189 1_554
Cd2 Sb7 2.901576 1_655
Cd2 Sb0 2.921678 1_555
Cd3 Sb5 2.863189 1_556
Cd3 Sb6 2.901576 1_455
Cd3 Sb1 2.921678 1_555
Sn0 Sn1 2.797893 1_655
Sn2 Sn3 2.797380 1_456
Sb0 Sn0 2.831628 1_555
Sb1 Sn1 2.831628 1_555
Sb2 Sn3 2.822804 1_555
Sb2 Sn1 2.847370 1_655
Sb3 Sn2 2.822804 1_555
Sb3 Sn0 2.847370 1_455
Sb4 Sn3 2.863364 1_556
Sb5 Sn2 2.863364 1_554
Sb6 Sn0 2.829690 1_555
Sb6 Sn3 2.849550 1_556
Sb7 Sn1 2.829690 1_555
Sb7 Sn2 2.849550 1_554
