# generated using pymatgen
data_SrSb12(IrOs)2
_symmetry_space_group_name_H-M   'P 1'
_cell_length_a   8.12851428
_cell_length_b   8.10650326
_cell_length_c   8.12851322
_cell_angle_alpha   109.47858210
_cell_angle_beta   109.56364268
_cell_angle_gamma   109.48122465
_symmetry_Int_Tables_number   1
_chemical_formula_structural   SrSb12(IrOs)2
_chemical_formula_sum   'Sr1 Sb12 Ir2 Os2'
_cell_volume   411.75975157
_cell_formula_units_Z   1
loop_
 _symmetry_equiv_pos_site_id
 _symmetry_equiv_pos_as_xyz
  1  'x, y, z'
loop_
 _atom_site_type_symbol
 _atom_site_label
 _atom_site_symmetry_multiplicity
 _atom_site_fract_x
 _atom_site_fract_y
 _atom_site_fract_z
 _atom_site_occupancy
  Sr  Sr0  1  0.00000000  0.00000000  0.00000000  1
  Sb  Sb0  1  0.84237651  0.65693582  0.50232510  1
  Sb  Sb1  1  0.15762349  0.34306418  0.49767490  1
  Sb  Sb2  1  0.15461172  0.65693582  0.81455932  1
  Sb  Sb3  1  0.84538828  0.34306418  0.18544068  1
  Sb  Sb4  1  0.66032806  0.50270605  0.84237799  1
  Sb  Sb5  1  0.33967194  0.49729395  0.15762201  1
  Sb  Sb6  1  0.65677888  0.81139023  0.15461134  1
  Sb  Sb7  1  0.34322112  0.18860977  0.84538866  1
  Sb  Sb8  1  0.50250073  0.84304101  0.65755249  1
  Sb  Sb9  1  0.49749927  0.15695899  0.34244751  1
  Sb  Sb10  1  0.18548752  0.84304101  0.34054028  1
  Sb  Sb11  1  0.81451248  0.15695899  0.65945972  1
  Ir  Ir0  1  0.50000000  0.00000000  0.00000000  1
  Ir  Ir1  1  0.00000000  0.00000000  0.50000000  1
  Os  Os0  1  0.50000000  0.50000000  0.50000000  1
  Os  Os1  1  0.00000000  0.50000000  0.00000000  1
loop_
_geom_bond_atom_site_label_1
_geom_bond_atom_site_label_2
_geom_bond_distance
_geom_bond_site_symmetry_2
Sb0 Sb2 2.927291 1_655
Sb0 Sb3 2.970230 1_555
Sb0 Sr0 3.519942 1_666
Sb1 Sb3 2.927291 1_455
Sb1 Sb2 2.970230 1_555
Sb1 Sr0 3.519942 1_555
Sb2 Sr0 3.519949 1_566
Sb3 Sr0 3.519949 1_655
Sb4 Sb6 2.926718 1_556
Sb4 Sb7 2.972223 1_555
Sb4 Sr0 3.504078 1_666
Sb5 Sb7 2.926718 1_554
Sb5 Sb6 2.972223 1_555
Sb5 Sr0 3.504078 1_555
Sb6 Sr0 3.533422 1_665
Sb7 Sr0 3.533422 1_556
Sb8 Sr0 3.519659 1_666
Sb9 Sr0 3.519659 1_555
Sb10 Sb9 2.924199 1_565
Sb10 Sb8 2.972086 1_555
Sb10 Sr0 3.519657 1_565
Sb11 Sb8 2.924199 1_545
Sb11 Sb9 2.972086 1_555
Sb11 Sr0 3.519657 1_656
Ir0 Sb6 2.655137 1_545
Ir0 Sb7 2.655137 1_554
Ir0 Sb3 2.655333 1_555
Ir0 Sb2 2.655333 1_544
Ir0 Sb9 2.657223 1_555
Ir0 Sb8 2.657223 1_544
Ir1 Sb7 2.655137 1_555
Ir1 Sb6 2.655137 1_445
Ir1 Sb0 2.655337 1_445
Ir1 Sb1 2.655337 1_555
Ir1 Sb10 2.657217 1_545
Ir1 Sb11 2.657217 1_455
Os0 Sb9 2.635049 1_555
Os0 Sb8 2.635049 1_555
Os0 Sb0 2.636516 1_555
Os0 Sb1 2.636516 1_555
Os0 Sb5 2.637300 1_555
Os0 Sb4 2.637300 1_555
Os1 Sb11 2.635049 1_454
Os1 Sb10 2.635049 1_555
Os1 Sb2 2.636520 1_554
Os1 Sb3 2.636520 1_455
Os1 Sb5 2.637301 1_555
Os1 Sb4 2.637301 1_454
