# generated using pymatgen
data_Li4As6Ir4Pt3
_symmetry_space_group_name_H-M   'P 1'
_cell_length_a   6.99042454
_cell_length_b   6.97089062
_cell_length_c   6.97089029
_cell_angle_alpha   109.41438971
_cell_angle_beta   109.52800263
_cell_angle_gamma   109.52799337
_symmetry_Int_Tables_number   1
_chemical_formula_structural   Li4As6Ir4Pt3
_chemical_formula_sum   'Li4 As6 Ir4 Pt3'
_cell_volume   261.30838782
_cell_formula_units_Z   1
loop_
 _symmetry_equiv_pos_site_id
 _symmetry_equiv_pos_as_xyz
  1  'x, y, z'
loop_
 _atom_site_type_symbol
 _atom_site_label
 _atom_site_symmetry_multiplicity
 _atom_site_fract_x
 _atom_site_fract_y
 _atom_site_fract_z
 _atom_site_occupancy
  Li  Li0  1  0.99978574  0.99957148  0.49978574  1
  Li  Li1  1  0.50000000  0.00000000  0.00000000  1
  Li  Li2  1  0.00021426  0.50021426  0.00042852  1
  Li  Li3  1  0.50000000  0.50021426  0.49978574  1
  As  As0  1  0.69473219  0.69424621  0.01110347  1
  As  As1  1  0.31637128  0.31685726  0.01110347  1
  As  As2  1  0.99951401  0.69424621  0.68314274  1
  As  As3  1  0.00048599  0.31685726  0.30575379  1
  As  As4  1  0.68362872  0.98889653  0.68314274  1
  As  As5  1  0.30526781  0.98889653  0.30575379  1
  Ir  Ir0  1  0.00000000  0.00000000  0.00000000  1
  Ir  Ir1  1  0.50000000  0.74935636  0.25064364  1
  Ir  Ir2  1  0.75064364  0.50128828  0.25064364  1
  Ir  Ir3  1  0.24935636  0.74935636  0.49871172  1
  Pt  Pt0  1  0.25083861  0.50167622  0.75083861  1
  Pt  Pt1  1  0.74916139  0.24916139  0.49832378  1
  Pt  Pt2  1  0.50000000  0.24916139  0.75083861  1
loop_
_geom_bond_atom_site_label_1
_geom_bond_atom_site_label_2
_geom_bond_distance
_geom_bond_site_symmetry_2
Li0 Pt2 2.852070 1_665
Li0 Pt1 2.852070 1_565
Li0 Pt0 2.856831 1_665
Li1 Pt2 2.835313 1_554
Li1 Pt1 2.835318 1_555
Li1 Pt0 2.835318 1_544
Li2 Pt2 2.852070 1_454
Li2 Pt0 2.852070 1_554
Li2 Pt1 2.856831 1_454
Li3 Pt1 2.852070 1_555
Li3 Pt0 2.852070 1_555
Li3 Pt2 2.856837 1_555
As0 Ir2 2.481651 1_555
As0 Ir1 2.496325 1_555
As0 Ir0 2.506379 1_665
As0 Pt2 2.560115 1_554
As0 Pt0 2.560227 1_554
As0 Li0 2.823329 1_555
As0 Li2 2.892306 1_655
As0 Li1 2.894940 1_565
As0 Li3 2.950824 1_554
As1 Ir1 2.481657 1_555
As1 Ir2 2.496324 1_555
As1 Ir0 2.506379 1_555
As1 Pt0 2.560109 1_554
As1 Pt2 2.560228 1_554
As1 Li3 2.823329 1_555
As1 Li2 2.892306 1_555
As1 Li1 2.894940 1_555
As1 Li0 2.950824 1_444
As2 Ir2 2.481657 1_555
As2 Ir3 2.496331 1_655
As2 Ir0 2.506378 1_666
As2 Pt1 2.560116 1_555
As2 Pt0 2.560234 1_655
As2 Li0 2.823329 1_555
As2 Li3 2.892305 1_555
As2 Li1 2.894940 1_666
As2 Li2 2.950824 1_656
As3 Ir3 2.481658 1_555
As3 Ir2 2.496331 1_455
As3 Ir0 2.506378 1_555
As3 Pt0 2.560115 1_555
As3 Pt1 2.560234 1_455
As3 Li2 2.823329 1_555
As3 Li3 2.892305 1_555
As3 Li1 2.894940 1_455
As3 Li0 2.950824 1_445
As4 Ir1 2.481657 1_555
As4 Ir3 2.496324 1_555
As4 Ir0 2.506378 1_666
As4 Pt1 2.560109 1_565
As4 Pt2 2.560228 1_565
As4 Li3 2.823329 1_555
As4 Li0 2.892306 1_555
As4 Li1 2.894940 1_566
As4 Li2 2.950824 1_666
As5 Ir3 2.481652 1_555
As5 Ir1 2.496325 1_555
As5 Ir0 2.506378 1_565
As5 Pt2 2.560114 1_565
As5 Pt1 2.560227 1_565
As5 Li2 2.823329 1_555
As5 Li0 2.892306 1_455
As5 Li1 2.894940 1_565
As5 Li3 2.950824 1_565
Ir1 Li3 2.835093 1_555
Ir1 Ir2 2.843545 1_555
Ir1 Ir3 2.843545 1_555
Ir1 Pt0 2.843783 1_554
Ir1 Pt1 2.843784 1_565
Ir1 Li2 2.849631 1_555
Ir1 Li0 2.849631 1_555
Ir1 Li1 2.852180 1_565
Ir2 Li0 2.835088 1_555
Ir2 Ir3 2.843551 1_655
Ir2 Pt2 2.843783 1_554
Ir2 Pt1 2.843795 1_555
Ir2 Li3 2.849632 1_555
Ir2 Li2 2.849632 1_655
Ir2 Li1 2.852186 1_555
Ir3 Li2 2.835087 1_555
Ir3 Pt2 2.843784 1_565
Ir3 Pt0 2.843795 1_555
Ir3 Li3 2.849631 1_555
Ir3 Li0 2.849632 1_455
Ir3 Li1 2.852185 1_566
