# generated using pymatgen
data_Hf10AlSn6Ge
_symmetry_space_group_name_H-M   'P 1'
_cell_length_a   8.60827016
_cell_length_b   8.60827042
_cell_length_c   5.78848148
_cell_angle_alpha   90.00000000
_cell_angle_beta   90.00000000
_cell_angle_gamma   120.00000276
_symmetry_Int_Tables_number   1
_chemical_formula_structural   Hf10AlSn6Ge
_chemical_formula_sum   'Hf10 Al1 Sn6 Ge1'
_cell_volume   371.47283276
_cell_formula_units_Z   1
loop_
 _symmetry_equiv_pos_site_id
 _symmetry_equiv_pos_as_xyz
  1  'x, y, z'
loop_
 _atom_site_type_symbol
 _atom_site_label
 _atom_site_symmetry_multiplicity
 _atom_site_fract_x
 _atom_site_fract_y
 _atom_site_fract_z
 _atom_site_occupancy
  Hf  Hf0  1  0.73304372  0.73304372  0.75324180  1
  Hf  Hf1  1  0.26695628  1.00000000  0.75324180  1
  Hf  Hf2  1  1.00000000  0.26695628  0.75324180  1
  Hf  Hf3  1  0.26695628  0.26695628  0.24675820  1
  Hf  Hf4  1  0.73304372  0.00000000  0.24675820  1
  Hf  Hf5  1  0.00000000  0.73304372  0.24675820  1
  Hf  Hf6  1  0.66666700  0.33333300  0.00000000  1
  Hf  Hf7  1  0.33333300  0.66666700  0.00000000  1
  Hf  Hf8  1  0.33333300  0.66666700  0.50000000  1
  Hf  Hf9  1  0.66666700  0.33333300  0.50000000  1
  Al  Al0  1  0.00000000  0.00000000  0.50000000  1
  Sn  Sn0  1  0.39048619  0.39048619  0.74724255  1
  Sn  Sn1  1  0.60951381  1.00000000  0.74724255  1
  Sn  Sn2  1  1.00000000  0.60951381  0.74724255  1
  Sn  Sn3  1  0.60951381  0.60951381  0.25275745  1
  Sn  Sn4  1  0.39048619  0.00000000  0.25275745  1
  Sn  Sn5  1  0.00000000  0.39048619  0.25275745  1
  Ge  Ge0  1  0.00000000  0.00000000  0.00000000  1
loop_
_geom_bond_atom_site_label_1
_geom_bond_atom_site_label_2
_geom_bond_distance
_geom_bond_site_symmetry_2
Hf0 Sn0 2.949032 1_555
Hf0 Sn2 2.976006 1_555
Hf0 Sn1 2.976006 1_555
Hf0 Sn3 3.080776 1_556
Hf0 Sn3 3.086040 1_555
Hf1 Sn1 2.949032 1_555
Hf1 Sn2 2.976006 1_455
Hf1 Sn0 2.976006 1_565
Hf1 Sn4 3.080776 1_566
Hf1 Sn4 3.086040 1_565
Hf2 Sn2 2.949032 1_555
Hf2 Sn1 2.976005 1_545
Hf2 Sn0 2.976005 1_655
Hf2 Sn5 3.080776 1_656
Hf2 Sn5 3.086040 1_655
Hf3 Sn3 2.949032 1_555
Hf3 Sn5 2.976006 1_555
Hf3 Sn4 2.976006 1_555
Hf3 Sn0 3.080776 1_554
Hf3 Sn0 3.086040 1_555
Hf4 Sn4 2.949032 1_555
Hf4 Sn5 2.976006 1_655
Hf4 Sn3 2.976006 1_545
Hf4 Sn1 3.080776 1_544
Hf4 Sn1 3.086040 1_545
Hf5 Sn5 2.949032 1_555
Hf5 Sn4 2.976005 1_565
Hf5 Sn3 2.976005 1_455
Hf5 Sn2 3.080776 1_454
Hf5 Sn2 3.086040 1_455
Hf6 Hf9 2.894241 1_555
Hf6 Hf9 2.894241 1_554
Hf6 Sn5 3.033894 1_655
Hf6 Sn1 3.033894 1_544
Hf6 Sn2 3.033896 1_554
Hf6 Sn4 3.033896 1_555
Hf6 Sn0 3.033901 1_554
Hf6 Sn3 3.033901 1_555
Hf7 Hf8 2.894241 1_555
Hf7 Hf8 2.894241 1_554
Hf7 Sn2 3.033894 1_454
Hf7 Sn4 3.033894 1_565
Hf7 Sn5 3.033896 1_555
Hf7 Sn1 3.033896 1_554
Hf7 Sn3 3.033901 1_555
Hf7 Sn0 3.033901 1_554
Hf8 Sn2 3.018628 1_455
Hf8 Sn4 3.018629 1_565
Hf8 Sn5 3.018631 1_555
Hf8 Sn1 3.018631 1_555
Hf8 Sn3 3.018636 1_555
Hf8 Sn0 3.018636 1_555
Hf9 Sn5 3.018628 1_655
Hf9 Sn1 3.018629 1_545
Hf9 Sn2 3.018631 1_555
Hf9 Sn4 3.018631 1_555
Hf9 Sn0 3.018636 1_555
Hf9 Sn3 3.018636 1_555
Al0 Hf3 2.725760 1_555
Al0 Hf0 2.725760 1_445
Al0 Hf1 2.725760 1_545
Al0 Hf4 2.725760 1_455
Al0 Hf2 2.725761 1_455
Al0 Hf5 2.725761 1_545
Al0 Ge0 2.894241 1_556
Al0 Ge0 2.894241 1_555
Ge0 Hf3 2.705762 1_555
Ge0 Hf0 2.705762 1_444
Ge0 Hf1 2.705762 1_544
Ge0 Hf4 2.705762 1_455
Ge0 Hf2 2.705762 1_454
Ge0 Hf5 2.705762 1_545
