# generated using pymatgen
data_Na2TcH9
_symmetry_space_group_name_H-M   'P 1'
_cell_length_a   8.62122691
_cell_length_b   8.62122579
_cell_length_c   5.06602546
_cell_angle_alpha   90.00000000
_cell_angle_beta   90.00000000
_cell_angle_gamma   120.03089343
_symmetry_Int_Tables_number   1
_chemical_formula_structural   Na2TcH9
_chemical_formula_sum   'Na6 Tc3 H27'
_cell_volume   325.98739916
_cell_formula_units_Z   3
loop_
 _symmetry_equiv_pos_site_id
 _symmetry_equiv_pos_as_xyz
  1  'x, y, z'
loop_
 _atom_site_type_symbol
 _atom_site_label
 _atom_site_symmetry_multiplicity
 _atom_site_fract_x
 _atom_site_fract_y
 _atom_site_fract_z
 _atom_site_occupancy
  Na  Na0  1  0.40151995  0.40151995  0.00000000  1
  Na  Na1  1  0.26500651  0.99942352  0.50000000  1
  Na  Na2  1  0.99942352  0.26500651  0.50000000  1
  Na  Na3  1  0.73460577  0.73460577  0.50000000  1
  Na  Na4  1  0.59965408  0.00159843  0.00000000  1
  Na  Na5  1  0.00159843  0.59965408  0.00000000  1
  Tc  Tc0  1  0.00050658  0.00050658  0.00000000  1
  Tc  Tc1  1  0.33324735  0.66605570  0.50000000  1
  Tc  Tc2  1  0.66605570  0.33324735  0.50000000  1
  H  H0  1  0.86138150  0.00046844  0.23180495  1
  H  H1  1  0.00046844  0.86138150  0.23180495  1
  H  H2  1  0.86138150  0.00046844  0.76819505  1
  H  H3  1  0.00046844  0.86138150  0.76819505  1
  H  H4  1  0.13961508  0.13961508  0.23169930  1
  H  H5  1  0.13961508  0.13961508  0.76830070  1
  H  H6  1  0.19204730  0.00085063  0.00000000  1
  H  H7  1  0.00085063  0.19204730  0.00000000  1
  H  H8  1  0.80895571  0.80895571  0.00000000  1
  H  H9  1  0.20295938  0.52418048  0.26282495  1
  H  H10  1  0.47513696  0.67729994  0.26310345  1
  H  H11  1  0.20295938  0.52418048  0.73717505  1
  H  H12  1  0.52418048  0.20295938  0.73717505  1
  H  H13  1  0.32200923  0.79689843  0.26302048  1
  H  H14  1  0.47513696  0.67729994  0.73689655  1
  H  H15  1  0.67729994  0.47513696  0.73689655  1
  H  H16  1  0.52418048  0.20295938  0.26282495  1
  H  H17  1  0.32200923  0.79689843  0.73697952  1
  H  H18  1  0.67729994  0.47513696  0.26310345  1
  H  H19  1  0.79689843  0.32200923  0.73697952  1
  H  H20  1  0.79689843  0.32200923  0.26302048  1
  H  H21  1  0.34760722  0.48319989  0.50000000  1
  H  H22  1  0.51652078  0.86340021  0.50000000  1
  H  H23  1  0.48319989  0.34760722  0.50000000  1
  H  H24  1  0.13534691  0.65055661  0.50000000  1
  H  H25  1  0.86340021  0.51652078  0.50000000  1
  H  H26  1  0.65055661  0.13534691  0.50000000  1
loop_
_geom_bond_atom_site_label_1
_geom_bond_atom_site_label_2
_geom_bond_distance
_geom_bond_site_symmetry_2
H0 Tc0 1.678477 1_655
H0 Na2 2.397282 1_555
H0 Na3 2.405547 1_545
H0 Na4 2.548046 1_555
H1 Tc0 1.678477 1_565
H1 Na1 2.397282 1_555
H1 Na3 2.405548 1_455
H1 Na5 2.548046 1_555
H2 Tc0 1.678477 1_656
H2 Na2 2.397282 1_555
H2 Na3 2.405547 1_545
H2 Na4 2.548046 1_556
H3 Tc0 1.678477 1_566
H3 Na1 2.397282 1_555
H3 Na3 2.405548 1_455
H3 Na5 2.548046 1_556
H4 Tc0 1.677718 1_555
H4 Na1 2.405128 1_545
H4 Na2 2.405128 1_455
H4 Na0 2.543881 1_555
H5 Tc0 1.677718 1_556
H5 Na1 2.405128 1_545
H5 Na2 2.405128 1_455
H5 Na0 2.543881 1_556
H6 Tc0 1.649834 1_555
H7 Tc0 1.649833 1_555
H8 Tc0 1.650632 1_665
H9 Tc1 1.681149 1_555
H9 Na2 2.364502 1_455
H9 Na5 2.518024 1_555
H10 Tc1 1.681479 1_555
H10 Na3 2.362645 1_555
H10 Na0 2.514323 1_555
H11 Tc1 1.681149 1_555
H11 Na2 2.364502 1_455
H11 Na5 2.518024 1_556
H12 Tc2 1.681149 1_555
H12 Na1 2.364502 1_545
H12 Na4 2.518024 1_556
H13 Tc1 1.683011 1_555
H13 Na1 2.364367 1_555
H13 Na4 2.528086 1_565
H14 Tc1 1.681479 1_555
H14 Na3 2.362645 1_555
H14 Na0 2.514323 1_556
H15 Tc2 1.681479 1_555
H15 Na3 2.362645 1_555
H15 Na0 2.514324 1_556
H16 Tc2 1.681149 1_555
H16 Na1 2.364502 1_545
H16 Na4 2.518024 1_555
H17 Tc1 1.683011 1_555
H17 Na1 2.364367 1_555
H17 Na4 2.528086 1_566
H18 Tc2 1.681479 1_555
H18 Na3 2.362645 1_555
H18 Na0 2.514324 1_555
H19 Tc2 1.683011 1_555
H19 Na2 2.364367 1_555
H19 Na5 2.528086 1_656
H20 Tc2 1.683011 1_555
H20 Na2 2.364367 1_555
H20 Na5 2.528086 1_655
H21 Tc1 1.641901 1_555
H22 Tc1 1.643293 1_555
H23 Tc2 1.641901 1_555
H24 Tc1 1.643349 1_555
H25 Tc2 1.643293 1_555
H26 Tc2 1.643348 1_555
