# generated using pymatgen
data_Mg2Ga
_symmetry_space_group_name_H-M   'P 1'
_cell_length_a   7.64864885
_cell_length_b   7.64864804
_cell_length_c   6.98307274
_cell_angle_alpha   90.00000000
_cell_angle_beta   90.00000000
_cell_angle_gamma   120.00003826
_symmetry_Int_Tables_number   1
_chemical_formula_structural   Mg2Ga
_chemical_formula_sum   'Mg12 Ga6'
_cell_volume   353.79071430
_cell_formula_units_Z   6
loop_
 _symmetry_equiv_pos_site_id
 _symmetry_equiv_pos_as_xyz
  1  'x, y, z'
loop_
 _atom_site_type_symbol
 _atom_site_label
 _atom_site_symmetry_multiplicity
 _atom_site_fract_x
 _atom_site_fract_y
 _atom_site_fract_z
 _atom_site_occupancy
  Mg  Mg0  1  0.02366589  0.62548034  0.75000000  1
  Mg  Mg1  1  0.37451966  0.39818455  0.75000000  1
  Mg  Mg2  1  0.60181445  0.97633411  0.75000000  1
  Mg  Mg3  1  0.97633411  0.60181445  0.25000000  1
  Mg  Mg4  1  0.39818455  0.37451966  0.25000000  1
  Mg  Mg5  1  0.62548034  0.02366589  0.25000000  1
  Mg  Mg6  1  0.27219629  0.00000000  0.00000000  1
  Mg  Mg7  1  0.72780371  0.72780371  0.50000000  1
  Mg  Mg8  1  0.00000000  0.27219629  0.50000000  1
  Mg  Mg9  1  0.00000000  0.27219629  0.00000000  1
  Mg  Mg10  1  0.72780371  0.72780371  0.00000000  1
  Mg  Mg11  1  0.27219629  0.00000000  0.50000000  1
  Ga  Ga0  1  0.66666700  0.33333300  0.53634216  1
  Ga  Ga1  1  0.66666700  0.33333300  0.96365784  1
  Ga  Ga2  1  0.33333300  0.66666700  0.46365784  1
  Ga  Ga3  1  0.33333300  0.66666700  0.03634216  1
  Ga  Ga4  1  -0.00000000  -0.00000000  0.75000000  1
  Ga  Ga5  1  -0.00000000  -0.00000000  0.25000000  1
loop_
_geom_bond_atom_site_label_1
_geom_bond_atom_site_label_2
_geom_bond_distance
_geom_bond_site_symmetry_2
Ga0 Mg8 2.824086 1_655
Ga0 Mg11 2.824088 1_555
Ga0 Mg7 2.824092 1_555
Ga0 Mg2 2.928067 1_545
Ga0 Mg0 2.928069 1_655
Ga0 Mg1 2.928070 1_555
Ga0 Mg5 2.993534 1_555
Ga0 Mg3 2.993536 1_555
Ga0 Mg4 2.993546 1_555
Ga1 Mg9 2.824086 1_656
Ga1 Mg6 2.824088 1_556
Ga1 Mg10 2.824092 1_556
Ga1 Mg2 2.928067 1_545
Ga1 Mg0 2.928069 1_655
Ga1 Mg1 2.928070 1_555
Ga1 Mg5 2.993534 1_556
Ga1 Mg3 2.993536 1_556
Ga1 Mg4 2.993546 1_556
Ga2 Mg11 2.824085 1_565
Ga2 Mg8 2.824088 1_555
Ga2 Mg7 2.824093 1_555
Ga2 Mg3 2.928068 1_455
Ga2 Mg5 2.928069 1_565
Ga2 Mg4 2.928070 1_555
Ga2 Mg0 2.993534 1_555
Ga2 Mg2 2.993536 1_555
Ga2 Mg1 2.993546 1_555
Ga3 Mg6 2.824085 1_565
Ga3 Mg9 2.824088 1_555
Ga3 Mg10 2.824093 1_555
Ga3 Mg3 2.928068 1_455
Ga3 Mg5 2.928069 1_565
Ga3 Mg4 2.928070 1_555
Ga3 Mg0 2.993534 1_554
Ga3 Mg2 2.993536 1_554
Ga3 Mg1 2.993546 1_554
Ga4 Mg10 2.717011 1_446
Ga4 Mg7 2.717011 1_445
Ga4 Mg9 2.717012 1_556
Ga4 Mg8 2.717012 1_555
Ga4 Mg11 2.717012 1_555
Ga4 Mg6 2.717012 1_556
Ga4 Mg1 2.959224 1_555
Ga4 Mg0 2.959230 1_545
Ga4 Mg2 2.959230 1_445
Ga5 Mg10 2.717011 1_445
Ga5 Mg7 2.717011 1_445
Ga5 Mg9 2.717012 1_555
Ga5 Mg8 2.717012 1_555
Ga5 Mg11 2.717012 1_555
Ga5 Mg6 2.717012 1_555
Ga5 Mg4 2.959224 1_555
Ga5 Mg3 2.959230 1_445
Ga5 Mg5 2.959231 1_455
