# generated using pymatgen
data_Rb6V(IrBr6)3
_symmetry_space_group_name_H-M   'P 1'
_cell_length_a   7.42584555
_cell_length_b   7.42584578
_cell_length_c   18.80507979
_cell_angle_alpha   90.00000000
_cell_angle_beta   90.00000000
_cell_angle_gamma   119.99999478
_symmetry_Int_Tables_number   1
_chemical_formula_structural   Rb6V(IrBr6)3
_chemical_formula_sum   'Rb6 V1 Ir3 Br18'
_cell_volume   898.04411797
_cell_formula_units_Z   1
loop_
 _symmetry_equiv_pos_site_id
 _symmetry_equiv_pos_as_xyz
  1  'x, y, z'
loop_
 _atom_site_type_symbol
 _atom_site_label
 _atom_site_symmetry_multiplicity
 _atom_site_fract_x
 _atom_site_fract_y
 _atom_site_fract_z
 _atom_site_occupancy
  Rb  Rb0  1  0.66666700  0.33333300  0.56117001  1
  Rb  Rb1  1  0.33333300  0.66666700  0.06487488  1
  Rb  Rb2  1  0.33333300  0.66666700  0.43164730  1
  Rb  Rb3  1  0.66666700  0.33333300  0.94037052  1
  Rb  Rb4  1  0.00000000  0.00000000  0.25028109  1
  Rb  Rb5  1  0.00000000  0.00000000  0.74983382  1
  V  V0  1  0.66666700  0.33333300  0.16714884  1
  Ir  Ir0  1  0.33333300  0.66666700  0.66263621  1
  Ir  Ir1  1  0.66666700  0.33333300  0.32969582  1
  Ir  Ir2  1  0.33333300  0.66666700  0.83657431  1
  Br  Br0  1  0.82488767  0.64977534  0.40547950  1
  Br  Br1  1  0.17416389  0.82583611  0.58877187  1
  Br  Br2  1  0.65167223  0.82583611  0.58877187  1
  Br  Br3  1  0.82488767  0.17511233  0.40547950  1
  Br  Br4  1  0.35022466  0.17511233  0.40547950  1
  Br  Br5  1  0.17426767  0.34853535  0.91043775  1
  Br  Br6  1  0.02891599  0.51445849  0.74957770  1
  Br  Br7  1  0.65146465  0.82573233  0.91043775  1
  Br  Br8  1  0.82869326  0.65738652  0.09459687  1
  Br  Br9  1  0.17416389  0.34832777  0.58877187  1
  Br  Br10  1  0.48554151  0.97108401  0.74957770  1
  Br  Br11  1  0.50517979  0.49482021  0.25305871  1
  Br  Br12  1  0.48554151  0.51445849  0.74957770  1
  Br  Br13  1  0.17426767  0.82573233  0.91043775  1
  Br  Br14  1  0.34261348  0.17130674  0.09459687  1
  Br  Br15  1  0.98964142  0.49482021  0.25305871  1
  Br  Br16  1  0.50517979  0.01035858  0.25305871  1
  Br  Br17  1  0.82869326  0.17130674  0.09459687  1
loop_
_geom_bond_atom_site_label_1
_geom_bond_atom_site_label_2
_geom_bond_distance
_geom_bond_site_symmetry_2
Br0 Ir1 2.484415 1_555
Br0 Rb0 3.565558 1_555
Br0 Rb4 3.686535 1_665
Br0 Rb2 3.746961 1_655
Br0 Rb2 3.746969 1_555
Br1 Ir0 2.473968 1_555
Br1 Rb2 3.594665 1_555
Br1 Rb0 3.750269 1_455
Br1 Rb0 3.750269 1_565
Br1 Rb5 3.767162 1_565
Br2 Ir0 2.473973 1_555
Br2 Rb2 3.594669 1_555
Br2 Rb0 3.750265 1_565
Br2 Rb0 3.750272 1_555
Br2 Rb5 3.767162 1_665
Br3 Ir1 2.484409 1_555
Br3 Rb0 3.565554 1_555
Br3 Rb4 3.686534 1_655
Br3 Rb2 3.746965 1_655
Br3 Rb2 3.746965 1_545
Br4 Ir1 2.484415 1_555
Br4 Rb0 3.565558 1_555
Br4 Rb4 3.686535 1_555
Br4 Rb2 3.746961 1_545
Br4 Rb2 3.746969 1_555
Br5 Ir2 2.472859 1_555
Br5 Rb1 3.552475 1_556
Br5 Rb3 3.756617 1_455
Br5 Rb3 3.756624 1_555
Br5 Rb5 3.761036 1_555
Br6 Ir0 2.550610 1_555
Br6 Ir2 2.551275 1_555
Br6 Rb5 3.717576 1_565
Br6 Rb5 3.717584 1_555
Br7 Ir2 2.472859 1_555
Br7 Rb1 3.552475 1_556
Br7 Rb3 3.756617 1_565
Br7 Rb3 3.756624 1_555
Br7 Rb5 3.761036 1_665
Br8 V0 2.490865 1_555
Br8 Rb3 3.571324 1_554
Br8 Rb4 3.664131 1_665
Br8 Rb1 3.755227 1_655
Br8 Rb1 3.755234 1_555
Br9 Ir0 2.473973 1_555
Br9 Rb2 3.594669 1_555
Br9 Rb0 3.750265 1_455
Br9 Rb0 3.750272 1_555
Br9 Rb5 3.767162 1_555
Br10 Ir0 2.550610 1_555
Br10 Ir2 2.551275 1_555
Br10 Rb5 3.717576 1_565
Br10 Rb5 3.717583 1_665
Br11 Ir1 2.528053 1_555
Br11 V0 2.631362 1_555
Br11 Rb4 3.713888 1_555
Br11 Rb4 3.713888 1_665
Br11 Rb2 4.020450 1_555
Br12 Ir0 2.550610 1_555
Br12 Ir2 2.551275 1_555
Br12 Rb5 3.717580 1_665
Br12 Rb5 3.717580 1_555
Br13 Ir2 2.472853 1_555
Br13 Rb1 3.552472 1_556
Br13 Rb3 3.756621 1_455
Br13 Rb3 3.756621 1_565
Br13 Rb5 3.761036 1_565
Br14 V0 2.490865 1_555
Br14 Rb3 3.571324 1_554
Br14 Rb4 3.664131 1_555
Br14 Rb1 3.755227 1_545
Br14 Rb1 3.755234 1_555
Br15 Ir1 2.528053 1_555
Br15 V0 2.631362 1_555
Br15 Rb4 3.713884 1_655
Br15 Rb4 3.713891 1_665
Br15 Rb2 4.020443 1_655
Br16 Ir1 2.528053 1_555
Br16 V0 2.631362 1_555
Br16 Rb4 3.713884 1_655
Br16 Rb4 3.713891 1_555
Br16 Rb2 4.020443 1_545
Br17 V0 2.490859 1_555
Br17 Rb3 3.571320 1_554
Br17 Rb4 3.664131 1_655
Br17 Rb1 3.755230 1_655
Br17 Rb1 3.755230 1_545
