# generated using pymatgen
data_Y4IrPd3O14
_symmetry_space_group_name_H-M   'P 1'
_cell_length_a   7.17428387
_cell_length_b   7.17428450
_cell_length_c   7.19366018
_cell_angle_alpha   60.08906511
_cell_angle_beta   60.08906136
_cell_angle_gamma   60.00000371
_symmetry_Int_Tables_number   1
_chemical_formula_structural   Y4IrPd3O14
_chemical_formula_sum   'Y4 Ir1 Pd3 O14'
_cell_volume   262.16542625
_cell_formula_units_Z   1
loop_
 _symmetry_equiv_pos_site_id
 _symmetry_equiv_pos_as_xyz
  1  'x, y, z'
loop_
 _atom_site_type_symbol
 _atom_site_label
 _atom_site_symmetry_multiplicity
 _atom_site_fract_x
 _atom_site_fract_y
 _atom_site_fract_z
 _atom_site_occupancy
  Y  Y0  1  0.62500000  0.12500000  0.12500000  1
  Y  Y1  1  0.12500000  0.62500000  0.12500000  1
  Y  Y2  1  0.12500000  0.12500000  0.62500000  1
  Y  Y3  1  0.12500000  0.12500000  0.12500000  1
  Ir  Ir0  1  0.62500000  0.62500000  0.12500000  1
  Pd  Pd0  1  0.12500000  0.62500000  0.62500000  1
  Pd  Pd1  1  0.62500000  0.12500000  0.62500000  1
  Pd  Pd2  1  0.62500000  0.62500000  0.62500000  1
  O  O0  1  0.71239129  0.71239129  0.28608299  1
  O  O1  1  0.28561133  0.28561133  0.71590179  1
  O  O2  1  0.71287555  0.28561133  0.71590179  1
  O  O3  1  0.28913444  0.71239129  0.28608299  1
  O  O4  1  0.28561133  0.71287555  0.71590179  1
  O  O5  1  0.71239129  0.28913444  0.28608299  1
  O  O6  1  0.53760871  0.53760871  0.96391701  1
  O  O7  1  0.96438867  0.96438867  0.53409821  1
  O  O8  1  0.53712445  0.96438867  0.53409821  1
  O  O9  1  0.96086556  0.53760871  0.96391701  1
  O  O10  1  0.96438867  0.53712445  0.53409821  1
  O  O11  1  0.53760871  0.96086556  0.96391701  1
  O  O12  1  0.25020458  0.25020458  0.24938627  1
  O  O13  1  0.99979542  0.99979542  0.00061373  1
loop_
_geom_bond_atom_site_label_1
_geom_bond_atom_site_label_2
_geom_bond_distance
_geom_bond_site_symmetry_2
Ir0 O0 1.992777 1_555
Ir0 O6 1.992777 1_554
Ir0 O9 1.992777 1_554
Ir0 O3 1.992777 1_555
Ir0 O11 1.992777 1_554
Ir0 O5 1.992777 1_555
O0 Pd2 2.018525 1_555
O0 Y1 2.438474 1_655
O0 Y0 2.438475 1_565
O1 Pd1 2.010434 1_555
O1 Pd0 2.010435 1_555
O1 Y3 2.424897 1_556
O1 Y2 2.431813 1_555
O2 Pd1 2.010434 1_555
O2 Pd2 2.010434 1_555
O2 Y0 2.424897 1_556
O2 Y2 2.431813 1_655
O3 Pd0 2.018525 1_555
O3 Y1 2.438474 1_555
O3 Y3 2.438475 1_565
O4 Pd0 2.010434 1_555
O4 Pd2 2.010434 1_555
O4 Y1 2.424897 1_556
O4 Y2 2.431813 1_565
O5 Pd1 2.018525 1_555
O5 Y0 2.438474 1_555
O5 Y3 2.438474 1_655
O6 Pd2 2.018525 1_555
O6 Y1 2.438474 1_556
O6 Y0 2.438475 1_556
O7 Pd1 2.010434 1_565
O7 Pd0 2.010435 1_655
O7 Y3 2.424897 1_665
O7 Y2 2.431813 1_665
O8 Pd1 2.010434 1_565
O8 Pd2 2.010434 1_555
O8 Y0 2.424897 1_565
O8 Y2 2.431813 1_565
O9 Pd0 2.018525 1_655
O9 Y1 2.438474 1_656
O9 Y3 2.438475 1_656
O10 Pd0 2.010434 1_655
O10 Pd2 2.010434 1_555
O10 Y1 2.424897 1_655
O10 Y2 2.431813 1_655
O11 Pd1 2.018525 1_565
O11 Y0 2.438474 1_566
O11 Y3 2.438474 1_566
O12 Y3 2.196452 1_555
O12 Y0 2.196452 1_555
O12 Y1 2.196452 1_555
O12 Y2 2.209170 1_555
O13 Y3 2.196452 1_665
O13 Y0 2.196452 1_565
O13 Y1 2.196452 1_655
O13 Y2 2.209170 1_664
