# generated using pymatgen
data_Cs10CuAgAs4
_symmetry_space_group_name_H-M   'P 1'
_cell_length_a   6.29737700
_cell_length_b   6.29737687
_cell_length_c   20.07065023
_cell_angle_alpha   90.00000000
_cell_angle_beta   90.00000000
_cell_angle_gamma   119.99999558
_symmetry_Int_Tables_number   1
_chemical_formula_structural   Cs10CuAgAs4
_chemical_formula_sum   'Cs10 Cu1 Ag1 As4'
_cell_volume   689.30506790
_cell_formula_units_Z   1
loop_
 _symmetry_equiv_pos_site_id
 _symmetry_equiv_pos_as_xyz
  1  'x, y, z'
loop_
 _atom_site_type_symbol
 _atom_site_label
 _atom_site_symmetry_multiplicity
 _atom_site_fract_x
 _atom_site_fract_y
 _atom_site_fract_z
 _atom_site_occupancy
  Cs  Cs0  1  0.33333300  0.66666700  0.55360161  1
  Cs  Cs1  1  0.66666700  0.33333300  0.04607938  1
  Cs  Cs2  1  0.66666700  0.33333300  0.45392062  1
  Cs  Cs3  1  0.33333300  0.66666700  0.94639839  1
  Cs  Cs4  1  0.00000000  0.00000000  0.14571616  1
  Cs  Cs5  1  0.00000000  0.00000000  0.64966657  1
  Cs  Cs6  1  0.00000000  0.00000000  0.85033343  1
  Cs  Cs7  1  0.00000000  0.00000000  0.35428384  1
  Cs  Cs8  1  0.33333300  0.66666700  0.75000000  1
  Cs  Cs9  1  0.66666700  0.33333300  0.25000000  1
  Cu  Cu0  1  0.66666700  0.33333300  0.75000000  1
  Ag  Ag0  1  0.33333300  0.66666700  0.25000000  1
  As  As0  1  0.33333300  0.66666700  0.37578067  1
  As  As1  1  0.66666700  0.33333300  0.86590749  1
  As  As2  1  0.66666700  0.33333300  0.63409251  1
  As  As3  1  0.33333300  0.66666700  0.12421933  1
loop_
_geom_bond_atom_site_label_1
_geom_bond_atom_site_label_2
_geom_bond_distance
_geom_bond_site_symmetry_2
Cs8 Cu0 3.635789 1_565
Cs8 Cu0 3.635789 1_455
Cs8 Cu0 3.635799 1_555
Ag0 As0 2.524500 1_555
Ag0 As3 2.524500 1_555
Ag0 Cs9 3.635789 1_565
Ag0 Cs9 3.635789 1_455
Ag0 Cs9 3.635799 1_555
As0 Cs0 3.568982 1_555
As0 Cs7 3.661299 1_565
As0 Cs7 3.661305 1_555
As0 Cs7 3.661305 1_665
As0 Cs2 3.959619 1_565
As0 Cs2 3.959620 1_455
As0 Cs2 3.959629 1_555
As1 Cu0 2.326339 1_555
As1 Cs1 3.616167 1_556
As1 Cs6 3.649201 1_655
As1 Cs6 3.649206 1_665
As1 Cs6 3.649206 1_555
As1 Cs3 3.978544 1_545
As1 Cs3 3.978544 1_655
As1 Cs3 3.978554 1_555
As2 Cu0 2.326339 1_555
As2 Cs2 3.616167 1_555
As2 Cs5 3.649201 1_655
As2 Cs5 3.649206 1_665
As2 Cs5 3.649206 1_555
As2 Cs0 3.978544 1_545
As2 Cs0 3.978544 1_655
As2 Cs0 3.978554 1_555
As3 Cs3 3.568982 1_554
As3 Cs4 3.661299 1_565
As3 Cs4 3.661305 1_555
As3 Cs4 3.661305 1_665
As3 Cs1 3.959619 1_565
As3 Cs1 3.959620 1_455
As3 Cs1 3.959629 1_555
