# generated using pymatgen
data_Ca6Si2HN
_symmetry_space_group_name_H-M   'P 1'
_cell_length_a   6.75819713
_cell_length_b   6.75819766
_cell_length_c   6.75819722
_cell_angle_alpha   60.00000218
_cell_angle_beta   59.99999958
_cell_angle_gamma   60.00000513
_symmetry_Int_Tables_number   1
_chemical_formula_structural   Ca6Si2HN
_chemical_formula_sum   'Ca6 Si2 H1 N1'
_cell_volume   218.26174942
_cell_formula_units_Z   1
loop_
 _symmetry_equiv_pos_site_id
 _symmetry_equiv_pos_as_xyz
  1  'x, y, z'
loop_
 _atom_site_type_symbol
 _atom_site_label
 _atom_site_symmetry_multiplicity
 _atom_site_fract_x
 _atom_site_fract_y
 _atom_site_fract_z
 _atom_site_occupancy
  Ca  Ca0  1  0.25730600  0.74269400  0.74269400  1
  Ca  Ca1  1  0.25730600  0.74269400  0.25730600  1
  Ca  Ca2  1  0.74269400  0.25730600  0.74269400  1
  Ca  Ca3  1  0.74269400  0.74269400  0.25730600  1
  Ca  Ca4  1  0.25730600  0.25730600  0.74269400  1
  Ca  Ca5  1  0.74269400  0.25730600  0.25730600  1
  Si  Si0  1  0.25000000  0.25000000  0.25000000  1
  Si  Si1  1  0.75000000  0.75000000  0.75000000  1
  H  H0  1  0.00000000  0.00000000  0.00000000  1
  N  N0  1  0.50000000  0.50000000  0.50000000  1
loop_
_geom_bond_atom_site_label_1
_geom_bond_atom_site_label_2
_geom_bond_distance
_geom_bond_site_symmetry_2
Ca0 N0 2.319556 1_555
Ca0 H0 2.459211 1_566
Ca0 Si1 3.379820 1_555
Ca0 Si1 3.379820 1_455
Ca0 Si0 3.379820 1_556
Ca0 Si0 3.379820 1_565
Ca1 N0 2.319556 1_555
Ca1 H0 2.459211 1_565
Ca1 Si1 3.379820 1_554
Ca1 Si1 3.379820 1_455
Ca1 Si0 3.379820 1_555
Ca1 Si0 3.379820 1_565
Ca2 N0 2.319556 1_555
Ca2 H0 2.459211 1_656
Ca2 Si0 3.379820 1_556
Ca2 Si0 3.379820 1_655
Ca2 Si1 3.379820 1_555
Ca2 Si1 3.379820 1_545
Ca3 N0 2.319556 1_555
Ca3 H0 2.459211 1_665
Ca3 Si1 3.379820 1_554
Ca3 Si1 3.379820 1_555
Ca3 Si0 3.379820 1_655
Ca3 Si0 3.379820 1_565
Ca4 N0 2.319556 1_555
Ca4 H0 2.459211 1_556
Ca4 Si0 3.379820 1_556
Ca4 Si0 3.379820 1_555
Ca4 Si1 3.379820 1_455
Ca4 Si1 3.379820 1_545
Ca5 N0 2.319556 1_555
Ca5 H0 2.459211 1_655
Ca5 Si0 3.379820 1_555
Ca5 Si0 3.379820 1_655
Ca5 Si1 3.379820 1_554
Ca5 Si1 3.379820 1_545
