# generated using pymatgen
data_Lu12In2Tc2Ir
_symmetry_space_group_name_H-M   'P 1'
_cell_length_a   8.23095120
_cell_length_b   8.23095262
_cell_length_c   8.23095232
_cell_angle_alpha   109.81876020
_cell_angle_beta   109.81876100
_cell_angle_gamma   108.77835264
_symmetry_Int_Tables_number   1
_chemical_formula_structural   Lu12In2Tc2Ir
_chemical_formula_sum   'Lu12 In2 Tc2 Ir1'
_cell_volume   429.22080812
_cell_formula_units_Z   1
loop_
 _symmetry_equiv_pos_site_id
 _symmetry_equiv_pos_as_xyz
  1  'x, y, z'
loop_
 _atom_site_type_symbol
 _atom_site_label
 _atom_site_symmetry_multiplicity
 _atom_site_fract_x
 _atom_site_fract_y
 _atom_site_fract_z
 _atom_site_occupancy
  Lu  Lu0  1  0.31407794  0.31407794  0.63173727  1
  Lu  Lu1  1  0.68234067  0.68234067  0.36826273  1
  Lu  Lu2  1  0.68234067  0.31407794  1.00000000  1
  Lu  Lu3  1  0.31407794  0.68234067  0.00000000  1
  Lu  Lu4  1  0.18601965  0.42812589  0.24210624  1
  Lu  Lu5  1  0.81553410  0.57277264  0.75723754  1
  Lu  Lu6  1  0.18601965  0.94391142  0.75789376  1
  Lu  Lu7  1  0.94391142  0.18601965  0.75789376  1
  Lu  Lu8  1  0.81553410  0.05829757  0.24276246  1
  Lu  Lu9  1  0.05829757  0.81553410  0.24276246  1
  Lu  Lu10  1  0.42812589  0.18601965  0.24210624  1
  Lu  Lu11  1  0.57277264  0.81553410  0.75723754  1
  In  In0  1  0.00039532  0.50039532  0.50000000  1
  In  In1  1  0.50039532  0.00039532  0.50000000  1
  Tc  Tc0  1  0.34695929  0.34695929  0.00000000  1
  Tc  Tc1  1  0.99907391  0.99907391  0.00000000  1
  Ir  Ir0  1  0.65412292  0.65412292  0.00000000  1
loop_
_geom_bond_atom_site_label_1
_geom_bond_atom_site_label_2
_geom_bond_distance
_geom_bond_site_symmetry_2
Lu0 Tc0 2.859136 1_556
Lu1 Tc0 2.859136 1_555
Lu2 Tc0 2.859136 1_556
Lu3 Tc0 2.859136 1_555
Lu4 Tc0 2.762113 1_555
Lu4 Tc1 2.908697 1_445
Lu5 Tc1 2.893620 1_556
Lu6 Tc0 2.762126 1_566
Lu6 Tc1 2.908698 1_456
Lu7 Tc0 2.762126 1_656
Lu7 Tc1 2.908698 1_546
Lu8 Tc1 2.893627 1_545
Lu9 Tc1 2.893627 1_455
Lu10 Tc0 2.762113 1_555
Lu10 Tc1 2.908696 1_445
Lu11 Tc1 2.893619 1_556
In0 Lu8 3.010969 1_455
In0 Lu5 3.010977 1_455
In0 Lu6 3.020289 1_555
In0 Lu4 3.020302 1_555
In0 Lu1 3.460091 1_455
In0 Lu0 3.460091 1_555
In0 Lu2 3.460092 1_454
In0 Lu3 3.460092 1_556
In1 Lu9 3.010969 1_545
In1 Lu11 3.010977 1_545
In1 Lu7 3.020289 1_555
In1 Lu10 3.020302 1_555
In1 Lu0 3.460091 1_555
In1 Lu1 3.460091 1_545
In1 Lu2 3.460092 1_555
In1 Lu3 3.460092 1_545
Ir0 Lu5 2.769787 1_554
Ir0 Lu11 2.769788 1_554
Ir0 Lu9 2.769795 1_655
Ir0 Lu8 2.769796 1_565
Ir0 Lu3 2.882061 1_555
Ir0 Lu0 2.882061 1_554
Ir0 Lu1 2.882061 1_555
Ir0 Lu2 2.882061 1_554
Ir0 Tc0 2.944280 1_555
