# generated using pymatgen
data_V3(RhSe4)2
_symmetry_space_group_name_H-M   'P 1'
_cell_length_a   6.84925261
_cell_length_b   6.84925057
_cell_length_c   8.31115366
_cell_angle_alpha   54.57875022
_cell_angle_beta   54.57876428
_cell_angle_gamma   63.58709496
_symmetry_Int_Tables_number   1
_chemical_formula_structural   V3(RhSe4)2
_chemical_formula_sum   'V3 Rh2 Se8'
_cell_volume   255.41622880
_cell_formula_units_Z   1
loop_
 _symmetry_equiv_pos_site_id
 _symmetry_equiv_pos_as_xyz
  1  'x, y, z'
loop_
 _atom_site_type_symbol
 _atom_site_label
 _atom_site_symmetry_multiplicity
 _atom_site_fract_x
 _atom_site_fract_y
 _atom_site_fract_z
 _atom_site_occupancy
  V  V0  1  0.28575098  0.28575098  0.95125367  1
  V  V1  1  0.71461656  0.29081340  0.49617664  1
  V  V2  1  0.29081340  0.71461656  0.49617664  1
  Rh  Rh0  1  0.00531873  0.00531873  0.00629106  1
  Rh  Rh1  1  0.71100616  0.71100616  0.03955149  1
  Se  Se0  1  0.55270611  0.03254626  0.16374092  1
  Se  Se1  1  0.45909148  0.95718240  0.83128459  1
  Se  Se2  1  0.95718240  0.45909148  0.83128459  1
  Se  Se3  1  0.03254626  0.55270611  0.16374092  1
  Se  Se4  1  0.99341113  0.99341113  0.31684021  1
  Se  Se5  1  0.00430849  0.00430849  0.69310459  1
  Se  Se6  1  0.42439338  0.42439338  0.35730682  1
  Se  Se7  1  0.56885492  0.56885492  0.65324684  1
loop_
_geom_bond_atom_site_label_1
_geom_bond_atom_site_label_2
_geom_bond_distance
_geom_bond_site_symmetry_2
Rh0 Se4 2.488549 1_445
Rh0 Se2 2.507600 1_454
Rh0 Se1 2.507601 1_544
Rh0 Se3 2.534498 1_545
Rh0 Se0 2.534499 1_455
Rh0 Se5 2.610976 1_554
Rh1 Se6 2.468063 1_555
Rh1 Se0 2.510858 1_565
Rh1 Se3 2.510858 1_655
Rh1 Se1 2.511335 1_554
Rh1 Se2 2.511335 1_554
Rh1 Se5 2.557829 1_664
Se0 V2 2.519791 1_545
Se0 V0 2.615591 1_554
Se1 V0 2.513963 1_565
Se1 V1 2.563642 1_565
Se2 V0 2.513963 1_655
Se2 V2 2.563642 1_655
Se3 V1 2.519791 1_455
Se3 V0 2.615591 1_554
Se4 V0 2.590951 1_664
Se4 V2 2.603235 1_655
Se4 V1 2.603235 1_565
Se5 V1 2.654029 1_455
Se5 V2 2.654029 1_545
Se6 V2 2.436786 1_555
Se6 V1 2.436787 1_555
Se7 V0 2.421846 1_555
Se7 V1 2.450926 1_555
Se7 V2 2.450926 1_555
