# generated using pymatgen
data_Ag2AsRuF12
_symmetry_space_group_name_H-M   'P 1'
_cell_length_a   5.18219765
_cell_length_b   5.73196992
_cell_length_c   7.70871005
_cell_angle_alpha   98.65717432
_cell_angle_beta   89.71918038
_cell_angle_gamma   90.26081519
_symmetry_Int_Tables_number   1
_chemical_formula_structural   Ag2AsRuF12
_chemical_formula_sum   'Ag2 As1 Ru1 F12'
_cell_volume   226.36781203
_cell_formula_units_Z   1
loop_
 _symmetry_equiv_pos_site_id
 _symmetry_equiv_pos_as_xyz
  1  'x, y, z'
loop_
 _atom_site_type_symbol
 _atom_site_label
 _atom_site_symmetry_multiplicity
 _atom_site_fract_x
 _atom_site_fract_y
 _atom_site_fract_z
 _atom_site_occupancy
  Ag  Ag0  1  0.00000000  0.00000000  0.00000000  1
  Ag  Ag1  1  0.50000000  0.50000000  0.50000000  1
  As  As0  1  0.50000000  0.50000000  0.00000000  1
  Ru  Ru0  1  0.00000000  0.00000000  0.50000000  1
  F  F0  1  0.83811818  0.99186968  0.71875947  1
  F  F1  1  0.12883554  0.30527128  0.57922258  1
  F  F2  1  0.23055107  0.62331653  0.91336910  1
  F  F3  1  0.33267158  0.49255805  0.19661399  1
  F  F4  1  0.38526226  0.21728413  0.91955562  1
  F  F5  1  0.29668440  0.86475162  0.58422147  1
  F  F6  1  0.70331560  0.13524838  0.41577853  1
  F  F7  1  0.61473774  0.78271587  0.08044438  1
  F  F8  1  0.66732842  0.50744195  0.80338601  1
  F  F9  1  0.76944893  0.37668347  0.08663090  1
  F  F10  1  0.87116446  0.69472872  0.42077742  1
  F  F11  1  0.16188182  0.00813032  0.28124053  1
loop_
_geom_bond_atom_site_label_1
_geom_bond_atom_site_label_2
_geom_bond_distance
_geom_bond_site_symmetry_2
Ag0 F11 2.322330 1_555
Ag0 F0 2.322330 1_444
Ag0 F9 2.473236 1_455
Ag0 F2 2.473236 1_544
Ag0 F4 2.473763 1_554
Ag0 F7 2.473763 1_445
Ag1 F1 2.343633 1_555
Ag1 F10 2.343633 1_555
Ag1 F5 2.346819 1_555
Ag1 F6 2.346819 1_555
Ag1 F8 2.492555 1_555
Ag1 F3 2.492555 1_555
As0 F9 1.748026 1_555
As0 F2 1.748026 1_554
As0 F7 1.748283 1_555
As0 F4 1.748283 1_554
As0 F8 1.748468 1_554
As0 F3 1.748468 1_555
F0 Ru0 1.886572 1_665
F1 Ru0 1.884728 1_555
F5 Ru0 1.886399 1_565
F6 Ru0 1.886399 1_655
F10 Ru0 1.884728 1_665
F11 Ru0 1.886572 1_555
