# generated using pymatgen
data_Na3CoP4Ir3
_symmetry_space_group_name_H-M   'P 1'
_cell_length_a   6.21895228
_cell_length_b   6.04268306
_cell_length_c   6.21895146
_cell_angle_alpha   108.89806741
_cell_angle_beta   110.03825158
_cell_angle_gamma   108.89805831
_symmetry_Int_Tables_number   1
_chemical_formula_structural   Na3CoP4Ir3
_chemical_formula_sum   'Na3 Co1 P4 Ir3'
_cell_volume   181.16133424
_cell_formula_units_Z   1
loop_
 _symmetry_equiv_pos_site_id
 _symmetry_equiv_pos_as_xyz
  1  'x, y, z'
loop_
 _atom_site_type_symbol
 _atom_site_label
 _atom_site_symmetry_multiplicity
 _atom_site_fract_x
 _atom_site_fract_y
 _atom_site_fract_z
 _atom_site_occupancy
  Na  Na0  1  0.47322314  0.95894779  0.47322314  1
  Na  Na1  1  0.52677686  0.48572465  1.00000000  1
  Na  Na2  1  0.00000000  0.48572465  0.52677686  1
  Co  Co0  1  0.00000000  0.74452214  0.00000000  1
  P  P0  1  1.00000000  0.39027499  1.00000000  1
  P  P1  1  0.64490061  0.63643196  0.64490061  1
  P  P2  1  1.00000000  0.99153134  0.35509939  1
  P  P3  1  0.35509939  0.99153134  0.00000000  1
  Ir  Ir0  1  0.00000000  0.01099920  0.71768546  1
  Ir  Ir1  1  0.28231454  0.29331374  0.28231454  1
  Ir  Ir2  1  0.71768546  0.01099920  1.00000000  1
loop_
_geom_bond_atom_site_label_1
_geom_bond_atom_site_label_2
_geom_bond_distance
_geom_bond_site_symmetry_2
Na0 P1 2.827069 1_555
Na0 P3 2.868252 1_555
Na0 P2 2.868253 1_455
Na0 P0 3.137017 1_565
Na0 P0 3.176974 1_454
Na1 P3 2.827069 1_546
Na1 P2 2.868252 1_556
Na1 P1 2.868252 1_555
Na1 P0 3.137017 1_455
Na1 P0 3.176975 1_555
Na2 P2 2.827068 1_445
Na2 P3 2.868252 1_556
Na2 P1 2.868253 1_455
Na2 P0 3.137017 1_454
Na2 P0 3.176974 1_455
Co0 P0 2.140603 1_454
Co0 P2 2.229232 1_455
Co0 P1 2.229232 1_454
Co0 P3 2.229233 1_555
Co0 Ir1 2.739827 1_565
Co0 Ir0 2.739827 1_564
Co0 Ir2 2.739827 1_464
Co0 Na2 2.850493 1_554
Co0 Na0 2.850493 1_555
Co0 Na1 2.850493 1_454
Ir0 P2 2.219596 1_445
Ir0 P3 2.370267 1_546
Ir0 P1 2.370267 1_445
Ir0 P0 2.393436 1_455
Ir0 Na1 2.958393 1_555
Ir0 Na0 2.958393 1_445
Ir0 Na2 3.007191 1_545
Ir1 P1 2.219596 1_555
Ir1 P3 2.370267 1_545
Ir1 P2 2.370267 1_445
Ir1 P0 2.393436 1_454
Ir1 Na2 2.958393 1_555
Ir1 Na1 2.958393 1_554
Ir1 Na0 3.007192 1_545
Ir2 P3 2.219596 1_546
Ir2 P1 2.370266 1_545
Ir2 P2 2.370267 1_546
Ir2 P0 2.393436 1_555
Ir2 Na2 2.958393 1_656
Ir2 Na0 2.958393 1_545
Ir2 Na1 3.007192 1_545
