# generated using pymatgen
data_YLu(SnRh)2
_symmetry_space_group_name_H-M   'P 1'
_cell_length_a   7.55081186
_cell_length_b   7.55081298
_cell_length_c   7.47147360
_cell_angle_alpha   90.00000000
_cell_angle_beta   90.00000000
_cell_angle_gamma   120.00000083
_symmetry_Int_Tables_number   1
_chemical_formula_structural   YLu(SnRh)2
_chemical_formula_sum   'Y3 Lu3 Sn6 Rh6'
_cell_volume   368.91325348
_cell_formula_units_Z   3
loop_
 _symmetry_equiv_pos_site_id
 _symmetry_equiv_pos_as_xyz
  1  'x, y, z'
loop_
 _atom_site_type_symbol
 _atom_site_label
 _atom_site_symmetry_multiplicity
 _atom_site_fract_x
 _atom_site_fract_y
 _atom_site_fract_z
 _atom_site_occupancy
  Y  Y0  1  0.59530523  0.00005640  0.25000000  1
  Y  Y1  1  0.40475017  0.40469477  0.25000000  1
  Y  Y2  1  0.99994360  0.59524983  0.25000000  1
  Lu  Lu0  1  0.59775028  0.99989598  0.75000000  1
  Lu  Lu1  1  0.40214570  0.40224972  0.75000000  1
  Lu  Lu2  1  0.00010402  0.59785430  0.75000000  1
  Sn  Sn0  1  0.26533689  0.00002055  0.99619160  1
  Sn  Sn1  1  0.73468466  0.73466311  0.50380840  1
  Sn  Sn2  1  0.99997945  0.26531534  0.50380840  1
  Sn  Sn3  1  0.99997945  0.26531534  0.99619160  1
  Sn  Sn4  1  0.73468466  0.73466311  0.99619160  1
  Sn  Sn5  1  0.26533689  0.00002055  0.50380840  1
  Rh  Rh0  1  0.66666700  0.33333300  0.98713077  1
  Rh  Rh1  1  0.66666700  0.33333300  0.51286923  1
  Rh  Rh2  1  0.33333300  0.66666700  0.98726063  1
  Rh  Rh3  1  0.33333300  0.66666700  0.51273937  1
  Rh  Rh4  1  0.00000000  0.00000000  0.75000000  1
  Rh  Rh5  1  0.00000000  0.00000000  0.25000000  1
loop_
_geom_bond_atom_site_label_1
_geom_bond_atom_site_label_2
_geom_bond_distance
_geom_bond_site_symmetry_2
Lu0 Rh2 2.904487 1_555
Lu0 Rh3 2.904487 1_555
Lu0 Rh0 2.904914 1_565
Lu0 Rh1 2.904914 1_565
Lu0 Rh4 3.036919 1_665
Lu0 Sn0 3.112212 1_565
Lu0 Sn5 3.112212 1_565
Lu0 Sn4 3.245640 1_555
Lu0 Sn1 3.245640 1_555
Lu0 Sn3 3.246143 1_565
Lu0 Sn2 3.246143 1_565
Lu1 Rh2 2.904491 1_555
Lu1 Rh3 2.904491 1_555
Lu1 Rh0 2.904919 1_555
Lu1 Rh1 2.904919 1_555
Lu1 Rh4 3.036919 1_555
Lu1 Sn4 3.112215 1_555
Lu1 Sn1 3.112215 1_555
Lu1 Sn3 3.245634 1_455
Lu1 Sn2 3.245634 1_455
Lu1 Sn0 3.246145 1_555
Lu1 Sn5 3.246145 1_555
Lu2 Rh2 2.904484 1_555
Lu2 Rh3 2.904484 1_555
Lu2 Rh0 2.904915 1_455
Lu2 Rh1 2.904915 1_455
Lu2 Rh4 3.036920 1_565
Lu2 Sn3 3.112218 1_455
Lu2 Sn2 3.112218 1_455
Lu2 Sn0 3.245635 1_565
Lu2 Sn5 3.245635 1_565
Lu2 Sn4 3.246139 1_455
Lu2 Sn1 3.246139 1_455
Sn0 Y0 3.130987 1_556
Sn0 Y1 3.290044 1_556
Sn0 Y2 3.290644 1_446
Sn1 Y1 3.130993 1_555
Sn1 Y2 3.290033 1_555
Sn1 Y0 3.290653 1_565
Sn2 Y2 3.131000 1_555
Sn2 Y0 3.290042 1_555
Sn2 Y1 3.290641 1_655
Sn3 Y2 3.131000 1_556
Sn3 Y0 3.290042 1_556
Sn3 Y1 3.290641 1_656
Sn4 Y1 3.130993 1_556
Sn4 Y2 3.290033 1_556
Sn4 Y0 3.290653 1_566
Sn5 Y0 3.130987 1_555
Sn5 Y1 3.290044 1_555
Sn5 Y2 3.290644 1_445
Rh0 Sn3 2.809827 1_555
Rh0 Sn0 2.809827 1_555
Rh0 Sn4 2.809827 1_555
Rh0 Y0 3.020687 1_556
Rh0 Y2 3.020690 1_556
Rh0 Y1 3.020698 1_556
Rh1 Sn2 2.809827 1_555
Rh1 Sn5 2.809827 1_555
Rh1 Sn1 2.809827 1_555
Rh1 Y0 3.020687 1_555
Rh1 Y2 3.020690 1_555
Rh1 Y1 3.020698 1_555
Rh2 Sn0 2.810007 1_565
Rh2 Sn3 2.810017 1_455
Rh2 Sn4 2.810022 1_555
Rh2 Y2 3.020590 1_456
Rh2 Y0 3.020590 1_566
Rh2 Y1 3.020590 1_556
Rh3 Sn5 2.810007 1_565
Rh3 Sn2 2.810017 1_455
Rh3 Sn1 2.810022 1_555
Rh3 Y2 3.020590 1_455
Rh3 Y0 3.020590 1_565
Rh3 Y1 3.020590 1_555
Rh4 Sn3 2.719771 1_455
Rh4 Sn2 2.719771 1_455
Rh4 Sn4 2.719773 1_445
Rh4 Sn1 2.719773 1_445
Rh4 Sn0 2.719776 1_555
Rh4 Sn5 2.719776 1_555
Rh5 Sn2 2.758577 1_455
Rh5 Sn3 2.758577 1_454
Rh5 Sn1 2.758580 1_445
Rh5 Sn4 2.758580 1_444
Rh5 Sn5 2.758582 1_555
Rh5 Sn0 2.758582 1_554
Rh5 Y2 3.055980 1_445
Rh5 Y1 3.055983 1_555
Rh5 Y0 3.055987 1_455
