# generated using pymatgen
data_K2NaScAs2
_symmetry_space_group_name_H-M   'P 1'
_cell_length_a   8.96880841
_cell_length_b   8.96880911
_cell_length_c   8.96880783
_cell_angle_alpha   135.50318470
_cell_angle_beta   134.84871650
_cell_angle_gamma   65.25839338
_symmetry_Int_Tables_number   1
_chemical_formula_structural   K2NaScAs2
_chemical_formula_sum   'K4 Na2 Sc2 As4'
_cell_volume   353.26137124
_cell_formula_units_Z   2
loop_
 _symmetry_equiv_pos_site_id
 _symmetry_equiv_pos_as_xyz
  1  'x, y, z'
loop_
 _atom_site_type_symbol
 _atom_site_label
 _atom_site_symmetry_multiplicity
 _atom_site_fract_x
 _atom_site_fract_y
 _atom_site_fract_z
 _atom_site_occupancy
  K  K0  1  0.09653312  0.31995071  0.77658241  1
  K  K1  1  0.45663270  0.18004929  0.27658241  1
  K  K2  1  0.90346688  0.68004929  0.22341759  1
  K  K3  1  0.54336730  0.81995071  0.72341759  1
  Na  Na0  1  0.50000000  0.75000000  0.25000000  1
  Na  Na1  1  0.50000000  0.25000000  0.75000000  1
  Sc  Sc0  1  0.00000000  0.75000000  0.75000000  1
  Sc  Sc1  1  0.00000000  0.25000000  0.25000000  1
  As  As0  1  0.11816428  0.90411589  0.21404839  1
  As  As1  1  0.88183572  0.09588411  0.78595161  1
  As  As2  1  0.30993250  0.59588411  0.71404839  1
  As  As3  1  0.69006750  0.40411589  0.28595161  1
loop_
_geom_bond_atom_site_label_1
_geom_bond_atom_site_label_2
_geom_bond_distance
_geom_bond_site_symmetry_2
As0 Sc0 2.674632 1_554
As0 Sc1 2.674633 1_565
As0 Na0 2.976328 1_555
As0 Na1 2.976328 1_565
As0 K2 3.385513 1_455
As0 K3 3.609957 1_454
As0 K0 3.651502 1_565
As0 K0 3.651503 1_554
As0 K3 3.730997 1_555
As1 Sc1 2.674632 1_656
As1 Sc0 2.674633 1_645
As1 Na1 2.976328 1_555
As1 Na0 2.976328 1_545
As1 K0 3.385513 1_655
As1 K1 3.609957 1_656
As1 K2 3.651502 1_545
As1 K2 3.651503 1_556
As1 K1 3.730997 1_555
As2 Sc0 2.674632 1_555
As2 Sc1 2.674633 1_555
As2 Na0 2.976327 1_556
As2 Na1 2.976328 1_555
As2 K3 3.385506 1_555
As2 K2 3.609951 1_455
As2 K1 3.651503 1_566
As2 K1 3.651508 1_555
As2 K2 3.730998 1_556
As3 Sc1 2.674632 1_655
As3 Sc0 2.674633 1_655
As3 Na1 2.976327 1_554
As3 Na0 2.976328 1_555
As3 K1 3.385506 1_555
As3 K0 3.609951 1_655
As3 K3 3.651503 1_544
As3 K3 3.651508 1_555
As3 K0 3.730998 1_554
