# generated using pymatgen
data_Cs3Cu2AgAs2
_symmetry_space_group_name_H-M   'P 1'
_cell_length_a   8.04578899
_cell_length_b   7.98357997
_cell_length_c   8.04578906
_cell_angle_alpha   47.33046461
_cell_angle_beta   46.45302444
_cell_angle_gamma   47.33047027
_symmetry_Int_Tables_number   1
_chemical_formula_structural   Cs3Cu2AgAs2
_chemical_formula_sum   'Cs3 Cu2 Ag1 As2'
_cell_volume   252.96168110
_cell_formula_units_Z   1
loop_
 _symmetry_equiv_pos_site_id
 _symmetry_equiv_pos_as_xyz
  1  'x, y, z'
loop_
 _atom_site_type_symbol
 _atom_site_label
 _atom_site_symmetry_multiplicity
 _atom_site_fract_x
 _atom_site_fract_y
 _atom_site_fract_z
 _atom_site_occupancy
  Cs  Cs0  1  0.90409175  0.92077372  0.90409175  1
  Cs  Cs1  1  0.50000000  0.50000000  0.50000000  1
  Cs  Cs2  1  0.09590825  0.07922628  0.09590825  1
  Cu  Cu0  1  0.00000000  0.50000000  0.50000000  1
  Cu  Cu1  1  0.50000000  0.50000000  0.00000000  1
  Ag  Ag0  1  0.50000000  0.00000000  0.50000000  1
  As  As0  1  0.24907482  0.28841836  0.24907482  1
  As  As1  1  0.75092518  0.71158164  0.75092518  1
loop_
_geom_bond_atom_site_label_1
_geom_bond_atom_site_label_2
_geom_bond_distance
_geom_bond_site_symmetry_2
Cs0 Cu0 3.681058 1_665
Cs0 Cu1 3.681058 1_566
Cs0 Cu0 3.823528 1_656
Cs0 Cu1 3.823528 1_656
Cs0 Cs1 4.041061 1_565
Cs0 Cs1 4.041827 1_556
Cs0 Cs1 4.041827 1_655
Cs1 Cu0 4.022894 1_555
Cs1 Cu0 4.022894 1_655
Cs1 Cu1 4.022895 1_555
Cs1 Cu1 4.022895 1_556
Cs1 Cs2 4.041061 1_565
Cs1 Cs2 4.041827 1_556
Cs1 Cs2 4.041827 1_655
Cs2 Cu0 3.681058 1_545
Cs2 Cu1 3.681058 1_545
Cs2 Cu0 3.823528 1_554
Cs2 Cu1 3.823528 1_455
Ag0 As1 2.543036 1_545
Ag0 As0 2.543036 1_555
Ag0 Cs2 3.715182 1_655
Ag0 Cs0 3.715182 1_445
Ag0 Cs2 3.715182 1_556
Ag0 Cs0 3.715182 1_544
Ag0 Cs1 3.991790 1_555
Ag0 Cs1 3.991790 1_545
As0 Cu1 2.324774 1_555
As0 Cu0 2.324775 1_555
As0 Cs2 3.674092 1_555
As0 Cs0 3.677156 1_454
As0 Cs0 3.743368 1_445
As0 Cs0 3.743369 1_544
As0 Cs1 4.160486 1_554
As0 Cs1 4.160486 1_455
As0 Cs1 4.351548 1_545
As1 Cu1 2.324774 1_556
As1 Cu0 2.324775 1_655
As1 Cs0 3.674092 1_555
As1 Cs2 3.677156 1_656
As1 Cs2 3.743368 1_665
As1 Cs2 3.743369 1_566
As1 Cs1 4.160486 1_556
As1 Cs1 4.160486 1_655
As1 Cs1 4.351548 1_565
