# generated using pymatgen
data_Rb4ZrReBr12
_symmetry_space_group_name_H-M   'P 1'
_cell_length_a   7.55574189
_cell_length_b   7.55553669
_cell_length_c   10.66144177
_cell_angle_alpha   90.00000000
_cell_angle_beta   90.00000000
_cell_angle_gamma   90.00000000
_symmetry_Int_Tables_number   1
_chemical_formula_structural   Rb4ZrReBr12
_chemical_formula_sum   'Rb4 Zr1 Re1 Br12'
_cell_volume   608.63703009
_cell_formula_units_Z   1
loop_
 _symmetry_equiv_pos_site_id
 _symmetry_equiv_pos_as_xyz
  1  'x, y, z'
loop_
 _atom_site_type_symbol
 _atom_site_label
 _atom_site_symmetry_multiplicity
 _atom_site_fract_x
 _atom_site_fract_y
 _atom_site_fract_z
 _atom_site_occupancy
  Rb  Rb0  1  0.50000000  0.00000000  0.74782749  1
  Rb  Rb1  1  0.00000000  0.50000000  0.25217554  1
  Rb  Rb2  1  0.50000000  0.00000000  0.25217251  1
  Rb  Rb3  1  0.00000000  0.50000000  0.74782446  1
  Zr  Zr0  1  0.00000000  0.00000000  0.00000000  1
  Re  Re0  1  0.50000000  0.50000000  0.50000000  1
  Br  Br0  1  0.00000000  0.00000000  0.75279719  1
  Br  Br1  1  0.50000000  0.50000000  0.26336786  1
  Br  Br2  1  0.73648396  0.73649157  0.50000000  1
  Br  Br3  1  0.24617407  0.24618575  0.00000000  1
  Br  Br4  1  0.73648396  0.26350843  0.50000000  1
  Br  Br5  1  0.24617407  0.75381425  0.00000000  1
  Br  Br6  1  0.00000000  0.00000000  0.24720281  1
  Br  Br7  1  0.50000000  0.50000000  0.73663214  1
  Br  Br8  1  0.26351604  0.26350843  0.50000000  1
  Br  Br9  1  0.75382593  0.75381425  0.00000000  1
  Br  Br10  1  0.26351604  0.73649157  0.50000000  1
  Br  Br11  1  0.75382593  0.24618575  0.00000000  1
loop_
_geom_bond_atom_site_label_1
_geom_bond_atom_site_label_2
_geom_bond_distance
_geom_bond_site_symmetry_2
Br0 Zr0 2.635538 1_556
Br0 Rb3 3.778140 1_545
Br0 Rb3 3.778140 1_555
Br0 Rb0 3.778242 1_455
Br0 Rb0 3.778242 1_555
Br1 Re0 2.522840 1_555
Br1 Rb2 3.779653 1_555
Br1 Rb2 3.779653 1_565
Br1 Rb1 3.779755 1_555
Br1 Rb1 3.779755 1_655
Br2 Re0 2.526940 1_555
Br2 Rb0 3.760024 1_565
Br2 Rb2 3.760024 1_565
Br2 Rb3 3.760065 1_655
Br2 Rb1 3.760065 1_655
Br3 Zr0 2.630503 1_555
Br3 Rb1 3.790200 1_555
Br3 Rb3 3.790200 1_554
Br3 Rb2 3.790266 1_555
Br3 Rb0 3.790266 1_554
Br4 Re0 2.526940 1_555
Br4 Rb0 3.760024 1_555
Br4 Rb2 3.760024 1_555
Br4 Rb3 3.760065 1_655
Br4 Rb1 3.760065 1_655
Br5 Zr0 2.630503 1_565
Br5 Rb1 3.790200 1_555
Br5 Rb3 3.790200 1_554
Br5 Rb2 3.790266 1_565
Br5 Rb0 3.790266 1_564
Br6 Zr0 2.635538 1_555
Br6 Rb1 3.778140 1_545
Br6 Rb1 3.778140 1_555
Br6 Rb2 3.778242 1_455
Br6 Rb2 3.778242 1_555
Br7 Re0 2.522840 1_555
Br7 Rb0 3.779653 1_565
Br7 Rb0 3.779653 1_555
Br7 Rb3 3.779755 1_655
Br7 Rb3 3.779755 1_555
Br8 Re0 2.526940 1_555
Br8 Rb0 3.760024 1_555
Br8 Rb2 3.760024 1_555
Br8 Rb3 3.760065 1_555
Br8 Rb1 3.760065 1_555
Br9 Zr0 2.630503 1_665
Br9 Rb1 3.790200 1_655
Br9 Rb3 3.790200 1_654
Br9 Rb2 3.790266 1_565
Br9 Rb0 3.790266 1_564
Br10 Re0 2.526940 1_555
Br10 Rb0 3.760024 1_565
Br10 Rb2 3.760024 1_565
Br10 Rb3 3.760065 1_555
Br10 Rb1 3.760065 1_555
Br11 Zr0 2.630503 1_655
Br11 Rb1 3.790200 1_655
Br11 Rb3 3.790200 1_654
Br11 Rb2 3.790266 1_555
Br11 Rb0 3.790266 1_554
