# generated using pymatgen
data_Hg5Pd2
_symmetry_space_group_name_H-M   'P 1'
_cell_length_a   5.95722262
_cell_length_b   19.61719232
_cell_length_c   19.61719232
_cell_angle_alpha   90.00000000
_cell_angle_beta   90.00000000
_cell_angle_gamma   90.00000000
_symmetry_Int_Tables_number   1
_chemical_formula_structural   Hg5Pd2
_chemical_formula_sum   'Hg80 Pd32'
_cell_volume   2292.54320683
_cell_formula_units_Z   16
loop_
 _symmetry_equiv_pos_site_id
 _symmetry_equiv_pos_as_xyz
  1  'x, y, z'
loop_
 _atom_site_type_symbol
 _atom_site_label
 _atom_site_symmetry_multiplicity
 _atom_site_fract_x
 _atom_site_fract_y
 _atom_site_fract_z
 _atom_site_occupancy
  Hg  Hg0_0  1  0.00000000  0.10192335  0.46812585  1
  Hg  Hg0_1  1  0.00000000  0.10192335  0.96812585  1
  Hg  Hg0_2  1  0.00000000  0.60192336  0.46812585  1
  Hg  Hg0_3  1  0.00000000  0.60192336  0.96812585  1
  Hg  Hg0_4  1  0.50000000  0.10192335  0.46812585  1
  Hg  Hg0_5  1  0.50000000  0.10192335  0.96812585  1
  Hg  Hg0_6  1  0.50000000  0.60192336  0.46812585  1
  Hg  Hg0_7  1  0.50000000  0.60192336  0.96812585  1
  Hg  Hg1_0  1  0.00000000  0.46812585  0.39807665  1
  Hg  Hg1_1  1  0.00000000  0.46812585  0.89807664  1
  Hg  Hg1_2  1  0.00000000  0.96812585  0.39807665  1
  Hg  Hg1_3  1  0.00000000  0.96812585  0.89807664  1
  Hg  Hg1_4  1  0.50000000  0.46812585  0.39807665  1
  Hg  Hg1_5  1  0.50000000  0.46812585  0.89807664  1
  Hg  Hg1_6  1  0.50000000  0.96812585  0.39807665  1
  Hg  Hg1_7  1  0.50000000  0.96812585  0.89807664  1
  Hg  Hg2_0  1  0.00000000  0.28187415  0.14807665  1
  Hg  Hg2_1  1  0.00000000  0.28187415  0.64807664  1
  Hg  Hg2_2  1  0.00000000  0.78187415  0.14807665  1
  Hg  Hg2_3  1  0.00000000  0.78187415  0.64807664  1
  Hg  Hg2_4  1  0.50000000  0.28187415  0.14807665  1
  Hg  Hg2_5  1  0.50000000  0.28187415  0.64807664  1
  Hg  Hg2_6  1  0.50000000  0.78187415  0.14807665  1
  Hg  Hg2_7  1  0.50000000  0.78187415  0.64807664  1
  Hg  Hg3_0  1  0.00000000  0.21812585  0.35192335  1
  Hg  Hg3_1  1  0.00000000  0.21812585  0.85192336  1
  Hg  Hg3_2  1  0.00000000  0.71812585  0.35192335  1
  Hg  Hg3_3  1  0.00000000  0.71812585  0.85192336  1
  Hg  Hg3_4  1  0.50000000  0.21812585  0.35192335  1
  Hg  Hg3_5  1  0.50000000  0.21812585  0.85192336  1
  Hg  Hg3_6  1  0.50000000  0.71812585  0.35192335  1
  Hg  Hg3_7  1  0.50000000  0.71812585  0.85192336  1
  Hg  Hg4_0  1  0.00000000  0.35192335  0.28187415  1
  Hg  Hg4_1  1  0.00000000  0.35192335  0.78187415  1
  Hg  Hg4_2  1  0.00000000  0.85192336  0.28187415  1
  Hg  Hg4_3  1  0.00000000  0.85192336  0.78187415  1
  Hg  Hg4_4  1  0.50000000  0.35192335  0.28187415  1
  Hg  Hg4_5  1  0.50000000  0.35192335  0.78187415  1
  Hg  Hg4_6  1  0.50000000  0.85192336  0.28187415  1
  Hg  Hg4_7  1  0.50000000  0.85192336  0.78187415  1
  Hg  Hg5_0  1  0.00000000  0.14807665  0.21812585  1
  Hg  Hg5_1  1  0.00000000  0.14807665  0.71812585  1
  Hg  Hg5_2  1  0.00000000  0.64807664  0.21812585  1
  Hg  Hg5_3  1  0.00000000  0.64807664  0.71812585  1
  Hg  Hg5_4  1  0.50000000  0.14807665  0.21812585  1
  Hg  Hg5_5  1  0.50000000  0.14807665  0.71812585  1
  Hg  Hg5_6  1  0.50000000  0.64807664  0.21812585  1
  Hg  Hg5_7  1  0.50000000  0.64807664  0.71812585  1
  Hg  Hg6_0  1  0.00000000  0.39807665  0.03187415  1
  Hg  Hg6_1  1  0.00000000  0.39807665  0.53187415  1
  Hg  Hg6_2  1  0.00000000  0.89807664  0.03187415  1
  Hg  Hg6_3  1  0.00000000  0.89807664  0.53187415  1
  Hg  Hg6_4  1  0.50000000  0.39807665  0.03187415  1
  Hg  Hg6_5  1  0.50000000  0.39807665  0.53187415  1
  Hg  Hg6_6  1  0.50000000  0.89807664  0.03187415  1
  Hg  Hg6_7  1  0.50000000  0.89807664  0.53187415  1
  Hg  Hg7_0  1  0.00000000  0.03187415  0.10192335  1
  Hg  Hg7_1  1  0.00000000  0.03187415  0.60192336  1
  Hg  Hg7_2  1  0.00000000  0.53187415  0.10192335  1
  Hg  Hg7_3  1  0.00000000  0.53187415  0.60192336  1
  Hg  Hg7_4  1  0.50000000  0.03187415  0.10192335  1
  Hg  Hg7_5  1  0.50000000  0.03187415  0.60192336  1
  Hg  Hg7_6  1  0.50000000  0.53187415  0.10192335  1
  Hg  Hg7_7  1  0.50000000  0.53187415  0.60192336  1
  Hg  Hg8_0  1  0.00000000  0.25000000  0.00000000  1
  Hg  Hg8_1  1  0.00000000  0.25000000  0.50000000  1
  Hg  Hg8_2  1  0.00000000  0.75000000  0.00000000  1
  Hg  Hg8_3  1  0.00000000  0.75000000  0.50000000  1
  Hg  Hg8_4  1  0.50000000  0.25000000  0.00000000  1
  Hg  Hg8_5  1  0.50000000  0.25000000  0.50000000  1
  Hg  Hg8_6  1  0.50000000  0.75000000  0.00000000  1
  Hg  Hg8_7  1  0.50000000  0.75000000  0.50000000  1
  Hg  Hg9_0  1  0.00000000  0.00000000  0.25000000  1
  Hg  Hg9_1  1  0.00000000  0.00000000  0.75000000  1
  Hg  Hg9_2  1  0.00000000  0.50000000  0.25000000  1
  Hg  Hg9_3  1  0.00000000  0.50000000  0.75000000  1
  Hg  Hg9_4  1  0.50000000  0.00000000  0.25000000  1
  Hg  Hg9_5  1  0.50000000  0.00000000  0.75000000  1
  Hg  Hg9_6  1  0.50000000  0.50000000  0.25000000  1
  Hg  Hg9_7  1  0.50000000  0.50000000  0.75000000  1
  Pd  Pd0_0  1  0.25000000  0.40996520  0.15996520  1
  Pd  Pd0_1  1  0.25000000  0.40996520  0.65996520  1
  Pd  Pd0_2  1  0.25000000  0.90996521  0.15996520  1
  Pd  Pd0_3  1  0.25000000  0.90996521  0.65996520  1
  Pd  Pd0_4  1  0.75000000  0.40996520  0.15996520  1
  Pd  Pd0_5  1  0.75000000  0.40996520  0.65996520  1
  Pd  Pd0_6  1  0.75000000  0.90996521  0.15996520  1
  Pd  Pd0_7  1  0.75000000  0.90996521  0.65996520  1
  Pd  Pd1_0  1  0.25000000  0.34003480  0.40996520  1
  Pd  Pd1_1  1  0.25000000  0.34003480  0.90996521  1
  Pd  Pd1_2  1  0.25000000  0.84003480  0.40996520  1
  Pd  Pd1_3  1  0.25000000  0.84003480  0.90996521  1
  Pd  Pd1_4  1  0.75000000  0.34003480  0.40996520  1
  Pd  Pd1_5  1  0.75000000  0.34003480  0.90996521  1
  Pd  Pd1_6  1  0.75000000  0.84003480  0.40996520  1
  Pd  Pd1_7  1  0.75000000  0.84003480  0.90996521  1
  Pd  Pd2_0  1  0.25000000  0.15996520  0.09003480  1
  Pd  Pd2_1  1  0.25000000  0.15996520  0.59003480  1
  Pd  Pd2_2  1  0.25000000  0.65996520  0.09003480  1
  Pd  Pd2_3  1  0.25000000  0.65996520  0.59003480  1
  Pd  Pd2_4  1  0.75000000  0.15996520  0.09003480  1
  Pd  Pd2_5  1  0.75000000  0.15996520  0.59003480  1
  Pd  Pd2_6  1  0.75000000  0.65996520  0.09003480  1
  Pd  Pd2_7  1  0.75000000  0.65996520  0.59003480  1
  Pd  Pd3_0  1  0.25000000  0.09003480  0.34003480  1
  Pd  Pd3_1  1  0.25000000  0.09003480  0.84003480  1
  Pd  Pd3_2  1  0.25000000  0.59003480  0.34003480  1
  Pd  Pd3_3  1  0.25000000  0.59003480  0.84003480  1
  Pd  Pd3_4  1  0.75000000  0.09003480  0.34003480  1
  Pd  Pd3_5  1  0.75000000  0.09003480  0.84003480  1
  Pd  Pd3_6  1  0.75000000  0.59003480  0.34003480  1
  Pd  Pd3_7  1  0.75000000  0.59003480  0.84003480  1
loop_
_geom_bond_atom_site_label_1
_geom_bond_atom_site_label_2
_geom_bond_distance
_geom_bond_site_symmetry_2
Hg0_0 Pd3_0 2.930277 1_555
Hg0_0 Pd3_4 2.930277 1_455
Hg0_0 Hg1_2 2.962694 1_545
Hg0_0 Hg7_1 2.962694 1_555
Hg0_0 Hg8_1 2.971383 1_555
Hg0_0 Hg0_4 2.978611 1_455
Hg0_0 Hg0_4 2.978611 1_555
Hg0_0 Pd2_5 3.038718 1_455
Hg0_0 Pd2_1 3.038718 1_555
Hg0_0 Hg3_0 3.223794 1_555
Hg0_1 Pd3_5 2.930277 1_455
Hg0_1 Pd3_1 2.930277 1_555
Hg0_1 Hg1_3 2.962694 1_545
Hg0_1 Hg7_0 2.962694 1_556
Hg0_1 Hg8_0 2.971383 1_556
Hg0_1 Hg0_5 2.978611 1_555
Hg0_1 Hg0_5 2.978611 1_455
Hg0_1 Pd2_4 3.038718 1_456
Hg0_1 Pd2_0 3.038718 1_556
Hg0_1 Hg3_1 3.223794 1_555
Hg0_2 Pd3_2 2.930277 1_555
Hg0_2 Pd3_6 2.930277 1_455
Hg0_2 Hg1_0 2.962694 1_555
Hg0_2 Hg7_3 2.962694 1_555
Hg0_2 Hg8_3 2.971383 1_555
Hg0_2 Hg0_6 2.978611 1_455
Hg0_2 Hg0_6 2.978611 1_555
Hg0_2 Pd2_3 3.038718 1_555
Hg0_2 Pd2_7 3.038718 1_455
Hg0_2 Hg3_2 3.223794 1_555
Hg0_3 Pd3_7 2.930277 1_455
Hg0_3 Pd3_3 2.930277 1_555
Hg0_3 Hg7_2 2.962694 1_556
Hg0_3 Hg1_1 2.962694 1_555
Hg0_3 Hg8_2 2.971383 1_556
Hg0_3 Hg0_7 2.978611 1_455
Hg0_3 Hg0_7 2.978611 1_555
Hg0_3 Pd2_6 3.038718 1_456
Hg0_3 Pd2_2 3.038718 1_556
Hg0_3 Hg3_3 3.223794 1_555
Hg0_4 Pd3_0 2.930277 1_555
Hg0_4 Pd3_4 2.930277 1_555
Hg0_4 Hg1_6 2.962694 1_545
Hg0_4 Hg7_5 2.962694 1_555
Hg0_4 Hg8_5 2.971383 1_555
Hg0_4 Pd2_1 3.038718 1_555
Hg0_4 Pd2_5 3.038718 1_555
Hg0_4 Hg3_4 3.223794 1_555
Hg0_5 Pd3_5 2.930277 1_555
Hg0_5 Pd3_1 2.930277 1_555
Hg0_5 Hg1_7 2.962694 1_545
Hg0_5 Hg7_4 2.962694 1_556
Hg0_5 Hg8_4 2.971383 1_556
Hg0_5 Pd2_4 3.038718 1_556
Hg0_5 Pd2_0 3.038718 1_556
Hg0_5 Hg3_5 3.223794 1_555
Hg0_6 Pd3_2 2.930277 1_555
Hg0_6 Pd3_6 2.930277 1_555
Hg0_6 Hg7_7 2.962694 1_555
Hg0_6 Hg1_4 2.962694 1_555
Hg0_6 Hg8_7 2.971383 1_555
Hg0_6 Pd2_3 3.038718 1_555
Hg0_6 Pd2_7 3.038718 1_555
Hg0_6 Hg3_6 3.223794 1_555
Hg0_7 Pd3_3 2.930277 1_555
Hg0_7 Pd3_7 2.930277 1_555
Hg0_7 Hg7_6 2.962694 1_556
Hg0_7 Hg1_5 2.962694 1_555
Hg0_7 Hg8_6 2.971383 1_556
Hg0_7 Pd2_2 3.038718 1_556
Hg0_7 Pd2_6 3.038718 1_556
Hg0_7 Hg3_7 3.223794 1_555
Hg1_0 Pd1_4 2.930277 1_455
Hg1_0 Pd1_0 2.930277 1_555
Hg1_0 Hg6_1 2.962694 1_555
Hg1_0 Hg9_2 2.971383 1_555
Hg1_0 Hg1_4 2.978611 1_555
Hg1_0 Hg1_4 2.978611 1_455
Hg1_0 Pd3_2 3.038718 1_555
Hg1_0 Pd3_6 3.038718 1_455
Hg1_0 Hg4_0 3.223794 1_555
Hg1_1 Pd1_1 2.930277 1_555
Hg1_1 Pd1_5 2.930277 1_455
Hg1_1 Hg6_0 2.962694 1_556
Hg1_1 Hg9_3 2.971383 1_555
Hg1_1 Hg1_5 2.978611 1_555
Hg1_1 Hg1_5 2.978611 1_455
Hg1_1 Pd3_3 3.038718 1_555
Hg1_1 Pd3_7 3.038718 1_455
Hg1_1 Hg4_1 3.223794 1_555
Hg1_2 Pd1_6 2.930277 1_455
Hg1_2 Pd1_2 2.930277 1_555
Hg1_2 Hg6_3 2.962694 1_555
Hg1_2 Hg9_0 2.971383 1_565
Hg1_2 Hg1_6 2.978611 1_455
Hg1_2 Hg1_6 2.978611 1_555
Hg1_2 Pd3_4 3.038718 1_465
Hg1_2 Pd3_0 3.038718 1_565
Hg1_2 Hg4_2 3.223794 1_555
Hg1_3 Pd1_3 2.930277 1_555
Hg1_3 Pd1_7 2.930277 1_455
Hg1_3 Hg6_2 2.962694 1_556
Hg1_3 Hg9_1 2.971383 1_565
Hg1_3 Hg1_7 2.978611 1_455
Hg1_3 Hg1_7 2.978611 1_555
Hg1_3 Pd3_1 3.038718 1_565
Hg1_3 Pd3_5 3.038718 1_465
Hg1_3 Hg4_3 3.223794 1_555
Hg1_4 Pd1_4 2.930277 1_555
Hg1_4 Pd1_0 2.930277 1_555
Hg1_4 Hg6_5 2.962694 1_555
Hg1_4 Hg9_6 2.971383 1_555
Hg1_4 Pd3_2 3.038718 1_555
Hg1_4 Pd3_6 3.038718 1_555
Hg1_4 Hg4_4 3.223794 1_555
Hg1_5 Pd1_1 2.930277 1_555
Hg1_5 Pd1_5 2.930277 1_555
Hg1_5 Hg6_4 2.962694 1_556
Hg1_5 Hg9_7 2.971383 1_555
Hg1_5 Pd3_3 3.038718 1_555
Hg1_5 Pd3_7 3.038718 1_555
Hg1_5 Hg4_5 3.223794 1_555
Hg1_6 Pd1_2 2.930277 1_555
Hg1_6 Pd1_6 2.930277 1_555
Hg1_6 Hg6_7 2.962694 1_555
Hg1_6 Hg9_4 2.971383 1_565
Hg1_6 Pd3_0 3.038718 1_565
Hg1_6 Pd3_4 3.038718 1_565
Hg1_6 Hg4_6 3.223794 1_555
Hg1_7 Pd1_3 2.930277 1_555
Hg1_7 Pd1_7 2.930277 1_555
Hg1_7 Hg6_6 2.962694 1_556
Hg1_7 Hg9_5 2.971383 1_565
Hg1_7 Pd3_5 3.038718 1_565
Hg1_7 Pd3_1 3.038718 1_565
Hg1_7 Hg4_7 3.223794 1_555
Hg2_0 Pd0_4 2.930277 1_455
Hg2_0 Pd0_0 2.930277 1_555
Hg2_0 Hg4_0 2.962694 1_555
Hg2_0 Hg5_0 2.962694 1_555
Hg2_0 Hg8_0 2.971383 1_555
Hg2_0 Hg2_4 2.978611 1_555
Hg2_0 Hg2_4 2.978611 1_455
Hg2_0 Pd2_4 3.038718 1_455
Hg2_0 Pd2_0 3.038718 1_555
Hg2_0 Hg6_0 3.223794 1_555
Hg2_1 Pd0_1 2.930277 1_555
Hg2_1 Pd0_5 2.930277 1_455
Hg2_1 Hg5_1 2.962694 1_555
Hg2_1 Hg4_1 2.962694 1_555
Hg2_1 Hg8_1 2.971383 1_555
Hg2_1 Hg2_5 2.978611 1_555
Hg2_1 Hg2_5 2.978611 1_455
Hg2_1 Pd2_5 3.038718 1_455
Hg2_1 Pd2_1 3.038718 1_555
Hg2_1 Hg6_1 3.223794 1_555
Hg2_2 Pd0_2 2.930277 1_555
Hg2_2 Pd0_6 2.930277 1_455
Hg2_2 Hg4_2 2.962694 1_555
Hg2_2 Hg5_2 2.962694 1_555
Hg2_2 Hg8_2 2.971383 1_555
Hg2_2 Hg2_6 2.978611 1_555
Hg2_2 Hg2_6 2.978611 1_455
Hg2_2 Pd2_6 3.038718 1_455
Hg2_2 Pd2_2 3.038718 1_555
Hg2_2 Hg6_2 3.223794 1_555
Hg2_3 Pd0_3 2.930277 1_555
Hg2_3 Pd0_7 2.930277 1_455
Hg2_3 Hg4_3 2.962694 1_555
Hg2_3 Hg5_3 2.962694 1_555
Hg2_3 Hg8_3 2.971383 1_555
Hg2_3 Hg2_7 2.978611 1_455
Hg2_3 Hg2_7 2.978611 1_555
Hg2_3 Pd2_3 3.038718 1_555
Hg2_3 Pd2_7 3.038718 1_455
Hg2_3 Hg6_3 3.223794 1_555
Hg2_4 Pd0_0 2.930277 1_555
Hg2_4 Pd0_4 2.930277 1_555
Hg2_4 Hg4_4 2.962694 1_555
Hg2_4 Hg5_4 2.962694 1_555
Hg2_4 Hg8_4 2.971383 1_555
Hg2_4 Pd2_0 3.038718 1_555
Hg2_4 Pd2_4 3.038718 1_555
Hg2_4 Hg6_4 3.223794 1_555
Hg2_5 Pd0_1 2.930277 1_555
Hg2_5 Pd0_5 2.930277 1_555
Hg2_5 Hg5_5 2.962694 1_555
Hg2_5 Hg4_5 2.962694 1_555
Hg2_5 Hg8_5 2.971383 1_555
Hg2_5 Pd2_1 3.038718 1_555
Hg2_5 Pd2_5 3.038718 1_555
Hg2_5 Hg6_5 3.223794 1_555
Hg2_6 Pd0_2 2.930277 1_555
Hg2_6 Pd0_6 2.930277 1_555
Hg2_6 Hg4_6 2.962694 1_555
Hg2_6 Hg5_6 2.962694 1_555
Hg2_6 Hg8_6 2.971383 1_555
Hg2_6 Pd2_2 3.038718 1_555
Hg2_6 Pd2_6 3.038718 1_555
Hg2_6 Hg6_6 3.223794 1_555
Hg2_7 Pd0_3 2.930277 1_555
Hg2_7 Pd0_7 2.930277 1_555
Hg2_7 Hg4_7 2.962694 1_555
Hg2_7 Hg5_7 2.962694 1_555
Hg2_7 Hg8_7 2.971383 1_555
Hg2_7 Pd2_3 3.038718 1_555
Hg2_7 Pd2_7 3.038718 1_555
Hg2_7 Hg6_7 3.223794 1_555
Hg3_0 Pd3_4 2.930277 1_455
Hg3_0 Pd3_0 2.930277 1_555
Hg3_0 Hg4_0 2.962694 1_555
Hg3_0 Hg5_0 2.962694 1_555
Hg3_0 Hg8_1 2.971383 1_555
Hg3_0 Hg3_4 2.978611 1_555
Hg3_0 Hg3_4 2.978611 1_455
Hg3_0 Pd1_0 3.038718 1_555
Hg3_0 Pd1_4 3.038718 1_455
Hg3_1 Pd3_5 2.930277 1_455
Hg3_1 Pd3_1 2.930277 1_555
Hg3_1 Hg4_1 2.962694 1_555
Hg3_1 Hg5_1 2.962694 1_555
Hg3_1 Hg8_0 2.971383 1_556
Hg3_1 Hg3_5 2.978611 1_555
Hg3_1 Hg3_5 2.978611 1_455
Hg3_1 Pd1_1 3.038718 1_555
Hg3_1 Pd1_5 3.038718 1_455
Hg3_2 Pd3_6 2.930277 1_455
Hg3_2 Pd3_2 2.930277 1_555
Hg3_2 Hg4_2 2.962694 1_555
Hg3_2 Hg5_2 2.962694 1_555
Hg3_2 Hg8_3 2.971383 1_555
Hg3_2 Hg3_6 2.978611 1_555
Hg3_2 Hg3_6 2.978611 1_455
Hg3_2 Pd1_6 3.038718 1_455
Hg3_2 Pd1_2 3.038718 1_555
Hg3_3 Pd3_3 2.930277 1_555
Hg3_3 Pd3_7 2.930277 1_455
Hg3_3 Hg4_3 2.962694 1_555
Hg3_3 Hg5_3 2.962694 1_555
Hg3_3 Hg8_2 2.971383 1_556
Hg3_3 Hg3_7 2.978611 1_555
Hg3_3 Hg3_7 2.978611 1_455
Hg3_3 Pd1_7 3.038718 1_455
Hg3_3 Pd1_3 3.038718 1_555
Hg3_4 Pd3_4 2.930277 1_555
Hg3_4 Pd3_0 2.930277 1_555
Hg3_4 Hg4_4 2.962694 1_555
Hg3_4 Hg5_4 2.962694 1_555
Hg3_4 Hg8_5 2.971383 1_555
Hg3_4 Pd1_0 3.038718 1_555
Hg3_4 Pd1_4 3.038718 1_555
Hg3_5 Pd3_1 2.930277 1_555
Hg3_5 Pd3_5 2.930277 1_555
Hg3_5 Hg5_5 2.962694 1_555
Hg3_5 Hg4_5 2.962694 1_555
Hg3_5 Hg8_4 2.971383 1_556
Hg3_5 Pd1_1 3.038718 1_555
Hg3_5 Pd1_5 3.038718 1_555
Hg3_6 Pd3_6 2.930277 1_555
Hg3_6 Pd3_2 2.930277 1_555
Hg3_6 Hg4_6 2.962694 1_555
Hg3_6 Hg5_6 2.962694 1_555
Hg3_6 Hg8_7 2.971383 1_555
Hg3_6 Pd1_6 3.038718 1_555
Hg3_6 Pd1_2 3.038718 1_555
Hg3_7 Pd3_3 2.930277 1_555
Hg3_7 Pd3_7 2.930277 1_555
Hg3_7 Hg4_7 2.962694 1_555
Hg3_7 Hg5_7 2.962694 1_555
Hg3_7 Hg8_6 2.971383 1_556
Hg3_7 Pd1_3 3.038718 1_555
Hg3_7 Pd1_7 3.038718 1_555
Hg4_0 Pd1_4 2.930277 1_455
Hg4_0 Pd1_0 2.930277 1_555
Hg4_0 Hg9_2 2.971383 1_555
Hg4_0 Hg4_4 2.978611 1_455
Hg4_0 Hg4_4 2.978611 1_555
Hg4_0 Pd0_4 3.038718 1_455
Hg4_0 Pd0_0 3.038718 1_555
Hg4_1 Pd1_1 2.930277 1_555
Hg4_1 Pd1_5 2.930277 1_455
Hg4_1 Hg9_3 2.971383 1_555
Hg4_1 Hg4_5 2.978611 1_455
Hg4_1 Hg4_5 2.978611 1_555
Hg4_1 Pd0_5 3.038718 1_455
Hg4_1 Pd0_1 3.038718 1_555
Hg4_2 Pd1_6 2.930277 1_455
Hg4_2 Pd1_2 2.930277 1_555
Hg4_2 Hg9_0 2.971383 1_565
Hg4_2 Hg4_6 2.978611 1_455
Hg4_2 Hg4_6 2.978611 1_555
Hg4_2 Pd0_2 3.038718 1_555
Hg4_2 Pd0_6 3.038718 1_455
Hg4_3 Pd1_7 2.930277 1_455
Hg4_3 Pd1_3 2.930277 1_555
Hg4_3 Hg9_1 2.971383 1_565
Hg4_3 Hg4_7 2.978611 1_455
Hg4_3 Hg4_7 2.978611 1_555
Hg4_3 Pd0_7 3.038718 1_455
Hg4_3 Pd0_3 3.038718 1_555
Hg4_4 Pd1_4 2.930277 1_555
Hg4_4 Pd1_0 2.930277 1_555
Hg4_4 Hg9_6 2.971383 1_555
Hg4_4 Pd0_0 3.038718 1_555
Hg4_4 Pd0_4 3.038718 1_555
Hg4_5 Pd1_5 2.930277 1_555
Hg4_5 Pd1_1 2.930277 1_555
Hg4_5 Hg9_7 2.971383 1_555
Hg4_5 Pd0_5 3.038718 1_555
Hg4_5 Pd0_1 3.038718 1_555
Hg4_6 Pd1_2 2.930277 1_555
Hg4_6 Pd1_6 2.930277 1_555
Hg4_6 Hg9_4 2.971383 1_565
Hg4_6 Pd0_2 3.038718 1_555
Hg4_6 Pd0_6 3.038718 1_555
Hg4_7 Pd1_3 2.930277 1_555
Hg4_7 Pd1_7 2.930277 1_555
Hg4_7 Hg9_5 2.971383 1_565
Hg4_7 Pd0_3 3.038718 1_555
Hg4_7 Pd0_7 3.038718 1_555
Hg5_0 Pd2_4 2.930277 1_455
Hg5_0 Pd2_0 2.930277 1_555
Hg5_0 Hg9_0 2.971383 1_555
Hg5_0 Hg5_4 2.978611 1_455
Hg5_0 Hg5_4 2.978611 1_555
Hg5_0 Pd3_0 3.038718 1_555
Hg5_0 Pd3_4 3.038718 1_455
Hg5_0 Hg7_0 3.223794 1_555
Hg5_1 Pd2_5 2.930277 1_455
Hg5_1 Pd2_1 2.930277 1_555
Hg5_1 Hg9_1 2.971383 1_555
Hg5_1 Hg5_5 2.978611 1_455
Hg5_1 Hg5_5 2.978611 1_555
Hg5_1 Pd3_5 3.038718 1_455
Hg5_1 Pd3_1 3.038718 1_555
Hg5_1 Hg7_1 3.223794 1_555
Hg5_2 Pd2_2 2.930277 1_555
Hg5_2 Pd2_6 2.930277 1_455
Hg5_2 Hg9_2 2.971383 1_555
Hg5_2 Hg5_6 2.978611 1_555
Hg5_2 Hg5_6 2.978611 1_455
Hg5_2 Pd3_6 3.038718 1_455
Hg5_2 Pd3_2 3.038718 1_555
Hg5_2 Hg7_2 3.223794 1_555
Hg5_3 Pd2_3 2.930277 1_555
Hg5_3 Pd2_7 2.930277 1_455
Hg5_3 Hg9_3 2.971383 1_555
Hg5_3 Hg5_7 2.978611 1_455
Hg5_3 Hg5_7 2.978611 1_555
Hg5_3 Pd3_3 3.038718 1_555
Hg5_3 Pd3_7 3.038718 1_455
Hg5_3 Hg7_3 3.223794 1_555
Hg5_4 Pd2_0 2.930277 1_555
Hg5_4 Pd2_4 2.930277 1_555
Hg5_4 Hg9_4 2.971383 1_555
Hg5_4 Pd3_0 3.038718 1_555
Hg5_4 Pd3_4 3.038718 1_555
Hg5_4 Hg7_4 3.223794 1_555
Hg5_5 Pd2_1 2.930277 1_555
Hg5_5 Pd2_5 2.930277 1_555
Hg5_5 Hg9_5 2.971383 1_555
Hg5_5 Pd3_1 3.038718 1_555
Hg5_5 Pd3_5 3.038718 1_555
Hg5_5 Hg7_5 3.223794 1_555
Hg5_6 Pd2_2 2.930277 1_555
Hg5_6 Pd2_6 2.930277 1_555
Hg5_6 Hg9_6 2.971383 1_555
Hg5_6 Pd3_2 3.038718 1_555
Hg5_6 Pd3_6 3.038718 1_555
Hg5_6 Hg7_6 3.223794 1_555
Hg5_7 Pd2_3 2.930277 1_555
Hg5_7 Pd2_7 2.930277 1_555
Hg5_7 Hg9_7 2.971383 1_555
Hg5_7 Pd3_3 3.038718 1_555
Hg5_7 Pd3_7 3.038718 1_555
Hg5_7 Hg7_7 3.223794 1_555
Hg6_0 Pd0_4 2.930277 1_455
Hg6_0 Pd0_0 2.930277 1_555
Hg6_0 Hg7_2 2.962694 1_555
Hg6_0 Hg8_0 2.971383 1_555
Hg6_0 Hg6_4 2.978611 1_455
Hg6_0 Hg6_4 2.978611 1_555
Hg6_0 Pd1_5 3.038718 1_454
Hg6_0 Pd1_1 3.038718 1_554
Hg6_1 Pd0_5 2.930277 1_455
Hg6_1 Pd0_1 2.930277 1_555
Hg6_1 Hg7_3 2.962694 1_555
Hg6_1 Hg8_1 2.971383 1_555
Hg6_1 Hg6_5 2.978611 1_555
Hg6_1 Hg6_5 2.978611 1_455
Hg6_1 Pd1_4 3.038718 1_455
Hg6_1 Pd1_0 3.038718 1_555
Hg6_2 Pd0_2 2.930277 1_555
Hg6_2 Pd0_6 2.930277 1_455
Hg6_2 Hg7_0 2.962694 1_565
Hg6_2 Hg8_2 2.971383 1_555
Hg6_2 Hg6_6 2.978611 1_455
Hg6_2 Hg6_6 2.978611 1_555
Hg6_2 Pd1_7 3.038718 1_454
Hg6_2 Pd1_3 3.038718 1_554
Hg6_3 Pd0_7 2.930277 1_455
Hg6_3 Pd0_3 2.930277 1_555
Hg6_3 Hg7_1 2.962694 1_565
Hg6_3 Hg8_3 2.971383 1_555
Hg6_3 Hg6_7 2.978611 1_555
Hg6_3 Hg6_7 2.978611 1_455
Hg6_3 Pd1_6 3.038718 1_455
Hg6_3 Pd1_2 3.038718 1_555
Hg6_4 Pd0_0 2.930277 1_555
Hg6_4 Pd0_4 2.930277 1_555
Hg6_4 Hg7_6 2.962694 1_555
Hg6_4 Hg8_4 2.971383 1_555
Hg6_4 Pd1_5 3.038718 1_554
Hg6_4 Pd1_1 3.038718 1_554
Hg6_5 Pd0_1 2.930277 1_555
Hg6_5 Pd0_5 2.930277 1_555
Hg6_5 Hg7_7 2.962694 1_555
Hg6_5 Hg8_5 2.971383 1_555
Hg6_5 Pd1_4 3.038718 1_555
Hg6_5 Pd1_0 3.038718 1_555
Hg6_6 Pd0_2 2.930277 1_555
Hg6_6 Pd0_6 2.930277 1_555
Hg6_6 Hg7_4 2.962694 1_565
Hg6_6 Hg8_6 2.971383 1_555
Hg6_6 Pd1_3 3.038718 1_554
Hg6_6 Pd1_7 3.038718 1_554
Hg6_7 Pd0_3 2.930277 1_555
Hg6_7 Pd0_7 2.930277 1_555
Hg6_7 Hg7_5 2.962694 1_565
Hg6_7 Hg8_7 2.971383 1_555
Hg6_7 Pd1_2 3.038718 1_555
Hg6_7 Pd1_6 3.038718 1_555
Hg7_0 Pd2_4 2.930277 1_455
Hg7_0 Pd2_0 2.930277 1_555
Hg7_0 Hg9_0 2.971383 1_555
Hg7_0 Hg7_4 2.978611 1_455
Hg7_0 Hg7_4 2.978611 1_555
Hg7_0 Pd0_2 3.038718 1_545
Hg7_0 Pd0_6 3.038718 1_445
Hg7_1 Pd2_5 2.930277 1_455
Hg7_1 Pd2_1 2.930277 1_555
Hg7_1 Hg9_1 2.971383 1_555
Hg7_1 Hg7_5 2.978611 1_455
Hg7_1 Hg7_5 2.978611 1_555
Hg7_1 Pd0_7 3.038718 1_445
Hg7_1 Pd0_3 3.038718 1_545
Hg7_2 Pd2_2 2.930277 1_555
Hg7_2 Pd2_6 2.930277 1_455
Hg7_2 Hg9_2 2.971383 1_555
Hg7_2 Hg7_6 2.978611 1_555
Hg7_2 Hg7_6 2.978611 1_455
Hg7_2 Pd0_4 3.038718 1_455
Hg7_2 Pd0_0 3.038718 1_555
Hg7_3 Pd2_3 2.930277 1_555
Hg7_3 Pd2_7 2.930277 1_455
Hg7_3 Hg9_3 2.971383 1_555
Hg7_3 Hg7_7 2.978611 1_555
Hg7_3 Hg7_7 2.978611 1_455
Hg7_3 Pd0_5 3.038718 1_455
Hg7_3 Pd0_1 3.038718 1_555
Hg7_4 Pd2_0 2.930277 1_555
Hg7_4 Pd2_4 2.930277 1_555
Hg7_4 Hg9_4 2.971383 1_555
Hg7_4 Pd0_2 3.038718 1_545
Hg7_4 Pd0_6 3.038718 1_545
Hg7_5 Pd2_1 2.930277 1_555
Hg7_5 Pd2_5 2.930277 1_555
Hg7_5 Hg9_5 2.971383 1_555
Hg7_5 Pd0_3 3.038718 1_545
Hg7_5 Pd0_7 3.038718 1_545
Hg7_6 Pd2_2 2.930277 1_555
Hg7_6 Pd2_6 2.930277 1_555
Hg7_6 Hg9_6 2.971383 1_555
Hg7_6 Pd0_0 3.038718 1_555
Hg7_6 Pd0_4 3.038718 1_555
Hg7_7 Pd2_7 2.930277 1_555
Hg7_7 Pd2_3 2.930277 1_555
Hg7_7 Hg9_7 2.971383 1_555
Hg7_7 Pd0_1 3.038718 1_555
Hg7_7 Pd0_5 3.038718 1_555
Hg8_0 Pd1_5 2.908121 1_454
Hg8_0 Pd2_4 2.908121 1_455
Hg8_0 Pd2_0 2.908121 1_555
Hg8_0 Pd1_1 2.908121 1_554
Hg8_0 Hg8_4 2.978611 1_455
Hg8_0 Hg8_4 2.978611 1_555
Hg8_1 Pd2_5 2.908121 1_455
Hg8_1 Pd2_1 2.908121 1_555
Hg8_1 Pd1_4 2.908121 1_455
Hg8_1 Pd1_0 2.908121 1_555
Hg8_1 Hg8_5 2.978611 1_555
Hg8_1 Hg8_5 2.978611 1_455
Hg8_2 Pd2_6 2.908121 1_455
Hg8_2 Pd2_2 2.908121 1_555
Hg8_2 Pd1_7 2.908121 1_454
Hg8_2 Pd1_3 2.908121 1_554
Hg8_2 Hg8_6 2.978611 1_455
Hg8_2 Hg8_6 2.978611 1_555
Hg8_3 Pd2_3 2.908121 1_555
Hg8_3 Pd2_7 2.908121 1_455
Hg8_3 Pd1_6 2.908121 1_455
Hg8_3 Pd1_2 2.908121 1_555
Hg8_3 Hg8_7 2.978611 1_455
Hg8_3 Hg8_7 2.978611 1_555
Hg8_4 Pd2_4 2.908121 1_555
Hg8_4 Pd1_5 2.908121 1_554
Hg8_4 Pd2_0 2.908121 1_555
Hg8_4 Pd1_1 2.908121 1_554
Hg8_5 Pd2_5 2.908121 1_555
Hg8_5 Pd2_1 2.908121 1_555
Hg8_5 Pd1_0 2.908121 1_555
Hg8_5 Pd1_4 2.908121 1_555
Hg8_6 Pd2_2 2.908121 1_555
Hg8_6 Pd2_6 2.908121 1_555
Hg8_6 Pd1_7 2.908121 1_554
Hg8_6 Pd1_3 2.908121 1_554
Hg8_7 Pd2_7 2.908121 1_555
Hg8_7 Pd2_3 2.908121 1_555
Hg8_7 Pd1_2 2.908121 1_555
Hg8_7 Pd1_6 2.908121 1_555
Hg9_0 Pd0_2 2.908121 1_545
Hg9_0 Pd0_6 2.908121 1_445
Hg9_0 Pd3_0 2.908121 1_555
Hg9_0 Pd3_4 2.908121 1_455
Hg9_0 Hg9_4 2.978611 1_455
Hg9_0 Hg9_4 2.978611 1_555
Hg9_1 Pd0_7 2.908121 1_445
Hg9_1 Pd0_3 2.908121 1_545
Hg9_1 Pd3_5 2.908121 1_455
Hg9_1 Pd3_1 2.908121 1_555
Hg9_1 Hg9_5 2.978611 1_455
Hg9_1 Hg9_5 2.978611 1_555
Hg9_2 Pd0_4 2.908121 1_455
Hg9_2 Pd0_0 2.908121 1_555
Hg9_2 Pd3_6 2.908121 1_455
Hg9_2 Pd3_2 2.908121 1_555
Hg9_2 Hg9_6 2.978611 1_455
Hg9_2 Hg9_6 2.978611 1_555
Hg9_3 Pd0_5 2.908121 1_455
Hg9_3 Pd0_1 2.908121 1_555
Hg9_3 Pd3_3 2.908121 1_555
Hg9_3 Pd3_7 2.908121 1_455
Hg9_3 Hg9_7 2.978611 1_555
Hg9_3 Hg9_7 2.978611 1_455
Hg9_4 Pd0_6 2.908121 1_545
Hg9_4 Pd0_2 2.908121 1_545
Hg9_4 Pd3_0 2.908121 1_555
Hg9_4 Pd3_4 2.908121 1_555
Hg9_5 Pd0_7 2.908121 1_545
Hg9_5 Pd0_3 2.908121 1_545
Hg9_5 Pd3_1 2.908121 1_555
Hg9_5 Pd3_5 2.908121 1_555
Hg9_6 Pd0_4 2.908121 1_555
Hg9_6 Pd0_0 2.908121 1_555
Hg9_6 Pd3_2 2.908121 1_555
Hg9_6 Pd3_6 2.908121 1_555
Hg9_7 Pd0_5 2.908121 1_555
Hg9_7 Pd0_1 2.908121 1_555
Hg9_7 Pd3_3 2.908121 1_555
Hg9_7 Pd3_7 2.908121 1_555
Pd0_0 Pd0_4 2.978611 1_555
Pd0_0 Pd0_4 2.978611 1_455
Pd0_1 Pd0_5 2.978611 1_555
Pd0_1 Pd0_5 2.978611 1_455
Pd0_2 Pd0_6 2.978611 1_455
Pd0_2 Pd0_6 2.978611 1_555
Pd0_3 Pd0_7 2.978611 1_555
Pd0_3 Pd0_7 2.978611 1_455
Pd1_0 Pd1_4 2.978611 1_455
Pd1_0 Pd1_4 2.978611 1_555
Pd1_1 Pd1_5 2.978611 1_455
Pd1_1 Pd1_5 2.978611 1_555
Pd1_2 Pd1_6 2.978611 1_555
Pd1_2 Pd1_6 2.978611 1_455
Pd1_3 Pd1_7 2.978611 1_455
Pd1_3 Pd1_7 2.978611 1_555
Pd2_0 Pd2_4 2.978611 1_555
Pd2_0 Pd2_4 2.978611 1_455
Pd2_1 Pd2_5 2.978611 1_455
Pd2_1 Pd2_5 2.978611 1_555
Pd2_2 Pd2_6 2.978611 1_455
Pd2_2 Pd2_6 2.978611 1_555
Pd2_3 Pd2_7 2.978611 1_555
Pd2_3 Pd2_7 2.978611 1_455
Pd3_0 Pd3_4 2.978611 1_455
Pd3_0 Pd3_4 2.978611 1_555
Pd3_1 Pd3_5 2.978611 1_555
Pd3_1 Pd3_5 2.978611 1_455
Pd3_2 Pd3_6 2.978611 1_555
Pd3_2 Pd3_6 2.978611 1_455
Pd3_3 Pd3_7 2.978611 1_455
Pd3_3 Pd3_7 2.978611 1_555
