# generated using pymatgen
data_Cd2Te2O7
_symmetry_space_group_name_H-M   'P 1'
_cell_length_a   7.43607704
_cell_length_b   8.35684742
_cell_length_c   10.01980846
_cell_angle_alpha   87.01042318
_cell_angle_beta   78.91009836
_cell_angle_gamma   77.22066207
_symmetry_Int_Tables_number   1
_chemical_formula_structural   Cd2Te2O7
_chemical_formula_sum   'Cd8 Te8 O28'
_cell_volume   595.85987429
_cell_formula_units_Z   4
loop_
 _symmetry_equiv_pos_site_id
 _symmetry_equiv_pos_as_xyz
  1  'x, y, z'
loop_
 _atom_site_type_symbol
 _atom_site_label
 _atom_site_symmetry_multiplicity
 _atom_site_fract_x
 _atom_site_fract_y
 _atom_site_fract_z
 _atom_site_occupancy
  Cd  Cd0  1  0.18998638  0.34741450  0.89169729  1
  Cd  Cd1  1  0.81001362  0.65258550  0.10830271  1
  Cd  Cd2  1  0.25623419  0.49071142  0.49241737  1
  Cd  Cd3  1  0.74376581  0.50928858  0.50758263  1
  Cd  Cd4  1  0.30854258  0.62485997  0.11344618  1
  Cd  Cd5  1  0.69145742  0.37514003  0.88655382  1
  Cd  Cd6  1  0.50000000  -0.00000000  -0.00000000  1
  Cd  Cd7  1  0.00000000  -0.00000000  -0.00000000  1
  Te  Te0  1  0.04260484  0.16583045  0.64559137  1
  Te  Te1  1  0.95739516  0.83416955  0.35440863  1
  Te  Te2  1  0.12054584  0.26799220  0.23433576  1
  Te  Te3  1  0.87945416  0.73200780  0.76566424  1
  Te  Te4  1  0.55955463  0.10308766  0.65031390  1
  Te  Te5  1  0.44044537  0.89691234  0.34968610  1
  Te  Te6  1  0.62406369  0.27513732  0.22754770  1
  Te  Te7  1  0.37593631  0.72486268  0.77245230  1
  O  O0  1  0.11422139  0.80402746  0.75531802  1
  O  O1  1  0.88577861  0.19597254  0.24468198  1
  O  O2  1  0.31760307  0.84590827  0.93464764  1
  O  O3  1  0.68239693  0.15409173  0.06535236  1
  O  O4  1  0.36776440  0.53330289  0.88702482  1
  O  O5  1  0.63223560  0.46669711  0.11297518  1
  O  O6  1  0.41111192  0.93785972  0.66764320  1
  O  O7  1  0.58888808  0.06214028  0.33235680  1
  O  O8  1  0.42985645  0.61424567  0.60747049  1
  O  O9  1  0.57014355  0.38575433  0.39252951  1
  O  O10  1  0.49624372  0.18385913  0.82628748  1
  O  O11  1  0.50375628  0.81614087  0.17371252  1
  O  O12  1  0.64073150  0.67003984  0.77634733  1
  O  O13  1  0.35926850  0.32996016  0.22365267  1
  O  O14  1  0.76786213  0.71209054  0.35588882  1
  O  O15  1  0.23213787  0.28790946  0.64411118  1
  O  O16  1  0.00343992  0.82105837  0.16296244  1
  O  O17  1  0.99656008  0.17894163  0.83703756  1
  O  O18  1  0.04383034  0.35317084  0.41102715  1
  O  O19  1  0.95616966  0.64682916  0.58897285  1
  O  O20  1  0.06289973  0.46335655  0.13406506  1
  O  O21  1  0.93710027  0.53664345  0.86593494  1
  O  O22  1  0.19927819  0.69311462  0.34275522  1
  O  O23  1  0.80072181  0.30688538  0.65724478  1
  O  O24  1  0.20562125  0.15342253  0.06746578  1
  O  O25  1  0.79437875  0.84657747  0.93253422  1
  O  O26  1  0.21199536  0.05014723  0.32514167  1
  O  O27  1  0.78800464  0.94985277  0.67485833  1
loop_
_geom_bond_atom_site_label_1
_geom_bond_atom_site_label_2
_geom_bond_distance
_geom_bond_site_symmetry_2
Cd0 O21 2.220842 1_455
Cd0 O4 2.245013 1_555
Cd0 O24 2.332587 1_556
Cd0 O10 2.371973 1_555
Cd0 O17 2.372821 1_455
Cd0 O15 2.502062 1_555
Cd0 O20 2.585896 1_556
Cd1 O20 2.220842 1_655
Cd1 O5 2.245013 1_555
Cd1 O25 2.332587 1_554
Cd1 O11 2.371973 1_555
Cd1 O16 2.372821 1_655
Cd1 O14 2.502062 1_555
Cd1 O21 2.585896 1_554
Cd2 O22 2.225304 1_555
Cd2 O15 2.230584 1_555
Cd2 O8 2.312561 1_555
Cd2 O9 2.346666 1_555
Cd2 O19 2.372802 1_455
Cd2 O18 2.424312 1_555
Cd3 O23 2.225304 1_555
Cd3 O14 2.230584 1_555
Cd3 O9 2.312561 1_555
Cd3 O8 2.346666 1_555
Cd3 O18 2.372802 1_655
Cd3 O19 2.424312 1_555
Cd4 O22 2.340541 1_555
Cd4 O4 2.360933 1_554
Cd4 O16 2.467372 1_555
Cd4 O20 2.473293 1_555
Cd4 O5 2.475790 1_555
Cd4 O2 2.507973 1_554
Cd4 O11 2.547846 1_555
Cd4 O13 2.626824 1_555
Cd5 O23 2.340541 1_555
Cd5 O5 2.360933 1_556
Cd5 O17 2.467372 1_555
Cd5 O21 2.473293 1_555
Cd5 O4 2.475790 1_555
Cd5 O3 2.507973 1_556
Cd5 O10 2.547846 1_555
Cd5 O12 2.626824 1_555
Cd6 O10 2.260949 1_554
Cd6 O11 2.260949 1_545
Cd6 O3 2.264707 1_555
Cd6 O2 2.264707 1_544
Cd6 O25 2.274238 1_544
Cd6 O24 2.274238 1_555
Cd7 O16 2.155805 1_545
Cd7 O17 2.155805 1_454
Cd7 O25 2.407075 1_444
Cd7 O24 2.407075 1_555
Cd7 O3 2.410878 1_455
Cd7 O2 2.410878 1_544
O0 Te7 1.949791 1_555
O0 Te3 1.951743 1_455
O1 Te6 1.949791 1_555
O1 Te2 1.951743 1_655
O2 Te7 1.886464 1_555
O3 Te6 1.886464 1_555
O4 Te7 1.925816 1_555
O5 Te6 1.925816 1_555
O6 Te4 1.931500 1_565
O6 Te7 2.060323 1_555
O7 Te5 1.931500 1_545
O7 Te6 2.060323 1_555
O8 Te7 1.867735 1_555
O9 Te6 1.867735 1_555
O10 Te4 1.857534 1_555
O11 Te5 1.857534 1_555
O12 Te7 1.927989 1_555
O12 Te3 1.938718 1_555
O13 Te6 1.927989 1_555
O13 Te2 1.938718 1_555
O14 Te1 1.911505 1_555
O14 Te5 2.588778 1_555
O15 Te0 1.911505 1_555
O15 Te4 2.588778 1_555
O16 Te1 1.887219 1_455
O17 Te0 1.887219 1_655
O18 Te2 1.878768 1_555
O19 Te3 1.878768 1_555
O20 Te2 1.882449 1_555
O21 Te3 1.882449 1_555
O22 Te1 1.906284 1_455
O23 Te0 1.906284 1_655
O24 Te2 1.898583 1_555
O25 Te3 1.898583 1_555
O26 Te5 1.936915 1_545
O26 Te2 2.030285 1_555
O27 Te4 1.936915 1_565
O27 Te3 2.030285 1_555
