# generated using pymatgen
data_Lu6InCoRu
_symmetry_space_group_name_H-M   'P 1'
_cell_length_a   8.18884171
_cell_length_b   8.18884201
_cell_length_c   8.18884224
_cell_angle_alpha   112.70514311
_cell_angle_beta   110.36069018
_cell_angle_gamma   105.43127201
_symmetry_Int_Tables_number   1
_chemical_formula_structural   Lu6InCoRu
_chemical_formula_sum   'Lu12 In2 Co2 Ru2'
_cell_volume   420.96089935
_cell_formula_units_Z   2
loop_
 _symmetry_equiv_pos_site_id
 _symmetry_equiv_pos_as_xyz
  1  'x, y, z'
loop_
 _atom_site_type_symbol
 _atom_site_label
 _atom_site_symmetry_multiplicity
 _atom_site_fract_x
 _atom_site_fract_y
 _atom_site_fract_z
 _atom_site_occupancy
  Lu  Lu0  1  0.44593064  0.24322529  0.20270635  1
  Lu  Lu1  1  0.55406936  0.75677471  0.79729365  1
  Lu  Lu2  1  0.04051894  0.24322529  0.79729365  1
  Lu  Lu3  1  0.95948106  0.75677471  0.20270635  1
  Lu  Lu4  1  0.18413894  0.28643954  0.47057749  1
  Lu  Lu5  1  0.81586106  0.71356046  0.52942251  1
  Lu  Lu6  1  0.18413894  0.71356046  0.89769940  1
  Lu  Lu7  1  0.81586106  0.28643954  0.10230060  1
  Lu  Lu8  1  0.32357207  0.63952897  0.31595690  1
  Lu  Lu9  1  0.67642793  0.36047103  0.68404310  1
  Lu  Lu10  1  0.32357207  0.00761517  0.68404310  1
  Lu  Lu11  1  0.67642793  0.99238483  0.31595690  1
  In  In0  1  0.50000000  0.50000000  0.00000000  1
  In  In1  1  0.00000000  0.00000000  0.00000000  1
  Co  Co0  1  0.11281642  0.61281642  0.50000000  1
  Co  Co1  1  0.88718358  0.38718358  0.50000000  1
  Ru  Ru0  1  0.33031721  0.00000000  0.33031721  1
  Ru  Ru1  1  0.66968279  1.00000000  0.66968279  1
loop_
_geom_bond_atom_site_label_1
_geom_bond_atom_site_label_2
_geom_bond_distance
_geom_bond_site_symmetry_2
Lu0 Ru0 2.692027 1_555
Lu0 Lu9 3.310252 1_555
Lu0 Lu11 3.310257 1_545
Lu0 Lu5 3.371232 1_555
Lu0 Lu7 3.371237 1_555
Lu0 Lu8 3.528376 1_555
Lu0 Lu10 3.528384 1_554
Lu0 Lu4 3.550970 1_555
Lu0 Lu6 3.550983 1_544
Lu0 Lu2 3.791244 1_554
Lu1 Ru1 2.692027 1_555
Lu1 Lu8 3.310252 1_555
Lu1 Lu10 3.310257 1_565
Lu1 Lu4 3.371232 1_555
Lu1 Lu6 3.371237 1_555
Lu1 Lu9 3.528376 1_555
Lu1 Lu11 3.528384 1_556
Lu1 Lu5 3.550970 1_555
Lu1 Lu7 3.550983 1_566
Lu1 Lu3 3.791244 1_556
Lu2 Ru1 2.692029 1_445
Lu2 Lu9 3.310251 1_455
Lu2 Lu6 3.371229 1_555
Lu2 Lu4 3.371237 1_555
Lu2 Lu8 3.528381 1_556
Lu2 Lu7 3.550984 1_456
Lu2 Lu5 3.550984 1_445
Lu3 Ru0 2.692029 1_665
Lu3 Lu8 3.310251 1_655
Lu3 Lu7 3.371229 1_555
Lu3 Lu5 3.371237 1_555
Lu3 Lu9 3.528381 1_554
Lu3 Lu6 3.550984 1_654
Lu3 Lu4 3.550984 1_665
Lu4 Ru0 2.936852 1_555
Lu4 Lu7 3.443975 1_455
Lu4 Lu9 3.556983 1_555
Lu4 Lu8 3.652717 1_555
Lu5 Ru1 2.936852 1_555
Lu5 Lu6 3.443975 1_655
Lu5 Lu8 3.556983 1_555
Lu5 Lu9 3.652717 1_555
Lu6 Ru0 2.936854 1_566
Lu6 Lu8 3.556983 1_556
Lu6 Lu9 3.652723 1_455
Lu7 Ru1 2.936854 1_544
Lu7 Lu9 3.556983 1_554
Lu7 Lu8 3.652723 1_655
Lu8 Ru1 2.893265 1_555
Lu8 Ru0 2.893266 1_565
Lu9 Ru0 2.893265 1_555
Lu9 Ru1 2.893266 1_545
Lu10 Ru1 2.893265 1_545
Lu10 Ru0 2.893266 1_555
Lu10 Lu3 3.310251 1_445
Lu10 Lu8 3.340221 1_545
Lu10 Lu9 3.500729 1_555
Lu10 Lu2 3.528381 1_555
Lu10 Lu7 3.556983 1_556
Lu10 Lu4 3.556988 1_555
Lu10 Lu6 3.652723 1_545
Lu10 Lu5 3.652725 1_445
Lu11 Ru0 2.893265 1_565
Lu11 Ru1 2.893266 1_555
Lu11 Lu2 3.310251 1_665
Lu11 Lu9 3.340221 1_565
Lu11 Lu8 3.500729 1_555
Lu11 Lu3 3.528381 1_555
Lu11 Lu6 3.556983 1_554
Lu11 Lu5 3.556988 1_555
Lu11 Lu7 3.652723 1_565
Lu11 Lu4 3.652725 1_665
In0 Lu3 3.175394 1_555
In0 Lu2 3.175394 1_554
In0 Lu1 3.175395 1_554
In0 Lu0 3.175395 1_555
In0 Lu11 3.359232 1_555
In0 Lu10 3.359232 1_554
In0 Lu8 3.359232 1_555
In0 Lu9 3.359232 1_554
In0 Lu6 3.532796 1_554
In0 Lu7 3.532796 1_555
In0 Lu5 3.532803 1_555
In0 Lu4 3.532803 1_554
In1 Lu0 3.068592 1_555
In1 Lu1 3.068592 1_444
In1 Lu2 3.068599 1_554
In1 Lu3 3.068599 1_445
In1 Ru0 3.088988 1_555
In1 Ru1 3.088988 1_444
In1 Lu4 3.117954 1_555
In1 Lu5 3.117954 1_444
In1 Lu6 3.117961 1_544
In1 Lu7 3.117961 1_455
Co0 Co1 2.238533 1_455
Co0 Lu10 2.676056 1_565
Co0 Lu8 2.676056 1_555
Co0 Lu4 2.823777 1_555
Co0 Lu7 2.823778 1_455
Co0 Lu6 2.823778 1_555
Co0 Lu5 2.823781 1_455
Co0 Lu3 3.125565 1_455
Co0 Lu1 3.125571 1_555
Co1 Lu11 2.676056 1_545
Co1 Lu9 2.676056 1_555
Co1 Lu5 2.823777 1_555
Co1 Lu6 2.823778 1_655
Co1 Lu7 2.823778 1_555
Co1 Lu4 2.823781 1_655
Co1 Lu2 3.125565 1_655
Co1 Lu0 3.125571 1_555
Ru0 Ru1 3.173604 1_545
