# generated using pymatgen
data_Ta9B4P2W
_symmetry_space_group_name_H-M   'P 1'
_cell_length_a   7.19844522
_cell_length_b   7.19844601
_cell_length_c   7.19844631
_cell_angle_alpha   129.49774311
_cell_angle_beta   129.49775095
_cell_angle_gamma   74.21098568
_symmetry_Int_Tables_number   1
_chemical_formula_structural   Ta9B4P2W
_chemical_formula_sum   'Ta9 B4 P2 W1'
_cell_volume   216.53862774
_cell_formula_units_Z   1
loop_
 _symmetry_equiv_pos_site_id
 _symmetry_equiv_pos_as_xyz
  1  'x, y, z'
loop_
 _atom_site_type_symbol
 _atom_site_label
 _atom_site_symmetry_multiplicity
 _atom_site_fract_x
 _atom_site_fract_y
 _atom_site_fract_z
 _atom_site_occupancy
  Ta  Ta0  1  0.52432875  0.69018882  0.49647229  1
  Ta  Ta1  1  0.19371453  0.02785646  0.50352771  1
  Ta  Ta2  1  0.02785646  0.52432875  0.83414094  1
  Ta  Ta3  1  0.69018882  0.19371453  0.16585906  1
  Ta  Ta4  1  0.47567125  0.30981118  0.50352771  1
  Ta  Ta5  1  0.80628547  0.97214354  0.49647229  1
  Ta  Ta6  1  0.97214354  0.47567125  0.16585906  1
  Ta  Ta7  1  0.30981118  0.80628547  0.83414094  1
  Ta  Ta8  1  0.00000000  0.00000000  0.00000000  1
  B  B0  1  0.88106477  0.61753957  0.49860334  1
  B  B1  1  0.11893523  0.38246043  0.50139666  1
  B  B2  1  0.38246043  0.88106477  0.26352420  1
  B  B3  1  0.61753957  0.11893523  0.73647580  1
  P  P0  1  0.24623964  0.24623964  1.00000000  1
  P  P1  1  0.75376036  0.75376036  0.00000000  1
  W  W0  1  0.50000000  0.50000000  0.00000000  1
loop_
_geom_bond_atom_site_label_1
_geom_bond_atom_site_label_2
_geom_bond_distance
_geom_bond_site_symmetry_2
Ta0 W0 2.790600 1_555
Ta1 W0 2.790604 1_556
Ta2 W0 2.790601 1_556
Ta3 W0 2.790608 1_555
Ta4 W0 2.790600 1_556
Ta5 W0 2.790604 1_555
Ta6 W0 2.790601 1_555
Ta7 W0 2.790608 1_556
B0 B1 2.053919 1_655
B0 Ta6 2.394074 1_555
B0 Ta3 2.394085 1_555
B0 Ta7 2.414478 1_655
B0 Ta2 2.414490 1_655
B0 W0 2.449115 1_555
B0 Ta8 2.459846 1_666
B0 Ta5 2.469274 1_555
B0 Ta0 2.469280 1_555
B1 Ta2 2.394074 1_555
B1 Ta7 2.394085 1_555
B1 Ta3 2.414478 1_455
B1 Ta6 2.414490 1_455
B1 W0 2.449115 1_556
B1 Ta8 2.459846 1_555
B1 Ta1 2.469274 1_555
B1 Ta4 2.469280 1_555
B2 B3 2.053928 1_565
B2 Ta0 2.394079 1_555
B2 Ta5 2.394084 1_555
B2 Ta4 2.414475 1_565
B2 Ta1 2.414495 1_565
B2 W0 2.449117 1_555
B2 Ta8 2.459840 1_565
B2 Ta7 2.469270 1_554
B2 Ta2 2.469277 1_554
B3 Ta4 2.394079 1_555
B3 Ta1 2.394084 1_555
B3 Ta0 2.414475 1_545
B3 Ta5 2.414495 1_545
B3 W0 2.449117 1_556
B3 Ta8 2.459840 1_656
B3 Ta3 2.469270 1_556
B3 Ta6 2.469277 1_556
P0 Ta7 2.600199 1_545
P0 Ta5 2.600202 1_445
P0 Ta6 2.600206 1_456
P0 Ta4 2.600210 1_556
P0 Ta1 2.616139 1_555
P0 Ta2 2.616143 1_555
P0 Ta0 2.616147 1_556
P0 Ta3 2.616150 1_556
P0 Ta8 2.827298 1_556
P0 W0 2.913650 1_556
P1 Ta3 2.600199 1_565
P1 Ta1 2.600202 1_665
P1 Ta2 2.600206 1_654
P1 Ta0 2.600210 1_554
P1 Ta5 2.616139 1_555
P1 Ta6 2.616143 1_555
P1 Ta4 2.616147 1_554
P1 Ta7 2.616150 1_554
P1 Ta8 2.827298 1_665
P1 W0 2.913650 1_555
