# generated using pymatgen
data_VFePt6Rh
_symmetry_space_group_name_H-M   'P 1'
_cell_length_a   6.15998288
_cell_length_b   6.15998131
_cell_length_c   6.13017135
_cell_angle_alpha   95.66585669
_cell_angle_beta   95.66586190
_cell_angle_gamma   143.46582786
_symmetry_Int_Tables_number   1
_chemical_formula_structural   VFePt6Rh
_chemical_formula_sum   'V1 Fe1 Pt6 Rh1'
_cell_volume   131.42605106
_cell_formula_units_Z   1
loop_
 _symmetry_equiv_pos_site_id
 _symmetry_equiv_pos_as_xyz
  1  'x, y, z'
loop_
 _atom_site_type_symbol
 _atom_site_label
 _atom_site_symmetry_multiplicity
 _atom_site_fract_x
 _atom_site_fract_y
 _atom_site_fract_z
 _atom_site_occupancy
  V  V0  1  0.00581338  0.00581338  0.01162775  1
  Fe  Fe0  1  0.33032509  0.33032509  0.66065217  1
  Pt  Pt0  1  0.65413531  0.34058715  0.99472246  1
  Pt  Pt1  1  0.34058715  0.65413531  0.99472246  1
  Pt  Pt2  1  0.00367207  0.32939469  0.33306677  1
  Pt  Pt3  1  0.99348874  0.67835305  0.67184180  1
  Pt  Pt4  1  0.67835305  0.99348874  0.67184180  1
  Pt  Pt5  1  0.32939469  0.00367207  0.33306677  1
  Rh  Rh0  1  0.66422851  0.66422851  0.32845703  1
loop_
_geom_bond_atom_site_label_1
_geom_bond_atom_site_label_2
_geom_bond_distance
_geom_bond_site_symmetry_2
Fe0 Pt3 2.670291 1_445
Fe0 Pt4 2.670292 1_445
Fe0 Pt4 2.670296 1_555
Fe0 Pt3 2.670297 1_555
Fe0 Pt1 2.672423 1_555
Fe0 Pt0 2.672423 1_555
Fe0 Pt5 2.694978 1_555
Fe0 Pt2 2.694978 1_555
Fe0 Rh0 2.731968 1_445
Fe0 Rh0 2.731974 1_555
Fe0 V0 2.810333 1_556
Fe0 V0 2.810336 1_666
Pt0 V0 2.664910 1_666
Pt0 V0 2.664914 1_556
Pt0 Rh0 2.671003 1_556
Pt1 V0 2.664911 1_666
Pt1 V0 2.664913 1_556
Pt1 Rh0 2.671003 1_556
Pt2 V0 2.669807 1_555
Pt2 Rh0 2.712767 1_445
Pt2 Rh0 2.712768 1_555
Pt3 V0 2.703031 1_666
Pt3 Rh0 2.718382 1_555
Pt4 V0 2.703031 1_666
Pt4 Rh0 2.718382 1_555
Pt5 V0 2.669807 1_555
Pt5 Rh0 2.712767 1_555
Pt5 Rh0 2.712768 1_445
Rh0 V0 2.669470 1_665
Rh0 V0 2.669473 1_555
