# generated using pymatgen
data_BaNaVSe4
_symmetry_space_group_name_H-M   'P 1'
_cell_length_a   9.90098972
_cell_length_b   6.78614953
_cell_length_c   12.70107849
_cell_angle_alpha   70.44079865
_cell_angle_beta   90.00000000
_cell_angle_gamma   90.00000000
_symmetry_Int_Tables_number   1
_chemical_formula_structural   BaNaVSe4
_chemical_formula_sum   'Ba4 Na4 V4 Se16'
_cell_volume   804.13694983
_cell_formula_units_Z   4
loop_
 _symmetry_equiv_pos_site_id
 _symmetry_equiv_pos_as_xyz
  1  'x, y, z'
loop_
 _atom_site_type_symbol
 _atom_site_label
 _atom_site_symmetry_multiplicity
 _atom_site_fract_x
 _atom_site_fract_y
 _atom_site_fract_z
 _atom_site_occupancy
  Ba  Ba0  1  0.88246721  0.37561913  0.34392132  1
  Ba  Ba1  1  0.61753279  0.37561913  0.84392132  1
  Ba  Ba2  1  0.11753279  0.62438087  0.65607868  1
  Ba  Ba3  1  0.38246721  0.62438087  0.15607868  1
  Na  Na0  1  0.12011535  0.22340253  0.02706680  1
  Na  Na1  1  0.37988465  0.22340253  0.52706680  1
  Na  Na2  1  0.87988465  0.77659747  0.97293320  1
  Na  Na3  1  0.62011535  0.77659747  0.47293320  1
  V  V0  1  0.61829281  0.12490795  0.18294896  1
  V  V1  1  0.88170719  0.12490795  0.68294896  1
  V  V2  1  0.38170719  0.87509205  0.81705104  1
  V  V3  1  0.11829281  0.87509205  0.31705104  1
  Se  Se0  1  0.79616275  0.32358808  0.09034374  1
  Se  Se1  1  0.70383725  0.32358808  0.59034374  1
  Se  Se2  1  0.20383725  0.67641192  0.90965626  1
  Se  Se3  1  0.29616275  0.67641192  0.40965626  1
  Se  Se4  1  0.93242018  0.81664875  0.42613050  1
  Se  Se5  1  0.56757982  0.81664875  0.92613050  1
  Se  Se6  1  0.06757982  0.18335125  0.57386950  1
  Se  Se7  1  0.43242018  0.18335125  0.07386950  1
  Se  Se8  1  0.56454434  0.21407832  0.33680160  1
  Se  Se9  1  0.93545566  0.21407832  0.83680160  1
  Se  Se10  1  0.43545566  0.78592168  0.66319840  1
  Se  Se11  1  0.06454434  0.78592168  0.16319840  1
  Se  Se12  1  0.17057105  0.21748444  0.26748739  1
  Se  Se13  1  0.32942895  0.21748444  0.76748739  1
  Se  Se14  1  0.82942895  0.78251556  0.73251261  1
  Se  Se15  1  0.67057105  0.78251556  0.23251261  1
loop_
_geom_bond_atom_site_label_1
_geom_bond_atom_site_label_2
_geom_bond_distance
_geom_bond_site_symmetry_2
Ba0 Se12 3.305814 1_655
Ba0 Se6 3.322637 1_655
Ba0 Se8 3.344343 1_555
Ba0 Se15 3.378198 1_555
Ba0 Se0 3.462547 1_555
Ba0 Se11 3.462959 1_655
Ba0 Se1 3.508356 1_555
Ba0 Se4 3.519183 1_555
Ba0 Se4 3.615482 1_545
Ba1 Se13 3.305814 1_555
Ba1 Se7 3.322637 1_556
Ba1 Se9 3.344343 1_555
Ba1 Se14 3.378198 1_555
Ba1 Se1 3.462547 1_555
Ba1 Se10 3.462959 1_555
Ba1 Se0 3.508356 1_556
Ba1 Se5 3.519183 1_555
Ba1 Se5 3.615482 1_545
Ba2 Se14 3.305814 1_455
Ba2 Se4 3.322637 1_455
Ba2 Se10 3.344343 1_555
Ba2 Se13 3.378198 1_555
Ba2 Se2 3.462547 1_555
Ba2 Se9 3.462959 1_455
Ba2 Se3 3.508356 1_555
Ba2 Se6 3.519183 1_555
Ba2 Se6 3.615482 1_565
Ba3 Se15 3.305814 1_555
Ba3 Se5 3.322637 1_554
Ba3 Se11 3.344343 1_555
Ba3 Se12 3.378198 1_555
Ba3 Se3 3.462547 1_555
Ba3 Se8 3.462959 1_555
Ba3 Se2 3.508356 1_554
Ba3 Se7 3.519183 1_555
Ba3 Se7 3.615482 1_565
Na0 Se11 2.944338 1_545
Na0 Se9 3.047777 1_454
Na0 Se2 3.048287 1_554
Na0 Se12 3.081159 1_555
Na0 Se7 3.143296 1_555
Na0 Se0 3.429539 1_455
Na1 Se10 2.944338 1_545
Na1 Se8 3.047777 1_555
Na1 Se3 3.048287 1_555
Na1 Se13 3.081159 1_555
Na1 Se6 3.143296 1_555
Na1 Se1 3.429539 1_555
Na2 Se9 2.944338 1_565
Na2 Se11 3.047777 1_656
Na2 Se0 3.048287 1_556
Na2 Se14 3.081159 1_555
Na2 Se5 3.143296 1_555
Na2 Se2 3.429539 1_655
Na3 Se8 2.944338 1_565
Na3 Se10 3.047777 1_555
Na3 Se1 3.048287 1_555
Na3 Se15 3.081159 1_555
Na3 Se4 3.143296 1_555
Na3 Se3 3.429539 1_555
Se0 V0 2.289297 1_555
Se1 V1 2.289297 1_555
Se2 V2 2.289297 1_555
Se3 V3 2.289297 1_555
Se4 V3 2.257341 1_655
Se5 V2 2.257341 1_555
Se6 V1 2.257341 1_455
Se7 V0 2.257341 1_555
Se8 V0 2.293380 1_555
Se9 V1 2.293380 1_555
Se10 V2 2.293380 1_555
Se11 V3 2.293380 1_555
Se12 V3 2.254687 1_545
Se13 V2 2.254687 1_545
Se14 V1 2.254687 1_565
Se15 V0 2.254687 1_565
