# generated using pymatgen
data_Cs2NbFeSe4
_symmetry_space_group_name_H-M   'P 1'
_cell_length_a   14.94214750
_cell_length_b   13.32281404
_cell_length_c   7.92556051
_cell_angle_alpha   85.37070597
_cell_angle_beta   62.71257179
_cell_angle_gamma   31.91672101
_symmetry_Int_Tables_number   1
_chemical_formula_structural   Cs2NbFeSe4
_chemical_formula_sum   'Cs4 Nb2 Fe2 Se8'
_cell_volume   559.22166046
_cell_formula_units_Z   2
loop_
 _symmetry_equiv_pos_site_id
 _symmetry_equiv_pos_as_xyz
  1  'x, y, z'
loop_
 _atom_site_type_symbol
 _atom_site_label
 _atom_site_symmetry_multiplicity
 _atom_site_fract_x
 _atom_site_fract_y
 _atom_site_fract_z
 _atom_site_occupancy
  Cs  Cs0  1  0.57300591  0.57300591  0.92699409  1
  Cs  Cs1  1  0.92699409  0.92699409  0.57300591  1
  Cs  Cs2  1  0.67699409  0.67699409  0.32300591  1
  Cs  Cs3  1  0.32300591  0.32300591  0.67699409  1
  Nb  Nb0  1  0.50000000  0.50000000  0.50000000  1
  Nb  Nb1  1  0.75000000  0.75000000  0.75000000  1
  Fe  Fe0  1  0.25000000  0.25000000  0.25000000  1
  Fe  Fe1  1  0.00000000  0.00000000  0.00000000  1
  Se  Se0  1  0.20770281  0.89824047  0.60345708  1
  Se  Se1  1  0.29059964  0.60345708  0.89824047  1
  Se  Se2  1  0.60345708  0.29059964  0.20770281  1
  Se  Se3  1  0.89824047  0.20770281  0.29059964  1
  Se  Se4  1  0.64654292  0.95940036  0.04229719  1
  Se  Se5  1  0.35175953  0.04229719  0.95940036  1
  Se  Se6  1  0.95940036  0.64654292  0.35175953  1
  Se  Se7  1  0.04229719  0.35175953  0.64654292  1
loop_
_geom_bond_atom_site_label_1
_geom_bond_atom_site_label_2
_geom_bond_distance
_geom_bond_site_symmetry_2
Cs0 Se0 3.744472 1_645
Cs0 Se3 3.744473 1_466
Cs0 Se3 3.752191 1_555
Cs0 Se0 3.752192 1_556
Cs0 Se5 3.804935 1_565
Cs0 Se7 3.804936 1_655
Cs0 Se2 3.997928 1_556
Cs0 Se1 3.997928 1_555
Cs1 Se2 3.744472 1_566
Cs1 Se1 3.744473 1_654
Cs1 Se1 3.752191 1_565
Cs1 Se2 3.752192 1_655
Cs1 Se6 3.804935 1_555
Cs1 Se4 3.804935 1_556
Cs1 Se3 3.997928 1_565
Cs1 Se0 3.997928 1_655
Cs2 Se7 3.744472 1_565
Cs2 Se5 3.744473 1_654
Cs2 Se5 3.752191 1_565
Cs2 Se7 3.752192 1_654
Cs2 Se3 3.804935 1_555
Cs2 Se0 3.804936 1_555
Cs2 Se4 3.997928 1_555
Cs2 Se6 3.997928 1_555
Cs3 Se4 3.744472 1_545
Cs3 Se6 3.744473 1_456
Cs3 Se6 3.752191 1_545
Cs3 Se4 3.752192 1_456
Cs3 Se1 3.804935 1_555
Cs3 Se2 3.804935 1_555
Cs3 Se5 3.997928 1_555
Cs3 Se7 3.997928 1_555
Nb0 Se0 2.444930 1_555
Nb0 Se2 2.444930 1_555
Nb0 Se1 2.444931 1_555
Nb0 Se3 2.444931 1_555
Nb1 Se7 2.444930 1_655
Nb1 Se4 2.444930 1_556
Nb1 Se6 2.444931 1_555
Nb1 Se5 2.444931 1_565
Fe0 Se6 2.439006 1_455
Fe0 Se5 2.439006 1_554
Fe0 Se7 2.439007 1_555
Fe0 Se4 2.439007 1_545
Fe1 Se1 2.439006 1_544
Fe1 Se3 2.439006 1_455
Fe1 Se0 2.439007 1_544
Fe1 Se2 2.439007 1_455
