# generated using pymatgen
data_RbSb(PS3)2
_symmetry_space_group_name_H-M   'P 1'
_cell_length_a   7.95273089
_cell_length_b   6.75797931
_cell_length_c   9.96027293
_cell_angle_alpha   87.79660326
_cell_angle_beta   90.00000000
_cell_angle_gamma   90.00000000
_symmetry_Int_Tables_number   1
_chemical_formula_structural   RbSb(PS3)2
_chemical_formula_sum   'Rb2 Sb2 P4 S12'
_cell_volume   534.91301483
_cell_formula_units_Z   2
loop_
 _symmetry_equiv_pos_site_id
 _symmetry_equiv_pos_as_xyz
  1  'x, y, z'
loop_
 _atom_site_type_symbol
 _atom_site_label
 _atom_site_symmetry_multiplicity
 _atom_site_fract_x
 _atom_site_fract_y
 _atom_site_fract_z
 _atom_site_occupancy
  Rb  Rb0  1  0.44783983  0.69943261  0.48833679  1
  Rb  Rb1  1  0.94783983  0.30056739  0.51166321  1
  Sb  Sb0  1  0.74041551  0.81934950  0.01763874  1
  Sb  Sb1  1  0.24041551  0.18065050  0.98236126  1
  P  P0  1  0.93451479  0.78960368  0.29637114  1
  P  P1  1  0.64647295  0.30665391  0.83474123  1
  P  P2  1  0.14647295  0.69334609  0.16525877  1
  P  P3  1  0.43451479  0.21039632  0.70362886  1
  S  S0  1  0.36200962  0.95323069  0.80557819  1
  S  S1  1  0.03430145  0.68281268  0.97735568  1
  S  S2  1  0.25553225  0.41260774  0.74035269  1
  S  S3  1  0.53430145  0.31718732  0.02264432  1
  S  S4  1  0.83262380  0.09758330  0.83260154  1
  S  S5  1  0.33262380  0.90241670  0.16739846  1
  S  S6  1  0.75553225  0.58739226  0.25964731  1
  S  S7  1  0.86200962  0.04676931  0.19442181  1
  S  S8  1  0.51285263  0.18763084  0.51836923  1
  S  S9  1  0.72658818  0.56792904  0.76207079  1
  S  S10  1  0.01285263  0.81236916  0.48163077  1
  S  S11  1  0.22658818  0.43207096  0.23792921  1
loop_
_geom_bond_atom_site_label_1
_geom_bond_atom_site_label_2
_geom_bond_distance
_geom_bond_site_symmetry_2
Rb0 S8 3.364168 1_565
Rb0 S6 3.447045 1_555
Rb0 S2 3.467406 1_555
Rb0 S8 3.498595 1_555
Rb0 S10 3.542606 1_555
Rb0 S5 3.550012 1_555
Rb0 S11 3.595531 1_555
Rb0 S9 3.598796 1_555
Rb0 S0 3.716025 1_555
Rb1 S10 3.364168 1_645
Rb1 S2 3.447045 1_655
Rb1 S6 3.467406 1_555
Rb1 S10 3.498595 1_655
Rb1 S8 3.542606 1_555
Rb1 S4 3.550012 1_555
Rb1 S9 3.595531 1_555
Rb1 S11 3.598796 1_655
Rb1 S7 3.716025 1_555
P0 S10 1.959215 1_655
P0 S6 2.016366 1_555
P0 S7 2.061134 1_565
P0 P2 2.243947 1_655
P1 S9 1.987271 1_555
P1 S4 2.047107 1_555
P1 S3 2.076983 1_556
P1 P3 2.243947 1_555
P2 S11 1.987271 1_555
P2 S5 2.047107 1_555
P2 S1 2.076983 1_554
P3 S8 1.959215 1_555
P3 S2 2.016366 1_555
P3 S0 2.061134 1_545
S0 Sb1 2.570153 1_565
S1 Sb0 2.550164 1_456
S2 Sb1 2.826929 1_555
S3 Sb1 2.550164 1_554
S4 Sb0 2.683937 1_546
S5 Sb1 2.683937 1_564
S6 Sb0 2.826929 1_555
S7 Sb0 2.570153 1_545
S9 Sb0 3.116295 1_556
S11 Sb1 3.116295 1_554
