# generated using pymatgen
data_Lu12Mg2Fe2Tc
_symmetry_space_group_name_H-M   'P 1'
_cell_length_a   8.21647024
_cell_length_b   8.21647083
_cell_length_c   8.21646985
_cell_angle_alpha   108.01547742
_cell_angle_beta   108.01547416
_cell_angle_gamma   112.42365741
_symmetry_Int_Tables_number   1
_chemical_formula_structural   Lu12Mg2Fe2Tc
_chemical_formula_sum   'Lu12 Mg2 Fe2 Tc1'
_cell_volume   426.15091783
_cell_formula_units_Z   1
loop_
 _symmetry_equiv_pos_site_id
 _symmetry_equiv_pos_as_xyz
  1  'x, y, z'
loop_
 _atom_site_type_symbol
 _atom_site_label
 _atom_site_symmetry_multiplicity
 _atom_site_fract_x
 _atom_site_fract_y
 _atom_site_fract_z
 _atom_site_occupancy
  Lu  Lu0  1  0.30981143  0.30981143  0.61962285  1
  Lu  Lu1  1  0.69018857  0.69018857  0.38037715  1
  Lu  Lu2  1  0.69018857  0.30981143  0.00000000  1
  Lu  Lu3  1  0.30981143  0.69018857  0.00000000  1
  Lu  Lu4  1  0.19319907  0.43001384  0.23681376  1
  Lu  Lu5  1  0.80680093  0.56998616  0.76318624  1
  Lu  Lu6  1  0.19319907  0.95638431  0.76318624  1
  Lu  Lu7  1  0.95638431  0.19319907  0.76318624  1
  Lu  Lu8  1  0.80680093  0.04361569  0.23681376  1
  Lu  Lu9  1  0.04361569  0.80680093  0.23681376  1
  Lu  Lu10  1  0.43001384  0.19319907  0.23681376  1
  Lu  Lu11  1  0.56998616  0.80680093  0.76318624  1
  Mg  Mg0  1  0.00000000  0.50000000  0.50000000  1
  Mg  Mg1  1  0.50000000  0.00000000  0.50000000  1
  Fe  Fe0  1  0.37680357  0.37680357  1.00000000  1
  Fe  Fe1  1  0.62319643  0.62319643  0.00000000  1
  Tc  Tc0  1  0.00000000  0.00000000  0.00000000  1
loop_
_geom_bond_atom_site_label_1
_geom_bond_atom_site_label_2
_geom_bond_distance
_geom_bond_site_symmetry_2
Lu0 Mg1 3.510708 1_555
Lu0 Mg0 3.510708 1_555
Lu1 Mg1 3.510708 1_565
Lu1 Mg0 3.510708 1_655
Lu2 Mg1 3.510708 1_554
Lu2 Mg0 3.510708 1_655
Lu3 Mg1 3.510708 1_565
Lu3 Mg0 3.510708 1_554
Lu4 Tc0 2.889222 1_555
Lu4 Mg0 3.094727 1_555
Lu4 Mg1 3.784327 1_565
Lu5 Tc0 2.889222 1_666
Lu5 Mg0 3.094727 1_655
Lu5 Mg1 3.784327 1_555
Lu6 Tc0 2.889216 1_566
Lu6 Mg0 3.094722 1_555
Lu6 Mg1 3.784333 1_565
Lu7 Tc0 2.889216 1_656
Lu7 Mg1 3.094722 1_555
Lu7 Mg0 3.784333 1_655
Lu8 Tc0 2.889216 1_655
Lu8 Mg0 3.094722 1_655
Lu8 Mg1 3.784333 1_555
Lu9 Tc0 2.889216 1_565
Lu9 Mg1 3.094722 1_565
Lu9 Mg0 3.784333 1_555
Lu10 Tc0 2.889222 1_555
Lu10 Mg1 3.094727 1_555
Lu10 Mg0 3.784327 1_655
Lu11 Tc0 2.889222 1_666
Lu11 Mg1 3.094727 1_565
Lu11 Mg0 3.784327 1_555
Fe0 Fe1 2.251724 1_556
Fe0 Lu0 2.830986 1_555
Fe0 Lu2 2.830986 1_556
Fe0 Lu3 2.830986 1_556
Fe0 Lu1 2.830986 1_556
Fe0 Lu4 2.836482 1_556
Fe0 Lu10 2.836483 1_556
Fe0 Lu7 2.836488 1_455
Fe0 Lu6 2.836488 1_545
Fe1 Lu1 2.830986 1_555
Fe1 Lu3 2.830986 1_555
Fe1 Lu2 2.830986 1_555
Fe1 Lu0 2.830986 1_554
Fe1 Lu5 2.836482 1_554
Fe1 Lu11 2.836483 1_554
Fe1 Lu9 2.836488 1_655
Fe1 Lu8 2.836488 1_565
