# generated using pymatgen
data_SrCa9(TaN5)2
_symmetry_space_group_name_H-M   'P 1'
_cell_length_a   6.95672235
_cell_length_b   6.96902362
_cell_length_c   8.83133258
_cell_angle_alpha   81.88606945
_cell_angle_beta   81.64319428
_cell_angle_gamma   60.36673289
_symmetry_Int_Tables_number   1
_chemical_formula_structural   SrCa9(TaN5)2
_chemical_formula_sum   'Sr1 Ca9 Ta2 N10'
_cell_volume   367.00903817
_cell_formula_units_Z   1
loop_
 _symmetry_equiv_pos_site_id
 _symmetry_equiv_pos_as_xyz
  1  'x, y, z'
loop_
 _atom_site_type_symbol
 _atom_site_label
 _atom_site_symmetry_multiplicity
 _atom_site_fract_x
 _atom_site_fract_y
 _atom_site_fract_z
 _atom_site_occupancy
  Sr  Sr0  1  0.87725970  0.36292090  0.85144143  1
  Ca  Ca0  1  0.87720388  0.87880374  0.82149999  1
  Ca  Ca1  1  0.73433000  0.73561309  0.53560581  1
  Ca  Ca2  1  0.74590013  0.25970007  0.50503558  1
  Ca  Ca3  1  0.61939891  0.12447998  0.14510888  1
  Ca  Ca4  1  0.35937058  0.88334923  0.84063393  1
  Ca  Ca5  1  0.25845645  0.74587370  0.50648307  1
  Ca  Ca6  1  0.23918525  0.23846589  0.49024302  1
  Ca  Ca7  1  0.15054029  0.13359986  0.16982010  1
  Ca  Ca8  1  0.14224249  0.61148882  0.14564917  1
  Ta  Ta0  1  0.63326199  0.63386888  0.22263380  1
  Ta  Ta1  1  0.36947364  0.37194190  0.76794681  1
  N  N0  1  0.91661063  0.46828402  0.32195025  1
  N  N1  1  0.99831648  0.98603375  0.03548753  1
  N  N2  1  0.67335108  0.71395856  0.00679246  1
  N  N3  1  0.53112343  0.54133228  0.69432954  1
  N  N4  1  0.47072107  0.91009510  0.32987182  1
  N  N5  1  0.53763694  0.09113656  0.66993887  1
  N  N6  1  0.47170567  0.46395018  0.29042747  1
  N  N7  1  0.31001049  0.31028188  0.98563821  1
  N  N8  1  0.05546774  0.05638747  0.64015524  1
  N  N9  1  0.09072014  0.54072013  0.66911003  1
loop_
_geom_bond_atom_site_label_1
_geom_bond_atom_site_label_2
_geom_bond_distance
_geom_bond_site_symmetry_2
Ca0 N8 2.452616 1_665
Ca0 N1 2.514708 1_556
Ca0 N2 2.532691 1_556
Ca0 N9 2.534162 1_655
Ca0 N5 2.542591 1_565
Ca1 N4 2.506484 1_555
Ca1 N5 2.534516 1_565
Ca1 N9 2.539570 1_655
Ca1 N3 2.564660 1_555
Ca1 N0 2.568992 1_555
Ca2 N8 2.306864 1_655
Ca2 N3 2.485854 1_555
Ca2 N5 2.487323 1_555
Ca2 N0 2.573564 1_555
Ca2 N6 2.619358 1_555
Ca3 N1 2.413205 1_545
Ca3 N7 2.429591 1_554
Ca3 N4 2.512741 1_545
Ca3 N6 2.523807 1_555
Ca4 N2 2.492126 1_556
Ca4 N3 2.526371 1_555
Ca4 N5 2.554136 1_565
Ca4 N8 2.650044 1_565
Ca4 N1 2.663828 1_456
Ca5 N8 2.298952 1_565
Ca5 N3 2.440366 1_555
Ca5 N9 2.459974 1_555
Ca5 N4 2.533950 1_555
Ca5 N6 2.656084 1_555
Ca6 N8 2.373617 1_555
Ca6 N5 2.504620 1_555
Ca6 N9 2.512488 1_555
Ca6 N4 2.538488 1_545
Ca6 N0 2.559928 1_455
Ca6 N6 3.016785 1_555
Ca7 N1 2.317959 1_445
Ca7 N7 2.377714 1_554
Ca7 N4 2.499632 1_545
Ca7 N0 2.527657 1_455
Ca8 N7 2.387586 1_554
Ca8 N1 2.396676 1_455
Ca8 N6 2.468895 1_555
Ca8 N0 2.506810 1_455
N0 Ta0 1.988444 1_555
N1 Sr0 2.693538 1_564
N2 Ta0 1.929212 1_555
N2 Sr0 2.613297 1_554
N3 Ta1 1.991094 1_555
N3 Sr0 2.606322 1_555
N4 Ta0 1.982938 1_555
N5 Ta1 1.966529 1_555
N6 Ta0 1.986012 1_555
N7 Ta1 1.939901 1_555
N8 Sr0 2.723239 1_455
N9 Ta1 1.962782 1_555
N9 Sr0 2.625772 1_455
