# generated using pymatgen
data_Li2Si2O5
_symmetry_space_group_name_H-M   'P 1'
_cell_length_a   4.78727927
_cell_length_b   5.65201224
_cell_length_c   14.61157478
_cell_angle_alpha   90.00000000
_cell_angle_beta   90.00000000
_cell_angle_gamma   90.00000000
_symmetry_Int_Tables_number   1
_chemical_formula_structural   Li2Si2O5
_chemical_formula_sum   'Li8 Si8 O20'
_cell_volume   395.35649867
_cell_formula_units_Z   4
loop_
 _symmetry_equiv_pos_site_id
 _symmetry_equiv_pos_as_xyz
  1  'x, y, z'
loop_
 _atom_site_type_symbol
 _atom_site_label
 _atom_site_symmetry_multiplicity
 _atom_site_fract_x
 _atom_site_fract_y
 _atom_site_fract_z
 _atom_site_occupancy
  Li  Li0  1  0.69253611  0.59826425  0.94911757  1
  Li  Li1  1  0.80746389  0.90173575  0.44911757  1
  Li  Li2  1  0.80746389  0.09826425  0.05088243  1
  Li  Li3  1  0.69253611  0.40173575  0.55088243  1
  Li  Li4  1  0.30746389  0.40173575  0.05088243  1
  Li  Li5  1  0.19253611  0.09826425  0.55088243  1
  Li  Li6  1  0.19253611  0.90173575  0.94911757  1
  Li  Li7  1  0.30746389  0.59826425  0.44911757  1
  Si  Si0  1  0.69362147  0.09344240  0.85218002  1
  Si  Si1  1  0.80637853  0.40655760  0.35218002  1
  Si  Si2  1  0.80637853  0.59344240  0.14781998  1
  Si  Si3  1  0.69362147  0.90655760  0.64781998  1
  Si  Si4  1  0.30637853  0.90655760  0.14781998  1
  Si  Si5  1  0.19362147  0.59344240  0.64781998  1
  Si  Si6  1  0.19362147  0.40655760  0.85218002  1
  Si  Si7  1  0.30637853  0.09344240  0.35218002  1
  O  O0  1  0.75755425  0.00000000  0.75000000  1
  O  O1  1  0.74244575  0.50000000  0.25000000  1
  O  O2  1  0.24244575  0.00000000  0.25000000  1
  O  O3  1  0.25755425  0.50000000  0.75000000  1
  O  O4  1  0.79030610  0.92293797  0.93229140  1
  O  O5  1  0.70969390  0.57706203  0.43229140  1
  O  O6  1  0.70969390  0.42293797  0.06770860  1
  O  O7  1  0.79030610  0.07706203  0.56770860  1
  O  O8  1  0.20969390  0.07706203  0.06770860  1
  O  O9  1  0.29030610  0.42293797  0.56770860  1
  O  O10  1  0.29030610  0.57706203  0.93229140  1
  O  O11  1  0.20969390  0.92293797  0.43229140  1
  O  O12  1  0.85689675  0.35070087  0.86175104  1
  O  O13  1  0.64310325  0.14929913  0.36175104  1
  O  O14  1  0.64310325  0.85070087  0.13824896  1
  O  O15  1  0.85689675  0.64929913  0.63824896  1
  O  O16  1  0.14310325  0.64929913  0.13824896  1
  O  O17  1  0.35689675  0.85070087  0.63824896  1
  O  O18  1  0.35689675  0.14929913  0.86175104  1
  O  O19  1  0.14310325  0.35070087  0.36175104  1
loop_
_geom_bond_atom_site_label_1
_geom_bond_atom_site_label_2
_geom_bond_distance
_geom_bond_site_symmetry_2
Li0 O4 1.909702 1_555
Li0 O10 1.944915 1_555
Li0 O6 1.997830 1_556
Li0 O12 2.050994 1_555
Li1 O5 1.909702 1_555
Li1 O11 1.944915 1_655
Li1 O7 1.997830 1_565
Li1 O13 2.050994 1_565
Li2 O6 1.909702 1_555
Li2 O8 1.944915 1_655
Li2 O4 1.997830 1_544
Li2 O14 2.050994 1_545
Li3 O7 1.909702 1_555
Li3 O9 1.944915 1_555
Li3 O5 1.997830 1_555
Li3 O15 2.050994 1_555
Li4 O8 1.909702 1_555
Li4 O6 1.944915 1_555
Li4 O10 1.997830 1_554
Li4 O16 2.050994 1_555
Li5 O9 1.909702 1_555
Li5 O7 1.944915 1_455
Li5 O11 1.997830 1_545
Li5 O17 2.050994 1_545
Li6 O10 1.909702 1_555
Li6 O4 1.944915 1_455
Li6 O8 1.997830 1_566
Li6 O18 2.050994 1_565
Li7 O11 1.909702 1_555
Li7 O5 1.944915 1_555
Li7 O9 1.997830 1_555
Li7 O19 2.050994 1_555
O0 Si0 1.612974 1_555
O0 Si3 1.612974 1_545
O1 Si1 1.612974 1_555
O1 Si2 1.612974 1_555
O2 Si7 1.612974 1_555
O2 Si4 1.612974 1_545
O3 Si5 1.612974 1_555
O3 Si6 1.612974 1_555
O4 Si0 1.585287 1_565
O5 Si1 1.585287 1_555
O6 Si2 1.585287 1_555
O7 Si3 1.585287 1_545
O8 Si4 1.585287 1_545
O9 Si5 1.585287 1_555
O10 Si6 1.585287 1_555
O11 Si7 1.585287 1_565
O12 Si6 1.648561 1_655
O12 Si0 1.656720 1_555
O13 Si7 1.648561 1_555
O13 Si1 1.656720 1_555
O14 Si4 1.648561 1_555
O14 Si2 1.656720 1_555
O15 Si5 1.648561 1_655
O15 Si3 1.656720 1_555
O16 Si2 1.648561 1_455
O16 Si4 1.656720 1_555
O17 Si3 1.648561 1_555
O17 Si5 1.656720 1_555
O18 Si0 1.648561 1_555
O18 Si6 1.656720 1_555
O19 Si1 1.648561 1_455
O19 Si7 1.656720 1_555
