# generated using pymatgen
data_Na4TcN3
_symmetry_space_group_name_H-M   'P 1'
_cell_length_a   6.18252444
_cell_length_b   6.18252468
_cell_length_c   8.79565669
_cell_angle_alpha   68.33825524
_cell_angle_beta   68.33825231
_cell_angle_gamma   58.04177424
_symmetry_Int_Tables_number   1
_chemical_formula_structural   Na4TcN3
_chemical_formula_sum   'Na8 Tc2 N6'
_cell_volume   258.58507334
_cell_formula_units_Z   2
loop_
 _symmetry_equiv_pos_site_id
 _symmetry_equiv_pos_as_xyz
  1  'x, y, z'
loop_
 _atom_site_type_symbol
 _atom_site_label
 _atom_site_symmetry_multiplicity
 _atom_site_fract_x
 _atom_site_fract_y
 _atom_site_fract_z
 _atom_site_occupancy
  Na  Na0  1  0.37458978  0.00335739  0.86386128  1
  Na  Na1  1  0.56358211  0.20485849  0.47247474  1
  Na  Na2  1  0.46589160  0.74151804  0.54412932  1
  Na  Na3  1  0.74151804  0.46589160  0.04412932  1
  Na  Na4  1  0.62948155  0.96155365  0.13798981  1
  Na  Na5  1  0.96155365  0.62948155  0.63798981  1
  Na  Na6  1  0.20485849  0.56358211  0.97247474  1
  Na  Na7  1  0.00335739  0.37458978  0.36386128  1
  Tc  Tc0  1  0.15640662  0.86333758  0.24973521  1
  Tc  Tc1  1  0.86333758  0.15640662  0.74973521  1
  N  N0  1  0.45466704  0.62648125  0.31174179  1
  N  N1  1  0.62648125  0.45466704  0.81174179  1
  N  N2  1  0.86170597  0.83148836  0.35479989  1
  N  N3  1  0.83148836  0.86170597  0.85479989  1
  N  N4  1  0.14778568  0.17169691  0.13316796  1
  N  N5  1  0.17169691  0.14778568  0.63316796  1
loop_
_geom_bond_atom_site_label_1
_geom_bond_atom_site_label_2
_geom_bond_distance
_geom_bond_site_symmetry_2
N0 Tc0 1.771012 1_555
N0 Na1 2.317546 1_555
N0 Na2 2.432853 1_555
N0 Na3 2.539876 1_555
N0 Na4 2.570742 1_555
N1 Tc1 1.771012 1_555
N1 Na6 2.317546 1_555
N1 Na3 2.432853 1_556
N1 Na2 2.539876 1_555
N1 Na5 2.570742 1_555
N2 Tc0 1.793002 1_655
N2 Na1 2.376665 1_565
N2 Na4 2.451851 1_555
N2 Na7 2.453414 1_655
N2 Na5 2.483458 1_555
N2 Na2 2.611445 1_555
N3 Tc1 1.793002 1_565
N3 Na6 2.376665 1_655
N3 Na5 2.451851 1_555
N3 Na0 2.453414 1_565
N3 Na4 2.483458 1_556
N3 Na3 2.611445 1_556
N4 Tc0 1.782784 1_545
N4 Na3 2.407253 1_455
N4 Na7 2.417396 1_555
N4 Na6 2.449710 1_554
N4 Na0 2.546232 1_554
N4 Na4 2.552539 1_545
N5 Tc1 1.782783 1_455
N5 Na2 2.407253 1_545
N5 Na0 2.417396 1_555
N5 Na1 2.449710 1_555
N5 Na7 2.546232 1_555
N5 Na5 2.552539 1_455
