# generated using pymatgen
data_YbIn2
_symmetry_space_group_name_H-M   'P 1'
_cell_length_a   4.98474240
_cell_length_b   4.98474240
_cell_length_c   6.77921527
_cell_angle_alpha   90.00000000
_cell_angle_beta   90.00000000
_cell_angle_gamma   120.00002052
_symmetry_Int_Tables_number   1
_chemical_formula_structural   YbIn2
_chemical_formula_sum   'Yb2 In4'
_cell_volume   145.87988309
_cell_formula_units_Z   2
loop_
 _symmetry_equiv_pos_site_id
 _symmetry_equiv_pos_as_xyz
  1  'x, y, z'
loop_
 _atom_site_type_symbol
 _atom_site_label
 _atom_site_symmetry_multiplicity
 _atom_site_fract_x
 _atom_site_fract_y
 _atom_site_fract_z
 _atom_site_occupancy
  Yb  Yb0  1  0.99999996  0.00000004  0.75000000  1
  Yb  Yb1  1  0.00000004  0.99999996  0.25000000  1
  In  In0  1  0.33333331  0.66666669  0.99443415  1
  In  In1  1  0.33333331  0.66666669  0.50556585  1
  In  In2  1  0.66666669  0.33333331  0.00556585  1
  In  In3  1  0.66666669  0.33333331  0.49443415  1
loop_
_geom_bond_atom_site_label_1
_geom_bond_atom_site_label_2
_geom_bond_distance
_geom_bond_site_symmetry_2
Yb0 Yb1 3.389608 1_646
Yb0 Yb1 3.389608 1_645
In0 In2 2.878931 1_456
In0 In2 2.878931 1_566
In0 In2 2.878932 1_556
In0 In1 3.314143 1_555
In0 Yb0 3.320909 1_565
In0 Yb0 3.320909 1_455
In0 Yb0 3.320910 1_465
In0 Yb1 3.359201 1_546
In0 Yb1 3.359201 1_656
In0 Yb1 3.359201 1_556
In0 In1 3.465072 1_556
In1 In3 2.878931 1_455
In1 In3 2.878931 1_565
In1 In3 2.878932 1_555
In1 Yb0 3.320909 1_565
In1 Yb0 3.320909 1_455
In1 Yb0 3.320910 1_465
In1 Yb1 3.359201 1_545
In1 Yb1 3.359201 1_655
In1 Yb1 3.359201 1_555
In2 In3 3.314143 1_555
In2 Yb1 3.320909 1_545
In2 Yb1 3.320909 1_655
In2 Yb1 3.320910 1_645
In2 Yb0 3.359201 1_454
In2 Yb0 3.359201 1_564
In2 Yb0 3.359201 1_554
In2 In3 3.465072 1_554
In3 Yb1 3.320909 1_545
In3 Yb1 3.320909 1_655
In3 Yb1 3.320910 1_645
In3 Yb0 3.359201 1_455
In3 Yb0 3.359201 1_565
In3 Yb0 3.359201 1_555
