# generated using pymatgen
data_RbMn2(Sb6Os)2
_symmetry_space_group_name_H-M   'P 1'
_cell_length_a   8.20532236
_cell_length_b   8.20532130
_cell_length_c   8.27247804
_cell_angle_alpha   109.29556019
_cell_angle_beta   109.23513817
_cell_angle_gamma   109.55503959
_symmetry_Int_Tables_number   1
_chemical_formula_structural   RbMn2(Sb6Os)2
_chemical_formula_sum   'Rb1 Mn2 Sb12 Os2'
_cell_volume   430.47440160
_cell_formula_units_Z   1
loop_
 _symmetry_equiv_pos_site_id
 _symmetry_equiv_pos_as_xyz
  1  'x, y, z'
loop_
 _atom_site_type_symbol
 _atom_site_label
 _atom_site_symmetry_multiplicity
 _atom_site_fract_x
 _atom_site_fract_y
 _atom_site_fract_z
 _atom_site_occupancy
  Rb  Rb0  1  0.00000000  0.00000000  0.00000000  1
  Mn  Mn0  1  0.00000000  0.50000000  0.00000000  1
  Mn  Mn1  1  0.50000000  0.00000000  0.00000000  1
  Sb  Sb0  1  0.33685305  0.15649098  0.49334403  1
  Sb  Sb1  1  0.35190746  0.84819906  0.20010651  1
  Sb  Sb2  1  0.64809254  0.15180094  0.79989349  1
  Sb  Sb3  1  0.81055860  0.66332507  0.16187185  1
  Sb  Sb4  1  0.16134759  0.49966783  0.35109158  1
  Sb  Sb5  1  0.50145322  0.64868775  0.83812815  1
  Sb  Sb6  1  0.85142275  0.18974399  0.35109158  1
  Sb  Sb7  1  0.66314695  0.84350902  0.50665597  1
  Sb  Sb8  1  0.18944140  0.33667493  0.83812815  1
  Sb  Sb9  1  0.14857725  0.81025601  0.64890842  1
  Sb  Sb10  1  0.49854678  0.35131225  0.16187185  1
  Sb  Sb11  1  0.83865241  0.50033217  0.64890842  1
  Os  Os0  1  0.50000000  0.50000000  0.50000000  1
  Os  Os1  1  0.00000000  0.00000000  0.50000000  1
loop_
_geom_bond_atom_site_label_1
_geom_bond_atom_site_label_2
_geom_bond_distance
_geom_bond_site_symmetry_2
Rb0 Sb0 3.559878 1_555
Rb0 Sb7 3.559878 1_444
Rb0 Sb10 3.575271 1_555
Rb0 Sb5 3.575271 1_444
Rb0 Sb3 3.575274 1_445
Rb0 Sb8 3.575274 1_554
Rb0 Sb4 3.600126 1_555
Rb0 Sb11 3.600126 1_444
Rb0 Sb6 3.600132 1_455
Rb0 Sb9 3.600132 1_544
Rb0 Sb1 3.640103 1_545
Rb0 Sb2 3.640103 1_454
Mn0 Sb1 2.728213 1_555
Mn0 Sb2 2.728213 1_454
Mn0 Sb3 2.754152 1_455
Mn0 Sb8 2.754152 1_554
Mn0 Sb11 2.768099 1_454
Mn0 Sb4 2.768099 1_555
Mn1 Sb1 2.728214 1_545
Mn1 Sb2 2.728214 1_554
Mn1 Sb10 2.754144 1_555
Mn1 Sb5 2.754144 1_544
Mn1 Sb6 2.768095 1_555
Mn1 Sb9 2.768095 1_544
Sb0 Sb1 2.941089 1_545
Sb0 Sb2 2.969428 1_555
Sb1 Sb7 2.969428 1_555
Sb2 Sb7 2.941089 1_545
Sb3 Sb5 2.954273 1_554
Sb4 Sb6 2.933399 1_455
Sb4 Sb9 2.962240 1_555
Sb5 Sb8 2.953161 1_555
Sb10 Sb3 2.953161 1_555
Sb10 Sb8 2.954273 1_554
Sb11 Sb9 2.933399 1_655
Sb11 Sb6 2.962240 1_555
Os0 Sb4 2.641258 1_555
Os0 Sb11 2.641258 1_555
Os0 Sb5 2.650595 1_555
Os0 Sb10 2.650595 1_555
Os0 Sb7 2.657555 1_555
Os0 Sb0 2.657555 1_555
Os1 Sb9 2.641262 1_545
Os1 Sb6 2.641262 1_455
Os1 Sb8 2.650594 1_555
Os1 Sb3 2.650594 1_445
Os1 Sb0 2.657555 1_555
Os1 Sb7 2.657555 1_445
