# generated using pymatgen
data_Be2V3NiC
_symmetry_space_group_name_H-M   'P 1'
_cell_length_a   7.40034082
_cell_length_b   7.40034023
_cell_length_c   7.40034063
_cell_angle_alpha   60.00000701
_cell_angle_beta   60.00000964
_cell_angle_gamma   60.00000889
_symmetry_Int_Tables_number   1
_chemical_formula_structural   Be2V3NiC
_chemical_formula_sum   'Be8 V12 Ni4 C4'
_cell_volume   286.57625595
_cell_formula_units_Z   4
loop_
 _symmetry_equiv_pos_site_id
 _symmetry_equiv_pos_as_xyz
  1  'x, y, z'
loop_
 _atom_site_type_symbol
 _atom_site_label
 _atom_site_symmetry_multiplicity
 _atom_site_fract_x
 _atom_site_fract_y
 _atom_site_fract_z
 _atom_site_occupancy
  Be  Be0  1  0.73638846  0.42120418  0.42120418  1
  Be  Be1  1  0.42120418  0.73638846  0.42120418  1
  Be  Be2  1  0.42120418  0.42120418  0.73638846  1
  Be  Be3  1  0.42120418  0.42120418  0.42120418  1
  Be  Be4  1  0.51361154  0.82879582  0.82879582  1
  Be  Be5  1  0.82879582  0.51361154  0.82879582  1
  Be  Be6  1  0.82879582  0.82879582  0.51361154  1
  Be  Be7  1  0.82879582  0.82879582  0.82879582  1
  V  V0  1  0.80462169  0.80462169  0.19537831  1
  V  V1  1  0.19537831  0.19537831  0.80462169  1
  V  V2  1  0.80462169  0.19537831  0.80462169  1
  V  V3  1  0.19537831  0.80462169  0.19537831  1
  V  V4  1  0.19537831  0.80462169  0.80462169  1
  V  V5  1  0.80462169  0.19537831  0.19537831  1
  V  V6  1  0.44537831  0.44537831  0.05462169  1
  V  V7  1  0.05462169  0.05462169  0.44537831  1
  V  V8  1  0.44537831  0.05462169  0.44537831  1
  V  V9  1  0.05462169  0.44537831  0.05462169  1
  V  V10  1  0.05462169  0.44537831  0.44537831  1
  V  V11  1  0.44537831  0.05462169  0.05462169  1
  Ni  Ni0  1  0.12500000  0.62500000  0.62500000  1
  Ni  Ni1  1  0.62500000  0.12500000  0.62500000  1
  Ni  Ni2  1  0.62500000  0.62500000  0.12500000  1
  Ni  Ni3  1  0.62500000  0.62500000  0.62500000  1
  C  C0  1  0.62500000  0.12500000  0.12500000  1
  C  C1  1  0.12500000  0.62500000  0.12500000  1
  C  C2  1  0.12500000  0.12500000  0.62500000  1
  C  C3  1  0.12500000  0.12500000  0.12500000  1
loop_
_geom_bond_atom_site_label_1
_geom_bond_atom_site_label_2
_geom_bond_distance
_geom_bond_site_symmetry_2
Be0 Ni3 2.239806 1_555
Be0 Ni1 2.239812 1_555
Be0 Ni2 2.239812 1_555
Be0 Be3 2.332471 1_555
Be0 Be1 2.332471 1_555
Be0 Be2 2.332471 1_555
Be0 V10 2.546530 1_655
Be0 V7 2.546534 1_655
Be0 V9 2.546535 1_655
Be0 V0 2.635493 1_555
Be0 V2 2.635493 1_555
Be0 V5 2.635499 1_555
Be1 Ni3 2.239806 1_555
Be1 Ni2 2.239812 1_555
Be1 Ni0 2.239812 1_555
Be1 Be3 2.332471 1_555
Be1 Be2 2.332471 1_555
Be1 V8 2.546530 1_565
Be1 V11 2.546534 1_565
Be1 V7 2.546534 1_565
Be1 V4 2.635493 1_555
Be1 V0 2.635493 1_555
Be1 V3 2.635499 1_555
Be2 Ni3 2.239806 1_555
Be2 Ni1 2.239812 1_555
Be2 Ni0 2.239812 1_555
Be2 Be3 2.332471 1_555
Be2 V6 2.546530 1_556
Be2 V11 2.546534 1_556
Be2 V9 2.546535 1_556
Be2 V4 2.635493 1_555
Be2 V2 2.635493 1_555
Be2 V1 2.635499 1_555
Be3 Ni1 2.239808 1_555
Be3 Ni2 2.239808 1_555
Be3 Ni0 2.239808 1_555
Be3 V8 2.546537 1_555
Be3 V6 2.546537 1_555
Be3 V10 2.546537 1_555
Be3 V3 2.635496 1_555
Be3 V1 2.635496 1_555
Be3 V5 2.635496 1_555
Be4 Ni3 2.239806 1_555
Be4 Ni1 2.239812 1_565
Be4 Ni2 2.239812 1_556
Be4 Be7 2.332471 1_555
Be4 Be5 2.332471 1_555
Be4 Be6 2.332471 1_555
Be4 V4 2.546530 1_555
Be4 V1 2.546534 1_565
Be4 V3 2.546535 1_556
Be4 V6 2.635493 1_556
Be4 V8 2.635493 1_565
Be4 V11 2.635499 1_566
Be5 Ni3 2.239806 1_555
Be5 Ni2 2.239812 1_556
Be5 Ni0 2.239812 1_655
Be5 Be7 2.332471 1_555
Be5 Be6 2.332471 1_555
Be5 V2 2.546530 1_555
Be5 V5 2.546534 1_556
Be5 V1 2.546534 1_655
Be5 V10 2.635493 1_655
Be5 V6 2.635493 1_556
Be5 V9 2.635499 1_656
Be6 Ni3 2.239806 1_555
Be6 Ni1 2.239812 1_565
Be6 Ni0 2.239812 1_655
Be6 Be7 2.332471 1_555
Be6 V0 2.546530 1_555
Be6 V5 2.546534 1_565
Be6 V3 2.546535 1_655
Be6 V10 2.635493 1_655
Be6 V8 2.635493 1_565
Be6 V7 2.635499 1_665
Be7 Ni1 2.239808 1_565
Be7 Ni2 2.239808 1_556
Be7 Ni0 2.239808 1_655
Be7 V2 2.546537 1_565
Be7 V0 2.546537 1_556
Be7 V4 2.546537 1_655
Be7 V9 2.635496 1_656
Be7 V7 2.635496 1_665
Be7 V11 2.635496 1_566
Ni0 V4 2.637553 1_555
Ni0 V10 2.637553 1_555
Ni0 V7 2.637554 1_565
Ni0 V1 2.637554 1_555
Ni0 V9 2.637554 1_556
Ni0 V3 2.637554 1_555
Ni1 V2 2.637553 1_555
Ni1 V8 2.637553 1_555
Ni1 V11 2.637554 1_556
Ni1 V5 2.637554 1_555
Ni1 V7 2.637554 1_655
Ni1 V1 2.637554 1_555
Ni2 V0 2.637553 1_555
Ni2 V6 2.637553 1_555
Ni2 V11 2.637554 1_565
Ni2 V5 2.637554 1_555
Ni2 V9 2.637554 1_655
Ni2 V3 2.637554 1_555
Ni3 V8 2.637554 1_565
Ni3 V2 2.637554 1_555
Ni3 V6 2.637554 1_556
Ni3 V0 2.637554 1_555
Ni3 V10 2.637554 1_655
Ni3 V4 2.637554 1_555
C0 V5 1.991313 1_555
C0 V11 1.991313 1_555
C0 V6 1.991314 1_555
C0 V0 1.991314 1_545
C0 V8 1.991314 1_555
C0 V2 1.991314 1_554
C1 V3 1.991313 1_555
C1 V9 1.991313 1_555
C1 V10 1.991314 1_555
C1 V4 1.991314 1_554
C1 V6 1.991314 1_555
C1 V0 1.991314 1_455
C2 V1 1.991313 1_555
C2 V7 1.991313 1_555
C2 V10 1.991314 1_555
C2 V4 1.991314 1_545
C2 V8 1.991314 1_555
C2 V2 1.991314 1_455
C3 V9 1.991313 1_555
C3 V3 1.991313 1_545
C3 V7 1.991314 1_555
C3 V1 1.991314 1_554
C3 V11 1.991314 1_555
C3 V5 1.991314 1_455
