# generated using pymatgen
data_Li2NiP2O7
_symmetry_space_group_name_H-M   'P 1'
_cell_length_a   6.51245500
_cell_length_b   9.19160377
_cell_length_c   10.27594128
_cell_angle_alpha   113.58492990
_cell_angle_beta   87.19200804
_cell_angle_gamma   107.02653230
_symmetry_Int_Tables_number   1
_chemical_formula_structural   Li2NiP2O7
_chemical_formula_sum   'Li8 Ni4 P8 O28'
_cell_volume   537.39259050
_cell_formula_units_Z   4
loop_
 _symmetry_equiv_pos_site_id
 _symmetry_equiv_pos_as_xyz
  1  'x, y, z'
loop_
 _atom_site_type_symbol
 _atom_site_label
 _atom_site_symmetry_multiplicity
 _atom_site_fract_x
 _atom_site_fract_y
 _atom_site_fract_z
 _atom_site_occupancy
  Li  Li0  1  0.58003500  0.49955500  0.96769200  1
  Li  Li1  1  0.34632700  0.92980500  0.38178100  1
  Li  Li2  1  0.92958000  0.83226300  0.50860200  1
  Li  Li3  1  0.87319100  0.89152500  0.91002300  1
  Li  Li4  1  0.15874600  0.48755000  0.03854800  1
  Li  Li5  1  0.04830600  0.23188800  0.51807900  1
  Li  Li6  1  0.64734700  0.07218300  0.61972200  1
  Li  Li7  1  0.18383600  0.12041200  0.12464400  1
  Ni  Ni0  1  0.28392900  0.89449800  0.77778700  1
  Ni  Ni1  1  0.36785100  0.50577200  0.74153200  1
  Ni  Ni2  1  0.62511600  0.48432500  0.24709200  1
  Ni  Ni3  1  0.72369200  0.09503300  0.21978200  1
  P  P0  1  0.11172900  0.43757800  0.29511900  1
  P  P1  1  0.56652700  0.29475900  0.46202200  1
  P  P2  1  0.42892400  0.70254900  0.53141600  1
  P  P3  1  0.31500300  0.80508100  0.05141000  1
  P  P4  1  0.08406900  0.18181400  0.79678100  1
  P  P5  1  0.69207500  0.18509700  0.94674200  1
  P  P6  1  0.91891200  0.80385200  0.19606200  1
  P  P7  1  0.87824700  0.54627700  0.69848500  1
  O  O0  1  0.22480100  0.54427000  0.45497900  1
  O  O1  1  0.73901800  0.08081400  0.01930400  1
  O  O2  1  0.70897700  0.66549000  0.16907800  1
  O  O3  1  0.02329300  0.26056600  0.29180300  1
  O  O4  1  0.92659000  0.27991900  0.90635000  1
  O  O5  1  0.29090800  0.44574700  0.19208000  1
  O  O6  1  0.63158700  0.14485700  0.46118100  1
  O  O7  1  0.39061800  0.65724700  0.95691000  1
  O  O8  1  0.60332700  0.32512700  0.03807400  1
  O  O9  1  0.37096100  0.85816600  0.54067800  1
  O  O10  1  0.10934100  0.05928000  0.85652200  1
  O  O11  1  0.28850400  0.32575300  0.82238400  1
  O  O12  1  0.44574600  0.91203800  0.19483900  1
  O  O13  1  0.02805200  0.88989900  0.34708400  1
  O  O14  1  0.54907700  0.27549400  0.30561000  1
  O  O15  1  0.44278500  0.71106800  0.68456500  1
  O  O16  1  0.97074500  0.09371700  0.64561600  1
  O  O17  1  0.08289400  0.70810900  0.09125800  1
  O  O18  1  0.62653600  0.67802400  0.45005700  1
  O  O19  1  0.27315900  0.91304800  0.98135900  1
  O  O20  1  0.97791600  0.72983400  0.72372700  1
  O  O21  1  0.76528600  0.45894900  0.53623000  1
  O  O22  1  0.90421800  0.92935000  0.13510400  1
  O  O23  1  0.94684100  0.51406100  0.27407900  1
  O  O24  1  0.03915200  0.45344300  0.69567400  1
  O  O25  1  0.36688400  0.31891600  0.54060200  1
  O  O26  1  0.69318100  0.52523300  0.79373600  1
  O  O27  1  0.56501400  0.07557000  0.80255400  1
loop_
_geom_bond_atom_site_label_1
_geom_bond_atom_site_label_2
_geom_bond_distance
_geom_bond_site_symmetry_2
Li0 O26 1.975032 1_555
Li0 O8 2.048814 1_556
Li0 O2 2.051445 1_556
Li0 O7 2.196326 1_555
Li0 O11 2.231362 1_555
Li1 O12 1.955801 1_555
Li1 O9 2.018246 1_555
Li1 O13 2.020019 1_555
Li1 O6 2.175217 1_565
Li2 O13 1.961389 1_655
Li2 O18 2.015449 1_555
Li2 O16 2.186682 1_565
Li3 O10 2.061984 1_665
Li3 O1 2.069403 1_566
Li3 O20 2.127838 1_555
Li3 O22 2.207366 1_556
Li4 O5 2.046790 1_555
Li4 O4 2.051910 1_454
Li4 O17 2.080594 1_555
Li4 O7 2.227236 1_554
Li4 O11 2.401771 1_554
Li5 O25 1.981137 1_555
Li5 O16 2.115895 1_455
Li5 O24 2.137200 1_555
Li5 O3 2.460750 1_555
Li5 O6 2.618519 1_455
Li6 O27 1.918989 1_555
Li6 O6 2.009547 1_555
Li6 O16 2.077097 1_555
Li6 O9 2.135496 1_545
Li7 O19 2.111602 1_544
Li7 O3 2.131975 1_555
Li7 O22 2.161194 1_445
Ni0 O27 2.026871 1_565
Ni0 O19 2.029094 1_555
Ni0 O10 2.044305 1_565
Ni0 O20 2.059179 1_455
Ni0 O15 2.112471 1_555
Ni0 O9 2.386173 1_555
Ni1 O11 2.062161 1_555
Ni1 O7 2.074660 1_555
Ni1 O24 2.085719 1_555
Ni1 O25 2.090513 1_555
Ni1 O15 2.111460 1_555
Ni1 O26 2.149715 1_555
Ni2 O8 2.041536 1_555
Ni2 O23 2.049990 1_555
Ni2 O2 2.050992 1_555
Ni2 O18 2.130888 1_555
Ni2 O14 2.151529 1_555
Ni2 O5 2.165799 1_555
Ni3 O1 2.010745 1_555
Ni3 O12 2.022083 1_545
Ni3 O3 2.042430 1_655
Ni3 O22 2.084812 1_545
Ni3 O14 2.158265 1_555
Ni3 O6 2.414319 1_555
O0 P2 1.598731 1_555
O0 P0 1.615229 1_555
O1 P5 1.527775 1_554
O2 P6 1.516637 1_555
O3 P0 1.545593 1_555
O4 P5 1.646903 1_555
O4 P4 1.657905 1_655
O5 P0 1.542608 1_555
O6 P1 1.552429 1_555
O7 P3 1.523488 1_556
O8 P5 1.512403 1_554
O9 P2 1.549598 1_555
O10 P4 1.531082 1_555
O11 P4 1.521975 1_555
O12 P3 1.528731 1_555
O13 P6 1.528323 1_455
O14 P1 1.551123 1_555
O15 P2 1.549883 1_555
O16 P4 1.539190 1_655
O17 P3 1.639954 1_555
O17 P6 1.659531 1_455
O18 P2 1.523042 1_555
O19 P3 1.525288 1_556
O20 P7 1.536275 1_555
O21 P1 1.601987 1_555
O21 P7 1.633665 1_555
O22 P6 1.543014 1_555
O23 P0 1.510140 1_655
O24 P7 1.525767 1_455
O25 P1 1.521345 1_555
O26 P7 1.532134 1_555
O27 P5 1.527154 1_555
