# generated using pymatgen
data_Cs6YSe4Br
_symmetry_space_group_name_H-M   'P 1'
_cell_length_a   11.68028209
_cell_length_b   11.68028218
_cell_length_c   8.71605009
_cell_angle_alpha   90.00000000
_cell_angle_beta   90.00000000
_cell_angle_gamma   120.00000524
_symmetry_Int_Tables_number   1
_chemical_formula_structural   Cs6YSe4Br
_chemical_formula_sum   'Cs12 Y2 Se8 Br2'
_cell_volume   1029.80973366
_cell_formula_units_Z   2
loop_
 _symmetry_equiv_pos_site_id
 _symmetry_equiv_pos_as_xyz
  1  'x, y, z'
loop_
 _atom_site_type_symbol
 _atom_site_label
 _atom_site_symmetry_multiplicity
 _atom_site_fract_x
 _atom_site_fract_y
 _atom_site_fract_z
 _atom_site_occupancy
  Cs  Cs0  1  0.13620691  0.86379309  0.51145539  1
  Cs  Cs1  1  0.72758718  0.86379309  0.51145539  1
  Cs  Cs2  1  0.93726994  0.46863447  0.31708532  1
  Cs  Cs3  1  0.53136553  0.46863447  0.31708532  1
  Cs  Cs4  1  0.86379309  0.72758718  0.01145539  1
  Cs  Cs5  1  0.27241282  0.13620691  0.01145539  1
  Cs  Cs6  1  0.53136553  0.06273006  0.31708532  1
  Cs  Cs7  1  0.13620691  0.27241282  0.51145539  1
  Cs  Cs8  1  0.86379309  0.13620691  0.01145539  1
  Cs  Cs9  1  0.06273006  0.53136553  0.81708532  1
  Cs  Cs10  1  0.46863447  0.93726994  0.81708532  1
  Cs  Cs11  1  0.46863447  0.53136553  0.81708532  1
  Y  Y0  1  0.66666700  0.33333300  0.71818225  1
  Y  Y1  1  0.33333300  0.66666700  0.21818225  1
  Se  Se0  1  0.41354521  0.20677260  0.61231507  1
  Se  Se1  1  0.58645479  0.79322740  0.11231507  1
  Se  Se2  1  0.66666700  0.33333300  0.03284563  1
  Se  Se3  1  0.79322740  0.58645479  0.61231507  1
  Se  Se4  1  0.20677260  0.41354521  0.11231507  1
  Se  Se5  1  0.33333300  0.66666700  0.53284563  1
  Se  Se6  1  0.20677260  0.79322740  0.11231507  1
  Se  Se7  1  0.79322740  0.20677260  0.61231507  1
  Br  Br0  1  0.00000000  0.00000000  0.26700879  1
  Br  Br1  1  0.00000000  0.00000000  0.76700879  1
loop_
_geom_bond_atom_site_label_1
_geom_bond_atom_site_label_2
_geom_bond_distance
_geom_bond_site_symmetry_2
Cs0 Se6 3.760450 1_555
Cs0 Se3 3.786550 1_455
Cs0 Se0 3.786550 1_565
Cs0 Se5 3.992383 1_555
Cs1 Se1 3.760454 1_555
Cs1 Se3 3.786543 1_555
Cs1 Se7 3.786554 1_565
Cs1 Se5 3.992402 1_555
Cs2 Se2 3.691931 1_555
Cs2 Se7 3.696129 1_555
Cs2 Se3 3.696137 1_555
Cs2 Se4 3.941332 1_655
Cs2 Se6 3.941338 1_655
Cs3 Se2 3.691931 1_555
Cs3 Se3 3.696129 1_555
Cs3 Se0 3.696129 1_555
Cs3 Se4 3.941342 1_555
Cs3 Se1 3.941342 1_555
Cs4 Se3 3.760454 1_554
Cs4 Se1 3.786543 1_555
Cs4 Se6 3.786554 1_655
Cs4 Se2 3.992402 1_555
Cs5 Se0 3.760454 1_554
Cs5 Se4 3.786543 1_555
Cs5 Se6 3.786554 1_545
Cs5 Se2 3.992402 1_555
Cs6 Se2 3.691931 1_555
Cs6 Se7 3.696129 1_555
Cs6 Se0 3.696137 1_555
Cs6 Se1 3.941332 1_545
Cs6 Se6 3.941338 1_545
Cs7 Se4 3.760454 1_555
Cs7 Se0 3.786543 1_555
Cs7 Se7 3.786554 1_455
Cs7 Se5 3.992402 1_555
Cs8 Se7 3.760450 1_554
Cs8 Se4 3.786550 1_655
Cs8 Se1 3.786550 1_545
Cs8 Se2 3.992383 1_555
Cs9 Se5 3.691931 1_555
Cs9 Se6 3.696129 1_556
Cs9 Se4 3.696137 1_556
Cs9 Se3 3.941332 1_455
Cs9 Se7 3.941338 1_455
Cs10 Se5 3.691931 1_555
Cs10 Se6 3.696129 1_556
Cs10 Se1 3.696137 1_556
Cs10 Se0 3.941332 1_565
Cs10 Se7 3.941338 1_565
Cs11 Se5 3.691931 1_555
Cs11 Se4 3.696129 1_556
Cs11 Se1 3.696129 1_556
Cs11 Se3 3.941342 1_555
Cs11 Se0 3.941342 1_555
Se0 Y0 2.721631 1_555
Se1 Y1 2.721631 1_555
Se2 Y0 2.742622 1_554
Se3 Y0 2.721631 1_555
Se4 Y1 2.721631 1_555
Se5 Y1 2.742622 1_555
Se6 Y1 2.721622 1_555
Se7 Y0 2.721622 1_555
Br0 Cs1 3.483197 1_445
Br0 Cs7 3.483197 1_555
Br0 Cs0 3.483205 1_545
Br0 Cs5 3.543240 1_555
Br0 Cs4 3.543240 1_445
Br0 Cs8 3.543248 1_455
Br1 Cs5 3.483197 1_556
Br1 Cs4 3.483197 1_446
Br1 Cs8 3.483205 1_456
Br1 Cs1 3.543240 1_445
Br1 Cs7 3.543240 1_555
Br1 Cs0 3.543248 1_545
