# generated using pymatgen
data_Lu2Si2Os2C
_symmetry_space_group_name_H-M   'P 1'
_cell_length_a   5.77355628
_cell_length_b   5.77355690
_cell_length_c   6.67779693
_cell_angle_alpha   126.28204797
_cell_angle_beta   126.28205191
_cell_angle_gamma   40.84712644
_symmetry_Int_Tables_number   1
_chemical_formula_structural   Lu2Si2Os2C
_chemical_formula_sum   'Lu2 Si2 Os2 C1'
_cell_volume   112.89098690
_cell_formula_units_Z   1
loop_
 _symmetry_equiv_pos_site_id
 _symmetry_equiv_pos_as_xyz
  1  'x, y, z'
loop_
 _atom_site_type_symbol
 _atom_site_label
 _atom_site_symmetry_multiplicity
 _atom_site_fract_x
 _atom_site_fract_y
 _atom_site_fract_z
 _atom_site_occupancy
  Lu  Lu0  1  0.56306703  0.56306703  0.29601879  1
  Lu  Lu1  1  0.43693297  0.43693297  0.70398021  1
  Si  Si0  1  0.85174017  0.85174017  0.30707255  1
  Si  Si1  1  0.14825983  0.14825983  0.69292645  1
  Os  Os0  1  0.20900197  0.20900197  0.11032968  1
  Os  Os1  1  0.79099803  0.79099803  0.88967132  1
  C  C0  1  0.00000000  0.00000000  0.00000000  1
loop_
_geom_bond_atom_site_label_1
_geom_bond_atom_site_label_2
_geom_bond_distance
_geom_bond_site_symmetry_2
Lu0 Si1 2.974582 1_655
Lu0 Si1 2.974582 1_565
Lu0 Si0 3.077724 1_555
Lu0 Si0 3.083390 1_455
Lu0 Si0 3.083390 1_545
Lu1 Si0 2.974582 1_455
Lu1 Si0 2.974582 1_545
Lu1 Si1 3.077724 1_555
Lu1 Si1 3.083390 1_655
Lu1 Si1 3.083390 1_565
Si0 Si1 2.548248 1_665
Os0 Si0 2.368159 1_545
Os0 Si0 2.368159 1_455
Os0 Si1 2.426410 1_554
Os1 Si1 2.368160 1_565
Os1 Si1 2.368161 1_655
Os1 Si0 2.426397 1_556
C0 Os0 1.885084 1_555
C0 Os1 1.885086 1_444
C0 Lu0 2.593971 1_545
C0 Lu0 2.593971 1_455
C0 Lu1 2.593975 1_454
C0 Lu1 2.593975 1_544
