# generated using pymatgen
data_CsZnPdF5
_symmetry_space_group_name_H-M   'P 1'
_cell_length_a   7.28815090
_cell_length_b   7.28815125
_cell_length_c   7.28815136
_cell_angle_alpha   127.24395136
_cell_angle_beta   117.32056491
_cell_angle_gamma   86.32031511
_symmetry_Int_Tables_number   1
_chemical_formula_structural   CsZnPdF5
_chemical_formula_sum   'Cs2 Zn2 Pd2 F10'
_cell_volume   261.01696480
_cell_formula_units_Z   2
loop_
 _symmetry_equiv_pos_site_id
 _symmetry_equiv_pos_as_xyz
  1  'x, y, z'
loop_
 _atom_site_type_symbol
 _atom_site_label
 _atom_site_symmetry_multiplicity
 _atom_site_fract_x
 _atom_site_fract_y
 _atom_site_fract_z
 _atom_site_occupancy
  Cs  Cs0  1  0.86751490  0.61751490  0.25000000  1
  Cs  Cs1  1  0.13248510  0.38248510  0.75000000  1
  Zn  Zn0  1  0.00000000  0.00000000  0.00000000  1
  Zn  Zn1  1  0.50000000  0.00000000  0.50000000  1
  Pd  Pd0  1  0.50000000  0.00000000  0.00000000  1
  Pd  Pd1  1  0.50000000  0.50000000  0.50000000  1
  F  F0  1  0.44520664  0.64787323  0.33277132  1
  F  F1  1  0.55479336  0.88756568  0.20266659  1
  F  F2  1  0.18489710  0.35212677  0.29733341  1
  F  F3  1  0.81510290  0.11243432  0.16722868  1
  F  F4  1  0.55479336  0.35212677  0.66722868  1
  F  F5  1  0.44520664  0.11243432  0.79733341  1
  F  F6  1  0.81865371  0.06865371  0.75000000  1
  F  F7  1  0.18134629  0.93134629  0.25000000  1
  F  F8  1  0.18489710  0.88756568  0.83277132  1
  F  F9  1  0.81510290  0.64787323  0.70266659  1
loop_
_geom_bond_atom_site_label_1
_geom_bond_atom_site_label_2
_geom_bond_distance
_geom_bond_site_symmetry_2
Cs0 F2 2.951533 1_655
Cs0 F8 2.951536 1_655
Cs0 F4 2.951538 1_554
Cs0 F1 2.951543 1_555
Cs0 F6 3.279476 1_565
Cs0 F6 3.279476 1_554
Cs0 F7 3.336845 1_655
Cs0 F9 3.367692 1_555
Cs0 F0 3.367696 1_555
Cs0 F5 3.367701 1_554
Cs0 F3 3.367703 1_555
Cs1 F9 2.951533 1_455
Cs1 F3 2.951536 1_455
Cs1 F0 2.951538 1_556
Cs1 F5 2.951543 1_555
Cs1 F7 3.279476 1_545
Cs1 F7 3.279476 1_556
Cs1 F6 3.336845 1_455
Cs1 F2 3.367692 1_555
Cs1 F4 3.367696 1_555
Cs1 F1 3.367701 1_556
Cs1 F8 3.367703 1_555
F0 Pd1 1.973397 1_555
F0 Zn1 2.032206 1_565
F1 Pd0 1.973390 1_565
F1 Zn1 2.032208 1_565
F2 Pd1 1.973403 1_555
F2 Zn0 2.032204 1_555
F3 Pd0 1.973402 1_555
F3 Zn0 2.032199 1_655
F4 Pd1 1.973397 1_555
F4 Zn1 2.032206 1_555
F5 Pd0 1.973390 1_556
F5 Zn1 2.032208 1_555
F6 Zn1 2.031036 1_555
F6 Zn0 2.031036 1_656
F7 Zn1 2.031036 1_565
F7 Zn0 2.031036 1_565
F8 Pd0 1.973402 1_566
F8 Zn0 2.032199 1_566
F9 Pd1 1.973403 1_555
F9 Zn0 2.032204 1_666
