# generated using pymatgen
data_K7Rb3(Bi2Au)2
_symmetry_space_group_name_H-M   'P 1'
_cell_length_a   6.11812944
_cell_length_b   6.11812938
_cell_length_c   21.16268490
_cell_angle_alpha   90.00000000
_cell_angle_beta   90.00000000
_cell_angle_gamma   120.00000554
_symmetry_Int_Tables_number   1
_chemical_formula_structural   K7Rb3(Bi2Au)2
_chemical_formula_sum   'K7 Rb3 Bi4 Au2'
_cell_volume   686.02302379
_cell_formula_units_Z   1
loop_
 _symmetry_equiv_pos_site_id
 _symmetry_equiv_pos_as_xyz
  1  'x, y, z'
loop_
 _atom_site_type_symbol
 _atom_site_label
 _atom_site_symmetry_multiplicity
 _atom_site_fract_x
 _atom_site_fract_y
 _atom_site_fract_z
 _atom_site_occupancy
  K  K0  1  0.66666700  0.33333300  0.04971907  1
  K  K1  1  0.66666700  0.33333300  0.44949062  1
  K  K2  1  0.33333300  0.66666700  0.94995455  1
  K  K3  1  0.00000000  0.00000000  0.14779561  1
  K  K4  1  0.00000000  0.00000000  0.65343467  1
  K  K5  1  0.00000000  0.00000000  0.85233611  1
  K  K6  1  0.00000000  0.00000000  0.34803429  1
  Rb  Rb0  1  0.33333300  0.66666700  0.55004201  1
  Rb  Rb1  1  0.33333300  0.66666700  0.75193719  1
  Rb  Rb2  1  0.66666700  0.33333300  0.24887881  1
  Bi  Bi0  1  0.33333300  0.66666700  0.11818495  1
  Bi  Bi1  1  0.66666700  0.33333300  0.62224931  1
  Bi  Bi2  1  0.33333300  0.66666700  0.37739810  1
  Bi  Bi3  1  0.66666700  0.33333300  0.88118427  1
  Au  Au0  1  0.66666700  0.33333300  0.75165386  1
  Au  Au1  1  0.33333300  0.66666700  0.24770758  1
loop_
_geom_bond_atom_site_label_1
_geom_bond_atom_site_label_2
_geom_bond_distance
_geom_bond_site_symmetry_2
Bi0 K2 3.560207 1_554
Bi0 K3 3.587454 1_565
Bi0 K3 3.587459 1_555
Bi0 K3 3.587459 1_665
Bi0 K0 3.817921 1_565
Bi0 K0 3.817921 1_455
Bi0 K0 3.817931 1_555
Bi1 K4 3.593425 1_655
Bi1 K4 3.593429 1_665
Bi1 K4 3.593429 1_555
Bi1 K1 3.656038 1_555
Bi1 Rb0 3.848666 1_545
Bi1 Rb0 3.848666 1_655
Bi1 Rb0 3.848676 1_555
Bi2 K6 3.586545 1_565
Bi2 K6 3.586550 1_555
Bi2 K6 3.586550 1_665
Bi2 Rb0 3.653609 1_555
Bi2 K1 3.847703 1_565
Bi2 K1 3.847703 1_455
Bi2 K1 3.847713 1_555
Bi3 K0 3.566649 1_556
Bi3 K5 3.584670 1_655
Bi3 K5 3.584675 1_665
Bi3 K5 3.584675 1_555
Bi3 K2 3.820370 1_545
Bi3 K2 3.820370 1_655
Bi3 K2 3.820380 1_555
Au0 Bi1 2.738548 1_555
Au0 Bi3 2.741211 1_555
Au0 Rb1 3.532305 1_545
Au0 Rb1 3.532305 1_655
Au0 Rb1 3.532316 1_555
Au1 Bi0 2.741047 1_555
Au1 Bi2 2.744599 1_555
Au1 Rb2 3.532387 1_565
Au1 Rb2 3.532387 1_455
Au1 Rb2 3.532398 1_555
