# generated using pymatgen
data_Ca(Al5Os)2
_symmetry_space_group_name_H-M   'P 1'
_cell_length_a   6.84029938
_cell_length_b   6.84029947
_cell_length_c   9.11648320
_cell_angle_alpha   90.00000000
_cell_angle_beta   90.00000000
_cell_angle_gamma   96.84234893
_symmetry_Int_Tables_number   1
_chemical_formula_structural   Ca(Al5Os)2
_chemical_formula_sum   'Ca2 Al20 Os4'
_cell_volume   423.51941792
_cell_formula_units_Z   2
loop_
 _symmetry_equiv_pos_site_id
 _symmetry_equiv_pos_as_xyz
  1  'x, y, z'
loop_
 _atom_site_type_symbol
 _atom_site_label
 _atom_site_symmetry_multiplicity
 _atom_site_fract_x
 _atom_site_fract_y
 _atom_site_fract_z
 _atom_site_occupancy
  Ca  Ca0  1  0.87388012  0.12611988  0.75000000  1
  Ca  Ca1  1  0.12611988  0.87388012  0.25000000  1
  Al  Al0  1  0.52248063  0.78296724  0.75000000  1
  Al  Al1  1  0.78296724  0.52248063  0.25000000  1
  Al  Al2  1  0.47751937  0.21703276  0.25000000  1
  Al  Al3  1  0.21703276  0.47751937  0.75000000  1
  Al  Al4  1  0.62348001  0.37651999  0.95931835  1
  Al  Al5  1  0.37651999  0.62348001  0.04068165  1
  Al  Al6  1  0.62348001  0.37651999  0.54068165  1
  Al  Al7  1  0.37651999  0.62348001  0.45931835  1
  Al  Al8  1  0.40865381  0.14082842  0.75000000  1
  Al  Al9  1  0.14082842  0.40865381  0.25000000  1
  Al  Al10  1  0.59134619  0.85917158  0.25000000  1
  Al  Al11  1  0.85917158  0.59134619  0.75000000  1
  Al  Al12  1  0.84414673  0.15585327  0.40039275  1
  Al  Al13  1  0.15585327  0.84414673  0.59960725  1
  Al  Al14  1  0.84414673  0.15585327  0.09960725  1
  Al  Al15  1  0.15585327  0.84414673  0.90039275  1
  Al  Al16  1  0.77507352  0.77507352  0.00000000  1
  Al  Al17  1  0.77507352  0.77507352  0.50000000  1
  Al  Al18  1  0.22492648  0.22492648  0.00000000  1
  Al  Al19  1  0.22492648  0.22492648  0.50000000  1
  Os  Os0  1  0.50000000  0.00000000  0.00000000  1
  Os  Os1  1  0.00000000  0.50000000  0.00000000  1
  Os  Os2  1  0.50000000  0.00000000  0.50000000  1
  Os  Os3  1  0.00000000  0.50000000  0.50000000  1
loop_
_geom_bond_atom_site_label_1
_geom_bond_atom_site_label_2
_geom_bond_distance
_geom_bond_site_symmetry_2
Al0 Al8 2.655650 1_565
Al0 Os2 2.734297 1_565
Al0 Os0 2.734297 1_566
Al0 Al3 2.773200 1_555
Al0 Al11 2.782348 1_555
Al0 Al17 2.864414 1_555
Al0 Al16 2.864414 1_556
Al0 Al15 2.931596 1_555
Al0 Al13 2.931596 1_555
Al0 Al5 2.991642 1_556
Al0 Al7 2.991642 1_555
Al0 Ca0 3.153246 1_565
Al1 Al9 2.655650 1_655
Al1 Os1 2.734297 1_655
Al1 Os3 2.734297 1_655
Al1 Al2 2.773200 1_555
Al1 Al10 2.782348 1_555
Al1 Al17 2.864414 1_555
Al1 Al16 2.864414 1_555
Al1 Al12 2.931596 1_555
Al1 Al14 2.931596 1_555
Al1 Al6 2.991642 1_555
Al1 Al4 2.991642 1_554
Al1 Ca1 3.153246 1_655
Al2 Os2 2.734297 1_555
Al2 Os0 2.734297 1_555
Al2 Al9 2.782348 1_555
Al2 Al6 2.991642 1_555
Al2 Al4 2.991642 1_554
Al2 Ca1 3.153246 1_545
Al3 Os1 2.734297 1_556
Al3 Os3 2.734297 1_555
Al3 Al8 2.782348 1_555
Al3 Al5 2.991642 1_556
Al3 Al7 2.991642 1_555
Al3 Ca0 3.153246 1_455
Al4 Al5 2.633911 1_556
Al4 Os1 2.639294 1_656
Al4 Os0 2.639294 1_556
Al4 Al8 2.799189 1_555
Al4 Ca0 3.194979 1_555
Al5 Os1 2.639294 1_555
Al5 Os0 2.639294 1_565
Al5 Al9 2.799189 1_555
Al5 Ca1 3.194979 1_555
Al6 Al7 2.633911 1_555
Al6 Os3 2.639294 1_655
Al6 Os2 2.639294 1_555
Al6 Al8 2.799189 1_555
Al6 Ca0 3.194979 1_555
Al7 Os3 2.639294 1_555
Al7 Os2 2.639294 1_565
Al7 Al9 2.799189 1_555
Al7 Ca1 3.194979 1_555
Al8 Os2 2.579960 1_555
Al8 Os0 2.579960 1_556
Al8 Ca0 3.195835 1_555
Al9 Os3 2.579960 1_555
Al9 Os1 2.579960 1_555
Al9 Ca1 3.195835 1_555
Al10 Os2 2.579960 1_565
Al10 Os0 2.579960 1_565
Al10 Al2 2.655650 1_565
Al10 Al16 2.697590 1_555
Al10 Al17 2.697590 1_555
Al10 Al7 2.799189 1_555
Al10 Al5 2.799189 1_555
Al10 Al12 2.855220 1_565
Al10 Al14 2.855220 1_565
Al10 Ca1 3.195835 1_555
Al11 Os1 2.579960 1_656
Al11 Os3 2.579960 1_655
Al11 Al3 2.655650 1_655
Al11 Al17 2.697590 1_555
Al11 Al16 2.697590 1_556
Al11 Al4 2.799189 1_555
Al11 Al6 2.799189 1_555
Al11 Al15 2.855220 1_655
Al11 Al13 2.855220 1_655
Al11 Ca0 3.195835 1_555
Al12 Al6 2.595247 1_555
Al12 Os2 2.627692 1_555
Al12 Os3 2.627692 1_655
Al12 Al14 2.742106 1_555
Al12 Al19 2.745684 1_655
Al12 Al17 2.745684 1_545
Al12 Al9 2.855220 1_655
Al12 Al2 2.931596 1_555
Al12 Ca1 3.194778 1_645
Al12 Ca0 3.201681 1_555
Al13 Al7 2.595247 1_555
Al13 Os2 2.627692 1_565
Al13 Os3 2.627692 1_555
Al13 Al15 2.742106 1_555
Al13 Al17 2.745684 1_455
Al13 Al19 2.745684 1_565
Al13 Al8 2.855220 1_565
Al13 Al3 2.931596 1_555
Al13 Ca0 3.194778 1_465
Al13 Ca1 3.201681 1_555
Al14 Al4 2.595247 1_554
Al14 Os0 2.627692 1_555
Al14 Os1 2.627692 1_655
Al14 Al18 2.745684 1_655
Al14 Al16 2.745684 1_545
Al14 Al9 2.855220 1_655
Al14 Al2 2.931596 1_555
Al14 Ca1 3.194778 1_645
Al14 Ca0 3.201681 1_554
Al15 Al5 2.595247 1_556
Al15 Os0 2.627692 1_566
Al15 Os1 2.627692 1_556
Al15 Al16 2.745684 1_456
Al15 Al18 2.745684 1_566
Al15 Al8 2.855220 1_565
Al15 Al3 2.931596 1_555
Al15 Ca0 3.194778 1_465
Al15 Ca1 3.201681 1_556
Al16 Os0 2.568528 1_565
Al16 Os1 2.568528 1_655
Al16 Al5 2.823387 1_555
Al16 Al4 2.823387 1_554
Al16 Ca1 3.321226 1_655
Al16 Ca0 3.321226 1_564
Al17 Os2 2.568528 1_565
Al17 Os3 2.568528 1_655
Al17 Al7 2.823387 1_555
Al17 Al6 2.823387 1_555
Al17 Ca1 3.321226 1_655
Al17 Ca0 3.321226 1_565
Al18 Os0 2.568528 1_555
Al18 Os1 2.568528 1_555
Al18 Al8 2.697590 1_554
Al18 Al9 2.697590 1_555
Al18 Al4 2.823387 1_554
Al18 Al5 2.823387 1_555
Al18 Al2 2.864414 1_555
Al18 Al3 2.864414 1_554
Al18 Ca0 3.321226 1_454
Al18 Ca1 3.321226 1_545
Al19 Os2 2.568528 1_555
Al19 Os3 2.568528 1_555
Al19 Al8 2.697590 1_555
Al19 Al9 2.697590 1_555
Al19 Al6 2.823387 1_555
Al19 Al7 2.823387 1_555
Al19 Al2 2.864414 1_555
Al19 Al3 2.864414 1_555
Al19 Ca0 3.321226 1_455
Al19 Ca1 3.321226 1_545
