# generated using pymatgen
data_Y16MgHg3Ir4
_symmetry_space_group_name_H-M   'P 1'
_cell_length_a   9.64045040
_cell_length_b   9.62056281
_cell_length_c   9.62056299
_cell_angle_alpha   59.99999937
_cell_angle_beta   60.06821717
_cell_angle_gamma   60.06821444
_symmetry_Int_Tables_number   1
_chemical_formula_structural   Y16MgHg3Ir4
_chemical_formula_sum   'Y16 Mg1 Hg3 Ir4'
_cell_volume   631.58283078
_cell_formula_units_Z   1
loop_
 _symmetry_equiv_pos_site_id
 _symmetry_equiv_pos_as_xyz
  1  'x, y, z'
loop_
 _atom_site_type_symbol
 _atom_site_label
 _atom_site_symmetry_multiplicity
 _atom_site_fract_x
 _atom_site_fract_y
 _atom_site_fract_z
 _atom_site_occupancy
  Y  Y0  1  0.59910226  0.59755413  0.59755413  1
  Y  Y1  1  0.59910226  0.59755413  0.20578848  1
  Y  Y2  1  0.59910226  0.20578848  0.59755413  1
  Y  Y3  1  0.19028832  0.60323689  0.60323689  1
  Y  Y4  1  0.05652629  0.44277384  0.44277384  1
  Y  Y5  1  0.43822507  0.06133636  0.06133636  1
  Y  Y6  1  0.43822507  0.06133636  0.43910221  1
  Y  Y7  1  0.05652629  0.44277384  0.05792502  1
  Y  Y8  1  0.43822507  0.43910221  0.06133636  1
  Y  Y9  1  0.05652629  0.05792502  0.44277384  1
  Y  Y10  1  0.18731577  0.81085438  0.81085438  1
  Y  Y11  1  0.81115147  0.18818387  0.18818387  1
  Y  Y12  1  0.81115147  0.18818387  0.81248079  1
  Y  Y13  1  0.18731577  0.81085438  0.19097647  1
  Y  Y14  1  0.81115147  0.81248079  0.18818387  1
  Y  Y15  1  0.18731577  0.19097647  0.81085438  1
  Mg  Mg0  1  0.54733929  0.81755390  0.81755390  1
  Hg  Hg0  1  0.83282440  0.83702735  0.83702735  1
  Hg  Hg1  1  0.83282440  0.83702735  0.49312189  1
  Hg  Hg2  1  0.83282440  0.49312189  0.83702735  1
  Ir  Ir0  1  0.38692785  0.39359426  0.39359426  1
  Ir  Ir1  1  0.38692785  0.39359426  0.82588264  1
  Ir  Ir2  1  0.38692785  0.82588264  0.39359426  1
  Ir  Ir3  1  0.82615307  0.39128231  0.39128231  1
loop_
_geom_bond_atom_site_label_1
_geom_bond_atom_site_label_2
_geom_bond_distance
_geom_bond_site_symmetry_2
Y0 Y10 3.483289 1_555
Y1 Y13 3.483283 1_555
Y10 Y3 3.443162 1_555
Y10 Y9 3.581497 1_565
Y10 Y7 3.581497 1_556
Y10 Y8 3.607543 1_556
Y10 Y6 3.607543 1_565
Y10 Y12 3.632057 1_465
Y10 Y14 3.632057 1_456
Y10 Y15 3.656988 1_565
Y10 Y13 3.656989 1_556
Y11 Y13 3.632057 1_645
Y11 Y15 3.632058 1_654
Y12 Y15 3.632062 1_655
Y13 Y3 3.443145 1_555
Y13 Y9 3.581481 1_565
Y13 Y4 3.581496 1_555
Y13 Y5 3.607540 1_565
Y13 Y8 3.607548 1_555
Y13 Y14 3.632062 1_455
Y13 Y15 3.656988 1_564
Y15 Y3 3.443145 1_555
Y15 Y2 3.483283 1_555
Y15 Y7 3.581481 1_556
Y15 Y4 3.581496 1_555
Y15 Y5 3.607540 1_556
Y15 Y6 3.607548 1_555
Mg0 Y15 3.536286 1_565
Mg0 Y13 3.536286 1_556
Mg0 Y10 3.536286 1_555
Hg0 Mg0 2.951106 1_555
Hg0 Y12 3.171677 1_565
Hg0 Y14 3.171677 1_556
Hg0 Y10 3.186180 1_655
Hg0 Y3 3.403286 1_655
Hg0 Y7 3.450170 1_656
Hg0 Y9 3.450170 1_665
Hg0 Y2 3.464183 1_565
Hg0 Y1 3.464184 1_556
Hg0 Y5 3.472374 1_566
Hg1 Mg0 2.951106 1_555
Hg1 Y11 3.171681 1_565
Hg1 Y14 3.171686 1_555
Hg1 Y13 3.186180 1_655
Hg1 Y3 3.403276 1_655
Hg1 Y9 3.450161 1_665
Hg1 Y4 3.450177 1_655
Hg1 Y2 3.464174 1_565
Hg1 Y0 3.464191 1_555
Hg1 Y6 3.472378 1_565
Hg2 Mg0 2.951106 1_555
Hg2 Y11 3.171681 1_556
Hg2 Y12 3.171686 1_555
Hg2 Y15 3.186180 1_655
Hg2 Y3 3.403276 1_655
Hg2 Y7 3.450160 1_656
Hg2 Y4 3.450177 1_655
Hg2 Y1 3.464174 1_556
Hg2 Y0 3.464191 1_555
Hg2 Y8 3.472378 1_556
Ir0 Y4 2.794519 1_555
Ir0 Y6 2.809447 1_555
Ir0 Y8 2.809447 1_555
Ir0 Y2 2.840879 1_555
Ir0 Y1 2.840879 1_555
Ir0 Y3 2.857634 1_555
Ir0 Y13 3.439002 1_555
Ir0 Y15 3.439003 1_555
Ir0 Y11 3.508683 1_555
Ir1 Y7 2.794519 1_556
Ir1 Y5 2.809450 1_556
Ir1 Y8 2.809456 1_556
Ir1 Y2 2.840879 1_555
Ir1 Y0 2.840879 1_555
Ir1 Y3 2.857634 1_555
Ir1 Y15 3.438991 1_555
Ir1 Y10 3.439007 1_555
Ir1 Y12 3.508685 1_555
Ir2 Y9 2.794518 1_565
Ir2 Y5 2.809450 1_565
Ir2 Y6 2.809456 1_565
Ir2 Y0 2.840879 1_555
Ir2 Y1 2.840879 1_555
Ir2 Y3 2.857634 1_555
Ir2 Y13 3.438991 1_555
Ir2 Y10 3.439008 1_555
Ir2 Y14 3.508685 1_555
Ir3 Y4 2.804359 1_655
Ir3 Y9 2.804366 1_655
Ir3 Y7 2.804366 1_655
Ir3 Y0 2.817055 1_555
Ir3 Y1 2.817062 1_555
Ir3 Y2 2.817062 1_555
Ir3 Y14 3.469630 1_555
Ir3 Y11 3.469631 1_555
Ir3 Y12 3.469631 1_555
