# generated using pymatgen
data_Lu4Ge6Ir5Pt2
_symmetry_space_group_name_H-M   'P 1'
_cell_length_a   7.17485519
_cell_length_b   7.17762912
_cell_length_c   7.17762958
_cell_angle_alpha   109.71368523
_cell_angle_beta   109.35789955
_cell_angle_gamma   109.35789623
_symmetry_Int_Tables_number   1
_chemical_formula_structural   Lu4Ge6Ir5Pt2
_chemical_formula_sum   'Lu4 Ge6 Ir5 Pt2'
_cell_volume   284.48822696
_cell_formula_units_Z   1
loop_
 _symmetry_equiv_pos_site_id
 _symmetry_equiv_pos_as_xyz
  1  'x, y, z'
loop_
 _atom_site_type_symbol
 _atom_site_label
 _atom_site_symmetry_multiplicity
 _atom_site_fract_x
 _atom_site_fract_y
 _atom_site_fract_z
 _atom_site_occupancy
  Lu  Lu0  1  0.00232620  0.00116360  0.50116360  1
  Lu  Lu1  1  0.00232620  0.50116360  0.00116360  1
  Lu  Lu2  1  0.49748164  0.99678472  0.99678472  1
  Lu  Lu3  1  0.49748164  0.50069692  0.50069692  1
  Ge  Ge0  1  0.67961208  0.68360897  0.99600411  1
  Ge  Ge1  1  0.31354448  0.99668885  0.31685463  1
  Ge  Ge2  1  0.00618032  0.31792222  0.31792222  1
  Ge  Ge3  1  0.31354448  0.31685463  0.99668885  1
  Ge  Ge4  1  0.67961208  0.99600411  0.68360897  1
  Ge  Ge5  1  0.00618032  0.68825809  0.68825809  1
  Ir  Ir0  1  0.50097816  0.25048908  0.75048908  1
  Ir  Ir1  1  0.24930950  0.50009823  0.74921127  1
  Ir  Ir2  1  0.24930950  0.74921127  0.50009823  1
  Ir  Ir3  1  0.50097816  0.75048908  0.25048908  1
  Ir  Ir4  1  0.99945348  0.99972674  0.99972674  1
  Pt  Pt0  1  0.75084089  0.25066428  0.50017661  1
  Pt  Pt1  1  0.75084089  0.50017661  0.25066428  1
loop_
_geom_bond_atom_site_label_1
_geom_bond_atom_site_label_2
_geom_bond_distance
_geom_bond_site_symmetry_2
Lu0 Pt0 2.933443 1_455
Lu0 Pt1 2.933449 1_445
Lu1 Pt1 2.933443 1_455
Lu1 Pt0 2.933449 1_454
Lu2 Pt1 2.947525 1_566
Lu2 Pt0 2.947525 1_566
Lu3 Pt0 2.947524 1_555
Lu3 Pt1 2.947525 1_555
Ge0 Ir1 2.551281 1_555
Ge0 Ir3 2.564743 1_556
Ge0 Ir0 2.564750 1_555
Ge0 Pt1 2.605007 1_556
Ge0 Ir4 2.623312 1_555
Ge0 Lu2 2.950287 1_555
Ge0 Lu3 2.950294 1_555
Ge0 Lu1 3.010548 1_656
Ge0 Lu0 3.010548 1_666
Ge1 Ir2 2.555943 1_555
Ge1 Ir3 2.567176 1_555
Ge1 Ir0 2.567183 1_565
Ge1 Pt0 2.598428 1_565
Ge1 Ir4 2.631665 1_454
Ge1 Lu1 2.951991 1_555
Ge1 Lu0 2.952003 1_565
Ge1 Lu2 3.004970 1_554
Ge1 Lu3 3.004976 1_565
Ge2 Ir2 2.552029 1_555
Ge2 Ir1 2.552030 1_555
Ge2 Pt1 2.594058 1_455
Ge2 Pt0 2.594058 1_455
Ge2 Ir4 2.601817 1_444
Ge2 Lu3 2.928370 1_555
Ge2 Lu0 2.983215 1_555
Ge2 Lu1 2.983215 1_555
Ge2 Lu2 3.034568 1_444
Ge3 Ir1 2.555943 1_555
Ge3 Ir0 2.567176 1_555
Ge3 Ir3 2.567183 1_556
Ge3 Pt1 2.598428 1_556
Ge3 Ir4 2.631665 1_445
Ge3 Lu0 2.951992 1_555
Ge3 Lu1 2.952002 1_556
Ge3 Lu2 3.004970 1_545
Ge3 Lu3 3.004976 1_556
Ge4 Ir2 2.551281 1_555
Ge4 Ir0 2.564743 1_565
Ge4 Ir3 2.564750 1_555
Ge4 Pt0 2.605007 1_565
Ge4 Ir4 2.623312 1_555
Ge4 Lu2 2.950288 1_555
Ge4 Lu3 2.950294 1_555
Ge4 Lu0 3.010548 1_665
Ge4 Lu1 3.010548 1_666
Ge5 Ir1 2.552029 1_555
Ge5 Ir2 2.552029 1_555
Ge5 Pt0 2.594058 1_455
Ge5 Pt1 2.594058 1_455
Ge5 Ir4 2.601817 1_455
Ge5 Lu2 2.928370 1_555
Ge5 Lu0 2.983216 1_565
Ge5 Lu1 2.983216 1_556
Ge5 Lu3 3.034568 1_455
Ir0 Lu0 2.925029 1_555
Ir0 Lu3 2.934749 1_555
Ir0 Lu2 2.934749 1_545
Ir0 Lu1 2.940844 1_656
Ir1 Lu3 2.908258 1_555
Ir1 Lu2 2.908259 1_555
Ir1 Lu0 2.921433 1_555
Ir1 Lu1 2.921438 1_556
Ir2 Lu3 2.908258 1_555
Ir2 Lu2 2.908259 1_555
Ir2 Lu1 2.921433 1_555
Ir2 Lu0 2.921438 1_565
Ir3 Lu1 2.925029 1_555
Ir3 Lu2 2.934749 1_554
Ir3 Lu3 2.934749 1_555
Ir3 Lu0 2.940844 1_665
