# generated using pymatgen
data_YOF
_symmetry_space_group_name_H-M   'P 1'
_cell_length_a   6.66708529
_cell_length_b   6.66708520
_cell_length_c   6.66708580
_cell_angle_alpha   33.07705835
_cell_angle_beta   33.07705976
_cell_angle_gamma   33.07705354
_symmetry_Int_Tables_number   1
_chemical_formula_structural   YOF
_chemical_formula_sum   'Y2 O2 F2'
_cell_volume   78.56406569
_cell_formula_units_Z   2
loop_
 _symmetry_equiv_pos_site_id
 _symmetry_equiv_pos_as_xyz
  1  'x, y, z'
loop_
 _atom_site_type_symbol
 _atom_site_label
 _atom_site_symmetry_multiplicity
 _atom_site_fract_x
 _atom_site_fract_y
 _atom_site_fract_z
 _atom_site_occupancy
  Y  Y0  1  0.74157135  0.74157135  0.74157135  1
  Y  Y1  1  0.25842865  0.25842865  0.25842865  1
  O  O0  1  0.62116735  0.62116735  0.62116735  1
  O  O1  1  0.37883265  0.37883265  0.37883265  1
  F  F0  1  0.13052214  0.13052214  0.13052214  1
  F  F1  1  0.86947786  0.86947786  0.86947786  1
loop_
_geom_bond_atom_site_label_1
_geom_bond_atom_site_label_2
_geom_bond_distance
_geom_bond_site_symmetry_2
O0 Y1 2.260752 1_565
O0 Y1 2.260752 1_655
O0 Y1 2.260753 1_556
O0 Y0 2.274419 1_555
O1 Y0 2.260752 1_545
O1 Y0 2.260752 1_455
O1 Y0 2.260753 1_554
O1 Y1 2.274419 1_555
F0 Y1 2.416140 1_555
F0 Y0 2.430275 1_454
F0 Y0 2.430275 1_544
F0 Y0 2.430275 1_445
F1 Y0 2.416140 1_555
F1 Y1 2.430275 1_656
F1 Y1 2.430275 1_566
F1 Y1 2.430275 1_665
