# generated using pymatgen
data_Ca7HfCr2N9
_symmetry_space_group_name_H-M   'P 1'
_cell_length_a   9.99609374
_cell_length_b   6.09788379
_cell_length_c   9.05397588
_cell_angle_alpha   87.79387901
_cell_angle_beta   90.00000000
_cell_angle_gamma   90.00000000
_symmetry_Int_Tables_number   1
_chemical_formula_structural   Ca7HfCr2N9
_chemical_formula_sum   'Ca14 Hf2 Cr4 N18'
_cell_volume   551.47621049
_cell_formula_units_Z   2
loop_
 _symmetry_equiv_pos_site_id
 _symmetry_equiv_pos_as_xyz
  1  'x, y, z'
loop_
 _atom_site_type_symbol
 _atom_site_label
 _atom_site_symmetry_multiplicity
 _atom_site_fract_x
 _atom_site_fract_y
 _atom_site_fract_z
 _atom_site_occupancy
  Ca  Ca0  1  0.93317547  0.42989624  0.16753063  1
  Ca  Ca1  1  0.08146945  0.24531588  0.49633222  1
  Ca  Ca2  1  0.25000000  0.08793800  0.79751384  1
  Ca  Ca3  1  0.43317547  0.57010376  0.83246937  1
  Ca  Ca4  1  0.58146945  0.75468412  0.50366778  1
  Ca  Ca5  1  0.57785301  0.06380436  0.82540077  1
  Ca  Ca6  1  0.92214699  0.06380436  0.82540077  1
  Ca  Ca7  1  0.42214699  0.93619564  0.17459923  1
  Ca  Ca8  1  0.41853055  0.24531588  0.49633222  1
  Ca  Ca9  1  0.07785301  0.93619564  0.17459923  1
  Ca  Ca10  1  0.91853055  0.75468412  0.50366778  1
  Ca  Ca11  1  0.06682453  0.57010376  0.83246937  1
  Ca  Ca12  1  0.75000000  0.91206200  0.20248616  1
  Ca  Ca13  1  0.56682453  0.42989624  0.16753063  1
  Hf  Hf0  1  0.75000000  0.27490141  0.44232334  1
  Hf  Hf1  1  0.25000000  0.72509859  0.55767666  1
  Cr  Cr0  1  0.25000000  0.32427828  0.06628247  1
  Cr  Cr1  1  0.75000000  0.46278867  0.72793474  1
  Cr  Cr2  1  0.75000000  0.67572172  0.93371753  1
  Cr  Cr3  1  0.25000000  0.53721133  0.27206526  1
  N  N0  1  0.39971083  0.23097816  0.98342337  1
  N  N1  1  0.25000000  0.23127909  0.26538126  1
  N  N2  1  0.90800989  0.11038009  0.33942636  1
  N  N3  1  0.60860989  0.37049554  0.63478295  1
  N  N4  1  0.75000000  0.56255504  0.33107637  1
  N  N5  1  0.25000000  0.63053295  0.07352120  1
  N  N6  1  0.89139011  0.37049554  0.63478295  1
  N  N7  1  0.39139011  0.62950446  0.36521705  1
  N  N8  1  0.75000000  0.36946705  0.92647880  1
  N  N9  1  0.09199011  0.88961991  0.66057364  1
  N  N10  1  0.75000000  0.76872091  0.73461874  1
  N  N11  1  0.10860989  0.62950446  0.36521705  1
  N  N12  1  0.60028917  0.76902184  0.01657663  1
  N  N13  1  0.25000000  0.43744496  0.66892363  1
  N  N14  1  0.40800989  0.88961991  0.66057364  1
  N  N15  1  0.59199011  0.11038009  0.33942636  1
  N  N16  1  0.10028917  0.23097816  0.98342337  1
  N  N17  1  0.89971083  0.76902184  0.01657663  1
loop_
_geom_bond_atom_site_label_1
_geom_bond_atom_site_label_2
_geom_bond_distance
_geom_bond_site_symmetry_2
Ca0 N17 2.457372 1_555
Ca0 N2 2.459303 1_555
Ca0 N4 2.508365 1_555
Ca0 N16 2.682549 1_654
Ca0 N11 2.815697 1_655
Ca0 N8 2.883334 1_554
Ca1 N2 2.406589 1_455
Ca1 N6 2.416169 1_455
Ca1 N9 2.584289 1_545
Ca1 N11 2.599451 1_555
Ca1 N13 2.606420 1_555
Ca1 N1 2.689150 1_555
Ca2 N14 2.368521 1_545
Ca2 N9 2.368521 1_545
Ca2 N13 2.388868 1_555
Ca2 N0 2.438576 1_555
Ca2 N16 2.438576 1_555
Ca3 N0 2.457372 1_555
Ca3 N14 2.459303 1_555
Ca3 N13 2.508365 1_555
Ca3 N12 2.682549 1_556
Ca3 N3 2.815697 1_555
Ca3 N5 2.883334 1_556
Ca4 N14 2.406589 1_555
Ca4 N7 2.416169 1_555
Ca4 N15 2.584289 1_565
Ca4 N3 2.599451 1_555
Ca4 N4 2.606420 1_555
Ca4 N10 2.689150 1_555
Ca5 N12 2.457226 1_546
Ca5 N3 2.514381 1_555
Ca5 N14 2.521846 1_545
Ca5 N0 2.523779 1_555
Ca5 N10 2.643554 1_545
Ca5 N8 2.721046 1_555
Ca6 N17 2.457226 1_546
Ca6 N6 2.514381 1_555
Ca6 N9 2.521846 1_645
Ca6 N16 2.523779 1_655
Ca6 N10 2.643554 1_545
Ca6 N8 2.721046 1_555
Ca7 N0 2.457226 1_564
Ca7 N7 2.514381 1_555
Ca7 N15 2.521846 1_565
Ca7 N12 2.523779 1_555
Ca7 N1 2.643554 1_565
Ca7 N5 2.721046 1_555
Ca8 N15 2.406589 1_555
Ca8 N3 2.416169 1_555
Ca8 N14 2.584289 1_545
Ca8 N7 2.599451 1_555
Ca8 N13 2.606420 1_555
Ca8 N1 2.689150 1_555
Ca9 N16 2.457226 1_564
Ca9 N11 2.514381 1_555
Ca9 N2 2.521846 1_465
Ca9 N17 2.523779 1_455
Ca9 N1 2.643554 1_565
Ca9 N5 2.721046 1_555
Ca10 N9 2.406589 1_655
Ca10 N11 2.416169 1_655
Ca10 N2 2.584289 1_565
Ca10 N6 2.599451 1_555
Ca10 N4 2.606420 1_555
Ca10 N10 2.689150 1_555
Ca11 N16 2.457372 1_555
Ca11 N9 2.459303 1_555
Ca11 N13 2.508365 1_555
Ca11 N17 2.682549 1_456
Ca11 N6 2.815697 1_455
Ca11 N5 2.883334 1_556
Ca12 N2 2.368521 1_565
Ca12 N15 2.368521 1_565
Ca12 N4 2.388868 1_555
Ca12 N17 2.438576 1_555
Ca12 N12 2.438576 1_555
Ca13 N12 2.457372 1_555
Ca13 N15 2.459303 1_555
Ca13 N4 2.508365 1_555
Ca13 N0 2.682549 1_554
Ca13 N7 2.815697 1_555
Ca13 N8 2.883334 1_554
Hf0 N4 1.988788 1_555
Hf0 N2 2.107397 1_555
Hf0 N15 2.107397 1_555
Hf0 N6 2.334941 1_555
Hf0 N3 2.334941 1_555
Hf1 N13 1.988788 1_555
Hf1 N14 2.107397 1_555
Hf1 N9 2.107397 1_555
Hf1 N7 2.334941 1_555
Hf1 N11 2.334941 1_555
Cr0 N0 1.777339 1_554
Cr0 N16 1.777339 1_554
Cr0 N1 1.868794 1_555
Cr0 N5 1.871175 1_555
Cr1 N6 1.749899 1_555
Cr1 N3 1.749899 1_555
Cr1 N8 1.864535 1_555
Cr1 N10 1.868847 1_555
Cr2 N17 1.777339 1_556
Cr2 N12 1.777339 1_556
Cr2 N10 1.868794 1_555
Cr2 N8 1.871175 1_555
Cr3 N7 1.749899 1_555
Cr3 N11 1.749899 1_555
Cr3 N5 1.864535 1_555
Cr3 N1 1.868847 1_555
