# generated using pymatgen
data_Y2Ru3W
_symmetry_space_group_name_H-M   'P 1'
_cell_length_a   5.16359627
_cell_length_b   5.16359614
_cell_length_c   5.16359677
_cell_angle_alpha   65.86344193
_cell_angle_beta   65.86344262
_cell_angle_gamma   65.86343967
_symmetry_Int_Tables_number   1
_chemical_formula_structural   Y2Ru3W
_chemical_formula_sum   'Y2 Ru3 W1'
_cell_volume   109.71967592
_cell_formula_units_Z   1
loop_
 _symmetry_equiv_pos_site_id
 _symmetry_equiv_pos_as_xyz
  1  'x, y, z'
loop_
 _atom_site_type_symbol
 _atom_site_label
 _atom_site_symmetry_multiplicity
 _atom_site_fract_x
 _atom_site_fract_y
 _atom_site_fract_z
 _atom_site_occupancy
  Y  Y0  1  0.12755380  0.12755380  0.12755380  1
  Y  Y1  1  0.87244620  0.87244620  0.87244620  1
  Ru  Ru0  1  0.50000000  0.00000000  0.50000000  1
  Ru  Ru1  1  0.00000000  0.50000000  0.50000000  1
  Ru  Ru2  1  0.50000000  0.50000000  0.00000000  1
  W  W0  1  0.50000000  0.50000000  0.50000000  1
loop_
_geom_bond_atom_site_label_1
_geom_bond_atom_site_label_2
_geom_bond_distance
_geom_bond_site_symmetry_2
Y0 Y1 3.076185 1_444
Y0 Y1 3.375860 1_454
Y0 Y1 3.375860 1_544
Y0 Y1 3.375861 1_445
Ru0 W0 2.581798 1_555
Ru0 W0 2.581798 1_545
Ru0 Ru1 2.807133 1_555
Ru0 Ru1 2.807133 1_645
Ru0 Ru2 2.807133 1_555
Ru0 Ru2 2.807133 1_546
Ru0 Y1 2.963757 1_545
Ru0 Y0 2.963757 1_555
Ru0 Y0 3.200895 1_655
Ru0 Y1 3.200895 1_445
Ru0 Y0 3.200895 1_556
Ru0 Y1 3.200895 1_544
Ru1 W0 2.581798 1_555
Ru1 W0 2.581798 1_455
Ru1 Ru2 2.807134 1_456
Ru1 Ru2 2.807134 1_555
Ru1 Y1 2.963757 1_455
Ru1 Y0 2.963757 1_555
Ru1 Y0 3.200895 1_565
Ru1 Y1 3.200895 1_445
Ru1 Y0 3.200895 1_556
Ru1 Y1 3.200895 1_454
Ru2 W0 2.581798 1_554
Ru2 W0 2.581798 1_555
Ru2 Y1 2.963757 1_554
Ru2 Y0 2.963757 1_555
Ru2 Y0 3.200894 1_565
Ru2 Y1 3.200894 1_544
Ru2 Y0 3.200895 1_655
Ru2 Y1 3.200895 1_454
W0 Y1 3.275531 1_545
W0 Y0 3.275531 1_565
W0 Y1 3.275531 1_455
W0 Y0 3.275531 1_655
W0 Y1 3.275532 1_554
W0 Y0 3.275532 1_556
