# generated using pymatgen
data_YZrNbFe9
_symmetry_space_group_name_H-M   'P 1'
_cell_length_a   4.99318332
_cell_length_b   4.99318302
_cell_length_c   8.47660327
_cell_angle_alpha   72.87080135
_cell_angle_beta   72.87080090
_cell_angle_gamma   60.00001096
_symmetry_Int_Tables_number   1
_chemical_formula_structural   YZrNbFe9
_chemical_formula_sum   'Y1 Zr1 Nb1 Fe9'
_cell_volume   172.11420480
_cell_formula_units_Z   1
loop_
 _symmetry_equiv_pos_site_id
 _symmetry_equiv_pos_as_xyz
  1  'x, y, z'
loop_
 _atom_site_type_symbol
 _atom_site_label
 _atom_site_symmetry_multiplicity
 _atom_site_fract_x
 _atom_site_fract_y
 _atom_site_fract_z
 _atom_site_occupancy
  Y  Y0  1  0.00069029  0.00069029  0.99793012  1
  Zr  Zr0  1  0.85665541  0.85665541  0.43003478  1
  Nb  Nb0  1  0.14318805  0.14318805  0.57043585  1
  Fe  Fe0  1  0.08266336  0.58564193  0.74605179  1
  Fe  Fe1  1  0.58564193  0.58564193  0.74605179  1
  Fe  Fe2  1  0.58564193  0.08266336  0.74605179  1
  Fe  Fe3  1  0.91715169  0.41427536  0.25429959  1
  Fe  Fe4  1  0.41427536  0.41427536  0.25429959  1
  Fe  Fe5  1  0.41427536  0.91715169  0.25429959  1
  Fe  Fe6  1  0.33301696  0.33301696  0.00094913  1
  Fe  Fe7  1  0.66701231  0.66701231  0.99896407  1
  Fe  Fe8  1  0.49978836  0.49978836  0.50063491  1
loop_
_geom_bond_atom_site_label_1
_geom_bond_atom_site_label_2
_geom_bond_distance
_geom_bond_site_symmetry_2
Y0 Zr0 3.444451 1_446
Nb0 Zr0 3.092439 1_445
Nb0 Zr0 3.092444 1_455
Nb0 Zr0 3.092444 1_545
Nb0 Y0 3.407700 1_555
Fe0 Fe8 2.435077 1_555
Fe0 Fe7 2.473342 1_455
Fe0 Fe1 2.481719 1_455
Fe0 Fe2 2.481719 1_465
Fe0 Fe6 2.496196 1_556
Fe0 Fe1 2.511464 1_555
Fe0 Fe2 2.511465 1_555
Fe0 Nb0 2.862295 1_555
Fe0 Nb0 2.862299 1_565
Fe0 Zr0 2.898054 1_455
Fe0 Y0 3.203795 1_555
Fe0 Y0 3.203803 1_565
Fe1 Fe8 2.435074 1_555
Fe1 Fe7 2.473347 1_555
Fe1 Fe2 2.481719 1_565
Fe1 Fe6 2.496193 1_556
Fe1 Fe2 2.511464 1_555
Fe1 Nb0 2.862297 1_655
Fe1 Nb0 2.862297 1_565
Fe1 Zr0 2.898058 1_555
Fe1 Y0 3.203800 1_565
Fe1 Y0 3.203800 1_655
Fe2 Fe8 2.435077 1_555
Fe2 Fe7 2.473342 1_545
Fe2 Fe6 2.496196 1_556
Fe2 Nb0 2.862295 1_555
Fe2 Nb0 2.862299 1_655
Fe2 Zr0 2.898054 1_545
Fe2 Y0 3.203795 1_555
Fe2 Y0 3.203803 1_655
Fe3 Fe8 2.440788 1_555
Fe3 Fe6 2.476360 1_655
Fe3 Fe4 2.482230 1_655
Fe3 Fe5 2.482230 1_645
Fe3 Fe7 2.498869 1_554
Fe3 Fe4 2.510954 1_555
Fe3 Fe5 2.510954 1_555
Fe3 Zr0 2.862759 1_555
Fe3 Zr0 2.862763 1_545
Fe3 Nb0 2.899026 1_655
Fe3 Y0 3.226353 1_664
Fe3 Y0 3.226357 1_654
Fe4 Fe8 2.440783 1_555
Fe4 Fe6 2.476365 1_555
Fe4 Fe5 2.482229 1_545
Fe4 Fe7 2.498866 1_554
Fe4 Fe5 2.510954 1_555
Fe4 Zr0 2.862762 1_455
Fe4 Zr0 2.862762 1_545
Fe4 Nb0 2.899030 1_555
Fe4 Y0 3.226355 1_654
Fe4 Y0 3.226355 1_564
Fe5 Fe8 2.440788 1_555
Fe5 Fe6 2.476360 1_565
Fe5 Fe7 2.498869 1_554
Fe5 Zr0 2.862759 1_555
Fe5 Zr0 2.862763 1_455
Fe5 Nb0 2.899026 1_565
Fe5 Y0 3.226353 1_664
Fe5 Y0 3.226357 1_564
Fe6 Y0 2.882913 1_554
Fe6 Y0 2.882918 1_564
Fe6 Y0 2.882918 1_654
Fe7 Y0 2.882827 1_665
Fe7 Y0 2.882828 1_655
Fe7 Y0 2.882828 1_565
Fe8 Nb0 2.936020 1_555
Fe8 Nb0 2.936020 1_565
Fe8 Nb0 2.936021 1_655
Fe8 Zr0 2.937233 1_545
Fe8 Zr0 2.937233 1_455
Fe8 Zr0 2.937237 1_555
