# generated using pymatgen
data_Y2MnRu3
_symmetry_space_group_name_H-M   'P 1'
_cell_length_a   5.30157188
_cell_length_b   5.30157169
_cell_length_c   5.30157269
_cell_angle_alpha   60.77547215
_cell_angle_beta   60.77547234
_cell_angle_gamma   60.77547925
_symmetry_Int_Tables_number   1
_chemical_formula_structural   Y2MnRu3
_chemical_formula_sum   'Y2 Mn1 Ru3'
_cell_volume   107.20888931
_cell_formula_units_Z   1
loop_
 _symmetry_equiv_pos_site_id
 _symmetry_equiv_pos_as_xyz
  1  'x, y, z'
loop_
 _atom_site_type_symbol
 _atom_site_label
 _atom_site_symmetry_multiplicity
 _atom_site_fract_x
 _atom_site_fract_y
 _atom_site_fract_z
 _atom_site_occupancy
  Y  Y0  1  0.62347788  0.62347788  0.62347788  1
  Y  Y1  1  0.37652212  0.37652212  0.37652212  1
  Mn  Mn0  1  0.00000000  0.00000000  0.00000000  1
  Ru  Ru0  1  0.00000000  0.50000000  0.00000000  1
  Ru  Ru1  1  0.50000000  0.00000000  0.00000000  1
  Ru  Ru2  1  0.00000000  0.00000000  0.50000000  1
loop_
_geom_bond_atom_site_label_1
_geom_bond_atom_site_label_2
_geom_bond_distance
_geom_bond_site_symmetry_2
Y0 Y1 3.188080 1_555
Y0 Y1 3.291322 1_565
Y0 Y1 3.291322 1_655
Y0 Y1 3.291323 1_556
Mn0 Ru0 2.650786 1_555
Mn0 Ru0 2.650786 1_545
Mn0 Ru1 2.650786 1_555
Mn0 Ru1 2.650786 1_455
Mn0 Ru2 2.650786 1_554
Mn0 Ru2 2.650786 1_555
Mn0 Y1 3.146463 1_554
Mn0 Y0 3.146463 1_445
Mn0 Y1 3.146463 1_545
Mn0 Y0 3.146463 1_454
Mn0 Y1 3.146463 1_455
Mn0 Y0 3.146463 1_544
Ru0 Ru2 2.681796 1_564
Ru0 Ru2 2.681796 1_555
Ru0 Ru1 2.681796 1_555
Ru0 Ru1 2.681796 1_465
Ru0 Y0 3.119774 1_554
Ru0 Y1 3.119774 1_455
Ru0 Y0 3.119775 1_455
Ru0 Y1 3.119775 1_554
Ru0 Y1 3.120376 1_555
Ru0 Y0 3.120376 1_454
Ru1 Ru2 2.681796 1_555
Ru1 Ru2 2.681796 1_654
Ru1 Y0 3.119774 1_554
Ru1 Y1 3.119774 1_545
Ru1 Y0 3.119775 1_545
Ru1 Y1 3.119775 1_554
Ru1 Y1 3.120376 1_555
Ru1 Y0 3.120376 1_544
Ru2 Y0 3.119774 1_455
Ru2 Y1 3.119774 1_545
Ru2 Y0 3.119774 1_545
Ru2 Y1 3.119774 1_455
Ru2 Y1 3.120375 1_555
Ru2 Y0 3.120375 1_445
