# generated using pymatgen
data_AlZn21(PdRh)2
_symmetry_space_group_name_H-M   'P 1'
_cell_length_a   7.80801108
_cell_length_b   7.83021142
_cell_length_c   7.79823952
_cell_angle_alpha   109.54869800
_cell_angle_beta   109.43324405
_cell_angle_gamma   109.54000712
_symmetry_Int_Tables_number   1
_chemical_formula_structural   AlZn21(PdRh)2
_chemical_formula_sum   'Al1 Zn21 Pd2 Rh2'
_cell_volume   366.52738054
_cell_formula_units_Z   1
loop_
 _symmetry_equiv_pos_site_id
 _symmetry_equiv_pos_as_xyz
  1  'x, y, z'
loop_
 _atom_site_type_symbol
 _atom_site_label
 _atom_site_symmetry_multiplicity
 _atom_site_fract_x
 _atom_site_fract_y
 _atom_site_fract_z
 _atom_site_occupancy
  Al  Al0  1  0.99374999  0.78973710  0.00000000  1
  Zn  Zn0  1  0.78212359  0.00179644  1.00000000  1
  Zn  Zn1  1  0.99826576  0.00167628  0.78104667  1
  Zn  Zn2  1  0.21721909  0.22062962  0.21895333  1
  Zn  Zn3  1  0.35628692  0.61962111  0.35299098  1
  Zn  Zn4  1  0.26914298  0.00265877  0.64957027  1
  Zn  Zn5  1  0.65323832  0.00246786  0.27367841  1
  Zn  Zn6  1  0.27359113  0.64862088  0.00000000  1
  Zn  Zn7  1  0.73382229  0.73310670  0.38262759  1
  Zn  Zn8  1  0.37956091  0.72879045  0.72632159  1
  Zn  Zn9  1  0.00255901  0.64976309  0.27514783  1
  Zn  Zn10  1  0.00329594  0.26663013  0.64700902  1
  Zn  Zn11  1  0.64795743  0.27077193  1.00000000  1
  Zn  Zn12  1  0.35119469  0.35047911  0.61737241  1
  Zn  Zn13  1  0.61957271  0.35308950  0.35042973  1
  Zn  Zn14  1  0.72741118  0.37461627  0.72485217  1
  Zn  Zn15  1  0.35553556  0.35438748  0.00000000  1
  Zn  Zn16  1  0.00029628  0.64025528  0.64082777  1
  Zn  Zn17  1  0.99459119  0.35198345  0.35374086  1
  Zn  Zn18  1  0.35946952  0.99942751  0.35917223  1
  Zn  Zn19  1  0.64085032  0.99824259  0.64625914  1
  Zn  Zn20  1  0.63400208  0.64380251  0.00000000  1
  Pd  Pd0  1  0.00091800  0.35081575  1.00000000  1
  Pd  Pd1  1  0.34021924  0.99519431  0.00000000  1
  Rh  Rh0  1  0.00116780  0.99432180  0.33720574  1
  Rh  Rh1  1  0.66396206  0.65711606  0.66279426  1
loop_
_geom_bond_atom_site_label_1
_geom_bond_atom_site_label_2
_geom_bond_distance
_geom_bond_site_symmetry_2
Al0 Rh0 2.549893 1_655
Al0 Rh1 2.549893 1_554
Al0 Pd1 2.644843 1_655
Al0 Zn20 2.654934 1_555
Al0 Zn16 2.675641 1_654
Al0 Zn18 2.675645 1_655
Al0 Zn0 2.706083 1_564
Al0 Zn14 2.708486 1_554
Al0 Zn9 2.708491 1_655
Al0 Zn2 2.750973 1_665
Al0 Zn1 2.750973 1_564
Al0 Zn6 2.758665 1_655
Zn0 Zn17 2.594317 1_556
Zn0 Zn19 2.594317 1_545
Zn0 Zn8 2.644377 1_545
Zn0 Zn5 2.644383 1_556
Zn0 Zn11 2.647468 1_555
Zn0 Zn20 2.650788 1_546
Zn0 Zn1 2.771452 1_555
Zn0 Zn2 2.771452 1_656
Zn1 Zn7 2.606354 1_545
Zn1 Zn10 2.611951 1_655
Zn1 Zn15 2.616455 1_656
Zn1 Zn19 2.621562 1_545
Zn1 Zn4 2.638539 1_655
Zn1 Zn16 2.678710 1_645
Zn1 Zn2 2.785704 1_656
Zn2 Zn3 2.611951 1_555
Zn3 Zn8 2.667983 1_555
Zn3 Zn7 2.681338 1_555
Zn3 Zn6 2.716534 1_555
Zn3 Zn9 2.732884 1_555
Zn4 Zn9 2.683763 1_545
Zn4 Zn8 2.729925 1_545
Zn5 Zn7 2.701386 1_545
Zn5 Zn6 2.712501 1_545
Zn6 Zn8 2.712508 1_554
Zn7 Zn9 2.692854 1_655
Zn10 Zn17 2.575145 1_455
Zn10 Zn5 2.667986 1_455
Zn10 Zn12 2.681338 1_555
Zn10 Zn6 2.716534 1_556
Zn10 Zn14 2.732888 1_455
Zn10 Zn15 2.836535 1_556
Zn10 Zn19 2.903049 1_445
Zn10 Zn16 2.949789 1_555
Zn11 Zn15 2.577169 1_556
Zn11 Zn13 2.692995 1_556
Zn11 Zn4 2.692995 1_555
Zn11 Zn9 2.714000 1_656
Zn11 Zn14 2.714004 1_555
Zn11 Zn19 2.836545 1_545
Zn11 Zn17 2.836545 1_556
Zn11 Zn20 2.959135 1_556
Zn12 Zn20 2.586747 1_556
Zn12 Zn2 2.606354 1_555
Zn12 Zn14 2.692851 1_555
Zn12 Zn4 2.699718 1_555
Zn12 Zn8 2.701390 1_555
Zn12 Zn18 2.848817 1_545
Zn12 Zn17 2.865050 1_455
Zn12 Zn15 2.962462 1_556
Zn13 Zn16 2.581233 1_655
Zn13 Zn2 2.638538 1_555
Zn13 Zn14 2.683763 1_555
Zn13 Zn7 2.699710 1_555
Zn13 Zn5 2.729936 1_555
Zn13 Zn15 2.828767 1_555
Zn13 Zn18 2.873027 1_545
Zn13 Zn17 2.922601 1_555
Zn14 Zn19 2.588618 1_545
Zn14 Zn16 2.858689 1_655
Zn14 Zn18 2.883148 1_545
Zn14 Zn20 2.936265 1_556
Zn15 Zn20 2.562619 1_555
Zn15 Zn6 2.589100 1_555
Zn15 Zn2 2.616455 1_555
Zn15 Zn4 2.828771 1_554
Zn15 Zn3 2.836535 1_555
Zn15 Zn7 2.962462 1_555
Zn16 Zn17 2.567824 1_455
Zn16 Zn8 2.588068 1_555
Zn16 Zn7 2.848813 1_455
Zn16 Zn6 2.865224 1_556
Zn16 Zn4 2.873024 1_565
Zn16 Zn9 2.883147 1_555
Zn17 Zn9 2.588611 1_655
Zn17 Zn2 2.621562 1_655
Zn17 Zn5 2.802386 1_555
Zn17 Zn3 2.903049 1_655
Zn17 Zn8 2.949823 1_655
Zn18 Zn19 2.567820 1_555
Zn18 Zn4 2.581239 1_565
Zn18 Zn5 2.588055 1_565
Zn18 Zn2 2.678714 1_565
Zn18 Zn9 2.858698 1_555
Zn18 Zn6 2.865220 1_555
Zn18 Zn3 2.949786 1_555
Zn19 Zn3 2.575145 1_555
Zn19 Zn8 2.802378 1_555
Zn19 Zn7 2.865050 1_555
Zn19 Zn4 2.922599 1_565
Zn19 Zn5 2.949817 1_565
Zn20 Zn7 2.586747 1_555
Zn20 Zn5 2.821006 1_565
Zn20 Zn8 2.821007 1_554
Zn20 Zn6 2.826935 1_555
Zn20 Zn9 2.936269 1_655
Pd0 Zn6 2.578651 1_556
Pd0 Zn9 2.585328 1_556
Pd0 Zn14 2.585333 1_455
Pd0 Zn11 2.613901 1_455
Pd0 Zn10 2.615367 1_555
Pd0 Zn3 2.615367 1_556
Pd0 Zn1 2.684110 1_455
Pd0 Zn2 2.684111 1_556
Pd0 Zn0 2.695202 1_455
Pd0 Zn15 2.759630 1_556
Pd0 Zn17 2.772410 1_456
Pd0 Zn19 2.772410 1_445
Pd1 Zn6 2.586632 1_555
Pd1 Zn5 2.624148 1_565
Pd1 Zn8 2.624148 1_554
Pd1 Zn4 2.626534 1_564
Pd1 Zn13 2.626537 1_565
Pd1 Zn11 2.638459 1_564
Pd1 Zn2 2.676163 1_565
Pd1 Zn1 2.676163 1_464
Pd1 Zn18 2.742844 1_555
Pd1 Zn16 2.742846 1_554
Pd1 Zn15 2.774849 1_565
Rh0 Zn9 2.581217 1_555
Rh0 Zn4 2.593556 1_565
Rh0 Zn7 2.605223 1_455
Rh0 Zn12 2.621231 1_565
Rh0 Zn5 2.621285 1_465
Rh0 Zn10 2.624045 1_565
Rh0 Zn2 2.639186 1_565
Rh0 Zn0 2.649661 1_464
Rh0 Zn18 2.731181 1_555
Rh0 Zn20 2.748983 1_455
Rh0 Zn17 2.778736 1_465
Rh1 Zn14 2.581209 1_555
Rh1 Zn13 2.593552 1_555
Rh1 Zn12 2.605223 1_555
Rh1 Zn7 2.621231 1_555
Rh1 Zn8 2.621281 1_555
Rh1 Zn3 2.624045 1_555
Rh1 Zn1 2.639186 1_565
Rh1 Zn0 2.649660 1_565
Rh1 Zn16 2.731173 1_655
Rh1 Zn20 2.748983 1_556
Rh1 Zn19 2.778736 1_555
