# generated using pymatgen
data_Na3LiH6Os
_symmetry_space_group_name_H-M   'P 1'
_cell_length_a   6.21050512
_cell_length_b   6.21050547
_cell_length_c   6.21050582
_cell_angle_alpha   93.09072701
_cell_angle_beta   93.09072458
_cell_angle_gamma   93.09071718
_symmetry_Int_Tables_number   1
_chemical_formula_structural   Na3LiH6Os
_chemical_formula_sum   'Na6 Li2 H12 Os2'
_cell_volume   238.45700217
_cell_formula_units_Z   2
loop_
 _symmetry_equiv_pos_site_id
 _symmetry_equiv_pos_as_xyz
  1  'x, y, z'
loop_
 _atom_site_type_symbol
 _atom_site_label
 _atom_site_symmetry_multiplicity
 _atom_site_fract_x
 _atom_site_fract_y
 _atom_site_fract_z
 _atom_site_occupancy
  Na  Na0  1  0.88729865  0.61270135  0.25000000  1
  Na  Na1  1  0.25000000  0.88729865  0.61270135  1
  Na  Na2  1  0.61270135  0.25000000  0.88729865  1
  Na  Na3  1  0.75000000  0.11270135  0.38729865  1
  Na  Na4  1  0.38729865  0.75000000  0.11270135  1
  Na  Na5  1  0.11270135  0.38729865  0.75000000  1
  Li  Li0  1  0.25000000  0.25000000  0.25000000  1
  Li  Li1  1  0.75000000  0.75000000  0.75000000  1
  H  H0  1  0.23338343  0.53958786  0.42404893  1
  H  H1  1  0.42404893  0.23338343  0.53958786  1
  H  H2  1  0.53958786  0.42404893  0.23338343  1
  H  H3  1  0.92404893  0.03958786  0.73338343  1
  H  H4  1  0.73338343  0.92404893  0.03958786  1
  H  H5  1  0.03958786  0.73338343  0.92404893  1
  H  H6  1  0.76661657  0.46041214  0.57595107  1
  H  H7  1  0.57595107  0.76661657  0.46041214  1
  H  H8  1  0.46041214  0.57595107  0.76661657  1
  H  H9  1  0.07595107  0.96041214  0.26661657  1
  H  H10  1  0.26661657  0.07595107  0.96041214  1
  H  H11  1  0.96041214  0.26661657  0.07595107  1
  Os  Os0  1  0.50000000  0.50000000  0.50000000  1
  Os  Os1  1  0.00000000  0.00000000  0.00000000  1
loop_
_geom_bond_atom_site_label_1
_geom_bond_atom_site_label_2
_geom_bond_distance
_geom_bond_site_symmetry_2
H0 Os0 1.731149 1_555
H0 Li0 2.058161 1_555
H0 Na1 2.395147 1_555
H0 Na5 2.418217 1_555
H0 Na0 2.429400 1_455
H0 Na4 2.587927 1_555
H1 Os0 1.731149 1_555
H1 Li0 2.058161 1_555
H1 Na2 2.395147 1_555
H1 Na3 2.418216 1_555
H1 Na1 2.429400 1_545
H1 Na5 2.587927 1_555
H2 Os0 1.731149 1_555
H2 Li0 2.058161 1_555
H2 Na0 2.395147 1_555
H2 Na4 2.418216 1_555
H2 Na2 2.429400 1_554
H2 Na3 2.587927 1_555
H3 Os1 1.731149 1_656
H3 Li1 2.058161 1_545
H3 Na5 2.395147 1_655
H3 Na1 2.418216 1_645
H3 Na3 2.429400 1_555
H3 Na2 2.587927 1_555
H4 Os1 1.731149 1_665
H4 Li1 2.058161 1_554
H4 Na3 2.395147 1_565
H4 Na2 2.418217 1_564
H4 Na4 2.429400 1_555
H4 Na0 2.587927 1_555
H5 Os1 1.731149 1_566
H5 Li1 2.058161 1_455
H5 Na4 2.395147 1_556
H5 Na0 2.418217 1_456
H5 Na5 2.429400 1_555
H5 Na1 2.587927 1_555
H6 Os0 1.731149 1_555
H6 Li1 2.058161 1_555
H6 Na3 2.395147 1_555
H6 Na0 2.418217 1_555
H6 Na5 2.429400 1_655
H6 Na2 2.587927 1_555
H7 Os0 1.731149 1_555
H7 Li1 2.058161 1_555
H7 Na4 2.395147 1_555
H7 Na1 2.418216 1_555
H7 Na3 2.429400 1_565
H7 Na0 2.587927 1_555
H8 Os0 1.731149 1_555
H8 Li1 2.058161 1_555
H8 Na5 2.395147 1_555
H8 Na2 2.418216 1_555
H8 Na4 2.429400 1_556
H8 Na1 2.587927 1_555
H9 Os1 1.731149 1_565
H9 Li0 2.058161 1_565
H9 Na0 2.395147 1_455
H9 Na3 2.418216 1_465
H9 Na1 2.429400 1_555
H9 Na4 2.587927 1_555
H10 Os1 1.731149 1_556
H10 Li0 2.058161 1_556
H10 Na1 2.395147 1_545
H10 Na4 2.418217 1_546
H10 Na2 2.429400 1_555
H10 Na5 2.587927 1_555
H11 Os1 1.731149 1_655
H11 Li0 2.058161 1_655
H11 Na2 2.395147 1_554
H11 Na5 2.418217 1_654
H11 Na0 2.429400 1_555
H11 Na3 2.587927 1_555
