# generated using pymatgen
data_Rb3B7O12
_symmetry_space_group_name_H-M   'P 1'
_cell_length_a   6.68190300
_cell_length_b   6.71587826
_cell_length_c   30.62288031
_cell_angle_alpha   91.10223997
_cell_angle_beta   91.75308443
_cell_angle_gamma   119.06726492
_symmetry_Int_Tables_number   1
_chemical_formula_structural   Rb3B7O12
_chemical_formula_sum   'Rb12 B28 O48'
_cell_volume   1199.63984256
_cell_formula_units_Z   4
loop_
 _symmetry_equiv_pos_site_id
 _symmetry_equiv_pos_as_xyz
  1  'x, y, z'
loop_
 _atom_site_type_symbol
 _atom_site_label
 _atom_site_symmetry_multiplicity
 _atom_site_fract_x
 _atom_site_fract_y
 _atom_site_fract_z
 _atom_site_occupancy
  Rb  Rb0  1  0.60745300  0.87427000  0.84992200  1
  Rb  Rb1  1  0.39254700  0.12573000  0.15007800  1
  Rb  Rb2  1  0.02812500  0.63770300  0.80705700  1
  Rb  Rb3  1  0.97187500  0.36229700  0.19294300  1
  Rb  Rb4  1  0.31587200  0.23891300  0.64122400  1
  Rb  Rb5  1  0.68412800  0.76108700  0.35877600  1
  Rb  Rb6  1  0.03786800  0.65496200  0.69244600  1
  Rb  Rb7  1  0.96213200  0.34503800  0.30755400  1
  Rb  Rb8  1  0.41083300  0.21377400  0.52290400  1
  Rb  Rb9  1  0.58916700  0.78622600  0.47709600  1
  Rb  Rb10  1  0.66488500  0.79481400  0.97407500  1
  Rb  Rb11  1  0.33511500  0.20518600  0.02592500  1
  B  B0  1  0.61182500  0.79839500  0.65282900  1
  B  B1  1  0.38817500  0.20160500  0.34717100  1
  B  B2  1  0.94966100  0.15441800  0.74842500  1
  B  B3  1  0.05033900  0.84558200  0.25157500  1
  B  B4  1  0.63079700  0.75068400  0.73912300  1
  B  B5  1  0.36920300  0.24931600  0.26087700  1
  B  B6  1  0.55176600  0.08059200  0.73871300  1
  B  B7  1  0.44823400  0.91940800  0.26128700  1
  B  B8  1  0.22897000  0.06493000  0.41913100  1
  B  B9  1  0.77103000  0.93507000  0.58086900  1
  B  B10  1  0.82463200  0.61919600  0.09448500  1
  B  B11  1  0.17536800  0.38080400  0.90551500  1
  B  B12  1  0.05591700  0.32771200  0.42856000  1
  B  B13  1  0.94408300  0.67228800  0.57144000  1
  B  B14  1  0.35005000  0.75219000  0.58751500  1
  B  B15  1  0.64995000  0.24781000  0.41248500  1
  B  B16  1  0.78243300  0.30166100  0.92992300  1
  B  B17  1  0.21756700  0.69833900  0.07007700  1
  B  B18  1  0.30603300  0.22518500  0.84500700  1
  B  B19  1  0.69396700  0.77481500  0.15499300  1
  B  B20  1  0.38488600  0.32492100  0.76222400  1
  B  B21  1  0.61511400  0.67507900  0.23777600  1
  B  B22  1  0.03080800  0.36209900  0.56601400  1
  B  B23  1  0.96919200  0.63790100  0.43398600  1
  B  B24  1  0.66159600  0.87871000  0.07796300  1
  B  B25  1  0.33840400  0.12129000  0.92203700  1
  B  B26  1  0.09551700  0.69472700  0.93223100  1
  B  B27  1  0.90448300  0.30527300  0.06776900  1
  O  O0  1  0.63413800  0.70669300  0.69143100  1
  O  O1  1  0.36586200  0.29330700  0.30856900  1
  O  O2  1  0.39314700  0.73025100  0.63531700  1
  O  O3  1  0.60685300  0.26974900  0.36468300  1
  O  O4  1  0.37652000  0.21483900  0.80403400  1
  O  O5  1  0.62348000  0.78516100  0.19596600  1
  O  O6  1  0.32349400  0.07716600  0.87379500  1
  O  O7  1  0.67650600  0.92283400  0.12620500  1
  O  O8  1  0.96870100  0.13695300  0.56400900  1
  O  O9  1  0.03129900  0.86304700  0.43599100  1
  O  O10  1  0.57606500  0.55659500  0.76485600  1
  O  O11  1  0.42393500  0.44340500  0.23514400  1
  O  O12  1  0.16945000  0.32737700  0.75027500  1
  O  O13  1  0.83055000  0.67262300  0.24972500  1
  O  O14  1  0.78925900  0.23095000  0.73970200  1
  O  O15  1  0.21074100  0.76905000  0.26029800  1
  O  O16  1  0.86747000  0.53353900  0.94032000  1
  O  O17  1  0.13253000  0.46646100  0.05968000  1
  O  O18  1  0.87412500  0.92859200  0.75467700  1
  O  O19  1  0.12587500  0.07140800  0.24532300  1
  O  O20  1  0.56285400  0.14658700  0.93912700  1
  O  O21  1  0.43714600  0.85341300  0.06087300  1
  O  O22  1  0.47390600  0.85328000  0.74557200  1
  O  O23  1  0.52609400  0.14672000  0.25442800  1
  O  O24  1  0.19681800  0.06376600  0.36997600  1
  O  O25  1  0.80318200  0.93623400  0.63002400  1
  O  O26  1  0.13096400  0.56341000  0.43280000  1
  O  O27  1  0.86903600  0.43659000  0.56720000  1
  O  O28  1  0.26019200  0.51786700  0.56674500  1
  O  O29  1  0.73980800  0.48213300  0.43325500  1
  O  O30  1  0.84649700  0.08482000  0.05779500  1
  O  O31  1  0.15350300  0.91518000  0.94220500  1
  O  O32  1  0.22030700  0.36713300  0.85774600  1
  O  O33  1  0.77969300  0.63286700  0.14225400  1
  O  O34  1  0.16836000  0.82181600  0.58374700  1
  O  O35  1  0.83164000  0.17818400  0.41625300  1
  O  O36  1  0.44665700  0.08088600  0.43228900  1
  O  O37  1  0.55334300  0.91911400  0.56771100  1
  O  O38  1  0.23892500  0.62471100  0.91495800  1
  O  O39  1  0.76107500  0.37528900  0.08504200  1
  O  O40  1  0.22173000  0.27075000  0.43707400  1
  O  O41  1  0.77827000  0.72925000  0.56292600  1
  O  O42  1  0.92188300  0.22944900  0.91136100  1
  O  O43  1  0.07811700  0.77055100  0.08863900  1
  O  O44  1  0.40734600  0.16570700  0.72881000  1
  O  O45  1  0.59265400  0.83429300  0.27119000  1
  O  O46  1  0.68511500  0.67992400  0.06685600  1
  O  O47  1  0.31488500  0.32007600  0.93314400  1
loop_
_geom_bond_atom_site_label_1
_geom_bond_atom_site_label_2
_geom_bond_distance
_geom_bond_site_symmetry_2
B0 O0 1.380336 1_555
B0 O25 1.381639 1_555
B0 O2 1.387421 1_555
B1 O1 1.380336 1_555
B1 O24 1.381639 1_555
B1 O3 1.387421 1_555
B2 O12 1.357968 1_655
B2 O18 1.365588 1_545
B2 O14 1.416793 1_555
B3 O13 1.357968 1_455
B3 O19 1.365588 1_565
B3 O15 1.416793 1_555
B4 O10 1.430989 1_555
B4 O0 1.487463 1_555
B4 O22 1.523825 1_555
B4 O18 1.530062 1_555
B5 O11 1.430989 1_555
B5 O1 1.487463 1_555
B5 O23 1.523825 1_555
B5 O19 1.530062 1_555
B6 O44 1.369196 1_555
B6 O22 1.375715 1_545
B6 O14 1.406305 1_555
B7 O45 1.369196 1_555
B7 O23 1.375715 1_565
B7 O15 1.406305 1_555
B8 O36 1.449352 1_555
B8 O9 1.475795 1_545
B8 O40 1.500761 1_555
B8 O24 1.513333 1_555
B9 O37 1.449352 1_555
B9 O8 1.475795 1_565
B9 O41 1.500761 1_555
B9 O25 1.513333 1_555
B10 O46 1.444198 1_555
B10 O39 1.498499 1_555
B10 O43 1.512204 1_655
B10 O33 1.512266 1_555
B11 O47 1.444198 1_555
B11 O38 1.498499 1_555
B11 O42 1.512204 1_455
B11 O32 1.512266 1_555
B12 O40 1.356417 1_555
B12 O35 1.372908 1_455
B12 O26 1.410950 1_555
B13 O41 1.356417 1_555
B13 O34 1.372908 1_655
B13 O27 1.410950 1_555
B14 O37 1.437575 1_555
B14 O34 1.500317 1_555
B14 O28 1.503845 1_555
B14 O2 1.507044 1_555
B15 O36 1.437575 1_555
B15 O35 1.500317 1_555
B15 O29 1.503845 1_555
B15 O3 1.507044 1_555
B16 O20 1.366973 1_555
B16 O42 1.373834 1_555
B16 O16 1.399776 1_555
B17 O21 1.366973 1_555
B17 O43 1.373834 1_555
B17 O17 1.399776 1_555
B18 O4 1.365855 1_555
B18 O32 1.385297 1_555
B18 O6 1.385312 1_555
B19 O5 1.365855 1_555
B19 O33 1.385297 1_555
B19 O7 1.385312 1_555
B20 O10 1.454914 1_555
B20 O4 1.479730 1_555
B20 O12 1.482385 1_555
B20 O44 1.528423 1_555
B21 O11 1.454914 1_555
B21 O5 1.479730 1_555
B21 O13 1.482385 1_555
B21 O45 1.528423 1_555
B22 O8 1.359208 1_455
B22 O28 1.372266 1_555
B22 O27 1.395416 1_455
B23 O9 1.359208 1_655
B23 O29 1.372266 1_555
B23 O26 1.395416 1_655
B24 O46 1.453385 1_555
B24 O7 1.491860 1_555
B24 O30 1.497248 1_565
B24 O21 1.500997 1_555
B25 O47 1.453385 1_555
B25 O6 1.491860 1_555
B25 O31 1.497248 1_545
B25 O20 1.500997 1_555
B26 O31 1.361384 1_555
B26 O38 1.370538 1_555
B26 O16 1.409165 1_455
B27 O30 1.361384 1_555
B27 O39 1.370538 1_555
B27 O17 1.409165 1_655
O0 Rb6 2.881863 1_655
O0 Rb4 3.142962 1_555
O1 Rb7 2.881863 1_455
O1 Rb5 3.142962 1_555
O2 Rb6 2.841416 1_555
O2 Rb4 3.092074 1_555
O3 Rb7 2.841416 1_555
O3 Rb5 3.092074 1_555
O4 Rb2 3.422078 1_545
O5 Rb3 3.422078 1_565
O6 Rb0 2.924039 1_545
O6 Rb2 3.262489 1_545
O7 Rb1 2.924039 1_565
O7 Rb3 3.262489 1_565
O8 Rb8 3.057767 1_655
O8 Rb4 3.082190 1_655
O9 Rb9 3.057767 1_455
O9 Rb5 3.082190 1_455
O10 Rb2 3.037476 1_655
O10 Rb0 3.271007 1_555
O11 Rb3 3.037476 1_455
O11 Rb1 3.271007 1_555
O12 Rb2 3.183103 1_555
O12 Rb6 3.268532 1_555
O13 Rb3 3.183103 1_555
O13 Rb7 3.268532 1_555
O14 Rb6 2.944790 1_655
O14 Rb2 3.099888 1_655
O15 Rb7 2.944790 1_455
O15 Rb3 3.099888 1_455
O16 Rb10 2.881595 1_555
O17 Rb11 2.881595 1_555
O18 Rb2 3.069381 1_655
O18 Rb6 3.186262 1_655
O18 Rb0 3.397418 1_555
O19 Rb3 3.069381 1_455
O19 Rb7 3.186262 1_455
O19 Rb1 3.397418 1_555
O20 Rb10 2.968000 1_545
O20 Rb11 3.213201 1_556
O21 Rb11 2.968000 1_565
O21 Rb10 3.213201 1_554
O22 Rb6 2.960658 1_555
O22 Rb0 3.273123 1_555
O22 Rb2 3.281975 1_555
O23 Rb7 2.960658 1_555
O23 Rb1 3.273123 1_555
O23 Rb3 3.281975 1_555
O24 Rb5 3.019985 1_445
O25 Rb4 3.019985 1_665
O26 Rb9 2.944341 1_555
O27 Rb8 2.944341 1_555
O28 Rb8 2.993495 1_555
O28 Rb4 3.104791 1_555
O29 Rb9 2.993495 1_555
O29 Rb5 3.104791 1_555
O30 Rb10 3.026506 1_544
O30 Rb11 3.150610 1_655
O31 Rb11 3.026506 1_566
O31 Rb10 3.150610 1_455
O32 Rb2 3.100690 1_555
O32 Rb0 3.139684 1_555
O33 Rb3 3.100690 1_555
O33 Rb1 3.139684 1_555
O34 Rb4 2.989559 1_565
O34 Rb8 3.042206 1_565
O35 Rb5 2.989559 1_545
O35 Rb9 3.042206 1_545
O36 Rb9 2.925926 1_545
O36 Rb8 2.950721 1_555
O37 Rb8 2.925926 1_565
O37 Rb9 2.950721 1_555
O38 Rb10 3.021445 1_555
O38 Rb0 3.042608 1_555
O39 Rb11 3.021445 1_555
O39 Rb1 3.042608 1_555
O40 Rb8 2.992758 1_555
O41 Rb9 2.992758 1_555
O42 Rb0 2.891313 1_545
O42 Rb10 3.271754 1_545
O43 Rb1 2.891313 1_565
O43 Rb11 3.271754 1_565
O44 Rb4 2.837529 1_555
O44 Rb6 3.249173 1_545
O45 Rb5 2.837529 1_555
O45 Rb7 3.249173 1_565
O46 Rb10 2.974617 1_554
O46 Rb11 3.102800 1_555
O47 Rb11 2.974617 1_556
O47 Rb10 3.102800 1_555
