# generated using pymatgen
data_Rb5Sb2Pt
_symmetry_space_group_name_H-M   'P 1'
_cell_length_a   10.35334239
_cell_length_b   10.35334243
_cell_length_c   10.35334230
_cell_angle_alpha   34.58779323
_cell_angle_beta   34.58779582
_cell_angle_gamma   34.58779332
_symmetry_Int_Tables_number   1
_chemical_formula_structural   Rb5Sb2Pt
_chemical_formula_sum   'Rb5 Sb2 Pt1'
_cell_volume   319.09523288
_cell_formula_units_Z   1
loop_
 _symmetry_equiv_pos_site_id
 _symmetry_equiv_pos_as_xyz
  1  'x, y, z'
loop_
 _atom_site_type_symbol
 _atom_site_label
 _atom_site_symmetry_multiplicity
 _atom_site_fract_x
 _atom_site_fract_y
 _atom_site_fract_z
 _atom_site_occupancy
  Rb  Rb0  1  0.21903307  0.21903307  0.21903307  1
  Rb  Rb1  1  0.35909527  0.35909527  0.35909527  1
  Rb  Rb2  1  0.50000000  0.50000000  0.50000000  1
  Rb  Rb3  1  0.64090473  0.64090473  0.64090473  1
  Rb  Rb4  1  0.78096593  0.78096593  0.78096593  1
  Sb  Sb0  1  0.08847276  0.08847276  0.08847276  1
  Sb  Sb1  1  0.91152724  0.91152724  0.91152724  1
  Pt  Pt0  1  0.00000000  0.00000000  0.00000000  1
loop_
_geom_bond_atom_site_label_1
_geom_bond_atom_site_label_2
_geom_bond_distance
_geom_bond_site_symmetry_2
Rb0 Sb1 3.632896 1_454
Rb0 Sb1 3.632896 1_445
Rb0 Sb1 3.632896 1_544
Rb0 Sb0 3.808812 1_555
Rb0 Rb2 3.868336 1_545
Rb0 Rb2 3.868336 1_554
Rb0 Rb2 3.868336 1_455
Rb1 Sb0 3.997139 1_565
Rb1 Sb0 3.997139 1_556
Rb1 Sb0 3.997140 1_655
Rb1 Rb2 4.110588 1_555
Rb2 Rb4 3.868348 1_545
Rb2 Rb4 3.868348 1_554
Rb2 Rb4 3.868348 1_455
Rb2 Rb3 4.110588 1_555
Rb2 Sb1 4.223010 1_545
Rb2 Sb0 4.223010 1_565
Rb2 Sb1 4.223010 1_455
Rb2 Sb0 4.223010 1_655
Rb2 Sb1 4.223010 1_554
Rb2 Sb0 4.223010 1_556
Rb3 Sb1 3.997139 1_545
Rb3 Sb1 3.997139 1_554
Rb3 Sb1 3.997140 1_455
Rb4 Sb0 3.632890 1_656
Rb4 Sb0 3.632890 1_665
Rb4 Sb0 3.632890 1_566
Rb4 Sb1 3.808841 1_555
Pt0 Sb0 2.580999 1_555
Pt0 Sb1 2.580999 1_444
Pt0 Rb1 3.632500 1_545
Pt0 Rb3 3.632500 1_454
Pt0 Rb1 3.632500 1_554
Pt0 Rb3 3.632500 1_445
Pt0 Rb1 3.632500 1_455
Pt0 Rb3 3.632500 1_544
