# generated using pymatgen
data_Hf10Zn2BiPb5
_symmetry_space_group_name_H-M   'P 1'
_cell_length_a   8.69567823
_cell_length_b   8.68887968
_cell_length_c   5.84371983
_cell_angle_alpha   90.00000000
_cell_angle_beta   90.00000000
_cell_angle_gamma   120.02588637
_symmetry_Int_Tables_number   1
_chemical_formula_structural   Hf10Zn2BiPb5
_chemical_formula_sum   'Hf10 Zn2 Bi1 Pb5'
_cell_volume   382.27325815
_cell_formula_units_Z   1
loop_
 _symmetry_equiv_pos_site_id
 _symmetry_equiv_pos_as_xyz
  1  'x, y, z'
loop_
 _atom_site_type_symbol
 _atom_site_label
 _atom_site_symmetry_multiplicity
 _atom_site_fract_x
 _atom_site_fract_y
 _atom_site_fract_z
 _atom_site_occupancy
  Hf  Hf0  1  0.33254048  0.66565321  0.99933883  1
  Hf  Hf1  1  0.66688826  0.33434679  0.50066117  1
  Hf  Hf2  1  0.66688826  0.33434679  0.99933883  1
  Hf  Hf3  1  0.33254048  0.66565321  0.50066117  1
  Hf  Hf4  1  0.26209751  0.00000000  0.25000000  1
  Hf  Hf5  1  0.26350454  0.26352692  0.75000000  1
  Hf  Hf6  1  0.99997762  0.73647308  0.75000000  1
  Hf  Hf7  1  0.00240732  0.26437905  0.25000000  1
  Hf  Hf8  1  0.73802827  0.73562095  0.25000000  1
  Hf  Hf9  1  0.73623192  0.00000000  0.75000000  1
  Zn  Zn0  1  0.99985337  0.00000000  0.99906627  1
  Zn  Zn1  1  0.99985337  0.00000000  0.50093373  1
  Bi  Bi0  1  0.61276059  0.00000000  0.25000000  1
  Pb  Pb0  1  0.61336917  0.61372074  0.75000000  1
  Pb  Pb1  1  0.99964842  0.38627926  0.75000000  1
  Pb  Pb2  1  0.00048416  0.61332731  0.25000000  1
  Pb  Pb3  1  0.38715785  0.38667269  0.25000000  1
  Pb  Pb4  1  0.38576743  0.00000000  0.75000000  1
loop_
_geom_bond_atom_site_label_1
_geom_bond_atom_site_label_2
_geom_bond_distance
_geom_bond_site_symmetry_2
Hf0 Pb1 3.059849 1_455
Hf0 Pb2 3.062010 1_556
Hf0 Pb0 3.064763 1_555
Hf0 Pb3 3.065820 1_556
Hf0 Pb4 3.071027 1_565
Hf1 Pb0 3.059854 1_555
Hf1 Pb3 3.062010 1_555
Hf1 Pb1 3.064756 1_555
Hf1 Pb2 3.065811 1_655
Hf1 Pb4 3.071030 1_555
Hf2 Pb0 3.059854 1_555
Hf2 Pb3 3.062010 1_556
Hf2 Pb1 3.064756 1_555
Hf2 Pb2 3.065811 1_656
Hf2 Pb4 3.071030 1_555
Hf3 Pb1 3.059849 1_455
Hf3 Pb2 3.062010 1_555
Hf3 Pb0 3.064763 1_555
Hf3 Pb3 3.065820 1_555
Hf3 Pb4 3.071027 1_565
Hf4 Zn1 2.711175 1_455
Hf4 Zn0 2.711175 1_454
Hf4 Pb3 2.968842 1_555
Hf4 Pb2 2.968844 1_545
Hf4 Pb4 3.113477 1_555
Hf4 Pb4 3.113477 1_554
Hf5 Zn0 2.713642 1_455
Hf5 Zn1 2.713642 1_455
Hf5 Pb4 2.968089 1_555
Hf5 Pb1 2.975061 1_455
Hf5 Pb0 3.041361 1_555
Hf5 Pb3 3.112380 1_555
Hf5 Pb3 3.112380 1_556
Hf6 Zn0 2.713642 1_565
Hf6 Zn1 2.713642 1_565
Hf6 Pb4 2.968089 1_665
Hf6 Pb0 2.975061 1_555
Hf6 Pb1 3.041361 1_555
Hf6 Pb2 3.112378 1_656
Hf6 Pb2 3.112378 1_655
Hf7 Zn1 2.716001 1_455
Hf7 Zn0 2.716001 1_454
Hf7 Pb3 2.960528 1_555
Hf7 Pb2 3.040372 1_555
Hf7 Pb1 3.112093 1_454
Hf7 Pb1 3.112093 1_455
Hf8 Zn1 2.716001 1_565
Hf8 Zn0 2.716001 1_564
Hf8 Pb2 2.960519 1_655
Hf8 Pb3 3.040368 1_555
Hf8 Pb0 3.112093 1_555
Hf8 Pb0 3.112093 1_554
Hf9 Zn0 2.715391 1_555
Hf9 Zn1 2.715391 1_555
Hf9 Pb1 2.969474 1_555
Hf9 Pb0 2.969474 1_545
Hf9 Pb4 3.047527 1_555
Bi0 Hf8 2.994612 1_545
Bi0 Hf7 2.994612 1_655
Bi0 Hf4 3.049253 1_555
Bi0 Hf2 3.072186 1_554
Bi0 Hf1 3.072186 1_555
Bi0 Hf0 3.072188 1_544
Bi0 Hf3 3.072188 1_545
Bi0 Hf9 3.112881 1_554
Bi0 Hf9 3.112881 1_555
