# generated using pymatgen
data_CsY(NbCl3)6
_symmetry_space_group_name_H-M   'P 1'
_cell_length_a   10.20656638
_cell_length_b   10.20656629
_cell_length_c   10.20656577
_cell_angle_alpha   55.54108359
_cell_angle_beta   55.54108089
_cell_angle_gamma   55.54108796
_symmetry_Int_Tables_number   1
_chemical_formula_structural   CsY(NbCl3)6
_chemical_formula_sum   'Cs1 Y1 Nb6 Cl18'
_cell_volume   674.01501729
_cell_formula_units_Z   1
loop_
 _symmetry_equiv_pos_site_id
 _symmetry_equiv_pos_as_xyz
  1  'x, y, z'
loop_
 _atom_site_type_symbol
 _atom_site_label
 _atom_site_symmetry_multiplicity
 _atom_site_fract_x
 _atom_site_fract_y
 _atom_site_fract_z
 _atom_site_occupancy
  Cs  Cs0  1  0.22467591  0.22467591  0.22467591  1
  Y  Y0  1  0.49853437  0.49853437  0.49853437  1
  Nb  Nb0  1  0.80387592  0.14949202  0.90802209  1
  Nb  Nb1  1  0.90802209  0.80387592  0.14949202  1
  Nb  Nb2  1  0.14949202  0.90802209  0.80387592  1
  Nb  Nb3  1  0.19737061  0.85068988  0.09040889  1
  Nb  Nb4  1  0.09040889  0.19737061  0.85068988  1
  Nb  Nb5  1  0.85068988  0.09040889  0.19737061  1
  Cl  Cl0  1  0.87337947  0.40934201  0.71797238  1
  Cl  Cl1  1  0.71797238  0.87337947  0.40934201  1
  Cl  Cl2  1  0.40934201  0.71797238  0.87337947  1
  Cl  Cl3  1  0.12548246  0.59077921  0.28393836  1
  Cl  Cl4  1  0.28393836  0.12548246  0.59077921  1
  Cl  Cl5  1  0.59077921  0.28393836  0.12548246  1
  Cl  Cl6  1  0.54158318  0.34126853  0.79592404  1
  Cl  Cl7  1  0.79592404  0.54158318  0.34126853  1
  Cl  Cl8  1  0.34126853  0.79592404  0.54158318  1
  Cl  Cl9  1  0.45555553  0.66098255  0.20487957  1
  Cl  Cl10  1  0.20487957  0.45555553  0.66098255  1
  Cl  Cl11  1  0.66098255  0.20487957  0.45555553  1
  Cl  Cl12  1  0.66038086  0.94294486  0.06742880  1
  Cl  Cl13  1  0.06742880  0.66038086  0.94294486  1
  Cl  Cl14  1  0.94294486  0.06742880  0.66038086  1
  Cl  Cl15  1  0.34235442  0.05563664  0.92823545  1
  Cl  Cl16  1  0.92823545  0.34235442  0.05563664  1
  Cl  Cl17  1  0.05563664  0.92823545  0.34235442  1
loop_
_geom_bond_atom_site_label_1
_geom_bond_atom_site_label_2
_geom_bond_distance
_geom_bond_site_symmetry_2
Cl0 Nb0 2.459692 1_555
Cl0 Nb4 2.465423 1_655
Cl1 Nb1 2.459691 1_555
Cl1 Nb5 2.465423 1_565
Cl2 Nb2 2.459692 1_555
Cl2 Nb3 2.465423 1_556
Cl3 Nb3 2.471883 1_555
Cl3 Nb1 2.479147 1_455
Cl3 Cs0 3.596821 1_555
Cl4 Nb4 2.471883 1_555
Cl4 Nb2 2.479147 1_545
Cl4 Cs0 3.596821 1_555
Cl5 Nb5 2.471883 1_555
Cl5 Nb0 2.479147 1_554
Cl5 Cs0 3.596821 1_555
Cl6 Y0 2.679628 1_555
Cl6 Nb0 2.703568 1_555
Cl6 Cs0 3.670615 1_556
Cl7 Y0 2.679628 1_555
Cl7 Nb1 2.703567 1_555
Cl7 Cs0 3.670615 1_655
Cl8 Y0 2.679628 1_555
Cl8 Nb2 2.703567 1_555
Cl8 Cs0 3.670615 1_565
Cl9 Y0 2.639304 1_555
Cl9 Nb3 2.684843 1_555
Cl10 Y0 2.639304 1_555
Cl10 Nb4 2.684842 1_555
Cl11 Y0 2.639304 1_555
Cl11 Nb5 2.684842 1_555
Cl12 Nb1 2.468868 1_555
Cl12 Nb0 2.480405 1_564
Cl12 Cs0 3.646322 1_565
Cl13 Nb2 2.468868 1_555
Cl13 Nb1 2.480405 1_456
Cl13 Cs0 3.646322 1_556
Cl14 Nb0 2.468868 1_555
Cl14 Nb2 2.480405 1_645
Cl14 Cs0 3.646322 1_655
Cl15 Nb3 2.473477 1_546
Cl15 Nb4 2.475805 1_555
Cl15 Cs0 3.608830 1_556
Cl16 Nb4 2.473477 1_654
Cl16 Nb5 2.475805 1_555
Cl16 Cs0 3.608830 1_655
Cl17 Nb5 2.473477 1_465
Cl17 Nb3 2.475805 1_555
Cl17 Cs0 3.608830 1_565
