# generated using pymatgen
data_HfTa2(NbN3)2
_symmetry_space_group_name_H-M   'P 1'
_cell_length_a   5.26190046
_cell_length_b   5.26190106
_cell_length_c   10.47783643
_cell_angle_alpha   89.97872832
_cell_angle_beta   89.97872953
_cell_angle_gamma   120.14693397
_symmetry_Int_Tables_number   1
_chemical_formula_structural   HfTa2(NbN3)2
_chemical_formula_sum   'Hf2 Ta4 Nb4 N12'
_cell_volume   250.86640571
_cell_formula_units_Z   2
loop_
 _symmetry_equiv_pos_site_id
 _symmetry_equiv_pos_as_xyz
  1  'x, y, z'
loop_
 _atom_site_type_symbol
 _atom_site_label
 _atom_site_symmetry_multiplicity
 _atom_site_fract_x
 _atom_site_fract_y
 _atom_site_fract_z
 _atom_site_occupancy
  Hf  Hf0  1  0.66487917  0.33286960  0.00015449  1
  Hf  Hf1  1  0.33286960  0.66487917  0.00015449  1
  Ta  Ta0  1  0.67799948  0.00020614  0.25318002  1
  Ta  Ta1  1  0.00020614  0.67799948  0.25318002  1
  Ta  Ta2  1  0.33382243  0.66549724  0.49904797  1
  Ta  Ta3  1  0.66549724  0.33382243  0.49904797  1
  Nb  Nb0  1  0.67699226  0.67699226  0.74664765  1
  Nb  Nb1  1  0.32280235  0.99965713  0.74673123  1
  Nb  Nb2  1  0.99965713  0.32280235  0.74673123  1
  Nb  Nb3  1  0.32373941  0.32373941  0.25443780  1
  N  N0  1  0.66349632  0.66349632  0.38298371  1
  N  N1  1  0.34405331  0.99563309  0.38198685  1
  N  N2  1  0.99563309  0.34405331  0.38198685  1
  N  N3  1  0.34356483  0.34356483  0.61583763  1
  N  N4  1  0.65424130  0.99998387  0.61595883  1
  N  N5  1  0.99998387  0.65424130  0.61595883  1
  N  N6  1  0.34520310  0.34520310  0.87443880  1
  N  N7  1  0.65304361  0.99987651  0.87433902  1
  N  N8  1  0.99987651  0.65304361  0.87433902  1
  N  N9  1  0.65979233  0.65979233  0.12711890  1
  N  N10  1  0.34730909  0.99533543  0.12786683  1
  N  N11  1  0.99533543  0.34730909  0.12786683  1
loop_
_geom_bond_atom_site_label_1
_geom_bond_atom_site_label_2
_geom_bond_distance
_geom_bond_site_symmetry_2
Hf0 N6 2.163332 1_554
Hf0 N11 2.165419 1_555
Hf0 N8 2.167274 1_554
Hf0 N7 2.168875 1_544
Hf0 N10 2.180123 1_545
Hf0 N9 2.185767 1_555
Hf1 N6 2.163332 1_554
Hf1 N10 2.165419 1_555
Hf1 N7 2.167274 1_554
Hf1 N8 2.168875 1_454
Hf1 N11 2.180123 1_455
Hf1 N9 2.185767 1_555
N0 Ta2 2.122505 1_555
N0 Ta3 2.122505 1_555
N0 Ta1 2.203851 1_655
N0 Ta0 2.203851 1_565
N0 Nb3 2.235977 1_555
N1 Ta2 2.104618 1_555
N1 Ta3 2.124117 1_565
N1 Ta1 2.203299 1_555
N1 Ta0 2.205790 1_565
N1 Nb3 2.227537 1_565
N2 Ta3 2.104618 1_555
N2 Ta2 2.124117 1_655
N2 Ta0 2.203299 1_555
N2 Ta1 2.205790 1_655
N2 Nb3 2.227537 1_655
N3 Ta3 2.110774 1_555
N3 Ta2 2.110774 1_555
N3 Nb0 2.224097 1_555
N3 Nb2 2.228687 1_455
N3 Nb1 2.228688 1_545
N4 Ta2 2.112686 1_555
N4 Ta3 2.117462 1_565
N4 Nb1 2.216806 1_555
N4 Nb2 2.229090 1_565
N4 Nb0 2.231734 1_555
N5 Ta3 2.112686 1_555
N5 Ta2 2.117462 1_655
N5 Nb2 2.216806 1_555
N5 Nb1 2.229090 1_655
N5 Nb0 2.231734 1_555
N6 Nb0 2.196319 1_555
N6 Nb2 2.212920 1_455
N6 Nb1 2.212920 1_545
N7 Nb1 2.192491 1_555
N7 Nb2 2.210222 1_565
N7 Nb0 2.215648 1_555
N8 Nb2 2.192491 1_555
N8 Nb1 2.210222 1_655
N8 Nb0 2.215648 1_555
N9 Ta1 2.189014 1_655
N9 Ta0 2.189014 1_565
N9 Nb3 2.211120 1_555
N10 Ta0 2.170113 1_565
N10 Ta1 2.186625 1_555
N10 Nb3 2.230939 1_565
N11 Ta1 2.170113 1_655
N11 Ta0 2.186625 1_555
N11 Nb3 2.230939 1_655
