# generated using pymatgen
data_ZnCrGa11Ir3
_symmetry_space_group_name_H-M   'P 1'
_cell_length_a   6.43801110
_cell_length_b   6.43801108
_cell_length_c   6.76516683
_cell_angle_alpha   89.51313719
_cell_angle_beta   90.48685847
_cell_angle_gamma   90.66825649
_symmetry_Int_Tables_number   1
_chemical_formula_structural   ZnCrGa11Ir3
_chemical_formula_sum   'Zn1 Cr1 Ga11 Ir3'
_cell_volume   280.36346223
_cell_formula_units_Z   1
loop_
 _symmetry_equiv_pos_site_id
 _symmetry_equiv_pos_as_xyz
  1  'x, y, z'
loop_
 _atom_site_type_symbol
 _atom_site_label
 _atom_site_symmetry_multiplicity
 _atom_site_fract_x
 _atom_site_fract_y
 _atom_site_fract_z
 _atom_site_occupancy
  Zn  Zn0  1  0.34184920  0.65815080  0.24839601  1
  Cr  Cr0  1  0.15170146  0.84829854  0.50640377  1
  Ga  Ga0  1  0.01706634  0.50782991  0.49309330  1
  Ga  Ga1  1  0.49806897  0.99588608  0.00578326  1
  Ga  Ga2  1  0.49217009  0.98293366  0.49309330  1
  Ga  Ga3  1  0.00411392  0.50193103  0.00578326  1
  Ga  Ga4  1  0.64248376  0.35751624  0.23941311  1
  Ga  Ga5  1  0.16221423  0.14487057  0.72674450  1
  Ga  Ga6  1  0.85512943  0.83778577  0.72674450  1
  Ga  Ga7  1  0.65039311  0.34960689  0.76223942  1
  Ga  Ga8  1  0.33936060  0.66063940  0.75738191  1
  Ga  Ga9  1  0.85484619  0.83890056  0.27229303  1
  Ga  Ga10  1  0.16109944  0.14515381  0.27229303  1
  Ir  Ir0  1  0.82854019  0.17145981  0.49763598  1
  Ir  Ir1  1  0.33781835  0.33685629  0.99635130  1
  Ir  Ir2  1  0.66314371  0.66218165  0.99635130  1
loop_
_geom_bond_atom_site_label_1
_geom_bond_atom_site_label_2
_geom_bond_distance
_geom_bond_site_symmetry_2
Cr0 Ga2 2.349837 1_555
Cr0 Ga0 2.349837 1_555
Cr0 Ga8 2.401350 1_555
Cr0 Ga6 2.432240 1_455
Cr0 Ga5 2.432240 1_565
Cr0 Ga10 2.472264 1_565
Cr0 Ga9 2.472265 1_455
Cr0 Zn0 2.480208 1_555
Cr0 Ir0 2.959288 1_465
Ga0 Ir0 2.470205 1_455
Ga0 Zn0 2.834339 1_555
Ga1 Ir2 2.409533 1_554
Ga1 Ir1 2.436507 1_564
Ga1 Zn0 2.889568 1_555
Ga2 Ir0 2.470205 1_565
Ga2 Zn0 2.834339 1_555
Ga3 Ir1 2.409533 1_554
Ga3 Ir2 2.436507 1_454
Ga3 Zn0 2.889568 1_555
Ga4 Ir0 2.425631 1_555
Ga4 Ir2 2.551794 1_554
Ga4 Ir1 2.551794 1_554
Ga4 Zn0 2.754506 1_555
Ga5 Ir1 2.470475 1_555
Ga5 Ir0 2.644599 1_455
Ga6 Ir2 2.470475 1_555
Ga6 Ir0 2.644599 1_565
Ga7 Ir0 2.436328 1_555
Ga7 Ir1 2.571551 1_555
Ga7 Ir2 2.571551 1_555
Ga8 Ir1 2.627062 1_555
Ga8 Ir2 2.627062 1_555
Ga9 Ir2 2.503339 1_554
Ga9 Ir0 2.646698 1_565
Ga10 Ir1 2.503339 1_554
Ga10 Ir0 2.646698 1_455
Ir1 Zn0 2.691606 1_556
Ir2 Zn0 2.691606 1_556
