# generated using pymatgen
data_SrAs12(IrRu)2
_symmetry_space_group_name_H-M   'P 1'
_cell_length_a   7.41312750
_cell_length_b   7.42374901
_cell_length_c   7.42374978
_cell_angle_alpha   109.53117201
_cell_angle_beta   109.46996619
_cell_angle_gamma   109.47050499
_symmetry_Int_Tables_number   1
_chemical_formula_structural   SrAs12(IrRu)2
_chemical_formula_sum   'Sr1 As12 Ir2 Ru2'
_cell_volume   314.27866891
_cell_formula_units_Z   1
loop_
 _symmetry_equiv_pos_site_id
 _symmetry_equiv_pos_as_xyz
  1  'x, y, z'
loop_
 _atom_site_type_symbol
 _atom_site_label
 _atom_site_symmetry_multiplicity
 _atom_site_fract_x
 _atom_site_fract_y
 _atom_site_fract_z
 _atom_site_occupancy
  Sr  Sr0  1  0.00000000  0.00000000  0.00000000  1
  As  As0  1  0.84997073  0.64813199  0.50187741  1
  As  As1  1  0.15002927  0.35186801  0.49812259  1
  As  As2  1  0.15002927  0.65190668  0.79816326  1
  As  As3  1  0.84997073  0.34809332  0.20183674  1
  As  As4  1  0.64760021  0.50173568  0.84947297  1
  As  As5  1  0.35239979  0.49826432  0.15052703  1
  As  As6  1  0.64760021  0.79812824  0.14586353  1
  As  As7  1  0.35239979  0.20187176  0.85413647  1
  As  As8  1  0.50217064  0.85020945  0.65196019  1
  As  As9  1  0.49782936  0.14979055  0.34803981  1
  As  As10  1  0.20514977  0.85340609  0.35174469  1
  As  As11  1  0.79485023  0.14659391  0.64825531  1
  Ir  Ir0  1  0.00000000  0.50000000  0.00000000  1
  Ir  Ir1  1  0.00000000  0.00000000  0.50000000  1
  Ru  Ru0  1  0.50000000  0.50000000  0.50000000  1
  Ru  Ru1  1  0.50000000  0.00000000  0.00000000  1
loop_
_geom_bond_atom_site_label_1
_geom_bond_atom_site_label_2
_geom_bond_distance
_geom_bond_site_symmetry_2
As0 Ru0 2.450310 1_555
As0 Ir1 2.481645 1_665
As0 As2 2.538175 1_655
As0 As3 2.570099 1_555
As0 Sr0 3.255441 1_666
As1 Ru0 2.450310 1_555
As1 Ir1 2.481645 1_555
As1 As3 2.538175 1_455
As1 As2 2.570099 1_555
As1 Sr0 3.255441 1_555
As2 Ru1 2.450311 1_566
As2 Ir0 2.481631 1_556
As2 Sr0 3.255437 1_566
As3 Ru1 2.450311 1_555
As3 Ir0 2.481631 1_655
As3 Sr0 3.255437 1_655
As4 Ru0 2.450343 1_555
As4 Ir0 2.481829 1_656
As4 As6 2.538850 1_556
As4 As7 2.569077 1_555
As4 Sr0 3.256383 1_666
As5 Ru0 2.450343 1_555
As5 Ir0 2.481829 1_555
As5 As7 2.538850 1_554
As5 As6 2.569077 1_555
As5 Sr0 3.256383 1_555
As6 Ru1 2.450332 1_565
As6 Ir1 2.481833 1_665
As6 Sr0 3.256375 1_665
As7 Ru1 2.450332 1_556
As7 Ir1 2.481833 1_555
As7 Sr0 3.256375 1_556
As8 Ru0 2.455837 1_555
As8 Ru1 2.455845 1_566
As8 Sr0 3.243238 1_666
As9 Ru0 2.455837 1_555
As9 Ru1 2.455845 1_555
As9 Sr0 3.243238 1_555
As10 Ir1 2.475234 1_565
As10 Ir0 2.475241 1_555
As10 As9 2.539142 1_565
As10 As8 2.571923 1_555
As10 Sr0 3.266807 1_565
As11 Ir1 2.475234 1_655
As11 Ir0 2.475241 1_656
As11 As8 2.539142 1_545
As11 As9 2.571923 1_555
As11 Sr0 3.266807 1_656
