# generated using pymatgen
data_Hf6Nb4Si6N
_symmetry_space_group_name_H-M   'P 1'
_cell_length_a   7.74312247
_cell_length_b   7.74312264
_cell_length_c   5.33185632
_cell_angle_alpha   90.00000000
_cell_angle_beta   90.00000000
_cell_angle_gamma   119.99999504
_symmetry_Int_Tables_number   1
_chemical_formula_structural   Hf6Nb4Si6N
_chemical_formula_sum   'Hf6 Nb4 Si6 N1'
_cell_volume   276.84797890
_cell_formula_units_Z   1
loop_
 _symmetry_equiv_pos_site_id
 _symmetry_equiv_pos_as_xyz
  1  'x, y, z'
loop_
 _atom_site_type_symbol
 _atom_site_label
 _atom_site_symmetry_multiplicity
 _atom_site_fract_x
 _atom_site_fract_y
 _atom_site_fract_z
 _atom_site_occupancy
  Hf  Hf0  1  0.00000000  0.75808982  0.25496266  1
  Hf  Hf1  1  0.24191018  0.24191018  0.25496266  1
  Hf  Hf2  1  0.75808982  0.00000000  0.25496266  1
  Hf  Hf3  1  0.00000000  0.24191018  0.74503734  1
  Hf  Hf4  1  0.75808982  0.75808982  0.74503734  1
  Hf  Hf5  1  0.24191018  0.00000000  0.74503734  1
  Nb  Nb0  1  0.33333300  0.66666700  0.00000000  1
  Nb  Nb1  1  0.66666700  0.33333300  0.00000000  1
  Nb  Nb2  1  0.66666700  0.33333300  0.50000000  1
  Nb  Nb3  1  0.33333300  0.66666700  0.50000000  1
  Si  Si0  1  0.00000000  0.40034822  0.24117901  1
  Si  Si1  1  0.59965178  0.59965178  0.24117901  1
  Si  Si2  1  0.40034822  0.00000000  0.24117901  1
  Si  Si3  1  1.00000000  0.59965178  0.75882099  1
  Si  Si4  1  0.40034822  0.40034822  0.75882099  1
  Si  Si5  1  0.59965178  1.00000000  0.75882099  1
  N  N0  1  0.00000000  0.00000000  0.50000000  1
loop_
_geom_bond_atom_site_label_1
_geom_bond_atom_site_label_2
_geom_bond_distance
_geom_bond_site_symmetry_2
Hf0 N0 2.283770 1_565
Hf0 Si1 2.705011 1_455
Hf0 Si2 2.705011 1_565
Hf0 Si0 2.771012 1_555
Hf0 Si3 2.915983 1_454
Hf0 Si3 2.953360 1_455
Hf0 Nb3 3.270618 1_555
Hf0 Nb2 3.270623 1_455
Hf1 N0 2.283770 1_555
Hf1 Si0 2.705011 1_555
Hf1 Si2 2.705011 1_555
Hf1 Si1 2.771012 1_555
Hf1 Si4 2.915984 1_554
Hf1 Si4 2.953360 1_555
Hf1 Nb2 3.270625 1_555
Hf1 Nb3 3.270625 1_555
Hf2 N0 2.283770 1_655
Hf2 Si1 2.705011 1_545
Hf2 Si0 2.705011 1_655
Hf2 Si2 2.771012 1_555
Hf2 Si5 2.915983 1_544
Hf2 Si5 2.953360 1_545
Hf2 Nb2 3.270618 1_555
Hf2 Nb3 3.270623 1_545
Hf3 N0 2.283770 1_555
Hf3 Si4 2.705011 1_555
Hf3 Si5 2.705011 1_445
Hf3 Si3 2.771012 1_455
Hf3 Si0 2.915983 1_556
Hf3 Si0 2.953360 1_555
Hf3 Nb2 3.270618 1_455
Hf3 Nb3 3.270623 1_555
Hf4 N0 2.283770 1_665
Hf4 Si3 2.705011 1_555
Hf4 Si5 2.705011 1_555
Hf4 Si4 2.771012 1_555
Hf4 Si1 2.915984 1_556
Hf4 Si1 2.953360 1_555
Hf4 Nb3 3.270625 1_555
Hf4 Nb2 3.270625 1_555
Hf5 N0 2.283770 1_555
Hf5 Si4 2.705011 1_555
Hf5 Si3 2.705011 1_445
Hf5 Si5 2.771012 1_545
Hf5 Si2 2.915983 1_556
Hf5 Si2 2.953360 1_555
Hf5 Nb3 3.270618 1_545
Hf5 Nb2 3.270623 1_555
Nb0 Nb3 2.665928 1_555
Nb0 Nb3 2.665928 1_554
Nb0 Si3 2.691714 1_454
Nb0 Si2 2.691714 1_565
Nb0 Si0 2.691716 1_555
Nb0 Si5 2.691716 1_554
Nb0 Si1 2.691721 1_555
Nb0 Si4 2.691721 1_554
Nb1 Nb2 2.665928 1_555
Nb1 Nb2 2.665928 1_554
Nb1 Si0 2.691714 1_655
Nb1 Si5 2.691714 1_544
Nb1 Si3 2.691716 1_554
Nb1 Si2 2.691716 1_555
Nb1 Si4 2.691721 1_554
Nb1 Si1 2.691721 1_555
Nb2 Si0 2.737900 1_655
Nb2 Si5 2.737900 1_545
Nb2 Si3 2.737902 1_555
Nb2 Si2 2.737902 1_555
Nb2 Si4 2.737906 1_555
Nb2 Si1 2.737906 1_555
Nb3 Si3 2.737900 1_455
Nb3 Si2 2.737900 1_565
Nb3 Si0 2.737902 1_555
Nb3 Si5 2.737902 1_555
Nb3 Si1 2.737906 1_555
Nb3 Si4 2.737906 1_555
