# generated using pymatgen
data_Ce7Ru3
_symmetry_space_group_name_H-M   'P 1'
_cell_length_a   9.62669575
_cell_length_b   9.62669575
_cell_length_c   6.17445600
_cell_angle_alpha   90.00000000
_cell_angle_beta   90.00000000
_cell_angle_gamma   119.99999827
_symmetry_Int_Tables_number   1
_chemical_formula_structural   Ce7Ru3
_chemical_formula_sum   'Ce14 Ru6'
_cell_volume   495.54583662
_cell_formula_units_Z   2
loop_
 _symmetry_equiv_pos_site_id
 _symmetry_equiv_pos_as_xyz
  1  'x, y, z'
loop_
 _atom_site_type_symbol
 _atom_site_label
 _atom_site_symmetry_multiplicity
 _atom_site_fract_x
 _atom_site_fract_y
 _atom_site_fract_z
 _atom_site_occupancy
  Ce  Ce0  1  0.92579600  0.46289800  0.03588500  1
  Ce  Ce1  1  0.46289800  0.53710200  0.53588500  1
  Ce  Ce2  1  0.12586400  0.87413600  0.25714200  1
  Ce  Ce3  1  0.25172900  0.12586400  0.75714200  1
  Ce  Ce4  1  0.87413600  0.74827100  0.75714200  1
  Ce  Ce5  1  0.12586400  0.25172900  0.25714200  1
  Ce  Ce6  1  0.74827100  0.87413600  0.25714200  1
  Ce  Ce7  1  0.87413600  0.12586400  0.75714200  1
  Ce  Ce8  1  0.53710200  0.07420400  0.03588500  1
  Ce  Ce9  1  0.46289800  0.92579600  0.53588500  1
  Ce  Ce10  1  0.07420400  0.53710200  0.53588500  1
  Ce  Ce11  1  0.53710200  0.46289800  0.03588500  1
  Ce  Ce12  1  0.66666700  0.33333300  0.53843200  1
  Ce  Ce13  1  0.33333300  0.66666700  0.03843200  1
  Ru  Ru0  1  0.18179600  0.81820400  0.78716300  1
  Ru  Ru1  1  0.36359100  0.18179600  0.28716300  1
  Ru  Ru2  1  0.81820400  0.63640900  0.28716300  1
  Ru  Ru3  1  0.18179600  0.36359100  0.78716300  1
  Ru  Ru4  1  0.63640900  0.81820400  0.78716300  1
  Ru  Ru5  1  0.81820400  0.18179600  0.28716300  1
loop_
_geom_bond_atom_site_label_1
_geom_bond_atom_site_label_2
_geom_bond_distance
_geom_bond_site_symmetry_2
Ce0 Ru5 2.828428 1_555
Ce0 Ru2 2.828435 1_555
Ce0 Ru0 3.420784 1_654
Ce0 Ru3 3.420791 1_654
Ce1 Ru4 2.828429 1_555
Ce1 Ru3 2.828429 1_555
Ce1 Ru2 3.420782 1_555
Ce1 Ru1 3.420782 1_555
Ce2 Ru1 2.695483 1_565
Ce2 Ru2 2.695483 1_455
Ce2 Ru0 3.048044 1_554
Ce2 Ru0 3.402882 1_555
Ce3 Ru3 2.695483 1_555
Ce3 Ru0 2.695483 1_545
Ce3 Ru1 3.048039 1_555
Ce3 Ru1 3.402878 1_556
Ce4 Ru4 2.695483 1_555
Ce4 Ru0 2.695483 1_655
Ce4 Ru2 3.048039 1_555
Ce4 Ru2 3.402878 1_556
Ce5 Ru1 2.695483 1_555
Ce5 Ru5 2.695483 1_455
Ce5 Ru3 3.048039 1_554
Ce5 Ru3 3.402878 1_555
Ce6 Ru2 2.695483 1_555
Ce6 Ru5 2.695483 1_565
Ce6 Ru4 3.048039 1_554
Ce6 Ru4 3.402878 1_555
Ce7 Ru3 2.695483 1_655
Ce7 Ru4 2.695483 1_545
Ce7 Ru5 3.048044 1_555
Ce7 Ru5 3.402882 1_556
Ce8 Ru5 2.828428 1_555
Ce8 Ru1 2.828435 1_555
Ce8 Ru0 3.420784 1_544
Ce8 Ru4 3.420791 1_544
Ce9 Ru0 2.828428 1_555
Ce9 Ru4 2.828435 1_555
Ce9 Ru5 3.420784 1_565
Ce9 Ru1 3.420791 1_565
Ce10 Ru0 2.828428 1_555
Ce10 Ru3 2.828435 1_555
Ce10 Ru5 3.420784 1_455
Ce10 Ru2 3.420791 1_455
Ce11 Ru2 2.828429 1_555
Ce11 Ru1 2.828429 1_555
Ce11 Ru4 3.420782 1_554
Ce11 Ru3 3.420782 1_554
Ce12 Ru5 2.965011 1_555
Ce12 Ru1 2.965026 1_555
Ce12 Ru2 2.965026 1_555
Ce13 Ru0 2.965011 1_554
Ce13 Ru3 2.965026 1_554
Ce13 Ru4 2.965026 1_554
