# generated using pymatgen
data_Mg2H12Ir2Pb
_symmetry_space_group_name_H-M   'P 1'
_cell_length_a   4.72127931
_cell_length_b   4.72128055
_cell_length_c   7.96628723
_cell_angle_alpha   90.00000000
_cell_angle_beta   90.00000000
_cell_angle_gamma   119.99999128
_symmetry_Int_Tables_number   1
_chemical_formula_structural   Mg2H12Ir2Pb
_chemical_formula_sum   'Mg2 H12 Ir2 Pb1'
_cell_volume   153.78222262
_cell_formula_units_Z   1
loop_
 _symmetry_equiv_pos_site_id
 _symmetry_equiv_pos_as_xyz
  1  'x, y, z'
loop_
 _atom_site_type_symbol
 _atom_site_label
 _atom_site_symmetry_multiplicity
 _atom_site_fract_x
 _atom_site_fract_y
 _atom_site_fract_z
 _atom_site_occupancy
  Mg  Mg0  1  0.66666700  0.33333300  0.36936191  1
  Mg  Mg1  1  0.33333300  0.66666700  0.63063809  1
  H  H0  1  0.16553275  0.83446725  0.38537412  1
  H  H1  1  0.66893350  0.83446725  0.38537412  1
  H  H2  1  0.16553275  0.33106650  0.38537412  1
  H  H3  1  0.83446725  0.16553275  0.61462588  1
  H  H4  1  0.33106650  0.16553275  0.61462588  1
  H  H5  1  0.83446725  0.66893350  0.61462588  1
  H  H6  1  0.50113603  0.00227107  0.85101154  1
  H  H7  1  0.50113603  0.49886397  0.85101154  1
  H  H8  1  0.99772893  0.49886397  0.85101154  1
  H  H9  1  0.49886397  0.99772893  0.14898846  1
  H  H10  1  0.49886397  0.50113603  0.14898846  1
  H  H11  1  0.00227107  0.50113603  0.14898846  1
  Ir  Ir0  1  0.66666700  0.33333300  0.72855783  1
  Ir  Ir1  1  0.33333300  0.66666700  0.27144217  1
  Pb  Pb0  1  0.00000000  0.00000000  0.00000000  1
loop_
_geom_bond_atom_site_label_1
_geom_bond_atom_site_label_2
_geom_bond_distance
_geom_bond_site_symmetry_2
H0 Ir1 1.645193 1_555
H0 Mg0 2.364102 1_565
H0 Mg0 2.364102 1_455
H0 Mg1 2.387551 1_555
H1 Ir1 1.645193 1_555
H1 Mg0 2.364098 1_565
H1 Mg0 2.364107 1_555
H1 Mg1 2.387551 1_555
H2 Ir1 1.645193 1_555
H2 Mg0 2.364097 1_455
H2 Mg0 2.364106 1_555
H2 Mg1 2.387551 1_555
H3 Ir0 1.645193 1_555
H3 Mg1 2.364102 1_545
H3 Mg1 2.364102 1_655
H3 Mg0 2.387551 1_555
H4 Ir0 1.645193 1_555
H4 Mg1 2.364098 1_545
H4 Mg1 2.364107 1_555
H4 Mg0 2.387551 1_555
H5 Ir0 1.645193 1_555
H5 Mg1 2.364097 1_655
H5 Mg1 2.364106 1_555
H5 Mg0 2.387551 1_555
H6 Ir0 1.668507 1_555
H6 Mg1 2.228210 1_545
H7 Ir0 1.668507 1_555
H7 Mg1 2.228215 1_555
H8 Ir0 1.668507 1_555
H8 Mg1 2.228210 1_655
H9 Ir1 1.668507 1_555
H9 Mg0 2.228210 1_565
H10 Ir1 1.668507 1_555
H10 Mg0 2.228215 1_555
H11 Ir1 1.668507 1_555
H11 Mg0 2.228210 1_455
