# generated using pymatgen
data_As2Pb8O13
_symmetry_space_group_name_H-M   'P 1'
_cell_length_a   7.55504938
_cell_length_b   7.55504938
_cell_length_c   14.72248553
_cell_angle_alpha   84.05937454
_cell_angle_beta   84.05937454
_cell_angle_gamma   88.05548454
_symmetry_Int_Tables_number   1
_chemical_formula_structural   As2Pb8O13
_chemical_formula_sum   'As4 Pb16 O26'
_cell_volume   831.11079269
_cell_formula_units_Z   2
loop_
 _symmetry_equiv_pos_site_id
 _symmetry_equiv_pos_as_xyz
  1  'x, y, z'
loop_
 _atom_site_type_symbol
 _atom_site_label
 _atom_site_symmetry_multiplicity
 _atom_site_fract_x
 _atom_site_fract_y
 _atom_site_fract_z
 _atom_site_occupancy
  As  As0  1  0.15595949  0.15595949  0.90488860  1
  As  As1  1  0.25327193  0.74672807  0.50000000  1
  As  As2  1  0.74672807  0.25327193  0.50000000  1
  As  As3  1  0.84404051  0.84404051  0.09511140  1
  Pb  Pb0  1  0.26046559  0.26046559  0.48295215  1
  Pb  Pb1  1  0.56637138  0.56637138  0.28399373  1
  Pb  Pb2  1  0.84073272  0.33375458  0.09611976  1
  Pb  Pb3  1  0.66624542  0.15926728  0.90388024  1
  Pb  Pb4  1  0.73953441  0.73953441  0.51704785  1
  Pb  Pb5  1  0.07335207  0.07335207  0.30011344  1
  Pb  Pb6  1  0.07494585  0.54400071  0.29513497  1
  Pb  Pb7  1  0.15926728  0.66624542  0.90388024  1
  Pb  Pb8  1  0.43362862  0.43362862  0.71600627  1
  Pb  Pb9  1  0.45599929  0.92505415  0.70486503  1
  Pb  Pb10  1  0.33031470  0.33031470  0.11701416  1
  Pb  Pb11  1  0.66968530  0.66968530  0.88298584  1
  Pb  Pb12  1  0.54400071  0.07494585  0.29513497  1
  Pb  Pb13  1  0.92505415  0.45599929  0.70486503  1
  Pb  Pb14  1  0.92664793  0.92664793  0.69988656  1
  Pb  Pb15  1  0.33375458  0.84073272  0.09611976  1
  O  O0  1  0.77004578  0.03673945  0.13903882  1
  O  O1  1  0.94355617  0.26698684  0.43247618  1
  O  O2  1  0.86309402  0.86309402  0.97860792  1
  O  O3  1  0.32969113  0.04532817  0.19452107  1
  O  O4  1  0.31194015  0.31194015  0.86682427  1
  O  O5  1  0.73301316  0.05644383  0.56752382  1
  O  O6  1  0.96326055  0.22995422  0.86096118  1
  O  O7  1  0.72758694  0.42175065  0.56970709  1
  O  O8  1  0.72796230  0.72796230  0.66716849  1
  O  O9  1  0.60834529  0.32748235  0.20837112  1
  O  O10  1  0.39165471  0.67251765  0.79162888  1
  O  O11  1  0.67251765  0.39165471  0.79162888  1
  O  O12  1  0.95467183  0.67030887  0.80547893  1
  O  O13  1  0.67030887  0.95467183  0.80547893  1
  O  O14  1  0.42175065  0.72758694  0.56970709  1
  O  O15  1  0.68805985  0.68805985  0.13317573  1
  O  O16  1  0.13690598  0.13690598  0.02139208  1
  O  O17  1  0.04532817  0.32969113  0.19452107  1
  O  O18  1  0.27203770  0.27203770  0.33283151  1
  O  O19  1  0.03673945  0.77004578  0.13903882  1
  O  O20  1  0.22995422  0.96326055  0.86096118  1
  O  O21  1  0.32748235  0.60834529  0.20837112  1
  O  O22  1  0.27241306  0.57824935  0.43029291  1
  O  O23  1  0.05644383  0.73301316  0.56752382  1
  O  O24  1  0.57824935  0.27241306  0.43029291  1
  O  O25  1  0.26698684  0.94355617  0.43247618  1
loop_
_geom_bond_atom_site_label_1
_geom_bond_atom_site_label_2
_geom_bond_distance
_geom_bond_site_symmetry_2
As0 O16 1.697827 1_556
As0 O4 1.706559 1_555
As0 O20 1.707363 1_545
As0 O6 1.707363 1_455
As1 O23 1.701013 1_555
As1 O25 1.701013 1_555
As1 O14 1.709238 1_555
As1 O22 1.709238 1_555
As2 O5 1.701013 1_555
As2 O1 1.701013 1_555
As2 O7 1.709238 1_555
As2 O24 1.709238 1_555
As3 O2 1.697827 1_554
As3 O15 1.706559 1_555
As3 O0 1.707363 1_565
As3 O19 1.707363 1_655
O0 Pb2 2.331913 1_555
O0 Pb12 2.751849 1_555
O1 Pb0 2.576800 1_655
O1 Pb5 2.645071 1_655
O1 Pb6 2.881572 1_655
O2 Pb11 2.692338 1_555
O3 Pb15 2.222631 1_545
O3 Pb10 2.330004 1_555
O3 Pb12 2.335697 1_555
O3 Pb5 2.372612 1_555
O4 Pb8 2.415151 1_555
O5 Pb4 2.576800 1_545
O5 Pb14 2.645071 1_545
O5 Pb9 2.881572 1_545
O6 Pb3 2.331913 1_555
O6 Pb13 2.751849 1_555
O7 Pb4 2.447104 1_555
O7 Pb13 2.645648 1_555
O8 Pb4 2.195580 1_555
O8 Pb14 2.278324 1_555
O8 Pb9 2.544485 1_555
O8 Pb13 2.544485 1_555
O9 Pb1 2.213933 1_555
O9 Pb12 2.222189 1_555
O9 Pb2 2.281383 1_555
O9 Pb10 2.607208 1_555
O10 Pb8 2.213933 1_555
O10 Pb9 2.222189 1_555
O10 Pb7 2.281383 1_555
O10 Pb11 2.607208 1_555
O11 Pb8 2.213933 1_555
O11 Pb13 2.222189 1_555
O11 Pb3 2.281383 1_555
O11 Pb11 2.607208 1_555
O12 Pb7 2.222631 1_655
O12 Pb11 2.330004 1_555
O12 Pb13 2.335697 1_555
O12 Pb14 2.372612 1_555
O13 Pb3 2.222631 1_565
O13 Pb11 2.330004 1_555
O13 Pb9 2.335697 1_555
O13 Pb14 2.372612 1_555
O14 Pb4 2.447104 1_555
O14 Pb9 2.645648 1_555
O15 Pb1 2.415151 1_555
O16 Pb10 2.692338 1_555
O17 Pb2 2.222631 1_455
O17 Pb10 2.330004 1_555
O17 Pb6 2.335697 1_555
O17 Pb5 2.372612 1_555
O18 Pb0 2.195580 1_555
O18 Pb5 2.278324 1_555
O18 Pb12 2.544485 1_555
O18 Pb6 2.544485 1_555
O19 Pb15 2.331913 1_555
O19 Pb6 2.751849 1_555
O20 Pb7 2.331913 1_555
O20 Pb9 2.751849 1_555
O21 Pb1 2.213933 1_555
O21 Pb6 2.222189 1_555
O21 Pb15 2.281383 1_555
O21 Pb10 2.607208 1_555
O22 Pb0 2.447104 1_555
O22 Pb6 2.645648 1_555
O23 Pb4 2.576800 1_455
O23 Pb14 2.645071 1_455
O23 Pb13 2.881572 1_455
O24 Pb0 2.447104 1_555
O24 Pb12 2.645648 1_555
O25 Pb0 2.576800 1_565
O25 Pb5 2.645071 1_565
O25 Pb12 2.881572 1_565
