# generated using pymatgen
data_Rb8Hf6BBr20
_symmetry_space_group_name_H-M   'P 1'
_cell_length_a   11.81658008
_cell_length_b   11.81658066
_cell_length_c   11.81658031
_cell_angle_alpha   59.99999830
_cell_angle_beta   59.99999668
_cell_angle_gamma   60.00000094
_symmetry_Int_Tables_number   1
_chemical_formula_structural   Rb8Hf6BBr20
_chemical_formula_sum   'Rb8 Hf6 B1 Br20'
_cell_volume   1166.70330017
_cell_formula_units_Z   1
loop_
 _symmetry_equiv_pos_site_id
 _symmetry_equiv_pos_as_xyz
  1  'x, y, z'
loop_
 _atom_site_type_symbol
 _atom_site_label
 _atom_site_symmetry_multiplicity
 _atom_site_fract_x
 _atom_site_fract_y
 _atom_site_fract_z
 _atom_site_occupancy
  Rb  Rb0  1  0.36065955  0.36065955  0.36065955  1
  Rb  Rb1  1  0.63934045  0.63934045  0.63934045  1
  Rb  Rb2  1  0.36065955  0.36065955  0.91802334  1
  Rb  Rb3  1  0.36065955  0.91802334  0.36065955  1
  Rb  Rb4  1  0.63934045  0.63934045  0.08197666  1
  Rb  Rb5  1  0.63934045  0.08197666  0.63934045  1
  Rb  Rb6  1  0.91802334  0.36065955  0.36065955  1
  Rb  Rb7  1  0.08197666  0.63934045  0.63934045  1
  Hf  Hf0  1  0.86409836  0.13590164  0.13590164  1
  Hf  Hf1  1  0.13590164  0.86409836  0.86409836  1
  Hf  Hf2  1  0.13590164  0.86409836  0.13590164  1
  Hf  Hf3  1  0.86409836  0.13590164  0.86409836  1
  Hf  Hf4  1  0.13590164  0.13590164  0.86409836  1
  Hf  Hf5  1  0.86409836  0.86409836  0.13590164  1
  B  B0  1  0.00000000  0.00000000  0.00000000  1
  Br  Br0  1  0.32043152  1.00000000  0.00000000  1
  Br  Br1  1  0.67956848  0.00000000  1.00000000  1
  Br  Br2  1  1.00000000  0.32043152  0.67956848  1
  Br  Br3  1  0.00000000  0.67956848  0.32043152  1
  Br  Br4  1  1.00000000  0.32043152  0.00000000  1
  Br  Br5  1  0.67956848  0.00000000  0.32043152  1
  Br  Br6  1  0.00000000  0.67956848  1.00000000  1
  Br  Br7  1  0.32043152  1.00000000  0.67956848  1
  Br  Br8  1  0.00000000  0.00000000  0.32043152  1
  Br  Br9  1  1.00000000  1.00000000  0.67956848  1
  Br  Br10  1  0.67956848  0.32043152  1.00000000  1
  Br  Br11  1  0.32043152  0.67956848  0.00000000  1
  Br  Br12  1  0.69104197  0.30895803  0.30895803  1
  Br  Br13  1  0.30895803  0.69104197  0.69104197  1
  Br  Br14  1  0.30895803  0.69104197  0.30895803  1
  Br  Br15  1  0.69104197  0.30895803  0.69104197  1
  Br  Br16  1  0.30895803  0.30895803  0.69104197  1
  Br  Br17  1  0.69104197  0.69104197  0.30895803  1
  Br  Br18  1  0.25000000  0.25000000  0.25000000  1
  Br  Br19  1  0.75000000  0.75000000  0.75000000  1
loop_
_geom_bond_atom_site_label_1
_geom_bond_atom_site_label_2
_geom_bond_distance
_geom_bond_site_symmetry_2
B0 Hf4 2.271075 1_554
B0 Hf5 2.271075 1_445
B0 Hf2 2.271075 1_545
B0 Hf3 2.271075 1_454
B0 Hf0 2.271075 1_455
B0 Hf1 2.271075 1_544
Br0 Hf2 2.708048 1_555
Br0 Hf4 2.708048 1_564
Br1 Hf3 2.708048 1_555
Br1 Hf5 2.708048 1_546
Br2 Hf3 2.708048 1_555
Br2 Hf4 2.708048 1_655
Br3 Hf2 2.708048 1_555
Br3 Hf5 2.708048 1_455
Br4 Hf0 2.708048 1_555
Br4 Hf4 2.708048 1_654
Br5 Hf0 2.708048 1_555
Br5 Hf5 2.708048 1_545
Br6 Hf1 2.708048 1_555
Br6 Hf5 2.708048 1_456
Br7 Hf1 2.708048 1_555
Br7 Hf4 2.708048 1_565
Br8 Hf0 2.708048 1_455
Br8 Hf2 2.708048 1_545
Br9 Hf1 2.708048 1_655
Br9 Hf3 2.708048 1_565
Br10 Hf0 2.708048 1_556
Br10 Hf3 2.708048 1_555
Br11 Hf1 2.708048 1_554
Br11 Hf2 2.708048 1_555
Br12 Hf0 2.891974 1_555
Br12 Rb0 3.404511 1_555
Br12 Rb5 3.404518 1_555
Br12 Rb4 3.404518 1_555
Br12 Rb6 3.404534 1_555
Br13 Hf1 2.891974 1_555
Br13 Rb1 3.404511 1_555
Br13 Rb3 3.404518 1_555
Br13 Rb2 3.404518 1_555
Br13 Rb7 3.404534 1_555
Br14 Hf2 2.891974 1_555
Br14 Rb0 3.404511 1_555
Br14 Rb7 3.404518 1_555
Br14 Rb4 3.404518 1_555
Br14 Rb3 3.404534 1_555
Br15 Hf3 2.891974 1_555
Br15 Rb1 3.404511 1_555
Br15 Rb6 3.404518 1_555
Br15 Rb2 3.404518 1_555
Br15 Rb5 3.404534 1_555
Br16 Hf4 2.891974 1_555
Br16 Rb0 3.404511 1_555
Br16 Rb5 3.404518 1_555
Br16 Rb7 3.404518 1_555
Br16 Rb2 3.404534 1_555
Br17 Hf5 2.891974 1_555
Br17 Rb1 3.404511 1_555
Br17 Rb3 3.404518 1_555
Br17 Rb6 3.404518 1_555
Br17 Rb4 3.404534 1_555
Br18 Rb2 3.202976 1_554
Br18 Rb6 3.202976 1_455
Br18 Rb3 3.202977 1_545
Br18 Rb0 3.202996 1_555
Br19 Rb4 3.202976 1_556
Br19 Rb7 3.202976 1_655
Br19 Rb5 3.202977 1_565
Br19 Rb1 3.202996 1_555
