# generated using pymatgen
data_Cs3KOs2O9
_symmetry_space_group_name_H-M   'P 1'
_cell_length_a   6.48804377
_cell_length_b   6.48804377
_cell_length_c   15.27661508
_cell_angle_alpha   90.00000000
_cell_angle_beta   90.00000000
_cell_angle_gamma   119.99998552
_symmetry_Int_Tables_number   1
_chemical_formula_structural   Cs3KOs2O9
_chemical_formula_sum   'Cs6 K2 Os4 O18'
_cell_volume   556.91045738
_cell_formula_units_Z   2
loop_
 _symmetry_equiv_pos_site_id
 _symmetry_equiv_pos_as_xyz
  1  'x, y, z'
loop_
 _atom_site_type_symbol
 _atom_site_label
 _atom_site_symmetry_multiplicity
 _atom_site_fract_x
 _atom_site_fract_y
 _atom_site_fract_z
 _atom_site_occupancy
  Cs  Cs0  1  0.00000000  0.00000000  0.25000000  1
  Cs  Cs1  1  0.00000000  0.00000000  0.75000000  1
  Cs  Cs2  1  0.33333300  0.66666700  0.39686545  1
  Cs  Cs3  1  0.66666700  0.33333300  0.60313455  1
  Cs  Cs4  1  0.66666700  0.33333300  0.89686545  1
  Cs  Cs5  1  0.33333300  0.66666700  0.10313455  1
  K  K0  1  0.00000000  0.00000000  0.50000000  1
  K  K1  1  0.00000000  0.00000000  0.00000000  1
  Os  Os0  1  0.66666700  0.33333300  0.34427403  1
  Os  Os1  1  0.33333300  0.66666700  0.65572597  1
  Os  Os2  1  0.33333300  0.66666700  0.84427403  1
  Os  Os3  1  0.66666700  0.33333300  0.15572597  1
  O  O0  1  0.54101154  0.45898846  0.25000000  1
  O  O1  1  0.54101154  0.08202109  0.25000000  1
  O  O2  1  0.91797891  0.45898846  0.25000000  1
  O  O3  1  0.45898846  0.54101154  0.75000000  1
  O  O4  1  0.45898846  0.91797891  0.75000000  1
  O  O5  1  0.08202109  0.54101154  0.75000000  1
  O  O6  1  0.38594801  0.19297501  0.40109195  1
  O  O7  1  0.80702499  0.19297501  0.40109195  1
  O  O8  1  0.80702499  0.61405199  0.40109195  1
  O  O9  1  0.61405199  0.80702499  0.59890805  1
  O  O10  1  0.19297501  0.80702499  0.59890805  1
  O  O11  1  0.19297501  0.38594801  0.59890805  1
  O  O12  1  0.61405199  0.80702499  0.90109195  1
  O  O13  1  0.19297501  0.80702499  0.90109195  1
  O  O14  1  0.19297501  0.38594801  0.90109195  1
  O  O15  1  0.38594801  0.19297501  0.09890805  1
  O  O16  1  0.80702499  0.19297501  0.09890805  1
  O  O17  1  0.80702499  0.61405199  0.09890805  1
loop_
_geom_bond_atom_site_label_1
_geom_bond_atom_site_label_2
_geom_bond_distance
_geom_bond_site_symmetry_2
Cs0 O8 3.167074 1_445
Cs0 O17 3.167074 1_445
Cs0 O6 3.167074 1_555
Cs0 O15 3.167074 1_555
Cs0 O7 3.167081 1_455
Cs0 O16 3.167081 1_455
Cs0 O2 3.276588 1_455
Cs0 O1 3.276588 1_455
Cs0 O0 3.276597 1_445
Cs0 O0 3.276597 1_555
Cs0 O2 3.276601 1_445
Cs0 O1 3.276601 1_555
Cs1 O14 3.167074 1_555
Cs1 O11 3.167074 1_555
Cs1 O12 3.167074 1_445
Cs1 O9 3.167074 1_445
Cs1 O13 3.167081 1_545
Cs1 O10 3.167081 1_545
Cs1 O5 3.276588 1_545
Cs1 O4 3.276588 1_545
Cs1 O3 3.276597 1_555
Cs1 O3 3.276597 1_445
Cs1 O5 3.276601 1_555
Cs1 O4 3.276601 1_445
Cs2 O1 3.237341 1_565
Cs2 O2 3.237341 1_455
Cs2 O0 3.237353 1_555
Cs2 O6 3.258101 1_555
Cs2 O8 3.258101 1_555
Cs2 O7 3.258106 1_565
Cs2 O7 3.258106 1_455
Cs2 O6 3.258108 1_565
Cs2 O8 3.258108 1_455
Cs2 O10 3.466193 1_555
Cs2 O11 3.466201 1_555
Cs2 O9 3.466201 1_555
Cs3 O4 3.237341 1_545
Cs3 O5 3.237341 1_655
Cs3 O3 3.237353 1_555
Cs3 O9 3.258101 1_555
Cs3 O11 3.258101 1_555
Cs3 O10 3.258106 1_545
Cs3 O10 3.258106 1_655
Cs3 O9 3.258108 1_545
Cs3 O11 3.258108 1_655
Cs3 O7 3.466193 1_555
Cs3 O8 3.466201 1_555
Cs3 O6 3.466201 1_555
Cs4 O4 3.237341 1_545
Cs4 O5 3.237341 1_655
Cs4 O3 3.237353 1_555
Cs4 O12 3.258101 1_555
Cs4 O14 3.258101 1_555
Cs4 O13 3.258106 1_545
Cs4 O13 3.258106 1_655
Cs4 O12 3.258108 1_545
Cs4 O14 3.258108 1_655
Cs4 O16 3.466193 1_556
Cs4 O17 3.466201 1_556
Cs4 O15 3.466201 1_556
Cs5 O1 3.237341 1_565
Cs5 O2 3.237341 1_455
Cs5 O0 3.237353 1_555
Cs5 O15 3.258101 1_555
Cs5 O17 3.258101 1_555
Cs5 O16 3.258106 1_565
Cs5 O16 3.258106 1_455
Cs5 O15 3.258108 1_565
Cs5 O17 3.258108 1_455
Cs5 O13 3.466193 1_554
Cs5 O14 3.466201 1_554
Cs5 O12 3.466201 1_554
K0 O11 2.643058 1_555
K0 O8 2.643058 1_445
K0 O9 2.643058 1_445
K0 O6 2.643058 1_555
K0 O10 2.643066 1_545
K0 O7 2.643066 1_455
K1 O17 2.643058 1_445
K1 O14 2.643058 1_554
K1 O15 2.643058 1_555
K1 O12 2.643058 1_444
K1 O16 2.643066 1_455
K1 O13 2.643066 1_544
O0 Os0 2.016948 1_555
O0 Os3 2.016948 1_555
O1 Os0 2.016952 1_555
O1 Os3 2.016952 1_555
O2 Os0 2.016952 1_555
O2 Os3 2.016952 1_555
O3 Os2 2.016948 1_555
O3 Os1 2.016948 1_555
O4 Os2 2.016952 1_555
O4 Os1 2.016952 1_555
O5 Os2 2.016952 1_555
O5 Os1 2.016952 1_555
O6 Os0 1.800360 1_555
O7 Os0 1.800345 1_555
O8 Os0 1.800360 1_555
O9 Os1 1.800360 1_555
O10 Os1 1.800345 1_555
O11 Os1 1.800360 1_555
O12 Os2 1.800360 1_555
O13 Os2 1.800345 1_555
O14 Os2 1.800360 1_555
O15 Os3 1.800360 1_555
O16 Os3 1.800345 1_555
O17 Os3 1.800360 1_555
