# generated using pymatgen
data_Be12Nb6Co8Si3
_symmetry_space_group_name_H-M   'P 1'
_cell_length_a   7.63316913
_cell_length_b   7.63316839
_cell_length_c   7.62291059
_cell_angle_alpha   59.75725870
_cell_angle_beta   59.75726995
_cell_angle_gamma   59.98193652
_symmetry_Int_Tables_number   1
_chemical_formula_structural   Be12Nb6Co8Si3
_chemical_formula_sum   'Be12 Nb6 Co8 Si3'
_cell_volume   312.86248248
_cell_formula_units_Z   1
loop_
 _symmetry_equiv_pos_site_id
 _symmetry_equiv_pos_as_xyz
  1  'x, y, z'
loop_
 _atom_site_type_symbol
 _atom_site_label
 _atom_site_symmetry_multiplicity
 _atom_site_fract_x
 _atom_site_fract_y
 _atom_site_fract_z
 _atom_site_occupancy
  Be  Be0  1  0.33045059  0.33045059  0.31580430  1
  Be  Be1  1  0.66954941  0.66954941  0.68419570  1
  Be  Be2  1  0.32663899  0.32663899  0.01982248  1
  Be  Be3  1  0.32286609  0.02261510  0.32043790  1
  Be  Be4  1  0.67336101  0.67336101  0.98017752  1
  Be  Be5  1  0.67713391  0.97738490  0.67956210  1
  Be  Be6  1  0.02261510  0.32286609  0.32043790  1
  Be  Be7  1  0.97738490  0.67713391  0.67956210  1
  Be  Be8  1  0.50000000  0.00000000  0.00000000  1
  Be  Be9  1  0.00000000  0.50000000  0.00000000  1
  Be  Be10  1  0.00000000  0.00000000  0.50000000  1
  Be  Be11  1  0.50000000  0.50000000  0.00000000  1
  Nb  Nb0  1  0.71068529  0.29279775  0.28916044  1
  Nb  Nb1  1  0.28931471  0.70720225  0.71083956  1
  Nb  Nb2  1  0.29279775  0.71068529  0.28916044  1
  Nb  Nb3  1  0.70720225  0.28931471  0.71083956  1
  Nb  Nb4  1  0.29435783  0.29435783  0.70863712  1
  Nb  Nb5  1  0.70564217  0.70564217  0.29136288  1
  Co  Co0  1  0.12263876  0.12263876  0.12278896  1
  Co  Co1  1  0.87736124  0.87736224  0.87721104  1
  Co  Co2  1  0.12300903  0.12300903  0.62861169  1
  Co  Co3  1  0.12408022  0.63041075  0.12135425  1
  Co  Co4  1  0.87699097  0.87699197  0.37138831  1
  Co  Co5  1  0.87591978  0.36958925  0.87864475  1
  Co  Co6  1  0.63041075  0.12408022  0.12135525  1
  Co  Co7  1  0.36958925  0.87591978  0.87864475  1
  Si  Si0  1  0.00000000  0.50000000  0.50000000  1
  Si  Si1  1  0.50000000  0.00000000  0.50000000  1
  Si  Si2  1  0.00000000  0.00000000  0.00000000  1
loop_
_geom_bond_atom_site_label_1
_geom_bond_atom_site_label_2
_geom_bond_distance
_geom_bond_site_symmetry_2
Be0 Be11 2.131725 1_555
Be0 Si1 2.237297 1_555
Be0 Si0 2.237298 1_555
Be0 Be2 2.285919 1_555
Be0 Co6 2.290330 1_555
Be0 Co3 2.290334 1_555
Be0 Be3 2.361444 1_555
Be0 Be6 2.361444 1_555
Be0 Co2 2.366912 1_555
Be0 Nb2 2.679200 1_555
Be0 Nb0 2.679201 1_555
Be0 Nb4 2.744606 1_555
Be1 Be11 2.131725 1_556
Be1 Si1 2.237297 1_565
Be1 Si0 2.237298 1_655
Be1 Be4 2.285919 1_555
Be1 Co5 2.290330 1_555
Be1 Co7 2.290330 1_555
Be1 Be5 2.361444 1_555
Be1 Be7 2.361444 1_555
Be1 Co4 2.366916 1_555
Be1 Nb3 2.679200 1_555
Be1 Nb1 2.679201 1_555
Be1 Nb5 2.744606 1_555
Be2 Be8 2.206211 1_555
Be2 Be9 2.206211 1_555
Be2 Be3 2.298053 1_555
Be2 Be6 2.298053 1_555
Be2 Co3 2.319791 1_555
Be2 Co6 2.319795 1_555
Be2 Co0 2.330096 1_555
Be2 Nb4 2.643259 1_554
Be2 Nb1 2.650093 1_554
Be2 Nb3 2.650093 1_554
Be3 Be8 2.165385 1_555
Be3 Si1 2.263685 1_555
Be3 Co0 2.276438 1_555
Be3 Be6 2.291241 1_555
Be3 Co6 2.336737 1_555
Be3 Co2 2.338135 1_555
Be3 Nb2 2.636760 1_545
Be3 Nb5 2.693459 1_545
Be3 Nb1 2.711152 1_545
Be4 Be8 2.206211 1_566
Be4 Be9 2.206211 1_656
Be4 Be5 2.298053 1_555
Be4 Be7 2.298053 1_555
Be4 Co7 2.319795 1_555
Be4 Co5 2.319795 1_555
Be4 Co1 2.330102 1_555
Be4 Nb5 2.643259 1_556
Be4 Nb0 2.650093 1_556
Be4 Nb2 2.650093 1_556
Be5 Be8 2.165385 1_566
Be5 Si1 2.263685 1_565
Be5 Co1 2.276440 1_555
Be5 Be7 2.291241 1_555
Be5 Co7 2.336737 1_555
Be5 Co4 2.338131 1_555
Be5 Nb3 2.636760 1_565
Be5 Nb4 2.693459 1_565
Be5 Nb0 2.711152 1_565
Be6 Be9 2.165385 1_555
Be6 Si0 2.263685 1_555
Be6 Co0 2.276438 1_555
Be6 Co3 2.336736 1_555
Be6 Co2 2.338134 1_555
Be6 Nb0 2.636760 1_455
Be6 Nb5 2.693458 1_455
Be6 Nb3 2.711152 1_455
Be7 Be9 2.165385 1_656
Be7 Si0 2.263685 1_655
Be7 Co1 2.276444 1_555
Be7 Co5 2.336736 1_555
Be7 Co4 2.338134 1_555
Be7 Nb1 2.636760 1_655
Be7 Nb4 2.693458 1_655
Be7 Nb2 2.711152 1_655
Be8 Co6 2.344625 1_555
Be8 Co7 2.344625 1_544
Be8 Co0 2.349107 1_555
Be8 Co1 2.349108 1_544
Be8 Nb3 2.704915 1_554
Be8 Nb2 2.704915 1_545
Be8 Nb5 2.720571 1_545
Be8 Nb4 2.720571 1_554
Be9 Co3 2.344619 1_555
Be9 Co5 2.344625 1_454
Be9 Co0 2.349107 1_555
Be9 Co1 2.349113 1_454
Be9 Nb0 2.704916 1_455
Be9 Nb1 2.704916 1_554
Be9 Nb5 2.720571 1_455
Be9 Nb4 2.720571 1_554
Be10 Be6 2.183267 1_555
Be10 Be7 2.183267 1_445
Be10 Be3 2.183267 1_555
Be10 Be5 2.183267 1_445
Be10 Co4 2.336895 1_445
Be10 Co2 2.336901 1_555
Be10 Co0 2.339797 1_555
Be10 Co1 2.339797 1_445
Be10 Nb0 2.733823 1_455
Be10 Nb1 2.733823 1_545
Be10 Nb3 2.733823 1_455
Be10 Nb2 2.733823 1_545
Be11 Be4 2.207774 1_554
Be11 Be2 2.207774 1_555
Be11 Co7 2.340131 1_554
Be11 Co6 2.340131 1_555
Be11 Co5 2.340131 1_554
Be11 Co3 2.340131 1_555
Be11 Nb1 2.731407 1_554
Be11 Nb0 2.731407 1_555
Be11 Nb2 2.731407 1_555
Be11 Nb3 2.731407 1_554
Nb0 Si1 2.745673 1_555
Nb1 Si1 2.745673 1_565
Nb2 Si0 2.745673 1_555
Nb3 Si0 2.745673 1_655
Nb4 Si0 2.756433 1_555
Nb4 Si1 2.756433 1_555
Nb5 Si0 2.756433 1_655
Nb5 Si1 2.756433 1_565
Co0 Si2 2.295833 1_555
Co0 Nb2 2.595961 1_545
Co0 Nb0 2.595962 1_455
Co0 Nb4 2.604847 1_554
Co1 Si2 2.295827 1_666
Co1 Nb3 2.595956 1_565
Co1 Nb1 2.595963 1_655
Co1 Nb5 2.604848 1_556
Co2 Si2 2.303226 1_556
Co2 Si0 2.346391 1_555
Co2 Si1 2.346391 1_555
Co2 Nb1 2.616171 1_545
Co2 Nb3 2.616171 1_455
Co2 Nb4 2.666943 1_555
Co3 Si2 2.300410 1_565
Co3 Si0 2.348275 1_555
Co3 Nb1 2.577432 1_554
Co3 Nb2 2.628472 1_555
Co3 Nb5 2.637388 1_455
Co4 Si2 2.303226 1_665
Co4 Si1 2.346391 1_565
Co4 Si0 2.346397 1_655
Co4 Nb0 2.616164 1_565
Co4 Nb2 2.616171 1_655
Co4 Nb5 2.666950 1_555
Co5 Si2 2.300410 1_656
Co5 Si0 2.348268 1_655
Co5 Nb0 2.577438 1_556
Co5 Nb3 2.628466 1_555
Co5 Nb4 2.637388 1_655
Co6 Si2 2.300411 1_655
Co6 Si1 2.348268 1_555
Co6 Nb3 2.577438 1_554
Co6 Nb0 2.628466 1_555
Co6 Nb5 2.637388 1_545
Co7 Si2 2.300411 1_566
Co7 Si1 2.348268 1_565
Co7 Nb2 2.577438 1_556
Co7 Nb1 2.628466 1_555
Co7 Nb4 2.637388 1_565
