# generated using pymatgen
data_Ta5Nb3(Co2N)2
_symmetry_space_group_name_H-M   'P 1'
_cell_length_a   8.20207662
_cell_length_b   8.20202646
_cell_length_c   8.20203919
_cell_angle_alpha   59.99990286
_cell_angle_beta   60.00002276
_cell_angle_gamma   59.99988919
_symmetry_Int_Tables_number   1
_chemical_formula_structural   Ta5Nb3(Co2N)2
_chemical_formula_sum   'Ta10 Nb6 Co8 N4'
_cell_volume   390.16761795
_cell_formula_units_Z   2
loop_
 _symmetry_equiv_pos_site_id
 _symmetry_equiv_pos_as_xyz
  1  'x, y, z'
loop_
 _atom_site_type_symbol
 _atom_site_label
 _atom_site_symmetry_multiplicity
 _atom_site_fract_x
 _atom_site_fract_y
 _atom_site_fract_z
 _atom_site_occupancy
  Ta  Ta0  1  0.12467992  0.62510797  0.62510720  1
  Ta  Ta1  1  0.62510927  0.12469055  0.62509784  1
  Ta  Ta2  1  0.62510738  0.62510608  0.12467525  1
  Ta  Ta3  1  0.62510955  0.62510549  0.62510977  1
  Ta  Ta4  1  0.43678622  0.43676556  0.06322609  1
  Ta  Ta5  1  0.06321340  0.06322361  0.43677629  1
  Ta  Ta6  1  0.43679207  0.06321813  0.43677671  1
  Ta  Ta7  1  0.06321382  0.43677080  0.06322655  1
  Ta  Ta8  1  0.06321592  0.43677119  0.43678809  1
  Ta  Ta9  1  0.43678952  0.06320930  0.06321347  1
  Nb  Nb0  1  0.81245557  0.81244935  0.18754957  1
  Nb  Nb1  1  0.18754458  0.18754134  0.81245491  1
  Nb  Nb2  1  0.81246079  0.18754079  0.81246008  1
  Nb  Nb3  1  0.18754764  0.81245222  0.18754068  1
  Nb  Nb4  1  0.18754349  0.81245576  0.81245904  1
  Nb  Nb5  1  0.81245343  0.18755278  0.18755076  1
  Co  Co0  1  0.74993296  0.41669664  0.41668588  1
  Co  Co1  1  0.41669054  0.74992192  0.41669204  1
  Co  Co2  1  0.41668625  0.41669275  0.74993385  1
  Co  Co3  1  0.41668490  0.41669064  0.41668584  1
  Co  Co4  1  0.50438187  0.83188551  0.83186709  1
  Co  Co5  1  0.83187463  0.50438856  0.83186991  1
  Co  Co6  1  0.83186942  0.83188464  0.50438029  1
  Co  Co7  1  0.83186553  0.83188680  0.83186743  1
  N  N0  1  0.61936317  0.12687456  0.12687975  1
  N  N1  1  0.12687298  0.61937268  0.12687619  1
  N  N2  1  0.12687579  0.12687315  0.61937393  1
  N  N3  1  0.12687940  0.12687320  0.12687548  1
loop_
_geom_bond_atom_site_label_1
_geom_bond_atom_site_label_2
_geom_bond_distance
_geom_bond_site_symmetry_2
Co0 Ta1 2.512837 1_555
Co0 Ta3 2.512856 1_555
Co0 Ta2 2.512875 1_555
Co0 Co1 2.733197 1_555
Co0 Co2 2.733315 1_555
Co0 Co3 2.733351 1_555
Co0 Ta7 2.744232 1_655
Co0 Ta8 2.744247 1_655
Co0 Ta5 2.744285 1_655
Co0 Nb0 2.988608 1_555
Co0 Nb5 2.988645 1_555
Co0 Nb2 2.988779 1_555
Co1 Ta0 2.512834 1_555
Co1 Ta2 2.512875 1_555
Co1 Ta3 2.512905 1_555
Co1 Co2 2.733204 1_555
Co1 Co3 2.733220 1_555
Co1 Ta9 2.744332 1_565
Co1 Ta6 2.744384 1_565
Co1 Ta5 2.744384 1_565
Co1 Nb3 2.988724 1_555
Co1 Nb0 2.988729 1_555
Co1 Nb4 2.988751 1_555
Co2 Ta0 2.512858 1_555
Co2 Ta1 2.512863 1_555
Co2 Ta3 2.512884 1_555
Co2 Co3 2.733327 1_555
Co2 Ta4 2.744293 1_556
Co2 Ta9 2.744325 1_556
Co2 Ta7 2.744337 1_556
Co2 Nb4 2.988687 1_555
Co2 Nb1 2.988750 1_555
Co2 Nb2 2.988787 1_555
Co3 Ta1 2.512852 1_555
Co3 Ta0 2.512876 1_555
Co3 Ta2 2.512887 1_555
Co3 Ta4 2.744237 1_555
Co3 Ta6 2.744258 1_555
Co3 Ta8 2.744302 1_555
Co3 Nb3 2.988664 1_555
Co3 Nb5 2.988669 1_555
Co3 Nb1 2.988723 1_555
Co4 Ta1 2.500037 1_565
Co4 Ta2 2.500049 1_556
Co4 Ta3 2.500067 1_555
Co4 Co7 2.686053 1_555
Co4 Co6 2.686070 1_555
Co4 Co5 2.686125 1_555
Co4 Nb1 2.767079 1_565
Co4 Nb3 2.767158 1_556
Co4 Nb4 2.767190 1_555
Co4 Ta9 3.000683 1_566
Co4 Ta6 3.000763 1_565
Co4 Ta4 3.000988 1_556
Co5 Ta2 2.499996 1_556
Co5 Ta0 2.500014 1_655
Co5 Ta3 2.500018 1_555
Co5 Co7 2.686102 1_555
Co5 Co6 2.686103 1_555
Co5 Nb1 2.767183 1_655
Co5 Nb5 2.767185 1_556
Co5 Nb2 2.767187 1_555
Co5 Ta7 3.000779 1_656
Co5 Ta8 3.000798 1_655
Co5 Ta4 3.000876 1_556
Co6 Ta1 2.499996 1_565
Co6 Ta0 2.500077 1_655
Co6 Ta3 2.500083 1_555
Co6 Co7 2.686055 1_555
Co6 Nb5 2.767103 1_565
Co6 Nb0 2.767168 1_555
Co6 Nb3 2.767200 1_655
Co6 Ta6 3.000729 1_565
Co6 Ta5 3.000739 1_665
Co6 Ta8 3.000929 1_655
Co7 Ta1 2.500003 1_565
Co7 Ta2 2.500075 1_556
Co7 Ta0 2.500090 1_655
Co7 Nb2 2.767084 1_565
Co7 Nb0 2.767192 1_556
Co7 Nb4 2.767200 1_655
Co7 Ta9 3.000678 1_566
Co7 Ta5 3.000785 1_665
Co7 Ta7 3.000945 1_656
N0 Ta4 2.150362 1_555
N0 Ta6 2.150393 1_555
N0 Ta9 2.150451 1_555
N0 Nb2 2.197061 1_554
N0 Nb0 2.197075 1_545
N0 Nb5 2.197165 1_555
N1 Ta7 2.150530 1_555
N1 Ta8 2.150533 1_555
N1 Ta4 2.150559 1_555
N1 Nb0 2.197009 1_455
N1 Nb4 2.197013 1_554
N1 Nb3 2.197017 1_555
N2 Ta8 2.150419 1_555
N2 Ta5 2.150516 1_555
N2 Ta6 2.150561 1_555
N2 Nb4 2.197014 1_545
N2 Nb1 2.197017 1_555
N2 Nb2 2.197018 1_455
N3 Ta7 2.150411 1_555
N3 Ta5 2.150440 1_555
N3 Ta9 2.150503 1_555
N3 Nb3 2.197040 1_545
N3 Nb1 2.197043 1_554
N3 Nb5 2.197052 1_455
