# generated using pymatgen
data_HfTi2AsC2
_symmetry_space_group_name_H-M   'P 1'
_cell_length_a   3.25007429
_cell_length_b   3.25007535
_cell_length_c   17.10157020
_cell_angle_alpha   90.00000000
_cell_angle_beta   90.00000000
_cell_angle_gamma   120.00001996
_symmetry_Int_Tables_number   1
_chemical_formula_structural   HfTi2AsC2
_chemical_formula_sum   'Hf2 Ti4 As2 C4'
_cell_volume   156.44196027
_cell_formula_units_Z   2
loop_
 _symmetry_equiv_pos_site_id
 _symmetry_equiv_pos_as_xyz
  1  'x, y, z'
loop_
 _atom_site_type_symbol
 _atom_site_label
 _atom_site_symmetry_multiplicity
 _atom_site_fract_x
 _atom_site_fract_y
 _atom_site_fract_z
 _atom_site_occupancy
  Hf  Hf0  1  0.00000000  0.00000000  0.50000000  1
  Hf  Hf1  1  0.00000000  0.00000000  0.00000000  1
  Ti  Ti0  1  0.66666700  0.33333300  0.35626615  1
  Ti  Ti1  1  0.33333300  0.66666700  0.64373385  1
  Ti  Ti2  1  0.33333300  0.66666700  0.85626615  1
  Ti  Ti3  1  0.66666700  0.33333300  0.14373385  1
  As  As0  1  0.00000000  0.00000000  0.25000000  1
  As  As1  1  0.00000000  0.00000000  0.75000000  1
  C  C0  1  0.66666700  0.33333300  0.91931082  1
  C  C1  1  0.33333300  0.66666700  0.08068918  1
  C  C2  1  0.33333300  0.66666700  0.41931082  1
  C  C3  1  0.66666700  0.33333300  0.58068918  1
loop_
_geom_bond_atom_site_label_1
_geom_bond_atom_site_label_2
_geom_bond_distance
_geom_bond_site_symmetry_2
As0 Ti0 2.612209 1_455
As0 Ti3 2.612209 1_455
As0 Ti0 2.612210 1_555
As0 Ti3 2.612210 1_555
As0 Ti0 2.612210 1_445
As0 Ti3 2.612210 1_445
As1 Ti2 2.612209 1_545
As1 Ti1 2.612209 1_545
As1 Ti2 2.612210 1_445
As1 Ti1 2.612210 1_445
As1 Ti2 2.612210 1_555
As1 Ti1 2.612210 1_555
C0 Ti2 2.164121 1_655
C0 Ti2 2.164122 1_545
C0 Ti2 2.164127 1_555
C0 Hf1 2.329194 1_656
C0 Hf1 2.329196 1_556
C0 Hf1 2.329196 1_666
C1 Ti3 2.164121 1_455
C1 Ti3 2.164122 1_565
C1 Ti3 2.164127 1_555
C1 Hf1 2.329194 1_565
C1 Hf1 2.329196 1_665
C1 Hf1 2.329196 1_555
C2 Ti0 2.164121 1_455
C2 Ti0 2.164122 1_565
C2 Ti0 2.164127 1_555
C2 Hf0 2.329194 1_565
C2 Hf0 2.329196 1_665
C2 Hf0 2.329196 1_555
C3 Ti1 2.164121 1_655
C3 Ti1 2.164122 1_545
C3 Ti1 2.164127 1_555
C3 Hf0 2.329194 1_655
C3 Hf0 2.329196 1_555
C3 Hf0 2.329196 1_665
