# generated using pymatgen
data_Y5ZnIO12
_symmetry_space_group_name_H-M   'P 1'
_cell_length_a   6.46131749
_cell_length_b   6.25098781
_cell_length_c   6.50825342
_cell_angle_alpha   99.58015017
_cell_angle_beta   99.11227042
_cell_angle_gamma   96.29078987
_symmetry_Int_Tables_number   1
_chemical_formula_structural   Y5ZnIO12
_chemical_formula_sum   'Y5 Zn1 I1 O12'
_cell_volume   253.42210674
_cell_formula_units_Z   1
loop_
 _symmetry_equiv_pos_site_id
 _symmetry_equiv_pos_as_xyz
  1  'x, y, z'
loop_
 _atom_site_type_symbol
 _atom_site_label
 _atom_site_symmetry_multiplicity
 _atom_site_fract_x
 _atom_site_fract_y
 _atom_site_fract_z
 _atom_site_occupancy
  Y  Y0  1  0.39042266  0.69162022  0.85062264  1
  Y  Y1  1  0.86683737  0.37922056  0.67826840  1
  Y  Y2  1  0.67455587  0.85140718  0.39407960  1
  Y  Y3  1  0.60348564  0.31038450  0.13348899  1
  Y  Y4  1  0.14682128  0.61317945  0.32502577  1
  Zn  Zn0  1  0.36667363  0.17649983  0.58947596  1
  I  I0  1  0.99291423  0.99335022  0.00462596  1
  O  O0  1  0.19493801  0.41791025  0.59135972  1
  O  O1  1  0.60761115  0.18476794  0.42596251  1
  O  O2  1  0.42800327  0.60010642  0.17583967  1
  O  O3  1  0.82761642  0.56131902  0.40285886  1
  O  O4  1  0.39055542  0.85450600  0.57272339  1
  O  O5  1  0.58466473  0.41523139  0.82343855  1
  O  O6  1  0.90796976  0.01310758  0.71980287  1
  O  O7  1  0.96465418  0.29208892  0.07047681  1
  O  O8  1  0.28090512  0.05821253  0.99774868  1
  O  O9  1  0.04253267  0.96029831  0.28855259  1
  O  O10  1  0.02899552  0.69565914  0.92799595  1
  O  O11  1  0.69984208  0.93112954  0.02765406  1
loop_
_geom_bond_atom_site_label_1
_geom_bond_atom_site_label_2
_geom_bond_distance
_geom_bond_site_symmetry_2
I0 O8 1.869774 1_664
I0 O9 1.874575 1_655
I0 O6 1.876567 1_564
I0 O7 1.880789 1_565
I0 O10 1.894435 1_654
I0 O11 1.925479 1_555
O0 Zn0 1.968199 1_555
O0 Y1 2.277199 1_455
O0 Y4 2.282077 1_555
O0 Y0 2.293537 1_555
O1 Zn0 2.020922 1_555
O1 Y2 2.157442 1_545
O1 Y3 2.174074 1_555
O1 Y1 2.235538 1_555
O2 Y4 2.194321 1_555
O2 Y2 2.239448 1_555
O2 Y3 2.241500 1_555
O2 Y0 2.266462 1_554
O3 Y2 2.163128 1_555
O3 Y4 2.203312 1_655
O3 Y1 2.274034 1_555
O3 Y3 2.326769 1_555
O4 Zn0 2.021714 1_565
O4 Y0 2.218371 1_555
O4 Y4 2.284814 1_555
O4 Y2 2.322820 1_555
O5 Zn0 2.152477 1_555
O5 Y1 2.198219 1_555
O5 Y3 2.212724 1_556
O5 Y0 2.243929 1_555
O6 Y1 2.386986 1_555
O6 Y2 2.393786 1_545
O7 Y4 2.432365 1_655
O7 Y3 2.443986 1_555
O7 Y1 2.690547 1_554
O8 Y3 2.417182 1_556
O8 Y0 2.551174 1_545
O9 Y4 2.379033 1_555
O9 Y2 2.627968 1_455
O10 Y1 2.363978 1_455
O10 Y0 2.467587 1_555
O10 Y4 2.725563 1_556
O11 Y0 2.367762 1_554
O11 Y3 2.529451 1_565
O11 Y2 2.542324 1_555
