# generated using pymatgen
data_Li2Lu3MgSn3
_symmetry_space_group_name_H-M   'P 1'
_cell_length_a   7.15041639
_cell_length_b   7.27674939
_cell_length_c   4.56649953
_cell_angle_alpha   90.00000000
_cell_angle_beta   90.00000000
_cell_angle_gamma   120.58620450
_symmetry_Int_Tables_number   1
_chemical_formula_structural   Li2Lu3MgSn3
_chemical_formula_sum   'Li2 Lu3 Mg1 Sn3'
_cell_volume   204.54412081
_cell_formula_units_Z   1
loop_
 _symmetry_equiv_pos_site_id
 _symmetry_equiv_pos_as_xyz
  1  'x, y, z'
loop_
 _atom_site_type_symbol
 _atom_site_label
 _atom_site_symmetry_multiplicity
 _atom_site_fract_x
 _atom_site_fract_y
 _atom_site_fract_z
 _atom_site_occupancy
  Li  Li0  1  0.23340063  0.23931690  0.50000000  1
  Li  Li1  1  0.76659937  0.00591526  0.50000000  1
  Lu  Lu0  1  0.00000000  0.44014428  0.00000000  1
  Lu  Lu1  1  0.55391100  0.54928238  0.00000000  1
  Lu  Lu2  1  0.44608900  0.99537138  0.00000000  1
  Mg  Mg0  1  1.00000000  0.76908530  0.50000000  1
  Sn  Sn0  1  0.34014279  0.66450504  0.50000000  1
  Sn  Sn1  1  1.00000000  0.01201923  0.00000000  1
  Sn  Sn2  1  0.65985721  0.32436125  0.50000000  1
loop_
_geom_bond_atom_site_label_1
_geom_bond_atom_site_label_2
_geom_bond_distance
_geom_bond_site_symmetry_2
Li0 Sn0 2.784259 1_555
Li0 Sn2 2.785865 1_555
Li0 Sn1 2.815145 1_456
Li0 Sn1 2.815145 1_455
Li0 Li1 2.873414 1_455
Li0 Mg0 2.946554 1_445
Li0 Lu1 3.208180 1_555
Li0 Lu1 3.208180 1_556
Li0 Lu0 3.551913 1_556
Li0 Lu0 3.551913 1_555
Li1 Sn2 2.784259 1_555
Li1 Sn0 2.785859 1_545
Li1 Sn1 2.815143 1_556
Li1 Sn1 2.815143 1_555
Li1 Mg0 2.946549 1_545
Li1 Lu2 3.208183 1_546
Li1 Lu2 3.208183 1_545
Li1 Lu0 3.551918 1_655
Li1 Lu0 3.551918 1_656
Lu0 Sn1 3.115359 1_455
Lu0 Sn2 3.123000 1_455
Lu0 Sn2 3.123000 1_454
Lu0 Sn0 3.123001 1_554
Lu0 Sn0 3.123001 1_555
Lu0 Mg0 3.307968 1_455
Lu0 Mg0 3.307968 1_454
Lu0 Lu2 3.621707 1_445
Lu0 Lu1 3.621707 1_555
Lu0 Lu2 3.658274 1_555
Lu0 Lu1 3.658275 1_455
Lu1 Sn0 3.091418 1_555
Lu1 Sn0 3.091418 1_554
Lu1 Sn2 3.118925 1_555
Lu1 Sn2 3.118925 1_554
Lu1 Sn1 3.253035 1_565
Lu1 Mg0 3.571254 1_555
Lu1 Mg0 3.571254 1_554
Lu2 Sn2 3.091414 1_565
Lu2 Sn2 3.091414 1_564
Lu2 Sn0 3.118921 1_555
Lu2 Sn0 3.118921 1_554
Lu2 Sn1 3.253035 1_465
Lu2 Mg0 3.571254 1_455
Lu2 Mg0 3.571254 1_454
Mg0 Sn1 2.887601 1_565
Mg0 Sn1 2.887601 1_566
Mg0 Sn0 2.894500 1_655
Mg0 Sn2 2.894504 1_555
