# generated using pymatgen
data_Sc6Ti4Al12Ru7
_symmetry_space_group_name_H-M   'P 1'
_cell_length_a   8.78191657
_cell_length_b   8.78191681
_cell_length_c   8.78191632
_cell_angle_alpha   60.00000555
_cell_angle_beta   60.00000465
_cell_angle_gamma   60.00000186
_symmetry_Int_Tables_number   1
_chemical_formula_structural   Sc6Ti4Al12Ru7
_chemical_formula_sum   'Sc6 Ti4 Al12 Ru7'
_cell_volume   478.90895977
_cell_formula_units_Z   1
loop_
 _symmetry_equiv_pos_site_id
 _symmetry_equiv_pos_as_xyz
  1  'x, y, z'
loop_
 _atom_site_type_symbol
 _atom_site_label
 _atom_site_symmetry_multiplicity
 _atom_site_fract_x
 _atom_site_fract_y
 _atom_site_fract_z
 _atom_site_occupancy
  Sc  Sc0  1  0.70960547  0.70960547  0.29039453  1
  Sc  Sc1  1  0.29039453  0.70960547  0.29039453  1
  Sc  Sc2  1  0.70960547  0.29039453  0.29039453  1
  Sc  Sc3  1  0.29039453  0.29039453  0.70960547  1
  Sc  Sc4  1  0.70960547  0.29039453  0.70960547  1
  Sc  Sc5  1  0.29039453  0.70960547  0.70960547  1
  Ti  Ti0  1  0.88043253  0.88043253  0.35870240  1
  Ti  Ti1  1  0.88043253  0.35870240  0.88043253  1
  Ti  Ti2  1  0.35870240  0.88043253  0.88043253  1
  Ti  Ti3  1  0.88043253  0.88043253  0.88043253  1
  Al  Al0  1  0.12012747  0.12012747  0.63961659  1
  Al  Al1  1  0.12012747  0.63961659  0.12012747  1
  Al  Al2  1  0.63961659  0.12012747  0.12012747  1
  Al  Al3  1  0.12012747  0.12012747  0.12012747  1
  Al  Al4  1  0.66700871  0.66700871  0.99897387  1
  Al  Al5  1  0.66700871  0.99897387  0.66700871  1
  Al  Al6  1  0.99897387  0.66700871  0.66700871  1
  Al  Al7  1  0.66700871  0.66700871  0.66700871  1
  Al  Al8  1  0.33343866  0.33343866  0.99968301  1
  Al  Al9  1  0.33343866  0.99968301  0.33343866  1
  Al  Al10  1  0.99968301  0.33343866  0.33343866  1
  Al  Al11  1  0.33343866  0.33343866  0.33343866  1
  Ru  Ru0  1  0.00000000  0.00000000  0.00000000  1
  Ru  Ru1  1  0.99844107  0.99844107  0.50155893  1
  Ru  Ru2  1  0.50155893  0.99844107  0.50155893  1
  Ru  Ru3  1  0.99844107  0.50155893  0.50155893  1
  Ru  Ru4  1  0.50155893  0.50155893  0.99844107  1
  Ru  Ru5  1  0.99844107  0.50155893  0.99844107  1
  Ru  Ru6  1  0.50155893  0.99844107  0.99844107  1
loop_
_geom_bond_atom_site_label_1
_geom_bond_atom_site_label_2
_geom_bond_distance
_geom_bond_site_symmetry_2
Sc0 Ti0 2.985197 1_555
Sc0 Ti3 2.985197 1_554
Sc1 Ti0 2.985197 1_455
Sc1 Ti2 2.985197 1_554
Sc2 Ti1 2.985197 1_554
Sc2 Ti0 2.985197 1_545
Sc3 Ti1 2.985197 1_455
Sc3 Ti2 2.985197 1_545
Sc4 Ti1 2.985197 1_555
Sc4 Ti3 2.985197 1_545
Sc5 Ti2 2.985197 1_555
Sc5 Ti3 2.985197 1_455
Al0 Ru0 2.584095 1_556
Al0 Ru1 2.736270 1_445
Al0 Ru2 2.736277 1_545
Al0 Ru3 2.736277 1_455
Al0 Al9 2.771910 1_545
Al0 Al10 2.771910 1_455
Al0 Al11 2.771910 1_555
Al0 Ti3 2.976909 1_445
Al0 Ti1 2.976915 1_455
Al0 Ti2 2.976915 1_545
Al0 Sc4 2.987196 1_455
Al0 Sc5 2.987196 1_545
Al0 Sc3 2.987203 1_555
Al1 Ru0 2.584095 1_565
Al1 Ru5 2.736270 1_454
Al1 Ru4 2.736277 1_554
Al1 Ru3 2.736277 1_455
Al1 Al8 2.771910 1_554
Al1 Al11 2.771910 1_555
Al1 Al10 2.771910 1_455
Al1 Ti3 2.976909 1_454
Al1 Ti0 2.976915 1_455
Al1 Ti2 2.976915 1_554
Al1 Sc5 2.987196 1_554
Al1 Sc0 2.987196 1_455
Al1 Sc1 2.987203 1_555
Al2 Ru0 2.584095 1_655
Al2 Ru6 2.736270 1_544
Al2 Ru2 2.736277 1_545
Al2 Ru4 2.736277 1_554
Al2 Al8 2.771910 1_554
Al2 Al9 2.771910 1_545
Al2 Ti3 2.976909 1_544
Al2 Ti0 2.976915 1_545
Al2 Ti1 2.976915 1_554
Al2 Sc4 2.987196 1_554
Al2 Sc0 2.987196 1_545
Al2 Sc2 2.987203 1_555
Al3 Ru0 2.584088 1_555
Al3 Ru6 2.736278 1_544
Al3 Ru1 2.736278 1_445
Al3 Ru5 2.736278 1_454
Al3 Al9 2.771910 1_545
Al3 Al8 2.771910 1_554
Al3 Ti1 2.976909 1_454
Al3 Ti2 2.976909 1_544
Al3 Ti0 2.976909 1_445
Al3 Sc2 2.987197 1_455
Al3 Sc3 2.987197 1_554
Al3 Sc1 2.987197 1_545
Al4 Ru4 2.519316 1_555
Al4 Ru5 2.519316 1_555
Al4 Ru6 2.519316 1_555
Al4 Ti2 2.778504 1_555
Al4 Ti1 2.778504 1_555
Al4 Ti3 2.778504 1_555
Al4 Sc0 2.980637 1_556
Al4 Sc1 2.980638 1_556
Al4 Sc2 2.980638 1_556
Al5 Ru2 2.519315 1_555
Al5 Ru6 2.519316 1_555
Al5 Ru1 2.519316 1_555
Al5 Ti3 2.778504 1_555
Al5 Ti0 2.778504 1_555
Al5 Ti2 2.778504 1_555
Al5 Sc4 2.980637 1_565
Al5 Sc3 2.980637 1_565
Al5 Sc2 2.980638 1_565
Al6 Ru3 2.519315 1_555
Al6 Ru5 2.519316 1_555
Al6 Ru1 2.519316 1_555
Al6 Ti3 2.778504 1_555
Al6 Ti0 2.778504 1_555
Al6 Ti1 2.778504 1_555
Al6 Sc5 2.980637 1_655
Al6 Sc3 2.980638 1_655
Al6 Sc1 2.980638 1_655
Al7 Ru3 2.519316 1_555
Al7 Ru2 2.519316 1_555
Al7 Ru4 2.519316 1_555
Al7 Ti2 2.778504 1_555
Al7 Ti1 2.778504 1_555
Al7 Ti0 2.778504 1_555
Al7 Sc0 2.980637 1_555
Al7 Sc5 2.980637 1_555
Al7 Sc4 2.980638 1_555
Al8 Ru5 2.550942 1_455
Al8 Ru6 2.550942 1_545
Al8 Ru4 2.550950 1_555
Al8 Sc3 2.973890 1_555
Al8 Sc4 2.973896 1_555
Al8 Sc5 2.973896 1_555
Al9 Ru6 2.550942 1_554
Al9 Ru1 2.550942 1_455
Al9 Ru2 2.550950 1_555
Al9 Sc1 2.973890 1_555
Al9 Sc0 2.973896 1_555
Al9 Sc5 2.973896 1_555
Al10 Ru5 2.550942 1_554
Al10 Ru1 2.550942 1_545
Al10 Ru3 2.550950 1_555
Al10 Al3 2.771910 1_655
Al10 Sc2 2.973890 1_555
Al10 Sc0 2.973896 1_555
Al10 Sc4 2.973896 1_555
Al11 Ru3 2.550945 1_455
Al11 Ru2 2.550945 1_545
Al11 Ru4 2.550945 1_554
Al11 Al2 2.771910 1_555
Al11 Sc3 2.973899 1_555
Al11 Sc2 2.973899 1_555
Al11 Sc1 2.973899 1_555
Ru0 Ti3 2.572041 1_444
Ru0 Ti2 2.572042 1_544
Ru0 Ti0 2.572042 1_445
Ru0 Ti1 2.572042 1_454
Ru1 Ti0 2.719597 1_555
Ru1 Ti3 2.719597 1_555
Ru1 Sc5 3.145205 1_655
Ru1 Sc4 3.145205 1_565
Ru1 Sc1 3.145205 1_655
Ru1 Sc2 3.145205 1_565
Ru2 Ti0 2.719597 1_555
Ru2 Ti2 2.719597 1_555
Ru2 Sc0 3.145205 1_555
Ru2 Sc3 3.145205 1_565
Ru2 Sc5 3.145205 1_555
Ru2 Sc2 3.145205 1_565
Ru3 Ti1 2.719597 1_555
Ru3 Ti0 2.719597 1_555
Ru3 Sc0 3.145205 1_555
Ru3 Sc3 3.145205 1_655
Ru3 Sc4 3.145205 1_555
Ru3 Sc1 3.145205 1_655
Ru4 Ti1 2.719597 1_555
Ru4 Ti2 2.719597 1_555
Ru4 Sc5 3.145205 1_555
Ru4 Sc4 3.145205 1_555
Ru4 Sc1 3.145205 1_556
Ru4 Sc2 3.145205 1_556
Ru5 Ti1 2.719597 1_555
Ru5 Ti3 2.719597 1_555
Ru5 Sc0 3.145205 1_556
Ru5 Sc3 3.145205 1_655
Ru5 Sc5 3.145205 1_655
Ru5 Sc2 3.145205 1_556
Ru6 Ti2 2.719597 1_555
Ru6 Ti3 2.719597 1_555
Ru6 Sc0 3.145205 1_556
Ru6 Sc3 3.145205 1_565
Ru6 Sc4 3.145205 1_565
Ru6 Sc1 3.145205 1_556
