# generated using pymatgen
data_Sc5Al16PIr7
_symmetry_space_group_name_H-M   'P 1'
_cell_length_a   8.63389328
_cell_length_b   8.70130288
_cell_length_c   8.70130331
_cell_angle_alpha   59.48812799
_cell_angle_beta   60.25594066
_cell_angle_gamma   60.25594656
_symmetry_Int_Tables_number   1
_chemical_formula_structural   Sc5Al16PIr7
_chemical_formula_sum   'Sc5 Al16 P1 Ir7'
_cell_volume   462.17727766
_cell_formula_units_Z   1
loop_
 _symmetry_equiv_pos_site_id
 _symmetry_equiv_pos_as_xyz
  1  'x, y, z'
loop_
 _atom_site_type_symbol
 _atom_site_label
 _atom_site_symmetry_multiplicity
 _atom_site_fract_x
 _atom_site_fract_y
 _atom_site_fract_z
 _atom_site_occupancy
  Sc  Sc0  1  0.80139173  0.19860827  0.19860827  1
  Sc  Sc1  1  0.78907466  0.21092534  0.78331933  1
  Sc  Sc2  1  0.78907466  0.78331933  0.21092534  1
  Sc  Sc3  1  0.21668067  0.78331933  0.21092534  1
  Sc  Sc4  1  0.21668067  0.21092534  0.78331933  1
  Al  Al0  1  0.86825715  0.83138868  0.83138868  1
  Al  Al1  1  0.84439248  0.82059938  0.49061666  1
  Al  Al2  1  0.46896649  0.83138868  0.83138868  1
  Al  Al3  1  0.84439248  0.49061666  0.82059938  1
  Al  Al4  1  0.17940062  0.15560752  0.15560752  1
  Al  Al5  1  0.16861132  0.13174285  0.53103351  1
  Al  Al6  1  0.16861132  0.53103351  0.13174285  1
  Al  Al7  1  0.50938334  0.15560752  0.15560752  1
  Al  Al8  1  0.61181880  0.61909394  0.61909394  1
  Al  Al9  1  0.62952334  0.61715905  0.12379426  1
  Al  Al10  1  0.14999431  0.61909394  0.61909394  1
  Al  Al11  1  0.62952334  0.12379426  0.61715905  1
  Al  Al12  1  0.38284095  0.37047666  0.37047666  1
  Al  Al13  1  0.38090606  0.38818120  0.85000569  1
  Al  Al14  1  0.38090606  0.85000569  0.38818120  1
  Al  Al15  1  0.87620574  0.37047666  0.37047666  1
  P  P0  1  0.01961127  0.98038873  0.98038873  1
  Ir  Ir0  1  0.51153724  0.48846276  0.48846276  1
  Ir  Ir1  1  0.01149597  0.48850403  0.48850403  1
  Ir  Ir2  1  0.51149597  0.98850403  0.98850403  1
  Ir  Ir3  1  0.51433023  0.99472005  0.48566977  1
  Ir  Ir4  1  0.51433023  0.48566977  0.99472005  1
  Ir  Ir5  1  0.00527995  0.48566977  0.99472005  1
  Ir  Ir6  1  0.00527995  0.99472005  0.48566977  1
loop_
_geom_bond_atom_site_label_1
_geom_bond_atom_site_label_2
_geom_bond_distance
_geom_bond_site_symmetry_2
Al0 Ir6 2.502898 1_655
Al0 Ir5 2.502898 1_655
Al0 Ir2 2.601322 1_555
Al0 Al10 2.699889 1_655
Al1 Ir6 2.487887 1_655
Al1 Ir3 2.487895 1_555
Al1 Ir1 2.514533 1_655
Al1 Al8 2.762583 1_555
Al1 Al10 2.762583 1_655
Al2 Ir4 2.502899 1_555
Al2 Ir3 2.502899 1_555
Al2 Ir2 2.601316 1_555
Al2 Al8 2.699889 1_555
Al3 Ir5 2.487887 1_655
Al3 Ir4 2.487895 1_555
Al3 Ir1 2.514533 1_655
Al3 Al8 2.762583 1_555
Al4 Ir6 2.487892 1_545
Al4 Ir5 2.487893 1_554
Al4 Ir2 2.514530 1_544
Al5 Ir6 2.502891 1_545
Al5 Ir3 2.502899 1_545
Al5 Ir1 2.601324 1_555
Al6 Ir5 2.502891 1_554
Al6 Ir4 2.502899 1_554
Al6 Ir1 2.601324 1_555
Al7 Ir4 2.487895 1_554
Al7 Ir3 2.487895 1_545
Al7 Ir2 2.514525 1_544
Al8 Ir0 2.568779 1_555
Al8 Ir3 2.669411 1_555
Al8 Ir4 2.669411 1_555
Al8 Ir1 2.831927 1_655
Al8 Sc2 2.936185 1_555
Al8 Sc1 2.936185 1_555
Al9 Ir0 2.583923 1_555
Al9 Ir2 2.631628 1_554
Al9 Ir4 2.664928 1_554
Al9 Ir5 2.664928 1_654
Al10 Ir0 2.568772 1_555
Al10 Ir5 2.669411 1_555
Al10 Ir6 2.669411 1_555
Al10 Al3 2.762583 1_455
Al10 Al14 2.819472 1_555
Al10 Al13 2.819472 1_555
Al10 Ir1 2.831934 1_555
Al10 Sc4 2.936187 1_555
Al10 Sc3 2.936187 1_555
Al11 Ir0 2.583923 1_555
Al11 Ir2 2.631628 1_545
Al11 Ir3 2.664928 1_545
Al11 Ir6 2.664928 1_645
Al12 Ir0 2.583923 1_555
Al12 Ir1 2.631628 1_555
Al12 Ir4 2.664929 1_554
Al12 Ir3 2.664929 1_545
Al13 Ir0 2.568772 1_555
Al13 Ir5 2.669411 1_555
Al13 Ir4 2.669418 1_555
Al13 Al6 2.699889 1_556
Al13 Al4 2.762583 1_556
Al13 Al7 2.762584 1_556
Al13 Al8 2.819484 1_555
Al13 Ir2 2.831927 1_545
Al13 Sc4 2.936179 1_555
Al13 Sc1 2.936186 1_555
Al14 Ir0 2.568772 1_555
Al14 Ir6 2.669411 1_555
Al14 Ir3 2.669418 1_555
Al14 Al5 2.699889 1_565
Al14 Al7 2.762583 1_565
Al14 Al4 2.762584 1_565
Al14 Al8 2.819484 1_555
Al14 Ir2 2.831927 1_554
Al14 Sc3 2.936179 1_555
Al14 Sc2 2.936186 1_555
Al15 Ir0 2.583923 1_555
Al15 Ir1 2.631627 1_655
Al15 Ir5 2.664929 1_654
Al15 Ir6 2.664929 1_645
P0 Sc4 2.618804 1_565
P0 Sc2 2.618804 1_456
P0 Sc3 2.618805 1_556
P0 Sc1 2.618805 1_465
P0 Sc0 2.705944 1_466
Ir1 Sc3 3.086223 1_555
Ir1 Sc1 3.086223 1_455
Ir1 Sc4 3.086224 1_555
Ir1 Sc2 3.086224 1_455
Ir2 Sc1 3.086223 1_565
Ir2 Sc3 3.086223 1_556
Ir2 Sc2 3.086224 1_556
Ir2 Sc4 3.086224 1_565
Ir3 Sc2 3.038831 1_555
Ir3 Sc0 3.041327 1_565
Ir3 Sc4 3.224493 1_565
Ir4 Sc1 3.038831 1_555
Ir4 Sc0 3.041327 1_556
Ir4 Sc3 3.224493 1_556
Ir5 Sc4 3.038831 1_555
Ir5 Sc0 3.041327 1_456
Ir5 Sc2 3.224493 1_456
Ir6 Sc3 3.038831 1_555
Ir6 Sc0 3.041327 1_465
Ir6 Sc1 3.224493 1_465
