# generated using pymatgen
data_RbCdSiP2
_symmetry_space_group_name_H-M   'P 1'
_cell_length_a   8.25788156
_cell_length_b   8.29465403
_cell_length_c   8.39056276
_cell_angle_alpha   70.11048644
_cell_angle_beta   75.87574255
_cell_angle_gamma   73.27578115
_symmetry_Int_Tables_number   1
_chemical_formula_structural   RbCdSiP2
_chemical_formula_sum   'Rb4 Cd4 Si4 P8'
_cell_volume   510.72138508
_cell_formula_units_Z   4
loop_
 _symmetry_equiv_pos_site_id
 _symmetry_equiv_pos_as_xyz
  1  'x, y, z'
loop_
 _atom_site_type_symbol
 _atom_site_label
 _atom_site_symmetry_multiplicity
 _atom_site_fract_x
 _atom_site_fract_y
 _atom_site_fract_z
 _atom_site_occupancy
  Rb  Rb0  1  0.44693127  0.76228423  0.31823974  1
  Rb  Rb1  1  0.55306873  0.23771577  0.68176026  1
  Rb  Rb2  1  0.43871183  0.80121365  0.80827098  1
  Rb  Rb3  1  0.56128817  0.19878635  0.19172902  1
  Cd  Cd0  1  0.99456672  0.89946382  0.69220129  1
  Cd  Cd1  1  0.00543328  0.10053618  0.30779871  1
  Cd  Cd2  1  0.96032787  0.81428865  0.17082685  1
  Cd  Cd3  1  0.03967213  0.18571135  0.82917315  1
  Si  Si0  1  0.96062057  0.58591192  0.59938086  1
  Si  Si1  1  0.03937943  0.41408808  0.40061914  1
  Si  Si2  1  0.14747621  0.44973539  0.97714841  1
  Si  Si3  1  0.85252379  0.55026461  0.02285159  1
  P  P0  1  0.81783397  0.86089121  0.46756505  1
  P  P1  1  0.18216603  0.13910879  0.53243495  1
  P  P2  1  0.79693706  0.41104478  0.30935908  1
  P  P3  1  0.20306294  0.58895522  0.69064092  1
  P  P4  1  0.76754431  0.84735432  0.96368652  1
  P  P5  1  0.23245569  0.15264568  0.03631348  1
  P  P6  1  0.77963532  0.45439478  0.82902239  1
  P  P7  1  0.22036468  0.54560522  0.17097761  1
loop_
_geom_bond_atom_site_label_1
_geom_bond_atom_site_label_2
_geom_bond_distance
_geom_bond_site_symmetry_2
Cd0 P4 2.569540 1_555
Cd0 P3 2.656662 1_655
Cd0 P1 2.663431 1_665
Cd0 P0 2.794006 1_555
Cd1 P5 2.569540 1_555
Cd1 P2 2.656662 1_455
Cd1 P0 2.663431 1_445
Cd1 P1 2.794006 1_555
Cd2 P4 2.530833 1_554
Cd2 P0 2.587732 1_555
Cd2 P7 2.612098 1_655
Cd3 P5 2.530833 1_556
Cd3 P1 2.587732 1_555
Cd3 P6 2.612098 1_455
Si2 Si3 2.316836 1_456
P0 Si0 2.277735 1_555
P0 Rb3 3.501715 1_565
P0 Rb2 3.712131 1_555
P1 Si1 2.277735 1_555
P1 Rb2 3.501715 1_545
P1 Rb3 3.712131 1_555
P2 Si3 2.280548 1_555
P2 Si1 2.320700 1_655
P2 Rb1 3.380030 1_555
P2 Rb3 3.457192 1_555
P2 Rb0 3.470395 1_555
P3 Si2 2.280548 1_555
P3 Si0 2.320700 1_455
P3 Rb0 3.380030 1_555
P3 Rb2 3.457192 1_555
P3 Rb1 3.470395 1_555
P4 Si3 2.270208 1_556
P4 Rb2 3.447692 1_555
P4 Rb0 3.487193 1_556
P4 Rb1 3.570618 1_565
P4 Rb3 3.795583 1_566
P5 Si2 2.270208 1_554
P5 Rb3 3.447692 1_555
P5 Rb1 3.487193 1_554
P5 Rb0 3.570618 1_545
P5 Rb2 3.795583 1_544
P6 Si0 2.288899 1_555
P6 Si3 2.296258 1_556
P6 Rb2 3.386616 1_555
P6 Rb3 3.484224 1_556
P6 Rb1 3.582182 1_555
P7 Si1 2.288899 1_555
P7 Si2 2.296258 1_554
P7 Rb3 3.386616 1_555
P7 Rb2 3.484224 1_554
P7 Rb0 3.582182 1_555
