# generated using pymatgen
data_ErSi
_symmetry_space_group_name_H-M   'P 1'
_cell_length_a   3.78731305
_cell_length_b   4.21975819
_cell_length_c   5.61819019
_cell_angle_alpha   112.05796182
_cell_angle_beta   90.00000000
_cell_angle_gamma   90.00000000
_symmetry_Int_Tables_number   1
_chemical_formula_structural   ErSi
_chemical_formula_sum   'Er2 Si2'
_cell_volume   83.21532272
_cell_formula_units_Z   2
loop_
 _symmetry_equiv_pos_site_id
 _symmetry_equiv_pos_as_xyz
  1  'x, y, z'
loop_
 _atom_site_type_symbol
 _atom_site_label
 _atom_site_symmetry_multiplicity
 _atom_site_fract_x
 _atom_site_fract_y
 _atom_site_fract_z
 _atom_site_occupancy
  Er  Er0  1  0.25000000  0.85925779  0.71851457  1
  Er  Er1  1  0.75000000  0.14074221  0.28148543  1
  Si  Si0  1  0.25000000  0.57700498  0.15401196  1
  Si  Si1  1  0.75000000  0.42299502  0.84598804  1
loop_
_geom_bond_atom_site_label_1
_geom_bond_atom_site_label_2
_geom_bond_distance
_geom_bond_site_symmetry_2
Er0 Si1 2.911714 1_455
Er0 Si1 2.911714 1_555
Er0 Si1 2.911717 1_565
Er0 Si1 2.911717 1_465
Er0 Si0 2.939344 1_555
Er0 Si0 3.097363 1_566
Er0 Si0 3.097372 1_556
Er1 Si0 2.911714 1_655
Er1 Si0 2.911714 1_555
Er1 Si0 2.911717 1_545
Er1 Si0 2.911717 1_645
Er1 Si1 2.939344 1_555
Er1 Si1 3.097363 1_544
Er1 Si1 3.097372 1_554
Si0 Si1 2.481599 1_554
Si0 Si1 2.481599 1_454
