# generated using pymatgen
data_Hf3ScH15
_symmetry_space_group_name_H-M   'P 1'
_cell_length_a   6.89572271
_cell_length_b   6.89815948
_cell_length_c   6.91570037
_cell_angle_alpha   109.47086266
_cell_angle_beta   109.45662409
_cell_angle_gamma   109.37604885
_symmetry_Int_Tables_number   1
_chemical_formula_structural   Hf3ScH15
_chemical_formula_sum   'Hf6 Sc2 H30'
_cell_volume   253.58052151
_cell_formula_units_Z   2
loop_
 _symmetry_equiv_pos_site_id
 _symmetry_equiv_pos_as_xyz
  1  'x, y, z'
loop_
 _atom_site_type_symbol
 _atom_site_label
 _atom_site_symmetry_multiplicity
 _atom_site_fract_x
 _atom_site_fract_y
 _atom_site_fract_z
 _atom_site_occupancy
  Hf  Hf0  1  0.99855316  0.10381169  0.49927975  1
  Hf  Hf1  1  0.10749095  0.50275583  0.00213529  1
  Hf  Hf2  1  0.99927341  0.60453194  0.50072025  1
  Hf  Hf3  1  0.60535566  0.50062054  0.99786471  1
  Hf  Hf4  1  0.50171025  0.99864898  0.60056916  1
  Hf  Hf5  1  0.40114208  0.39808081  0.39943084  1
  Sc  Sc0  1  0.90257166  0.90262968  0.90147593  1
  Sc  Sc1  1  0.50109574  0.00115475  0.09852407  1
  H  H0  1  0.66148510  0.97516173  0.39334964  1
  H  H1  1  0.22526604  0.30909449  0.84360479  1
  H  H2  1  0.18923106  0.41970106  0.53249152  1
  H  H3  1  0.08953398  0.27853911  0.11765583  1
  H  H4  1  0.27455153  0.11787065  0.09449298  1
  H  H5  1  0.11915848  0.09335279  0.28050469  1
  H  H6  1  0.47187715  0.16088328  0.88234417  1
  H  H7  1  0.72787269  0.34248231  0.81232131  1
  H  H8  1  0.62332265  0.37629031  0.25054565  1
  H  H9  1  0.24365421  0.62446903  0.36996383  1
  H  H10  1  0.75595574  0.87493598  0.13317238  1
  H  H11  1  0.12278336  0.74176360  0.86682762  1
  H  H12  1  0.37369039  0.25450521  0.63003617  1
  H  H13  1  0.87277700  0.12574566  0.74945435  1
  H  H14  1  0.76813546  0.58181209  0.60665036  1
  H  H15  1  0.31250780  0.83848319  0.22806772  1
  H  H16  1  0.38704786  0.65237866  0.97231409  1
  H  H17  1  0.97142767  0.38489518  0.65769819  1
  H  H18  1  0.52618856  0.18783275  0.42148045  1
  H  H19  1  0.41555138  0.53016100  0.18767869  1
  H  H20  1  0.84723420  0.23142916  0.31840395  1
  H  H21  1  0.91473277  0.68006457  0.02768591  1
  H  H22  1  0.81372947  0.72719699  0.34230181  1
  H  H23  1  0.15673953  0.88720954  0.46750848  1
  H  H24  1  0.68005954  0.02337867  0.90550702  1
  H  H25  1  0.33865579  0.81284810  0.71949531  1
  H  H26  1  0.88166125  0.46548970  0.15639521  1
  H  H27  1  0.60470911  0.76635331  0.57851955  1
  H  H28  1  0.58444008  0.61041646  0.77193228  1
  H  H29  1  0.02883025  0.91302421  0.68159605  1
loop_
_geom_bond_atom_site_label_1
_geom_bond_atom_site_label_2
_geom_bond_distance
_geom_bond_site_symmetry_2
H0 Hf0 1.946867 1_565
H0 Sc1 2.070175 1_565
H0 Hf4 2.075889 1_555
H1 Hf0 1.980587 1_455
H1 Hf1 1.995715 1_556
H1 Hf3 2.157122 1_555
H2 Hf5 1.988288 1_555
H2 Hf0 2.023345 1_455
H2 Hf2 2.119647 1_455
H3 Hf1 1.951509 1_555
H3 Hf5 2.014459 1_555
H3 Sc0 2.129457 1_444
H4 Hf5 1.970301 1_555
H4 Sc1 1.977357 1_555
H4 Sc0 2.106317 1_444
H5 Hf0 1.947121 1_455
H5 Hf5 1.986458 1_555
H5 Sc0 2.149785 1_444
H6 Hf3 1.951509 1_555
H6 Hf4 2.014461 1_545
H6 Sc1 2.129451 1_556
H7 Hf4 1.977593 1_545
H7 Hf3 1.987664 1_555
H7 Hf1 2.149645 1_656
H8 Hf5 2.128528 1_555
H8 Sc1 2.158911 1_555
H8 Hf2 2.163496 1_555
H8 Hf3 2.174845 1_554
H9 Hf1 2.125875 1_555
H9 Hf2 2.149596 1_455
H9 Hf4 2.165593 1_555
H9 Hf5 2.202214 1_555
H10 Hf0 2.112489 1_565
H10 Hf3 2.140999 1_554
H10 Sc1 2.185856 1_565
H10 Sc0 2.186619 1_554
H11 Hf2 2.112489 1_455
H11 Hf1 2.140999 1_556
H11 Sc0 2.185851 1_455
H11 Sc1 2.186620 1_566
H12 Hf3 2.125875 1_555
H12 Hf0 2.149596 1_455
H12 Hf5 2.165599 1_555
H12 Hf4 2.202215 1_545
H13 Hf4 2.128532 1_545
H13 Sc0 2.158924 1_545
H13 Hf0 2.163496 1_555
H13 Hf1 2.174840 1_656
H14 Hf2 1.946867 1_555
H14 Sc0 2.070171 1_555
H14 Hf5 2.075884 1_555
H15 Hf1 1.935730 1_555
H15 Sc1 2.056944 1_565
H15 Hf4 2.113353 1_555
H16 Hf1 1.977514 1_556
H16 Sc1 2.013958 1_566
H16 Hf3 2.094065 1_555
H17 Hf1 1.982233 1_656
H17 Hf0 1.988931 1_555
H17 Hf2 2.133839 1_555
H18 Hf5 1.939042 1_555
H18 Hf4 2.082338 1_545
H18 Sc1 2.086601 1_555
H19 Hf5 1.977587 1_555
H19 Hf1 1.987663 1_555
H19 Hf3 2.149645 1_554
H20 Hf0 1.975490 1_555
H20 Sc1 1.997173 1_555
H20 Hf2 2.116260 1_555
H21 Hf3 1.977508 1_554
H21 Sc0 2.013950 1_554
H21 Hf1 2.094071 1_655
H22 Hf3 1.982233 1_554
H22 Hf2 1.988930 1_555
H22 Hf0 2.133839 1_565
H23 Hf4 1.988282 1_555
H23 Hf2 2.023345 1_455
H23 Hf0 2.119647 1_465
H24 Hf4 1.970297 1_545
H24 Sc0 1.977360 1_545
H24 Sc1 2.106323 1_556
H25 Hf2 1.947130 1_455
H25 Hf4 1.986444 1_555
H25 Sc1 2.149786 1_566
H26 Hf2 1.980587 1_555
H26 Hf3 1.995715 1_554
H26 Hf1 2.157122 1_655
H27 Hf4 1.939038 1_555
H27 Hf5 2.082338 1_555
H27 Sc0 2.086601 1_555
H28 Hf3 1.935734 1_555
H28 Sc0 2.056937 1_555
H28 Hf5 2.113353 1_555
H29 Hf2 1.975485 1_455
H29 Sc0 1.997173 1_455
H29 Hf0 2.116265 1_465
