# generated using pymatgen
data_Na10TaGaP6
_symmetry_space_group_name_H-M   'P 1'
_cell_length_a   7.31628075
_cell_length_b   8.05975227
_cell_length_c   15.33516359
_cell_angle_alpha   59.21924983
_cell_angle_beta   90.00000000
_cell_angle_gamma   90.00000000
_symmetry_Int_Tables_number   1
_chemical_formula_structural   Na10TaGaP6
_chemical_formula_sum   'Na20 Ta2 Ga2 P12'
_cell_volume   776.89138313
_cell_formula_units_Z   2
loop_
 _symmetry_equiv_pos_site_id
 _symmetry_equiv_pos_as_xyz
  1  'x, y, z'
loop_
 _atom_site_type_symbol
 _atom_site_label
 _atom_site_symmetry_multiplicity
 _atom_site_fract_x
 _atom_site_fract_y
 _atom_site_fract_z
 _atom_site_occupancy
  Na  Na0  1  0.73589005  0.94214687  0.24822239  1
  Na  Na1  1  0.26410995  0.94214687  0.74822239  1
  Na  Na2  1  0.77330895  0.05369346  0.76207009  1
  Na  Na3  1  0.22669105  0.05369346  0.26207009  1
  Na  Na4  1  0.25769080  0.23890913  0.42138621  1
  Na  Na5  1  0.74230920  0.23890913  0.92138621  1
  Na  Na6  1  0.21223728  0.75054989  0.58006456  1
  Na  Na7  1  0.78776272  0.75054989  0.08006456  1
  Na  Na8  1  0.08716408  0.34379766  0.58345439  1
  Na  Na9  1  0.91283592  0.34379766  0.08345439  1
  Na  Na10  1  0.40350990  0.65457891  0.41902408  1
  Na  Na11  1  0.59649010  0.65457891  0.91902408  1
  Na  Na12  1  0.59456583  0.33710733  0.24359165  1
  Na  Na13  1  0.40543417  0.33710733  0.74359165  1
  Na  Na14  1  0.90568906  0.66399304  0.75978600  1
  Na  Na15  1  0.09431094  0.66399304  0.25978600  1
  Na  Na16  1  0.77263784  0.42444376  0.40737872  1
  Na  Na17  1  0.22736216  0.42444376  0.90737872  1
  Na  Na18  1  0.74043059  0.58020610  0.58763661  1
  Na  Na19  1  0.25956941  0.58020610  0.08763661  1
  Ta  Ta0  1  0.61410307  0.99122501  0.57752050  1
  Ta  Ta1  1  0.38589693  0.99122501  0.07752050  1
  Ga  Ga0  1  0.88872308  0.01306378  0.41394194  1
  Ga  Ga1  1  0.11127692  0.01306378  0.91394194  1
  P  P0  1  0.97827544  0.31601548  0.27260956  1
  P  P1  1  0.02172456  0.31601548  0.77260956  1
  P  P2  1  0.51934670  0.69704753  0.72333232  1
  P  P3  1  0.48065330  0.69704753  0.22333232  1
  P  P4  1  0.94142206  0.01986372  0.57244859  1
  P  P5  1  0.05857794  0.01986372  0.07244859  1
  P  P6  1  0.54278689  0.98005738  0.42810819  1
  P  P7  1  0.45721311  0.98005738  0.92810819  1
  P  P8  1  0.00245066  0.72756831  0.42136082  1
  P  P9  1  0.99754934  0.72756831  0.92136082  1
  P  P10  1  0.48905807  0.26573165  0.57806137  1
  P  P11  1  0.51094193  0.26573165  0.07806137  1
loop_
_geom_bond_atom_site_label_1
_geom_bond_atom_site_label_2
_geom_bond_distance
_geom_bond_site_symmetry_2
Na0 P3 2.882171 1_555
Na0 P8 3.023933 1_655
Na0 P11 3.058446 1_565
Na0 P6 3.249893 1_555
Na0 P5 3.391725 1_665
Na1 P2 2.882171 1_555
Na1 P9 3.023933 1_455
Na1 P10 3.058446 1_565
Na1 P7 3.249893 1_555
Na1 P4 3.391725 1_465
Na2 P1 2.854672 1_655
Na2 P9 2.999313 1_545
Na2 P10 3.205058 1_555
Na2 P7 3.261461 1_545
Na2 P4 3.294601 1_555
Na3 P0 2.854672 1_455
Na3 P8 2.999313 1_545
Na3 P11 3.205058 1_555
Na3 P6 3.261461 1_545
Na3 P5 3.294601 1_555
Na4 P0 2.884338 1_455
Na4 P6 2.914416 1_545
Na4 P10 3.035857 1_555
Na4 P4 3.106695 1_455
Na5 P1 2.884338 1_655
Na5 P7 2.914416 1_545
Na5 P11 3.035857 1_556
Na5 P5 3.106695 1_656
Na6 P4 2.896804 1_465
Na6 P8 2.962198 1_555
Na6 P2 3.015260 1_555
Na6 P6 3.207594 1_555
Na7 P5 2.896804 1_665
Na7 P9 2.962198 1_554
Na7 P3 3.015260 1_555
Na7 P7 3.207594 1_554
Na8 P1 2.833510 1_555
Na8 P8 2.874176 1_555
Na8 P4 2.903942 1_455
Na8 P10 3.016911 1_555
Na9 P0 2.833510 1_555
Na9 P9 2.874176 1_554
Na9 P5 2.903942 1_655
Na9 P11 3.016911 1_555
Na10 P6 2.883288 1_555
Na10 P10 2.887684 1_555
Na10 P3 2.896578 1_555
Na10 P8 2.996468 1_555
Na11 P7 2.883288 1_555
Na11 P11 2.887684 1_556
Na11 P2 2.896578 1_555
Na11 P9 2.996468 1_555
Na12 P0 2.833828 1_555
Na12 P6 2.845561 1_545
Na12 P3 2.878297 1_555
Na12 P11 2.939986 1_555
Na13 P1 2.833828 1_555
Na13 P7 2.845561 1_545
Na13 P2 2.878297 1_555
Na13 P10 2.939986 1_555
Na14 P1 2.839145 1_655
Na14 P4 2.848623 1_565
Na14 P9 2.855359 1_555
Na14 P2 2.867169 1_555
Na15 P0 2.839145 1_455
Na15 P5 2.848623 1_565
Na15 P8 2.855359 1_555
Na15 P3 2.867169 1_555
Na16 P0 3.024414 1_555
Na16 P10 3.060231 1_555
Na16 P8 3.062342 1_655
Na16 P4 3.180769 1_555
Na16 P3 3.318103 1_555
Na17 P1 3.024414 1_555
Na17 P11 3.060231 1_556
Na17 P9 3.062342 1_455
Na17 P5 3.180769 1_556
Na17 P2 3.318103 1_555
Na18 P8 2.913368 1_655
Na18 P2 3.136730 1_555
Na18 P10 3.195144 1_555
Na18 P6 3.223706 1_555
Na18 P1 3.260936 1_655
Na19 P9 2.913368 1_454
Na19 P3 3.136730 1_555
Na19 P11 3.195144 1_555
Na19 P7 3.223706 1_554
Na19 P0 3.260936 1_455
Ga0 P0 2.381639 1_555
Ga0 P8 2.394167 1_645
Ga0 P4 2.489264 1_555
Ga0 P6 2.542558 1_545
Ga1 P1 2.381639 1_555
Ga1 P9 2.394167 1_445
Ga1 P5 2.489264 1_556
Ga1 P7 2.542558 1_545
P2 Ta0 2.382406 1_555
P3 Ta1 2.382406 1_555
P4 Ta0 2.403293 1_545
P5 Ta1 2.403293 1_545
P6 Ta0 2.396103 1_555
P7 Ta1 2.396103 1_556
P10 Ta0 2.398080 1_545
P11 Ta1 2.398080 1_545
