# generated using pymatgen
data_YGePRu2
_symmetry_space_group_name_H-M   'P 1'
_cell_length_a   5.67148256
_cell_length_b   5.67148286
_cell_length_c   5.67148271
_cell_angle_alpha   137.33681580
_cell_angle_beta   137.33682087
_cell_angle_gamma   61.92022575
_symmetry_Int_Tables_number   1
_chemical_formula_structural   YGePRu2
_chemical_formula_sum   'Y1 Ge1 P1 Ru2'
_cell_volume   82.80155074
_cell_formula_units_Z   1
loop_
 _symmetry_equiv_pos_site_id
 _symmetry_equiv_pos_as_xyz
  1  'x, y, z'
loop_
 _atom_site_type_symbol
 _atom_site_label
 _atom_site_symmetry_multiplicity
 _atom_site_fract_x
 _atom_site_fract_y
 _atom_site_fract_z
 _atom_site_occupancy
  Y  Y0  1  0.00159788  0.00159788  0.00000000  1
  Ge  Ge0  1  0.37769420  0.37769420  1.00000000  1
  P  P0  1  0.63515889  0.63515889  0.00000000  1
  Ru  Ru0  1  0.74277451  0.24277451  0.50000000  1
  Ru  Ru1  1  0.24277451  0.74277451  0.50000000  1
loop_
_geom_bond_atom_site_label_1
_geom_bond_atom_site_label_2
_geom_bond_distance
_geom_bond_site_symmetry_2
Ge0 Ru0 2.445114 1_455
Ge0 Ru0 2.445114 1_556
Ge0 Ru1 2.445114 1_556
Ge0 Ru1 2.445114 1_545
Ge0 P0 2.504329 1_556
Ge0 Y0 3.156762 1_656
Ge0 Y0 3.156762 1_667
Ge0 Y0 3.156762 1_555
Ge0 Y0 3.156762 1_566
P0 Ru1 2.313448 1_655
P0 Ru1 2.313448 1_554
P0 Ru0 2.313448 1_554
P0 Ru0 2.313448 1_565
P0 Y0 3.193806 1_565
P0 Y0 3.193806 1_554
P0 Y0 3.193806 1_666
P0 Y0 3.193806 1_655
Ru0 Y0 3.124029 1_555
Ru0 Y0 3.124029 1_656
Ru0 Y0 3.254897 1_655
Ru0 Y0 3.254898 1_666
Ru1 Y0 3.124029 1_566
Ru1 Y0 3.124029 1_555
Ru1 Y0 3.254897 1_666
Ru1 Y0 3.254897 1_565
