# generated using pymatgen
data_Nb10Ga5GeC
_symmetry_space_group_name_H-M   'P 1'
_cell_length_a   7.75955639
_cell_length_b   7.75385977
_cell_length_c   5.29340499
_cell_angle_alpha   89.93633839
_cell_angle_beta   90.12722984
_cell_angle_gamma   120.02430186
_symmetry_Int_Tables_number   1
_chemical_formula_structural   Nb10Ga5GeC
_chemical_formula_sum   'Nb10 Ga5 Ge1 C1'
_cell_volume   275.74847311
_cell_formula_units_Z   1
loop_
 _symmetry_equiv_pos_site_id
 _symmetry_equiv_pos_as_xyz
  1  'x, y, z'
loop_
 _atom_site_type_symbol
 _atom_site_label
 _atom_site_symmetry_multiplicity
 _atom_site_fract_x
 _atom_site_fract_y
 _atom_site_fract_z
 _atom_site_occupancy
  Nb  Nb0  1  0.99914312  0.76405259  0.25047028  1
  Nb  Nb1  1  0.23509053  0.23594741  0.25047028  1
  Nb  Nb2  1  0.76245074  0.00000000  0.25586069  1
  Nb  Nb3  1  0.00060005  0.23560347  0.74910614  1
  Nb  Nb4  1  0.76499558  0.76439653  0.74910614  1
  Nb  Nb5  1  0.23670290  1.00000000  0.74435914  1
  Nb  Nb6  1  0.33368507  0.66678317  0.00040666  1
  Nb  Nb7  1  0.66690291  0.33321683  0.00040666  1
  Nb  Nb8  1  0.66561877  0.33037548  0.49966704  1
  Nb  Nb9  1  0.33524229  0.66962452  0.49966704  1
  Ga  Ga0  1  0.00093295  0.40223656  0.24673289  1
  Ga  Ga1  1  0.59869639  0.59776344  0.24673289  1
  Ga  Ga2  1  0.39810616  1.00000000  0.24312674  1
  Ga  Ga3  1  0.99981622  0.59817747  0.75292466  1
  Ga  Ga4  1  0.40163875  0.40182253  0.75292466  1
  Ge  Ge0  1  0.59990868  0.00000000  0.75866998  1
  C  C0  1  0.00046990  0.00000000  0.49936613  1
loop_
_geom_bond_atom_site_label_1
_geom_bond_atom_site_label_2
_geom_bond_distance
_geom_bond_site_symmetry_2
Nb6 Nb9 2.642854 1_555
Nb6 Nb9 2.650689 1_554
Nb7 Nb8 2.642854 1_555
Nb7 Nb8 2.650689 1_554
Ga0 Nb6 2.698768 1_555
Ga0 Nb7 2.702416 1_455
Ga0 Nb1 2.703424 1_555
Ga0 Nb2 2.716333 1_455
Ga0 Nb9 2.725608 1_555
Ga0 Nb8 2.726881 1_455
Ga0 Nb0 2.812537 1_455
Ga0 Nb3 2.934669 1_554
Ga0 Nb3 2.954682 1_555
Ga1 Nb7 2.698772 1_555
Ga1 Nb6 2.702422 1_555
Ga1 Nb0 2.703424 1_555
Ga1 Nb2 2.716333 1_565
Ga1 Nb8 2.725612 1_555
Ga1 Nb9 2.726888 1_555
Ga1 Nb1 2.812538 1_555
Ga1 Nb4 2.934668 1_554
Ga1 Nb4 2.954680 1_555
Ga2 Nb1 2.695349 1_565
Ga2 Nb0 2.695349 1_455
Ga2 Nb6 2.699676 1_555
Ga2 Nb7 2.699679 1_565
Ga2 Nb9 2.718267 1_555
Ga2 Nb8 2.718270 1_565
Ga2 Nb2 2.827806 1_565
Ga2 Nb5 2.919659 1_554
Ga2 Nb5 2.936480 1_555
Ga2 Ge0 3.007682 1_564
Ga3 Nb7 2.703360 1_556
Ga3 Nb6 2.705192 1_656
Ga3 Nb4 2.707671 1_555
Ga3 Nb5 2.712388 1_655
Ga3 Nb8 2.726870 1_555
Ga3 Nb9 2.729346 1_655
Ga3 Nb3 2.814491 1_655
Ga3 Nb0 2.933430 1_556
Ga3 Nb0 2.954201 1_555
Ga4 Nb6 2.703364 1_556
Ga4 Nb7 2.705199 1_556
Ga4 Nb3 2.707664 1_555
Ga4 Nb5 2.712388 1_545
Ga4 Nb9 2.726874 1_555
Ga4 Nb8 2.729353 1_555
Ga4 Nb4 2.814488 1_555
Ga4 Nb1 2.933430 1_556
Ga4 Nb1 2.954201 1_555
Ge0 Nb7 2.691376 1_556
Ge0 Nb6 2.691378 1_546
Ge0 Nb4 2.706150 1_545
Ge0 Nb3 2.706157 1_655
Ge0 Nb8 2.718466 1_555
Ge0 Nb9 2.718468 1_545
Ge0 Nb5 2.819165 1_545
Ge0 Nb2 2.915915 1_556
Ge0 Nb2 2.947820 1_555
C0 Nb5 2.243073 1_545
C0 Nb2 2.249890 1_455
C0 Nb0 2.251546 1_445
C0 Nb1 2.251546 1_555
C0 Nb3 2.255762 1_555
C0 Nb4 2.255766 1_445
