# generated using pymatgen
data_Zr10Ti3Al9Ir8
_symmetry_space_group_name_H-M   'P 1'
_cell_length_a   9.04296175
_cell_length_b   9.04296179
_cell_length_c   9.04296281
_cell_angle_alpha   59.77170694
_cell_angle_beta   59.77171443
_cell_angle_gamma   59.77172006
_symmetry_Int_Tables_number   1
_chemical_formula_structural   Zr10Ti3Al9Ir8
_chemical_formula_sum   'Zr10 Ti3 Al9 Ir8'
_cell_volume   520.18790158
_cell_formula_units_Z   1
loop_
 _symmetry_equiv_pos_site_id
 _symmetry_equiv_pos_as_xyz
  1  'x, y, z'
loop_
 _atom_site_type_symbol
 _atom_site_label
 _atom_site_symmetry_multiplicity
 _atom_site_fract_x
 _atom_site_fract_y
 _atom_site_fract_z
 _atom_site_occupancy
  Zr  Zr0  1  0.20523621  0.20523621  0.79364183  1
  Zr  Zr1  1  0.79364183  0.20523621  0.20523621  1
  Zr  Zr2  1  0.20523621  0.79364183  0.20523621  1
  Zr  Zr3  1  0.79805638  0.79805638  0.19121792  1
  Zr  Zr4  1  0.19121792  0.79805638  0.79805638  1
  Zr  Zr5  1  0.79805638  0.19121792  0.79805638  1
  Zr  Zr6  1  0.37879290  0.37879290  0.37879290  1
  Zr  Zr7  1  0.37919560  0.86477319  0.37919560  1
  Zr  Zr8  1  0.86477319  0.37919560  0.37919560  1
  Zr  Zr9  1  0.37919560  0.37919560  0.86477319  1
  Ti  Ti0  1  0.83506135  0.49950845  0.83506135  1
  Ti  Ti1  1  0.49950845  0.83506135  0.83506135  1
  Ti  Ti2  1  0.83506135  0.83506135  0.49950845  1
  Al  Al0  1  0.15922189  0.15922189  0.15922189  1
  Al  Al1  1  0.16288023  0.51492735  0.16288023  1
  Al  Al2  1  0.51492735  0.16288023  0.16288023  1
  Al  Al3  1  0.16288023  0.16288023  0.51492735  1
  Al  Al4  1  0.62195344  0.62195344  0.62195344  1
  Al  Al5  1  0.62114633  0.13812345  0.62114633  1
  Al  Al6  1  0.13812345  0.62114633  0.62114633  1
  Al  Al7  1  0.62114633  0.62114633  0.13812345  1
  Al  Al8  1  0.82695406  0.82695406  0.82695406  1
  Ir  Ir0  1  0.00168806  0.00168806  0.50046883  1
  Ir  Ir1  1  0.50046883  0.00168806  0.00168806  1
  Ir  Ir2  1  0.00168806  0.50046883  0.00168806  1
  Ir  Ir3  1  0.50068022  0.50068022  0.00054556  1
  Ir  Ir4  1  0.00054556  0.50068022  0.50068022  1
  Ir  Ir5  1  0.50068022  0.00054556  0.50068022  1
  Ir  Ir6  1  0.50065867  0.50065867  0.50065867  1
  Ir  Ir7  1  0.00132172  0.00132172  0.00132172  1
loop_
_geom_bond_atom_site_label_1
_geom_bond_atom_site_label_2
_geom_bond_distance
_geom_bond_site_symmetry_2
Al0 Ir0 2.602335 1_555
Al0 Ir2 2.602335 1_555
Al0 Ir1 2.602336 1_555
Al0 Zr9 2.884747 1_554
Al0 Zr7 2.884747 1_545
Al0 Zr8 2.884748 1_455
Al0 Zr2 2.946113 1_545
Al0 Zr1 2.946113 1_455
Al0 Zr0 2.946113 1_554
Al1 Ir3 2.604194 1_555
Al1 Ir4 2.604194 1_555
Al1 Ir2 2.605727 1_555
Al1 Zr6 2.852725 1_555
Al1 Zr8 2.864377 1_455
Al1 Zr9 2.864377 1_554
Al1 Zr2 2.955948 1_555
Al1 Zr4 2.968052 1_554
Al1 Zr3 2.968052 1_455
Al2 Ir3 2.604194 1_555
Al2 Ir5 2.604194 1_555
Al2 Ir1 2.605727 1_555
Al2 Zr6 2.852725 1_555
Al2 Zr7 2.864376 1_545
Al2 Zr9 2.864377 1_554
Al2 Zr1 2.955948 1_555
Al2 Zr5 2.968052 1_554
Al2 Zr3 2.968052 1_545
Al3 Ir4 2.604194 1_555
Al3 Ir5 2.604194 1_555
Al3 Ir0 2.605726 1_555
Al3 Zr6 2.852725 1_555
Al3 Zr8 2.864377 1_455
Al3 Zr7 2.864377 1_545
Al3 Zr0 2.955948 1_555
Al3 Zr4 2.968052 1_545
Al3 Zr5 2.968052 1_455
Al4 Ir6 2.691383 1_555
Al4 Ir5 2.788633 1_565
Al4 Ir3 2.788633 1_556
Al4 Ir4 2.788633 1_655
Al4 Ti2 2.845345 1_555
Al4 Ti0 2.845345 1_555
Al4 Ti1 2.845346 1_555
Al4 Zr9 3.099194 1_555
Al4 Zr7 3.099195 1_555
Al4 Zr8 3.099195 1_555
Al4 Zr5 3.210319 1_555
Al4 Zr3 3.210319 1_555
Al4 Zr4 3.210319 1_555
Al5 Ir6 2.669121 1_555
Al5 Al8 2.790509 1_545
Al5 Ir5 2.800975 1_555
Al5 Ir1 2.802607 1_556
Al5 Ir0 2.802607 1_655
Al5 Ti1 2.831531 1_545
Al5 Ti2 2.831531 1_545
Al5 Zr5 3.077819 1_555
Al5 Zr8 3.094025 1_555
Al5 Zr9 3.094026 1_555
Al5 Zr6 3.094146 1_555
Al5 Zr0 3.113644 1_555
Al5 Zr1 3.113644 1_555
Al6 Ir6 2.669121 1_555
Al6 Al8 2.790510 1_455
Al6 Ir4 2.800975 1_555
Al6 Ir0 2.802607 1_565
Al6 Ir2 2.802607 1_556
Al6 Ti0 2.831531 1_455
Al6 Ti2 2.831531 1_455
Al6 Zr4 3.077819 1_555
Al6 Zr7 3.094025 1_555
Al6 Zr9 3.094026 1_555
Al6 Zr6 3.094147 1_555
Al6 Zr0 3.113644 1_555
Al6 Zr2 3.113644 1_555
Al7 Ir6 2.669121 1_555
Al7 Al8 2.790509 1_554
Al7 Ir3 2.800975 1_555
Al7 Ir1 2.802607 1_565
Al7 Ir2 2.802607 1_655
Al7 Ti1 2.831531 1_554
Al7 Ti0 2.831531 1_554
Al7 Zr3 3.077819 1_555
Al7 Zr8 3.094026 1_555
Al7 Zr7 3.094026 1_555
Al7 Zr6 3.094146 1_555
Al7 Zr1 3.113644 1_555
Al7 Zr2 3.113644 1_555
Al8 Ir0 2.613343 1_665
Al8 Ir2 2.613343 1_656
Al8 Ir1 2.613344 1_566
Ir0 Ti2 2.617901 1_445
Ir0 Zr8 2.780524 1_455
Ir0 Zr7 2.780525 1_545
Ir0 Zr4 3.169684 1_545
Ir0 Zr5 3.169685 1_455
Ir0 Zr1 3.267691 1_455
Ir0 Zr2 3.267692 1_545
Ir1 Ti1 2.617902 1_544
Ir1 Zr9 2.780524 1_554
Ir1 Zr7 2.780524 1_545
Ir1 Zr5 3.169684 1_554
Ir1 Zr3 3.169684 1_545
Ir1 Zr2 3.267691 1_545
Ir1 Zr0 3.267691 1_554
Ir2 Ti0 2.617901 1_454
Ir2 Zr8 2.780524 1_455
Ir2 Zr9 2.780525 1_554
Ir2 Zr4 3.169684 1_554
Ir2 Zr3 3.169684 1_455
Ir2 Zr1 3.267691 1_455
Ir2 Zr0 3.267692 1_554
Ir3 Ti1 2.609668 1_554
Ir3 Ti0 2.609668 1_554
Ir3 Zr6 2.785765 1_555
Ir3 Zr9 2.802258 1_554
Ir3 Zr1 3.227082 1_555
Ir3 Zr2 3.227083 1_555
Ir3 Zr4 3.322652 1_554
Ir3 Zr5 3.322652 1_554
Ir4 Ti2 2.609669 1_455
Ir4 Ti0 2.609669 1_455
Ir4 Zr6 2.785765 1_555
Ir4 Zr8 2.802258 1_455
Ir4 Zr2 3.227082 1_555
Ir4 Zr0 3.227082 1_555
Ir4 Zr5 3.322651 1_455
Ir4 Zr3 3.322652 1_455
Ir5 Ti1 2.609669 1_545
Ir5 Ti2 2.609669 1_545
Ir5 Zr6 2.785765 1_555
Ir5 Zr7 2.802258 1_545
Ir5 Zr1 3.227082 1_555
Ir5 Zr0 3.227083 1_555
Ir5 Zr4 3.322651 1_545
Ir5 Zr3 3.322652 1_545
Ir6 Zr7 2.680720 1_555
Ir6 Zr9 2.680720 1_555
Ir6 Zr8 2.680720 1_555
Ir6 Zr6 2.704053 1_555
Ir7 Zr3 2.598416 1_445
Ir7 Zr5 2.598416 1_454
Ir7 Zr4 2.598416 1_544
Ir7 Zr0 2.603355 1_554
Ir7 Zr2 2.603356 1_545
Ir7 Zr1 2.603356 1_455
