# generated using pymatgen
data_CaMg2Ni7B2
_symmetry_space_group_name_H-M   'P 1'
_cell_length_a   7.38255468
_cell_length_b   7.38255473
_cell_length_c   7.38255398
_cell_angle_alpha   39.31149075
_cell_angle_beta   39.31149463
_cell_angle_gamma   39.31148904
_symmetry_Int_Tables_number   1
_chemical_formula_structural   CaMg2Ni7B2
_chemical_formula_sum   'Ca1 Mg2 Ni7 B2'
_cell_volume   145.32157337
_cell_formula_units_Z   1
loop_
 _symmetry_equiv_pos_site_id
 _symmetry_equiv_pos_as_xyz
  1  'x, y, z'
loop_
 _atom_site_type_symbol
 _atom_site_label
 _atom_site_symmetry_multiplicity
 _atom_site_fract_x
 _atom_site_fract_y
 _atom_site_fract_z
 _atom_site_occupancy
  Ca  Ca0  1  0.50000000  0.50000000  0.50000000  1
  Mg  Mg0  1  0.64857494  0.64857494  0.64857494  1
  Mg  Mg1  1  0.35142506  0.35142506  0.35142506  1
  Ni  Ni0  1  0.57159874  0.06759303  0.06759303  1
  Ni  Ni1  1  0.06759303  0.06759303  0.57159874  1
  Ni  Ni2  1  0.06759303  0.57159874  0.06759303  1
  Ni  Ni3  1  0.93240697  0.42840126  0.93240697  1
  Ni  Ni4  1  0.93240697  0.93240697  0.42840126  1
  Ni  Ni5  1  0.42840126  0.93240697  0.93240697  1
  Ni  Ni6  1  0.00000000  0.00000000  0.00000000  1
  B  B0  1  0.83278297  0.83278297  0.83278297  1
  B  B1  1  0.16721703  0.16721703  0.16721703  1
loop_
_geom_bond_atom_site_label_1
_geom_bond_atom_site_label_2
_geom_bond_distance
_geom_bond_site_symmetry_2
Ca0 Ni0 2.854053 1_556
Ca0 Ni5 2.854053 1_554
Ca0 Ni1 2.854053 1_655
Ca0 Ni4 2.854053 1_455
Ca0 Ni2 2.854053 1_556
Ca0 Ni3 2.854053 1_554
Ca0 Ni1 2.854053 1_565
Ca0 Ni4 2.854053 1_545
Ca0 Ni0 2.854053 1_565
Ca0 Ni5 2.854053 1_545
Ca0 Ni2 2.854053 1_655
Ca0 Ni3 2.854053 1_455
Ca0 Mg0 3.032241 1_555
Ca0 Mg1 3.032241 1_555
Mg0 Ni3 2.770718 1_555
Mg0 Ni5 2.770718 1_555
Mg0 Ni4 2.770718 1_555
Mg0 Ni6 2.891090 1_656
Mg0 Ni6 2.891091 1_566
Mg0 Ni6 2.891091 1_665
Mg0 Mg1 2.960979 1_565
Mg0 Mg1 2.960979 1_556
Mg0 Mg1 2.960980 1_655
Mg0 Ni0 2.967983 1_565
Mg0 Ni1 2.967983 1_565
Mg0 Ni2 2.967983 1_655
Mg0 Ni1 2.967983 1_655
Mg0 Ni0 2.967983 1_556
Mg0 Ni2 2.967983 1_556
Mg1 Ni2 2.770718 1_555
Mg1 Ni0 2.770718 1_555
Mg1 Ni1 2.770718 1_555
Mg1 Ni6 2.891090 1_565
Mg1 Ni6 2.891091 1_655
Mg1 Ni6 2.891091 1_556
Mg1 Ni5 2.967983 1_545
Mg1 Ni4 2.967983 1_545
Mg1 Ni3 2.967983 1_455
Mg1 Ni4 2.967983 1_455
Mg1 Ni5 2.967983 1_554
Mg1 Ni3 2.967983 1_554
Ni0 Ni6 2.449826 1_655
Ni1 Ni6 2.449826 1_556
Ni2 Ni6 2.449826 1_565
Ni3 Ni6 2.449826 1_656
Ni4 Ni6 2.449826 1_665
Ni5 Ni6 2.449826 1_566
B0 Ni2 2.008326 1_656
B0 Ni0 2.008327 1_566
B0 Ni1 2.008327 1_665
B0 Ni4 2.008990 1_555
B0 Ni3 2.008990 1_555
B0 Ni5 2.008990 1_555
B0 Ca0 2.867438 1_565
B0 Ca0 2.867438 1_556
B0 Ca0 2.867438 1_655
B1 Ni3 2.008326 1_454
B1 Ni5 2.008327 1_544
B1 Ni4 2.008327 1_445
B1 Ni1 2.008990 1_555
B1 Ni2 2.008990 1_555
B1 Ni0 2.008990 1_555
B1 Ca0 2.867438 1_545
B1 Ca0 2.867438 1_554
B1 Ca0 2.867438 1_455
