# generated using pymatgen
data_RbFeNiP2
_symmetry_space_group_name_H-M   'P 1'
_cell_length_a   7.43936325
_cell_length_b   7.43936295
_cell_length_c   7.43936330
_cell_angle_alpha   151.43995991
_cell_angle_beta   151.43995250
_cell_angle_gamma   40.83172184
_symmetry_Int_Tables_number   1
_chemical_formula_structural   RbFeNiP2
_chemical_formula_sum   'Rb1 Fe1 Ni1 P2'
_cell_volume   93.90618647
_cell_formula_units_Z   1
loop_
 _symmetry_equiv_pos_site_id
 _symmetry_equiv_pos_as_xyz
  1  'x, y, z'
loop_
 _atom_site_type_symbol
 _atom_site_label
 _atom_site_symmetry_multiplicity
 _atom_site_fract_x
 _atom_site_fract_y
 _atom_site_fract_z
 _atom_site_occupancy
  Rb  Rb0  1  0.00000000  0.00000000  0.00000000  1
  Fe  Fe0  1  0.25000000  0.75000000  0.50000000  1
  Ni  Ni0  1  0.75000000  0.25000000  0.50000000  1
  P  P0  1  0.66337122  0.66337122  0.00000000  1
  P  P1  1  0.33662878  0.33662878  1.00000000  1
loop_
_geom_bond_atom_site_label_1
_geom_bond_atom_site_label_2
_geom_bond_distance
_geom_bond_site_symmetry_2
Fe0 P1 2.196908 1_565
Fe0 P1 2.196908 1_554
Fe0 P0 2.196908 1_455
Fe0 P0 2.196908 1_556
Ni0 P0 2.196908 1_545
Ni0 P0 2.196908 1_556
Ni0 P1 2.196908 1_655
Ni0 P1 2.196908 1_554
P0 Rb0 3.453123 1_655
P0 Rb0 3.453123 1_554
P0 Rb0 3.453123 1_565
P0 Rb0 3.453123 1_666
P1 Rb0 3.453123 1_566
P1 Rb0 3.453123 1_667
P1 Rb0 3.453123 1_656
P1 Rb0 3.453123 1_555
