# generated using pymatgen
data_CuTcF6
_symmetry_space_group_name_H-M   'P 1'
_cell_length_a   4.95829752
_cell_length_b   5.11724483
_cell_length_c   5.53599913
_cell_angle_alpha   60.38742414
_cell_angle_beta   61.60655942
_cell_angle_gamma   60.12783122
_symmetry_Int_Tables_number   1
_chemical_formula_structural   CuTcF6
_chemical_formula_sum   'Cu1 Tc1 F6'
_cell_volume   100.87061031
_cell_formula_units_Z   1
loop_
 _symmetry_equiv_pos_site_id
 _symmetry_equiv_pos_as_xyz
  1  'x, y, z'
loop_
 _atom_site_type_symbol
 _atom_site_label
 _atom_site_symmetry_multiplicity
 _atom_site_fract_x
 _atom_site_fract_y
 _atom_site_fract_z
 _atom_site_occupancy
  Cu  Cu0  1  0.00000000  0.00000000  0.00000000  1
  Tc  Tc0  1  0.50000000  0.50000000  0.50000000  1
  F  F0  1  0.74680548  0.38367447  0.74834878  1
  F  F1  1  0.25319452  0.61632553  0.25165122  1
  F  F2  1  0.61747040  0.88767381  0.24893137  1
  F  F3  1  0.38252960  0.11232619  0.75106863  1
  F  F4  1  0.11960353  0.73714488  0.73778246  1
  F  F5  1  0.88039647  0.26285512  0.26221754  1
loop_
_geom_bond_atom_site_label_1
_geom_bond_atom_site_label_2
_geom_bond_distance
_geom_bond_site_symmetry_2
Cu0 F3 1.909003 1_554
Cu0 F2 1.909003 1_445
Cu0 F1 1.968907 1_545
Cu0 F0 1.968907 1_454
Cu0 F5 2.141160 1_455
Cu0 F4 2.141160 1_544
F0 Tc0 1.951351 1_555
F1 Tc0 1.951351 1_555
F2 Tc0 1.965391 1_555
F3 Tc0 1.965391 1_555
F4 Tc0 1.923622 1_555
F5 Tc0 1.923622 1_555
