# generated using pymatgen
data_Y4Re5TcB12
_symmetry_space_group_name_H-M   'P 1'
_cell_length_a   6.19835999
_cell_length_b   6.19836121
_cell_length_c   7.49697659
_cell_angle_alpha   89.34460192
_cell_angle_beta   89.34460317
_cell_angle_gamma   113.68510474
_symmetry_Int_Tables_number   1
_chemical_formula_structural   Y4Re5TcB12
_chemical_formula_sum   'Y4 Re5 Tc1 B12'
_cell_volume   263.71197469
_cell_formula_units_Z   1
loop_
 _symmetry_equiv_pos_site_id
 _symmetry_equiv_pos_as_xyz
  1  'x, y, z'
loop_
 _atom_site_type_symbol
 _atom_site_label
 _atom_site_symmetry_multiplicity
 _atom_site_fract_x
 _atom_site_fract_y
 _atom_site_fract_z
 _atom_site_occupancy
  Y  Y0  1  0.89933972  0.55631667  0.32162714  1
  Y  Y1  1  0.44368333  0.10066028  0.17837286  1
  Y  Y2  1  0.09991086  0.44326132  0.67781559  1
  Y  Y3  1  0.55673868  0.90008914  0.82218441  1
  Re  Re0  1  0.58748666  0.41251334  0.75000000  1
  Re  Re1  1  0.01002817  0.19305923  0.08887935  1
  Re  Re2  1  0.80694077  0.98997183  0.41112065  1
  Re  Re3  1  0.99026556  0.80663643  0.91139758  1
  Re  Re4  1  0.19336357  0.00973444  0.58860242  1
  Tc  Tc0  1  0.41244296  0.58755704  0.25000000  1
  B  B0  1  0.75181983  0.84895838  0.13013223  1
  B  B1  1  0.15104162  0.24818017  0.36986777  1
  B  B2  1  0.24900463  0.15057131  0.87044262  1
  B  B3  1  0.84942869  0.75099537  0.62955738  1
  B  B4  1  0.41444660  0.84199736  0.48118915  1
  B  B5  1  0.15800264  0.58555340  0.01881085  1
  B  B6  1  0.58718704  0.16023838  0.52044089  1
  B  B7  1  0.83976162  0.41281296  0.97955911  1
  B  B8  1  0.55696560  0.65007311  0.53428276  1
  B  B9  1  0.34992689  0.44303440  0.96571724  1
  B  B10  1  0.44241447  0.35019692  0.46463365  1
  B  B11  1  0.64980308  0.55758553  0.03536635  1
loop_
_geom_bond_atom_site_label_1
_geom_bond_atom_site_label_2
_geom_bond_distance
_geom_bond_site_symmetry_2
B0 B11 1.813413 1_555
B0 Re1 2.106489 1_665
B0 Tc0 2.245655 1_555
B0 Re2 2.266489 1_555
B0 Re3 2.282151 1_554
B0 Y3 2.692132 1_554
B0 Y0 2.736854 1_555
B0 Y1 2.933227 1_565
B1 B10 1.813413 1_555
B1 Re2 2.106489 1_445
B1 Tc0 2.245655 1_555
B1 Re1 2.266489 1_555
B1 Re4 2.282151 1_555
B1 Y2 2.692132 1_555
B1 Y1 2.736854 1_555
B1 Y0 2.933227 1_455
B2 B9 1.821121 1_555
B2 Re3 2.106641 1_445
B2 Re0 2.244894 1_555
B2 Re4 2.272122 1_555
B2 Re1 2.283213 1_556
B2 Y1 2.688588 1_556
B2 Y2 2.747437 1_555
B2 Y3 2.925082 1_545
B3 B8 1.821121 1_555
B3 Re4 2.106641 1_665
B3 Re0 2.244894 1_555
B3 Re3 2.272122 1_555
B3 Re2 2.283213 1_555
B3 Y0 2.688588 1_555
B3 Y3 2.747437 1_555
B3 Y2 2.925082 1_655
B4 B8 1.787598 1_555
B4 B6 1.856793 1_565
B4 Re4 2.178503 1_565
B4 Re2 2.280968 1_555
B4 Tc0 2.353461 1_555
B4 Y3 2.694510 1_555
B4 Y1 2.726003 1_565
B4 Y2 2.839359 1_555
B4 Y0 3.217790 1_455
B5 B9 1.787598 1_554
B5 B7 1.856792 1_454
B5 Re3 2.178503 1_454
B5 Re1 2.280969 1_555
B5 Tc0 2.353461 1_555
B5 Y2 2.694510 1_554
B5 Y0 2.726003 1_455
B5 Y3 2.839359 1_554
B5 Y1 3.217791 1_565
B6 Re2 2.188620 1_545
B6 Re4 2.284986 1_555
B6 Re0 2.338007 1_555
B6 Y1 2.704449 1_555
B6 Y3 2.723130 1_545
B6 Y0 2.833087 1_555
B6 Y2 3.197406 1_655
B7 Re1 2.188620 1_656
B7 Re3 2.284987 1_555
B7 Re0 2.338007 1_555
B7 Y0 2.704449 1_556
B7 Y2 2.723130 1_655
B7 Y1 2.833087 1_556
B7 Y3 3.197407 1_545
B8 Re2 2.234298 1_555
B8 Re0 2.235115 1_555
B8 Tc0 2.297516 1_555
B8 Y3 2.671778 1_555
B8 Y2 2.794281 1_555
B8 Y0 2.884026 1_555
B9 Re1 2.234298 1_556
B9 Re0 2.235115 1_555
B9 Tc0 2.297516 1_556
B9 Y2 2.671778 1_555
B9 Y3 2.794281 1_555
B9 Y1 2.884026 1_556
B10 B8 1.789434 1_555
B10 B6 1.792435 1_555
B10 Tc0 2.227230 1_555
B10 Re4 2.237234 1_555
B10 Re0 2.306210 1_555
B10 Y1 2.661471 1_555
B10 Y0 2.791968 1_555
B10 Y2 2.884680 1_555
B11 B9 1.789433 1_554
B11 B7 1.792435 1_554
B11 Tc0 2.227230 1_555
B11 Re3 2.237234 1_554
B11 Re0 2.306210 1_554
B11 Y0 2.661471 1_555
B11 Y1 2.791968 1_555
B11 Y3 2.884680 1_554
