# generated using pymatgen
data_Sr4Tc2NiO12
_symmetry_space_group_name_H-M   'P 1'
_cell_length_a   5.49678695
_cell_length_b   5.49678677
_cell_length_c   9.42105784
_cell_angle_alpha   73.03851406
_cell_angle_beta   106.96148489
_cell_angle_gamma   119.99999660
_symmetry_Int_Tables_number   1
_chemical_formula_structural   Sr4Tc2NiO12
_chemical_formula_sum   'Sr4 Tc2 Ni1 O12'
_cell_volume   232.10996469
_cell_formula_units_Z   1
loop_
 _symmetry_equiv_pos_site_id
 _symmetry_equiv_pos_as_xyz
  1  'x, y, z'
loop_
 _atom_site_type_symbol
 _atom_site_label
 _atom_site_symmetry_multiplicity
 _atom_site_fract_x
 _atom_site_fract_y
 _atom_site_fract_z
 _atom_site_occupancy
  Sr  Sr0  1  0.70728410  0.29271490  0.12185530  1
  Sr  Sr1  1  0.13012583  0.86987317  0.39037749  1
  Sr  Sr2  1  0.86987317  0.13012483  0.60962251  1
  Sr  Sr3  1  0.29271490  0.70728410  0.87814570  1
  Tc  Tc0  1  0.42117947  0.57882053  0.26353741  1
  Tc  Tc1  1  0.57882153  0.42117847  0.73646259  1
  Ni  Ni0  1  0.00000000  0.00000000  0.00000000  1
  O  O0  1  0.21591186  0.30157249  0.13025023  1
  O  O1  1  0.69842651  0.78408814  0.13025023  1
  O  O2  1  0.21591186  0.78408814  0.13025023  1
  O  O3  1  0.13230825  0.38108982  0.37012861  1
  O  O4  1  0.61891118  0.38109082  0.37012861  1
  O  O5  1  0.61891118  0.86769275  0.37012861  1
  O  O6  1  0.38108982  0.13230925  0.62987139  1
  O  O7  1  0.86769275  0.61891018  0.62987139  1
  O  O8  1  0.38108982  0.61891118  0.62987139  1
  O  O9  1  0.78408714  0.21591086  0.86974877  1
  O  O10  1  0.30157149  0.21591086  0.86974877  1
  O  O11  1  0.78408714  0.69842651  0.86974877  1
loop_
_geom_bond_atom_site_label_1
_geom_bond_atom_site_label_2
_geom_bond_distance
_geom_bond_site_symmetry_2
Ni0 O0 2.007973 1_555
Ni0 O10 2.007975 1_554
Ni0 O2 2.007976 1_545
Ni0 O1 2.007977 1_445
Ni0 O9 2.007979 1_454
Ni0 O11 2.007983 1_444
O0 Tc0 1.934618 1_555
O0 Sr3 2.710316 1_554
O0 Sr0 2.749954 1_555
O0 Sr0 2.749970 1_455
O0 Sr1 2.832203 1_545
O1 Tc0 1.934614 1_555
O1 Sr3 2.710316 1_554
O1 Sr0 2.749959 1_555
O1 Sr0 2.749965 1_565
O1 Sr1 2.832203 1_655
O2 Tc0 1.934617 1_555
O2 Sr3 2.710316 1_554
O2 Sr0 2.749959 1_565
O2 Sr0 2.749965 1_455
O2 Sr1 2.832200 1_555
O3 Tc0 1.810733 1_555
O3 Sr2 2.677275 1_455
O3 Sr0 2.739480 1_455
O3 Sr1 2.754579 1_555
O3 Sr1 2.754590 1_545
O4 Tc0 1.810729 1_555
O4 Sr2 2.677272 1_555
O4 Sr0 2.739475 1_555
O4 Sr1 2.754577 1_655
O4 Sr1 2.754593 1_545
O5 Tc0 1.810737 1_555
O5 Sr2 2.677266 1_565
O5 Sr0 2.739475 1_565
O5 Sr1 2.754585 1_655
O5 Sr1 2.754585 1_555
O6 Tc1 1.810725 1_555
O6 Sr1 2.677278 1_545
O6 Sr3 2.739489 1_545
O6 Sr2 2.754585 1_455
O6 Sr2 2.754585 1_555
O7 Tc1 1.810733 1_555
O7 Sr1 2.677269 1_655
O7 Sr3 2.739481 1_655
O7 Sr2 2.754584 1_565
O7 Sr2 2.754584 1_555
O8 Tc1 1.810741 1_555
O8 Sr1 2.677266 1_555
O8 Sr3 2.739481 1_555
O8 Sr2 2.754576 1_565
O8 Sr2 2.754593 1_455
O9 Tc1 1.934607 1_555
O9 Sr0 2.710334 1_556
O9 Sr3 2.749960 1_545
O9 Sr3 2.749965 1_655
O9 Sr2 2.832194 1_555
O10 Tc1 1.934619 1_555
O10 Sr0 2.710331 1_556
O10 Sr3 2.749962 1_545
O10 Sr3 2.749962 1_555
O10 Sr2 2.832194 1_455
O11 Tc1 1.934611 1_555
O11 Sr0 2.710329 1_556
O11 Sr3 2.749960 1_555
O11 Sr3 2.749965 1_655
O11 Sr2 2.832193 1_565
