# generated using pymatgen
data_Rb3BiTe3
_symmetry_space_group_name_H-M   'P 1'
_cell_length_a   10.85447672
_cell_length_b   10.85447672
_cell_length_c   10.85447672
_cell_angle_alpha   90.00000000
_cell_angle_beta   90.00000000
_cell_angle_gamma   90.00000000
_symmetry_Int_Tables_number   1
_chemical_formula_structural   Rb3BiTe3
_chemical_formula_sum   'Rb12 Bi4 Te12'
_cell_volume   1278.87080935
_cell_formula_units_Z   4
loop_
 _symmetry_equiv_pos_site_id
 _symmetry_equiv_pos_as_xyz
  1  'x, y, z'
loop_
 _atom_site_type_symbol
 _atom_site_label
 _atom_site_symmetry_multiplicity
 _atom_site_fract_x
 _atom_site_fract_y
 _atom_site_fract_z
 _atom_site_occupancy
  Rb  Rb0  1  0.57472735  0.57472735  0.57472735  1
  Rb  Rb1  1  0.92527265  0.42527265  0.07472735  1
  Rb  Rb2  1  0.07472735  0.92527265  0.42527265  1
  Rb  Rb3  1  0.42527265  0.07472735  0.92527265  1
  Rb  Rb4  1  0.32438665  0.32438665  0.32438665  1
  Rb  Rb5  1  0.17561335  0.67561335  0.82438665  1
  Rb  Rb6  1  0.82438665  0.17561335  0.67561335  1
  Rb  Rb7  1  0.67561335  0.82438665  0.17561335  1
  Rb  Rb8  1  0.81650372  0.81650372  0.81650372  1
  Rb  Rb9  1  0.68349628  0.18349628  0.31650372  1
  Rb  Rb10  1  0.31650372  0.68349628  0.18349628  1
  Rb  Rb11  1  0.18349628  0.31650372  0.68349628  1
  Bi  Bi0  1  0.03025677  0.03025677  0.03025677  1
  Bi  Bi1  1  0.46974323  0.96974323  0.53025677  1
  Bi  Bi2  1  0.53025677  0.46974323  0.96974323  1
  Bi  Bi3  1  0.96974323  0.53025677  0.46974323  1
  Te  Te0  1  0.22241102  0.61105558  0.49938228  1
  Te  Te1  1  0.49938228  0.22241102  0.61105558  1
  Te  Te2  1  0.61105558  0.49938228  0.22241102  1
  Te  Te3  1  0.88894442  0.50061772  0.72241102  1
  Te  Te4  1  0.99938228  0.27758898  0.38894442  1
  Te  Te5  1  0.38894442  0.99938228  0.27758898  1
  Te  Te6  1  0.00061772  0.77758898  0.11105558  1
  Te  Te7  1  0.50061772  0.72241102  0.88894442  1
  Te  Te8  1  0.11105558  0.00061772  0.77758898  1
  Te  Te9  1  0.72241102  0.88894442  0.50061772  1
  Te  Te10  1  0.77758898  0.11105558  0.00061772  1
  Te  Te11  1  0.27758898  0.38894442  0.99938228  1
loop_
_geom_bond_atom_site_label_1
_geom_bond_atom_site_label_2
_geom_bond_distance
_geom_bond_site_symmetry_2
Rb0 Te3 3.853493 1_555
Rb0 Te7 3.853493 1_555
Rb0 Te9 3.853493 1_555
Rb0 Te2 3.930511 1_555
Rb0 Te0 3.930511 1_555
Rb0 Te1 3.930511 1_555
Rb1 Te4 3.853493 1_555
Rb1 Te2 3.853493 1_555
Rb1 Te10 3.853493 1_555
Rb1 Te6 3.930511 1_655
Rb1 Te3 3.930511 1_554
Rb1 Te11 3.930511 1_654
Rb2 Te5 3.853493 1_555
Rb2 Te0 3.853493 1_555
Rb2 Te6 3.853493 1_555
Rb2 Te8 3.930511 1_565
Rb2 Te9 3.930511 1_455
Rb2 Te4 3.930511 1_465
Rb3 Te11 3.853493 1_555
Rb3 Te1 3.853493 1_555
Rb3 Te8 3.853493 1_555
Rb3 Te10 3.930511 1_556
Rb3 Te7 3.930511 1_545
Rb3 Te5 3.930511 1_546
Rb4 Te5 3.632369 1_545
Rb4 Te4 3.632369 1_455
Rb4 Te11 3.632369 1_554
Rb4 Te1 3.809930 1_555
Rb4 Te2 3.809930 1_555
Rb4 Te0 3.809930 1_555
Rb5 Te8 3.632369 1_565
Rb5 Te0 3.632369 1_555
Rb5 Te7 3.632369 1_555
Rb5 Te3 3.809930 1_455
Rb5 Te6 3.809930 1_556
Rb5 Te11 3.809930 1_555
Rb6 Te1 3.632369 1_555
Rb6 Te10 3.632369 1_556
Rb6 Te3 3.632369 1_555
Rb6 Te9 3.809930 1_545
Rb6 Te8 3.809930 1_655
Rb6 Te4 3.809930 1_555
Rb7 Te2 3.632369 1_555
Rb7 Te6 3.632369 1_655
Rb7 Te9 3.632369 1_555
Rb7 Te7 3.809930 1_554
Rb7 Te10 3.809930 1_565
Rb7 Te5 3.809930 1_555
Rb8 Te7 3.663045 1_555
Rb8 Te9 3.663045 1_555
Rb8 Te3 3.663045 1_555
Rb8 Te10 3.793995 1_566
Rb8 Te8 3.793995 1_665
Rb8 Te6 3.793995 1_656
Rb9 Te4 3.663045 1_555
Rb9 Te2 3.663045 1_555
Rb9 Te10 3.663045 1_555
Rb9 Te5 3.793995 1_545
Rb9 Te1 3.793995 1_555
Rb9 Te9 3.793995 1_545
Rb10 Te6 3.663045 1_555
Rb10 Te0 3.663045 1_555
Rb10 Te5 3.663045 1_555
Rb10 Te11 3.793995 1_554
Rb10 Te2 3.793995 1_555
Rb10 Te7 3.793995 1_554
Rb11 Te11 3.663045 1_555
Rb11 Te8 3.663045 1_555
Rb11 Te1 3.663045 1_555
Rb11 Te0 3.793995 1_555
Rb11 Te4 3.793995 1_455
Rb11 Te3 3.793995 1_455
Bi0 Te6 2.897310 1_545
Bi0 Te8 2.897310 1_554
Bi0 Te10 2.897310 1_455
Bi1 Te5 2.897310 1_555
Bi1 Te1 2.897310 1_565
Bi1 Te9 2.897310 1_555
Bi2 Te11 2.897310 1_555
Bi2 Te2 2.897310 1_556
Bi2 Te7 2.897310 1_555
Bi3 Te0 2.897310 1_655
Bi3 Te4 2.897310 1_555
Bi3 Te3 2.897310 1_555
