# generated using pymatgen
data_Ca4Al6SeO12
_symmetry_space_group_name_H-M   'P 1'
_cell_length_a   7.86445232
_cell_length_b   7.86445257
_cell_length_c   7.86445222
_cell_angle_alpha   109.47121719
_cell_angle_beta   109.47121785
_cell_angle_gamma   109.47122634
_symmetry_Int_Tables_number   1
_chemical_formula_structural   Ca4Al6SeO12
_chemical_formula_sum   'Ca4 Al6 Se1 O12'
_cell_volume   374.44115084
_cell_formula_units_Z   1
loop_
 _symmetry_equiv_pos_site_id
 _symmetry_equiv_pos_as_xyz
  1  'x, y, z'
loop_
 _atom_site_type_symbol
 _atom_site_label
 _atom_site_symmetry_multiplicity
 _atom_site_fract_x
 _atom_site_fract_y
 _atom_site_fract_z
 _atom_site_occupancy
  Ca  Ca0  1  0.63236366  1.00000000  0.00000000  1
  Ca  Ca1  1  0.00000000  0.00000000  0.63236366  1
  Ca  Ca2  1  1.00000000  0.63236366  0.00000000  1
  Ca  Ca3  1  0.36763634  0.36763634  0.36763634  1
  Al  Al0  1  0.25000000  0.75000000  0.50000000  1
  Al  Al1  1  0.75000000  0.25000000  0.50000000  1
  Al  Al2  1  0.75000000  0.50000000  0.25000000  1
  Al  Al3  1  0.25000000  0.50000000  0.75000000  1
  Al  Al4  1  0.50000000  0.75000000  0.25000000  1
  Al  Al5  1  0.50000000  0.25000000  0.75000000  1
  Se  Se0  1  0.00000000  0.00000000  0.00000000  1
  O  O0  1  0.70481504  0.28224850  0.28224850  1
  O  O1  1  0.28224850  0.70481504  0.28224850  1
  O  O2  1  0.29518496  0.57743346  0.57743346  1
  O  O3  1  0.57743346  0.57743346  0.29518496  1
  O  O4  1  0.42256654  0.71775150  0.00000000  1
  O  O5  1  1.00000000  0.71775150  0.42256654  1
  O  O6  1  0.57743346  0.29518496  0.57743346  1
  O  O7  1  0.71775150  1.00000000  0.42256654  1
  O  O8  1  0.42256654  0.00000000  0.71775150  1
  O  O9  1  0.71775150  0.42256654  0.00000000  1
  O  O10  1  0.28224850  0.28224850  0.70481504  1
  O  O11  1  0.00000000  0.42256654  0.71775150  1
loop_
_geom_bond_atom_site_label_1
_geom_bond_atom_site_label_2
_geom_bond_distance
_geom_bond_site_symmetry_2
Ca0 O4 2.282080 1_555
Ca0 O8 2.282080 1_564
Ca0 O0 2.282080 1_565
Ca0 Se0 2.891258 1_665
Ca1 O10 2.282080 1_555
Ca1 O7 2.282080 1_445
Ca1 O5 2.282080 1_445
Ca1 Se0 2.891258 1_556
Ca2 O9 2.282080 1_555
Ca2 O1 2.282080 1_655
Ca2 O11 2.282080 1_654
Ca2 Se0 2.891259 1_665
Ca3 O3 2.282080 1_555
Ca3 O6 2.282080 1_555
Ca3 O2 2.282080 1_555
Ca3 Se0 2.891259 1_555
Al0 O1 1.751335 1_555
Al0 O5 1.751335 1_455
Al0 O2 1.751335 1_555
Al0 O8 1.751335 1_565
Al1 O0 1.751335 1_555
Al1 O6 1.751335 1_555
Al1 O11 1.751335 1_655
Al1 O7 1.751335 1_545
Al2 O5 1.751335 1_555
Al2 O0 1.751335 1_555
Al2 O9 1.751335 1_555
Al2 O3 1.751335 1_555
Al3 O2 1.751335 1_555
Al3 O11 1.751335 1_555
Al3 O4 1.751335 1_556
Al3 O10 1.751335 1_555
Al4 O1 1.751335 1_555
Al4 O7 1.751335 1_555
Al4 O4 1.751335 1_555
Al4 O3 1.751335 1_555
Al5 O6 1.751335 1_555
Al5 O8 1.751335 1_555
Al5 O9 1.751335 1_556
Al5 O10 1.751335 1_555
