# generated using pymatgen
data_BaNaCuH4
_symmetry_space_group_name_H-M   'P 1'
_cell_length_a   7.40196611
_cell_length_b   7.40196611
_cell_length_c   7.40196611
_cell_angle_alpha   90.00000000
_cell_angle_beta   90.00000000
_cell_angle_gamma   90.00000000
_symmetry_Int_Tables_number   1
_chemical_formula_structural   BaNaCuH4
_chemical_formula_sum   'Ba4 Na4 Cu4 H16'
_cell_volume   405.54707865
_cell_formula_units_Z   4
loop_
 _symmetry_equiv_pos_site_id
 _symmetry_equiv_pos_as_xyz
  1  'x, y, z'
loop_
 _atom_site_type_symbol
 _atom_site_label
 _atom_site_symmetry_multiplicity
 _atom_site_fract_x
 _atom_site_fract_y
 _atom_site_fract_z
 _atom_site_occupancy
  Ba  Ba0  1  0.16729931  0.66729931  0.83270069  1
  Ba  Ba1  1  0.66729931  0.83270069  0.16729931  1
  Ba  Ba2  1  0.83270069  0.16729931  0.66729931  1
  Ba  Ba3  1  0.33270069  0.33270069  0.33270069  1
  Na  Na0  1  0.84773494  0.34773494  0.15226506  1
  Na  Na1  1  0.34773494  0.15226506  0.84773494  1
  Na  Na2  1  0.15226506  0.84773494  0.34773494  1
  Na  Na3  1  0.65226506  0.65226506  0.65226506  1
  Cu  Cu0  1  0.44085693  0.94085693  0.55914307  1
  Cu  Cu1  1  0.94085693  0.55914307  0.44085693  1
  Cu  Cu2  1  0.55914307  0.44085693  0.94085693  1
  Cu  Cu3  1  0.05914307  0.05914307  0.05914307  1
  H  H0  1  0.56701480  0.06701480  0.43298520  1
  H  H1  1  0.06701480  0.43298520  0.56701480  1
  H  H2  1  0.43298520  0.56701480  0.06701480  1
  H  H3  1  0.93298520  0.93298520  0.93298520  1
  H  H4  1  0.25967502  0.96512091  0.08242701  1
  H  H5  1  0.91757299  0.75967502  0.53487909  1
  H  H6  1  0.46512091  0.41757299  0.74032498  1
  H  H7  1  0.75967502  0.53487909  0.91757299  1
  H  H8  1  0.41757299  0.74032498  0.46512091  1
  H  H9  1  0.96512091  0.08242701  0.25967502  1
  H  H10  1  0.74032498  0.46512091  0.41757299  1
  H  H11  1  0.08242701  0.25967502  0.96512091  1
  H  H12  1  0.53487909  0.91757299  0.75967502  1
  H  H13  1  0.24032498  0.03487909  0.58242701  1
  H  H14  1  0.58242701  0.24032498  0.03487909  1
  H  H15  1  0.03487909  0.58242701  0.24032498  1
loop_
_geom_bond_atom_site_label_1
_geom_bond_atom_site_label_2
_geom_bond_distance
_geom_bond_site_symmetry_2
Ba0 H1 2.725181 1_555
Ba0 H3 2.725181 1_455
Ba0 H2 2.725181 1_556
Ba0 H5 2.957030 1_455
Ba0 H4 2.957030 1_556
Ba0 H6 2.957030 1_555
Ba1 H2 2.725181 1_555
Ba1 H3 2.725181 1_554
Ba1 H0 2.725181 1_565
Ba1 H7 2.957030 1_554
Ba1 H9 2.957030 1_565
Ba1 H8 2.957030 1_555
Ba2 H0 2.725181 1_555
Ba2 H3 2.725181 1_545
Ba2 H1 2.725181 1_655
Ba2 H12 2.957030 1_545
Ba2 H11 2.957030 1_655
Ba2 H10 2.957030 1_555
Ba3 H0 2.725181 1_555
Ba3 H1 2.725181 1_555
Ba3 H2 2.725181 1_555
Ba3 H15 2.957030 1_555
Ba3 H13 2.957030 1_555
Ba3 H14 2.957030 1_555
Cu0 H0 1.617417 1_565
Cu0 H13 1.648419 1_565
Cu0 H8 1.648419 1_555
Cu0 H12 1.648419 1_555
Cu1 H1 1.617417 1_655
Cu1 H15 1.648419 1_655
Cu1 H10 1.648419 1_555
Cu1 H5 1.648419 1_555
Cu2 H2 1.617417 1_556
Cu2 H14 1.648419 1_556
Cu2 H6 1.648419 1_555
Cu2 H7 1.648419 1_555
Cu3 H3 1.617417 1_444
Cu3 H4 1.648419 1_545
Cu3 H9 1.648419 1_455
Cu3 H11 1.648419 1_554
H4 Na2 2.289885 1_555
H4 Na1 2.315501 1_564
H5 Na3 2.289885 1_555
H5 Na2 2.315501 1_655
H6 Na1 2.289885 1_555
H6 Na3 2.315501 1_555
H7 Na3 2.289885 1_555
H7 Na0 2.315501 1_556
H8 Na2 2.289885 1_555
H8 Na3 2.315501 1_555
H9 Na0 2.289885 1_555
H9 Na2 2.315501 1_645
H10 Na0 2.289885 1_555
H10 Na3 2.315501 1_555
H11 Na1 2.289885 1_555
H11 Na0 2.315501 1_456
H12 Na3 2.289885 1_555
H12 Na1 2.315501 1_565
H13 Na1 2.289885 1_555
H13 Na2 2.315501 1_545
H14 Na0 2.289885 1_555
H14 Na1 2.315501 1_554
H15 Na2 2.289885 1_555
H15 Na0 2.315501 1_455
