# generated using pymatgen
data_Zr6Nb3Al13Ir7
_symmetry_space_group_name_H-M   'P 1'
_cell_length_a   8.79665159
_cell_length_b   8.79662991
_cell_length_c   8.79662922
_cell_angle_alpha   59.88482405
_cell_angle_beta   59.88467917
_cell_angle_gamma   59.88444119
_symmetry_Int_Tables_number   1
_chemical_formula_structural   Zr6Nb3Al13Ir7
_chemical_formula_sum   'Zr6 Nb3 Al13 Ir7'
_cell_volume   480.06149395
_cell_formula_units_Z   1
loop_
 _symmetry_equiv_pos_site_id
 _symmetry_equiv_pos_as_xyz
  1  'x, y, z'
loop_
 _atom_site_type_symbol
 _atom_site_label
 _atom_site_symmetry_multiplicity
 _atom_site_fract_x
 _atom_site_fract_y
 _atom_site_fract_z
 _atom_site_occupancy
  Zr  Zr0  1  0.69045140  0.69046237  0.30645461  1
  Zr  Zr1  1  0.31308457  0.68534765  0.31309966  1
  Zr  Zr2  1  0.68535038  0.31308546  0.31308686  1
  Zr  Zr3  1  0.31308832  0.31310082  0.68534235  1
  Zr  Zr4  1  0.69046174  0.30644589  0.69046852  1
  Zr  Zr5  1  0.30644452  0.69046412  0.69046090  1
  Nb  Nb0  1  0.87859495  0.87858462  0.36140600  1
  Nb  Nb1  1  0.87859492  0.36140585  0.87858583  1
  Nb  Nb2  1  0.36140285  0.87858385  0.87858265  1
  Al  Al0  1  0.88094671  0.88093971  0.88095036  1
  Al  Al1  1  0.11946503  0.11946729  0.63543961  1
  Al  Al2  1  0.11946375  0.63544074  0.11946622  1
  Al  Al3  1  0.63543887  0.11946662  0.11946885  1
  Al  Al4  1  0.12295679  0.12295379  0.12295237  1
  Al  Al5  1  0.66528745  0.66528087  0.01313192  1
  Al  Al6  1  0.66528654  0.01313510  0.66528401  1
  Al  Al7  1  0.01314058  0.66528446  0.66528723  1
  Al  Al8  1  0.65789721  0.65789218  0.65789003  1
  Al  Al9  1  0.33777729  0.33778134  0.98896043  1
  Al  Al10  1  0.33777564  0.98896343  0.33778136  1
  Al  Al11  1  0.98895302  0.33778179  0.33778431  1
  Al  Al12  1  0.33660124  0.33660604  0.33659866  1
  Ir  Ir0  1  0.00180944  0.00180696  0.00180438  1
  Ir  Ir1  1  0.99935267  0.99934843  0.49699210  1
  Ir  Ir2  1  0.50309858  0.99783827  0.50308786  1
  Ir  Ir3  1  0.99784159  0.50309626  0.50309359  1
  Ir  Ir4  1  0.50309733  0.50309209  0.99783809  1
  Ir  Ir5  1  0.99934788  0.49699380  0.99934688  1
  Ir  Ir6  1  0.49698874  0.99935018  0.99935437  1
loop_
_geom_bond_atom_site_label_1
_geom_bond_atom_site_label_2
_geom_bond_distance
_geom_bond_site_symmetry_2
Zr0 Zr1 3.313226 1_555
Zr0 Zr2 3.313301 1_555
Zr1 Zr3 3.268797 1_555
Zr1 Zr2 3.268951 1_555
Zr1 Zr5 3.313198 1_555
Zr2 Zr3 3.268917 1_555
Zr2 Zr4 3.313357 1_555
Zr3 Zr5 3.313209 1_555
Zr3 Zr4 3.313292 1_555
Nb0 Zr0 3.172570 1_555
Nb0 Zr1 3.202126 1_655
Nb0 Zr2 3.202182 1_565
Nb1 Zr4 3.172503 1_555
Nb1 Zr3 3.202163 1_655
Nb1 Zr2 3.202189 1_556
Nb2 Zr5 3.172421 1_555
Nb2 Zr1 3.202317 1_556
Nb2 Zr3 3.202321 1_565
Al0 Ir0 2.606500 1_666
Al0 Ir5 2.757765 1_555
Al0 Ir6 2.757851 1_555
Al0 Ir1 2.757855 1_555
Al0 Zr5 3.139310 1_655
Al0 Zr4 3.139362 1_565
Al0 Zr0 3.139372 1_556
Al1 Ir0 2.628559 1_556
Al1 Ir1 2.723786 1_445
Al1 Ir3 2.751838 1_455
Al1 Ir2 2.751873 1_545
Al1 Zr4 3.149321 1_455
Al1 Zr5 3.149326 1_545
Al1 Zr3 3.225975 1_555
Al2 Ir0 2.628564 1_565
Al2 Ir5 2.723810 1_454
Al2 Ir3 2.751833 1_455
Al2 Ir4 2.751873 1_554
Al2 Zr5 3.149347 1_554
Al2 Zr0 3.149406 1_455
Al2 Zr1 3.225978 1_555
Al3 Ir0 2.628597 1_655
Al3 Ir6 2.723804 1_544
Al3 Ir2 2.751771 1_545
Al3 Ir4 2.751811 1_554
Al3 Zr4 3.149313 1_554
Al3 Zr0 3.149356 1_545
Al3 Zr2 3.225869 1_555
Al4 Ir0 2.612669 1_555
Al4 Ir6 2.682629 1_544
Al4 Ir5 2.682684 1_454
Al4 Ir1 2.682688 1_445
Al4 Zr2 3.209145 1_455
Al4 Zr1 3.209158 1_545
Al4 Zr3 3.209197 1_554
Al5 Ir5 2.509736 1_554
Al5 Ir6 2.509816 1_554
Al5 Ir4 2.552849 1_554
Al5 Zr0 2.819869 1_555
Al5 Zr2 2.882221 1_555
Al5 Zr1 2.882303 1_555
Al6 Ir1 2.509782 1_545
Al6 Ir6 2.509814 1_545
Al6 Ir2 2.552902 1_545
Al6 Zr4 2.819839 1_555
Al6 Zr2 2.882215 1_555
Al6 Zr3 2.882263 1_555
Al7 Ir5 2.509719 1_455
Al7 Ir1 2.509762 1_455
Al7 Ir3 2.552892 1_455
Al7 Zr5 2.819753 1_555
Al7 Zr3 2.882124 1_555
Al7 Zr1 2.882140 1_555
Al8 Ir3 2.517745 1_555
Al8 Ir2 2.517772 1_555
Al8 Ir4 2.517790 1_555
Al8 Zr0 2.833071 1_555
Al8 Zr4 2.833099 1_555
Al8 Zr5 2.833163 1_555
Al9 Ir6 2.550302 1_545
Al9 Ir5 2.550312 1_455
Al9 Ir4 2.566256 1_555
Al9 Zr4 2.879087 1_555
Al9 Zr5 2.879108 1_555
Al9 Zr3 2.904963 1_555
Al10 Ir1 2.550272 1_455
Al10 Ir6 2.550292 1_554
Al10 Ir2 2.566228 1_555
Al10 Zr0 2.879067 1_555
Al10 Zr5 2.879093 1_555
Al10 Zr1 2.904960 1_555
Al11 Ir1 2.550314 1_545
Al11 Ir5 2.550357 1_554
Al11 Ir3 2.566253 1_555
Al11 Zr4 2.879085 1_555
Al11 Zr0 2.879093 1_555
Al11 Zr2 2.904958 1_555
Al12 Ir3 2.561902 1_455
Al12 Ir4 2.561910 1_554
Al12 Ir2 2.561949 1_545
Al12 Zr1 2.875126 1_555
Al12 Zr3 2.875135 1_555
Al12 Zr2 2.875136 1_555
Ir0 Nb2 2.579423 1_544
Ir0 Nb1 2.579457 1_454
Ir0 Nb0 2.579483 1_445
Ir1 Nb0 2.711947 1_555
Ir1 Zr5 3.191258 1_655
Ir1 Zr4 3.191327 1_565
Ir1 Zr1 3.196387 1_655
Ir1 Zr2 3.196471 1_565
Ir2 Nb2 2.695932 1_555
Ir2 Nb0 2.695934 1_555
Ir2 Zr2 3.189888 1_565
Ir2 Zr3 3.189986 1_565
Ir2 Zr0 3.221768 1_555
Ir2 Zr5 3.221872 1_555
Ir3 Nb0 2.695877 1_555
Ir3 Nb1 2.695912 1_555
Ir3 Zr1 3.189865 1_655
Ir3 Zr3 3.189866 1_655
Ir3 Zr4 3.221891 1_555
Ir3 Zr0 3.221901 1_555
Ir4 Nb2 2.695903 1_555
Ir4 Nb1 2.695943 1_555
Ir4 Zr2 3.189891 1_556
Ir4 Zr1 3.189984 1_556
Ir4 Zr4 3.221784 1_555
Ir4 Zr5 3.221880 1_555
Ir5 Nb1 2.711907 1_555
Ir5 Zr5 3.191310 1_655
Ir5 Zr0 3.191363 1_556
Ir5 Zr3 3.196429 1_655
Ir5 Zr2 3.196474 1_556
Ir6 Nb2 2.712064 1_555
Ir6 Zr0 3.191288 1_556
Ir6 Zr4 3.191316 1_565
Ir6 Zr1 3.196493 1_556
Ir6 Zr3 3.196532 1_565
