# generated using pymatgen
data_Zr2V2MoOs
_symmetry_space_group_name_H-M   'P 1'
_cell_length_a   5.23412734
_cell_length_b   5.24265233
_cell_length_c   5.23412725
_cell_angle_alpha   119.72385381
_cell_angle_beta   119.79004117
_cell_angle_gamma   90.37462916
_symmetry_Int_Tables_number   1
_chemical_formula_structural   Zr2V2MoOs
_chemical_formula_sum   'Zr2 V2 Mo1 Os1'
_cell_volume   101.97245829
_cell_formula_units_Z   1
loop_
 _symmetry_equiv_pos_site_id
 _symmetry_equiv_pos_as_xyz
  1  'x, y, z'
loop_
 _atom_site_type_symbol
 _atom_site_label
 _atom_site_symmetry_multiplicity
 _atom_site_fract_x
 _atom_site_fract_y
 _atom_site_fract_z
 _atom_site_occupancy
  Zr  Zr0  1  0.37421343  0.12300904  0.24879461  1
  Zr  Zr1  1  0.62578657  0.87699096  0.75120539  1
  V  V0  1  0.50000000  0.50000000  0.00000000  1
  V  V1  1  0.00000000  0.50000000  0.50000000  1
  Mo  Mo0  1  0.00000000  0.50000000  0.00000000  1
  Os  Os0  1  0.00000000  0.00000000  0.50000000  1
loop_
_geom_bond_atom_site_label_1
_geom_bond_atom_site_label_2
_geom_bond_distance
_geom_bond_site_symmetry_2
Zr0 Zr1 3.202734 1_444
Zr0 Zr1 3.202743 1_545
Zr0 Zr1 3.206138 1_544
Zr0 Zr1 3.233824 1_555
V0 V1 2.625365 1_655
V0 V1 2.625365 1_554
V0 Zr1 3.069638 1_554
V0 Zr0 3.069638 1_555
V0 Zr0 3.075661 1_565
V0 Zr1 3.075661 1_544
V0 Zr1 3.082885 1_555
V0 Zr0 3.082885 1_554
V1 Zr1 3.069640 1_555
V1 Zr0 3.069640 1_455
V1 Zr0 3.075658 1_566
V1 Zr1 3.075658 1_444
V1 Zr1 3.082883 1_455
V1 Zr0 3.082883 1_555
Mo0 V1 2.617064 1_554
Mo0 V1 2.617064 1_555
Mo0 V0 2.617064 1_555
Mo0 V0 2.617064 1_455
Mo0 Os0 2.630122 1_554
Mo0 Os0 2.630122 1_565
Mo0 Zr0 3.060151 1_565
Mo0 Zr1 3.060151 1_444
Mo0 Zr0 3.083331 1_555
Mo0 Zr1 3.083331 1_454
Mo0 Zr1 3.083335 1_555
Mo0 Zr0 3.083335 1_454
Os0 V0 2.621326 1_556
Os0 V0 2.621326 1_445
Os0 V1 2.621326 1_545
Os0 V1 2.621326 1_555
Os0 Zr0 3.060138 1_555
Os0 Zr1 3.060138 1_445
Os0 Zr0 3.076094 1_556
Os0 Zr1 3.076094 1_444
Os0 Zr1 3.076099 1_545
Os0 Zr0 3.076099 1_455
