# generated using pymatgen
data_Hf4Nb2Zn7
_symmetry_space_group_name_H-M   'P 1'
_cell_length_a   5.16597660
_cell_length_b   5.16597806
_cell_length_c   9.80632276
_cell_angle_alpha   74.72808781
_cell_angle_beta   74.72808198
_cell_angle_gamma   59.99999862
_symmetry_Int_Tables_number   1
_chemical_formula_structural   Hf4Nb2Zn7
_chemical_formula_sum   'Hf4 Nb2 Zn7'
_cell_volume   215.90546069
_cell_formula_units_Z   1
loop_
 _symmetry_equiv_pos_site_id
 _symmetry_equiv_pos_as_xyz
  1  'x, y, z'
loop_
 _atom_site_type_symbol
 _atom_site_label
 _atom_site_symmetry_multiplicity
 _atom_site_fract_x
 _atom_site_fract_y
 _atom_site_fract_z
 _atom_site_occupancy
  Hf  Hf0  1  0.83378366  0.83378366  0.49865003  1
  Hf  Hf1  1  0.16621634  0.16621634  0.50134997  1
  Hf  Hf2  1  0.64758096  0.64758096  0.05725612  1
  Hf  Hf3  1  0.35241904  0.35241904  0.94274388  1
  Nb  Nb0  1  0.54382430  0.54382430  0.36852609  1
  Nb  Nb1  1  0.45617570  0.45617570  0.63147391  1
  Zn  Zn0  1  0.00000000  0.00000000  0.00000000  1
  Zn  Zn1  1  0.90638335  0.90638335  0.77474902  1
  Zn  Zn2  1  0.41248227  0.90638335  0.77474902  1
  Zn  Zn3  1  0.90638335  0.41248227  0.77474902  1
  Zn  Zn4  1  0.09361665  0.09361665  0.22525098  1
  Zn  Zn5  1  0.58751773  0.09361665  0.22525098  1
  Zn  Zn6  1  0.09361665  0.58751773  0.22525098  1
loop_
_geom_bond_atom_site_label_1
_geom_bond_atom_site_label_2
_geom_bond_distance
_geom_bond_site_symmetry_2
Hf0 Zn6 2.966743 1_655
Hf0 Zn5 2.966743 1_565
Hf0 Zn4 2.966745 1_665
Hf0 Zn1 2.970270 1_555
Hf0 Zn2 2.970277 1_555
Hf0 Zn3 2.970277 1_555
Hf0 Hf1 2.982679 1_665
Hf0 Hf1 2.982688 1_565
Hf0 Hf1 2.982688 1_655
Hf0 Nb0 3.220776 1_655
Hf0 Nb0 3.220777 1_565
Hf0 Nb0 3.220785 1_555
Hf0 Nb1 3.230383 1_655
Hf0 Nb1 3.230383 1_565
Hf0 Nb1 3.230383 1_555
Hf1 Zn3 2.966743 1_455
Hf1 Zn2 2.966743 1_545
Hf1 Zn1 2.966745 1_445
Hf1 Zn4 2.970270 1_555
Hf1 Zn5 2.970277 1_555
Hf1 Zn6 2.970277 1_555
Hf1 Nb1 3.220776 1_455
Hf1 Nb1 3.220777 1_545
Hf1 Nb1 3.220785 1_555
Hf1 Nb0 3.230383 1_455
Hf1 Nb0 3.230383 1_545
Hf1 Nb0 3.230383 1_555
Hf2 Nb0 2.907805 1_555
Hf2 Zn1 3.022401 1_554
Hf2 Zn3 3.022403 1_554
Hf2 Zn2 3.022403 1_554
Hf2 Zn6 3.022421 1_555
Hf2 Zn5 3.022421 1_555
Hf2 Zn4 3.022427 1_565
Hf2 Zn4 3.022428 1_655
Hf2 Zn6 3.022434 1_655
Hf2 Zn5 3.022434 1_565
Hf2 Zn0 3.030157 1_565
Hf2 Zn0 3.030158 1_655
Hf2 Zn0 3.030162 1_665
Hf3 Nb1 2.907805 1_555
Hf3 Zn4 3.022401 1_556
Hf3 Zn6 3.022403 1_556
Hf3 Zn5 3.022403 1_556
Hf3 Zn3 3.022421 1_555
Hf3 Zn2 3.022421 1_555
Hf3 Zn1 3.022427 1_545
Hf3 Zn1 3.022428 1_455
Hf3 Zn3 3.022434 1_455
Hf3 Zn2 3.022434 1_545
Hf3 Zn0 3.030157 1_656
Hf3 Zn0 3.030158 1_566
Hf3 Zn0 3.030162 1_556
Nb0 Nb1 2.456392 1_555
Nb0 Zn6 2.909216 1_555
Nb0 Zn5 2.909217 1_555
Nb0 Zn4 2.909223 1_655
Nb0 Zn4 2.909224 1_565
Nb0 Zn6 2.909230 1_655
Nb0 Zn5 2.909231 1_565
Nb1 Zn3 2.909216 1_555
Nb1 Zn2 2.909217 1_555
Nb1 Zn1 2.909223 1_455
Nb1 Zn1 2.909224 1_545
Nb1 Zn3 2.909230 1_455
Nb1 Zn2 2.909231 1_545
Zn0 Zn5 2.589659 1_455
Zn0 Zn2 2.589659 1_544
Zn0 Zn3 2.589659 1_454
Zn0 Zn6 2.589659 1_545
Zn0 Zn4 2.589664 1_555
Zn0 Zn1 2.589664 1_444
Zn1 Zn2 2.551481 1_555
Zn1 Zn3 2.551482 1_555
Zn1 Zn2 2.614495 1_655
Zn1 Zn3 2.614496 1_565
Zn2 Zn3 2.551482 1_555
Zn2 Zn3 2.614495 1_465
Zn4 Zn5 2.551481 1_555
Zn4 Zn6 2.551482 1_555
Zn4 Zn5 2.614495 1_455
Zn4 Zn6 2.614496 1_545
Zn5 Zn6 2.551482 1_555
Zn5 Zn6 2.614495 1_645
