# generated using pymatgen
data_MnHg2(P3Pd10)2
_symmetry_space_group_name_H-M   'P 1'
_cell_length_a   8.54282880
_cell_length_b   8.54282862
_cell_length_c   8.54282857
_cell_angle_alpha   60.00000019
_cell_angle_beta   60.00000088
_cell_angle_gamma   59.99999552
_symmetry_Int_Tables_number   1
_chemical_formula_structural   MnHg2(P3Pd10)2
_chemical_formula_sum   'Mn1 Hg2 P6 Pd20'
_cell_volume   440.84922285
_cell_formula_units_Z   1
loop_
 _symmetry_equiv_pos_site_id
 _symmetry_equiv_pos_as_xyz
  1  'x, y, z'
loop_
 _atom_site_type_symbol
 _atom_site_label
 _atom_site_symmetry_multiplicity
 _atom_site_fract_x
 _atom_site_fract_y
 _atom_site_fract_z
 _atom_site_occupancy
  Mn  Mn0  1  0.00000000  0.00000000  0.00000000  1
  Hg  Hg0  1  0.25000000  0.25000000  0.25000000  1
  Hg  Hg1  1  0.75000000  0.75000000  0.75000000  1
  P  P0  1  0.73452708  0.73452708  0.26547292  1
  P  P1  1  0.26547292  0.26547292  0.73452708  1
  P  P2  1  0.26547292  0.73452708  0.73452708  1
  P  P3  1  0.73452708  0.26547292  0.73452708  1
  P  P4  1  0.26547292  0.73452708  0.26547292  1
  P  P5  1  0.73452708  0.26547292  0.26547292  1
  Pd  Pd0  1  0.61622427  0.61622427  0.61622427  1
  Pd  Pd1  1  0.38377573  0.84867080  0.38377573  1
  Pd  Pd2  1  0.65890708  0.34109292  0.00000000  1
  Pd  Pd3  1  0.00000000  0.34109292  0.65890708  1
  Pd  Pd4  1  0.65890708  0.00000000  0.00000000  1
  Pd  Pd5  1  0.61622427  0.61622427  0.15132920  1
  Pd  Pd6  1  0.00000000  0.00000000  0.65890708  1
  Pd  Pd7  1  0.00000000  0.34109292  0.00000000  1
  Pd  Pd8  1  0.65890708  0.00000000  0.34109292  1
  Pd  Pd9  1  0.34109292  0.00000000  0.00000000  1
  Pd  Pd10  1  1.00000000  0.65890708  0.00000000  1
  Pd  Pd11  1  0.34109292  0.00000000  0.65890708  1
  Pd  Pd12  1  1.00000000  0.65890708  0.34109292  1
  Pd  Pd13  1  0.34109292  0.65890708  0.00000000  1
  Pd  Pd14  1  0.15132920  0.61622427  0.61622427  1
  Pd  Pd15  1  0.38377573  0.38377573  0.38377573  1
  Pd  Pd16  1  0.84867080  0.38377573  0.38377573  1
  Pd  Pd17  1  0.38377573  0.38377573  0.84867080  1
  Pd  Pd18  1  0.61622427  0.15132920  0.61622427  1
  Pd  Pd19  1  0.00000000  0.00000000  0.34109292  1
loop_
_geom_bond_atom_site_label_1
_geom_bond_atom_site_label_2
_geom_bond_distance
_geom_bond_site_symmetry_2
Mn0 Pd13 2.913898 1_545
Mn0 Pd2 2.913898 1_455
Mn0 Pd19 2.913898 1_555
Mn0 Pd6 2.913898 1_554
Mn0 Pd12 2.913898 1_445
Mn0 Pd3 2.913898 1_554
Mn0 Pd7 2.913898 1_555
Mn0 Pd10 2.913898 1_445
Mn0 Pd9 2.913898 1_555
Mn0 Pd8 2.913898 1_455
Mn0 Pd11 2.913898 1_554
Mn0 Pd4 2.913898 1_455
Hg0 Pd15 2.799334 1_555
Hg0 Pd1 2.799347 1_545
Hg0 Pd16 2.799348 1_455
Hg0 Pd17 2.799348 1_554
Hg0 Pd12 3.311395 1_455
Hg0 Pd10 3.311395 1_455
Hg0 Pd8 3.311395 1_555
Hg0 Pd4 3.311395 1_555
Hg0 Pd11 3.311395 1_555
Hg0 Pd9 3.311395 1_555
Hg0 Pd7 3.311395 1_555
Hg0 Pd3 3.311395 1_555
Hg0 Pd13 3.311395 1_555
Hg0 Pd6 3.311396 1_555
Hg0 Pd19 3.311396 1_555
Hg0 Pd2 3.311396 1_555
Hg1 Pd0 2.799334 1_555
Hg1 Pd18 2.799347 1_565
Hg1 Pd14 2.799348 1_655
Hg1 Pd5 2.799348 1_556
Hg1 Pd3 3.311395 1_655
Hg1 Pd7 3.311395 1_656
Hg1 Pd9 3.311395 1_566
Hg1 Pd11 3.311395 1_565
Hg1 Pd4 3.311395 1_566
Hg1 Pd8 3.311395 1_565
Hg1 Pd10 3.311395 1_556
Hg1 Pd12 3.311395 1_555
Hg1 Pd2 3.311395 1_556
Hg1 Pd6 3.311396 1_665
Hg1 Pd19 3.311396 1_665
Hg1 Pd13 3.311396 1_556
P0 Pd4 2.358103 1_565
P0 Pd8 2.358103 1_565
P0 Pd12 2.358103 1_555
P0 Pd10 2.358103 1_555
P0 Pd5 2.446629 1_555
P0 Pd0 2.446643 1_555
P0 Pd16 2.446643 1_555
P0 Pd1 2.446643 1_555
P1 Pd11 2.358103 1_555
P1 Pd9 2.358103 1_556
P1 Pd3 2.358103 1_555
P1 Pd7 2.358103 1_556
P1 Pd17 2.446629 1_555
P1 Pd15 2.446643 1_555
P1 Pd14 2.446643 1_555
P1 Pd18 2.446643 1_555
P2 Pd6 2.358103 1_565
P2 Pd13 2.358103 1_556
P2 Pd11 2.358103 1_565
P2 Pd10 2.358103 1_456
P2 Pd14 2.446629 1_555
P2 Pd0 2.446643 1_555
P2 Pd17 2.446643 1_555
P2 Pd1 2.446643 1_555
P3 Pd6 2.358103 1_655
P3 Pd2 2.358103 1_556
P3 Pd4 2.358103 1_556
P3 Pd3 2.358103 1_655
P3 Pd18 2.446629 1_555
P3 Pd0 2.446643 1_555
P3 Pd17 2.446643 1_555
P3 Pd16 2.446643 1_555
P4 Pd19 2.358103 1_565
P4 Pd13 2.358103 1_555
P4 Pd9 2.358103 1_565
P4 Pd12 2.358103 1_455
P4 Pd1 2.446629 1_555
P4 Pd15 2.446643 1_555
P4 Pd5 2.446643 1_555
P4 Pd14 2.446643 1_555
P5 Pd19 2.358103 1_655
P5 Pd2 2.358103 1_555
P5 Pd8 2.358103 1_555
P5 Pd7 2.358103 1_655
P5 Pd16 2.446629 1_555
P5 Pd15 2.446643 1_555
P5 Pd5 2.446643 1_555
P5 Pd18 2.446643 1_555
Pd0 Pd11 3.006437 1_565
Pd0 Pd3 3.006437 1_655
Pd0 Pd2 3.006437 1_556
Pd0 Pd13 3.006437 1_556
Pd0 Pd8 3.006437 1_565
Pd0 Pd12 3.006438 1_555
Pd1 Pd19 3.006434 1_565
Pd1 Pd9 3.006434 1_565
Pd1 Pd6 3.006442 1_565
Pd1 Pd4 3.006442 1_565
Pd1 Pd11 3.006450 1_565
Pd1 Pd8 3.006451 1_565
Pd2 Pd8 2.913898 1_555
Pd2 Pd4 2.913898 1_555
Pd2 Pd3 2.913898 1_654
Pd2 Pd7 2.913898 1_655
Pd2 Pd5 3.006450 1_555
Pd3 Pd7 2.913898 1_556
Pd3 Pd6 2.913898 1_555
Pd4 Pd9 2.715032 1_555
Pd4 Pd8 2.913898 1_555
Pd4 Pd6 2.913898 1_654
Pd4 Pd5 3.006434 1_545
Pd5 Pd9 3.006442 1_565
Pd5 Pd7 3.006442 1_655
Pd7 Pd9 2.913898 1_555
Pd10 Pd7 2.715032 1_655
Pd10 Pd4 2.913898 1_565
Pd10 Pd12 2.913898 1_555
Pd10 Pd6 2.913898 1_664
Pd10 Pd13 2.913898 1_655
Pd10 Pd14 3.006434 1_654
Pd10 Pd5 3.006435 1_555
Pd10 Pd17 3.006442 1_654
Pd10 Pd16 3.006442 1_555
Pd11 Pd8 2.715032 1_555
Pd11 Pd3 2.913898 1_555
Pd11 Pd9 2.913898 1_556
Pd11 Pd13 2.913898 1_546
Pd11 Pd6 2.913898 1_555
Pd11 Pd15 3.006437 1_555
Pd11 Pd18 3.006451 1_555
Pd12 Pd3 2.715032 1_655
Pd12 Pd8 2.913898 1_565
Pd12 Pd19 2.913898 1_665
Pd12 Pd13 2.913898 1_655
Pd12 Pd15 3.006437 1_655
Pd12 Pd14 3.006450 1_655
Pd12 Pd16 3.006450 1_555
Pd13 Pd2 2.715032 1_555
Pd13 Pd9 2.913898 1_565
Pd13 Pd15 3.006437 1_555
Pd13 Pd17 3.006450 1_554
Pd13 Pd5 3.006450 1_555
Pd14 Pd6 3.006434 1_565
Pd14 Pd19 3.006442 1_565
Pd14 Pd7 3.006442 1_556
Pd14 Pd3 3.006450 1_555
Pd15 Pd8 3.006437 1_555
Pd15 Pd2 3.006437 1_555
Pd15 Pd3 3.006438 1_555
Pd16 Pd19 3.006434 1_655
Pd16 Pd7 3.006434 1_655
Pd16 Pd6 3.006442 1_655
Pd16 Pd3 3.006450 1_655
Pd17 Pd9 3.006434 1_556
Pd17 Pd7 3.006435 1_556
Pd17 Pd4 3.006442 1_556
Pd17 Pd2 3.006450 1_556
Pd18 Pd6 3.006434 1_655
Pd18 Pd4 3.006434 1_556
Pd18 Pd19 3.006442 1_655
Pd18 Pd9 3.006442 1_556
Pd18 Pd8 3.006450 1_555
Pd19 Pd6 2.715032 1_555
Pd19 Pd7 2.913898 1_555
Pd19 Pd9 2.913898 1_555
Pd19 Pd8 2.913898 1_455
