# generated using pymatgen
data_YHf3Ge6Ir7
_symmetry_space_group_name_H-M   'P 1'
_cell_length_a   7.11116663
_cell_length_b   7.07252938
_cell_length_c   7.11116774
_cell_angle_alpha   109.36120059
_cell_angle_beta   109.58102472
_cell_angle_gamma   109.36118630
_symmetry_Int_Tables_number   1
_chemical_formula_structural   YHf3Ge6Ir7
_chemical_formula_sum   'Y1 Hf3 Ge6 Ir7'
_cell_volume   275.69098192
_cell_formula_units_Z   1
loop_
 _symmetry_equiv_pos_site_id
 _symmetry_equiv_pos_as_xyz
  1  'x, y, z'
loop_
 _atom_site_type_symbol
 _atom_site_label
 _atom_site_symmetry_multiplicity
 _atom_site_fract_x
 _atom_site_fract_y
 _atom_site_fract_z
 _atom_site_occupancy
  Y  Y0  1  0.00000000  0.50000000  0.00000000  1
  Hf  Hf0  1  0.50000000  0.50000000  0.50000000  1
  Hf  Hf1  1  0.00000000  0.00000000  0.50000000  1
  Hf  Hf2  1  0.50000000  0.00000000  0.00000000  1
  Ge  Ge0  1  0.68387302  0.99839479  0.68387302  1
  Ge  Ge1  1  0.31612698  0.00160521  0.31612698  1
  Ge  Ge2  1  1.00000000  0.31452177  0.31612698  1
  Ge  Ge3  1  0.00000000  0.68547823  0.68387302  1
  Ge  Ge4  1  0.68387302  0.68547823  1.00000000  1
  Ge  Ge5  1  0.31612698  0.31452177  0.00000000  1
  Ir  Ir0  1  0.25394997  0.50000000  0.74605003  1
  Ir  Ir1  1  0.25394997  0.75394997  0.50790094  1
  Ir  Ir2  1  0.49209906  0.24605003  0.74605003  1
  Ir  Ir3  1  0.50790094  0.75394997  0.25394997  1
  Ir  Ir4  1  0.74605003  0.50000000  0.25394997  1
  Ir  Ir5  1  0.00000000  0.00000000  0.00000000  1
  Ir  Ir6  1  0.74605003  0.24605003  0.49209906  1
loop_
_geom_bond_atom_site_label_1
_geom_bond_atom_site_label_2
_geom_bond_distance
_geom_bond_site_symmetry_2
Hf0 Ir0 2.859188 1_555
Hf0 Ir4 2.859188 1_555
Hf0 Ir6 2.893637 1_555
Hf0 Ir1 2.893637 1_555
Hf0 Ir2 2.893638 1_555
Hf0 Ir3 2.893638 1_555
Hf1 Ir2 2.859182 1_555
Hf1 Ir3 2.859182 1_445
Hf1 Ir1 2.893637 1_545
Hf1 Ir6 2.893637 1_455
Hf1 Ir0 2.893637 1_555
Hf1 Ir4 2.893637 1_445
Hf2 Ir6 2.859182 1_555
Hf2 Ir1 2.859182 1_544
Hf2 Ir4 2.893637 1_555
Hf2 Ir0 2.893637 1_544
Hf2 Ir2 2.893638 1_554
Hf2 Ir3 2.893638 1_545
Ge0 Ir1 2.529493 1_555
Ge0 Ir3 2.529493 1_555
Ge0 Ir2 2.568589 1_565
Ge0 Ir6 2.568589 1_565
Ge0 Ir5 2.585774 1_666
Ge0 Hf0 2.930267 1_555
Ge0 Hf1 2.954085 1_665
Ge0 Hf2 2.954085 1_566
Ge0 Y0 2.954617 1_666
Ge1 Ir6 2.529493 1_555
Ge1 Ir2 2.529493 1_555
Ge1 Ir3 2.568589 1_545
Ge1 Ir1 2.568589 1_545
Ge1 Ir5 2.585774 1_555
Ge1 Hf0 2.930267 1_555
Ge1 Hf1 2.954085 1_555
Ge1 Hf2 2.954085 1_555
Ge1 Y0 2.954617 1_545
Ge2 Ir6 2.529486 1_555
Ge2 Ir0 2.529492 1_655
Ge2 Ir1 2.568583 1_655
Ge2 Ir4 2.568583 1_555
Ge2 Ir5 2.585773 1_655
Ge2 Hf1 2.930267 1_655
Ge2 Hf0 2.954085 1_655
Ge2 Hf2 2.954085 1_555
Ge2 Y0 2.954618 1_655
Ge3 Ir1 2.529486 1_555
Ge3 Ir4 2.529492 1_455
Ge3 Ir6 2.568583 1_455
Ge3 Ir0 2.568583 1_555
Ge3 Ir5 2.585773 1_566
Ge3 Hf1 2.930267 1_565
Ge3 Hf0 2.954085 1_455
Ge3 Hf2 2.954085 1_566
Ge3 Y0 2.954618 1_556
Ge4 Ir3 2.529486 1_556
Ge4 Ir0 2.529492 1_555
Ge4 Ir2 2.568583 1_555
Ge4 Ir4 2.568584 1_556
Ge4 Ir5 2.585774 1_666
Ge4 Hf2 2.930267 1_566
Ge4 Hf1 2.954085 1_666
Ge4 Hf0 2.954085 1_555
Ge4 Y0 2.954617 1_656
Ge5 Ir2 2.529486 1_554
Ge5 Ir4 2.529492 1_555
Ge5 Ir3 2.568583 1_555
Ge5 Ir0 2.568584 1_554
Ge5 Ir5 2.585774 1_555
Ge5 Hf2 2.930267 1_555
Ge5 Hf1 2.954085 1_554
Ge5 Hf0 2.954085 1_555
Ge5 Y0 2.954617 1_555
Ir0 Y0 2.950988 1_556
Ir1 Y0 2.950993 1_555
Ir2 Y0 2.950993 1_656
Ir3 Y0 2.950993 1_555
Ir4 Y0 2.950988 1_655
Ir6 Y0 2.950993 1_656
