# generated using pymatgen
data_Ta6CrH16
_symmetry_space_group_name_H-M   'P 1'
_cell_length_a   6.27084320
_cell_length_b   6.27084326
_cell_length_c   6.27084238
_cell_angle_alpha   59.99999934
_cell_angle_beta   59.99999907
_cell_angle_gamma   60.00000269
_symmetry_Int_Tables_number   1
_chemical_formula_structural   Ta6CrH16
_chemical_formula_sum   'Ta6 Cr1 H16'
_cell_volume   174.36639066
_cell_formula_units_Z   1
loop_
 _symmetry_equiv_pos_site_id
 _symmetry_equiv_pos_as_xyz
  1  'x, y, z'
loop_
 _atom_site_type_symbol
 _atom_site_label
 _atom_site_symmetry_multiplicity
 _atom_site_fract_x
 _atom_site_fract_y
 _atom_site_fract_z
 _atom_site_occupancy
  Ta  Ta0  1  0.00000000  0.00000000  0.50000000  1
  Ta  Ta1  1  0.50000000  0.00000000  0.50000000  1
  Ta  Ta2  1  0.00000000  0.50000000  0.50000000  1
  Ta  Ta3  1  0.50000000  0.50000000  0.00000000  1
  Ta  Ta4  1  0.00000000  0.50000000  0.00000000  1
  Ta  Ta5  1  0.50000000  0.00000000  0.00000000  1
  Cr  Cr0  1  0.00000000  0.00000000  0.00000000  1
  H  H0  1  0.87881949  0.87881949  0.36354054  1
  H  H1  1  0.87881949  0.36354054  0.87881949  1
  H  H2  1  0.36354054  0.87881949  0.87881949  1
  H  H3  1  0.87881949  0.87881949  0.87881949  1
  H  H4  1  0.12118051  0.12118051  0.63645946  1
  H  H5  1  0.12118051  0.63645946  0.12118051  1
  H  H6  1  0.63645946  0.12118051  0.12118051  1
  H  H7  1  0.12118051  0.12118051  0.12118051  1
  H  H8  1  0.61970852  0.61970852  0.14087545  1
  H  H9  1  0.61970852  0.14087545  0.61970852  1
  H  H10  1  0.14087545  0.61970852  0.61970852  1
  H  H11  1  0.61970852  0.61970852  0.61970852  1
  H  H12  1  0.38029148  0.38029148  0.85912455  1
  H  H13  1  0.38029148  0.85912455  0.38029148  1
  H  H14  1  0.85912455  0.38029148  0.38029148  1
  H  H15  1  0.38029148  0.38029148  0.38029148  1
loop_
_geom_bond_atom_site_label_1
_geom_bond_atom_site_label_2
_geom_bond_distance
_geom_bond_site_symmetry_2
Cr0 H0 1.861372 1_445
Cr0 H4 1.861372 1_554
Cr0 H2 1.861372 1_544
Cr0 H6 1.861372 1_455
Cr0 H1 1.861372 1_454
Cr0 H5 1.861372 1_545
Cr0 H7 1.861377 1_555
Cr0 H3 1.861377 1_444
H0 Ta1 1.940391 1_565
H0 Ta2 1.940391 1_655
H0 Ta0 1.940396 1_665
H1 Ta2 1.940390 1_655
H1 Ta3 1.940391 1_556
H1 Ta4 1.940396 1_656
H2 Ta1 1.940390 1_565
H2 Ta3 1.940391 1_556
H2 Ta5 1.940396 1_566
H3 Ta0 1.940390 1_665
H3 Ta5 1.940391 1_566
H3 Ta4 1.940391 1_656
H4 Ta1 1.940391 1_555
H4 Ta2 1.940391 1_555
H4 Ta0 1.940396 1_555
H5 Ta2 1.940390 1_555
H5 Ta3 1.940391 1_555
H5 Ta4 1.940396 1_555
H6 Ta1 1.940390 1_555
H6 Ta3 1.940391 1_555
H6 Ta5 1.940396 1_555
H7 Ta0 1.940390 1_555
H7 Ta5 1.940391 1_555
H7 Ta4 1.940391 1_555
H8 Ta4 1.948646 1_655
H8 Ta5 1.948646 1_565
H8 Ta3 1.948651 1_555
H9 Ta5 1.948646 1_556
H9 Ta0 1.948646 1_655
H9 Ta1 1.948651 1_555
H10 Ta4 1.948646 1_556
H10 Ta0 1.948646 1_565
H10 Ta2 1.948651 1_555
H11 Ta3 1.948646 1_556
H11 Ta2 1.948646 1_655
H11 Ta1 1.948646 1_565
H12 Ta4 1.948646 1_556
H12 Ta5 1.948646 1_556
H12 Ta3 1.948651 1_556
H13 Ta5 1.948646 1_565
H13 Ta0 1.948646 1_565
H13 Ta1 1.948651 1_565
H14 Ta4 1.948646 1_655
H14 Ta0 1.948646 1_655
H14 Ta2 1.948651 1_655
H15 Ta3 1.948646 1_555
H15 Ta2 1.948646 1_555
H15 Ta1 1.948646 1_555
