# generated using pymatgen
data_Rb2LiHg3F12
_symmetry_space_group_name_H-M   'P 1'
_cell_length_a   7.09649418
_cell_length_b   7.09649523
_cell_length_c   7.09650335
_cell_angle_alpha   65.34603421
_cell_angle_beta   114.65388454
_cell_angle_gamma   114.65374482
_symmetry_Int_Tables_number   1
_chemical_formula_structural   Rb2LiHg3F12
_chemical_formula_sum   'Rb2 Li1 Hg3 F12'
_cell_volume   282.11851085
_cell_formula_units_Z   1
loop_
 _symmetry_equiv_pos_site_id
 _symmetry_equiv_pos_as_xyz
  1  'x, y, z'
loop_
 _atom_site_type_symbol
 _atom_site_label
 _atom_site_symmetry_multiplicity
 _atom_site_fract_x
 _atom_site_fract_y
 _atom_site_fract_z
 _atom_site_occupancy
  Rb  Rb0  1  0.87334878  0.12665322  0.12664922  1
  Rb  Rb1  1  0.12665122  0.87334878  0.87334878  1
  Li  Li0  1  0.50000100  0.50000100  0.49999900  1
  Hg  Hg0  1  0.49999900  0.50000100  0.00000000  1
  Hg  Hg1  1  0.00000000  0.50000100  0.49999900  1
  Hg  Hg2  1  0.50000000  0.00000000  0.50000000  1
  F  F0  1  0.47923363  0.17617858  0.08876903  1
  F  F1  1  0.34955445  0.38414877  0.24182571  1
  F  F2  1  0.91123197  0.52077037  0.17617658  1
  F  F3  1  0.38414677  0.75817329  0.34955445  1
  F  F4  1  0.17617558  0.91123297  0.47923163  1
  F  F5  1  0.24182671  0.34955445  0.61585423  1
  F  F6  1  0.75817329  0.65044455  0.38414677  1
  F  F7  1  0.82382642  0.08876903  0.52076737  1
  F  F8  1  0.61585223  0.24182671  0.65044555  1
  F  F9  1  0.08876703  0.47922963  0.82382342  1
  F  F10  1  0.65044455  0.61585023  0.75817429  1
  F  F11  1  0.52076737  0.82382042  0.91123297  1
loop_
_geom_bond_atom_site_label_1
_geom_bond_atom_site_label_2
_geom_bond_distance
_geom_bond_site_symmetry_2
F0 Hg0 2.070408 1_555
F0 Rb0 2.851679 1_555
F0 Rb1 2.877435 1_544
F1 Li0 2.016173 1_555
F1 Hg0 2.092844 1_555
F1 Rb0 3.036002 1_455
F2 Hg1 2.070404 1_655
F2 Rb0 2.851695 1_555
F2 Rb1 2.877409 1_654
F3 Li0 2.016168 1_555
F3 Hg2 2.092855 1_565
F3 Rb1 3.035997 1_554
F4 Hg2 2.070420 1_565
F4 Rb1 2.851684 1_555
F4 Rb0 2.877413 1_465
F5 Li0 2.016189 1_555
F5 Hg1 2.092852 1_555
F5 Rb1 3.035995 1_545
F6 Li0 2.016165 1_555
F6 Hg1 2.092840 1_655
F6 Rb0 3.036016 1_565
F7 Hg2 2.070433 1_555
F7 Rb0 2.851684 1_555
F7 Rb1 2.877402 1_645
F8 Li0 2.016168 1_555
F8 Hg2 2.092857 1_555
F8 Rb0 3.035987 1_556
F9 Hg1 2.070415 1_555
F9 Rb1 2.851700 1_555
F9 Rb0 2.877393 1_456
F10 Li0 2.016173 1_555
F10 Hg0 2.092852 1_556
F10 Rb1 3.036011 1_655
F11 Hg0 2.070384 1_556
F11 Rb1 2.851686 1_555
F11 Rb0 2.877432 1_566
