# generated using pymatgen
data_Li2Mn(SnPd2)3
_symmetry_space_group_name_H-M   'P 1'
_cell_length_a   4.49220216
_cell_length_b   4.49220216
_cell_length_c   10.93645250
_cell_angle_alpha   90.00000000
_cell_angle_beta   90.00000000
_cell_angle_gamma   120.00000727
_symmetry_Int_Tables_number   1
_chemical_formula_structural   Li2Mn(SnPd2)3
_chemical_formula_sum   'Li2 Mn1 Sn3 Pd6'
_cell_volume   191.12859014
_cell_formula_units_Z   1
loop_
 _symmetry_equiv_pos_site_id
 _symmetry_equiv_pos_as_xyz
  1  'x, y, z'
loop_
 _atom_site_type_symbol
 _atom_site_label
 _atom_site_symmetry_multiplicity
 _atom_site_fract_x
 _atom_site_fract_y
 _atom_site_fract_z
 _atom_site_occupancy
  Li  Li0  1  0.33333300  0.66666700  0.66751959  1
  Li  Li1  1  0.66666700  0.33333300  0.33248041  1
  Mn  Mn0  1  0.00000000  0.00000000  0.00000000  1
  Sn  Sn0  1  0.00000000  0.00000000  0.50000000  1
  Sn  Sn1  1  0.33333300  0.66666700  0.17288531  1
  Sn  Sn2  1  0.66666700  0.33333300  0.82711469  1
  Pd  Pd0  1  0.33333300  0.66666700  0.42141870  1
  Pd  Pd1  1  0.66666700  0.33333300  0.07996590  1
  Pd  Pd2  1  0.00000000  0.00000000  0.75135373  1
  Pd  Pd3  1  0.00000000  0.00000000  0.24864627  1
  Pd  Pd4  1  0.33333300  0.66666700  0.92003410  1
  Pd  Pd5  1  0.66666700  0.33333300  0.57858130  1
loop_
_geom_bond_atom_site_label_1
_geom_bond_atom_site_label_2
_geom_bond_distance
_geom_bond_site_symmetry_2
Li0 Pd0 2.691471 1_555
Li0 Pd2 2.750859 1_565
Li0 Pd2 2.750862 1_555
Li0 Pd2 2.750862 1_665
Li0 Pd4 2.761613 1_555
Li0 Pd5 2.769964 1_565
Li0 Pd5 2.769964 1_455
Li0 Pd5 2.769971 1_555
Li1 Pd5 2.691471 1_555
Li1 Pd3 2.750859 1_655
Li1 Pd3 2.750862 1_665
Li1 Pd3 2.750862 1_555
Li1 Pd1 2.761613 1_555
Li1 Pd0 2.769964 1_545
Li1 Pd0 2.769964 1_655
Li1 Pd0 2.769971 1_555
Mn0 Pd3 2.719308 1_555
Mn0 Pd2 2.719308 1_554
Mn0 Pd1 2.737049 1_455
Mn0 Pd4 2.737049 1_544
Mn0 Pd4 2.737053 1_554
Mn0 Pd1 2.737053 1_445
Mn0 Pd1 2.737053 1_555
Mn0 Pd4 2.737053 1_444
Pd0 Sn1 2.718074 1_555
Pd0 Sn0 2.732249 1_565
Pd0 Sn0 2.732252 1_555
Pd0 Sn0 2.732252 1_665
Pd1 Sn2 2.765295 1_554
Pd1 Sn1 2.785551 1_545
Pd1 Sn1 2.785551 1_655
Pd1 Sn1 2.785558 1_555
Pd2 Sn2 2.722704 1_455
Pd2 Sn2 2.722708 1_445
Pd2 Sn2 2.722708 1_555
Pd2 Sn0 2.748918 1_555
Pd3 Sn1 2.722704 1_545
Pd3 Sn1 2.722708 1_555
Pd3 Sn1 2.722708 1_445
Pd3 Sn0 2.748918 1_555
Pd4 Sn1 2.765295 1_556
Pd4 Sn2 2.785551 1_565
Pd4 Sn2 2.785551 1_455
Pd4 Sn2 2.785558 1_555
Pd5 Sn2 2.718074 1_555
Pd5 Sn0 2.732249 1_655
Pd5 Sn0 2.732252 1_665
Pd5 Sn0 2.732252 1_555
