# generated using pymatgen
data_Ti8BeBi4P
_symmetry_space_group_name_H-M   'P 1'
_cell_length_a   7.81937932
_cell_length_b   7.81877855
_cell_length_c   7.81937942
_cell_angle_alpha   95.52518413
_cell_angle_beta   95.52868412
_cell_angle_gamma   143.84675912
_symmetry_Int_Tables_number   1
_chemical_formula_structural   Ti8BeBi4P
_chemical_formula_sum   'Ti8 Be1 Bi4 P1'
_cell_volume   268.10007205
_cell_formula_units_Z   1
loop_
 _symmetry_equiv_pos_site_id
 _symmetry_equiv_pos_as_xyz
  1  'x, y, z'
loop_
 _atom_site_type_symbol
 _atom_site_label
 _atom_site_symmetry_multiplicity
 _atom_site_fract_x
 _atom_site_fract_y
 _atom_site_fract_z
 _atom_site_occupancy
  Ti  Ti0  1  0.07909365  0.19484836  0.27267251  1
  Ti  Ti1  1  0.92223104  0.80643459  0.72738115  1
  Ti  Ti2  1  0.80643739  0.07905820  0.88419753  1
  Ti  Ti3  1  0.42094556  0.69356541  0.11579745  1
  Ti  Ti4  1  0.19481204  0.92213210  0.11566554  1
  Ti  Ti5  1  0.57782516  0.30515164  0.88424430  1
  Ti  Ti6  1  0.69353244  0.57786790  0.27267794  1
  Ti  Ti7  1  0.30514033  0.42094180  0.72738018  1
  Be  Be0  1  0.25003249  0.25000000  0.00003249  1
  Bi  Bi0  1  0.14179905  0.64178352  0.78357049  1
  Bi  Bi1  1  0.85817898  0.35819959  0.21638009  1
  Bi  Bi2  1  0.35817850  0.14180041  0.49997840  1
  Bi  Bi3  1  0.64178796  0.85821648  0.50001553  1
  P  P0  1  0.75000641  0.75000000  0.00000641  1
loop_
_geom_bond_atom_site_label_1
_geom_bond_atom_site_label_2
_geom_bond_distance
_geom_bond_site_symmetry_2
Be0 P0 2.426171 1_555
Be0 P0 2.426171 1_445
Be0 Ti6 2.511899 1_555
Be0 Ti4 2.511912 1_545
Be0 Ti1 2.512148 1_444
Be0 Ti3 2.512154 1_555
Be0 Ti0 2.512518 1_555
Be0 Ti5 2.512529 1_554
Be0 Ti7 2.512576 1_554
Be0 Ti2 2.512585 1_454
Bi0 Ti7 2.886071 1_555
Bi0 Ti1 2.886339 1_455
Bi0 Ti4 2.991489 1_556
Bi0 Ti3 2.992434 1_556
Bi0 Ti5 3.047185 1_565
Bi0 Ti2 3.047335 1_455
Bi0 Ti2 3.052495 1_565
Bi0 Ti5 3.052629 1_455
Bi1 Ti0 2.886795 1_655
Bi1 Ti6 2.887157 1_555
Bi1 Ti5 2.991628 1_554
Bi1 Ti2 2.992296 1_554
Bi1 Ti4 3.047437 1_545
Bi1 Ti3 3.047755 1_655
Bi1 Ti4 3.052183 1_655
Bi1 Ti3 3.052210 1_545
Bi2 Ti5 2.886799 1_555
Bi2 Ti4 2.887147 1_545
Bi2 Ti0 2.991609 1_555
Bi2 Ti7 2.992286 1_555
Bi2 Ti6 3.047443 1_555
Bi2 Ti1 3.047764 1_445
Bi2 Ti6 3.052182 1_445
Bi2 Ti1 3.052215 1_555
Bi3 Ti2 2.886066 1_565
Bi3 Ti3 2.886334 1_555
Bi3 Ti6 2.991485 1_555
Bi3 Ti1 2.992426 1_555
Bi3 Ti0 3.047187 1_555
Bi3 Ti7 3.047338 1_665
Bi3 Ti7 3.052500 1_555
Bi3 Ti0 3.052635 1_665
P0 Ti0 2.515218 1_665
P0 Ti5 2.515224 1_554
P0 Ti7 2.515247 1_554
P0 Ti2 2.515255 1_564
P0 Ti6 2.515260 1_555
P0 Ti4 2.515276 1_655
P0 Ti1 2.515428 1_554
P0 Ti3 2.515439 1_555
