# generated using pymatgen
data_CaGaAsRh2
_symmetry_space_group_name_H-M   'P 1'
_cell_length_a   5.98037255
_cell_length_b   5.98037312
_cell_length_c   5.98037312
_cell_angle_alpha   139.38659881
_cell_angle_beta   139.38660812
_cell_angle_gamma   58.78585353
_symmetry_Int_Tables_number   1
_chemical_formula_structural   CaGaAsRh2
_chemical_formula_sum   'Ca1 Ga1 As1 Rh2'
_cell_volume   89.77844334
_cell_formula_units_Z   1
loop_
 _symmetry_equiv_pos_site_id
 _symmetry_equiv_pos_as_xyz
  1  'x, y, z'
loop_
 _atom_site_type_symbol
 _atom_site_label
 _atom_site_symmetry_multiplicity
 _atom_site_fract_x
 _atom_site_fract_y
 _atom_site_fract_z
 _atom_site_occupancy
  Ca  Ca0  1  0.99744273  0.99744273  1.00000000  1
  Ga  Ga0  1  0.62515976  0.62515976  0.00000000  1
  As  As0  1  0.37291406  0.37291406  1.00000000  1
  Rh  Rh0  1  0.75224173  0.25224173  0.50000000  1
  Rh  Rh1  1  0.25224173  0.75224173  0.50000000  1
loop_
_geom_bond_atom_site_label_1
_geom_bond_atom_site_label_2
_geom_bond_distance
_geom_bond_site_symmetry_2
Ca0 Ga0 3.222809 1_667
Ca0 Ga0 3.222809 1_656
Ca0 Ga0 3.222810 1_555
Ca0 Ga0 3.222810 1_566
Ca0 Rh1 3.291944 1_555
Ca0 Rh0 3.291945 1_555
Ca0 Rh1 3.291945 1_656
Ca0 Rh0 3.291945 1_566
Ca0 Rh0 3.370173 1_666
Ca0 Rh1 3.370173 1_666
Ca0 Rh0 3.370173 1_565
Ca0 Rh1 3.370173 1_655
Ga0 Rh1 2.461989 1_655
Ga0 Rh1 2.461990 1_554
Ga0 Rh0 2.461990 1_565
Ga0 Rh0 2.461990 1_554
As0 Rh0 2.426713 1_455
As0 Rh0 2.426713 1_556
As0 Rh1 2.426713 1_545
As0 Rh1 2.426713 1_556
As0 Ga0 2.628675 1_556
As0 Ca0 3.209230 1_556
As0 Ca0 3.209230 1_545
As0 Ca0 3.209231 1_444
As0 Ca0 3.209231 1_455
