# generated using pymatgen
data_K2CoP2Ru
_symmetry_space_group_name_H-M   'P 1'
_cell_length_a   3.84523436
_cell_length_b   3.84523436
_cell_length_c   10.69088767
_cell_angle_alpha   90.00000000
_cell_angle_beta   90.00000000
_cell_angle_gamma   90.00000000
_symmetry_Int_Tables_number   1
_chemical_formula_structural   K2CoP2Ru
_chemical_formula_sum   'K2 Co1 P2 Ru1'
_cell_volume   158.07361849
_cell_formula_units_Z   1
loop_
 _symmetry_equiv_pos_site_id
 _symmetry_equiv_pos_as_xyz
  1  'x, y, z'
loop_
 _atom_site_type_symbol
 _atom_site_label
 _atom_site_symmetry_multiplicity
 _atom_site_fract_x
 _atom_site_fract_y
 _atom_site_fract_z
 _atom_site_occupancy
  K  K0  1  0.00000000  0.50000000  0.28383945  1
  K  K1  1  0.50000000  0.00000000  0.71616055  1
  Co  Co0  1  0.50000000  0.50000000  0.00000000  1
  P  P0  1  0.00000000  0.50000000  0.88860384  1
  P  P1  1  0.50000000  0.00000000  0.11139616  1
  Ru  Ru0  1  0.00000000  0.00000000  0.00000000  1
loop_
_geom_bond_atom_site_label_1
_geom_bond_atom_site_label_2
_geom_bond_distance
_geom_bond_site_symmetry_2
K0 P1 3.285068 1_465
K0 P1 3.285068 1_555
K0 P1 3.285068 1_455
K0 P1 3.285068 1_565
K0 Ru0 3.592300 1_555
K0 Ru0 3.592300 1_565
K1 P0 3.285068 1_545
K1 P0 3.285068 1_555
K1 P0 3.285068 1_655
K1 P0 3.285068 1_645
K1 Ru0 3.592300 1_656
K1 Ru0 3.592300 1_556
Co0 P1 2.261583 1_555
Co0 P1 2.261583 1_565
Co0 P0 2.261583 1_554
Co0 P0 2.261583 1_654
Co0 Ru0 2.718991 1_665
Co0 Ru0 2.718991 1_565
Co0 Ru0 2.718991 1_655
Co0 Ru0 2.718991 1_555
P0 Ru0 2.261583 1_556
P0 Ru0 2.261583 1_566
P1 Ru0 2.261583 1_555
P1 Ru0 2.261583 1_655
