# generated using pymatgen
data_Rb4NaP2Au
_symmetry_space_group_name_H-M   'P 1'
_cell_length_a   6.62838800
_cell_length_b   6.62838795
_cell_length_c   6.11919368
_cell_angle_alpha   92.31849936
_cell_angle_beta   92.31849781
_cell_angle_gamma   102.69997742
_symmetry_Int_Tables_number   1
_chemical_formula_structural   Rb4NaP2Au
_chemical_formula_sum   'Rb4 Na1 P2 Au1'
_cell_volume   261.72172839
_cell_formula_units_Z   1
loop_
 _symmetry_equiv_pos_site_id
 _symmetry_equiv_pos_as_xyz
  1  'x, y, z'
loop_
 _atom_site_type_symbol
 _atom_site_label
 _atom_site_symmetry_multiplicity
 _atom_site_fract_x
 _atom_site_fract_y
 _atom_site_fract_z
 _atom_site_occupancy
  Rb  Rb0  1  0.96661886  0.30727266  0.74112482  1
  Rb  Rb1  1  0.30727266  0.96661886  0.74112482  1
  Rb  Rb2  1  0.03338114  0.69272734  0.25887518  1
  Rb  Rb3  1  0.69272734  0.03338114  0.25887518  1
  Na  Na0  1  0.50000000  0.50000000  0.00000000  1
  P  P0  1  0.75043389  0.75043389  0.72566809  1
  P  P1  1  0.24956611  0.24956611  0.27433191  1
  Au  Au0  1  0.50000000  0.50000000  0.50000000  1
loop_
_geom_bond_atom_site_label_1
_geom_bond_atom_site_label_2
_geom_bond_distance
_geom_bond_site_symmetry_2
Na0 P0 2.751066 1_554
Na0 P1 2.751066 1_555
P0 Rb2 3.533159 1_655
P0 Rb3 3.533159 1_565
P0 Rb0 3.543046 1_555
P0 Rb1 3.543046 1_555
P0 Rb0 3.649747 1_565
P0 Rb1 3.649747 1_655
P0 Rb3 3.772385 1_566
P0 Rb2 3.772385 1_656
P1 Rb0 3.533159 1_455
P1 Rb1 3.533159 1_545
P1 Rb2 3.543046 1_555
P1 Rb3 3.543046 1_555
P1 Rb2 3.649747 1_545
P1 Rb3 3.649747 1_455
P1 Rb1 3.772385 1_544
P1 Rb0 3.772385 1_454
Au0 P0 2.415661 1_555
Au0 P1 2.415661 1_555
Au0 Na0 3.059597 1_555
Au0 Na0 3.059597 1_556
Au0 Rb1 3.859504 1_555
Au0 Rb3 3.859504 1_555
Au0 Rb0 3.859504 1_555
Au0 Rb2 3.859504 1_555
Au0 Rb3 3.859687 1_565
Au0 Rb1 3.859687 1_545
Au0 Rb2 3.859687 1_655
Au0 Rb0 3.859687 1_455
