# generated using pymatgen
data_SrAg(PO3)3
_symmetry_space_group_name_H-M   'P 1'
_cell_length_a   6.79709240
_cell_length_b   7.19101429
_cell_length_c   7.84895378
_cell_angle_alpha   83.74003948
_cell_angle_beta   81.03307417
_cell_angle_gamma   83.72159214
_symmetry_Int_Tables_number   1
_chemical_formula_structural   SrAg(PO3)3
_chemical_formula_sum   'Sr2 Ag2 P6 O18'
_cell_volume   375.02251112
_cell_formula_units_Z   2
loop_
 _symmetry_equiv_pos_site_id
 _symmetry_equiv_pos_as_xyz
  1  'x, y, z'
loop_
 _atom_site_type_symbol
 _atom_site_label
 _atom_site_symmetry_multiplicity
 _atom_site_fract_x
 _atom_site_fract_y
 _atom_site_fract_z
 _atom_site_occupancy
  Sr  Sr0  1  0.00442287  0.73284700  0.64086027  1
  Sr  Sr1  1  0.99557713  0.26715300  0.35913973  1
  Ag  Ag0  1  0.47859970  0.39372486  0.34895961  1
  Ag  Ag1  1  0.52140030  0.60627514  0.65104039  1
  P  P0  1  0.83187620  0.78830645  0.27317100  1
  P  P1  1  0.16812380  0.21169355  0.72682900  1
  P  P2  1  0.80490657  0.33142876  0.94458979  1
  P  P3  1  0.19509343  0.66857124  0.05541021  1
  P  P4  1  0.60718481  0.11529221  0.72876686  1
  P  P5  1  0.39281519  0.88470779  0.27123314  1
  O  O0  1  0.09061847  0.05683701  0.65362309  1
  O  O1  1  0.90938153  0.94316299  0.34637691  1
  O  O2  1  0.37291172  0.15094370  0.79559954  1
  O  O3  1  0.62708828  0.84905630  0.20440046  1
  O  O4  1  0.17601652  0.38925104  0.60682056  1
  O  O5  1  0.82398348  0.61074896  0.39317944  1
  O  O6  1  0.03612442  0.24887286  0.90889308  1
  O  O7  1  0.96387558  0.75112714  0.09110692  1
  O  O8  1  0.76278907  0.33818749  0.13502671  1
  O  O9  1  0.23721093  0.66181251  0.86497329  1
  O  O10  1  0.77548894  0.50557213  0.82715725  1
  O  O11  1  0.22451106  0.49442787  0.17284275  1
  O  O12  1  0.68870083  0.16843594  0.89614242  1
  O  O13  1  0.31129917  0.83156406  0.10385758  1
  O  O14  1  0.66411645  0.25492357  0.57796337  1
  O  O15  1  0.33588355  0.74507643  0.42203663  1
  O  O16  1  0.66110934  0.91260094  0.71245030  1
  O  O17  1  0.33889066  0.08739906  0.28754970  1
loop_
_geom_bond_atom_site_label_1
_geom_bond_atom_site_label_2
_geom_bond_distance
_geom_bond_site_symmetry_2
Ag0 O11 2.381253 1_555
Ag0 O8 2.382596 1_555
Ag0 O14 2.420146 1_555
Ag0 O17 2.611158 1_555
Ag0 O4 2.651412 1_555
Ag0 O15 2.694458 1_555
Ag1 O10 2.381253 1_555
Ag1 O9 2.382596 1_555
Ag1 O15 2.420146 1_555
Ag1 O16 2.611158 1_555
Ag1 O5 2.651412 1_555
Ag1 O14 2.694458 1_555
O0 P1 1.486587 1_555
O0 Sr0 2.479734 1_545
O0 Sr1 2.745281 1_455
O1 P0 1.486587 1_555
O1 Sr1 2.479734 1_565
O1 Sr0 2.745281 1_655
O2 P1 1.571481 1_555
O2 P4 1.598814 1_555
O3 P0 1.571481 1_555
O3 P5 1.598814 1_555
O4 P1 1.502446 1_555
O4 Sr0 2.636876 1_555
O4 Sr1 2.721286 1_455
O5 P0 1.502446 1_555
O5 Sr1 2.636876 1_555
O5 Sr0 2.721286 1_655
O6 P1 1.596785 1_555
O6 P2 1.611159 1_455
O7 P0 1.596785 1_555
O7 P3 1.611159 1_655
O8 P2 1.482547 1_554
O8 Sr1 2.520658 1_555
O9 P3 1.482547 1_556
O9 Sr0 2.520658 1_555
O10 P2 1.486169 1_555
O10 Sr0 2.560542 1_655
O11 P3 1.486169 1_555
O11 Sr1 2.560542 1_455
O12 P2 1.592348 1_555
O12 P4 1.600504 1_555
O13 P3 1.592348 1_555
O13 P5 1.600504 1_555
O14 P4 1.497326 1_555
O14 Sr1 2.614896 1_555
O15 P5 1.497326 1_555
O15 Sr0 2.614896 1_555
O16 P4 1.477986 1_565
O16 Sr0 2.553798 1_655
O17 P5 1.477986 1_545
O17 Sr1 2.553798 1_455
