# generated using pymatgen
data_VInRh3Se8
_symmetry_space_group_name_H-M   'P 1'
_cell_length_a   7.44949430
_cell_length_b   7.22820127
_cell_length_c   7.22912340
_cell_angle_alpha   62.73834953
_cell_angle_beta   61.96740884
_cell_angle_gamma   61.98323935
_symmetry_Int_Tables_number   1
_chemical_formula_structural   VInRh3Se8
_chemical_formula_sum   'V1 In1 Rh3 Se8'
_cell_volume   288.92238342
_cell_formula_units_Z   1
loop_
 _symmetry_equiv_pos_site_id
 _symmetry_equiv_pos_as_xyz
  1  'x, y, z'
loop_
 _atom_site_type_symbol
 _atom_site_label
 _atom_site_symmetry_multiplicity
 _atom_site_fract_x
 _atom_site_fract_y
 _atom_site_fract_z
 _atom_site_occupancy
  V  V0  1  0.50138214  0.53719906  0.53724734  1
  In  In0  1  0.10591017  0.11717656  0.11719687  1
  Rh  Rh0  1  0.50316307  0.50044575  0.97783867  1
  Rh  Rh1  1  0.99923540  0.49888035  0.49884874  1
  Rh  Rh2  1  0.50317778  0.97793047  0.50052411  1
  Se  Se0  1  0.73448207  0.73738893  0.73742998  1
  Se  Se1  1  0.27320240  0.26832716  0.69896331  1
  Se  Se2  1  0.27333261  0.69885801  0.26807890  1
  Se  Se3  1  0.69008069  0.26741981  0.26727353  1
  Se  Se4  1  0.76002887  0.27189563  0.73000883  1
  Se  Se5  1  0.25309754  0.76285532  0.76277038  1
  Se  Se6  1  0.26789858  0.25655976  0.25671383  1
  Se  Se7  1  0.76002369  0.73005618  0.27208751  1
loop_
_geom_bond_atom_site_label_1
_geom_bond_atom_site_label_2
_geom_bond_distance
_geom_bond_site_symmetry_2
In0 Se1 2.568929 1_554
In0 Se2 2.569512 1_545
In0 Se6 2.589507 1_555
In0 Se3 2.590807 1_455
Rh0 Se4 2.473818 1_555
Rh0 Se0 2.480716 1_555
Rh0 Se5 2.487264 1_555
Rh0 Se3 2.541741 1_556
Rh0 Se2 2.542407 1_556
Rh0 Se6 2.563054 1_556
Rh1 Se7 2.468587 1_555
Rh1 Se4 2.468955 1_555
Rh1 Se0 2.483745 1_555
Rh1 Se6 2.521903 1_655
Rh1 Se2 2.530542 1_655
Rh1 Se1 2.531141 1_655
Rh2 Se7 2.473500 1_555
Rh2 Se0 2.481232 1_555
Rh2 Se5 2.486498 1_555
Rh2 Se3 2.541319 1_565
Rh2 Se1 2.543437 1_565
Rh2 Se6 2.563240 1_565
Se1 V0 2.680932 1_555
Se2 V0 2.682745 1_555
Se3 V0 2.814287 1_555
Se4 V0 2.436430 1_555
Se5 V0 2.346698 1_555
Se7 V0 2.435943 1_555
