# generated using pymatgen
data_Y10Cd3Os
_symmetry_space_group_name_H-M   'P 1'
_cell_length_a   9.66846824
_cell_length_b   9.66846825
_cell_length_c   9.84717548
_cell_angle_alpha   90.00000000
_cell_angle_beta   90.00000000
_cell_angle_gamma   120.00303039
_symmetry_Int_Tables_number   1
_chemical_formula_structural   Y10Cd3Os
_chemical_formula_sum   'Y20 Cd6 Os2'
_cell_volume   797.15797757
_cell_formula_units_Z   2
loop_
 _symmetry_equiv_pos_site_id
 _symmetry_equiv_pos_as_xyz
  1  'x, y, z'
loop_
 _atom_site_type_symbol
 _atom_site_label
 _atom_site_symmetry_multiplicity
 _atom_site_fract_x
 _atom_site_fract_y
 _atom_site_fract_z
 _atom_site_occupancy
  Y  Y0  1  0.00000000  0.00000000  0.50000000  1
  Y  Y1  1  0.00000000  0.00000000  0.00000000  1
  Y  Y2  1  0.20982354  0.79017646  0.43906175  1
  Y  Y3  1  0.20981195  0.41967849  0.43904443  1
  Y  Y4  1  0.58032151  0.79018805  0.43904443  1
  Y  Y5  1  0.79017646  0.20982354  0.56093825  1
  Y  Y6  1  0.79018805  0.58032151  0.56095557  1
  Y  Y7  1  0.41967849  0.20981195  0.56095557  1
  Y  Y8  1  0.79017646  0.20982354  0.93906175  1
  Y  Y9  1  0.79018805  0.58032151  0.93904443  1
  Y  Y10  1  0.41967849  0.20981195  0.93904443  1
  Y  Y11  1  0.20982354  0.79017646  0.06093825  1
  Y  Y12  1  0.20981195  0.41967849  0.06095557  1
  Y  Y13  1  0.58032151  0.79018805  0.06095557  1
  Y  Y14  1  0.54012023  0.45987977  0.25000000  1
  Y  Y15  1  0.54011058  0.08020477  0.25000000  1
  Y  Y16  1  0.91979523  0.45988942  0.25000000  1
  Y  Y17  1  0.45987977  0.54012023  0.75000000  1
  Y  Y18  1  0.45988942  0.91979523  0.75000000  1
  Y  Y19  1  0.08020477  0.54011058  0.75000000  1
  Cd  Cd0  1  0.88615257  0.11384743  0.25000000  1
  Cd  Cd1  1  0.88618286  0.77233019  0.25000000  1
  Cd  Cd2  1  0.22766981  0.11381714  0.25000000  1
  Cd  Cd3  1  0.11384743  0.88615257  0.75000000  1
  Cd  Cd4  1  0.11381714  0.22766981  0.75000000  1
  Cd  Cd5  1  0.77233019  0.88618286  0.75000000  1
  Os  Os0  1  0.33330777  0.66669223  0.25000000  1
  Os  Os1  1  0.66669223  0.33330777  0.75000000  1
loop_
_geom_bond_atom_site_label_1
_geom_bond_atom_site_label_2
_geom_bond_distance
_geom_bond_site_symmetry_2
Cd0 Y0 3.113738 1_655
Cd0 Y1 3.113738 1_655
Cd0 Y15 3.195484 1_555
Cd0 Y16 3.195484 1_555
Cd0 Cd2 3.302095 1_655
Cd0 Cd1 3.302095 1_545
Cd0 Y5 3.458080 1_555
Cd0 Y8 3.458080 1_554
Cd0 Y3 3.570336 1_655
Cd0 Y12 3.570336 1_655
Cd0 Y4 3.570336 1_545
Cd0 Y13 3.570336 1_545
Cd1 Y1 3.113556 1_665
Cd1 Y0 3.113556 1_665
Cd1 Y14 3.195678 1_555
Cd1 Y16 3.195745 1_555
Cd1 Cd2 3.301505 1_665
Cd1 Y6 3.458416 1_555
Cd1 Y9 3.458416 1_554
Cd1 Y2 3.570315 1_655
Cd1 Y11 3.570315 1_655
Cd1 Y4 3.570843 1_555
Cd1 Y13 3.570843 1_555
Cd2 Y1 3.113556 1_555
Cd2 Y0 3.113556 1_555
Cd2 Y14 3.195678 1_555
Cd2 Y15 3.195745 1_555
Cd2 Y7 3.458416 1_555
Cd2 Y10 3.458416 1_554
Cd2 Y2 3.570315 1_545
Cd2 Y11 3.570315 1_545
Cd2 Y3 3.570843 1_555
Cd2 Y12 3.570843 1_555
Cd3 Y1 3.113738 1_566
Cd3 Y0 3.113738 1_565
Cd3 Y18 3.195484 1_555
Cd3 Y19 3.195484 1_555
Cd3 Cd5 3.302095 1_455
Cd3 Cd4 3.302095 1_565
Cd3 Y11 3.458080 1_556
Cd3 Y2 3.458080 1_555
Cd3 Y9 3.570336 1_455
Cd3 Y6 3.570336 1_455
Cd3 Y10 3.570336 1_565
Cd3 Y7 3.570336 1_565
Cd4 Y0 3.113556 1_555
Cd4 Y1 3.113556 1_556
Cd4 Y17 3.195678 1_555
Cd4 Y19 3.195745 1_555
Cd4 Cd5 3.301505 1_445
Cd4 Y12 3.458416 1_556
Cd4 Y3 3.458416 1_555
Cd4 Y8 3.570315 1_455
Cd4 Y5 3.570315 1_455
Cd4 Y10 3.570843 1_555
Cd4 Y7 3.570843 1_555
Cd5 Y0 3.113556 1_665
Cd5 Y1 3.113556 1_666
Cd5 Y17 3.195678 1_555
Cd5 Y18 3.195745 1_555
Cd5 Y13 3.458416 1_556
Cd5 Y4 3.458416 1_555
Cd5 Y8 3.570315 1_565
Cd5 Y5 3.570315 1_565
Cd5 Y9 3.570843 1_555
Cd5 Y6 3.570843 1_555
Os0 Y2 2.782510 1_555
Os0 Y11 2.782510 1_555
Os0 Y4 2.782608 1_555
Os0 Y13 2.782608 1_555
Os0 Y3 2.782608 1_555
Os0 Y12 2.782608 1_555
Os0 Y16 3.462292 1_455
Os0 Y15 3.462292 1_565
Os0 Y14 3.463392 1_555
Os1 Y8 2.782510 1_555
Os1 Y5 2.782510 1_555
Os1 Y10 2.782608 1_555
Os1 Y7 2.782608 1_555
Os1 Y9 2.782608 1_555
Os1 Y6 2.782608 1_555
Os1 Y19 3.462292 1_655
Os1 Y18 3.462292 1_545
Os1 Y17 3.463392 1_555
