# generated using pymatgen
data_Tm2Se3
_symmetry_space_group_name_H-M   'P 1'
_cell_length_a   14.28535540
_cell_length_b   14.28535540
_cell_length_c   14.28535540
_cell_angle_alpha   144.92473336
_cell_angle_beta   144.92473336
_cell_angle_gamma   50.44670294
_symmetry_Int_Tables_number   1
_chemical_formula_structural   Tm2Se3
_chemical_formula_sum   'Tm16 Se24'
_cell_volume   957.86951479
_cell_formula_units_Z   8
loop_
 _symmetry_equiv_pos_site_id
 _symmetry_equiv_pos_as_xyz
  1  'x, y, z'
loop_
 _atom_site_type_symbol
 _atom_site_label
 _atom_site_symmetry_multiplicity
 _atom_site_fract_x
 _atom_site_fract_y
 _atom_site_fract_z
 _atom_site_occupancy
  Tm  Tm0  1  0.84601600  0.95025100  0.37354100  1
  Tm  Tm1  1  0.57671000  0.47247500  0.62645900  1
  Tm  Tm2  1  0.16530100  0.16530100  0.00000000  1
  Tm  Tm3  1  0.87500000  0.51081300  0.13581300  1
  Tm  Tm4  1  0.17329000  0.29974900  0.39576500  1
  Tm  Tm5  1  0.58469900  0.08469900  0.50000000  1
  Tm  Tm6  1  0.37500000  0.73918700  0.86418700  1
  Tm  Tm7  1  0.90398400  0.77752500  0.60423500  1
  Tm  Tm8  1  0.22247500  0.82671000  0.12645900  1
  Tm  Tm9  1  0.48918700  0.62500000  0.36418700  1
  Tm  Tm10  1  0.91530100  0.41530100  0.50000000  1
  Tm  Tm11  1  0.26081300  0.12500000  0.63581300  1
  Tm  Tm12  1  0.70025100  0.09601600  0.87354100  1
  Tm  Tm13  1  0.83469900  0.83469900  0.00000000  1
  Tm  Tm14  1  0.52752500  0.15398400  0.10423500  1
  Tm  Tm15  1  0.04974900  0.42329000  0.89576500  1
  Se  Se0  1  0.50334100  0.12227700  0.25606400  1
  Se  Se1  1  0.07542200  0.82768100  0.61548100  1
  Se  Se2  1  0.86621300  0.24727700  0.74393600  1
  Se  Se3  1  0.88378700  0.12772300  0.88106400  1
  Se  Se4  1  0.24665900  0.00272300  0.11893600  1
  Se  Se5  1  0.67457800  0.79005900  0.25225900  1
  Se  Se6  1  0.21220000  0.45994100  0.38451900  1
  Se  Se7  1  0.83874000  0.43862000  0.24222000  1
  Se  Se8  1  0.53780000  0.42231900  0.74774100  1
  Se  Se9  1  0.40348000  0.16126000  0.59988100  1
  Se  Se10  1  0.19640000  0.59652000  0.75778000  1
  Se  Se11  1  0.20994100  0.46220000  0.88451900  1
  Se  Se12  1  0.57768100  0.32542200  0.11548100  1
  Se  Se13  1  0.99727700  0.11621300  0.24393600  1
  Se  Se14  1  0.56138000  0.80360000  0.40011900  1
  Se  Se15  1  0.17231900  0.78780000  0.24774100  1
  Se  Se16  1  0.87227700  0.75334100  0.75606400  1
  Se  Se17  1  0.75272300  0.49665900  0.61893600  1
  Se  Se18  1  0.54005900  0.92457800  0.75225900  1
  Se  Se19  1  0.55360000  0.81138000  0.90011900  1
  Se  Se20  1  0.91126000  0.65348000  0.09988100  1
  Se  Se21  1  0.87772300  0.13378700  0.38106400  1
  Se  Se22  1  0.34652000  0.44640000  0.25778000  1
  Se  Se23  1  0.18862000  0.08874000  0.74222000  1
loop_
_geom_bond_atom_site_label_1
_geom_bond_atom_site_label_2
_geom_bond_distance
_geom_bond_site_symmetry_2
Se0 Tm14 2.839463 1_555
Se0 Tm2 2.839861 1_555
Se0 Tm1 2.897682 1_555
Se0 Tm5 3.069261 1_555
Se0 Tm6 3.237805 1_544
Se0 Tm0 3.286551 1_545
Se1 Tm7 2.817703 1_455
Se1 Tm2 2.839464 1_566
Se1 Tm6 2.847791 1_555
Se1 Tm3 3.043958 1_455
Se1 Tm0 3.131933 1_455
Se2 Tm15 2.839463 1_655
Se2 Tm2 2.839861 1_656
Se2 Tm0 2.897682 1_545
Se2 Tm5 3.069261 1_555
Se2 Tm3 3.237805 1_556
Se2 Tm1 3.286551 1_555
Se3 Tm12 2.839463 1_555
Se3 Tm5 2.839861 1_555
Se3 Tm7 2.897682 1_545
Se3 Tm2 3.069261 1_656
Se3 Tm3 3.237805 1_556
Se3 Tm4 3.286551 1_656
Se4 Tm8 2.839463 1_545
Se4 Tm5 2.839861 1_555
Se4 Tm4 2.897682 1_555
Se4 Tm2 3.069261 1_555
Se4 Tm6 3.237805 1_544
Se4 Tm7 3.286551 1_444
Se5 Tm0 2.817703 1_555
Se5 Tm5 2.839464 1_565
Se5 Tm6 2.847791 1_554
Se5 Tm3 3.043958 1_555
Se5 Tm7 3.131933 1_555
Se6 Tm4 2.817703 1_555
Se6 Tm2 2.839464 1_555
Se6 Tm3 2.847791 1_455
Se6 Tm6 3.043958 1_555
Se6 Tm1 3.131933 1_555
Se7 Tm7 2.815809 1_555
Se7 Tm3 2.859636 1_555
Se7 Tm12 2.948195 1_554
Se7 Tm4 3.078365 1_655
Se7 Tm10 3.133594 1_555
Se8 Tm1 2.817703 1_555
Se8 Tm5 2.839464 1_555
Se8 Tm3 2.847791 1_556
Se8 Tm6 3.043958 1_555
Se8 Tm4 3.131933 1_555
Se9 Tm12 2.815803 1_555
Se9 Tm11 2.859623 1_555
Se9 Tm4 2.948204 1_555
Se9 Tm8 3.078369 1_545
Se9 Tm5 3.133607 1_555
Se10 Tm4 2.815809 1_555
Se10 Tm6 2.859636 1_555
Se10 Tm8 2.948195 1_556
Se10 Tm7 3.078365 1_455
Se10 Tm10 3.133594 1_455
Se11 Tm15 2.817703 1_555
Se11 Tm10 2.839464 1_455
Se11 Tm11 2.847791 1_555
Se11 Tm9 3.043958 1_556
Se11 Tm8 3.131933 1_556
Se12 Tm14 2.817703 1_555
Se12 Tm10 2.839464 1_555
Se12 Tm9 2.847791 1_555
Se12 Tm11 3.043958 1_554
Se12 Tm12 3.131933 1_554
Se13 Tm4 2.839463 1_655
Se13 Tm10 2.839861 1_555
Se13 Tm12 2.897682 1_554
Se13 Tm13 3.069261 1_545
Se13 Tm11 3.237805 1_655
Se13 Tm8 3.286551 1_645
Se14 Tm8 2.815808 1_555
Se14 Tm9 2.859648 1_555
Se14 Tm7 2.948191 1_555
Se14 Tm12 3.078373 1_565
Se14 Tm5 3.133585 1_565
Se15 Tm8 2.817703 1_555
Se15 Tm13 2.839464 1_455
Se15 Tm11 2.847791 1_565
Se15 Tm9 3.043958 1_555
Se15 Tm15 3.131933 1_554
Se16 Tm7 2.839463 1_555
Se16 Tm10 2.839861 1_555
Se16 Tm8 2.897682 1_656
Se16 Tm13 3.069261 1_556
Se16 Tm9 3.237805 1_555
Se16 Tm12 3.286551 1_565
Se17 Tm1 2.839463 1_555
Se17 Tm13 2.839861 1_556
Se17 Tm15 2.897682 1_655
Se17 Tm10 3.069261 1_555
Se17 Tm9 3.237805 1_555
Se17 Tm14 3.286551 1_555
Se18 Tm12 2.817703 1_565
Se18 Tm13 2.839464 1_556
Se18 Tm9 2.847791 1_555
Se18 Tm11 3.043958 1_565
Se18 Tm14 3.131933 1_566
Se19 Tm1 2.815808 1_555
Se19 Tm6 2.859648 1_555
Se19 Tm14 2.948191 1_566
Se19 Tm0 3.078373 1_556
Se19 Tm13 3.133585 1_556
Se20 Tm0 2.815803 1_555
Se20 Tm3 2.859623 1_555
Se20 Tm15 2.948204 1_654
Se20 Tm1 3.078369 1_554
Se20 Tm13 3.133607 1_555
Se21 Tm0 2.839463 1_545
Se21 Tm13 2.839861 1_545
Se21 Tm14 2.897682 1_555
Se21 Tm10 3.069261 1_555
Se21 Tm11 3.237805 1_655
Se21 Tm15 3.286551 1_655
Se22 Tm15 2.815809 1_554
Se22 Tm9 2.859636 1_555
Se22 Tm1 2.948195 1_555
Se22 Tm14 3.078365 1_555
Se22 Tm2 3.133594 1_555
Se23 Tm14 2.815809 1_556
Se23 Tm11 2.859636 1_555
Se23 Tm0 2.948195 1_445
Se23 Tm15 3.078365 1_555
Se23 Tm2 3.133594 1_556
