# generated using pymatgen
data_PtRhPb2O7
_symmetry_space_group_name_H-M   'P 1'
_cell_length_a   7.30034511
_cell_length_b   7.27136690
_cell_length_c   7.27136807
_cell_angle_alpha   59.72889856
_cell_angle_beta   59.86808381
_cell_angle_gamma   59.86808761
_symmetry_Int_Tables_number   1
_chemical_formula_structural   PtRhPb2O7
_chemical_formula_sum   'Pt2 Rh2 Pb4 O14'
_cell_volume   271.83013584
_cell_formula_units_Z   2
loop_
 _symmetry_equiv_pos_site_id
 _symmetry_equiv_pos_as_xyz
  1  'x, y, z'
loop_
 _atom_site_type_symbol
 _atom_site_label
 _atom_site_symmetry_multiplicity
 _atom_site_fract_x
 _atom_site_fract_y
 _atom_site_fract_z
 _atom_site_occupancy
  Pt  Pt0  1  0.62500000  0.62500000  0.12500000  1
  Pt  Pt1  1  0.62500000  0.12500000  0.62500000  1
  Rh  Rh0  1  0.62500000  0.62500000  0.62500000  1
  Rh  Rh1  1  0.12500000  0.62500000  0.62500000  1
  Pb  Pb0  1  0.12500000  0.12500000  0.12500000  1
  Pb  Pb1  1  0.62500000  0.12500000  0.12500000  1
  Pb  Pb2  1  0.12500000  0.62500000  0.12500000  1
  Pb  Pb3  1  0.12500000  0.12500000  0.62500000  1
  O  O0  1  0.70715427  0.29284573  0.29284573  1
  O  O1  1  0.70631368  0.29312222  0.70741380  1
  O  O2  1  0.99710328  0.00289672  0.00289672  1
  O  O3  1  0.29314930  0.70741380  0.29312222  1
  O  O4  1  0.70631368  0.70741380  0.29312222  1
  O  O5  1  0.95649019  0.54350981  0.54350981  1
  O  O6  1  0.29350981  0.70649019  0.70649019  1
  O  O7  1  0.25289672  0.24710328  0.24710328  1
  O  O8  1  0.95685070  0.54258620  0.95687778  1
  O  O9  1  0.54368632  0.95687778  0.54258620  1
  O  O10  1  0.54368632  0.54258620  0.95687778  1
  O  O11  1  0.95685070  0.95687778  0.54258620  1
  O  O12  1  0.54284573  0.95715427  0.95715427  1
  O  O13  1  0.29314930  0.29312222  0.70741380  1
loop_
_geom_bond_atom_site_label_1
_geom_bond_atom_site_label_2
_geom_bond_distance
_geom_bond_site_symmetry_2
O0 Pt0 1.997820 1_555
O0 Pt1 1.997820 1_555
O0 Pb1 2.512035 1_555
O0 Pb0 2.512035 1_655
O1 Rh0 1.998999 1_555
O1 Pt1 2.007550 1_555
O1 Pb1 2.498655 1_556
O1 Pb3 2.518777 1_655
O2 Pb0 2.215328 1_655
O2 Pb1 2.215328 1_555
O2 Pb2 2.237726 1_645
O2 Pb3 2.237726 1_654
O3 Rh1 1.998999 1_555
O3 Pt0 2.007555 1_555
O3 Pb0 2.498654 1_565
O3 Pb2 2.518771 1_555
O4 Rh0 1.999000 1_555
O4 Pt0 2.007550 1_555
O4 Pb1 2.498655 1_565
O4 Pb2 2.518777 1_655
O5 Rh1 2.008290 1_655
O5 Rh0 2.008290 1_555
O5 Pb3 2.506094 1_655
O5 Pb2 2.506094 1_655
O6 Rh1 2.008290 1_555
O6 Rh0 2.008290 1_555
O6 Pb3 2.506094 1_565
O6 Pb2 2.506094 1_556
O7 Pb0 2.215328 1_555
O7 Pb1 2.215328 1_555
O7 Pb2 2.237726 1_555
O7 Pb3 2.237726 1_555
O8 Rh1 1.998999 1_655
O8 Pt0 2.007555 1_556
O8 Pb0 2.498654 1_656
O8 Pb2 2.518771 1_656
O9 Rh0 1.998999 1_555
O9 Pt1 2.007550 1_565
O9 Pb1 2.498655 1_565
O9 Pb3 2.518777 1_565
O10 Rh0 1.999000 1_555
O10 Pt0 2.007550 1_556
O10 Pb1 2.498655 1_556
O10 Pb2 2.518777 1_556
O11 Rh1 1.998998 1_655
O11 Pt1 2.007555 1_565
O11 Pb0 2.498654 1_665
O11 Pb3 2.518770 1_665
O12 Pt0 1.997820 1_556
O12 Pt1 1.997820 1_565
O12 Pb1 2.512035 1_566
O12 Pb0 2.512035 1_566
O13 Rh1 1.998998 1_555
O13 Pt1 2.007555 1_555
O13 Pb0 2.498654 1_556
O13 Pb3 2.518770 1_555
