# generated using pymatgen
data_MnBe4Nb
_symmetry_space_group_name_H-M   'P 1'
_cell_length_a   4.40532893
_cell_length_b   4.40532918
_cell_length_c   4.40532803
_cell_angle_alpha   59.99999339
_cell_angle_beta   59.99999153
_cell_angle_gamma   59.99999182
_symmetry_Int_Tables_number   1
_chemical_formula_structural   MnBe4Nb
_chemical_formula_sum   'Mn1 Be4 Nb1'
_cell_volume   60.45328233
_cell_formula_units_Z   1
loop_
 _symmetry_equiv_pos_site_id
 _symmetry_equiv_pos_as_xyz
  1  'x, y, z'
loop_
 _atom_site_type_symbol
 _atom_site_label
 _atom_site_symmetry_multiplicity
 _atom_site_fract_x
 _atom_site_fract_y
 _atom_site_fract_z
 _atom_site_occupancy
  Mn  Mn0  1  0.50000000  0.50000000  0.50000000  1
  Be  Be0  1  0.12635588  0.12635588  0.12635588  1
  Be  Be1  1  0.62093235  0.12635588  0.12635588  1
  Be  Be2  1  0.12635588  0.62093235  0.12635588  1
  Be  Be3  1  0.12635588  0.12635588  0.62093235  1
  Nb  Nb0  1  0.75000000  0.75000000  0.75000000  1
loop_
_geom_bond_atom_site_label_1
_geom_bond_atom_site_label_2
_geom_bond_distance
_geom_bond_site_symmetry_2
Mn0 Nb0 2.697701 1_554
Mn0 Nb0 2.697702 1_455
Mn0 Nb0 2.697702 1_545
Mn0 Nb0 2.697702 1_555
Be0 Be3 2.178772 1_555
Be0 Be1 2.178772 1_555
Be0 Be2 2.178772 1_555
Be0 Be3 2.226556 1_554
Be0 Be1 2.226557 1_455
Be0 Be2 2.226557 1_545
Be0 Mn0 2.580346 1_554
Be0 Mn0 2.580346 1_455
Be0 Mn0 2.580346 1_545
Be0 Nb0 2.585440 1_445
Be0 Nb0 2.585440 1_544
Be0 Nb0 2.585440 1_454
Be1 Be3 2.178772 1_555
Be1 Be2 2.178772 1_555
Be1 Be3 2.226556 1_654
Be1 Be2 2.226557 1_645
Be1 Mn0 2.580346 1_554
Be1 Mn0 2.580346 1_555
Be1 Mn0 2.580346 1_545
Be1 Nb0 2.585440 1_545
Be1 Nb0 2.585440 1_544
Be1 Nb0 2.585440 1_554
Be2 Be3 2.178772 1_555
Be2 Be3 2.226557 1_564
Be2 Mn0 2.580346 1_554
Be2 Mn0 2.580346 1_555
Be2 Mn0 2.580346 1_455
Be2 Nb0 2.585439 1_455
Be2 Nb0 2.585440 1_454
Be2 Nb0 2.585440 1_554
Be3 Mn0 2.580346 1_455
Be3 Mn0 2.580346 1_545
Be3 Mn0 2.580346 1_555
Be3 Nb0 2.585440 1_545
Be3 Nb0 2.585440 1_455
Be3 Nb0 2.585440 1_445
