# generated using pymatgen
data_Ga6TcIr
_symmetry_space_group_name_H-M   'P 1'
_cell_length_a   6.51203392
_cell_length_b   6.51203392
_cell_length_c   6.77274507
_cell_angle_alpha   90.00000000
_cell_angle_beta   90.00000000
_cell_angle_gamma   89.70362584
_symmetry_Int_Tables_number   1
_chemical_formula_structural   Ga6TcIr
_chemical_formula_sum   'Ga12 Tc2 Ir2'
_cell_volume   287.20515199
_cell_formula_units_Z   2
loop_
 _symmetry_equiv_pos_site_id
 _symmetry_equiv_pos_as_xyz
  1  'x, y, z'
loop_
 _atom_site_type_symbol
 _atom_site_label
 _atom_site_symmetry_multiplicity
 _atom_site_fract_x
 _atom_site_fract_y
 _atom_site_fract_z
 _atom_site_occupancy
  Ga  Ga0  1  0.00000000  0.50000000  0.50000000  1
  Ga  Ga1  1  0.50000000  0.00000000  0.00000000  1
  Ga  Ga2  1  0.50000000  0.00000000  0.50000000  1
  Ga  Ga3  1  0.00000000  0.50000000  0.00000000  1
  Ga  Ga4  1  0.34703674  0.65296326  0.23920868  1
  Ga  Ga5  1  0.65296326  0.34703674  0.23920868  1
  Ga  Ga6  1  0.15570500  0.15570500  0.72966105  1
  Ga  Ga7  1  0.84429500  0.84429500  0.72966105  1
  Ga  Ga8  1  0.65296326  0.34703674  0.76079132  1
  Ga  Ga9  1  0.34703674  0.65296326  0.76079132  1
  Ga  Ga10  1  0.84429500  0.84429500  0.27033895  1
  Ga  Ga11  1  0.15570500  0.15570500  0.27033895  1
  Tc  Tc0  1  0.16204926  0.83795074  0.50000000  1
  Tc  Tc1  1  0.83795074  0.16204926  0.50000000  1
  Ir  Ir0  1  0.34023477  0.34023477  0.00000000  1
  Ir  Ir1  1  0.65976523  0.65976523  0.00000000  1
loop_
_geom_bond_atom_site_label_1
_geom_bond_atom_site_label_2
_geom_bond_distance
_geom_bond_site_symmetry_2
Ga0 Tc0 2.445589 1_555
Ga0 Tc1 2.445589 1_455
Ga0 Ga7 2.907027 1_455
Ga0 Ga6 2.907027 1_555
Ga0 Ga10 2.907027 1_455
Ga0 Ga11 2.907027 1_555
Ga0 Ga4 3.040139 1_555
Ga0 Ga9 3.040139 1_555
Ga0 Ga5 3.040139 1_455
Ga0 Ga8 3.040139 1_455
Ga1 Ir0 2.442857 1_555
Ga1 Ir1 2.442857 1_545
Ga1 Ga8 2.957608 1_554
Ga1 Ga5 2.957608 1_555
Ga1 Ga9 2.957608 1_544
Ga1 Ga4 2.957608 1_545
Ga1 Ga10 3.063291 1_545
Ga1 Ga11 3.063291 1_555
Ga1 Ga7 3.063291 1_544
Ga1 Ga6 3.063291 1_554
Ga2 Tc1 2.445589 1_555
Ga2 Tc0 2.445589 1_545
Ga2 Ga7 2.907027 1_545
Ga2 Ga6 2.907027 1_555
Ga2 Ga5 3.040139 1_555
Ga2 Ga8 3.040139 1_555
Ga2 Ga4 3.040139 1_545
Ga2 Ga9 3.040139 1_545
Ga3 Ir0 2.442857 1_555
Ga3 Ir1 2.442857 1_455
Ga3 Ga9 2.957608 1_554
Ga3 Ga4 2.957608 1_555
Ga3 Ga8 2.957608 1_454
Ga3 Ga5 2.957608 1_455
Ga3 Ga7 3.063291 1_454
Ga3 Ga6 3.063291 1_554
Ga4 Tc0 2.450928 1_555
Ga4 Ir1 2.602872 1_555
Ga4 Ir0 2.602872 1_555
Ga4 Ga5 2.810106 1_555
Ga5 Tc1 2.450928 1_555
Ga5 Ir1 2.602872 1_555
Ga5 Ir0 2.602872 1_555
Ga6 Ir0 2.501052 1_556
Ga6 Tc1 2.588803 1_455
Ga6 Tc0 2.588803 1_545
Ga6 Ga7 2.875309 1_445
Ga7 Ir1 2.501052 1_556
Ga7 Tc1 2.588803 1_565
Ga7 Tc0 2.588803 1_655
Ga8 Tc1 2.450928 1_555
Ga8 Ir1 2.602872 1_556
Ga8 Ir0 2.602872 1_556
Ga8 Ga9 2.810106 1_555
Ga9 Tc0 2.450928 1_555
Ga9 Ir1 2.602872 1_556
Ga9 Ir0 2.602872 1_556
Ga10 Ir1 2.501052 1_555
Ga10 Tc0 2.588803 1_655
Ga10 Tc1 2.588803 1_565
Ga10 Ga11 2.875309 1_665
Ga10 Ga2 2.907027 1_565
Ga10 Ga3 3.063291 1_655
Ga10 Ga7 3.110871 1_555
Ga11 Ir0 2.501052 1_555
Ga11 Tc1 2.588803 1_455
Ga11 Tc0 2.588803 1_545
Ga11 Ga2 2.907027 1_555
Ga11 Ga3 3.063291 1_555
Ga11 Ga6 3.110871 1_555
