# generated using pymatgen
data_Nb3Re2Si3Ru
_symmetry_space_group_name_H-M   'P 1'
_cell_length_a   7.52613369
_cell_length_b   7.51370300
_cell_length_c   7.51370285
_cell_angle_alpha   127.07522981
_cell_angle_beta   124.71082862
_cell_angle_gamma   80.04039607
_symmetry_Int_Tables_number   1
_chemical_formula_structural   Nb3Re2Si3Ru
_chemical_formula_sum   'Nb6 Re4 Si6 Ru2'
_cell_volume   269.10682500
_cell_formula_units_Z   2
loop_
 _symmetry_equiv_pos_site_id
 _symmetry_equiv_pos_as_xyz
  1  'x, y, z'
loop_
 _atom_site_type_symbol
 _atom_site_label
 _atom_site_symmetry_multiplicity
 _atom_site_fract_x
 _atom_site_fract_y
 _atom_site_fract_z
 _atom_site_occupancy
  Nb  Nb0  1  0.55494992  0.09471892  0.03697142  1
  Nb  Nb1  1  0.44505008  0.48202051  0.53977000  1
  Nb  Nb2  1  0.95558439  0.49725224  0.02881319  1
  Nb  Nb3  1  0.04441561  0.07322780  0.54166785  1
  Nb  Nb4  1  0.75945218  0.91480071  0.66755133  1
  Nb  Nb5  1  0.24054782  0.90809915  0.15534953  1
  Re  Re0  1  0.50000000  0.24674704  0.74674704  1
  Re  Re1  1  1.00000000  0.24687637  0.24687637  1
  Re  Re2  1  0.15705161  0.74882967  0.65134226  1
  Re  Re3  1  0.84294839  0.49429065  0.59177806  1
  Si  Si0  1  0.77203510  0.53959321  0.25859330  1
  Si  Si1  1  0.22796490  0.48655820  0.76755811  1
  Si  Si2  1  0.33748752  0.81986868  0.49166842  1
  Si  Si3  1  0.66251248  0.15417990  0.48238016  1
  Si  Si4  1  0.82580431  0.82503727  0.99216199  1
  Si  Si5  1  0.17419569  0.16635768  0.99923196  1
  Ru  Ru0  1  0.58637174  0.74754163  0.08257211  1
  Ru  Ru1  1  0.41362826  0.49620037  0.16117090  1
loop_
_geom_bond_atom_site_label_1
_geom_bond_atom_site_label_2
_geom_bond_distance
_geom_bond_site_symmetry_2
Nb0 Si4 2.627729 1_544
Nb0 Si2 2.657232 1_544
Nb0 Si3 2.700367 1_555
Nb0 Si5 2.703129 1_554
Nb0 Ru1 2.779997 1_555
Nb0 Ru0 2.783888 1_545
Nb0 Re2 2.801491 1_544
Nb0 Re3 2.821315 1_555
Nb0 Re0 2.836208 1_554
Nb0 Re1 2.854454 1_555
Nb0 Si0 2.948715 1_555
Nb1 Si5 2.627736 1_554
Nb1 Si3 2.657232 1_555
Nb1 Si2 2.700382 1_555
Nb1 Si4 2.703134 1_555
Nb1 Ru0 2.779990 1_556
Nb1 Ru1 2.783893 1_555
Nb1 Re3 2.801496 1_555
Nb1 Re2 2.821316 1_555
Nb1 Re0 2.836194 1_555
Nb1 Re1 2.854450 1_455
Nb1 Si1 2.948706 1_555
Nb2 Si4 2.602876 1_554
Nb2 Si0 2.625312 1_555
Nb2 Si2 2.663366 1_655
Nb2 Si3 2.694291 1_554
Nb2 Si5 2.696855 1_654
Nb2 Re3 2.872336 1_554
Nb2 Re0 2.989596 1_554
Nb2 Ru1 2.994761 1_655
Nb2 Re1 3.034895 1_555
Nb2 Ru0 3.158481 1_555
Nb2 Re2 3.163009 1_655
Nb3 Si5 2.602865 1_555
Nb3 Si1 2.625318 1_555
Nb3 Si3 2.663364 1_455
Nb3 Si2 2.694283 1_545
Nb3 Si4 2.696856 1_444
Nb3 Re2 2.872328 1_545
Nb3 Re0 2.989598 1_555
Nb3 Ru0 2.994761 1_445
Nb3 Re1 3.034902 1_455
Nb3 Ru1 3.158485 1_556
Nb3 Re3 3.163016 1_455
Nb4 Si5 2.651146 1_665
Nb4 Si3 2.666540 1_565
Nb4 Si4 2.670754 1_555
Nb4 Si0 2.681971 1_555
Nb4 Si2 2.684774 1_555
Nb4 Re1 2.818349 1_566
Nb4 Re0 2.870008 1_565
Nb4 Re3 2.872933 1_555
Nb4 Ru1 2.875390 1_555
Nb4 Re2 3.076601 1_655
Nb4 Ru0 3.159252 1_555
Nb5 Si4 2.651142 1_454
Nb5 Si2 2.666535 1_555
Nb5 Si5 2.670766 1_564
Nb5 Si1 2.681973 1_554
Nb5 Si3 2.684774 1_565
Nb5 Re1 2.818349 1_465
Nb5 Re0 2.870003 1_565
Nb5 Re2 2.872940 1_554
Nb5 Ru0 2.875395 1_555
Nb5 Re3 3.076602 1_454
Nb5 Ru1 3.159252 1_555
Re0 Si0 2.492331 1_556
Re0 Si1 2.492331 1_555
Re0 Si2 2.594650 1_545
Re0 Si3 2.594655 1_555
Re0 Ru0 2.911776 1_556
Re0 Ru1 2.911782 1_556
Re1 Si1 2.534155 1_655
Re1 Si0 2.534156 1_555
Re1 Si4 2.587198 1_544
Re1 Si5 2.587205 1_654
Re1 Re2 2.913510 1_655
Re1 Re3 2.913510 1_555
Re2 Si0 2.412474 1_455
Re2 Si1 2.472033 1_555
Re2 Si2 2.539044 1_555
Re2 Si5 2.561192 1_565
Re2 Re3 2.962000 1_455
Re2 Ru0 3.007086 1_556
Re3 Si1 2.412474 1_655
Re3 Si0 2.472033 1_555
Re3 Si3 2.539046 1_555
Re3 Si4 2.561194 1_555
Re3 Ru1 3.007082 1_555
Ru0 Si1 2.384515 1_554
Ru0 Si0 2.403058 1_555
Ru0 Si3 2.503262 1_565
Ru0 Si4 2.506337 1_554
Ru0 Ru1 2.945145 1_555
Ru1 Si0 2.384518 1_555
Ru1 Si1 2.403064 1_554
Ru1 Si2 2.503264 1_555
Ru1 Si5 2.506329 1_554
