# generated using pymatgen
data_Ti4Ga3Ni2
_symmetry_space_group_name_H-M   'P 1'
_cell_length_a   14.65055901
_cell_length_b   14.65055901
_cell_length_c   5.64170200
_cell_angle_alpha   90.00000000
_cell_angle_beta   90.00000000
_cell_angle_gamma   119.99999554
_symmetry_Int_Tables_number   1
_chemical_formula_structural   Ti4Ga3Ni2
_chemical_formula_sum   'Ti32 Ga24 Ni16'
_cell_volume   1048.69497267
_cell_formula_units_Z   8
loop_
 _symmetry_equiv_pos_site_id
 _symmetry_equiv_pos_as_xyz
  1  'x, y, z'
loop_
 _atom_site_type_symbol
 _atom_site_label
 _atom_site_symmetry_multiplicity
 _atom_site_fract_x
 _atom_site_fract_y
 _atom_site_fract_z
 _atom_site_occupancy
  Ti  Ti0_0  1  0.18343900  0.00000000  0.00000000  1
  Ti  Ti0_1  1  0.18343900  0.00000000  0.50000000  1
  Ti  Ti0_2  1  0.18343900  0.50000000  0.00000000  1
  Ti  Ti0_3  1  0.18343900  0.50000000  0.50000000  1
  Ti  Ti0_4  1  0.68343900  0.00000000  0.00000000  1
  Ti  Ti0_5  1  0.68343900  0.00000000  0.50000000  1
  Ti  Ti0_6  1  0.68343900  0.50000000  0.00000000  1
  Ti  Ti0_7  1  0.68343900  0.50000000  0.50000000  1
  Ti  Ti1_0  1  0.00000000  0.18343900  0.00000000  1
  Ti  Ti1_1  1  0.00000000  0.18343900  0.50000000  1
  Ti  Ti1_2  1  0.00000000  0.68343900  0.00000000  1
  Ti  Ti1_3  1  0.00000000  0.68343900  0.50000000  1
  Ti  Ti1_4  1  0.50000000  0.18343900  0.00000000  1
  Ti  Ti1_5  1  0.50000000  0.18343900  0.50000000  1
  Ti  Ti1_6  1  0.50000000  0.68343900  0.00000000  1
  Ti  Ti1_7  1  0.50000000  0.68343900  0.50000000  1
  Ti  Ti2_0  1  0.31656100  0.31656100  0.00000000  1
  Ti  Ti2_1  1  0.31656100  0.31656100  0.50000000  1
  Ti  Ti2_2  1  0.31656100  0.81656100  0.00000000  1
  Ti  Ti2_3  1  0.31656100  0.81656100  0.50000000  1
  Ti  Ti2_4  1  0.81656100  0.31656100  0.00000000  1
  Ti  Ti2_5  1  0.81656100  0.31656100  0.50000000  1
  Ti  Ti2_6  1  0.81656100  0.81656100  0.00000000  1
  Ti  Ti2_7  1  0.81656100  0.81656100  0.50000000  1
  Ti  Ti3_0  1  0.00000000  0.00000000  0.00000000  1
  Ti  Ti3_1  1  0.00000000  0.00000000  0.50000000  1
  Ti  Ti3_2  1  0.00000000  0.50000000  0.00000000  1
  Ti  Ti3_3  1  0.00000000  0.50000000  0.50000000  1
  Ti  Ti3_4  1  0.50000000  0.00000000  0.00000000  1
  Ti  Ti3_5  1  0.50000000  0.00000000  0.50000000  1
  Ti  Ti3_6  1  0.50000000  0.50000000  0.00000000  1
  Ti  Ti3_7  1  0.50000000  0.50000000  0.50000000  1
  Ga  Ga0_0  1  0.15684250  0.15684250  0.25000000  1
  Ga  Ga0_1  1  0.15684250  0.15684250  0.75000000  1
  Ga  Ga0_2  1  0.15684250  0.65684250  0.25000000  1
  Ga  Ga0_3  1  0.15684250  0.65684250  0.75000000  1
  Ga  Ga0_4  1  0.65684250  0.15684250  0.25000000  1
  Ga  Ga0_5  1  0.65684250  0.15684250  0.75000000  1
  Ga  Ga0_6  1  0.65684250  0.65684250  0.25000000  1
  Ga  Ga0_7  1  0.65684250  0.65684250  0.75000000  1
  Ga  Ga1_0  1  0.00000000  0.34315750  0.25000000  1
  Ga  Ga1_1  1  0.00000000  0.34315750  0.75000000  1
  Ga  Ga1_2  1  0.00000000  0.84315750  0.25000000  1
  Ga  Ga1_3  1  0.00000000  0.84315750  0.75000000  1
  Ga  Ga1_4  1  0.50000000  0.34315750  0.25000000  1
  Ga  Ga1_5  1  0.50000000  0.34315750  0.75000000  1
  Ga  Ga1_6  1  0.50000000  0.84315750  0.25000000  1
  Ga  Ga1_7  1  0.50000000  0.84315750  0.75000000  1
  Ga  Ga2_0  1  0.34315750  0.00000000  0.25000000  1
  Ga  Ga2_1  1  0.34315750  0.00000000  0.75000000  1
  Ga  Ga2_2  1  0.34315750  0.50000000  0.25000000  1
  Ga  Ga2_3  1  0.34315750  0.50000000  0.75000000  1
  Ga  Ga2_4  1  0.84315750  0.00000000  0.25000000  1
  Ga  Ga2_5  1  0.84315750  0.00000000  0.75000000  1
  Ga  Ga2_6  1  0.84315750  0.50000000  0.25000000  1
  Ga  Ga2_7  1  0.84315750  0.50000000  0.75000000  1
  Ni  Ni0_0  1  0.16666650  0.33333350  0.25000000  1
  Ni  Ni0_1  1  0.16666650  0.33333350  0.75000000  1
  Ni  Ni0_2  1  0.16666650  0.83333350  0.25000000  1
  Ni  Ni0_3  1  0.16666650  0.83333350  0.75000000  1
  Ni  Ni0_4  1  0.66666650  0.33333350  0.25000000  1
  Ni  Ni0_5  1  0.66666650  0.33333350  0.75000000  1
  Ni  Ni0_6  1  0.66666650  0.83333350  0.25000000  1
  Ni  Ni0_7  1  0.66666650  0.83333350  0.75000000  1
  Ni  Ni1_0  1  0.33333350  0.16666650  0.25000000  1
  Ni  Ni1_1  1  0.33333350  0.16666650  0.75000000  1
  Ni  Ni1_2  1  0.33333350  0.66666650  0.25000000  1
  Ni  Ni1_3  1  0.33333350  0.66666650  0.75000000  1
  Ni  Ni1_4  1  0.83333350  0.16666650  0.25000000  1
  Ni  Ni1_5  1  0.83333350  0.16666650  0.75000000  1
  Ni  Ni1_6  1  0.83333350  0.66666650  0.25000000  1
  Ni  Ni1_7  1  0.83333350  0.66666650  0.75000000  1
loop_
_geom_bond_atom_site_label_1
_geom_bond_atom_site_label_2
_geom_bond_distance
_geom_bond_site_symmetry_2
Ti0_0 Ti3_0 2.687484 1_555
Ti0_0 Ti0_1 2.820851 1_554
Ti0_0 Ti0_1 2.820851 1_555
Ti0_1 Ti3_1 2.687484 1_555
Ti0_2 Ti3_2 2.687484 1_555
Ti0_2 Ti0_3 2.820851 1_554
Ti0_2 Ti0_3 2.820851 1_555
Ti0_3 Ti3_3 2.687484 1_555
Ti0_4 Ti3_4 2.687484 1_555
Ti0_4 Ti0_5 2.820851 1_555
Ti0_4 Ti0_5 2.820851 1_554
Ti0_5 Ti3_5 2.687484 1_555
Ti0_6 Ti3_6 2.687484 1_555
Ti0_6 Ti0_7 2.820851 1_554
Ti0_6 Ti0_7 2.820851 1_555
Ti0_7 Ti3_7 2.687484 1_555
Ti1_0 Ti3_0 2.687484 1_555
Ti1_0 Ti1_1 2.820851 1_554
Ti1_0 Ti1_1 2.820851 1_555
Ti1_1 Ti3_1 2.687484 1_555
Ti1_2 Ti3_2 2.687484 1_555
Ti1_2 Ti1_3 2.820851 1_555
Ti1_2 Ti1_3 2.820851 1_554
Ti1_3 Ti3_3 2.687484 1_555
Ti1_4 Ti3_4 2.687484 1_555
Ti1_4 Ti1_5 2.820851 1_554
Ti1_4 Ti1_5 2.820851 1_555
Ti1_5 Ti3_5 2.687484 1_555
Ti1_6 Ti3_6 2.687484 1_555
Ti1_6 Ti1_7 2.820851 1_555
Ti1_6 Ti1_7 2.820851 1_554
Ti1_7 Ti3_7 2.687484 1_555
Ti2_0 Ti3_6 2.687484 1_555
Ti2_0 Ti2_1 2.820851 1_554
Ti2_0 Ti2_1 2.820851 1_555
Ti2_1 Ti3_7 2.687484 1_555
Ti2_2 Ti3_4 2.687484 1_565
Ti2_2 Ti2_3 2.820851 1_554
Ti2_2 Ti2_3 2.820851 1_555
Ti2_3 Ti3_5 2.687484 1_565
Ti2_4 Ti3_2 2.687484 1_655
Ti2_4 Ti2_5 2.820851 1_555
Ti2_4 Ti2_5 2.820851 1_554
Ti2_5 Ti3_3 2.687484 1_655
Ti2_6 Ti3_0 2.687484 1_665
Ti2_6 Ti2_7 2.820851 1_555
Ti2_6 Ti2_7 2.820851 1_554
Ti2_7 Ti3_1 2.687484 1_665
Ti3_0 Ti3_1 2.820851 1_554
Ti3_0 Ti3_1 2.820851 1_555
Ti3_2 Ti3_3 2.820851 1_555
Ti3_2 Ti3_3 2.820851 1_554
Ti3_4 Ti3_5 2.820851 1_555
Ti3_4 Ti3_5 2.820851 1_554
Ti3_6 Ti3_7 2.820851 1_554
Ti3_6 Ti3_7 2.820851 1_555
Ga0_0 Ni0_0 2.516817 1_555
Ga0_0 Ni1_0 2.516817 1_555
Ga0_0 Ti3_0 2.696169 1_555
Ga0_0 Ti3_1 2.696169 1_555
Ga0_0 Ti2_0 2.732167 1_555
Ga0_0 Ti2_1 2.732167 1_555
Ga0_0 Ga0_1 2.820851 1_555
Ga0_0 Ga0_1 2.820851 1_554
Ga0_0 Ti0_1 2.883836 1_555
Ga0_0 Ti1_0 2.883836 1_555
Ga0_0 Ti1_1 2.883836 1_555
Ga0_0 Ti0_0 2.883836 1_555
Ga0_1 Ni1_1 2.516817 1_555
Ga0_1 Ni0_1 2.516817 1_555
Ga0_1 Ti3_1 2.696169 1_555
Ga0_1 Ti3_0 2.696169 1_556
Ga0_1 Ti2_1 2.732167 1_555
Ga0_1 Ti2_0 2.732167 1_556
Ga0_1 Ti1_1 2.883836 1_555
Ga0_1 Ti0_1 2.883836 1_555
Ga0_1 Ti0_0 2.883836 1_556
Ga0_1 Ti1_0 2.883836 1_556
Ga0_2 Ni1_2 2.516817 1_555
Ga0_2 Ni0_2 2.516817 1_555
Ga0_2 Ti3_3 2.696169 1_555
Ga0_2 Ti3_2 2.696169 1_555
Ga0_2 Ti2_2 2.732167 1_555
Ga0_2 Ti2_3 2.732167 1_555
Ga0_2 Ga0_3 2.820851 1_555
Ga0_2 Ga0_3 2.820851 1_554
Ga0_2 Ti0_2 2.883836 1_555
Ga0_2 Ti0_3 2.883836 1_555
Ga0_2 Ti1_2 2.883836 1_555
Ga0_2 Ti1_3 2.883836 1_555
Ga0_3 Ni1_3 2.516817 1_555
Ga0_3 Ni0_3 2.516817 1_555
Ga0_3 Ti3_3 2.696169 1_555
Ga0_3 Ti3_2 2.696169 1_556
Ga0_3 Ti2_3 2.732167 1_555
Ga0_3 Ti2_2 2.732167 1_556
Ga0_3 Ti0_3 2.883836 1_555
Ga0_3 Ti1_3 2.883836 1_555
Ga0_3 Ti0_2 2.883836 1_556
Ga0_3 Ti1_2 2.883836 1_556
Ga0_4 Ni1_4 2.516817 1_555
Ga0_4 Ni0_4 2.516817 1_555
Ga0_4 Ti3_4 2.696169 1_555
Ga0_4 Ti3_5 2.696169 1_555
Ga0_4 Ti2_4 2.732167 1_555
Ga0_4 Ti2_5 2.732167 1_555
Ga0_4 Ga0_5 2.820851 1_555
Ga0_4 Ga0_5 2.820851 1_554
Ga0_4 Ti0_5 2.883836 1_555
Ga0_4 Ti0_4 2.883836 1_555
Ga0_4 Ti1_5 2.883836 1_555
Ga0_4 Ti1_4 2.883836 1_555
Ga0_5 Ni1_5 2.516817 1_555
Ga0_5 Ni0_5 2.516817 1_555
Ga0_5 Ti3_5 2.696169 1_555
Ga0_5 Ti3_4 2.696169 1_556
Ga0_5 Ti2_5 2.732167 1_555
Ga0_5 Ti2_4 2.732167 1_556
Ga0_5 Ti0_5 2.883836 1_555
Ga0_5 Ti0_4 2.883836 1_556
Ga0_5 Ti1_5 2.883836 1_555
Ga0_5 Ti1_4 2.883836 1_556
Ga0_6 Ni0_6 2.516817 1_555
Ga0_6 Ni1_6 2.516817 1_555
Ga0_6 Ti3_7 2.696169 1_555
Ga0_6 Ti3_6 2.696169 1_555
Ga0_6 Ti2_6 2.732167 1_555
Ga0_6 Ti2_7 2.732167 1_555
Ga0_6 Ga0_7 2.820851 1_555
Ga0_6 Ga0_7 2.820851 1_554
Ga0_6 Ti0_6 2.883836 1_555
Ga0_6 Ti0_7 2.883836 1_555
Ga0_6 Ti1_6 2.883836 1_555
Ga0_6 Ti1_7 2.883836 1_555
Ga0_7 Ni0_7 2.516817 1_555
Ga0_7 Ni1_7 2.516817 1_555
Ga0_7 Ti3_7 2.696169 1_555
Ga0_7 Ti3_6 2.696169 1_556
Ga0_7 Ti2_7 2.732167 1_555
Ga0_7 Ti2_6 2.732167 1_556
Ga0_7 Ti1_7 2.883836 1_555
Ga0_7 Ti0_7 2.883836 1_555
Ga0_7 Ti0_6 2.883836 1_556
Ga0_7 Ti1_6 2.883836 1_556
Ga1_0 Ni0_0 2.516809 1_555
Ga1_0 Ni1_4 2.516813 1_455
Ga1_0 Ti3_3 2.696168 1_555
Ga1_0 Ti3_2 2.696168 1_555
Ga1_0 Ti1_0 2.732167 1_555
Ga1_0 Ti1_1 2.732167 1_555
Ga1_0 Ga1_1 2.820851 1_555
Ga1_0 Ga1_1 2.820851 1_554
Ga1_0 Ti2_4 2.883836 1_455
Ga1_0 Ti2_5 2.883836 1_455
Ga1_0 Ti0_2 2.883836 1_555
Ga1_0 Ti0_3 2.883836 1_555
Ga1_1 Ni0_1 2.516809 1_555
Ga1_1 Ni1_5 2.516813 1_455
Ga1_1 Ti3_3 2.696168 1_555
Ga1_1 Ti3_2 2.696168 1_556
Ga1_1 Ti1_1 2.732167 1_555
Ga1_1 Ti1_0 2.732167 1_556
Ga1_1 Ti2_5 2.883836 1_455
Ga1_1 Ti2_4 2.883836 1_456
Ga1_1 Ti0_3 2.883836 1_555
Ga1_1 Ti0_2 2.883836 1_556
Ga1_2 Ni0_2 2.516809 1_555
Ga1_2 Ni1_6 2.516813 1_455
Ga1_2 Ti3_1 2.696168 1_565
Ga1_2 Ti3_0 2.696168 1_565
Ga1_2 Ti1_2 2.732167 1_555
Ga1_2 Ti1_3 2.732167 1_555
Ga1_2 Ga1_3 2.820851 1_555
Ga1_2 Ga1_3 2.820851 1_554
Ga1_2 Ti2_6 2.883836 1_455
Ga1_2 Ti2_7 2.883836 1_455
Ga1_2 Ti0_0 2.883836 1_565
Ga1_2 Ti0_1 2.883836 1_565
Ga1_3 Ni0_3 2.516809 1_555
Ga1_3 Ni1_7 2.516813 1_455
Ga1_3 Ti3_1 2.696168 1_565
Ga1_3 Ti3_0 2.696168 1_566
Ga1_3 Ti1_3 2.732167 1_555
Ga1_3 Ti1_2 2.732167 1_556
Ga1_3 Ti2_7 2.883836 1_455
Ga1_3 Ti2_6 2.883836 1_456
Ga1_3 Ti0_1 2.883836 1_565
Ga1_3 Ti0_0 2.883836 1_566
Ga1_4 Ni0_4 2.516809 1_555
Ga1_4 Ni1_0 2.516813 1_555
Ga1_4 Ti3_6 2.696168 1_555
Ga1_4 Ti3_7 2.696168 1_555
Ga1_4 Ti1_5 2.732167 1_555
Ga1_4 Ti1_4 2.732167 1_555
Ga1_4 Ga1_5 2.820851 1_555
Ga1_4 Ga1_5 2.820851 1_554
Ga1_4 Ti2_1 2.883836 1_555
Ga1_4 Ti2_0 2.883836 1_555
Ga1_4 Ti0_6 2.883836 1_555
Ga1_4 Ti0_7 2.883836 1_555
Ga1_5 Ni0_5 2.516809 1_555
Ga1_5 Ni1_1 2.516813 1_555
Ga1_5 Ti3_7 2.696168 1_555
Ga1_5 Ti3_6 2.696168 1_556
Ga1_5 Ti1_5 2.732167 1_555
Ga1_5 Ti1_4 2.732167 1_556
Ga1_5 Ti2_1 2.883836 1_555
Ga1_5 Ti2_0 2.883836 1_556
Ga1_5 Ti0_7 2.883836 1_555
Ga1_5 Ti0_6 2.883836 1_556
Ga1_6 Ni0_6 2.516809 1_555
Ga1_6 Ni1_2 2.516813 1_555
Ga1_6 Ti3_4 2.696168 1_565
Ga1_6 Ti3_5 2.696168 1_565
Ga1_6 Ti1_6 2.732167 1_555
Ga1_6 Ti1_7 2.732167 1_555
Ga1_6 Ga1_7 2.820851 1_555
Ga1_6 Ga1_7 2.820851 1_554
Ga1_6 Ti2_3 2.883836 1_555
Ga1_6 Ti2_2 2.883836 1_555
Ga1_6 Ti0_5 2.883836 1_565
Ga1_6 Ti0_4 2.883836 1_565
Ga1_7 Ni0_7 2.516809 1_555
Ga1_7 Ni1_3 2.516813 1_555
Ga1_7 Ti3_5 2.696168 1_565
Ga1_7 Ti3_4 2.696168 1_566
Ga1_7 Ti1_7 2.732167 1_555
Ga1_7 Ti1_6 2.732167 1_556
Ga1_7 Ti2_3 2.883836 1_555
Ga1_7 Ti2_2 2.883836 1_556
Ga1_7 Ti0_5 2.883836 1_565
Ga1_7 Ti0_4 2.883836 1_566
Ga2_0 Ni1_0 2.516809 1_555
Ga2_0 Ni0_2 2.516813 1_545
Ga2_0 Ti3_4 2.696168 1_555
Ga2_0 Ti3_5 2.696168 1_555
Ga2_0 Ti0_1 2.732167 1_555
Ga2_0 Ti0_0 2.732167 1_555
Ga2_0 Ga2_1 2.820851 1_555
Ga2_0 Ga2_1 2.820851 1_554
Ga2_0 Ti2_2 2.883836 1_545
Ga2_0 Ti2_3 2.883836 1_545
Ga2_0 Ti1_5 2.883836 1_555
Ga2_0 Ti1_4 2.883836 1_555
Ga2_1 Ni1_1 2.516809 1_555
Ga2_1 Ni0_3 2.516813 1_545
Ga2_1 Ti3_5 2.696168 1_555
Ga2_1 Ti3_4 2.696168 1_556
Ga2_1 Ti0_1 2.732167 1_555
Ga2_1 Ti0_0 2.732167 1_556
Ga2_1 Ti2_3 2.883836 1_545
Ga2_1 Ti2_2 2.883836 1_546
Ga2_1 Ti1_5 2.883836 1_555
Ga2_1 Ti1_4 2.883836 1_556
Ga2_2 Ni1_2 2.516809 1_555
Ga2_2 Ni0_0 2.516813 1_555
Ga2_2 Ti3_6 2.696168 1_555
Ga2_2 Ti3_7 2.696168 1_555
Ga2_2 Ti0_3 2.732167 1_555
Ga2_2 Ti0_2 2.732167 1_555
Ga2_2 Ga2_3 2.820851 1_555
Ga2_2 Ga2_3 2.820851 1_554
Ga2_2 Ti2_0 2.883836 1_555
Ga2_2 Ti2_1 2.883836 1_555
Ga2_2 Ti1_6 2.883836 1_555
Ga2_2 Ti1_7 2.883836 1_555
Ga2_3 Ni1_3 2.516809 1_555
Ga2_3 Ni0_1 2.516813 1_555
Ga2_3 Ti3_7 2.696168 1_555
Ga2_3 Ti3_6 2.696168 1_556
Ga2_3 Ti0_3 2.732167 1_555
Ga2_3 Ti0_2 2.732167 1_556
Ga2_3 Ti2_1 2.883836 1_555
Ga2_3 Ti2_0 2.883836 1_556
Ga2_3 Ti1_7 2.883836 1_555
Ga2_3 Ti1_6 2.883836 1_556
Ga2_4 Ni1_4 2.516809 1_555
Ga2_4 Ni0_6 2.516813 1_545
Ga2_4 Ti3_0 2.696168 1_655
Ga2_4 Ti3_1 2.696168 1_655
Ga2_4 Ti0_5 2.732167 1_555
Ga2_4 Ti0_4 2.732167 1_555
Ga2_4 Ga2_5 2.820851 1_555
Ga2_4 Ga2_5 2.820851 1_554
Ga2_4 Ti2_6 2.883836 1_545
Ga2_4 Ti2_7 2.883836 1_545
Ga2_4 Ti1_1 2.883836 1_655
Ga2_4 Ti1_0 2.883836 1_655
Ga2_5 Ni1_5 2.516809 1_555
Ga2_5 Ni0_7 2.516813 1_545
Ga2_5 Ti3_1 2.696168 1_655
Ga2_5 Ti3_0 2.696168 1_656
Ga2_5 Ti0_5 2.732167 1_555
Ga2_5 Ti0_4 2.732167 1_556
Ga2_5 Ti2_7 2.883836 1_545
Ga2_5 Ti2_6 2.883836 1_546
Ga2_5 Ti1_1 2.883836 1_655
Ga2_5 Ti1_0 2.883836 1_656
Ga2_6 Ni1_6 2.516809 1_555
Ga2_6 Ni0_4 2.516813 1_555
Ga2_6 Ti3_3 2.696168 1_655
Ga2_6 Ti3_2 2.696168 1_655
Ga2_6 Ti0_6 2.732167 1_555
Ga2_6 Ti0_7 2.732167 1_555
Ga2_6 Ga2_7 2.820851 1_555
Ga2_6 Ga2_7 2.820851 1_554
Ga2_6 Ti2_4 2.883836 1_555
Ga2_6 Ti2_5 2.883836 1_555
Ga2_6 Ti1_3 2.883836 1_655
Ga2_6 Ti1_2 2.883836 1_655
Ga2_7 Ni1_7 2.516809 1_555
Ga2_7 Ni0_5 2.516813 1_555
Ga2_7 Ti3_3 2.696168 1_655
Ga2_7 Ti3_2 2.696168 1_656
Ga2_7 Ti0_7 2.732167 1_555
Ga2_7 Ti0_6 2.732167 1_556
Ga2_7 Ti2_5 2.883836 1_555
Ga2_7 Ti2_4 2.883836 1_556
Ga2_7 Ti1_3 2.883836 1_655
Ga2_7 Ti1_2 2.883836 1_656
Ni0_0 Ti0_3 2.722472 1_555
Ni0_0 Ti0_2 2.722472 1_555
Ni0_0 Ti1_1 2.722475 1_555
Ni0_0 Ti1_0 2.722475 1_555
Ni0_0 Ti2_0 2.722479 1_555
Ni0_0 Ti2_1 2.722479 1_555
Ni0_0 Ni0_1 2.820851 1_555
Ni0_0 Ni0_1 2.820851 1_554
Ni0_1 Ti0_3 2.722472 1_555
Ni0_1 Ti0_2 2.722472 1_556
Ni0_1 Ti1_1 2.722475 1_555
Ni0_1 Ti1_0 2.722475 1_556
Ni0_1 Ti2_1 2.722479 1_555
Ni0_1 Ti2_0 2.722479 1_556
Ni0_2 Ti0_1 2.722472 1_565
Ni0_2 Ti0_0 2.722472 1_565
Ni0_2 Ti1_3 2.722475 1_555
Ni0_2 Ti1_2 2.722475 1_555
Ni0_2 Ti2_2 2.722479 1_555
Ni0_2 Ti2_3 2.722479 1_555
Ni0_2 Ni0_3 2.820851 1_555
Ni0_2 Ni0_3 2.820851 1_554
Ni0_3 Ti0_1 2.722472 1_565
Ni0_3 Ti0_0 2.722472 1_566
Ni0_3 Ti1_3 2.722475 1_555
Ni0_3 Ti1_2 2.722475 1_556
Ni0_3 Ti2_3 2.722479 1_555
Ni0_3 Ti2_2 2.722479 1_556
Ni0_4 Ti0_7 2.722472 1_555
Ni0_4 Ti0_6 2.722472 1_555
Ni0_4 Ti1_5 2.722475 1_555
Ni0_4 Ti1_4 2.722475 1_555
Ni0_4 Ti2_4 2.722479 1_555
Ni0_4 Ti2_5 2.722479 1_555
Ni0_4 Ni0_5 2.820851 1_555
Ni0_4 Ni0_5 2.820851 1_554
Ni0_5 Ti0_7 2.722472 1_555
Ni0_5 Ti0_6 2.722472 1_556
Ni0_5 Ti1_5 2.722475 1_555
Ni0_5 Ti1_4 2.722475 1_556
Ni0_5 Ti2_5 2.722479 1_555
Ni0_5 Ti2_4 2.722479 1_556
Ni0_6 Ti0_4 2.722472 1_565
Ni0_6 Ti0_5 2.722472 1_565
Ni0_6 Ti1_6 2.722475 1_555
Ni0_6 Ti1_7 2.722475 1_555
Ni0_6 Ti2_7 2.722479 1_555
Ni0_6 Ti2_6 2.722479 1_555
Ni0_6 Ni0_7 2.820851 1_555
Ni0_6 Ni0_7 2.820851 1_554
Ni0_7 Ti0_5 2.722472 1_565
Ni0_7 Ti0_4 2.722472 1_566
Ni0_7 Ti1_7 2.722475 1_555
Ni0_7 Ti1_6 2.722475 1_556
Ni0_7 Ti2_7 2.722479 1_555
Ni0_7 Ti2_6 2.722479 1_556
Ni1_0 Ti1_5 2.722472 1_555
Ni1_0 Ti1_4 2.722472 1_555
Ni1_0 Ti0_1 2.722475 1_555
Ni1_0 Ti0_0 2.722475 1_555
Ni1_0 Ti2_0 2.722479 1_555
Ni1_0 Ti2_1 2.722479 1_555
Ni1_0 Ni1_1 2.820851 1_555
Ni1_0 Ni1_1 2.820851 1_554
Ni1_1 Ti1_5 2.722472 1_555
Ni1_1 Ti1_4 2.722472 1_556
Ni1_1 Ti0_1 2.722475 1_555
Ni1_1 Ti0_0 2.722475 1_556
Ni1_1 Ti2_1 2.722479 1_555
Ni1_1 Ti2_0 2.722479 1_556
Ni1_2 Ti1_6 2.722472 1_555
Ni1_2 Ti1_7 2.722472 1_555
Ni1_2 Ti0_2 2.722475 1_555
Ni1_2 Ti0_3 2.722475 1_555
Ni1_2 Ti2_2 2.722479 1_555
Ni1_2 Ti2_3 2.722479 1_555
Ni1_2 Ni1_3 2.820851 1_555
Ni1_2 Ni1_3 2.820851 1_554
Ni1_3 Ti1_7 2.722472 1_555
Ni1_3 Ti1_6 2.722472 1_556
Ni1_3 Ti0_3 2.722475 1_555
Ni1_3 Ti0_2 2.722475 1_556
Ni1_3 Ti2_3 2.722479 1_555
Ni1_3 Ti2_2 2.722479 1_556
Ni1_4 Ti1_0 2.722472 1_655
Ni1_4 Ti1_1 2.722472 1_655
Ni1_4 Ti0_4 2.722475 1_555
Ni1_4 Ti0_5 2.722475 1_555
Ni1_4 Ti2_4 2.722479 1_555
Ni1_4 Ti2_5 2.722479 1_555
Ni1_4 Ni1_5 2.820851 1_555
Ni1_4 Ni1_5 2.820851 1_554
Ni1_5 Ti1_1 2.722472 1_655
Ni1_5 Ti1_0 2.722472 1_656
Ni1_5 Ti0_5 2.722475 1_555
Ni1_5 Ti0_4 2.722475 1_556
Ni1_5 Ti2_5 2.722479 1_555
Ni1_5 Ti2_4 2.722479 1_556
Ni1_6 Ti1_2 2.722472 1_655
Ni1_6 Ti1_3 2.722472 1_655
Ni1_6 Ti0_6 2.722475 1_555
Ni1_6 Ti0_7 2.722475 1_555
Ni1_6 Ti2_7 2.722479 1_555
Ni1_6 Ti2_6 2.722479 1_555
Ni1_6 Ni1_7 2.820851 1_555
Ni1_6 Ni1_7 2.820851 1_554
Ni1_7 Ti1_3 2.722472 1_655
Ni1_7 Ti1_2 2.722472 1_656
Ni1_7 Ti0_7 2.722475 1_555
Ni1_7 Ti0_6 2.722475 1_556
Ni1_7 Ti2_7 2.722479 1_555
Ni1_7 Ti2_6 2.722479 1_556
