# generated using pymatgen
data_K16HfSnAs8
_symmetry_space_group_name_H-M   'P 1'
_cell_length_a   10.93196527
_cell_length_b   10.93196508
_cell_length_c   10.93196585
_cell_angle_alpha   60.00000062
_cell_angle_beta   60.00000118
_cell_angle_gamma   60.00000023
_symmetry_Int_Tables_number   1
_chemical_formula_structural   K16HfSnAs8
_chemical_formula_sum   'K16 Hf1 Sn1 As8'
_cell_volume   923.80382036
_cell_formula_units_Z   1
loop_
 _symmetry_equiv_pos_site_id
 _symmetry_equiv_pos_as_xyz
  1  'x, y, z'
loop_
 _atom_site_type_symbol
 _atom_site_label
 _atom_site_symmetry_multiplicity
 _atom_site_fract_x
 _atom_site_fract_y
 _atom_site_fract_z
 _atom_site_occupancy
  K  K0  1  0.62293276  0.13120073  0.62293276  1
  K  K1  1  0.62293276  0.62293276  0.13120073  1
  K  K2  1  0.13120073  0.62293276  0.62293276  1
  K  K3  1  0.62293276  0.62293276  0.62293276  1
  K  K4  1  0.02313095  0.02313095  0.47686905  1
  K  K5  1  0.77837384  0.22162616  0.22162616  1
  K  K6  1  0.22162616  0.77837384  0.77837384  1
  K  K7  1  0.77837384  0.77837384  0.22162616  1
  K  K8  1  0.77837384  0.22162616  0.77837384  1
  K  K9  1  0.22162616  0.77837384  0.22162616  1
  K  K10  1  0.47686905  0.02313095  0.47686905  1
  K  K11  1  0.47686905  0.02313095  0.02313095  1
  K  K12  1  0.02313095  0.47686905  0.47686905  1
  K  K13  1  0.02313095  0.47686905  0.02313095  1
  K  K14  1  0.22162616  0.22162616  0.77837384  1
  K  K15  1  0.47686905  0.47686905  0.02313095  1
  Hf  Hf0  1  0.75000000  0.75000000  0.75000000  1
  Sn  Sn0  1  0.50000000  0.50000000  0.50000000  1
  As  As0  1  0.39835507  0.80493380  0.39835507  1
  As  As1  1  0.84864985  0.84864985  0.45405044  1
  As  As2  1  0.45405044  0.84864985  0.84864985  1
  As  As3  1  0.84864985  0.84864985  0.84864985  1
  As  As4  1  0.80493380  0.39835507  0.39835507  1
  As  As5  1  0.39835507  0.39835507  0.39835507  1
  As  As6  1  0.39835507  0.39835507  0.80493380  1
  As  As7  1  0.84864985  0.45405044  0.84864985  1
loop_
_geom_bond_atom_site_label_1
_geom_bond_atom_site_label_2
_geom_bond_distance
_geom_bond_site_symmetry_2
K0 Sn0 3.291870 1_555
K1 Sn0 3.291870 1_555
K2 Sn0 3.291870 1_555
K3 Sn0 3.291861 1_555
Hf0 K0 3.402564 1_565
Hf0 K2 3.402564 1_655
Hf0 K1 3.402565 1_556
Hf0 K3 3.402573 1_555
As0 Sn0 2.721812 1_555
As0 K4 3.463310 1_565
As0 K11 3.463311 1_565
As0 K10 3.463318 1_565
As0 K2 3.503060 1_555
As0 K3 3.503060 1_555
As0 K1 3.503060 1_555
As0 K9 3.521936 1_555
As0 K7 3.521945 1_555
As0 K6 3.521945 1_555
As1 Hf0 2.641620 1_555
As1 K12 3.453783 1_655
As1 K4 3.453783 1_665
As1 K10 3.453783 1_565
As1 K5 3.482906 1_565
As1 K9 3.482906 1_655
As1 K7 3.482906 1_555
As1 K0 3.544488 1_565
As1 K2 3.544488 1_655
As1 K3 3.544497 1_555
As2 Hf0 2.641620 1_555
As2 K15 3.453783 1_556
As2 K11 3.453783 1_566
As2 K10 3.453783 1_565
As2 K14 3.482906 1_565
As2 K6 3.482906 1_555
As2 K9 3.482906 1_556
As2 K0 3.544488 1_565
As2 K1 3.544488 1_556
As2 K3 3.544497 1_555
As3 Hf0 2.641620 1_555
As3 K13 3.453783 1_656
As3 K11 3.453783 1_566
As3 K4 3.453783 1_665
As3 K8 3.482906 1_565
As3 K6 3.482906 1_655
As3 K7 3.482906 1_556
As3 K1 3.544495 1_556
As3 K0 3.544495 1_565
As3 K2 3.544495 1_655
As4 Sn0 2.721812 1_555
As4 K4 3.463310 1_655
As4 K13 3.463311 1_655
As4 K12 3.463318 1_655
As4 K0 3.503060 1_555
As4 K3 3.503060 1_555
As4 K1 3.503060 1_555
As4 K5 3.521936 1_555
As4 K7 3.521945 1_555
As4 K8 3.521945 1_555
As5 Sn0 2.721821 1_555
As5 K10 3.463308 1_555
As5 K12 3.463308 1_555
As5 K15 3.463308 1_555
As5 K1 3.503060 1_555
As5 K0 3.503060 1_555
As5 K2 3.503060 1_555
As5 K9 3.521942 1_555
As5 K5 3.521942 1_555
As5 K14 3.521943 1_555
As6 Sn0 2.721813 1_555
As6 K11 3.463310 1_556
As6 K13 3.463310 1_556
As6 K15 3.463318 1_556
As6 K3 3.503060 1_555
As6 K0 3.503060 1_555
As6 K2 3.503060 1_555
As6 K14 3.521935 1_555
As6 K6 3.521945 1_555
As6 K8 3.521945 1_555
As7 Hf0 2.641620 1_555
As7 K15 3.453783 1_556
As7 K13 3.453783 1_656
As7 K12 3.453783 1_655
As7 K8 3.482906 1_555
As7 K14 3.482906 1_655
As7 K5 3.482906 1_556
As7 K2 3.544488 1_655
As7 K1 3.544488 1_556
As7 K3 3.544497 1_555
