# generated using pymatgen
data_InBi3(Ir2O7)2
_symmetry_space_group_name_H-M   'P 1'
_cell_length_a   7.21103026
_cell_length_b   7.21103090
_cell_length_c   7.21102972
_cell_angle_alpha   60.74365506
_cell_angle_beta   60.74364879
_cell_angle_gamma   60.74365447
_symmetry_Int_Tables_number   1
_chemical_formula_structural   InBi3(Ir2O7)2
_chemical_formula_sum   'In1 Bi3 Ir4 O14'
_cell_volume   269.58998117
_cell_formula_units_Z   1
loop_
 _symmetry_equiv_pos_site_id
 _symmetry_equiv_pos_as_xyz
  1  'x, y, z'
loop_
 _atom_site_type_symbol
 _atom_site_label
 _atom_site_symmetry_multiplicity
 _atom_site_fract_x
 _atom_site_fract_y
 _atom_site_fract_z
 _atom_site_occupancy
  In  In0  1  0.12500000  0.12500000  0.12500000  1
  Bi  Bi0  1  0.62500000  0.12500000  0.12500000  1
  Bi  Bi1  1  0.12500000  0.62500000  0.12500000  1
  Bi  Bi2  1  0.12500000  0.12500000  0.62500000  1
  Ir  Ir0  1  0.12500000  0.62500000  0.62500000  1
  Ir  Ir1  1  0.62500000  0.12500000  0.62500000  1
  Ir  Ir2  1  0.62500000  0.62500000  0.12500000  1
  Ir  Ir3  1  0.62500000  0.62500000  0.62500000  1
  O  O0  1  0.70905349  0.70905349  0.29102167  1
  O  O1  1  0.28996273  0.28996273  0.71721034  1
  O  O2  1  0.70905349  0.29102167  0.70905349  1
  O  O3  1  0.28996273  0.71721034  0.28996273  1
  O  O4  1  0.29102167  0.70905349  0.70905349  1
  O  O5  1  0.71721034  0.28996273  0.28996273  1
  O  O6  1  0.54094651  0.54094651  0.95897833  1
  O  O7  1  0.96003727  0.96003727  0.53278966  1
  O  O8  1  0.54094651  0.95897833  0.54094651  1
  O  O9  1  0.96003727  0.53278966  0.96003727  1
  O  O10  1  0.95897833  0.54094651  0.54094651  1
  O  O11  1  0.53278966  0.96003727  0.96003727  1
  O  O12  1  0.24381334  0.24381334  0.24381334  1
  O  O13  1  0.00618666  0.00618666  0.00618666  1
loop_
_geom_bond_atom_site_label_1
_geom_bond_atom_site_label_2
_geom_bond_distance
_geom_bond_site_symmetry_2
In0 O12 2.086769 1_555
In0 O13 2.086769 1_555
In0 O7 2.453998 1_445
In0 O1 2.453998 1_554
In0 O11 2.453998 1_544
In0 O5 2.453998 1_455
In0 O9 2.453999 1_454
In0 O3 2.453999 1_545
Bi0 O13 2.266585 1_655
Bi0 O12 2.266585 1_555
Bi0 O5 2.490290 1_555
Bi0 O11 2.490290 1_544
Bi0 O8 2.493898 1_545
Bi0 O2 2.493898 1_554
Bi0 O6 2.493898 1_554
Bi0 O0 2.493898 1_545
Bi1 O13 2.266586 1_565
Bi1 O12 2.266586 1_555
Bi1 O3 2.490290 1_555
Bi1 O9 2.490290 1_454
Bi1 O10 2.493898 1_455
Bi1 O4 2.493898 1_554
Bi1 O6 2.493898 1_554
Bi1 O0 2.493898 1_455
Bi2 O13 2.266585 1_556
Bi2 O12 2.266585 1_555
Bi2 O1 2.490290 1_555
Bi2 O7 2.490290 1_445
Bi2 O8 2.493898 1_545
Bi2 O2 2.493898 1_455
Bi2 O10 2.493898 1_455
Bi2 O4 2.493898 1_545
Ir0 O4 1.986353 1_555
Ir0 O10 1.986353 1_455
Ir0 O9 2.021856 1_455
Ir0 O3 2.021856 1_555
Ir0 O7 2.021856 1_455
Ir0 O1 2.021856 1_555
Ir1 O2 1.986353 1_555
Ir1 O8 1.986353 1_545
Ir1 O11 2.021856 1_545
Ir1 O5 2.021856 1_555
Ir1 O7 2.021856 1_545
Ir1 O1 2.021856 1_555
Ir2 O0 1.986353 1_555
Ir2 O6 1.986353 1_554
Ir2 O3 2.021856 1_555
Ir2 O9 2.021856 1_554
Ir2 O11 2.021856 1_554
Ir2 O5 2.021856 1_555
Ir3 O6 2.010052 1_555
Ir3 O0 2.010052 1_555
Ir3 O10 2.010052 1_555
Ir3 O4 2.010052 1_555
Ir3 O8 2.010053 1_555
Ir3 O2 2.010053 1_555
