# generated using pymatgen
data_YSc(InPt)2
_symmetry_space_group_name_H-M   'P 1'
_cell_length_a   7.61628154
_cell_length_b   7.61628296
_cell_length_c   7.37817425
_cell_angle_alpha   90.00000000
_cell_angle_beta   90.00000000
_cell_angle_gamma   120.00000654
_symmetry_Int_Tables_number   1
_chemical_formula_structural   YSc(InPt)2
_chemical_formula_sum   'Y3 Sc3 In6 Pt6'
_cell_volume   370.65133729
_cell_formula_units_Z   3
loop_
 _symmetry_equiv_pos_site_id
 _symmetry_equiv_pos_as_xyz
  1  'x, y, z'
loop_
 _atom_site_type_symbol
 _atom_site_label
 _atom_site_symmetry_multiplicity
 _atom_site_fract_x
 _atom_site_fract_y
 _atom_site_fract_z
 _atom_site_occupancy
  Y  Y0  1  0.40274029  0.99977340  0.75000000  1
  Y  Y1  1  0.59703312  0.59725971  0.75000000  1
  Y  Y2  1  0.00022660  0.40296688  0.75000000  1
  Sc  Sc0  1  0.39899174  0.00006747  0.25000000  1
  Sc  Sc1  1  0.60107573  0.60100826  0.25000000  1
  Sc  Sc2  1  0.99993253  0.39892427  0.25000000  1
  In  In0  1  0.26734264  0.26732155  0.00950841  1
  In  In1  1  0.99997891  0.73265736  0.00950841  1
  In  In2  1  0.99997891  0.73265736  0.49049159  1
  In  In3  1  0.73267845  0.00002109  0.49049159  1
  In  In4  1  0.26734264  0.26732155  0.49049159  1
  In  In5  1  0.73267845  0.00002109  0.00950841  1
  Pt  Pt0  1  0.00000000  0.00000000  0.75000000  1
  Pt  Pt1  1  0.00000000  0.00000000  0.25000000  1
  Pt  Pt2  1  0.66666700  0.33333300  0.02247786  1
  Pt  Pt3  1  0.33333300  0.66666700  0.47737318  1
  Pt  Pt4  1  0.33333300  0.66666700  0.02262682  1
  Pt  Pt5  1  0.66666700  0.33333300  0.47752214  1
loop_
_geom_bond_atom_site_label_1
_geom_bond_atom_site_label_2
_geom_bond_distance
_geom_bond_site_symmetry_2
In0 Pt1 2.700752 1_555
In0 Pt0 2.794938 1_554
In0 Pt2 2.825377 1_555
In0 Pt4 2.825631 1_555
In0 Sc1 3.099731 1_555
In0 Y1 3.158482 1_554
In0 Sc0 3.215266 1_555
In0 Sc2 3.215982 1_455
In0 Y2 3.312718 1_554
In0 Y0 3.314086 1_544
In1 Pt1 2.700753 1_665
In1 Pt0 2.794938 1_664
In1 Pt2 2.825374 1_555
In1 Pt4 2.825623 1_655
In1 Sc2 3.099731 1_555
In1 Y2 3.158482 1_654
In1 Sc1 3.215266 1_555
In1 Sc0 3.215982 1_665
In1 Y0 3.312718 1_654
In1 Y1 3.314085 1_554
In2 Pt1 2.700753 1_665
In2 Pt0 2.794938 1_665
In2 Pt5 2.825374 1_555
In2 Pt3 2.825623 1_655
In2 Sc2 3.099731 1_555
In2 Y2 3.158482 1_655
In2 Sc1 3.215266 1_555
In2 Sc0 3.215982 1_665
In2 Y0 3.312718 1_655
In2 Y1 3.314085 1_555
In3 Pt1 2.700752 1_655
In3 Pt0 2.794938 1_655
In3 Pt5 2.825370 1_555
In3 Pt3 2.825628 1_545
In3 Sc0 3.099731 1_555
In3 Y0 3.158482 1_545
In3 Sc2 3.215266 1_555
In3 Sc1 3.215982 1_545
In3 Y1 3.312718 1_545
In3 Y2 3.314086 1_655
In4 Pt1 2.700752 1_555
In4 Pt0 2.794938 1_555
In4 Pt5 2.825377 1_555
In4 Pt3 2.825631 1_555
In4 Sc1 3.099731 1_555
In4 Y1 3.158482 1_555
In4 Sc0 3.215266 1_555
In4 Sc2 3.215982 1_455
In4 Y2 3.312718 1_555
In4 Y0 3.314086 1_545
In5 Pt1 2.700752 1_655
In5 Pt0 2.794938 1_654
In5 Pt2 2.825370 1_555
In5 Pt4 2.825628 1_545
In5 Sc0 3.099731 1_555
In5 Y0 3.158482 1_544
In5 Sc2 3.215266 1_555
In5 Sc1 3.215982 1_545
In5 Y1 3.312718 1_544
In5 Y2 3.314086 1_654
Pt0 Y1 3.068247 1_445
Pt0 Y0 3.068247 1_545
Pt0 Y2 3.068247 1_555
Pt1 Sc1 3.038577 1_445
Pt1 Sc0 3.038577 1_555
Pt1 Sc2 3.038577 1_455
Pt2 Sc2 2.870934 1_555
Pt2 Sc0 2.870936 1_555
Pt2 Sc1 2.870940 1_555
Pt2 Y2 3.070773 1_654
Pt2 Y0 3.070775 1_544
Pt2 Y1 3.070779 1_554
Pt3 Sc0 2.870974 1_565
Pt3 Sc2 2.870975 1_455
Pt3 Sc1 2.870979 1_555
Pt3 Y0 3.069352 1_555
Pt3 Y2 3.069354 1_555
Pt3 Y1 3.069358 1_555
Pt4 Sc0 2.870974 1_565
Pt4 Sc2 2.870975 1_455
Pt4 Sc1 2.870979 1_555
Pt4 Y0 3.069352 1_554
Pt4 Y2 3.069354 1_554
Pt4 Y1 3.069358 1_554
Pt5 Sc2 2.870934 1_555
Pt5 Sc0 2.870936 1_555
Pt5 Sc1 2.870940 1_555
Pt5 Y2 3.070773 1_655
Pt5 Y0 3.070775 1_545
Pt5 Y1 3.070779 1_555
