# generated using pymatgen
data_K2MnVF7
_symmetry_space_group_name_H-M   'P 1'
_cell_length_a   7.72402552
_cell_length_b   7.72402538
_cell_length_c   7.72402607
_cell_angle_alpha   120.54753149
_cell_angle_beta   117.34468522
_cell_angle_gamma   91.85697010
_symmetry_Int_Tables_number   1
_chemical_formula_structural   K2MnVF7
_chemical_formula_sum   'K4 Mn2 V2 F14'
_cell_volume   330.54076646
_cell_formula_units_Z   2
loop_
 _symmetry_equiv_pos_site_id
 _symmetry_equiv_pos_as_xyz
  1  'x, y, z'
loop_
 _atom_site_type_symbol
 _atom_site_label
 _atom_site_symmetry_multiplicity
 _atom_site_fract_x
 _atom_site_fract_y
 _atom_site_fract_z
 _atom_site_occupancy
  K  K0  1  0.50000000  0.50000000  0.00000000  1
  K  K1  1  0.00000000  0.00000000  0.00000000  1
  K  K2  1  0.00000000  0.50000000  0.00000000  1
  K  K3  1  0.00000000  0.00000000  0.50000000  1
  Mn  Mn0  1  0.50000000  0.50000000  0.50000000  1
  Mn  Mn1  1  0.50000000  0.00000000  0.00000000  1
  V  V0  1  0.00000000  0.50000000  0.50000000  1
  V  V1  1  0.50000000  0.00000000  0.50000000  1
  F  F0  1  0.87692855  0.58669463  0.29023292  1
  F  F1  1  0.20353729  0.91330537  0.29023292  1
  F  F2  1  0.18452210  0.80048413  0.75802409  1
  F  F3  1  0.45753996  0.69951587  0.38403797  1
  F  F4  1  0.45753996  0.07350199  0.75802409  1
  F  F5  1  0.18452210  0.42649801  0.38403797  1
  F  F6  1  0.81547790  0.57350199  0.61596203  1
  F  F7  1  0.54246004  0.92649801  0.24197591  1
  F  F8  1  0.54246004  0.30048413  0.61596203  1
  F  F9  1  0.81547790  0.19951587  0.24197591  1
  F  F10  1  0.39157181  0.25000000  0.14157181  1
  F  F11  1  0.12307145  0.41330537  0.70976708  1
  F  F12  1  0.79646271  0.08669463  0.70976708  1
  F  F13  1  0.60842819  0.75000000  0.85842819  1
loop_
_geom_bond_atom_site_label_1
_geom_bond_atom_site_label_2
_geom_bond_distance
_geom_bond_site_symmetry_2
F0 V0 1.925205 1_655
F0 K0 2.510368 1_555
F0 K2 2.617375 1_655
F0 K3 2.617380 1_665
F1 V1 1.925212 1_565
F1 K1 2.510361 1_565
F1 K3 2.617374 1_565
F1 K2 2.617379 1_555
F2 V0 1.965770 1_555
F2 Mn1 2.109669 1_566
F2 K1 2.749770 1_566
F2 K3 3.005503 1_565
F3 V1 1.965770 1_565
F3 Mn0 2.109669 1_555
F3 K0 2.749770 1_555
F3 K2 3.005503 1_555
F4 V1 1.965770 1_555
F4 Mn1 2.109669 1_556
F4 K0 2.749770 1_556
F4 K3 3.005503 1_555
F5 V0 1.965770 1_555
F5 Mn0 2.109669 1_555
F5 K1 2.749770 1_555
F5 K2 3.005503 1_555
F6 V0 1.965770 1_655
F6 Mn0 2.109669 1_555
F6 K1 2.749770 1_666
F6 K2 3.005503 1_656
F7 V1 1.965770 1_565
F7 Mn1 2.109669 1_565
F7 K0 2.749770 1_555
F7 K3 3.005503 1_665
F8 V1 1.965770 1_555
F8 Mn0 2.109669 1_555
F8 K0 2.749770 1_556
F8 K2 3.005503 1_656
F9 V0 1.965770 1_655
F9 Mn1 2.109669 1_555
F9 K1 2.749770 1_655
F9 K3 3.005503 1_655
F10 Mn1 2.103731 1_555
F10 Mn0 2.103731 1_555
F10 K1 2.917001 1_555
F10 K0 2.917001 1_555
F11 V0 1.925205 1_555
F11 K0 2.510368 1_556
F11 K2 2.617375 1_556
F11 K3 2.617380 1_555
F12 V1 1.925212 1_555
F12 K1 2.510361 1_656
F12 K3 2.617374 1_655
F12 K2 2.617379 1_656
F13 Mn1 2.103731 1_566
F13 Mn0 2.103731 1_555
F13 K1 2.917001 1_666
F13 K0 2.917001 1_556
