# generated using pymatgen
data_RbNb2TcSe6
_symmetry_space_group_name_H-M   'P 1'
_cell_length_a   5.94002064
_cell_length_b   5.94002225
_cell_length_c   18.11640635
_cell_angle_alpha   90.00000000
_cell_angle_beta   90.00000000
_cell_angle_gamma   120.00000218
_symmetry_Int_Tables_number   1
_chemical_formula_structural   RbNb2TcSe6
_chemical_formula_sum   'Rb2 Nb4 Tc2 Se12'
_cell_volume   553.57784604
_cell_formula_units_Z   2
loop_
 _symmetry_equiv_pos_site_id
 _symmetry_equiv_pos_as_xyz
  1  'x, y, z'
loop_
 _atom_site_type_symbol
 _atom_site_label
 _atom_site_symmetry_multiplicity
 _atom_site_fract_x
 _atom_site_fract_y
 _atom_site_fract_z
 _atom_site_occupancy
  Rb  Rb0  1  0.00000000  0.00000000  0.00000000  1
  Rb  Rb1  1  0.00000000  0.00000000  0.50000000  1
  Nb  Nb0  1  0.33333300  0.66666700  0.25000000  1
  Nb  Nb1  1  0.66666700  0.33333300  0.75000000  1
  Nb  Nb2  1  0.66666700  0.33333300  0.25000000  1
  Nb  Nb3  1  0.33333300  0.66666700  0.75000000  1
  Tc  Tc0  1  0.00000000  0.00000000  0.75000000  1
  Tc  Tc1  1  0.00000000  0.00000000  0.25000000  1
  Se  Se0  1  0.32553893  0.00000000  0.15925130  1
  Se  Se1  1  1.00000000  0.32553893  0.15925130  1
  Se  Se2  1  0.67446107  0.67446107  0.15925130  1
  Se  Se3  1  0.32553893  0.32553893  0.65925130  1
  Se  Se4  1  0.67446107  0.67446107  0.34074870  1
  Se  Se5  1  0.67446107  1.00000000  0.65925130  1
  Se  Se6  1  0.00000000  0.67446107  0.65925130  1
  Se  Se7  1  0.00000000  0.67446107  0.84074870  1
  Se  Se8  1  0.32553893  0.32553893  0.84074870  1
  Se  Se9  1  1.00000000  0.32553893  0.34074870  1
  Se  Se10  1  0.32553893  0.00000000  0.34074870  1
  Se  Se11  1  0.67446107  1.00000000  0.84074870  1
loop_
_geom_bond_atom_site_label_1
_geom_bond_atom_site_label_2
_geom_bond_distance
_geom_bond_site_symmetry_2
Rb0 Se0 3.473155 1_555
Rb0 Se11 3.473155 1_444
Rb0 Se2 3.473155 1_445
Rb0 Se8 3.473155 1_554
Rb0 Se1 3.473155 1_455
Rb0 Se7 3.473155 1_544
Rb1 Se5 3.473155 1_445
Rb1 Se10 3.473155 1_555
Rb1 Se3 3.473155 1_555
Rb1 Se4 3.473155 1_445
Rb1 Se6 3.473155 1_545
Rb1 Se9 3.473155 1_455
Nb0 Se10 2.591737 1_565
Nb0 Se0 2.591737 1_565
Nb0 Se9 2.591739 1_455
Nb0 Se1 2.591739 1_455
Nb0 Se4 2.591741 1_555
Nb0 Se2 2.591741 1_555
Nb1 Se11 2.591737 1_545
Nb1 Se5 2.591737 1_545
Nb1 Se7 2.591739 1_655
Nb1 Se6 2.591739 1_655
Nb1 Se8 2.591741 1_555
Nb1 Se3 2.591741 1_555
Nb2 Se9 2.591737 1_555
Nb2 Se1 2.591737 1_555
Nb2 Se10 2.591739 1_555
Nb2 Se0 2.591739 1_555
Nb2 Se4 2.591742 1_555
Nb2 Se2 2.591742 1_555
Nb3 Se7 2.591737 1_555
Nb3 Se6 2.591737 1_555
Nb3 Se11 2.591739 1_555
Nb3 Se5 2.591739 1_555
Nb3 Se8 2.591742 1_555
Nb3 Se3 2.591742 1_555
Se0 Tc1 2.538128 1_555
Se1 Tc1 2.538129 1_655
Se2 Tc1 2.538128 1_665
Se3 Tc0 2.538128 1_555
Se4 Tc1 2.538128 1_665
Se5 Tc0 2.538128 1_665
Se6 Tc0 2.538129 1_565
Se7 Tc0 2.538129 1_565
Se8 Tc0 2.538128 1_555
Se9 Tc1 2.538129 1_655
Se10 Tc1 2.538128 1_555
Se11 Tc0 2.538128 1_665
