# generated using pymatgen
data_Sc12Ni4SnOs
_symmetry_space_group_name_H-M   'P 1'
_cell_length_a   7.74230424
_cell_length_b   7.74230395
_cell_length_c   7.74230468
_cell_angle_alpha   111.30567116
_cell_angle_beta   110.78284557
_cell_angle_gamma   106.36942311
_symmetry_Int_Tables_number   1
_chemical_formula_structural   Sc12Ni4SnOs
_chemical_formula_sum   'Sc12 Ni4 Sn1 Os1'
_cell_volume   356.47590256
_cell_formula_units_Z   1
loop_
 _symmetry_equiv_pos_site_id
 _symmetry_equiv_pos_as_xyz
  1  'x, y, z'
loop_
 _atom_site_type_symbol
 _atom_site_label
 _atom_site_symmetry_multiplicity
 _atom_site_fract_x
 _atom_site_fract_y
 _atom_site_fract_z
 _atom_site_occupancy
  Sc  Sc0  1  0.67973090  0.87822811  0.19849720  1
  Sc  Sc1  1  0.32026910  0.51876630  0.19849720  1
  Sc  Sc2  1  0.81917741  0.77523966  0.59441807  1
  Sc  Sc3  1  0.18082259  0.77523966  0.95606225  1
  Sc  Sc4  1  0.81917741  0.22476034  0.04393775  1
  Sc  Sc5  1  0.18082259  0.22476034  0.40558193  1
  Sc  Sc6  1  0.67973090  0.48123370  0.80150280  1
  Sc  Sc7  1  0.32026910  0.12177189  0.80150280  1
  Sc  Sc8  1  0.57794032  0.27450448  0.30343484  1
  Sc  Sc9  1  0.42205968  0.72549552  0.69656516  1
  Sc  Sc10  1  0.02893036  0.72549552  0.30343484  1
  Sc  Sc11  1  0.97106964  0.27450448  0.69656516  1
  Ni  Ni0  1  0.35587289  0.50000000  0.85587289  1
  Ni  Ni1  1  0.64412711  0.50000000  0.14412711  1
  Ni  Ni2  1  0.87735962  0.87735962  0.00000000  1
  Ni  Ni3  1  0.12264038  0.12264038  1.00000000  1
  Sn  Sn0  1  0.50000000  0.00000000  0.50000000  1
  Os  Os0  1  0.00000000  0.50000000  0.50000000  1
loop_
_geom_bond_atom_site_label_1
_geom_bond_atom_site_label_2
_geom_bond_distance
_geom_bond_site_symmetry_2
Sc0 Sn0 3.117637 1_565
Sc0 Sc10 3.210806 1_655
Sc0 Sc9 3.210807 1_554
Sc0 Sc8 3.271122 1_565
Sc0 Sc11 3.271127 1_565
Sc0 Sc3 3.333244 1_554
Sc0 Sc2 3.333251 1_555
Sc0 Sc1 3.335430 1_555
Sc0 Sc4 3.378318 1_565
Sc0 Sc5 3.378320 1_665
Sc1 Sn0 3.117636 1_565
Sc1 Sc11 3.210807 1_454
Sc1 Sc8 3.210812 1_555
Sc1 Sc10 3.271127 1_555
Sc1 Sc9 3.271130 1_555
Sc1 Sc3 3.333244 1_554
Sc1 Sc2 3.333246 1_555
Sc1 Sc5 3.378312 1_555
Sc1 Sc4 3.378318 1_455
Sc2 Sc3 3.180573 1_655
Sc2 Sc8 3.190519 1_555
Sc2 Sc6 3.378312 1_555
Sc2 Sc7 3.378320 1_665
Sc2 Sc9 3.392114 1_555
Sc2 Sn0 3.425717 1_565
Sc3 Sc9 3.190513 1_555
Sc3 Sc7 3.378318 1_565
Sc3 Sc6 3.378318 1_455
Sc3 Sc8 3.392114 1_566
Sc3 Sn0 3.425716 1_566
Sc4 Sc5 3.180573 1_655
Sc4 Sc8 3.190513 1_555
Sc4 Sc6 3.333244 1_554
Sc4 Sc7 3.333244 1_554
Sc4 Sc9 3.392114 1_544
Sc4 Sn0 3.425716 1_554
Sc5 Sc9 3.190519 1_555
Sc5 Sc6 3.333246 1_555
Sc5 Sc7 3.333251 1_555
Sc5 Sc8 3.392114 1_555
Sc5 Sn0 3.425717 1_555
Sc6 Sn0 3.117636 1_555
Sc6 Sc9 3.210812 1_555
Sc6 Sc8 3.271130 1_555
Sc6 Sc7 3.335430 1_555
Sc7 Sn0 3.117637 1_555
Sc7 Sc8 3.210807 1_556
Sc7 Sc9 3.271122 1_545
Sc8 Sn0 3.078367 1_555
Sc9 Sn0 3.078367 1_565
Sc10 Sn0 3.078366 1_565
Sc10 Sc4 3.190519 1_455
Sc10 Sc2 3.190526 1_455
Sc10 Sc6 3.210807 1_454
Sc10 Sc7 3.271127 1_565
Sc10 Sc3 3.392112 1_554
Sc10 Sc5 3.392114 1_565
Sc10 Sc9 3.457477 1_555
Sc11 Sn0 3.078366 1_555
Sc11 Sc3 3.190519 1_655
Sc11 Sc5 3.190526 1_655
Sc11 Sc7 3.210806 1_655
Sc11 Sc6 3.271127 1_555
Sc11 Sc4 3.392112 1_556
Sc11 Sc2 3.392114 1_545
Sc11 Sc8 3.457477 1_555
Ni0 Sc9 2.518129 1_555
Ni0 Sc11 2.518130 1_455
Ni0 Ni1 2.535123 1_556
Ni0 Sc7 2.719437 1_555
Ni0 Sc6 2.719437 1_555
Ni0 Sc0 2.719437 1_556
Ni0 Sc1 2.719437 1_556
Ni0 Sc3 2.855239 1_555
Ni0 Sc5 2.855246 1_555
Ni1 Sc8 2.518129 1_555
Ni1 Sc10 2.518130 1_655
Ni1 Sc0 2.719437 1_555
Ni1 Sc1 2.719437 1_555
Ni1 Sc7 2.719437 1_554
Ni1 Sc6 2.719437 1_554
Ni1 Sc4 2.855239 1_555
Ni1 Sc2 2.855246 1_555
Ni2 Ni3 2.275949 1_664
Ni2 Sc6 2.523912 1_554
Ni2 Sc0 2.523912 1_555
Ni2 Sc2 2.771239 1_554
Ni2 Sc5 2.771243 1_665
Ni2 Sc4 2.771247 1_565
Ni2 Sc3 2.771247 1_654
Ni2 Sc10 3.017826 1_655
Ni2 Sc9 3.017832 1_554
Ni3 Sc1 2.523912 1_556
Ni3 Sc7 2.523912 1_555
Ni3 Sc5 2.771239 1_556
Ni3 Sc2 2.771243 1_445
Ni3 Sc3 2.771247 1_545
Ni3 Sc4 2.771247 1_456
Ni3 Sc11 3.017826 1_455
Ni3 Sc8 3.017832 1_556
Os0 Sc9 2.714128 1_555
Os0 Sc8 2.714128 1_455
Os0 Sc10 2.714134 1_555
Os0 Sc11 2.714134 1_455
Os0 Sc3 2.882929 1_555
Os0 Sc4 2.882929 1_455
Os0 Sc2 2.882930 1_455
Os0 Sc5 2.882930 1_555
