# generated using pymatgen
data_CeSi4Ni9
_symmetry_space_group_name_H-M   'P 1'
_cell_length_a   7.95398184
_cell_length_b   7.95398184
_cell_length_c   7.95398184
_cell_angle_alpha   121.02618574
_cell_angle_beta   121.02618574
_cell_angle_gamma   88.23159784
_symmetry_Int_Tables_number   1
_chemical_formula_structural   CeSi4Ni9
_chemical_formula_sum   'Ce2 Si8 Ni18'
_cell_volume   350.12672371
_cell_formula_units_Z   2
loop_
 _symmetry_equiv_pos_site_id
 _symmetry_equiv_pos_as_xyz
  1  'x, y, z'
loop_
 _atom_site_type_symbol
 _atom_site_label
 _atom_site_symmetry_multiplicity
 _atom_site_fract_x
 _atom_site_fract_y
 _atom_site_fract_z
 _atom_site_occupancy
  Ce  Ce0  1  0.75000000  0.75000000  0.00000000  1
  Ce  Ce1  1  0.25000000  0.25000000  0.00000000  1
  Si  Si0  1  0.44626800  0.94626800  0.15863000  1
  Si  Si1  1  0.21236100  0.71236100  0.15863000  1
  Si  Si2  1  0.71236100  0.55373200  0.50000000  1
  Si  Si3  1  0.94626800  0.78763900  0.50000000  1
  Si  Si4  1  0.28763900  0.44626800  0.50000000  1
  Si  Si5  1  0.78763900  0.28763900  0.84137000  1
  Si  Si6  1  0.55373200  0.05373200  0.84137000  1
  Si  Si7  1  0.05373200  0.21236100  0.50000000  1
  Ni  Ni0  1  0.56902500  0.70379300  0.27281800  1
  Ni  Ni1  1  0.79620700  0.93097500  0.72718200  1
  Ni  Ni2  1  0.31799800  0.81799800  0.76389700  1
  Ni  Ni3  1  0.81799800  0.05410100  0.50000000  1
  Ni  Ni4  1  0.43097500  0.29620700  0.72718200  1
  Ni  Ni5  1  0.18200200  0.94589900  0.50000000  1
  Ni  Ni6  1  0.44589900  0.68200200  0.50000000  1
  Ni  Ni7  1  0.94589900  0.44589900  0.76389700  1
  Ni  Ni8  1  0.68200200  0.18200200  0.23610300  1
  Ni  Ni9  1  0.05410100  0.55410100  0.23610300  1
  Ni  Ni10  1  0.50000000  0.00000000  0.50000000  1
  Ni  Ni11  1  0.00000000  0.50000000  0.50000000  1
  Ni  Ni12  1  0.29620700  0.56902500  0.86523200  1
  Ni  Ni13  1  0.93097500  0.20379300  0.13476800  1
  Ni  Ni14  1  0.06902500  0.79620700  0.86523200  1
  Ni  Ni15  1  0.20379300  0.06902500  0.27281800  1
  Ni  Ni16  1  0.55410100  0.31799800  0.50000000  1
  Ni  Ni17  1  0.70379300  0.43097500  0.13476800  1
loop_
_geom_bond_atom_site_label_1
_geom_bond_atom_site_label_2
_geom_bond_distance
_geom_bond_site_symmetry_2
Ce0 Ni9 3.147471 1_655
Ce0 Ni7 3.147471 1_554
Ce0 Ni3 3.147471 1_565
Ce0 Ni8 3.147471 1_565
Ce0 Ni16 3.147471 1_554
Ce0 Ni6 3.147471 1_554
Ce0 Ni2 3.147471 1_554
Ce0 Ni5 3.147471 1_655
Ce0 Si1 3.277880 1_655
Ce0 Si5 3.277880 1_554
Ce0 Si7 3.277881 1_665
Ce0 Si3 3.277881 1_555
Ce0 Si2 3.277881 1_554
Ce0 Si4 3.277881 1_554
Ce0 Si6 3.277886 1_564
Ce0 Si0 3.277886 1_555
Ce0 Ni14 3.315244 1_654
Ce0 Ni4 3.315244 1_554
Ce0 Ni1 3.315244 1_554
Ce0 Ni17 3.315244 1_555
Ce0 Ni0 3.315244 1_555
Ce0 Ni12 3.315244 1_554
Ce0 Ni15 3.315244 1_665
Ce0 Ni13 3.315244 1_565
Ce1 Ni3 3.147471 1_454
Ce1 Ni8 3.147471 1_555
Ce1 Ni16 3.147471 1_555
Ce1 Ni6 3.147471 1_555
Ce1 Ni2 3.147471 1_544
Ce1 Ni5 3.147471 1_544
Ce1 Ni9 3.147471 1_555
Ce1 Ni7 3.147471 1_454
Ce1 Si1 3.277880 1_555
Ce1 Si5 3.277880 1_454
Ce1 Si7 3.277881 1_554
Ce1 Si2 3.277881 1_555
Ce1 Si4 3.277881 1_555
Ce1 Si3 3.277881 1_444
Ce1 Si0 3.277886 1_545
Ce1 Si6 3.277886 1_554
Ce1 Ni15 3.315244 1_555
Ce1 Ni14 3.315244 1_544
Ce1 Ni1 3.315244 1_444
Ce1 Ni4 3.315244 1_554
Ce1 Ni13 3.315244 1_455
Ce1 Ni17 3.315244 1_555
Ce1 Ni0 3.315244 1_555
Ce1 Ni12 3.315244 1_554
Si0 Si1 2.671422 1_555
Si2 Si3 2.671422 1_555
Si4 Si7 2.671422 1_555
Si5 Si6 2.671422 1_555
Ni0 Ni10 2.381529 1_565
Ni0 Ni12 2.382675 1_554
Ni0 Ni17 2.382675 1_555
Ni0 Si3 2.450583 1_555
Ni0 Si2 2.450583 1_555
Ni0 Si0 2.504651 1_555
Ni0 Si1 2.504657 1_555
Ni0 Ni1 2.515746 1_555
Ni0 Ni3 2.532199 1_565
Ni0 Ni6 2.532199 1_555
Ni1 Ni10 2.381529 1_565
Ni1 Ni14 2.382675 1_655
Ni1 Ni13 2.382675 1_566
Ni1 Si3 2.450583 1_555
Ni1 Si2 2.450583 1_555
Ni1 Si6 2.504651 1_565
Ni1 Si5 2.504657 1_565
Ni1 Ni3 2.532199 1_565
Ni1 Ni6 2.532199 1_555
Ni2 Si6 2.290410 1_565
Ni2 Si0 2.323682 1_556
Ni2 Si3 2.516005 1_455
Ni2 Si4 2.516005 1_555
Ni2 Ni5 2.530560 1_555
Ni2 Ni6 2.530560 1_555
Ni3 Si7 2.290406 1_655
Ni3 Si3 2.323675 1_545
Ni3 Si5 2.515999 1_555
Ni3 Si0 2.516002 1_545
Ni3 Ni7 2.530560 1_555
Ni3 Ni8 2.530560 1_555
Ni4 Si4 2.450583 1_555
Ni4 Si7 2.450583 1_555
Ni4 Si6 2.504651 1_555
Ni4 Si5 2.504657 1_555
Ni4 Ni5 2.532199 1_545
Ni5 Si3 2.290406 1_455
Ni5 Si7 2.323675 1_565
Ni5 Si1 2.515999 1_555
Ni5 Si6 2.516002 1_565
Ni5 Ni9 2.530560 1_555
Ni6 Si4 2.290406 1_555
Ni6 Si2 2.323675 1_555
Ni6 Si1 2.515999 1_555
Ni6 Si6 2.516002 1_565
Ni6 Ni9 2.530560 1_555
Ni7 Si5 2.290399 1_555
Ni7 Si1 2.323678 1_656
Ni7 Si2 2.516005 1_555
Ni7 Si7 2.516005 1_655
Ni8 Si0 2.290410 1_545
Ni8 Si6 2.323682 1_554
Ni8 Si7 2.516005 1_655
Ni8 Si2 2.516005 1_555
Ni9 Si1 2.290399 1_555
Ni9 Si5 2.323678 1_454
Ni9 Si3 2.516005 1_455
Ni9 Si4 2.516005 1_555
Ni10 Si0 2.314443 1_545
Ni10 Si6 2.314443 1_555
Ni10 Si1 2.314449 1_545
Ni10 Si5 2.314449 1_555
Ni10 Ni4 2.381529 1_555
Ni10 Ni15 2.381529 1_555
Ni10 Ni3 2.578752 1_555
Ni10 Ni6 2.578752 1_545
Ni10 Ni16 2.578752 1_555
Ni10 Ni5 2.578752 1_545
Ni11 Si7 2.314451 1_555
Ni11 Si3 2.314451 1_455
Ni11 Si2 2.314451 1_455
Ni11 Si4 2.314451 1_555
Ni11 Ni13 2.381529 1_455
Ni11 Ni14 2.381529 1_555
Ni11 Ni17 2.381529 1_455
Ni11 Ni12 2.381529 1_555
Ni11 Ni7 2.578752 1_455
Ni11 Ni8 2.578752 1_455
Ni11 Ni2 2.578752 1_555
Ni11 Ni9 2.578752 1_555
Ni12 Ni4 2.382675 1_555
Ni12 Si0 2.450583 1_556
Ni12 Si1 2.450590 1_556
Ni12 Si4 2.504655 1_555
Ni12 Si7 2.504655 1_555
Ni12 Ni14 2.515746 1_555
Ni12 Ni7 2.532199 1_455
Ni12 Ni2 2.532199 1_555
Ni13 Ni15 2.382675 1_655
Ni13 Si6 2.450583 1_554
Ni13 Si5 2.450590 1_554
Ni13 Si4 2.504655 1_655
Ni13 Si7 2.504655 1_655
Ni13 Ni17 2.515746 1_555
Ni13 Ni8 2.532199 1_555
Ni13 Ni9 2.532199 1_655
Ni14 Ni15 2.382675 1_566
Ni14 Si0 2.450583 1_556
Ni14 Si1 2.450590 1_556
Ni14 Si3 2.504655 1_455
Ni14 Si2 2.504655 1_455
Ni14 Ni7 2.532199 1_455
Ni14 Ni2 2.532199 1_555
Ni15 Si4 2.450583 1_555
Ni15 Si7 2.450583 1_555
Ni15 Si0 2.504651 1_545
Ni15 Si1 2.504657 1_545
Ni15 Ni4 2.515746 1_555
Ni15 Ni16 2.532199 1_555
Ni15 Ni5 2.532199 1_545
Ni16 Si2 2.290406 1_555
Ni16 Si4 2.323675 1_555
Ni16 Si5 2.515999 1_555
Ni16 Si0 2.516002 1_545
Ni16 Ni7 2.530560 1_555
Ni16 Ni8 2.530560 1_555
Ni16 Ni4 2.532199 1_555
Ni17 Ni4 2.382675 1_554
Ni17 Si6 2.450583 1_554
Ni17 Si5 2.450590 1_554
Ni17 Si2 2.504655 1_555
Ni17 Si3 2.504655 1_555
Ni17 Ni8 2.532199 1_555
Ni17 Ni9 2.532199 1_655
