# generated using pymatgen
data_Rb2Te3RuO12
_symmetry_space_group_name_H-M   'P 1'
_cell_length_a   7.08784045
_cell_length_b   7.08784031
_cell_length_c   7.08816201
_cell_angle_alpha   61.24860703
_cell_angle_beta   61.24860815
_cell_angle_gamma   61.25460247
_symmetry_Int_Tables_number   1
_chemical_formula_structural   Rb2Te3RuO12
_chemical_formula_sum   'Rb2 Te3 Ru1 O12'
_cell_volume   258.87550927
_cell_formula_units_Z   1
loop_
 _symmetry_equiv_pos_site_id
 _symmetry_equiv_pos_as_xyz
  1  'x, y, z'
loop_
 _atom_site_type_symbol
 _atom_site_label
 _atom_site_symmetry_multiplicity
 _atom_site_fract_x
 _atom_site_fract_y
 _atom_site_fract_z
 _atom_site_occupancy
  Rb  Rb0  1  0.86961859  0.87613286  0.37242551  1
  Rb  Rb1  1  0.12386714  0.13038141  0.62757449  1
  Te  Te0  1  0.99576441  0.50430284  0.99993019  1
  Te  Te1  1  0.49569716  0.00423559  0.00006981  1
  Te  Te2  1  0.49589648  0.50410352  0.50000000  1
  Ru  Ru0  1  0.49604042  0.50395958  1.00000000  1
  O  O0  1  0.17539396  0.18360921  0.07157005  1
  O  O1  1  0.57179458  0.58001732  0.67054809  1
  O  O2  1  0.16657884  0.57994098  0.07575869  1
  O  O3  1  0.56756078  0.18354391  0.67953150  1
  O  O4  1  0.57182624  0.17460395  0.07591305  1
  O  O5  1  0.17541461  0.57573684  0.67948526  1
  O  O6  1  0.81639079  0.82460604  0.92842995  1
  O  O7  1  0.41998268  0.42820542  0.32945191  1
  O  O8  1  0.82539605  0.42817376  0.92408695  1
  O  O9  1  0.42426316  0.82458539  0.32051474  1
  O  O10  1  0.42005902  0.83342116  0.92424131  1
  O  O11  1  0.81645609  0.43243922  0.32046850  1
loop_
_geom_bond_atom_site_label_1
_geom_bond_atom_site_label_2
_geom_bond_distance
_geom_bond_site_symmetry_2
O0 Te1 1.940130 1_555
O0 Te0 1.942558 1_454
O0 Rb0 3.101627 1_445
O1 Te2 1.889459 1_555
O1 Ru0 1.973125 1_555
O1 Rb0 3.004975 1_555
O2 Te0 1.889350 1_454
O2 Ru0 1.973242 1_554
O2 Rb0 2.999710 1_455
O3 Te1 1.941188 1_556
O3 Te2 1.941646 1_555
O3 Rb0 3.108425 1_545
O4 Te1 1.889075 1_555
O4 Ru0 1.972598 1_554
O4 Rb0 3.007190 1_545
O5 Te2 1.941170 1_555
O5 Te0 1.941192 1_455
O5 Rb0 3.099941 1_455
O6 Te0 1.940130 1_555
O6 Te1 1.942558 1_566
O6 Rb1 3.101627 1_665
O7 Te2 1.889459 1_555
O7 Ru0 1.973125 1_554
O7 Rb1 3.004975 1_555
O8 Te0 1.889075 1_555
O8 Ru0 1.972598 1_555
O8 Rb1 3.007190 1_655
O9 Te2 1.941170 1_555
O9 Te1 1.941192 1_565
O9 Rb1 3.099941 1_565
O10 Te1 1.889350 1_566
O10 Ru0 1.973242 1_555
O10 Rb1 2.999710 1_565
O11 Te0 1.941188 1_554
O11 Te2 1.941646 1_555
O11 Rb1 3.108424 1_655
