# generated using pymatgen
data_K4NaSb2Au
_symmetry_space_group_name_H-M   'P 1'
_cell_length_a   6.83259210
_cell_length_b   6.83259277
_cell_length_c   6.24395566
_cell_angle_alpha   93.27535318
_cell_angle_beta   93.27535378
_cell_angle_gamma   99.56545197
_symmetry_Int_Tables_number   1
_chemical_formula_structural   K4NaSb2Au
_chemical_formula_sum   'K4 Na1 Sb2 Au1'
_cell_volume   286.31447420
_cell_formula_units_Z   1
loop_
 _symmetry_equiv_pos_site_id
 _symmetry_equiv_pos_as_xyz
  1  'x, y, z'
loop_
 _atom_site_type_symbol
 _atom_site_label
 _atom_site_symmetry_multiplicity
 _atom_site_fract_x
 _atom_site_fract_y
 _atom_site_fract_z
 _atom_site_occupancy
  K  K0  1  0.81099512  0.46460041  0.73813647  1
  K  K1  1  0.53539959  0.18900488  0.26186353  1
  K  K2  1  0.46460041  0.81099512  0.73813647  1
  K  K3  1  0.18900488  0.53539959  0.26186353  1
  Na  Na0  1  0.00000000  0.00000000  0.00000000  1
  Sb  Sb0  1  0.73112246  0.73112246  0.26227017  1
  Sb  Sb1  1  0.26887754  0.26887754  0.73772983  1
  Au  Au0  1  0.00000000  0.00000000  0.50000000  1
loop_
_geom_bond_atom_site_label_1
_geom_bond_atom_site_label_2
_geom_bond_distance
_geom_bond_site_symmetry_2
K0 Sb1 3.600973 1_655
K0 Sb0 3.633985 1_555
K0 Sb1 3.723004 1_555
K0 Sb0 3.765333 1_556
K1 Sb0 3.600974 1_545
K1 Sb1 3.633985 1_555
K1 Sb0 3.723004 1_555
K1 Sb1 3.765333 1_554
K2 Sb1 3.600974 1_565
K2 Sb0 3.633985 1_555
K2 Sb1 3.723004 1_555
K2 Sb0 3.765333 1_556
K3 Sb0 3.600973 1_455
K3 Sb1 3.633985 1_555
K3 Sb0 3.723004 1_555
K3 Sb1 3.765333 1_554
Na0 Sb1 2.999618 1_554
Na0 Sb0 2.999618 1_445
Au0 Sb1 2.684875 1_555
Au0 Sb0 2.684875 1_445
Au0 Na0 3.121978 1_555
Au0 Na0 3.121978 1_556
Au0 K2 3.872735 1_545
Au0 K1 3.872735 1_455
Au0 K0 3.872736 1_455
Au0 K3 3.872736 1_545
