# generated using pymatgen
data_K4Sr2SnP4
_symmetry_space_group_name_H-M   'P 1'
_cell_length_a   10.17480353
_cell_length_b   10.17480320
_cell_length_c   7.57850108
_cell_angle_alpha   88.25195626
_cell_angle_beta   88.25195224
_cell_angle_gamma   119.63511307
_symmetry_Int_Tables_number   1
_chemical_formula_structural   K4Sr2SnP4
_chemical_formula_sum   'K8 Sr4 Sn2 P8'
_cell_volume   680.69135686
_cell_formula_units_Z   2
loop_
 _symmetry_equiv_pos_site_id
 _symmetry_equiv_pos_as_xyz
  1  'x, y, z'
loop_
 _atom_site_type_symbol
 _atom_site_label
 _atom_site_symmetry_multiplicity
 _atom_site_fract_x
 _atom_site_fract_y
 _atom_site_fract_z
 _atom_site_occupancy
  K  K0  1  0.47824690  0.94680648  0.38096981  1
  K  K1  1  0.94680648  0.47824690  0.88096981  1
  K  K2  1  0.86345759  0.71722567  0.16842874  1
  K  K3  1  0.27462904  0.12960317  0.23263584  1
  K  K4  1  0.85114788  0.14153030  0.19432795  1
  K  K5  1  0.12960317  0.27462904  0.73263584  1
  K  K6  1  0.71722567  0.86345759  0.66842874  1
  K  K7  1  0.14153030  0.85114788  0.69432795  1
  Sr  Sr0  1  0.06437579  0.53005339  0.38871728  1
  Sr  Sr1  1  0.47774245  0.52972717  0.37779108  1
  Sr  Sr2  1  0.53005339  0.06437579  0.88871728  1
  Sr  Sr3  1  0.52972717  0.47774245  0.87779108  1
  Sn  Sn0  1  0.66404844  0.33331179  0.49433301  1
  Sn  Sn1  1  0.33331179  0.66404844  0.99433301  1
  P  P0  1  0.64713035  0.33126552  0.15699764  1
  P  P1  1  0.33126552  0.64713035  0.65699764  1
  P  P2  1  0.20761836  0.39642960  0.13562311  1
  P  P3  1  0.60794734  0.79656367  0.08107126  1
  P  P4  1  0.20541065  0.80584444  0.10313628  1
  P  P5  1  0.79656367  0.60794734  0.58107126  1
  P  P6  1  0.39642960  0.20761836  0.63562311  1
  P  P7  1  0.80584444  0.20541065  0.60313628  1
loop_
_geom_bond_atom_site_label_1
_geom_bond_atom_site_label_2
_geom_bond_distance
_geom_bond_site_symmetry_2
K0 P4 3.286371 1_555
K0 P1 3.289400 1_555
K0 P3 3.356791 1_555
K0 P7 3.578795 1_565
K0 P6 3.722745 1_565
K0 P0 3.728989 1_565
K1 P7 3.286371 1_555
K1 P0 3.289400 1_556
K1 P5 3.356791 1_555
K1 P4 3.578795 1_656
K1 P2 3.722745 1_656
K1 P1 3.728989 1_655
K2 P4 3.150973 1_655
K2 P3 3.161740 1_555
K2 P5 3.223134 1_555
K2 P0 3.429030 1_555
K3 P2 3.180497 1_555
K3 P4 3.202472 1_545
K3 P6 3.301372 1_555
K3 P0 3.317923 1_555
K4 P7 3.250465 1_555
K4 P2 3.256984 1_655
K4 P3 3.302075 1_545
K4 P0 3.475875 1_555
K5 P6 3.180497 1_555
K5 P7 3.202472 1_455
K5 P2 3.301372 1_556
K5 P1 3.317923 1_555
K6 P7 3.150973 1_565
K6 P5 3.161740 1_555
K6 P3 3.223134 1_556
K6 P1 3.429030 1_555
K7 P4 3.250465 1_556
K7 P6 3.256984 1_565
K7 P5 3.302075 1_455
K7 P1 3.475875 1_555
P0 Sn0 2.567546 1_555
P0 Sr3 3.138146 1_554
P0 Sr2 3.195700 1_554
P0 Sr1 3.649642 1_555
P1 Sn1 2.567546 1_555
P1 Sr1 3.138146 1_555
P1 Sr0 3.195700 1_555
P1 Sr3 3.649643 1_555
P2 Sn1 2.547810 1_554
P2 Sr1 3.087856 1_555
P2 Sr0 3.098375 1_555
P2 Sr3 3.474616 1_554
P3 Sn1 2.549238 1_554
P3 Sr1 3.173588 1_555
P3 Sr3 3.369919 1_554
P3 Sr2 3.484596 1_564
P4 Sn1 2.513741 1_554
P4 Sr0 3.174168 1_555
P4 Sr2 3.360033 1_564
P5 Sn0 2.549238 1_555
P5 Sr3 3.173588 1_555
P5 Sr1 3.369920 1_555
P5 Sr0 3.484596 1_655
P6 Sn0 2.547810 1_555
P6 Sr3 3.087856 1_555
P6 Sr2 3.098375 1_555
P6 Sr1 3.474616 1_555
P7 Sn0 2.513741 1_555
P7 Sr2 3.174168 1_555
P7 Sr0 3.360033 1_655
