# generated using pymatgen
data_Al2CoO4
_symmetry_space_group_name_H-M   'P 1'
_cell_length_a   5.78268933
_cell_length_b   5.78268933
_cell_length_c   14.15898761
_cell_angle_alpha   89.65203420
_cell_angle_beta   89.65203420
_cell_angle_gamma   59.84643796
_symmetry_Int_Tables_number   1
_chemical_formula_structural   Al2CoO4
_chemical_formula_sum   'Al12 Co6 O24'
_cell_volume   409.39052429
_cell_formula_units_Z   6
loop_
 _symmetry_equiv_pos_site_id
 _symmetry_equiv_pos_as_xyz
  1  'x, y, z'
loop_
 _atom_site_type_symbol
 _atom_site_label
 _atom_site_symmetry_multiplicity
 _atom_site_fract_x
 _atom_site_fract_y
 _atom_site_fract_z
 _atom_site_occupancy
  Al  Al0  1  0.33166700  0.33166700  0.91472200  1
  Al  Al1  1  0.83250300  0.32954400  0.79201400  1
  Al  Al2  1  0.83401600  0.83401600  0.79217600  1
  Al  Al3  1  0.32954400  0.83250300  0.79201400  1
  Al  Al4  1  0.16677800  0.66604100  0.45782700  1
  Al  Al5  1  0.99972300  0.99972300  0.62428200  1
  Al  Al6  1  0.16663200  0.16663200  0.45783600  1
  Al  Al7  1  0.66604100  0.16677800  0.45782700  1
  Al  Al8  1  0.50421600  0.99615500  0.12510300  1
  Al  Al9  1  0.33330300  0.33330300  0.29112600  1
  Al  Al10  1  0.50253400  0.50253400  0.12502300  1
  Al  Al11  1  0.99615500  0.50421600  0.12510300  1
  Co  Co0  1  0.00110800  0.00110800  0.00234000  1
  Co  Co1  1  0.33311900  0.33311900  0.66659800  1
  Co  Co2  1  0.66666300  0.66666300  0.96049700  1
  Co  Co3  1  0.66648400  0.66648400  0.58490800  1
  Co  Co4  1  0.66644000  0.66644000  0.33402000  1
  Co  Co5  1  0.99978800  0.99978800  0.24723000  1
  O  O0  1  0.99130800  0.50145700  0.86790400  1
  O  O1  1  0.66693900  0.66693900  0.72761200  1
  O  O2  1  0.49796100  0.49796100  0.86411300  1
  O  O3  1  0.50145700  0.99130800  0.86790400  1
  O  O4  1  0.14606500  0.70623700  0.71205600  1
  O  O5  1  0.29577900  0.85110900  0.53678000  1
  O  O6  1  0.14623400  0.14623400  0.71242900  1
  O  O7  1  0.00038000  0.00038000  0.38862200  1
  O  O8  1  0.85208900  0.85208900  0.53700400  1
  O  O9  1  0.99865000  0.99865000  0.86125800  1
  O  O10  1  0.85110900  0.29577900  0.53678000  1
  O  O11  1  0.70623700  0.14606500  0.71205600  1
  O  O12  1  0.62399800  0.18859900  0.20250100  1
  O  O13  1  0.48119400  0.03853400  0.37992900  1
  O  O14  1  0.48023300  0.48023300  0.37977000  1
  O  O15  1  0.33407300  0.33407300  0.04391400  1
  O  O16  1  0.33257100  0.33257100  0.52736100  1
  O  O17  1  0.18801600  0.18801600  0.20192200  1
  O  O18  1  0.18859900  0.62399800  0.20250100  1
  O  O19  1  0.03853400  0.48119400  0.37992900  1
  O  O20  1  0.81933500  0.36585500  0.05174000  1
  O  O21  1  0.82419200  0.82419200  0.05654900  1
  O  O22  1  0.66559400  0.66559400  0.19614200  1
  O  O23  1  0.36585500  0.81933500  0.05174000  1
loop_
_geom_bond_atom_site_label_1
_geom_bond_atom_site_label_2
_geom_bond_distance
_geom_bond_site_symmetry_2
Al0 O2 1.809752 1_555
Al0 O3 1.828591 1_545
Al0 O0 1.828591 1_455
Al0 O15 1.829556 1_556
Al1 O1 1.914970 1_555
Al1 O9 1.920251 1_545
Al1 O6 1.934537 1_655
Al1 O11 1.934808 1_555
Al1 O2 1.956629 1_555
Al1 O0 1.981995 1_555
Al2 O1 1.913593 1_555
Al2 O9 1.924223 1_555
Al2 O4 1.932572 1_655
Al2 O11 1.932572 1_565
Al2 O3 1.976047 1_555
Al2 O0 1.976047 1_555
Al3 O1 1.914970 1_555
Al3 O9 1.920251 1_455
Al3 O6 1.934537 1_565
Al3 O4 1.934808 1_555
Al3 O2 1.956629 1_555
Al3 O3 1.981995 1_555
Al4 O14 1.922237 1_555
Al4 O19 1.931239 1_555
Al4 O16 1.933409 1_555
Al4 O7 1.934799 1_565
Al4 O8 1.936167 1_455
Al4 O5 1.943751 1_555
Al5 O4 1.919697 1_655
Al5 O11 1.919697 1_565
Al5 O5 1.927054 1_655
Al5 O10 1.927054 1_565
Al5 O6 1.933930 1_665
Al5 O8 1.934594 1_555
Al6 O19 1.925146 1_555
Al6 O13 1.925146 1_555
Al6 O5 1.937170 1_545
Al6 O10 1.937170 1_455
Al6 O16 1.938714 1_555
Al6 O7 1.939162 1_555
Al7 O14 1.922237 1_555
Al7 O13 1.931239 1_555
Al7 O16 1.933409 1_555
Al7 O7 1.934799 1_655
Al7 O8 1.936167 1_545
Al7 O10 1.943751 1_555
Al8 O21 1.869788 1_555
Al8 O23 1.899877 1_555
Al8 O17 1.926077 1_565
Al8 O12 1.928103 1_565
Al8 O22 1.931958 1_555
Al8 O15 2.040310 1_565
Al9 O12 1.916915 1_555
Al9 O18 1.916915 1_555
Al9 O19 1.934003 1_555
Al9 O13 1.934003 1_555
Al9 O17 1.934392 1_555
Al9 O14 1.941719 1_555
Al10 O20 1.894634 1_555
Al10 O23 1.894634 1_555
Al10 O18 1.922645 1_555
Al10 O12 1.922645 1_555
Al10 O22 1.925749 1_555
Al10 O15 2.048756 1_555
Al11 O21 1.869788 1_555
Al11 O20 1.899877 1_555
Al11 O17 1.926077 1_655
Al11 O18 1.928103 1_655
Al11 O22 1.931958 1_555
Al11 O15 2.040310 1_655
Co0 O21 1.927382 1_445
Co0 O20 1.955647 1_455
Co0 O23 1.955647 1_545
Co0 O9 1.997903 1_444
Co1 O16 1.971501 1_555
Co1 O4 1.975696 1_555
Co1 O11 1.975696 1_555
Co1 O6 1.978182 1_555
Co2 O23 1.979388 1_556
Co2 O20 1.979388 1_556
Co2 O0 2.083101 1_555
Co2 O3 2.083101 1_555
Co2 O21 2.091168 1_556
Co2 O2 2.180427 1_555
Co3 O8 1.975754 1_555
Co3 O5 1.977162 1_555
Co3 O10 1.977162 1_555
Co3 O1 2.020581 1_555
Co4 O22 1.952291 1_555
Co4 O14 1.971394 1_555
Co4 O19 1.973009 1_655
Co4 O13 1.973009 1_565
Co5 O18 1.984976 1_655
Co5 O12 1.984976 1_565
Co5 O17 1.988551 1_665
Co5 O7 2.002018 1_665
