# generated using pymatgen
data_Lu10Si4SnSb3
_symmetry_space_group_name_H-M   'P 1'
_cell_length_a   8.30064091
_cell_length_b   8.30064175
_cell_length_c   7.69866741
_cell_angle_alpha   89.86693878
_cell_angle_beta   89.86693834
_cell_angle_gamma   124.87808581
_symmetry_Int_Tables_number   1
_chemical_formula_structural   Lu10Si4SnSb3
_chemical_formula_sum   'Lu10 Si4 Sn1 Sb3'
_cell_volume   435.15451839
_cell_formula_units_Z   1
loop_
 _symmetry_equiv_pos_site_id
 _symmetry_equiv_pos_as_xyz
  1  'x, y, z'
loop_
 _atom_site_type_symbol
 _atom_site_label
 _atom_site_symmetry_multiplicity
 _atom_site_fract_x
 _atom_site_fract_y
 _atom_site_fract_z
 _atom_site_occupancy
  Lu  Lu0  1  0.03812058  0.28620535  0.33444774  1
  Lu  Lu1  1  0.95963487  0.70956412  0.66554432  1
  Lu  Lu2  1  0.46268584  0.21274628  0.83812909  1
  Lu  Lu3  1  0.78725372  0.53731416  0.16187091  1
  Lu  Lu4  1  0.54048966  0.78915292  0.16180945  1
  Lu  Lu5  1  0.21084708  0.45951034  0.83819055  1
  Lu  Lu6  1  0.71379465  0.96187942  0.66555226  1
  Lu  Lu7  1  0.29043588  0.04036513  0.33445568  1
  Lu  Lu8  1  0.99762333  0.00237667  0.00000000  1
  Lu  Lu9  1  0.50035241  0.49964759  0.50000000  1
  Si  Si0  1  0.36483997  0.36486845  0.13520368  1
  Si  Si1  1  0.63513155  0.63516003  0.86479632  1
  Si  Si2  1  0.13716896  0.13542606  0.63434450  1
  Si  Si3  1  0.86457394  0.86283104  0.36565550  1
  Sn  Sn0  1  0.79281861  0.20718139  1.00000000  1
  Sb  Sb0  1  0.20453936  0.79546064  0.00000000  1
  Sb  Sb1  1  0.70503403  0.29496597  0.50000000  1
  Sb  Sb2  1  0.29465756  0.70534244  0.50000000  1
loop_
_geom_bond_atom_site_label_1
_geom_bond_atom_site_label_2
_geom_bond_distance
_geom_bond_site_symmetry_2
Lu0 Si0 2.843397 1_555
Lu0 Si3 2.947497 1_445
Lu0 Si2 2.957223 1_555
Lu0 Sb1 3.080263 1_455
Lu0 Sn0 3.116172 1_454
Lu0 Sb2 3.134236 1_555
Lu1 Si1 2.839677 1_555
Lu1 Si3 2.952008 1_555
Lu1 Si2 2.960040 1_665
Lu1 Sb2 3.074755 1_655
Lu1 Sb0 3.105802 1_656
Lu1 Sb1 3.106290 1_555
Lu2 Si2 2.866205 1_555
Lu2 Si1 2.941082 1_555
Lu2 Si0 2.943210 1_556
Lu2 Sn0 3.037236 1_555
Lu2 Sb0 3.101809 1_546
Lu2 Sb1 3.112256 1_555
Lu3 Si3 2.866205 1_555
Lu3 Si0 2.941082 1_555
Lu3 Si1 2.943210 1_554
Lu3 Sn0 3.037236 1_554
Lu3 Sb0 3.101809 1_655
Lu3 Sb1 3.112256 1_555
Lu4 Si3 2.866364 1_555
Lu4 Si1 2.938244 1_554
Lu4 Si0 2.950125 1_555
Lu4 Sb0 3.084424 1_555
Lu4 Sn0 3.104022 1_564
Lu4 Sb2 3.125712 1_555
Lu5 Si2 2.866364 1_555
Lu5 Si0 2.938244 1_556
Lu5 Si1 2.950124 1_555
Lu5 Sb0 3.084424 1_556
Lu5 Sn0 3.104022 1_455
Lu5 Sb2 3.125713 1_555
Lu6 Si1 2.843397 1_555
Lu6 Si2 2.947497 1_665
Lu6 Si3 2.957223 1_555
Lu6 Sb1 3.080263 1_565
Lu6 Sn0 3.116173 1_565
Lu6 Sb2 3.134235 1_555
Lu7 Si0 2.839677 1_555
Lu7 Si2 2.952008 1_555
Lu7 Si3 2.960040 1_445
Lu7 Sb2 3.074756 1_545
Lu7 Sb0 3.105802 1_545
Lu7 Sb1 3.106290 1_555
Lu8 Si0 2.994698 1_655
Lu8 Si1 2.994698 1_544
Lu8 Si2 2.998891 1_654
Lu8 Si3 2.998891 1_545
Lu8 Sn0 3.014183 1_554
Lu8 Sb0 3.045256 1_645
Lu9 Si3 2.974145 1_555
Lu9 Si2 2.974145 1_555
Lu9 Si0 2.999050 1_555
Lu9 Si1 2.999050 1_555
Lu9 Sb1 3.012372 1_555
Lu9 Sb2 3.027284 1_555
