# generated using pymatgen
data_La2Au5F21
_symmetry_space_group_name_H-M   'P 1'
_cell_length_a   8.53988300
_cell_length_b   8.53988300
_cell_length_c   26.65907700
_cell_angle_alpha   90.00000000
_cell_angle_beta   90.00000000
_cell_angle_gamma   90.00000000
_symmetry_Int_Tables_number   1
_chemical_formula_structural   La2Au5F21
_chemical_formula_sum   'La8 Au20 F84'
_cell_volume   1944.23586607
_cell_formula_units_Z   4
loop_
 _symmetry_equiv_pos_site_id
 _symmetry_equiv_pos_as_xyz
  1  'x, y, z'
loop_
 _atom_site_type_symbol
 _atom_site_label
 _atom_site_symmetry_multiplicity
 _atom_site_fract_x
 _atom_site_fract_y
 _atom_site_fract_z
 _atom_site_occupancy
  La  La0  1  0.07132200  0.44836100  0.50183100  1
  La  La1  1  0.05163900  0.57132200  0.75183100  1
  La  La2  1  0.94836100  0.42867800  0.25183100  1
  La  La3  1  0.57132200  0.05163900  0.24816900  1
  La  La4  1  0.42867800  0.94836100  0.74816900  1
  La  La5  1  0.92867800  0.55163900  0.00183100  1
  La  La6  1  0.44836100  0.07132200  0.49816900  1
  La  La7  1  0.55163900  0.92867800  0.99816900  1
  Au  Au0  1  0.20406200  0.82080300  0.88919100  1
  Au  Au1  1  0.79593800  0.17919700  0.38919100  1
  Au  Au2  1  0.82080300  0.20406200  0.11080900  1
  Au  Au3  1  0.32080300  0.29593800  0.63919100  1
  Au  Au4  1  0.67919700  0.70406200  0.13919100  1
  Au  Au5  1  0.29593800  0.32080300  0.36080900  1
  Au  Au6  1  0.70406200  0.67919700  0.86080900  1
  Au  Au7  1  0.17919700  0.79593800  0.61080900  1
  Au  Au8  1  0.56461100  0.56461100  0.50000000  1
  Au  Au9  1  0.93538900  0.06461100  0.75000000  1
  Au  Au10  1  0.06461100  0.93538900  0.25000000  1
  Au  Au11  1  0.43538900  0.43538900  0.00000000  1
  Au  Au12  1  0.64464700  0.59574900  0.65591400  1
  Au  Au13  1  0.90425100  0.14464700  0.90591400  1
  Au  Au14  1  0.09574900  0.85535300  0.40591400  1
  Au  Au15  1  0.14464700  0.90425100  0.09408600  1
  Au  Au16  1  0.85535300  0.09574900  0.59408600  1
  Au  Au17  1  0.35535300  0.40425100  0.15591400  1
  Au  Au18  1  0.59574900  0.64464700  0.34408600  1
  Au  Au19  1  0.40425100  0.35535300  0.84408600  1
  F  F0  1  0.58081400  0.29797800  0.88550900  1
  F  F1  1  0.41918600  0.70202200  0.38550900  1
  F  F2  1  0.29797800  0.58081400  0.11449100  1
  F  F3  1  0.79797800  0.91918600  0.63550900  1
  F  F4  1  0.20202200  0.08081400  0.13550900  1
  F  F5  1  0.91918600  0.79797800  0.36449100  1
  F  F6  1  0.08081400  0.20202200  0.86449100  1
  F  F7  1  0.70202200  0.41918600  0.61449100  1
  F  F8  1  0.71657500  0.09046900  0.05577800  1
  F  F9  1  0.28342500  0.90953100  0.55577800  1
  F  F10  1  0.09046900  0.71657500  0.94422200  1
  F  F11  1  0.59046900  0.78342500  0.80577800  1
  F  F12  1  0.40953100  0.21657500  0.30577800  1
  F  F13  1  0.78342500  0.59046900  0.19422200  1
  F  F14  1  0.21657500  0.40953100  0.69422200  1
  F  F15  1  0.90953100  0.28342500  0.44422200  1
  F  F16  1  0.97684300  0.85868300  0.14126600  1
  F  F17  1  0.02315700  0.14131700  0.64126600  1
  F  F18  1  0.85868300  0.97684300  0.85873400  1
  F  F19  1  0.35868300  0.52315700  0.89126600  1
  F  F20  1  0.64131700  0.47684300  0.39126600  1
  F  F21  1  0.52315700  0.35868300  0.10873400  1
  F  F22  1  0.47684300  0.64131700  0.60873400  1
  F  F23  1  0.14131700  0.02315700  0.35873400  1
  F  F24  1  0.31224400  0.95869600  0.04600900  1
  F  F25  1  0.68775600  0.04130400  0.54600900  1
  F  F26  1  0.95869600  0.31224400  0.95399100  1
  F  F27  1  0.54130400  0.81224400  0.29600900  1
  F  F28  1  0.45869600  0.18775600  0.79600900  1
  F  F29  1  0.29432400  0.93577300  0.24792600  1
  F  F30  1  0.70567600  0.06422700  0.74792600  1
  F  F31  1  0.93577300  0.29432400  0.75207400  1
  F  F32  1  0.06422700  0.70567600  0.25207400  1
  F  F33  1  0.56422700  0.79432400  0.49792600  1
  F  F34  1  0.20567600  0.43577300  0.00207400  1
  F  F35  1  0.79432400  0.56422700  0.50207400  1
  F  F36  1  0.20069100  0.41677600  0.58953500  1
  F  F37  1  0.08322400  0.70069100  0.83953500  1
  F  F38  1  0.91677600  0.29930900  0.33953500  1
  F  F39  1  0.70069100  0.08322400  0.16046500  1
  F  F40  1  0.29930900  0.91677600  0.66046500  1
  F  F41  1  0.79930900  0.58322400  0.08953500  1
  F  F42  1  0.41677600  0.20069100  0.41046500  1
  F  F43  1  0.58322400  0.79930900  0.91046500  1
  F  F44  1  0.44661200  0.18178000  0.68933200  1
  F  F45  1  0.31822000  0.94661200  0.93933200  1
  F  F46  1  0.68178000  0.05338800  0.43933200  1
  F  F47  1  0.94661200  0.31822000  0.06066800  1
  F  F48  1  0.05338800  0.68178000  0.56066800  1
  F  F49  1  0.55338800  0.81822000  0.18933200  1
  F  F50  1  0.18178000  0.44661200  0.31066800  1
  F  F51  1  0.81822000  0.55338800  0.81066800  1
  F  F52  1  0.33389600  0.56736700  0.50004200  1
  F  F53  1  0.93263300  0.83389600  0.75004200  1
  F  F54  1  0.06736700  0.16610400  0.25004200  1
  F  F55  1  0.83389600  0.93263300  0.24995800  1
  F  F56  1  0.16610400  0.06736700  0.74995800  1
  F  F57  1  0.66610400  0.43263300  0.00004200  1
  F  F58  1  0.56736700  0.33389600  0.49995800  1
  F  F59  1  0.43263300  0.66610400  0.99995800  1
  F  F60  1  0.18433500  0.43249000  0.41411100  1
  F  F61  1  0.06751000  0.68433500  0.66411100  1
  F  F62  1  0.93249000  0.31566500  0.16411100  1
  F  F63  1  0.68433500  0.06751000  0.33588900  1
  F  F64  1  0.31566500  0.93249000  0.83588900  1
  F  F65  1  0.81566500  0.56751000  0.91411100  1
  F  F66  1  0.43249000  0.18433500  0.58588900  1
  F  F67  1  0.56751000  0.81566500  0.08588900  1
  F  F68  1  0.22564000  0.22564000  0.50000000  1
  F  F69  1  0.27436000  0.72564000  0.75000000  1
  F  F70  1  0.72564000  0.27436000  0.25000000  1
  F  F71  1  0.77436000  0.77436000  0.00000000  1
  F  F72  1  0.91742100  0.27488900  0.55079100  1
  F  F73  1  0.22511100  0.41742100  0.80079100  1
  F  F74  1  0.77488900  0.58257900  0.30079100  1
  F  F75  1  0.41742100  0.22511100  0.19920900  1
  F  F76  1  0.58257900  0.77488900  0.69920900  1
  F  F77  1  0.08257900  0.72511100  0.05079100  1
  F  F78  1  0.27488900  0.91742100  0.44920900  1
  F  F79  1  0.72511100  0.08257900  0.94920900  1
  F  F80  1  0.04130400  0.68775600  0.45399100  1
  F  F81  1  0.81224400  0.54130400  0.70399100  1
  F  F82  1  0.18775600  0.45869600  0.20399100  1
  F  F83  1  0.43577300  0.20567600  0.99792600  1
loop_
_geom_bond_atom_site_label_1
_geom_bond_atom_site_label_2
_geom_bond_distance
_geom_bond_site_symmetry_2
Au0 F64 1.958895 1_555
Au0 F37 1.967093 1_555
Au0 F10 1.971197 1_555
Au0 F45 1.972700 1_555
Au1 F63 1.958895 1_555
Au1 F38 1.967093 1_555
Au1 F15 1.971197 1_555
Au1 F46 1.972700 1_555
Au2 F62 1.958895 1_555
Au2 F39 1.967093 1_555
Au2 F8 1.971197 1_555
Au2 F47 1.972700 1_555
Au3 F66 1.958895 1_555
Au3 F36 1.967093 1_555
Au3 F14 1.971197 1_555
Au3 F44 1.972700 1_555
Au4 F67 1.958895 1_555
Au4 F41 1.967093 1_555
Au4 F13 1.971197 1_555
Au4 F49 1.972700 1_555
Au5 F60 1.958895 1_555
Au5 F42 1.967093 1_555
Au5 F12 1.971197 1_555
Au5 F50 1.972700 1_555
Au6 F65 1.958895 1_555
Au6 F43 1.967093 1_555
Au6 F11 1.971197 1_555
Au6 F51 1.972700 1_555
Au7 F61 1.958895 1_555
Au7 F40 1.967093 1_555
Au7 F9 1.971197 1_555
Au7 F48 1.972700 1_555
Au8 F33 1.962504 1_555
Au8 F35 1.962504 1_555
Au8 F58 1.970420 1_555
Au8 F52 1.970420 1_555
Au9 F30 1.962504 1_555
Au9 F31 1.962504 1_555
Au9 F53 1.970420 1_545
Au9 F56 1.970420 1_655
Au10 F32 1.962504 1_555
Au10 F29 1.962504 1_555
Au10 F55 1.970420 1_455
Au10 F54 1.970420 1_565
Au11 F34 1.962504 1_555
Au11 F83 1.962504 1_554
Au11 F57 1.970420 1_555
Au11 F59 1.970420 1_554
Au12 F7 1.932122 1_555
Au12 F22 1.946021 1_555
Au12 F81 1.976717 1_555
Au12 F76 1.988351 1_555
Au13 F6 1.932122 1_655
Au13 F18 1.946021 1_545
Au13 F26 1.976717 1_555
Au13 F79 1.988351 1_555
Au14 F5 1.932122 1_455
Au14 F23 1.946021 1_565
Au14 F80 1.976717 1_555
Au14 F78 1.988351 1_555
Au15 F4 1.932122 1_565
Au15 F16 1.946021 1_455
Au15 F24 1.976717 1_555
Au15 F77 1.988351 1_555
Au16 F3 1.932122 1_545
Au16 F17 1.946021 1_655
Au16 F25 1.976717 1_555
Au16 F72 1.988351 1_555
Au17 F2 1.932122 1_555
Au17 F21 1.946021 1_555
Au17 F82 1.976717 1_555
Au17 F75 1.988351 1_555
Au18 F1 1.932122 1_555
Au18 F20 1.946021 1_555
Au18 F27 1.976717 1_555
Au18 F74 1.988351 1_555
Au19 F0 1.932122 1_555
Au19 F19 1.946021 1_555
Au19 F28 1.976717 1_555
Au19 F73 1.988351 1_555
F8 La7 2.500338 1_544
F9 La6 2.500338 1_565
F10 La5 2.500338 1_456
F11 La4 2.500338 1_555
F12 La3 2.500338 1_555
F13 La2 2.500338 1_555
F14 La1 2.500338 1_555
F15 La0 2.500338 1_655
F24 La7 2.423196 1_554
F25 La6 2.423196 1_555
F26 La5 2.423196 1_556
F27 La3 2.423196 1_565
F28 La4 2.423196 1_545
F29 La3 2.564147 1_565
F30 La4 2.564147 1_545
F31 La1 2.564147 1_655
F32 La2 2.564147 1_455
F33 La6 2.564147 1_565
F34 La5 2.564147 1_455
F35 La0 2.564147 1_655
F36 La0 2.600015 1_555
F37 La1 2.600015 1_555
F38 La2 2.600015 1_555
F39 La3 2.600015 1_555
F40 La4 2.600015 1_555
F41 La5 2.600015 1_555
F42 La6 2.600015 1_555
F43 La7 2.600015 1_555
F44 La4 2.541122 1_545
F45 La7 2.541122 1_555
F46 La6 2.541122 1_555
F47 La5 2.541122 1_555
F48 La0 2.541122 1_555
F49 La3 2.541122 1_565
F50 La2 2.541122 1_455
F51 La1 2.541122 1_655
F52 La0 2.462372 1_555
F53 La1 2.462372 1_655
F54 La2 2.462372 1_455
F55 La3 2.462372 1_565
F56 La4 2.462372 1_545
F57 La5 2.462372 1_555
F58 La6 2.462372 1_555
F59 La7 2.462372 1_555
F60 La0 2.533489 1_555
F61 La1 2.533489 1_555
F62 La2 2.533489 1_555
F63 La3 2.533489 1_555
F64 La4 2.533489 1_555
F65 La5 2.533489 1_556
F66 La6 2.533489 1_555
F67 La7 2.533489 1_554
F68 La0 2.314472 1_555
F68 La6 2.314472 1_555
F69 La4 2.314472 1_555
F69 La1 2.314472 1_555
F70 La2 2.314472 1_555
F70 La3 2.314472 1_555
F71 La5 2.314472 1_555
F71 La7 2.314472 1_554
F72 La0 2.371842 1_655
F73 La1 2.371842 1_555
F74 La2 2.371842 1_555
F75 La3 2.371842 1_555
F76 La4 2.371842 1_555
F77 La5 2.371842 1_455
F78 La6 2.371842 1_565
F79 La7 2.371842 1_545
F80 La0 2.423196 1_555
F81 La1 2.423196 1_655
F82 La2 2.423196 1_455
F83 La7 2.564147 1_545
