# generated using pymatgen
data_Cs4Zr2Se5S
_symmetry_space_group_name_H-M   'P 1'
_cell_length_a   8.13955845
_cell_length_b   8.13955939
_cell_length_c   7.11944065
_cell_angle_alpha   89.82979991
_cell_angle_beta   89.82979812
_cell_angle_gamma   108.03025966
_symmetry_Int_Tables_number   1
_chemical_formula_structural   Cs4Zr2Se5S
_chemical_formula_sum   'Cs4 Zr2 Se5 S1'
_cell_volume   448.51172455
_cell_formula_units_Z   1
loop_
 _symmetry_equiv_pos_site_id
 _symmetry_equiv_pos_as_xyz
  1  'x, y, z'
loop_
 _atom_site_type_symbol
 _atom_site_label
 _atom_site_symmetry_multiplicity
 _atom_site_fract_x
 _atom_site_fract_y
 _atom_site_fract_z
 _atom_site_occupancy
  Cs  Cs0  1  0.50987596  0.82021077  0.25185342  1
  Cs  Cs1  1  0.49656015  0.18089187  0.74435449  1
  Cs  Cs2  1  0.17978923  0.49012404  0.74814658  1
  Cs  Cs3  1  0.81910813  0.50343985  0.25564551  1
  Zr  Zr0  1  0.07854242  0.08348482  0.25423814  1
  Zr  Zr1  1  0.91651518  0.92145758  0.74576186  1
  Se  Se0  1  0.65651833  0.66080836  0.74586237  1
  Se  Se1  1  0.33919164  0.34348167  0.25413763  1
  Se  Se2  1  0.86106629  0.13893371  0.00000000  1
  Se  Se3  1  0.13744840  0.86255160  0.50000000  1
  Se  Se4  1  0.13409891  0.86590109  1.00000000  1
  S  S0  1  0.87128337  0.12871663  0.50000000  1
loop_
_geom_bond_atom_site_label_1
_geom_bond_atom_site_label_2
_geom_bond_distance
_geom_bond_site_symmetry_2
Cs0 Se3 3.612169 1_555
Cs0 Se4 3.666270 1_554
Cs0 Se2 3.669840 1_565
Cs0 S0 3.683039 1_565
Cs0 Se1 3.694578 1_555
Cs0 Se0 4.053934 1_555
Cs0 Se0 4.128693 1_554
Cs1 Se2 3.589913 1_556
Cs1 S0 3.644793 1_555
Cs1 Se3 3.694985 1_545
Cs1 Se0 3.715704 1_555
Cs1 Se4 3.721302 1_545
Cs1 Se1 4.076914 1_555
Cs1 Se1 4.196995 1_556
Cs2 Se3 3.612169 1_555
Cs2 Se4 3.666271 1_555
Cs2 Se2 3.669840 1_456
Cs2 S0 3.683039 1_455
Cs2 Se0 3.694578 1_555
Cs2 Se1 4.053934 1_555
Cs2 Se1 4.128693 1_556
Cs3 Se2 3.589913 1_555
Cs3 S0 3.644793 1_555
Cs3 Se3 3.694985 1_655
Cs3 Se1 3.715704 1_555
Cs3 Se4 3.721302 1_654
Cs3 Se0 4.076913 1_555
Cs3 Se0 4.196995 1_554
Se0 Zr1 2.490028 1_555
Se1 Zr0 2.490028 1_555
Se2 Zr0 2.668732 1_655
Se2 Zr1 2.668732 1_544
Se3 Zr1 2.654283 1_455
Se3 Zr0 2.654283 1_565
Se4 Zr1 2.669687 1_455
Se4 Zr0 2.669687 1_566
S0 Zr0 2.532525 1_655
S0 Zr1 2.532525 1_545
