# generated using pymatgen
data_Ba2LiRe2H17
_symmetry_space_group_name_H-M   'P 1'
_cell_length_a   5.14140629
_cell_length_b   5.14140643
_cell_length_c   9.79045142
_cell_angle_alpha   89.90544637
_cell_angle_beta   90.09455498
_cell_angle_gamma   119.46821645
_symmetry_Int_Tables_number   1
_chemical_formula_structural   Ba2LiRe2H17
_chemical_formula_sum   'Ba2 Li1 Re2 H17'
_cell_volume   225.31949828
_cell_formula_units_Z   1
loop_
 _symmetry_equiv_pos_site_id
 _symmetry_equiv_pos_as_xyz
  1  'x, y, z'
loop_
 _atom_site_type_symbol
 _atom_site_label
 _atom_site_symmetry_multiplicity
 _atom_site_fract_x
 _atom_site_fract_y
 _atom_site_fract_z
 _atom_site_occupancy
  Ba  Ba0  1  0.99179715  0.00820285  0.99136524  1
  Ba  Ba1  1  0.99017597  0.00982403  0.49342818  1
  Li  Li0  1  0.65367795  0.34632205  0.24461690  1
  Re  Re0  1  0.31488325  0.68511675  0.25398599  1
  Re  Re1  1  0.65379781  0.34620219  0.74708753  1
  H  H0  1  0.51955899  0.48044101  0.87173279  1
  H  H1  1  0.43344172  0.56655828  0.39122782  1
  H  H2  1  0.51914381  0.48085619  0.62371509  1
  H  H3  1  0.49236508  0.98834050  0.36202346  1
  H  H4  1  0.92366425  0.48051026  0.62529424  1
  H  H5  1  0.47262562  0.94276565  0.12474132  1
  H  H6  1  0.92858261  0.48054425  0.86771834  1
  H  H7  1  0.51948974  0.07633575  0.62529424  1
  H  H8  1  0.01165950  0.50763492  0.36202346  1
  H  H9  1  0.51945575  0.07141739  0.86771834  1
  H  H10  1  0.05723435  0.52737438  0.12474132  1
  H  H11  1  0.66608350  0.74989059  0.22209934  1
  H  H12  1  0.83338678  0.71720146  0.74546703  1
  H  H13  1  0.28279854  0.16661322  0.74546703  1
  H  H14  1  0.25010941  0.33391650  0.22209934  1
  H  H15  1  0.12585707  0.87414293  0.24339713  1
  H  H16  1  0.84021116  0.15978884  0.74475887  1
loop_
_geom_bond_atom_site_label_1
_geom_bond_atom_site_label_2
_geom_bond_distance
_geom_bond_site_symmetry_2
Ba0 H14 2.735985 1_656
Ba0 H11 2.735985 1_546
Ba0 H15 2.737686 1_646
Ba0 H12 2.739373 1_545
Ba0 H13 2.739373 1_655
Ba0 H16 2.762116 1_555
Ba0 H5 2.840745 1_546
Ba0 H10 2.840745 1_656
Ba0 H9 2.841299 1_655
Ba0 H6 2.841299 1_545
Ba0 H0 2.854605 1_545
Ba0 H0 2.854605 1_655
Ba0 H9 2.869540 1_555
Ba0 H6 2.869540 1_555
Ba0 H5 2.955672 1_646
Ba0 H10 2.955672 1_646
Ba1 H15 2.730500 1_645
Ba1 H13 2.793440 1_655
Ba1 H12 2.793440 1_545
Ba1 H16 2.800207 1_555
Ba1 H3 2.815944 1_545
Ba1 H8 2.815944 1_655
Ba1 H1 2.822794 1_545
Ba1 H1 2.822795 1_655
Ba1 H7 2.874724 1_655
Ba1 H4 2.874724 1_545
Ba1 H2 2.899490 1_655
Ba1 H2 2.899490 1_545
Ba1 H7 2.909643 1_555
Ba1 H4 2.909643 1_555
Ba1 H3 2.936979 1_645
Ba1 H8 2.936979 1_645
Ba1 H11 3.070068 1_545
Ba1 H14 3.070068 1_655
H0 Re1 1.707667 1_555
H1 Re0 1.705493 1_555
H2 Re1 1.698114 1_555
H3 Re0 1.727581 1_555
H3 Li0 1.972550 1_565
H4 Re1 1.698203 1_555
H5 Re0 1.718866 1_555
H5 Li0 2.157101 1_565
H6 Re1 1.704392 1_555
H7 Re1 1.698203 1_555
H8 Re0 1.727581 1_555
H8 Li0 1.972550 1_455
H9 Re1 1.704392 1_555
H10 Re0 1.718866 1_555
H10 Li0 2.157101 1_455
H11 Re0 1.696661 1_555
H11 Li0 2.055784 1_555
H12 Re1 1.660816 1_555
H13 Re1 1.660816 1_555
H14 Re0 1.696661 1_555
H14 Li0 2.055784 1_555
H15 Re0 1.681784 1_555
H16 Re1 1.655779 1_555
