# generated using pymatgen
data_Hf16TaCo5Rh2
_symmetry_space_group_name_H-M   'P 1'
_cell_length_a   8.53453115
_cell_length_b   8.58607652
_cell_length_c   8.54666702
_cell_angle_alpha   60.15172166
_cell_angle_beta   59.95295416
_cell_angle_gamma   60.03128633
_symmetry_Int_Tables_number   1
_chemical_formula_structural   Hf16TaCo5Rh2
_chemical_formula_sum   'Hf16 Ta1 Co5 Rh2'
_cell_volume   443.30175877
_cell_formula_units_Z   1
loop_
 _symmetry_equiv_pos_site_id
 _symmetry_equiv_pos_as_xyz
  1  'x, y, z'
loop_
 _atom_site_type_symbol
 _atom_site_label
 _atom_site_symmetry_multiplicity
 _atom_site_fract_x
 _atom_site_fract_y
 _atom_site_fract_z
 _atom_site_occupancy
  Hf  Hf0  1  0.20247829  0.59866389  0.59942891  1
  Hf  Hf1  1  0.60367267  0.18734576  0.60449029  1
  Hf  Hf2  1  0.59916300  0.59760960  0.20389036  1
  Hf  Hf3  1  0.59916300  0.59760960  0.59933505  1
  Hf  Hf4  1  0.81493616  0.81459635  0.18523425  1
  Hf  Hf5  1  0.18240098  0.19004509  0.81377796  1
  Hf  Hf6  1  0.81505216  0.19244573  0.81376407  1
  Hf  Hf7  1  0.19162072  0.81491517  0.17999765  1
  Hf  Hf8  1  0.19162072  0.81491517  0.81346746  1
  Hf  Hf9  1  0.81505216  0.19244573  0.17873904  1
  Hf  Hf10  1  0.44958426  0.44352929  0.05344372  1
  Hf  Hf11  1  0.04907423  0.04875989  0.45108294  1
  Hf  Hf12  1  0.45247323  0.04701103  0.45360093  1
  Hf  Hf13  1  0.05462265  0.44236325  0.05412660  1
  Hf  Hf14  1  0.05462265  0.44236325  0.44888750  1
  Hf  Hf15  1  0.45247323  0.04701103  0.04691482  1
  Ta  Ta0  1  0.82144017  0.52634983  0.82610400  1
  Co  Co0  1  0.82812729  0.38645900  0.39270785  1
  Co  Co1  1  0.39003619  0.83046800  0.38974941  1
  Co  Co2  1  0.39215905  0.38751129  0.82725750  1
  Co  Co3  1  0.39215905  0.38751129  0.39307417  1
  Co  Co4  1  0.48331167  0.83634715  0.84017009  1
  Rh  Rh0  1  0.83237773  0.83686181  0.49321267  1
  Rh  Rh1  1  0.83237773  0.83686181  0.83754579  1
loop_
_geom_bond_atom_site_label_1
_geom_bond_atom_site_label_2
_geom_bond_distance
_geom_bond_site_symmetry_2
Hf0 Ta0 3.037251 1_455
Hf0 Rh1 3.090841 1_455
Hf0 Rh0 3.090849 1_455
Hf0 Hf5 3.095639 1_555
Hf0 Hf7 3.137166 1_555
Hf0 Hf8 3.137173 1_555
Hf1 Rh1 2.981905 1_545
Hf1 Rh0 2.981909 1_545
Hf1 Hf12 3.089774 1_555
Hf1 Hf15 3.089781 1_556
Hf1 Hf11 3.102862 1_655
Hf1 Hf5 3.105548 1_555
Hf1 Hf9 3.137441 1_555
Hf1 Hf6 3.137455 1_555
Hf2 Ta0 3.011863 1_554
Hf2 Rh1 3.070265 1_554
Hf2 Hf7 3.077210 1_555
Hf2 Hf9 3.080099 1_555
Hf2 Hf4 3.118578 1_555
Hf3 Ta0 3.011863 1_555
Hf3 Rh0 3.070265 1_555
Hf3 Hf8 3.077218 1_555
Hf3 Hf6 3.080108 1_555
Hf3 Hf4 3.118565 1_555
Hf4 Rh0 2.812263 1_555
Hf4 Rh1 2.812288 1_554
Hf4 Hf7 3.194010 1_655
Hf4 Hf8 3.194011 1_654
Hf4 Hf9 3.217466 1_565
Hf4 Hf6 3.217466 1_564
Hf5 Ta0 2.988317 1_455
Hf5 Hf9 3.124960 1_456
Hf5 Hf6 3.124964 1_455
Hf5 Hf7 3.183619 1_546
Hf5 Hf8 3.183623 1_545
Hf6 Rh1 2.888909 1_545
Hf6 Ta0 2.948940 1_555
Hf6 Hf9 3.119320 1_556
Hf6 Hf8 3.229291 1_645
Hf7 Rh0 2.882280 1_455
Hf7 Hf8 3.132611 1_554
Hf7 Hf9 3.229291 1_465
Hf8 Rh1 2.882291 1_455
Hf9 Rh0 2.888898 1_545
Hf9 Ta0 2.948953 1_554
Hf10 Ta0 3.009477 1_554
Hf10 Hf9 3.138804 1_555
Hf10 Hf6 3.138804 1_554
Hf10 Hf7 3.196847 1_555
Hf10 Hf8 3.196847 1_554
Hf11 Rh1 2.983728 1_445
Hf11 Rh0 2.983736 1_445
Hf11 Hf7 3.201057 1_545
Hf11 Hf8 3.201065 1_545
Hf11 Hf9 3.203806 1_455
Hf11 Hf6 3.203814 1_455
Hf12 Rh0 2.920498 1_545
Hf12 Hf8 3.140290 1_545
Hf12 Hf4 3.177389 1_545
Hf12 Hf5 3.182245 1_555
Hf12 Hf9 3.211570 1_555
Hf13 Ta0 3.054463 1_454
Hf13 Rh1 3.058339 1_454
Hf13 Hf9 3.137988 1_455
Hf13 Hf5 3.150945 1_554
Hf13 Hf4 3.223727 1_455
Hf13 Hf8 3.257111 1_554
Hf14 Ta0 3.054449 1_455
Hf14 Rh0 3.058332 1_455
Hf14 Hf6 3.137991 1_455
Hf14 Hf5 3.150959 1_555
Hf14 Hf4 3.223723 1_455
Hf14 Hf7 3.257110 1_555
Hf15 Rh1 2.920504 1_544
Hf15 Hf7 3.140287 1_545
Hf15 Hf4 3.177393 1_545
Hf15 Hf5 3.182231 1_554
Hf15 Hf6 3.211570 1_554
Co0 Hf11 2.500330 1_655
Co0 Hf14 2.506671 1_655
Co0 Hf13 2.506683 1_655
Co0 Hf3 2.532938 1_555
Co0 Hf2 2.532960 1_555
Co0 Hf1 2.566689 1_555
Co0 Hf6 3.090946 1_555
Co0 Hf9 3.090954 1_555
Co0 Hf4 3.157229 1_555
Co1 Hf11 2.501406 1_565
Co1 Hf12 2.515865 1_565
Co1 Hf15 2.515883 1_565
Co1 Hf3 2.542266 1_555
Co1 Hf2 2.542295 1_555
Co1 Hf0 2.548509 1_555
Co1 Hf8 3.098903 1_555
Co1 Hf7 3.098918 1_555
Co1 Hf4 3.101591 1_555
Co2 Hf13 2.497987 1_556
Co2 Hf10 2.513634 1_556
Co2 Hf15 2.517441 1_556
Co2 Hf0 2.531705 1_555
Co2 Hf3 2.531725 1_555
Co2 Hf1 2.559902 1_555
Co2 Hf5 3.086406 1_555
Co2 Hf6 3.095321 1_555
Co2 Hf8 3.147487 1_555
Co3 Hf14 2.497992 1_555
Co3 Hf10 2.513642 1_555
Co3 Hf12 2.517446 1_555
Co3 Hf0 2.531692 1_555
Co3 Hf2 2.531723 1_555
Co3 Hf1 2.559883 1_555
Co3 Hf5 3.086407 1_555
Co3 Hf9 3.095323 1_555
Co3 Hf7 3.147489 1_555
Co4 Hf8 2.711402 1_555
Co4 Hf7 2.711412 1_556
Co4 Ta0 2.779204 1_555
Co4 Hf5 2.824060 1_565
Co4 Hf12 2.950117 1_565
Co4 Hf15 2.950124 1_566
Co4 Rh1 2.970150 1_555
Co4 Rh0 2.970154 1_555
Co4 Hf10 3.017586 1_556
Co4 Hf1 3.028712 1_565
Co4 Hf2 3.090802 1_556
Co4 Hf3 3.090809 1_555
Rh0 Ta0 2.764697 1_555
Rh0 Rh1 2.942900 1_555
Rh1 Ta0 2.764697 1_555
