# generated using pymatgen
data_Tc3Bi4PtF28
_symmetry_space_group_name_H-M   'P 1'
_cell_length_a   5.51968797
_cell_length_b   9.08191418
_cell_length_c   12.15878373
_cell_angle_alpha   61.67251041
_cell_angle_beta   89.97334297
_cell_angle_gamma   89.94706186
_symmetry_Int_Tables_number   1
_chemical_formula_structural   Tc3Bi4PtF28
_chemical_formula_sum   'Tc3 Bi4 Pt1 F28'
_cell_volume   536.52232865
_cell_formula_units_Z   1
loop_
 _symmetry_equiv_pos_site_id
 _symmetry_equiv_pos_as_xyz
  1  'x, y, z'
loop_
 _atom_site_type_symbol
 _atom_site_label
 _atom_site_symmetry_multiplicity
 _atom_site_fract_x
 _atom_site_fract_y
 _atom_site_fract_z
 _atom_site_occupancy
  Tc  Tc0  1  0.75574341  0.27183537  0.95909042  1
  Tc  Tc1  1  0.25670399  0.72757504  0.54165417  1
  Tc  Tc2  1  0.24361380  0.72839155  0.04114355  1
  Bi  Bi0  1  0.76154249  0.81411625  0.76220243  1
  Bi  Bi1  1  0.26122187  0.18527160  0.73609208  1
  Bi  Bi2  1  0.23716212  0.18526416  0.23940123  1
  Bi  Bi3  1  0.73888077  0.81314973  0.26355569  1
  Pt  Pt0  1  0.74230385  0.27037987  0.45907232  1
  F  F0  1  0.43372319  0.71086113  0.91392394  1
  F  F1  1  0.92190425  0.29069950  0.58960111  1
  F  F2  1  0.56044929  0.28904679  0.08489537  1
  F  F3  1  0.06890150  0.71202314  0.41305465  1
  F  F4  1  0.43547777  0.27588005  0.53783778  1
  F  F5  1  0.94305651  0.72409288  0.95803007  1
  F  F6  1  0.55869910  0.72432382  0.45944792  1
  F  F7  1  0.05326823  0.27661210  0.04421342  1
  F  F8  1  0.76941821  0.51209932  0.86242040  1
  F  F9  1  0.27007177  0.48733521  0.63681118  1
  F  F10  1  0.22960676  0.48864764  0.13847824  1
  F  F11  1  0.73214057  0.51271027  0.36219481  1
  F  F12  1  0.75900730  0.02809247  0.05505234  1
  F  F13  1  0.25943692  0.97137424  0.44730154  1
  F  F14  1  0.24094074  0.97231592  0.94438481  1
  F  F15  1  0.74110841  0.02523772  0.55160251  1
  F  F16  1  0.96366846  0.72854429  0.62891688  1
  F  F17  1  0.46734192  0.26919154  0.86944187  1
  F  F18  1  0.04281436  0.27163123  0.37477010  1
  F  F19  1  0.53531337  0.73142498  0.12813877  1
  F  F20  1  0.06130674  0.74712173  0.17081892  1
  F  F21  1  0.57005398  0.25663163  0.32401630  1
  F  F22  1  0.94452843  0.25536343  0.83037032  1
  F  F23  1  0.43804555  0.74294273  0.67281619  1
  F  F24  1  0.39480048  0.96663599  0.22921357  1
  F  F25  1  0.89517578  0.03290490  0.27278737  1
  F  F26  1  0.60577867  0.03520127  0.77040742  1
  F  F27  1  0.10679146  0.96507151  0.72683932  1
loop_
_geom_bond_atom_site_label_1
_geom_bond_atom_site_label_2
_geom_bond_distance
_geom_bond_site_symmetry_2
Bi0 F26 2.228799 1_565
Bi0 F27 2.267294 1_655
Bi0 F23 2.336244 1_555
Bi0 F5 2.344097 1_555
Bi0 F15 2.363555 1_565
Bi0 F16 2.380541 1_555
Bi0 F8 2.416212 1_555
Bi0 F0 2.432062 1_555
Bi1 F27 2.226065 1_545
Bi1 F26 2.259413 1_555
Bi1 F22 2.337413 1_455
Bi1 F14 2.349203 1_545
Bi1 F4 2.351544 1_555
Bi1 F17 2.383313 1_555
Bi1 F9 2.417189 1_555
Bi1 F1 2.445085 1_455
Bi2 F24 2.223740 1_545
Bi2 F25 2.261360 1_455
Bi2 F7 2.341588 1_555
Bi2 F21 2.343420 1_555
Bi2 F13 2.349086 1_545
Bi2 F18 2.386857 1_555
Bi2 F10 2.427009 1_555
Bi2 F2 2.433387 1_555
Bi3 F25 2.226192 1_565
Bi3 F24 2.273309 1_555
Bi3 F20 2.331554 1_655
Bi3 F6 2.342804 1_555
Bi3 F12 2.356599 1_565
Bi3 F19 2.384834 1_555
Bi3 F11 2.404031 1_555
Bi3 F3 2.425191 1_655
F0 Tc2 1.936768 1_556
F1 Pt0 1.953293 1_555
F2 Tc0 1.936824 1_554
F3 Tc1 1.936689 1_555
F4 Pt0 1.957455 1_555
F5 Tc2 1.952971 1_656
F6 Tc1 1.950619 1_555
F7 Tc0 1.953044 1_454
F8 Tc0 1.927385 1_555
F9 Tc1 1.925771 1_555
F10 Tc2 1.924095 1_555
F11 Pt0 1.942643 1_555
F12 Tc0 1.952108 1_554
F13 Tc1 1.951478 1_555
F14 Tc2 1.954083 1_556
F15 Pt0 1.960970 1_555
F16 Tc1 1.936298 1_655
F17 Tc0 1.936321 1_555
F18 Pt0 1.946675 1_455
F19 Tc2 1.934249 1_555
F20 Tc2 1.944283 1_555
F21 Pt0 1.952524 1_555
F22 Tc0 1.943728 1_555
F23 Tc1 1.943617 1_555
