# generated using pymatgen
data_BaTcF6
_symmetry_space_group_name_H-M   'P 1'
_cell_length_a   4.91343313
_cell_length_b   4.91343249
_cell_length_c   4.91343328
_cell_angle_alpha   97.56537293
_cell_angle_beta   97.56536778
_cell_angle_gamma   97.56535847
_symmetry_Int_Tables_number   1
_chemical_formula_structural   BaTcF6
_chemical_formula_sum   'Ba1 Tc1 F6'
_cell_volume   115.21554695
_cell_formula_units_Z   1
loop_
 _symmetry_equiv_pos_site_id
 _symmetry_equiv_pos_as_xyz
  1  'x, y, z'
loop_
 _atom_site_type_symbol
 _atom_site_label
 _atom_site_symmetry_multiplicity
 _atom_site_fract_x
 _atom_site_fract_y
 _atom_site_fract_z
 _atom_site_occupancy
  Ba  Ba0  1  0.50000000  0.50000000  0.50000000  1
  Tc  Tc0  1  0.00000000  0.00000000  0.00000000  1
  F  F0  1  0.23352213  0.32753176  0.93147321  1
  F  F1  1  0.76647787  0.67246824  0.06852679  1
  F  F2  1  0.06852679  0.76647787  0.67246824  1
  F  F3  1  0.67246824  0.06852679  0.76647787  1
  F  F4  1  0.93147321  0.23352213  0.32753176  1
  F  F5  1  0.32753176  0.93147321  0.23352213  1
loop_
_geom_bond_atom_site_label_1
_geom_bond_atom_site_label_2
_geom_bond_distance
_geom_bond_site_symmetry_2
Ba0 F2 2.799765 1_555
Ba0 F4 2.799765 1_555
Ba0 F3 2.799765 1_555
Ba0 F5 2.799765 1_555
Ba0 F0 2.799766 1_555
Ba0 F1 2.799766 1_555
Ba0 F3 2.890861 1_565
Ba0 F5 2.890861 1_545
Ba0 F1 2.890861 1_556
Ba0 F0 2.890861 1_554
Ba0 F2 2.890861 1_655
Ba0 F4 2.890861 1_455
F0 Tc0 1.943692 1_556
F1 Tc0 1.943692 1_665
F2 Tc0 1.943692 1_566
F3 Tc0 1.943692 1_656
F4 Tc0 1.943692 1_655
F5 Tc0 1.943692 1_565
