# generated using pymatgen
data_Ba2GaPtCl
_symmetry_space_group_name_H-M   'P 1'
_cell_length_a   4.43363668
_cell_length_b   4.43363612
_cell_length_c   18.07009253
_cell_angle_alpha   90.00000000
_cell_angle_beta   90.00000000
_cell_angle_gamma   120.00000419
_symmetry_Int_Tables_number   1
_chemical_formula_structural   Ba2GaPtCl
_chemical_formula_sum   'Ba4 Ga2 Pt2 Cl2'
_cell_volume   307.61757095
_cell_formula_units_Z   2
loop_
 _symmetry_equiv_pos_site_id
 _symmetry_equiv_pos_as_xyz
  1  'x, y, z'
loop_
 _atom_site_type_symbol
 _atom_site_label
 _atom_site_symmetry_multiplicity
 _atom_site_fract_x
 _atom_site_fract_y
 _atom_site_fract_z
 _atom_site_occupancy
  Ba  Ba0  1  0.00000000  0.00000000  0.12358486  1
  Ba  Ba1  1  0.00000000  0.00000000  0.37641514  1
  Ba  Ba2  1  0.00000000  0.00000000  0.62453885  1
  Ba  Ba3  1  0.00000000  0.00000000  0.87546115  1
  Ga  Ga0  1  0.66666600  0.33333400  0.50129465  1
  Ga  Ga1  1  0.66666600  0.33333400  0.99870535  1
  Pt  Pt0  1  0.33333400  0.66666700  0.00111349  1
  Pt  Pt1  1  0.33333400  0.66666700  0.49888651  1
  Cl  Cl0  1  0.66666600  0.33333400  0.25000000  1
  Cl  Cl1  1  0.33333400  0.66666700  0.75000000  1
loop_
_geom_bond_atom_site_label_1
_geom_bond_atom_site_label_2
_geom_bond_distance
_geom_bond_site_symmetry_2
Ba0 Pt0 3.383791 1_445
Ba0 Pt0 3.383793 1_555
Ba0 Pt0 3.383794 1_545
Ba0 Ga1 3.412409 1_444
Ba0 Ga1 3.412409 1_554
Ba0 Ga1 3.412415 1_454
Ba0 Cl0 3.430822 1_445
Ba0 Cl0 3.430822 1_555
Ba0 Cl0 3.430828 1_455
Ba1 Pt1 3.383791 1_445
Ba1 Pt1 3.383793 1_555
Ba1 Pt1 3.383794 1_545
Ba1 Ga0 3.412409 1_445
Ba1 Ga0 3.412409 1_555
Ba1 Ga0 3.412415 1_455
Ba1 Cl0 3.430822 1_445
Ba1 Cl0 3.430822 1_555
Ba1 Cl0 3.430828 1_455
Ba2 Ga0 3.392940 1_445
Ba2 Ga0 3.392940 1_555
Ba2 Ga0 3.392946 1_455
Ba2 Cl1 3.419369 1_445
Ba2 Cl1 3.419371 1_555
Ba2 Cl1 3.419372 1_545
Ba2 Pt1 3.421660 1_445
Ba2 Pt1 3.421663 1_555
Ba2 Pt1 3.421663 1_545
Ba3 Ga1 3.392940 1_445
Ba3 Ga1 3.392940 1_555
Ba3 Ga1 3.392946 1_455
Ba3 Cl1 3.419369 1_445
Ba3 Cl1 3.419371 1_555
Ba3 Cl1 3.419372 1_545
Ba3 Pt0 3.421660 1_446
Ba3 Pt0 3.421663 1_556
Ba3 Pt0 3.421663 1_546
Ga0 Pt1 2.560125 1_555
Ga0 Pt1 2.560132 1_545
Ga0 Pt1 2.560136 1_655
Ga1 Pt0 2.560125 1_556
Ga1 Pt0 2.560132 1_546
Ga1 Pt0 2.560136 1_656
