# generated using pymatgen
data_MnAlPO5
_symmetry_space_group_name_H-M   'P 1'
_cell_length_a   5.54228286
_cell_length_b   7.18247407
_cell_length_c   10.56424623
_cell_angle_alpha   90.00010410
_cell_angle_beta   90.00004855
_cell_angle_gamma   97.56566594
_symmetry_Int_Tables_number   1
_chemical_formula_structural   MnAlPO5
_chemical_formula_sum   'Mn4 Al4 P4 O20'
_cell_volume   416.87323884
_cell_formula_units_Z   4
loop_
 _symmetry_equiv_pos_site_id
 _symmetry_equiv_pos_as_xyz
  1  'x, y, z'
loop_
 _atom_site_type_symbol
 _atom_site_label
 _atom_site_symmetry_multiplicity
 _atom_site_fract_x
 _atom_site_fract_y
 _atom_site_fract_z
 _atom_site_occupancy
  Mn  Mn0  1  0.61763665  0.01658802  0.35568216  1
  Mn  Mn1  1  0.88236416  0.98340990  0.85568019  1
  Mn  Mn2  1  0.38236531  0.98340872  0.64432062  1
  Mn  Mn3  1  0.11763868  0.01658605  0.14431896  1
  Al  Al0  1  0.56704678  0.35899630  0.17412345  1
  Al  Al1  1  0.93295362  0.64100405  0.67412578  1
  Al  Al2  1  0.43295431  0.64100234  0.82587335  1
  Al  Al3  1  0.06704609  0.35899777  0.32587588  1
  P  P0  1  0.07368909  0.77566789  0.40453708  1
  P  P1  1  0.42631092  0.22433229  0.90453445  1
  P  P2  1  0.92630784  0.22433557  0.59546691  1
  P  P3  1  0.57369165  0.77566740  0.09546396  1
  O  O0  1  0.77809232  0.27008902  0.27085376  1
  O  O1  1  0.72190504  0.72991090  0.77085058  1
  O  O2  1  0.22190679  0.72991112  0.72914890  1
  O  O3  1  0.27809281  0.27009058  0.22914786  1
  O  O4  1  0.11966029  0.60409825  0.32742206  1
  O  O5  1  0.38033724  0.39590265  0.82742119  1
  O  O6  1  0.88033811  0.39590137  0.67257926  1
  O  O7  1  0.61966204  0.60409766  0.17257694  1
  O  O8  1  0.59504678  0.28432334  0.01645308  1
  O  O9  1  0.90495751  0.71567623  0.51645394  1
  O  O10  1  0.40495621  0.71567509  0.98354402  1
  O  O11  1  0.09504104  0.28432806  0.48354583  1
  O  O12  1  0.94938011  0.90866230  0.32005652  1
  O  O13  1  0.55061919  0.09133929  0.82005365  1
  O  O14  1  0.05061887  0.09134045  0.67994688  1
  O  O15  1  0.44938110  0.90865974  0.17994260  1
  O  O16  1  0.68399584  0.12241893  0.54543781  1
  O  O17  1  0.81600375  0.87758085  0.04543586  1
  O  O18  1  0.31600272  0.87758260  0.45456393  1
  O  O19  1  0.18399916  0.12241726  0.95456254  1
loop_
_geom_bond_atom_site_label_1
_geom_bond_atom_site_label_2
_geom_bond_distance
_geom_bond_site_symmetry_2
Mn0 O18 2.107899 1_545
Mn0 O0 2.117248 1_555
Mn0 O12 2.120932 1_545
Mn0 O16 2.158230 1_555
Mn0 O15 2.174156 1_545
Mn1 O19 2.107908 1_665
Mn1 O1 2.117244 1_555
Mn1 O13 2.120954 1_565
Mn1 O17 2.158230 1_556
Mn1 O14 2.174107 1_665
Mn2 O16 2.107903 1_565
Mn2 O2 2.117232 1_555
Mn2 O14 2.120969 1_565
Mn2 O18 2.158232 1_555
Mn2 O13 2.174099 1_565
Mn3 O17 2.107906 1_445
Mn3 O3 2.117264 1_555
Mn3 O15 2.120925 1_545
Mn3 O19 2.158243 1_554
Mn3 O12 2.174139 1_445
Al0 O0 1.736906 1_555
Al0 O3 1.743866 1_555
Al0 O7 1.746211 1_555
Al0 O8 1.762982 1_555
Al1 O1 1.736882 1_555
Al1 O2 1.743858 1_655
Al1 O6 1.746220 1_555
Al1 O9 1.762994 1_555
Al2 O2 1.736883 1_555
Al2 O1 1.743850 1_555
Al2 O5 1.746199 1_555
Al2 O10 1.762983 1_555
Al3 O3 1.736896 1_555
Al3 O0 1.743861 1_455
Al3 O4 1.746204 1_555
Al3 O11 1.762968 1_555
O4 P0 1.526372 1_555
O5 P1 1.526373 1_555
O6 P2 1.526332 1_555
O7 P3 1.526362 1_555
O8 P1 1.533634 1_554
O9 P0 1.533609 1_655
O10 P3 1.533645 1_556
O11 P2 1.533650 1_455
O12 P0 1.535229 1_655
O13 P1 1.535221 1_555
O14 P2 1.535235 1_455
O15 P3 1.535211 1_555
O16 P2 1.536182 1_555
O17 P3 1.536172 1_555
O18 P0 1.536176 1_555
O19 P1 1.536175 1_555
