# generated using pymatgen
data_Ho2Pd2Pb
_symmetry_space_group_name_H-M   'P 1'
_cell_length_a   7.23090962
_cell_length_b   15.60578028
_cell_length_c   15.60578028
_cell_angle_alpha   90.00000000
_cell_angle_beta   90.00000000
_cell_angle_gamma   90.00000000
_symmetry_Int_Tables_number   1
_chemical_formula_structural   Ho2Pd2Pb
_chemical_formula_sum   'Ho32 Pd32 Pb16'
_cell_volume   1761.01846321
_cell_formula_units_Z   16
loop_
 _symmetry_equiv_pos_site_id
 _symmetry_equiv_pos_as_xyz
  1  'x, y, z'
loop_
 _atom_site_type_symbol
 _atom_site_label
 _atom_site_symmetry_multiplicity
 _atom_site_fract_x
 _atom_site_fract_y
 _atom_site_fract_z
 _atom_site_occupancy
  Ho  Ho0_0  1  0.25000000  0.08563266  0.33563266  1
  Ho  Ho0_1  1  0.25000000  0.08563266  0.83563266  1
  Ho  Ho0_2  1  0.25000000  0.58563266  0.33563266  1
  Ho  Ho0_3  1  0.25000000  0.58563266  0.83563266  1
  Ho  Ho0_4  1  0.75000000  0.08563266  0.33563266  1
  Ho  Ho0_5  1  0.75000000  0.08563266  0.83563266  1
  Ho  Ho0_6  1  0.75000000  0.58563266  0.33563266  1
  Ho  Ho0_7  1  0.75000000  0.58563266  0.83563266  1
  Ho  Ho1_0  1  0.25000000  0.16436734  0.08563266  1
  Ho  Ho1_1  1  0.25000000  0.16436734  0.58563266  1
  Ho  Ho1_2  1  0.25000000  0.66436734  0.08563266  1
  Ho  Ho1_3  1  0.25000000  0.66436734  0.58563266  1
  Ho  Ho1_4  1  0.75000000  0.16436734  0.08563266  1
  Ho  Ho1_5  1  0.75000000  0.16436734  0.58563266  1
  Ho  Ho1_6  1  0.75000000  0.66436734  0.08563266  1
  Ho  Ho1_7  1  0.75000000  0.66436734  0.58563266  1
  Ho  Ho2_0  1  0.25000000  0.33563266  0.41436734  1
  Ho  Ho2_1  1  0.25000000  0.33563266  0.91436734  1
  Ho  Ho2_2  1  0.25000000  0.83563266  0.41436734  1
  Ho  Ho2_3  1  0.25000000  0.83563266  0.91436734  1
  Ho  Ho2_4  1  0.75000000  0.33563266  0.41436734  1
  Ho  Ho2_5  1  0.75000000  0.33563266  0.91436734  1
  Ho  Ho2_6  1  0.75000000  0.83563266  0.41436734  1
  Ho  Ho2_7  1  0.75000000  0.83563266  0.91436734  1
  Ho  Ho3_0  1  0.25000000  0.41436734  0.16436734  1
  Ho  Ho3_1  1  0.25000000  0.41436734  0.66436734  1
  Ho  Ho3_2  1  0.25000000  0.91436734  0.16436734  1
  Ho  Ho3_3  1  0.25000000  0.91436734  0.66436734  1
  Ho  Ho3_4  1  0.75000000  0.41436734  0.16436734  1
  Ho  Ho3_5  1  0.75000000  0.41436734  0.66436734  1
  Ho  Ho3_6  1  0.75000000  0.91436734  0.16436734  1
  Ho  Ho3_7  1  0.75000000  0.91436734  0.66436734  1
  Pd  Pd0_0  1  0.00000000  0.06260338  0.18739662  1
  Pd  Pd0_1  1  0.00000000  0.06260338  0.68739662  1
  Pd  Pd0_2  1  0.00000000  0.56260338  0.18739662  1
  Pd  Pd0_3  1  0.00000000  0.56260338  0.68739662  1
  Pd  Pd0_4  1  0.50000000  0.06260338  0.18739662  1
  Pd  Pd0_5  1  0.50000000  0.06260338  0.68739662  1
  Pd  Pd0_6  1  0.50000000  0.56260338  0.18739662  1
  Pd  Pd0_7  1  0.50000000  0.56260338  0.68739662  1
  Pd  Pd1_0  1  0.00000000  0.31260338  0.06260338  1
  Pd  Pd1_1  1  0.00000000  0.31260338  0.56260338  1
  Pd  Pd1_2  1  0.00000000  0.81260338  0.06260338  1
  Pd  Pd1_3  1  0.00000000  0.81260338  0.56260338  1
  Pd  Pd1_4  1  0.50000000  0.31260338  0.06260338  1
  Pd  Pd1_5  1  0.50000000  0.31260338  0.56260338  1
  Pd  Pd1_6  1  0.50000000  0.81260338  0.06260338  1
  Pd  Pd1_7  1  0.50000000  0.81260338  0.56260338  1
  Pd  Pd2_0  1  0.00000000  0.43739661  0.31260338  1
  Pd  Pd2_1  1  0.00000000  0.43739661  0.81260338  1
  Pd  Pd2_2  1  0.00000000  0.93739661  0.31260338  1
  Pd  Pd2_3  1  0.00000000  0.93739661  0.81260338  1
  Pd  Pd2_4  1  0.50000000  0.43739661  0.31260338  1
  Pd  Pd2_5  1  0.50000000  0.43739661  0.81260338  1
  Pd  Pd2_6  1  0.50000000  0.93739661  0.31260338  1
  Pd  Pd2_7  1  0.50000000  0.93739661  0.81260338  1
  Pd  Pd3_0  1  0.00000000  0.18739662  0.43739661  1
  Pd  Pd3_1  1  0.00000000  0.18739662  0.93739661  1
  Pd  Pd3_2  1  0.00000000  0.68739662  0.43739661  1
  Pd  Pd3_3  1  0.00000000  0.68739662  0.93739661  1
  Pd  Pd3_4  1  0.50000000  0.18739662  0.43739661  1
  Pd  Pd3_5  1  0.50000000  0.18739662  0.93739661  1
  Pd  Pd3_6  1  0.50000000  0.68739662  0.43739661  1
  Pd  Pd3_7  1  0.50000000  0.68739662  0.93739661  1
  Pb  Pb0_0  1  0.00000000  0.00000000  0.00000000  1
  Pb  Pb0_1  1  0.00000000  0.00000000  0.50000000  1
  Pb  Pb0_2  1  0.00000000  0.50000000  0.00000000  1
  Pb  Pb0_3  1  0.00000000  0.50000000  0.50000000  1
  Pb  Pb0_4  1  0.50000000  0.00000000  0.00000000  1
  Pb  Pb0_5  1  0.50000000  0.00000000  0.50000000  1
  Pb  Pb0_6  1  0.50000000  0.50000000  0.00000000  1
  Pb  Pb0_7  1  0.50000000  0.50000000  0.50000000  1
  Pb  Pb1_0  1  0.00000000  0.25000000  0.25000000  1
  Pb  Pb1_1  1  0.00000000  0.25000000  0.75000000  1
  Pb  Pb1_2  1  0.00000000  0.75000000  0.25000000  1
  Pb  Pb1_3  1  0.00000000  0.75000000  0.75000000  1
  Pb  Pb1_4  1  0.50000000  0.25000000  0.25000000  1
  Pb  Pb1_5  1  0.50000000  0.25000000  0.75000000  1
  Pb  Pb1_6  1  0.50000000  0.75000000  0.25000000  1
  Pb  Pb1_7  1  0.50000000  0.75000000  0.75000000  1
loop_
_geom_bond_atom_site_label_1
_geom_bond_atom_site_label_2
_geom_bond_distance
_geom_bond_site_symmetry_2
Ho0_0 Pd3_4 2.883061 1_555
Ho0_0 Pd3_0 2.883061 1_555
Ho0_0 Pd0_0 2.957799 1_555
Ho0_0 Pd0_4 2.957799 1_555
Ho0_0 Pd2_2 2.957799 1_545
Ho0_0 Pd2_6 2.957799 1_545
Ho0_0 Pb0_1 3.410775 1_555
Ho0_0 Pb0_5 3.410775 1_555
Ho0_0 Pb1_0 3.410775 1_555
Ho0_0 Pb1_4 3.410775 1_555
Ho0_1 Pd3_1 2.883061 1_555
Ho0_1 Pd3_5 2.883061 1_555
Ho0_1 Pd0_1 2.957799 1_555
Ho0_1 Pd0_5 2.957799 1_555
Ho0_1 Pd2_3 2.957799 1_545
Ho0_1 Pd2_7 2.957799 1_545
Ho0_1 Pb0_0 3.410775 1_556
Ho0_1 Pb0_4 3.410775 1_556
Ho0_1 Pb1_1 3.410775 1_555
Ho0_1 Pb1_5 3.410775 1_555
Ho0_2 Pd3_2 2.883061 1_555
Ho0_2 Pd3_6 2.883061 1_555
Ho0_2 Pd0_2 2.957799 1_555
Ho0_2 Pd0_6 2.957799 1_555
Ho0_2 Pd2_0 2.957799 1_555
Ho0_2 Pd2_4 2.957799 1_555
Ho0_2 Pb1_2 3.410775 1_555
Ho0_2 Pb1_6 3.410775 1_555
Ho0_2 Pb0_3 3.410775 1_555
Ho0_2 Pb0_7 3.410775 1_555
Ho0_3 Pd3_3 2.883061 1_555
Ho0_3 Pd3_7 2.883061 1_555
Ho0_3 Pd0_3 2.957799 1_555
Ho0_3 Pd0_7 2.957799 1_555
Ho0_3 Pd2_5 2.957799 1_555
Ho0_3 Pd2_1 2.957799 1_555
Ho0_3 Pb1_3 3.410775 1_555
Ho0_3 Pb1_7 3.410775 1_555
Ho0_3 Pb0_2 3.410775 1_556
Ho0_3 Pb0_6 3.410775 1_556
Ho0_4 Pd3_0 2.883061 1_655
Ho0_4 Pd3_4 2.883061 1_555
Ho0_4 Pd0_0 2.957799 1_655
Ho0_4 Pd2_2 2.957799 1_645
Ho0_4 Pd0_4 2.957799 1_555
Ho0_4 Pd2_6 2.957799 1_545
Ho0_4 Pb0_1 3.410775 1_655
Ho0_4 Pb0_5 3.410775 1_555
Ho0_4 Pb1_0 3.410775 1_655
Ho0_4 Pb1_4 3.410775 1_555
Ho0_5 Pd3_1 2.883061 1_655
Ho0_5 Pd3_5 2.883061 1_555
Ho0_5 Pd0_1 2.957799 1_655
Ho0_5 Pd2_3 2.957799 1_645
Ho0_5 Pd0_5 2.957799 1_555
Ho0_5 Pd2_7 2.957799 1_545
Ho0_5 Pb0_0 3.410775 1_656
Ho0_5 Pb0_4 3.410775 1_556
Ho0_5 Pb1_1 3.410775 1_655
Ho0_5 Pb1_5 3.410775 1_555
Ho0_6 Pd3_2 2.883061 1_655
Ho0_6 Pd3_6 2.883061 1_555
Ho0_6 Pd0_2 2.957799 1_655
Ho0_6 Pd2_0 2.957799 1_655
Ho0_6 Pd0_6 2.957799 1_555
Ho0_6 Pd2_4 2.957799 1_555
Ho0_6 Pb0_3 3.410775 1_655
Ho0_6 Pb1_2 3.410775 1_655
Ho0_6 Pb1_6 3.410775 1_555
Ho0_6 Pb0_7 3.410775 1_555
Ho0_7 Pd3_3 2.883061 1_655
Ho0_7 Pd3_7 2.883061 1_555
Ho0_7 Pd0_3 2.957799 1_655
Ho0_7 Pd2_1 2.957799 1_655
Ho0_7 Pd0_7 2.957799 1_555
Ho0_7 Pd2_5 2.957799 1_555
Ho0_7 Pb0_2 3.410775 1_656
Ho0_7 Pb1_3 3.410775 1_655
Ho0_7 Pb1_7 3.410775 1_555
Ho0_7 Pb0_6 3.410775 1_556
Ho1_0 Pd0_0 2.883061 1_555
Ho1_0 Pd0_4 2.883061 1_555
Ho1_0 Pd1_0 2.957799 1_555
Ho1_0 Pd1_4 2.957799 1_555
Ho1_0 Pd3_1 2.957799 1_554
Ho1_0 Pd3_5 2.957799 1_554
Ho1_0 Pb0_4 3.410775 1_555
Ho1_0 Pb1_0 3.410775 1_555
Ho1_0 Pb1_4 3.410775 1_555
Ho1_0 Pb0_0 3.410775 1_555
Ho1_1 Pd0_1 2.883061 1_555
Ho1_1 Pd0_5 2.883061 1_555
Ho1_1 Pd1_1 2.957799 1_555
Ho1_1 Pd1_5 2.957799 1_555
Ho1_1 Pd3_0 2.957799 1_555
Ho1_1 Pd3_4 2.957799 1_555
Ho1_1 Pb1_1 3.410775 1_555
Ho1_1 Pb1_5 3.410775 1_555
Ho1_1 Pb0_5 3.410775 1_555
Ho1_1 Pb0_1 3.410775 1_555
Ho1_2 Pd0_2 2.883061 1_555
Ho1_2 Pd0_6 2.883061 1_555
Ho1_2 Pd1_2 2.957799 1_555
Ho1_2 Pd3_7 2.957799 1_554
Ho1_2 Pd1_6 2.957799 1_555
Ho1_2 Pd3_3 2.957799 1_554
Ho1_2 Pb0_6 3.410775 1_555
Ho1_2 Pb0_2 3.410775 1_555
Ho1_2 Pb1_2 3.410775 1_555
Ho1_2 Pb1_6 3.410775 1_555
Ho1_3 Pd0_7 2.883061 1_555
Ho1_3 Pd0_3 2.883061 1_555
Ho1_3 Pd3_2 2.957799 1_555
Ho1_3 Pd3_6 2.957799 1_555
Ho1_3 Pd1_7 2.957799 1_555
Ho1_3 Pd1_3 2.957799 1_555
Ho1_3 Pb0_7 3.410775 1_555
Ho1_3 Pb0_3 3.410775 1_555
Ho1_3 Pb1_7 3.410775 1_555
Ho1_3 Pb1_3 3.410775 1_555
Ho1_4 Pd0_0 2.883061 1_655
Ho1_4 Pd0_4 2.883061 1_555
Ho1_4 Pd1_0 2.957799 1_655
Ho1_4 Pd1_4 2.957799 1_555
Ho1_4 Pd3_1 2.957799 1_654
Ho1_4 Pd3_5 2.957799 1_554
Ho1_4 Pb0_0 3.410775 1_655
Ho1_4 Pb1_0 3.410775 1_655
Ho1_4 Pb0_4 3.410775 1_555
Ho1_4 Pb1_4 3.410775 1_555
Ho1_5 Pd0_1 2.883061 1_655
Ho1_5 Pd0_5 2.883061 1_555
Ho1_5 Pd1_1 2.957799 1_655
Ho1_5 Pd3_0 2.957799 1_655
Ho1_5 Pd1_5 2.957799 1_555
Ho1_5 Pd3_4 2.957799 1_555
Ho1_5 Pb1_1 3.410775 1_655
Ho1_5 Pb0_1 3.410775 1_655
Ho1_5 Pb1_5 3.410775 1_555
Ho1_5 Pb0_5 3.410775 1_555
Ho1_6 Pd0_2 2.883061 1_655
Ho1_6 Pd0_6 2.883061 1_555
Ho1_6 Pd3_3 2.957799 1_654
Ho1_6 Pd1_2 2.957799 1_655
Ho1_6 Pd3_7 2.957799 1_554
Ho1_6 Pd1_6 2.957799 1_555
Ho1_6 Pb0_2 3.410775 1_655
Ho1_6 Pb0_6 3.410775 1_555
Ho1_6 Pb1_2 3.410775 1_655
Ho1_6 Pb1_6 3.410775 1_555
Ho1_7 Pd0_3 2.883061 1_655
Ho1_7 Pd0_7 2.883061 1_555
Ho1_7 Pd3_2 2.957799 1_655
Ho1_7 Pd1_3 2.957799 1_655
Ho1_7 Pd3_6 2.957799 1_555
Ho1_7 Pd1_7 2.957799 1_555
Ho1_7 Pb0_3 3.410775 1_655
Ho1_7 Pb0_7 3.410775 1_555
Ho1_7 Pb1_3 3.410775 1_655
Ho1_7 Pb1_7 3.410775 1_555
Ho2_0 Pd2_4 2.883061 1_555
Ho2_0 Pd2_0 2.883061 1_555
Ho2_0 Pd1_1 2.957799 1_555
Ho2_0 Pd1_5 2.957799 1_555
Ho2_0 Pd3_0 2.957799 1_555
Ho2_0 Pd3_4 2.957799 1_555
Ho2_0 Pb0_7 3.410775 1_555
Ho2_0 Pb0_3 3.410775 1_555
Ho2_0 Pb1_0 3.410775 1_555
Ho2_0 Pb1_4 3.410775 1_555
Ho2_1 Pd2_1 2.883061 1_555
Ho2_1 Pd2_5 2.883061 1_555
Ho2_1 Pd3_5 2.957799 1_555
Ho2_1 Pd3_1 2.957799 1_555
Ho2_1 Pd1_4 2.957799 1_556
Ho2_1 Pd1_0 2.957799 1_556
Ho2_1 Pb0_6 3.410775 1_556
Ho2_1 Pb0_2 3.410775 1_556
Ho2_1 Pb1_1 3.410775 1_555
Ho2_1 Pb1_5 3.410775 1_555
Ho2_2 Pd2_2 2.883061 1_555
Ho2_2 Pd2_6 2.883061 1_555
Ho2_2 Pd1_3 2.957799 1_555
Ho2_2 Pd1_7 2.957799 1_555
Ho2_2 Pd3_6 2.957799 1_555
Ho2_2 Pd3_2 2.957799 1_555
Ho2_2 Pb0_5 3.410775 1_565
Ho2_2 Pb0_1 3.410775 1_565
Ho2_2 Pb1_2 3.410775 1_555
Ho2_2 Pb1_6 3.410775 1_555
Ho2_3 Pd2_7 2.883061 1_555
Ho2_3 Pd2_3 2.883061 1_555
Ho2_3 Pd3_3 2.957799 1_555
Ho2_3 Pd3_7 2.957799 1_555
Ho2_3 Pd1_2 2.957799 1_556
Ho2_3 Pd1_6 2.957799 1_556
Ho2_3 Pb0_4 3.410775 1_566
Ho2_3 Pb0_0 3.410775 1_566
Ho2_3 Pb1_7 3.410775 1_555
Ho2_3 Pb1_3 3.410775 1_555
Ho2_4 Pd2_0 2.883061 1_655
Ho2_4 Pd2_4 2.883061 1_555
Ho2_4 Pd1_1 2.957799 1_655
Ho2_4 Pd3_0 2.957799 1_655
Ho2_4 Pd1_5 2.957799 1_555
Ho2_4 Pd3_4 2.957799 1_555
Ho2_4 Pb0_3 3.410775 1_655
Ho2_4 Pb1_0 3.410775 1_655
Ho2_4 Pb0_7 3.410775 1_555
Ho2_4 Pb1_4 3.410775 1_555
Ho2_5 Pd2_1 2.883061 1_655
Ho2_5 Pd2_5 2.883061 1_555
Ho2_5 Pd3_1 2.957799 1_655
Ho2_5 Pd1_0 2.957799 1_656
Ho2_5 Pd3_5 2.957799 1_555
Ho2_5 Pd1_4 2.957799 1_556
Ho2_5 Pb0_2 3.410775 1_656
Ho2_5 Pb1_1 3.410775 1_655
Ho2_5 Pb0_6 3.410775 1_556
Ho2_5 Pb1_5 3.410775 1_555
Ho2_6 Pd2_2 2.883061 1_655
Ho2_6 Pd2_6 2.883061 1_555
Ho2_6 Pd1_3 2.957799 1_655
Ho2_6 Pd3_2 2.957799 1_655
Ho2_6 Pd1_7 2.957799 1_555
Ho2_6 Pd3_6 2.957799 1_555
Ho2_6 Pb0_1 3.410775 1_665
Ho2_6 Pb1_2 3.410775 1_655
Ho2_6 Pb0_5 3.410775 1_565
Ho2_6 Pb1_6 3.410775 1_555
Ho2_7 Pd2_3 2.883061 1_655
Ho2_7 Pd2_7 2.883061 1_555
Ho2_7 Pd3_3 2.957799 1_655
Ho2_7 Pd1_2 2.957799 1_656
Ho2_7 Pd3_7 2.957799 1_555
Ho2_7 Pd1_6 2.957799 1_556
Ho2_7 Pb0_0 3.410775 1_666
Ho2_7 Pb1_3 3.410775 1_655
Ho2_7 Pb0_4 3.410775 1_566
Ho2_7 Pb1_7 3.410775 1_555
Ho3_0 Pd1_0 2.883061 1_555
Ho3_0 Pd1_4 2.883061 1_555
Ho3_0 Pd0_2 2.957799 1_555
Ho3_0 Pd0_6 2.957799 1_555
Ho3_0 Pd2_4 2.957799 1_555
Ho3_0 Pd2_0 2.957799 1_555
Ho3_0 Pb0_2 3.410775 1_555
Ho3_0 Pb0_6 3.410775 1_555
Ho3_0 Pb1_0 3.410775 1_555
Ho3_0 Pb1_4 3.410775 1_555
Ho3_1 Pd1_1 2.883061 1_555
Ho3_1 Pd1_5 2.883061 1_555
Ho3_1 Pd0_7 2.957799 1_555
Ho3_1 Pd0_3 2.957799 1_555
Ho3_1 Pd2_1 2.957799 1_555
Ho3_1 Pd2_5 2.957799 1_555
Ho3_1 Pb0_7 3.410775 1_555
Ho3_1 Pb0_3 3.410775 1_555
Ho3_1 Pb1_1 3.410775 1_555
Ho3_1 Pb1_5 3.410775 1_555
Ho3_2 Pd1_2 2.883061 1_555
Ho3_2 Pd1_6 2.883061 1_555
Ho3_2 Pd2_2 2.957799 1_555
Ho3_2 Pd2_6 2.957799 1_555
Ho3_2 Pd0_0 2.957799 1_565
Ho3_2 Pd0_4 2.957799 1_565
Ho3_2 Pb1_2 3.410775 1_555
Ho3_2 Pb1_6 3.410775 1_555
Ho3_2 Pb0_4 3.410775 1_565
Ho3_2 Pb0_0 3.410775 1_565
Ho3_3 Pd1_3 2.883061 1_555
Ho3_3 Pd1_7 2.883061 1_555
Ho3_3 Pd2_7 2.957799 1_555
Ho3_3 Pd2_3 2.957799 1_555
Ho3_3 Pd0_5 2.957799 1_565
Ho3_3 Pd0_1 2.957799 1_565
Ho3_3 Pb0_1 3.410775 1_565
Ho3_3 Pb0_5 3.410775 1_565
Ho3_3 Pb1_7 3.410775 1_555
Ho3_3 Pb1_3 3.410775 1_555
Ho3_4 Pd1_0 2.883061 1_655
Ho3_4 Pd1_4 2.883061 1_555
Ho3_4 Pd0_2 2.957799 1_655
Ho3_4 Pd2_0 2.957799 1_655
Ho3_4 Pd0_6 2.957799 1_555
Ho3_4 Pd2_4 2.957799 1_555
Ho3_4 Pb0_2 3.410775 1_655
Ho3_4 Pb1_0 3.410775 1_655
Ho3_4 Pb0_6 3.410775 1_555
Ho3_4 Pb1_4 3.410775 1_555
Ho3_5 Pd1_1 2.883061 1_655
Ho3_5 Pd1_5 2.883061 1_555
Ho3_5 Pd0_3 2.957799 1_655
Ho3_5 Pd0_7 2.957799 1_555
Ho3_5 Pd2_1 2.957799 1_655
Ho3_5 Pd2_5 2.957799 1_555
Ho3_5 Pb0_3 3.410775 1_655
Ho3_5 Pb0_7 3.410775 1_555
Ho3_5 Pb1_1 3.410775 1_655
Ho3_5 Pb1_5 3.410775 1_555
Ho3_6 Pd1_2 2.883061 1_655
Ho3_6 Pd1_6 2.883061 1_555
Ho3_6 Pd2_2 2.957799 1_655
Ho3_6 Pd2_6 2.957799 1_555
Ho3_6 Pd0_0 2.957799 1_665
Ho3_6 Pd0_4 2.957799 1_565
Ho3_6 Pb1_2 3.410775 1_655
Ho3_6 Pb0_0 3.410775 1_665
Ho3_6 Pb1_6 3.410775 1_555
Ho3_6 Pb0_4 3.410775 1_565
Ho3_7 Pd1_3 2.883061 1_655
Ho3_7 Pd1_7 2.883061 1_555
Ho3_7 Pd2_3 2.957799 1_655
Ho3_7 Pd0_1 2.957799 1_665
Ho3_7 Pd2_7 2.957799 1_555
Ho3_7 Pd0_5 2.957799 1_565
Ho3_7 Pb0_1 3.410775 1_665
Ho3_7 Pb0_5 3.410775 1_565
Ho3_7 Pb1_3 3.410775 1_655
Ho3_7 Pb1_7 3.410775 1_555
Pd0_0 Pd2_2 2.763302 1_545
Pd0_1 Pd2_3 2.763302 1_545
Pd0_2 Pd2_0 2.763302 1_555
Pd0_3 Pd2_1 2.763302 1_555
Pd0_4 Pd2_6 2.763302 1_545
Pd0_5 Pd2_7 2.763302 1_545
Pd0_6 Pd2_4 2.763302 1_555
Pd0_7 Pd2_5 2.763302 1_555
Pd1_0 Pd3_1 2.763302 1_554
Pd1_1 Pd3_0 2.763302 1_555
Pd1_2 Pd3_3 2.763302 1_554
Pd1_3 Pd3_2 2.763302 1_555
Pd1_4 Pd3_5 2.763302 1_554
Pd1_5 Pd3_4 2.763302 1_555
Pd1_6 Pd3_7 2.763302 1_554
Pd1_7 Pd3_6 2.763302 1_555
Pb0_0 Pd0_0 3.083343 1_555
Pb0_0 Pd1_2 3.083343 1_545
Pb0_0 Pd3_1 3.083343 1_554
Pb0_0 Pd2_3 3.083343 1_544
Pb0_0 Pb0_4 3.615455 1_455
Pb0_0 Pb0_4 3.615455 1_555
Pb0_1 Pd3_0 3.083343 1_555
Pb0_1 Pd0_1 3.083343 1_555
Pb0_1 Pd1_3 3.083343 1_545
Pb0_1 Pd2_2 3.083343 1_545
Pb0_1 Pb0_5 3.615455 1_555
Pb0_1 Pb0_5 3.615455 1_455
Pb0_2 Pd0_2 3.083343 1_555
Pb0_2 Pd2_1 3.083343 1_554
Pb0_2 Pd1_0 3.083343 1_555
Pb0_2 Pd3_3 3.083343 1_554
Pb0_2 Pb0_6 3.615455 1_555
Pb0_2 Pb0_6 3.615455 1_455
Pb0_3 Pd1_1 3.083343 1_555
Pb0_3 Pd0_3 3.083343 1_555
Pb0_3 Pd3_2 3.083343 1_555
Pb0_3 Pd2_0 3.083343 1_555
Pb0_3 Pb0_7 3.615455 1_455
Pb0_3 Pb0_7 3.615455 1_555
Pb0_4 Pd0_4 3.083343 1_555
Pb0_4 Pd1_6 3.083343 1_545
Pb0_4 Pd3_5 3.083343 1_554
Pb0_4 Pd2_7 3.083343 1_544
Pb0_5 Pd3_4 3.083343 1_555
Pb0_5 Pd1_7 3.083343 1_545
Pb0_5 Pd0_5 3.083343 1_555
Pb0_5 Pd2_6 3.083343 1_545
Pb0_6 Pd0_6 3.083343 1_555
Pb0_6 Pd1_4 3.083343 1_555
Pb0_6 Pd2_5 3.083343 1_554
Pb0_6 Pd3_7 3.083343 1_554
Pb0_7 Pd2_4 3.083343 1_555
Pb0_7 Pd0_7 3.083343 1_555
Pb0_7 Pd3_6 3.083343 1_555
Pb0_7 Pd1_5 3.083343 1_555
Pb1_0 Pd2_0 3.083343 1_555
Pb1_0 Pd1_0 3.083343 1_555
Pb1_0 Pd3_0 3.083343 1_555
Pb1_0 Pd0_0 3.083343 1_555
Pb1_0 Pb1_4 3.615455 1_555
Pb1_0 Pb1_4 3.615455 1_455
Pb1_1 Pd3_1 3.083343 1_555
Pb1_1 Pd2_1 3.083343 1_555
Pb1_1 Pd0_1 3.083343 1_555
Pb1_1 Pd1_1 3.083343 1_555
Pb1_1 Pb1_5 3.615455 1_455
Pb1_1 Pb1_5 3.615455 1_555
Pb1_2 Pd2_2 3.083343 1_555
Pb1_2 Pd3_2 3.083343 1_555
Pb1_2 Pd1_2 3.083343 1_555
Pb1_2 Pd0_2 3.083343 1_555
Pb1_2 Pb1_6 3.615455 1_455
Pb1_2 Pb1_6 3.615455 1_555
Pb1_3 Pd3_3 3.083343 1_555
Pb1_3 Pd2_3 3.083343 1_555
Pb1_3 Pd1_3 3.083343 1_555
Pb1_3 Pd0_3 3.083343 1_555
Pb1_3 Pb1_7 3.615455 1_555
Pb1_3 Pb1_7 3.615455 1_455
Pb1_4 Pd0_4 3.083343 1_555
Pb1_4 Pd2_4 3.083343 1_555
Pb1_4 Pd1_4 3.083343 1_555
Pb1_4 Pd3_4 3.083343 1_555
Pb1_5 Pd3_5 3.083343 1_555
Pb1_5 Pd2_5 3.083343 1_555
Pb1_5 Pd0_5 3.083343 1_555
Pb1_5 Pd1_5 3.083343 1_555
Pb1_6 Pd2_6 3.083343 1_555
Pb1_6 Pd1_6 3.083343 1_555
Pb1_6 Pd3_6 3.083343 1_555
Pb1_6 Pd0_6 3.083343 1_555
Pb1_7 Pd2_7 3.083343 1_555
Pb1_7 Pd3_7 3.083343 1_555
Pb1_7 Pd0_7 3.083343 1_555
Pb1_7 Pd1_7 3.083343 1_555
