# generated using pymatgen
data_CsNaCd3O4
_symmetry_space_group_name_H-M   'P 1'
_cell_length_a   6.76044168
_cell_length_b   6.76044123
_cell_length_c   9.12740957
_cell_angle_alpha   47.31168176
_cell_angle_beta   47.31168508
_cell_angle_gamma   32.47407358
_symmetry_Int_Tables_number   1
_chemical_formula_structural   CsNaCd3O4
_chemical_formula_sum   'Cs1 Na1 Cd3 O4'
_cell_volume   158.58441250
_cell_formula_units_Z   1
loop_
 _symmetry_equiv_pos_site_id
 _symmetry_equiv_pos_as_xyz
  1  'x, y, z'
loop_
 _atom_site_type_symbol
 _atom_site_label
 _atom_site_symmetry_multiplicity
 _atom_site_fract_x
 _atom_site_fract_y
 _atom_site_fract_z
 _atom_site_occupancy
  Cs  Cs0  1  0.99429183  0.99429183  0.00654341  1
  Na  Na0  1  0.18042098  0.18042098  0.44943844  1
  Cd  Cd0  1  0.80769687  0.80769687  0.55570378  1
  Cd  Cd1  1  0.37879852  0.37879852  0.80065344  1
  Cd  Cd2  1  0.63136248  0.63136248  0.19116842  1
  O  O0  1  0.23361989  0.23361989  0.15268920  1
  O  O1  1  0.77184088  0.77184088  0.83062904  1
  O  O2  1  0.60171854  0.60171854  0.63753397  1
  O  O3  1  0.40024800  0.40024800  0.37564031  1
loop_
_geom_bond_atom_site_label_1
_geom_bond_atom_site_label_2
_geom_bond_distance
_geom_bond_site_symmetry_2
Cs0 O2 3.198165 1_564
Cs0 O2 3.198165 1_654
Cs0 O0 3.229292 1_655
Cs0 O0 3.229293 1_565
Cs0 O3 3.256427 1_655
Cs0 O3 3.256427 1_565
Cs0 O1 3.310951 1_564
Cs0 O1 3.310951 1_654
Na0 O2 2.255485 1_545
Na0 O2 2.255486 1_455
Na0 O0 2.274054 1_555
Na0 O3 2.425383 1_555
Cd0 O1 2.205417 1_555
Cd0 O2 2.210666 1_555
Cd0 O3 2.220139 1_565
Cd0 O3 2.220139 1_655
Cd1 O2 2.122712 1_555
Cd1 O1 2.244866 1_545
Cd1 O1 2.244867 1_455
Cd1 O0 2.307291 1_556
Cd2 O3 2.168339 1_555
Cd2 O0 2.190950 1_565
Cd2 O0 2.190951 1_655
Cd2 O1 2.383093 1_554
