# generated using pymatgen
data_ZrMnBr6
_symmetry_space_group_name_H-M   'P 1'
_cell_length_a   6.75294344
_cell_length_b   6.75294205
_cell_length_c   12.99933780
_cell_angle_alpha   90.00000000
_cell_angle_beta   90.00000000
_cell_angle_gamma   119.99999736
_symmetry_Int_Tables_number   1
_chemical_formula_structural   ZrMnBr6
_chemical_formula_sum   'Zr2 Mn2 Br12'
_cell_volume   513.37889137
_cell_formula_units_Z   2
loop_
 _symmetry_equiv_pos_site_id
 _symmetry_equiv_pos_as_xyz
  1  'x, y, z'
loop_
 _atom_site_type_symbol
 _atom_site_label
 _atom_site_symmetry_multiplicity
 _atom_site_fract_x
 _atom_site_fract_y
 _atom_site_fract_z
 _atom_site_occupancy
  Zr  Zr0  1  0.33333300  0.66666700  0.25000000  1
  Zr  Zr1  1  0.66666700  0.33333300  0.75000000  1
  Mn  Mn0  1  0.00000000  0.00000000  0.25000000  1
  Mn  Mn1  1  0.00000000  0.00000000  0.75000000  1
  Br  Br0  1  0.66121070  0.97469668  0.13226846  1
  Br  Br1  1  0.02530332  0.68651403  0.13226846  1
  Br  Br2  1  0.31348597  0.33878930  0.13226846  1
  Br  Br3  1  0.02530332  0.33878930  0.36773154  1
  Br  Br4  1  0.33878930  0.31348597  0.63226846  1
  Br  Br5  1  0.68651403  0.02530332  0.63226846  1
  Br  Br6  1  0.97469668  0.66121070  0.63226846  1
  Br  Br7  1  0.68651403  0.66121070  0.86773154  1
  Br  Br8  1  0.97469668  0.31348597  0.86773154  1
  Br  Br9  1  0.33878930  0.02530332  0.86773154  1
  Br  Br10  1  0.66121070  0.68651403  0.36773154  1
  Br  Br11  1  0.31348597  0.97469668  0.36773154  1
loop_
_geom_bond_atom_site_label_1
_geom_bond_atom_site_label_2
_geom_bond_distance
_geom_bond_site_symmetry_2
Br0 Zr0 2.639287 1_555
Br0 Mn0 2.686008 1_665
Br1 Zr0 2.639284 1_555
Br1 Mn0 2.686007 1_565
Br2 Zr0 2.639289 1_555
Br2 Mn0 2.686008 1_555
Br3 Zr0 2.639287 1_555
Br3 Mn0 2.686007 1_555
Br4 Zr1 2.639289 1_555
Br4 Mn1 2.686008 1_555
Br5 Zr1 2.639283 1_555
Br5 Mn1 2.686008 1_655
Br6 Zr1 2.639287 1_555
Br6 Mn1 2.686007 1_665
Br7 Zr1 2.639289 1_555
Br7 Mn1 2.686008 1_665
Br8 Zr1 2.639284 1_555
Br8 Mn1 2.686007 1_655
Br9 Zr1 2.639287 1_555
Br9 Mn1 2.686008 1_555
Br10 Zr0 2.639289 1_555
Br10 Mn0 2.686008 1_665
Br11 Zr0 2.639283 1_555
Br11 Mn0 2.686008 1_565
