# generated using pymatgen
data_MgZr6Zn22Si
_symmetry_space_group_name_H-M   'P 1'
_cell_length_a   8.72379865
_cell_length_b   8.72379840
_cell_length_c   8.72379934
_cell_angle_alpha   60.00000377
_cell_angle_beta   60.00000472
_cell_angle_gamma   60.00000008
_symmetry_Int_Tables_number   1
_chemical_formula_structural   MgZr6Zn22Si
_chemical_formula_sum   'Mg1 Zr6 Zn22 Si1'
_cell_volume   469.46362957
_cell_formula_units_Z   1
loop_
 _symmetry_equiv_pos_site_id
 _symmetry_equiv_pos_as_xyz
  1  'x, y, z'
loop_
 _atom_site_type_symbol
 _atom_site_label
 _atom_site_symmetry_multiplicity
 _atom_site_fract_x
 _atom_site_fract_y
 _atom_site_fract_z
 _atom_site_occupancy
  Mg  Mg0  1  0.00000000  0.00000000  0.00000000  1
  Zr  Zr0  1  0.71375546  0.28624454  0.28624454  1
  Zr  Zr1  1  0.28624454  0.71375546  0.71375546  1
  Zr  Zr2  1  0.28624454  0.71375546  0.28624454  1
  Zr  Zr3  1  0.71375546  0.28624454  0.71375546  1
  Zr  Zr4  1  0.28624454  0.28624454  0.71375546  1
  Zr  Zr5  1  0.71375546  0.71375546  0.28624454  1
  Zn  Zn0  1  0.12769286  0.12769286  0.12769286  1
  Zn  Zn1  1  0.87230714  0.87230714  0.87230714  1
  Zn  Zn2  1  0.12769286  0.12769286  0.61692241  1
  Zn  Zn3  1  0.12769286  0.61692241  0.12769286  1
  Zn  Zn4  1  0.87230714  0.87230714  0.38307759  1
  Zn  Zn5  1  0.87230714  0.38307759  0.87230714  1
  Zn  Zn6  1  0.61692241  0.12769286  0.12769286  1
  Zn  Zn7  1  0.38307759  0.87230714  0.87230714  1
  Zn  Zn8  1  0.50000000  0.00000000  0.00000000  1
  Zn  Zn9  1  0.00000000  0.50000000  0.50000000  1
  Zn  Zn10  1  0.00000000  0.50000000  0.00000000  1
  Zn  Zn11  1  0.50000000  0.00000000  0.50000000  1
  Zn  Zn12  1  0.00000000  0.00000000  0.50000000  1
  Zn  Zn13  1  0.50000000  0.50000000  0.00000000  1
  Zn  Zn14  1  0.33743193  0.33743193  0.33743193  1
  Zn  Zn15  1  0.66256807  0.66256807  0.66256807  1
  Zn  Zn16  1  0.33743193  0.33743193  0.98770521  1
  Zn  Zn17  1  0.33743193  0.98770521  0.33743193  1
  Zn  Zn18  1  0.66256807  0.66256807  0.01229479  1
  Zn  Zn19  1  0.66256807  0.01229479  0.66256807  1
  Zn  Zn20  1  0.98770521  0.33743193  0.33743193  1
  Zn  Zn21  1  0.01229479  0.66256807  0.66256807  1
  Si  Si0  1  0.50000000  0.50000000  0.50000000  1
loop_
_geom_bond_atom_site_label_1
_geom_bond_atom_site_label_2
_geom_bond_distance
_geom_bond_site_symmetry_2
Mg0 Zn5 2.728643 1_454
Mg0 Zn3 2.728643 1_545
Mg0 Zn7 2.728643 1_544
Mg0 Zn6 2.728643 1_455
Mg0 Zn4 2.728644 1_445
Mg0 Zn2 2.728644 1_554
Mg0 Zn0 2.728650 1_555
Mg0 Zn1 2.728650 1_444
Zn0 Zn10 2.652481 1_555
Zn0 Zn8 2.652481 1_555
Zn0 Zn12 2.652481 1_555
Zn0 Zn16 2.658201 1_554
Zn0 Zn20 2.658201 1_455
Zn0 Zn17 2.658201 1_545
Zn0 Zr2 2.964797 1_545
Zn0 Zr0 2.964797 1_455
Zn0 Zr4 2.964798 1_554
Zn1 Zn10 2.652481 1_656
Zn1 Zn8 2.652481 1_566
Zn1 Zn12 2.652481 1_665
Zn1 Zn18 2.658201 1_556
Zn1 Zn21 2.658201 1_655
Zn1 Zn19 2.658201 1_565
Zn1 Zr3 2.964797 1_565
Zn1 Zr1 2.964797 1_655
Zn1 Zr5 2.964798 1_556
Zn2 Zn9 2.652480 1_555
Zn2 Zn20 2.658201 1_455
Zn2 Zr4 2.964791 1_555
Zn2 Zr1 2.964798 1_545
Zn2 Zr3 2.964798 1_455
Zn3 Zn9 2.652481 1_555
Zn3 Zr2 2.964791 1_555
Zn3 Zr5 2.964798 1_455
Zn3 Zr1 2.964798 1_554
Zn4 Zn9 2.652480 1_655
Zn4 Zr5 2.964791 1_555
Zn4 Zr0 2.964798 1_565
Zn4 Zr2 2.964798 1_655
Zn5 Zn9 2.652481 1_655
Zn5 Zr3 2.964791 1_555
Zn5 Zr4 2.964798 1_655
Zn5 Zr0 2.964798 1_556
Zn6 Zn8 2.652488 1_555
Zn6 Zr0 2.964791 1_555
Zn6 Zr5 2.964798 1_545
Zn6 Zr3 2.964798 1_554
Zn7 Zn8 2.652488 1_566
Zn7 Zr1 2.964791 1_555
Zn7 Zr4 2.964798 1_565
Zn7 Zr2 2.964798 1_556
Zn8 Zr5 3.116574 1_545
Zn8 Zr4 3.116574 1_554
Zn8 Zr3 3.116574 1_554
Zn8 Zr2 3.116574 1_545
Zn9 Zr4 3.116574 1_555
Zn9 Zr5 3.116574 1_455
Zn9 Zr2 3.116574 1_555
Zn9 Zr3 3.116574 1_455
Zn10 Zn18 2.519869 1_455
Zn10 Zn16 2.519869 1_554
Zn10 Zn21 2.519869 1_554
Zn10 Zn20 2.519869 1_455
Zn10 Zn3 2.652488 1_555
Zn10 Zn5 2.652488 1_454
Zn10 Zr5 3.116574 1_455
Zn10 Zr4 3.116574 1_554
Zn10 Zr1 3.116574 1_554
Zn10 Zr0 3.116574 1_455
Zn11 Zn19 2.519861 1_555
Zn11 Zn17 2.519861 1_545
Zn11 Zn14 2.519866 1_555
Zn11 Zn15 2.519866 1_545
Zn11 Zn4 2.652481 1_545
Zn11 Zn2 2.652481 1_555
Zn11 Zn7 2.652481 1_545
Zn11 Zn6 2.652481 1_555
Zn11 Zr4 3.116574 1_555
Zn11 Zr5 3.116574 1_545
Zn11 Zr0 3.116574 1_555
Zn11 Zr1 3.116574 1_545
Zn12 Zn20 2.519869 1_455
Zn12 Zn21 2.519869 1_545
Zn12 Zn17 2.519869 1_545
Zn12 Zn19 2.519869 1_455
Zn12 Zn2 2.652488 1_555
Zn12 Zn4 2.652488 1_445
Zn12 Zr1 3.116574 1_545
Zn12 Zr3 3.116574 1_455
Zn12 Zr0 3.116574 1_455
Zn12 Zr2 3.116574 1_545
Zn13 Zn18 2.519861 1_555
Zn13 Zn16 2.519861 1_554
Zn13 Zn14 2.519867 1_555
Zn13 Zn15 2.519867 1_554
Zn13 Zn7 2.652480 1_554
Zn13 Zn6 2.652480 1_555
Zn13 Zn5 2.652481 1_554
Zn13 Zn3 2.652481 1_555
Zn13 Zr2 3.116574 1_555
Zn13 Zr0 3.116574 1_555
Zn13 Zr3 3.116574 1_554
Zn13 Zr1 3.116574 1_554
Zn14 Zn9 2.519866 1_555
Zn14 Zn3 2.658201 1_555
Zn14 Zn6 2.658201 1_555
Zn14 Zn2 2.658201 1_555
Zn14 Zr2 2.905874 1_555
Zn14 Zr0 2.905874 1_555
Zn14 Zr4 2.905874 1_555
Zn15 Zn9 2.519866 1_655
Zn15 Zn5 2.658201 1_555
Zn15 Zn7 2.658201 1_555
Zn15 Zn4 2.658201 1_555
Zn15 Zr3 2.905874 1_555
Zn15 Zr1 2.905874 1_555
Zn15 Zr5 2.905874 1_555
Zn16 Zn8 2.519868 1_556
Zn16 Zn3 2.658200 1_556
Zn16 Zn6 2.658200 1_556
Zn16 Zr1 2.905877 1_555
Zn16 Zr3 2.905877 1_555
Zn16 Zr4 2.905882 1_555
Zn17 Zn8 2.519869 1_565
Zn17 Zn6 2.658201 1_565
Zn17 Zn2 2.658201 1_565
Zn17 Zr5 2.905877 1_555
Zn17 Zr1 2.905877 1_555
Zn17 Zr2 2.905882 1_555
Zn18 Zn8 2.519868 1_565
Zn18 Zn5 2.658200 1_554
Zn18 Zn7 2.658200 1_554
Zn18 Zr0 2.905877 1_555
Zn18 Zr2 2.905877 1_555
Zn18 Zr5 2.905882 1_555
Zn19 Zn8 2.519869 1_556
Zn19 Zn7 2.658201 1_545
Zn19 Zn4 2.658201 1_545
Zn19 Zr4 2.905877 1_555
Zn19 Zr0 2.905877 1_555
Zn19 Zr3 2.905882 1_555
Zn20 Zn9 2.519861 1_655
Zn20 Zn3 2.658201 1_655
Zn20 Zr5 2.905877 1_555
Zn20 Zr3 2.905877 1_555
Zn20 Zr0 2.905882 1_555
Zn21 Zn9 2.519861 1_555
Zn21 Zn5 2.658201 1_455
Zn21 Zn4 2.658201 1_455
Zn21 Zr4 2.905877 1_555
Zn21 Zr2 2.905877 1_555
Zn21 Zr1 2.905882 1_555
Si0 Zr1 2.637168 1_555
Si0 Zr3 2.637168 1_555
Si0 Zr2 2.637168 1_555
Si0 Zr0 2.637168 1_555
Si0 Zr5 2.637168 1_555
Si0 Zr4 2.637168 1_555
