# generated using pymatgen
data_Rb2Hg(S4O13)2
_symmetry_space_group_name_H-M   'P 1'
_cell_length_a   7.33618080
_cell_length_b   8.58462670
_cell_length_c   9.46972880
_cell_angle_alpha   107.08861685
_cell_angle_beta   88.83703811
_cell_angle_gamma   106.52441208
_symmetry_Int_Tables_number   1
_chemical_formula_structural   Rb2Hg(S4O13)2
_chemical_formula_sum   'Rb2 Hg1 S8 O26'
_cell_volume   545.20955320
_cell_formula_units_Z   1
loop_
 _symmetry_equiv_pos_site_id
 _symmetry_equiv_pos_as_xyz
  1  'x, y, z'
loop_
 _atom_site_type_symbol
 _atom_site_label
 _atom_site_symmetry_multiplicity
 _atom_site_fract_x
 _atom_site_fract_y
 _atom_site_fract_z
 _atom_site_occupancy
  Rb  Rb0  1  0.13486147  0.26476697  0.88450285  1
  Rb  Rb1  1  0.86513853  0.73523303  0.11549715  1
  Hg  Hg0  1  0.50000000  0.50000000  0.50000000  1
  S  S0  1  0.68294309  0.36533940  0.71782688  1
  S  S1  1  0.31705691  0.63466060  0.28217312  1
  S  S2  1  0.88221514  0.19368760  0.48388967  1
  S  S3  1  0.11778486  0.80631240  0.51611033  1
  S  S4  1  0.37869449  0.12219703  0.20409232  1
  S  S5  1  0.62130551  0.87780297  0.79590768  1
  S  S6  1  0.79618145  0.22679957  0.19774151  1
  S  S7  1  0.20381855  0.77320043  0.80225849  1
  O  O0  1  0.70862923  0.19039351  0.58469852  1
  O  O1  1  0.29137077  0.80960649  0.41530148  1
  O  O2  1  0.72526382  0.49541448  0.63777495  1
  O  O3  1  0.27473618  0.50458552  0.36222505  1
  O  O4  1  0.82517159  0.40739297  0.83313530  1
  O  O5  1  0.17482841  0.59260703  0.16686470  1
  O  O6  1  0.83290089  0.29789778  0.38013225  1
  O  O7  1  0.16709911  0.70210222  0.61986775  1
  O  O8  1  0.05316933  0.29920547  0.56802385  1
  O  O9  1  0.94683067  0.70079453  0.43197615  1
  O  O10  1  0.48749180  0.30579792  0.74258367  1
  O  O11  1  0.51250820  0.69420208  0.25741633  1
  O  O12  1  0.85882403  0.02354909  0.39852701  1
  O  O13  1  0.14117597  0.97645091  0.60147299  1
  O  O14  1  0.39917462  0.20133933  0.36309945  1
  O  O15  1  0.60082538  0.79866067  0.63690055  1
  O  O16  1  0.60816665  0.08357486  0.17324151  1
  O  O17  1  0.39183335  0.91642514  0.82675849  1
  O  O18  1  0.77726001  0.37227215  0.16603978  1
  O  O19  1  0.22273999  0.62772785  0.83396022  1
  O  O20  1  0.94180181  0.15180106  0.14195725  1
  O  O21  1  0.05819819  0.84819894  0.85804275  1
  O  O22  1  0.37348250  0.22886862  0.11514081  1
  O  O23  1  0.62651750  0.77113138  0.88485919  1
  O  O24  1  0.26480209  0.94944230  0.15681874  1
  O  O25  1  0.73519791  0.05055770  0.84318126  1
loop_
_geom_bond_atom_site_label_1
_geom_bond_atom_site_label_2
_geom_bond_distance
_geom_bond_site_symmetry_2
Hg0 O3 2.142309 1_555
Hg0 O2 2.142309 1_555
Hg0 O15 2.409987 1_555
Hg0 O14 2.409987 1_555
O0 S2 1.574754 1_555
O0 S0 1.708508 1_555
O1 S3 1.574754 1_555
O1 S1 1.708508 1_555
O2 S0 1.486163 1_555
O3 S1 1.486163 1_555
O4 S0 1.418334 1_555
O4 Rb0 2.979051 1_655
O4 Rb1 3.208766 1_556
O5 S1 1.418334 1_555
O5 Rb1 2.979051 1_455
O5 Rb0 3.208766 1_554
O6 S2 1.616088 1_555
O6 S6 1.653509 1_555
O7 S3 1.616088 1_555
O7 S7 1.653509 1_555
O8 S2 1.413640 1_455
O8 Rb0 3.181638 1_555
O9 S3 1.413640 1_655
O9 Rb1 3.181638 1_555
O10 S0 1.418473 1_555
O10 Rb0 2.870772 1_555
O11 S1 1.418473 1_555
O11 Rb1 2.870772 1_555
O12 S2 1.409025 1_555
O12 Rb1 3.077867 1_545
O13 S3 1.409025 1_555
O13 Rb0 3.077867 1_565
O14 S4 1.449604 1_555
O15 S5 1.449604 1_555
O16 S6 1.532547 1_555
O16 S4 1.808286 1_555
O17 S7 1.532547 1_555
O17 S5 1.808286 1_555
O18 S6 1.410531 1_555
O18 Rb1 3.174064 1_555
O19 S7 1.410531 1_555
O19 Rb0 3.174064 1_555
O20 S6 1.415382 1_555
O20 Rb0 3.059152 1_654
O20 Rb1 3.391529 1_545
O21 S7 1.415382 1_555
O21 Rb1 3.059152 1_456
O21 Rb0 3.391529 1_565
O22 S4 1.422723 1_555
O22 Rb0 2.964339 1_554
O23 S5 1.422723 1_555
O23 Rb1 2.964339 1_556
O24 S4 1.420580 1_565
O24 Rb1 2.947538 1_455
O25 S5 1.420580 1_545
O25 Rb0 2.947538 1_655
