# generated using pymatgen
data_Lu(SiPd)2
_symmetry_space_group_name_H-M   'P 1'
_cell_length_a   4.06635540
_cell_length_b   4.06635490
_cell_length_c   5.75756505
_cell_angle_alpha   110.67896821
_cell_angle_beta   110.67898209
_cell_angle_gamma   89.99999068
_symmetry_Int_Tables_number   1
_chemical_formula_structural   Lu(SiPd)2
_chemical_formula_sum   'Lu1 Si2 Pd2'
_cell_volume   82.48076148
_cell_formula_units_Z   1
loop_
 _symmetry_equiv_pos_site_id
 _symmetry_equiv_pos_as_xyz
  1  'x, y, z'
loop_
 _atom_site_type_symbol
 _atom_site_label
 _atom_site_symmetry_multiplicity
 _atom_site_fract_x
 _atom_site_fract_y
 _atom_site_fract_z
 _atom_site_occupancy
  Lu  Lu0  1  -0.00000000  0.00000000  -0.00000000  1
  Si  Si0  1  0.61403953  0.61403953  0.22807907  1
  Si  Si1  1  0.38596047  0.38596047  0.77192093  1
  Pd  Pd0  1  0.75000000  0.25000000  0.50000000  1
  Pd  Pd1  1  0.25000000  0.75000000  0.50000000  1
loop_
_geom_bond_atom_site_label_1
_geom_bond_atom_site_label_2
_geom_bond_distance
_geom_bond_site_symmetry_2
Lu0 Si1 3.092245 1_454
Lu0 Si0 3.092245 1_545
Lu0 Si1 3.092245 1_544
Lu0 Si0 3.092245 1_455
Lu0 Si1 3.092246 1_444
Lu0 Si0 3.092246 1_555
Lu0 Si0 3.092246 1_445
Lu0 Si1 3.092246 1_554
Lu0 Pd1 3.217809 1_545
Lu0 Pd0 3.217809 1_454
Lu0 Pd1 3.217809 1_444
Lu0 Pd0 3.217809 1_555
Lu0 Pd0 3.217809 1_444
Lu0 Pd1 3.217809 1_555
Lu0 Pd1 3.217809 1_544
Lu0 Pd0 3.217809 1_455
Si0 Si1 2.275399 1_554
Pd0 Si0 2.444096 1_555
Pd0 Si1 2.444096 1_655
Pd0 Si0 2.444096 1_545
Pd0 Si1 2.444096 1_555
Pd1 Si1 2.444096 1_555
Pd1 Si0 2.444096 1_455
Pd1 Si1 2.444096 1_565
Pd1 Si0 2.444096 1_555
