# generated using pymatgen
data_Fe3Ag(NO3)8
_symmetry_space_group_name_H-M   'P 1'
_cell_length_a   7.62736028
_cell_length_b   7.62736097
_cell_length_c   7.62736124
_cell_angle_alpha   87.88104293
_cell_angle_beta   87.88104392
_cell_angle_gamma   87.88104465
_symmetry_Int_Tables_number   1
_chemical_formula_structural   Fe3Ag(NO3)8
_chemical_formula_sum   'Fe3 Ag1 N8 O24'
_cell_volume   442.84576911
_cell_formula_units_Z   1
loop_
 _symmetry_equiv_pos_site_id
 _symmetry_equiv_pos_as_xyz
  1  'x, y, z'
loop_
 _atom_site_type_symbol
 _atom_site_label
 _atom_site_symmetry_multiplicity
 _atom_site_fract_x
 _atom_site_fract_y
 _atom_site_fract_z
 _atom_site_occupancy
  Fe  Fe0  1  0.50000000  0.50000000  0.00000000  1
  Fe  Fe1  1  0.00000000  0.50000000  0.50000000  1
  Fe  Fe2  1  0.50000000  0.00000000  0.50000000  1
  Ag  Ag0  1  0.00000000  0.00000000  0.00000000  1
  N  N0  1  0.34695499  0.19816526  0.82450908  1
  N  N1  1  0.82450908  0.34695499  0.19816526  1
  N  N2  1  0.19816526  0.82450908  0.34695499  1
  N  N3  1  0.68297163  0.68297163  0.68297163  1
  N  N4  1  0.65304501  0.80183474  0.17549092  1
  N  N5  1  0.17549092  0.65304501  0.80183474  1
  N  N6  1  0.80183474  0.17549092  0.65304501  1
  N  N7  1  0.31702837  0.31702837  0.31702837  1
  O  O0  1  0.47524801  0.30035956  0.82071667  1
  O  O1  1  0.82071667  0.47524801  0.30035956  1
  O  O2  1  0.30035956  0.82071667  0.47524801  1
  O  O3  1  0.22767654  0.21055736  0.93717672  1
  O  O4  1  0.34293275  0.08278387  0.70889788  1
  O  O5  1  0.70889788  0.34293275  0.08278387  1
  O  O6  1  0.68627737  0.56231575  0.79976098  1
  O  O7  1  0.21055736  0.93717672  0.22767654  1
  O  O8  1  0.79976098  0.68627737  0.56231575  1
  O  O9  1  0.93717672  0.22767654  0.21055736  1
  O  O10  1  0.56231575  0.79976098  0.68627737  1
  O  O11  1  0.08278387  0.70889788  0.34293275  1
  O  O12  1  0.52475199  0.69964044  0.17928333  1
  O  O13  1  0.17928333  0.52475199  0.69964044  1
  O  O14  1  0.69964044  0.17928333  0.52475199  1
  O  O15  1  0.77232346  0.78944264  0.06282328  1
  O  O16  1  0.65706725  0.91721613  0.29110212  1
  O  O17  1  0.29110212  0.65706725  0.91721613  1
  O  O18  1  0.31372263  0.43768425  0.20023902  1
  O  O19  1  0.78944264  0.06282328  0.77232346  1
  O  O20  1  0.20023902  0.31372263  0.43768425  1
  O  O21  1  0.06282328  0.77232346  0.78944264  1
  O  O22  1  0.43768425  0.20023902  0.31372263  1
  O  O23  1  0.91721613  0.29110212  0.65706725  1
loop_
_geom_bond_atom_site_label_1
_geom_bond_atom_site_label_2
_geom_bond_distance
_geom_bond_site_symmetry_2
Fe0 O5 2.061541 1_555
Fe0 O17 2.061541 1_554
Fe0 O6 2.100719 1_554
Fe0 O18 2.100719 1_555
Fe0 O12 2.102052 1_555
Fe0 O0 2.102052 1_554
Fe1 O11 2.061541 1_555
Fe1 O23 2.061541 1_455
Fe1 O8 2.100719 1_455
Fe1 O20 2.100719 1_555
Fe1 O13 2.102052 1_555
Fe1 O1 2.102052 1_455
Fe2 O4 2.061541 1_555
Fe2 O16 2.061541 1_545
Fe2 O10 2.100719 1_545
Fe2 O22 2.100719 1_555
Fe2 O14 2.102052 1_555
Fe2 O2 2.102052 1_545
Ag0 O3 2.431524 1_554
Ag0 O15 2.431524 1_445
Ag0 O7 2.431524 1_545
Ag0 O19 2.431524 1_454
Ag0 O21 2.431524 1_544
Ag0 O9 2.431524 1_455
N0 O3 1.231649 1_555
N0 O4 1.270594 1_555
N0 O0 1.272239 1_555
N1 O9 1.231649 1_555
N1 O5 1.270594 1_555
N1 O1 1.272239 1_555
N2 O7 1.231649 1_555
N2 O11 1.270594 1_555
N2 O2 1.272239 1_555
N3 O10 1.257139 1_555
N3 O8 1.257140 1_555
N3 O6 1.257140 1_555
N4 O15 1.231649 1_555
N4 O16 1.270594 1_555
N4 O12 1.272239 1_555
N5 O21 1.231649 1_555
N5 O17 1.270594 1_555
N5 O13 1.272239 1_555
N6 O19 1.231649 1_555
N6 O23 1.270594 1_555
N6 O14 1.272239 1_555
N7 O22 1.257139 1_555
N7 O20 1.257140 1_555
N7 O18 1.257140 1_555
