# generated using pymatgen
data_Rb4Ta3AlH20
_symmetry_space_group_name_H-M   'P 1'
_cell_length_a   5.83357829
_cell_length_b   7.64983700
_cell_length_c   9.18581904
_cell_angle_alpha   80.42498050
_cell_angle_beta   84.45399526
_cell_angle_gamma   95.73130771
_symmetry_Int_Tables_number   1
_chemical_formula_structural   Rb4Ta3AlH20
_chemical_formula_sum   'Rb4 Ta3 Al1 H20'
_cell_volume   399.50565519
_cell_formula_units_Z   1
loop_
 _symmetry_equiv_pos_site_id
 _symmetry_equiv_pos_as_xyz
  1  'x, y, z'
loop_
 _atom_site_type_symbol
 _atom_site_label
 _atom_site_symmetry_multiplicity
 _atom_site_fract_x
 _atom_site_fract_y
 _atom_site_fract_z
 _atom_site_occupancy
  Rb  Rb0  1  0.28473555  0.42335554  0.22025930  1
  Rb  Rb1  1  0.78898593  0.73503282  0.87798567  1
  Rb  Rb2  1  0.76081864  0.88488162  0.31590547  1
  Rb  Rb3  1  0.23960691  0.98620386  0.56874015  1
  Ta  Ta0  1  0.35703028  0.51680079  0.62840748  1
  Ta  Ta1  1  0.75474950  0.34699863  0.54433115  1
  Ta  Ta2  1  0.50870516  0.24665570  0.83690528  1
  Al  Al0  1  0.32486833  0.96977098  0.06815203  1
  H  H0  1  0.07186581  0.45980193  0.54104163  1
  H  H1  1  0.46237794  0.38262741  0.48330747  1
  H  H2  1  0.33877534  0.02673780  0.85547817  1
  H  H3  1  0.62466718  0.08057547  0.97633134  1
  H  H4  1  0.05479175  0.88291238  0.07106496  1
  H  H5  1  0.43797828  0.48339599  0.82554069  1
  H  H6  1  0.63700338  0.18798419  0.44182176  1
  H  H7  1  0.13380398  0.62566790  0.72014260  1
  H  H8  1  0.45269589  0.78372271  0.09185999  1
  H  H9  1  0.64504712  0.35578580  0.97125202  1
  H  H10  1  0.95794067  0.19785997  0.48975275  1
  H  H11  1  0.67684053  0.58092178  0.56384618  1
  H  H12  1  0.47973711  0.72078468  0.67287577  1
  H  H13  1  0.29181015  0.20748204  0.00453743  1
  H  H14  1  0.81707793  0.32952113  0.74944794  1
  H  H15  1  0.35273776  0.68511678  0.46056967  1
  H  H16  1  0.32369565  0.01761989  0.23910257  1
  H  H17  1  0.62448771  0.13071583  0.67996275  1
  H  H18  1  0.83083897  0.46473781  0.34906660  1
  H  H19  1  0.23432655  0.28632855  0.75231319  1
loop_
_geom_bond_atom_site_label_1
_geom_bond_atom_site_label_2
_geom_bond_distance
_geom_bond_site_symmetry_2
Al0 H4 1.643565 1_555
Al0 H8 1.664133 1_555
Al0 H16 1.670204 1_565
Al0 H13 1.850334 1_565
Al0 H3 1.915593 1_564
Al0 H2 1.921474 1_564
H0 Ta1 1.956900 1_455
H0 Ta0 1.957317 1_555
H1 Ta1 1.877311 1_555
H1 Ta0 1.905383 1_555
H1 Rb0 2.703252 1_555
H2 Ta2 1.838689 1_555
H2 Rb3 2.810476 1_545
H3 Ta2 1.873460 1_555
H3 Rb1 3.139322 1_545
H4 Rb2 2.696360 1_455
H4 Rb1 2.770997 1_454
H5 Ta2 1.885632 1_555
H5 Ta0 1.898114 1_555
H5 Rb1 2.800420 1_555
H6 Ta1 1.782523 1_555
H6 Rb3 2.698207 1_545
H6 Rb2 2.881153 1_545
H7 Ta0 1.826849 1_555
H7 Rb1 2.650350 1_455
H7 Rb3 2.853061 1_555
H8 Rb1 2.737043 1_554
H8 Rb0 2.847151 1_555
H8 Rb2 3.005374 1_555
H9 Ta2 1.803427 1_555
H9 Rb1 2.898863 1_555
H10 Ta1 1.817553 1_555
H10 Rb3 2.493765 1_645
H11 Ta0 1.891959 1_555
H11 Ta1 1.922061 1_555
H11 Rb2 2.937508 1_555
H12 Ta0 1.777557 1_555
H12 Rb3 2.679708 1_555
H12 Rb1 2.739027 1_555
H13 Ta2 1.859030 1_554
H13 Rb0 2.782433 1_555
H14 Ta2 1.899163 1_555
H14 Ta1 1.938680 1_555
H15 Ta0 1.840907 1_555
H15 Rb3 2.768773 1_555
H15 Rb2 2.784719 1_555
H16 Rb2 2.942420 1_545
H16 Rb3 2.985695 1_545
H17 Ta2 1.917805 1_555
H17 Ta1 1.935785 1_555
H17 Rb3 2.762315 1_545
H18 Ta1 1.858576 1_555
H18 Rb0 2.863163 1_655
H19 Ta2 1.875321 1_555
H19 Ta0 1.959371 1_555
