# generated using pymatgen
data_Sn(BiTe2)2
_symmetry_space_group_name_H-M   'P 1'
_cell_length_a   14.68073175
_cell_length_b   14.68073175
_cell_length_c   14.68073214
_cell_angle_alpha   17.39142543
_cell_angle_beta   17.39142543
_cell_angle_gamma   17.39142905
_symmetry_Int_Tables_number   1
_chemical_formula_structural   Sn(BiTe2)2
_chemical_formula_sum   'Sn1 Bi2 Te4'
_cell_volume   246.68401247
_cell_formula_units_Z   1
loop_
 _symmetry_equiv_pos_site_id
 _symmetry_equiv_pos_as_xyz
  1  'x, y, z'
loop_
 _atom_site_type_symbol
 _atom_site_label
 _atom_site_symmetry_multiplicity
 _atom_site_fract_x
 _atom_site_fract_y
 _atom_site_fract_z
 _atom_site_occupancy
  Sn  Sn0  1  -0.00000000  -0.00000000  -0.00000000  1
  Bi  Bi0  1  0.57633567  0.57633567  0.57633567  1
  Bi  Bi1  1  0.42366433  0.42366433  0.42366433  1
  Te  Te0  1  0.87061547  0.87061547  0.87061547  1
  Te  Te1  1  0.70954298  0.70954298  0.70954298  1
  Te  Te2  1  0.29045702  0.29045702  0.29045702  1
  Te  Te3  1  0.12938453  0.12938453  0.12938453  1
loop_
_geom_bond_atom_site_label_1
_geom_bond_atom_site_label_2
_geom_bond_distance
_geom_bond_site_symmetry_2
Sn0 Te2 3.166337 1_554
Sn0 Te1 3.166337 1_445
Sn0 Te2 3.166337 1_455
Sn0 Te2 3.166337 1_545
Sn0 Te1 3.166337 1_544
Sn0 Te1 3.166337 1_454
Bi0 Te0 3.071919 1_554
Bi0 Te0 3.071920 1_455
Bi0 Te0 3.071920 1_545
Bi0 Te2 3.286860 1_556
Bi0 Te2 3.286860 1_565
Bi0 Te2 3.286860 1_655
Bi1 Te3 3.071919 1_556
Bi1 Te3 3.071920 1_565
Bi1 Te3 3.071920 1_655
Bi1 Te1 3.286860 1_554
Bi1 Te1 3.286860 1_545
Bi1 Te1 3.286860 1_455
