# generated using pymatgen
data_Cs2Sn3(SbSe5)2
_symmetry_space_group_name_H-M   'P 1'
_cell_length_a   14.20547639
_cell_length_b   7.50636280
_cell_length_c   12.99905508
_cell_angle_alpha   58.38851905
_cell_angle_beta   90.00000000
_cell_angle_gamma   90.00000000
_symmetry_Int_Tables_number   1
_chemical_formula_structural   Cs2Sn3(SbSe5)2
_chemical_formula_sum   'Cs4 Sn6 Sb4 Se20'
_cell_volume   1180.44014018
_cell_formula_units_Z   2
loop_
 _symmetry_equiv_pos_site_id
 _symmetry_equiv_pos_as_xyz
  1  'x, y, z'
loop_
 _atom_site_type_symbol
 _atom_site_label
 _atom_site_symmetry_multiplicity
 _atom_site_fract_x
 _atom_site_fract_y
 _atom_site_fract_z
 _atom_site_occupancy
  Cs  Cs0  1  0.33233771  0.44937940  0.16470297  1
  Cs  Cs1  1  0.16766229  0.44937940  0.66470297  1
  Cs  Cs2  1  0.66766229  0.55062060  0.83529703  1
  Cs  Cs3  1  0.83233771  0.55062060  0.33529703  1
  Sn  Sn0  1  0.00000000  0.50000000  0.00000000  1
  Sn  Sn1  1  0.50000000  0.50000000  0.50000000  1
  Sn  Sn2  1  0.05838360  0.11082148  0.35833466  1
  Sn  Sn3  1  0.44161640  0.11082148  0.85833466  1
  Sn  Sn4  1  0.94161640  0.88917852  0.64166534  1
  Sn  Sn5  1  0.55838360  0.88917852  0.14166534  1
  Sb  Sb0  1  0.13283544  0.00155540  0.10301893  1
  Sb  Sb1  1  0.36716456  0.00155540  0.60301893  1
  Sb  Sb2  1  0.86716456  0.99844460  0.89698107  1
  Sb  Sb3  1  0.63283544  0.99844460  0.39698107  1
  Se  Se0  1  0.17281074  0.39308674  0.96644513  1
  Se  Se1  1  0.32718926  0.39308674  0.46644513  1
  Se  Se2  1  0.82718926  0.60691326  0.03355487  1
  Se  Se3  1  0.67281074  0.60691326  0.53355487  1
  Se  Se4  1  0.95999464  0.08260280  0.12349131  1
  Se  Se5  1  0.54000536  0.08260280  0.62349131  1
  Se  Se6  1  0.04000536  0.91739720  0.87650869  1
  Se  Se7  1  0.45999464  0.91739720  0.37650869  1
  Se  Se8  1  0.93924414  0.50510956  0.79720827  1
  Se  Se9  1  0.56075586  0.50510956  0.29720827  1
  Se  Se10  1  0.06075586  0.49489044  0.20279173  1
  Se  Se11  1  0.43924414  0.49489044  0.70279173  1
  Se  Se12  1  0.18622172  0.91375410  0.32341474  1
  Se  Se13  1  0.31377828  0.91375410  0.82341474  1
  Se  Se14  1  0.81377828  0.08624590  0.67658526  1
  Se  Se15  1  0.68622172  0.08624590  0.17658526  1
  Se  Se16  1  0.89587010  0.93916737  0.43375438  1
  Se  Se17  1  0.60412990  0.93916737  0.93375438  1
  Se  Se18  1  0.10412990  0.06083263  0.56624562  1
  Se  Se19  1  0.39587010  0.06083263  0.06624562  1
loop_
_geom_bond_atom_site_label_1
_geom_bond_atom_site_label_2
_geom_bond_distance
_geom_bond_site_symmetry_2
Cs0 Se0 3.619032 1_554
Cs0 Se1 3.719052 1_555
Cs0 Se9 3.798135 1_555
Cs0 Se19 3.856432 1_555
Cs0 Se7 3.910166 1_545
Cs0 Se10 3.927205 1_555
Cs0 Se13 3.961119 1_554
Cs0 Se12 4.004279 1_545
Cs0 Se19 4.166612 1_565
Cs1 Se1 3.619032 1_555
Cs1 Se0 3.719052 1_555
Cs1 Se8 3.798135 1_455
Cs1 Se18 3.856432 1_555
Cs1 Se6 3.910166 1_545
Cs1 Se11 3.927205 1_555
Cs1 Se12 3.961119 1_555
Cs1 Se13 4.004279 1_545
Cs1 Se18 4.166612 1_565
Cs2 Se2 3.619032 1_556
Cs2 Se3 3.719052 1_555
Cs2 Se11 3.798135 1_555
Cs2 Se17 3.856432 1_555
Cs2 Se5 3.910166 1_565
Cs2 Se8 3.927205 1_555
Cs2 Se15 3.961119 1_556
Cs2 Se14 4.004279 1_565
Cs2 Se17 4.166612 1_545
Cs3 Se3 3.619032 1_555
Cs3 Se2 3.719052 1_555
Cs3 Se10 3.798135 1_655
Cs3 Se16 3.856432 1_555
Cs3 Se4 3.910166 1_565
Cs3 Se9 3.927205 1_555
Cs3 Se14 3.961119 1_555
Cs3 Se15 4.004279 1_565
Cs3 Se16 4.166612 1_545
Sb0 Se4 2.576643 1_455
Sb0 Se0 2.577231 1_554
Sb0 Se12 2.690346 1_545
Sb1 Se5 2.576643 1_555
Sb1 Se1 2.577231 1_555
Sb1 Se13 2.690346 1_545
Sb2 Se6 2.576643 1_655
Sb2 Se2 2.577231 1_556
Sb2 Se14 2.690346 1_565
Sb3 Se7 2.576643 1_555
Sb3 Se3 2.577231 1_555
Sb3 Se15 2.690346 1_565
Se0 Sn0 2.688420 1_556
Se1 Sn1 2.688420 1_555
Se2 Sn0 2.688420 1_655
Se3 Sn1 2.688420 1_555
Se4 Sn0 2.728345 1_655
Se5 Sn1 2.728345 1_555
Se6 Sn0 2.728345 1_556
Se7 Sn1 2.728345 1_555
Se8 Sn4 2.507990 1_555
Se8 Sn0 2.754885 1_656
Se9 Sn5 2.507990 1_555
Se9 Sn1 2.754885 1_555
Se10 Sn2 2.507990 1_555
Se10 Sn0 2.754885 1_555
Se11 Sn3 2.507990 1_555
Se11 Sn1 2.754885 1_555
Se12 Sn2 2.529038 1_565
Se13 Sn3 2.529038 1_565
Se14 Sn4 2.529038 1_545
Se15 Sn5 2.529038 1_545
Se16 Sn2 2.574233 1_665
Se16 Sn4 2.608501 1_555
Se17 Sn3 2.574233 1_565
Se17 Sn5 2.608501 1_556
Se18 Sn4 2.574233 1_445
Se18 Sn2 2.608501 1_555
Se19 Sn5 2.574233 1_545
Se19 Sn3 2.608501 1_554
