# generated using pymatgen
data_Ca3Be2Pt7
_symmetry_space_group_name_H-M   'P 1'
_cell_length_a   8.52525564
_cell_length_b   8.52525637
_cell_length_c   8.52525629
_cell_angle_alpha   37.27066151
_cell_angle_beta   37.27065431
_cell_angle_gamma   37.27065762
_symmetry_Int_Tables_number   1
_chemical_formula_structural   Ca3Be2Pt7
_chemical_formula_sum   'Ca3 Be2 Pt7'
_cell_volume   203.70136197
_cell_formula_units_Z   1
loop_
 _symmetry_equiv_pos_site_id
 _symmetry_equiv_pos_as_xyz
  1  'x, y, z'
loop_
 _atom_site_type_symbol
 _atom_site_label
 _atom_site_symmetry_multiplicity
 _atom_site_fract_x
 _atom_site_fract_y
 _atom_site_fract_z
 _atom_site_occupancy
  Ca  Ca0  1  0.35835010  0.35835010  0.35835010  1
  Ca  Ca1  1  0.50000000  0.50000000  0.50000000  1
  Ca  Ca2  1  0.64164890  0.64164890  0.64164890  1
  Be  Be0  1  0.16636558  0.16636558  0.16636558  1
  Be  Be1  1  0.83363442  0.83363442  0.83363442  1
  Pt  Pt0  1  0.00000000  0.00000000  0.00000000  1
  Pt  Pt1  1  0.57171149  0.07240921  0.07241021  1
  Pt  Pt2  1  0.07240921  0.57171149  0.07241021  1
  Pt  Pt3  1  0.92759079  0.92759079  0.42828751  1
  Pt  Pt4  1  0.07240921  0.07240921  0.57171249  1
  Pt  Pt5  1  0.92759079  0.42828851  0.92758979  1
  Pt  Pt6  1  0.42828851  0.92759079  0.92758979  1
loop_
_geom_bond_atom_site_label_1
_geom_bond_atom_site_label_2
_geom_bond_distance
_geom_bond_site_symmetry_2
Ca0 Pt5 3.185669 1_455
Ca0 Pt6 3.185670 1_545
Ca0 Pt3 3.185672 1_545
Ca0 Pt3 3.185672 1_455
Ca0 Pt5 3.185674 1_554
Ca0 Pt6 3.185674 1_554
Ca0 Pt0 3.201343 1_655
Ca0 Pt0 3.201343 1_556
Ca0 Pt0 3.201344 1_565
Ca0 Pt2 3.246072 1_555
Ca0 Pt1 3.246072 1_555
Ca0 Pt4 3.246074 1_555
Ca0 Ca2 3.362970 1_455
Ca0 Ca2 3.362971 1_554
Ca0 Ca2 3.362971 1_545
Ca0 Ca1 3.367174 1_555
Ca1 Pt2 3.219460 1_655
Ca1 Pt5 3.219460 1_455
Ca1 Pt1 3.219461 1_565
Ca1 Pt6 3.219461 1_545
Ca1 Pt4 3.219463 1_655
Ca1 Pt3 3.219463 1_455
Ca1 Pt4 3.219463 1_565
Ca1 Pt3 3.219463 1_545
Ca1 Pt2 3.219465 1_556
Ca1 Pt5 3.219465 1_554
Ca1 Pt1 3.219465 1_556
Ca1 Pt6 3.219465 1_554
Ca1 Ca2 3.367150 1_555
Ca2 Pt2 3.185657 1_655
Ca2 Pt1 3.185657 1_565
Ca2 Pt4 3.185659 1_565
Ca2 Pt4 3.185660 1_655
Ca2 Pt2 3.185661 1_556
Ca2 Pt1 3.185662 1_556
Ca2 Pt0 3.201347 1_566
Ca2 Pt0 3.201348 1_665
Ca2 Pt0 3.201348 1_656
Ca2 Pt5 3.246093 1_555
Ca2 Pt6 3.246093 1_555
Ca2 Pt3 3.246095 1_555
Be0 Pt3 2.323757 1_445
Be0 Pt6 2.323760 1_544
Be0 Pt5 2.323760 1_454
Be0 Pt1 2.331343 1_555
Be0 Pt2 2.331344 1_555
Be0 Pt4 2.331347 1_555
Be0 Ca1 3.145633 1_455
Be0 Ca1 3.145634 1_554
Be0 Ca1 3.145634 1_545
Be1 Pt4 2.323757 1_665
Be1 Pt1 2.323760 1_566
Be1 Pt2 2.323760 1_656
Be1 Pt6 2.331343 1_555
Be1 Pt5 2.331344 1_555
Be1 Pt3 2.331347 1_555
Be1 Ca1 3.145633 1_655
Be1 Ca1 3.145634 1_556
Be1 Ca1 3.145634 1_565
Pt0 Pt3 2.743303 1_445
Pt0 Pt4 2.743303 1_554
Pt0 Pt6 2.743306 1_544
Pt0 Pt1 2.743306 1_455
Pt0 Pt5 2.743306 1_454
Pt0 Pt2 2.743306 1_545
Pt1 Pt4 2.720390 1_555
Pt1 Pt2 2.720390 1_555
Pt1 Pt4 2.727993 1_654
Pt1 Pt2 2.727993 1_645
Pt2 Pt4 2.720390 1_555
Pt2 Pt4 2.727993 1_564
Pt3 Pt6 2.720390 1_555
Pt3 Pt5 2.720390 1_555
Pt3 Pt6 2.727993 1_654
Pt3 Pt5 2.727993 1_564
Pt5 Pt6 2.720390 1_555
Pt5 Pt6 2.727993 1_645
