# generated using pymatgen
data_PCl5F6
_symmetry_space_group_name_H-M   'P 1'
_cell_length_a   7.24683786
_cell_length_b   7.24683761
_cell_length_c   10.38853796
_cell_angle_alpha   81.64623595
_cell_angle_beta   81.64623628
_cell_angle_gamma   70.29737072
_symmetry_Int_Tables_number   1
_chemical_formula_structural   PCl5F6
_chemical_formula_sum   'P2 Cl10 F12'
_cell_volume   505.45781966
_cell_formula_units_Z   2
loop_
 _symmetry_equiv_pos_site_id
 _symmetry_equiv_pos_as_xyz
  1  'x, y, z'
loop_
 _atom_site_type_symbol
 _atom_site_label
 _atom_site_symmetry_multiplicity
 _atom_site_fract_x
 _atom_site_fract_y
 _atom_site_fract_z
 _atom_site_occupancy
  P  P0  1  0.36348611  0.63651389  0.25000000  1
  P  P1  1  0.63651389  0.36348611  0.75000000  1
  Cl  Cl0  1  0.85531339  0.30285278  0.07548996  1
  Cl  Cl1  1  0.66885240  0.94663041  0.32472263  1
  Cl  Cl2  1  0.94663041  0.66885240  0.82472263  1
  Cl  Cl3  1  0.33114760  0.05336959  0.67527737  1
  Cl  Cl4  1  0.05336959  0.33114760  0.17527737  1
  Cl  Cl5  1  0.69714722  0.14468661  0.42451004  1
  Cl  Cl6  1  0.14468661  0.69714722  0.92451004  1
  Cl  Cl7  1  0.30285278  0.85531339  0.57548996  1
  Cl  Cl8  1  0.00000000  0.00000000  0.00000000  1
  Cl  Cl9  1  0.00000000  0.00000000  0.50000000  1
  F  F0  1  0.60211242  0.33407694  0.90902021  1
  F  F1  1  0.66592306  0.39788758  0.59097979  1
  F  F2  1  0.39788758  0.66592306  0.09097979  1
  F  F3  1  0.33407694  0.60211242  0.40902021  1
  F  F4  1  0.67715383  0.13202667  0.74475008  1
  F  F5  1  0.86797333  0.32284617  0.75524992  1
  F  F6  1  0.40512843  0.40270856  0.24459363  1
  F  F7  1  0.13202667  0.67715383  0.24475008  1
  F  F8  1  0.40270856  0.40512843  0.74459363  1
  F  F9  1  0.59487157  0.59729144  0.75540637  1
  F  F10  1  0.59729144  0.59487157  0.25540637  1
  F  F11  1  0.32284617  0.86797333  0.25524992  1
loop_
_geom_bond_atom_site_label_1
_geom_bond_atom_site_label_2
_geom_bond_distance
_geom_bond_site_symmetry_2
Cl0 Cl4 1.967040 1_655
Cl0 Cl8 2.289271 1_655
Cl1 Cl5 1.967040 1_565
Cl2 Cl6 1.967040 1_655
Cl3 Cl7 1.967040 1_545
Cl5 Cl9 2.289271 1_655
Cl6 Cl8 2.289271 1_566
Cl7 Cl9 2.289271 1_565
F0 P1 1.628032 1_555
F1 P1 1.628032 1_555
F2 P0 1.628032 1_555
F3 P0 1.628032 1_555
F4 P1 1.609979 1_555
F5 P1 1.609980 1_555
F6 P0 1.625731 1_555
F7 P0 1.609980 1_555
F8 P1 1.625731 1_555
F9 P1 1.625731 1_555
F10 P0 1.625731 1_555
F11 P0 1.609979 1_555
