# generated using pymatgen
data_Zr6Be(Ga3Cu8)2
_symmetry_space_group_name_H-M   'P 1'
_cell_length_a   8.32923019
_cell_length_b   8.32918669
_cell_length_c   8.32918496
_cell_angle_alpha   59.99983242
_cell_angle_beta   59.99993764
_cell_angle_gamma   59.99999511
_symmetry_Int_Tables_number   1
_chemical_formula_structural   Zr6Be(Ga3Cu8)2
_chemical_formula_sum   'Zr6 Be1 Ga6 Cu16'
_cell_volume   408.59608284
_cell_formula_units_Z   1
loop_
 _symmetry_equiv_pos_site_id
 _symmetry_equiv_pos_as_xyz
  1  'x, y, z'
loop_
 _atom_site_type_symbol
 _atom_site_label
 _atom_site_symmetry_multiplicity
 _atom_site_fract_x
 _atom_site_fract_y
 _atom_site_fract_z
 _atom_site_occupancy
  Zr  Zr0  1  0.70614956  0.70615656  0.29384644  1
  Zr  Zr1  1  0.29385044  0.70615356  0.29384344  1
  Zr  Zr2  1  0.70614956  0.29384644  0.29384744  1
  Zr  Zr3  1  0.29385044  0.29384344  0.70615356  1
  Zr  Zr4  1  0.70614956  0.29384644  0.70615656  1
  Zr  Zr5  1  0.29385044  0.70615356  0.70615256  1
  Be  Be0  1  0.00000000  0.00000000  0.00000000  1
  Ga  Ga0  1  0.00000000  0.00000000  0.50000000  1
  Ga  Ga1  1  0.50000000  0.00000000  0.50000000  1
  Ga  Ga2  1  0.00000000  0.50000000  0.50000000  1
  Ga  Ga3  1  0.50000000  0.50000000  0.00000000  1
  Ga  Ga4  1  0.00000000  0.50000000  0.00000000  1
  Ga  Ga5  1  0.50000000  0.00000000  0.00000000  1
  Cu  Cu0  1  0.88535751  0.88535951  0.34392347  1
  Cu  Cu1  1  0.88535751  0.34392447  0.88535851  1
  Cu  Cu2  1  0.34392447  0.88535851  0.88535851  1
  Cu  Cu3  1  0.88535651  0.88535951  0.88535951  1
  Cu  Cu4  1  0.11464249  0.11464049  0.65607653  1
  Cu  Cu5  1  0.11464249  0.65607553  0.11464149  1
  Cu  Cu6  1  0.65607553  0.11464149  0.11464149  1
  Cu  Cu7  1  0.11464349  0.11464049  0.11464049  1
  Cu  Cu8  1  0.67164407  0.67164607  0.98506679  1
  Cu  Cu9  1  0.67164307  0.98506779  0.67164607  1
  Cu  Cu10  1  0.98506579  0.67164507  0.67164607  1
  Cu  Cu11  1  0.67164107  0.67164307  0.67164407  1
  Cu  Cu12  1  0.32835593  0.32835393  0.01493321  1
  Cu  Cu13  1  0.32835693  0.01493221  0.32835393  1
  Cu  Cu14  1  0.01493421  0.32835493  0.32835393  1
  Cu  Cu15  1  0.32835893  0.32835693  0.32835593  1
loop_
_geom_bond_atom_site_label_1
_geom_bond_atom_site_label_2
_geom_bond_distance
_geom_bond_site_symmetry_2
Be0 Cu0 2.338934 1_445
Be0 Cu4 2.338934 1_554
Be0 Cu1 2.338943 1_454
Be0 Cu5 2.338943 1_545
Be0 Cu7 2.338951 1_555
Be0 Cu3 2.338951 1_444
Be0 Cu2 2.338957 1_544
Be0 Cu6 2.338957 1_455
Ga0 Zr4 2.989782 1_455
Ga0 Zr1 2.989782 1_545
Ga0 Zr5 2.989785 1_545
Ga0 Zr2 2.989785 1_455
Ga1 Zr2 2.989740 1_555
Ga1 Zr5 2.989740 1_545
Ga1 Zr3 2.989745 1_555
Ga1 Zr0 2.989745 1_545
Ga2 Zr1 2.989792 1_555
Ga2 Zr4 2.989792 1_455
Ga2 Zr3 2.989794 1_555
Ga2 Zr0 2.989794 1_455
Ga3 Zr1 2.989745 1_555
Ga3 Zr4 2.989745 1_554
Ga3 Zr2 2.989748 1_555
Ga3 Zr5 2.989748 1_554
Ga4 Zr0 2.989782 1_455
Ga4 Zr3 2.989782 1_554
Ga4 Zr5 2.989788 1_554
Ga4 Zr2 2.989788 1_455
Ga5 Zr4 2.989737 1_554
Ga5 Zr1 2.989737 1_545
Ga5 Zr0 2.989739 1_545
Ga5 Zr3 2.989739 1_554
Cu0 Ga2 2.628295 1_655
Cu0 Ga1 2.628298 1_565
Cu0 Ga0 2.628304 1_665
Cu0 Cu10 2.690547 1_555
Cu0 Cu9 2.690549 1_555
Cu0 Cu11 2.690550 1_555
Cu0 Cu6 2.700774 1_565
Cu0 Cu5 2.700783 1_655
Cu0 Cu7 2.700790 1_665
Cu0 Zr2 2.846573 1_565
Cu0 Zr0 2.846587 1_555
Cu0 Zr1 2.846626 1_655
Cu1 Ga2 2.628286 1_655
Cu1 Ga3 2.628298 1_556
Cu1 Ga4 2.628303 1_656
Cu1 Cu10 2.690532 1_555
Cu1 Cu11 2.690538 1_555
Cu1 Cu8 2.690544 1_555
Cu1 Cu6 2.700778 1_556
Cu1 Cu4 2.700783 1_655
Cu1 Cu7 2.700798 1_656
Cu1 Zr2 2.846582 1_556
Cu1 Zr4 2.846586 1_555
Cu1 Zr3 2.846623 1_655
Cu2 Ga1 2.628287 1_565
Cu2 Ga3 2.628289 1_556
Cu2 Ga5 2.628298 1_566
Cu2 Cu9 2.690534 1_555
Cu2 Cu8 2.690539 1_555
Cu2 Cu7 2.700771 1_566
Cu2 Cu4 2.700774 1_565
Cu2 Cu5 2.700778 1_556
Cu2 Zr1 2.846557 1_556
Cu2 Zr3 2.846558 1_565
Cu2 Zr5 2.846566 1_555
Cu3 Ga5 2.628292 1_566
Cu3 Ga0 2.628293 1_665
Cu3 Ga4 2.628295 1_656
Cu3 Cu8 2.690523 1_555
Cu3 Cu9 2.690528 1_555
Cu3 Cu6 2.700771 1_566
Cu3 Cu4 2.700790 1_665
Cu3 Cu5 2.700798 1_656
Cu3 Zr0 2.846567 1_556
Cu3 Zr4 2.846570 1_565
Cu3 Zr5 2.846628 1_655
Cu4 Ga2 2.628295 1_555
Cu4 Ga1 2.628298 1_555
Cu4 Ga0 2.628304 1_555
Cu4 Zr5 2.846573 1_545
Cu4 Zr3 2.846587 1_555
Cu4 Zr4 2.846626 1_455
Cu5 Ga2 2.628286 1_555
Cu5 Ga3 2.628298 1_555
Cu5 Ga4 2.628303 1_555
Cu5 Zr5 2.846582 1_554
Cu5 Zr1 2.846586 1_555
Cu5 Zr0 2.846623 1_455
Cu6 Ga1 2.628287 1_555
Cu6 Ga3 2.628289 1_555
Cu6 Ga5 2.628298 1_555
Cu6 Zr4 2.846557 1_554
Cu6 Zr0 2.846558 1_545
Cu6 Zr2 2.846566 1_555
Cu7 Ga5 2.628292 1_555
Cu7 Ga0 2.628293 1_555
Cu7 Ga4 2.628295 1_555
Cu7 Zr3 2.846567 1_554
Cu7 Zr1 2.846570 1_545
Cu7 Zr2 2.846628 1_455
Cu8 Ga5 2.406561 1_566
Cu8 Ga4 2.406587 1_656
Cu8 Ga3 2.406589 1_556
Cu8 Cu9 2.610537 1_555
Cu8 Zr1 2.888042 1_556
Cu8 Zr0 2.888056 1_556
Cu8 Zr2 2.888071 1_556
Cu9 Ga5 2.406557 1_566
Cu9 Ga1 2.406587 1_565
Cu9 Ga0 2.406590 1_665
Cu9 Zr3 2.888037 1_565
Cu9 Zr4 2.888053 1_565
Cu9 Zr2 2.888059 1_565
Cu10 Ga4 2.406559 1_656
Cu10 Ga0 2.406567 1_665
Cu10 Ga2 2.406587 1_655
Cu10 Cu8 2.610548 1_555
Cu10 Cu9 2.610563 1_555
Cu10 Cu11 2.610603 1_555
Cu10 Cu3 2.690526 1_555
Cu10 Zr5 2.888105 1_655
Cu10 Zr3 2.888105 1_655
Cu10 Zr1 2.888107 1_655
Cu11 Ga3 2.406558 1_556
Cu11 Ga1 2.406568 1_565
Cu11 Ga2 2.406592 1_655
Cu11 Cu8 2.610581 1_555
Cu11 Cu9 2.610590 1_555
Cu11 Cu2 2.690534 1_555
Cu11 Zr5 2.888020 1_555
Cu11 Zr4 2.888045 1_555
Cu11 Zr0 2.888049 1_555
Cu12 Ga5 2.406561 1_555
Cu12 Ga4 2.406587 1_555
Cu12 Ga3 2.406589 1_555
Cu12 Cu13 2.610537 1_555
Cu12 Cu14 2.610548 1_555
Cu12 Cu15 2.610581 1_555
Cu12 Cu7 2.690523 1_555
Cu12 Cu6 2.690539 1_555
Cu12 Cu5 2.690544 1_555
Cu12 Zr4 2.888042 1_554
Cu12 Zr3 2.888056 1_554
Cu12 Zr5 2.888071 1_554
Cu13 Ga5 2.406557 1_555
Cu13 Ga1 2.406587 1_555
Cu13 Ga0 2.406590 1_555
Cu13 Cu14 2.610563 1_555
Cu13 Cu15 2.610590 1_555
Cu13 Cu7 2.690528 1_555
Cu13 Cu6 2.690534 1_555
Cu13 Cu4 2.690549 1_555
Cu13 Zr0 2.888037 1_545
Cu13 Zr1 2.888053 1_545
Cu13 Zr5 2.888059 1_545
Cu14 Ga4 2.406559 1_555
Cu14 Ga0 2.406567 1_555
Cu14 Ga2 2.406587 1_555
Cu14 Cu15 2.610603 1_555
Cu14 Cu7 2.690526 1_555
Cu14 Cu5 2.690532 1_555
Cu14 Cu4 2.690547 1_555
Cu14 Zr2 2.888105 1_455
Cu14 Zr0 2.888105 1_455
Cu14 Zr4 2.888107 1_455
Cu15 Ga3 2.406558 1_555
Cu15 Ga1 2.406568 1_555
Cu15 Ga2 2.406592 1_555
Cu15 Cu6 2.690534 1_555
Cu15 Cu5 2.690538 1_555
Cu15 Cu4 2.690550 1_555
Cu15 Zr2 2.888020 1_555
Cu15 Zr1 2.888045 1_555
Cu15 Zr3 2.888049 1_555
