# generated using pymatgen
data_LuCoCl
_symmetry_space_group_name_H-M   'P 1'
_cell_length_a   3.79247608
_cell_length_b   3.79247664
_cell_length_c   10.68799477
_cell_angle_alpha   90.00000000
_cell_angle_beta   90.00000000
_cell_angle_gamma   119.99998649
_symmetry_Int_Tables_number   1
_chemical_formula_structural   LuCoCl
_chemical_formula_sum   'Lu2 Co2 Cl2'
_cell_volume   133.12900543
_cell_formula_units_Z   2
loop_
 _symmetry_equiv_pos_site_id
 _symmetry_equiv_pos_as_xyz
  1  'x, y, z'
loop_
 _atom_site_type_symbol
 _atom_site_label
 _atom_site_symmetry_multiplicity
 _atom_site_fract_x
 _atom_site_fract_y
 _atom_site_fract_z
 _atom_site_occupancy
  Lu  Lu0  1  0.00000000  0.00000000  0.17569761  1
  Lu  Lu1  1  0.00000000  0.00000000  0.82430239  1
  Co  Co0  1  0.66666700  0.33333400  0.01201816  1
  Co  Co1  1  0.33333400  0.66666700  0.98798184  1
  Cl  Cl0  1  0.33333400  0.66666700  0.33328574  1
  Cl  Cl1  1  0.66666700  0.33333400  0.66671426  1
loop_
_geom_bond_atom_site_label_1
_geom_bond_atom_site_label_2
_geom_bond_distance
_geom_bond_site_symmetry_2
Co0 Co1 2.204604 1_554
Co0 Co1 2.204608 1_654
Co0 Co1 2.204608 1_544
Co0 Lu0 2.802624 1_665
Co0 Lu0 2.802626 1_655
Co0 Lu0 2.802627 1_555
Co0 Lu1 2.969772 1_664
Co0 Lu1 2.969774 1_654
Co0 Lu1 2.969774 1_554
Co1 Lu1 2.802624 1_665
Co1 Lu1 2.802626 1_565
Co1 Lu1 2.802627 1_555
Co1 Lu0 2.969772 1_666
Co1 Lu0 2.969774 1_566
Co1 Lu0 2.969774 1_556
Cl0 Lu0 2.762454 1_665
Cl0 Lu0 2.762457 1_565
Cl0 Lu0 2.762457 1_555
Cl1 Lu1 2.762455 1_665
Cl1 Lu1 2.762457 1_655
Cl1 Lu1 2.762457 1_555
