# generated using pymatgen
data_K8P2Pt5Au11
_symmetry_space_group_name_H-M   'P 1'
_cell_length_a   10.48972931
_cell_length_b   10.48972886
_cell_length_c   10.39735683
_cell_angle_alpha   81.26254736
_cell_angle_beta   81.26254212
_cell_angle_gamma   32.67793708
_symmetry_Int_Tables_number   1
_chemical_formula_structural   K8P2Pt5Au11
_chemical_formula_sum   'K8 P2 Pt5 Au11'
_cell_volume   609.91184846
_cell_formula_units_Z   1
loop_
 _symmetry_equiv_pos_site_id
 _symmetry_equiv_pos_as_xyz
  1  'x, y, z'
loop_
 _atom_site_type_symbol
 _atom_site_label
 _atom_site_symmetry_multiplicity
 _atom_site_fract_x
 _atom_site_fract_y
 _atom_site_fract_z
 _atom_site_occupancy
  K  K0  1  0.48348340  0.48348340  0.83209581  1
  K  K1  1  0.51997152  0.51997152  0.16717632  1
  K  K2  1  0.28044353  0.28044353  0.90696212  1
  K  K3  1  0.71617764  0.71617764  0.10015265  1
  K  K4  1  0.22208015  0.22208015  0.59047277  1
  K  K5  1  0.77703319  0.77703319  0.40804058  1
  K  K6  1  0.04350351  0.04350351  0.65336419  1
  K  K7  1  0.95832080  0.95832080  0.34574062  1
  P  P0  1  0.66991374  0.66991374  0.75896732  1
  P  P1  1  0.32836236  0.32836236  0.23881997  1
  Pt  Pt0  1  0.78106768  0.78106768  0.73928470  1
  Pt  Pt1  1  0.21762958  0.21762958  0.25680970  1
  Pt  Pt2  1  0.62112689  0.62112689  0.58219923  1
  Pt  Pt3  1  0.37763387  0.37763387  0.41453229  1
  Pt  Pt4  1  0.10794430  0.10794430  0.13978948  1
  Au  Au0  1  0.49951601  0.49951601  0.49873318  1
  Au  Au1  1  0.00091782  0.00091782  0.00620439  1
  Au  Au2  1  0.89269625  0.89269625  0.85856140  1
  Au  Au3  1  0.86051976  0.36010206  0.36592576  1
  Au  Au4  1  0.63613082  0.14029655  0.63078904  1
  Au  Au5  1  0.14029655  0.63613082  0.63078904  1
  Au  Au6  1  0.36010206  0.86051976  0.36592576  1
  Au  Au7  1  0.11272197  0.64888990  0.09282419  1
  Au  Au8  1  0.35410469  0.88941100  0.91150765  1
  Au  Au9  1  0.88941100  0.35410469  0.91150765  1
  Au  Au10  1  0.64888990  0.11272197  0.09282419  1
loop_
_geom_bond_atom_site_label_1
_geom_bond_atom_site_label_2
_geom_bond_distance
_geom_bond_site_symmetry_2
K0 Pt2 3.485723 1_555
K1 Pt4 3.430211 1_565
K1 Pt4 3.430211 1_655
K1 Pt3 3.534488 1_555
K2 Pt0 3.426494 1_545
K2 Pt0 3.426495 1_455
K2 Pt1 3.657071 1_556
K2 K4 3.665119 1_555
K2 Pt4 3.906257 1_556
K3 Pt1 3.373006 1_565
K3 Pt1 3.373007 1_655
K3 K5 3.604237 1_555
K3 Pt4 3.652623 1_655
K3 Pt4 3.652623 1_565
K3 Pt0 3.772641 1_554
K4 Pt3 3.367465 1_555
K4 Pt1 3.484521 1_555
K4 P0 3.506822 1_455
K4 P0 3.506822 1_545
K4 K6 3.550820 1_555
K4 K5 3.586873 1_545
K4 K5 3.586874 1_455
K4 Pt2 3.591884 1_545
K4 Pt2 3.591885 1_455
K4 Pt0 3.618588 1_455
K4 Pt0 3.618588 1_545
K5 Pt2 3.366183 1_555
K5 Pt0 3.457851 1_555
K5 P1 3.506575 1_655
K5 P1 3.506575 1_565
K5 Pt3 3.585793 1_565
K5 Pt3 3.585794 1_655
K5 K7 3.604377 1_555
K5 Pt1 3.634038 1_655
K5 Pt1 3.634038 1_565
K6 Pt2 3.366262 1_545
K6 Pt2 3.366262 1_455
K7 Pt3 3.389782 1_655
K7 Pt3 3.389782 1_565
K7 Pt4 3.408350 1_665
P0 Pt0 2.214614 1_555
P0 Pt2 2.216791 1_555
P1 Pt1 2.207423 1_555
P1 Pt3 2.212561 1_555
Pt1 Pt4 2.684613 1_555
Au0 Pt2 2.723956 1_555
Au0 Pt3 2.732666 1_555
Au0 Au5 2.841316 1_555
Au0 Au4 2.841316 1_555
Au0 Au3 2.843872 1_555
Au0 Au6 2.843872 1_555
Au0 K1 3.406480 1_555
Au0 K0 3.429835 1_555
Au0 K7 3.513413 1_545
Au0 K7 3.513414 1_455
Au0 K6 3.539499 1_565
Au0 K6 3.539500 1_655
Au1 Pt4 2.742126 1_555
Au1 Au7 2.800425 1_545
Au1 Au10 2.800425 1_455
Au1 Au9 2.830179 1_454
Au1 Au8 2.830179 1_544
Au1 Au2 2.856975 1_444
Au1 K1 3.443807 1_455
Au1 K1 3.443808 1_545
Au1 K7 3.498543 1_445
Au1 K0 3.508508 1_544
Au1 K0 3.508508 1_454
Au1 K6 3.632894 1_554
Au2 Pt0 2.733288 1_555
Au2 Au7 2.771081 1_656
Au2 Au5 2.810302 1_655
Au2 Au4 2.810302 1_565
Au2 K6 3.423282 1_665
Au2 K0 3.459093 1_565
Au2 K0 3.459093 1_655
Au2 K2 3.702499 1_655
Au2 K2 3.702499 1_565
Au3 Pt1 2.711552 1_655
Au3 Pt2 2.727572 1_555
Au3 Pt4 2.781974 1_655
Au3 Au6 2.948499 1_645
Au3 Au6 2.953430 1_555
Au3 K1 3.308875 1_555
Au3 K6 3.411965 1_655
Au3 K7 3.432742 1_545
Au3 K3 3.534776 1_555
Au3 K5 3.755494 1_555
Au3 K4 3.788228 1_655
Au4 Pt0 2.714521 1_545
Au4 Pt3 2.719129 1_555
Au4 Au5 2.926379 1_555
Au4 Au5 2.975550 1_645
Au4 K0 3.386956 1_555
Au4 K7 3.415407 1_545
Au4 K6 3.503540 1_655
Au4 K2 3.622319 1_555
Au4 K4 3.734578 1_555
Au4 K5 3.772075 1_545
Au5 Pt0 2.714521 1_455
Au5 Pt3 2.719129 1_555
Au5 K0 3.386956 1_555
Au5 K7 3.415408 1_455
Au5 K6 3.503540 1_565
Au5 K2 3.622319 1_555
Au5 K4 3.734578 1_555
Au5 K5 3.772075 1_455
Au6 Pt1 2.711552 1_565
Au6 Pt2 2.727573 1_555
Au6 Pt4 2.781975 1_565
Au6 K1 3.308874 1_555
Au6 K6 3.411965 1_565
Au6 K7 3.432743 1_455
Au6 K3 3.534776 1_555
Au6 K5 3.755494 1_555
Au6 K4 3.788227 1_565
Au7 P1 2.327003 1_555
Au7 K2 3.399489 1_554
Au7 K1 3.411205 1_555
Au7 K0 3.514420 1_554
Au7 K7 3.538804 1_455
Au7 K3 3.575486 1_455
Au7 K5 3.848610 1_455
Au8 P0 2.337497 1_555
Au8 Pt4 2.717065 1_566
Au8 K3 3.337099 1_556
Au8 K0 3.413818 1_555
Au8 K1 3.469342 1_556
Au8 K2 3.470003 1_565
Au8 K6 3.592364 1_565
Au8 K4 3.868714 1_565
Au9 P0 2.337497 1_555
Au9 Pt4 2.717065 1_656
Au9 K3 3.337098 1_556
Au9 K0 3.413818 1_555
Au9 K1 3.469341 1_556
Au9 K2 3.470003 1_655
Au9 K6 3.592363 1_655
Au9 K4 3.868713 1_655
Au10 P1 2.327003 1_555
Au10 Au2 2.771081 1_544
Au10 K2 3.399489 1_554
Au10 K1 3.411204 1_555
Au10 K0 3.514420 1_554
Au10 K7 3.538804 1_545
Au10 K3 3.575486 1_545
Au10 K5 3.848610 1_545
