# generated using pymatgen
data_FeTc6(NiO12)2
_symmetry_space_group_name_H-M   'P 1'
_cell_length_a   9.53103252
_cell_length_b   9.53103249
_cell_length_c   9.53103256
_cell_angle_alpha   56.04199675
_cell_angle_beta   56.04199809
_cell_angle_gamma   56.04199734
_symmetry_Int_Tables_number   1
_chemical_formula_structural   FeTc6(NiO12)2
_chemical_formula_sum   'Fe1 Tc6 Ni2 O24'
_cell_volume   556.08956936
_cell_formula_units_Z   1
loop_
 _symmetry_equiv_pos_site_id
 _symmetry_equiv_pos_as_xyz
  1  'x, y, z'
loop_
 _atom_site_type_symbol
 _atom_site_label
 _atom_site_symmetry_multiplicity
 _atom_site_fract_x
 _atom_site_fract_y
 _atom_site_fract_z
 _atom_site_occupancy
  Fe  Fe0  1  0.85431719  0.85431719  0.85431719  1
  Tc  Tc0  1  0.47673413  0.73599821  0.03617997  1
  Tc  Tc1  1  0.73599821  0.03617997  0.47673413  1
  Tc  Tc2  1  0.03617997  0.47673413  0.73599821  1
  Tc  Tc3  1  0.96099670  0.53488711  0.25476614  1
  Tc  Tc4  1  0.25476614  0.96099670  0.53488711  1
  Tc  Tc5  1  0.53488711  0.25476614  0.96099670  1
  Ni  Ni0  1  0.35912321  0.35912321  0.35912321  1
  Ni  Ni1  1  0.64204657  0.64204657  0.64204657  1
  O  O0  1  0.49439135  0.30426815  0.13168141  1
  O  O1  1  0.13168141  0.49439135  0.30426815  1
  O  O2  1  0.33466031  0.95113711  0.98869426  1
  O  O3  1  0.30426815  0.13168141  0.49439135  1
  O  O4  1  0.67672376  0.72250471  0.01625896  1
  O  O5  1  0.37702274  0.60264689  0.25023112  1
  O  O6  1  0.60264689  0.25023112  0.37702274  1
  O  O7  1  0.95113711  0.98869426  0.33466031  1
  O  O8  1  0.25023112  0.37702274  0.60264689  1
  O  O9  1  0.98303893  0.68287231  0.03234537  1
  O  O10  1  0.96832578  0.33807328  0.29049278  1
  O  O11  1  0.29049278  0.96832578  0.33807328  1
  O  O12  1  0.72250471  0.01625896  0.67672376  1
  O  O13  1  0.01625896  0.67672376  0.72250471  1
  O  O14  1  0.98869426  0.33466031  0.95113711  1
  O  O15  1  0.75469219  0.63382974  0.39599367  1
  O  O16  1  0.03234537  0.98303893  0.68287231  1
  O  O17  1  0.39599367  0.75469219  0.63382974  1
  O  O18  1  0.63382974  0.39599367  0.75469219  1
  O  O19  1  0.33807328  0.29049278  0.96832578  1
  O  O20  1  0.65572138  0.88400121  0.52770636  1
  O  O21  1  0.68287231  0.03234537  0.98303893  1
  O  O22  1  0.88400121  0.52770636  0.65572138  1
  O  O23  1  0.52770636  0.65572138  0.88400121  1
loop_
_geom_bond_atom_site_label_1
_geom_bond_atom_site_label_2
_geom_bond_distance
_geom_bond_site_symmetry_2
Fe0 O9 2.010688 1_556
Fe0 O16 2.010688 1_655
Fe0 O21 2.010688 1_565
Fe0 O12 2.028886 1_565
Fe0 O4 2.028886 1_556
Fe0 O13 2.028886 1_655
Ni0 O3 2.006379 1_555
Ni0 O1 2.006379 1_555
Ni0 O0 2.006379 1_555
Ni0 O5 2.011679 1_555
Ni0 O6 2.011679 1_555
Ni0 O8 2.011679 1_555
Ni1 O20 1.972846 1_555
Ni1 O22 1.972846 1_555
Ni1 O23 1.972846 1_555
Ni1 O18 1.989199 1_555
Ni1 O17 1.989199 1_555
Ni1 O15 1.989199 1_555
O0 Tc5 1.723549 1_554
O1 Tc3 1.723549 1_455
O2 Tc0 1.670014 1_556
O3 Tc4 1.723549 1_545
O4 Tc0 1.742108 1_555
O5 Tc0 1.722582 1_555
O6 Tc1 1.722582 1_555
O7 Tc1 1.670014 1_565
O8 Tc2 1.722582 1_555
O9 Tc3 1.737993 1_555
O10 Tc3 1.675171 1_555
O11 Tc4 1.675171 1_555
O12 Tc1 1.742108 1_555
O13 Tc2 1.742108 1_555
O14 Tc2 1.670014 1_655
O15 Tc3 1.719641 1_555
O16 Tc4 1.737993 1_555
O17 Tc4 1.719641 1_555
O18 Tc5 1.719641 1_555
O19 Tc5 1.675171 1_555
O20 Tc1 1.721180 1_565
O21 Tc5 1.737993 1_555
O22 Tc2 1.721180 1_655
O23 Tc0 1.721180 1_556
