# generated using pymatgen
data_Zr3Ti2BPb3
_symmetry_space_group_name_H-M   'P 1'
_cell_length_a   8.49098391
_cell_length_b   8.49098357
_cell_length_c   5.71972459
_cell_angle_alpha   90.00000000
_cell_angle_beta   90.00000000
_cell_angle_gamma   120.00000133
_symmetry_Int_Tables_number   1
_chemical_formula_structural   Zr3Ti2BPb3
_chemical_formula_sum   'Zr6 Ti4 B2 Pb6'
_cell_volume   357.12624033
_cell_formula_units_Z   2
loop_
 _symmetry_equiv_pos_site_id
 _symmetry_equiv_pos_as_xyz
  1  'x, y, z'
loop_
 _atom_site_type_symbol
 _atom_site_label
 _atom_site_symmetry_multiplicity
 _atom_site_fract_x
 _atom_site_fract_y
 _atom_site_fract_z
 _atom_site_occupancy
  Zr  Zr0  1  0.77081599  0.77081599  0.75000000  1
  Zr  Zr1  1  0.22918401  0.00000000  0.75000000  1
  Zr  Zr2  1  0.00000000  0.22918401  0.75000000  1
  Zr  Zr3  1  0.22918401  0.22918401  0.25000000  1
  Zr  Zr4  1  0.77081599  0.00000000  0.25000000  1
  Zr  Zr5  1  1.00000000  0.77081599  0.25000000  1
  Ti  Ti0  1  0.66666700  0.33333300  0.00000000  1
  Ti  Ti1  1  0.33333300  0.66666700  0.00000000  1
  Ti  Ti2  1  0.33333300  0.66666700  0.50000000  1
  Ti  Ti3  1  0.66666700  0.33333300  0.50000000  1
  B  B0  1  0.00000000  0.00000000  0.00000000  1
  B  B1  1  0.00000000  0.00000000  0.50000000  1
  Pb  Pb0  1  0.40408225  0.40408225  0.75000000  1
  Pb  Pb1  1  0.59591775  0.00000000  0.75000000  1
  Pb  Pb2  1  1.00000000  0.59591775  0.75000000  1
  Pb  Pb3  1  0.59591775  0.59591775  0.25000000  1
  Pb  Pb4  1  0.40408225  0.00000000  0.25000000  1
  Pb  Pb5  1  0.00000000  0.40408225  0.25000000  1
loop_
_geom_bond_atom_site_label_1
_geom_bond_atom_site_label_2
_geom_bond_distance
_geom_bond_site_symmetry_2
B0 Zr2 2.414873 1_554
B0 Zr3 2.414873 1_555
B0 Zr5 2.414873 1_445
B0 Zr0 2.414873 1_444
B0 Zr1 2.414873 1_554
B0 Zr4 2.414873 1_455
B1 Zr2 2.414873 1_555
B1 Zr3 2.414873 1_555
B1 Zr0 2.414873 1_445
B1 Zr5 2.414873 1_445
B1 Zr1 2.414873 1_555
B1 Zr4 2.414873 1_455
Pb0 Ti1 2.952304 1_556
Pb0 Ti2 2.952304 1_555
Pb0 Ti3 2.952304 1_555
Pb0 Ti0 2.952304 1_556
Pb0 Zr1 2.980306 1_555
Pb0 Zr2 2.980306 1_555
Pb0 Zr0 3.113930 1_555
Pb0 Zr3 3.222454 1_555
Pb0 Zr3 3.222454 1_556
Pb1 Ti0 2.952297 1_556
Pb1 Ti3 2.952297 1_555
Pb1 Ti1 2.952299 1_546
Pb1 Ti2 2.952299 1_545
Pb1 Zr2 2.980306 1_655
Pb1 Zr0 2.980306 1_545
Pb1 Zr1 3.113930 1_555
Pb1 Zr4 3.222454 1_555
Pb1 Zr4 3.222454 1_556
Pb2 Ti2 2.952297 1_655
Pb2 Ti1 2.952297 1_656
Pb2 Ti0 2.952299 1_556
Pb2 Ti3 2.952299 1_555
Pb2 Zr1 2.980306 1_665
Pb2 Zr0 2.980306 1_555
Pb2 Zr2 3.113930 1_655
Pb2 Zr5 3.222454 1_556
Pb2 Zr5 3.222454 1_555
Pb3 Ti0 2.952304 1_555
Pb3 Ti3 2.952304 1_555
Pb3 Ti1 2.952304 1_555
Pb3 Ti2 2.952304 1_555
Pb3 Zr4 2.980306 1_565
Pb3 Zr5 2.980306 1_555
Pb3 Zr3 3.113930 1_555
Pb3 Zr0 3.222454 1_555
Pb3 Zr0 3.222454 1_554
Pb4 Ti1 2.952297 1_545
Pb4 Ti2 2.952297 1_545
Pb4 Ti3 2.952299 1_555
Pb4 Ti0 2.952299 1_555
Pb4 Zr3 2.980306 1_555
Pb4 Zr5 2.980306 1_445
Pb4 Zr4 3.113930 1_555
Pb4 Zr1 3.222454 1_555
Pb4 Zr1 3.222454 1_554
Pb5 Ti3 2.952297 1_455
Pb5 Ti0 2.952297 1_455
Pb5 Ti1 2.952299 1_555
Pb5 Ti2 2.952299 1_555
Pb5 Zr4 2.980306 1_455
Pb5 Zr3 2.980306 1_555
Pb5 Zr5 3.113930 1_455
Pb5 Zr2 3.222454 1_554
Pb5 Zr2 3.222454 1_555
