# generated using pymatgen
data_Ca4CuSi6Ag
_symmetry_space_group_name_H-M   'P 1'
_cell_length_a   8.29594326
_cell_length_b   8.16459861
_cell_length_c   5.96025128
_cell_angle_alpha   69.95293760
_cell_angle_beta   67.59883304
_cell_angle_gamma   42.44822353
_symmetry_Int_Tables_number   1
_chemical_formula_structural   Ca4CuSi6Ag
_chemical_formula_sum   'Ca4 Cu1 Si6 Ag1'
_cell_volume   250.67948328
_cell_formula_units_Z   1
loop_
 _symmetry_equiv_pos_site_id
 _symmetry_equiv_pos_as_xyz
  1  'x, y, z'
loop_
 _atom_site_type_symbol
 _atom_site_label
 _atom_site_symmetry_multiplicity
 _atom_site_fract_x
 _atom_site_fract_y
 _atom_site_fract_z
 _atom_site_occupancy
  Ca  Ca0  1  0.74880985  0.74880985  0.75119015  1
  Ca  Ca1  1  0.75410536  0.24796573  0.75203427  1
  Ca  Ca2  1  0.24880985  0.24880985  0.25119015  1
  Ca  Ca3  1  0.24796573  0.75410536  0.24589464  1
  Cu  Cu0  1  0.66680513  0.66680513  0.33319487  1
  Si  Si0  1  0.83067018  0.33682408  0.16932982  1
  Si  Si1  1  0.67503672  0.16303974  0.32496328  1
  Si  Si2  1  0.16303974  0.67503672  0.83696026  1
  Si  Si3  1  0.33682408  0.83067018  0.66317592  1
  Si  Si4  1  0.16194913  0.16194913  0.83805087  1
  Si  Si5  1  0.83243554  0.83243554  0.16756446  1
  Ag  Ag0  1  0.33354969  0.33354969  0.66645031  1
loop_
_geom_bond_atom_site_label_1
_geom_bond_atom_site_label_2
_geom_bond_distance
_geom_bond_site_symmetry_2
Ca0 Si0 3.187216 1_556
Ca0 Si3 3.187216 1_555
Ca0 Cu0 3.197741 1_556
Ca0 Cu0 3.197741 1_555
Ca0 Si5 3.206123 1_555
Ca0 Si5 3.206123 1_556
Ca0 Si4 3.223272 1_655
Ca0 Si4 3.223272 1_565
Ca0 Si1 3.241354 1_565
Ca0 Si2 3.241354 1_655
Ca1 Si4 3.126075 1_655
Ca1 Si1 3.148428 1_556
Ca1 Si2 3.148429 1_645
Ca1 Si0 3.199552 1_556
Ca1 Si3 3.199552 1_645
Ca1 Si0 3.203623 1_555
Ca1 Si3 3.203624 1_555
Ca1 Si5 3.206040 1_546
Ca1 Cu0 3.212611 1_555
Ca1 Si1 3.247189 1_555
Ca1 Si2 3.247189 1_555
Ca2 Si3 3.187216 1_545
Ca2 Si0 3.187216 1_455
Ca2 Cu0 3.197741 1_545
Ca2 Cu0 3.197741 1_455
Ca2 Si5 3.206123 1_455
Ca2 Si5 3.206123 1_545
Ca2 Si4 3.223272 1_555
Ca2 Si4 3.223272 1_554
Ca2 Si2 3.241354 1_554
Ca2 Si1 3.241354 1_555
Ca3 Si4 3.126075 1_564
Ca3 Si2 3.148428 1_554
Ca3 Si1 3.148429 1_465
Ca3 Si3 3.199552 1_554
Ca3 Si0 3.199552 1_465
Ca3 Si3 3.203624 1_555
Ca3 Si0 3.203624 1_555
Ca3 Si5 3.206040 1_455
Ca3 Cu0 3.212611 1_555
Ca3 Si2 3.247188 1_555
Ca3 Si1 3.247189 1_555
Cu0 Si3 2.333979 1_555
Cu0 Si0 2.333979 1_555
Cu0 Si5 2.341884 1_555
Si0 Si1 2.330035 1_555
Si0 Si4 2.344401 1_654
Si1 Si5 2.339228 1_545
Si2 Si3 2.330035 1_555
Si2 Si5 2.339228 1_456
Si3 Si4 2.344401 1_565
Ag0 Si1 2.415348 1_555
Ag0 Si2 2.415348 1_555
Ag0 Si4 2.426298 1_555
Ag0 Ca2 3.211966 1_556
Ag0 Ca2 3.211966 1_555
Ag0 Ca0 3.211966 1_545
Ag0 Ca0 3.211966 1_455
Ag0 Ca3 3.230358 1_555
Ag0 Ca1 3.230358 1_555
