# generated using pymatgen
data_Al11SiIr6
_symmetry_space_group_name_H-M   'P 1'
_cell_length_a   6.73123821
_cell_length_b   6.73123701
_cell_length_c   10.59261093
_cell_angle_alpha   90.05690286
_cell_angle_beta   89.94310692
_cell_angle_gamma   145.84535816
_symmetry_Int_Tables_number   1
_chemical_formula_structural   Al11SiIr6
_chemical_formula_sum   'Al11 Si1 Ir6'
_cell_volume   269.45549264
_cell_formula_units_Z   1
loop_
 _symmetry_equiv_pos_site_id
 _symmetry_equiv_pos_as_xyz
  1  'x, y, z'
loop_
 _atom_site_type_symbol
 _atom_site_label
 _atom_site_symmetry_multiplicity
 _atom_site_fract_x
 _atom_site_fract_y
 _atom_site_fract_z
 _atom_site_occupancy
  Al  Al0  1  0.55975524  0.44024476  0.60830805  1
  Al  Al1  1  0.44068853  0.55931147  0.39111858  1
  Al  Al2  1  0.44117472  0.55882528  0.10769828  1
  Al  Al3  1  0.55933728  0.44066272  0.88870184  1
  Al  Al4  1  0.17846880  0.82153120  0.51473529  1
  Al  Al5  1  0.82139343  0.17860657  0.48515873  1
  Al  Al6  1  0.75917851  0.24082149  0.75053012  1
  Al  Al7  1  0.24113224  0.75886776  0.25522042  1
  Al  Al8  1  0.95577129  0.04422871  0.74880421  1
  Al  Al9  1  0.04496575  0.95503425  0.25012059  1
  Al  Al10  1  0.17696578  0.82303422  0.98559234  1
  Si  Si0  1  0.81933447  0.18066553  0.01503538  1
  Ir  Ir0  1  0.35874784  0.64125216  0.62335172  1
  Ir  Ir1  1  0.64145708  0.35854292  0.37691669  1
  Ir  Ir2  1  0.64493119  0.35506881  0.11999922  1
  Ir  Ir3  1  0.35650204  0.64349796  0.88411236  1
  Ir  Ir4  1  0.85544248  0.14455752  0.24406686  1
  Ir  Ir5  1  0.14475334  0.85524666  0.75053033  1
loop_
_geom_bond_atom_site_label_1
_geom_bond_atom_site_label_2
_geom_bond_distance
_geom_bond_site_symmetry_2
Al0 Ir0 2.591484 1_555
Al0 Ir1 2.666028 1_555
Al0 Ir5 2.716032 1_655
Al0 Ir5 2.716032 1_545
Al0 Al8 2.812243 1_565
Al0 Al8 2.812244 1_455
Al1 Ir1 2.587891 1_555
Al1 Ir0 2.675431 1_555
Al1 Ir4 2.746033 1_455
Al1 Ir4 2.746033 1_565
Al1 Al9 2.816851 1_545
Al1 Al9 2.816852 1_655
Al2 Ir3 2.608028 1_554
Al2 Ir2 2.625493 1_555
Al2 Ir4 2.684747 1_565
Al2 Ir4 2.684748 1_455
Al2 Si0 2.707853 1_565
Al2 Si0 2.707853 1_455
Al2 Al9 2.823392 1_655
Al2 Al9 2.823392 1_545
Al3 Ir3 2.610771 1_555
Al3 Ir2 2.687307 1_556
Al3 Ir5 2.693402 1_545
Al3 Ir5 2.693403 1_655
Al3 Al8 2.807803 1_455
Al3 Al8 2.807803 1_565
Al4 Ir1 2.503372 1_455
Al4 Ir1 2.503372 1_565
Al4 Ir5 2.534646 1_555
Al4 Ir0 2.590684 1_555
Al5 Ir0 2.506532 1_655
Al5 Ir0 2.506532 1_545
Al5 Ir1 2.584968 1_555
Al5 Ir4 2.590662 1_555
Al6 Ir5 2.464895 1_655
Al6 Ir5 2.464896 1_545
Al6 Al8 2.529981 1_555
Al6 Ir0 2.713016 1_545
Al6 Ir0 2.713017 1_655
Al6 Ir3 2.735300 1_655
Al6 Ir3 2.735300 1_545
Al6 Si0 2.907558 1_556
Al7 Ir4 2.466770 1_455
Al7 Ir4 2.466771 1_565
Al7 Al9 2.525082 1_555
Al7 Ir1 2.685333 1_565
Al7 Ir1 2.685334 1_455
Al7 Ir2 2.737759 1_455
Al7 Ir2 2.737759 1_565
Al8 Ir5 2.432080 1_645
Al8 Ir0 2.689923 1_655
Al8 Ir0 2.689923 1_545
Al8 Ir3 2.754958 1_655
Al8 Ir3 2.754959 1_545
Al9 Ir4 2.439867 1_465
Al9 Ir1 2.693822 1_455
Al9 Ir1 2.693822 1_565
Al9 Ir2 2.731009 1_455
Al9 Ir2 2.731011 1_565
Al10 Ir2 2.470442 1_566
Al10 Ir2 2.470443 1_456
Al10 Ir5 2.524617 1_555
Al10 Ir3 2.547242 1_555
Al10 Si0 2.713398 1_456
Al10 Si0 2.713399 1_566
Ir2 Si0 2.503646 1_555
Ir3 Si0 2.461307 1_566
Ir3 Si0 2.461308 1_456
Ir4 Si0 2.470615 1_555
