# generated using pymatgen
data_Rb3YNb2O8
_symmetry_space_group_name_H-M   'P 1'
_cell_length_a   6.20719541
_cell_length_b   6.20719599
_cell_length_c   7.91285898
_cell_angle_alpha   90.00000000
_cell_angle_beta   90.00000000
_cell_angle_gamma   120.00000720
_symmetry_Int_Tables_number   1
_chemical_formula_structural   Rb3YNb2O8
_chemical_formula_sum   'Rb3 Y1 Nb2 O8'
_cell_volume   264.03098897
_cell_formula_units_Z   1
loop_
 _symmetry_equiv_pos_site_id
 _symmetry_equiv_pos_as_xyz
  1  'x, y, z'
loop_
 _atom_site_type_symbol
 _atom_site_label
 _atom_site_symmetry_multiplicity
 _atom_site_fract_x
 _atom_site_fract_y
 _atom_site_fract_z
 _atom_site_occupancy
  Rb  Rb0  1  0.33333300  0.66666700  0.67939675  1
  Rb  Rb1  1  0.66666700  0.33333300  0.32060325  1
  Rb  Rb2  1  0.00000000  0.00000000  0.00000000  1
  Y  Y0  1  0.00000000  0.00000000  0.50000000  1
  Nb  Nb0  1  0.33333300  0.66666700  0.24277392  1
  Nb  Nb1  1  0.66666700  0.33333300  0.75722608  1
  O  O0  1  0.33333300  0.66666700  0.01376229  1
  O  O1  1  0.66666700  0.33333300  0.98623771  1
  O  O2  1  0.16890599  0.83109401  0.32855520  1
  O  O3  1  0.66218701  0.83109401  0.32855520  1
  O  O4  1  0.16890599  0.33781299  0.32855520  1
  O  O5  1  0.83109401  0.16890599  0.67144480  1
  O  O6  1  0.33781299  0.16890599  0.67144480  1
  O  O7  1  0.83109401  0.66218701  0.67144480  1
loop_
_geom_bond_atom_site_label_1
_geom_bond_atom_site_label_2
_geom_bond_distance
_geom_bond_site_symmetry_2
Nb0 O0 1.812137 1_555
Nb0 O3 1.893620 1_555
Nb0 O4 1.893620 1_555
Nb0 O2 1.893620 1_555
Nb1 O1 1.812137 1_555
Nb1 O6 1.893620 1_555
Nb1 O7 1.893620 1_555
Nb1 O5 1.893620 1_555
O0 Rb0 2.645787 1_554
O1 Rb1 2.645787 1_556
O2 Y0 2.266726 1_565
O2 Rb1 3.104329 1_455
O2 Rb1 3.104329 1_565
O2 Rb2 3.171222 1_565
O2 Rb0 3.291219 1_555
O3 Y0 2.266730 1_665
O3 Rb1 3.104323 1_565
O3 Rb1 3.104335 1_555
O3 Rb2 3.171225 1_665
O3 Rb0 3.291219 1_555
O4 Y0 2.266730 1_555
O4 Rb1 3.104323 1_455
O4 Rb1 3.104335 1_555
O4 Rb2 3.171225 1_555
O4 Rb0 3.291219 1_555
O5 Y0 2.266726 1_655
O5 Rb0 3.104329 1_655
O5 Rb0 3.104329 1_545
O5 Rb2 3.171222 1_656
O5 Rb1 3.291219 1_555
O6 Y0 2.266730 1_555
O6 Rb0 3.104323 1_545
O6 Rb0 3.104335 1_555
O6 Rb2 3.171225 1_556
O6 Rb1 3.291219 1_555
O7 Y0 2.266730 1_665
O7 Rb0 3.104323 1_655
O7 Rb0 3.104335 1_555
O7 Rb2 3.171225 1_666
O7 Rb1 3.291219 1_555
