# generated using pymatgen
data_Hf12Al7Fe5N4
_symmetry_space_group_name_H-M   'P 1'
_cell_length_a   8.40992923
_cell_length_b   8.40992805
_cell_length_c   8.40992865
_cell_angle_alpha   60.06362731
_cell_angle_beta   60.06362290
_cell_angle_gamma   60.06363120
_symmetry_Int_Tables_number   1
_chemical_formula_structural   Hf12Al7Fe5N4
_chemical_formula_sum   'Hf12 Al7 Fe5 N4'
_cell_volume   421.19939572
_cell_formula_units_Z   1
loop_
 _symmetry_equiv_pos_site_id
 _symmetry_equiv_pos_as_xyz
  1  'x, y, z'
loop_
 _atom_site_type_symbol
 _atom_site_label
 _atom_site_symmetry_multiplicity
 _atom_site_fract_x
 _atom_site_fract_y
 _atom_site_fract_z
 _atom_site_occupancy
  Hf  Hf0  1  0.80970569  0.80970569  0.18694009  1
  Hf  Hf1  1  0.18994076  0.18994076  0.81015909  1
  Hf  Hf2  1  0.80970569  0.18694009  0.80970569  1
  Hf  Hf3  1  0.18994076  0.81015909  0.18994076  1
  Hf  Hf4  1  0.18694009  0.80970569  0.80970569  1
  Hf  Hf5  1  0.81015909  0.18994076  0.18994076  1
  Hf  Hf6  1  0.44046890  0.44046890  0.05907374  1
  Hf  Hf7  1  0.05781198  0.05781198  0.44258772  1
  Hf  Hf8  1  0.44046890  0.05907374  0.44046890  1
  Hf  Hf9  1  0.05781198  0.44258772  0.05781198  1
  Hf  Hf10  1  0.05907374  0.44046890  0.44046890  1
  Hf  Hf11  1  0.44258772  0.05781198  0.05781198  1
  Al  Al0  1  0.74333091  0.41852007  0.41852007  1
  Al  Al1  1  0.41852007  0.74333091  0.41852007  1
  Al  Al2  1  0.41852007  0.41852007  0.74333091  1
  Al  Al3  1  0.41957996  0.41957996  0.41957996  1
  Al  Al4  1  0.51006831  0.83086187  0.83086187  1
  Al  Al5  1  0.83086187  0.51006831  0.83086187  1
  Al  Al6  1  0.83086187  0.83086187  0.51006831  1
  Fe  Fe0  1  0.12050540  0.62992939  0.62992939  1
  Fe  Fe1  1  0.62992939  0.12050540  0.62992939  1
  Fe  Fe2  1  0.62992939  0.62992939  0.12050540  1
  Fe  Fe3  1  0.62457737  0.62457737  0.62457737  1
  Fe  Fe4  1  0.82792467  0.82792467  0.82792467  1
  N  N0  1  0.62588764  0.12466468  0.12466468  1
  N  N1  1  0.12466468  0.62588764  0.12466468  1
  N  N2  1  0.12466468  0.12466468  0.62588764  1
  N  N3  1  0.12555742  0.12555742  0.12555742  1
loop_
_geom_bond_atom_site_label_1
_geom_bond_atom_site_label_2
_geom_bond_distance
_geom_bond_site_symmetry_2
Hf0 N0 2.239815 1_565
Hf0 N1 2.239815 1_655
Hf1 N2 2.236810 1_555
Hf1 N3 2.246712 1_556
Hf2 N0 2.239815 1_556
Hf2 N2 2.239815 1_655
Hf3 N1 2.236810 1_555
Hf3 N3 2.246712 1_565
Hf4 N1 2.239815 1_556
Hf4 N2 2.239815 1_565
Hf5 N0 2.236811 1_555
Hf5 N3 2.246713 1_655
Hf6 N0 2.247758 1_555
Hf6 N1 2.247758 1_555
Hf7 N3 2.247130 1_555
Hf7 N2 2.248129 1_555
Hf8 N0 2.247758 1_555
Hf8 N2 2.247758 1_555
Hf9 N3 2.247130 1_555
Hf9 N1 2.248129 1_555
Hf10 N1 2.247758 1_555
Hf10 N2 2.247758 1_555
Hf11 N3 2.247130 1_555
Hf11 N0 2.248129 1_555
Al0 Fe3 2.558521 1_555
Al0 Fe1 2.568637 1_555
Al0 Fe2 2.568638 1_555
Al0 Al3 2.713855 1_555
Al0 Al2 2.734263 1_555
Al0 Al1 2.734263 1_555
Al0 Hf10 2.851593 1_655
Al0 Hf9 2.855166 1_655
Al0 Hf7 2.855166 1_655
Al0 Hf5 3.039450 1_555
Al0 Hf0 3.046415 1_555
Al0 Hf2 3.046415 1_555
Al1 Fe3 2.558522 1_555
Al1 Fe2 2.568637 1_555
Al1 Fe0 2.568637 1_555
Al1 Al3 2.713855 1_555
Al1 Al2 2.734263 1_555
Al1 Hf8 2.851593 1_565
Al1 Hf11 2.855166 1_565
Al1 Hf7 2.855166 1_565
Al1 Hf3 3.039450 1_555
Al1 Hf4 3.046415 1_555
Al1 Hf0 3.046415 1_555
Al2 Fe3 2.558521 1_555
Al2 Fe1 2.568637 1_555
Al2 Fe0 2.568638 1_555
Al2 Al3 2.713855 1_555
Al2 Hf6 2.851593 1_556
Al2 Hf11 2.855166 1_556
Al2 Hf9 2.855166 1_556
Al2 Hf1 3.039450 1_555
Al2 Hf4 3.046415 1_555
Al2 Hf2 3.046416 1_555
Al3 Fe2 2.612807 1_555
Al3 Fe0 2.612807 1_555
Al3 Fe1 2.612808 1_555
Al3 Hf8 2.867289 1_555
Al3 Hf6 2.867289 1_555
Al3 Hf10 2.867289 1_555
Al3 Hf1 3.051004 1_555
Al3 Hf5 3.051004 1_555
Al3 Hf3 3.051004 1_555
Al4 Fe1 2.539181 1_565
Al4 Fe2 2.539181 1_556
Al4 Fe3 2.572096 1_555
Al4 Fe4 2.648726 1_555
Al4 Al6 2.700445 1_555
Al4 Al5 2.700445 1_555
Al4 Hf3 2.868182 1_556
Al4 Hf1 2.868183 1_565
Al4 Hf4 2.905990 1_555
Al4 Hf11 3.013561 1_566
Al4 Hf6 3.051732 1_556
Al4 Hf8 3.051733 1_565
Al5 Fe2 2.539181 1_556
Al5 Fe0 2.539181 1_655
Al5 Fe3 2.572096 1_555
Al5 Fe4 2.648726 1_555
Al5 Al6 2.700445 1_555
Al5 Hf5 2.868182 1_556
Al5 Hf1 2.868183 1_655
Al5 Hf2 2.905989 1_555
Al5 Hf9 3.013561 1_656
Al5 Hf10 3.051732 1_655
Al5 Hf6 3.051732 1_556
Al6 Fe1 2.539181 1_565
Al6 Fe0 2.539181 1_655
Al6 Fe3 2.572096 1_555
Al6 Fe4 2.648726 1_555
Al6 Hf5 2.868182 1_565
Al6 Hf3 2.868182 1_655
Al6 Hf0 2.905989 1_555
Al6 Hf7 3.013561 1_665
Al6 Hf10 3.051732 1_655
Al6 Hf8 3.051733 1_565
Fe0 Fe4 2.487664 1_455
Fe0 Hf4 2.975151 1_555
Fe0 Hf7 2.997683 1_565
Fe0 Hf9 2.997683 1_556
Fe0 Hf1 3.075618 1_555
Fe0 Hf3 3.075618 1_555
Fe0 Hf10 3.085694 1_555
Fe1 Fe4 2.487665 1_545
Fe1 Hf2 2.975151 1_555
Fe1 Hf11 2.997683 1_556
Fe1 Hf7 2.997683 1_655
Fe1 Hf5 3.075618 1_555
Fe1 Hf1 3.075618 1_555
Fe1 Hf8 3.085694 1_555
Fe2 Fe4 2.487664 1_554
Fe2 Hf0 2.975151 1_555
Fe2 Hf11 2.997683 1_565
Fe2 Hf9 2.997683 1_655
Fe2 Hf5 3.075618 1_555
Fe2 Hf3 3.075618 1_555
Fe2 Hf6 3.085694 1_555
Fe3 Hf6 3.040728 1_556
Fe3 Hf8 3.040728 1_565
Fe3 Hf10 3.040728 1_655
Fe3 Hf0 3.061856 1_555
Fe3 Hf2 3.061856 1_555
Fe3 Hf4 3.061856 1_555
Fe4 Hf2 2.874555 1_565
Fe4 Hf0 2.874555 1_556
Fe4 Hf4 2.874555 1_655
Fe4 Hf7 3.033410 1_665
Fe4 Hf11 3.033411 1_566
Fe4 Hf9 3.033411 1_656
