# generated using pymatgen
data_Ba5SiBi2
_symmetry_space_group_name_H-M   'P 1'
_cell_length_a   14.37210707
_cell_length_b   10.58847647
_cell_length_c   9.10718576
_cell_angle_alpha   90.00000000
_cell_angle_beta   90.00000000
_cell_angle_gamma   90.00000000
_symmetry_Int_Tables_number   1
_chemical_formula_structural   Ba5SiBi2
_chemical_formula_sum   'Ba20 Si4 Bi8'
_cell_volume   1385.91984917
_cell_formula_units_Z   4
loop_
 _symmetry_equiv_pos_site_id
 _symmetry_equiv_pos_as_xyz
  1  'x, y, z'
loop_
 _atom_site_type_symbol
 _atom_site_label
 _atom_site_symmetry_multiplicity
 _atom_site_fract_x
 _atom_site_fract_y
 _atom_site_fract_z
 _atom_site_occupancy
  Ba  Ba0  1  0.07571862  0.52584126  0.82185103  1
  Ba  Ba1  1  0.57571862  0.97415874  0.67814897  1
  Ba  Ba2  1  0.92428138  0.02584126  0.17814897  1
  Ba  Ba3  1  0.42428138  0.47415874  0.32185103  1
  Ba  Ba4  1  0.92428138  0.47415874  0.17814897  1
  Ba  Ba5  1  0.42428138  0.02584126  0.32185103  1
  Ba  Ba6  1  0.07571862  0.97415874  0.82185103  1
  Ba  Ba7  1  0.57571862  0.52584126  0.67814897  1
  Ba  Ba8  1  0.00028921  0.75000000  0.44075087  1
  Ba  Ba9  1  0.50028921  0.75000000  0.05924913  1
  Ba  Ba10  1  0.99971079  0.25000000  0.55924913  1
  Ba  Ba11  1  0.49971079  0.25000000  0.94075087  1
  Ba  Ba12  1  0.21401757  0.75000000  0.16858299  1
  Ba  Ba13  1  0.71401757  0.75000000  0.33141701  1
  Ba  Ba14  1  0.78598243  0.25000000  0.83141701  1
  Ba  Ba15  1  0.28598243  0.25000000  0.66858299  1
  Ba  Ba16  1  0.30169388  0.75000000  0.64644296  1
  Ba  Ba17  1  0.80169388  0.75000000  0.85355704  1
  Ba  Ba18  1  0.69830612  0.25000000  0.35355704  1
  Ba  Ba19  1  0.19830612  0.25000000  0.14644296  1
  Si  Si0  1  0.48980712  0.75000000  0.44139785  1
  Si  Si1  1  0.98980712  0.75000000  0.05860215  1
  Si  Si2  1  0.51019288  0.25000000  0.55860215  1
  Si  Si3  1  0.01019288  0.25000000  0.94139785  1
  Bi  Bi0  1  0.33149286  0.50575186  0.93863342  1
  Bi  Bi1  1  0.83149286  0.99424814  0.56136658  1
  Bi  Bi2  1  0.66850714  0.00575186  0.06136658  1
  Bi  Bi3  1  0.16850714  0.49424814  0.43863342  1
  Bi  Bi4  1  0.66850714  0.49424814  0.06136658  1
  Bi  Bi5  1  0.16850714  0.00575186  0.43863342  1
  Bi  Bi6  1  0.33149286  0.99424814  0.93863342  1
  Bi  Bi7  1  0.83149286  0.50575186  0.56136658  1
loop_
_geom_bond_atom_site_label_1
_geom_bond_atom_site_label_2
_geom_bond_distance
_geom_bond_site_symmetry_2
Ba0 Si3 3.256215 1_555
Ba0 Si1 3.436129 1_456
Ba0 Bi3 3.751085 1_555
Ba0 Bi0 3.832687 1_555
Ba0 Bi7 4.241855 1_455
Ba1 Si2 3.256215 1_565
Ba1 Si0 3.436129 1_555
Ba1 Bi2 3.751085 1_566
Ba1 Bi1 3.832687 1_555
Ba1 Bi6 4.241855 1_555
Ba2 Si1 3.256215 1_545
Ba2 Si3 3.436129 1_654
Ba2 Bi1 3.751085 1_545
Ba2 Bi2 3.832687 1_555
Ba2 Bi5 4.241855 1_655
Ba3 Si0 3.256215 1_555
Ba3 Si2 3.436129 1_555
Ba3 Bi0 3.751085 1_554
Ba3 Bi3 3.832687 1_555
Ba3 Bi4 4.241855 1_555
Ba4 Si1 3.256215 1_555
Ba4 Si3 3.436129 1_654
Ba4 Bi7 3.751085 1_555
Ba4 Bi4 3.832687 1_555
Ba4 Bi3 4.241855 1_655
Ba5 Si0 3.256215 1_545
Ba5 Si2 3.436129 1_555
Ba5 Bi6 3.751085 1_544
Ba5 Bi5 3.832687 1_555
Ba5 Bi2 4.241855 1_555
Ba6 Si3 3.256215 1_565
Ba6 Si1 3.436129 1_456
Ba6 Bi5 3.751085 1_565
Ba6 Bi6 3.832687 1_555
Ba6 Bi1 4.241855 1_455
Ba7 Si2 3.256215 1_555
Ba7 Si0 3.436129 1_555
Ba7 Bi4 3.751085 1_556
Ba7 Bi7 3.832687 1_555
Ba7 Bi0 4.241855 1_555
Ba8 Si1 3.483558 1_455
Ba8 Bi5 3.630258 1_565
Ba8 Bi3 3.630258 1_555
Ba8 Bi1 3.712199 1_455
Ba8 Bi7 3.712199 1_455
Ba9 Si0 3.483558 1_555
Ba9 Bi2 3.630258 1_565
Ba9 Bi4 3.630258 1_555
Ba9 Bi6 3.712199 1_554
Ba9 Bi0 3.712199 1_554
Ba10 Si3 3.483558 1_655
Ba10 Bi7 3.630258 1_555
Ba10 Bi1 3.630258 1_545
Ba10 Bi3 3.712199 1_655
Ba10 Bi5 3.712199 1_655
Ba11 Si2 3.483558 1_555
Ba11 Bi0 3.630258 1_555
Ba11 Bi6 3.630258 1_545
Ba11 Bi4 3.712199 1_556
Ba11 Bi2 3.712199 1_556
Ba12 Si1 3.374455 1_455
Ba12 Bi5 3.716161 1_565
Ba12 Bi3 3.716161 1_555
Ba12 Bi6 3.731587 1_554
Ba12 Bi0 3.731587 1_554
Ba13 Si0 3.374455 1_555
Ba13 Bi2 3.716161 1_565
Ba13 Bi4 3.716161 1_555
Ba13 Bi1 3.731587 1_555
Ba13 Bi7 3.731587 1_555
Ba14 Si3 3.374455 1_655
Ba14 Bi7 3.716161 1_555
Ba14 Bi1 3.716161 1_545
Ba14 Bi4 3.731587 1_556
Ba14 Bi2 3.731587 1_556
Ba15 Si2 3.374455 1_555
Ba15 Bi0 3.716161 1_555
Ba15 Bi6 3.716161 1_545
Ba15 Bi3 3.731587 1_555
Ba15 Bi5 3.731587 1_555
Ba16 Si0 3.285801 1_555
Ba16 Bi6 3.735375 1_555
Ba16 Bi0 3.735375 1_555
Ba16 Bi5 3.818276 1_565
Ba16 Bi3 3.818276 1_555
Ba17 Si1 3.285801 1_556
Ba17 Bi1 3.735375 1_555
Ba17 Bi7 3.735375 1_555
Ba17 Bi2 3.818276 1_566
Ba17 Bi4 3.818276 1_556
Ba18 Si2 3.285801 1_555
Ba18 Bi4 3.735375 1_555
Ba18 Bi2 3.735375 1_555
Ba18 Bi7 3.818276 1_555
Ba18 Bi1 3.818276 1_545
Ba19 Si3 3.285801 1_554
Ba19 Bi3 3.735375 1_555
Ba19 Bi5 3.735375 1_555
Ba19 Bi0 3.818276 1_554
Ba19 Bi6 3.818276 1_544
