# generated using pymatgen
data_LiB2PdRh2
_symmetry_space_group_name_H-M   'P 1'
_cell_length_a   6.75084837
_cell_length_b   5.96464654
_cell_length_c   5.41649426
_cell_angle_alpha   72.62894070
_cell_angle_beta   57.31883076
_cell_angle_gamma   52.33014441
_symmetry_Int_Tables_number   1
_chemical_formula_structural   LiB2PdRh2
_chemical_formula_sum   'Li2 B4 Pd2 Rh4'
_cell_volume   145.14593358
_cell_formula_units_Z   2
loop_
 _symmetry_equiv_pos_site_id
 _symmetry_equiv_pos_as_xyz
  1  'x, y, z'
loop_
 _atom_site_type_symbol
 _atom_site_label
 _atom_site_symmetry_multiplicity
 _atom_site_fract_x
 _atom_site_fract_y
 _atom_site_fract_z
 _atom_site_occupancy
  Li  Li0  1  0.94863202  0.74639777  0.41013925  1
  Li  Li1  1  0.50407040  0.30093827  0.35390446  1
  B  B0  1  0.04131189  0.99826948  0.58314803  1
  B  B1  1  0.67951065  0.80940499  0.16536083  1
  B  B2  1  0.43977802  0.57110178  0.90433157  1
  B  B3  1  0.25249321  0.20774310  0.87294745  1
  Pd  Pd0  1  0.86708775  0.37894425  0.33901051  1
  Pd  Pd1  1  0.87122046  0.38331731  0.83457300  1
  Rh  Rh0  1  0.10182495  0.64289178  0.86248052  1
  Rh  Rh1  1  0.35440692  0.86125873  0.14719489  1
  Rh  Rh2  1  0.60661477  0.14868075  0.85862408  1
  Rh  Rh3  1  0.38825096  0.89584979  0.61308640  1
loop_
_geom_bond_atom_site_label_1
_geom_bond_atom_site_label_2
_geom_bond_distance
_geom_bond_site_symmetry_2
Li0 Rh0 2.692648 1_654
Li0 Pd1 2.713156 1_555
Li0 Pd0 2.731859 1_555
Li0 Rh1 2.738535 1_655
Li0 Rh2 2.764360 1_565
Li0 Rh3 2.878703 1_555
Li0 Rh0 2.916589 1_655
Li1 Rh2 2.679849 1_554
Li1 Pd0 2.717814 1_555
Li1 Pd1 2.726040 1_554
Li1 Rh3 2.741972 1_545
Li1 Rh0 2.762184 1_555
Li1 Rh1 2.881717 1_555
Li1 Rh2 2.927559 1_555
B0 Rh1 2.088645 1_555
B0 Rh3 2.118331 1_555
B0 Rh2 2.120338 1_465
B0 Rh0 2.154833 1_555
B0 Pd0 2.215921 1_465
B0 Pd1 2.324539 1_465
B0 Li0 2.479769 1_455
B1 Rh0 2.065681 1_654
B1 Rh1 2.075465 1_555
B1 Rh3 2.090733 1_555
B1 Rh2 2.180808 1_564
B1 Pd0 2.225068 1_555
B1 Li0 2.582464 1_555
B1 Li1 2.697941 1_565
B1 Pd1 2.745717 1_554
B2 Rh2 2.069083 1_555
B2 Rh3 2.075108 1_555
B2 Rh1 2.092720 1_556
B2 Rh0 2.178618 1_555
B2 Pd1 2.226552 1_555
B2 Li1 2.580368 1_556
B2 Li0 2.693720 1_456
B2 Pd0 2.743507 1_555
B3 Rh3 2.090109 1_545
B3 Rh1 2.117486 1_546
B3 Rh0 2.126547 1_555
B3 Rh2 2.152182 1_555
B3 Pd1 2.217709 1_455
B3 Pd0 2.320317 1_456
B3 Li1 2.482271 1_555
