# generated using pymatgen
data_Be2AlCo4P
_symmetry_space_group_name_H-M   'P 1'
_cell_length_a   6.53624832
_cell_length_b   6.53624786
_cell_length_c   6.53624788
_cell_angle_alpha   33.57855664
_cell_angle_beta   33.57856039
_cell_angle_gamma   33.57856425
_symmetry_Int_Tables_number   1
_chemical_formula_structural   Be2AlCo4P
_chemical_formula_sum   'Be2 Al1 Co4 P1'
_cell_volume   76.08855521
_cell_formula_units_Z   1
loop_
 _symmetry_equiv_pos_site_id
 _symmetry_equiv_pos_as_xyz
  1  'x, y, z'
loop_
 _atom_site_type_symbol
 _atom_site_label
 _atom_site_symmetry_multiplicity
 _atom_site_fract_x
 _atom_site_fract_y
 _atom_site_fract_z
 _atom_site_occupancy
  Be  Be0  1  0.25587165  0.25587165  0.25587165  1
  Be  Be1  1  0.74412835  0.74412835  0.74412835  1
  Al  Al0  1  0.00000000  0.00000000  0.00000000  1
  Co  Co0  1  0.87039979  0.87039979  0.87039979  1
  Co  Co1  1  0.38085224  0.38085224  0.38085224  1
  Co  Co2  1  0.12960021  0.12960021  0.12960021  1
  Co  Co3  1  0.61914776  0.61914776  0.61914776  1
  P  P0  1  0.50000000  0.50000000  0.50000000  1
loop_
_geom_bond_atom_site_label_1
_geom_bond_atom_site_label_2
_geom_bond_distance
_geom_bond_site_symmetry_2
Be0 Co3 2.249260 1_554
Be0 Co3 2.249260 1_545
Be0 Co3 2.249261 1_455
Be0 Co1 2.310376 1_555
Be0 Co2 2.334239 1_555
Be0 Co0 2.383642 1_445
Be0 Co0 2.383642 1_454
Be0 Co0 2.383643 1_544
Be1 Co1 2.249260 1_556
Be1 Co1 2.249260 1_565
Be1 Co1 2.249261 1_655
Be1 Co3 2.310376 1_555
Be1 Co0 2.334239 1_555
Be1 Co2 2.383642 1_665
Be1 Co2 2.383642 1_656
Be1 Co2 2.383643 1_566
Al0 Co1 2.350410 1_554
Al0 Co3 2.350410 1_445
Al0 Co1 2.350410 1_545
Al0 Co3 2.350410 1_454
Al0 Co1 2.350410 1_455
Al0 Co3 2.350410 1_544
Al0 Co2 2.395774 1_555
Al0 Co0 2.395774 1_444
Co0 P0 2.285234 1_556
Co0 P0 2.285235 1_565
Co0 P0 2.285235 1_655
Co1 P0 2.202551 1_555
Co2 P0 2.285234 1_554
Co2 P0 2.285235 1_545
Co2 P0 2.285235 1_455
Co3 P0 2.202551 1_555
