# generated using pymatgen
data_Rb3NaSn4
_symmetry_space_group_name_H-M   'P 1'
_cell_length_a   9.11452175
_cell_length_b   9.11452195
_cell_length_c   10.77445417
_cell_angle_alpha   90.00000000
_cell_angle_beta   90.00000000
_cell_angle_gamma   133.88586944
_symmetry_Int_Tables_number   1
_chemical_formula_structural   Rb3NaSn4
_chemical_formula_sum   'Rb6 Na2 Sn8'
_cell_volume   645.10572862
_cell_formula_units_Z   2
loop_
 _symmetry_equiv_pos_site_id
 _symmetry_equiv_pos_as_xyz
  1  'x, y, z'
loop_
 _atom_site_type_symbol
 _atom_site_label
 _atom_site_symmetry_multiplicity
 _atom_site_fract_x
 _atom_site_fract_y
 _atom_site_fract_z
 _atom_site_occupancy
  Rb  Rb0  1  0.61052226  0.38947774  0.55049192  1
  Rb  Rb1  1  0.61052226  0.38947774  0.94950808  1
  Rb  Rb2  1  0.38947774  0.61052226  0.44950808  1
  Rb  Rb3  1  0.38947774  0.61052226  0.05049192  1
  Rb  Rb4  1  0.76374705  0.23625295  0.25000000  1
  Rb  Rb5  1  0.23625295  0.76374705  0.75000000  1
  Na  Na0  1  0.00000000  0.00000000  0.50000000  1
  Na  Na1  1  0.00000000  0.00000000  0.00000000  1
  Sn  Sn0  1  0.26794572  0.16706072  0.25000000  1
  Sn  Sn1  1  0.82616683  0.17383317  0.88520634  1
  Sn  Sn2  1  0.82616683  0.17383317  0.61479366  1
  Sn  Sn3  1  0.16706072  0.26794572  0.75000000  1
  Sn  Sn4  1  0.73205428  0.83293928  0.75000000  1
  Sn  Sn5  1  0.17383317  0.82616683  0.38520634  1
  Sn  Sn6  1  0.83293928  0.73205428  0.25000000  1
  Sn  Sn7  1  0.17383317  0.82616683  0.11479366  1
loop_
_geom_bond_atom_site_label_1
_geom_bond_atom_site_label_2
_geom_bond_distance
_geom_bond_site_symmetry_2
Rb0 Sn2 3.682723 1_555
Rb0 Rb2 3.863897 1_555
Rb0 Sn0 3.945306 1_555
Rb0 Sn6 3.945306 1_555
Rb0 Sn3 3.997188 1_555
Rb0 Sn4 3.997188 1_555
Rb0 Sn5 4.128164 1_655
Rb0 Sn5 4.128164 1_545
Rb0 Rb4 4.133673 1_555
Rb0 Rb1 4.299181 1_555
Rb0 Rb5 4.670188 1_655
Rb0 Rb5 4.670188 1_545
Rb1 Sn1 3.682723 1_555
Rb1 Rb3 3.863897 1_556
Rb1 Sn0 3.945306 1_556
Rb1 Sn6 3.945306 1_556
Rb1 Sn3 3.997188 1_555
Rb1 Sn4 3.997188 1_555
Rb1 Sn7 4.128164 1_656
Rb1 Sn7 4.128164 1_546
Rb1 Rb4 4.133673 1_556
Rb1 Rb5 4.670188 1_655
Rb1 Rb5 4.670188 1_545
Rb2 Sn5 3.682723 1_555
Rb2 Sn4 3.945306 1_555
Rb2 Sn3 3.945306 1_555
Rb2 Sn6 3.997188 1_555
Rb2 Sn0 3.997188 1_555
Rb2 Sn2 4.128164 1_455
Rb2 Sn2 4.128164 1_565
Rb2 Rb5 4.133673 1_555
Rb2 Rb3 4.299181 1_555
Rb2 Rb4 4.670188 1_455
Rb2 Rb4 4.670188 1_565
Rb3 Sn7 3.682723 1_555
Rb3 Sn4 3.945306 1_554
Rb3 Sn3 3.945306 1_554
Rb3 Sn6 3.997188 1_555
Rb3 Sn0 3.997188 1_555
Rb3 Sn1 4.128164 1_454
Rb3 Sn1 4.128164 1_564
Rb3 Rb5 4.133673 1_554
Rb3 Rb4 4.670188 1_455
Rb3 Rb4 4.670188 1_565
Rb4 Sn2 4.067502 1_555
Rb4 Sn1 4.067502 1_554
Rb4 Sn0 4.107036 1_555
Rb4 Sn6 4.107036 1_555
Rb4 Sn5 4.139953 1_545
Rb4 Sn7 4.139953 1_545
Rb4 Sn5 4.139953 1_655
Rb4 Sn7 4.139953 1_655
Rb5 Sn7 4.067502 1_556
Rb5 Sn5 4.067502 1_555
Rb5 Sn4 4.107036 1_555
Rb5 Sn3 4.107036 1_555
Rb5 Sn1 4.139953 1_565
Rb5 Sn2 4.139953 1_565
Rb5 Sn1 4.139953 1_455
Rb5 Sn2 4.139953 1_455
Na0 Sn2 3.167162 1_455
Na0 Sn5 3.167162 1_545
Na0 Sn0 3.222215 1_555
Na0 Sn4 3.222215 1_445
Na0 Sn3 3.222215 1_555
Na0 Sn6 3.222215 1_445
Na0 Rb0 4.058947 1_555
Na0 Rb2 4.058947 1_445
Na0 Rb0 4.058947 1_445
Na0 Rb2 4.058947 1_555
Na1 Sn7 3.167162 1_545
Na1 Sn1 3.167162 1_454
Na1 Sn0 3.222215 1_555
Na1 Sn4 3.222215 1_444
Na1 Sn3 3.222215 1_554
Na1 Sn6 3.222215 1_445
Na1 Rb3 4.058947 1_445
Na1 Rb1 4.058947 1_554
Na1 Rb3 4.058947 1_555
Na1 Rb1 4.058947 1_444
Sn0 Sn5 2.969305 1_545
Sn0 Sn7 2.969305 1_545
Sn0 Sn6 3.105669 1_445
Sn1 Sn2 2.913549 1_555
Sn1 Sn3 2.969305 1_655
Sn1 Sn4 2.969305 1_545
Sn2 Sn3 2.969305 1_655
Sn2 Sn4 2.969305 1_545
Sn3 Sn4 3.105669 1_445
Sn5 Sn7 2.913549 1_555
Sn5 Sn6 2.969305 1_455
Sn6 Sn7 2.969305 1_655
