# generated using pymatgen
data_Nb4VB2S
_symmetry_space_group_name_H-M   'P 1'
_cell_length_a   7.18360710
_cell_length_b   7.18360668
_cell_length_c   7.18360758
_cell_angle_alpha   130.07695979
_cell_angle_beta   130.07696065
_cell_angle_gamma   73.28376679
_symmetry_Int_Tables_number   1
_chemical_formula_structural   Nb4VB2S
_chemical_formula_sum   'Nb8 V2 B4 S2'
_cell_volume   211.89123742
_cell_formula_units_Z   2
loop_
 _symmetry_equiv_pos_site_id
 _symmetry_equiv_pos_as_xyz
  1  'x, y, z'
loop_
 _atom_site_type_symbol
 _atom_site_label
 _atom_site_symmetry_multiplicity
 _atom_site_fract_x
 _atom_site_fract_y
 _atom_site_fract_z
 _atom_site_occupancy
  Nb  Nb0  1  0.80839270  0.30839270  0.84066860  1
  Nb  Nb1  1  0.19160730  0.69160730  0.15933140  1
  Nb  Nb2  1  0.46772311  0.96772311  0.15933140  1
  Nb  Nb3  1  0.30839270  0.46772311  0.50000000  1
  Nb  Nb4  1  0.03227689  0.19160730  0.50000000  1
  Nb  Nb5  1  0.53227689  0.03227689  0.84066860  1
  Nb  Nb6  1  0.69160730  0.53227689  0.50000000  1
  Nb  Nb7  1  0.96772311  0.80839270  0.50000000  1
  V  V0  1  0.00000000  0.00000000  0.00000000  1
  V  V1  1  0.50000000  0.50000000  0.00000000  1
  B  B0  1  0.11720668  0.61720668  0.73441336  1
  B  B1  1  0.88279332  0.38279332  0.26558664  1
  B  B2  1  0.61720668  0.88279332  0.50000000  1
  B  B3  1  0.38279332  0.11720668  0.50000000  1
  S  S0  1  0.25000000  0.25000000  0.00000000  1
  S  S1  1  0.75000000  0.75000000  0.00000000  1
loop_
_geom_bond_atom_site_label_1
_geom_bond_atom_site_label_2
_geom_bond_distance
_geom_bond_site_symmetry_2
Nb0 S1 2.593657 1_556
Nb0 S0 2.593657 1_656
Nb0 V0 2.755858 1_656
Nb0 V1 2.755858 1_556
Nb1 S0 2.593657 1_555
Nb1 S1 2.593657 1_455
Nb1 V0 2.755858 1_565
Nb1 V1 2.755858 1_555
Nb2 S0 2.593663 1_565
Nb2 S1 2.593663 1_555
Nb2 V1 2.755851 1_555
Nb2 V0 2.755851 1_565
Nb3 S1 2.593659 1_556
Nb3 S0 2.593659 1_555
Nb3 V0 2.755853 1_555
Nb3 V1 2.755854 1_556
Nb4 S1 2.593659 1_445
Nb4 S0 2.593659 1_556
Nb4 V1 2.755853 1_556
Nb4 V0 2.755854 1_555
Nb5 S1 2.593663 1_546
Nb5 S0 2.593663 1_556
Nb5 V1 2.755851 1_556
Nb5 V0 2.755851 1_656
Nb6 S0 2.593659 1_555
Nb6 S1 2.593659 1_556
Nb6 V0 2.755853 1_666
Nb6 V1 2.755854 1_555
Nb7 S0 2.593659 1_666
Nb7 S1 2.593659 1_555
Nb7 V1 2.755853 1_555
Nb7 V0 2.755854 1_666
B0 B1 2.009982 1_455
B0 Nb4 2.382466 1_555
B0 Nb6 2.382467 1_455
B0 Nb7 2.382467 1_455
B0 Nb3 2.382467 1_555
B0 Nb2 2.419021 1_556
B0 Nb1 2.419029 1_556
B0 V0 2.427272 1_566
B0 V1 2.427272 1_556
B1 Nb7 2.382466 1_555
B1 Nb3 2.382467 1_655
B1 Nb4 2.382467 1_655
B1 Nb6 2.382467 1_555
B1 Nb5 2.419021 1_554
B1 Nb0 2.419029 1_554
B1 V0 2.427272 1_655
B1 V1 2.427272 1_555
B2 B3 2.009982 1_565
B2 Nb2 2.382460 1_555
B2 Nb5 2.382460 1_565
B2 Nb0 2.382468 1_565
B2 Nb1 2.382468 1_555
B2 Nb6 2.419022 1_555
B2 Nb7 2.419022 1_555
B2 V1 2.427272 1_555
B2 V0 2.427272 1_666
B3 Nb5 2.382460 1_555
B3 Nb2 2.382460 1_545
B3 Nb1 2.382468 1_545
B3 Nb0 2.382468 1_555
B3 Nb3 2.419022 1_555
B3 Nb4 2.419022 1_555
B3 V1 2.427272 1_556
B3 V0 2.427272 1_555
S0 V0 2.881996 1_555
S0 V1 2.881996 1_555
S1 V1 2.881996 1_555
S1 V0 2.881996 1_665
