# generated using pymatgen
data_CaLu3Sb6Rh7
_symmetry_space_group_name_H-M   'P 1'
_cell_length_a   7.53164625
_cell_length_b   7.53164775
_cell_length_c   7.53164725
_cell_angle_alpha   109.63639673
_cell_angle_beta   109.63639605
_cell_angle_gamma   109.63639952
_symmetry_Int_Tables_number   1
_chemical_formula_structural   CaLu3Sb6Rh7
_chemical_formula_sum   'Ca1 Lu3 Sb6 Rh7'
_cell_volume   326.86118902
_cell_formula_units_Z   1
loop_
 _symmetry_equiv_pos_site_id
 _symmetry_equiv_pos_as_xyz
  1  'x, y, z'
loop_
 _atom_site_type_symbol
 _atom_site_label
 _atom_site_symmetry_multiplicity
 _atom_site_fract_x
 _atom_site_fract_y
 _atom_site_fract_z
 _atom_site_occupancy
  Ca  Ca0  1  0.50000000  0.50000000  0.50000000  1
  Lu  Lu0  1  0.50000000  0.00000000  0.00000000  1
  Lu  Lu1  1  0.00000000  0.50000000  0.00000000  1
  Lu  Lu2  1  0.00000000  0.00000000  0.50000000  1
  Sb  Sb0  1  0.31807471  0.00187509  0.31807471  1
  Sb  Sb1  1  0.99812491  0.68192529  0.68192529  1
  Sb  Sb2  1  0.68192529  0.68192529  0.99812491  1
  Sb  Sb3  1  0.68192529  0.99812491  0.68192529  1
  Sb  Sb4  1  0.00187509  0.31807471  0.31807471  1
  Sb  Sb5  1  0.31807471  0.31807471  0.00187509  1
  Rh  Rh0  1  0.24531990  0.50000000  0.75468010  1
  Rh  Rh1  1  0.50000000  0.24531990  0.75468010  1
  Rh  Rh2  1  0.75468010  0.24531990  0.50000000  1
  Rh  Rh3  1  0.50000000  0.75468010  0.24531990  1
  Rh  Rh4  1  0.00000000  0.00000000  0.00000000  1
  Rh  Rh5  1  0.24531990  0.75468010  0.50000000  1
  Rh  Rh6  1  0.75468010  0.50000000  0.24531990  1
loop_
_geom_bond_atom_site_label_1
_geom_bond_atom_site_label_2
_geom_bond_distance
_geom_bond_site_symmetry_2
Ca0 Sb1 3.107790 1_555
Ca0 Sb4 3.107790 1_555
Ca0 Sb2 3.107790 1_555
Ca0 Sb5 3.107790 1_555
Ca0 Sb3 3.107791 1_555
Ca0 Sb0 3.107791 1_555
Ca0 Rh0 3.135532 1_555
Ca0 Rh6 3.135532 1_555
Ca0 Rh5 3.135533 1_555
Ca0 Rh2 3.135533 1_555
Ca0 Rh3 3.135533 1_555
Ca0 Rh1 3.135533 1_555
Lu0 Rh1 3.020293 1_554
Lu0 Rh3 3.020293 1_545
Lu0 Rh2 3.059623 1_555
Lu0 Rh5 3.059623 1_544
Lu0 Rh6 3.059623 1_555
Lu0 Rh0 3.059623 1_544
Lu0 Sb4 3.120362 1_655
Lu0 Sb1 3.120362 1_444
Lu0 Sb0 3.132585 1_555
Lu0 Sb3 3.132585 1_544
Lu0 Sb5 3.132585 1_555
Lu0 Sb2 3.132585 1_544
Lu1 Rh6 3.020293 1_455
Lu1 Rh0 3.020293 1_554
Lu1 Rh3 3.059622 1_555
Lu1 Rh1 3.059622 1_454
Lu1 Rh5 3.059623 1_555
Lu1 Rh2 3.059623 1_454
Lu1 Sb0 3.120363 1_565
Lu1 Sb3 3.120363 1_444
Lu1 Sb2 3.132585 1_454
Lu1 Sb5 3.132585 1_555
Lu1 Sb4 3.132585 1_555
Lu1 Sb1 3.132585 1_454
Lu2 Rh5 3.020293 1_545
Lu2 Rh2 3.020293 1_455
Lu2 Rh1 3.059622 1_555
Lu2 Rh3 3.059622 1_445
Lu2 Rh0 3.059623 1_555
Lu2 Rh6 3.059623 1_445
Lu2 Sb5 3.120362 1_556
Lu2 Sb2 3.120362 1_444
Lu2 Sb0 3.132585 1_555
Lu2 Sb3 3.132585 1_445
Lu2 Sb4 3.132585 1_555
Lu2 Sb1 3.132585 1_445
Rh0 Sb1 2.679074 1_455
Rh0 Sb5 2.679074 1_556
Rh0 Sb2 2.698793 1_555
Rh0 Sb4 2.698794 1_555
Rh1 Sb5 2.679074 1_556
Rh1 Sb3 2.679074 1_545
Rh1 Sb0 2.698794 1_555
Rh1 Sb2 2.698794 1_555
Rh2 Sb4 2.679074 1_655
Rh2 Sb3 2.679074 1_545
Rh2 Sb0 2.698793 1_555
Rh2 Sb1 2.698794 1_555
Rh3 Sb2 2.679074 1_554
Rh3 Sb0 2.679074 1_565
Rh3 Sb3 2.698794 1_555
Rh3 Sb5 2.698794 1_555
Rh4 Sb2 2.752376 1_444
Rh4 Sb5 2.752376 1_555
Rh4 Sb0 2.752376 1_555
Rh4 Sb3 2.752376 1_444
Rh4 Sb4 2.752376 1_555
Rh4 Sb1 2.752376 1_444
Rh5 Sb1 2.679074 1_455
Rh5 Sb0 2.679074 1_565
Rh5 Sb3 2.698793 1_555
Rh5 Sb4 2.698794 1_555
Rh6 Sb4 2.679074 1_655
Rh6 Sb2 2.679074 1_554
Rh6 Sb5 2.698793 1_555
Rh6 Sb1 2.698794 1_555
