# generated using pymatgen
data_La4Ti3O12
_symmetry_space_group_name_H-M   'P 1'
_cell_length_a   9.36623491
_cell_length_b   9.36623491
_cell_length_c   9.36623510
_cell_angle_alpha   34.80245318
_cell_angle_beta   34.80245318
_cell_angle_gamma   34.80245775
_symmetry_Int_Tables_number   1
_chemical_formula_structural   La4Ti3O12
_chemical_formula_sum   'La4 Ti3 O12'
_cell_volume   238.90888169
_cell_formula_units_Z   1
loop_
 _symmetry_equiv_pos_site_id
 _symmetry_equiv_pos_as_xyz
  1  'x, y, z'
loop_
 _atom_site_type_symbol
 _atom_site_label
 _atom_site_symmetry_multiplicity
 _atom_site_fract_x
 _atom_site_fract_y
 _atom_site_fract_z
 _atom_site_occupancy
  La  La0  1  0.13425600  0.13425600  0.13425600  1
  La  La1  1  0.86574400  0.86574400  0.86574400  1
  La  La2  1  0.28739000  0.28739000  0.28739000  1
  La  La3  1  0.71261000  0.71261000  0.71261000  1
  Ti  Ti0  1  0.00000000  0.00000000  0.00000000  1
  Ti  Ti1  1  0.42437700  0.42437700  0.42437700  1
  Ti  Ti2  1  0.57562300  0.57562300  0.57562300  1
  O  O0  1  0.69752600  0.55253600  0.11658200  1
  O  O1  1  0.55253600  0.11658200  0.69752600  1
  O  O2  1  0.11658200  0.69752600  0.55253600  1
  O  O3  1  0.30247400  0.44746400  0.88341800  1
  O  O4  1  0.44746400  0.88341800  0.30247400  1
  O  O5  1  0.88341800  0.30247400  0.44746400  1
  O  O6  1  0.85668000  0.72845800  0.29115600  1
  O  O7  1  0.70884400  0.14332000  0.27154200  1
  O  O8  1  0.27154200  0.70884400  0.14332000  1
  O  O9  1  0.14332000  0.27154200  0.70884400  1
  O  O10  1  0.29115600  0.85668000  0.72845800  1
  O  O11  1  0.72845800  0.29115600  0.85668000  1
loop_
_geom_bond_atom_site_label_1
_geom_bond_atom_site_label_2
_geom_bond_distance
_geom_bond_site_symmetry_2
La0 O2 2.416062 1_545
La0 O1 2.416062 1_554
La0 O0 2.416062 1_455
La0 O3 2.607851 1_554
La0 O5 2.607851 1_455
La0 O4 2.607851 1_545
La1 O5 2.416062 1_565
La1 O4 2.416062 1_556
La1 O3 2.416062 1_655
La1 O0 2.607851 1_556
La1 O2 2.607851 1_655
La1 O1 2.607851 1_565
La2 O11 2.445076 1_554
La2 O10 2.445076 1_545
La2 O6 2.445076 1_455
La2 O5 2.595750 1_455
La2 O3 2.595750 1_554
La2 O4 2.595750 1_545
La2 O8 2.836221 1_555
La2 O9 2.836221 1_555
La2 O7 2.836221 1_555
La3 O8 2.445076 1_556
La3 O7 2.445076 1_565
La3 O9 2.445076 1_655
La3 O2 2.595750 1_655
La3 O0 2.595750 1_556
La3 O1 2.595750 1_565
La3 O11 2.836221 1_555
La3 O6 2.836221 1_555
La3 O10 2.836221 1_555
O0 Ti1 1.882838 1_555
O1 Ti1 1.882838 1_555
O2 Ti1 1.882838 1_555
O3 Ti2 1.882838 1_555
O4 Ti2 1.882838 1_555
O5 Ti2 1.882838 1_555
O6 Ti0 1.977872 1_665
O6 Ti2 2.117617 1_555
O7 Ti0 1.977873 1_655
O7 Ti1 2.117618 1_555
O8 Ti0 1.977873 1_565
O8 Ti1 2.117617 1_555
O9 Ti0 1.977872 1_556
O9 Ti1 2.117617 1_555
O10 Ti0 1.977873 1_566
O10 Ti2 2.117618 1_555
O11 Ti0 1.977873 1_656
O11 Ti2 2.117617 1_555
