# generated using pymatgen
data_BaTc(PO4)2
_symmetry_space_group_name_H-M   'P 1'
_cell_length_a   4.86204971
_cell_length_b   4.86205027
_cell_length_c   7.83401233
_cell_angle_alpha   86.15531955
_cell_angle_beta   86.15531648
_cell_angle_gamma   65.10724932
_symmetry_Int_Tables_number   1
_chemical_formula_structural   BaTc(PO4)2
_chemical_formula_sum   'Ba1 Tc1 P2 O8'
_cell_volume   167.45511793
_cell_formula_units_Z   1
loop_
 _symmetry_equiv_pos_site_id
 _symmetry_equiv_pos_as_xyz
  1  'x, y, z'
loop_
 _atom_site_type_symbol
 _atom_site_label
 _atom_site_symmetry_multiplicity
 _atom_site_fract_x
 _atom_site_fract_y
 _atom_site_fract_z
 _atom_site_occupancy
  Ba  Ba0  1  0.00000000  0.00000000  0.00000000  1
  Tc  Tc0  1  0.00000000  0.00000000  0.50000000  1
  P  P0  1  0.37043547  0.37043547  0.29467942  1
  P  P1  1  0.62956453  0.62956453  0.70532058  1
  O  O0  1  0.71897154  0.23943124  0.31454785  1
  O  O1  1  0.23943124  0.71897154  0.31454785  1
  O  O2  1  0.28102846  0.76056876  0.68545215  1
  O  O3  1  0.76056876  0.28102846  0.68545215  1
  O  O4  1  0.23715235  0.23715235  0.44162037  1
  O  O5  1  0.76284765  0.76284765  0.55837963  1
  O  O6  1  0.31486159  0.31486159  0.11552098  1
  O  O7  1  0.68513841  0.68513841  0.88447902  1
loop_
_geom_bond_atom_site_label_1
_geom_bond_atom_site_label_2
_geom_bond_distance
_geom_bond_site_symmetry_2
Ba0 O6 2.801902 1_555
Ba0 O7 2.801902 1_444
Ba0 O0 2.808632 1_455
Ba0 O2 2.808632 1_544
Ba0 O1 2.808633 1_545
Ba0 O3 2.808633 1_454
Ba0 O7 3.122142 1_544
Ba0 O6 3.122142 1_455
Ba0 O7 3.122142 1_454
Ba0 O6 3.122142 1_545
O0 P0 1.554031 1_555
O0 Tc0 2.008293 1_655
O1 P0 1.554032 1_555
O1 Tc0 2.008293 1_565
O2 P1 1.554031 1_555
O2 Tc0 2.008293 1_565
O3 P1 1.554032 1_555
O3 Tc0 2.008293 1_655
O4 P0 1.522646 1_555
O4 Tc0 1.961123 1_555
O5 P1 1.522646 1_555
O5 Tc0 1.961123 1_665
O6 P0 1.509666 1_555
O7 P1 1.509666 1_555
