# generated using pymatgen
data_Rb3Sc(SeO4)3
_symmetry_space_group_name_H-M   'P 1'
_cell_length_a   9.55478687
_cell_length_b   9.55478674
_cell_length_c   9.55478649
_cell_angle_alpha   108.49850720
_cell_angle_beta   108.49851297
_cell_angle_gamma   108.49852468
_symmetry_Int_Tables_number   1
_chemical_formula_structural   Rb3Sc(SeO4)3
_chemical_formula_sum   'Rb6 Sc2 Se6 O24'
_cell_volume   694.62284455
_cell_formula_units_Z   2
loop_
 _symmetry_equiv_pos_site_id
 _symmetry_equiv_pos_as_xyz
  1  'x, y, z'
loop_
 _atom_site_type_symbol
 _atom_site_label
 _atom_site_symmetry_multiplicity
 _atom_site_fract_x
 _atom_site_fract_y
 _atom_site_fract_z
 _atom_site_occupancy
  Rb  Rb0  1  0.10195905  0.63326660  0.24632219  1
  Rb  Rb1  1  0.24632219  0.10195905  0.63326660  1
  Rb  Rb2  1  0.63326660  0.24632219  0.10195905  1
  Rb  Rb3  1  0.30540718  0.69296156  0.83700165  1
  Rb  Rb4  1  0.83700165  0.30540718  0.69296156  1
  Rb  Rb5  1  0.69296156  0.83700165  0.30540718  1
  Sc  Sc0  1  0.46918740  0.46918740  0.46918740  1
  Sc  Sc1  1  0.96922048  0.96922048  0.96922048  1
  Se  Se0  1  0.89567527  0.70077178  0.57210688  1
  Se  Se1  1  0.57210688  0.89567527  0.70077178  1
  Se  Se2  1  0.70077178  0.57210688  0.89567527  1
  Se  Se3  1  0.36649396  0.04280208  0.23742926  1
  Se  Se4  1  0.23742926  0.36649396  0.04280208  1
  Se  Se5  1  0.04280208  0.23742926  0.36649396  1
  O  O0  1  0.96574105  0.75168333  0.45029405  1
  O  O1  1  0.45029405  0.96574105  0.75168333  1
  O  O2  1  0.75168333  0.45029405  0.96574105  1
  O  O3  1  0.68740436  0.60369892  0.46332803  1
  O  O4  1  0.46332803  0.68740436  0.60369892  1
  O  O5  1  0.60369892  0.46332803  0.68740436  1
  O  O6  1  0.88023772  0.72942074  0.94935761  1
  O  O7  1  0.94935761  0.88023772  0.72942074  1
  O  O8  1  0.72942074  0.94935761  0.88023772  1
  O  O9  1  0.63716647  0.96307286  0.58538223  1
  O  O10  1  0.58538223  0.63716647  0.96307286  1
  O  O11  1  0.96307286  0.58538223  0.63716647  1
  O  O12  1  0.25111734  0.33447728  0.47510793  1
  O  O13  1  0.47510793  0.25111734  0.33447728  1
  O  O14  1  0.33447728  0.47510793  0.25111734  1
  O  O15  1  0.05801771  0.20905752  0.98898891  1
  O  O16  1  0.98898891  0.05801771  0.20905752  1
  O  O17  1  0.20905752  0.98898891  0.05801771  1
  O  O18  1  0.97302373  0.18653980  0.48845269  1
  O  O19  1  0.48845269  0.97302373  0.18653980  1
  O  O20  1  0.18653980  0.48845269  0.97302373  1
  O  O21  1  0.30163827  0.97539469  0.35289441  1
  O  O22  1  0.35289441  0.30163827  0.97539469  1
  O  O23  1  0.97539469  0.35289441  0.30163827  1
loop_
_geom_bond_atom_site_label_1
_geom_bond_atom_site_label_2
_geom_bond_distance
_geom_bond_site_symmetry_2
O0 Se0 1.639063 1_555
O0 Rb0 2.813754 1_655
O0 Rb1 3.010680 1_665
O0 Rb5 3.024708 1_555
O1 Se1 1.639064 1_555
O1 Rb1 2.813754 1_565
O1 Rb2 3.010680 1_566
O1 Rb3 3.024707 1_555
O2 Se2 1.639064 1_555
O2 Rb2 2.813754 1_556
O2 Rb0 3.010680 1_656
O2 Rb4 3.024708 1_555
O3 Se0 1.674861 1_555
O3 Sc0 2.102742 1_555
O3 Rb5 3.059226 1_555
O4 Se1 1.674861 1_555
O4 Sc0 2.102743 1_555
O4 Rb3 3.059226 1_555
O5 Se2 1.674861 1_555
O5 Sc0 2.102743 1_555
O5 Rb4 3.059227 1_555
O6 Se2 1.667302 1_555
O6 Sc1 2.096227 1_555
O7 Se0 1.667303 1_555
O7 Sc1 2.096227 1_555
O8 Se1 1.667303 1_555
O8 Sc1 2.096227 1_555
O9 Se1 1.627296 1_555
O9 Rb4 2.838884 1_565
O9 Rb5 2.856407 1_555
O10 Se2 1.627296 1_555
O10 Rb5 2.838884 1_556
O10 Rb3 2.856407 1_555
O11 Se0 1.627296 1_555
O11 Rb3 2.838884 1_655
O11 Rb4 2.856407 1_555
O12 Se5 1.675105 1_555
O12 Sc0 2.102505 1_555
O12 Rb1 3.054715 1_555
O13 Se3 1.675105 1_555
O13 Sc0 2.102505 1_555
O13 Rb2 3.054715 1_555
O14 Se4 1.675106 1_555
O14 Sc0 2.102505 1_555
O14 Rb0 3.054715 1_555
O15 Se4 1.667147 1_556
O15 Sc1 2.096855 1_445
O16 Se5 1.667147 1_655
O16 Sc1 2.096855 1_544
O17 Se3 1.667147 1_565
O17 Sc1 2.096855 1_454
O18 Se5 1.638802 1_655
O18 Rb4 2.817310 1_555
O18 Rb5 3.004347 1_545
O18 Rb1 3.023656 1_655
O19 Se3 1.638803 1_565
O19 Rb5 2.817310 1_555
O19 Rb3 3.004347 1_554
O19 Rb2 3.023656 1_565
O20 Se4 1.638803 1_556
O20 Rb3 2.817309 1_555
O20 Rb4 3.004347 1_455
O20 Rb0 3.023656 1_556
O21 Se3 1.627092 1_565
O21 Rb0 2.839074 1_555
O21 Rb1 2.857721 1_565
O22 Se4 1.627092 1_556
O22 Rb1 2.839074 1_555
O22 Rb2 2.857721 1_556
O23 Se5 1.627092 1_655
O23 Rb2 2.839074 1_555
O23 Rb0 2.857721 1_655
