# generated using pymatgen
data_TaNi21B6Sb
_symmetry_space_group_name_H-M   'P 1'
_cell_length_a   7.39773504
_cell_length_b   7.39777517
_cell_length_c   7.39775568
_cell_angle_alpha   60.00350965
_cell_angle_beta   60.00377878
_cell_angle_gamma   60.00357625
_symmetry_Int_Tables_number   1
_chemical_formula_structural   TaNi21B6Sb
_chemical_formula_sum   'Ta1 Ni21 B6 Sb1'
_cell_volume   286.29947040
_cell_formula_units_Z   1
loop_
 _symmetry_equiv_pos_site_id
 _symmetry_equiv_pos_as_xyz
  1  'x, y, z'
loop_
 _atom_site_type_symbol
 _atom_site_label
 _atom_site_symmetry_multiplicity
 _atom_site_fract_x
 _atom_site_fract_y
 _atom_site_fract_z
 _atom_site_occupancy
  Ta  Ta0  1  0.24997605  0.25001257  0.24999422  1
  Ni  Ni0  1  0.99999207  0.00001944  0.99997428  1
  Ni  Ni1  1  0.61612493  0.61613785  0.15161359  1
  Ni  Ni2  1  0.61611141  0.15162255  0.61614496  1
  Ni  Ni3  1  0.15162082  0.61611589  0.61613528  1
  Ni  Ni4  1  0.61612157  0.61612266  0.61612997  1
  Ni  Ni5  1  0.38467009  0.38463493  0.84604976  1
  Ni  Ni6  1  0.38467345  0.84604550  0.38464636  1
  Ni  Ni7  1  0.84604420  0.38465580  0.38466317  1
  Ni  Ni8  1  0.38465828  0.38463780  0.38466070  1
  Ni  Ni9  1  0.00344100  0.00344328  0.33525955  1
  Ni  Ni10  1  0.65783615  0.00344294  0.33525831  1
  Ni  Ni11  1  0.00343112  0.65785529  0.33526599  1
  Ni  Ni12  1  0.65786278  0.33525268  0.00342988  1
  Ni  Ni13  1  0.00343973  0.33525873  0.00342565  1
  Ni  Ni14  1  0.00343797  0.33523741  0.65787542  1
  Ni  Ni15  1  0.33528227  0.65785755  0.00342397  1
  Ni  Ni16  1  0.33525831  0.00344566  0.65785309  1
  Ni  Ni17  1  0.33528399  0.00344141  0.00342462  1
  Ni  Ni18  1  0.00343316  0.00345314  0.65788339  1
  Ni  Ni19  1  0.00342622  0.65788019  0.00343515  1
  Ni  Ni20  1  0.65786168  0.00344774  0.00343531  1
  B  B0  1  0.72986872  0.72985312  0.27013823  1
  B  B1  1  0.27013662  0.72986231  0.27013724  1
  B  B2  1  0.72987220  0.27013646  0.27013343  1
  B  B3  1  0.27013309  0.27013715  0.72986926  1
  B  B4  1  0.72986739  0.27013641  0.72986206  1
  B  B5  1  0.27013207  0.72986148  0.72987119  1
  Sb  Sb0  1  0.75000566  0.74999506  0.75000897  1
loop_
_geom_bond_atom_site_label_1
_geom_bond_atom_site_label_2
_geom_bond_distance
_geom_bond_site_symmetry_2
Ni0 Ni18 2.505537 1_655
Ni0 Ni14 2.505707 1_655
Ni0 Ni20 2.505769 1_556
Ni0 Ni13 2.505801 1_656
Ni0 Ni19 2.505828 1_646
Ni0 Ni12 2.505876 1_556
Ni0 Ni16 2.505970 1_655
Ni0 Ni9 2.506035 1_656
Ni0 Ni17 2.506076 1_656
Ni0 Ni10 2.506165 1_556
Ni0 Ni15 2.506206 1_646
Ni0 Ni11 2.506221 1_646
Ni1 Sb0 2.425901 1_554
Ni2 Sb0 2.426041 1_545
Ni3 Sb0 2.425960 1_455
Ni4 Sb0 2.425909 1_555
Ni5 Ta0 2.440035 1_556
Ni6 Ta0 2.440173 1_565
Ni7 Ta0 2.439954 1_655
Ni8 Ta0 2.440034 1_555
Ni9 Ta0 2.842004 1_555
Ni10 Ta0 2.842232 1_555
Ni11 Ta0 2.842166 1_555
Ni12 Ta0 2.842332 1_555
Ni13 Ta0 2.842057 1_555
Ni14 Ta0 2.842257 1_555
Ni15 Ta0 2.842287 1_555
Ni16 Ta0 2.842288 1_555
Ni17 Ta0 2.842108 1_555
Ni18 Ta0 2.842322 1_555
Ni19 Ta0 2.842268 1_555
Ni20 Ta0 2.842381 1_555
B0 Ni11 2.062016 1_655
B0 Ni10 2.062103 1_565
B0 Ni19 2.062113 1_655
B0 Ni20 2.062270 1_565
B0 Ni6 2.085167 1_555
B0 Ni7 2.085185 1_555
B0 Ni1 2.089868 1_555
B0 Ni4 2.090069 1_555
B1 Ni11 2.062149 1_555
B1 Ni15 2.062154 1_555
B1 Ni9 2.062205 1_565
B1 Ni17 2.062285 1_565
B1 Ni6 2.085223 1_555
B1 Ni8 2.085349 1_555
B1 Ni1 2.090046 1_555
B1 Ni3 2.090108 1_555
B2 Ni9 2.062143 1_655
B2 Ni13 2.062174 1_655
B2 Ni12 2.062180 1_555
B2 Ni10 2.062214 1_555
B2 Ni7 2.085174 1_555
B2 Ni8 2.085279 1_555
B2 Ni1 2.090130 1_555
B2 Ni2 2.090189 1_555
B3 Ni13 2.062087 1_556
B3 Ni14 2.062088 1_555
B3 Ni16 2.062110 1_555
B3 Ni17 2.062135 1_556
B3 Ni5 2.085139 1_555
B3 Ni8 2.085251 1_555
B3 Ni2 2.089985 1_555
B3 Ni3 2.089993 1_555
B4 Ni14 2.061990 1_655
B4 Ni12 2.061998 1_556
B4 Ni18 2.062057 1_655
B4 Ni20 2.062150 1_556
B4 Ni5 2.085180 1_555
B4 Ni7 2.085193 1_555
B4 Ni2 2.089887 1_555
B4 Ni4 2.090037 1_555
B5 Ni15 2.062034 1_556
B5 Ni16 2.062125 1_565
B5 Ni19 2.062156 1_556
B5 Ni18 2.062208 1_565
B5 Ni6 2.085350 1_555
B5 Ni5 2.085361 1_555
B5 Ni3 2.089922 1_555
B5 Ni4 2.090050 1_555
