# generated using pymatgen
data_Ta2Ti2Co4Si7
_symmetry_space_group_name_H-M   'P 1'
_cell_length_a   9.12688893
_cell_length_b   9.12689940
_cell_length_c   9.12692552
_cell_angle_alpha   94.14613907
_cell_angle_beta   94.14542371
_cell_angle_gamma   148.79561101
_symmetry_Int_Tables_number   1
_chemical_formula_structural   Ta2Ti2Co4Si7
_chemical_formula_sum   'Ta4 Ti4 Co8 Si14'
_cell_volume   379.39629186
_cell_formula_units_Z   2
loop_
 _symmetry_equiv_pos_site_id
 _symmetry_equiv_pos_as_xyz
  1  'x, y, z'
loop_
 _atom_site_type_symbol
 _atom_site_label
 _atom_site_symmetry_multiplicity
 _atom_site_fract_x
 _atom_site_fract_y
 _atom_site_fract_z
 _atom_site_occupancy
  Ta  Ta0  1  0.13384965  0.13385263  0.26753769  1
  Ta  Ta1  1  0.86615035  0.86614737  0.73246231  1
  Ta  Ta2  1  0.86614875  0.13385718  0.00000330  1
  Ta  Ta3  1  0.13385125  0.86614282  0.99999670  1
  Ti  Ti0  1  0.50008801  0.69276960  0.19264831  1
  Ti  Ti1  1  0.49991199  0.30723040  0.80735169  1
  Ti  Ti2  1  0.30722374  0.49990979  0.80734738  1
  Ti  Ti3  1  0.69277626  0.50009021  0.19265262  1
  Co  Co0  1  0.39943229  0.89938527  0.79869021  1
  Co  Co1  1  0.10060768  0.60055762  0.20131280  1
  Co  Co2  1  0.10064097  0.89935286  0.50000296  1
  Co  Co3  1  0.39934193  0.60065112  0.49999860  1
  Co  Co4  1  0.60065807  0.39934888  0.50000140  1
  Co  Co5  1  0.89935903  0.10064714  0.49999704  1
  Co  Co6  1  0.89939232  0.39944238  0.79868720  1
  Co  Co7  1  0.60056771  0.10061473  0.20130979  1
  Si  Si0  1  0.29262021  0.29262271  0.58547460  1
  Si  Si1  1  0.70737979  0.70737729  0.41452540  1
  Si  Si2  1  0.70728265  0.29273271  0.99999991  1
  Si  Si3  1  0.29271735  0.70726729  0.00000009  1
  Si  Si4  1  0.00003606  0.29897027  0.29900165  1
  Si  Si5  1  0.99996394  0.70102973  0.70099835  1
  Si  Si6  1  0.70102712  0.99996462  0.70099396  1
  Si  Si7  1  0.29897288  0.00003538  0.29900604  1
  Si  Si8  1  0.50001239  0.90515045  0.40518214  1
  Si  Si9  1  0.49998761  0.09484955  0.59481786  1
  Si  Si10  1  0.09484764  0.49998783  0.59481313  1
  Si  Si11  1  0.90515236  0.50001217  0.40518687  1
  Si  Si12  1  0.74792842  0.74792818  0.99995313  1
  Si  Si13  1  0.25207158  0.25207182  0.00004687  1
loop_
_geom_bond_atom_site_label_1
_geom_bond_atom_site_label_2
_geom_bond_distance
_geom_bond_site_symmetry_2
Co0 Si3 2.280816 1_556
Co0 Si2 2.281060 1_565
Co0 Si6 2.316322 1_555
Co0 Si5 2.317460 1_455
Co0 Si9 2.326649 1_565
Co0 Si10 2.326960 1_555
Co0 Co6 2.454690 1_455
Co0 Co6 2.454789 1_565
Co0 Ta2 2.967566 1_566
Co0 Ta3 2.968100 1_555
Co0 Ti2 2.968161 1_555
Co0 Ti1 2.968272 1_565
Co1 Si3 2.280804 1_555
Co1 Si2 2.281029 1_454
Co1 Si4 2.316282 1_555
Co1 Si7 2.317482 1_565
Co1 Si11 2.326631 1_455
Co1 Si8 2.326941 1_555
Co1 Co7 2.454690 1_455
Co1 Co7 2.454789 1_565
Co1 Ta2 2.967491 1_455
Co1 Ti0 2.968184 1_555
Co1 Ta3 2.968203 1_554
Co1 Ti3 2.968231 1_455
Co2 Si1 2.280526 1_455
Co2 Si0 2.280564 1_565
Co2 Si5 2.316169 1_455
Co2 Si7 2.316201 1_565
Co2 Si11 2.326545 1_455
Co2 Si9 2.326551 1_565
Co2 Co4 2.454703 1_455
Co2 Co4 2.454776 1_565
Co2 Ti3 2.968555 1_455
Co2 Ti1 2.968565 1_565
Co2 Ta1 2.968744 1_455
Co2 Ta0 2.968848 1_565
Co3 Si0 2.281152 1_555
Co3 Si1 2.281181 1_555
Co3 Si4 2.316413 1_555
Co3 Si6 2.316424 1_555
Co3 Si10 2.326194 1_555
Co3 Si8 2.326216 1_555
Co3 Co5 2.454703 1_455
Co3 Co5 2.454776 1_565
Co3 Ti2 2.968614 1_555
Co3 Ti0 2.968632 1_555
Co3 Ta0 2.968817 1_555
Co3 Ta1 2.968888 1_555
Co4 Si1 2.281152 1_555
Co4 Si0 2.281181 1_555
Co4 Si5 2.316413 1_555
Co4 Si7 2.316424 1_555
Co4 Si11 2.326194 1_555
Co4 Si9 2.326216 1_555
Co4 Ti3 2.968614 1_555
Co4 Ti1 2.968632 1_555
Co4 Ta1 2.968817 1_555
Co4 Ta0 2.968888 1_555
Co5 Si0 2.280526 1_655
Co5 Si1 2.280564 1_545
Co5 Si4 2.316169 1_655
Co5 Si6 2.316201 1_545
Co5 Si10 2.326545 1_655
Co5 Si8 2.326551 1_545
Co5 Ti2 2.968555 1_655
Co5 Ti0 2.968565 1_545
Co5 Ta0 2.968744 1_655
Co5 Ta1 2.968848 1_545
Co6 Si2 2.280804 1_555
Co6 Si3 2.281029 1_656
Co6 Si5 2.316282 1_555
Co6 Si6 2.317482 1_545
Co6 Si10 2.326631 1_655
Co6 Si9 2.326941 1_555
Co6 Ta3 2.967491 1_655
Co6 Ti1 2.968184 1_555
Co6 Ta2 2.968203 1_556
Co6 Ti2 2.968231 1_655
Co7 Si2 2.280816 1_554
Co7 Si3 2.281060 1_545
Co7 Si7 2.316322 1_555
Co7 Si4 2.317460 1_655
Co7 Si8 2.326649 1_545
Co7 Si11 2.326960 1_555
Co7 Ta3 2.967566 1_544
Co7 Ta2 2.968100 1_555
Co7 Ti3 2.968161 1_555
Co7 Ti0 2.968272 1_545
Si0 Ti2 2.583280 1_555
Si0 Ti1 2.583327 1_555
Si0 Ta1 2.773733 1_445
Si0 Ta1 2.774405 1_555
Si0 Ta0 2.794993 1_555
Si1 Ti3 2.583280 1_555
Si1 Ti0 2.583327 1_555
Si1 Ta0 2.773733 1_665
Si1 Ta0 2.774405 1_555
Si1 Ta1 2.794993 1_555
Si2 Ti3 2.583025 1_556
Si2 Ti1 2.583045 1_555
Si2 Ta3 2.773403 1_655
Si2 Ta3 2.773477 1_545
Si2 Ta2 2.793136 1_556
Si3 Ti2 2.583025 1_554
Si3 Ti0 2.583045 1_555
Si3 Ta2 2.773403 1_455
Si3 Ta2 2.773477 1_565
Si3 Ta3 2.793136 1_554
Si4 Ta0 2.642297 1_555
Si4 Ta2 2.642795 1_455
Si4 Ti0 2.787577 1_445
Si4 Ti0 2.788184 1_555
Si5 Ta1 2.642297 1_555
Si5 Ta3 2.642795 1_655
Si5 Ti1 2.787577 1_665
Si5 Ti1 2.788184 1_555
Si6 Ta1 2.642386 1_555
Si6 Ta2 2.642898 1_566
Si6 Ti2 2.787558 1_665
Si6 Ti2 2.788203 1_555
Si7 Ta0 2.642386 1_555
Si7 Ta3 2.642898 1_544
Si7 Ti3 2.787558 1_445
Si7 Ti3 2.788203 1_555
Si8 Si9 2.358108 1_565
Si8 Ti0 2.641749 1_555
Si9 Ti1 2.641749 1_555
Si10 Si11 2.358037 1_455
Si10 Ti2 2.641753 1_555
Si11 Ti3 2.641753 1_555
Si12 Si13 2.434628 1_556
Si12 Si13 2.474851 1_666
Si12 Ta1 2.656859 1_555
Si12 Ta0 2.658329 1_666
Si12 Ta3 2.658811 1_655
Si12 Ta2 2.658825 1_566
Si12 Ti0 2.686705 1_556
Si12 Ti3 2.686763 1_556
Si12 Ti1 2.686907 1_555
Si12 Ti2 2.686973 1_555
Si13 Ta0 2.656859 1_555
Si13 Ta1 2.658329 1_444
Si13 Ta2 2.658811 1_455
Si13 Ta3 2.658825 1_544
Si13 Ti1 2.686705 1_554
Si13 Ti2 2.686763 1_554
Si13 Ti0 2.686907 1_555
Si13 Ti3 2.686973 1_555
