# generated using pymatgen
data_BaTa6PbS12
_symmetry_space_group_name_H-M   'P 1'
_cell_length_a   5.81438009
_cell_length_b   5.81438029
_cell_length_c   15.44580777
_cell_angle_alpha   90.00000000
_cell_angle_beta   90.00000000
_cell_angle_gamma   119.99999321
_symmetry_Int_Tables_number   1
_chemical_formula_structural   BaTa6PbS12
_chemical_formula_sum   'Ba1 Ta6 Pb1 S12'
_cell_volume   452.21830651
_cell_formula_units_Z   1
loop_
 _symmetry_equiv_pos_site_id
 _symmetry_equiv_pos_as_xyz
  1  'x, y, z'
loop_
 _atom_site_type_symbol
 _atom_site_label
 _atom_site_symmetry_multiplicity
 _atom_site_fract_x
 _atom_site_fract_y
 _atom_site_fract_z
 _atom_site_occupancy
  Ba  Ba0  1  0.00000000  0.00000000  0.50000000  1
  Ta  Ta0  1  0.00000000  0.00000000  0.24230258  1
  Ta  Ta1  1  0.00000000  0.00000000  0.75769742  1
  Ta  Ta2  1  0.33333300  0.66666700  0.24116042  1
  Ta  Ta3  1  0.66666700  0.33333300  0.75883958  1
  Ta  Ta4  1  0.66666700  0.33333300  0.24116042  1
  Ta  Ta5  1  0.33333300  0.66666700  0.75883958  1
  Pb  Pb0  1  0.00000000  0.00000000  0.00000000  1
  S  S0  1  0.33527331  0.00000000  0.14177588  1
  S  S1  1  0.00000000  0.33527331  0.14177588  1
  S  S2  1  0.66472669  0.66472669  0.14177588  1
  S  S3  1  0.33725375  0.33725375  0.65820136  1
  S  S4  1  0.66274625  0.66274625  0.34179864  1
  S  S5  1  0.66274625  0.00000000  0.65820136  1
  S  S6  1  0.00000000  0.66274625  0.65820136  1
  S  S7  1  1.00000000  0.66472669  0.85822412  1
  S  S8  1  0.33527331  0.33527331  0.85822412  1
  S  S9  1  1.00000000  0.33725375  0.34179864  1
  S  S10  1  0.33725375  1.00000000  0.34179864  1
  S  S11  1  0.66472669  1.00000000  0.85822412  1
loop_
_geom_bond_atom_site_label_1
_geom_bond_atom_site_label_2
_geom_bond_distance
_geom_bond_site_symmetry_2
Ba0 S5 3.133072 1_455
Ba0 S10 3.133072 1_545
Ba0 S6 3.133072 1_545
Ba0 S9 3.133072 1_455
Ba0 S3 3.133072 1_555
Ba0 S4 3.133072 1_445
Pb0 S0 2.931825 1_555
Pb0 S11 2.931825 1_444
Pb0 S1 2.931825 1_555
Pb0 S7 2.931825 1_444
Pb0 S2 2.931825 1_445
Pb0 S8 2.931825 1_554
S0 Ta2 2.468004 1_545
S0 Ta4 2.468006 1_555
S0 Ta0 2.492210 1_555
S1 Ta4 2.468004 1_455
S1 Ta2 2.468006 1_555
S1 Ta0 2.492210 1_555
S2 Ta2 2.468008 1_555
S2 Ta4 2.468008 1_555
S2 Ta0 2.492211 1_665
S3 Ta3 2.475675 1_555
S3 Ta5 2.475675 1_555
S3 Ta1 2.491377 1_555
S4 Ta2 2.475675 1_555
S4 Ta4 2.475675 1_555
S4 Ta0 2.491377 1_665
S5 Ta3 2.475670 1_555
S5 Ta5 2.475673 1_545
S5 Ta1 2.491377 1_655
S6 Ta5 2.475670 1_555
S6 Ta3 2.475673 1_455
S6 Ta1 2.491377 1_565
S7 Ta5 2.468004 1_655
S7 Ta3 2.468006 1_555
S7 Ta1 2.492210 1_665
S8 Ta3 2.468008 1_555
S8 Ta5 2.468008 1_555
S8 Ta1 2.492211 1_555
S9 Ta4 2.475670 1_555
S9 Ta2 2.475673 1_655
S9 Ta0 2.491377 1_655
S10 Ta2 2.475670 1_555
S10 Ta4 2.475673 1_565
S10 Ta0 2.491377 1_565
S11 Ta3 2.468004 1_565
S11 Ta5 2.468006 1_555
S11 Ta1 2.492210 1_665
