# generated using pymatgen
data_Yb(SiRu)2
_symmetry_space_group_name_H-M   'P 1'
_cell_length_a   5.58152918
_cell_length_b   5.58152918
_cell_length_c   5.58152918
_cell_angle_alpha   135.55091028
_cell_angle_beta   135.55091028
_cell_angle_gamma   64.67540437
_symmetry_Int_Tables_number   1
_chemical_formula_structural   Yb(SiRu)2
_chemical_formula_sum   'Yb1 Si2 Ru2'
_cell_volume   84.07346775
_cell_formula_units_Z   1
loop_
 _symmetry_equiv_pos_site_id
 _symmetry_equiv_pos_as_xyz
  1  'x, y, z'
loop_
 _atom_site_type_symbol
 _atom_site_label
 _atom_site_symmetry_multiplicity
 _atom_site_fract_x
 _atom_site_fract_y
 _atom_site_fract_z
 _atom_site_occupancy
  Yb  Yb0  1  0.00000000  0.00000000  0.00000000  1
  Si  Si0  1  0.63435800  0.63435800  0.00000000  1
  Si  Si1  1  0.36564200  0.36564200  0.00000000  1
  Ru  Ru0  1  0.25000000  0.75000000  0.50000000  1
  Ru  Ru1  1  0.75000000  0.25000000  0.50000000  1
loop_
_geom_bond_atom_site_label_1
_geom_bond_atom_site_label_2
_geom_bond_distance
_geom_bond_site_symmetry_2
Si0 Yb0 3.243414 1_554
Si0 Yb0 3.243414 1_666
Si0 Yb0 3.243414 1_655
Si0 Yb0 3.243414 1_565
Si1 Yb0 3.243414 1_554
Si1 Yb0 3.243414 1_666
Si1 Yb0 3.243414 1_655
Si1 Yb0 3.243414 1_565
Ru0 Si0 2.376252 1_556
Ru0 Si1 2.376252 1_566
Ru0 Si0 2.376252 1_455
Ru0 Si1 2.376252 1_555
Ru0 Yb0 3.164938 1_666
Ru0 Yb0 3.164938 1_565
Ru0 Yb0 3.164938 1_555
Ru0 Yb0 3.164938 1_566
Ru1 Si0 2.376252 1_545
Ru1 Si1 2.376252 1_555
Ru1 Si0 2.376252 1_556
Ru1 Si1 2.376252 1_656
Ru1 Yb0 3.164938 1_666
Ru1 Yb0 3.164938 1_656
Ru1 Yb0 3.164938 1_555
Ru1 Yb0 3.164938 1_655
