# generated using pymatgen
data_TiV3InSe8
_symmetry_space_group_name_H-M   'P 1'
_cell_length_a   7.42437803
_cell_length_b   7.48257250
_cell_length_c   7.42480381
_cell_angle_alpha   60.25321389
_cell_angle_beta   59.99939612
_cell_angle_gamma   60.25522663
_symmetry_Int_Tables_number   1
_chemical_formula_structural   TiV3InSe8
_chemical_formula_sum   'Ti1 V3 In1 Se8'
_cell_volume   292.77712807
_cell_formula_units_Z   1
loop_
 _symmetry_equiv_pos_site_id
 _symmetry_equiv_pos_as_xyz
  1  'x, y, z'
loop_
 _atom_site_type_symbol
 _atom_site_label
 _atom_site_symmetry_multiplicity
 _atom_site_fract_x
 _atom_site_fract_y
 _atom_site_fract_z
 _atom_site_occupancy
  Ti  Ti0  1  0.51642074  0.95069755  0.51642310  1
  V  V0  1  0.51857046  0.51103866  0.51854786  1
  V  V1  1  0.51853168  0.51108070  0.95183967  1
  V  V2  1  0.95186628  0.51108646  0.51851666  1
  In  In0  1  0.12664935  0.12003935  0.12664530  1
  Se  Se0  1  0.74865327  0.75447511  0.74862427  1
  Se  Se1  1  0.26202663  0.27067758  0.70527695  1
  Se  Se2  1  0.26687995  0.69939919  0.26685069  1
  Se  Se3  1  0.70530114  0.27065466  0.26202278  1
  Se  Se4  1  0.75126062  0.24624544  0.75133207  1
  Se  Se5  1  0.24821154  0.75447413  0.74863589  1
  Se  Se6  1  0.26199272  0.27065382  0.26203464  1
  Se  Se7  1  0.74865063  0.75447336  0.24823412  1
loop_
_geom_bond_atom_site_label_1
_geom_bond_atom_site_label_2
_geom_bond_distance
_geom_bond_site_symmetry_2
In0 Se3 2.558866 1_455
In0 Se6 2.558969 1_555
In0 Se1 2.559082 1_554
In0 Se2 2.579733 1_545
Se0 Ti0 2.459599 1_555
Se0 V1 2.509021 1_555
Se0 V2 2.509065 1_555
Se1 V0 2.658691 1_555
Se1 V2 2.658748 1_455
Se1 Ti0 2.731650 1_545
Se2 V2 2.689597 1_455
Se2 V1 2.689780 1_554
Se2 V0 2.689947 1_555
Se3 V0 2.658879 1_555
Se3 V1 2.658959 1_554
Se3 Ti0 2.731498 1_545
Se4 V1 2.467054 1_555
Se4 V2 2.467426 1_555
Se4 V0 2.467540 1_555
Se5 Ti0 2.459551 1_555
Se5 V1 2.509087 1_555
Se5 V0 2.509239 1_555
Se6 V2 2.658793 1_455
Se6 V1 2.658985 1_554
Se6 Ti0 2.731413 1_545
Se7 Ti0 2.459595 1_555
Se7 V2 2.508954 1_555
Se7 V0 2.509031 1_555
