# generated using pymatgen
data_Pr2Mo15O28
_symmetry_space_group_name_H-M   'P 1'
_cell_length_a   8.23202500
_cell_length_b   8.28869753
_cell_length_c   9.41653310
_cell_angle_alpha   89.51376367
_cell_angle_beta   89.08838594
_cell_angle_gamma   80.29139174
_symmetry_Int_Tables_number   1
_chemical_formula_structural   Pr2Mo15O28
_chemical_formula_sum   'Pr2 Mo15 O28'
_cell_volume   633.22293205
_cell_formula_units_Z   1
loop_
 _symmetry_equiv_pos_site_id
 _symmetry_equiv_pos_as_xyz
  1  'x, y, z'
loop_
 _atom_site_type_symbol
 _atom_site_label
 _atom_site_symmetry_multiplicity
 _atom_site_fract_x
 _atom_site_fract_y
 _atom_site_fract_z
 _atom_site_occupancy
  Pr  Pr0  1  0.93897000  0.97695000  0.49701300  1
  Pr  Pr1  1  0.45883700  0.45188700  0.00287200  1
  Mo  Mo0  1  0.01500000  0.82334200  0.85388300  1
  Mo  Mo1  1  0.09589000  0.24485100  0.14873900  1
  Mo  Mo2  1  0.24351800  0.10517500  0.85194100  1
  Mo  Mo3  1  0.23487800  0.87332300  0.13190900  1
  Mo  Mo4  1  0.30980200  0.51291600  0.37474500  1
  Mo  Mo5  1  0.37290800  0.72257400  0.63209800  1
  Mo  Mo6  1  0.45675400  0.11810900  0.37397800  1
  Mo  Mo7  1  0.50743700  0.33807100  0.64535900  1
  Mo  Mo8  1  0.59734100  0.74162200  0.35876600  1
  Mo  Mo9  1  0.71592500  0.36584300  0.36299400  1
  Mo  Mo10  1  0.62210600  0.95483400  0.86418200  1
  Mo  Mo11  1  0.77532500  0.59136500  0.64668100  1
  Mo  Mo12  1  0.83046700  0.01004200  0.14150700  1
  Mo  Mo13  1  0.87205700  0.23988700  0.87687200  1
  Mo  Mo14  1  0.95641700  0.62277700  0.13275800  1
  O  O0  1  0.01430000  0.83851600  0.24543300  1
  O  O1  1  0.05669200  0.21348200  0.74047100  1
  O  O2  1  0.11929100  0.45785400  0.25616200  1
  O  O3  1  0.19397300  0.69342000  0.49596700  1
  O  O4  1  0.16388300  0.68930400  0.00762700  1
  O  O5  1  0.25835300  0.06067900  0.25319100  1
  O  O6  1  0.19217600  0.89905300  0.72426500  1
  O  O7  1  0.32159600  0.31654600  0.49701600  1
  O  O8  1  0.27573800  0.28039200  0.98891600  1
  O  O9  1  0.36794000  0.53456000  0.76273100  1
  O  O10  1  0.39995800  0.68232000  0.23212700  1
  O  O11  1  0.45565500  0.12855500  0.74979700  1
  O  O12  1  0.38766800  0.92103600  0.97126100  1
  O  O13  1  0.44217800  0.89029900  0.48479200  1
  O  O14  1  0.49027400  0.34243100  0.25036800  1
  O  O15  1  0.59271800  0.74933800  0.73524800  1
  O  O16  1  0.67865700  0.16501400  0.98788700  1
  O  O17  1  0.66154400  0.17411000  0.49724500  1
  O  O18  1  0.62655400  0.95038200  0.25106800  1
  O  O19  1  0.69550800  0.41284600  0.78365900  1
  O  O20  1  0.74547500  0.57681800  0.24343900  1
  O  O21  1  0.84364400  0.00410700  0.75469900  1
  O  O22  1  0.81598400  0.81197800  0.99635300  1
  O  O23  1  0.78530600  0.76808900  0.49492500  1
  O  O24  1  0.90253300  0.17837300  0.28902300  1
  O  O25  1  0.86278600  0.43280000  0.52235600  1
  O  O26  1  0.92252300  0.39937800  0.01785300  1
  O  O27  1  0.96062000  0.64629400  0.74589200  1
loop_
_geom_bond_atom_site_label_1
_geom_bond_atom_site_label_2
_geom_bond_distance
_geom_bond_site_symmetry_2
Mo0 O27 1.910344 1_455
Mo0 O6 2.061526 1_555
Mo0 O4 2.098163 1_556
Mo0 O21 2.100563 1_465
Mo0 O22 2.114876 1_455
Mo1 O2 2.080534 1_555
Mo1 O5 2.100998 1_555
Mo1 O26 2.146859 1_455
Mo1 O8 2.147635 1_554
Mo1 O24 2.190606 1_455
Mo2 O1 1.960285 1_555
Mo2 O8 2.003958 1_555
Mo2 O11 2.017386 1_555
Mo2 O12 2.098222 1_545
Mo2 O6 2.199446 1_545
Mo3 O5 1.972712 1_565
Mo3 O12 2.030730 1_554
Mo3 O4 2.095320 1_555
Mo3 O10 2.129213 1_555
Mo3 O0 2.152401 1_555
Mo4 O7 1.975545 1_555
Mo4 O3 1.990935 1_555
Mo4 O2 2.054385 1_555
Mo4 O10 2.147960 1_555
Mo4 O14 2.200085 1_555
Mo5 O9 1.982621 1_555
Mo5 O3 2.014132 1_555
Mo5 O6 2.086368 1_555
Mo5 O13 2.095575 1_555
Mo5 O15 2.112311 1_555
Mo6 O5 2.125619 1_555
Mo6 O18 2.132266 1_545
Mo6 O7 2.158630 1_555
Mo6 O13 2.169730 1_545
Mo6 O17 2.177194 1_555
Mo6 O14 2.239243 1_555
Mo7 O11 2.090944 1_555
Mo7 O7 2.118447 1_555
Mo7 O9 2.133561 1_555
Mo7 O17 2.189966 1_555
Mo7 O19 2.208748 1_555
Mo8 O20 1.988365 1_555
Mo8 O13 2.001046 1_555
Mo8 O18 2.045293 1_555
Mo8 O23 2.066072 1_555
Mo8 O10 2.155184 1_555
Mo9 O25 2.078383 1_555
Mo9 O24 2.106838 1_555
Mo9 O20 2.117996 1_555
Mo9 O17 2.124148 1_555
Mo9 O14 2.191054 1_555
Mo10 O11 2.113351 1_565
Mo10 O15 2.148774 1_555
Mo10 O21 2.177107 1_565
Mo10 O22 2.213398 1_555
Mo10 O16 2.221228 1_565
Mo10 O12 2.221558 1_555
Mo11 O25 1.815614 1_555
Mo11 O27 1.921863 1_555
Mo11 O15 1.996126 1_555
Mo11 O23 2.048375 1_555
Mo11 O19 2.133890 1_555
Mo12 O18 2.083954 1_545
Mo12 O24 2.136939 1_555
Mo12 O0 2.137053 1_645
Mo12 O22 2.164931 1_544
Mo12 O16 2.188349 1_554
Mo13 O1 1.959148 1_655
Mo13 O26 1.978677 1_556
Mo13 O19 2.062622 1_555
Mo13 O16 2.069281 1_555
Mo13 O21 2.323457 1_555
Mo14 O20 2.098929 1_555
Mo14 O2 2.102654 1_655
Mo14 O22 2.201643 1_554
Mo14 O4 2.202687 1_655
Mo14 O0 2.210452 1_655
Mo14 O26 2.212509 1_555
O0 Pr0 2.659470 1_455
O1 Pr0 3.290340 1_445
O3 Pr0 2.874978 1_455
O4 Pr1 2.855968 1_555
O6 Pr0 3.000908 1_455
O8 Pr1 2.245402 1_556
O9 Pr1 2.448986 1_556
O10 Pr1 2.875379 1_555
O14 Pr1 2.495129 1_555
O16 Pr1 2.737650 1_556
O17 Pr0 2.574373 1_545
O19 Pr1 2.798620 1_556
O21 Pr0 2.538407 1_545
O23 Pr0 2.310302 1_555
O24 Pr0 2.550982 1_545
