# generated using pymatgen
data_Co2TcO4
_symmetry_space_group_name_H-M   'P 1'
_cell_length_a   6.12852882
_cell_length_b   6.12152875
_cell_length_c   6.17475506
_cell_angle_alpha   59.71126823
_cell_angle_beta   59.73495382
_cell_angle_gamma   56.02642114
_symmetry_Int_Tables_number   1
_chemical_formula_structural   Co2TcO4
_chemical_formula_sum   'Co4 Tc2 O8'
_cell_volume   157.69911137
_cell_formula_units_Z   2
loop_
 _symmetry_equiv_pos_site_id
 _symmetry_equiv_pos_as_xyz
  1  'x, y, z'
loop_
 _atom_site_type_symbol
 _atom_site_label
 _atom_site_symmetry_multiplicity
 _atom_site_fract_x
 _atom_site_fract_y
 _atom_site_fract_z
 _atom_site_occupancy
  Co  Co0  1  0.00928800  0.00863300  0.99105100  1
  Co  Co1  1  0.24071200  0.24136700  0.25894900  1
  Co  Co2  1  0.62499900  0.62499900  0.12500100  1
  Co  Co3  1  0.62499900  0.62500000  0.62500000  1
  Tc  Tc0  1  0.12499600  0.62500300  0.62500200  1
  Tc  Tc1  1  0.62500700  0.12499500  0.62499800  1
  O  O0  1  0.37619200  0.37711200  0.38221100  1
  O  O1  1  0.36540000  0.83699700  0.39885800  1
  O  O2  1  0.37599300  0.37721800  0.86446600  1
  O  O3  1  0.83727500  0.36554400  0.39871600  1
  O  O4  1  0.41272500  0.88445700  0.85128200  1
  O  O5  1  0.87400700  0.87278400  0.38553000  1
  O  O6  1  0.88459800  0.41300600  0.85114200  1
  O  O7  1  0.87380800  0.87288500  0.86779400  1
loop_
_geom_bond_atom_site_label_1
_geom_bond_atom_site_label_2
_geom_bond_distance
_geom_bond_site_symmetry_2
Co0 O4 1.961154 1_545
Co0 O6 1.962655 1_455
Co0 O5 2.000937 1_446
Co0 O7 2.001305 1_445
Co1 O3 1.961153 1_455
Co1 O1 1.962641 1_545
Co1 O2 2.000957 1_554
Co1 O0 2.001314 1_555
Co2 O6 2.066161 1_554
Co2 O1 2.066170 1_555
Co2 O3 2.066605 1_555
Co2 O4 2.066616 1_554
Co2 O0 2.205444 1_555
Co2 O7 2.205448 1_554
Co3 O4 2.065023 1_555
Co3 O3 2.065026 1_555
Co3 O1 2.066170 1_555
Co3 O6 2.066173 1_555
Co3 O2 2.205892 1_555
Co3 O5 2.205909 1_555
O0 Tc0 2.068265 1_555
O0 Tc1 2.072393 1_555
O1 Tc0 2.009930 1_555
O2 Tc0 2.067834 1_555
O2 Tc1 2.072239 1_555
O3 Tc1 2.011526 1_555
O4 Tc1 2.011537 1_565
O5 Tc0 2.067836 1_655
O5 Tc1 2.072192 1_565
O6 Tc0 2.009916 1_655
O7 Tc0 2.068233 1_655
O7 Tc1 2.072376 1_565
