# generated using pymatgen
data_K16TiSnSb8
_symmetry_space_group_name_H-M   'P 1'
_cell_length_a   11.50757885
_cell_length_b   11.50757841
_cell_length_c   11.50757894
_cell_angle_alpha   59.99999846
_cell_angle_beta   59.99999972
_cell_angle_gamma   60.00000180
_symmetry_Int_Tables_number   1
_chemical_formula_structural   K16TiSnSb8
_chemical_formula_sum   'K16 Ti1 Sn1 Sb8'
_cell_volume   1077.54859934
_cell_formula_units_Z   1
loop_
 _symmetry_equiv_pos_site_id
 _symmetry_equiv_pos_as_xyz
  1  'x, y, z'
loop_
 _atom_site_type_symbol
 _atom_site_label
 _atom_site_symmetry_multiplicity
 _atom_site_fract_x
 _atom_site_fract_y
 _atom_site_fract_z
 _atom_site_occupancy
  K  K0  1  0.62403620  0.12789041  0.62403620  1
  K  K1  1  0.62403620  0.62403620  0.12789041  1
  K  K2  1  0.12789041  0.62403620  0.62403620  1
  K  K3  1  0.62403620  0.62403620  0.62403620  1
  K  K4  1  0.02191061  0.02191061  0.47808939  1
  K  K5  1  0.77773921  0.22226079  0.22226079  1
  K  K6  1  0.22226079  0.77773921  0.77773921  1
  K  K7  1  0.77773921  0.77773921  0.22226079  1
  K  K8  1  0.77773921  0.22226079  0.77773921  1
  K  K9  1  0.22226079  0.77773921  0.22226079  1
  K  K10  1  0.47808939  0.02191061  0.47808939  1
  K  K11  1  0.47808939  0.02191061  0.02191061  1
  K  K12  1  0.02191061  0.47808939  0.47808939  1
  K  K13  1  0.02191061  0.47808939  0.02191061  1
  K  K14  1  0.22226079  0.22226079  0.77773921  1
  K  K15  1  0.47808939  0.47808939  0.02191061  1
  Ti  Ti0  1  0.75000000  0.75000000  0.75000000  1
  Sn  Sn0  1  0.50000000  0.50000000  0.50000000  1
  Sb  Sb0  1  0.39647866  0.81056301  0.39647866  1
  Sb  Sb1  1  0.84817114  0.84817114  0.45548659  1
  Sb  Sb2  1  0.45548659  0.84817114  0.84817114  1
  Sb  Sb3  1  0.84817114  0.84817114  0.84817114  1
  Sb  Sb4  1  0.81056301  0.39647866  0.39647866  1
  Sb  Sb5  1  0.39647866  0.39647866  0.39647866  1
  Sb  Sb6  1  0.39647866  0.39647866  0.81056301  1
  Sb  Sb7  1  0.84817114  0.45548659  0.84817114  1
loop_
_geom_bond_atom_site_label_1
_geom_bond_atom_site_label_2
_geom_bond_distance
_geom_bond_site_symmetry_2
K0 Sn0 3.496304 1_555
K0 Ti0 3.550620 1_545
K0 Sb2 3.703263 1_545
K0 Sb1 3.703263 1_545
K0 Sb3 3.703270 1_545
K0 Sb4 3.733289 1_555
K0 Sb6 3.733290 1_555
K0 Sb5 3.733290 1_555
K1 Sn0 3.496304 1_555
K1 Ti0 3.550620 1_554
K1 Sb2 3.703263 1_554
K1 Sb7 3.703263 1_554
K1 Sb3 3.703270 1_554
K1 Sb5 3.733289 1_555
K1 Sb4 3.733290 1_555
K1 Sb0 3.733290 1_555
K2 Sn0 3.496304 1_555
K2 Ti0 3.550620 1_455
K2 Sb7 3.703263 1_455
K2 Sb1 3.703263 1_455
K2 Sb3 3.703270 1_455
K2 Sb0 3.733289 1_555
K2 Sb5 3.733290 1_555
K2 Sb6 3.733290 1_555
K3 Sn0 3.496295 1_555
K3 Ti0 3.550629 1_555
K3 Sb1 3.703272 1_555
K3 Sb2 3.703272 1_555
K3 Sb7 3.703272 1_555
K3 Sb6 3.733289 1_555
K3 Sb4 3.733290 1_555
K3 Sb0 3.733290 1_555
K4 Sb3 3.619332 1_445
K4 Sb1 3.619332 1_445
K4 Sb4 3.623421 1_455
K4 Sb0 3.623421 1_545
K5 Sb1 3.677555 1_545
K5 Sb7 3.677555 1_554
K5 Sb4 3.703403 1_555
K5 Sb5 3.703410 1_555
K6 Sb2 3.677555 1_555
K6 Sb3 3.677555 1_455
K6 Sb6 3.703412 1_555
K6 Sb0 3.703413 1_555
K7 Sb1 3.677555 1_555
K7 Sb3 3.677555 1_554
K7 Sb4 3.703412 1_555
K7 Sb0 3.703413 1_555
K8 Sb3 3.677555 1_545
K8 Sb7 3.677555 1_555
K8 Sb4 3.703412 1_555
K8 Sb6 3.703413 1_555
K9 Sb2 3.677555 1_554
K9 Sb1 3.677555 1_455
K9 Sb0 3.703403 1_555
K9 Sb5 3.703410 1_555
K10 Sb2 3.619332 1_545
K10 Sb1 3.619332 1_545
K10 Sb5 3.623419 1_555
K10 Sb0 3.623429 1_545
K11 Sb2 3.619332 1_544
K11 Sb3 3.619332 1_544
K11 Sb6 3.623421 1_554
K11 Sb0 3.623421 1_545
K12 Sb1 3.619332 1_455
K12 Sb7 3.619332 1_455
K12 Sb5 3.623419 1_555
K12 Sb4 3.623429 1_455
K13 Sb3 3.619332 1_454
K13 Sb7 3.619332 1_454
K13 Sb4 3.623421 1_455
K13 Sb6 3.623421 1_554
K14 Sb2 3.677555 1_545
K14 Sb7 3.677555 1_455
K14 Sb6 3.703402 1_555
K14 Sb5 3.703410 1_555
K15 Sb2 3.619332 1_554
K15 Sb7 3.619332 1_554
K15 Sb5 3.623419 1_555
K15 Sb6 3.623429 1_554
Sb0 Sn0 2.918018 1_555
Sb1 Ti0 2.767218 1_555
Sb2 Ti0 2.767218 1_555
Sb3 Ti0 2.767218 1_555
Sb4 Sn0 2.918019 1_555
Sb5 Sn0 2.918028 1_555
Sb6 Sn0 2.918019 1_555
Sb7 Ti0 2.767218 1_555
