# generated using pymatgen
data_Zr6Al16Ir5Pt2
_symmetry_space_group_name_H-M   'P 1'
_cell_length_a   8.68998508
_cell_length_b   8.69004082
_cell_length_c   8.74408469
_cell_angle_alpha   59.79384140
_cell_angle_beta   59.79378969
_cell_angle_gamma   60.27231694
_symmetry_Int_Tables_number   1
_chemical_formula_structural   Zr6Al16Ir5Pt2
_chemical_formula_sum   'Zr6 Al16 Ir5 Pt2'
_cell_volume   466.40141860
_cell_formula_units_Z   1
loop_
 _symmetry_equiv_pos_site_id
 _symmetry_equiv_pos_as_xyz
  1  'x, y, z'
loop_
 _atom_site_type_symbol
 _atom_site_label
 _atom_site_symmetry_multiplicity
 _atom_site_fract_x
 _atom_site_fract_y
 _atom_site_fract_z
 _atom_site_occupancy
  Zr  Zr0  1  0.67386963  0.67389355  0.32610833  1
  Zr  Zr1  1  0.30701720  0.69300642  0.30613321  1
  Zr  Zr2  1  0.69299384  0.30700515  0.30614698  1
  Zr  Zr3  1  0.32613037  0.32610645  0.67389167  1
  Zr  Zr4  1  0.69298280  0.30699358  0.69386679  1
  Zr  Zr5  1  0.30700616  0.69299485  0.69385302  1
  Al  Al0  1  0.87598112  0.87598283  0.36205314  1
  Al  Al1  1  0.87913346  0.36361754  0.87862601  1
  Al  Al2  1  0.36362356  0.87913218  0.87862333  1
  Al  Al3  1  0.87597835  0.87597966  0.88598463  1
  Al  Al4  1  0.12401888  0.12401717  0.63794686  1
  Al  Al5  1  0.12086654  0.63638246  0.12137399  1
  Al  Al6  1  0.63637644  0.12086782  0.12137667  1
  Al  Al7  1  0.12402165  0.12402034  0.11401537  1
  Al  Al8  1  0.66270457  0.66270113  0.00966583  1
  Al  Al9  1  0.66239133  0.00976850  0.66391599  1
  Al  Al10  1  0.00977561  0.66239127  0.66391759  1
  Al  Al11  1  0.66270249  0.66270418  0.66492150  1
  Al  Al12  1  0.33729543  0.33729887  0.99033417  1
  Al  Al13  1  0.33760867  0.99023150  0.33608401  1
  Al  Al14  1  0.99022439  0.33760873  0.33608241  1
  Al  Al15  1  0.33729751  0.33729582  0.33507850  1
  Ir  Ir0  1  0.50000000  0.00000000  0.50000000  1
  Ir  Ir1  1  0.00000000  0.50000000  0.50000000  1
  Ir  Ir2  1  0.50000000  0.50000000  0.00000000  1
  Ir  Ir3  1  0.00000000  0.50000000  0.00000000  1
  Ir  Ir4  1  0.50000000  0.00000000  0.00000000  1
  Pt  Pt0  1  0.00000000  0.00000000  0.00000000  1
  Pt  Pt1  1  0.00000000  0.00000000  0.50000000  1
loop_
_geom_bond_atom_site_label_1
_geom_bond_atom_site_label_2
_geom_bond_distance
_geom_bond_site_symmetry_2
Zr0 Zr1 3.197974 1_555
Zr0 Zr5 3.198149 1_555
Zr0 Zr2 3.198197 1_555
Zr0 Zr4 3.198379 1_555
Zr1 Zr3 3.198379 1_555
Zr2 Zr3 3.198149 1_555
Zr3 Zr4 3.197974 1_555
Zr3 Zr5 3.198197 1_555
Al0 Pt0 2.575087 1_665
Al0 Ir0 2.672414 1_565
Al0 Ir1 2.672444 1_655
Al0 Pt1 2.746987 1_665
Al0 Zr2 3.135261 1_565
Al0 Zr1 3.135321 1_655
Al0 Zr0 3.230716 1_555
Al1 Pt0 2.582617 1_656
Al1 Ir3 2.693706 1_656
Al1 Ir1 2.693720 1_655
Al1 Ir2 2.694531 1_556
Al1 Zr2 3.112457 1_556
Al1 Zr4 3.112540 1_555
Al1 Zr3 3.276260 1_655
Al2 Pt0 2.582642 1_566
Al2 Ir4 2.693690 1_566
Al2 Ir0 2.693700 1_565
Al2 Ir2 2.694539 1_556
Al2 Zr1 3.112386 1_556
Al2 Zr5 3.112491 1_555
Al2 Zr3 3.276147 1_565
Al3 Pt0 2.575125 1_666
Al3 Ir4 2.672394 1_566
Al3 Ir3 2.672422 1_656
Al3 Pt1 2.746990 1_665
Al3 Zr4 3.135203 1_565
Al3 Zr5 3.135273 1_655
Al3 Zr0 3.230572 1_556
Al4 Pt0 2.575087 1_556
Al4 Ir0 2.672414 1_555
Al4 Ir1 2.672444 1_555
Al4 Pt1 2.746987 1_555
Al4 Zr5 3.135261 1_545
Al4 Zr4 3.135321 1_455
Al4 Zr3 3.230716 1_555
Al5 Pt0 2.582617 1_565
Al5 Ir3 2.693706 1_555
Al5 Ir1 2.693720 1_555
Al5 Ir2 2.694531 1_555
Al5 Zr5 3.112457 1_554
Al5 Zr1 3.112540 1_555
Al5 Zr0 3.276260 1_455
Al6 Pt0 2.582642 1_655
Al6 Ir4 2.693690 1_555
Al6 Ir0 2.693700 1_555
Al6 Ir2 2.694539 1_555
Al6 Zr4 3.112386 1_554
Al6 Zr2 3.112491 1_555
Al6 Zr0 3.276147 1_545
Al7 Pt0 2.575125 1_555
Al7 Ir4 2.672394 1_555
Al7 Ir3 2.672422 1_555
Al7 Pt1 2.746990 1_555
Al7 Zr1 3.135203 1_545
Al7 Zr2 3.135273 1_455
Al7 Zr3 3.230572 1_554
Al8 Ir2 2.495678 1_555
Al8 Ir3 2.521591 1_655
Al8 Ir4 2.521633 1_565
Al8 Zr1 2.856641 1_555
Al8 Zr2 2.856746 1_555
Al8 Zr0 2.868006 1_555
Al9 Pt1 2.512575 1_655
Al9 Ir0 2.515836 1_555
Al9 Ir4 2.515895 1_556
Al9 Zr3 2.849812 1_555
Al9 Zr4 2.870941 1_555
Al9 Zr2 2.870979 1_555
Al10 Pt1 2.512577 1_565
Al10 Ir3 2.515867 1_556
Al10 Ir1 2.515891 1_555
Al10 Zr3 2.849993 1_555
Al10 Zr5 2.870955 1_555
Al10 Zr1 2.871065 1_555
Al11 Ir2 2.495709 1_556
Al11 Ir0 2.521591 1_565
Al11 Ir1 2.521593 1_655
Al11 Zr5 2.856710 1_555
Al11 Zr4 2.856840 1_555
Al11 Zr0 2.868125 1_555
Al12 Ir2 2.495678 1_556
Al12 Ir3 2.521591 1_556
Al12 Ir4 2.521633 1_556
Al12 Zr4 2.856641 1_555
Al12 Zr5 2.856746 1_555
Al12 Zr3 2.868006 1_555
Al13 Pt1 2.512575 1_565
Al13 Ir0 2.515836 1_565
Al13 Ir4 2.515895 1_565
Al13 Zr0 2.849812 1_555
Al13 Zr1 2.870941 1_555
Al13 Zr5 2.870979 1_555
Al14 Pt1 2.512577 1_655
Al14 Ir3 2.515867 1_655
Al14 Ir1 2.515891 1_655
Al14 Zr0 2.849993 1_555
Al14 Zr2 2.870955 1_555
Al14 Zr4 2.871065 1_555
Al15 Ir2 2.495709 1_555
Al15 Ir0 2.521591 1_555
Al15 Ir1 2.521593 1_555
Al15 Zr2 2.856710 1_555
Al15 Zr1 2.856840 1_555
Al15 Zr3 2.868125 1_555
Ir0 Zr2 3.135303 1_555
Ir0 Zr5 3.135303 1_545
Ir0 Zr3 3.225426 1_555
Ir0 Zr0 3.225426 1_545
Ir1 Zr1 3.135440 1_555
Ir1 Zr4 3.135440 1_455
Ir1 Zr3 3.225551 1_555
Ir1 Zr0 3.225551 1_455
Ir2 Zr1 3.162604 1_555
Ir2 Zr4 3.162604 1_554
Ir2 Zr2 3.162606 1_555
Ir2 Zr5 3.162606 1_554
Ir3 Zr5 3.135305 1_554
Ir3 Zr2 3.135305 1_455
Ir3 Zr0 3.225435 1_455
Ir3 Zr3 3.225435 1_554
Ir4 Zr4 3.135163 1_554
Ir4 Zr1 3.135163 1_545
Ir4 Zr0 3.225296 1_545
Ir4 Zr3 3.225296 1_554
Pt1 Zr5 3.170098 1_545
Pt1 Zr2 3.170098 1_455
Pt1 Zr4 3.170110 1_455
Pt1 Zr1 3.170110 1_545
