# generated using pymatgen
data_Sc5Si7Ni16Ru
_symmetry_space_group_name_H-M   'P 1'
_cell_length_a   7.98081484
_cell_length_b   7.98081489
_cell_length_c   7.93705133
_cell_angle_alpha   60.18123070
_cell_angle_beta   60.18123049
_cell_angle_gamma   59.63753013
_symmetry_Int_Tables_number   1
_chemical_formula_structural   Sc5Si7Ni16Ru
_chemical_formula_sum   'Sc5 Si7 Ni16 Ru1'
_cell_volume   357.44782446
_cell_formula_units_Z   1
loop_
 _symmetry_equiv_pos_site_id
 _symmetry_equiv_pos_as_xyz
  1  'x, y, z'
loop_
 _atom_site_type_symbol
 _atom_site_label
 _atom_site_symmetry_multiplicity
 _atom_site_fract_x
 _atom_site_fract_y
 _atom_site_fract_z
 _atom_site_occupancy
  Sc  Sc0  1  0.30093354  0.70751061  0.29248939  1
  Sc  Sc1  1  0.70751061  0.30093354  0.29248939  1
  Sc  Sc2  1  0.28370616  0.28370616  0.71629384  1
  Sc  Sc3  1  0.70751061  0.30093354  0.69906646  1
  Sc  Sc4  1  0.30093354  0.70751061  0.69906646  1
  Si  Si0  1  0.00448145  0.00448145  0.99551855  1
  Si  Si1  1  0.99742887  0.99742887  0.50257113  1
  Si  Si2  1  0.51040973  0.99141914  0.48959027  1
  Si  Si3  1  0.99141914  0.51040973  0.48959027  1
  Si  Si4  1  0.49742887  0.49742887  0.00257113  1
  Si  Si5  1  0.99141914  0.51040973  0.00858086  1
  Si  Si6  1  0.51040973  0.99141914  0.00858086  1
  Ni  Ni0  1  0.88075943  0.88075943  0.35194797  1
  Ni  Ni1  1  0.88009582  0.35759980  0.88115119  1
  Ni  Ni2  1  0.35759980  0.88009582  0.88115119  1
  Ni  Ni3  1  0.88075943  0.88075943  0.88653117  1
  Ni  Ni4  1  0.11884881  0.11884881  0.64240020  1
  Ni  Ni5  1  0.11346883  0.64805203  0.11924057  1
  Ni  Ni6  1  0.64805203  0.11346883  0.11924057  1
  Ni  Ni7  1  0.11884881  0.11884881  0.11990418  1
  Ni  Ni8  1  0.66855376  0.66855376  0.98923033  1
  Ni  Ni9  1  0.66679694  0.99485482  0.66917312  1
  Ni  Ni10  1  0.99485482  0.66679694  0.66917312  1
  Ni  Ni11  1  0.66855376  0.66855376  0.67366315  1
  Ni  Ni12  1  0.33082688  0.33082688  0.00514518  1
  Ni  Ni13  1  0.32633685  0.01076967  0.33144624  1
  Ni  Ni14  1  0.01076967  0.32633685  0.33144624  1
  Ni  Ni15  1  0.33082688  0.33082688  0.33320306  1
  Ru  Ru0  1  0.70045710  0.70045710  0.29954290  1
loop_
_geom_bond_atom_site_label_1
_geom_bond_atom_site_label_2
_geom_bond_distance
_geom_bond_site_symmetry_2
Sc0 Si6 2.830493 1_555
Sc0 Si1 2.855775 1_455
Sc0 Si4 2.855775 1_555
Sc0 Si3 2.942989 1_455
Sc1 Si5 2.830493 1_555
Sc1 Si1 2.855775 1_545
Sc1 Si4 2.855775 1_555
Sc1 Si2 2.942989 1_545
Sc2 Si5 2.936427 1_456
Sc2 Si3 2.936427 1_455
Sc2 Si6 2.936427 1_546
Sc2 Si2 2.936427 1_545
Sc3 Si3 2.830493 1_555
Sc3 Si1 2.855775 1_545
Sc3 Si4 2.855775 1_556
Sc3 Si6 2.942989 1_546
Sc4 Si2 2.830493 1_555
Sc4 Si1 2.855775 1_455
Sc4 Si4 2.855775 1_556
Sc4 Si5 2.942989 1_456
Ni0 Si0 2.320065 1_664
Ni0 Si2 2.412243 1_555
Ni0 Si3 2.412243 1_555
Ni0 Si1 2.500750 1_555
Ni0 Ni9 2.552812 1_555
Ni0 Ni10 2.552812 1_555
Ni0 Ni11 2.560196 1_555
Ni0 Ni5 2.612067 1_655
Ni0 Ni6 2.612067 1_565
Ni0 Ni7 2.702296 1_665
Ni0 Ru0 2.756438 1_555
Ni0 Sc0 2.786962 1_655
Ni0 Sc1 2.786962 1_565
Ni1 Si0 2.296818 1_655
Ni1 Ni11 2.487178 1_555
Ni1 Ni8 2.487190 1_555
Ni1 Si4 2.489600 1_556
Ni1 Ni10 2.526284 1_555
Ni1 Si3 2.552502 1_555
Ni1 Si5 2.552515 1_556
Ni1 Sc2 2.662892 1_655
Ni1 Ni4 2.679905 1_655
Ni1 Ni7 2.679927 1_656
Ni1 Ni6 2.702273 1_556
Ni1 Sc3 2.729419 1_555
Ni1 Sc1 2.729433 1_556
Ni2 Si0 2.296818 1_565
Ni2 Ni8 2.487190 1_555
Ni2 Si4 2.489600 1_556
Ni2 Ni9 2.526284 1_555
Ni2 Si2 2.552502 1_555
Ni2 Si6 2.552515 1_556
Ni2 Sc2 2.662892 1_565
Ni2 Ni4 2.679905 1_565
Ni2 Ni7 2.679927 1_566
Ni2 Ni5 2.702273 1_556
Ni2 Sc4 2.729419 1_555
Ni2 Sc0 2.729433 1_556
Ni3 Si0 2.320078 1_665
Ni3 Si6 2.412243 1_556
Ni3 Si5 2.412243 1_556
Ni3 Si1 2.500736 1_555
Ni3 Ni9 2.552812 1_555
Ni3 Ni8 2.560188 1_555
Ni3 Ni5 2.612090 1_656
Ni3 Ni6 2.612090 1_566
Ni3 Ni4 2.702295 1_665
Ni3 Ru0 2.756449 1_556
Ni3 Sc4 2.786959 1_655
Ni3 Sc3 2.786959 1_565
Ni4 Si0 2.296818 1_555
Ni4 Si1 2.489613 1_445
Ni4 Si2 2.552502 1_545
Ni4 Si3 2.552503 1_455
Ni4 Sc2 2.662879 1_555
Ni4 Sc3 2.729432 1_455
Ni4 Sc4 2.729432 1_545
Ni5 Si0 2.320064 1_564
Ni5 Si3 2.412244 1_455
Ni5 Si5 2.412256 1_455
Ni5 Si4 2.500737 1_555
Ni5 Ru0 2.756452 1_455
Ni5 Sc0 2.786948 1_555
Ni5 Sc4 2.786962 1_554
Ni6 Si0 2.320064 1_654
Ni6 Si2 2.412244 1_545
Ni6 Si6 2.412256 1_545
Ni6 Si4 2.500737 1_555
Ni6 Ru0 2.756452 1_545
Ni6 Sc1 2.786948 1_555
Ni6 Sc3 2.786962 1_554
Ni7 Si0 2.296831 1_554
Ni7 Si1 2.489600 1_445
Ni7 Si6 2.552501 1_545
Ni7 Si5 2.552501 1_455
Ni7 Sc2 2.662890 1_554
Ni7 Sc1 2.729430 1_455
Ni7 Sc0 2.729430 1_545
Ni8 Si5 2.273578 1_556
Ni8 Si6 2.273578 1_556
Ni8 Si4 2.310739 1_556
Ni8 Ni9 2.579613 1_555
Ni8 Sc0 2.701296 1_556
Ni8 Sc1 2.701296 1_556
Ni8 Ru0 2.740208 1_556
Ni9 Si1 2.295528 1_555
Ni9 Si2 2.330845 1_555
Ni9 Si6 2.330859 1_556
Ni9 Sc2 2.719703 1_565
Ni9 Sc1 2.753972 1_565
Ni9 Sc3 2.753982 1_565
Ni10 Si1 2.295528 1_555
Ni10 Si3 2.330845 1_555
Ni10 Si5 2.330859 1_556
Ni10 Ni3 2.552812 1_555
Ni10 Ni11 2.579601 1_555
Ni10 Ni8 2.579613 1_555
Ni10 Ni9 2.603812 1_555
Ni10 Sc2 2.719703 1_655
Ni10 Sc0 2.753972 1_655
Ni10 Sc4 2.753982 1_655
Ni11 Si3 2.273580 1_555
Ni11 Si2 2.273580 1_555
Ni11 Si4 2.310735 1_556
Ni11 Ni2 2.487178 1_555
Ni11 Ni8 2.504673 1_555
Ni11 Ni9 2.579601 1_555
Ni11 Sc4 2.701299 1_555
Ni11 Sc3 2.701299 1_555
Ni11 Ru0 2.740215 1_555
Ni12 Si4 2.295515 1_555
Ni12 Si5 2.330859 1_455
Ni12 Si6 2.330859 1_545
Ni12 Ni7 2.526284 1_555
Ni12 Ni6 2.552811 1_555
Ni12 Ni5 2.552811 1_555
Ni12 Ni14 2.579613 1_555
Ni12 Ni13 2.579613 1_555
Ni12 Ni15 2.603812 1_555
Ni12 Sc2 2.719713 1_554
Ni12 Sc3 2.753972 1_554
Ni12 Sc4 2.753972 1_554
Ni13 Si6 2.273578 1_545
Ni13 Si2 2.273585 1_545
Ni13 Si1 2.310732 1_445
Ni13 Ni7 2.487170 1_555
Ni13 Ni4 2.487190 1_555
Ni13 Ni14 2.504673 1_555
Ni13 Ni6 2.560208 1_555
Ni13 Ni15 2.579625 1_555
Ni13 Sc0 2.701292 1_545
Ni13 Sc4 2.701296 1_545
Ni13 Ru0 2.740212 1_545
Ni14 Si5 2.273578 1_455
Ni14 Si3 2.273585 1_455
Ni14 Si1 2.310732 1_445
Ni14 Ni7 2.487170 1_555
Ni14 Ni4 2.487190 1_555
Ni14 Ni5 2.560208 1_555
Ni14 Ni15 2.579625 1_555
Ni14 Sc1 2.701292 1_455
Ni14 Sc3 2.701296 1_455
Ni14 Ru0 2.740212 1_455
Ni15 Si4 2.295524 1_555
Ni15 Si3 2.330855 1_455
Ni15 Si2 2.330855 1_545
Ni15 Ni4 2.526284 1_555
Ni15 Ni6 2.552811 1_555
Ni15 Ni5 2.552811 1_555
Ni15 Sc2 2.719698 1_555
Ni15 Sc1 2.753966 1_555
Ni15 Sc0 2.753966 1_555
Ru0 Si3 2.759647 1_555
Ru0 Si5 2.759647 1_555
Ru0 Si2 2.759647 1_555
Ru0 Si6 2.759647 1_555
Ru0 Sc4 3.188405 1_555
Ru0 Sc0 3.188405 1_555
Ru0 Sc3 3.188405 1_555
Ru0 Sc1 3.188405 1_555
