# generated using pymatgen
data_K2Rb3As2Au
_symmetry_space_group_name_H-M   'P 1'
_cell_length_a   5.84625522
_cell_length_b   5.84625476
_cell_length_c   19.89395581
_cell_angle_alpha   90.00000000
_cell_angle_beta   90.00000000
_cell_angle_gamma   120.00000806
_symmetry_Int_Tables_number   1
_chemical_formula_structural   K2Rb3As2Au
_chemical_formula_sum   'K4 Rb6 As4 Au2'
_cell_volume   588.85348881
_cell_formula_units_Z   2
loop_
 _symmetry_equiv_pos_site_id
 _symmetry_equiv_pos_as_xyz
  1  'x, y, z'
loop_
 _atom_site_type_symbol
 _atom_site_label
 _atom_site_symmetry_multiplicity
 _atom_site_fract_x
 _atom_site_fract_y
 _atom_site_fract_z
 _atom_site_occupancy
  K  K0  1  0.00000000  0.00000000  0.14938473  1
  K  K1  1  0.00000000  0.00000000  0.64938473  1
  K  K2  1  0.00000000  0.00000000  0.85061527  1
  K  K3  1  0.00000000  0.00000000  0.35061527  1
  Rb  Rb0  1  0.33333300  0.66666700  0.54915429  1
  Rb  Rb1  1  0.66666700  0.33333300  0.04915429  1
  Rb  Rb2  1  0.66666700  0.33333300  0.45084571  1
  Rb  Rb3  1  0.33333300  0.66666700  0.95084571  1
  Rb  Rb4  1  0.33333300  0.66666700  0.75000000  1
  Rb  Rb5  1  0.66666700  0.33333300  0.25000000  1
  As  As0  1  0.33333300  0.66666700  0.12473985  1
  As  As1  1  0.66666700  0.33333300  0.62473985  1
  As  As2  1  0.33333300  0.66666700  0.37526015  1
  As  As3  1  0.66666700  0.33333300  0.87526015  1
  Au  Au0  1  0.66666700  0.33333300  0.75000000  1
  Au  Au1  1  0.33333300  0.66666700  0.25000000  1
loop_
_geom_bond_atom_site_label_1
_geom_bond_atom_site_label_2
_geom_bond_distance
_geom_bond_site_symmetry_2
As0 Au1 2.491920 1_555
As0 K0 3.410756 1_565
As0 K0 3.410760 1_555
As0 K0 3.410761 1_665
As0 Rb3 3.459442 1_554
As0 Rb1 3.695128 1_565
As0 Rb1 3.695129 1_455
As0 Rb1 3.695138 1_555
As1 Au0 2.491920 1_555
As1 K1 3.410756 1_655
As1 K1 3.410760 1_665
As1 K1 3.410761 1_555
As1 Rb2 3.459442 1_555
As1 Rb0 3.695128 1_545
As1 Rb0 3.695129 1_655
As1 Rb0 3.695138 1_555
As2 Au1 2.491920 1_555
As2 K3 3.410756 1_565
As2 K3 3.410760 1_555
As2 K3 3.410761 1_665
As2 Rb0 3.459442 1_555
As2 Rb2 3.695128 1_565
As2 Rb2 3.695129 1_455
As2 Rb2 3.695138 1_555
As3 Au0 2.491920 1_555
As3 K2 3.410756 1_655
As3 K2 3.410760 1_665
As3 K2 3.410761 1_555
As3 Rb1 3.459442 1_556
As3 Rb3 3.695128 1_545
As3 Rb3 3.695129 1_655
As3 Rb3 3.695138 1_555
Au0 Rb4 3.375333 1_545
Au0 Rb4 3.375333 1_655
Au0 Rb4 3.375344 1_555
Au1 Rb5 3.375333 1_565
Au1 Rb5 3.375333 1_455
Au1 Rb5 3.375344 1_555
