# generated using pymatgen
data_Ca8Ta3MnN12
_symmetry_space_group_name_H-M   'P 1'
_cell_length_a   6.03657418
_cell_length_b   6.06518418
_cell_length_c   11.93972401
_cell_angle_alpha   88.88798812
_cell_angle_beta   87.89908092
_cell_angle_gamma   122.75388541
_symmetry_Int_Tables_number   1
_chemical_formula_structural   Ca8Ta3MnN12
_chemical_formula_sum   'Ca8 Ta3 Mn1 N12'
_cell_volume   366.99494015
_cell_formula_units_Z   1
loop_
 _symmetry_equiv_pos_site_id
 _symmetry_equiv_pos_as_xyz
  1  'x, y, z'
loop_
 _atom_site_type_symbol
 _atom_site_label
 _atom_site_symmetry_multiplicity
 _atom_site_fract_x
 _atom_site_fract_y
 _atom_site_fract_z
 _atom_site_occupancy
  Ca  Ca0  1  0.61282744  0.84512349  0.08289194  1
  Ca  Ca1  1  0.47553818  0.05212445  0.35440593  1
  Ca  Ca2  1  0.06388845  0.47409793  0.86750313  1
  Ca  Ca3  1  0.52979496  0.93661121  0.63376233  1
  Ca  Ca4  1  0.40123714  0.16646142  0.92703470  1
  Ca  Ca5  1  0.83255467  0.59752157  0.56871149  1
  Ca  Ca6  1  0.16436130  0.38646779  0.41922501  1
  Ca  Ca7  1  0.94629925  0.55658641  0.14388263  1
  Ta  Ta0  1  0.76854073  0.77604258  0.83821734  1
  Ta  Ta1  1  0.22343608  0.22823765  0.65961817  1
  Ta  Ta2  1  0.23503420  0.23445800  0.16849827  1
  Mn  Mn0  1  0.76506704  0.75798400  0.34076916  1
  N  N0  1  0.10354878  0.89714753  0.74889225  1
  N  N1  1  0.89001603  0.06689255  0.25654999  1
  N  N2  1  0.48211765  0.51698804  0.74833168  1
  N  N3  1  0.51350655  0.50461576  0.25699550  1
  N  N4  1  0.33671954  0.99976965  0.12343384  1
  N  N5  1  0.98935758  0.67107843  0.36891546  1
  N  N6  1  0.69098671  0.02853266  0.88121967  1
  N  N7  1  0.97622022  0.31020905  0.61199037  1
  N  N8  1  0.79665476  0.61113429  0.96814820  1
  N  N9  1  0.61039016  0.78720028  0.45877952  1
  N  N10  1  0.19879010  0.40074023  0.04115803  1
  N  N11  1  0.39311246  0.19397202  0.53106439  1
loop_
_geom_bond_atom_site_label_1
_geom_bond_atom_site_label_2
_geom_bond_distance
_geom_bond_site_symmetry_2
Ca0 N4 2.354191 1_555
Ca0 N6 2.550082 1_564
Ca0 N10 2.571723 1_555
Ca0 N8 2.605862 1_554
Ca0 N1 2.614463 1_565
Ca0 N3 2.710725 1_555
Ca1 N11 2.427629 1_555
Ca1 N9 2.491892 1_545
Ca1 N5 2.567577 1_445
Ca1 N1 2.678126 1_555
Ca1 N3 2.848353 1_555
Ca1 N4 2.885082 1_545
Ca2 N10 2.374893 1_556
Ca2 N6 2.402179 1_455
Ca2 N8 2.466704 1_455
Ca2 N2 2.734557 1_555
Ca2 N0 2.795708 1_555
Ca3 N7 2.404716 1_565
Ca3 N9 2.428762 1_555
Ca3 N11 2.452417 1_565
Ca3 N2 2.734034 1_555
Ca3 N0 2.762069 1_555
Ca4 N6 2.364174 1_555
Ca4 N4 2.467303 1_546
Ca4 N8 2.526620 1_555
Ca4 N10 2.683531 1_556
Ca4 N0 2.767724 1_545
Ca4 N2 2.816946 1_555
Ca5 N7 2.385162 1_555
Ca5 N5 2.474236 1_555
Ca5 N11 2.516793 1_555
Ca5 N9 2.566091 1_555
Ca5 N0 2.792796 1_655
Ca5 N2 2.796724 1_555
Ca6 N7 2.449414 1_455
Ca6 N5 2.536970 1_455
Ca6 N9 2.537036 1_555
Ca6 N3 2.592311 1_555
Ca6 N11 2.621491 1_555
Ca6 N1 2.679679 1_455
Ca7 N8 2.400714 1_554
Ca7 N4 2.432450 1_655
Ca7 N10 2.487524 1_655
Ca7 N3 2.753650 1_555
Ca7 N5 2.774373 1_555
Ca7 N1 3.076676 1_555
Mn0 N9 1.726502 1_555
Mn0 N5 1.738578 1_555
Mn0 N3 1.820422 1_555
Mn0 N1 1.852700 1_565
N0 Ta0 1.992690 1_455
N0 Ta1 1.995062 1_565
N1 Ta2 1.995868 1_655
N2 Ta1 1.965090 1_555
N2 Ta0 1.967713 1_555
N3 Ta2 1.960641 1_555
N4 Ta2 1.908769 1_565
N6 Ta0 1.901747 1_545
N7 Ta1 1.910944 1_655
N8 Ta0 1.891720 1_555
N10 Ta2 1.892164 1_555
N11 Ta1 1.890944 1_555
