# generated using pymatgen
data_Tc2As7W
_symmetry_space_group_name_H-M   'P 1'
_cell_length_a   7.61097965
_cell_length_b   7.61097972
_cell_length_c   7.60538045
_cell_angle_alpha   109.63738171
_cell_angle_beta   109.63738536
_cell_angle_gamma   109.16939373
_symmetry_Int_Tables_number   1
_chemical_formula_structural   Tc2As7W
_chemical_formula_sum   'Tc4 As14 W2'
_cell_volume   339.00754991
_cell_formula_units_Z   2
loop_
 _symmetry_equiv_pos_site_id
 _symmetry_equiv_pos_as_xyz
  1  'x, y, z'
loop_
 _atom_site_type_symbol
 _atom_site_label
 _atom_site_symmetry_multiplicity
 _atom_site_fract_x
 _atom_site_fract_y
 _atom_site_fract_z
 _atom_site_occupancy
  Tc  Tc0  1  0.00021878  0.66239660  0.66261538  1
  Tc  Tc1  1  0.34160270  0.34160270  0.00070189  1
  Tc  Tc2  1  0.65909918  0.65909918  0.00070189  1
  Tc  Tc3  1  0.66239660  0.00021878  0.66261538  1
  As  As0  1  0.75027902  0.49952376  0.24980178  1
  As  As1  1  0.49952376  0.75027902  0.24980178  1
  As  As2  1  0.49969396  0.25186309  0.75155705  1
  As  As3  1  0.74925928  0.24925928  0.49851956  1
  As  As4  1  0.24925928  0.74925928  0.49851956  1
  As  As5  1  0.25186309  0.49969396  0.75155705  1
  As  As6  1  0.99837022  0.99837022  0.32980887  1
  As  As7  1  0.66784885  0.99819067  0.99826871  1
  As  As8  1  0.99819067  0.66784885  0.99826871  1
  As  As9  1  0.33143865  0.33143865  0.32980887  1
  As  As10  1  0.00007804  0.33041885  0.99826871  1
  As  As11  1  0.66931854  0.66931854  0.66914177  1
  As  As12  1  0.33041885  0.00007804  0.99826871  1
  As  As13  1  0.99982223  0.99982223  0.66914177  1
  W  W0  1  0.34096511  0.00035119  0.34131630  1
  W  W1  1  0.00035119  0.34096511  0.34131630  1
loop_
_geom_bond_atom_site_label_1
_geom_bond_atom_site_label_2
_geom_bond_distance
_geom_bond_site_symmetry_2
Tc0 W1 2.818038 1_555
Tc3 W0 2.818038 1_555
As0 W1 2.597280 1_655
As0 Tc2 2.600415 1_555
As0 Tc1 2.600420 1_555
As0 Tc0 2.614133 1_655
As1 W0 2.597280 1_565
As1 Tc2 2.600415 1_555
As1 Tc1 2.600420 1_555
As1 Tc3 2.614133 1_565
As2 Tc1 2.589775 1_556
As2 Tc2 2.589775 1_556
As2 W0 2.606138 1_555
As2 Tc3 2.628504 1_555
As3 W0 2.605632 1_555
As3 W1 2.605639 1_655
As3 Tc3 2.628473 1_555
As3 Tc0 2.628480 1_655
As4 W1 2.605632 1_555
As4 W0 2.605639 1_565
As4 Tc0 2.628473 1_555
As4 Tc3 2.628480 1_565
As5 Tc1 2.589775 1_556
As5 Tc2 2.589775 1_556
As5 W1 2.606138 1_555
As5 Tc0 2.628503 1_555
As6 Tc2 2.556023 1_555
As6 W0 2.574250 1_665
As6 W1 2.574251 1_665
As7 Tc3 2.544466 1_565
As7 Tc2 2.566215 1_556
As7 W1 2.582415 1_666
As8 Tc0 2.544466 1_655
As8 Tc2 2.566215 1_556
As8 W0 2.582415 1_666
As9 Tc1 2.556023 1_555
As9 W1 2.574251 1_555
As9 W0 2.574251 1_555
As10 Tc3 2.544463 1_455
As10 Tc1 2.566213 1_556
As10 As8 2.572926 1_455
As10 W1 2.582413 1_556
As11 Tc0 2.552911 1_655
As11 Tc3 2.552911 1_565
As11 As9 2.573344 1_555
As11 Tc2 2.574966 1_556
As12 Tc0 2.544463 1_545
As12 Tc1 2.566213 1_556
As12 As7 2.572926 1_545
As12 W0 2.582413 1_556
As13 Tc3 2.552906 1_565
As13 Tc0 2.552906 1_655
As13 As6 2.573349 1_555
As13 Tc1 2.574972 1_666
