# generated using pymatgen
data_Sr4BeSi6Ni
_symmetry_space_group_name_H-M   'P 1'
_cell_length_a   8.43678971
_cell_length_b   8.09167484
_cell_length_c   6.19992735
_cell_angle_alpha   70.95844435
_cell_angle_beta   65.04161893
_cell_angle_gamma   43.99995000
_symmetry_Int_Tables_number   1
_chemical_formula_structural   Sr4BeSi6Ni
_chemical_formula_sum   'Sr4 Be1 Si6 Ni1'
_cell_volume   266.38697454
_cell_formula_units_Z   1
loop_
 _symmetry_equiv_pos_site_id
 _symmetry_equiv_pos_as_xyz
  1  'x, y, z'
loop_
 _atom_site_type_symbol
 _atom_site_label
 _atom_site_symmetry_multiplicity
 _atom_site_fract_x
 _atom_site_fract_y
 _atom_site_fract_z
 _atom_site_occupancy
  Sr  Sr0  1  0.24301005  0.75360974  0.24639126  1
  Sr  Sr1  1  0.25148927  0.25149027  0.24851073  1
  Sr  Sr2  1  0.75148827  0.75149027  0.74851073  1
  Sr  Sr3  1  0.75360874  0.24301205  0.75698895  1
  Be  Be0  1  0.66643376  0.66643576  0.33356524  1
  Si  Si0  1  0.83216522  0.83216622  0.16783478  1
  Si  Si1  1  0.83082562  0.33676320  0.16917438  1
  Si  Si2  1  0.65066202  0.17589684  0.34933698  1
  Si  Si3  1  0.33676220  0.83082662  0.66323780  1
  Si  Si4  1  0.17589584  0.65066302  0.82410316  1
  Si  Si5  1  0.17400362  0.17400462  0.82599538  1
  Ni  Ni0  1  0.33364641  0.33364841  0.66635259  1
loop_
_geom_bond_atom_site_label_1
_geom_bond_atom_site_label_2
_geom_bond_distance
_geom_bond_site_symmetry_2
Be0 Si1 2.310148 1_555
Be0 Si3 2.310148 1_555
Be0 Si0 2.322783 1_555
Be0 Sr1 3.321266 1_565
Be0 Sr2 3.321266 1_555
Be0 Sr2 3.321266 1_554
Be0 Sr1 3.321272 1_655
Be0 Sr3 3.362530 1_555
Be0 Sr0 3.362531 1_555
Si0 Si2 2.409914 1_565
Si0 Si4 2.409921 1_654
Si0 Sr0 3.272419 1_655
Si0 Sr3 3.272427 1_564
Si0 Sr2 3.299737 1_555
Si0 Sr1 3.299738 1_565
Si0 Sr1 3.299738 1_655
Si0 Sr2 3.299743 1_554
Si1 Si2 2.391108 1_555
Si1 Si5 2.405854 1_654
Si1 Sr0 3.303257 1_645
Si1 Sr3 3.303258 1_554
Si1 Sr2 3.323020 1_554
Si1 Sr1 3.323022 1_655
Si1 Sr3 3.344398 1_555
Si1 Sr0 3.344404 1_555
Si2 Sr1 3.266508 1_555
Si2 Sr2 3.266516 1_545
Si2 Sr0 3.296031 1_555
Si2 Sr3 3.296037 1_555
Si2 Sr3 3.349924 1_554
Si2 Sr0 3.349925 1_645
Si3 Si4 2.391108 1_555
Si3 Si5 2.405847 1_565
Si3 Sr0 3.303257 1_556
Si3 Sr3 3.303258 1_465
Si3 Sr2 3.323013 1_555
Si3 Sr1 3.323022 1_565
Si3 Sr3 3.344398 1_555
Si3 Sr0 3.344403 1_555
Si4 Sr1 3.266515 1_556
Si4 Sr2 3.266516 1_455
Si4 Sr0 3.296026 1_555
Si4 Sr3 3.296032 1_555
Si4 Sr3 3.349929 1_465
Si4 Sr0 3.349930 1_556
Si5 Sr1 3.284679 1_555
Si5 Sr2 3.284680 1_545
Si5 Sr2 3.284685 1_455
Si5 Sr1 3.284690 1_556
Si5 Sr3 3.368969 1_455
Si5 Sr0 3.368978 1_546
Ni0 Si4 2.221458 1_555
Ni0 Si2 2.221465 1_555
Ni0 Si5 2.237462 1_555
Ni0 Sr1 3.306908 1_555
Ni0 Sr2 3.306914 1_455
Ni0 Sr2 3.306914 1_545
Ni0 Sr1 3.306914 1_556
Ni0 Sr0 3.328706 1_555
Ni0 Sr3 3.328714 1_555
