# generated using pymatgen
data_Hf4Zr2MnI12
_symmetry_space_group_name_H-M   'P 1'
_cell_length_a   9.26972212
_cell_length_b   9.29189562
_cell_length_c   9.30752600
_cell_angle_alpha   107.07348969
_cell_angle_beta   106.90568467
_cell_angle_gamma   107.09961222
_symmetry_Int_Tables_number   1
_chemical_formula_structural   Hf4Zr2MnI12
_chemical_formula_sum   'Hf4 Zr2 Mn1 I12'
_cell_volume   667.17267979
_cell_formula_units_Z   1
loop_
 _symmetry_equiv_pos_site_id
 _symmetry_equiv_pos_as_xyz
  1  'x, y, z'
loop_
 _atom_site_type_symbol
 _atom_site_label
 _atom_site_symmetry_multiplicity
 _atom_site_fract_x
 _atom_site_fract_y
 _atom_site_fract_z
 _atom_site_occupancy
  Hf  Hf0  1  0.96930086  0.72145614  0.90730062  1
  Hf  Hf1  1  0.28001700  0.09342995  0.03032820  1
  Hf  Hf2  1  0.09326838  0.03106437  0.27992834  1
  Hf  Hf3  1  0.90723551  0.97049457  0.71975034  1
  Zr  Zr0  1  0.71509449  0.90517449  0.96891000  1
  Zr  Zr1  1  0.02976762  0.28387583  0.09426407  1
  Mn  Mn0  1  0.99849510  0.00150595  0.00026486  1
  I  I0  1  0.92323634  0.30993507  0.77340201  1
  I  I1  1  0.68415494  0.22412705  0.07848174  1
  I  I2  1  0.44484634  0.14165231  0.36960357  1
  I  I3  1  0.85834386  0.62977645  0.55641253  1
  I  I4  1  0.22463938  0.07724548  0.69097484  1
  I  I5  1  0.62903438  0.54963985  0.85353991  1
  I  I6  1  0.37586161  0.44547525  0.14363211  1
  I  I7  1  0.77979137  0.92215441  0.31432578  1
  I  I8  1  0.14599352  0.37062601  0.44942975  1
  I  I9  1  0.55462711  0.85617797  0.62469562  1
  I  I10  1  0.30881518  0.77551007  0.92149066  1
  I  I11  1  0.07747802  0.69067879  0.22326702  1
loop_
_geom_bond_atom_site_label_1
_geom_bond_atom_site_label_2
_geom_bond_distance
_geom_bond_site_symmetry_2
Hf0 Mn0 2.391840 1_566
Hf0 I3 2.889140 1_555
Hf0 I5 2.898226 1_555
Hf0 I11 2.946758 1_656
Hf0 I10 2.994049 1_655
Hf0 I0 3.505578 1_555
Hf1 Mn0 2.396288 1_455
Hf1 I6 2.884851 1_555
Hf1 I2 2.909901 1_555
Hf1 I10 2.947518 1_544
Hf1 I4 2.999200 1_554
Hf1 I1 3.426151 1_555
Hf2 Mn0 2.393961 1_455
Hf2 I2 2.884234 1_555
Hf2 I8 2.899091 1_555
Hf2 I7 2.927891 1_445
Hf2 I11 3.001073 1_545
Hf2 I4 3.510429 1_555
Hf3 Mn0 2.397032 1_566
Hf3 I9 2.884311 1_555
Hf3 I3 2.910146 1_555
Hf3 I4 2.934364 1_665
Hf3 I0 2.996054 1_565
Hf3 I7 3.454950 1_555
Mn0 Zr1 2.406419 1_655
Mn0 Zr0 2.409489 1_544
I0 Zr1 2.966922 1_656
I1 Zr0 2.966626 1_544
I1 Zr1 3.037458 1_655
I5 Zr0 2.927818 1_555
I6 Zr1 2.943288 1_555
I7 Zr0 3.040676 1_554
I8 Zr1 2.931129 1_555
I9 Zr0 2.942408 1_555
I10 Zr0 3.447109 1_555
I11 Zr1 3.459547 1_555
