# generated using pymatgen
data_MnAg(RhSe2)4
_symmetry_space_group_name_H-M   'P 1'
_cell_length_a   7.45389555
_cell_length_b   7.45389530
_cell_length_c   7.45389555
_cell_angle_alpha   60.00000318
_cell_angle_beta   60.00000431
_cell_angle_gamma   60.00000424
_symmetry_Int_Tables_number   1
_chemical_formula_structural   MnAg(RhSe2)4
_chemical_formula_sum   'Mn1 Ag1 Rh4 Se8'
_cell_volume   292.84305863
_cell_formula_units_Z   1
loop_
 _symmetry_equiv_pos_site_id
 _symmetry_equiv_pos_as_xyz
  1  'x, y, z'
loop_
 _atom_site_type_symbol
 _atom_site_label
 _atom_site_symmetry_multiplicity
 _atom_site_fract_x
 _atom_site_fract_y
 _atom_site_fract_z
 _atom_site_occupancy
  Mn  Mn0  1  0.50000000  0.50000000  0.50000000  1
  Ag  Ag0  1  0.75000000  0.75000000  0.75000000  1
  Rh  Rh0  1  0.62848612  0.12383763  0.12383763  1
  Rh  Rh1  1  0.12383763  0.62848612  0.12383763  1
  Rh  Rh2  1  0.12383763  0.12383763  0.62848612  1
  Rh  Rh3  1  0.12383763  0.12383763  0.12383763  1
  Se  Se0  1  0.32778301  0.89073833  0.89073833  1
  Se  Se1  1  0.89073833  0.32778301  0.89073833  1
  Se  Se2  1  0.89073833  0.89073833  0.32778301  1
  Se  Se3  1  0.89073833  0.89073833  0.89073833  1
  Se  Se4  1  0.91155808  0.36281331  0.36281331  1
  Se  Se5  1  0.36281331  0.91155808  0.36281331  1
  Se  Se6  1  0.36281331  0.36281331  0.91155808  1
  Se  Se7  1  0.36281331  0.36281331  0.36281331  1
loop_
_geom_bond_atom_site_label_1
_geom_bond_atom_site_label_2
_geom_bond_distance
_geom_bond_site_symmetry_2
Mn0 Se5 2.504776 1_555
Mn0 Se6 2.504776 1_555
Mn0 Se4 2.504776 1_555
Mn0 Se7 2.504788 1_555
Ag0 Se3 2.569634 1_555
Ag0 Se1 2.569646 1_555
Ag0 Se2 2.569647 1_555
Ag0 Se0 2.569647 1_555
Rh0 Se1 2.466778 1_554
Rh0 Se2 2.466778 1_545
Rh0 Se3 2.466783 1_544
Rh0 Se7 2.526986 1_555
Rh0 Se5 2.526991 1_545
Rh0 Se6 2.526991 1_554
Rh1 Se0 2.466778 1_554
Rh1 Se2 2.466778 1_455
Rh1 Se3 2.466783 1_454
Rh1 Se7 2.526986 1_555
Rh1 Se4 2.526991 1_455
Rh1 Se6 2.526991 1_554
Rh2 Se0 2.466778 1_545
Rh2 Se1 2.466778 1_455
Rh2 Se3 2.466783 1_445
Rh2 Se7 2.526986 1_555
Rh2 Se4 2.526991 1_455
Rh2 Se5 2.526991 1_545
Rh3 Se2 2.466784 1_445
Rh3 Se0 2.466784 1_544
Rh3 Se1 2.466784 1_454
Rh3 Se6 2.526985 1_554
Rh3 Se4 2.526985 1_455
Rh3 Se5 2.526985 1_545
