# generated using pymatgen
data_Ca10CdGa4Sb
_symmetry_space_group_name_H-M   'P 1'
_cell_length_a   9.30770587
_cell_length_b   9.30770686
_cell_length_c   9.30770634
_cell_angle_alpha   128.58174980
_cell_angle_beta   128.58174715
_cell_angle_gamma   75.68449698
_symmetry_Int_Tables_number   1
_chemical_formula_structural   Ca10CdGa4Sb
_chemical_formula_sum   'Ca10 Cd1 Ga4 Sb1'
_cell_volume   479.33155153
_cell_formula_units_Z   1
loop_
 _symmetry_equiv_pos_site_id
 _symmetry_equiv_pos_as_xyz
  1  'x, y, z'
loop_
 _atom_site_type_symbol
 _atom_site_label
 _atom_site_symmetry_multiplicity
 _atom_site_fract_x
 _atom_site_fract_y
 _atom_site_fract_z
 _atom_site_occupancy
  Ca  Ca0  1  0.50001617  0.50001617  0.00000000  1
  Ca  Ca1  1  0.99998383  0.99998383  1.00000000  1
  Ca  Ca2  1  0.53130099  0.03669898  0.84732417  1
  Ca  Ca3  1  0.18937581  0.68397682  0.15267583  1
  Ca  Ca4  1  0.03669898  0.18937581  0.50539899  1
  Ca  Ca5  1  0.68397682  0.53130099  0.49460101  1
  Ca  Ca6  1  0.46330102  0.96869901  0.15267583  1
  Ca  Ca7  1  0.81602318  0.31062419  0.84732417  1
  Ca  Ca8  1  0.96869901  0.81602318  0.50539899  1
  Ca  Ca9  1  0.31062419  0.46330102  0.49460101  1
  Cd  Cd0  1  0.75000000  0.75000000  0.00000000  1
  Ga  Ga0  1  0.88688184  0.38688184  0.27376368  1
  Ga  Ga1  1  0.11311816  0.61311816  0.72623632  1
  Ga  Ga2  1  0.38688184  0.11311816  0.50000000  1
  Ga  Ga3  1  0.61311816  0.88688184  0.50000000  1
  Sb  Sb0  1  0.25000000  0.25000000  0.00000000  1
loop_
_geom_bond_atom_site_label_1
_geom_bond_atom_site_label_2
_geom_bond_distance
_geom_bond_site_symmetry_2
Ca0 Ga3 3.255036 1_555
Ca0 Ga2 3.255036 1_554
Ca0 Ga1 3.255036 1_554
Ca0 Ga0 3.255036 1_555
Ca0 Cd0 3.674923 1_555
Ca0 Sb0 3.675399 1_555
Ca1 Ga2 3.255036 1_666
Ca1 Ga3 3.255036 1_555
Ca1 Ga1 3.255036 1_655
Ca1 Ga0 3.255036 1_566
Ca1 Cd0 3.674923 1_556
Ca1 Sb0 3.675399 1_666
Ca2 Ga2 3.120724 1_555
Ca2 Ga3 3.146139 1_545
Ca2 Ga0 3.185234 1_556
Ca2 Sb0 3.371578 1_556
Ca2 Cd0 3.423383 1_546
Ca3 Ga3 3.120716 1_555
Ca3 Ga2 3.146137 1_565
Ca3 Ga1 3.185229 1_554
Ca3 Sb0 3.371577 1_555
Ca3 Cd0 3.423391 1_455
Ca4 Ga1 3.120718 1_555
Ca4 Ga0 3.146138 1_455
Ca4 Ga2 3.185238 1_555
Ca4 Sb0 3.371574 1_556
Ca4 Cd0 3.423389 1_445
Ca5 Ga0 3.120716 1_555
Ca5 Ga1 3.146137 1_655
Ca5 Ga3 3.185229 1_555
Ca5 Sb0 3.371576 1_555
Ca5 Cd0 3.423391 1_556
Ca6 Ga2 3.120724 1_565
Ca6 Ga3 3.146140 1_555
Ca6 Ga1 3.185234 1_554
Ca6 Sb0 3.371578 1_565
Ca6 Cd0 3.423383 1_555
Ca7 Ga3 3.120717 1_545
Ca7 Ga2 3.146137 1_555
Ca7 Ga0 3.185229 1_556
Ca7 Sb0 3.371576 1_656
Ca7 Cd0 3.423392 1_556
Ca8 Ga1 3.120717 1_655
Ca8 Ga0 3.146137 1_555
Ca8 Ga3 3.185229 1_555
Ca8 Sb0 3.371576 1_666
Ca8 Cd0 3.423391 1_555
Ca9 Ga0 3.120718 1_455
Ca9 Ga1 3.146138 1_555
Ca9 Ga2 3.185239 1_555
Ca9 Sb0 3.371574 1_555
Ca9 Cd0 3.423389 1_556
Ga0 Ga1 2.583700 1_655
Ga2 Ga3 2.583700 1_545
