# generated using pymatgen
data_Lu10Al3CoTe4
_symmetry_space_group_name_H-M   'P 1'
_cell_length_a   8.44481378
_cell_length_b   8.44481423
_cell_length_c   7.78609955
_cell_angle_alpha   90.60383646
_cell_angle_beta   90.60383625
_cell_angle_gamma   125.36071993
_symmetry_Int_Tables_number   1
_chemical_formula_structural   Lu10Al3CoTe4
_chemical_formula_sum   'Lu10 Al3 Co1 Te4'
_cell_volume   452.71276797
_cell_formula_units_Z   1
loop_
 _symmetry_equiv_pos_site_id
 _symmetry_equiv_pos_as_xyz
  1  'x, y, z'
loop_
 _atom_site_type_symbol
 _atom_site_label
 _atom_site_symmetry_multiplicity
 _atom_site_fract_x
 _atom_site_fract_y
 _atom_site_fract_z
 _atom_site_occupancy
  Lu  Lu0  1  0.00216117  0.00216117  0.99540969  1
  Lu  Lu1  1  0.50634078  0.50634078  0.49643828  1
  Lu  Lu2  1  0.81682995  0.57677705  0.19139706  1
  Lu  Lu3  1  0.46612383  0.21103296  0.83255471  1
  Lu  Lu4  1  0.95036555  0.70959018  0.64592028  1
  Lu  Lu5  1  0.25735608  0.02331744  0.33610115  1
  Lu  Lu6  1  0.21103296  0.46612383  0.83255471  1
  Lu  Lu7  1  0.57677705  0.81682995  0.19139706  1
  Lu  Lu8  1  0.02331744  0.25735608  0.33610115  1
  Lu  Lu9  1  0.70959018  0.95036555  0.64592028  1
  Al  Al0  1  0.12508188  0.12508188  0.62921349  1
  Al  Al1  1  0.62967091  0.62967091  0.88014919  1
  Al  Al2  1  0.37551130  0.37551130  0.12400511  1
  Co  Co0  1  0.86477312  0.86477312  0.38833597  1
  Te  Te0  1  0.22329842  0.80596923  0.99472744  1
  Te  Te1  1  0.68380813  0.27199303  0.49252399  1
  Te  Te2  1  0.80596923  0.22329842  0.99472744  1
  Te  Te3  1  0.27199303  0.68380813  0.49252399  1
loop_
_geom_bond_atom_site_label_1
_geom_bond_atom_site_label_2
_geom_bond_distance
_geom_bond_site_symmetry_2
Lu0 Te0 3.132671 1_545
Lu0 Te2 3.132671 1_455
Lu1 Te3 3.097754 1_555
Lu1 Te1 3.097754 1_555
Lu2 Te1 3.196861 1_555
Lu2 Te0 3.218222 1_654
Lu2 Te2 3.293579 1_554
Lu3 Te2 3.068944 1_555
Lu3 Te0 3.086621 1_545
Lu3 Te1 3.112822 1_555
Lu4 Te3 3.098123 1_655
Lu4 Te1 3.220542 1_555
Lu4 Te0 3.316754 1_655
Lu5 Te0 3.128338 1_544
Lu5 Te1 3.156413 1_555
Lu5 Te3 3.193659 1_545
Lu6 Te0 3.068945 1_555
Lu6 Te2 3.086621 1_455
Lu6 Te3 3.112822 1_555
Lu7 Te3 3.196861 1_555
Lu7 Te2 3.218222 1_564
Lu7 Te0 3.293578 1_554
Lu8 Te2 3.128338 1_454
Lu8 Te3 3.156413 1_555
Lu8 Te1 3.193658 1_455
Lu9 Te1 3.098124 1_565
Lu9 Te3 3.220542 1_555
Lu9 Te2 3.316754 1_565
Al0 Co0 2.723088 1_445
Al0 Lu5 2.884134 1_555
Al0 Lu8 2.884134 1_555
Al0 Lu9 2.920068 1_445
Al0 Lu4 2.920068 1_445
Al0 Lu3 2.964486 1_555
Al0 Lu6 2.964486 1_555
Al0 Lu0 3.026915 1_555
Al0 Lu1 3.153279 1_555
Al1 Al2 2.767351 1_556
Al1 Lu6 2.975473 1_555
Al1 Lu3 2.975473 1_555
Al1 Lu0 3.003890 1_665
Al1 Lu4 3.021649 1_555
Al1 Lu9 3.021649 1_555
Al1 Lu2 3.054456 1_556
Al1 Lu7 3.054456 1_556
Al1 Lu1 3.115861 1_555
Al2 Lu6 2.977373 1_554
Al2 Lu3 2.977373 1_554
Al2 Lu0 3.040551 1_554
Al2 Lu8 3.044998 1_555
Al2 Lu5 3.044998 1_555
Al2 Lu1 3.049961 1_555
Al2 Lu2 3.108361 1_555
Al2 Lu7 3.108361 1_555
Co0 Lu7 2.683053 1_555
Co0 Lu2 2.683053 1_555
Co0 Lu9 2.717242 1_555
Co0 Lu4 2.717242 1_555
Co0 Lu5 2.802039 1_665
Co0 Lu8 2.802039 1_665
Co0 Lu1 2.921544 1_555
Co0 Lu0 3.262438 1_664
