# generated using pymatgen
data_Rb3Ta(SO)2
_symmetry_space_group_name_H-M   'P 1'
_cell_length_a   7.71378724
_cell_length_b   11.24587130
_cell_length_c   12.43735620
_cell_angle_alpha   57.89427945
_cell_angle_beta   90.00000000
_cell_angle_gamma   90.00000000
_symmetry_Int_Tables_number   1
_chemical_formula_structural   Rb3Ta(SO)2
_chemical_formula_sum   'Rb12 Ta4 S8 O8'
_cell_volume   913.91868029
_cell_formula_units_Z   4
loop_
 _symmetry_equiv_pos_site_id
 _symmetry_equiv_pos_as_xyz
  1  'x, y, z'
loop_
 _atom_site_type_symbol
 _atom_site_label
 _atom_site_symmetry_multiplicity
 _atom_site_fract_x
 _atom_site_fract_y
 _atom_site_fract_z
 _atom_site_occupancy
  Rb  Rb0  1  0.74039500  0.05862350  0.88341693  1
  Rb  Rb1  1  0.85627946  0.51566884  0.15872115  1
  Rb  Rb2  1  0.25960500  0.94137650  0.11658307  1
  Rb  Rb3  1  0.75960500  0.05862350  0.38341693  1
  Rb  Rb4  1  0.14372054  0.48433116  0.84127885  1
  Rb  Rb5  1  0.72597657  0.76395343  0.79148265  1
  Rb  Rb6  1  0.35627946  0.48433116  0.34127885  1
  Rb  Rb7  1  0.22597657  0.23604657  0.70851735  1
  Rb  Rb8  1  0.27402343  0.23604657  0.20851735  1
  Rb  Rb9  1  0.77402343  0.76395343  0.29148265  1
  Rb  Rb10  1  0.24039500  0.94137650  0.61658307  1
  Rb  Rb11  1  0.64372054  0.51566884  0.65872115  1
  Ta  Ta0  1  0.70242740  0.30237486  0.02686085  1
  Ta  Ta1  1  0.79757260  0.30237486  0.52686085  1
  Ta  Ta2  1  0.29757260  0.69762514  0.97313915  1
  Ta  Ta3  1  0.20242740  0.69762514  0.47313915  1
  S  S0  1  0.46652117  0.24963769  0.94128233  1
  S  S1  1  0.57703244  0.13537976  0.59219407  1
  S  S2  1  0.96652117  0.75036231  0.55871767  1
  S  S3  1  0.53347883  0.75036231  0.05871767  1
  S  S4  1  0.03347883  0.24963769  0.44128233  1
  S  S5  1  0.07703244  0.86462024  0.90780593  1
  S  S6  1  0.42296756  0.86462024  0.40780593  1
  S  S7  1  0.92296756  0.13537976  0.09219407  1
  O  O0  1  0.29044421  0.52542958  0.58712664  1
  O  O1  1  0.63221935  0.30309017  0.16555580  1
  O  O2  1  0.79044421  0.47457042  0.91287336  1
  O  O3  1  0.20955579  0.52542958  0.08712664  1
  O  O4  1  0.86778065  0.30309017  0.66555580  1
  O  O5  1  0.70955579  0.47457042  0.41287336  1
  O  O6  1  0.13221935  0.69690983  0.33444420  1
  O  O7  1  0.36778065  0.69690983  0.83444420  1
loop_
_geom_bond_atom_site_label_1
_geom_bond_atom_site_label_2
_geom_bond_distance
_geom_bond_site_symmetry_2
Rb0 S5 3.300246 1_645
Rb0 S0 3.352434 1_555
Rb0 S3 3.359275 1_546
Rb0 S7 3.442895 1_556
Rb0 S1 3.482653 1_555
Rb1 S3 3.350193 1_555
Rb1 S4 3.463143 1_655
Rb2 S7 3.300246 1_465
Rb2 S3 3.352434 1_555
Rb2 S0 3.359275 1_564
Rb2 S5 3.442895 1_554
Rb2 S6 3.482653 1_555
Rb3 S6 3.300246 1_545
Rb3 S4 3.352434 1_655
Rb3 S2 3.359275 1_545
Rb3 S1 3.442895 1_555
Rb3 S7 3.482653 1_555
Rb4 S0 3.350193 1_555
Rb4 S2 3.463143 1_455
Rb5 S2 3.509635 1_555
Rb5 S3 3.568644 1_556
Rb6 S4 3.350193 1_555
Rb6 S3 3.463143 1_555
Rb7 S0 3.509635 1_555
Rb7 S4 3.568644 1_555
Rb8 S4 3.509635 1_555
Rb8 S0 3.568644 1_554
Rb9 S3 3.509635 1_555
Rb9 S2 3.568644 1_555
Rb10 S1 3.300246 1_565
Rb10 S2 3.352434 1_455
Rb10 S4 3.359275 1_565
Rb10 S6 3.442895 1_555
Rb10 S5 3.482653 1_555
Rb11 S2 3.350193 1_555
Rb11 S0 3.463143 1_555
S0 Ta0 2.338171 1_556
S1 Ta1 2.336484 1_555
S2 Ta3 2.338171 1_655
S3 Ta2 2.338171 1_554
S4 Ta1 2.338171 1_455
S5 Ta2 2.336484 1_555
S6 Ta3 2.336484 1_555
S7 Ta0 2.336484 1_555
O0 Ta3 1.817307 1_555
O0 Rb7 2.809781 1_555
O0 Rb11 2.850826 1_555
O0 Rb4 3.151734 1_555
O0 Rb6 3.365002 1_555
O1 Ta0 1.812107 1_555
O1 Rb3 2.819122 1_555
O1 Rb8 2.839043 1_555
O1 Rb1 2.914368 1_555
O2 Ta0 1.817307 1_556
O2 Rb5 2.809781 1_555
O2 Rb4 2.850826 1_655
O2 Rb11 3.151734 1_555
O2 Rb1 3.365002 1_556
O3 Ta2 1.817307 1_554
O3 Rb8 2.809781 1_555
O3 Rb1 2.850826 1_455
O3 Rb6 3.151734 1_555
O3 Rb4 3.365002 1_554
O4 Ta1 1.812107 1_555
O4 Rb0 2.819122 1_555
O4 Rb7 2.839043 1_655
O4 Rb11 2.914368 1_555
O5 Ta1 1.817307 1_555
O5 Rb9 2.809781 1_555
O5 Rb6 2.850826 1_555
O5 Rb1 3.151734 1_555
O5 Rb11 3.365002 1_555
O6 Ta3 1.812107 1_555
O6 Rb2 2.819122 1_555
O6 Rb9 2.839043 1_455
O6 Rb6 2.914368 1_555
O7 Ta2 1.812107 1_555
O7 Rb10 2.819122 1_555
O7 Rb5 2.839043 1_555
O7 Rb4 2.914368 1_555
