# generated using pymatgen
data_Sr2GaIrI
_symmetry_space_group_name_H-M   'P 1'
_cell_length_a   4.35097492
_cell_length_b   4.35097332
_cell_length_c   18.26555755
_cell_angle_alpha   90.00000000
_cell_angle_beta   90.00000000
_cell_angle_gamma   120.00001959
_symmetry_Int_Tables_number   1
_chemical_formula_structural   Sr2GaIrI
_chemical_formula_sum   'Sr4 Ga2 Ir2 I2'
_cell_volume   299.45838574
_cell_formula_units_Z   2
loop_
 _symmetry_equiv_pos_site_id
 _symmetry_equiv_pos_as_xyz
  1  'x, y, z'
loop_
 _atom_site_type_symbol
 _atom_site_label
 _atom_site_symmetry_multiplicity
 _atom_site_fract_x
 _atom_site_fract_y
 _atom_site_fract_z
 _atom_site_occupancy
  Sr  Sr0  1  0.00000000  0.00000000  0.38855212  1
  Sr  Sr1  1  0.00000000  0.00000000  0.88855212  1
  Sr  Sr2  1  0.00000000  0.00000000  0.61108581  1
  Sr  Sr3  1  0.00000000  0.00000000  0.11108581  1
  Ga  Ga0  1  0.33333300  0.66666700  0.50045458  1
  Ga  Ga1  1  0.66666700  0.33333300  0.00045458  1
  Ir  Ir0  1  0.66666700  0.33333300  0.49945624  1
  Ir  Ir1  1  0.33333300  0.66666700  0.99945624  1
  I  I0  1  0.33333300  0.66666700  0.25045125  1
  I  I1  1  0.66666700  0.33333300  0.75045125  1
loop_
_geom_bond_atom_site_label_1
_geom_bond_atom_site_label_2
_geom_bond_distance
_geom_bond_site_symmetry_2
Ga0 Ir0 2.512099 1_565
Ga0 Ir0 2.512100 1_455
Ga0 Ir0 2.512108 1_555
Ga0 Sr2 3.223927 1_565
Ga0 Sr2 3.223929 1_555
Ga0 Sr2 3.223930 1_665
Ga0 Sr0 3.238532 1_565
Ga0 Sr0 3.238534 1_555
Ga0 Sr0 3.238535 1_665
Ga1 Ir1 2.512099 1_544
Ga1 Ir1 2.512100 1_654
Ga1 Ir1 2.512108 1_554
Ga1 Sr3 3.223927 1_655
Ga1 Sr3 3.223929 1_665
Ga1 Sr3 3.223930 1_555
Ga1 Sr1 3.238532 1_654
Ga1 Sr1 3.238534 1_664
Ga1 Sr1 3.238535 1_554
Ir0 Sr0 3.227054 1_655
Ir0 Sr0 3.227056 1_665
Ir0 Sr0 3.227057 1_555
Ir0 Sr2 3.235388 1_655
Ir0 Sr2 3.235390 1_665
Ir0 Sr2 3.235391 1_555
Ir1 Sr1 3.227054 1_565
Ir1 Sr1 3.227056 1_555
Ir1 Sr1 3.227057 1_665
Ir1 Sr3 3.235388 1_566
Ir1 Sr3 3.235390 1_556
Ir1 Sr3 3.235391 1_666
I0 Sr0 3.559953 1_565
I0 Sr0 3.559955 1_555
I0 Sr0 3.559956 1_665
I0 Sr3 3.576357 1_565
I0 Sr3 3.576359 1_555
I0 Sr3 3.576360 1_665
I1 Sr1 3.559953 1_655
I1 Sr1 3.559955 1_665
I1 Sr1 3.559956 1_555
I1 Sr2 3.576357 1_655
I1 Sr2 3.576359 1_665
I1 Sr2 3.576360 1_555
