# generated using pymatgen
data_Al2FeO4
_symmetry_space_group_name_H-M   'P 1'
_cell_length_a   5.70540648
_cell_length_b   5.87570628
_cell_length_c   8.26663363
_cell_angle_alpha   89.99980236
_cell_angle_beta   90.00058432
_cell_angle_gamma   89.99687306
_symmetry_Int_Tables_number   1
_chemical_formula_structural   Al2FeO4
_chemical_formula_sum   'Al8 Fe4 O16'
_cell_volume   277.12477856
_cell_formula_units_Z   4
loop_
 _symmetry_equiv_pos_site_id
 _symmetry_equiv_pos_as_xyz
  1  'x, y, z'
loop_
 _atom_site_type_symbol
 _atom_site_label
 _atom_site_symmetry_multiplicity
 _atom_site_fract_x
 _atom_site_fract_y
 _atom_site_fract_z
 _atom_site_occupancy
  Al  Al0  1  0.99998200  0.24999500  0.13549200  1
  Al  Al1  1  0.50000700  0.74999900  0.63549500  1
  Al  Al2  1  0.99999300  0.75000000  0.86450500  1
  Al  Al3  1  0.50001800  0.25000400  0.36450800  1
  Al  Al4  1  0.99998000  0.50000100  0.50000800  1
  Al  Al5  1  0.50002000  0.99999800  0.99999200  1
  Al  Al6  1  0.99998000  0.99999600  0.50000300  1
  Al  Al7  1  0.50002000  0.50000300  0.99999600  1
  Fe  Fe0  1  0.74999900  0.25001100  0.75000000  1
  Fe  Fe1  1  0.75000200  0.74999400  0.25000000  1
  Fe  Fe2  1  0.24999800  0.75001100  0.25000800  1
  Fe  Fe3  1  0.25000200  0.24999500  0.74999900  1
  O  O0  1  0.99997800  0.49209100  0.26833800  1
  O  O1  1  0.50001700  0.99208000  0.76833200  1
  O  O2  1  0.99999600  0.00792200  0.26834000  1
  O  O3  1  0.50003400  0.50791700  0.76833100  1
  O  O4  1  0.99996600  0.99208200  0.73166800  1
  O  O5  1  0.50000400  0.49207700  0.23165900  1
  O  O6  1  0.99998300  0.50791900  0.73166700  1
  O  O7  1  0.50002200  0.00790800  0.23166100  1
  O  O8  1  0.23545800  0.74999900  0.50752300  1
  O  O9  1  0.73543000  0.24999800  0.00756500  1
  O  O10  1  0.76456900  0.75000100  0.50755600  1
  O  O11  1  0.26452500  0.25000100  0.00751100  1
  O  O12  1  0.23547500  0.24999800  0.49248800  1
  O  O13  1  0.73543000  0.74999700  0.99244300  1
  O  O14  1  0.76457000  0.25000100  0.49243500  1
  O  O15  1  0.26454200  0.75000000  0.99247700  1
loop_
_geom_bond_atom_site_label_1
_geom_bond_atom_site_label_2
_geom_bond_distance
_geom_bond_site_symmetry_2
Al0 O2 1.796976 1_555
Al0 O0 1.797079 1_555
Al0 O9 1.842972 1_555
Al0 O11 1.843204 1_655
Al1 O3 1.796958 1_555
Al1 O1 1.796964 1_555
Al1 O10 1.843093 1_555
Al1 O8 1.843172 1_555
Al2 O4 1.796963 1_555
Al2 O6 1.796969 1_555
Al2 O13 1.843093 1_555
Al2 O15 1.843172 1_655
Al3 O5 1.796981 1_555
Al3 O7 1.797084 1_555
Al3 O14 1.842972 1_555
Al3 O12 1.843199 1_555
Al4 O6 1.915605 1_555
Al4 O0 1.915695 1_555
Al4 O10 1.991327 1_555
Al4 O14 1.991437 1_555
Al4 O12 1.991656 1_655
Al4 O8 1.991675 1_655
Al5 O1 1.915614 1_555
Al5 O7 1.915687 1_566
Al5 O13 1.991328 1_555
Al5 O9 1.991437 1_566
Al5 O11 1.991656 1_566
Al5 O15 1.991675 1_555
Al6 O2 1.915639 1_565
Al6 O4 1.915654 1_555
Al6 O14 1.991349 1_565
Al6 O10 1.991415 1_555
Al6 O8 1.991564 1_655
Al6 O12 1.991759 1_665
Al7 O5 1.915639 1_556
Al7 O3 1.915654 1_555
Al7 O9 1.991349 1_556
Al7 O13 1.991407 1_555
Al7 O15 1.991564 1_555
Al7 O11 1.991759 1_556
Fe0 O3 2.086389 1_555
Fe0 O4 2.086495 1_545
Fe0 O6 2.086585 1_555
Fe0 O1 2.086675 1_545
Fe0 O9 2.130818 1_556
Fe0 O14 2.130819 1_555
Fe1 O0 2.086420 1_555
Fe1 O7 2.086483 1_565
Fe1 O5 2.086682 1_555
Fe1 O2 2.086712 1_565
Fe1 O10 2.130742 1_555
Fe1 O13 2.130751 1_554
Fe2 O2 2.086555 1_465
Fe2 O5 2.086679 1_555
Fe2 O7 2.086703 1_565
Fe2 O0 2.086775 1_455
Fe2 O8 2.130399 1_555
Fe2 O15 2.130532 1_554
Fe3 O1 2.086621 1_545
Fe3 O6 2.086674 1_455
Fe3 O4 2.086807 1_445
Fe3 O3 2.086830 1_555
Fe3 O12 2.130361 1_555
Fe3 O11 2.130369 1_556
