# generated using pymatgen
data_YMg2ScIn4
_symmetry_space_group_name_H-M   'P 1'
_cell_length_a   6.34692208
_cell_length_b   6.34692266
_cell_length_c   4.56449973
_cell_angle_alpha   90.00000000
_cell_angle_beta   90.00000000
_cell_angle_gamma   92.21914665
_symmetry_Int_Tables_number   1
_chemical_formula_structural   YMg2ScIn4
_chemical_formula_sum   'Y1 Mg2 Sc1 In4'
_cell_volume   183.73577685
_cell_formula_units_Z   1
loop_
 _symmetry_equiv_pos_site_id
 _symmetry_equiv_pos_as_xyz
  1  'x, y, z'
loop_
 _atom_site_type_symbol
 _atom_site_label
 _atom_site_symmetry_multiplicity
 _atom_site_fract_x
 _atom_site_fract_y
 _atom_site_fract_z
 _atom_site_occupancy
  Y  Y0  1  0.50000000  0.50000000  0.50000000  1
  Mg  Mg0  1  0.75476232  0.24523768  0.00000000  1
  Mg  Mg1  1  0.24523768  0.75476232  0.00000000  1
  Sc  Sc0  1  0.00000000  0.00000000  0.50000000  1
  In  In0  1  0.50000000  0.00000000  0.50000000  1
  In  In1  1  0.00000000  0.50000000  0.50000000  1
  In  In2  1  0.75473179  0.75473179  0.00000000  1
  In  In3  1  0.24526821  0.24526821  0.00000000  1
loop_
_geom_bond_atom_site_label_1
_geom_bond_atom_site_label_2
_geom_bond_distance
_geom_bond_site_symmetry_2
Mg0 Sc0 3.200266 1_654
Mg0 Sc0 3.200266 1_655
Mg0 Y0 3.261938 1_555
Mg0 Y0 3.261938 1_554
Mg1 Sc0 3.200266 1_565
Mg1 Sc0 3.200266 1_564
Mg1 Y0 3.261938 1_554
Mg1 Y0 3.261938 1_555
In0 Mg0 3.170333 1_556
In0 Mg0 3.170333 1_555
In0 Mg1 3.170333 1_545
In0 Mg1 3.170333 1_546
In0 Sc0 3.173461 1_555
In0 Sc0 3.173461 1_655
In0 Y0 3.173461 1_555
In0 Y0 3.173461 1_545
In0 In2 3.231224 1_546
In0 In2 3.231224 1_545
In0 In3 3.231224 1_555
In0 In3 3.231224 1_556
In1 Mg1 3.170333 1_556
In1 Mg1 3.170333 1_555
In1 Mg0 3.170333 1_456
In1 Mg0 3.170333 1_455
In1 Y0 3.173461 1_455
In1 Y0 3.173461 1_555
In1 Sc0 3.173461 1_565
In1 Sc0 3.173461 1_555
In1 In3 3.231224 1_556
In1 In2 3.231224 1_456
In1 In2 3.231224 1_455
In1 In3 3.231224 1_555
In2 Mg1 3.113195 1_655
In2 Mg0 3.113195 1_565
In2 Sc0 3.141276 1_664
In2 Sc0 3.141276 1_665
In2 Y0 3.199075 1_555
In2 Y0 3.199075 1_554
In2 Mg1 3.233727 1_555
In2 Mg0 3.233727 1_555
In3 Mg0 3.113195 1_455
In3 Mg1 3.113195 1_545
In3 Sc0 3.141276 1_555
In3 Sc0 3.141276 1_554
In3 Y0 3.199075 1_554
In3 Y0 3.199075 1_555
In3 Mg0 3.233727 1_555
In3 Mg1 3.233727 1_555
