# generated using pymatgen
data_Rb6InAsP2
_symmetry_space_group_name_H-M   'P 1'
_cell_length_a   9.33887801
_cell_length_b   9.31366670
_cell_length_c   10.45920998
_cell_angle_alpha   82.03232913
_cell_angle_beta   107.03350419
_cell_angle_gamma   119.28591733
_symmetry_Int_Tables_number   1
_chemical_formula_structural   Rb6InAsP2
_chemical_formula_sum   'Rb12 In2 As2 P4'
_cell_volume   758.64203856
_cell_formula_units_Z   2
loop_
 _symmetry_equiv_pos_site_id
 _symmetry_equiv_pos_as_xyz
  1  'x, y, z'
loop_
 _atom_site_type_symbol
 _atom_site_label
 _atom_site_symmetry_multiplicity
 _atom_site_fract_x
 _atom_site_fract_y
 _atom_site_fract_z
 _atom_site_occupancy
  Rb  Rb0  1  0.73457081  0.12126605  0.61749289  1
  Rb  Rb1  1  0.25489334  0.85973865  0.39212161  1
  Rb  Rb2  1  0.96728536  0.81836164  0.62420014  1
  Rb  Rb3  1  0.02650989  0.20027709  0.39397530  1
  Rb  Rb4  1  0.62551252  0.44481159  0.39801591  1
  Rb  Rb5  1  0.40188937  0.56758599  0.59471311  1
  Rb  Rb6  1  0.86547890  0.48718579  0.13690767  1
  Rb  Rb7  1  0.11475371  0.50335166  0.84305105  1
  Rb  Rb8  1  0.75468240  0.09536696  0.98720357  1
  Rb  Rb9  1  0.23604621  0.87052387  0.00355730  1
  Rb  Rb10  1  0.55960506  0.62158351  0.95094198  1
  Rb  Rb11  1  0.24501943  0.20275325  0.10826589  1
  In  In0  1  0.59305082  0.83457199  0.25762485  1
  In  In1  1  0.41426482  0.17137151  0.75029249  1
  As  As0  1  0.29762605  0.55938484  0.22788919  1
  As  As1  1  0.70968743  0.43700957  0.76447574  1
  P  P0  1  0.59898682  0.11002690  0.26102344  1
  P  P1  1  0.38774575  0.88431883  0.74060491  1
  P  P2  1  0.85741578  0.82476087  0.24807114  1
  P  P3  1  0.16435354  0.20249243  0.76095483  1
loop_
_geom_bond_atom_site_label_1
_geom_bond_atom_site_label_2
_geom_bond_distance
_geom_bond_site_symmetry_2
In0 P0 2.543834 1_565
In0 P2 2.545867 1_555
In0 Rb8 3.631500 1_564
In1 P3 2.523245 1_555
In1 P1 2.575247 1_545
In1 Rb8 3.721310 1_555
As0 In0 2.660403 1_555
As0 Rb11 3.469145 1_555
As0 Rb6 3.594102 1_455
As0 Rb4 3.627608 1_555
As0 Rb9 3.631588 1_555
As0 Rb3 3.646355 1_555
As0 Rb5 3.673409 1_555
As0 Rb1 3.709617 1_555
As0 Rb7 3.882466 1_554
As1 In1 2.634146 1_555
As1 Rb7 3.376375 1_655
As1 Rb5 3.567301 1_555
As1 Rb2 3.580346 1_555
As1 Rb0 3.632691 1_555
As1 Rb4 3.677997 1_555
As1 Rb10 3.689369 1_555
As1 Rb6 3.745402 1_556
As1 Rb8 3.795764 1_555
P0 Rb1 3.465132 1_545
P0 Rb4 3.480187 1_555
P0 Rb6 3.506284 1_555
P0 Rb3 3.516961 1_655
P0 Rb9 3.554836 1_545
P0 Rb0 3.567610 1_555
P0 Rb8 3.616251 1_554
P0 Rb11 3.679967 1_555
P1 Rb9 3.405030 1_556
P1 Rb0 3.417847 1_565
P1 Rb8 3.449124 1_565
P1 Rb7 3.454557 1_555
P1 Rb1 3.490104 1_555
P1 Rb2 3.510660 1_455
P1 Rb5 3.577040 1_555
P1 Rb10 3.699327 1_555
P2 Rb3 3.423307 1_665
P2 Rb1 3.439695 1_655
P2 Rb10 3.520186 1_554
P2 Rb6 3.541039 1_555
P2 Rb4 3.553299 1_555
P2 Rb8 3.693607 1_564
P2 Rb2 3.763347 1_555
P3 Rb7 3.312631 1_555
P3 Rb2 3.415757 1_445
P3 Rb11 3.487221 1_556
P3 Rb5 3.570384 1_555
P3 Rb0 3.570601 1_455
P3 Rb3 3.673068 1_555
