# generated using pymatgen
data_InCu6BrO8
_symmetry_space_group_name_H-M   'P 1'
_cell_length_a   6.45687941
_cell_length_b   6.45688011
_cell_length_c   6.45687904
_cell_angle_alpha   59.99999560
_cell_angle_beta   59.99999199
_cell_angle_gamma   60.00000113
_symmetry_Int_Tables_number   1
_chemical_formula_structural   InCu6BrO8
_chemical_formula_sum   'In1 Cu6 Br1 O8'
_cell_volume   190.35005825
_cell_formula_units_Z   1
loop_
 _symmetry_equiv_pos_site_id
 _symmetry_equiv_pos_as_xyz
  1  'x, y, z'
loop_
 _atom_site_type_symbol
 _atom_site_label
 _atom_site_symmetry_multiplicity
 _atom_site_fract_x
 _atom_site_fract_y
 _atom_site_fract_z
 _atom_site_occupancy
  In  In0  1  0.00000000  0.00000000  0.00000000  1
  Cu  Cu0  1  0.00000000  0.00000000  0.50000000  1
  Cu  Cu1  1  0.50000000  0.00000000  0.00000000  1
  Cu  Cu2  1  0.00000000  0.50000000  0.00000000  1
  Cu  Cu3  1  0.50000000  0.50000000  0.00000000  1
  Cu  Cu4  1  0.00000000  0.50000000  0.50000000  1
  Cu  Cu5  1  0.50000000  0.00000000  0.50000000  1
  Br  Br0  1  0.50000000  0.50000000  0.50000000  1
  O  O0  1  0.14254445  0.14254445  0.57236866  1
  O  O1  1  0.14254445  0.57236866  0.14254445  1
  O  O2  1  0.57236866  0.14254445  0.14254445  1
  O  O3  1  0.85745555  0.42763134  0.85745555  1
  O  O4  1  0.14254445  0.14254445  0.14254445  1
  O  O5  1  0.85745555  0.85745555  0.85745555  1
  O  O6  1  0.85745555  0.85745555  0.42763134  1
  O  O7  1  0.42763134  0.85745555  0.85745555  1
loop_
_geom_bond_atom_site_label_1
_geom_bond_atom_site_label_2
_geom_bond_distance
_geom_bond_site_symmetry_2
In0 O0 2.254481 1_554
In0 O6 2.254481 1_445
In0 O7 2.254481 1_544
In0 O2 2.254481 1_455
In0 O3 2.254481 1_454
In0 O1 2.254481 1_545
In0 O4 2.254492 1_555
In0 O5 2.254492 1_444
Cu0 O4 1.902585 1_555
Cu0 O5 1.902585 1_445
Cu0 O0 1.902595 1_555
Cu0 O6 1.902595 1_445
Cu1 O5 1.902585 1_544
Cu1 O4 1.902585 1_555
Cu1 O2 1.902595 1_555
Cu1 O7 1.902595 1_544
Cu2 O4 1.902585 1_555
Cu2 O5 1.902585 1_454
Cu2 O1 1.902595 1_555
Cu2 O3 1.902595 1_454
Cu3 O3 1.902584 1_554
Cu3 O1 1.902584 1_555
Cu3 O2 1.902584 1_555
Cu3 O7 1.902584 1_554
Cu4 O3 1.902583 1_455
Cu4 O1 1.902583 1_555
Cu4 O6 1.902584 1_455
Cu4 O0 1.902584 1_555
Cu5 O7 1.902583 1_545
Cu5 O2 1.902583 1_555
Cu5 O6 1.902584 1_545
Cu5 O0 1.902584 1_555
Br0 Cu2 3.228439 1_556
Br0 Cu2 3.228439 1_655
Br0 Cu3 3.228440 1_556
Br0 Cu3 3.228440 1_555
Br0 Cu1 3.228440 1_556
Br0 Cu1 3.228440 1_565
Br0 Cu4 3.228440 1_555
Br0 Cu4 3.228440 1_655
Br0 Cu0 3.228440 1_565
Br0 Cu0 3.228440 1_655
Br0 Cu5 3.228440 1_555
Br0 Cu5 3.228440 1_565
