# generated using pymatgen
data_Rb6VTe4Br
_symmetry_space_group_name_H-M   'P 1'
_cell_length_a   11.57073944
_cell_length_b   11.57073864
_cell_length_c   8.63673059
_cell_angle_alpha   90.00000000
_cell_angle_beta   90.00000000
_cell_angle_gamma   119.99999669
_symmetry_Int_Tables_number   1
_chemical_formula_structural   Rb6VTe4Br
_chemical_formula_sum   'Rb12 V2 Te8 Br2'
_cell_volume   1001.38761679
_cell_formula_units_Z   2
loop_
 _symmetry_equiv_pos_site_id
 _symmetry_equiv_pos_as_xyz
  1  'x, y, z'
loop_
 _atom_site_type_symbol
 _atom_site_label
 _atom_site_symmetry_multiplicity
 _atom_site_fract_x
 _atom_site_fract_y
 _atom_site_fract_z
 _atom_site_occupancy
  Rb  Rb0  1  0.13115936  0.86884064  0.51194429  1
  Rb  Rb1  1  0.73767827  0.86884064  0.51194429  1
  Rb  Rb2  1  0.94661331  0.47330615  0.31902803  1
  Rb  Rb3  1  0.52669385  0.47330615  0.31902803  1
  Rb  Rb4  1  0.86884064  0.73767827  0.01194429  1
  Rb  Rb5  1  0.26232173  0.13115936  0.01194429  1
  Rb  Rb6  1  0.52669385  0.05338669  0.31902803  1
  Rb  Rb7  1  0.13115936  0.26232173  0.51194429  1
  Rb  Rb8  1  0.86884064  0.13115936  0.01194429  1
  Rb  Rb9  1  0.05338669  0.52669385  0.81902803  1
  Rb  Rb10  1  0.47330615  0.94661331  0.81902803  1
  Rb  Rb11  1  0.47330615  0.52669385  0.81902803  1
  V  V0  1  0.66666700  0.33333300  0.71368084  1
  V  V1  1  0.33333300  0.66666700  0.21368084  1
  Te  Te0  1  0.41512091  0.20756096  0.61331954  1
  Te  Te1  1  0.58487909  0.79243904  0.11331954  1
  Te  Te2  1  0.66666700  0.33333300  0.02445059  1
  Te  Te3  1  0.79243904  0.58487909  0.61331954  1
  Te  Te4  1  0.20756096  0.41512091  0.11331954  1
  Te  Te5  1  0.33333300  0.66666700  0.52445059  1
  Te  Te6  1  0.20756096  0.79243904  0.11331954  1
  Te  Te7  1  0.79243904  0.20756096  0.61331954  1
  Br  Br0  1  0.00000000  0.00000000  0.26959599  1
  Br  Br1  1  0.00000000  0.00000000  0.76959599  1
loop_
_geom_bond_atom_site_label_1
_geom_bond_atom_site_label_2
_geom_bond_distance
_geom_bond_site_symmetry_2
Rb0 Te0 3.747704 1_565
Rb0 Te3 3.747704 1_455
Rb0 Te6 3.767952 1_555
Rb0 Te5 4.053223 1_555
Rb1 Te7 3.747695 1_565
Rb1 Te3 3.747718 1_555
Rb1 Te1 3.767936 1_555
Rb1 Te5 4.053203 1_555
Rb2 Te7 3.689469 1_555
Rb2 Te3 3.689483 1_555
Rb2 Te2 3.787100 1_555
Rb2 Te4 3.841748 1_655
Rb2 Te6 3.841748 1_655
Rb3 Te0 3.689468 1_555
Rb3 Te3 3.689468 1_555
Rb3 Te2 3.787100 1_555
Rb3 Te1 3.841748 1_555
Rb3 Te4 3.841748 1_555
Rb4 Te6 3.747696 1_655
Rb4 Te1 3.747718 1_555
Rb4 Te3 3.767936 1_554
Rb4 Te2 4.053203 1_555
Rb5 Te6 3.747695 1_545
Rb5 Te4 3.747718 1_555
Rb5 Te0 3.767936 1_554
Rb5 Te2 4.053203 1_555
Rb6 Te7 3.689470 1_555
Rb6 Te0 3.689483 1_555
Rb6 Te2 3.787100 1_555
Rb6 Te1 3.841748 1_545
Rb6 Te6 3.841748 1_545
Rb7 Te7 3.747696 1_455
Rb7 Te0 3.747718 1_555
Rb7 Te4 3.767936 1_555
Rb7 Te5 4.053203 1_555
Rb8 Te1 3.747704 1_545
Rb8 Te4 3.747704 1_655
Rb8 Te7 3.767952 1_554
Rb8 Te2 4.053223 1_555
Rb9 Te6 3.689469 1_556
Rb9 Te4 3.689483 1_556
Rb9 Te5 3.787100 1_555
Rb9 Te3 3.841748 1_455
Rb9 Te7 3.841748 1_455
Rb10 Te6 3.689470 1_556
Rb10 Te1 3.689483 1_556
Rb10 Te5 3.787100 1_555
Rb10 Te0 3.841748 1_565
Rb10 Te7 3.841748 1_565
Rb11 Te1 3.689468 1_556
Rb11 Te4 3.689468 1_556
Rb11 Te5 3.787100 1_555
Rb11 Te0 3.841748 1_555
Rb11 Te3 3.841748 1_555
Te0 V0 2.665504 1_555
Te1 V1 2.665504 1_555
Te2 V0 2.684035 1_554
Te3 V0 2.665504 1_555
Te4 V1 2.665504 1_555
Te5 V1 2.684035 1_555
Te6 V1 2.665485 1_555
Te7 V0 2.665485 1_555
Br0 Rb0 3.360131 1_545
Br0 Rb7 3.360155 1_555
Br0 Rb1 3.360155 1_445
Br0 Rb8 3.444016 1_455
Br0 Rb4 3.444039 1_445
Br0 Rb5 3.444039 1_555
Br1 Rb8 3.360131 1_456
Br1 Rb4 3.360155 1_446
Br1 Rb5 3.360155 1_556
Br1 Rb0 3.444016 1_545
Br1 Rb7 3.444039 1_555
Br1 Rb1 3.444039 1_445
