# generated using pymatgen
data_Cs5CuAs2
_symmetry_space_group_name_H-M   'P 1'
_cell_length_a   6.28684474
_cell_length_b   6.28684431
_cell_length_c   19.75394902
_cell_angle_alpha   90.00000000
_cell_angle_beta   90.00000000
_cell_angle_gamma   119.99999206
_symmetry_Int_Tables_number   1
_chemical_formula_structural   Cs5CuAs2
_chemical_formula_sum   'Cs10 Cu2 As4'
_cell_volume   676.16087247
_cell_formula_units_Z   2
loop_
 _symmetry_equiv_pos_site_id
 _symmetry_equiv_pos_as_xyz
  1  'x, y, z'
loop_
 _atom_site_type_symbol
 _atom_site_label
 _atom_site_symmetry_multiplicity
 _atom_site_fract_x
 _atom_site_fract_y
 _atom_site_fract_z
 _atom_site_occupancy
  Cs  Cs0  1  0.33333300  0.66666700  0.54981656  1
  Cs  Cs1  1  0.66666700  0.33333300  0.04981656  1
  Cs  Cs2  1  0.66666700  0.33333300  0.45018344  1
  Cs  Cs3  1  0.33333300  0.66666700  0.95018344  1
  Cs  Cs4  1  0.00000000  0.00000000  0.14839195  1
  Cs  Cs5  1  0.00000000  0.00000000  0.64839195  1
  Cs  Cs6  1  0.00000000  0.00000000  0.85160805  1
  Cs  Cs7  1  0.00000000  0.00000000  0.35160805  1
  Cs  Cs8  1  0.33333300  0.66666700  0.75000000  1
  Cs  Cs9  1  0.66666700  0.33333300  0.25000000  1
  Cu  Cu0  1  0.33333300  0.66666700  0.25000000  1
  Cu  Cu1  1  0.66666700  0.33333300  0.75000000  1
  As  As0  1  0.33333300  0.66666700  0.36769192  1
  As  As1  1  0.66666700  0.33333300  0.86769192  1
  As  As2  1  0.66666700  0.33333300  0.63230808  1
  As  As3  1  0.33333300  0.66666700  0.13230808  1
loop_
_geom_bond_atom_site_label_1
_geom_bond_atom_site_label_2
_geom_bond_distance
_geom_bond_site_symmetry_2
Cs8 Cu1 3.629708 1_565
Cs8 Cu1 3.629708 1_455
Cs8 Cu1 3.629718 1_555
Cs9 Cu0 3.629708 1_545
Cs9 Cu0 3.629708 1_655
Cs9 Cu0 3.629718 1_555
As0 Cu0 2.324880 1_555
As0 Cs0 3.597681 1_555
As0 Cs7 3.643587 1_565
As0 Cs7 3.643592 1_555
As0 Cs7 3.643593 1_665
As0 Cs2 3.978713 1_565
As0 Cs2 3.978713 1_455
As0 Cs2 3.978723 1_555
As1 Cu1 2.324880 1_555
As1 Cs1 3.597681 1_556
As1 Cs6 3.643587 1_655
As1 Cs6 3.643592 1_665
As1 Cs6 3.643593 1_555
As1 Cs3 3.978713 1_545
As1 Cs3 3.978713 1_655
As1 Cs3 3.978723 1_555
As2 Cu1 2.324880 1_555
As2 Cs2 3.597681 1_555
As2 Cs5 3.643587 1_655
As2 Cs5 3.643592 1_665
As2 Cs5 3.643593 1_555
As2 Cs0 3.978713 1_545
As2 Cs0 3.978713 1_655
As2 Cs0 3.978723 1_555
As3 Cu0 2.324880 1_555
As3 Cs3 3.597681 1_554
As3 Cs4 3.643587 1_565
As3 Cs4 3.643592 1_555
As3 Cs4 3.643593 1_665
As3 Cs1 3.978713 1_565
As3 Cs1 3.978713 1_455
As3 Cs1 3.978723 1_555
