# generated using pymatgen
data_CoIrBr6
_symmetry_space_group_name_H-M   'P 1'
_cell_length_a   6.26835239
_cell_length_b   6.26835167
_cell_length_c   6.53219014
_cell_angle_alpha   81.43698073
_cell_angle_beta   81.43698434
_cell_angle_gamma   120.01903198
_symmetry_Int_Tables_number   1
_chemical_formula_structural   CoIrBr6
_chemical_formula_sum   'Co1 Ir1 Br6'
_cell_volume   212.14648594
_cell_formula_units_Z   1
loop_
 _symmetry_equiv_pos_site_id
 _symmetry_equiv_pos_as_xyz
  1  'x, y, z'
loop_
 _atom_site_type_symbol
 _atom_site_label
 _atom_site_symmetry_multiplicity
 _atom_site_fract_x
 _atom_site_fract_y
 _atom_site_fract_z
 _atom_site_occupancy
  Co  Co0  1  0.16665648  0.83334352  1.00000000  1
  Ir  Ir0  1  0.83329552  0.16670448  0.00000000  1
  Br  Br0  1  0.92723656  0.57848911  0.77959842  1
  Br  Br1  1  0.42151089  0.07276344  0.22040158  1
  Br  Br2  1  0.78997431  0.77983937  0.22082868  1
  Br  Br3  1  0.22016063  0.21002569  0.77917132  1
  Br  Br4  1  0.55824561  0.91708100  0.77913115  1
  Br  Br5  1  0.08291900  0.44175439  0.22086885  1
loop_
_geom_bond_atom_site_label_1
_geom_bond_atom_site_label_2
_geom_bond_distance
_geom_bond_site_symmetry_2
Br0 Co0 2.409685 1_655
Br0 Ir0 2.490421 1_556
Br1 Co0 2.409685 1_544
Br1 Ir0 2.490421 1_555
Br2 Co0 2.411996 1_654
Br2 Ir0 2.493580 1_565
Br3 Co0 2.411995 1_545
Br3 Ir0 2.493580 1_456
Br4 Co0 2.411001 1_555
Br4 Ir0 2.493230 1_566
Br5 Co0 2.411000 1_554
Br5 Ir0 2.493230 1_455
