# generated using pymatgen
data_Ba6YSc(BO3)6
_symmetry_space_group_name_H-M   'P 1'
_cell_length_a   8.08219148
_cell_length_b   8.08219098
_cell_length_c   8.08219206
_cell_angle_alpha   105.68417322
_cell_angle_beta   105.68417656
_cell_angle_gamma   105.68418702
_symmetry_Int_Tables_number   1
_chemical_formula_structural   Ba6YSc(BO3)6
_chemical_formula_sum   'Ba6 Y1 Sc1 B6 O18'
_cell_volume   454.53603225
_cell_formula_units_Z   1
loop_
 _symmetry_equiv_pos_site_id
 _symmetry_equiv_pos_as_xyz
  1  'x, y, z'
loop_
 _atom_site_type_symbol
 _atom_site_label
 _atom_site_symmetry_multiplicity
 _atom_site_fract_x
 _atom_site_fract_y
 _atom_site_fract_z
 _atom_site_occupancy
  Ba  Ba0  1  0.34651905  0.73605234  0.83481810  1
  Ba  Ba1  1  0.83481810  0.34651905  0.73605234  1
  Ba  Ba2  1  0.73605234  0.83481810  0.34651905  1
  Ba  Ba3  1  0.65348095  0.26394766  0.16518190  1
  Ba  Ba4  1  0.16518190  0.65348095  0.26394766  1
  Ba  Ba5  1  0.26394766  0.16518190  0.65348095  1
  Y  Y0  1  0.00000000  0.00000000  0.00000000  1
  Sc  Sc0  1  0.50000000  0.50000000  0.50000000  1
  B  B0  1  0.37073663  0.05070340  0.29602984  1
  B  B1  1  0.29602984  0.37073663  0.05070340  1
  B  B2  1  0.05070340  0.29602984  0.37073663  1
  B  B3  1  0.70397016  0.62926337  0.94929660  1
  B  B4  1  0.94929660  0.70397016  0.62926337  1
  B  B5  1  0.62926337  0.94929660  0.70397016  1
  O  O0  1  0.42837978  0.48818432  0.22463017  1
  O  O1  1  0.22463017  0.42837978  0.48818432  1
  O  O2  1  0.81710978  0.00727905  0.73324687  1
  O  O3  1  0.00727905  0.73324687  0.81710978  1
  O  O4  1  0.73324687  0.81710978  0.00727905  1
  O  O5  1  0.26675313  0.18289022  0.99272095  1
  O  O6  1  0.18289022  0.99272095  0.26675313  1
  O  O7  1  0.99272095  0.26675313  0.18289022  1
  O  O8  1  0.55924251  0.06500764  0.79570047  1
  O  O9  1  0.06500764  0.79570047  0.55924251  1
  O  O10  1  0.79570047  0.55924251  0.06500764  1
  O  O11  1  0.44075749  0.93499236  0.20429953  1
  O  O12  1  0.93499236  0.20429953  0.44075749  1
  O  O13  1  0.20429953  0.44075749  0.93499236  1
  O  O14  1  0.51181568  0.77536983  0.57162022  1
  O  O15  1  0.77536983  0.57162022  0.51181568  1
  O  O16  1  0.57162022  0.51181568  0.77536983  1
  O  O17  1  0.48818432  0.22463017  0.42837978  1
loop_
_geom_bond_atom_site_label_1
_geom_bond_atom_site_label_2
_geom_bond_distance
_geom_bond_site_symmetry_2
Ba0 O3 2.700175 1_555
Ba0 O11 2.755906 1_556
Ba0 O13 2.781616 1_555
Ba0 O14 2.843109 1_555
Ba0 O4 2.860967 1_556
Ba0 O8 2.898513 1_565
Ba0 O1 2.901634 1_555
Ba0 O16 2.934240 1_555
Ba0 O9 2.967063 1_555
Ba1 O2 2.700175 1_555
Ba1 O13 2.755906 1_655
Ba1 O12 2.781616 1_555
Ba1 O16 2.843109 1_555
Ba1 O3 2.860967 1_655
Ba1 O10 2.898514 1_556
Ba1 O17 2.901634 1_555
Ba1 O15 2.934239 1_555
Ba1 O8 2.967063 1_555
Ba2 O4 2.700176 1_555
Ba2 O12 2.755905 1_565
Ba2 O11 2.781616 1_555
Ba2 O15 2.843109 1_555
Ba2 O2 2.860967 1_565
Ba2 O9 2.898514 1_655
Ba2 O0 2.901633 1_555
Ba2 O14 2.934239 1_555
Ba2 O10 2.967063 1_555
Ba3 O7 2.700175 1_555
Ba3 O8 2.755906 1_554
Ba3 O10 2.781616 1_555
Ba3 O17 2.843109 1_555
Ba3 O5 2.860967 1_554
Ba3 O11 2.898513 1_545
Ba3 O15 2.901634 1_555
Ba3 O0 2.934240 1_555
Ba3 O12 2.967063 1_555
Ba4 O6 2.700175 1_555
Ba4 O10 2.755906 1_455
Ba4 O9 2.781616 1_555
Ba4 O0 2.843109 1_555
Ba4 O7 2.860967 1_455
Ba4 O13 2.898514 1_554
Ba4 O14 2.901634 1_555
Ba4 O1 2.934239 1_555
Ba4 O11 2.967063 1_555
Ba5 O5 2.700176 1_555
Ba5 O9 2.755905 1_545
Ba5 O8 2.781616 1_555
Ba5 O1 2.843109 1_555
Ba5 O6 2.860967 1_545
Ba5 O12 2.898514 1_455
Ba5 O16 2.901633 1_555
Ba5 O17 2.934239 1_555
Ba5 O13 2.967063 1_555
B0 O11 1.372093 1_545
B0 O17 1.392075 1_555
B0 O6 1.393452 1_545
B1 O13 1.372093 1_554
B1 O0 1.392075 1_555
B1 O5 1.393452 1_554
B2 O12 1.372093 1_455
B2 O1 1.392075 1_555
B2 O7 1.393452 1_455
B3 O10 1.372093 1_556
B3 O16 1.392075 1_555
B3 O4 1.393452 1_556
B4 O9 1.372093 1_655
B4 O15 1.392075 1_555
B4 O3 1.393452 1_655
B5 O8 1.372093 1_565
B5 O14 1.392075 1_555
B5 O2 1.393452 1_565
O0 Sc0 2.110950 1_555
O1 Sc0 2.110950 1_555
O2 Y0 2.286722 1_656
O3 Y0 2.286721 1_566
O4 Y0 2.286721 1_665
O5 Y0 2.286721 1_556
O6 Y0 2.286722 1_565
O7 Y0 2.286721 1_655
O14 Sc0 2.110950 1_555
O15 Sc0 2.110950 1_555
O16 Sc0 2.110950 1_555
O17 Sc0 2.110950 1_555
