# generated using pymatgen
data_Li7Cd(PPd3)4
_symmetry_space_group_name_H-M   'P 1'
_cell_length_a   7.14088933
_cell_length_b   7.14088950
_cell_length_c   7.14088917
_cell_angle_alpha   89.86200182
_cell_angle_beta   89.86200069
_cell_angle_gamma   89.86200585
_symmetry_Int_Tables_number   1
_chemical_formula_structural   Li7Cd(PPd3)4
_chemical_formula_sum   'Li7 Cd1 P4 Pd12'
_cell_volume   364.12721115
_cell_formula_units_Z   1
loop_
 _symmetry_equiv_pos_site_id
 _symmetry_equiv_pos_as_xyz
  1  'x, y, z'
loop_
 _atom_site_type_symbol
 _atom_site_label
 _atom_site_symmetry_multiplicity
 _atom_site_fract_x
 _atom_site_fract_y
 _atom_site_fract_z
 _atom_site_occupancy
  Li  Li0  1  0.03550491  0.46193665  0.55083413  1
  Li  Li1  1  0.55083413  0.03550491  0.46193665  1
  Li  Li2  1  0.46193665  0.55083413  0.03550491  1
  Li  Li3  1  0.20395457  0.71121600  0.79641601  1
  Li  Li4  1  0.95694799  0.95694799  0.95694799  1
  Li  Li5  1  0.79641601  0.20395457  0.71121600  1
  Li  Li6  1  0.71121600  0.79641601  0.20395457  1
  Cd  Cd0  1  0.30206470  0.30206470  0.30206470  1
  P  P0  1  0.86744608  0.37222219  0.11524719  1
  P  P1  1  0.37222219  0.11524719  0.86744608  1
  P  P2  1  0.62622087  0.62622087  0.62622087  1
  P  P3  1  0.11524719  0.86744608  0.37222219  1
  Pd  Pd0  1  0.17731854  0.07253501  0.61670133  1
  Pd  Pd1  1  0.43174595  0.37217317  0.67882340  1
  Pd  Pd2  1  0.07253501  0.61670133  0.17731854  1
  Pd  Pd3  1  0.92821347  0.12802147  0.31823191  1
  Pd  Pd4  1  0.31823191  0.92821347  0.12802147  1
  Pd  Pd5  1  0.67882340  0.43174595  0.37217317  1
  Pd  Pd6  1  0.57557306  0.87235508  0.82829836  1
  Pd  Pd7  1  0.61670133  0.17731854  0.07253501  1
  Pd  Pd8  1  0.37217317  0.67882340  0.43174595  1
  Pd  Pd9  1  0.87235508  0.82829836  0.57557306  1
  Pd  Pd10  1  0.12802147  0.31823191  0.92821347  1
  Pd  Pd11  1  0.82829836  0.57557306  0.87235508  1
loop_
_geom_bond_atom_site_label_1
_geom_bond_atom_site_label_2
_geom_bond_distance
_geom_bond_site_symmetry_2
Li0 Li5 2.759690 1_455
Li0 Li3 2.779654 1_555
Li0 Pd11 2.847104 1_455
Li0 Pd5 2.860260 1_455
Li0 Pd9 2.866932 1_455
Li0 Pd2 2.896419 1_555
Li0 Pd10 2.956953 1_555
Li0 Pd8 2.983846 1_555
Li0 Pd0 2.993546 1_555
Li0 Pd3 3.010895 1_455
Li0 Pd1 3.041913 1_555
Li1 Li6 2.759690 1_545
Li1 Li5 2.779654 1_555
Li1 Pd9 2.847104 1_545
Li1 Pd8 2.860260 1_545
Li1 Pd6 2.866932 1_545
Li1 Pd0 2.896419 1_555
Li1 Pd3 2.956953 1_555
Li1 Pd1 2.983846 1_555
Li1 Pd7 2.993546 1_555
Li1 Pd4 3.010895 1_545
Li1 Pd5 3.041913 1_555
Li2 Li3 2.759690 1_554
Li2 Li6 2.779654 1_555
Li2 Pd6 2.847104 1_554
Li2 Pd1 2.860260 1_554
Li2 Pd11 2.866932 1_554
Li2 Pd7 2.896419 1_555
Li2 Pd4 2.956953 1_555
Li2 Pd5 2.983846 1_555
Li2 Pd2 2.993546 1_555
Li2 Pd10 3.010895 1_554
Li2 Pd8 3.041913 1_555
Li3 Li4 2.736681 1_455
Li3 Pd8 2.874740 1_555
Li3 Pd0 2.884974 1_565
Li3 Pd11 2.903645 1_455
Li3 Pd6 2.904621 1_555
Li3 Pd4 2.950821 1_556
Li3 Pd2 2.952359 1_556
Li3 Pd9 2.965656 1_455
Li3 Pd10 3.007823 1_555
Li3 Pd1 3.032634 1_555
Li4 Li6 2.736681 1_556
Li4 Li5 2.736681 1_565
Li4 Pd3 2.863861 1_566
Li4 Pd10 2.863861 1_665
Li4 Pd4 2.863861 1_656
Li4 Pd9 2.940778 1_555
Li4 Pd6 2.940778 1_555
Li4 Pd11 2.940778 1_555
Li4 Pd0 3.006504 1_665
Li4 Pd2 3.006504 1_656
Li4 Pd7 3.006504 1_566
Li5 Pd1 2.874740 1_555
Li5 Pd7 2.884974 1_556
Li5 Pd9 2.903645 1_545
Li5 Pd11 2.904621 1_555
Li5 Pd10 2.950821 1_655
Li5 Pd0 2.952360 1_655
Li5 Pd6 2.965656 1_545
Li5 Pd3 3.007823 1_555
Li5 Pd5 3.032634 1_555
Li6 Pd5 2.874740 1_555
Li6 Pd2 2.884974 1_655
Li6 Pd6 2.903645 1_554
Li6 Pd9 2.904621 1_555
Li6 Pd3 2.950821 1_565
Li6 Pd7 2.952360 1_565
Li6 Pd11 2.965656 1_554
Li6 Pd4 3.007823 1_555
Li6 Pd8 3.032634 1_555
Cd0 Li2 2.839940 1_555
Cd0 Li0 2.839940 1_555
Cd0 Li1 2.839941 1_555
Cd0 Pd1 2.892597 1_555
Cd0 Pd5 2.892597 1_555
Cd0 Pd8 2.892597 1_555
Cd0 Pd0 2.916795 1_555
Cd0 Pd7 2.916795 1_555
Cd0 Pd2 2.916795 1_555
Cd0 Pd3 2.949351 1_455
Cd0 Pd10 2.949351 1_554
Cd0 Pd4 2.949351 1_545
P0 Pd11 2.276704 1_554
P0 Pd7 2.291901 1_555
P0 Pd3 2.305950 1_555
P0 Pd5 2.313017 1_555
P0 Pd10 2.319879 1_654
P0 Pd2 2.325566 1_655
P1 Pd6 2.276704 1_545
P1 Pd0 2.291901 1_555
P1 Pd10 2.305950 1_555
P1 Pd1 2.313017 1_555
P1 Pd4 2.319879 1_546
P1 Pd7 2.325567 1_556
P2 Pd9 2.304116 1_555
P2 Pd11 2.304116 1_555
P2 Pd6 2.304116 1_555
P2 Pd1 2.316689 1_555
P2 Pd5 2.316689 1_555
P2 Pd8 2.316689 1_555
P3 Pd9 2.276703 1_455
P3 Pd2 2.291901 1_555
P3 Pd4 2.305950 1_555
P3 Pd8 2.313017 1_555
P3 Pd3 2.319879 1_465
P3 Pd0 2.325566 1_565
