# generated using pymatgen
data_ErInAu
_symmetry_space_group_name_H-M   'P 1'
_cell_length_a   7.62515544
_cell_length_b   7.62515538
_cell_length_c   3.98291941
_cell_angle_alpha   90.00000000
_cell_angle_beta   90.00000000
_cell_angle_gamma   120.00000026
_symmetry_Int_Tables_number   1
_chemical_formula_structural   ErInAu
_chemical_formula_sum   'Er3 In3 Au3'
_cell_volume   200.55317821
_cell_formula_units_Z   3
loop_
 _symmetry_equiv_pos_site_id
 _symmetry_equiv_pos_as_xyz
  1  'x, y, z'
loop_
 _atom_site_type_symbol
 _atom_site_label
 _atom_site_symmetry_multiplicity
 _atom_site_fract_x
 _atom_site_fract_y
 _atom_site_fract_z
 _atom_site_occupancy
  Er  Er0  1  0.59572355  -0.00000000  0.50000000  1
  Er  Er1  1  0.40427645  0.40427645  0.50000000  1
  Er  Er2  1  0.00000000  0.59572355  0.50000000  1
  In  In0  1  0.00000000  0.26049838  -0.00000000  1
  In  In1  1  0.73950162  0.73950162  0.00000000  1
  In  In2  1  0.26049838  -0.00000000  -0.00000000  1
  Au  Au0  1  0.66666700  0.33333300  0.00000000  1
  Au  Au1  1  0.33333300  0.66666700  -0.00000000  1
  Au  Au2  1  -0.00000000  -0.00000000  0.50000000  1
loop_
_geom_bond_atom_site_label_1
_geom_bond_atom_site_label_2
_geom_bond_distance
_geom_bond_site_symmetry_2
Er0 In2 3.240337 1_556
Er0 In2 3.240337 1_555
Er0 In1 3.360221 1_545
Er0 In0 3.360221 1_655
Er0 In1 3.360221 1_546
Er0 In0 3.360221 1_656
Er1 In1 3.240337 1_555
Er1 In1 3.240337 1_556
Er1 In2 3.360221 1_556
Er1 In2 3.360221 1_555
Er1 In0 3.360221 1_555
Er1 In0 3.360221 1_556
Er2 In0 3.240337 1_555
Er2 In0 3.240337 1_556
Er2 In2 3.360221 1_566
Er2 In2 3.360221 1_565
Er2 In1 3.360221 1_456
Er2 In1 3.360221 1_455
In0 In1 3.440443 1_445
In0 In2 3.440443 1_555
In1 In2 3.440443 1_665
Au0 In0 2.860134 1_655
Au0 In2 2.860139 1_555
Au0 In1 2.860142 1_555
Au0 Er0 3.056781 1_555
Au0 Er0 3.056781 1_554
Au0 Er2 3.056783 1_654
Au0 Er2 3.056783 1_655
Au0 Er1 3.056787 1_555
Au0 Er1 3.056787 1_554
Au1 In2 2.860134 1_565
Au1 In0 2.860139 1_555
Au1 In1 2.860142 1_555
Au1 Er2 3.056781 1_554
Au1 Er2 3.056781 1_555
Au1 Er0 3.056783 1_565
Au1 Er0 3.056783 1_564
Au1 Er1 3.056787 1_554
Au1 Er1 3.056787 1_555
Au2 In1 2.812732 1_446
Au2 In0 2.812732 1_555
Au2 In0 2.812732 1_556
Au2 In1 2.812732 1_445
Au2 In2 2.812732 1_556
Au2 In2 2.812732 1_555
Au2 Er1 3.082671 1_555
Au2 Er2 3.082671 1_545
Au2 Er0 3.082671 1_455
