# generated using pymatgen
data_SrTa4Cd3O14
_symmetry_space_group_name_H-M   'P 1'
_cell_length_a   7.37387042
_cell_length_b   7.37387049
_cell_length_c   7.44035479
_cell_angle_alpha   60.29514966
_cell_angle_beta   60.29514779
_cell_angle_gamma   60.00000252
_symmetry_Int_Tables_number   1
_chemical_formula_structural   SrTa4Cd3O14
_chemical_formula_sum   'Sr1 Ta4 Cd3 O14'
_cell_volume   287.33781683
_cell_formula_units_Z   1
loop_
 _symmetry_equiv_pos_site_id
 _symmetry_equiv_pos_as_xyz
  1  'x, y, z'
loop_
 _atom_site_type_symbol
 _atom_site_label
 _atom_site_symmetry_multiplicity
 _atom_site_fract_x
 _atom_site_fract_y
 _atom_site_fract_z
 _atom_site_occupancy
  Sr  Sr0  1  0.12500000  0.12500000  0.62500000  1
  Ta  Ta0  1  0.62500000  0.62500000  0.62500000  1
  Ta  Ta1  1  0.12500000  0.62500000  0.62500000  1
  Ta  Ta2  1  0.62500000  0.62500000  0.12500000  1
  Ta  Ta3  1  0.62500000  0.12500000  0.62500000  1
  Cd  Cd0  1  0.12500000  0.12500000  0.12500000  1
  Cd  Cd1  1  0.62500000  0.12500000  0.12500000  1
  Cd  Cd2  1  0.12500000  0.62500000  0.12500000  1
  O  O0  1  0.56023293  0.56023293  0.93863283  1
  O  O1  1  0.30780172  0.30780172  0.68995817  1
  O  O2  1  0.94090130  0.56023293  0.93863283  1
  O  O3  1  0.94219828  0.55556061  0.56004183  1
  O  O4  1  0.56023293  0.94090130  0.93863283  1
  O  O5  1  0.55556061  0.94219828  0.56004183  1
  O  O6  1  0.30909870  0.68976707  0.31136717  1
  O  O7  1  0.69443939  0.30780172  0.68995817  1
  O  O8  1  0.26166861  0.26166861  0.21499516  1
  O  O9  1  0.98833139  0.98833139  0.03500484  1
  O  O10  1  0.94219828  0.94219828  0.56004183  1
  O  O11  1  0.68976707  0.30909870  0.31136717  1
  O  O12  1  0.30780172  0.69443939  0.68995817  1
  O  O13  1  0.68976707  0.68976707  0.31136717  1
loop_
_geom_bond_atom_site_label_1
_geom_bond_atom_site_label_2
_geom_bond_distance
_geom_bond_site_symmetry_2
Cd0 O8 2.198351 1_555
Cd0 O9 2.198351 1_445
Cd0 O4 2.676551 1_544
Cd0 O11 2.676551 1_455
Cd0 O2 2.676552 1_454
Cd0 O6 2.676552 1_545
Cd0 O10 2.698134 1_445
Cd0 O1 2.698134 1_554
Cd1 O9 2.198345 1_545
Cd1 O8 2.198345 1_555
Cd1 O0 2.676551 1_554
Cd1 O13 2.676551 1_545
Cd1 O11 2.676551 1_555
Cd1 O4 2.676551 1_544
Cd1 O5 2.698133 1_545
Cd1 O7 2.698133 1_554
Cd2 O9 2.198345 1_455
Cd2 O8 2.198345 1_555
Cd2 O0 2.676551 1_554
Cd2 O13 2.676551 1_455
Cd2 O6 2.676552 1_555
Cd2 O2 2.676552 1_454
Cd2 O3 2.698132 1_455
Cd2 O12 2.698132 1_554
O0 Ta2 1.979813 1_556
O0 Ta0 1.980066 1_555
O1 Ta3 1.973288 1_555
O1 Ta1 1.973288 1_555
O1 Sr0 2.641188 1_555
O2 Ta2 1.979813 1_556
O2 Ta1 1.980066 1_655
O3 Ta0 1.973286 1_555
O3 Ta1 1.973293 1_655
O3 Sr0 2.641181 1_655
O4 Ta2 1.979813 1_556
O4 Ta3 1.980066 1_565
O5 Ta0 1.973286 1_555
O5 Ta3 1.973293 1_565
O5 Sr0 2.641181 1_565
O6 Ta2 1.979813 1_555
O6 Ta1 1.980066 1_555
O7 Ta0 1.973286 1_555
O7 Ta3 1.973293 1_555
O7 Sr0 2.641181 1_655
O8 Sr0 2.501843 1_555
O9 Sr0 2.501843 1_664
O10 Ta3 1.973288 1_565
O10 Ta1 1.973288 1_655
O10 Sr0 2.641188 1_665
O11 Ta2 1.979813 1_555
O11 Ta3 1.980066 1_555
O12 Ta0 1.973286 1_555
O12 Ta1 1.973293 1_555
O12 Sr0 2.641181 1_565
O13 Ta2 1.979813 1_555
O13 Ta0 1.980066 1_555
