# generated using pymatgen
data_Y3TaOs2O
_symmetry_space_group_name_H-M   'P 1'
_cell_length_a   9.00813854
_cell_length_b   9.00813804
_cell_length_c   9.00813769
_cell_angle_alpha   59.99999402
_cell_angle_beta   59.99999588
_cell_angle_gamma   60.00000167
_symmetry_Int_Tables_number   1
_chemical_formula_structural   Y3TaOs2O
_chemical_formula_sum   'Y12 Ta4 Os8 O4'
_cell_volume   516.88041858
_cell_formula_units_Z   4
loop_
 _symmetry_equiv_pos_site_id
 _symmetry_equiv_pos_as_xyz
  1  'x, y, z'
loop_
 _atom_site_type_symbol
 _atom_site_label
 _atom_site_symmetry_multiplicity
 _atom_site_fract_x
 _atom_site_fract_y
 _atom_site_fract_z
 _atom_site_occupancy
  Y  Y0  1  0.80957252  0.80957252  0.19042748  1
  Y  Y1  1  0.19042748  0.19042748  0.80957252  1
  Y  Y2  1  0.80957252  0.19042748  0.80957252  1
  Y  Y3  1  0.19042748  0.80957252  0.19042748  1
  Y  Y4  1  0.19042748  0.80957252  0.80957252  1
  Y  Y5  1  0.80957252  0.19042748  0.19042748  1
  Y  Y6  1  0.44042748  0.44042748  0.05957252  1
  Y  Y7  1  0.05957252  0.05957252  0.44042748  1
  Y  Y8  1  0.44042748  0.05957252  0.44042748  1
  Y  Y9  1  0.05957252  0.44042748  0.05957252  1
  Y  Y10  1  0.05957252  0.44042748  0.44042748  1
  Y  Y11  1  0.44042748  0.05957252  0.05957252  1
  Ta  Ta0  1  0.12500000  0.62500000  0.62500000  1
  Ta  Ta1  1  0.62500000  0.12500000  0.62500000  1
  Ta  Ta2  1  0.62500000  0.62500000  0.12500000  1
  Ta  Ta3  1  0.62500000  0.62500000  0.62500000  1
  Os  Os0  1  0.73711443  0.42096152  0.42096152  1
  Os  Os1  1  0.42096152  0.73711443  0.42096152  1
  Os  Os2  1  0.42096152  0.42096152  0.73711443  1
  Os  Os3  1  0.42096152  0.42096152  0.42096152  1
  Os  Os4  1  0.51288557  0.82903848  0.82903848  1
  Os  Os5  1  0.82903848  0.51288557  0.82903848  1
  Os  Os6  1  0.82903848  0.82903848  0.51288557  1
  Os  Os7  1  0.82903848  0.82903848  0.82903848  1
  O  O0  1  0.62500000  0.12500000  0.12500000  1
  O  O1  1  0.12500000  0.62500000  0.12500000  1
  O  O2  1  0.12500000  0.12500000  0.62500000  1
  O  O3  1  0.12500000  0.12500000  0.12500000  1
loop_
_geom_bond_atom_site_label_1
_geom_bond_atom_site_label_2
_geom_bond_distance
_geom_bond_site_symmetry_2
Os0 Ta1 2.728037 1_555
Os0 Ta2 2.728037 1_555
Os0 Ta3 2.728045 1_555
Os0 Os2 2.847949 1_555
Os0 Os1 2.847949 1_555
Os0 Os3 2.847949 1_555
Os0 Y9 3.090061 1_655
Os0 Y7 3.090061 1_655
Os0 Y10 3.090066 1_655
Os0 Y5 3.263880 1_555
Os0 Y2 3.263887 1_555
Os0 Y0 3.263887 1_555
Os1 Ta2 2.728037 1_555
Os1 Ta0 2.728037 1_555
Os1 Ta3 2.728045 1_555
Os1 Os2 2.847949 1_555
Os1 Os3 2.847949 1_555
Os1 Y11 3.090060 1_565
Os1 Y7 3.090061 1_565
Os1 Y8 3.090066 1_565
Os1 Y3 3.263880 1_555
Os1 Y4 3.263887 1_555
Os1 Y0 3.263887 1_555
Os2 Ta1 2.728037 1_555
Os2 Ta0 2.728038 1_555
Os2 Ta3 2.728045 1_555
Os2 Os3 2.847949 1_555
Os2 Y11 3.090060 1_556
Os2 Y9 3.090061 1_556
Os2 Y6 3.090066 1_556
Os2 Y1 3.263880 1_555
Os2 Y4 3.263888 1_555
Os2 Y2 3.263888 1_555
Os3 Ta2 2.728042 1_555
Os3 Ta1 2.728042 1_555
Os3 Ta0 2.728042 1_555
Os3 Y6 3.090057 1_555
Os3 Y8 3.090057 1_555
Os3 Y10 3.090057 1_555
Os3 Y1 3.263883 1_555
Os3 Y3 3.263884 1_555
Os3 Y5 3.263884 1_555
Os4 Ta1 2.728037 1_565
Os4 Ta2 2.728037 1_556
Os4 Ta3 2.728045 1_555
Os4 Os6 2.847949 1_555
Os4 Os5 2.847949 1_555
Os4 Os7 2.847949 1_555
Os4 Y3 3.090061 1_556
Os4 Y1 3.090061 1_565
Os4 Y4 3.090066 1_555
Os4 Y11 3.263880 1_566
Os4 Y8 3.263887 1_565
Os4 Y6 3.263887 1_556
Os5 Ta2 2.728037 1_556
Os5 Ta0 2.728037 1_655
Os5 Ta3 2.728045 1_555
Os5 Os6 2.847949 1_555
Os5 Os7 2.847949 1_555
Os5 Y5 3.090060 1_556
Os5 Y1 3.090061 1_655
Os5 Y2 3.090066 1_555
Os5 Y9 3.263880 1_656
Os5 Y10 3.263887 1_655
Os5 Y6 3.263887 1_556
Os6 Ta1 2.728037 1_565
Os6 Ta0 2.728038 1_655
Os6 Ta3 2.728045 1_555
Os6 Os7 2.847949 1_555
Os6 Y5 3.090060 1_565
Os6 Y3 3.090061 1_655
Os6 Y0 3.090066 1_555
Os6 Y7 3.263880 1_665
Os6 Y10 3.263888 1_655
Os6 Y8 3.263888 1_565
Os7 Ta2 2.728042 1_556
Os7 Ta1 2.728042 1_565
Os7 Ta0 2.728042 1_655
Os7 Y0 3.090057 1_556
Os7 Y2 3.090057 1_565
Os7 Y4 3.090057 1_655
Os7 Y7 3.263883 1_665
Os7 Y9 3.263884 1_656
Os7 Y11 3.263884 1_566
O0 Y8 2.401332 1_555
O0 Y2 2.401332 1_554
O0 Y6 2.401332 1_555
O0 Y0 2.401332 1_545
O0 Y5 2.401332 1_555
O0 Y11 2.401332 1_555
O1 Y10 2.401332 1_555
O1 Y4 2.401332 1_554
O1 Y3 2.401332 1_555
O1 Y9 2.401332 1_555
O1 Y0 2.401332 1_455
O1 Y6 2.401332 1_555
O2 Y10 2.401332 1_555
O2 Y4 2.401332 1_545
O2 Y1 2.401332 1_555
O2 Y7 2.401332 1_555
O2 Y2 2.401332 1_455
O2 Y8 2.401332 1_555
O3 Y7 2.401332 1_555
O3 Y1 2.401332 1_554
O3 Y9 2.401332 1_555
O3 Y3 2.401332 1_545
O3 Y11 2.401332 1_555
O3 Y5 2.401332 1_455
