# generated using pymatgen
data_As8Ir3Rh
_symmetry_space_group_name_H-M   'P 1'
_cell_length_a   6.10009070
_cell_length_b   6.09141085
_cell_length_c   6.18795014
_cell_angle_alpha   66.92445506
_cell_angle_beta   90.00961457
_cell_angle_gamma   90.00081562
_symmetry_Int_Tables_number   1
_chemical_formula_structural   As8Ir3Rh
_chemical_formula_sum   'As8 Ir3 Rh1'
_cell_volume   211.53564430
_cell_formula_units_Z   1
loop_
 _symmetry_equiv_pos_site_id
 _symmetry_equiv_pos_as_xyz
  1  'x, y, z'
loop_
 _atom_site_type_symbol
 _atom_site_label
 _atom_site_symmetry_multiplicity
 _atom_site_fract_x
 _atom_site_fract_y
 _atom_site_fract_z
 _atom_site_occupancy
  As  As0  1  0.87140682  0.65882705  0.68424051  1
  As  As1  1  0.37069586  0.33810566  0.81546534  1
  As  As2  1  0.12854214  0.33892945  0.31657123  1
  As  As3  1  0.62969939  0.66503033  0.18249844  1
  As  As4  1  0.12632416  0.84169740  0.87452248  1
  As  As5  1  0.62586047  0.15445645  0.62622854  1
  As  As6  1  0.87316576  0.15453254  0.12799385  1
  As  As7  1  0.37381670  0.84821217  0.37224388  1
  Ir  Ir0  1  0.50112736  0.72730721  0.79060115  1
  Ir  Ir1  1  0.00010143  0.26994135  0.70988208  1
  Ir  Ir2  1  0.49969488  0.27487055  0.20794312  1
  Rh  Rh0  1  0.99956402  0.72808983  0.29180739  1
loop_
_geom_bond_atom_site_label_1
_geom_bond_atom_site_label_2
_geom_bond_distance
_geom_bond_site_symmetry_2
As0 Rh0 2.425611 1_555
As0 Ir0 2.434093 1_555
As0 Ir1 2.440976 1_655
As0 As4 2.464313 1_655
As1 Ir1 2.433511 1_555
As1 Ir2 2.435549 1_556
As1 Ir0 2.447734 1_555
As1 As5 2.464339 1_555
As2 Ir1 2.431603 1_555
As2 Ir2 2.436438 1_555
As2 Rh0 2.444832 1_455
As2 As6 2.465143 1_455
As3 Rh0 2.428718 1_555
As3 Ir0 2.432713 1_554
As3 Ir2 2.451265 1_555
As3 As7 2.467344 1_555
As4 Ir0 2.503321 1_555
As4 Rh0 2.518763 1_456
As4 Ir1 2.520346 1_565
As5 Ir1 2.501894 1_655
As5 Ir0 2.511818 1_545
As5 Ir2 2.518114 1_555
As6 Ir2 2.501400 1_555
As6 Rh0 2.511066 1_545
As6 Ir1 2.522410 1_654
As7 Rh0 2.506030 1_455
As7 Ir2 2.511323 1_565
As7 Ir0 2.520330 1_555
