# generated using pymatgen
data_K2Ba(AsRu)6
_symmetry_space_group_name_H-M   'P 1'
_cell_length_a   9.15037448
_cell_length_b   9.15037491
_cell_length_c   7.07082698
_cell_angle_alpha   67.15307250
_cell_angle_beta   67.15307165
_cell_angle_gamma   36.83994292
_symmetry_Int_Tables_number   1
_chemical_formula_structural   K2Ba(AsRu)6
_chemical_formula_sum   'K2 Ba1 As6 Ru6'
_cell_volume   323.88802499
_cell_formula_units_Z   1
loop_
 _symmetry_equiv_pos_site_id
 _symmetry_equiv_pos_as_xyz
  1  'x, y, z'
loop_
 _atom_site_type_symbol
 _atom_site_label
 _atom_site_symmetry_multiplicity
 _atom_site_fract_x
 _atom_site_fract_y
 _atom_site_fract_z
 _atom_site_occupancy
  K  K0  1  0.67066312  0.67066312  0.00035797  1
  K  K1  1  0.32933688  0.32933688  0.99964203  1
  Ba  Ba0  1  0.00000000  0.00000000  0.00000000  1
  As  As0  1  0.88327180  0.88327180  0.69967701  1
  As  As1  1  0.21677996  0.21677996  0.69973767  1
  As  As2  1  0.55008761  0.55008761  0.69944980  1
  As  As3  1  0.44991239  0.44991239  0.30055020  1
  As  As4  1  0.78322004  0.78322004  0.30026233  1
  As  As5  1  0.11672820  0.11672820  0.30032299  1
  Ru  Ru0  1  0.75020413  0.24979587  0.50000000  1
  Ru  Ru1  1  0.08327361  0.58356860  0.49928989  1
  Ru  Ru2  1  0.41643140  0.91672639  0.50071011  1
  Ru  Ru3  1  0.58356860  0.08327361  0.49928989  1
  Ru  Ru4  1  0.91672639  0.41643140  0.50071011  1
  Ru  Ru5  1  0.24979587  0.75020413  0.50000000  1
loop_
_geom_bond_atom_site_label_1
_geom_bond_atom_site_label_2
_geom_bond_distance
_geom_bond_site_symmetry_2
As0 Ru5 2.417772 1_655
As0 Ru0 2.417772 1_565
As0 Ru3 2.418283 1_565
As0 Ru1 2.418283 1_655
As0 K0 3.424021 1_556
As0 K1 3.479904 1_565
As0 K1 3.479904 1_655
As0 Ba0 3.484223 1_666
As1 Ru4 2.414893 1_455
As1 Ru2 2.414893 1_545
As1 Ru3 2.419402 1_555
As1 Ru1 2.419403 1_555
As1 K1 3.421738 1_555
As1 K0 3.482270 1_456
As1 K0 3.482270 1_546
As1 Ba0 3.483448 1_556
As2 Ru4 2.414932 1_555
As2 Ru2 2.414932 1_555
As2 Ru5 2.417111 1_555
As2 Ru0 2.417111 1_555
As2 Ba0 3.481331 1_566
As2 Ba0 3.481331 1_656
As2 K1 3.540879 1_555
As2 K0 3.543422 1_556
As3 Ru1 2.414932 1_555
As3 Ru3 2.414932 1_555
As3 Ru0 2.417111 1_555
As3 Ru5 2.417111 1_555
As3 Ba0 3.481331 1_655
As3 Ba0 3.481331 1_565
As3 K0 3.540879 1_555
As3 K1 3.543422 1_554
As4 Ru1 2.414893 1_655
As4 Ru3 2.414893 1_565
As4 Ru2 2.419402 1_555
As4 Ru4 2.419403 1_555
As4 K0 3.421738 1_555
As4 K1 3.482270 1_654
As4 K1 3.482270 1_564
As4 Ba0 3.483448 1_665
As5 Ru0 2.417772 1_455
As5 Ru5 2.417772 1_545
As5 Ru2 2.418283 1_545
As5 Ru4 2.418283 1_455
As5 K1 3.424021 1_554
As5 K0 3.479904 1_545
As5 K0 3.479904 1_455
As5 Ba0 3.484223 1_555
