# generated using pymatgen
data_Na8Al6Si6CO27
_symmetry_space_group_name_H-M   'P 1'
_cell_length_a   8.99240490
_cell_length_b   8.99240490
_cell_length_c   8.99240487
_cell_angle_alpha   90.02790539
_cell_angle_beta   90.02790539
_cell_angle_gamma   90.02790293
_symmetry_Int_Tables_number   1
_chemical_formula_structural   Na8Al6Si6CO27
_chemical_formula_sum   'Na8 Al6 Si6 C1 O27'
_cell_volume   727.15568595
_cell_formula_units_Z   1
loop_
 _symmetry_equiv_pos_site_id
 _symmetry_equiv_pos_as_xyz
  1  'x, y, z'
loop_
 _atom_site_type_symbol
 _atom_site_label
 _atom_site_symmetry_multiplicity
 _atom_site_fract_x
 _atom_site_fract_y
 _atom_site_fract_z
 _atom_site_occupancy
  Na  Na0  1  0.17536071  0.17537343  0.81900293  1
  Na  Na1  1  0.81900293  0.17536071  0.17537343  1
  Na  Na2  1  0.77904515  0.22932058  0.77937678  1
  Na  Na3  1  0.29942148  0.29942148  0.29942148  1
  Na  Na4  1  0.22932058  0.77937678  0.77904515  1
  Na  Na5  1  0.77937678  0.77904515  0.22932058  1
  Na  Na6  1  0.80005209  0.80005209  0.80005209  1
  Na  Na7  1  0.17537343  0.81900293  0.17536071  1
  Al  Al0  1  0.50003367  0.00290695  0.75019167  1
  Al  Al1  1  0.49835680  0.00020776  0.25165886  1
  Al  Al2  1  0.00020776  0.25165886  0.49835680  1
  Al  Al3  1  0.25165886  0.49835680  0.00020776  1
  Al  Al4  1  0.75019167  0.50003367  0.00290695  1
  Al  Al5  1  0.00290695  0.75019167  0.50003367  1
  Si  Si0  1  0.24946398  0.00260502  0.49887658  1
  Si  Si1  1  0.75132804  0.00186034  0.50080331  1
  Si  Si2  1  0.49887658  0.24946398  0.00260502  1
  Si  Si3  1  0.00186034  0.50080331  0.75132804  1
  Si  Si4  1  0.00260502  0.49887658  0.24946398  1
  Si  Si5  1  0.50080331  0.75132804  0.00186034  1
  C  C0  1  0.99434221  0.99434221  0.99434221  1
  O  O0  1  0.34738516  0.05895513  0.35778723  1
  O  O1  1  0.65664250  0.05106177  0.64677616  1
  O  O2  1  0.93603744  0.11263263  0.93621280  1
  O  O3  1  0.44482138  0.15117721  0.86159639  1
  O  O4  1  0.55454097  0.15042993  0.14298433  1
  O  O5  1  0.15042993  0.14298433  0.55454097  1
  O  O6  1  0.85008904  0.14210128  0.44538574  1
  O  O7  1  0.63921517  0.35054784  0.95163049  1
  O  O8  1  0.35778723  0.34738516  0.05895513  1
  O  O9  1  0.94993159  0.36225037  0.64857600  1
  O  O10  1  0.05895513  0.35778723  0.34738516  1
  O  O11  1  0.14210128  0.44538574  0.85008904  1
  O  O12  1  0.86159639  0.44482138  0.15117721  1
  O  O13  1  0.86080267  0.55157310  0.85226835  1
  O  O14  1  0.14298433  0.55454097  0.15042993  1
  O  O15  1  0.95163049  0.63921517  0.35054784  1
  O  O16  1  0.05106177  0.64677616  0.65664250  1
  O  O17  1  0.36225037  0.64857600  0.94993159  1
  O  O18  1  0.64677616  0.65664250  0.05106177  1
  O  O19  1  0.15117721  0.86159639  0.44482138  1
  O  O20  1  0.85226835  0.86080267  0.55157310  1
  O  O21  1  0.55157310  0.85226835  0.86080267  1
  O  O22  1  0.44538574  0.85008904  0.14210128  1
  O  O23  1  0.93621280  0.93603744  0.11263263  1
  O  O24  1  0.11263263  0.93621280  0.93603744  1
  O  O25  1  0.35054784  0.95163049  0.63921517  1
  O  O26  1  0.64857600  0.94993159  0.36225037  1
loop_
_geom_bond_atom_site_label_1
_geom_bond_atom_site_label_2
_geom_bond_distance
_geom_bond_site_symmetry_2
Na0 O5 2.406122 1_555
Na0 O24 2.460199 1_545
Na0 O2 2.462180 1_455
Na0 O11 2.462356 1_555
Na0 O3 2.462752 1_555
Na1 O4 2.406122 1_555
Na1 O2 2.460199 1_554
Na1 O23 2.462180 1_545
Na1 O6 2.462356 1_555
Na1 O12 2.462752 1_555
Na2 O2 2.254779 1_555
Na2 O7 2.273842 1_555
Na2 O9 2.274882 1_555
Na2 O1 2.279915 1_555
Na3 O10 2.266966 1_555
Na3 O0 2.266966 1_555
Na3 O8 2.266966 1_555
Na4 O24 2.254779 1_555
Na4 O25 2.273842 1_555
Na4 O17 2.274882 1_555
Na4 O16 2.279915 1_555
Na5 O23 2.254780 1_555
Na5 O15 2.273842 1_555
Na5 O26 2.274882 1_555
Na5 O18 2.279915 1_555
Na6 O13 2.348089 1_555
Na6 O21 2.348089 1_555
Na6 O20 2.348089 1_555
Na7 O14 2.406122 1_555
Na7 O23 2.460199 1_455
Na7 O24 2.462180 1_554
Na7 O22 2.462356 1_555
Na7 O19 2.462752 1_555
Al0 O25 1.735835 1_545
Al0 O3 1.740010 1_555
Al0 O1 1.742608 1_555
Al0 O21 1.743723 1_545
Al1 O22 1.737071 1_545
Al1 O26 1.737201 1_545
Al1 O0 1.741954 1_555
Al1 O4 1.742466 1_555
Al2 O6 1.737071 1_455
Al2 O9 1.737201 1_455
Al2 O10 1.741954 1_555
Al2 O5 1.742466 1_555
Al3 O11 1.737071 1_554
Al3 O17 1.737201 1_554
Al3 O8 1.741954 1_555
Al3 O14 1.742466 1_555
Al4 O7 1.735835 1_554
Al4 O12 1.740010 1_555
Al4 O18 1.742608 1_555
Al4 O13 1.743723 1_554
Al5 O15 1.735835 1_455
Al5 O19 1.740010 1_555
Al5 O16 1.742608 1_555
Al5 O20 1.743723 1_455
C0 O2 1.296317 1_565
C0 O24 1.296317 1_655
C0 O23 1.296317 1_556
O0 Si0 1.625759 1_555
O1 Si1 1.626239 1_555
O3 Si2 1.619621 1_556
O4 Si2 1.624216 1_555
O5 Si0 1.624216 1_555
O6 Si1 1.620924 1_555
O7 Si2 1.621364 1_556
O8 Si2 1.625759 1_555
O9 Si3 1.619268 1_655
O10 Si4 1.625759 1_555
O11 Si3 1.620924 1_555
O12 Si4 1.619621 1_655
O13 Si3 1.625603 1_655
O14 Si4 1.624216 1_555
O15 Si4 1.621364 1_655
O16 Si3 1.626239 1_555
O17 Si5 1.619268 1_556
O18 Si5 1.626239 1_555
O19 Si0 1.619621 1_565
O20 Si1 1.625603 1_565
O21 Si5 1.625603 1_556
O22 Si5 1.620924 1_555
O25 Si0 1.621364 1_565
O26 Si1 1.619268 1_565
