# generated using pymatgen
data_Rb8AlGeAu16
_symmetry_space_group_name_H-M   'P 1'
_cell_length_a   10.89023209
_cell_length_b   10.89023228
_cell_length_c   10.53414745
_cell_angle_alpha   79.11621268
_cell_angle_beta   79.11621323
_cell_angle_gamma   34.59950154
_symmetry_Int_Tables_number   1
_chemical_formula_structural   Rb8AlGeAu16
_chemical_formula_sum   'Rb8 Al1 Ge1 Au16'
_cell_volume   695.39848817
_cell_formula_units_Z   1
loop_
 _symmetry_equiv_pos_site_id
 _symmetry_equiv_pos_as_xyz
  1  'x, y, z'
loop_
 _atom_site_type_symbol
 _atom_site_label
 _atom_site_symmetry_multiplicity
 _atom_site_fract_x
 _atom_site_fract_y
 _atom_site_fract_z
 _atom_site_occupancy
  Rb  Rb0  1  0.48406210  0.48406210  0.84160045  1
  Rb  Rb1  1  0.51541265  0.51541265  0.15989313  1
  Rb  Rb2  1  0.28321003  0.28321003  0.91223419  1
  Rb  Rb3  1  0.71831473  0.71831473  0.08939184  1
  Rb  Rb4  1  0.22221355  0.22221355  0.60148116  1
  Rb  Rb5  1  0.77779081  0.77779081  0.40054545  1
  Rb  Rb6  1  0.04529363  0.04529363  0.64493743  1
  Rb  Rb7  1  0.95357721  0.95357721  0.35054252  1
  Al  Al0  1  0.33033629  0.33033629  0.23271243  1
  Ge  Ge0  1  0.66941737  0.66941737  0.76842984  1
  Au  Au0  1  0.78980709  0.78980709  0.73491322  1
  Au  Au1  1  0.21019264  0.21019264  0.26882695  1
  Au  Au2  1  0.62176893  0.62176893  0.57243896  1
  Au  Au3  1  0.37740799  0.37740799  0.42826247  1
  Au  Au4  1  0.49961227  0.49961227  0.50338037  1
  Au  Au5  1  0.00061389  0.00061389  0.99304069  1
  Au  Au6  1  0.10288957  0.10288957  0.14540870  1
  Au  Au7  1  0.89798391  0.89798391  0.85305823  1
  Au  Au8  1  0.83852764  0.37195820  0.35716851  1
  Au  Au9  1  0.62866406  0.15895977  0.64214774  1
  Au  Au10  1  0.15895977  0.62866406  0.64214774  1
  Au  Au11  1  0.37195820  0.83852764  0.35716851  1
  Au  Au12  1  0.09685820  0.66485091  0.09034018  1
  Au  Au13  1  0.33458636  0.90569019  0.90979556  1
  Au  Au14  1  0.90569019  0.33458636  0.90979556  1
  Au  Au15  1  0.66485091  0.09685820  0.09034018  1
loop_
_geom_bond_atom_site_label_1
_geom_bond_atom_site_label_2
_geom_bond_distance
_geom_bond_site_symmetry_2
Rb1 Rb7 3.892672 1_545
Rb1 Rb7 3.892672 1_455
Rb5 Rb7 3.588676 1_555
Rb6 Rb7 3.948992 1_445
Al0 Au3 2.449312 1_555
Al0 Au1 2.451698 1_555
Al0 Au15 2.472484 1_555
Al0 Au12 2.472484 1_555
Au0 Ge0 2.458185 1_555
Au0 Au7 2.777909 1_555
Au0 Au10 2.783144 1_655
Au0 Au9 2.783144 1_565
Au0 Rb5 3.580086 1_555
Au0 Rb2 3.727476 1_655
Au0 Rb2 3.727476 1_565
Au0 Rb3 3.736069 1_556
Au1 Au8 2.794632 1_455
Au1 Au11 2.794633 1_545
Au1 Au6 2.795853 1_555
Au1 Rb4 3.562103 1_555
Au1 Rb3 3.736651 1_455
Au1 Rb3 3.736651 1_545
Au1 Rb2 3.762993 1_554
Au2 Ge0 2.460386 1_555
Au2 Au4 2.777247 1_555
Au2 Au8 2.802098 1_555
Au2 Rb5 3.388493 1_555
Au2 Rb0 3.609478 1_555
Au2 Rb6 3.622077 1_565
Au2 Rb6 3.622077 1_655
Au2 Rb4 3.898300 1_655
Au2 Rb4 3.898300 1_565
Au3 Au9 2.794742 1_555
Au3 Au4 2.807049 1_555
Au3 Rb4 3.378724 1_555
Au3 Rb1 3.608201 1_555
Au3 Rb7 3.626809 1_545
Au3 Rb7 3.626809 1_455
Au4 Au9 2.831808 1_555
Au4 Au8 2.853448 1_555
Au4 Rb0 3.513239 1_555
Au4 Rb1 3.567933 1_555
Au4 Rb6 3.764809 1_655
Au4 Rb6 3.764809 1_565
Au4 Rb7 3.821737 1_455
Au4 Rb7 3.821737 1_545
Au5 Au7 2.823834 1_445
Au5 Au6 2.906872 1_556
Au5 Rb6 3.600327 1_555
Au5 Rb0 3.656239 1_455
Au5 Rb0 3.656239 1_545
Au5 Rb7 3.698966 1_446
Au5 Rb1 3.726318 1_546
Au5 Rb1 3.726318 1_456
Au6 Au8 2.829457 1_455
Au6 Rb7 3.414173 1_445
Au6 Rb1 3.702713 1_455
Au6 Rb1 3.702713 1_545
Au6 Rb3 4.004600 1_545
Au6 Rb3 4.004600 1_455
Au6 Rb2 4.056018 1_554
Au7 Au9 2.822979 1_565
Au7 Rb6 3.396195 1_665
Au7 Rb0 3.690626 1_655
Au7 Rb0 3.690626 1_565
Au7 Rb2 3.998014 1_565
Au7 Rb2 3.998014 1_655
Au7 Rb3 4.059368 1_556
Au8 Rb1 3.409780 1_555
Au8 Rb6 3.497568 1_655
Au8 Rb7 3.608781 1_545
Au8 Rb3 3.625647 1_555
Au8 Rb5 4.001897 1_555
Au9 Rb0 3.436589 1_555
Au9 Rb7 3.524181 1_545
Au9 Rb6 3.593013 1_655
Au9 Rb2 3.620804 1_555
Au9 Rb4 3.979385 1_555
Au10 Au3 2.794742 1_555
Au10 Au7 2.822979 1_455
Au10 Au4 2.831808 1_555
Au10 Au9 3.042215 1_555
Au10 Rb0 3.436589 1_555
Au10 Rb7 3.524181 1_455
Au10 Rb6 3.593013 1_565
Au10 Rb2 3.620804 1_555
Au10 Rb4 3.979385 1_555
Au11 Au2 2.802098 1_555
Au11 Au6 2.829457 1_565
Au11 Au4 2.853448 1_555
Au11 Au8 3.021911 1_555
Au11 Rb1 3.409781 1_555
Au11 Rb6 3.497568 1_565
Au11 Rb7 3.608781 1_455
Au11 Rb3 3.625647 1_555
Au11 Rb5 4.001897 1_555
Au12 Au7 2.824857 1_454
Au12 Au5 2.863631 1_564
Au12 Rb2 3.540258 1_554
Au12 Rb1 3.544125 1_555
Au12 Rb0 3.554030 1_554
Au12 Rb3 3.659975 1_455
Au12 Rb7 3.660182 1_455
Au13 Ge0 2.466731 1_555
Au13 Au6 2.804633 1_566
Au13 Au5 2.830889 1_565
Au13 Rb3 3.563100 1_556
Au13 Rb0 3.570439 1_555
Au13 Rb1 3.582586 1_556
Au13 Rb2 3.669317 1_565
Au13 Rb6 3.722037 1_565
Au14 Ge0 2.466731 1_555
Au14 Au6 2.804633 1_656
Au14 Au5 2.830889 1_655
Au14 Rb3 3.563100 1_556
Au14 Rb0 3.570439 1_555
Au14 Rb1 3.582586 1_556
Au14 Rb2 3.669317 1_655
Au14 Rb6 3.722037 1_655
Au15 Au7 2.824857 1_544
Au15 Au5 2.863631 1_654
Au15 Rb2 3.540258 1_554
Au15 Rb1 3.544125 1_555
Au15 Rb0 3.554030 1_554
Au15 Rb3 3.659975 1_545
Au15 Rb7 3.660182 1_545
