# generated using pymatgen
data_Sr3Ca7(TaN5)2
_symmetry_space_group_name_H-M   'P 1'
_cell_length_a   7.04565626
_cell_length_b   7.05232664
_cell_length_c   8.99067146
_cell_angle_alpha   80.00757279
_cell_angle_beta   79.74838372
_cell_angle_gamma   60.53938471
_symmetry_Int_Tables_number   1
_chemical_formula_structural   Sr3Ca7(TaN5)2
_chemical_formula_sum   'Sr3 Ca7 Ta2 N10'
_cell_volume   380.82389420
_cell_formula_units_Z   1
loop_
 _symmetry_equiv_pos_site_id
 _symmetry_equiv_pos_as_xyz
  1  'x, y, z'
loop_
 _atom_site_type_symbol
 _atom_site_label
 _atom_site_symmetry_multiplicity
 _atom_site_fract_x
 _atom_site_fract_y
 _atom_site_fract_z
 _atom_site_occupancy
  Sr  Sr0  1  0.87018661  0.35437977  0.84641167  1
  Sr  Sr1  1  0.86605592  0.86938023  0.83620775  1
  Sr  Sr2  1  0.74439643  0.74147872  0.52763836  1
  Ca  Ca0  1  0.74935541  0.26303425  0.50539831  1
  Ca  Ca1  1  0.61813212  0.14540831  0.15523259  1
  Ca  Ca2  1  0.35385349  0.87313918  0.83610322  1
  Ca  Ca3  1  0.26267518  0.74798692  0.50742796  1
  Ca  Ca4  1  0.24443506  0.24092775  0.49093644  1
  Ca  Ca5  1  0.15641583  0.14004788  0.16294536  1
  Ca  Ca6  1  0.15756416  0.61333228  0.15178815  1
  Ta  Ta0  1  0.62964655  0.63274228  0.21990942  1
  Ta  Ta1  1  0.37044860  0.37058504  0.76878212  1
  N  N0  1  0.91657890  0.46872014  0.30859768  1
  N  N1  1  0.99562332  0.98916256  0.04457496  1
  N  N2  1  0.64554246  0.68700802  0.00244410  1
  N  N3  1  0.53113198  0.53849508  0.68792748  1
  N  N4  1  0.47043167  0.91293905  0.31694191  1
  N  N5  1  0.52952898  0.09589220  0.67305546  1
  N  N6  1  0.46854338  0.46550930  0.30511592  1
  N  N7  1  0.32653962  0.32245525  0.98942899  1
  N  N8  1  0.05749478  0.05791713  0.63587705  1
  N  N9  1  0.09770855  0.53174367  0.67305609  1
loop_
_geom_bond_atom_site_label_1
_geom_bond_atom_site_label_2
_geom_bond_distance
_geom_bond_site_symmetry_2
Ca0 N8 2.326056 1_655
Ca0 N3 2.470047 1_555
Ca0 N5 2.531521 1_555
Ca0 N0 2.582896 1_555
Ca0 N6 2.606280 1_555
Ca1 N1 2.415297 1_545
Ca1 N7 2.433693 1_554
Ca1 N4 2.489373 1_545
Ca1 N6 2.496525 1_555
Ca2 N2 2.437698 1_556
Ca2 N3 2.550253 1_555
Ca2 N5 2.572226 1_565
Ca2 N8 2.673200 1_565
Ca2 N1 2.714749 1_456
Ca3 N8 2.318312 1_565
Ca3 N3 2.430146 1_555
Ca3 N9 2.496689 1_555
Ca3 N4 2.553466 1_555
Ca3 N6 2.618594 1_555
Ca4 N8 2.361405 1_555
Ca4 N5 2.516043 1_555
Ca4 N9 2.536408 1_555
Ca4 N4 2.660658 1_545
Ca4 N0 2.718064 1_455
Ca4 N6 2.897501 1_555
Ca5 N1 2.357168 1_445
Ca5 N7 2.383258 1_554
Ca5 N4 2.492441 1_545
Ca5 N0 2.521092 1_455
Ca6 N7 2.403026 1_554
Ca6 N1 2.405443 1_455
Ca6 N6 2.473333 1_555
Ca6 N0 2.502569 1_455
N0 Ta0 2.003556 1_555
N0 Sr2 2.686810 1_555
N1 Sr1 2.640624 1_554
N1 Sr0 2.705183 1_564
N2 Ta0 1.919949 1_555
N2 Sr0 2.583686 1_554
N2 Sr1 2.602645 1_554
N3 Ta1 1.984788 1_555
N3 Sr0 2.634639 1_555
N3 Sr2 2.648187 1_555
N4 Ta0 1.998412 1_555
N4 Sr2 2.643319 1_555
N5 Ta1 1.961952 1_555
N5 Sr2 2.637398 1_545
N5 Sr1 2.650367 1_545
N6 Ta0 1.989962 1_555
N7 Ta1 1.948694 1_555
N8 Sr1 2.626687 1_445
N8 Sr0 2.732382 1_455
N9 Ta1 1.956019 1_555
N9 Sr2 2.638053 1_455
N9 Sr0 2.640071 1_455
N9 Sr1 2.649984 1_455
