# generated using pymatgen
data_Cs4In2Au7
_symmetry_space_group_name_H-M   'P 1'
_cell_length_a   10.75839451
_cell_length_b   10.75839444
_cell_length_c   10.75839425
_cell_angle_alpha   37.67007583
_cell_angle_beta   37.67007812
_cell_angle_gamma   37.67007611
_symmetry_Int_Tables_number   1
_chemical_formula_structural   Cs4In2Au7
_chemical_formula_sum   'Cs4 In2 Au7'
_cell_volume   417.18499637
_cell_formula_units_Z   1
loop_
 _symmetry_equiv_pos_site_id
 _symmetry_equiv_pos_as_xyz
  1  'x, y, z'
loop_
 _atom_site_type_symbol
 _atom_site_label
 _atom_site_symmetry_multiplicity
 _atom_site_fract_x
 _atom_site_fract_y
 _atom_site_fract_z
 _atom_site_occupancy
  Cs  Cs0  1  0.81252396  0.81252396  0.81252396  1
  Cs  Cs1  1  0.68432936  0.68432936  0.68432936  1
  Cs  Cs2  1  0.31567064  0.31567064  0.31567064  1
  Cs  Cs3  1  0.18747604  0.18747604  0.18747604  1
  In  In0  1  0.45089258  0.45089258  0.45089258  1
  In  In1  1  0.54910742  0.54910742  0.54910742  1
  Au  Au0  1  0.78803963  0.78803963  0.19431451  1
  Au  Au1  1  0.21196037  0.80568549  0.21196037  1
  Au  Au2  1  0.78803963  0.19431451  0.78803963  1
  Au  Au3  1  0.80568549  0.21196037  0.21196037  1
  Au  Au4  1  0.19431451  0.78803963  0.78803963  1
  Au  Au5  1  0.00000000  0.00000000  0.00000000  1
  Au  Au6  1  0.21196037  0.21196037  0.80568549  1
loop_
_geom_bond_atom_site_label_1
_geom_bond_atom_site_label_2
_geom_bond_distance
_geom_bond_site_symmetry_2
Cs0 Cs1 3.839257 1_555
Cs0 In0 4.099173 1_565
Cs0 In0 4.099173 1_556
Cs0 In0 4.099173 1_655
Cs0 Cs3 4.199828 1_656
Cs0 Cs3 4.199829 1_566
Cs0 Cs3 4.199829 1_665
Cs1 In1 4.049717 1_555
Cs1 Cs2 4.147799 1_565
Cs1 Cs2 4.147799 1_556
Cs1 Cs2 4.147799 1_655
Cs2 Cs3 3.839257 1_555
Cs2 In0 4.049717 1_555
Cs3 In1 4.099173 1_545
Cs3 In1 4.099173 1_554
Cs3 In1 4.099173 1_455
In0 In1 2.941403 1_555
Au0 In1 2.679476 1_555
Au0 Au5 2.812268 1_665
Au0 Au2 2.822220 1_564
Au0 Au4 2.822220 1_654
Au0 Cs1 3.691715 1_555
Au0 Cs0 3.700560 1_554
Au0 Cs2 3.913280 1_655
Au0 Cs2 3.913280 1_565
Au0 Cs3 4.063892 1_655
Au0 Cs3 4.063892 1_565
Au1 In0 2.679476 1_555
Au1 Au5 2.812268 1_565
Au1 Au6 2.822220 1_564
Au1 Au3 2.822220 1_465
Au1 Cs2 3.691715 1_555
Au1 Cs3 3.700560 1_565
Au1 Cs1 3.913280 1_554
Au1 Cs1 3.913281 1_455
Au1 Cs0 4.063892 1_455
Au1 Cs0 4.063892 1_554
Au2 In1 2.679476 1_555
Au2 Au5 2.812268 1_656
Au2 Au4 2.822220 1_645
Au2 Cs1 3.691715 1_555
Au2 Cs0 3.700560 1_545
Au2 Cs2 3.913280 1_556
Au2 Cs2 3.913281 1_655
Au2 Cs3 4.063892 1_655
Au2 Cs3 4.063892 1_556
Au3 In0 2.679476 1_555
Au3 Au5 2.812268 1_655
Au3 Au6 2.822220 1_654
Au3 Cs2 3.691715 1_555
Au3 Cs3 3.700560 1_655
Au3 Cs1 3.913280 1_554
Au3 Cs1 3.913280 1_545
Au3 Cs0 4.063892 1_545
Au3 Cs0 4.063892 1_554
Au4 In1 2.679476 1_555
Au4 Au5 2.812268 1_566
Au4 Cs1 3.691715 1_555
Au4 Cs0 3.700560 1_455
Au4 Cs2 3.913280 1_556
Au4 Cs2 3.913280 1_565
Au4 Cs3 4.063892 1_565
Au4 Cs3 4.063892 1_556
Au5 Au6 2.812268 1_554
Au5 Cs1 4.045342 1_454
Au5 Cs2 4.045342 1_545
Au5 Cs1 4.045342 1_445
Au5 Cs2 4.045342 1_554
Au5 Cs1 4.045342 1_544
Au5 Cs2 4.045342 1_455
Au6 In0 2.679476 1_555
Au6 Cs2 3.691715 1_555
Au6 Cs3 3.700560 1_556
Au6 Cs1 3.913280 1_455
Au6 Cs1 3.913280 1_545
Au6 Cs0 4.063892 1_455
Au6 Cs0 4.063892 1_545
