# generated using pymatgen
data_KNO2
_symmetry_space_group_name_H-M   'P 1'
_cell_length_a   4.46024580
_cell_length_b   4.46024580
_cell_length_c   4.09086225
_cell_angle_alpha   70.21248327
_cell_angle_beta   70.21248327
_cell_angle_gamma   79.57690874
_symmetry_Int_Tables_number   1
_chemical_formula_structural   KNO2
_chemical_formula_sum   'K1 N1 O2'
_cell_volume   71.85356077
_cell_formula_units_Z   1
loop_
 _symmetry_equiv_pos_site_id
 _symmetry_equiv_pos_as_xyz
  1  'x, y, z'
loop_
 _atom_site_type_symbol
 _atom_site_label
 _atom_site_symmetry_multiplicity
 _atom_site_fract_x
 _atom_site_fract_y
 _atom_site_fract_z
 _atom_site_occupancy
  K  K0  1  0.00841488  0.00841488  0.96275678  1
  N  N0  1  0.48845691  0.48845691  0.54795647  1
  O  O0  1  0.39871665  0.77270856  0.39774537  1
  O  O1  1  0.77270856  0.39871665  0.39774537  1
loop_
_geom_bond_atom_site_label_1
_geom_bond_atom_site_label_2
_geom_bond_distance
_geom_bond_site_symmetry_2
K0 O1 2.733291 1_456
K0 O0 2.733291 1_546
K0 O1 2.781542 1_455
K0 O0 2.781542 1_545
K0 O0 2.856284 1_446
K0 O1 2.856284 1_446
K0 N0 2.964287 1_555
N0 O1 1.265164 1_555
N0 O0 1.265164 1_555
