# generated using pymatgen
data_Ta9Mn(SiB2)2
_symmetry_space_group_name_H-M   'P 1'
_cell_length_a   6.12690127
_cell_length_b   6.12690200
_cell_length_c   7.22276124
_cell_angle_alpha   115.09614493
_cell_angle_beta   115.09614392
_cell_angle_gamma   89.99999746
_symmetry_Int_Tables_number   1
_chemical_formula_structural   Ta9Mn(SiB2)2
_chemical_formula_sum   'Ta9 Mn1 Si2 B4'
_cell_volume   216.94385633
_cell_formula_units_Z   1
loop_
 _symmetry_equiv_pos_site_id
 _symmetry_equiv_pos_as_xyz
  1  'x, y, z'
loop_
 _atom_site_type_symbol
 _atom_site_label
 _atom_site_symmetry_multiplicity
 _atom_site_fract_x
 _atom_site_fract_y
 _atom_site_fract_z
 _atom_site_occupancy
  Ta  Ta0  1  0.00000000  0.00000000  0.00000000  1
  Ta  Ta1  1  0.03571735  0.52575096  0.72368441  1
  Ta  Ta2  1  0.68796806  0.19793445  0.72368441  1
  Ta  Ta3  1  0.19793445  0.03571735  0.72368441  1
  Ta  Ta4  1  0.52575096  0.68796806  0.72368441  1
  Ta  Ta5  1  0.96428265  0.47424904  0.27631559  1
  Ta  Ta6  1  0.31203194  0.80206555  0.27631559  1
  Ta  Ta7  1  0.80206555  0.96428265  0.27631559  1
  Ta  Ta8  1  0.47424904  0.31203194  0.27631559  1
  Mn  Mn0  1  0.50000000  0.50000000  0.00000000  1
  Si  Si0  1  0.24374242  0.24374242  0.48748385  1
  Si  Si1  1  0.75625758  0.75625758  0.51251615  1
  B  B0  1  0.38409551  0.88091549  0.00000000  1
  B  B1  1  0.61590449  0.11908451  1.00000000  1
  B  B2  1  0.11908451  0.38409551  1.00000000  1
  B  B3  1  0.88091549  0.61590449  0.00000000  1
loop_
_geom_bond_atom_site_label_1
_geom_bond_atom_site_label_2
_geom_bond_distance
_geom_bond_site_symmetry_2
Mn0 Si1 2.961918 1_555
Mn0 Si0 2.961918 1_554
Si0 Ta2 2.620003 1_555
Si0 Ta1 2.620003 1_555
Si0 Ta4 2.620003 1_555
Si0 Ta3 2.620003 1_555
Si0 Ta8 2.620016 1_555
Si0 Ta5 2.620021 1_455
Si0 Ta6 2.620026 1_545
Si0 Ta7 2.620030 1_445
Si0 Ta0 2.817252 1_555
Si1 Ta6 2.620003 1_555
Si1 Ta5 2.620003 1_555
Si1 Ta8 2.620003 1_555
Si1 Ta7 2.620003 1_555
Si1 Ta4 2.620016 1_555
Si1 Ta1 2.620021 1_655
Si1 Ta2 2.620026 1_565
Si1 Ta3 2.620030 1_665
Si1 Ta0 2.817252 1_666
B0 B1 2.036307 1_564
B0 Ta7 2.366814 1_555
B0 Ta4 2.366817 1_554
B0 Ta8 2.420389 1_565
B0 Ta3 2.420393 1_564
B0 Mn0 2.439480 1_555
B0 Ta1 2.444736 1_554
B0 Ta6 2.444742 1_555
B0 Ta0 2.463826 1_565
B1 Ta3 2.366814 1_555
B1 Ta8 2.366817 1_556
B1 Ta4 2.420389 1_545
B1 Ta7 2.420393 1_546
B1 Mn0 2.439480 1_556
B1 Ta5 2.444736 1_556
B1 Ta2 2.444742 1_555
B1 Ta0 2.463826 1_656
B2 B3 2.036307 1_456
B2 Ta6 2.366813 1_556
B2 Ta1 2.366818 1_555
B2 Ta2 2.420388 1_455
B2 Ta5 2.420394 1_456
B2 Mn0 2.439480 1_556
B2 Ta8 2.444739 1_556
B2 Ta3 2.444739 1_555
B2 Ta0 2.463826 1_556
B3 Ta2 2.366813 1_554
B3 Ta5 2.366818 1_555
B3 Ta6 2.420388 1_655
B3 Ta1 2.420394 1_654
B3 Mn0 2.439480 1_555
B3 Ta4 2.444739 1_554
B3 Ta7 2.444739 1_555
B3 Ta0 2.463826 1_665
