# generated using pymatgen
data_PdRhPb2O7
_symmetry_space_group_name_H-M   'P 1'
_cell_length_a   7.24700495
_cell_length_b   7.22009160
_cell_length_c   7.24700491
_cell_angle_alpha   60.12278029
_cell_angle_beta   60.23935840
_cell_angle_gamma   60.12278389
_symmetry_Int_Tables_number   1
_chemical_formula_structural   PdRhPb2O7
_chemical_formula_sum   'Pd2 Rh2 Pb4 O14'
_cell_volume   269.11053511
_cell_formula_units_Z   2
loop_
 _symmetry_equiv_pos_site_id
 _symmetry_equiv_pos_as_xyz
  1  'x, y, z'
loop_
 _atom_site_type_symbol
 _atom_site_label
 _atom_site_symmetry_multiplicity
 _atom_site_fract_x
 _atom_site_fract_y
 _atom_site_fract_z
 _atom_site_occupancy
  Pd  Pd0  1  0.62500000  0.12500000  0.62500000  1
  Pd  Pd1  1  0.62500000  0.62500000  0.62500000  1
  Rh  Rh0  1  0.12500000  0.62500000  0.62500000  1
  Rh  Rh1  1  0.62500000  0.62500000  0.12500000  1
  Pb  Pb0  1  0.62500000  0.12500000  0.12500000  1
  Pb  Pb1  1  0.12500000  0.62500000  0.12500000  1
  Pb  Pb2  1  0.12500000  0.12500000  0.62500000  1
  Pb  Pb3  1  0.12500000  0.12500000  0.12500000  1
  O  O0  1  0.70625607  0.70800925  0.29128708  1
  O  O1  1  0.29128708  0.29444860  0.70625607  1
  O  O2  1  0.70700975  0.29299025  0.70700975  1
  O  O3  1  0.29254767  0.70745233  0.29254767  1
  O  O4  1  0.29128708  0.70800925  0.70625607  1
  O  O5  1  0.70625607  0.29444860  0.29128708  1
  O  O6  1  0.54374393  0.54199075  0.95871292  1
  O  O7  1  0.95871292  0.95555140  0.54374393  1
  O  O8  1  0.54299025  0.95700975  0.54299025  1
  O  O9  1  0.95745233  0.54254767  0.95745233  1
  O  O10  1  0.95871292  0.54199075  0.54374393  1
  O  O11  1  0.54374393  0.95555140  0.95871292  1
  O  O12  1  0.25374383  0.24625617  0.25374383  1
  O  O13  1  0.99625617  0.00374383  0.99625617  1
loop_
_geom_bond_atom_site_label_1
_geom_bond_atom_site_label_2
_geom_bond_distance
_geom_bond_site_symmetry_2
O0 Rh1 1.983395 1_555
O0 Pd1 2.012081 1_555
O0 Pb0 2.487340 1_565
O0 Pb1 2.509486 1_655
O1 Rh0 1.983390 1_555
O1 Pd0 2.012082 1_555
O1 Pb2 2.487346 1_555
O1 Pb3 2.509487 1_556
O2 Pd0 1.991133 1_555
O2 Pd1 1.991134 1_555
O2 Pb0 2.504142 1_556
O2 Pb2 2.504142 1_655
O3 Rh0 2.005087 1_555
O3 Rh1 2.005087 1_555
O3 Pb1 2.491387 1_555
O3 Pb3 2.491388 1_565
O4 Rh0 1.983395 1_555
O4 Pd1 2.012081 1_555
O4 Pb2 2.487340 1_565
O4 Pb1 2.509486 1_556
O5 Rh1 1.983390 1_555
O5 Pd0 2.012082 1_555
O5 Pb0 2.487346 1_555
O5 Pb3 2.509487 1_655
O6 Rh1 1.983395 1_556
O6 Pd1 2.012081 1_555
O6 Pb0 2.487340 1_556
O6 Pb1 2.509486 1_556
O7 Rh0 1.983390 1_655
O7 Pd0 2.012082 1_565
O7 Pb2 2.487346 1_665
O7 Pb3 2.509487 1_665
O8 Pd0 1.991133 1_565
O8 Pd1 1.991134 1_555
O8 Pb0 2.504142 1_565
O8 Pb2 2.504142 1_565
O9 Rh0 2.005087 1_655
O9 Rh1 2.005087 1_556
O9 Pb1 2.491387 1_656
O9 Pb3 2.491388 1_656
O10 Rh0 1.983395 1_655
O10 Pd1 2.012081 1_555
O10 Pb2 2.487340 1_655
O10 Pb1 2.509486 1_655
O11 Rh1 1.983390 1_556
O11 Pd0 2.012082 1_565
O11 Pb0 2.487346 1_566
O11 Pb3 2.509487 1_566
O12 Pb2 2.202438 1_555
O12 Pb0 2.202439 1_555
O12 Pb3 2.235902 1_555
O12 Pb1 2.235903 1_555
O13 Pb2 2.202438 1_655
O13 Pb0 2.202439 1_556
O13 Pb3 2.235902 1_656
O13 Pb1 2.235903 1_646
