# generated using pymatgen
data_ScTa(NbB2)3
_symmetry_space_group_name_H-M   'P 1'
_cell_length_a   11.58638684
_cell_length_b   11.58638694
_cell_length_c   3.35092279
_cell_angle_alpha   90.00000000
_cell_angle_beta   90.00000000
_cell_angle_gamma   164.36087992
_symmetry_Int_Tables_number   1
_chemical_formula_structural   ScTa(NbB2)3
_chemical_formula_sum   'Sc1 Ta1 Nb3 B6'
_cell_volume   121.26736003
_cell_formula_units_Z   1
loop_
 _symmetry_equiv_pos_site_id
 _symmetry_equiv_pos_as_xyz
  1  'x, y, z'
loop_
 _atom_site_type_symbol
 _atom_site_label
 _atom_site_symmetry_multiplicity
 _atom_site_fract_x
 _atom_site_fract_y
 _atom_site_fract_z
 _atom_site_occupancy
  Sc  Sc0  1  0.00015056  0.99984944  0.00000000  1
  Ta  Ta0  1  0.61466501  0.38533499  0.00000000  1
  Nb  Nb0  1  0.19427888  0.80572112  0.50000000  1
  Nb  Nb1  1  0.80522272  0.19477728  0.50000000  1
  Nb  Nb2  1  0.38518231  0.61481769  0.00000000  1
  B  B0  1  0.46018982  0.53981018  0.50000000  1
  B  B1  1  0.54028502  0.45971498  0.50000000  1
  B  B2  1  0.27204614  0.72795386  0.00000000  1
  B  B3  1  0.72711852  0.27288148  0.00000000  1
  B  B4  1  0.08258101  0.91741899  0.50000000  1
  B  B5  1  0.91828002  0.08171998  0.50000000  1
loop_
_geom_bond_atom_site_label_1
_geom_bond_atom_site_label_2
_geom_bond_distance
_geom_bond_site_symmetry_2
B0 B1 1.838770 1_555
B0 B5 1.846796 1_455
B0 B5 1.846796 1_565
B0 Nb2 2.402572 1_555
B0 Nb2 2.402572 1_556
B0 Sc0 2.476636 1_656
B0 Sc0 2.476636 1_655
B0 Sc0 2.476636 1_545
B0 Sc0 2.476636 1_546
B1 B4 1.851430 1_655
B1 B4 1.851430 1_545
B1 Ta0 2.392268 1_556
B1 Ta0 2.392268 1_555
B1 Sc0 2.478116 1_545
B1 Sc0 2.478116 1_546
B1 Sc0 2.478116 1_656
B1 Sc0 2.478116 1_655
B2 B3 1.883818 1_455
B2 B3 1.883818 1_565
B2 Nb1 2.423267 1_565
B2 Nb1 2.423267 1_564
B2 Nb1 2.423267 1_455
B2 Nb1 2.423267 1_454
B2 Nb0 2.448379 1_555
B2 Nb0 2.448379 1_554
B2 Nb2 2.597301 1_555
B3 Nb0 2.420847 1_544
B3 Nb0 2.420847 1_545
B3 Nb0 2.420847 1_654
B3 Nb0 2.420847 1_655
B3 Nb1 2.454025 1_554
B3 Nb1 2.454025 1_555
B3 Ta0 2.581629 1_555
B4 Ta0 2.415500 1_566
B4 Ta0 2.415500 1_565
B4 Ta0 2.415501 1_456
B4 Ta0 2.415501 1_455
B4 Sc0 2.527504 1_555
B4 Sc0 2.527504 1_556
B4 Nb0 2.564282 1_555
B5 Nb2 2.422698 1_545
B5 Nb2 2.422698 1_546
B5 Nb2 2.422698 1_655
B5 Nb2 2.422698 1_656
B5 Sc0 2.517894 1_645
B5 Sc0 2.517894 1_646
B5 Nb1 2.595490 1_555
