# generated using pymatgen
data_Ta3Al2PdC
_symmetry_space_group_name_H-M   'P 1'
_cell_length_a   8.31205909
_cell_length_b   8.31205985
_cell_length_c   8.31205889
_cell_angle_alpha   60.00000383
_cell_angle_beta   60.00000077
_cell_angle_gamma   60.00000130
_symmetry_Int_Tables_number   1
_chemical_formula_structural   Ta3Al2PdC
_chemical_formula_sum   'Ta12 Al8 Pd4 C4'
_cell_volume   406.07936066
_cell_formula_units_Z   4
loop_
 _symmetry_equiv_pos_site_id
 _symmetry_equiv_pos_as_xyz
  1  'x, y, z'
loop_
 _atom_site_type_symbol
 _atom_site_label
 _atom_site_symmetry_multiplicity
 _atom_site_fract_x
 _atom_site_fract_y
 _atom_site_fract_z
 _atom_site_occupancy
  Ta  Ta0  1  0.56873898  0.93126102  0.56873898  1
  Ta  Ta1  1  0.31873898  0.68126102  0.68126102  1
  Ta  Ta2  1  0.68126102  0.31873898  0.31873898  1
  Ta  Ta3  1  0.31873898  0.68126102  0.31873898  1
  Ta  Ta4  1  0.68126102  0.68126102  0.31873898  1
  Ta  Ta5  1  0.31873898  0.31873898  0.68126102  1
  Ta  Ta6  1  0.56873898  0.56873898  0.93126102  1
  Ta  Ta7  1  0.93126102  0.56873898  0.56873898  1
  Ta  Ta8  1  0.56873898  0.93126102  0.93126102  1
  Ta  Ta9  1  0.93126102  0.93126102  0.56873898  1
  Ta  Ta10  1  0.68126102  0.31873898  0.68126102  1
  Ta  Ta11  1  0.93126102  0.56873898  0.93126102  1
  Al  Al0  1  0.91635693  0.91635693  0.91635693  1
  Al  Al1  1  0.99906880  0.33364307  0.33364307  1
  Al  Al2  1  0.33364307  0.99906880  0.33364307  1
  Al  Al3  1  0.33364307  0.33364307  0.99906880  1
  Al  Al4  1  0.91635693  0.25093120  0.91635693  1
  Al  Al5  1  0.91635693  0.91635693  0.25093120  1
  Al  Al6  1  0.25093120  0.91635693  0.91635693  1
  Al  Al7  1  0.33364307  0.33364307  0.33364307  1
  Pd  Pd0  1  0.12500000  0.12500000  0.12500000  1
  Pd  Pd1  1  0.62500000  0.12500000  0.12500000  1
  Pd  Pd2  1  0.12500000  0.62500000  0.12500000  1
  Pd  Pd3  1  0.12500000  0.12500000  0.62500000  1
  C  C0  1  0.62500000  0.62500000  0.62500000  1
  C  C1  1  0.12500000  0.62500000  0.62500000  1
  C  C2  1  0.62500000  0.12500000  0.62500000  1
  C  C3  1  0.62500000  0.62500000  0.12500000  1
loop_
_geom_bond_atom_site_label_1
_geom_bond_atom_site_label_2
_geom_bond_distance
_geom_bond_site_symmetry_2
Al0 Pd1 2.547147 1_566
Al0 Pd2 2.547147 1_656
Al0 Pd3 2.547147 1_665
Al1 Pd0 2.547143 1_655
Al1 Pd3 2.547156 1_655
Al1 Pd2 2.547156 1_655
Al2 Pd0 2.547142 1_565
Al2 Pd3 2.547156 1_565
Al2 Pd1 2.547156 1_565
Al3 Pd0 2.547143 1_556
Al3 Pd1 2.547156 1_556
Al3 Pd2 2.547156 1_556
Al4 Pd0 2.547142 1_656
Al4 Pd3 2.547156 1_655
Al4 Pd1 2.547156 1_556
Al5 Pd0 2.547143 1_665
Al5 Pd1 2.547156 1_565
Al5 Pd2 2.547156 1_655
Al6 Pd0 2.547143 1_566
Al6 Pd3 2.547156 1_565
Al6 Pd2 2.547156 1_556
Al7 Pd1 2.547147 1_555
Al7 Pd2 2.547147 1_555
Al7 Pd3 2.547147 1_555
Pd0 Ta8 3.082974 1_544
Pd0 Ta2 3.082974 1_455
Pd0 Ta9 3.082974 1_445
Pd0 Ta5 3.082974 1_554
Pd0 Ta11 3.082974 1_454
Pd0 Ta3 3.082974 1_545
Pd1 Ta2 3.082974 1_555
Pd1 Ta0 3.082974 1_545
Pd1 Ta8 3.082974 1_544
Pd1 Ta10 3.082974 1_554
Pd1 Ta6 3.082974 1_554
Pd1 Ta4 3.082974 1_545
Pd2 Ta7 3.082974 1_455
Pd2 Ta3 3.082974 1_555
Pd2 Ta1 3.082974 1_554
Pd2 Ta11 3.082974 1_454
Pd2 Ta6 3.082974 1_554
Pd2 Ta4 3.082974 1_455
Pd3 Ta0 3.082974 1_545
Pd3 Ta10 3.082974 1_455
Pd3 Ta5 3.082974 1_555
Pd3 Ta9 3.082974 1_445
Pd3 Ta7 3.082974 1_455
Pd3 Ta1 3.082974 1_545
C0 Ta6 2.180717 1_555
C0 Ta4 2.180717 1_555
C0 Ta7 2.180718 1_555
C0 Ta1 2.180718 1_555
C0 Ta0 2.180718 1_555
C0 Ta10 2.180718 1_555
C1 Ta1 2.180718 1_555
C1 Ta11 2.180718 1_455
C1 Ta3 2.180718 1_555
C1 Ta7 2.180718 1_455
C1 Ta9 2.180718 1_455
C1 Ta5 2.180718 1_555
C2 Ta9 2.180718 1_545
C2 Ta5 2.180718 1_555
C2 Ta10 2.180718 1_555
C2 Ta8 2.180718 1_545
C2 Ta2 2.180718 1_555
C2 Ta0 2.180718 1_545
C3 Ta4 2.180717 1_555
C3 Ta6 2.180717 1_554
C3 Ta11 2.180718 1_554
C3 Ta3 2.180718 1_555
C3 Ta8 2.180718 1_554
C3 Ta2 2.180718 1_555
