# generated using pymatgen
data_CsV(AgSe2)2
_symmetry_space_group_name_H-M   'P 1'
_cell_length_a   10.33101426
_cell_length_b   10.33101485
_cell_length_c   8.17979586
_cell_angle_alpha   90.00000000
_cell_angle_beta   90.00000000
_cell_angle_gamma   145.78113277
_symmetry_Int_Tables_number   1
_chemical_formula_structural   CsV(AgSe2)2
_chemical_formula_sum   'Cs2 V2 Ag4 Se8'
_cell_volume   490.95254387
_cell_formula_units_Z   2
loop_
 _symmetry_equiv_pos_site_id
 _symmetry_equiv_pos_as_xyz
  1  'x, y, z'
loop_
 _atom_site_type_symbol
 _atom_site_label
 _atom_site_symmetry_multiplicity
 _atom_site_fract_x
 _atom_site_fract_y
 _atom_site_fract_z
 _atom_site_occupancy
  Cs  Cs0  1  0.46541860  0.83069129  0.75000000  1
  Cs  Cs1  1  0.83069129  0.46541860  0.25000000  1
  V  V0  1  0.52156279  0.29864856  0.75000000  1
  V  V1  1  0.29864856  0.52156279  0.25000000  1
  Ag  Ag0  1  0.36248036  0.36248036  0.00000000  1
  Ag  Ag1  1  0.36248036  0.36248036  0.50000000  1
  Ag  Ag2  1  0.02338181  0.79894856  0.75000000  1
  Ag  Ag3  1  0.79894856  0.02338181  0.25000000  1
  Se  Se0  1  0.64255630  0.61770454  0.75000000  1
  Se  Se1  1  0.61770454  0.64255630  0.25000000  1
  Se  Se2  1  0.31556007  0.07493241  0.98695997  1
  Se  Se3  1  0.07493241  0.31556007  0.48695997  1
  Se  Se4  1  0.41163439  0.82692746  0.25000000  1
  Se  Se5  1  0.07493241  0.31556007  0.01304003  1
  Se  Se6  1  0.31556007  0.07493241  0.51304003  1
  Se  Se7  1  0.82692746  0.41163439  0.75000000  1
loop_
_geom_bond_atom_site_label_1
_geom_bond_atom_site_label_2
_geom_bond_distance
_geom_bond_site_symmetry_2
Cs0 Se7 3.591583 1_565
Cs0 Se5 3.704101 1_556
Cs0 Se3 3.704101 1_555
Cs0 Se0 3.853556 1_555
Cs0 Se7 3.876327 1_455
Cs0 Se4 4.123322 1_556
Cs0 Se4 4.123322 1_555
Cs0 Se5 4.148238 1_666
Cs0 Se3 4.148238 1_665
Cs1 Se4 3.591582 1_655
Cs1 Se6 3.704101 1_555
Cs1 Se2 3.704101 1_554
Cs1 Se1 3.853556 1_555
Cs1 Se4 3.876327 1_545
Cs1 Se7 4.123322 1_554
Cs1 Se7 4.123322 1_555
Cs1 Se6 4.148238 1_665
Cs1 Se2 4.148238 1_664
Ag0 Se5 2.586455 1_555
Ag0 Se2 2.586455 1_554
Ag0 Se0 2.624702 1_554
Ag0 Se1 2.624702 1_555
Ag1 Se3 2.586455 1_555
Ag1 Se6 2.586455 1_555
Ag1 Se0 2.624702 1_555
Ag1 Se1 2.624702 1_555
Ag2 Se7 2.588334 1_455
Ag2 Se2 2.600870 1_565
Ag2 Se6 2.600870 1_565
Ag2 Se0 2.608022 1_455
Ag3 Se4 2.588334 1_545
Ag3 Se3 2.600870 1_655
Ag3 Se5 2.600870 1_655
Ag3 Se1 2.608022 1_545
Se0 V0 2.369244 1_555
Se1 V1 2.369244 1_555
Se2 V0 2.343791 1_555
Se3 V1 2.343791 1_555
Se4 V1 2.285805 1_555
Se5 V1 2.343791 1_555
Se6 V0 2.343791 1_555
Se7 V0 2.285805 1_555
