# generated using pymatgen
data_Tb5Bi3
_symmetry_space_group_name_H-M   'P 1'
_cell_length_a   8.27534400
_cell_length_b   9.50801741
_cell_length_c   12.10331736
_cell_angle_alpha   90.00000000
_cell_angle_beta   90.00000000
_cell_angle_gamma   90.00000000
_symmetry_Int_Tables_number   1
_chemical_formula_structural   Tb5Bi3
_chemical_formula_sum   'Tb20 Bi12'
_cell_volume   952.31460629
_cell_formula_units_Z   4
loop_
 _symmetry_equiv_pos_site_id
 _symmetry_equiv_pos_as_xyz
  1  'x, y, z'
loop_
 _atom_site_type_symbol
 _atom_site_label
 _atom_site_symmetry_multiplicity
 _atom_site_fract_x
 _atom_site_fract_y
 _atom_site_fract_z
 _atom_site_occupancy
  Tb  Tb0  1  0.35501415  0.75000000  0.21430554  1
  Tb  Tb1  1  0.85501415  0.75000000  0.28569446  1
  Tb  Tb2  1  0.64498585  0.25000000  0.78569446  1
  Tb  Tb3  1  0.14498585  0.25000000  0.71430554  1
  Tb  Tb4  1  0.69443827  0.56288051  0.05889854  1
  Tb  Tb5  1  0.19443827  0.93711949  0.44110146  1
  Tb  Tb6  1  0.30556173  0.06288051  0.94110246  1
  Tb  Tb7  1  0.80556173  0.43711949  0.55889754  1
  Tb  Tb8  1  0.30556173  0.43711949  0.94110246  1
  Tb  Tb9  1  0.80556173  0.06288051  0.55889754  1
  Tb  Tb10  1  0.69443827  0.93711949  0.05889854  1
  Tb  Tb11  1  0.19443827  0.56288051  0.44110146  1
  Tb  Tb12  1  0.47489126  0.25000000  0.48803353  1
  Tb  Tb13  1  0.97489126  0.25000000  0.01196647  1
  Tb  Tb14  1  0.52510874  0.75000000  0.51196647  1
  Tb  Tb15  1  0.02510874  0.75000000  0.98803353  1
  Tb  Tb16  1  0.31508605  0.25000000  0.21906393  1
  Tb  Tb17  1  0.81508605  0.25000000  0.28093607  1
  Tb  Tb18  1  0.68491395  0.75000000  0.78093607  1
  Tb  Tb19  1  0.18491395  0.75000000  0.71906393  1
  Bi  Bi0  1  0.40972946  0.75000000  0.95821058  1
  Bi  Bi1  1  0.90972946  0.75000000  0.54178942  1
  Bi  Bi2  1  0.59027054  0.25000000  0.04178942  1
  Bi  Bi3  1  0.09027054  0.25000000  0.45821058  1
  Bi  Bi4  1  0.56648942  0.99553795  0.32611631  1
  Bi  Bi5  1  0.06648942  0.50446205  0.17388369  1
  Bi  Bi6  1  0.43351058  0.49553795  0.67388369  1
  Bi  Bi7  1  0.93351058  0.00446205  0.82611631  1
  Bi  Bi8  1  0.43351058  0.00446205  0.67388369  1
  Bi  Bi9  1  0.93351058  0.49553795  0.82611631  1
  Bi  Bi10  1  0.56648942  0.50446205  0.32611631  1
  Bi  Bi11  1  0.06648942  0.99553795  0.17388369  1
loop_
_geom_bond_atom_site_label_1
_geom_bond_atom_site_label_2
_geom_bond_distance
_geom_bond_site_symmetry_2
Bi0 Tb8 3.104164 1_555
Bi0 Tb6 3.104164 1_565
Bi0 Tb18 3.128816 1_555
Bi0 Tb0 3.132496 1_556
Bi0 Tb4 3.193976 1_556
Bi0 Tb10 3.193976 1_556
Bi0 Tb15 3.203271 1_555
Bi0 Tb19 3.440803 1_555
Bi1 Tb7 3.104164 1_555
Bi1 Tb9 3.104164 1_565
Bi1 Tb19 3.128816 1_655
Bi1 Tb1 3.132496 1_555
Bi1 Tb11 3.193976 1_655
Bi1 Tb5 3.193976 1_655
Bi1 Tb14 3.203271 1_555
Bi1 Tb18 3.440803 1_555
Bi2 Tb10 3.104165 1_545
Bi2 Tb4 3.104165 1_555
Bi2 Tb16 3.128816 1_555
Bi2 Tb2 3.132496 1_554
Bi2 Tb8 3.193972 1_554
Bi2 Tb6 3.193972 1_554
Bi2 Tb13 3.203271 1_555
Bi2 Tb17 3.440803 1_555
Bi3 Tb5 3.104165 1_545
Bi3 Tb11 3.104165 1_555
Bi3 Tb17 3.128816 1_455
Bi3 Tb3 3.132496 1_555
Bi3 Tb7 3.193972 1_455
Bi3 Tb9 3.193972 1_455
Bi3 Tb12 3.203271 1_555
Bi3 Tb16 3.440803 1_555
Bi4 Tb12 3.204493 1_565
Bi4 Tb0 3.216246 1_555
Bi4 Tb17 3.222550 1_565
Bi4 Tb14 3.259960 1_555
Bi4 Tb1 3.374973 1_555
Bi4 Tb5 3.424132 1_555
Bi4 Tb16 3.443939 1_565
Bi4 Tb10 3.448160 1_555
Bi4 Tb9 3.501707 1_565
Bi5 Tb13 3.204493 1_455
Bi5 Tb1 3.216246 1_455
Bi5 Tb16 3.222550 1_555
Bi5 Tb15 3.259960 1_554
Bi5 Tb0 3.374973 1_555
Bi5 Tb4 3.424132 1_455
Bi5 Tb17 3.443939 1_455
Bi5 Tb11 3.448160 1_555
Bi5 Tb8 3.501707 1_554
Bi6 Tb14 3.204493 1_555
Bi6 Tb2 3.216246 1_555
Bi6 Tb19 3.222550 1_555
Bi6 Tb12 3.259960 1_555
Bi6 Tb3 3.374973 1_555
Bi6 Tb7 3.424136 1_555
Bi6 Tb18 3.443939 1_555
Bi6 Tb8 3.448171 1_555
Bi6 Tb11 3.501716 1_555
Bi7 Tb15 3.204493 1_645
Bi7 Tb3 3.216246 1_655
Bi7 Tb18 3.222550 1_545
Bi7 Tb13 3.259960 1_556
Bi7 Tb2 3.374973 1_555
Bi7 Tb6 3.424136 1_655
Bi7 Tb19 3.443939 1_645
Bi7 Tb9 3.448171 1_555
Bi7 Tb10 3.501716 1_546
Bi8 Tb14 3.204493 1_545
Bi8 Tb2 3.216246 1_555
Bi8 Tb19 3.222550 1_545
Bi8 Tb12 3.259960 1_555
Bi8 Tb3 3.374973 1_555
Bi8 Tb9 3.424136 1_555
Bi8 Tb18 3.443939 1_545
Bi8 Tb6 3.448171 1_555
Bi8 Tb5 3.501716 1_545
Bi9 Tb15 3.204493 1_655
Bi9 Tb3 3.216246 1_655
Bi9 Tb18 3.222550 1_555
Bi9 Tb13 3.259960 1_556
Bi9 Tb2 3.374973 1_555
Bi9 Tb8 3.424136 1_655
Bi9 Tb19 3.443939 1_655
Bi9 Tb7 3.448171 1_555
Bi9 Tb4 3.501716 1_556
Bi10 Tb12 3.204493 1_555
Bi10 Tb0 3.216246 1_555
Bi10 Tb17 3.222550 1_555
Bi10 Tb14 3.259960 1_555
Bi10 Tb1 3.374973 1_555
Bi10 Tb11 3.424132 1_555
Bi10 Tb16 3.443939 1_555
Bi10 Tb4 3.448160 1_555
Bi10 Tb7 3.501707 1_555
Bi11 Tb13 3.204493 1_465
Bi11 Tb1 3.216246 1_455
Bi11 Tb16 3.222550 1_565
Bi11 Tb15 3.259960 1_554
Bi11 Tb0 3.374973 1_555
Bi11 Tb10 3.424132 1_455
Bi11 Tb17 3.443939 1_465
Bi11 Tb5 3.448160 1_555
Bi11 Tb6 3.501707 1_564
