# generated using pymatgen
data_TaNb2(Ni10B3)2
_symmetry_space_group_name_H-M   'P 1'
_cell_length_a   7.43178830
_cell_length_b   7.43178896
_cell_length_c   7.43178959
_cell_angle_alpha   59.99999719
_cell_angle_beta   59.99999424
_cell_angle_gamma   59.99999911
_symmetry_Int_Tables_number   1
_chemical_formula_structural   TaNb2(Ni10B3)2
_chemical_formula_sum   'Ta1 Nb2 Ni20 B6'
_cell_volume   290.24521958
_cell_formula_units_Z   1
loop_
 _symmetry_equiv_pos_site_id
 _symmetry_equiv_pos_as_xyz
  1  'x, y, z'
loop_
 _atom_site_type_symbol
 _atom_site_label
 _atom_site_symmetry_multiplicity
 _atom_site_fract_x
 _atom_site_fract_y
 _atom_site_fract_z
 _atom_site_occupancy
  Ta  Ta0  1  0.00000000  0.00000000  0.00000000  1
  Nb  Nb0  1  0.25000000  0.25000000  0.25000000  1
  Nb  Nb1  1  0.75000000  0.75000000  0.75000000  1
  Ni  Ni0  1  0.34358867  0.00000000  0.00000000  1
  Ni  Ni1  1  0.65641133  0.00000000  1.00000000  1
  Ni  Ni2  1  1.00000000  0.34358867  0.65641133  1
  Ni  Ni3  1  0.00000000  0.65641133  0.34358867  1
  Ni  Ni4  1  1.00000000  0.34358867  0.00000000  1
  Ni  Ni5  1  0.65641133  0.00000000  0.34358867  1
  Ni  Ni6  1  0.00000000  0.65641133  1.00000000  1
  Ni  Ni7  1  0.34358867  0.00000000  0.65641133  1
  Ni  Ni8  1  0.00000000  0.00000000  0.34358867  1
  Ni  Ni9  1  0.00000000  0.00000000  0.65641133  1
  Ni  Ni10  1  0.65641133  0.34358867  1.00000000  1
  Ni  Ni11  1  0.34358867  0.65641133  0.00000000  1
  Ni  Ni12  1  0.38460968  0.38460968  0.38460968  1
  Ni  Ni13  1  0.61539032  0.61539032  0.61539032  1
  Ni  Ni14  1  0.38460968  0.38460968  0.84617197  1
  Ni  Ni15  1  0.38460968  0.84617197  0.38460968  1
  Ni  Ni16  1  0.61539032  0.61539032  0.15382803  1
  Ni  Ni17  1  0.61539032  0.15382803  0.61539032  1
  Ni  Ni18  1  0.84617197  0.38460968  0.38460968  1
  Ni  Ni19  1  0.15382803  0.61539032  0.61539032  1
  B  B0  1  0.73305283  0.26694717  0.26694717  1
  B  B1  1  0.26694717  0.73305283  0.73305283  1
  B  B2  1  0.26694717  0.73305283  0.26694717  1
  B  B3  1  0.73305283  0.26694717  0.73305283  1
  B  B4  1  0.26694717  0.26694717  0.73305283  1
  B  B5  1  0.73305283  0.73305283  0.26694717  1
loop_
_geom_bond_atom_site_label_1
_geom_bond_atom_site_label_2
_geom_bond_distance
_geom_bond_site_symmetry_2
Nb0 Ni18 2.450440 1_455
Nb0 Ni15 2.450441 1_545
Nb0 Ni14 2.450441 1_554
Nb0 Ni12 2.450447 1_555
Nb1 Ni19 2.450440 1_655
Nb1 Ni17 2.450441 1_565
Nb1 Ni16 2.450441 1_556
Nb1 Ni13 2.450447 1_555
Ni0 Ta0 2.553478 1_555
Ni1 Ta0 2.553478 1_656
Ni2 Ta0 2.553478 1_656
Ni3 Ta0 2.553478 1_565
Ni4 Ta0 2.553478 1_655
Ni5 Ta0 2.553478 1_655
Ni6 Ta0 2.553478 1_566
Ni7 Ta0 2.553478 1_556
Ni8 Ta0 2.553479 1_555
Ni9 Ta0 2.553479 1_556
Ni10 Ta0 2.553478 1_656
Ni11 Ta0 2.553478 1_565
B0 Ni4 2.064041 1_555
B0 Ni8 2.064041 1_655
B0 Ni5 2.064041 1_555
B0 Ni10 2.064041 1_554
B0 Ni12 2.114453 1_555
B0 Ni16 2.114453 1_555
B0 Ni17 2.114454 1_555
B0 Ni18 2.114460 1_555
B1 Ni6 2.064041 1_555
B1 Ni9 2.064041 1_565
B1 Ni7 2.064041 1_565
B1 Ni11 2.064041 1_556
B1 Ni13 2.114453 1_555
B1 Ni14 2.114453 1_555
B1 Ni15 2.114454 1_555
B1 Ni19 2.114460 1_555
B2 Ni3 2.064041 1_555
B2 Ni8 2.064041 1_565
B2 Ni0 2.064041 1_565
B2 Ni11 2.064041 1_555
B2 Ni16 2.114453 1_555
B2 Ni12 2.114454 1_555
B2 Ni19 2.114454 1_555
B2 Ni15 2.114460 1_555
B3 Ni2 2.064041 1_555
B3 Ni9 2.064041 1_655
B3 Ni1 2.064041 1_555
B3 Ni10 2.064041 1_555
B3 Ni14 2.114453 1_555
B3 Ni13 2.114454 1_555
B3 Ni18 2.114454 1_555
B3 Ni17 2.114460 1_555
B4 Ni4 2.064041 1_456
B4 Ni2 2.064041 1_455
B4 Ni0 2.064041 1_556
B4 Ni7 2.064041 1_555
B4 Ni17 2.114453 1_555
B4 Ni19 2.114453 1_555
B4 Ni12 2.114454 1_555
B4 Ni14 2.114460 1_555
B5 Ni6 2.064041 1_654
B5 Ni3 2.064041 1_655
B5 Ni1 2.064041 1_564
B5 Ni5 2.064041 1_565
B5 Ni15 2.114453 1_555
B5 Ni18 2.114453 1_555
B5 Ni13 2.114454 1_555
B5 Ni16 2.114460 1_555
