# generated using pymatgen
data_NaInGa2Se5
_symmetry_space_group_name_H-M   'P 1'
_cell_length_a   9.84375738
_cell_length_b   9.91868472
_cell_length_c   9.85389017
_cell_angle_alpha   91.04139883
_cell_angle_beta   90.69820486
_cell_angle_gamma   90.92518687
_symmetry_Int_Tables_number   1
_chemical_formula_structural   NaInGa2Se5
_chemical_formula_sum   'Na4 In4 Ga8 Se20'
_cell_volume   961.74625134
_cell_formula_units_Z   4
loop_
 _symmetry_equiv_pos_site_id
 _symmetry_equiv_pos_as_xyz
  1  'x, y, z'
loop_
 _atom_site_type_symbol
 _atom_site_label
 _atom_site_symmetry_multiplicity
 _atom_site_fract_x
 _atom_site_fract_y
 _atom_site_fract_z
 _atom_site_occupancy
  Na  Na0  1  0.25502406  0.00234099  0.74125111  1
  Na  Na1  1  0.73370522  0.25917297  0.99854728  1
  Na  Na2  1  0.00072374  0.74233804  0.25555305  1
  Na  Na3  1  0.49953258  0.49966626  0.49709724  1
  In  In0  1  0.84691160  0.87993501  0.57274168  1
  In  In1  1  0.57184472  0.84850973  0.88013186  1
  In  In2  1  0.87600300  0.57412940  0.84538828  1
  In  In3  1  0.16080594  0.42352887  0.12646283  1
  Ga  Ga0  1  0.12445663  0.15941390  0.42662927  1
  Ga  Ga1  1  0.42774263  0.11980050  0.16735975  1
  Ga  Ga2  1  0.74371549  0.16197291  0.34436823  1
  Ga  Ga3  1  0.34640433  0.74417975  0.16745855  1
  Ga  Ga4  1  0.16567628  0.34700307  0.73932405  1
  Ga  Ga5  1  0.25833064  0.65278343  0.83084377  1
  Ga  Ga6  1  0.83326896  0.25641635  0.65155391  1
  Ga  Ga7  1  0.65523173  0.83147937  0.25554707  1
  Se  Se0  1  0.18433392  0.81057292  0.99993932  1
  Se  Se1  1  0.81604041  0.99709516  0.18236393  1
  Se  Se2  1  0.18134667  0.16453716  0.18246422  1
  Se  Se3  1  0.83580700  0.83669773  0.83573623  1
  Se  Se4  1  0.99849702  0.18847716  0.81549831  1
  Se  Se5  1  0.91150459  0.49555391  0.09122644  1
  Se  Se6  1  0.09116482  0.92814827  0.49063710  1
  Se  Se7  1  0.48647120  0.08954325  0.93143441  1
  Se  Se8  1  0.74528666  0.68642621  0.42220342  1
  Se  Se9  1  0.42278492  0.74786617  0.68440415  1
  Se  Se10  1  0.68497127  0.42267441  0.73847758  1
  Se  Se11  1  0.25731641  0.58141251  0.31764041  1
  Se  Se12  1  0.30489956  0.25399376  0.56731644  1
  Se  Se13  1  0.57039996  0.30181294  0.25606030  1
  Se  Se14  1  0.67440428  0.07880584  0.56898615  1
  Se  Se15  1  0.56847474  0.67440506  0.07809244  1
  Se  Se16  1  0.07833313  0.56962811  0.67391491  1
  Se  Se17  1  0.32473547  0.43043290  0.91723781  1
  Se  Se18  1  0.93012634  0.31205136  0.42750351  1
  Se  Se19  1  0.43372210  0.92719366  0.31860599  1
loop_
_geom_bond_atom_site_label_1
_geom_bond_atom_site_label_2
_geom_bond_distance
_geom_bond_site_symmetry_2
Na0 Se6 3.006718 1_545
Na0 Se7 3.037142 1_555
Na0 Se9 3.085046 1_545
Na0 Se12 3.089561 1_555
Na0 Se4 3.235257 1_455
Na0 Se0 3.282791 1_545
Na1 Se7 2.996534 1_555
Na1 Se5 3.024080 1_556
Na1 Se13 3.047021 1_556
Na1 Se10 3.094150 1_555
Na1 Se4 3.266023 1_555
Na1 Se1 3.301268 1_546
Na2 Se5 3.022707 1_455
Na2 Se6 3.049086 1_555
Na2 Se8 3.068458 1_455
Na2 Se11 3.070821 1_555
Na2 Se0 3.194138 1_554
Na2 Se1 3.223788 1_455
Na3 Se11 3.079162 1_555
Na3 Se10 3.094829 1_555
Na3 Se8 3.126790 1_555
Na3 Se13 3.145528 1_555
Na3 Se9 3.157023 1_555
Na3 Se12 3.167032 1_555
In0 Se8 2.585233 1_555
In0 Se6 2.586229 1_655
In0 Se14 2.623962 1_565
In0 Se3 2.637732 1_555
In1 Se9 2.585159 1_555
In1 Se7 2.590125 1_565
In1 Se15 2.628799 1_556
In1 Se3 2.644307 1_555
In2 Se5 2.579662 1_556
In2 Se10 2.589532 1_555
In2 Se16 2.627923 1_655
In2 Se3 2.643770 1_555
In3 Se5 2.588089 1_455
In3 Se11 2.589376 1_555
In3 Se17 2.634735 1_554
In3 Se2 2.647643 1_555
Ga0 Se12 2.407455 1_555
Ga0 Se6 2.408385 1_545
Ga0 Se18 2.458648 1_455
Ga0 Se2 2.478160 1_555
Ga1 Se13 2.413715 1_555
Ga1 Se7 2.417000 1_554
Ga1 Se19 2.445259 1_545
Ga1 Se2 2.478521 1_555
Ga2 Se13 2.382407 1_555
Ga2 Se1 2.387491 1_545
Ga2 Se18 2.466771 1_555
Ga2 Se14 2.475872 1_555
Ga3 Se11 2.374500 1_555
Ga3 Se0 2.390195 1_554
Ga3 Se19 2.464220 1_555
Ga3 Se15 2.471169 1_555
Ga4 Se12 2.375440 1_555
Ga4 Se4 2.394461 1_455
Ga4 Se17 2.459341 1_555
Ga4 Se16 2.475906 1_555
Ga5 Se9 2.376856 1_555
Ga5 Se0 2.393322 1_555
Ga5 Se16 2.459804 1_555
Ga5 Se17 2.473291 1_555
Ga6 Se10 2.375071 1_555
Ga6 Se4 2.391699 1_555
Ga6 Se14 2.457417 1_555
Ga6 Se18 2.483223 1_555
Ga7 Se8 2.375766 1_555
Ga7 Se1 2.389801 1_555
Ga7 Se15 2.456805 1_555
Ga7 Se19 2.473933 1_555
