# generated using pymatgen
data_CaScAlSiO6
_symmetry_space_group_name_H-M   'P 1'
_cell_length_a   9.08390000
_cell_length_b   5.51211600
_cell_length_c   10.02240370
_cell_angle_alpha   74.10933743
_cell_angle_beta   90.00000000
_cell_angle_gamma   90.00000000
_symmetry_Int_Tables_number   1
_chemical_formula_structural   CaScAlSiO6
_chemical_formula_sum   'Ca4 Sc4 Al4 Si4 O24'
_cell_volume   482.65966913
_cell_formula_units_Z   4
loop_
 _symmetry_equiv_pos_site_id
 _symmetry_equiv_pos_as_xyz
  1  'x, y, z'
loop_
 _atom_site_type_symbol
 _atom_site_label
 _atom_site_symmetry_multiplicity
 _atom_site_fract_x
 _atom_site_fract_y
 _atom_site_fract_z
 _atom_site_occupancy
  Ca  Ca0  1  0.81055400  0.75140600  0.99694600  1
  Ca  Ca1  1  0.31055400  0.24859400  0.50305400  1
  Ca  Ca2  1  0.68944600  0.75140600  0.49694600  1
  Ca  Ca3  1  0.18944600  0.24859400  0.00305400  1
  Sc  Sc0  1  0.90246800  0.26056700  0.49771700  1
  Sc  Sc1  1  0.40246800  0.73943300  0.00228300  1
  Sc  Sc2  1  0.59753200  0.26056700  0.99771700  1
  Sc  Sc3  1  0.09753200  0.73943300  0.50228300  1
  Al  Al0  1  0.59011900  0.44475800  0.28849300  1
  Al  Al1  1  0.90988100  0.44475800  0.78849300  1
  Al  Al2  1  0.09011900  0.55524200  0.21150700  1
  Al  Al3  1  0.40988100  0.55524200  0.71150700  1
  Si  Si0  1  0.59281500  0.05936500  0.70706200  1
  Si  Si1  1  0.09281500  0.94063500  0.79293800  1
  Si  Si2  1  0.90718500  0.05936500  0.20706200  1
  Si  Si3  1  0.40718500  0.94063500  0.29293800  1
  O  O0  1  0.98426200  0.13360200  0.85078100  1
  O  O1  1  0.47451400  0.65197000  0.35495300  1
  O  O2  1  0.75568300  0.46776100  0.37079200  1
  O  O3  1  0.59103700  0.53507700  0.10619900  1
  O  O4  1  0.59173200  0.98324300  0.87864200  1
  O  O5  1  0.25209900  0.96374800  0.86327200  1
  O  O6  1  0.97451400  0.34803000  0.14504700  1
  O  O7  1  0.75209900  0.03625200  0.63672800  1
  O  O8  1  0.09173200  0.01675700  0.62135800  1
  O  O9  1  0.74431700  0.46776100  0.87079200  1
  O  O10  1  0.51573800  0.13360200  0.35078100  1
  O  O11  1  0.09103700  0.46492300  0.39380100  1
  O  O12  1  0.90896300  0.53507700  0.60619900  1
  O  O13  1  0.48426200  0.86639800  0.64921900  1
  O  O14  1  0.25568300  0.53223900  0.12920800  1
  O  O15  1  0.90826800  0.98324300  0.37864200  1
  O  O16  1  0.24790100  0.96374800  0.36327200  1
  O  O17  1  0.02548600  0.65197000  0.85495300  1
  O  O18  1  0.74790100  0.03625200  0.13672800  1
  O  O19  1  0.40826800  0.01675700  0.12135800  1
  O  O20  1  0.40896300  0.46492300  0.89380100  1
  O  O21  1  0.24431700  0.53223900  0.62920800  1
  O  O22  1  0.52548600  0.34803000  0.64504700  1
  O  O23  1  0.01573800  0.86639800  0.14921900  1
loop_
_geom_bond_atom_site_label_1
_geom_bond_atom_site_label_2
_geom_bond_distance
_geom_bond_site_symmetry_2
Ca0 O9 2.342574 1_555
Ca0 O3 2.425321 1_556
Ca0 O18 2.440561 1_566
Ca0 O4 2.482008 1_555
Ca0 O17 2.562176 1_655
Ca0 O23 2.595113 1_656
Ca0 O0 2.717377 1_565
Ca0 O6 2.749182 1_556
Ca1 O21 2.342574 1_555
Ca1 O11 2.425321 1_555
Ca1 O16 2.440561 1_545
Ca1 O8 2.482008 1_555
Ca1 O22 2.562176 1_555
Ca1 O10 2.595113 1_555
Ca1 O13 2.717377 1_545
Ca1 O1 2.749182 1_555
Ca2 O2 2.342574 1_555
Ca2 O12 2.425321 1_555
Ca2 O7 2.440561 1_565
Ca2 O15 2.482008 1_555
Ca2 O1 2.562176 1_555
Ca2 O13 2.595113 1_555
Ca2 O10 2.717377 1_565
Ca2 O22 2.749182 1_555
Ca3 O14 2.342574 1_555
Ca3 O20 2.425321 1_554
Ca3 O5 2.440561 1_544
Ca3 O19 2.482008 1_555
Ca3 O6 2.562176 1_455
Ca3 O0 2.595113 1_454
Ca3 O23 2.717377 1_545
Ca3 O17 2.749182 1_554
Al0 O2 1.736553 1_555
Al0 O3 1.757227 1_555
Al0 O10 1.789298 1_555
Al0 O1 1.807666 1_555
Al1 O9 1.736553 1_555
Al1 O12 1.757227 1_555
Al1 O0 1.789298 1_555
Al1 O17 1.807666 1_655
Al2 O14 1.736553 1_555
Al2 O11 1.757227 1_555
Al2 O23 1.789298 1_555
Al2 O6 1.807666 1_455
Al3 O21 1.736553 1_555
Al3 O20 1.757227 1_555
Al3 O13 1.789298 1_555
Al3 O22 1.807666 1_555
O0 Si1 1.666577 1_645
O1 Si3 1.658490 1_555
O2 Sc0 1.976079 1_555
O3 Sc2 2.091902 1_554
O3 Sc1 2.155293 1_555
O4 Si0 1.654753 1_565
O4 Sc2 2.182377 1_565
O4 Sc1 2.320678 1_556
O5 Si1 1.629691 1_555
O5 Sc1 2.095790 1_556
O6 Si2 1.658490 1_555
O7 Si0 1.629691 1_555
O7 Sc0 2.095790 1_555
O8 Si1 1.654753 1_545
O8 Sc3 2.182377 1_545
O8 Sc0 2.320678 1_455
O9 Sc2 1.976079 1_555
O10 Si3 1.666577 1_545
O11 Sc3 2.091902 1_555
O11 Sc0 2.155293 1_455
O12 Sc0 2.091902 1_555
O12 Sc3 2.155293 1_655
O13 Si0 1.666577 1_565
O14 Sc1 1.976079 1_555
O15 Si2 1.654753 1_565
O15 Sc0 2.182377 1_565
O15 Sc3 2.320678 1_655
O16 Si3 1.629691 1_555
O16 Sc3 2.095790 1_555
O17 Si1 1.658490 1_555
O18 Si2 1.629691 1_555
O18 Sc2 2.095790 1_554
O19 Si3 1.654753 1_545
O19 Sc1 2.182377 1_545
O19 Sc2 2.320678 1_554
O20 Sc1 2.091902 1_556
O20 Sc2 2.155293 1_555
O21 Sc3 1.976079 1_555
O22 Si0 1.658490 1_555
O23 Si2 1.666577 1_465
