# generated using pymatgen
data_KCO3
_symmetry_space_group_name_H-M   'P 1'
_cell_length_a   11.09566600
_cell_length_b   7.30505800
_cell_length_c   8.54106088
_cell_angle_alpha   68.65409126
_cell_angle_beta   90.00000000
_cell_angle_gamma   90.00000000
_symmetry_Int_Tables_number   1
_chemical_formula_structural   KCO3
_chemical_formula_sum   'K8 C8 O24'
_cell_volume   644.80000845
_cell_formula_units_Z   8
loop_
 _symmetry_equiv_pos_site_id
 _symmetry_equiv_pos_as_xyz
  1  'x, y, z'
loop_
 _atom_site_type_symbol
 _atom_site_label
 _atom_site_symmetry_multiplicity
 _atom_site_fract_x
 _atom_site_fract_y
 _atom_site_fract_z
 _atom_site_occupancy
  K  K0  1  0.15898000  0.71670600  0.29966800  1
  K  K1  1  0.65898000  0.78329400  0.70033200  1
  K  K2  1  0.84102000  0.28329400  0.70033200  1
  K  K3  1  0.34102000  0.21670600  0.29966800  1
  K  K4  1  0.90848000  0.30090000  0.19742500  1
  K  K5  1  0.40848000  0.19910000  0.80257500  1
  K  K6  1  0.09152000  0.69910000  0.80257500  1
  K  K7  1  0.59152000  0.80090000  0.19742500  1
  C  C0  1  0.12944500  0.27479300  0.55455600  1
  C  C1  1  0.37550200  0.67217400  0.96185700  1
  C  C2  1  0.87550200  0.82782600  0.03814300  1
  C  C3  1  0.62449800  0.32782600  0.03814300  1
  C  C4  1  0.12449800  0.17217400  0.96185700  1
  C  C5  1  0.37055500  0.77479300  0.55455600  1
  C  C6  1  0.87055500  0.72520700  0.44544400  1
  C  C7  1  0.62944500  0.22520700  0.44544400  1
  O  O0  1  0.15732400  0.07264500  0.85065700  1
  O  O1  1  0.65732400  0.42735500  0.14934300  1
  O  O2  1  0.84267600  0.92735500  0.14934300  1
  O  O3  1  0.34267600  0.57264500  0.85065700  1
  O  O4  1  0.07749800  0.12783500  0.69918600  1
  O  O5  1  0.57749800  0.37216500  0.30081400  1
  O  O6  1  0.92250200  0.87216500  0.30081400  1
  O  O7  1  0.42250200  0.62783500  0.69918600  1
  O  O8  1  0.44581600  0.81859600  0.43683100  1
  O  O9  1  0.04029600  0.29358900  0.92235200  1
  O  O10  1  0.54029600  0.20641100  0.07764800  1
  O  O11  1  0.95970400  0.70641100  0.07764800  1
  O  O12  1  0.23335300  0.33716300  0.56081100  1
  O  O13  1  0.73335300  0.16283700  0.43918900  1
  O  O14  1  0.76664700  0.66283700  0.43918900  1
  O  O15  1  0.26664700  0.83716300  0.56081100  1
  O  O16  1  0.45970400  0.79358900  0.92235200  1
  O  O17  1  0.05418400  0.31859600  0.43683100  1
  O  O18  1  0.55418400  0.18140400  0.56316900  1
  O  O19  1  0.94581600  0.68140400  0.56316900  1
  O  O20  1  0.19299100  0.11230000  0.08736300  1
  O  O21  1  0.69299100  0.38770000  0.91263700  1
  O  O22  1  0.80700900  0.88770000  0.91263700  1
  O  O23  1  0.30700900  0.61230000  0.08736300  1
loop_
_geom_bond_atom_site_label_1
_geom_bond_atom_site_label_2
_geom_bond_distance
_geom_bond_site_symmetry_2
K0 O23 2.752153 1_555
K0 O20 2.822560 1_565
K0 O6 2.860526 1_455
K0 O11 2.931611 1_455
K0 O15 2.933450 1_555
K0 O17 2.949905 1_555
K0 O12 2.973396 1_555
K0 O19 3.209866 1_455
K1 O22 2.752153 1_555
K1 O21 2.822560 1_555
K1 O7 2.860526 1_555
K1 O16 2.931611 1_555
K1 O14 2.933450 1_555
K1 O18 2.949905 1_565
K1 O13 2.973396 1_565
K1 O8 3.209866 1_555
K2 O21 2.752153 1_555
K2 O22 2.822560 1_545
K2 O4 2.860526 1_655
K2 O9 2.931611 1_655
K2 O13 2.933450 1_555
K2 O19 2.949905 1_555
K2 O14 2.973396 1_555
K2 O17 3.209866 1_655
K3 O20 2.752153 1_555
K3 O23 2.822560 1_555
K3 O5 2.860526 1_555
K3 O10 2.931611 1_555
K3 O12 2.933450 1_555
K3 O8 2.949905 1_545
K3 O15 2.973396 1_545
K3 O18 3.209866 1_555
K4 O17 2.646495 1_655
K4 O13 2.746053 1_555
K4 O9 2.784440 1_654
K4 O11 2.817543 1_555
K4 O1 2.917490 1_555
K4 O6 2.932509 1_545
K4 O2 2.993950 1_545
K4 O21 3.303427 1_554
K5 O18 2.646495 1_555
K5 O12 2.746053 1_555
K5 O10 2.784440 1_556
K5 O16 2.817543 1_545
K5 O0 2.917490 1_555
K5 O7 2.932509 1_555
K5 O3 2.993950 1_555
K5 O20 3.303427 1_556
K6 O19 2.646495 1_455
K6 O15 2.746053 1_555
K6 O11 2.784440 1_456
K6 O9 2.817543 1_555
K6 O3 2.917490 1_555
K6 O4 2.932509 1_565
K6 O0 2.993950 1_565
K6 O23 3.303427 1_556
K7 O8 2.646495 1_555
K7 O14 2.746053 1_555
K7 O16 2.784440 1_554
K7 O10 2.817543 1_565
K7 O2 2.917490 1_555
K7 O5 2.932509 1_555
K7 O1 2.993950 1_555
K7 O22 3.303427 1_554
C0 O12 1.247960 1_555
C0 O17 1.255599 1_555
C0 O4 1.430117 1_555
C1 O16 1.247207 1_555
C1 O23 1.255639 1_556
C1 O3 1.437376 1_555
C2 O11 1.247207 1_555
C2 O22 1.255639 1_554
C2 O2 1.437376 1_555
C3 O10 1.247207 1_555
C3 O21 1.255639 1_554
C3 O1 1.437376 1_555
C4 O9 1.247207 1_555
C4 O20 1.255639 1_556
C4 O0 1.437376 1_555
C5 O15 1.247960 1_555
C5 O8 1.255599 1_555
C5 O7 1.430117 1_555
C6 O14 1.247960 1_555
C6 O19 1.255599 1_555
C6 O6 1.430117 1_555
C7 O13 1.247960 1_555
C7 O18 1.255599 1_555
C7 O5 1.430117 1_555
