# generated using pymatgen
data_Hf16ReTc3Ni4
_symmetry_space_group_name_H-M   'P 1'
_cell_length_a   8.58946186
_cell_length_b   8.58946185
_cell_length_c   8.58946223
_cell_angle_alpha   60.00291948
_cell_angle_beta   60.00291787
_cell_angle_gamma   60.00292045
_symmetry_Int_Tables_number   1
_chemical_formula_structural   Hf16ReTc3Ni4
_chemical_formula_sum   'Hf16 Re1 Tc3 Ni4'
_cell_volume   448.13785469
_cell_formula_units_Z   1
loop_
 _symmetry_equiv_pos_site_id
 _symmetry_equiv_pos_as_xyz
  1  'x, y, z'
loop_
 _atom_site_type_symbol
 _atom_site_label
 _atom_site_symmetry_multiplicity
 _atom_site_fract_x
 _atom_site_fract_y
 _atom_site_fract_z
 _atom_site_occupancy
  Hf  Hf0  1  0.68943697  0.10368105  0.10368105  1
  Hf  Hf1  1  0.10368105  0.68943697  0.10368105  1
  Hf  Hf2  1  0.10368105  0.10368105  0.68943697  1
  Hf  Hf3  1  0.10384806  0.10384806  0.10384806  1
  Hf  Hf4  1  0.31498795  0.31498795  0.68450672  1
  Hf  Hf5  1  0.68461103  0.68461103  0.31507955  1
  Hf  Hf6  1  0.31498795  0.68450672  0.31498795  1
  Hf  Hf7  1  0.68461103  0.31507955  0.68461103  1
  Hf  Hf8  1  0.68450672  0.31498795  0.31498795  1
  Hf  Hf9  1  0.31507955  0.68461103  0.68461103  1
  Hf  Hf10  1  0.95309367  0.95309367  0.54683652  1
  Hf  Hf11  1  0.54643153  0.54643153  0.95398739  1
  Hf  Hf12  1  0.95309367  0.54683652  0.95309367  1
  Hf  Hf13  1  0.54643153  0.95398739  0.54643153  1
  Hf  Hf14  1  0.54683652  0.95309367  0.95309367  1
  Hf  Hf15  1  0.95398739  0.54643153  0.54643153  1
  Re  Re0  1  0.33311405  0.33311405  0.33311405  1
  Tc  Tc0  1  0.99992924  0.33369288  0.33369288  1
  Tc  Tc1  1  0.33369288  0.99992924  0.33369288  1
  Tc  Tc2  1  0.33369288  0.33369288  0.99992924  1
  Ni  Ni0  1  0.32452237  0.89206552  0.89206552  1
  Ni  Ni1  1  0.89206552  0.32452237  0.89206552  1
  Ni  Ni2  1  0.89206552  0.89206552  0.32452237  1
  Ni  Ni3  1  0.89161089  0.89161089  0.89161089  1
loop_
_geom_bond_atom_site_label_1
_geom_bond_atom_site_label_2
_geom_bond_distance
_geom_bond_site_symmetry_2
Hf0 Ni1 2.573261 1_554
Hf0 Ni2 2.573261 1_545
Hf0 Ni3 2.577540 1_544
Hf0 Re0 2.992658 1_555
Hf0 Tc1 2.993392 1_545
Hf0 Tc2 2.993392 1_554
Hf0 Hf11 3.105428 1_554
Hf0 Hf13 3.105428 1_545
Hf0 Hf14 3.112497 1_544
Hf0 Hf8 3.119392 1_555
Hf0 Hf5 3.129577 1_545
Hf0 Hf7 3.129577 1_554
Hf1 Ni0 2.573261 1_554
Hf1 Ni2 2.573261 1_455
Hf1 Ni3 2.577541 1_454
Hf1 Re0 2.992658 1_555
Hf1 Tc0 2.993392 1_455
Hf1 Tc2 2.993392 1_554
Hf1 Hf11 3.105428 1_554
Hf1 Hf15 3.105428 1_455
Hf1 Hf12 3.112497 1_454
Hf1 Hf6 3.119392 1_555
Hf1 Hf5 3.129577 1_455
Hf1 Hf9 3.129577 1_554
Hf2 Ni1 2.573261 1_455
Hf2 Ni0 2.573261 1_545
Hf2 Ni3 2.577540 1_445
Hf2 Re0 2.992658 1_555
Hf2 Tc1 2.993392 1_545
Hf2 Tc0 2.993393 1_455
Hf2 Hf4 3.119391 1_555
Hf2 Hf9 3.129577 1_545
Hf2 Hf7 3.129577 1_455
Hf3 Ni2 2.573788 1_445
Hf3 Ni0 2.573788 1_544
Hf3 Ni1 2.573788 1_454
Hf3 Tc2 2.994191 1_554
Hf3 Tc0 2.994191 1_455
Hf3 Tc1 2.994191 1_545
Hf3 Hf8 3.126843 1_455
Hf3 Hf4 3.126843 1_554
Hf3 Hf6 3.126843 1_545
Hf4 Re0 2.871050 1_555
Hf4 Tc2 2.878942 1_555
Hf4 Ni1 3.123167 1_455
Hf4 Ni0 3.123167 1_545
Hf4 Hf8 3.174107 1_555
Hf4 Hf6 3.174108 1_555
Hf4 Hf9 3.175705 1_555
Hf4 Hf7 3.175705 1_555
Hf5 Tc1 2.869599 1_555
Hf5 Tc0 2.869599 1_555
Hf5 Ni3 3.127417 1_554
Hf5 Ni2 3.133859 1_555
Hf5 Hf9 3.174217 1_555
Hf5 Hf7 3.174217 1_555
Hf5 Hf8 3.175705 1_555
Hf5 Hf6 3.175705 1_555
Hf6 Re0 2.871050 1_555
Hf6 Tc1 2.878941 1_555
Hf6 Ni2 3.123167 1_455
Hf6 Ni0 3.123167 1_554
Hf6 Hf8 3.174108 1_555
Hf6 Hf9 3.175705 1_555
Hf7 Tc2 2.869599 1_555
Hf7 Tc0 2.869599 1_555
Hf7 Ni3 3.127417 1_545
Hf7 Ni1 3.133859 1_555
Hf7 Hf9 3.174217 1_555
Hf7 Hf8 3.175705 1_555
Hf8 Re0 2.871050 1_555
Hf8 Tc0 2.878941 1_555
Hf8 Ni2 3.123167 1_545
Hf8 Ni1 3.123167 1_554
Hf9 Tc2 2.869599 1_555
Hf9 Tc1 2.869599 1_555
Hf9 Ni3 3.127417 1_455
Hf9 Ni0 3.133859 1_555
Hf10 Ni2 2.544120 1_555
Hf10 Ni3 2.545407 1_555
Hf10 Tc1 2.965624 1_655
Hf10 Tc0 2.965624 1_565
Hf10 Hf3 3.107253 1_665
Hf10 Hf2 3.112497 1_665
Hf10 Hf7 3.188547 1_565
Hf10 Hf9 3.188547 1_655
Hf10 Hf6 3.191276 1_655
Hf10 Hf8 3.191276 1_565
Hf11 Ni1 2.550762 1_555
Hf11 Ni0 2.550762 1_555
Hf11 Tc2 2.954754 1_555
Hf11 Re0 2.956967 1_556
Hf11 Hf6 3.182688 1_556
Hf11 Hf8 3.182688 1_556
Hf11 Hf7 3.194448 1_555
Hf11 Hf9 3.194448 1_555
Hf12 Ni1 2.544120 1_555
Hf12 Ni3 2.545407 1_555
Hf12 Tc2 2.965624 1_655
Hf12 Tc0 2.965624 1_556
Hf12 Hf3 3.107253 1_656
Hf12 Hf9 3.188547 1_655
Hf12 Hf5 3.188547 1_556
Hf12 Hf8 3.191276 1_556
Hf12 Hf4 3.191276 1_655
Hf13 Ni2 2.550762 1_555
Hf13 Ni0 2.550762 1_555
Hf13 Tc1 2.954755 1_555
Hf13 Re0 2.956967 1_565
Hf13 Hf2 3.105428 1_565
Hf13 Hf8 3.182687 1_565
Hf13 Hf4 3.182687 1_565
Hf13 Hf9 3.194447 1_555
Hf13 Hf5 3.194447 1_555
Hf14 Ni0 2.544120 1_555
Hf14 Ni3 2.545407 1_555
Hf14 Tc2 2.965624 1_565
Hf14 Tc1 2.965624 1_556
Hf14 Hf3 3.107253 1_566
Hf14 Hf7 3.188547 1_565
Hf14 Hf5 3.188547 1_556
Hf14 Hf6 3.191276 1_556
Hf14 Hf4 3.191276 1_565
Hf15 Ni2 2.550762 1_555
Hf15 Ni1 2.550762 1_555
Hf15 Tc0 2.954755 1_555
Hf15 Re0 2.956967 1_655
Hf15 Hf2 3.105428 1_655
Hf15 Hf6 3.182687 1_655
Hf15 Hf4 3.182688 1_655
Hf15 Hf7 3.194447 1_555
Hf15 Hf5 3.194448 1_555
Re0 Tc1 2.856915 1_545
Re0 Tc0 2.856915 1_455
Re0 Tc2 2.856916 1_554
Tc0 Tc2 2.866977 1_654
Tc0 Tc1 2.866977 1_645
Tc1 Tc2 2.866977 1_564
