# generated using pymatgen
data_Ba4ZrPdO8
_symmetry_space_group_name_H-M   'P 1'
_cell_length_a   7.35842088
_cell_length_b   7.35842110
_cell_length_c   5.78955815
_cell_angle_alpha   90.00000000
_cell_angle_beta   90.00000000
_cell_angle_gamma   133.60916465
_symmetry_Int_Tables_number   1
_chemical_formula_structural   Ba4ZrPdO8
_chemical_formula_sum   'Ba4 Zr1 Pd1 O8'
_cell_volume   226.98134497
_cell_formula_units_Z   1
loop_
 _symmetry_equiv_pos_site_id
 _symmetry_equiv_pos_as_xyz
  1  'x, y, z'
loop_
 _atom_site_type_symbol
 _atom_site_label
 _atom_site_symmetry_multiplicity
 _atom_site_fract_x
 _atom_site_fract_y
 _atom_site_fract_z
 _atom_site_occupancy
  Ba  Ba0  1  0.64679994  0.35320006  0.00000000  1
  Ba  Ba1  1  0.14529229  0.85470771  0.50000000  1
  Ba  Ba2  1  0.85470771  0.14529229  0.50000000  1
  Ba  Ba3  1  0.35320006  0.64679994  0.00000000  1
  Zr  Zr0  1  0.50000000  0.50000000  0.50000000  1
  Pd  Pd0  1  0.00000000  0.00000000  0.00000000  1
  O  O0  1  0.75363774  0.75363774  0.75540870  1
  O  O1  1  0.24636226  0.24636226  0.24459130  1
  O  O2  1  0.24636226  0.24636226  0.75540870  1
  O  O3  1  0.75363774  0.75363774  0.24459130  1
  O  O4  1  0.84642394  0.15357606  0.00000000  1
  O  O5  1  0.34400200  0.65599800  0.50000000  1
  O  O6  1  0.65599800  0.34400200  0.50000000  1
  O  O7  1  0.15357606  0.84642394  0.00000000  1
loop_
_geom_bond_atom_site_label_1
_geom_bond_atom_site_label_2
_geom_bond_distance
_geom_bond_site_symmetry_2
Ba0 O4 2.700360 1_555
Ba0 O1 2.847838 1_555
Ba0 O2 2.847838 1_554
Ba0 O3 2.847838 1_555
Ba0 O0 2.847838 1_554
Ba0 O6 2.897452 1_554
Ba0 O6 2.897452 1_555
Ba0 O7 2.899699 1_655
Ba0 O7 2.899699 1_545
Ba1 O5 2.687993 1_555
Ba1 O0 2.844058 1_455
Ba1 O3 2.844058 1_455
Ba1 O2 2.844058 1_565
Ba1 O1 2.844058 1_565
Ba1 O7 2.896947 1_556
Ba1 O7 2.896947 1_555
Ba1 O6 2.901865 1_565
Ba1 O6 2.901865 1_455
Ba2 O6 2.687993 1_555
Ba2 O2 2.844058 1_655
Ba2 O1 2.844058 1_655
Ba2 O0 2.844058 1_545
Ba2 O3 2.844058 1_545
Ba2 O4 2.896947 1_556
Ba2 O4 2.896947 1_555
Ba2 O5 2.901865 1_545
Ba2 O5 2.901865 1_655
Ba3 O7 2.700360 1_555
Ba3 O3 2.847838 1_555
Ba3 O0 2.847838 1_554
Ba3 O1 2.847838 1_555
Ba3 O2 2.847838 1_554
Ba3 O5 2.897452 1_555
Ba3 O5 2.897452 1_554
Ba3 O4 2.899699 1_455
Ba3 O4 2.899699 1_565
O0 Pd0 2.011110 1_666
O0 Zr0 2.085206 1_555
O1 Pd0 2.011110 1_555
O1 Zr0 2.085206 1_555
O2 Pd0 2.011110 1_556
O2 Zr0 2.085206 1_555
O3 Pd0 2.011110 1_665
O3 Zr0 2.085206 1_555
O4 Pd0 2.077459 1_655
O5 Zr0 2.110221 1_555
O6 Zr0 2.110221 1_555
O7 Pd0 2.077459 1_565
