# generated using pymatgen
data_Zr6B4Ir3Ru7
_symmetry_space_group_name_H-M   'P 1'
_cell_length_a   9.56676512
_cell_length_b   9.56737058
_cell_length_c   3.12050665
_cell_angle_alpha   90.00000000
_cell_angle_beta   90.00000000
_cell_angle_gamma   89.99414502
_symmetry_Int_Tables_number   1
_chemical_formula_structural   Zr6B4Ir3Ru7
_chemical_formula_sum   'Zr6 B4 Ir3 Ru7'
_cell_volume   285.61618755
_cell_formula_units_Z   1
loop_
 _symmetry_equiv_pos_site_id
 _symmetry_equiv_pos_as_xyz
  1  'x, y, z'
loop_
 _atom_site_type_symbol
 _atom_site_label
 _atom_site_symmetry_multiplicity
 _atom_site_fract_x
 _atom_site_fract_y
 _atom_site_fract_z
 _atom_site_occupancy
  Zr  Zr0  1  0.67447456  0.17947829  0.00000000  1
  Zr  Zr1  1  0.32957007  0.82198539  0.00000000  1
  Zr  Zr2  1  0.17498719  0.32833328  0.00000000  1
  Zr  Zr3  1  0.82154887  0.66912294  0.00000000  1
  Zr  Zr4  1  0.99868854  0.00459033  0.00000000  1
  Zr  Zr5  1  0.49954781  0.49901666  0.00000000  1
  B  B0  1  0.12332180  0.61610962  0.00000000  1
  B  B1  1  0.87699939  0.37931021  0.00000000  1
  B  B2  1  0.61591682  0.87456801  0.00000000  1
  B  B3  1  0.38528999  0.12453198  0.00000000  1
  Ir  Ir0  1  0.22374497  0.06999796  0.50000000  1
  Ir  Ir1  1  0.77718909  0.92786467  0.50000000  1
  Ir  Ir2  1  0.07057531  0.77909238  0.50000000  1
  Ru  Ru0  1  0.72172591  0.42776564  0.50000000  1
  Ru  Ru1  1  0.92969063  0.22354506  0.50000000  1
  Ru  Ru2  1  0.27740741  0.57391598  0.50000000  1
  Ru  Ru3  1  0.57207285  0.72159445  0.50000000  1
  Ru  Ru4  1  0.42658385  0.27764934  0.50000000  1
  Ru  Ru5  1  0.50107716  0.00000145  0.50000000  1
  Ru  Ru6  1  0.99958878  0.50152334  0.50000000  1
loop_
_geom_bond_atom_site_label_1
_geom_bond_atom_site_label_2
_geom_bond_distance
_geom_bond_site_symmetry_2
B0 Ru2 2.184079 1_555
B0 Ru2 2.184079 1_554
B0 Ru6 2.244484 1_454
B0 Ru6 2.244484 1_455
B0 Ir2 2.262815 1_555
B0 Ir2 2.262815 1_554
B0 Zr1 2.788137 1_555
B0 Zr2 2.797228 1_555
B0 Zr3 2.931154 1_455
B1 Ru0 2.203582 1_554
B1 Ru0 2.203582 1_555
B1 Ru1 2.215676 1_555
B1 Ru1 2.215676 1_554
B1 Ru6 2.275359 1_554
B1 Ru6 2.275359 1_555
B1 Zr0 2.722118 1_555
B1 Zr3 2.822982 1_555
B1 Zr2 2.892149 1_655
B2 Ru3 2.180010 1_554
B2 Ru3 2.180010 1_555
B2 Ir1 2.252766 1_555
B2 Ir1 2.252766 1_554
B2 Ru5 2.254175 1_565
B2 Ru5 2.254175 1_564
B2 Zr3 2.780770 1_555
B2 Zr1 2.785273 1_555
B2 Zr0 2.970549 1_565
B3 Ru4 2.176372 1_555
B3 Ru4 2.176372 1_554
B3 Ru5 2.254028 1_554
B3 Ru5 2.254028 1_555
B3 Ir0 2.257262 1_554
B3 Ir0 2.257262 1_555
B3 Zr2 2.801588 1_555
B3 Zr0 2.816116 1_555
B3 Zr1 2.943303 1_545
Ir0 Zr4 2.731655 1_455
Ir0 Zr4 2.731655 1_456
Ir0 Zr2 2.959812 1_556
Ir0 Zr2 2.959812 1_555
Ir0 Zr1 3.014826 1_546
Ir0 Zr1 3.014826 1_545
Ir1 Zr4 2.732006 1_565
Ir1 Zr4 2.732006 1_566
Ir1 Zr3 2.956732 1_555
Ir1 Zr3 2.956732 1_556
Ir1 Zr0 3.032243 1_566
Ir1 Zr0 3.032243 1_565
Ir2 Zr4 2.749822 1_465
Ir2 Zr4 2.749822 1_466
Ir2 Zr1 2.956723 1_556
Ir2 Zr1 2.956723 1_555
Ir2 Zr3 3.036046 1_456
Ir2 Zr3 3.036046 1_455
Ru0 Zr5 2.723352 1_556
Ru0 Zr5 2.723352 1_555
Ru0 Zr0 2.877803 1_555
Ru0 Zr0 2.877803 1_556
Ru0 Zr3 2.946019 1_555
Ru0 Zr3 2.946019 1_556
Ru1 Zr4 2.694086 1_555
Ru1 Zr4 2.694086 1_556
Ru1 Zr0 2.928092 1_555
Ru1 Zr0 2.928092 1_556
Ru1 Zr2 2.991145 1_655
Ru1 Zr2 2.991145 1_656
Ru2 Zr5 2.732015 1_556
Ru2 Zr5 2.732015 1_555
Ru2 Zr1 2.883844 1_555
Ru2 Zr1 2.883844 1_556
Ru2 Zr2 2.985876 1_556
Ru2 Zr2 2.985876 1_555
Ru3 Zr5 2.729615 1_555
Ru3 Zr5 2.729615 1_556
Ru3 Zr3 2.895237 1_555
Ru3 Zr3 2.895237 1_556
Ru3 Zr1 2.956129 1_555
Ru3 Zr1 2.956129 1_556
Ru4 Zr5 2.721663 1_556
Ru4 Zr5 2.721663 1_555
Ru4 Zr2 2.909085 1_556
Ru4 Zr2 2.909085 1_555
Ru4 Zr0 2.990012 1_555
Ru4 Zr0 2.990012 1_556
Ru5 Zr1 2.833335 1_546
Ru5 Zr1 2.833335 1_545
Ru5 Zr0 2.852239 1_555
Ru5 Zr0 2.852239 1_556
Ru6 Zr3 2.811782 1_555
Ru6 Zr3 2.811782 1_556
Ru6 Zr2 2.827552 1_655
Ru6 Zr2 2.827552 1_656
