# generated using pymatgen
data_K4LiAgAs2
_symmetry_space_group_name_H-M   'P 1'
_cell_length_a   6.42587324
_cell_length_b   6.42587435
_cell_length_c   5.93505401
_cell_angle_alpha   89.73400968
_cell_angle_beta   89.73400896
_cell_angle_gamma   102.66437403
_symmetry_Int_Tables_number   1
_chemical_formula_structural   K4LiAgAs2
_chemical_formula_sum   'K4 Li1 Ag1 As2'
_cell_volume   239.10050351
_cell_formula_units_Z   1
loop_
 _symmetry_equiv_pos_site_id
 _symmetry_equiv_pos_as_xyz
  1  'x, y, z'
loop_
 _atom_site_type_symbol
 _atom_site_label
 _atom_site_symmetry_multiplicity
 _atom_site_fract_x
 _atom_site_fract_y
 _atom_site_fract_z
 _atom_site_occupancy
  K  K0  1  0.02966731  0.69146726  0.24386620  1
  K  K1  1  0.97033269  0.30853274  0.75613380  1
  K  K2  1  0.69146726  0.02966731  0.24386620  1
  K  K3  1  0.30853274  0.97033269  0.75613380  1
  Li  Li0  1  0.50000000  0.50000000  0.50000000  1
  Ag  Ag0  1  0.50000000  0.50000000  0.00000000  1
  As  As0  1  0.75201696  0.75201696  0.74257674  1
  As  As1  1  0.24798304  0.24798304  0.25742326  1
loop_
_geom_bond_atom_site_label_1
_geom_bond_atom_site_label_2
_geom_bond_distance
_geom_bond_site_symmetry_2
Ag0 As0 2.526551 1_554
Ag0 As1 2.526551 1_555
Ag0 Li0 2.967527 1_554
Ag0 Li0 2.967527 1_555
Ag0 K0 3.663199 1_655
Ag0 K1 3.663199 1_454
Ag0 K2 3.663200 1_565
Ag0 K3 3.663200 1_544
Ag0 K1 3.788043 1_554
Ag0 K0 3.788043 1_555
Ag0 K2 3.788044 1_555
Ag0 K3 3.788044 1_554
As0 Li0 2.492231 1_555
As0 K3 3.442038 1_555
As0 K1 3.442038 1_555
As0 K0 3.515887 1_655
As0 K2 3.515888 1_565
As0 K0 3.539659 1_656
As0 K2 3.539659 1_566
As0 K3 3.544991 1_655
As0 K1 3.544992 1_565
As1 Li0 2.492231 1_555
As1 K2 3.442038 1_555
As1 K0 3.442038 1_555
As1 K1 3.515887 1_455
As1 K3 3.515888 1_545
As1 K1 3.539659 1_454
As1 K3 3.539659 1_544
As1 K2 3.544991 1_455
As1 K0 3.544992 1_545
