# generated using pymatgen
data_Zn4Ga2Pd7Pt3
_symmetry_space_group_name_H-M   'P 1'
_cell_length_a   4.06938878
_cell_length_b   5.41093633
_cell_length_c   10.49995412
_cell_angle_alpha   90.04152087
_cell_angle_beta   90.00000000
_cell_angle_gamma   90.00000000
_symmetry_Int_Tables_number   1
_chemical_formula_structural   Zn4Ga2Pd7Pt3
_chemical_formula_sum   'Zn4 Ga2 Pd7 Pt3'
_cell_volume   231.20056725
_cell_formula_units_Z   1
loop_
 _symmetry_equiv_pos_site_id
 _symmetry_equiv_pos_as_xyz
  1  'x, y, z'
loop_
 _atom_site_type_symbol
 _atom_site_label
 _atom_site_symmetry_multiplicity
 _atom_site_fract_x
 _atom_site_fract_y
 _atom_site_fract_z
 _atom_site_occupancy
  Zn  Zn0  1  0.00000000  0.83688865  0.64079011  1
  Zn  Zn1  1  0.00000000  0.33601061  0.85929484  1
  Zn  Zn2  1  0.00000000  0.16427261  0.35940317  1
  Zn  Zn3  1  0.00000000  0.66303932  0.14018963  1
  Ga  Ga0  1  0.50000000  0.50043044  0.49981631  1
  Ga  Ga1  1  0.50000000  0.00007006  0.00046492  1
  Pd  Pd0  1  0.50000000  0.90742268  0.23601348  1
  Pd  Pd1  1  0.50000000  0.40676904  0.26304121  1
  Pd  Pd2  1  0.50000000  0.59288251  0.73689133  1
  Pd  Pd3  1  0.50000000  0.09287108  0.76367030  1
  Pd  Pd4  1  0.50000000  0.49757392  0.99991584  1
  Pd  Pd5  1  0.50000000  0.00045847  0.49980393  1
  Pd  Pd6  1  0.00000000  0.18365800  0.10795158  1
  Pt  Pt0  1  0.00000000  0.81628247  0.89330584  1
  Pt  Pt1  1  0.00000000  0.68497980  0.39174172  1
  Pt  Pt2  1  0.00000000  0.31638835  0.60770580  1
loop_
_geom_bond_atom_site_label_1
_geom_bond_atom_site_label_2
_geom_bond_distance
_geom_bond_site_symmetry_2
Ga0 Pt2 2.533106 1_655
Ga0 Pt2 2.533106 1_555
Ga0 Pt1 2.535058 1_555
Ga0 Pt1 2.535058 1_655
Ga0 Pd1 2.536897 1_555
Ga0 Pd2 2.538690 1_555
Ga0 Pd5 2.705316 1_555
Ga0 Pd5 2.705620 1_565
Ga1 Pd0 2.523899 1_545
Ga1 Pt0 2.528500 1_644
Ga1 Pt0 2.528500 1_544
Ga1 Pd6 2.529608 1_655
Ga1 Pd6 2.529608 1_555
Ga1 Pd3 2.536889 1_554
Ga1 Pd4 2.691972 1_554
Ga1 Pd4 2.718977 1_544
Pd0 Zn3 2.626590 1_555
Pd0 Zn3 2.626590 1_655
Pd0 Zn2 2.783425 1_565
Pd0 Zn2 2.783425 1_665
Pd1 Zn2 2.624372 1_555
Pd1 Zn2 2.624372 1_655
Pd1 Zn3 2.780169 1_555
Pd1 Zn3 2.780169 1_655
Pd2 Zn0 2.627415 1_555
Pd2 Zn0 2.627415 1_655
Pd2 Zn1 2.779615 1_555
Pd2 Zn1 2.779615 1_655
Pd3 Zn1 2.622408 1_555
Pd3 Zn1 2.622408 1_655
Pd3 Zn0 2.778600 1_645
Pd3 Zn0 2.778600 1_545
Pd4 Zn1 2.661286 1_555
Pd4 Zn1 2.661286 1_655
Pd4 Zn3 2.666273 1_656
Pd4 Zn3 2.666273 1_556
Pd5 Zn2 2.664738 1_655
Pd5 Zn2 2.664738 1_555
Pd5 Zn0 2.667706 1_545
Pd5 Zn0 2.667706 1_645
Pd6 Zn3 2.615652 1_555
Pd6 Zn2 2.642389 1_555
Pd6 Zn1 2.738507 1_554
Pd6 Zn3 2.837542 1_545
Pt0 Zn1 2.622886 1_555
Pt0 Zn0 2.653828 1_555
Pt0 Zn3 2.722228 1_556
Pt0 Zn1 2.835056 1_565
Pt1 Zn2 2.615801 1_565
Pt1 Zn3 2.643866 1_555
Pt1 Zn0 2.740570 1_555
Pt1 Zn2 2.837656 1_555
Pt2 Zn0 2.617944 1_545
Pt2 Zn1 2.643729 1_555
Pt2 Zn2 2.733437 1_555
Pt2 Zn0 2.837487 1_555
