# generated using pymatgen
data_Rb3In(AsSe2)6
_symmetry_space_group_name_H-M   'P 1'
_cell_length_a   9.85158855
_cell_length_b   9.85158766
_cell_length_c   8.19891751
_cell_angle_alpha   90.00000000
_cell_angle_beta   90.00000000
_cell_angle_gamma   120.00000058
_symmetry_Int_Tables_number   1
_chemical_formula_structural   Rb3In(AsSe2)6
_chemical_formula_sum   'Rb3 In1 As6 Se12'
_cell_volume   689.12758979
_cell_formula_units_Z   1
loop_
 _symmetry_equiv_pos_site_id
 _symmetry_equiv_pos_as_xyz
  1  'x, y, z'
loop_
 _atom_site_type_symbol
 _atom_site_label
 _atom_site_symmetry_multiplicity
 _atom_site_fract_x
 _atom_site_fract_y
 _atom_site_fract_z
 _atom_site_occupancy
  Rb  Rb0  1  0.00000000  0.00000000  0.00000000  1
  Rb  Rb1  1  0.33333300  0.66666700  0.85091861  1
  Rb  Rb2  1  0.66666700  0.33333300  0.14908139  1
  In  In0  1  0.00000000  0.00000000  0.50000000  1
  As  As0  1  0.28488636  0.83465178  0.38929797  1
  As  As1  1  0.16534822  0.45023458  0.38929797  1
  As  As2  1  0.54976542  0.71511364  0.38929797  1
  As  As3  1  0.71511364  0.16534822  0.61070203  1
  As  As4  1  0.83465178  0.54976542  0.61070203  1
  As  As5  1  0.45023458  0.28488636  0.61070203  1
  Se  Se0  1  0.25073345  0.04300936  0.30300751  1
  Se  Se1  1  0.95699064  0.20772408  0.30300751  1
  Se  Se2  1  0.79227592  0.74926655  0.30300751  1
  Se  Se3  1  0.74926655  0.95699064  0.69699249  1
  Se  Se4  1  0.04300936  0.79227592  0.69699249  1
  Se  Se5  1  0.20772408  0.25073345  0.69699249  1
  Se  Se6  1  0.52217461  0.90945131  0.22789221  1
  Se  Se7  1  0.09054869  0.61272230  0.22789221  1
  Se  Se8  1  0.38727770  0.47782539  0.22789221  1
  Se  Se9  1  0.47782539  0.09054869  0.77210779  1
  Se  Se10  1  0.90945131  0.38727770  0.77210779  1
  Se  Se11  1  0.61272230  0.52217461  0.77210779  1
loop_
_geom_bond_atom_site_label_1
_geom_bond_atom_site_label_2
_geom_bond_distance
_geom_bond_site_symmetry_2
Rb0 Se1 3.377326 1_455
Rb0 Se4 3.377326 1_544
Rb0 Se5 3.377326 1_554
Rb0 Se2 3.377326 1_445
Rb0 Se3 3.377326 1_444
Rb0 Se0 3.377326 1_555
Rb1 Se9 3.733324 1_565
Rb1 Se11 3.733324 1_555
Rb1 Se10 3.733324 1_455
Rb1 Se7 3.779547 1_556
Rb1 Se6 3.779551 1_556
Rb1 Se8 3.779558 1_556
Rb1 Se4 3.852756 1_555
Rb1 Se3 3.852762 1_555
Rb1 Se5 3.852764 1_555
Rb2 Se6 3.733324 1_545
Rb2 Se8 3.733324 1_555
Rb2 Se7 3.733324 1_655
Rb2 Se10 3.779547 1_554
Rb2 Se9 3.779551 1_554
Rb2 Se11 3.779558 1_554
Rb2 Se1 3.852756 1_555
Rb2 Se0 3.852762 1_555
Rb2 Se2 3.852764 1_555
In0 Se4 2.800544 1_545
In0 Se1 2.800544 1_455
In0 Se5 2.800544 1_555
In0 Se2 2.800544 1_445
In0 Se3 2.800544 1_445
In0 Se0 2.800544 1_555
As0 Se0 2.348993 1_565
As0 Se7 2.451736 1_555
As0 Se6 2.456898 1_555
As1 Se1 2.348993 1_455
As1 Se8 2.451739 1_555
As1 Se7 2.456890 1_555
As2 Se2 2.348993 1_555
As2 Se6 2.451731 1_555
As2 Se8 2.456896 1_555
As3 Se3 2.348993 1_545
As3 Se10 2.451736 1_555
As3 Se9 2.456898 1_555
As4 Se4 2.348993 1_655
As4 Se11 2.451739 1_555
As4 Se10 2.456890 1_555
As5 Se5 2.348993 1_555
As5 Se9 2.451731 1_555
As5 Se11 2.456896 1_555
