# generated using pymatgen
data_RbNbH5
_symmetry_space_group_name_H-M   'P 1'
_cell_length_a   10.97859570
_cell_length_b   7.28458919
_cell_length_c   5.19789930
_cell_angle_alpha   90.00000000
_cell_angle_beta   90.00000000
_cell_angle_gamma   90.00000000
_symmetry_Int_Tables_number   1
_chemical_formula_structural   RbNbH5
_chemical_formula_sum   'Rb4 Nb4 H20'
_cell_volume   415.69970693
_cell_formula_units_Z   4
loop_
 _symmetry_equiv_pos_site_id
 _symmetry_equiv_pos_as_xyz
  1  'x, y, z'
loop_
 _atom_site_type_symbol
 _atom_site_label
 _atom_site_symmetry_multiplicity
 _atom_site_fract_x
 _atom_site_fract_y
 _atom_site_fract_z
 _atom_site_occupancy
  Rb  Rb0  1  0.67053875  0.07221474  0.34484844  1
  Rb  Rb1  1  0.17053875  0.42778426  0.34484844  1
  Rb  Rb2  1  0.82946125  0.57221474  0.84484844  1
  Rb  Rb3  1  0.32946125  0.92778526  0.84484844  1
  Nb  Nb0  1  0.51817977  0.56129677  0.30344975  1
  Nb  Nb1  1  0.01817977  0.93870323  0.30344975  1
  Nb  Nb2  1  0.98182023  0.06129577  0.80344875  1
  Nb  Nb3  1  0.48182023  0.43870423  0.80344875  1
  H  H0  1  0.33468654  0.32490925  0.81491222  1
  H  H1  1  0.83468654  0.17509075  0.81491222  1
  H  H2  1  0.98129582  0.69475277  0.31484726  1
  H  H3  1  0.48129582  0.80524623  0.31484726  1
  H  H4  1  0.60041918  0.39495173  0.06950810  1
  H  H5  1  0.10041818  0.10504827  0.06950810  1
  H  H6  1  0.38171625  0.54826323  0.06443345  1
  H  H7  1  0.88171625  0.95173777  0.06443345  1
  H  H8  1  0.95019056  0.16011645  0.45499978  1
  H  H9  1  0.45019056  0.33988455  0.45499978  1
  H  H10  1  0.16531346  0.82490925  0.31491122  1
  H  H11  1  0.66531346  0.67508975  0.31491122  1
  H  H12  1  0.51870518  0.19475277  0.81484926  1
  H  H13  1  0.01870518  0.30524623  0.81484926  1
  H  H14  1  0.89958182  0.89495073  0.56950810  1
  H  H15  1  0.39958182  0.60504927  0.56950810  1
  H  H16  1  0.11828375  0.04826223  0.56443345  1
  H  H17  1  0.61828375  0.45173777  0.56443345  1
  H  H18  1  0.54980944  0.66011645  0.95500178  1
  H  H19  1  0.04980944  0.83988455  0.95500178  1
loop_
_geom_bond_atom_site_label_1
_geom_bond_atom_site_label_2
_geom_bond_distance
_geom_bond_site_symmetry_2
H0 Nb3 1.816582 1_555
H0 Rb3 2.897635 1_545
H0 Rb1 3.127162 1_555
H1 Nb2 1.816582 1_555
H1 Rb2 2.897635 1_555
H1 Rb0 3.127164 1_555
H2 Nb1 1.823593 1_655
H2 Rb1 2.850071 1_655
H2 Rb2 3.089295 1_554
H3 Nb0 1.823586 1_555
H3 Rb0 2.850071 1_565
H3 Rb3 3.089297 1_554
H4 Nb3 1.925997 1_554
H4 Nb0 1.939639 1_555
H4 Rb0 2.857998 1_555
H4 Rb2 3.058447 1_554
H5 Nb2 1.925990 1_454
H5 Nb1 1.939634 1_545
H5 Rb1 2.857995 1_555
H5 Rb3 3.058456 1_544
H6 Nb3 1.919647 1_554
H6 Nb0 1.948606 1_555
H6 Rb1 2.875741 1_555
H6 Rb3 3.045525 1_554
H7 Nb2 1.919644 1_564
H7 Nb1 1.948606 1_655
H7 Rb0 2.875737 1_565
H7 Rb2 3.045532 1_554
H8 Nb1 1.944004 1_645
H8 Nb2 1.979709 1_555
H8 Rb1 3.159406 1_655
H8 Rb0 3.188083 1_555
H9 Nb0 1.943997 1_555
H9 Nb3 1.979706 1_555
H9 Rb0 3.159415 1_555
H9 Rb1 3.188080 1_555
H10 Nb1 1.816579 1_555
H10 Rb1 2.897643 1_555
H10 Rb3 3.127160 1_554
H11 Nb0 1.816575 1_555
H11 Rb0 2.897643 1_565
H11 Rb2 3.127158 1_554
H12 Nb3 1.823603 1_555
H12 Rb3 2.850074 1_545
H12 Rb0 3.089297 1_555
H13 Nb2 1.823596 1_455
H13 Rb2 2.850079 1_455
H13 Rb1 3.089297 1_555
H14 Nb1 1.925986 1_655
H14 Nb2 1.939631 1_565
H14 Rb2 2.857995 1_555
H14 Rb0 3.058459 1_565
H15 Nb0 1.925986 1_555
H15 Nb3 1.939631 1_555
H15 Rb3 2.857995 1_555
H15 Rb1 3.058462 1_555
H16 Nb1 1.919643 1_545
H16 Nb2 1.948603 1_455
H16 Rb3 2.875737 1_545
H16 Rb1 3.045525 1_555
H17 Nb0 1.919643 1_555
H17 Nb3 1.948603 1_555
H17 Rb2 2.875737 1_555
H17 Rb0 3.045532 1_555
H18 Nb3 1.944004 1_555
H18 Nb0 1.979701 1_556
H18 Rb3 3.159412 1_555
H18 Rb2 3.188084 1_555
H19 Nb2 1.943998 1_465
H19 Nb1 1.979699 1_556
H19 Rb2 3.159417 1_455
H19 Rb3 3.188083 1_555
