# generated using pymatgen
data_Pd4Pt4W
_symmetry_space_group_name_H-M   'P 1'
_cell_length_a   6.19832462
_cell_length_b   6.19832505
_cell_length_c   6.21470276
_cell_angle_alpha   95.60875138
_cell_angle_beta   95.81091911
_cell_angle_gamma   143.17723439
_symmetry_Int_Tables_number   1
_chemical_formula_structural   Pd4Pt4W
_chemical_formula_sum   'Pd4 Pt4 W1'
_cell_volume   135.81574122
_cell_formula_units_Z   1
loop_
 _symmetry_equiv_pos_site_id
 _symmetry_equiv_pos_as_xyz
  1  'x, y, z'
loop_
 _atom_site_type_symbol
 _atom_site_label
 _atom_site_symmetry_multiplicity
 _atom_site_fract_x
 _atom_site_fract_y
 _atom_site_fract_z
 _atom_site_occupancy
  Pd  Pd0  1  0.33642815  0.66068767  0.99711582  1
  Pd  Pd1  1  0.66124308  0.33589441  0.99713749  1
  Pd  Pd2  1  0.33829309  0.33993098  0.67822407  1
  Pd  Pd3  1  0.67195122  0.99948364  0.67143585  1
  Pt  Pt0  1  0.99871806  0.67428240  0.67300047  1
  Pt  Pt1  1  0.99966135  0.32859555  0.32825690  1
  Pt  Pt2  1  0.32947165  0.00005015  0.32951981  1
  Pt  Pt3  1  0.65944071  0.65983065  0.31927036  1
  W  W0  1  0.00479369  0.00124553  0.00603922  1
loop_
_geom_bond_atom_site_label_1
_geom_bond_atom_site_label_2
_geom_bond_distance
_geom_bond_site_symmetry_2
Pd0 Pd2 2.674274 1_555
Pd0 Pt3 2.687822 1_556
Pd0 Pd3 2.742765 1_555
Pd0 Pd3 2.742768 1_445
Pd0 W0 2.747989 1_666
Pd0 W0 2.747989 1_556
Pd0 Pt1 2.765556 1_456
Pd0 Pt1 2.765556 1_566
Pd0 Pt0 2.812091 1_455
Pd0 Pt2 2.829813 1_566
Pd0 Pd1 2.842326 1_455
Pd0 Pd1 2.842327 1_565
Pd1 Pd2 2.687429 1_555
Pd1 Pt3 2.700777 1_556
Pd1 W0 2.723462 1_556
Pd1 W0 2.723462 1_666
Pd1 Pt0 2.736357 1_555
Pd1 Pt0 2.736357 1_445
Pd1 Pt2 2.770625 1_556
Pd1 Pt2 2.770631 1_666
Pd1 Pd3 2.805939 1_545
Pd1 Pt1 2.816510 1_556
Pd2 Pd3 2.739911 1_555
Pd2 Pd3 2.739913 1_445
Pd2 Pt0 2.740626 1_555
Pd2 Pt0 2.740626 1_445
Pd2 W0 2.751688 1_556
Pd2 W0 2.751688 1_666
Pd2 Pt1 2.819669 1_455
Pd2 Pt2 2.834894 1_555
Pd2 Pt3 2.883606 1_445
Pd2 Pt3 2.883608 1_555
Pd3 W0 2.769712 1_666
Pd3 Pt1 2.815979 1_455
Pd3 Pt1 2.815981 1_565
Pd3 Pt0 2.832307 1_455
Pd3 Pt0 2.832310 1_565
Pd3 Pt3 2.834047 1_555
Pd3 Pt2 2.849828 1_565
Pt0 W0 2.726637 1_666
Pt0 Pt2 2.817450 1_555
Pt0 Pt2 2.817455 1_665
Pt0 Pt3 2.826107 1_555
Pt0 Pt1 2.882115 1_555
Pt1 W0 2.729455 1_655
Pt1 Pt3 2.751180 1_545
Pt1 Pt3 2.751183 1_655
Pt1 Pt2 2.805270 1_555
Pt1 Pt2 2.805276 1_665
Pt2 W0 2.701677 1_555
Pt2 Pt3 2.756417 1_555
Pt2 Pt3 2.756420 1_445
Pt3 W0 2.691937 1_665
Pt3 W0 2.691941 1_555
