# generated using pymatgen
data_CsScMnSe3
_symmetry_space_group_name_H-M   'P 1'
_cell_length_a   8.30448044
_cell_length_b   8.30447904
_cell_length_c   10.67342599
_cell_angle_alpha   90.00000000
_cell_angle_beta   90.00000000
_cell_angle_gamma   151.61680786
_symmetry_Int_Tables_number   1
_chemical_formula_structural   CsScMnSe3
_chemical_formula_sum   'Cs2 Sc2 Mn2 Se6'
_cell_volume   349.91047866
_cell_formula_units_Z   2
loop_
 _symmetry_equiv_pos_site_id
 _symmetry_equiv_pos_as_xyz
  1  'x, y, z'
loop_
 _atom_site_type_symbol
 _atom_site_label
 _atom_site_symmetry_multiplicity
 _atom_site_fract_x
 _atom_site_fract_y
 _atom_site_fract_z
 _atom_site_occupancy
  Cs  Cs0  1  0.25717349  0.74282651  0.25000000  1
  Cs  Cs1  1  0.74282651  0.25717349  0.75000000  1
  Sc  Sc0  1  0.00000000  0.00000000  0.00000000  1
  Sc  Sc1  1  0.00000000  0.00000000  0.50000000  1
  Mn  Mn0  1  0.53826987  0.46173013  0.25000000  1
  Mn  Mn1  1  0.46173013  0.53826987  0.75000000  1
  Se  Se0  1  0.61189649  0.38810351  0.04712632  1
  Se  Se1  1  0.38810351  0.61189649  0.95287368  1
  Se  Se2  1  0.38810351  0.61189649  0.54712632  1
  Se  Se3  1  0.61189649  0.38810351  0.45287368  1
  Se  Se4  1  0.94514445  0.05485555  0.25000000  1
  Se  Se5  1  0.05485555  0.94514445  0.75000000  1
loop_
_geom_bond_atom_site_label_1
_geom_bond_atom_site_label_2
_geom_bond_distance
_geom_bond_site_symmetry_2
Cs0 Se4 3.647769 1_455
Cs0 Se4 3.647770 1_565
Cs0 Se3 3.782338 1_565
Cs0 Se0 3.782338 1_565
Cs0 Se3 3.782339 1_455
Cs0 Se0 3.782339 1_455
Cs0 Se2 3.808175 1_555
Cs0 Se1 3.808175 1_554
Cs1 Se5 3.647769 1_655
Cs1 Se5 3.647770 1_545
Cs1 Se1 3.782338 1_545
Cs1 Se2 3.782338 1_545
Cs1 Se1 3.782339 1_655
Cs1 Se2 3.782339 1_655
Cs1 Se0 3.808175 1_556
Cs1 Se3 3.808175 1_555
Sc0 Se1 2.764876 1_554
Sc0 Se0 2.764876 1_445
Sc0 Se0 2.764876 1_555
Sc0 Se1 2.764876 1_444
Sc0 Se4 2.810752 1_455
Sc0 Se5 2.810752 1_544
Sc1 Se2 2.764876 1_555
Sc1 Se3 2.764876 1_445
Sc1 Se3 2.764876 1_555
Sc1 Se2 2.764876 1_445
Sc1 Se4 2.810752 1_455
Sc1 Se5 2.810752 1_545
Mn0 Se3 2.468660 1_555
Mn0 Se0 2.468660 1_555
Mn0 Se4 2.528578 1_565
Mn0 Se4 2.528579 1_455
Mn1 Se1 2.468660 1_555
Mn1 Se2 2.468660 1_555
Mn1 Se5 2.528578 1_545
Mn1 Se5 2.528579 1_655
