# generated using pymatgen
data_Ni2SbTe2
_symmetry_space_group_name_H-M   'P 1'
_cell_length_a   3.90426128
_cell_length_b   3.90426135
_cell_length_c   16.27485869
_cell_angle_alpha   90.00000000
_cell_angle_beta   90.00000000
_cell_angle_gamma   120.00000803
_symmetry_Int_Tables_number   1
_chemical_formula_structural   Ni2SbTe2
_chemical_formula_sum   'Ni4 Sb2 Te4'
_cell_volume   214.84516195
_cell_formula_units_Z   2
loop_
 _symmetry_equiv_pos_site_id
 _symmetry_equiv_pos_as_xyz
  1  'x, y, z'
loop_
 _atom_site_type_symbol
 _atom_site_label
 _atom_site_symmetry_multiplicity
 _atom_site_fract_x
 _atom_site_fract_y
 _atom_site_fract_z
 _atom_site_occupancy
  Ni  Ni0  1  -0.00000000  -0.00000000  0.16895855  1
  Ni  Ni1  1  -0.00000000  0.00000000  0.66895855  1
  Ni  Ni2  1  0.00000000  0.00000000  0.83104145  1
  Ni  Ni3  1  0.00000000  -0.00000000  0.33104145  1
  Sb  Sb0  1  0.33333300  0.66666700  0.25000000  1
  Sb  Sb1  1  0.66666700  0.33333300  0.75000000  1
  Te  Te0  1  0.33333300  0.66666700  0.59466934  1
  Te  Te1  1  0.66666700  0.33333300  0.09466934  1
  Te  Te2  1  0.66666700  0.33333300  0.40533066  1
  Te  Te3  1  0.33333300  0.66666700  0.90533066  1
loop_
_geom_bond_atom_site_label_1
_geom_bond_atom_site_label_2
_geom_bond_distance
_geom_bond_site_symmetry_2
Ni0 Te1 2.557903 1_455
Ni0 Te1 2.557906 1_555
Ni0 Te1 2.557906 1_445
Ni0 Sb0 2.611642 1_545
Ni0 Sb0 2.611645 1_445
Ni0 Sb0 2.611645 1_555
Ni0 Ni3 2.637876 1_555
Ni1 Te0 2.557903 1_545
Ni1 Te0 2.557906 1_445
Ni1 Te0 2.557906 1_555
Ni1 Sb1 2.611642 1_455
Ni1 Sb1 2.611645 1_555
Ni1 Sb1 2.611645 1_445
Ni1 Ni2 2.637876 1_555
Ni2 Te3 2.557903 1_545
Ni2 Te3 2.557906 1_445
Ni2 Te3 2.557906 1_555
Ni2 Sb1 2.611642 1_455
Ni2 Sb1 2.611645 1_555
Ni2 Sb1 2.611645 1_445
Ni3 Te2 2.557903 1_455
Ni3 Te2 2.557906 1_555
Ni3 Te2 2.557906 1_445
Ni3 Sb0 2.611642 1_545
Ni3 Sb0 2.611645 1_445
Ni3 Sb0 2.611645 1_555
