# generated using pymatgen
data_Cs2Zr7BeBr18
_symmetry_space_group_name_H-M   'P 1'
_cell_length_a   11.01172204
_cell_length_b   11.01172151
_cell_length_c   11.01172115
_cell_angle_alpha   55.39889913
_cell_angle_beta   55.39890389
_cell_angle_gamma   55.39890569
_symmetry_Int_Tables_number   1
_chemical_formula_structural   Cs2Zr7BeBr18
_chemical_formula_sum   'Cs2 Zr7 Be1 Br18'
_cell_volume   843.26230218
_cell_formula_units_Z   1
loop_
 _symmetry_equiv_pos_site_id
 _symmetry_equiv_pos_as_xyz
  1  'x, y, z'
loop_
 _atom_site_type_symbol
 _atom_site_label
 _atom_site_symmetry_multiplicity
 _atom_site_fract_x
 _atom_site_fract_y
 _atom_site_fract_z
 _atom_site_occupancy
  Cs  Cs0  1  0.77528955  0.77528955  0.77528955  1
  Cs  Cs1  1  0.22471045  0.22471045  0.22471045  1
  Zr  Zr0  1  0.16097466  0.90081875  0.79200266  1
  Zr  Zr1  1  0.83902534  0.09918125  0.20799734  1
  Zr  Zr2  1  0.09918125  0.20799734  0.83902534  1
  Zr  Zr3  1  0.20799734  0.83902534  0.09918125  1
  Zr  Zr4  1  0.90081875  0.79200266  0.16097466  1
  Zr  Zr5  1  0.79200266  0.16097466  0.90081875  1
  Zr  Zr6  1  0.50000000  0.50000000  0.50000000  1
  Be  Be0  1  0.00000000  0.00000000  0.00000000  1
  Br  Br0  1  0.21937993  0.47661194  0.63947219  1
  Br  Br1  1  0.78062007  0.52338806  0.36052781  1
  Br  Br2  1  0.34944868  0.05469219  0.93099857  1
  Br  Br3  1  0.65055132  0.94530781  0.06900143  1
  Br  Br4  1  0.93099857  0.34944868  0.05469219  1
  Br  Br5  1  0.70954552  0.87326400  0.41984709  1
  Br  Br6  1  0.36052781  0.78062007  0.52338806  1
  Br  Br7  1  0.58015291  0.29045448  0.12673600  1
  Br  Br8  1  0.29045448  0.12673600  0.58015291  1
  Br  Br9  1  0.12673600  0.58015291  0.29045448  1
  Br  Br10  1  0.94530781  0.06900143  0.65055132  1
  Br  Br11  1  0.41984709  0.70954552  0.87326400  1
  Br  Br12  1  0.87326400  0.41984709  0.70954552  1
  Br  Br13  1  0.06900143  0.65055132  0.94530781  1
  Br  Br14  1  0.47661194  0.63947219  0.21937993  1
  Br  Br15  1  0.63947219  0.21937993  0.47661194  1
  Br  Br16  1  0.52338806  0.36052781  0.78062007  1
  Br  Br17  1  0.05469219  0.93099857  0.34944868  1
loop_
_geom_bond_atom_site_label_1
_geom_bond_atom_site_label_2
_geom_bond_distance
_geom_bond_site_symmetry_2
Be0 Zr2 2.369002 1_554
Be0 Zr4 2.369002 1_445
Be0 Zr1 2.369002 1_455
Be0 Zr0 2.369002 1_544
Be0 Zr3 2.369002 1_545
Be0 Zr5 2.369002 1_454
Br0 Zr6 2.653020 1_555
Br0 Zr2 3.015139 1_555
Br0 Cs0 3.997716 1_455
Br1 Zr6 2.653020 1_555
Br1 Zr4 3.015139 1_555
Br1 Cs1 3.997716 1_655
Br2 Zr2 2.723017 1_555
Br2 Zr3 2.725044 1_546
Br2 Cs1 3.842297 1_556
Br2 Cs0 3.856087 1_545
Br3 Zr4 2.723017 1_555
Br3 Zr5 2.725044 1_564
Br3 Cs0 3.842297 1_554
Br3 Cs1 3.856087 1_565
Br4 Zr1 2.723017 1_555
Br4 Zr2 2.725044 1_654
Br4 Cs1 3.842297 1_655
Br4 Cs0 3.856086 1_554
Br5 Zr4 2.701958 1_555
Br5 Zr1 2.706208 1_565
Br5 Cs0 3.813528 1_555
Br6 Zr6 2.653020 1_555
Br6 Zr0 3.015139 1_555
Br6 Cs1 3.997715 1_565
Br7 Zr1 2.701958 1_555
Br7 Zr5 2.706208 1_554
Br7 Cs1 3.813528 1_555
Br8 Zr2 2.701958 1_555
Br8 Zr0 2.706208 1_545
Br8 Cs1 3.813528 1_555
Br9 Zr3 2.701958 1_555
Br9 Zr4 2.706208 1_455
Br9 Cs1 3.813528 1_555
Br10 Zr5 2.723017 1_555
Br10 Zr0 2.725044 1_645
Br10 Cs0 3.842297 1_545
Br10 Cs1 3.856086 1_655
Br11 Zr0 2.701958 1_555
Br11 Zr3 2.706208 1_556
Br11 Cs0 3.813528 1_555
Br12 Zr5 2.701958 1_555
Br12 Zr2 2.706208 1_655
Br12 Cs0 3.813528 1_555
Br13 Zr0 2.723017 1_555
Br13 Zr4 2.725044 1_456
Br13 Cs0 3.842297 1_455
Br13 Cs1 3.856086 1_556
Br14 Zr6 2.653020 1_555
Br14 Zr3 3.015139 1_555
Br14 Cs0 3.997715 1_554
Br15 Zr6 2.653020 1_555
Br15 Zr1 3.015139 1_555
Br15 Cs0 3.997715 1_545
Br16 Zr6 2.653020 1_555
Br16 Zr5 3.015139 1_555
Br16 Cs1 3.997715 1_556
Br17 Zr3 2.723017 1_555
Br17 Zr1 2.725044 1_465
Br17 Cs1 3.842297 1_565
Br17 Cs0 3.856086 1_455
