# generated using pymatgen
data_KSnRhS4
_symmetry_space_group_name_H-M   'P 1'
_cell_length_a   3.67674102
_cell_length_b   7.72303809
_cell_length_c   6.24729458
_cell_angle_alpha   74.56107247
_cell_angle_beta   90.00000000
_cell_angle_gamma   90.00000000
_symmetry_Int_Tables_number   1
_chemical_formula_structural   KSnRhS4
_chemical_formula_sum   'K1 Sn1 Rh1 S4'
_cell_volume   170.99437817
_cell_formula_units_Z   1
loop_
 _symmetry_equiv_pos_site_id
 _symmetry_equiv_pos_as_xyz
  1  'x, y, z'
loop_
 _atom_site_type_symbol
 _atom_site_label
 _atom_site_symmetry_multiplicity
 _atom_site_fract_x
 _atom_site_fract_y
 _atom_site_fract_z
 _atom_site_occupancy
  K  K0  1  0.50000000  0.49542484  0.64562744  1
  Sn  Sn0  1  0.00000000  0.99869298  0.00426032  1
  Rh  Rh0  1  0.50000000  0.00190692  0.50419673  1
  S  S0  1  0.00000000  0.83260078  0.41282030  1
  S  S1  1  0.50000000  0.81463927  0.87737414  1
  S  S2  1  0.00000000  0.16980668  0.59622780  1
  S  S3  1  0.50000000  0.18604853  0.12645328  1
loop_
_geom_bond_atom_site_label_1
_geom_bond_atom_site_label_2
_geom_bond_distance
_geom_bond_site_symmetry_2
K0 S1 3.173983 1_555
K0 S2 3.195635 1_555
K0 S2 3.195635 1_655
K0 S0 3.203031 1_555
K0 S0 3.203031 1_655
K0 S3 3.303143 1_556
Rh0 S1 2.394096 1_545
Rh0 S2 2.405935 1_555
Rh0 S2 2.405935 1_655
Rh0 S3 2.409280 1_555
Rh0 S0 2.410934 1_545
Rh0 S0 2.410934 1_645
S0 Sn0 2.533171 1_555
S1 Sn0 2.574573 1_656
S1 Sn0 2.574573 1_556
S2 Sn0 2.539834 1_546
S3 Sn0 2.577619 1_545
S3 Sn0 2.577619 1_645
