# generated using pymatgen
data_Ba2Ag5BiS6
_symmetry_space_group_name_H-M   'P 1'
_cell_length_a   4.24362609
_cell_length_b   7.25422361
_cell_length_c   11.36470542
_cell_angle_alpha   95.11281550
_cell_angle_beta   90.00000000
_cell_angle_gamma   107.00729565
_symmetry_Int_Tables_number   1
_chemical_formula_structural   Ba2Ag5BiS6
_chemical_formula_sum   'Ba2 Ag5 Bi1 S6'
_cell_volume   333.09760169
_cell_formula_units_Z   1
loop_
 _symmetry_equiv_pos_site_id
 _symmetry_equiv_pos_as_xyz
  1  'x, y, z'
loop_
 _atom_site_type_symbol
 _atom_site_label
 _atom_site_symmetry_multiplicity
 _atom_site_fract_x
 _atom_site_fract_y
 _atom_site_fract_z
 _atom_site_occupancy
  Ba  Ba0  1  0.25385878  0.50771756  0.70542072  1
  Ba  Ba1  1  0.74614122  0.49228244  0.29457928  1
  Ag  Ag0  1  0.01712201  0.03424402  0.24834273  1
  Ag  Ag1  1  0.98287799  0.96575598  0.75165727  1
  Ag  Ag2  1  0.35411093  0.70822186  0.03777077  1
  Ag  Ag3  1  0.64588907  0.29177814  0.96222923  1
  Ag  Ag4  1  0.00000000  0.00000000  0.00000000  1
  Bi  Bi0  1  0.50000000  0.00000000  0.50000000  1
  S  S0  1  0.12968665  0.25937130  0.45067384  1
  S  S1  1  0.87031335  0.74062870  0.54932616  1
  S  S2  1  0.15908809  0.31817518  0.09943154  1
  S  S3  1  0.84091191  0.68182482  0.90056846  1
  S  S4  1  0.41366784  0.82733569  0.26226050  1
  S  S5  1  0.58633216  0.17266431  0.73773950  1
loop_
_geom_bond_atom_site_label_1
_geom_bond_atom_site_label_2
_geom_bond_distance
_geom_bond_site_symmetry_2
Ba0 S5 3.193475 1_455
Ba0 S5 3.193475 1_555
Ba0 S3 3.221829 1_555
Ba0 S3 3.221831 1_455
Ba0 S0 3.228012 1_555
Ba0 S1 3.285383 1_555
Ba0 S1 3.285388 1_455
Ba1 S4 3.193475 1_655
Ba1 S4 3.193475 1_555
Ba1 S2 3.221829 1_555
Ba1 S2 3.221831 1_655
Ba1 S1 3.228012 1_555
Ba1 S0 3.285383 1_555
Ba1 S0 3.285388 1_655
Ag0 S4 2.574794 1_545
Ag0 S4 2.574794 1_445
Ag0 S0 2.656501 1_555
Ag0 S2 2.713794 1_555
Ag1 S5 2.574794 1_565
Ag1 S5 2.574794 1_665
Ag1 S1 2.656501 1_555
Ag1 S3 2.713794 1_555
Ag2 S4 2.607444 1_555
Ag2 S3 2.629391 1_554
Ag2 S3 2.629395 1_454
Ag2 S2 2.857537 1_555
Ag3 S5 2.607444 1_555
Ag3 S2 2.629391 1_556
Ag3 S2 2.629395 1_656
Ag3 S3 2.857537 1_555
Ag4 S2 2.384045 1_555
Ag4 S3 2.384045 1_444
Bi0 S5 2.851563 1_555
Bi0 S4 2.851563 1_545
Bi0 S1 2.870823 1_545
Bi0 S0 2.870823 1_555
Bi0 S0 2.870829 1_655
Bi0 S1 2.870829 1_445
