# generated using pymatgen
data_Hg3Te(SeCl3)2
_symmetry_space_group_name_H-M   'P 1'
_cell_length_a   7.74253426
_cell_length_b   6.98870840
_cell_length_c   13.39042002
_cell_angle_alpha   89.99280828
_cell_angle_beta   90.00000000
_cell_angle_gamma   90.00000000
_symmetry_Int_Tables_number   1
_chemical_formula_structural   Hg3Te(SeCl3)2
_chemical_formula_sum   'Hg6 Te2 Se4 Cl12'
_cell_volume   724.55982948
_cell_formula_units_Z   2
loop_
 _symmetry_equiv_pos_site_id
 _symmetry_equiv_pos_as_xyz
  1  'x, y, z'
loop_
 _atom_site_type_symbol
 _atom_site_label
 _atom_site_symmetry_multiplicity
 _atom_site_fract_x
 _atom_site_fract_y
 _atom_site_fract_z
 _atom_site_occupancy
  Hg  Hg0  1  0.26115216  0.00384923  0.74733734  1
  Hg  Hg1  1  0.76115216  0.99615077  0.75266266  1
  Hg  Hg2  1  0.23884784  0.00384923  0.24733734  1
  Hg  Hg3  1  0.50000000  0.00000000  0.00000000  1
  Hg  Hg4  1  0.73884784  0.99615077  0.25266266  1
  Hg  Hg5  1  0.00000000  0.00000000  0.50000000  1
  Te  Te0  1  0.50000000  0.50000000  0.50000000  1
  Te  Te1  1  0.00000000  0.50000000  0.00000000  1
  Se  Se0  1  0.48977235  0.82792426  0.16678113  1
  Se  Se1  1  0.98977235  0.17207574  0.33321887  1
  Se  Se2  1  0.01022765  0.82792426  0.66678113  1
  Se  Se3  1  0.51022765  0.17207574  0.83321887  1
  Cl  Cl0  1  0.27323610  0.72058344  0.42344192  1
  Cl  Cl1  1  0.25902019  0.30009576  0.57815295  1
  Cl  Cl2  1  0.00917846  0.29459872  0.84228457  1
  Cl  Cl3  1  0.24097981  0.30009576  0.07815295  1
  Cl  Cl4  1  0.74097981  0.69990424  0.42184705  1
  Cl  Cl5  1  0.22676390  0.72058344  0.92344192  1
  Cl  Cl6  1  0.49082154  0.29459872  0.34228457  1
  Cl  Cl7  1  0.77323610  0.27941656  0.07655808  1
  Cl  Cl8  1  0.99082154  0.70540128  0.15771543  1
  Cl  Cl9  1  0.50917846  0.70540128  0.65771543  1
  Cl  Cl10  1  0.72676390  0.27941656  0.57655808  1
  Cl  Cl11  1  0.75902019  0.69990424  0.92184705  1
loop_
_geom_bond_atom_site_label_1
_geom_bond_atom_site_label_2
_geom_bond_distance
_geom_bond_site_symmetry_2
Hg0 Se3 2.534575 1_555
Hg0 Se2 2.539679 1_545
Hg1 Se2 2.534575 1_655
Hg1 Se3 2.539679 1_565
Hg2 Se1 2.534575 1_455
Hg2 Se0 2.539679 1_545
Hg3 Se0 2.537578 1_545
Hg3 Se3 2.537578 1_554
Hg4 Se0 2.534575 1_555
Hg4 Se1 2.539679 1_565
Hg5 Se2 2.537578 1_545
Hg5 Se1 2.537578 1_455
Cl0 Te0 2.551394 1_555
Cl0 Hg5 3.056175 1_565
Cl0 Hg2 3.090224 1_565
Cl1 Te0 2.554955 1_555
Cl1 Hg0 3.068849 1_555
Cl1 Hg5 3.084838 1_555
Cl2 Te1 2.554694 1_556
Cl2 Hg1 3.078795 1_445
Cl2 Hg0 3.090632 1_555
Cl3 Te1 2.554955 1_555
Cl3 Hg2 3.068849 1_555
Cl3 Hg3 3.084838 1_555
Cl4 Te0 2.554955 1_555
Cl4 Hg4 3.068849 1_555
Cl4 Hg5 3.084838 1_665
Cl5 Te1 2.551394 1_556
Cl5 Hg3 3.056175 1_566
Cl5 Hg0 3.090224 1_565
Cl6 Te0 2.554694 1_555
Cl6 Hg4 3.078795 1_545
Cl6 Hg2 3.090632 1_555
Cl7 Te1 2.551394 1_655
Cl7 Hg3 3.056175 1_555
Cl7 Hg4 3.090224 1_545
Cl8 Te1 2.554694 1_655
Cl8 Hg2 3.078795 1_665
Cl8 Hg4 3.090632 1_555
Cl9 Te0 2.554694 1_555
Cl9 Hg0 3.078795 1_565
Cl9 Hg1 3.090632 1_555
Cl10 Te0 2.551394 1_555
Cl10 Hg5 3.056175 1_655
Cl10 Hg1 3.090224 1_545
Cl11 Te1 2.554955 1_656
Cl11 Hg1 3.068849 1_555
Cl11 Hg3 3.084838 1_566
