# generated using pymatgen
data_BaGe7As5Pt4
_symmetry_space_group_name_H-M   'P 1'
_cell_length_a   7.52878145
_cell_length_b   7.52229567
_cell_length_c   7.51646126
_cell_angle_alpha   109.15137711
_cell_angle_beta   109.48863275
_cell_angle_gamma   109.67600912
_symmetry_Int_Tables_number   1
_chemical_formula_structural   BaGe7As5Pt4
_chemical_formula_sum   'Ba1 Ge7 As5 Pt4'
_cell_volume   328.08158457
_cell_formula_units_Z   1
loop_
 _symmetry_equiv_pos_site_id
 _symmetry_equiv_pos_as_xyz
  1  'x, y, z'
loop_
 _atom_site_type_symbol
 _atom_site_label
 _atom_site_symmetry_multiplicity
 _atom_site_fract_x
 _atom_site_fract_y
 _atom_site_fract_z
 _atom_site_occupancy
  Ba  Ba0  1  0.00091118  0.99571163  0.99801162  1
  Ge  Ge0  1  0.49601280  0.85572895  0.64616199  1
  Ge  Ge1  1  0.14753196  0.35228432  0.50078432  1
  Ge  Ge2  1  0.51267176  0.15416757  0.36413188  1
  Ge  Ge3  1  0.84734831  0.34977147  0.20112093  1
  Ge  Ge4  1  0.64108907  0.48945522  0.84727411  1
  Ge  Ge5  1  0.35766796  0.20718300  0.84978871  1
  Ge  Ge6  1  0.79672015  0.15381029  0.64909790  1
  As  As0  1  0.85060745  0.63999885  0.49398552  1
  As  As1  1  0.35360736  0.50040661  0.14679356  1
  As  As2  1  0.21242540  0.85851903  0.35979545  1
  As  As3  1  0.14415951  0.63997951  0.78492691  1
  As  As4  1  0.64457776  0.79313242  0.14758834  1
  Pt  Pt0  1  0.00049422  0.00148463  0.50531202  1
  Pt  Pt1  1  0.50040712  0.50392038  0.50327934  1
  Pt  Pt2  1  0.00085758  0.50522573  0.00243558  1
  Pt  Pt3  1  0.49291041  0.99921838  0.99951380  1
loop_
_geom_bond_atom_site_label_1
_geom_bond_atom_site_label_2
_geom_bond_distance
_geom_bond_site_symmetry_2
Ba0 Ge6 3.353081 1_465
Ba0 Ge1 3.356522 1_566
Ba0 Ge5 3.356832 1_565
Ba0 Ge4 3.361366 1_455
Ba0 Ge0 3.364855 1_455
Ba0 Ge3 3.368109 1_466
Ba0 Ge2 3.394023 1_566
Ge0 Pt1 2.525039 1_555
Ge0 Pt3 2.529246 1_555
Ge0 Ge6 2.582531 1_565
Ge1 Pt1 2.504326 1_555
Ge1 Pt0 2.511358 1_555
Ge1 Ge3 2.593859 1_455
Ge2 Ge6 2.472352 1_555
Ge2 Pt3 2.531205 1_544
Ge2 Pt1 2.539066 1_555
Ge3 Pt3 2.512406 1_544
Ge3 Pt2 2.514126 1_655
Ge4 Ge5 2.462573 1_555
Ge4 Pt1 2.500804 1_555
Ge4 Pt2 2.509166 1_656
Ge5 Pt3 2.492737 1_545
Ge5 Pt0 2.500623 1_555
Ge6 Pt0 2.512418 1_655
Ge6 Pt2 2.517465 1_656
As0 Pt1 2.521237 1_555
As0 Ge3 2.527298 1_555
As0 Pt0 2.528319 1_665
As0 As3 2.538183 1_655
As0 Ba0 3.352935 1_655
As1 Pt1 2.521875 1_555
As1 As4 2.526258 1_555
As1 Pt2 2.529760 1_555
As1 Ge5 2.590354 1_554
As1 Ba0 3.340524 1_544
As2 Ge0 2.487059 1_555
As2 Pt2 2.534909 1_555
As2 Pt0 2.539087 1_565
As2 Ge2 2.564134 1_565
As2 Ba0 3.324800 1_554
As3 Ge1 2.507198 1_555
As3 Pt3 2.516842 1_555
As3 Pt2 2.528283 1_556
As3 Ba0 3.342576 1_555
As4 Pt3 2.534169 1_554
As4 Pt0 2.542808 1_665
As4 Ge4 2.617455 1_554
As4 Ba0 3.341711 1_654
