# generated using pymatgen
data_TaGaOsRu
_symmetry_space_group_name_H-M   'P 1'
_cell_length_a   4.37306682
_cell_length_b   4.37306676
_cell_length_c   4.37306607
_cell_angle_alpha   60.00000515
_cell_angle_beta   60.00000563
_cell_angle_gamma   60.00000327
_symmetry_Int_Tables_number   1
_chemical_formula_structural   TaGaOsRu
_chemical_formula_sum   'Ta1 Ga1 Os1 Ru1'
_cell_volume   59.13482391
_cell_formula_units_Z   1
loop_
 _symmetry_equiv_pos_site_id
 _symmetry_equiv_pos_as_xyz
  1  'x, y, z'
loop_
 _atom_site_type_symbol
 _atom_site_label
 _atom_site_symmetry_multiplicity
 _atom_site_fract_x
 _atom_site_fract_y
 _atom_site_fract_z
 _atom_site_occupancy
  Ta  Ta0  1  0.00000000  0.00000000  0.00000000  1
  Ga  Ga0  1  0.50000000  0.50000000  0.50000000  1
  Os  Os0  1  0.25000000  0.25000000  0.25000000  1
  Ru  Ru0  1  0.75000000  0.75000000  0.75000000  1
loop_
_geom_bond_atom_site_label_1
_geom_bond_atom_site_label_2
_geom_bond_distance
_geom_bond_site_symmetry_2
Ga0 Os0 2.677945 1_555
Ga0 Ru0 2.677945 1_555
Ga0 Os0 2.677945 1_556
Ga0 Ru0 2.677945 1_554
Ga0 Os0 2.677946 1_565
Ga0 Ru0 2.677946 1_545
Ga0 Ru0 2.677946 1_455
Ga0 Os0 2.677946 1_655
Os0 Ta0 2.677945 1_555
Os0 Ta0 2.677945 1_556
Os0 Ta0 2.677946 1_565
Os0 Ta0 2.677946 1_655
Ru0 Ta0 2.677945 1_666
Ru0 Ta0 2.677945 1_665
Ru0 Ta0 2.677946 1_656
Ru0 Ta0 2.677946 1_566
