# generated using pymatgen
data_P2PbAu2
_symmetry_space_group_name_H-M   'P 1'
_cell_length_a   6.58243990
_cell_length_b   11.90808894
_cell_length_c   22.45014576
_cell_angle_alpha   90.00000000
_cell_angle_beta   90.00000000
_cell_angle_gamma   106.04458214
_symmetry_Int_Tables_number   1
_chemical_formula_structural   P2PbAu2
_chemical_formula_sum   'P32 Pb16 Au32'
_cell_volume   1691.19128925
_cell_formula_units_Z   16
loop_
 _symmetry_equiv_pos_site_id
 _symmetry_equiv_pos_as_xyz
  1  'x, y, z'
loop_
 _atom_site_type_symbol
 _atom_site_label
 _atom_site_symmetry_multiplicity
 _atom_site_fract_x
 _atom_site_fract_y
 _atom_site_fract_z
 _atom_site_occupancy
  P  P0_0  1  0.10068474  0.20136949  0.27157055  1
  P  P0_1  1  0.10068474  0.20136949  0.77157055  1
  P  P0_2  1  0.10068474  0.70136949  0.27157055  1
  P  P0_3  1  0.10068474  0.70136949  0.77157055  1
  P  P0_4  1  0.60068474  0.20136949  0.27157055  1
  P  P0_5  1  0.60068474  0.20136949  0.77157055  1
  P  P0_6  1  0.60068474  0.70136949  0.27157055  1
  P  P0_7  1  0.60068474  0.70136949  0.77157055  1
  P  P1_0  1  0.39931526  0.29863051  0.02157055  1
  P  P1_1  1  0.39931526  0.29863051  0.52157055  1
  P  P1_2  1  0.39931526  0.79863051  0.02157055  1
  P  P1_3  1  0.39931526  0.79863051  0.52157055  1
  P  P1_4  1  0.89931526  0.29863051  0.02157055  1
  P  P1_5  1  0.89931526  0.29863051  0.52157055  1
  P  P1_6  1  0.89931526  0.79863051  0.02157055  1
  P  P1_7  1  0.89931526  0.79863051  0.52157055  1
  P  P2_0  1  0.39931526  0.29863051  0.22842945  1
  P  P2_1  1  0.39931526  0.29863051  0.72842945  1
  P  P2_2  1  0.39931526  0.79863051  0.22842945  1
  P  P2_3  1  0.39931526  0.79863051  0.72842945  1
  P  P2_4  1  0.89931526  0.29863051  0.22842945  1
  P  P2_5  1  0.89931526  0.29863051  0.72842945  1
  P  P2_6  1  0.89931526  0.79863051  0.22842945  1
  P  P2_7  1  0.89931526  0.79863051  0.72842945  1
  P  P3_0  1  0.10068474  0.20136949  0.47842945  1
  P  P3_1  1  0.10068474  0.20136949  0.97842945  1
  P  P3_2  1  0.10068474  0.70136949  0.47842945  1
  P  P3_3  1  0.10068474  0.70136949  0.97842945  1
  P  P3_4  1  0.60068474  0.20136949  0.47842945  1
  P  P3_5  1  0.60068474  0.20136949  0.97842945  1
  P  P3_6  1  0.60068474  0.70136949  0.47842945  1
  P  P3_7  1  0.60068474  0.70136949  0.97842945  1
  Pb  Pb0_0  1  0.23785547  0.47571043  0.37500000  1
  Pb  Pb0_1  1  0.23785547  0.47571043  0.87500000  1
  Pb  Pb0_2  1  0.23785547  0.97571043  0.37500000  1
  Pb  Pb0_3  1  0.23785547  0.97571043  0.87500000  1
  Pb  Pb0_4  1  0.73785546  0.47571043  0.37500000  1
  Pb  Pb0_5  1  0.73785546  0.47571043  0.87500000  1
  Pb  Pb0_6  1  0.73785546  0.97571043  0.37500000  1
  Pb  Pb0_7  1  0.73785546  0.97571043  0.87500000  1
  Pb  Pb1_0  1  0.26214454  0.02428956  0.12500000  1
  Pb  Pb1_1  1  0.26214454  0.02428956  0.62500000  1
  Pb  Pb1_2  1  0.26214454  0.52428957  0.12500000  1
  Pb  Pb1_3  1  0.26214454  0.52428957  0.62500000  1
  Pb  Pb1_4  1  0.76214454  0.02428956  0.12500000  1
  Pb  Pb1_5  1  0.76214454  0.02428956  0.62500000  1
  Pb  Pb1_6  1  0.76214454  0.52428957  0.12500000  1
  Pb  Pb1_7  1  0.76214454  0.52428957  0.62500000  1
  Au  Au0_0  1  0.00000000  0.00000000  0.00000000  1
  Au  Au0_1  1  0.00000000  0.00000000  0.50000000  1
  Au  Au0_2  1  0.00000000  0.50000000  0.00000000  1
  Au  Au0_3  1  0.00000000  0.50000000  0.50000000  1
  Au  Au0_4  1  0.50000000  0.00000000  0.00000000  1
  Au  Au0_5  1  0.50000000  0.00000000  0.50000000  1
  Au  Au0_6  1  0.50000000  0.50000000  0.00000000  1
  Au  Au0_7  1  0.50000000  0.50000000  0.50000000  1
  Au  Au1_0  1  0.11174977  0.22349904  0.37500000  1
  Au  Au1_1  1  0.11174977  0.22349904  0.87500000  1
  Au  Au1_2  1  0.11174977  0.72349904  0.37500000  1
  Au  Au1_3  1  0.11174977  0.72349904  0.87500000  1
  Au  Au1_4  1  0.61174977  0.22349904  0.37500000  1
  Au  Au1_5  1  0.61174977  0.22349904  0.87500000  1
  Au  Au1_6  1  0.61174977  0.72349904  0.37500000  1
  Au  Au1_7  1  0.61174977  0.72349904  0.87500000  1
  Au  Au2_0  1  0.00000000  0.00000000  0.25000000  1
  Au  Au2_1  1  0.00000000  0.00000000  0.75000000  1
  Au  Au2_2  1  0.00000000  0.50000000  0.25000000  1
  Au  Au2_3  1  0.00000000  0.50000000  0.75000000  1
  Au  Au2_4  1  0.50000000  0.00000000  0.25000000  1
  Au  Au2_5  1  0.50000000  0.00000000  0.75000000  1
  Au  Au2_6  1  0.50000000  0.50000000  0.25000000  1
  Au  Au2_7  1  0.50000000  0.50000000  0.75000000  1
  Au  Au3_0  1  0.38825023  0.27650096  0.12500000  1
  Au  Au3_1  1  0.38825023  0.27650096  0.62500000  1
  Au  Au3_2  1  0.38825023  0.77650096  0.12500000  1
  Au  Au3_3  1  0.38825023  0.77650096  0.62500000  1
  Au  Au3_4  1  0.88825023  0.27650096  0.12500000  1
  Au  Au3_5  1  0.88825023  0.27650096  0.62500000  1
  Au  Au3_6  1  0.88825023  0.77650096  0.12500000  1
  Au  Au3_7  1  0.88825023  0.77650096  0.62500000  1
loop_
_geom_bond_atom_site_label_1
_geom_bond_atom_site_label_2
_geom_bond_distance
_geom_bond_site_symmetry_2
P0_0 P2_4 2.210207 1_455
P0_0 P2_0 2.210207 1_555
P0_1 P2_5 2.210207 1_455
P0_1 P2_1 2.210207 1_555
P0_2 P2_6 2.210207 1_455
P0_2 P2_2 2.210207 1_555
P0_3 P2_7 2.210207 1_455
P0_3 P2_3 2.210207 1_555
P0_4 P2_0 2.210207 1_555
P0_4 P2_4 2.210207 1_555
P0_5 P2_1 2.210207 1_555
P0_5 P2_5 2.210207 1_555
P0_6 P2_2 2.210207 1_555
P0_6 P2_6 2.210207 1_555
P0_7 P2_3 2.210207 1_555
P0_7 P2_7 2.210207 1_555
P1_0 P3_5 2.210207 1_554
P1_0 P3_1 2.210207 1_554
P1_1 P3_4 2.210207 1_555
P1_1 P3_0 2.210207 1_555
P1_2 P3_7 2.210207 1_554
P1_2 P3_3 2.210207 1_554
P1_3 P3_6 2.210207 1_555
P1_3 P3_2 2.210207 1_555
P1_4 P3_1 2.210207 1_654
P1_4 P3_5 2.210207 1_554
P1_5 P3_0 2.210207 1_655
P1_5 P3_4 2.210207 1_555
P1_6 P3_3 2.210207 1_654
P1_6 P3_7 2.210207 1_554
P1_7 P3_2 2.210207 1_655
P1_7 P3_6 2.210207 1_555
Pb0_0 Pb0_4 3.291220 1_555
Pb0_0 Pb0_4 3.291220 1_455
Pb0_1 Pb0_5 3.291220 1_555
Pb0_1 Pb0_5 3.291220 1_455
Pb0_2 Pb0_6 3.291220 1_555
Pb0_2 Pb0_6 3.291220 1_455
Pb0_3 Pb0_7 3.291220 1_455
Pb0_3 Pb0_7 3.291220 1_555
Pb1_0 Pb1_4 3.291220 1_455
Pb1_0 Pb1_4 3.291220 1_555
Pb1_1 Pb1_5 3.291220 1_555
Pb1_1 Pb1_5 3.291220 1_455
Pb1_2 Pb1_6 3.291220 1_555
Pb1_2 Pb1_6 3.291220 1_455
Pb1_3 Pb1_7 3.291220 1_555
Pb1_3 Pb1_7 3.291220 1_455
Au0_0 P1_6 2.354850 1_445
Au0_0 P3_1 2.354850 1_554
Au0_0 Pb1_0 3.265033 1_555
Au0_0 Pb0_7 3.265033 1_444
Au0_0 Pb1_4 3.265034 1_455
Au0_0 Pb0_3 3.265034 1_544
Au0_1 P1_7 2.354850 1_445
Au0_1 P3_0 2.354850 1_555
Au0_1 Pb1_1 3.265033 1_555
Au0_1 Pb0_6 3.265033 1_445
Au0_1 Pb1_5 3.265034 1_455
Au0_1 Pb0_2 3.265034 1_545
Au0_2 P1_4 2.354850 1_455
Au0_2 P3_3 2.354850 1_554
Au0_2 Pb1_2 3.265033 1_555
Au0_2 Pb0_5 3.265033 1_454
Au0_2 Pb1_6 3.265034 1_455
Au0_2 Pb0_1 3.265034 1_554
Au0_3 P1_5 2.354850 1_455
Au0_3 P3_2 2.354850 1_555
Au0_3 Pb0_4 3.265033 1_455
Au0_3 Pb1_3 3.265033 1_555
Au0_3 Pb1_7 3.265034 1_455
Au0_3 Pb0_0 3.265034 1_555
Au0_4 P1_2 2.354850 1_545
Au0_4 P3_5 2.354850 1_554
Au0_4 Pb1_4 3.265033 1_555
Au0_4 Pb0_3 3.265033 1_544
Au0_4 Pb1_0 3.265034 1_555
Au0_4 Pb0_7 3.265034 1_544
Au0_5 P1_3 2.354850 1_545
Au0_5 P3_4 2.354850 1_555
Au0_5 Pb1_5 3.265033 1_555
Au0_5 Pb0_2 3.265033 1_545
Au0_5 Pb0_6 3.265034 1_545
Au0_5 Pb1_1 3.265034 1_555
Au0_6 P1_0 2.354850 1_555
Au0_6 P3_7 2.354850 1_554
Au0_6 Pb1_6 3.265033 1_555
Au0_6 Pb0_1 3.265033 1_554
Au0_6 Pb1_2 3.265034 1_555
Au0_6 Pb0_5 3.265034 1_554
Au0_7 P1_1 2.354850 1_555
Au0_7 P3_6 2.354850 1_555
Au0_7 Pb0_0 3.265033 1_555
Au0_7 Pb1_7 3.265033 1_555
Au0_7 Pb1_3 3.265034 1_555
Au0_7 Pb0_4 3.265034 1_555
Au1_0 P3_0 2.335776 1_555
Au1_0 P0_0 2.335776 1_555
Au1_0 Pb0_0 2.886366 1_555
Au1_0 Pb0_2 3.278645 1_545
Au1_0 Pb0_6 3.278645 1_445
Au1_1 P3_1 2.335776 1_555
Au1_1 P0_1 2.335776 1_555
Au1_1 Pb0_1 2.886366 1_555
Au1_1 Pb0_3 3.278645 1_545
Au1_1 Pb0_7 3.278645 1_445
Au1_2 P3_2 2.335776 1_555
Au1_2 P0_2 2.335776 1_555
Au1_2 Pb0_2 2.886366 1_555
Au1_2 Pb0_0 3.278645 1_555
Au1_2 Pb0_4 3.278645 1_455
Au1_3 P3_3 2.335776 1_555
Au1_3 P0_3 2.335776 1_555
Au1_3 Pb0_3 2.886366 1_555
Au1_3 Pb0_1 3.278645 1_555
Au1_3 Pb0_5 3.278645 1_455
Au1_4 P3_4 2.335776 1_555
Au1_4 P0_4 2.335776 1_555
Au1_4 Pb0_4 2.886366 1_555
Au1_4 Pb0_6 3.278645 1_545
Au1_4 Pb0_2 3.278645 1_545
Au1_5 P3_5 2.335776 1_555
Au1_5 P0_5 2.335776 1_555
Au1_5 Pb0_5 2.886366 1_555
Au1_5 Pb0_7 3.278645 1_545
Au1_5 Pb0_3 3.278645 1_545
Au1_6 P3_6 2.335776 1_555
Au1_6 P0_6 2.335776 1_555
Au1_6 Pb0_6 2.886366 1_555
Au1_6 Pb0_4 3.278645 1_555
Au1_6 Pb0_0 3.278645 1_555
Au1_7 P3_7 2.335776 1_555
Au1_7 P0_7 2.335776 1_555
Au1_7 Pb0_7 2.886366 1_555
Au1_7 Pb0_5 3.278645 1_555
Au1_7 Pb0_1 3.278645 1_555
Au2_0 P0_0 2.354850 1_555
Au2_0 P2_6 2.354850 1_445
Au2_0 Pb1_0 3.265033 1_555
Au2_0 Pb0_6 3.265033 1_445
Au2_0 Pb1_4 3.265034 1_455
Au2_0 Pb0_2 3.265034 1_545
Au2_1 P0_1 2.354850 1_555
Au2_1 P2_7 2.354850 1_445
Au2_1 Pb0_7 3.265033 1_445
Au2_1 Pb1_1 3.265033 1_555
Au2_1 Pb0_3 3.265034 1_545
Au2_1 Pb1_5 3.265034 1_455
Au2_2 P0_2 2.354850 1_555
Au2_2 P2_4 2.354850 1_455
Au2_2 Pb1_2 3.265033 1_555
Au2_2 Pb0_4 3.265033 1_455
Au2_2 Pb1_6 3.265034 1_455
Au2_2 Pb0_0 3.265034 1_555
Au2_3 P0_3 2.354850 1_555
Au2_3 P2_5 2.354850 1_455
Au2_3 Pb0_5 3.265033 1_455
Au2_3 Pb1_3 3.265033 1_555
Au2_3 Pb0_1 3.265034 1_555
Au2_3 Pb1_7 3.265034 1_455
Au2_4 P0_4 2.354850 1_555
Au2_4 P2_2 2.354850 1_545
Au2_4 Pb1_4 3.265033 1_555
Au2_4 Pb0_2 3.265033 1_545
Au2_4 Pb1_0 3.265034 1_555
Au2_4 Pb0_6 3.265034 1_545
Au2_5 P0_5 2.354850 1_555
Au2_5 P2_3 2.354850 1_545
Au2_5 Pb0_3 3.265033 1_545
Au2_5 Pb1_5 3.265033 1_555
Au2_5 Pb0_7 3.265034 1_545
Au2_5 Pb1_1 3.265034 1_555
Au2_6 P0_6 2.354850 1_555
Au2_6 P2_0 2.354850 1_555
Au2_6 Pb1_6 3.265033 1_555
Au2_6 Pb0_0 3.265033 1_555
Au2_6 Pb1_2 3.265034 1_555
Au2_6 Pb0_4 3.265034 1_555
Au2_7 P0_7 2.354850 1_555
Au2_7 P2_1 2.354850 1_555
Au2_7 Pb0_1 3.265033 1_555
Au2_7 Pb1_7 3.265033 1_555
Au2_7 Pb0_5 3.265034 1_555
Au2_7 Pb1_3 3.265034 1_555
Au3_0 P2_0 2.335776 1_555
Au3_0 P1_0 2.335776 1_555
Au3_0 Pb1_0 2.886366 1_555
Au3_0 Pb1_2 3.278645 1_555
Au3_0 Pb1_6 3.278645 1_555
Au3_1 P2_1 2.335776 1_555
Au3_1 P1_1 2.335776 1_555
Au3_1 Pb1_1 2.886366 1_555
Au3_1 Pb1_3 3.278645 1_555
Au3_1 Pb1_7 3.278645 1_555
Au3_2 P2_2 2.335776 1_555
Au3_2 P1_2 2.335776 1_555
Au3_2 Pb1_2 2.886366 1_555
Au3_2 Pb1_0 3.278645 1_565
Au3_2 Pb1_4 3.278645 1_565
Au3_3 P2_3 2.335776 1_555
Au3_3 P1_3 2.335776 1_555
Au3_3 Pb1_3 2.886366 1_555
Au3_3 Pb1_1 3.278645 1_565
Au3_3 Pb1_5 3.278645 1_565
Au3_4 P2_4 2.335776 1_555
Au3_4 P1_4 2.335776 1_555
Au3_4 Pb1_4 2.886366 1_555
Au3_4 Pb1_6 3.278645 1_555
Au3_4 Pb1_2 3.278645 1_655
Au3_5 P2_5 2.335776 1_555
Au3_5 P1_5 2.335776 1_555
Au3_5 Pb1_5 2.886366 1_555
Au3_5 Pb1_7 3.278645 1_555
Au3_5 Pb1_3 3.278645 1_655
Au3_6 P2_6 2.335776 1_555
Au3_6 P1_6 2.335776 1_555
Au3_6 Pb1_6 2.886366 1_555
Au3_6 Pb1_4 3.278645 1_565
Au3_6 Pb1_0 3.278645 1_665
Au3_7 P2_7 2.335776 1_555
Au3_7 P1_7 2.335776 1_555
Au3_7 Pb1_7 2.886366 1_555
Au3_7 Pb1_5 3.278645 1_565
Au3_7 Pb1_1 3.278645 1_665
