# generated using pymatgen
data_Ta12Zn9Pt3C4
_symmetry_space_group_name_H-M   'P 1'
_cell_length_a   8.24438018
_cell_length_b   8.24437997
_cell_length_c   8.24438009
_cell_angle_alpha   60.23922945
_cell_angle_beta   60.23922993
_cell_angle_gamma   60.23922788
_symmetry_Int_Tables_number   1
_chemical_formula_structural   Ta12Zn9Pt3C4
_chemical_formula_sum   'Ta12 Zn9 Pt3 C4'
_cell_volume   398.38655467
_cell_formula_units_Z   1
loop_
 _symmetry_equiv_pos_site_id
 _symmetry_equiv_pos_as_xyz
  1  'x, y, z'
loop_
 _atom_site_type_symbol
 _atom_site_label
 _atom_site_symmetry_multiplicity
 _atom_site_fract_x
 _atom_site_fract_y
 _atom_site_fract_z
 _atom_site_occupancy
  Ta  Ta0  1  0.43462924  0.43462924  0.07036759  1
  Ta  Ta1  1  0.06381365  0.43582852  0.06381365  1
  Ta  Ta2  1  0.43582852  0.06381365  0.06381365  1
  Ta  Ta3  1  0.06381365  0.06381365  0.43582852  1
  Ta  Ta4  1  0.43462924  0.07036759  0.43462924  1
  Ta  Ta5  1  0.07036759  0.43462924  0.43462924  1
  Ta  Ta6  1  0.81537076  0.81537076  0.17963241  1
  Ta  Ta7  1  0.18618635  0.81417148  0.18618635  1
  Ta  Ta8  1  0.81417148  0.18618635  0.18618635  1
  Ta  Ta9  1  0.18618635  0.18618635  0.81417148  1
  Ta  Ta10  1  0.81537076  0.17963241  0.81537076  1
  Ta  Ta11  1  0.17963241  0.81537076  0.81537076  1
  Zn  Zn0  1  0.83136553  0.83136553  0.49607741  1
  Zn  Zn1  1  0.83136553  0.49607741  0.83136553  1
  Zn  Zn2  1  0.49607741  0.83136553  0.83136553  1
  Zn  Zn3  1  0.83243469  0.83243469  0.83243469  1
  Zn  Zn4  1  0.41863447  0.41863447  0.75392259  1
  Zn  Zn5  1  0.41863447  0.75392259  0.41863447  1
  Zn  Zn6  1  0.75392259  0.41863447  0.41863447  1
  Zn  Zn7  1  0.41756531  0.41756531  0.41756531  1
  Zn  Zn8  1  0.62500000  0.62500000  0.62500000  1
  Pt  Pt0  1  0.62500000  0.62500000  0.12500000  1
  Pt  Pt1  1  0.62500000  0.12500000  0.62500000  1
  Pt  Pt2  1  0.12500000  0.62500000  0.62500000  1
  C  C0  1  0.12500000  0.12500000  0.62500000  1
  C  C1  1  0.12500000  0.62500000  0.12500000  1
  C  C2  1  0.62500000  0.12500000  0.12500000  1
  C  C3  1  0.12500000  0.12500000  0.12500000  1
loop_
_geom_bond_atom_site_label_1
_geom_bond_atom_site_label_2
_geom_bond_distance
_geom_bond_site_symmetry_2
Ta0 Zn4 2.746167 1_554
Ta0 Zn2 3.015524 1_554
Ta0 Zn1 3.015524 1_554
Ta0 Zn8 3.067871 1_554
Ta1 Zn4 2.762782 1_554
Ta1 Zn6 2.762782 1_455
Ta1 Zn1 3.057414 1_454
Ta2 Zn4 2.762782 1_554
Ta2 Zn5 2.762782 1_545
Ta2 Zn2 3.057414 1_544
Ta3 Zn6 2.762782 1_455
Ta3 Zn5 2.762782 1_545
Ta3 Zn0 3.057414 1_445
Ta4 Zn5 2.746167 1_545
Ta4 Zn0 3.015524 1_545
Ta4 Zn2 3.015524 1_545
Ta4 Zn8 3.067871 1_545
Ta5 Zn6 2.746167 1_455
Ta5 Zn0 3.015523 1_455
Ta5 Zn1 3.015524 1_455
Ta5 Zn8 3.067871 1_455
Ta6 Zn0 2.746167 1_555
Ta6 Zn6 3.015524 1_555
Ta6 Zn5 3.015524 1_555
Ta6 Zn8 3.067871 1_555
Ta7 Zn0 2.762782 1_455
Ta7 Zn2 2.762782 1_554
Ta7 Zn5 3.057414 1_555
Ta8 Zn0 2.762782 1_545
Ta8 Zn1 2.762782 1_554
Ta8 Zn6 3.057414 1_555
Ta9 Zn2 2.762782 1_545
Ta9 Zn1 2.762782 1_455
Ta9 Zn4 3.057414 1_555
Ta10 Zn1 2.746167 1_555
Ta10 Zn4 3.015524 1_555
Ta10 Zn6 3.015524 1_555
Ta10 Zn8 3.067871 1_555
Ta11 Zn2 2.746167 1_555
Ta11 Zn4 3.015523 1_555
Ta11 Zn5 3.015524 1_555
Ta11 Zn8 3.067871 1_555
Zn0 Zn8 2.490401 1_555
Zn0 Zn1 2.774232 1_555
Zn0 Zn2 2.774232 1_555
Zn0 Zn3 2.781836 1_555
Zn1 Zn8 2.490401 1_555
Zn1 Zn2 2.774232 1_555
Zn1 Zn3 2.781836 1_555
Zn2 Zn8 2.490401 1_555
Zn2 Zn3 2.781836 1_555
Zn4 Zn8 2.490401 1_555
Zn4 Zn5 2.774232 1_555
Zn4 Zn6 2.774232 1_555
Zn4 Zn7 2.781836 1_555
Zn5 Zn8 2.490401 1_555
Zn5 Zn6 2.774232 1_555
Zn5 Zn7 2.781836 1_555
Zn6 Zn8 2.490401 1_555
Zn6 Zn7 2.781836 1_555
Pt0 Zn3 2.525968 1_554
Pt0 Zn7 2.525968 1_555
Pt0 Zn6 2.560290 1_555
Pt0 Zn2 2.560290 1_554
Pt0 Zn5 2.560290 1_555
Pt0 Zn1 2.560290 1_554
Pt0 Ta6 2.996416 1_555
Pt0 Ta0 2.996416 1_555
Pt0 Ta2 3.023709 1_565
Pt0 Ta8 3.023709 1_555
Pt0 Ta1 3.023710 1_655
Pt0 Ta7 3.023710 1_555
Pt1 Zn3 2.525968 1_545
Pt1 Zn7 2.525968 1_555
Pt1 Zn4 2.560290 1_555
Pt1 Zn0 2.560290 1_545
Pt1 Zn6 2.560290 1_555
Pt1 Zn2 2.560290 1_545
Pt1 Ta10 2.996416 1_555
Pt1 Ta4 2.996416 1_555
Pt1 Ta2 3.023710 1_556
Pt1 Ta8 3.023710 1_555
Pt1 Ta3 3.023710 1_655
Pt1 Ta9 3.023710 1_555
Pt2 Zn3 2.525968 1_455
Pt2 Zn7 2.525968 1_555
Pt2 Zn4 2.560290 1_555
Pt2 Zn0 2.560290 1_455
Pt2 Zn5 2.560290 1_555
Pt2 Zn1 2.560290 1_455
Pt2 Ta11 2.996416 1_555
Pt2 Ta5 2.996416 1_555
Pt2 Ta3 3.023709 1_565
Pt2 Ta9 3.023709 1_555
Pt2 Ta1 3.023710 1_556
Pt2 Ta7 3.023710 1_555
C0 Ta9 2.180819 1_555
C0 Ta3 2.180819 1_555
C0 Ta5 2.182975 1_555
C0 Ta11 2.182975 1_545
C0 Ta4 2.182975 1_555
C0 Ta10 2.182975 1_455
C1 Ta7 2.180819 1_555
C1 Ta1 2.180819 1_555
C1 Ta0 2.182975 1_555
C1 Ta6 2.182975 1_455
C1 Ta11 2.182975 1_554
C1 Ta5 2.182975 1_555
C2 Ta8 2.180820 1_555
C2 Ta2 2.180820 1_555
C2 Ta0 2.182975 1_555
C2 Ta6 2.182975 1_545
C2 Ta4 2.182975 1_555
C2 Ta10 2.182975 1_554
C3 Ta1 2.182147 1_555
C3 Ta7 2.182147 1_545
C3 Ta3 2.182147 1_555
C3 Ta9 2.182147 1_554
C3 Ta2 2.182147 1_555
C3 Ta8 2.182147 1_455
