# generated using pymatgen
data_KAlSbH
_symmetry_space_group_name_H-M   'P 1'
_cell_length_a   4.39797996
_cell_length_b   4.39797829
_cell_length_c   6.03293054
_cell_angle_alpha   90.00000000
_cell_angle_beta   90.00000000
_cell_angle_gamma   119.99999767
_symmetry_Int_Tables_number   1
_chemical_formula_structural   KAlSbH
_chemical_formula_sum   'K1 Al1 Sb1 H1'
_cell_volume   101.05674240
_cell_formula_units_Z   1
loop_
 _symmetry_equiv_pos_site_id
 _symmetry_equiv_pos_as_xyz
  1  'x, y, z'
loop_
 _atom_site_type_symbol
 _atom_site_label
 _atom_site_symmetry_multiplicity
 _atom_site_fract_x
 _atom_site_fract_y
 _atom_site_fract_z
 _atom_site_occupancy
  K  K0  1  0.00000000  0.00000000  0.00112313  1
  Al  Al0  1  0.66666700  0.33333300  0.57619324  1
  Sb  Sb0  1  0.33333300  0.66666700  0.43031365  1
  H  H0  1  0.66666700  0.33333300  0.84946998  1
loop_
_geom_bond_atom_site_label_1
_geom_bond_atom_site_label_2
_geom_bond_distance
_geom_bond_site_symmetry_2
K0 Sb0 3.626534 1_545
K0 Sb0 3.626536 1_555
K0 Sb0 3.626537 1_445
Al0 H0 1.648660 1_555
Al0 Sb0 2.687366 1_545
Al0 Sb0 2.687367 1_655
Al0 Sb0 2.687373 1_555
H0 K0 2.698974 1_656
H0 K0 2.698977 1_666
H0 K0 2.698978 1_556
