# generated using pymatgen
data_Hf8PdRh3O2
_symmetry_space_group_name_H-M   'P 1'
_cell_length_a   8.68334251
_cell_length_b   8.68334259
_cell_length_c   8.68356903
_cell_angle_alpha   59.99913734
_cell_angle_beta   59.99913704
_cell_angle_gamma   60.02438673
_symmetry_Int_Tables_number   1
_chemical_formula_structural   Hf8PdRh3O2
_chemical_formula_sum   'Hf16 Pd2 Rh6 O4'
_cell_volume   463.05378950
_cell_formula_units_Z   2
loop_
 _symmetry_equiv_pos_site_id
 _symmetry_equiv_pos_as_xyz
  1  'x, y, z'
loop_
 _atom_site_type_symbol
 _atom_site_label
 _atom_site_symmetry_multiplicity
 _atom_site_fract_x
 _atom_site_fract_y
 _atom_site_fract_z
 _atom_site_occupancy
  Hf  Hf0  1  0.12126426  0.62349097  0.62762238  1
  Hf  Hf1  1  0.62349097  0.12126426  0.62762238  1
  Hf  Hf2  1  0.62833184  0.62833184  0.11255749  1
  Hf  Hf3  1  0.62833184  0.62833184  0.63077884  1
  Hf  Hf4  1  0.81697886  0.81697886  0.18302114  1
  Hf  Hf5  1  0.18401323  0.18401323  0.81598677  1
  Hf  Hf6  1  0.81559072  0.18399662  0.81625269  1
  Hf  Hf7  1  0.18399662  0.81559072  0.18415997  1
  Hf  Hf8  1  0.18399662  0.81559072  0.81625269  1
  Hf  Hf9  1  0.81559072  0.18399662  0.18415997  1
  Hf  Hf10  1  0.43443527  0.43443527  0.06556473  1
  Hf  Hf11  1  0.06376248  0.06376248  0.43623752  1
  Hf  Hf12  1  0.43419543  0.06810983  0.43479042  1
  Hf  Hf13  1  0.06810983  0.43419543  0.06290532  1
  Hf  Hf14  1  0.06810983  0.43419543  0.43479042  1
  Hf  Hf15  1  0.43419543  0.06810983  0.06290532  1
  Pd  Pd0  1  0.77351167  0.41063975  0.40792329  1
  Pd  Pd1  1  0.41063975  0.77351167  0.40792329  1
  Rh  Rh0  1  0.40499866  0.40499866  0.78671643  1
  Rh  Rh1  1  0.40499866  0.40499866  0.40328525  1
  Rh  Rh2  1  0.46063207  0.84845028  0.84545932  1
  Rh  Rh3  1  0.84845028  0.46063207  0.84545932  1
  Rh  Rh4  1  0.84726574  0.84726574  0.46253446  1
  Rh  Rh5  1  0.84726574  0.84726574  0.84293406  1
  O  O0  1  0.62432277  0.12438778  0.12564423  1
  O  O1  1  0.12438778  0.62432277  0.12564423  1
  O  O2  1  0.12456646  0.12456646  0.62475206  1
  O  O3  1  0.12456646  0.12456646  0.12611502  1
loop_
_geom_bond_atom_site_label_1
_geom_bond_atom_site_label_2
_geom_bond_distance
_geom_bond_site_symmetry_2
Hf0 Rh3 2.716828 1_455
Hf0 Rh5 2.738060 1_455
Hf0 Rh4 2.738060 1_455
Hf0 Pd1 2.764454 1_555
Hf0 Rh0 2.773080 1_555
Hf0 Rh1 2.773085 1_555
Hf1 Rh2 2.716828 1_545
Hf1 Rh4 2.738060 1_545
Hf1 Rh5 2.738060 1_545
Hf1 Pd0 2.764454 1_555
Hf1 Rh0 2.773080 1_555
Hf1 Rh1 2.773085 1_555
Hf2 Rh3 2.704861 1_554
Hf2 Rh2 2.704861 1_554
Hf2 Rh5 2.723800 1_554
Hf2 Pd1 2.782907 1_555
Hf2 Pd0 2.782907 1_555
Hf2 Rh1 2.803769 1_555
Hf3 Rh3 2.704868 1_555
Hf3 Rh2 2.704868 1_555
Hf3 Rh4 2.723800 1_555
Hf3 Pd1 2.782921 1_555
Hf3 Pd0 2.782921 1_555
Hf3 Rh0 2.803771 1_555
Hf4 O1 2.283304 1_655
Hf4 O0 2.283304 1_565
Hf4 Rh5 2.715750 1_554
Hf4 Rh4 2.715750 1_555
Hf5 O3 2.295911 1_556
Hf5 O2 2.295911 1_555
Hf5 Rh3 2.683381 1_455
Hf5 Rh2 2.683381 1_545
Hf6 O2 2.289717 1_655
Hf6 O0 2.291389 1_556
Hf6 Rh5 2.694707 1_545
Hf6 Rh3 2.698595 1_555
Hf7 O3 2.289717 1_565
Hf7 O1 2.291395 1_555
Hf7 Rh4 2.694707 1_455
Hf7 Rh2 2.698590 1_554
Hf8 O2 2.289717 1_565
Hf8 O1 2.291389 1_556
Hf8 Rh5 2.694707 1_455
Hf8 Rh2 2.698595 1_555
Hf9 O3 2.289717 1_655
Hf9 O0 2.291395 1_555
Hf9 Rh4 2.694707 1_545
Hf9 Rh3 2.698590 1_554
Hf10 O1 2.293228 1_555
Hf10 O0 2.293228 1_555
Hf10 Rh1 2.701291 1_555
Hf10 Rh0 2.701300 1_554
Hf11 O2 2.290071 1_555
Hf11 O3 2.290071 1_555
Hf11 Pd1 2.788969 1_545
Hf11 Pd0 2.788969 1_455
Hf11 Rh4 3.129409 1_445
Hf11 Rh5 3.129409 1_445
Hf12 O0 2.287609 1_555
Hf12 O2 2.290519 1_555
Hf12 Rh1 2.687855 1_555
Hf12 Pd1 2.794195 1_545
Hf12 Rh4 3.182720 1_545
Hf13 O1 2.287597 1_555
Hf13 O3 2.290521 1_555
Hf13 Rh0 2.687862 1_554
Hf13 Pd0 2.794180 1_455
Hf13 Rh5 3.182723 1_454
Hf14 O1 2.287609 1_555
Hf14 O2 2.290519 1_555
Hf14 Rh1 2.687855 1_555
Hf14 Pd0 2.794195 1_455
Hf14 Rh4 3.182720 1_455
Hf15 O0 2.287597 1_555
Hf15 O3 2.290521 1_555
Hf15 Rh0 2.687862 1_554
Hf15 Pd1 2.794180 1_545
Hf15 Rh5 3.182723 1_544
