# generated using pymatgen
data_Li4P2Se5S
_symmetry_space_group_name_H-M   'P 1'
_cell_length_a   6.38809139
_cell_length_b   6.34562204
_cell_length_c   6.78157091
_cell_angle_alpha   89.92856295
_cell_angle_beta   90.01620298
_cell_angle_gamma   119.78305129
_symmetry_Int_Tables_number   1
_chemical_formula_structural   Li4P2Se5S
_chemical_formula_sum   'Li4 P2 Se5 S1'
_cell_volume   238.58941041
_cell_formula_units_Z   1
loop_
 _symmetry_equiv_pos_site_id
 _symmetry_equiv_pos_as_xyz
  1  'x, y, z'
loop_
 _atom_site_type_symbol
 _atom_site_label
 _atom_site_symmetry_multiplicity
 _atom_site_fract_x
 _atom_site_fract_y
 _atom_site_fract_z
 _atom_site_occupancy
  Li  Li0  1  0.31984150  0.66373456  0.48116949  1
  Li  Li1  1  0.67956682  0.34360980  0.48239478  1
  Li  Li2  1  0.67189956  0.33777000  0.99213819  1
  Li  Li3  1  0.32845015  0.66523245  0.99159411  1
  P  P0  1  0.00005374  0.99689281  0.81816106  1
  P  P1  1  0.99985744  0.99003383  0.15559349  1
  Se  Se0  1  0.33313602  0.99815245  0.74050889  1
  Se  Se1  1  0.66704623  0.66538763  0.74022117  1
  Se  Se2  1  0.00010652  0.33401776  0.74731531  1
  Se  Se3  1  0.67101046  0.99874801  0.23410247  1
  Se  Se4  1  0.32930132  0.32718735  0.23398354  1
  S  S0  1  0.99972923  0.67923436  0.22572449  1
loop_
_geom_bond_atom_site_label_1
_geom_bond_atom_site_label_2
_geom_bond_distance
_geom_bond_site_symmetry_2
Li0 S0 2.718386 1_455
Li0 Se0 2.726497 1_555
Li0 Se4 2.740739 1_555
Li0 Se2 2.748499 1_555
Li0 Se3 2.759459 1_555
Li0 Se1 2.824982 1_555
Li1 Se1 2.721036 1_555
Li1 S0 2.722887 1_555
Li1 Se3 2.741797 1_545
Li1 Se2 2.746939 1_655
Li1 Se4 2.760796 1_555
Li1 Se0 2.817828 1_545
Li2 S0 2.662479 1_556
Li2 Se2 2.684133 1_655
Li2 Se1 2.701239 1_555
Li2 Se3 2.701806 1_546
Li2 Se4 2.709226 1_556
Li2 Se0 2.759247 1_545
Li3 S0 2.669472 1_456
Li3 Se2 2.681121 1_555
Li3 Se0 2.700280 1_555
Li3 Se4 2.703020 1_556
Li3 Se3 2.716274 1_556
Li3 Se1 2.753992 1_555
P0 Se1 2.187787 1_455
P0 Se0 2.188256 1_555
P0 Se2 2.191806 1_565
P0 P1 2.288670 1_456
P1 S0 2.027779 1_555
P1 Se3 2.194445 1_555
P1 Se4 2.195017 1_665
