# generated using pymatgen
data_Zr10Sn3B2Sb3
_symmetry_space_group_name_H-M   'P 1'
_cell_length_a   8.52452533
_cell_length_b   8.52452514
_cell_length_c   5.79688867
_cell_angle_alpha   90.00000000
_cell_angle_beta   90.00000000
_cell_angle_gamma   120.00000072
_symmetry_Int_Tables_number   1
_chemical_formula_structural   Zr10Sn3B2Sb3
_chemical_formula_sum   'Zr10 Sn3 B2 Sb3'
_cell_volume   364.80937418
_cell_formula_units_Z   1
loop_
 _symmetry_equiv_pos_site_id
 _symmetry_equiv_pos_as_xyz
  1  'x, y, z'
loop_
 _atom_site_type_symbol
 _atom_site_label
 _atom_site_symmetry_multiplicity
 _atom_site_fract_x
 _atom_site_fract_y
 _atom_site_fract_z
 _atom_site_occupancy
  Zr  Zr0  1  0.66666700  0.33333300  0.00076470  1
  Zr  Zr1  1  0.33333300  0.66666700  0.00076470  1
  Zr  Zr2  1  0.33333300  0.66666700  0.49923530  1
  Zr  Zr3  1  0.66666700  0.33333300  0.49923530  1
  Zr  Zr4  1  0.76941746  0.76941746  0.75000000  1
  Zr  Zr5  1  0.23058254  0.00000000  0.75000000  1
  Zr  Zr6  1  1.00000000  0.23058254  0.75000000  1
  Zr  Zr7  1  0.23298641  0.23298641  0.25000000  1
  Zr  Zr8  1  0.76701359  0.00000000  0.25000000  1
  Zr  Zr9  1  0.00000000  0.76701359  0.25000000  1
  Sn  Sn0  1  0.60155116  0.60155116  0.25000000  1
  Sn  Sn1  1  0.39844884  0.00000000  0.25000000  1
  Sn  Sn2  1  1.00000000  0.39844884  0.25000000  1
  B  B0  1  0.00000000  0.00000000  0.00165821  1
  B  B1  1  0.00000000  0.00000000  0.49834179  1
  Sb  Sb0  1  0.40111665  0.40111665  0.75000000  1
  Sb  Sb1  1  0.59888335  0.00000000  0.75000000  1
  Sb  Sb2  1  1.00000000  0.59888335  0.75000000  1
loop_
_geom_bond_atom_site_label_1
_geom_bond_atom_site_label_2
_geom_bond_distance
_geom_bond_site_symmetry_2
Sn0 Zr8 2.955577 1_565
Sn0 Zr9 2.955577 1_655
Sn0 Zr3 2.982023 1_555
Sn0 Zr0 2.982023 1_555
Sn0 Zr2 2.982023 1_555
Sn0 Zr1 2.982023 1_555
Sn0 Zr7 3.141839 1_555
Sn0 Zr4 3.232443 1_555
Sn0 Zr4 3.232443 1_554
Sn1 Zr9 2.955577 1_545
Sn1 Zr7 2.955577 1_555
Sn1 Zr2 2.982016 1_545
Sn1 Zr1 2.982016 1_545
Sn1 Zr3 2.982018 1_555
Sn1 Zr0 2.982018 1_555
Sn1 Zr8 3.141839 1_555
Sn1 Zr5 3.232443 1_555
Sn1 Zr5 3.232443 1_554
Sn2 Zr8 2.955577 1_555
Sn2 Zr7 2.955577 1_655
Sn2 Zr3 2.982016 1_555
Sn2 Zr0 2.982016 1_555
Sn2 Zr2 2.982018 1_655
Sn2 Zr1 2.982018 1_655
Sn2 Zr9 3.141839 1_655
Sn2 Zr6 3.232443 1_554
Sn2 Zr6 3.232443 1_555
B0 Zr6 2.447817 1_454
B0 Zr4 2.447817 1_444
B0 Zr5 2.447817 1_554
B0 Zr9 2.452970 1_545
B0 Zr7 2.452970 1_555
B0 Zr8 2.452970 1_455
B1 Zr6 2.447817 1_455
B1 Zr4 2.447817 1_445
B1 Zr5 2.447817 1_555
B1 Zr7 2.452970 1_555
B1 Zr9 2.452970 1_545
B1 Zr8 2.452970 1_455
Sb0 Zr5 2.972266 1_555
Sb0 Zr6 2.972266 1_455
Sb0 Zr1 2.979816 1_556
Sb0 Zr2 2.979816 1_555
Sb0 Zr0 2.979816 1_556
Sb0 Zr3 2.979816 1_555
Sb0 Zr4 3.139590 1_555
Sb0 Zr7 3.233439 1_555
Sb0 Zr7 3.233439 1_556
Sb1 Zr6 2.972266 1_555
Sb1 Zr4 2.972266 1_545
Sb1 Zr0 2.979808 1_556
Sb1 Zr3 2.979808 1_555
Sb1 Zr1 2.979811 1_546
Sb1 Zr2 2.979811 1_545
Sb1 Zr5 3.139590 1_555
Sb1 Zr8 3.233439 1_555
Sb1 Zr8 3.233439 1_556
Sb2 Zr5 2.972266 1_665
Sb2 Zr4 2.972266 1_555
Sb2 Zr1 2.979808 1_656
Sb2 Zr2 2.979808 1_655
Sb2 Zr0 2.979811 1_556
Sb2 Zr3 2.979811 1_555
Sb2 Zr6 3.139590 1_555
Sb2 Zr9 3.233439 1_655
Sb2 Zr9 3.233439 1_656
