# generated using pymatgen
data_ScTa5Al16Ir7
_symmetry_space_group_name_H-M   'P 1'
_cell_length_a   8.56568128
_cell_length_b   8.54882580
_cell_length_c   8.54878431
_cell_angle_alpha   60.12591163
_cell_angle_beta   59.93536189
_cell_angle_gamma   59.93633892
_symmetry_Int_Tables_number   1
_chemical_formula_structural   ScTa5Al16Ir7
_chemical_formula_sum   'Sc1 Ta5 Al16 Ir7'
_cell_volume   442.63598051
_cell_formula_units_Z   1
loop_
 _symmetry_equiv_pos_site_id
 _symmetry_equiv_pos_as_xyz
  1  'x, y, z'
loop_
 _atom_site_type_symbol
 _atom_site_label
 _atom_site_symmetry_multiplicity
 _atom_site_fract_x
 _atom_site_fract_y
 _atom_site_fract_z
 _atom_site_occupancy
  Sc  Sc0  1  0.30982099  0.69017336  0.69017417  1
  Ta  Ta0  1  0.67806380  0.67406335  0.32193763  1
  Ta  Ta1  1  0.32593379  0.67406528  0.32194192  1
  Ta  Ta2  1  0.67332717  0.32667600  0.32667926  1
  Ta  Ta3  1  0.32593882  0.32193760  0.67406290  1
  Ta  Ta4  1  0.67806439  0.32193482  0.67406036  1
  Al  Al0  1  0.88066534  0.88029920  0.35837428  1
  Al  Al1  1  0.88066340  0.35837912  0.88029582  1
  Al  Al2  1  0.35989880  0.88136987  0.88136148  1
  Al  Al3  1  0.87737000  0.88136853  0.88136623  1
  Al  Al4  1  0.11862701  0.12263264  0.64010927  1
  Al  Al5  1  0.11862986  0.64010705  0.12263190  1
  Al  Al6  1  0.64161440  0.11934126  0.11933973  1
  Al  Al7  1  0.11970186  0.11933637  0.11934005  1
  Al  Al8  1  0.66423429  0.66375590  0.00777815  1
  Al  Al9  1  0.66423199  0.00777073  0.66376369  1
  Al  Al10  1  0.01419273  0.66162243  0.66162389  1
  Al  Al11  1  0.66256189  0.66162325  0.66162452  1
  Al  Al12  1  0.33837096  0.33744332  0.98580576  1
  Al  Al13  1  0.33837780  0.98580019  0.33744406  1
  Al  Al14  1  0.99223148  0.33576613  0.33576169  1
  Al  Al15  1  0.33624701  0.33576658  0.33575755  1
  Ir  Ir0  1  0.00081267  0.99918481  0.99918918  1
  Ir  Ir1  1  0.99729172  0.00271031  0.49814239  1
  Ir  Ir2  1  0.50185542  0.00271187  0.49814401  1
  Ir  Ir3  1  0.00106653  0.49893497  0.49893429  1
  Ir  Ir4  1  0.50185517  0.49814451  0.00270464  1
  Ir  Ir5  1  0.99728963  0.49814670  0.00270599  1
  Ir  Ir6  1  0.50106111  0.99893383  0.99894419  1
loop_
_geom_bond_atom_site_label_1
_geom_bond_atom_site_label_2
_geom_bond_distance
_geom_bond_site_symmetry_2
Sc0 Ta1 3.150397 1_555
Sc0 Ta3 3.150437 1_555
Sc0 Ta0 3.150517 1_555
Sc0 Ta4 3.150582 1_555
Ta0 Ta2 2.970165 1_555
Ta0 Ta4 3.015980 1_555
Ta0 Ta1 3.016207 1_555
Ta1 Ta2 2.970292 1_555
Ta1 Ta3 3.015969 1_555
Ta2 Ta4 2.970102 1_555
Ta2 Ta3 2.970195 1_555
Ta3 Ta4 3.016173 1_555
Al0 Ir0 2.508680 1_654
Al0 Ir1 2.647589 1_565
Al0 Ir2 2.647682 1_565
Al0 Ir3 2.665855 1_655
Al0 Ta0 3.220467 1_555
Al0 Ta1 3.220513 1_655
Al0 Ta2 3.232849 1_565
Al1 Ir0 2.508781 1_645
Al1 Ir5 2.647578 1_556
Al1 Ir4 2.647671 1_556
Al1 Ir3 2.665797 1_655
Al1 Ta4 3.220492 1_555
Al1 Ta3 3.220521 1_655
Al1 Ta2 3.232833 1_556
Al2 Ir0 2.508426 1_555
Al2 Ir6 2.631411 1_555
Al2 Ir2 2.678458 1_565
Al2 Ir4 2.678554 1_556
Al2 Sc0 3.097281 1_555
Al2 Ta3 3.190634 1_565
Al2 Ta1 3.190695 1_556
Al3 Ir0 2.508338 1_655
Al3 Ir6 2.631471 1_555
Al3 Ir1 2.678502 1_565
Al3 Ir5 2.678526 1_556
Al3 Sc0 3.097303 1_655
Al3 Ta0 3.190639 1_556
Al3 Ta4 3.190665 1_565
Al4 Ir0 2.508214 1_545
Al4 Ir3 2.631285 1_555
Al4 Ir1 2.678621 1_455
Al4 Ir2 2.678710 1_555
Al4 Sc0 3.097249 1_545
Al4 Ta3 3.190791 1_555
Al4 Ta4 3.190815 1_455
Al5 Ir0 2.508235 1_554
Al5 Ir3 2.631247 1_555
Al5 Ir5 2.678632 1_455
Al5 Ir4 2.678691 1_555
Al5 Sc0 3.097188 1_554
Al5 Ta1 3.190799 1_555
Al5 Ta0 3.190805 1_455
Al6 Ir0 2.508939 1_644
Al6 Ir2 2.647469 1_555
Al6 Ir4 2.647503 1_555
Al6 Ir6 2.665882 1_544
Al6 Ta4 3.220336 1_554
Al6 Ta0 3.220350 1_545
Al6 Ta2 3.232918 1_555
Al7 Ir0 2.508833 1_544
Al7 Ir1 2.647457 1_455
Al7 Ir5 2.647549 1_455
Al7 Ir6 2.665966 1_544
Al7 Ta3 3.220342 1_554
Al7 Ta1 3.220355 1_545
Al7 Ta2 3.232939 1_455
Al8 Ir5 2.456722 1_555
Al8 Ir4 2.456724 1_555
Al8 Ir6 2.459107 1_554
Al8 Ta0 2.792787 1_555
Al8 Ta1 2.792858 1_555
Al8 Ta2 2.811403 1_555
Al9 Ir2 2.456698 1_555
Al9 Ir1 2.456759 1_555
Al9 Ir6 2.459082 1_545
Al9 Ta4 2.792802 1_555
Al9 Ta3 2.792883 1_555
Al9 Ta2 2.811437 1_555
Al10 Ir3 2.474174 1_555
Al10 Ir5 2.489266 1_456
Al10 Ir1 2.489329 1_465
Al10 Ta1 2.789576 1_555
Al10 Ta3 2.789659 1_555
Al10 Sc0 2.798093 1_555
Al11 Ir3 2.474245 1_655
Al11 Ir4 2.489270 1_556
Al11 Ir2 2.489360 1_565
Al11 Ta0 2.789585 1_555
Al11 Ta4 2.789629 1_555
Al11 Sc0 2.798213 1_555
Al12 Ir6 2.474177 1_545
Al12 Ir4 2.489403 1_556
Al12 Ir5 2.489438 1_456
Al12 Ta3 2.789564 1_555
Al12 Ta4 2.789670 1_555
Al12 Sc0 2.797925 1_555
Al13 Ir6 2.474079 1_554
Al13 Ir2 2.489417 1_565
Al13 Ir1 2.489431 1_465
Al13 Ta1 2.789546 1_555
Al13 Ta0 2.789647 1_555
Al13 Sc0 2.797898 1_555
Al14 Ir5 2.456593 1_555
Al14 Ir1 2.456602 1_555
Al14 Ir3 2.459109 1_655
Al14 Ta4 2.792843 1_555
Al14 Ta0 2.792888 1_555
Al14 Ta2 2.811599 1_555
Al15 Ir4 2.456551 1_555
Al15 Ir2 2.456623 1_555
Al15 Ir3 2.459197 1_555
Al15 Ta1 2.792840 1_555
Al15 Ta3 2.792849 1_555
Al15 Ta2 2.811647 1_555
Ir1 Ta4 3.110902 1_555
Ir1 Ta2 3.138564 1_555
Ir1 Sc0 3.141276 1_645
Ir1 Ta1 3.182765 1_645
Ir2 Ta3 3.110882 1_555
Ir2 Ta2 3.138540 1_555
Ir2 Sc0 3.141289 1_545
Ir2 Ta0 3.182782 1_545
Ir3 Ta1 3.158033 1_555
Ir3 Ta4 3.158062 1_455
Ir3 Ta0 3.158075 1_455
Ir3 Ta3 3.158085 1_555
Ir4 Ta1 3.110955 1_555
Ir4 Ta2 3.138630 1_555
Ir4 Sc0 3.141252 1_554
Ir4 Ta4 3.182751 1_554
Ir5 Ta0 3.110914 1_555
Ir5 Ta2 3.138541 1_555
Ir5 Sc0 3.141206 1_654
Ir5 Ta3 3.182778 1_654
Ir6 Ta1 3.157893 1_556
Ir6 Ta0 3.157923 1_556
Ir6 Ta4 3.157959 1_565
Ir6 Ta3 3.157989 1_565
