# generated using pymatgen
data_AlV3OsS8
_symmetry_space_group_name_H-M   'P 1'
_cell_length_a   6.82402454
_cell_length_b   6.82402422
_cell_length_c   6.80398177
_cell_angle_alpha   59.90251574
_cell_angle_beta   59.90251806
_cell_angle_gamma   60.00000740
_symmetry_Int_Tables_number   1
_chemical_formula_structural   AlV3OsS8
_chemical_formula_sum   'Al1 V3 Os1 S8'
_cell_volume   223.71124766
_cell_formula_units_Z   1
loop_
 _symmetry_equiv_pos_site_id
 _symmetry_equiv_pos_as_xyz
  1  'x, y, z'
loop_
 _atom_site_type_symbol
 _atom_site_label
 _atom_site_symmetry_multiplicity
 _atom_site_fract_x
 _atom_site_fract_y
 _atom_site_fract_z
 _atom_site_occupancy
  Al  Al0  1  0.99786233  0.99786233  0.00641400  1
  V  V0  1  0.60513921  0.19244913  0.59727145  1
  V  V1  1  0.19244913  0.60513921  0.59727145  1
  V  V2  1  0.60513921  0.60513921  0.59727145  1
  Os  Os0  1  0.60730345  0.60730345  0.17808965  1
  S  S0  1  0.37043381  0.37043381  0.88869858  1
  S  S1  1  0.36729096  0.89106777  0.37435131  1
  S  S2  1  0.89106777  0.36729096  0.37435131  1
  S  S3  1  0.36729096  0.36729096  0.37435131  1
  S  S4  1  0.86471222  0.86471222  0.40586333  1
  S  S5  1  0.86233031  0.40665032  0.86868906  1
  S  S6  1  0.40665032  0.86233031  0.86868906  1
  S  S7  1  0.86233031  0.86233031  0.86868906  1
loop_
_geom_bond_atom_site_label_1
_geom_bond_atom_site_label_2
_geom_bond_distance
_geom_bond_site_symmetry_2
Al0 S4 2.215837 1_555
Al0 S5 2.276561 1_564
Al0 S6 2.276561 1_654
Al0 S7 2.276566 1_554
Os0 S3 2.333180 1_555
Os0 S2 2.333185 1_555
Os0 S1 2.333185 1_555
Os0 S6 2.483724 1_554
Os0 S5 2.483724 1_554
Os0 S7 2.483724 1_554
S0 V2 2.292836 1_555
S0 V1 2.292840 1_555
S0 V0 2.292841 1_555
S1 V2 2.252995 1_555
S1 V1 2.253003 1_555
S2 V2 2.252995 1_555
S2 V0 2.253003 1_555
S3 V1 2.252992 1_555
S3 V0 2.252992 1_555
S4 V0 2.545894 1_565
S4 V1 2.545894 1_655
S4 V2 2.545900 1_555
S5 V1 2.586505 1_655
S5 V2 2.586510 1_555
S6 V0 2.586505 1_565
S6 V2 2.586510 1_555
S7 V0 2.586509 1_565
S7 V1 2.586509 1_655
