# generated using pymatgen
data_V2OsSe6
_symmetry_space_group_name_H-M   'P 1'
_cell_length_a   5.70093746
_cell_length_b   5.70093785
_cell_length_c   6.98701215
_cell_angle_alpha   82.27885790
_cell_angle_beta   82.27884684
_cell_angle_gamma   119.98758367
_symmetry_Int_Tables_number   1
_chemical_formula_structural   V2OsSe6
_chemical_formula_sum   'V2 Os1 Se6'
_cell_volume   189.45328734
_cell_formula_units_Z   1
loop_
 _symmetry_equiv_pos_site_id
 _symmetry_equiv_pos_as_xyz
  1  'x, y, z'
loop_
 _atom_site_type_symbol
 _atom_site_label
 _atom_site_symmetry_multiplicity
 _atom_site_fract_x
 _atom_site_fract_y
 _atom_site_fract_z
 _atom_site_occupancy
  V  V0  1  0.83340406  0.50017914  0.49997433  1
  V  V1  1  0.50017914  0.83340406  0.49997433  1
  Os  Os0  1  0.16629390  0.16629390  0.50008218  1
  Se  Se0  1  0.58051814  0.24465650  0.26344719  1
  Se  Se1  1  0.24465650  0.58051814  0.26344719  1
  Se  Se2  1  0.90817790  0.90817790  0.26368125  1
  Se  Se3  1  0.75277801  0.75277801  0.73693773  1
  Se  Se4  1  0.42489877  0.08899758  0.73637690  1
  Se  Se5  1  0.08899758  0.42489877  0.73637690  1
loop_
_geom_bond_atom_site_label_1
_geom_bond_atom_site_label_2
_geom_bond_distance
_geom_bond_site_symmetry_2
Os0 Se2 2.490091 1_445
Os0 Se5 2.490273 1_555
Os0 Se4 2.490274 1_555
Os0 Se3 2.490317 1_445
Os0 Se0 2.491501 1_555
Os0 Se1 2.491501 1_555
Se0 V0 2.473737 1_555
Se0 V1 2.473823 1_545
Se1 V1 2.473737 1_555
Se1 V0 2.473823 1_455
Se2 V1 2.470931 1_555
Se2 V0 2.470932 1_555
Se3 V0 2.474687 1_555
Se3 V1 2.474687 1_555
Se4 V0 2.472989 1_555
Se4 V1 2.473260 1_545
Se5 V1 2.472989 1_555
Se5 V0 2.473261 1_455
