# generated using pymatgen
data_K4VGaF10
_symmetry_space_group_name_H-M   'P 1'
_cell_length_a   7.10690361
_cell_length_b   7.10690459
_cell_length_c   7.22689553
_cell_angle_alpha   64.23410212
_cell_angle_beta   64.23409906
_cell_angle_gamma   47.22507906
_symmetry_Int_Tables_number   1
_chemical_formula_structural   K4VGaF10
_chemical_formula_sum   'K4 V1 Ga1 F10'
_cell_volume   235.86094383
_cell_formula_units_Z   1
loop_
 _symmetry_equiv_pos_site_id
 _symmetry_equiv_pos_as_xyz
  1  'x, y, z'
loop_
 _atom_site_type_symbol
 _atom_site_label
 _atom_site_symmetry_multiplicity
 _atom_site_fract_x
 _atom_site_fract_y
 _atom_site_fract_z
 _atom_site_occupancy
  K  K0  1  0.47399612  0.47399612  0.25122165  1
  K  K1  1  0.52692775  0.52692775  0.75061657  1
  K  K2  1  0.16680978  0.16680978  0.22245774  1
  K  K3  1  0.83197244  0.83197244  0.77585964  1
  V  V0  1  0.18991903  0.18991903  0.71468969  1
  Ga  Ga0  1  0.81260608  0.81260608  0.27719693  1
  F  F0  1  0.99612242  0.50589916  0.49670735  1
  F  F1  1  0.50589916  0.99612242  0.49670735  1
  F  F2  1  0.05386086  0.05386086  0.67820048  1
  F  F3  1  0.94182632  0.94182632  0.32588583  1
  F  F4  1  0.34123661  0.34123661  0.70241776  1
  F  F5  1  0.66022280  0.66022280  0.30475671  1
  F  F6  1  0.89326715  0.37921841  0.92339971  1
  F  F7  1  0.37921841  0.89326715  0.92339971  1
  F  F8  1  0.10361739  0.62249768  0.07824094  1
  F  F9  1  0.62249768  0.10361739  0.07824094  1
loop_
_geom_bond_atom_site_label_1
_geom_bond_atom_site_label_2
_geom_bond_distance
_geom_bond_site_symmetry_2
F0 Ga0 1.974861 1_555
F0 V0 2.007820 1_655
F0 K1 2.958118 1_555
F0 K0 2.966244 1_655
F0 K3 3.024486 1_555
F0 K2 3.049411 1_655
F1 Ga0 1.974861 1_555
F1 V0 2.007820 1_565
F1 K1 2.958118 1_555
F1 K0 2.966244 1_565
F1 K3 3.024486 1_555
F1 K2 3.049410 1_565
F2 V0 1.911244 1_555
F2 K3 2.629446 1_445
F2 K1 2.885526 1_455
F2 K1 2.885527 1_545
F2 K2 2.900808 1_555
F3 Ga0 1.875620 1_555
F3 K2 2.658245 1_665
F3 K3 2.864855 1_555
F3 K0 2.890624 1_655
F3 K0 2.890624 1_565
F4 V0 1.930228 1_555
F4 K1 2.601781 1_555
F4 K0 2.876208 1_555
F4 K3 2.887735 1_455
F4 K3 2.887735 1_545
F5 Ga0 1.898228 1_555
F5 K0 2.631056 1_555
F5 K1 2.844059 1_555
F5 K2 2.901070 1_655
F5 K2 2.901070 1_565
F6 V0 1.917526 1_655
F6 K3 2.682791 1_555
F6 K1 2.722906 1_555
F6 K0 2.732980 1_556
F6 K2 2.749460 1_656
F7 V0 1.917526 1_565
F7 K3 2.682790 1_555
F7 K1 2.722906 1_555
F7 K0 2.732980 1_556
F7 K2 2.749460 1_566
F8 Ga0 1.865064 1_455
F8 K2 2.696856 1_555
F8 K0 2.746979 1_555
F8 K1 2.747367 1_554
F8 K3 2.766684 1_454
F9 Ga0 1.865064 1_545
F9 K2 2.696855 1_555
F9 K0 2.746979 1_555
F9 K1 2.747367 1_554
F9 K3 2.766684 1_544
