# generated using pymatgen
data_Ba3TiFeSbO9
_symmetry_space_group_name_H-M   'P 1'
_cell_length_a   5.80195499
_cell_length_b   5.80195544
_cell_length_c   14.19023945
_cell_angle_alpha   90.00000000
_cell_angle_beta   90.00000000
_cell_angle_gamma   120.00000295
_symmetry_Int_Tables_number   1
_chemical_formula_structural   Ba3TiFeSbO9
_chemical_formula_sum   'Ba6 Ti2 Fe2 Sb2 O18'
_cell_volume   413.68434579
_cell_formula_units_Z   2
loop_
 _symmetry_equiv_pos_site_id
 _symmetry_equiv_pos_as_xyz
  1  'x, y, z'
loop_
 _atom_site_type_symbol
 _atom_site_label
 _atom_site_symmetry_multiplicity
 _atom_site_fract_x
 _atom_site_fract_y
 _atom_site_fract_z
 _atom_site_occupancy
  Ba  Ba0  1  0.66666700  0.33333300  0.59905445  1
  Ba  Ba1  1  0.33333300  0.66666700  0.40094555  1
  Ba  Ba2  1  0.33333300  0.66666700  0.09275455  1
  Ba  Ba3  1  0.66666700  0.33333300  0.90724545  1
  Ba  Ba4  1  0.00000000  0.00000000  0.25220168  1
  Ba  Ba5  1  0.00000000  0.00000000  0.74779832  1
  Ti  Ti0  1  0.66666700  0.33333300  0.35726492  1
  Ti  Ti1  1  0.33333300  0.66666700  0.64273508  1
  Fe  Fe0  1  0.00000000  0.00000000  0.50000000  1
  Fe  Fe1  1  0.00000000  0.00000000  0.00000000  1
  Sb  Sb0  1  0.33333300  0.66666700  0.84224595  1
  Sb  Sb1  1  0.66666700  0.33333300  0.15775405  1
  O  O0  1  0.33494556  0.16747228  0.08177939  1
  O  O1  1  0.83252772  0.16747228  0.08177939  1
  O  O2  1  0.83252772  0.66505444  0.08177939  1
  O  O3  1  0.66505444  0.83252772  0.91822061  1
  O  O4  1  0.16747228  0.83252772  0.91822061  1
  O  O5  1  0.16747228  0.33494556  0.91822061  1
  O  O6  1  0.66297771  0.83148885  0.58135696  1
  O  O7  1  0.16851115  0.83148885  0.58135696  1
  O  O8  1  0.16851115  0.33702229  0.58135696  1
  O  O9  1  0.33702229  0.16851115  0.41864304  1
  O  O10  1  0.83148885  0.16851115  0.41864304  1
  O  O11  1  0.83148885  0.66297771  0.41864304  1
  O  O12  1  0.96801021  0.48400410  0.25008177  1
  O  O13  1  0.51599590  0.48400410  0.25008177  1
  O  O14  1  0.51599590  0.03198979  0.25008177  1
  O  O15  1  0.03198979  0.51599590  0.74991823  1
  O  O16  1  0.48400410  0.51599590  0.74991823  1
  O  O17  1  0.48400410  0.96801021  0.74991823  1
loop_
_geom_bond_atom_site_label_1
_geom_bond_atom_site_label_2
_geom_bond_distance
_geom_bond_site_symmetry_2
Ba0 O15 2.820014 1_655
Ba0 O17 2.820014 1_545
Ba0 O16 2.820024 1_555
Ba0 O8 2.911883 1_655
Ba0 O6 2.911884 1_545
Ba0 O7 2.911886 1_655
Ba0 O7 2.911886 1_545
Ba0 O8 2.911889 1_555
Ba0 O6 2.911889 1_555
Ba0 O10 3.049177 1_555
Ba0 O9 3.049180 1_555
Ba0 O11 3.049180 1_555
Ba1 O12 2.820014 1_455
Ba1 O14 2.820014 1_565
Ba1 O13 2.820024 1_555
Ba1 O11 2.911883 1_455
Ba1 O9 2.911884 1_565
Ba1 O10 2.911886 1_455
Ba1 O10 2.911886 1_565
Ba1 O11 2.911889 1_555
Ba1 O9 2.911889 1_555
Ba1 O7 3.049177 1_555
Ba1 O6 3.049180 1_555
Ba1 O8 3.049180 1_555
Ba2 O12 2.890258 1_455
Ba2 O14 2.890258 1_565
Ba2 O13 2.890267 1_555
Ba2 O2 2.905160 1_455
Ba2 O0 2.905161 1_565
Ba2 O1 2.905166 1_455
Ba2 O1 2.905166 1_565
Ba2 O2 2.905172 1_555
Ba2 O0 2.905172 1_555
Ba2 O3 2.985313 1_554
Ba2 O5 2.985313 1_554
Ba2 O4 2.985313 1_554
Ba3 O15 2.890258 1_655
Ba3 O17 2.890258 1_545
Ba3 O16 2.890267 1_555
Ba3 O5 2.905160 1_655
Ba3 O3 2.905161 1_545
Ba3 O4 2.905166 1_655
Ba3 O4 2.905166 1_545
Ba3 O5 2.905172 1_555
Ba3 O3 2.905172 1_555
Ba3 O0 2.985313 1_556
Ba3 O2 2.985313 1_556
Ba3 O1 2.985313 1_556
Ba4 O14 2.905577 1_455
Ba4 O12 2.905577 1_455
Ba4 O13 2.905583 1_555
Ba4 O13 2.905583 1_445
Ba4 O14 2.905589 1_555
Ba4 O12 2.905589 1_445
Ba4 O9 2.906193 1_555
Ba4 O11 2.906193 1_445
Ba4 O10 2.906193 1_455
Ba4 O1 2.946310 1_455
Ba4 O0 2.946313 1_555
Ba4 O2 2.946313 1_445
Ba5 O17 2.905577 1_545
Ba5 O15 2.905577 1_545
Ba5 O16 2.905583 1_445
Ba5 O16 2.905583 1_555
Ba5 O17 2.905589 1_445
Ba5 O15 2.905589 1_555
Ba5 O6 2.906193 1_445
Ba5 O8 2.906193 1_555
Ba5 O7 2.906193 1_545
Ba5 O4 2.946310 1_545
Ba5 O3 2.946313 1_445
Ba5 O5 2.946313 1_555
Fe0 O6 2.049505 1_445
Fe0 O9 2.049505 1_555
Fe0 O8 2.049505 1_555
Fe0 O11 2.049505 1_445
Fe0 O7 2.049505 1_545
Fe0 O10 2.049505 1_455
Fe1 O4 2.044284 1_544
Fe1 O1 2.044284 1_455
Fe1 O0 2.044288 1_555
Fe1 O3 2.044288 1_444
Fe1 O5 2.044288 1_554
Fe1 O2 2.044288 1_445
O0 Sb1 1.985058 1_555
O1 Sb1 1.985058 1_555
O2 Sb1 1.985058 1_555
O3 Sb0 1.985058 1_555
O4 Sb0 1.985058 1_555
O5 Sb0 1.985058 1_555
O6 Ti1 1.871382 1_555
O7 Ti1 1.871378 1_555
O8 Ti1 1.871382 1_555
O9 Ti0 1.871382 1_555
O10 Ti0 1.871378 1_555
O11 Ti0 1.871382 1_555
O12 Sb1 2.002279 1_555
O12 Ti0 2.146142 1_555
O13 Sb1 2.002276 1_555
O13 Ti0 2.146139 1_555
O14 Sb1 2.002280 1_555
O14 Ti0 2.146142 1_555
O15 Sb0 2.002279 1_555
O15 Ti1 2.146142 1_555
O16 Sb0 2.002276 1_555
O16 Ti1 2.146139 1_555
O17 Sb0 2.002280 1_555
O17 Ti1 2.146142 1_555
