# generated using pymatgen
data_NaTi2V3O12
_symmetry_space_group_name_H-M   'P 1'
_cell_length_a   9.08124876
_cell_length_b   9.08124822
_cell_length_c   9.08124963
_cell_angle_alpha   59.82421791
_cell_angle_beta   59.82422081
_cell_angle_gamma   59.82422782
_symmetry_Int_Tables_number   1
_chemical_formula_structural   NaTi2V3O12
_chemical_formula_sum   'Na2 Ti4 V6 O24'
_cell_volume   527.45517961
_cell_formula_units_Z   2
loop_
 _symmetry_equiv_pos_site_id
 _symmetry_equiv_pos_as_xyz
  1  'x, y, z'
loop_
 _atom_site_type_symbol
 _atom_site_label
 _atom_site_symmetry_multiplicity
 _atom_site_fract_x
 _atom_site_fract_y
 _atom_site_fract_z
 _atom_site_occupancy
  Na  Na0  1  0.50000000  0.50000000  0.50000000  1
  Na  Na1  1  0.00000000  0.00000000  0.00000000  1
  Ti  Ti0  1  0.36059289  0.36059289  0.36059289  1
  Ti  Ti1  1  0.86059289  0.86059289  0.86059289  1
  Ti  Ti2  1  0.63940711  0.63940711  0.63940711  1
  Ti  Ti3  1  0.13940711  0.13940711  0.13940711  1
  V  V0  1  0.96443328  0.53556672  0.25000000  1
  V  V1  1  0.25000000  0.96443328  0.53556672  1
  V  V2  1  0.53556672  0.25000000  0.96443328  1
  V  V3  1  0.75000000  0.03556672  0.46443328  1
  V  V4  1  0.46443328  0.75000000  0.03556672  1
  V  V5  1  0.03556672  0.46443328  0.75000000  1
  O  O0  1  0.14172420  0.49569018  0.30005416  1
  O  O1  1  0.30005416  0.14172420  0.49569018  1
  O  O2  1  0.49569018  0.30005416  0.14172420  1
  O  O3  1  0.80005416  0.99569018  0.64172420  1
  O  O4  1  0.64172420  0.80005416  0.99569018  1
  O  O5  1  0.99569018  0.64172420  0.80005416  1
  O  O6  1  0.85827580  0.50430982  0.69994584  1
  O  O7  1  0.69994584  0.85827580  0.50430982  1
  O  O8  1  0.50430982  0.69994584  0.85827580  1
  O  O9  1  0.19994584  0.00430982  0.35827580  1
  O  O10  1  0.35827580  0.19994584  0.00430982  1
  O  O11  1  0.00430982  0.35827580  0.19994584  1
  O  O12  1  0.23440172  0.44028637  0.57128203  1
  O  O13  1  0.57128203  0.23440172  0.44028637  1
  O  O14  1  0.44028637  0.57128203  0.23440172  1
  O  O15  1  0.07128203  0.94028637  0.73440172  1
  O  O16  1  0.73440172  0.07128203  0.94028637  1
  O  O17  1  0.94028637  0.73440172  0.07128203  1
  O  O18  1  0.76559828  0.55971363  0.42871797  1
  O  O19  1  0.42871797  0.76559828  0.55971363  1
  O  O20  1  0.55971363  0.42871797  0.76559828  1
  O  O21  1  0.92871797  0.05971363  0.26559828  1
  O  O22  1  0.26559828  0.92871797  0.05971363  1
  O  O23  1  0.05971363  0.26559828  0.92871797  1
loop_
_geom_bond_atom_site_label_1
_geom_bond_atom_site_label_2
_geom_bond_distance
_geom_bond_site_symmetry_2
Na0 O18 2.433729 1_555
Na0 O12 2.433729 1_555
Na0 O19 2.433729 1_555
Na0 O13 2.433729 1_555
Na0 O20 2.433730 1_555
Na0 O14 2.433730 1_555
Na1 O23 2.433729 1_554
Na1 O17 2.433729 1_445
Na1 O22 2.433730 1_545
Na1 O16 2.433730 1_454
Na1 O21 2.433730 1_455
Na1 O15 2.433730 1_544
O0 V0 1.707058 1_455
O0 Ti0 1.930540 1_555
O1 V1 1.707058 1_545
O1 Ti0 1.930540 1_555
O2 V2 1.707058 1_554
O2 Ti0 1.930540 1_555
O3 V3 1.707058 1_565
O3 Ti1 1.930540 1_555
O4 V4 1.707058 1_556
O4 Ti1 1.930540 1_555
O5 V5 1.707058 1_655
O5 Ti1 1.930540 1_555
O6 V5 1.707058 1_655
O6 Ti2 1.930540 1_555
O7 V3 1.707058 1_565
O7 Ti2 1.930540 1_555
O8 V4 1.707058 1_556
O8 Ti2 1.930540 1_555
O9 V1 1.707058 1_545
O9 Ti3 1.930540 1_555
O10 V2 1.707058 1_554
O10 Ti3 1.930540 1_555
O11 V0 1.707058 1_455
O11 Ti3 1.930540 1_555
O12 V5 1.719360 1_555
O12 Ti0 1.962613 1_555
O13 V3 1.719360 1_555
O13 Ti0 1.962613 1_555
O14 V4 1.719360 1_555
O14 Ti0 1.962613 1_555
O15 V1 1.719360 1_555
O15 Ti1 1.962613 1_455
O16 V2 1.719360 1_555
O16 Ti1 1.962613 1_545
O17 V0 1.719360 1_555
O17 Ti1 1.962613 1_554
O18 V0 1.719360 1_555
O18 Ti2 1.962613 1_555
O19 V1 1.719360 1_555
O19 Ti2 1.962613 1_555
O20 V2 1.719360 1_555
O20 Ti2 1.962613 1_555
O21 V3 1.719360 1_555
O21 Ti3 1.962613 1_655
O22 V4 1.719360 1_555
O22 Ti3 1.962613 1_565
O23 V5 1.719360 1_555
O23 Ti3 1.962613 1_556
