# generated using pymatgen
data_Cs8Bi3Sb
_symmetry_space_group_name_H-M   'P 1'
_cell_length_a   16.70824795
_cell_length_b   6.52371281
_cell_length_c   11.40003830
_cell_angle_alpha   90.00000000
_cell_angle_beta   90.00000000
_cell_angle_gamma   90.00000000
_symmetry_Int_Tables_number   1
_chemical_formula_structural   Cs8Bi3Sb
_chemical_formula_sum   'Cs16 Bi6 Sb2'
_cell_volume   1242.60202212
_cell_formula_units_Z   2
loop_
 _symmetry_equiv_pos_site_id
 _symmetry_equiv_pos_as_xyz
  1  'x, y, z'
loop_
 _atom_site_type_symbol
 _atom_site_label
 _atom_site_symmetry_multiplicity
 _atom_site_fract_x
 _atom_site_fract_y
 _atom_site_fract_z
 _atom_site_occupancy
  Cs  Cs0  1  0.49282546  0.24999900  0.16265840  1
  Cs  Cs1  1  0.00717354  0.74999900  0.66265740  1
  Cs  Cs2  1  0.98749672  0.24999900  0.33591400  1
  Cs  Cs3  1  0.51250328  0.74999900  0.83591400  1
  Cs  Cs4  1  0.24447669  0.24999900  0.23584637  1
  Cs  Cs5  1  0.25552331  0.74999900  0.73584737  1
  Cs  Cs6  1  0.74418910  0.24999900  0.26387072  1
  Cs  Cs7  1  0.75581090  0.74999900  0.76387072  1
  Cs  Cs8  1  0.44276905  0.74999900  0.41112926  1
  Cs  Cs9  1  0.05723095  0.24999900  0.91112926  1
  Cs  Cs10  1  0.94153581  0.74999900  0.09384778  1
  Cs  Cs11  1  0.55846419  0.24999900  0.59384878  1
  Cs  Cs12  1  0.21104333  0.74999900  0.40194216  1
  Cs  Cs13  1  0.28895667  0.24999900  0.90194316  1
  Cs  Cs14  1  0.71001354  0.74999900  0.09636777  1
  Cs  Cs15  1  0.78998646  0.24999900  0.59636877  1
  Bi  Bi0  1  0.16226438  0.74999900  0.06088810  1
  Bi  Bi1  1  0.33773562  0.24999900  0.56088910  1
  Bi  Bi2  1  0.66342575  0.74999900  0.43877103  1
  Bi  Bi3  1  0.83657325  0.24999900  0.93877003  1
  Bi  Bi4  1  0.15200347  0.24999900  0.58670645  1
  Bi  Bi5  1  0.34799653  0.74999900  0.08670645  1
  Sb  Sb0  1  0.65612463  0.24999900  0.91205697  1
  Sb  Sb1  1  0.84387537  0.74999900  0.41205597  1
loop_
_geom_bond_atom_site_label_1
_geom_bond_atom_site_label_2
_geom_bond_distance
_geom_bond_site_symmetry_2
Cs0 Sb0 3.950454 1_554
Cs1 Sb1 3.950442 1_455
Cs2 Sb1 4.141442 1_545
Cs2 Sb1 4.141442 1_555
Cs3 Sb0 4.141444 1_555
Cs3 Sb0 4.141444 1_565
Cs6 Sb1 4.033320 1_545
Cs6 Sb1 4.033320 1_555
Cs6 Sb0 4.272079 1_554
Cs7 Sb0 4.033324 1_555
Cs7 Sb0 4.033324 1_565
Cs7 Sb1 4.272090 1_555
Cs10 Sb1 3.977680 1_555
Cs11 Sb0 3.977680 1_555
Cs14 Sb0 3.983119 1_564
Cs14 Sb0 3.983119 1_554
Cs14 Sb1 4.237233 1_555
Cs15 Sb1 3.983131 1_545
Cs15 Sb1 3.983131 1_555
Cs15 Sb0 4.237233 1_555
Bi0 Bi5 3.117186 1_555
Bi0 Cs10 3.707079 1_455
Bi0 Cs12 3.972533 1_555
Bi0 Cs5 4.019767 1_554
Bi0 Cs4 4.062598 1_565
Bi0 Cs4 4.062598 1_555
Bi0 Cs9 4.078504 1_554
Bi0 Cs9 4.078504 1_564
Bi0 Cs13 4.289970 1_554
Bi0 Cs13 4.289970 1_564
Bi1 Bi4 3.117185 1_555
Bi1 Cs11 3.707079 1_555
Bi1 Cs13 3.972533 1_555
Bi1 Cs4 4.019788 1_555
Bi1 Cs5 4.062598 1_555
Bi1 Cs5 4.062598 1_545
Bi1 Cs8 4.078508 1_555
Bi1 Cs8 4.078508 1_545
Bi1 Cs12 4.289979 1_545
Bi1 Cs12 4.289979 1_555
Bi2 Sb1 3.030340 1_555
Bi2 Cs8 3.700229 1_555
Bi2 Cs14 3.980266 1_555
Bi2 Cs7 4.014751 1_555
Bi2 Cs6 4.054151 1_555
Bi2 Cs6 4.054151 1_565
Bi2 Cs11 4.103742 1_565
Bi2 Cs11 4.103742 1_555
Bi2 Cs15 4.282420 1_565
Bi2 Cs15 4.282420 1_555
Bi3 Sb0 3.030321 1_555
Bi3 Cs9 3.700245 1_655
Bi3 Cs15 3.980241 1_555
Bi3 Cs6 4.014755 1_556
Bi3 Cs7 4.054140 1_545
Bi3 Cs7 4.054140 1_555
Bi3 Cs10 4.103749 1_546
Bi3 Cs10 4.103749 1_556
Bi3 Cs14 4.282411 1_546
Bi3 Cs14 4.282411 1_556
Bi4 Cs2 3.965985 1_455
Bi4 Cs12 4.006168 1_545
Bi4 Cs12 4.006168 1_555
Bi4 Cs9 4.023160 1_555
Bi4 Cs5 4.064734 1_555
Bi4 Cs5 4.064734 1_545
Bi4 Cs1 4.152721 1_545
Bi4 Cs1 4.152721 1_555
Bi4 Cs13 4.260380 1_555
Bi4 Cs4 4.287864 1_555
Bi5 Cs3 3.965985 1_554
Bi5 Cs13 4.006162 1_564
Bi5 Cs13 4.006162 1_554
Bi5 Cs8 4.023160 1_555
Bi5 Cs4 4.064730 1_565
Bi5 Cs4 4.064730 1_555
Bi5 Cs0 4.152713 1_555
Bi5 Cs0 4.152713 1_565
Bi5 Cs12 4.260370 1_555
Bi5 Cs5 4.287853 1_554
