# generated using pymatgen
data_Cs5K3TiAs4
_symmetry_space_group_name_H-M   'P 1'
_cell_length_a   11.30965459
_cell_length_b   11.41875811
_cell_length_c   11.30965611
_cell_angle_alpha   60.59368949
_cell_angle_beta   60.60946029
_cell_angle_gamma   60.59368589
_symmetry_Int_Tables_number   1
_chemical_formula_structural   Cs5K3TiAs4
_chemical_formula_sum   'Cs10 K6 Ti2 As8'
_cell_volume   1046.73815453
_cell_formula_units_Z   2
loop_
 _symmetry_equiv_pos_site_id
 _symmetry_equiv_pos_as_xyz
  1  'x, y, z'
loop_
 _atom_site_type_symbol
 _atom_site_label
 _atom_site_symmetry_multiplicity
 _atom_site_fract_x
 _atom_site_fract_y
 _atom_site_fract_z
 _atom_site_occupancy
  Cs  Cs0  1  0.02672509  0.47466806  0.47191123  1
  Cs  Cs1  1  0.77522833  0.22502954  0.22206910  1
  Cs  Cs2  1  0.47144385  0.02860212  0.47144385  1
  Cs  Cs3  1  0.47191123  0.47466806  0.02672509  1
  Cs  Cs4  1  0.02763267  0.02699758  0.47411808  1
  Cs  Cs5  1  0.02886736  0.47407392  0.02886736  1
  Cs  Cs6  1  0.47411808  0.02699758  0.02763267  1
  Cs  Cs7  1  0.77919313  0.22390339  0.77919313  1
  Cs  Cs8  1  0.22053222  0.77672864  0.22053222  1
  Cs  Cs9  1  0.22206910  0.22502954  0.77522833  1
  K  K0  1  0.62475235  0.62554088  0.12507474  1
  K  K1  1  0.62442115  0.12792888  0.62442115  1
  K  K2  1  0.12507474  0.62554088  0.62475235  1
  K  K3  1  0.62588804  0.62581925  0.62588804  1
  K  K4  1  0.76181876  0.76001907  0.24069358  1
  K  K5  1  0.24069358  0.76001907  0.76181876  1
  Ti  Ti0  1  0.74991728  0.75179816  0.74991728  1
  Ti  Ti1  1  0.49995845  0.50263721  0.49995845  1
  As  As0  1  0.83903564  0.84065872  0.47590295  1
  As  As1  1  0.83946970  0.48376768  0.83946970  1
  As  As2  1  0.40893827  0.41147217  0.77296854  1
  As  As3  1  0.40907886  0.77443097  0.40907886  1
  As  As4  1  0.77296854  0.41147217  0.40893827  1
  As  As5  1  0.84568780  0.84054689  0.84568780  1
  As  As6  1  0.47590295  0.84065872  0.83903564  1
  As  As7  1  0.40867382  0.41098988  0.40867382  1
loop_
_geom_bond_atom_site_label_1
_geom_bond_atom_site_label_2
_geom_bond_distance
_geom_bond_site_symmetry_2
Cs0 K2 3.726454 1_555
Cs0 K3 3.752603 1_455
Cs1 K1 3.758962 1_555
Cs1 K0 3.778613 1_555
Cs2 K1 3.750325 1_555
Cs2 K3 3.804206 1_545
Cs3 K0 3.726454 1_555
Cs3 K3 3.752604 1_554
Cs4 K1 3.763966 1_455
Cs4 K2 3.787331 1_545
Cs5 K0 3.777345 1_455
Cs5 K2 3.777346 1_554
Cs6 K1 3.763967 1_554
Cs6 K0 3.787331 1_545
Cs7 K1 3.755505 1_555
Cs7 K3 3.794392 1_555
Cs8 K0 3.779034 1_555
Cs8 K2 3.779035 1_555
Cs9 K1 3.758962 1_555
Cs9 K2 3.778613 1_555
K0 Ti1 3.487997 1_555
K0 Ti0 3.490936 1_554
K0 K4 3.573482 1_555
K1 Ti1 3.519392 1_555
K1 Ti0 3.532760 1_545
K2 Ti1 3.487997 1_555
K2 Ti0 3.490935 1_455
K2 K5 3.573482 1_555
K3 Ti0 3.449491 1_555
K3 Ti1 3.458419 1_555
K3 K5 3.588078 1_555
K3 K4 3.588079 1_555
As0 Ti0 2.549492 1_555
As0 K3 3.523355 1_555
As0 K2 3.579693 1_655
As0 K1 3.614322 1_565
As0 Cs2 3.637276 1_565
As0 Cs0 3.654184 1_655
As0 Cs4 3.667372 1_665
As0 K4 3.763250 1_555
As0 Cs8 3.773139 1_655
As0 Cs1 3.817816 1_565
As1 Ti0 2.517449 1_555
As1 K3 3.511761 1_555
As1 K2 3.539331 1_655
As1 K0 3.539331 1_556
As1 Cs5 3.636835 1_656
As1 Cs3 3.652853 1_556
As1 Cs0 3.652854 1_655
As1 Cs7 3.763441 1_555
As1 Cs9 3.801105 1_655
As1 Cs1 3.801106 1_556
As2 Ti1 2.540309 1_555
As2 K5 3.432583 1_555
As2 K2 3.555803 1_555
As2 K3 3.559658 1_555
As2 K1 3.580350 1_555
As2 Cs9 3.648499 1_555
As2 Cs7 3.668933 1_555
As2 Cs3 3.716026 1_556
As2 Cs5 3.763986 1_556
As2 Cs6 3.821219 1_556
As3 Ti1 2.552800 1_555
As3 K4 3.431469 1_555
As3 K5 3.431469 1_555
As3 K3 3.554406 1_555
As3 K2 3.571743 1_555
As3 K0 3.571743 1_555
As3 Cs8 3.667170 1_555
As3 Cs2 3.731914 1_565
As3 Cs4 3.770968 1_565
As3 Cs6 3.770969 1_565
As4 Ti1 2.540309 1_555
As4 K4 3.432583 1_555
As4 K0 3.555803 1_555
As4 K3 3.559658 1_555
As4 K1 3.580350 1_555
As4 Cs1 3.648500 1_555
As4 Cs7 3.668933 1_555
As4 Cs0 3.716025 1_655
As4 Cs5 3.763986 1_655
As4 Cs4 3.821219 1_655
As5 Ti0 2.584685 1_555
As5 K2 3.593327 1_655
As5 K0 3.593327 1_556
As5 Cs5 3.644350 1_656
As5 K1 3.648480 1_565
As5 Cs6 3.668162 1_566
As5 Cs4 3.668162 1_665
As5 K5 3.790270 1_655
As5 K4 3.790271 1_556
As5 Cs7 3.792474 1_565
As6 Ti0 2.549491 1_555
As6 K3 3.523355 1_555
As6 K0 3.579693 1_556
As6 K1 3.614322 1_565
As6 Cs2 3.637276 1_565
As6 Cs3 3.654184 1_556
As6 Cs6 3.667372 1_566
As6 K5 3.763249 1_555
As6 Cs8 3.773139 1_556
As6 Cs9 3.817815 1_565
As7 Ti1 2.528816 1_555
As7 K1 3.564957 1_555
As7 K2 3.568060 1_555
As7 K0 3.568060 1_555
As7 Cs1 3.649363 1_555
As7 Cs9 3.649363 1_555
As7 Cs8 3.672556 1_555
As7 Cs0 3.754198 1_555
As7 Cs3 3.754199 1_555
As7 Cs2 3.805274 1_555
