# generated using pymatgen
data_Cd4TeW3O16
_symmetry_space_group_name_H-M   'P 1'
_cell_length_a   7.75825158
_cell_length_b   7.75825099
_cell_length_c   5.11556660
_cell_angle_alpha   88.72754920
_cell_angle_beta   88.72755474
_cell_angle_gamma   98.77543690
_symmetry_Int_Tables_number   1
_chemical_formula_structural   Cd4TeW3O16
_chemical_formula_sum   'Cd4 Te1 W3 O16'
_cell_volume   304.12678029
_cell_formula_units_Z   1
loop_
 _symmetry_equiv_pos_site_id
 _symmetry_equiv_pos_as_xyz
  1  'x, y, z'
loop_
 _atom_site_type_symbol
 _atom_site_label
 _atom_site_symmetry_multiplicity
 _atom_site_fract_x
 _atom_site_fract_y
 _atom_site_fract_z
 _atom_site_occupancy
  Cd  Cd0  1  0.59799471  0.91707976  0.50482166  1
  Cd  Cd1  1  0.08292024  0.40200529  0.49517834  1
  Cd  Cd2  1  0.40624643  0.09859620  0.99960051  1
  Cd  Cd3  1  0.90140380  0.59375357  0.00039949  1
  Te  Te0  1  0.57966257  0.42033743  0.50000000  1
  W  W0  1  0.41144767  0.58855233  1.00000000  1
  W  W1  1  0.91468090  0.08531910  1.00000000  1
  W  W2  1  0.09036139  0.90963861  0.50000000  1
  O  O0  1  0.43974718  0.80760746  0.87367189  1
  O  O1  1  0.94024682  0.30418838  0.86856683  1
  O  O2  1  0.69581162  0.05975318  0.13143317  1
  O  O3  1  0.19239254  0.56025282  0.12632811  1
  O  O4  1  0.56235023  0.19567311  0.64024797  1
  O  O5  1  0.06680031  0.69115904  0.63539765  1
  O  O6  1  0.30884096  0.93319969  0.36460235  1
  O  O7  1  0.80432689  0.43764977  0.35975203  1
  O  O8  1  0.15047416  0.04913612  0.79969796  1
  O  O9  1  0.64722203  0.55487314  0.80255216  1
  O  O10  1  0.44512686  0.35277797  0.19744784  1
  O  O11  1  0.95086388  0.84952584  0.20030204  1
  O  O12  1  0.85357509  0.94466741  0.70006321  1
  O  O13  1  0.35083511  0.44866196  0.69173499  1
  O  O14  1  0.55133804  0.64916489  0.30826501  1
  O  O15  1  0.05533259  0.14642491  0.29993679  1
loop_
_geom_bond_atom_site_label_1
_geom_bond_atom_site_label_2
_geom_bond_distance
_geom_bond_site_symmetry_2
Cd0 O12 2.223293 1_555
Cd0 O2 2.243881 1_565
Cd0 O0 2.301462 1_555
Cd0 O14 2.311243 1_555
Cd0 O4 2.338467 1_565
Cd0 O6 2.390767 1_555
Cd1 O15 2.223293 1_555
Cd1 O1 2.243881 1_455
Cd1 O3 2.301462 1_555
Cd1 O13 2.311243 1_555
Cd1 O7 2.338467 1_455
Cd1 O5 2.390767 1_555
Cd2 O10 2.219199 1_556
Cd2 O4 2.230383 1_555
Cd2 O8 2.237371 1_555
Cd2 O6 2.288906 1_546
Cd2 O0 2.411498 1_545
Cd2 O2 2.420188 1_556
Cd3 O9 2.219200 1_554
Cd3 O7 2.230383 1_555
Cd3 O11 2.237371 1_555
Cd3 O5 2.288906 1_654
Cd3 O3 2.411498 1_655
Cd3 O1 2.420188 1_554
O0 W0 1.784698 1_555
O1 W1 1.793142 1_555
O2 W1 1.793142 1_554
O3 W0 1.784698 1_554
O4 Te0 1.854610 1_555
O5 W2 1.798317 1_555
O6 W2 1.798317 1_555
O7 Te0 1.854610 1_555
O8 W2 1.921118 1_545
O8 W1 2.135753 1_455
O9 Te0 1.923660 1_555
O9 W0 2.123664 1_555
O10 Te0 1.923660 1_555
O10 W0 2.123664 1_554
O11 W2 1.921118 1_655
O11 W1 2.135752 1_564
O12 W1 1.928349 1_565
O12 W2 2.139440 1_655
O13 W0 1.959340 1_555
O13 Te0 2.052630 1_555
O14 W0 1.959340 1_554
O14 Te0 2.052630 1_555
O15 W1 1.928349 1_454
O15 W2 2.139440 1_545
