# generated using pymatgen
data_Y2Mg(Al3Cu4)3
_symmetry_space_group_name_H-M   'P 1'
_cell_length_a   10.30260240
_cell_length_b   8.12700882
_cell_length_c   7.83443952
_cell_angle_alpha   80.37874545
_cell_angle_beta   51.05366365
_cell_angle_gamma   48.56759918
_symmetry_Int_Tables_number   1
_chemical_formula_structural   Y2Mg(Al3Cu4)3
_chemical_formula_sum   'Y2 Mg1 Al9 Cu12'
_cell_volume   345.91998576
_cell_formula_units_Z   1
loop_
 _symmetry_equiv_pos_site_id
 _symmetry_equiv_pos_as_xyz
  1  'x, y, z'
loop_
 _atom_site_type_symbol
 _atom_site_label
 _atom_site_symmetry_multiplicity
 _atom_site_fract_x
 _atom_site_fract_y
 _atom_site_fract_z
 _atom_site_occupancy
  Y  Y0  1  0.00000000  0.00000000  0.00000000  1
  Y  Y1  1  0.25000000  0.25000000  0.25000000  1
  Mg  Mg0  1  0.50000000  0.50000000  0.50000000  1
  Al  Al0  1  0.75000000  0.75000000  0.75000000  1
  Al  Al1  1  0.75854478  0.06825598  0.83032545  1
  Al  Al2  1  0.83032545  0.34287479  0.75854478  1
  Al  Al3  1  0.06825598  0.75854478  0.34287479  1
  Al  Al4  1  0.34287479  0.83032545  0.06825598  1
  Al  Al5  1  0.49292106  0.17925756  0.41749221  1
  Al  Al6  1  0.41749221  0.91032917  0.49292106  1
  Al  Al7  1  0.17925756  0.49292106  0.91032917  1
  Al  Al8  1  0.91032917  0.41749221  0.17925756  1
  Cu  Cu0  1  0.62445891  0.12295372  0.62855781  1
  Cu  Cu1  1  0.62855781  0.62402957  0.62445891  1
  Cu  Cu2  1  0.12295372  0.62445891  0.62402957  1
  Cu  Cu3  1  0.62402957  0.62855781  0.12295372  1
  Cu  Cu4  1  0.48889105  0.43431849  0.18153045  1
  Cu  Cu5  1  0.18153045  0.89526001  0.48889105  1
  Cu  Cu6  1  0.43431849  0.48889105  0.89526001  1
  Cu  Cu7  1  0.89526001  0.18153045  0.43431849  1
  Cu  Cu8  1  0.76069871  0.81407928  0.06521572  1
  Cu  Cu9  1  0.06521572  0.36000529  0.76069871  1
  Cu  Cu10  1  0.81407928  0.76069871  0.36000529  1
  Cu  Cu11  1  0.36000529  0.06521572  0.81407928  1
loop_
_geom_bond_atom_site_label_1
_geom_bond_atom_site_label_2
_geom_bond_distance
_geom_bond_site_symmetry_2
Mg0 Y0 3.262139 1_655
Mg0 Y0 3.262139 1_566
Al0 Cu1 2.675773 1_555
Al0 Cu3 2.675773 1_556
Al0 Cu2 2.675774 1_655
Al0 Cu0 2.675774 1_565
Al0 Cu8 2.688875 1_556
Al0 Cu9 2.688878 1_655
Al0 Cu10 2.688882 1_555
Al0 Cu11 2.688883 1_565
Al0 Al4 2.829953 1_556
Al0 Al2 2.829953 1_555
Al0 Al3 2.829957 1_655
Al0 Al1 2.829960 1_565
Al0 Y1 3.262139 1_566
Al0 Y1 3.262139 1_655
Al1 Cu2 2.472843 1_645
Al1 Cu0 2.510452 1_555
Al1 Cu4 2.515394 1_556
Al1 Cu8 2.524687 1_546
Al1 Cu6 2.536766 1_555
Al1 Cu5 2.572204 1_645
Al1 Cu7 2.779289 1_555
Al1 Y1 3.188601 1_556
Al1 Y0 3.216751 1_656
Al2 Cu3 2.472838 1_556
Al2 Cu1 2.510450 1_555
Al2 Cu5 2.515399 1_645
Al2 Cu9 2.524676 1_655
Al2 Cu7 2.536770 1_555
Al2 Cu4 2.572207 1_556
Al2 Cu6 2.779293 1_555
Al2 Y1 3.188598 1_655
Al2 Y0 3.216754 1_656
Al3 Cu0 2.472843 1_465
Al3 Cu2 2.510445 1_555
Al3 Cu6 2.515398 1_554
Al3 Cu10 2.524697 1_455
Al3 Cu4 2.536763 1_555
Al3 Cu7 2.572203 1_465
Al3 Cu5 2.779283 1_555
Al3 Y1 3.188602 1_555
Al3 Y0 3.216758 1_565
Al4 Cu1 2.472844 1_554
Al4 Cu3 2.510444 1_555
Al4 Cu7 2.515397 1_465
Al4 Cu11 2.524686 1_564
Al4 Cu5 2.536763 1_555
Al4 Cu6 2.572211 1_554
Al4 Cu4 2.779290 1_555
Al4 Y1 3.188594 1_565
Al4 Y0 3.216760 1_565
Al5 Cu2 2.487751 1_555
Al5 Cu8 2.523004 1_545
Al5 Cu4 2.533311 1_555
Al5 Cu10 2.542554 1_545
Al5 Cu0 2.554181 1_555
Al5 Cu9 2.581243 1_555
Al5 Cu11 2.784967 1_555
Al5 Mg0 2.844648 1_555
Al5 Y0 3.186088 1_655
Al5 Y1 3.207529 1_555
Al6 Cu3 2.487750 1_555
Al6 Cu9 2.522999 1_565
Al6 Cu5 2.533311 1_555
Al6 Cu11 2.542550 1_565
Al6 Cu1 2.554181 1_555
Al6 Cu8 2.581240 1_555
Al6 Cu10 2.784963 1_555
Al6 Mg0 2.844648 1_555
Al6 Y0 3.186088 1_566
Al6 Y1 3.207529 1_565
Al7 Cu0 2.487751 1_555
Al7 Cu10 2.522999 1_456
Al7 Cu6 2.533311 1_555
Al7 Cu8 2.542557 1_456
Al7 Cu2 2.554181 1_555
Al7 Cu11 2.581244 1_555
Al7 Cu9 2.784973 1_555
Al7 Mg0 2.844648 1_555
Al7 Y0 3.186088 1_566
Al7 Y1 3.207529 1_556
Al8 Cu1 2.487750 1_555
Al8 Cu11 2.523000 1_654
Al8 Cu7 2.533311 1_555
Al8 Cu9 2.542557 1_654
Al8 Cu3 2.554181 1_555
Al8 Cu10 2.581236 1_555
Al8 Cu8 2.784967 1_555
Al8 Mg0 2.844648 1_555
Al8 Y0 3.186088 1_655
Al8 Y1 3.207529 1_655
Cu0 Cu10 2.490350 1_545
Cu0 Cu11 2.498299 1_555
Cu0 Cu6 2.503762 1_555
Cu0 Cu7 2.550356 1_555
Cu0 Mg0 2.727654 1_555
Cu0 Y1 3.528225 1_556
Cu0 Y0 3.576736 1_655
Cu1 Cu11 2.490343 1_565
Cu1 Cu10 2.498292 1_555
Cu1 Cu7 2.503762 1_555
Cu1 Cu6 2.550356 1_555
Cu1 Mg0 2.727654 1_555
Cu1 Y1 3.528225 1_655
Cu1 Y0 3.576736 1_566
Cu2 Cu8 2.490345 1_456
Cu2 Cu9 2.498298 1_555
Cu2 Cu4 2.503762 1_555
Cu2 Cu5 2.550356 1_555
Cu2 Mg0 2.727654 1_555
Cu2 Y1 3.528225 1_555
Cu2 Y0 3.576736 1_566
Cu3 Cu9 2.490344 1_654
Cu3 Cu8 2.498290 1_555
Cu3 Cu5 2.503762 1_555
Cu3 Cu4 2.550356 1_555
Cu3 Mg0 2.727654 1_555
Cu3 Y1 3.528225 1_565
Cu3 Y0 3.576736 1_655
Cu4 Cu6 2.542752 1_554
Cu4 Mg0 2.721812 1_555
Cu4 Cu5 2.754717 1_555
Cu4 Y0 3.142274 1_655
Cu4 Y1 3.397071 1_555
Cu5 Cu7 2.542752 1_465
Cu5 Mg0 2.721812 1_555
Cu5 Y0 3.142273 1_566
Cu5 Y1 3.397071 1_565
Cu6 Mg0 2.721812 1_555
Cu6 Cu7 2.754717 1_555
Cu6 Y0 3.142274 1_566
Cu6 Y1 3.397071 1_556
Cu7 Mg0 2.721812 1_555
Cu7 Y0 3.142273 1_655
Cu7 Y1 3.397071 1_655
Cu8 Cu9 2.713501 1_654
Cu8 Y1 3.130340 1_565
Cu8 Y0 3.422128 1_665
Cu9 Y1 3.130338 1_555
Cu9 Y0 3.422121 1_556
Cu10 Cu8 2.602042 1_555
Cu10 Cu11 2.713501 1_565
Cu10 Y1 3.130343 1_655
Cu10 Y0 3.422125 1_665
Cu11 Cu9 2.602042 1_555
Cu11 Y1 3.130346 1_556
Cu11 Y0 3.422119 1_556
