# generated using pymatgen
data_KRb2AlBi2
_symmetry_space_group_name_H-M   'P 1'
_cell_length_a   9.78817197
_cell_length_b   9.78817323
_cell_length_c   9.78817352
_cell_angle_alpha   128.11379271
_cell_angle_beta   70.88412787
_cell_angle_gamma   135.25562376
_symmetry_Int_Tables_number   1
_chemical_formula_structural   KRb2AlBi2
_chemical_formula_sum   'K2 Rb4 Al2 Bi4'
_cell_volume   508.87816587
_cell_formula_units_Z   2
loop_
 _symmetry_equiv_pos_site_id
 _symmetry_equiv_pos_as_xyz
  1  'x, y, z'
loop_
 _atom_site_type_symbol
 _atom_site_label
 _atom_site_symmetry_multiplicity
 _atom_site_fract_x
 _atom_site_fract_y
 _atom_site_fract_z
 _atom_site_occupancy
  K  K0  1  0.75000000  0.25000000  0.50000000  1
  K  K1  1  0.25000000  0.75000000  0.50000000  1
  Rb  Rb0  1  0.32553716  0.70827828  0.03381644  1
  Rb  Rb1  1  0.17446284  0.20827828  0.38274111  1
  Rb  Rb2  1  0.82553716  0.79172072  0.61725889  1
  Rb  Rb3  1  0.67446284  0.29172172  0.96618456  1
  Al  Al0  1  0.25000000  0.25000000  0.00000000  1
  Al  Al1  1  0.74999900  0.74999900  0.00000000  1
  Bi  Bi0  1  0.90946775  0.18826798  0.09773674  1
  Bi  Bi1  1  0.59053125  0.68826798  0.27880023  1
  Bi  Bi2  1  0.40946775  0.31173202  0.72120077  1
  Bi  Bi3  1  0.09053225  0.81173202  0.90226426  1
loop_
_geom_bond_atom_site_label_1
_geom_bond_atom_site_label_2
_geom_bond_distance
_geom_bond_site_symmetry_2
K0 K1 3.725589 1_545
K0 K1 3.725589 1_655
K0 Rb2 4.177802 1_555
K0 Rb0 4.177805 1_545
K0 Rb1 4.177812 1_655
K0 Rb3 4.177812 1_555
K1 Rb0 4.177803 1_555
K1 Rb2 4.177805 1_455
K1 Rb3 4.177811 1_565
K1 Rb1 4.177812 1_555
Rb0 Rb3 4.494024 1_454
Rb0 Rb3 4.494031 1_564
Rb0 Rb1 4.913455 1_565
Rb0 Rb1 4.913463 1_554
Rb1 Rb2 4.494024 1_555
Rb1 Rb2 4.494031 1_445
Rb2 Rb3 4.913455 1_554
Rb2 Rb3 4.913463 1_565
Al0 Bi2 2.855610 1_554
Al0 Bi1 2.855614 1_555
Al0 Bi3 2.855619 1_544
Al0 Bi0 2.855619 1_455
Al0 Rb0 3.793936 1_555
Al0 Rb2 3.793939 1_444
Al0 Rb3 3.793941 1_554
Al0 Rb1 3.793942 1_555
Al1 Bi2 2.855609 1_554
Al1 Bi1 2.855615 1_555
Al1 Bi0 2.855620 1_565
Al1 Bi3 2.855623 1_654
Al1 Rb0 3.793935 1_555
Al1 Rb3 3.793938 1_554
Al1 Rb2 3.793940 1_554
Al1 Rb1 3.793944 1_665
Bi0 K0 3.561221 1_555
Bi0 K1 3.561225 1_655
Bi0 Rb2 3.650410 1_544
Bi0 Rb3 3.851372 1_554
Bi0 Rb0 3.962478 1_545
Bi0 Rb0 3.962479 1_655
Bi0 Rb1 4.229843 1_655
Bi1 K1 3.561221 1_555
Bi1 K0 3.561225 1_565
Bi1 Rb3 3.650409 1_554
Bi1 Rb2 3.851379 1_555
Bi1 Rb1 3.962478 1_555
Bi1 Rb1 3.962484 1_665
Bi1 Rb0 4.229835 1_555
Bi2 K1 3.561227 1_545
Bi2 K0 3.561231 1_555
Bi2 Rb0 3.650402 1_556
Bi2 Rb1 3.851374 1_555
Bi2 Rb2 3.962478 1_445
Bi2 Rb2 3.962479 1_555
Bi2 Rb3 4.229844 1_555
Bi3 K0 3.561229 1_455
Bi3 K1 3.561230 1_555
Bi3 Rb1 3.650402 1_566
Bi3 Rb0 3.851372 1_556
Bi3 Rb3 3.962478 1_565
Bi3 Rb3 3.962479 1_455
Bi3 Rb2 4.229844 1_455
