# generated using pymatgen
data_MnNb3Al2N
_symmetry_space_group_name_H-M   'P 1'
_cell_length_a   8.27895960
_cell_length_b   8.27898720
_cell_length_c   8.27896161
_cell_angle_alpha   60.00082822
_cell_angle_beta   60.00069396
_cell_angle_gamma   60.00088704
_symmetry_Int_Tables_number   1
_chemical_formula_structural   MnNb3Al2N
_chemical_formula_sum   'Mn4 Nb12 Al8 N4'
_cell_volume   401.25619725
_cell_formula_units_Z   4
loop_
 _symmetry_equiv_pos_site_id
 _symmetry_equiv_pos_as_xyz
  1  'x, y, z'
loop_
 _atom_site_type_symbol
 _atom_site_label
 _atom_site_symmetry_multiplicity
 _atom_site_fract_x
 _atom_site_fract_y
 _atom_site_fract_z
 _atom_site_occupancy
  Mn  Mn0  1  0.12500000  0.62500000  0.62500000  1
  Mn  Mn1  1  0.62500000  0.12500000  0.62500000  1
  Mn  Mn2  1  0.62500000  0.62500000  0.12500000  1
  Mn  Mn3  1  0.62500000  0.62500000  0.62500000  1
  Nb  Nb0  1  0.80866320  0.80866822  0.19134207  1
  Nb  Nb1  1  0.19134658  0.19134400  0.80865350  1
  Nb  Nb2  1  0.80865752  0.19134194  0.80865247  1
  Nb  Nb3  1  0.19132270  0.80867149  0.19134140  1
  Nb  Nb4  1  0.19134162  0.80866024  0.80865041  1
  Nb  Nb5  1  0.80866854  0.19132361  0.19134320  1
  Nb  Nb6  1  0.44133680  0.44133178  0.05865793  1
  Nb  Nb7  1  0.05865342  0.05865600  0.44134650  1
  Nb  Nb8  1  0.44134248  0.05865806  0.44134753  1
  Nb  Nb9  1  0.05867730  0.44132851  0.05865860  1
  Nb  Nb10  1  0.05865838  0.44133976  0.44134959  1
  Nb  Nb11  1  0.44133146  0.05867639  0.05865680  1
  Al  Al0  1  0.75414149  0.41528176  0.41528707  1
  Al  Al1  1  0.41528909  0.75414184  0.41528104  1
  Al  Al2  1  0.41529272  0.41528022  0.75413676  1
  Al  Al3  1  0.41529354  0.41528108  0.41528423  1
  Al  Al4  1  0.49585851  0.83471824  0.83471293  1
  Al  Al5  1  0.83471091  0.49585816  0.83471896  1
  Al  Al6  1  0.83470728  0.83471978  0.49586324  1
  Al  Al7  1  0.83470646  0.83471892  0.83471577  1
  N  N0  1  0.62500000  0.12500000  0.12500000  1
  N  N1  1  0.12500000  0.62500000  0.12500000  1
  N  N2  1  0.12500000  0.12500000  0.62500000  1
  N  N3  1  0.12500000  0.12500000  0.12500000  1
loop_
_geom_bond_atom_site_label_1
_geom_bond_atom_site_label_2
_geom_bond_distance
_geom_bond_site_symmetry_2
Mn0 Nb4 2.984516 1_555
Mn0 Nb10 2.984516 1_555
Mn0 Nb7 2.984587 1_565
Mn0 Nb1 2.984587 1_555
Mn0 Nb9 2.984625 1_556
Mn0 Nb3 2.984625 1_555
Mn1 Nb2 2.984511 1_555
Mn1 Nb8 2.984511 1_555
Mn1 Nb7 2.984557 1_655
Mn1 Nb1 2.984557 1_555
Mn1 Nb11 2.984608 1_556
Mn1 Nb5 2.984608 1_555
Mn2 Nb0 2.984665 1_555
Mn2 Nb6 2.984665 1_555
Mn2 Nb9 2.984734 1_655
Mn2 Nb3 2.984734 1_555
Mn2 Nb11 2.984737 1_565
Mn2 Nb5 2.984737 1_555
Mn3 Nb4 2.984598 1_555
Mn3 Nb10 2.984598 1_655
Mn3 Nb8 2.984608 1_565
Mn3 Nb2 2.984608 1_555
Mn3 Nb6 2.984622 1_556
Mn3 Nb0 2.984622 1_555
Al0 Mn1 2.544363 1_555
Al0 Mn2 2.544398 1_555
Al0 Mn3 2.544403 1_555
Al0 Nb7 2.753761 1_655
Al0 Nb10 2.753786 1_655
Al0 Nb9 2.753843 1_655
Al0 Al3 2.805323 1_555
Al0 Al2 2.805349 1_555
Al0 Al1 2.805419 1_555
Al0 Nb2 2.973585 1_555
Al0 Nb5 2.973661 1_555
Al0 Nb0 2.973759 1_555
Al1 Mn2 2.544356 1_555
Al1 Mn3 2.544392 1_555
Al1 Mn0 2.544408 1_555
Al1 Nb8 2.753785 1_565
Al1 Nb7 2.753813 1_565
Al1 Nb11 2.753827 1_565
Al1 Al3 2.805392 1_555
Al1 Al2 2.805437 1_555
Al1 Nb4 2.973616 1_555
Al1 Nb0 2.973674 1_555
Al1 Nb3 2.973677 1_555
Al2 Mn1 2.544334 1_555
Al2 Mn3 2.544384 1_555
Al2 Mn0 2.544415 1_555
Al2 Nb11 2.753682 1_556
Al2 Nb6 2.753704 1_556
Al2 Nb9 2.753732 1_556
Al2 Al3 2.805340 1_555
Al2 Nb1 2.973560 1_555
Al2 Nb2 2.973580 1_555
Al2 Nb4 2.973690 1_555
Al3 Mn1 2.544369 1_555
Al3 Mn2 2.544383 1_555
Al3 Mn0 2.544448 1_555
Al3 Nb8 2.753716 1_555
Al3 Nb10 2.753765 1_555
Al3 Nb6 2.753797 1_555
Al3 Nb1 2.973617 1_555
Al3 Nb5 2.973689 1_555
Al3 Nb3 2.973807 1_555
Al4 Mn1 2.544363 1_565
Al4 Mn2 2.544398 1_556
Al4 Mn3 2.544403 1_555
Al4 Nb1 2.753761 1_565
Al4 Nb4 2.753786 1_555
Al4 Nb3 2.753843 1_556
Al4 Al7 2.805323 1_555
Al4 Al6 2.805349 1_555
Al4 Al5 2.805419 1_555
Al4 Nb8 2.973585 1_565
Al4 Nb11 2.973661 1_566
Al4 Nb6 2.973759 1_556
Al5 Mn2 2.544356 1_556
Al5 Mn3 2.544392 1_555
Al5 Mn0 2.544408 1_655
Al5 Nb2 2.753785 1_555
Al5 Nb1 2.753813 1_655
Al5 Nb5 2.753827 1_556
Al5 Al7 2.805392 1_555
Al5 Al6 2.805437 1_555
Al5 Nb10 2.973616 1_655
Al5 Nb6 2.973674 1_556
Al5 Nb9 2.973677 1_656
Al6 Mn1 2.544334 1_565
Al6 Mn3 2.544384 1_555
Al6 Mn0 2.544415 1_655
Al6 Nb5 2.753682 1_565
Al6 Nb0 2.753704 1_555
Al6 Nb3 2.753732 1_655
Al6 Al7 2.805340 1_555
Al6 Nb7 2.973560 1_665
Al6 Nb8 2.973580 1_565
Al6 Nb10 2.973690 1_655
Al7 Mn1 2.544369 1_565
Al7 Mn2 2.544383 1_556
Al7 Mn0 2.544448 1_655
Al7 Nb2 2.753716 1_565
Al7 Nb4 2.753765 1_655
Al7 Nb0 2.753797 1_556
Al7 Nb7 2.973617 1_665
Al7 Nb11 2.973689 1_566
Al7 Nb9 2.973807 1_656
N0 Nb5 2.210662 1_555
N0 Nb11 2.210662 1_555
N0 Nb6 2.210675 1_555
N0 Nb0 2.210675 1_545
N0 Nb8 2.210746 1_555
N0 Nb2 2.210746 1_554
N1 Nb3 2.210672 1_555
N1 Nb9 2.210672 1_555
N1 Nb6 2.210707 1_555
N1 Nb0 2.210707 1_455
N1 Nb10 2.210767 1_555
N1 Nb4 2.210767 1_554
N2 Nb1 2.210687 1_555
N2 Nb7 2.210687 1_555
N2 Nb4 2.210698 1_545
N2 Nb10 2.210698 1_555
N2 Nb8 2.210708 1_555
N2 Nb2 2.210708 1_455
N3 Nb9 2.210647 1_555
N3 Nb3 2.210647 1_545
N3 Nb11 2.210655 1_555
N3 Nb5 2.210655 1_455
N3 Nb7 2.210728 1_555
N3 Nb1 2.210728 1_554
