# generated using pymatgen
data_Rb3Na2NbP3
_symmetry_space_group_name_H-M   'P 1'
_cell_length_a   10.40361431
_cell_length_b   10.40361518
_cell_length_c   15.50642870
_cell_angle_alpha   90.00000000
_cell_angle_beta   90.00000000
_cell_angle_gamma   142.00346437
_symmetry_Int_Tables_number   1
_chemical_formula_structural   Rb3Na2NbP3
_chemical_formula_sum   'Rb12 Na8 Nb4 P12'
_cell_volume   1033.21017840
_cell_formula_units_Z   4
loop_
 _symmetry_equiv_pos_site_id
 _symmetry_equiv_pos_as_xyz
  1  'x, y, z'
loop_
 _atom_site_type_symbol
 _atom_site_label
 _atom_site_symmetry_multiplicity
 _atom_site_fract_x
 _atom_site_fract_y
 _atom_site_fract_z
 _atom_site_occupancy
  Rb  Rb0  1  0.94464850  0.61219218  0.82445041  1
  Rb  Rb1  1  0.55535150  0.88780782  0.32445041  1
  Rb  Rb2  1  0.38780782  0.05535150  0.17554959  1
  Rb  Rb3  1  0.05535150  0.38780782  0.17554959  1
  Rb  Rb4  1  0.88780782  0.55535150  0.32445041  1
  Rb  Rb5  1  0.44464850  0.11219218  0.67554959  1
  Rb  Rb6  1  0.61219218  0.94464850  0.82445041  1
  Rb  Rb7  1  0.28316094  0.28316094  0.31172323  1
  Rb  Rb8  1  0.78316094  0.78316094  0.18827677  1
  Rb  Rb9  1  0.21683906  0.21683906  0.81172323  1
  Rb  Rb10  1  0.71683906  0.71683906  0.68827677  1
  Rb  Rb11  1  0.11219218  0.44464850  0.67554959  1
  Na  Na0  1  0.92135302  0.07864698  0.00000000  1
  Na  Na1  1  0.57864698  0.42135302  0.50000000  1
  Na  Na2  1  0.07864698  0.92135302  0.00000000  1
  Na  Na3  1  0.42135302  0.57864698  0.50000000  1
  Na  Na4  1  0.75607837  0.24392163  0.00000000  1
  Na  Na5  1  0.74392163  0.25607837  0.50000000  1
  Na  Na6  1  0.24392163  0.75607837  0.00000000  1
  Na  Na7  1  0.25607837  0.74392163  0.50000000  1
  Nb  Nb0  1  0.58162561  0.41837439  0.00000000  1
  Nb  Nb1  1  0.91837439  0.08162561  0.50000000  1
  Nb  Nb2  1  0.41837439  0.58162561  0.00000000  1
  Nb  Nb3  1  0.08162561  0.91837439  0.50000000  1
  P  P0  1  0.86061940  0.55467789  0.09242041  1
  P  P1  1  0.44532211  0.13938060  0.90757959  1
  P  P2  1  0.63938060  0.94532211  0.59242041  1
  P  P3  1  0.94532211  0.63938060  0.59242041  1
  P  P4  1  0.13938060  0.44532211  0.90757959  1
  P  P5  1  0.55467789  0.86061940  0.09242041  1
  P  P6  1  0.36061940  0.05467789  0.40757959  1
  P  P7  1  0.19914009  0.19914009  0.58652086  1
  P  P8  1  0.69914009  0.69914009  0.91347914  1
  P  P9  1  0.30085991  0.30085991  0.08652086  1
  P  P10  1  0.05467789  0.36061940  0.40757959  1
  P  P11  1  0.80085991  0.80085991  0.41347914  1
loop_
_geom_bond_atom_site_label_1
_geom_bond_atom_site_label_2
_geom_bond_distance
_geom_bond_site_symmetry_2
Na0 P5 2.848399 1_545
Na0 P4 2.848399 1_654
Na0 P9 2.889134 1_655
Na0 P8 2.889134 1_544
Na1 P3 2.848399 1_555
Na1 P6 2.848399 1_555
Na1 P7 2.889134 1_555
Na1 P11 2.889134 1_555
Na2 P1 2.848399 1_564
Na2 P0 2.848399 1_455
Na2 P8 2.889134 1_454
Na2 P9 2.889134 1_565
Na3 P10 2.848399 1_555
Na3 P2 2.848399 1_555
Na3 P11 2.889134 1_555
Na3 P7 2.889134 1_555
Na4 P1 2.854297 1_554
Na4 P0 2.854298 1_555
Na4 P4 3.029361 1_654
Na4 P5 3.029362 1_545
Na5 P10 2.854297 1_655
Na5 P2 2.854298 1_545
Na5 P6 3.029361 1_555
Na5 P3 3.029362 1_555
Na6 P5 2.854297 1_555
Na6 P4 2.854298 1_554
Na6 P0 3.029361 1_455
Na6 P1 3.029362 1_564
Na7 P3 2.854297 1_455
Na7 P6 2.854298 1_565
Na7 P2 3.029361 1_555
Na7 P10 3.029362 1_555
Nb0 P0 2.449959 1_555
Nb0 P1 2.449959 1_554
Nb0 P9 2.489649 1_555
Nb0 P8 2.489649 1_554
Nb1 P2 2.449959 1_545
Nb1 P10 2.449959 1_655
Nb1 P7 2.489649 1_655
Nb1 P11 2.489649 1_545
Nb2 P4 2.449959 1_554
Nb2 P5 2.449959 1_555
Nb2 P8 2.489649 1_554
Nb2 P9 2.489649 1_555
Nb3 P6 2.449959 1_565
Nb3 P3 2.449959 1_455
Nb3 P11 2.489649 1_455
Nb3 P7 2.489649 1_565
P0 Rb8 3.395318 1_555
P0 Rb2 3.545379 1_555
P0 Rb4 3.608632 1_555
P0 Rb2 3.721298 1_665
P0 Rb3 3.784590 1_655
P1 Rb9 3.395318 1_555
P1 Rb0 3.545379 1_555
P1 Rb5 3.608632 1_555
P1 Rb0 3.721298 1_445
P1 Rb6 3.784590 1_545
P2 Rb10 3.395318 1_555
P2 Rb11 3.545379 1_665
P2 Rb6 3.608632 1_555
P2 Rb11 3.721298 1_555
P2 Rb5 3.784590 1_565
P3 Rb10 3.395318 1_555
P3 Rb5 3.545379 1_665
P3 Rb0 3.608632 1_555
P3 Rb5 3.721298 1_555
P3 Rb11 3.784590 1_655
P4 Rb9 3.395318 1_555
P4 Rb6 3.545379 1_555
P4 Rb11 3.608632 1_555
P4 Rb6 3.721298 1_445
P4 Rb0 3.784590 1_455
P5 Rb8 3.395318 1_555
P5 Rb3 3.545379 1_555
P5 Rb1 3.608632 1_555
P5 Rb3 3.721298 1_665
P5 Rb2 3.784590 1_565
P6 Rb7 3.395318 1_555
P6 Rb4 3.545379 1_445
P6 Rb2 3.608632 1_555
P6 Rb4 3.721298 1_555
P6 Rb1 3.784590 1_545
P7 Rb9 3.494142 1_555
P7 Rb5 3.590175 1_555
P7 Rb11 3.590175 1_555
P7 Rb10 3.627993 1_445
P7 Rb10 3.845313 1_555
P8 Rb10 3.494142 1_555
P8 Rb0 3.590175 1_555
P8 Rb6 3.590175 1_555
P8 Rb9 3.627993 1_555
P8 Rb9 3.845313 1_665
P9 Rb7 3.494142 1_555
P9 Rb3 3.590175 1_555
P9 Rb2 3.590175 1_555
P9 Rb8 3.627993 1_555
P9 Rb8 3.845313 1_445
P10 Rb7 3.395318 1_555
P10 Rb1 3.545379 1_445
P10 Rb3 3.608632 1_555
P10 Rb1 3.721298 1_555
P10 Rb4 3.784590 1_455
P11 Rb8 3.494142 1_555
P11 Rb1 3.590175 1_555
P11 Rb4 3.590175 1_555
P11 Rb7 3.627993 1_665
P11 Rb7 3.845313 1_555
