# generated using pymatgen
data_K2LiScP2
_symmetry_space_group_name_H-M   'P 1'
_cell_length_a   8.60912208
_cell_length_b   8.60912236
_cell_length_c   8.60912233
_cell_angle_alpha   135.48680943
_cell_angle_beta   136.02913230
_cell_angle_gamma   64.35575549
_symmetry_Int_Tables_number   1
_chemical_formula_structural   K2LiScP2
_chemical_formula_sum   'K4 Li2 Sc2 P4'
_cell_volume   306.31782958
_cell_formula_units_Z   2
loop_
 _symmetry_equiv_pos_site_id
 _symmetry_equiv_pos_as_xyz
  1  'x, y, z'
loop_
 _atom_site_type_symbol
 _atom_site_label
 _atom_site_symmetry_multiplicity
 _atom_site_fract_x
 _atom_site_fract_y
 _atom_site_fract_z
 _atom_site_occupancy
  K  K0  1  0.10882807  0.82116089  0.28766718  1
  K  K1  1  0.89117193  0.17883911  0.71233282  1
  K  K2  1  0.46650530  0.67883911  0.78766718  1
  K  K3  1  0.53349470  0.32116089  0.21233282  1
  Li  Li0  1  0.50000000  0.25000000  0.75000000  1
  Li  Li1  1  0.50000000  0.75000000  0.25000000  1
  Sc  Sc0  1  0.00000000  0.25000000  0.25000000  1
  Sc  Sc1  1  0.00000000  0.75000000  0.75000000  1
  P  P0  1  0.67613975  0.91018697  0.76595078  1
  P  P1  1  0.14423619  0.41018697  0.73404922  1
  P  P2  1  0.85576381  0.58981303  0.26595078  1
  P  P3  1  0.32386025  0.08981303  0.23404922  1
loop_
_geom_bond_atom_site_label_1
_geom_bond_atom_site_label_2
_geom_bond_distance
_geom_bond_site_symmetry_2
K0 P0 3.344906 1_555
K0 Li1 3.365163 1_555
K0 Li0 3.365163 1_565
K0 P2 3.374453 1_455
K0 P1 3.526364 1_554
K0 P1 3.526364 1_565
K0 Sc0 3.590186 1_565
K0 Sc1 3.590186 1_554
K0 P0 3.604579 1_454
K1 P3 3.344906 1_555
K1 Li0 3.365163 1_555
K1 Li1 3.365163 1_545
K1 P1 3.374453 1_655
K1 P2 3.526364 1_556
K1 P2 3.526364 1_545
K1 Sc1 3.590186 1_645
K1 Sc0 3.590186 1_656
K1 P3 3.604579 1_656
K2 P2 3.344894 1_556
K2 Li1 3.365157 1_556
K2 Li0 3.365160 1_555
K2 P0 3.374475 1_555
K2 P3 3.526364 1_555
K2 P3 3.526370 1_566
K2 Sc1 3.590177 1_555
K2 Sc0 3.590180 1_555
K2 P2 3.604574 1_455
K3 P1 3.344894 1_554
K3 Li0 3.365157 1_554
K3 Li1 3.365160 1_555
K3 P3 3.374475 1_555
K3 P0 3.526364 1_555
K3 P0 3.526370 1_544
K3 Sc0 3.590177 1_655
K3 Sc1 3.590180 1_655
K3 P1 3.604574 1_655
Li0 P3 2.703734 1_555
Li0 P1 2.703740 1_555
Li0 P2 2.703741 1_556
Li0 P0 2.703741 1_545
Li1 P0 2.703734 1_555
Li1 P2 2.703740 1_555
Li1 P1 2.703741 1_554
Li1 P3 2.703741 1_565
P0 Sc1 2.578248 1_655
P0 Sc0 2.578256 1_666
P1 Sc1 2.578263 1_555
P1 Sc0 2.578263 1_555
P2 Sc0 2.578263 1_655
P2 Sc1 2.578263 1_655
P3 Sc0 2.578248 1_555
P3 Sc1 2.578256 1_544
