# generated using pymatgen
data_Mg4As6Ir4Ru3
_symmetry_space_group_name_H-M   'P 1'
_cell_length_a   7.00383595
_cell_length_b   7.00758131
_cell_length_c   7.00758119
_cell_angle_alpha   109.40946392
_cell_angle_beta   109.51295971
_cell_angle_gamma   109.51295249
_symmetry_Int_Tables_number   1
_chemical_formula_structural   Mg4As6Ir4Ru3
_chemical_formula_sum   'Mg4 As6 Ir4 Ru3'
_cell_volume   264.68758162
_cell_formula_units_Z   1
loop_
 _symmetry_equiv_pos_site_id
 _symmetry_equiv_pos_as_xyz
  1  'x, y, z'
loop_
 _atom_site_type_symbol
 _atom_site_label
 _atom_site_symmetry_multiplicity
 _atom_site_fract_x
 _atom_site_fract_y
 _atom_site_fract_z
 _atom_site_occupancy
  Mg  Mg0  1  0.00000000  0.99824777  0.49908449  1
  Mg  Mg1  1  0.50000000  0.00052933  0.99947067  1
  Mg  Mg2  1  1.00000000  0.50091551  0.00175223  1
  Mg  Mg3  1  0.50000000  0.50052933  0.49947067  1
  As  As0  1  0.68505705  0.68925886  0.99579820  1
  As  As1  1  0.30661017  0.31048373  0.99612644  1
  As  As2  1  0.00000000  0.68416055  0.69173371  1
  As  As3  1  1.00000000  0.30826629  0.31583945  1
  As  As4  1  0.69338983  0.00387356  0.68951627  1
  As  As5  1  0.31494295  0.00420180  0.31074114  1
  Ir  Ir0  1  0.50000000  0.24955271  0.75044729  1
  Ir  Ir1  1  0.50000000  0.74955271  0.25044729  1
  Ir  Ir2  1  0.75001451  0.50045544  0.24955907  1
  Ir  Ir3  1  0.24998549  0.75044093  0.49954456  1
  Ru  Ru0  1  0.00000000  0.99983312  0.00016688  1
  Ru  Ru1  1  0.25136578  0.50053258  0.75083420  1
  Ru  Ru2  1  0.74863422  0.24916580  0.49946742  1
loop_
_geom_bond_atom_site_label_1
_geom_bond_atom_site_label_2
_geom_bond_distance
_geom_bond_site_symmetry_2
Mg0 Ru2 2.873876 1_465
Mg0 Ru1 2.873882 1_565
Mg1 Ru2 2.860814 1_556
Mg1 Ru1 2.860814 1_545
Mg2 Ru1 2.873876 1_654
Mg2 Ru2 2.873882 1_554
Mg3 Ru2 2.860820 1_555
Mg3 Ru1 2.860820 1_555
As0 Ru1 2.499285 1_555
As0 Ru0 2.511315 1_656
As0 Ir1 2.540193 1_556
As0 Ir0 2.540193 1_555
As0 Ir2 2.558316 1_556
As0 Mg1 2.883062 1_565
As0 Mg3 2.883062 1_555
As0 Mg2 2.920491 1_556
As0 Mg0 2.920491 1_656
As1 Ru1 2.509863 1_555
As1 Ru0 2.511951 1_546
As1 Ir0 2.537013 1_555
As1 Ir1 2.537013 1_556
As1 Ir2 2.559873 1_556
As1 Mg2 2.886152 1_456
As1 Mg0 2.886152 1_545
As1 Mg1 2.920757 1_555
As1 Mg3 2.920758 1_556
As2 Ru1 2.511434 1_555
As2 Ru2 2.511439 1_455
As2 Ru0 2.527288 1_556
As2 Ir3 2.557889 1_555
As2 Ir2 2.557889 1_455
As2 Mg2 2.867528 1_456
As2 Mg3 2.901714 1_455
As2 Mg1 2.901714 1_565
As2 Mg0 2.939683 1_555
As3 Ru2 2.511434 1_555
As3 Ru1 2.511439 1_655
As3 Ru0 2.527288 1_645
As3 Ir2 2.557888 1_555
As3 Ir3 2.557889 1_655
As3 Mg0 2.867528 1_645
As3 Mg3 2.901714 1_655
As3 Mg1 2.901714 1_554
As3 Mg2 2.939683 1_555
As4 Ru2 2.509863 1_555
As4 Ru0 2.511951 1_646
As4 Ir0 2.537013 1_555
As4 Ir1 2.537013 1_545
As4 Ir3 2.559873 1_545
As4 Mg0 2.886152 1_645
As4 Mg2 2.886152 1_556
As4 Mg1 2.920758 1_555
As4 Mg3 2.920758 1_545
As5 Ru2 2.499285 1_555
As5 Ru0 2.511315 1_545
As5 Ir1 2.540193 1_545
As5 Ir0 2.540193 1_555
As5 Ir3 2.558316 1_545
As5 Mg1 2.883062 1_554
As5 Mg3 2.883062 1_555
As5 Mg0 2.920491 1_545
As5 Mg2 2.920491 1_445
Ir0 Mg1 2.848571 1_555
Ir0 Mg0 2.857468 1_545
Ir0 Mg2 2.857468 1_556
Ir0 Mg3 2.870914 1_555
Ir1 Mg3 2.848571 1_555
Ir1 Mg2 2.857468 1_455
Ir1 Mg0 2.857468 1_655
Ir1 Mg1 2.870914 1_564
Ir2 Mg2 2.848175 1_555
Ir2 Mg0 2.848176 1_655
Ir2 Mg3 2.860383 1_555
Ir2 Mg1 2.860383 1_554
Ir3 Mg0 2.848175 1_555
Ir3 Mg2 2.848175 1_455
Ir3 Mg3 2.860383 1_555
Ir3 Mg1 2.860383 1_565
