# generated using pymatgen
data_CsRb5(InTe3)2
_symmetry_space_group_name_H-M   'P 1'
_cell_length_a   14.88120194
_cell_length_b   9.14860206
_cell_length_c   11.75537442
_cell_angle_alpha   52.83890833
_cell_angle_beta   89.38863013
_cell_angle_gamma   89.85903146
_symmetry_Int_Tables_number   1
_chemical_formula_structural   CsRb5(InTe3)2
_chemical_formula_sum   'Cs2 Rb10 In4 Te12'
_cell_volume   1275.33668066
_cell_formula_units_Z   2
loop_
 _symmetry_equiv_pos_site_id
 _symmetry_equiv_pos_as_xyz
  1  'x, y, z'
loop_
 _atom_site_type_symbol
 _atom_site_label
 _atom_site_symmetry_multiplicity
 _atom_site_fract_x
 _atom_site_fract_y
 _atom_site_fract_z
 _atom_site_occupancy
  Cs  Cs0  1  0.31427361  0.15717682  0.06791552  1
  Cs  Cs1  1  0.68572639  0.84282318  0.93208448  1
  Rb  Rb0  1  0.81569150  0.85069107  0.43856552  1
  Rb  Rb1  1  0.89777126  0.32272475  0.40149550  1
  Rb  Rb2  1  0.61285044  0.35960155  0.47059979  1
  Rb  Rb3  1  0.10692120  0.64673515  0.02461421  1
  Rb  Rb4  1  0.38714956  0.64039845  0.52940021  1
  Rb  Rb5  1  0.89307880  0.35326485  0.97538579  1
  Rb  Rb6  1  0.61273133  0.30848252  0.90762148  1
  Rb  Rb7  1  0.10222874  0.67727525  0.59850450  1
  Rb  Rb8  1  0.38726867  0.69151748  0.09237852  1
  Rb  Rb9  1  0.18430850  0.14930893  0.56143448  1
  In  In0  1  0.06735436  0.94144048  0.16476040  1
  In  In1  1  0.56830784  0.04879702  0.33838886  1
  In  In2  1  0.43169216  0.95120298  0.66161114  1
  In  In3  1  0.93264564  0.05855952  0.83523960  1
  Te  Te0  1  0.40292196  0.19171527  0.35882395  1
  Te  Te1  1  0.89593863  0.82590369  0.13965219  1
  Te  Te2  1  0.59707804  0.80828473  0.64117605  1
  Te  Te3  1  0.10406137  0.17409631  0.86034781  1
  Te  Te4  1  0.70336040  0.31347539  0.20086061  1
  Te  Te5  1  0.19237636  0.65992071  0.31115034  1
  Te  Te6  1  0.29663960  0.68652461  0.79913939  1
  Te  Te7  1  0.80762364  0.34007929  0.68884966  1
  Te  Te8  1  0.54896633  0.85292117  0.23108751  1
  Te  Te9  1  0.05680954  0.14423452  0.26804849  1
  Te  Te10  1  0.45103367  0.14707883  0.76891249  1
  Te  Te11  1  0.94319046  0.85576548  0.73195151  1
loop_
_geom_bond_atom_site_label_1
_geom_bond_atom_site_label_2
_geom_bond_distance
_geom_bond_site_symmetry_2
Cs0 Te0 3.865034 1_555
Cs0 Te6 3.876888 1_554
Cs0 Te3 3.932893 1_554
Cs0 In0 3.990611 1_545
Cs0 Te5 4.046806 1_545
Cs0 Te10 4.091891 1_554
Cs0 Te8 4.155674 1_545
Cs0 Te9 4.438659 1_555
Cs1 Te2 3.865034 1_555
Cs1 Te4 3.876888 1_556
Cs1 Te1 3.932893 1_556
Cs1 In3 3.990611 1_565
Cs1 Te7 4.046806 1_565
Cs1 Te8 4.091891 1_556
Cs1 Te10 4.155674 1_565
Cs1 Te11 4.438659 1_555
Rb0 Te7 3.726054 1_555
Rb0 Te4 3.781518 1_565
Rb0 Te1 3.833578 1_555
Rb0 Te2 3.889903 1_555
Rb0 Te11 3.978719 1_555
Rb0 Te9 4.182720 1_665
Rb1 Te1 3.680914 1_555
Rb1 Te9 3.704730 1_655
Rb1 Te7 3.712898 1_555
Rb1 Te11 3.713521 1_545
Rb1 Te4 3.785186 1_555
Rb2 Te10 3.671786 1_555
Rb2 Te4 3.683658 1_555
Rb2 Te8 3.726164 1_555
Rb2 Te7 3.823333 1_555
Rb2 Te0 4.048981 1_555
Rb2 Te2 4.158461 1_545
Rb3 Te5 3.682454 1_555
Rb3 Te11 3.692871 1_454
Rb3 Te6 3.715948 1_554
Rb3 Te9 3.735924 1_555
Rb3 Te3 3.969006 1_564
Rb3 Te1 4.115230 1_455
Rb4 Te8 3.671786 1_555
Rb4 Te6 3.683658 1_555
Rb4 Te10 3.726164 1_555
Rb4 Te5 3.823333 1_555
Rb4 Te2 4.048981 1_555
Rb4 Te0 4.158461 1_565
Rb5 Te7 3.682454 1_555
Rb5 Te9 3.692871 1_656
Rb5 Te4 3.715948 1_556
Rb5 Te11 3.735924 1_555
Rb5 Te1 3.969006 1_546
Rb5 Te3 4.115230 1_655
Rb6 Te2 3.671557 1_555
Rb6 Te8 3.677752 1_546
Rb6 Te10 3.693141 1_555
Rb6 Te4 3.740786 1_556
Rb6 Te7 3.749081 1_555
Rb7 Te3 3.680914 1_555
Rb7 Te11 3.704730 1_455
Rb7 Te5 3.712898 1_555
Rb7 Te9 3.713521 1_565
Rb7 Te6 3.785186 1_555
Rb8 Te0 3.671557 1_555
Rb8 Te10 3.677752 1_564
Rb8 Te8 3.693141 1_555
Rb8 Te6 3.740786 1_554
Rb8 Te5 3.749081 1_555
Rb9 Te5 3.726054 1_555
Rb9 Te6 3.781518 1_545
Rb9 Te3 3.833578 1_555
Rb9 Te0 3.889903 1_555
Rb9 Te9 3.978719 1_555
Rb9 Te11 4.182720 1_445
In0 Te9 2.767117 1_565
In0 Te5 2.783211 1_555
In0 Te1 2.849133 1_455
In0 Te3 2.897666 1_564
In0 Rb3 3.958250 1_555
In0 Rb5 3.977295 1_464
In1 Te8 2.761554 1_545
In1 Te4 2.782319 1_555
In1 Te0 2.859281 1_555
In1 Te2 2.874034 1_545
In1 Rb0 3.962979 1_545
In2 Te10 2.761554 1_565
In2 Te6 2.782319 1_555
In2 Te2 2.859281 1_555
In2 Te0 2.874034 1_565
In2 Rb9 3.962979 1_565
In3 Te11 2.767117 1_545
In3 Te7 2.783211 1_555
In3 Te3 2.849133 1_655
In3 Te1 2.897666 1_546
In3 Rb5 3.958250 1_555
In3 Rb3 3.977295 1_646
