# generated using pymatgen
data_LuZn2InNi2
_symmetry_space_group_name_H-M   'P 1'
_cell_length_a   5.02349714
_cell_length_b   5.02349738
_cell_length_c   5.02827038
_cell_angle_alpha   59.96855850
_cell_angle_beta   59.96855687
_cell_angle_gamma   61.90297127
_symmetry_Int_Tables_number   1
_chemical_formula_structural   LuZn2InNi2
_chemical_formula_sum   'Lu1 Zn2 In1 Ni2'
_cell_volume   90.89960552
_cell_formula_units_Z   1
loop_
 _symmetry_equiv_pos_site_id
 _symmetry_equiv_pos_as_xyz
  1  'x, y, z'
loop_
 _atom_site_type_symbol
 _atom_site_label
 _atom_site_symmetry_multiplicity
 _atom_site_fract_x
 _atom_site_fract_y
 _atom_site_fract_z
 _atom_site_occupancy
  Lu  Lu0  1  0.24344760  0.24344760  0.25655240  1
  Zn  Zn0  1  0.62699560  0.62699560  0.62216115  1
  Zn  Zn1  1  0.62699560  0.62699560  0.12384765  1
  In  In0  1  0.00170908  0.00170908  0.99829092  1
  Ni  Ni0  1  0.62554456  0.12530856  0.62457394  1
  Ni  Ni1  1  0.12530856  0.62554456  0.62457394  1
loop_
_geom_bond_atom_site_label_1
_geom_bond_atom_site_label_2
_geom_bond_distance
_geom_bond_site_symmetry_2
Lu0 Ni0 2.880631 1_455
Lu0 Ni1 2.880631 1_545
Lu0 Zn0 2.965302 1_554
Lu0 Zn1 2.965302 1_555
Lu0 Ni0 2.973888 1_554
Lu0 Ni1 2.973888 1_554
Lu0 Ni0 2.973893 1_555
Lu0 Ni1 2.973893 1_555
Lu0 Zn0 2.984748 1_455
Lu0 Zn1 2.984748 1_455
Lu0 Zn0 2.984748 1_545
Lu0 Zn1 2.984748 1_545
Zn0 Zn1 2.505655 1_555
Zn0 Zn1 2.522615 1_556
In0 Zn0 2.905811 1_446
In0 Zn1 2.905811 1_446
In0 Ni0 2.916855 1_555
In0 Ni1 2.916855 1_555
In0 Ni0 2.961222 1_455
In0 Ni1 2.961222 1_545
In0 Ni0 2.961226 1_456
In0 Ni1 2.961226 1_546
In0 Zn0 3.005760 1_545
In0 Zn1 3.005760 1_546
In0 Zn0 3.005760 1_455
In0 Zn1 3.005760 1_456
In0 Lu0 3.030155 1_555
In0 Lu0 3.030156 1_556
In0 Lu0 3.152880 1_456
In0 Lu0 3.152880 1_546
Ni0 Zn1 2.505931 1_546
Ni0 Zn0 2.505934 1_545
Ni0 Zn0 2.517606 1_555
Ni0 Zn1 2.517608 1_555
Ni0 Ni1 2.582426 1_645
Ni0 Ni1 2.584865 1_555
Ni1 Zn1 2.505931 1_456
Ni1 Zn0 2.505933 1_455
Ni1 Zn0 2.517605 1_555
Ni1 Zn1 2.517608 1_555
