# generated using pymatgen
data_Hf4NbSn3P
_symmetry_space_group_name_H-M   'P 1'
_cell_length_a   8.44507221
_cell_length_b   8.44507180
_cell_length_c   5.79422526
_cell_angle_alpha   90.00000000
_cell_angle_beta   90.00000000
_cell_angle_gamma   119.99999002
_symmetry_Int_Tables_number   1
_chemical_formula_structural   Hf4NbSn3P
_chemical_formula_sum   'Hf8 Nb2 Sn6 P2'
_cell_volume   357.87615629
_cell_formula_units_Z   2
loop_
 _symmetry_equiv_pos_site_id
 _symmetry_equiv_pos_as_xyz
  1  'x, y, z'
loop_
 _atom_site_type_symbol
 _atom_site_label
 _atom_site_symmetry_multiplicity
 _atom_site_fract_x
 _atom_site_fract_y
 _atom_site_fract_z
 _atom_site_occupancy
  Hf  Hf0  1  0.33333300  0.66666700  0.50000000  1
  Hf  Hf1  1  0.66666700  0.33333300  0.50000000  1
  Hf  Hf2  1  0.74753251  0.74753251  0.74924751  1
  Hf  Hf3  1  0.25246749  0.00000000  0.74924751  1
  Hf  Hf4  1  0.00000000  0.25246749  0.74924751  1
  Hf  Hf5  1  0.25246749  0.25246749  0.25075249  1
  Hf  Hf6  1  0.74753251  1.00000000  0.25075249  1
  Hf  Hf7  1  1.00000000  0.74753251  0.25075249  1
  Nb  Nb0  1  0.66666700  0.33333300  0.00000000  1
  Nb  Nb1  1  0.33333300  0.66666700  0.00000000  1
  Sn  Sn0  1  0.40014869  0.40014869  0.75496874  1
  Sn  Sn1  1  0.59985131  0.00000000  0.75496874  1
  Sn  Sn2  1  0.00000000  0.59985131  0.75496874  1
  Sn  Sn3  1  0.59985131  0.59985131  0.24503126  1
  Sn  Sn4  1  0.40014869  1.00000000  0.24503126  1
  Sn  Sn5  1  1.00000000  0.40014869  0.24503126  1
  P  P0  1  0.00000000  0.00000000  0.00000000  1
  P  P1  1  0.00000000  0.00000000  0.50000000  1
loop_
_geom_bond_atom_site_label_1
_geom_bond_atom_site_label_2
_geom_bond_distance
_geom_bond_site_symmetry_2
Hf0 Nb1 2.897113 1_556
Hf0 Nb1 2.897113 1_555
Hf0 Sn4 2.972688 1_555
Hf0 Sn2 2.972689 1_555
Hf0 Sn1 2.972691 1_565
Hf0 Sn5 2.972691 1_455
Hf0 Sn0 2.972695 1_555
Hf0 Sn3 2.972696 1_555
Hf1 Nb0 2.897113 1_555
Hf1 Nb0 2.897113 1_556
Hf1 Sn1 2.972688 1_555
Hf1 Sn5 2.972689 1_555
Hf1 Sn4 2.972691 1_545
Hf1 Sn2 2.972691 1_655
Hf1 Sn3 2.972695 1_555
Hf1 Sn0 2.972696 1_555
Hf2 P1 2.575186 1_665
Hf2 P0 2.580086 1_666
Hf2 Sn0 2.933869 1_555
Hf2 Sn1 2.959991 1_565
Hf2 Sn2 2.959991 1_655
Hf2 Sn3 3.131734 1_556
Hf2 Sn3 3.176612 1_555
Hf3 P1 2.575185 1_555
Hf3 P0 2.580086 1_556
Hf3 Sn1 2.933869 1_555
Hf3 Sn0 2.959991 1_555
Hf3 Sn2 2.959991 1_545
Hf3 Sn4 3.131734 1_546
Hf3 Sn4 3.176612 1_545
Hf4 P1 2.575185 1_555
Hf4 P0 2.580086 1_556
Hf4 Sn2 2.933869 1_555
Hf4 Sn0 2.959991 1_555
Hf4 Sn1 2.959991 1_455
Hf4 Sn5 3.131734 1_456
Hf4 Sn5 3.176612 1_455
Hf5 P1 2.575186 1_555
Hf5 P0 2.580086 1_555
Hf5 Sn3 2.933869 1_555
Hf5 Sn4 2.959991 1_545
Hf5 Sn5 2.959991 1_455
Hf5 Sn0 3.131734 1_554
Hf5 Sn0 3.176612 1_555
Hf6 P1 2.575185 1_665
Hf6 P0 2.580086 1_665
Hf6 Sn4 2.933869 1_555
Hf6 Sn3 2.959991 1_555
Hf6 Sn5 2.959991 1_565
Hf6 Sn1 3.131734 1_564
Hf6 Sn1 3.176612 1_565
Hf7 P1 2.575185 1_665
Hf7 P0 2.580086 1_665
Hf7 Sn5 2.933869 1_555
Hf7 Sn3 2.959991 1_555
Hf7 Sn4 2.959991 1_655
Hf7 Sn2 3.131734 1_654
Hf7 Sn2 3.176612 1_655
Nb0 Sn1 2.944497 1_554
Nb0 Sn5 2.944497 1_555
Nb0 Sn4 2.944499 1_545
Nb0 Sn2 2.944499 1_654
Nb0 Sn3 2.944504 1_555
Nb0 Sn0 2.944504 1_554
Nb1 Sn4 2.944497 1_555
Nb1 Sn2 2.944497 1_554
Nb1 Sn1 2.944499 1_564
Nb1 Sn5 2.944499 1_455
Nb1 Sn0 2.944504 1_554
Nb1 Sn3 2.944504 1_555
