# generated using pymatgen
data_V10GaB4Se
_symmetry_space_group_name_H-M   'P 1'
_cell_length_a   6.78197471
_cell_length_b   6.78197460
_cell_length_c   6.78197498
_cell_angle_alpha   129.54556558
_cell_angle_beta   129.54556904
_cell_angle_gamma   74.13430793
_symmetry_Int_Tables_number   1
_chemical_formula_structural   V10GaB4Se
_chemical_formula_sum   'V10 Ga1 B4 Se1'
_cell_volume   180.85828553
_cell_formula_units_Z   1
loop_
 _symmetry_equiv_pos_site_id
 _symmetry_equiv_pos_as_xyz
  1  'x, y, z'
loop_
 _atom_site_type_symbol
 _atom_site_label
 _atom_site_symmetry_multiplicity
 _atom_site_fract_x
 _atom_site_fract_y
 _atom_site_fract_z
 _atom_site_occupancy
  V  V0  1  0.53095320  0.69603927  0.49787002  1
  V  V1  1  0.03308418  0.53095320  0.83491393  1
  V  V2  1  0.69603927  0.19816925  0.16508607  1
  V  V3  1  0.96904680  0.46691582  0.16508607  1
  V  V4  1  0.19816925  0.03308418  0.50212998  1
  V  V5  1  0.46691582  0.30183075  0.49787002  1
  V  V6  1  0.80396073  0.96904680  0.50212998  1
  V  V7  1  0.30183075  0.80396073  0.83491393  1
  V  V8  1  0.99813846  0.99813846  1.00000000  1
  V  V9  1  0.50186154  0.50186154  0.00000000  1
  Ga  Ga0  1  0.75000000  0.75000000  0.00000000  1
  B  B0  1  0.61621256  0.11621256  0.73242612  1
  B  B1  1  0.11621256  0.38378744  0.50000000  1
  B  B2  1  0.88378744  0.61621256  0.50000000  1
  B  B3  1  0.38378744  0.88378744  0.26757388  1
  Se  Se0  1  0.25000000  0.25000000  0.00000000  1
loop_
_geom_bond_atom_site_label_1
_geom_bond_atom_site_label_2
_geom_bond_distance
_geom_bond_site_symmetry_2
V0 V8 2.599767 1_555
V0 V9 2.608781 1_555
V1 V8 2.599767 1_455
V1 V9 2.608775 1_556
V2 V8 2.599767 1_544
V2 V9 2.608781 1_555
V3 V9 2.599767 1_555
V3 V8 2.608775 1_544
V4 V8 2.599763 1_444
V4 V9 2.608777 1_556
V5 V9 2.599763 1_556
V5 V8 2.608777 1_444
V6 V9 2.599767 1_555
V6 V8 2.608781 1_555
V7 V9 2.599767 1_556
V7 V8 2.608781 1_455
Ga0 V7 2.491196 1_554
Ga0 V2 2.491196 1_565
Ga0 V0 2.491196 1_554
Ga0 V6 2.491196 1_555
Ga0 V4 2.491197 1_665
Ga0 V5 2.491197 1_554
Ga0 V3 2.491202 1_555
Ga0 V1 2.491202 1_654
Ga0 V8 2.685622 1_554
Ga0 V9 2.685622 1_555
B0 B3 1.900241 1_545
B0 V4 2.215708 1_555
B0 V6 2.215716 1_545
B0 V0 2.223164 1_545
B0 V5 2.223170 1_555
B0 V2 2.297155 1_556
B0 V3 2.297158 1_556
B0 V8 2.318277 1_545
B0 V9 2.318278 1_556
B1 B2 1.900233 1_455
B1 V3 2.215706 1_455
B1 V1 2.215706 1_555
B1 V2 2.223165 1_455
B1 V7 2.223166 1_555
B1 V4 2.297155 1_555
B1 V5 2.297155 1_555
B1 V9 2.318279 1_556
B1 V8 2.318279 1_444
B2 V7 2.215711 1_655
B2 V2 2.215711 1_555
B2 V1 2.223164 1_655
B2 V3 2.223164 1_555
B2 V6 2.297162 1_555
B2 V0 2.297162 1_555
B2 V9 2.318279 1_555
B2 V8 2.318279 1_555
B3 V5 2.215708 1_565
B3 V0 2.215716 1_555
B3 V6 2.223164 1_555
B3 V4 2.223170 1_565
B3 V7 2.297155 1_554
B3 V1 2.297158 1_554
B3 V8 2.318277 1_454
B3 V9 2.318278 1_555
Se0 V1 2.476867 1_554
Se0 V3 2.476867 1_455
Se0 V6 2.476867 1_444
Se0 V0 2.476867 1_555
Se0 V2 2.476867 1_555
Se0 V7 2.476867 1_544
Se0 V5 2.476869 1_555
Se0 V4 2.476869 1_554
Se0 V9 2.725917 1_555
Se0 V8 2.725917 1_444
