# generated using pymatgen
data_Cs2MnSnSe4
_symmetry_space_group_name_H-M   'P 1'
_cell_length_a   14.52768790
_cell_length_b   12.93300319
_cell_length_c   8.01992155
_cell_angle_alpha   84.32087247
_cell_angle_beta   62.35776918
_cell_angle_gamma   33.32136009
_symmetry_Int_Tables_number   1
_chemical_formula_structural   Cs2MnSnSe4
_chemical_formula_sum   'Cs4 Mn2 Sn2 Se8'
_cell_volume   590.27572159
_cell_formula_units_Z   2
loop_
 _symmetry_equiv_pos_site_id
 _symmetry_equiv_pos_as_xyz
  1  'x, y, z'
loop_
 _atom_site_type_symbol
 _atom_site_label
 _atom_site_symmetry_multiplicity
 _atom_site_fract_x
 _atom_site_fract_y
 _atom_site_fract_z
 _atom_site_occupancy
  Cs  Cs0  1  0.81854440  0.81854440  0.18145560  1
  Cs  Cs1  1  0.18145560  0.18145560  0.81854440  1
  Cs  Cs2  1  0.43145560  0.43145560  0.06854440  1
  Cs  Cs3  1  0.06854440  0.06854440  0.43145560  1
  Mn  Mn0  1  0.75000000  0.75000000  0.75000000  1
  Mn  Mn1  1  0.50000000  0.50000000  0.50000000  1
  Sn  Sn0  1  0.25000000  0.25000000  0.25000000  1
  Sn  Sn1  1  0.00000000  0.00000000  0.00000000  1
  Se  Se0  1  0.39696377  0.71559899  0.79413068  1
  Se  Se1  1  0.09330655  0.79413068  0.71559899  1
  Se  Se2  1  0.79413068  0.09330655  0.39696377  1
  Se  Se3  1  0.71559899  0.39696377  0.09330655  1
  Se  Se4  1  0.85303623  0.53440101  0.45586932  1
  Se  Se5  1  0.15669345  0.45586932  0.53440101  1
  Se  Se6  1  0.45586932  0.15669345  0.85303623  1
  Se  Se7  1  0.53440101  0.85303623  0.15669345  1
loop_
_geom_bond_atom_site_label_1
_geom_bond_atom_site_label_2
_geom_bond_distance
_geom_bond_site_symmetry_2
Cs0 Se2 3.778998 1_565
Cs0 Se1 3.778998 1_654
Cs0 Se4 3.865764 1_555
Cs0 Se7 3.865764 1_555
Cs0 Se6 3.913793 1_654
Cs0 Se5 3.913793 1_565
Cs0 Se5 3.964497 1_654
Cs0 Se6 3.964497 1_565
Cs1 Se0 3.778998 1_545
Cs1 Se3 3.778998 1_456
Cs1 Se5 3.865764 1_555
Cs1 Se6 3.865764 1_555
Cs1 Se4 3.913793 1_456
Cs1 Se7 3.913793 1_545
Cs1 Se7 3.964498 1_456
Cs1 Se4 3.964498 1_545
Cs2 Se6 3.778998 1_554
Cs2 Se5 3.778998 1_555
Cs2 Se0 3.865764 1_554
Cs2 Se3 3.865764 1_555
Cs2 Se2 3.913793 1_465
Cs2 Se1 3.913793 1_644
Cs2 Se1 3.964497 1_555
Cs2 Se2 3.964497 1_554
Cs3 Se4 3.778998 1_455
Cs3 Se7 3.778998 1_545
Cs3 Se1 3.865764 1_545
Cs3 Se2 3.865764 1_455
Cs3 Se0 3.913793 1_544
Cs3 Se3 3.913793 1_456
Cs3 Se3 3.964498 1_545
Cs3 Se0 3.964498 1_455
Mn0 Se4 2.574880 1_555
Mn0 Se7 2.574880 1_556
Mn0 Se6 2.574880 1_565
Mn0 Se5 2.574880 1_655
Mn1 Se0 2.574880 1_555
Mn1 Se3 2.574880 1_555
Mn1 Se2 2.574880 1_555
Mn1 Se1 2.574880 1_555
Se0 Sn1 2.535799 1_566
Se1 Sn1 2.535799 1_566
Se2 Sn1 2.535799 1_655
Se3 Sn1 2.535799 1_655
Se4 Sn0 2.535799 1_655
Se5 Sn0 2.535799 1_555
Se6 Sn0 2.535799 1_556
Se7 Sn0 2.535799 1_565
