# generated using pymatgen
data_Pr6Fe13Ag
_symmetry_space_group_name_H-M   'P 1'
_cell_length_a   13.04773110
_cell_length_b   13.04773110
_cell_length_c   13.04773110
_cell_angle_alpha   143.94720864
_cell_angle_beta   143.94720864
_cell_angle_gamma   51.90624118
_symmetry_Int_Tables_number   1
_chemical_formula_structural   Pr6Fe13Ag
_chemical_formula_sum   'Pr12 Fe26 Ag2'
_cell_volume   765.05667022
_cell_formula_units_Z   2
loop_
 _symmetry_equiv_pos_site_id
 _symmetry_equiv_pos_as_xyz
  1  'x, y, z'
loop_
 _atom_site_type_symbol
 _atom_site_label
 _atom_site_symmetry_multiplicity
 _atom_site_fract_x
 _atom_site_fract_y
 _atom_site_fract_z
 _atom_site_occupancy
  Pr  Pr0  1  0.34721900  0.84721900  0.82552400  1
  Pr  Pr1  1  0.47830500  0.65278100  0.50000000  1
  Pr  Pr2  1  0.15278100  0.97830500  0.50000000  1
  Pr  Pr3  1  0.97830500  0.47830500  0.82552400  1
  Pr  Pr4  1  0.65278100  0.15278100  0.17447600  1
  Pr  Pr5  1  0.52169500  0.34721900  0.50000000  1
  Pr  Pr6  1  0.02169500  0.52169500  0.17447600  1
  Pr  Pr7  1  0.84721900  0.02169500  0.50000000  1
  Pr  Pr8  1  0.10513000  0.10513000  0.00000000  1
  Pr  Pr9  1  0.39487000  0.39487000  0.00000000  1
  Pr  Pr10  1  0.89487000  0.89487000  0.00000000  1
  Pr  Pr11  1  0.60513000  0.60513000  0.00000000  1
  Fe  Fe0  1  0.20999300  0.93347900  0.14347200  1
  Fe  Fe1  1  0.12047100  0.62047100  0.85731400  1
  Fe  Fe2  1  0.20700800  0.47964000  0.50000000  1
  Fe  Fe3  1  0.79299200  0.52036000  0.50000000  1
  Fe  Fe4  1  0.02036000  0.29299200  0.50000000  1
  Fe  Fe5  1  0.29299200  0.79299200  0.27263200  1
  Fe  Fe6  1  0.52036000  0.02036000  0.72736800  1
  Fe  Fe7  1  0.47964000  0.97964000  0.27263200  1
  Fe  Fe8  1  0.70700800  0.20700800  0.72736800  1
  Fe  Fe9  1  0.97964000  0.70700800  0.50000000  1
  Fe  Fe10  1  0.37952900  0.23684200  0.50000000  1
  Fe  Fe11  1  0.62047100  0.76315800  0.50000000  1
  Fe  Fe12  1  0.50000000  0.00000000  0.50000000  1
  Fe  Fe13  1  0.76315800  0.26315800  0.14268600  1
  Fe  Fe14  1  0.56652100  0.29000700  0.85652800  1
  Fe  Fe15  1  0.29000700  0.43347900  0.72348600  1
  Fe  Fe16  1  0.70999300  0.56652100  0.27651400  1
  Fe  Fe17  1  0.93347900  0.79000700  0.72348600  1
  Fe  Fe18  1  0.06652100  0.20999300  0.27651400  1
  Fe  Fe19  1  0.79000700  0.06652100  0.85652800  1
  Fe  Fe20  1  0.00000000  0.50000000  0.50000000  1
  Fe  Fe21  1  0.43347900  0.70999300  0.14347200  1
  Fe  Fe22  1  0.73684200  0.87952900  0.50000000  1
  Fe  Fe23  1  0.87952900  0.37952900  0.14268600  1
  Fe  Fe24  1  0.23684200  0.73684200  0.85731400  1
  Fe  Fe25  1  0.26315800  0.12047100  0.50000000  1
  Ag  Ag0  1  0.75000000  0.75000000  0.00000000  1
  Ag  Ag1  1  0.25000000  0.25000000  0.00000000  1
loop_
_geom_bond_atom_site_label_1
_geom_bond_atom_site_label_2
_geom_bond_distance
_geom_bond_site_symmetry_2
Fe0 Fe12 2.402734 1_565
Fe0 Fe24 2.482416 1_554
Fe0 Fe1 2.482429 1_554
Fe0 Fe18 2.515634 1_565
Fe0 Fe17 2.515634 1_454
Fe0 Fe21 2.552278 1_555
Fe0 Fe25 2.567581 1_565
Fe0 Fe10 2.567581 1_565
Fe0 Fe5 2.639586 1_555
Fe0 Fe7 2.639586 1_555
Fe0 Pr10 3.041226 1_455
Fe0 Pr8 3.041226 1_565
Fe1 Fe20 2.454963 1_555
Fe1 Fe21 2.482429 1_556
Fe1 Fe5 2.510757 1_556
Fe1 Fe4 2.555043 1_555
Fe1 Fe3 2.555043 1_455
Fe1 Fe15 2.567589 1_555
Fe1 Fe17 2.567589 1_455
Fe1 Fe24 2.730506 1_555
Fe1 Pr3 2.968353 1_455
Fe1 Pr10 3.166790 1_456
Fe1 Pr9 3.166790 1_556
Fe2 Fe20 2.545690 1_555
Fe2 Fe23 2.555043 1_455
Fe2 Fe24 2.555050 1_555
Fe2 Fe9 2.596612 1_455
Fe2 Pr0 3.116592 1_555
Fe2 Pr6 3.116592 1_555
Fe2 Pr8 3.263698 1_555
Fe2 Pr11 3.263698 1_556
Fe2 Pr5 3.330244 1_555
Fe3 Fe4 2.596612 1_655
Fe3 Pr3 3.116592 1_555
Fe3 Pr4 3.116592 1_555
Fe3 Pr9 3.263698 1_555
Fe3 Pr10 3.263698 1_556
Fe3 Pr1 3.330244 1_555
Fe4 Pr3 3.116592 1_455
Fe4 Pr4 3.116592 1_455
Fe4 Pr10 3.263698 1_445
Fe4 Pr9 3.263698 1_556
Fe4 Pr2 3.330244 1_545
Fe5 Fe6 2.596612 1_565
Fe5 Pr1 3.116592 1_555
Fe5 Pr2 3.116592 1_555
Fe5 Pr9 3.263698 1_555
Fe5 Pr10 3.263698 1_455
Fe5 Pr3 3.330244 1_454
Fe6 Pr2 3.116592 1_545
Fe6 Pr1 3.116592 1_545
Fe6 Pr10 3.263698 1_546
Fe6 Pr9 3.263698 1_556
Fe6 Pr4 3.330244 1_556
Fe7 Fe8 2.596612 1_565
Fe7 Pr7 3.116592 1_565
Fe7 Pr5 3.116592 1_565
Fe7 Pr8 3.263698 1_565
Fe7 Pr11 3.263698 1_555
Fe7 Pr0 3.330244 1_554
Fe8 Pr7 3.116592 1_555
Fe8 Pr5 3.116592 1_555
Fe8 Pr8 3.263698 1_656
Fe8 Pr11 3.263698 1_556
Fe8 Pr6 3.330244 1_656
Fe9 Pr0 3.116592 1_655
Fe9 Pr6 3.116592 1_655
Fe9 Pr8 3.263698 1_666
Fe9 Pr11 3.263698 1_555
Fe9 Pr7 3.330244 1_565
Fe10 Fe12 2.454951 1_555
Fe10 Fe18 2.482426 1_555
Fe10 Fe15 2.482426 1_555
Fe10 Fe2 2.510766 1_555
Fe10 Fe8 2.555042 1_555
Fe10 Fe7 2.555042 1_545
Fe10 Fe14 2.567581 1_555
Fe10 Fe25 2.730506 1_555
Fe10 Pr5 2.968364 1_555
Fe10 Pr8 3.166795 1_555
Fe10 Pr11 3.166795 1_556
Fe11 Fe12 2.454951 1_565
Fe11 Fe16 2.482426 1_555
Fe11 Fe17 2.482426 1_555
Fe11 Fe3 2.510766 1_555
Fe11 Fe5 2.555042 1_555
Fe11 Fe6 2.555042 1_565
Fe11 Fe21 2.567581 1_555
Fe11 Fe19 2.567581 1_565
Fe11 Fe22 2.730506 1_555
Fe11 Pr1 2.968364 1_555
Fe11 Pr9 3.166795 1_555
Fe11 Pr10 3.166795 1_556
Fe12 Fe19 2.402734 1_555
Fe12 Fe14 2.402734 1_555
Fe12 Fe21 2.402734 1_545
Fe12 Fe25 2.454951 1_555
Fe12 Fe22 2.454951 1_545
Fe12 Fe8 2.545690 1_555
Fe12 Fe6 2.545690 1_555
Fe12 Fe7 2.545690 1_545
Fe12 Fe5 2.545690 1_545
Fe13 Fe20 2.454950 1_655
Fe13 Fe14 2.482416 1_554
Fe13 Fe19 2.482416 1_554
Fe13 Fe6 2.510765 1_554
Fe13 Fe4 2.555050 1_655
Fe13 Fe3 2.555050 1_555
Fe13 Fe16 2.567577 1_555
Fe13 Fe18 2.567577 1_655
Fe13 Fe23 2.730506 1_555
Fe13 Pr4 2.968376 1_555
Fe13 Pr9 3.166798 1_555
Fe13 Pr10 3.166798 1_545
Fe14 Fe23 2.482429 1_556
Fe14 Fe16 2.515634 1_556
Fe14 Fe15 2.515634 1_555
Fe14 Fe19 2.552278 1_555
Fe14 Fe25 2.567581 1_555
Fe14 Fe6 2.639586 1_555
Fe14 Fe8 2.639586 1_555
Fe14 Pr9 3.041226 1_556
Fe14 Pr11 3.041226 1_556
Fe15 Fe20 2.402734 1_555
Fe15 Fe25 2.482426 1_555
Fe15 Fe21 2.515634 1_556
Fe15 Fe18 2.552278 1_555
Fe15 Fe24 2.567577 1_555
Fe15 Fe4 2.639586 1_555
Fe15 Fe2 2.639586 1_555
Fe15 Pr9 3.041226 1_556
Fe15 Pr11 3.041226 1_556
Fe16 Fe20 2.402734 1_655
Fe16 Fe22 2.482426 1_555
Fe16 Fe21 2.515634 1_555
Fe16 Fe17 2.552278 1_555
Fe16 Fe23 2.567589 1_555
Fe16 Fe3 2.639586 1_555
Fe16 Fe9 2.639586 1_555
Fe16 Pr9 3.041226 1_555
Fe16 Pr11 3.041226 1_555
Fe17 Fe20 2.402734 1_655
Fe17 Fe22 2.482426 1_555
Fe17 Fe19 2.515634 1_565
Fe17 Fe24 2.567577 1_655
Fe17 Fe9 2.639586 1_555
Fe17 Fe3 2.639586 1_555
Fe17 Pr10 3.041226 1_556
Fe17 Pr8 3.041226 1_666
Fe18 Fe20 2.402734 1_555
Fe18 Fe25 2.482426 1_555
Fe18 Fe19 2.515634 1_454
Fe18 Fe23 2.567589 1_455
Fe18 Fe4 2.639586 1_555
Fe18 Fe2 2.639586 1_555
Fe18 Pr10 3.041226 1_445
Fe18 Pr8 3.041226 1_555
Fe19 Fe23 2.482429 1_556
Fe19 Fe22 2.567581 1_545
Fe19 Fe8 2.639586 1_555
Fe19 Fe6 2.639586 1_555
Fe19 Pr8 3.041226 1_656
Fe19 Pr10 3.041226 1_546
Fe20 Fe24 2.454950 1_555
Fe20 Fe23 2.454963 1_455
Fe20 Fe9 2.545690 1_455
Fe20 Fe4 2.545690 1_555
Fe20 Fe3 2.545690 1_455
Fe21 Fe24 2.482416 1_554
Fe21 Fe22 2.567581 1_555
Fe21 Fe7 2.639586 1_555
Fe21 Fe5 2.639586 1_555
Fe21 Pr9 3.041226 1_555
Fe21 Pr11 3.041226 1_555
Fe22 Fe9 2.510766 1_555
Fe22 Fe8 2.555042 1_565
Fe22 Fe7 2.555042 1_555
Fe22 Pr7 2.968364 1_565
Fe22 Pr8 3.166795 1_666
Fe22 Pr11 3.166795 1_555
Fe23 Fe8 2.510757 1_554
Fe23 Fe9 2.555043 1_555
Fe23 Pr6 2.968353 1_655
Fe23 Pr8 3.166790 1_655
Fe23 Pr11 3.166790 1_555
Fe24 Fe7 2.510765 1_556
Fe24 Fe9 2.555050 1_455
Fe24 Pr0 2.968376 1_555
Fe24 Pr8 3.166798 1_566
Fe24 Pr11 3.166798 1_556
Fe25 Fe4 2.510766 1_555
Fe25 Fe6 2.555042 1_555
Fe25 Fe5 2.555042 1_545
Fe25 Pr2 2.968364 1_545
Fe25 Pr10 3.166795 1_445
Fe25 Pr9 3.166795 1_556
Ag0 Pr0 3.392512 1_554
Ag0 Pr6 3.392512 1_655
Ag0 Pr5 3.392512 1_554
Ag0 Pr1 3.392512 1_554
Ag0 Pr4 3.392512 1_565
Ag0 Pr2 3.392512 1_655
Ag0 Pr3 3.392512 1_554
Ag0 Pr7 3.392512 1_565
Ag0 Pr11 3.399200 1_555
Ag0 Pr10 3.399200 1_555
Ag1 Pr2 3.392512 1_544
Ag1 Pr4 3.392512 1_555
Ag1 Pr5 3.392512 1_555
Ag1 Pr6 3.392512 1_555
Ag1 Pr1 3.392512 1_555
Ag1 Pr3 3.392512 1_454
Ag1 Pr0 3.392512 1_544
Ag1 Pr7 3.392512 1_454
Ag1 Pr8 3.399200 1_555
Ag1 Pr9 3.399200 1_555
