# generated using pymatgen
data_Hf16Pd5Rh3C4
_symmetry_space_group_name_H-M   'P 1'
_cell_length_a   8.73606909
_cell_length_b   8.74861142
_cell_length_c   8.74861003
_cell_angle_alpha   60.00000529
_cell_angle_beta   59.95250149
_cell_angle_gamma   59.95250052
_symmetry_Int_Tables_number   1
_chemical_formula_structural   Hf16Pd5Rh3C4
_chemical_formula_sum   'Hf16 Pd5 Rh3 C4'
_cell_volume   472.46222514
_cell_formula_units_Z   1
loop_
 _symmetry_equiv_pos_site_id
 _symmetry_equiv_pos_as_xyz
  1  'x, y, z'
loop_
 _atom_site_type_symbol
 _atom_site_label
 _atom_site_symmetry_multiplicity
 _atom_site_fract_x
 _atom_site_fract_y
 _atom_site_fract_z
 _atom_site_occupancy
  Hf  Hf0  1  0.11277555  0.62907482  0.62907482  1
  Hf  Hf1  1  0.63032731  0.11722461  0.62622404  1
  Hf  Hf2  1  0.63032731  0.62622404  0.11722461  1
  Hf  Hf3  1  0.63032731  0.62622404  0.62622404  1
  Hf  Hf4  1  0.81714525  0.81790705  0.18247335  1
  Hf  Hf5  1  0.17761754  0.18599267  0.81819490  1
  Hf  Hf6  1  0.81714525  0.18247335  0.81790705  1
  Hf  Hf7  1  0.17761754  0.81819490  0.18599267  1
  Hf  Hf8  1  0.17761754  0.81819490  0.81819490  1
  Hf  Hf9  1  0.81714525  0.18247335  0.18247335  1
  Hf  Hf10  1  0.43359611  0.43259977  0.06690256  1
  Hf  Hf11  1  0.06674518  0.06622969  0.43351256  1
  Hf  Hf12  1  0.43359611  0.06690256  0.43259977  1
  Hf  Hf13  1  0.06674518  0.43351256  0.06622969  1
  Hf  Hf14  1  0.06674518  0.43351256  0.43351256  1
  Hf  Hf15  1  0.43359611  0.06690256  0.06690256  1
  Pd  Pd0  1  0.76176302  0.41274466  0.41274466  1
  Pd  Pd1  1  0.41345304  0.75987228  0.41333684  1
  Pd  Pd2  1  0.41345304  0.41333684  0.75987228  1
  Pd  Pd3  1  0.41345304  0.41333684  0.41333684  1
  Pd  Pd4  1  0.48363418  0.83878894  0.83878894  1
  Rh  Rh0  1  0.84075603  0.47841466  0.84041566  1
  Rh  Rh1  1  0.84075603  0.84041566  0.47841466  1
  Rh  Rh2  1  0.84075603  0.84041566  0.84041566  1
  C  C0  1  0.62318119  0.12560594  0.12560594  1
  C  C1  1  0.12657490  0.62367671  0.12487419  1
  C  C2  1  0.12657490  0.12487419  0.62367671  1
  C  C3  1  0.12657490  0.12487419  0.12487419  1
loop_
_geom_bond_atom_site_label_1
_geom_bond_atom_site_label_2
_geom_bond_distance
_geom_bond_site_symmetry_2
Hf0 Rh1 2.665084 1_455
Hf0 Rh0 2.665084 1_455
Hf0 Rh2 2.665095 1_455
Hf0 Pd2 2.767122 1_555
Hf0 Pd1 2.767122 1_555
Hf0 Pd3 2.767127 1_555
Hf1 Rh1 2.684944 1_545
Hf1 Rh2 2.684954 1_545
Hf1 Pd4 2.691455 1_545
Hf1 Pd0 2.736331 1_555
Hf1 Pd2 2.750111 1_555
Hf1 Pd3 2.750116 1_555
Hf2 Rh0 2.684944 1_554
Hf2 Rh2 2.684954 1_554
Hf2 Pd4 2.691455 1_554
Hf2 Pd0 2.736330 1_555
Hf2 Pd1 2.750111 1_555
Hf2 Pd3 2.750116 1_555
Hf3 Rh0 2.684958 1_555
Hf3 Rh1 2.684958 1_555
Hf3 Pd4 2.691462 1_555
Hf3 Pd0 2.736352 1_555
Hf3 Pd1 2.750118 1_555
Hf3 Pd2 2.750119 1_555
Hf4 Rh2 2.805317 1_554
Hf4 Rh1 2.805343 1_555
Hf5 Rh0 2.761871 1_455
Hf5 Pd4 2.865142 1_545
Hf6 Rh2 2.805317 1_545
Hf6 Rh0 2.805343 1_555
Hf7 Rh1 2.761871 1_455
Hf7 Pd4 2.865141 1_554
Hf8 Rh2 2.761863 1_455
Hf8 Pd4 2.865146 1_555
Hf9 Rh0 2.805329 1_554
Hf9 Rh1 2.805329 1_545
Hf10 Pd3 2.868807 1_555
Hf10 Pd2 2.868825 1_554
Hf11 Pd0 2.857840 1_455
Hf11 Pd1 2.862992 1_545
Hf12 Pd3 2.868808 1_555
Hf12 Pd1 2.868825 1_545
Hf13 Pd0 2.857839 1_455
Hf13 Pd2 2.862992 1_554
Hf14 Pd0 2.857854 1_455
Hf14 Pd3 2.862988 1_555
Hf15 Pd1 2.868816 1_545
Hf15 Pd2 2.868816 1_554
C0 Hf15 2.288666 1_555
C0 Hf12 2.288679 1_555
C0 Hf10 2.288679 1_555
C0 Hf6 2.302671 1_554
C0 Hf9 2.302671 1_555
C0 Hf4 2.302671 1_545
C1 Hf10 2.289345 1_555
C1 Hf7 2.299865 1_555
C1 Hf8 2.299865 1_554
C1 Hf14 2.301552 1_555
C1 Hf13 2.301552 1_555
C1 Hf4 2.311016 1_455
C2 Hf12 2.289345 1_555
C2 Hf5 2.299865 1_555
C2 Hf8 2.299865 1_545
C2 Hf11 2.301552 1_555
C2 Hf14 2.301553 1_555
C2 Hf6 2.311016 1_455
C3 Hf15 2.289347 1_555
C3 Hf5 2.299865 1_554
C3 Hf7 2.299865 1_545
C3 Hf11 2.301552 1_555
C3 Hf13 2.301553 1_555
C3 Hf9 2.311018 1_455
