# generated using pymatgen
data_Ti3Al2AuN
_symmetry_space_group_name_H-M   'P 1'
_cell_length_a   8.22057103
_cell_length_b   8.22057107
_cell_length_c   8.22057165
_cell_angle_alpha   60.00000161
_cell_angle_beta   60.00000145
_cell_angle_gamma   59.99999884
_symmetry_Int_Tables_number   1
_chemical_formula_structural   Ti3Al2AuN
_chemical_formula_sum   'Ti12 Al8 Au4 N4'
_cell_volume   392.81765748
_cell_formula_units_Z   4
loop_
 _symmetry_equiv_pos_site_id
 _symmetry_equiv_pos_as_xyz
  1  'x, y, z'
loop_
 _atom_site_type_symbol
 _atom_site_label
 _atom_site_symmetry_multiplicity
 _atom_site_fract_x
 _atom_site_fract_y
 _atom_site_fract_z
 _atom_site_occupancy
  Ti  Ti0  1  0.82206995  0.82206995  0.17793005  1
  Ti  Ti1  1  0.07206995  0.42793005  0.42793005  1
  Ti  Ti2  1  0.42793005  0.07206995  0.07206995  1
  Ti  Ti3  1  0.07206995  0.07206995  0.42793005  1
  Ti  Ti4  1  0.07206995  0.42793005  0.07206995  1
  Ti  Ti5  1  0.42793005  0.07206995  0.42793005  1
  Ti  Ti6  1  0.17793005  0.82206995  0.17793005  1
  Ti  Ti7  1  0.17793005  0.82206995  0.82206995  1
  Ti  Ti8  1  0.82206995  0.17793005  0.17793005  1
  Ti  Ti9  1  0.82206995  0.17793005  0.82206995  1
  Ti  Ti10  1  0.42793005  0.42793005  0.07206995  1
  Ti  Ti11  1  0.17793005  0.17793005  0.82206995  1
  Al  Al0  1  0.41417370  0.75747689  0.41417370  1
  Al  Al1  1  0.83582630  0.83582630  0.49252311  1
  Al  Al2  1  0.49252311  0.83582630  0.83582630  1
  Al  Al3  1  0.83582630  0.83582630  0.83582630  1
  Al  Al4  1  0.75747689  0.41417370  0.41417370  1
  Al  Al5  1  0.41417370  0.41417370  0.41417370  1
  Al  Al6  1  0.41417370  0.41417370  0.75747689  1
  Al  Al7  1  0.83582630  0.49252311  0.83582630  1
  Au  Au0  1  0.62500000  0.12500000  0.62500000  1
  Au  Au1  1  0.62500000  0.62500000  0.12500000  1
  Au  Au2  1  0.12500000  0.62500000  0.62500000  1
  Au  Au3  1  0.62500000  0.62500000  0.62500000  1
  N  N0  1  0.12500000  0.62500000  0.12500000  1
  N  N1  1  0.12500000  0.12500000  0.62500000  1
  N  N2  1  0.62500000  0.12500000  0.12500000  1
  N  N3  1  0.12500000  0.12500000  0.12500000  1
loop_
_geom_bond_atom_site_label_1
_geom_bond_atom_site_label_2
_geom_bond_distance
_geom_bond_site_symmetry_2
Al0 Au2 2.534191 1_555
Al0 Au1 2.534191 1_555
Al0 Au3 2.534205 1_555
Al1 Au2 2.534191 1_655
Al1 Au0 2.534191 1_565
Al1 Au3 2.534205 1_555
Al2 Au0 2.534191 1_565
Al2 Au1 2.534191 1_556
Al2 Au3 2.534205 1_555
Al3 Au2 2.534201 1_655
Al3 Au0 2.534201 1_565
Al3 Au1 2.534201 1_556
Al4 Au0 2.534191 1_555
Al4 Au1 2.534191 1_555
Al4 Au3 2.534205 1_555
Al5 Au2 2.534201 1_555
Al5 Au0 2.534201 1_555
Al5 Au1 2.534201 1_555
Al6 Au2 2.534191 1_555
Al6 Au0 2.534191 1_555
Al6 Au3 2.534205 1_555
Al7 Au2 2.534191 1_655
Al7 Au1 2.534191 1_556
Al7 Au3 2.534205 1_555
N0 Ti10 2.145288 1_555
N0 Ti0 2.145288 1_455
N0 Ti6 2.145288 1_555
N0 Ti4 2.145288 1_555
N0 Ti1 2.145289 1_555
N0 Ti7 2.145289 1_554
N1 Ti5 2.145288 1_555
N1 Ti9 2.145288 1_455
N1 Ti1 2.145288 1_555
N1 Ti7 2.145288 1_545
N1 Ti11 2.145288 1_555
N1 Ti3 2.145288 1_555
N2 Ti10 2.145288 1_555
N2 Ti0 2.145288 1_545
N2 Ti8 2.145288 1_555
N2 Ti2 2.145288 1_555
N2 Ti5 2.145289 1_555
N2 Ti9 2.145289 1_554
N3 Ti2 2.145288 1_555
N3 Ti8 2.145288 1_455
N3 Ti4 2.145288 1_555
N3 Ti6 2.145288 1_545
N3 Ti3 2.145289 1_555
N3 Ti11 2.145289 1_554
