# generated using pymatgen
data_Na3Ca2AuO6
_symmetry_space_group_name_H-M   'P 1'
_cell_length_a   10.84699104
_cell_length_b   10.32211183
_cell_length_c   5.74775779
_cell_angle_alpha   79.35175074
_cell_angle_beta   69.26436748
_cell_angle_gamma   31.38388317
_symmetry_Int_Tables_number   1
_chemical_formula_structural   Na3Ca2AuO6
_chemical_formula_sum   'Na6 Ca4 Au2 O12'
_cell_volume   304.17317920
_cell_formula_units_Z   2
loop_
 _symmetry_equiv_pos_site_id
 _symmetry_equiv_pos_as_xyz
  1  'x, y, z'
loop_
 _atom_site_type_symbol
 _atom_site_label
 _atom_site_symmetry_multiplicity
 _atom_site_fract_x
 _atom_site_fract_y
 _atom_site_fract_z
 _atom_site_occupancy
  Na  Na0  1  0.00000000  0.00000000  0.00000000  1
  Na  Na1  1  0.08450631  0.08450631  0.41549369  1
  Na  Na2  1  0.83450631  0.83450631  0.16549369  1
  Na  Na3  1  0.16549369  0.16549369  0.83450631  1
  Na  Na4  1  0.25000000  0.25000000  0.25000000  1
  Na  Na5  1  0.41549369  0.41549369  0.08450631  1
  Ca  Ca0  1  0.58065694  0.58065694  0.91934306  1
  Ca  Ca1  1  0.91934306  0.91934306  0.58065694  1
  Ca  Ca2  1  0.66934306  0.66934306  0.33065694  1
  Ca  Ca3  1  0.33065694  0.33065694  0.66934306  1
  Au  Au0  1  0.75000000  0.75000000  0.75000000  1
  Au  Au1  1  0.50000000  0.50000000  0.50000000  1
  O  O0  1  0.28160609  0.71839391  0.28160609  1
  O  O1  1  0.71839391  0.28160609  0.71839391  1
  O  O2  1  0.96839391  0.53160609  0.96839391  1
  O  O3  1  0.53160609  0.96839391  0.53160609  1
  O  O4  1  0.20424259  0.64659507  0.79540772  1
  O  O5  1  0.35375463  0.79540772  0.64659507  1
  O  O6  1  0.79540772  0.35375463  0.20424259  1
  O  O7  1  0.64659507  0.20424259  0.35375463  1
  O  O8  1  0.60340493  0.04575741  0.89624537  1
  O  O9  1  0.89624537  0.45459228  0.60340493  1
  O  O10  1  0.45459228  0.89624537  0.04575741  1
  O  O11  1  0.04575741  0.60340493  0.45459228  1
loop_
_geom_bond_atom_site_label_1
_geom_bond_atom_site_label_2
_geom_bond_distance
_geom_bond_site_symmetry_2
Na0 O6 2.353730 1_455
Na0 O4 2.353730 1_544
Na0 O7 2.353730 1_455
Na0 O5 2.353730 1_544
Na0 O0 2.646136 1_545
Na0 O1 2.646136 1_454
Na1 O0 2.357807 1_545
Na1 O1 2.357807 1_455
Na1 O5 2.366591 1_545
Na1 O6 2.366591 1_455
Na1 O9 2.563862 1_455
Na1 O10 2.563863 1_545
Na2 O2 2.357807 1_554
Na2 O3 2.357807 1_555
Na2 O11 2.366591 1_655
Na2 O8 2.366591 1_564
Na2 O7 2.563862 1_565
Na2 O4 2.563863 1_654
Na3 O2 2.357807 1_455
Na3 O3 2.357807 1_545
Na3 O9 2.366591 1_455
Na3 O10 2.366591 1_546
Na3 O5 2.563862 1_545
Na3 O6 2.563863 1_456
Na4 O10 2.353730 1_545
Na4 O11 2.353730 1_555
Na4 O8 2.353730 1_554
Na4 O9 2.353730 1_455
Na4 O3 2.646136 1_545
Na4 O2 2.646136 1_454
Na5 O0 2.357807 1_555
Na5 O1 2.357807 1_554
Na5 O4 2.366591 1_554
Na5 O7 2.366591 1_555
Na5 O8 2.563862 1_554
Na5 O11 2.563863 1_555
Ca0 O1 2.305683 1_555
Ca0 O0 2.305683 1_556
Ca0 O6 2.358339 1_556
Ca0 O5 2.358339 1_555
Ca0 O10 2.361152 1_556
Ca0 O9 2.361152 1_555
Ca1 O1 2.305683 1_565
Ca1 O0 2.305683 1_655
Ca1 O7 2.358339 1_565
Ca1 O4 2.358339 1_655
Ca1 O11 2.361152 1_655
Ca1 O8 2.361152 1_565
Ca2 O3 2.305683 1_555
Ca2 O2 2.305683 1_554
Ca2 O10 2.358339 1_555
Ca2 O9 2.358339 1_555
Ca2 O6 2.361152 1_555
Ca2 O5 2.361152 1_555
Ca3 O3 2.305683 1_545
Ca3 O2 2.305683 1_455
Ca3 O8 2.358339 1_555
Ca3 O11 2.358339 1_555
Ca3 O4 2.361152 1_555
Ca3 O7 2.361152 1_555
Au0 O2 2.052158 1_555
Au0 O3 2.052158 1_555
Au0 O8 2.066017 1_565
Au0 O9 2.066017 1_555
Au0 O10 2.066017 1_556
Au0 O11 2.066017 1_655
Au1 O1 2.052158 1_555
Au1 O0 2.052158 1_555
Au1 O7 2.066017 1_555
Au1 O5 2.066017 1_555
Au1 O6 2.066017 1_555
Au1 O4 2.066017 1_555
