# generated using pymatgen
data_Zr4VSe8
_symmetry_space_group_name_H-M   'P 1'
_cell_length_a   7.32051150
_cell_length_b   7.32051181
_cell_length_c   9.00304979
_cell_angle_alpha   53.63729381
_cell_angle_beta   53.63729075
_cell_angle_gamma   61.90957034
_symmetry_Int_Tables_number   1
_chemical_formula_structural   Zr4VSe8
_chemical_formula_sum   'Zr4 V1 Se8'
_cell_volume   307.52788509
_cell_formula_units_Z   1
loop_
 _symmetry_equiv_pos_site_id
 _symmetry_equiv_pos_as_xyz
  1  'x, y, z'
loop_
 _atom_site_type_symbol
 _atom_site_label
 _atom_site_symmetry_multiplicity
 _atom_site_fract_x
 _atom_site_fract_y
 _atom_site_fract_z
 _atom_site_occupancy
  Zr  Zr0  1  0.74171180  0.74171180  0.00610712  1
  Zr  Zr1  1  0.25828820  0.25828820  0.99389288  1
  Zr  Zr2  1  0.74069179  0.25930821  0.50000000  1
  Zr  Zr3  1  0.25930821  0.74069179  0.50000000  1
  V  V0  1  0.00000000  0.00000000  0.00000000  1
  Se  Se0  1  0.55098054  0.04300611  0.16810280  1
  Se  Se1  1  0.44901946  0.95699389  0.83189720  1
  Se  Se2  1  0.95699389  0.44901946  0.83189720  1
  Se  Se3  1  0.04300611  0.55098054  0.16810280  1
  Se  Se4  1  0.96149251  0.96149251  0.32819499  1
  Se  Se5  1  0.03850749  0.03850749  0.67180501  1
  Se  Se6  1  0.45229697  0.45229697  0.33369258  1
  Se  Se7  1  0.54770303  0.54770303  0.66630742  1
loop_
_geom_bond_atom_site_label_1
_geom_bond_atom_site_label_2
_geom_bond_distance
_geom_bond_site_symmetry_2
Se0 V0 2.624073 1_655
Se0 Zr1 2.721864 1_554
Se0 Zr3 2.725525 1_545
Se0 Zr0 2.727820 1_545
Se1 V0 2.624073 1_566
Se1 Zr0 2.721864 1_556
Se1 Zr2 2.725525 1_565
Se1 Zr1 2.727820 1_565
Se2 V0 2.624073 1_656
Se2 Zr0 2.721864 1_556
Se2 Zr3 2.725525 1_655
Se2 Zr1 2.727820 1_655
Se3 V0 2.624073 1_565
Se3 Zr1 2.721864 1_554
Se3 Zr2 2.725525 1_455
Se3 Zr0 2.727820 1_455
Se4 V0 2.643669 1_665
Se4 Zr1 2.727074 1_664
Se4 Zr2 2.733812 1_565
Se4 Zr3 2.733812 1_655
Se5 V0 2.643669 1_556
Se5 Zr0 2.727074 1_446
Se5 Zr3 2.733812 1_545
Se5 Zr2 2.733812 1_455
Se6 Zr0 2.661579 1_555
Se6 Zr2 2.669473 1_555
Se6 Zr3 2.669473 1_555
Se7 Zr1 2.661579 1_555
Se7 Zr3 2.669473 1_555
Se7 Zr2 2.669473 1_555
