# generated using pymatgen
data_Cs2TiWN4
_symmetry_space_group_name_H-M   'P 1'
_cell_length_a   6.13182582
_cell_length_b   6.13182595
_cell_length_c   6.13174280
_cell_angle_alpha   120.09746961
_cell_angle_beta   120.09974947
_cell_angle_gamma   89.83110741
_symmetry_Int_Tables_number   1
_chemical_formula_structural   Cs2TiWN4
_chemical_formula_sum   'Cs2 Ti1 W1 N4'
_cell_volume   162.77653683
_cell_formula_units_Z   1
loop_
 _symmetry_equiv_pos_site_id
 _symmetry_equiv_pos_as_xyz
  1  'x, y, z'
loop_
 _atom_site_type_symbol
 _atom_site_label
 _atom_site_symmetry_multiplicity
 _atom_site_fract_x
 _atom_site_fract_y
 _atom_site_fract_z
 _atom_site_occupancy
  Cs  Cs0  1  0.25000015  0.74999860  0.50000092  1
  Cs  Cs1  1  0.49999833  0.50000095  0.00000063  1
  Ti  Ti0  1  0.99999265  0.99999247  0.00000474  1
  W  W0  1  0.75000324  0.24999758  0.50000093  1
  N  N0  1  0.84785018  0.12664624  0.22717608  1
  N  N1  1  0.89947163  0.62067832  0.77282241  1
  N  N2  1  0.37932699  0.15216184  0.27880115  1
  N  N3  1  0.87335683  0.10052499  0.72119214  1
loop_
_geom_bond_atom_site_label_1
_geom_bond_atom_site_label_2
_geom_bond_distance
_geom_bond_site_symmetry_2
Cs0 N0 3.461345 1_566
Cs0 N1 3.461411 1_454
Cs0 N2 3.461470 1_555
Cs0 N3 3.461492 1_465
Cs0 N0 3.604720 1_455
Cs0 N1 3.604732 1_455
Cs0 N3 3.604759 1_565
Cs0 N2 3.604801 1_565
Cs0 N3 3.730516 1_454
Cs0 N1 3.730523 1_555
Cs0 N2 3.730528 1_566
Cs0 N0 3.730554 1_465
Cs1 N3 3.452481 1_565
Cs1 N2 3.452548 1_554
Cs1 N1 3.452585 1_454
Cs1 N0 3.452613 1_555
Cs1 N3 3.599165 1_454
Cs1 N2 3.599204 1_555
Cs1 N0 3.599237 1_565
Cs1 N1 3.599305 1_554
Cs1 N0 3.722156 1_454
Cs1 N1 3.722175 1_555
Cs1 N2 3.722414 1_565
Cs1 N3 3.722450 1_554
N0 W0 1.861623 1_555
N0 Ti0 1.904719 1_545
N1 W0 1.861638 1_555
N1 Ti0 1.904697 1_556
N2 W0 1.861596 1_555
N2 Ti0 1.904746 1_445
N3 W0 1.861552 1_555
N3 Ti0 1.904828 1_546
