# generated using pymatgen
data_VNi2Mo3C
_symmetry_space_group_name_H-M   'P 1'
_cell_length_a   7.86971422
_cell_length_b   7.86971311
_cell_length_c   7.86971421
_cell_angle_alpha   59.99999947
_cell_angle_beta   60.00000417
_cell_angle_gamma   59.99999808
_symmetry_Int_Tables_number   1
_chemical_formula_structural   VNi2Mo3C
_chemical_formula_sum   'V4 Ni8 Mo12 C4'
_cell_volume   344.63694471
_cell_formula_units_Z   4
loop_
 _symmetry_equiv_pos_site_id
 _symmetry_equiv_pos_as_xyz
  1  'x, y, z'
loop_
 _atom_site_type_symbol
 _atom_site_label
 _atom_site_symmetry_multiplicity
 _atom_site_fract_x
 _atom_site_fract_y
 _atom_site_fract_z
 _atom_site_occupancy
  V  V0  1  0.12500000  0.12500000  0.12500000  1
  V  V1  1  0.62500000  0.12500000  0.12500000  1
  V  V2  1  0.12500000  0.12500000  0.62500000  1
  V  V3  1  0.12500000  0.62500000  0.12500000  1
  Ni  Ni0  1  0.91959082  0.91959082  0.24122855  1
  Ni  Ni1  1  0.33040918  0.33040918  0.33040918  1
  Ni  Ni2  1  0.24122855  0.91959082  0.91959082  1
  Ni  Ni3  1  0.33040918  0.00877145  0.33040918  1
  Ni  Ni4  1  0.00877145  0.33040918  0.33040918  1
  Ni  Ni5  1  0.33040918  0.33040918  0.00877145  1
  Ni  Ni6  1  0.91959082  0.91959082  0.91959082  1
  Ni  Ni7  1  0.91959082  0.24122855  0.91959082  1
  Mo  Mo0  1  0.68908878  0.31091122  0.31091122  1
  Mo  Mo1  1  0.93908878  0.93908878  0.56091122  1
  Mo  Mo2  1  0.68908878  0.68908878  0.31091122  1
  Mo  Mo3  1  0.68908878  0.31091122  0.68908878  1
  Mo  Mo4  1  0.31091122  0.68908878  0.31091122  1
  Mo  Mo5  1  0.56091122  0.93908878  0.56091122  1
  Mo  Mo6  1  0.56091122  0.93908878  0.93908878  1
  Mo  Mo7  1  0.93908878  0.56091122  0.56091122  1
  Mo  Mo8  1  0.93908878  0.56091122  0.93908878  1
  Mo  Mo9  1  0.31091122  0.31091122  0.68908878  1
  Mo  Mo10  1  0.56091122  0.56091122  0.93908878  1
  Mo  Mo11  1  0.31091122  0.68908878  0.68908878  1
  C  C0  1  0.62500000  0.62500000  0.62500000  1
  C  C1  1  0.62500000  0.62500000  0.12500000  1
  C  C2  1  0.12500000  0.62500000  0.62500000  1
  C  C3  1  0.62500000  0.12500000  0.62500000  1
loop_
_geom_bond_atom_site_label_1
_geom_bond_atom_site_label_2
_geom_bond_distance
_geom_bond_site_symmetry_2
Ni0 V0 2.391397 1_665
Ni0 V3 2.391403 1_655
Ni0 V1 2.391403 1_565
Ni0 Ni7 2.531197 1_564
Ni0 Ni6 2.531197 1_554
Ni0 Ni2 2.531197 1_654
Ni1 V3 2.391399 1_555
Ni1 V1 2.391399 1_555
Ni1 V2 2.391399 1_555
Ni1 Ni3 2.531197 1_555
Ni1 Ni5 2.531197 1_555
Ni1 Ni4 2.531197 1_555
Ni2 V0 2.391397 1_566
Ni2 V3 2.391403 1_556
Ni2 V2 2.391403 1_565
Ni2 Ni7 2.531197 1_465
Ni2 Ni6 2.531197 1_455
Ni3 V0 2.391397 1_555
Ni3 V2 2.391403 1_555
Ni3 V1 2.391403 1_555
Ni3 Ni4 2.531197 1_555
Ni3 Ni5 2.531197 1_555
Ni4 V0 2.391397 1_555
Ni4 V3 2.391403 1_555
Ni4 V2 2.391403 1_555
Ni4 Ni5 2.531197 1_555
Ni5 V0 2.391397 1_555
Ni5 V3 2.391403 1_555
Ni5 V1 2.391403 1_555
Ni6 V3 2.391399 1_656
Ni6 V1 2.391399 1_566
Ni6 V2 2.391399 1_665
Ni6 Ni7 2.531197 1_565
Ni7 V0 2.391397 1_656
Ni7 V2 2.391403 1_655
Ni7 V1 2.391403 1_556
Mo0 Ni4 2.678061 1_655
Mo0 Ni1 2.678069 1_555
Mo0 V1 2.855155 1_555
Mo0 V0 2.855155 1_655
Mo0 Ni0 2.860558 1_545
Mo0 Ni7 2.860559 1_554
Mo1 Ni0 2.678061 1_555
Mo1 Ni6 2.678069 1_555
Mo1 V2 2.855155 1_665
Mo1 V0 2.855155 1_665
Mo1 Ni4 2.860558 1_665
Mo1 Ni3 2.860559 1_665
Mo2 Ni4 2.678065 1_655
Mo2 Ni3 2.678065 1_565
Mo2 V1 2.855155 1_565
Mo2 V3 2.855155 1_655
Mo2 Ni6 2.860562 1_554
Mo2 Ni0 2.860565 1_555
Mo3 Ni5 2.678065 1_556
Mo3 Ni4 2.678065 1_655
Mo3 V2 2.855155 1_655
Mo3 V1 2.855155 1_556
Mo3 Ni6 2.860562 1_545
Mo3 Ni7 2.860565 1_555
Mo4 Ni3 2.678061 1_565
Mo4 Ni1 2.678068 1_555
Mo4 V0 2.855155 1_565
Mo4 V3 2.855155 1_555
Mo4 Ni0 2.860559 1_455
Mo4 Ni2 2.860559 1_554
Mo5 Ni0 2.678065 1_555
Mo5 Ni2 2.678065 1_555
Mo5 V2 2.855155 1_565
Mo5 V1 2.855155 1_565
Mo5 Ni1 2.860562 1_565
Mo5 Ni3 2.860565 1_565
Mo6 Ni2 2.678061 1_555
Mo6 Ni6 2.678069 1_555
Mo6 V1 2.855155 1_566
Mo6 V0 2.855155 1_566
Mo6 Ni5 2.860558 1_566
Mo6 Ni3 2.860559 1_566
Mo7 Ni0 2.678065 1_555
Mo7 Ni7 2.678065 1_555
Mo7 V2 2.855155 1_655
Mo7 V3 2.855156 1_655
Mo7 Ni1 2.860562 1_655
Mo7 Ni4 2.860565 1_655
Mo8 Ni7 2.678061 1_555
Mo8 Ni6 2.678068 1_555
Mo8 V0 2.855155 1_656
Mo8 V3 2.855155 1_656
Mo8 Ni5 2.860559 1_656
Mo8 Ni4 2.860559 1_656
Mo9 Ni5 2.678061 1_556
Mo9 Ni1 2.678069 1_555
Mo9 V2 2.855155 1_555
Mo9 V0 2.855155 1_556
Mo9 Ni2 2.860558 1_545
Mo9 Ni7 2.860559 1_455
Mo10 Ni2 2.678065 1_555
Mo10 Ni7 2.678065 1_555
Mo10 V1 2.855155 1_556
Mo10 V3 2.855155 1_556
Mo10 Ni1 2.860562 1_556
Mo10 Ni5 2.860565 1_556
Mo11 Ni5 2.678065 1_556
Mo11 Ni3 2.678065 1_565
Mo11 V2 2.855155 1_565
Mo11 V3 2.855156 1_556
Mo11 Ni6 2.860562 1_455
Mo11 Ni2 2.860565 1_555
C0 Mo5 2.092733 1_555
C0 Mo3 2.092733 1_555
C0 Mo7 2.092734 1_555
C0 Mo11 2.092734 1_555
C0 Mo10 2.092734 1_555
C0 Mo2 2.092734 1_555
C1 Mo6 2.092733 1_554
C1 Mo0 2.092733 1_555
C1 Mo2 2.092734 1_555
C1 Mo10 2.092734 1_554
C1 Mo8 2.092734 1_554
C1 Mo4 2.092734 1_555
C2 Mo9 2.092733 1_555
C2 Mo1 2.092733 1_455
C2 Mo11 2.092734 1_555
C2 Mo7 2.092734 1_455
C2 Mo8 2.092734 1_455
C2 Mo4 2.092734 1_555
C3 Mo3 2.092733 1_555
C3 Mo5 2.092733 1_545
C3 Mo1 2.092734 1_545
C3 Mo9 2.092734 1_555
C3 Mo6 2.092734 1_545
C3 Mo0 2.092734 1_555
