# generated using pymatgen
data_Ta9Si2TcB4
_symmetry_space_group_name_H-M   'P 1'
_cell_length_a   6.16329270
_cell_length_b   6.16329339
_cell_length_c   7.23272406
_cell_angle_alpha   115.21841181
_cell_angle_beta   115.21841028
_cell_angle_gamma   89.99999934
_symmetry_Int_Tables_number   1
_chemical_formula_structural   Ta9Si2TcB4
_chemical_formula_sum   'Ta9 Si2 Tc1 B4'
_cell_volume   219.26682779
_cell_formula_units_Z   1
loop_
 _symmetry_equiv_pos_site_id
 _symmetry_equiv_pos_as_xyz
  1  'x, y, z'
loop_
 _atom_site_type_symbol
 _atom_site_label
 _atom_site_symmetry_multiplicity
 _atom_site_fract_x
 _atom_site_fract_y
 _atom_site_fract_z
 _atom_site_occupancy
  Ta  Ta0  1  0.00000000  0.00000000  0.00000000  1
  Ta  Ta1  1  0.03049006  0.52513092  0.72076278  1
  Ta  Ta2  1  0.69027372  0.19563286  0.72076278  1
  Ta  Ta3  1  0.19563286  0.03049006  0.72076278  1
  Ta  Ta4  1  0.52513092  0.69027372  0.72076278  1
  Ta  Ta5  1  0.96950994  0.47486908  0.27923722  1
  Ta  Ta6  1  0.30972628  0.80436714  0.27923722  1
  Ta  Ta7  1  0.80436714  0.96950994  0.27923722  1
  Ta  Ta8  1  0.47486908  0.30972628  0.27923722  1
  Si  Si0  1  0.24554978  0.24554978  0.49109856  1
  Si  Si1  1  0.75445022  0.75445022  0.50890144  1
  Tc  Tc0  1  0.50000000  0.50000000  0.00000000  1
  B  B0  1  0.38182715  0.88091417  0.00000000  1
  B  B1  1  0.61817285  0.11908583  1.00000000  1
  B  B2  1  0.11908583  0.38182715  1.00000000  1
  B  B3  1  0.88091417  0.61817285  0.00000000  1
loop_
_geom_bond_atom_site_label_1
_geom_bond_atom_site_label_2
_geom_bond_distance
_geom_bond_site_symmetry_2
Ta1 Tc0 2.786219 1_556
Ta2 Tc0 2.786222 1_556
Ta3 Tc0 2.786217 1_556
Ta4 Tc0 2.786224 1_556
Ta5 Tc0 2.786219 1_555
Ta6 Tc0 2.786222 1_555
Ta7 Tc0 2.786217 1_555
Ta8 Tc0 2.786224 1_555
Si0 Ta8 2.619941 1_555
Si0 Ta5 2.619946 1_455
Si0 Ta6 2.619950 1_545
Si0 Ta7 2.619955 1_445
Si0 Ta2 2.631056 1_555
Si0 Ta1 2.631056 1_555
Si0 Ta4 2.631056 1_555
Si0 Ta3 2.631056 1_555
Si0 Ta0 2.834758 1_555
Si1 Ta4 2.619941 1_555
Si1 Ta1 2.619946 1_655
Si1 Ta2 2.619950 1_565
Si1 Ta3 2.619955 1_665
Si1 Ta6 2.631056 1_555
Si1 Ta5 2.631056 1_555
Si1 Ta8 2.631056 1_555
Si1 Ta7 2.631056 1_555
Si1 Ta0 2.834758 1_666
B0 B1 2.068012 1_564
B0 Ta7 2.395305 1_555
B0 Ta4 2.395309 1_554
B0 Ta8 2.420189 1_565
B0 Ta3 2.420192 1_564
B0 Tc0 2.458068 1_555
B0 Ta1 2.464897 1_554
B0 Ta6 2.464904 1_555
B0 Ta0 2.465112 1_565
B1 Ta3 2.395305 1_555
B1 Ta8 2.395309 1_556
B1 Ta4 2.420189 1_545
B1 Ta7 2.420192 1_546
B1 Tc0 2.458068 1_556
B1 Ta5 2.464897 1_556
B1 Ta2 2.464904 1_555
B1 Ta0 2.465112 1_656
B2 B3 2.068012 1_456
B2 Ta6 2.395305 1_556
B2 Ta1 2.395310 1_555
B2 Ta2 2.420188 1_455
B2 Ta5 2.420193 1_456
B2 Tc0 2.458068 1_556
B2 Ta8 2.464900 1_556
B2 Ta3 2.464901 1_555
B2 Ta0 2.465112 1_556
B3 Ta2 2.395305 1_554
B3 Ta5 2.395310 1_555
B3 Ta6 2.420188 1_655
B3 Ta1 2.420193 1_654
B3 Tc0 2.458068 1_555
B3 Ta4 2.464900 1_554
B3 Ta7 2.464901 1_555
B3 Ta0 2.465112 1_665
