# generated using pymatgen
data_Mg2Zr2As6Ru7
_symmetry_space_group_name_H-M   'P 1'
_cell_length_a   7.07126769
_cell_length_b   7.07126727
_cell_length_c   6.95805949
_cell_angle_alpha   109.48021500
_cell_angle_beta   109.48021349
_cell_angle_gamma   110.10339224
_symmetry_Int_Tables_number   1
_chemical_formula_structural   Mg2Zr2As6Ru7
_chemical_formula_sum   'Mg2 Zr2 As6 Ru7'
_cell_volume   265.65235427
_cell_formula_units_Z   1
loop_
 _symmetry_equiv_pos_site_id
 _symmetry_equiv_pos_as_xyz
  1  'x, y, z'
loop_
 _atom_site_type_symbol
 _atom_site_label
 _atom_site_symmetry_multiplicity
 _atom_site_fract_x
 _atom_site_fract_y
 _atom_site_fract_z
 _atom_site_occupancy
  Mg  Mg0  1  0.50000000  0.00000000  0.00000000  1
  Mg  Mg1  1  0.00000000  0.50000000  0.00000000  1
  Zr  Zr0  1  0.00000000  0.00000000  0.50000000  1
  Zr  Zr1  1  0.50000000  0.50000000  0.50000000  1
  As  As0  1  0.31139203  0.99401144  0.30540347  1
  As  As1  1  0.99401144  0.31139203  0.30540347  1
  As  As2  1  0.00598856  0.68860797  0.69459653  1
  As  As3  1  0.31118674  0.31118674  0.00000000  1
  As  As4  1  0.68881326  0.68881326  1.00000000  1
  As  As5  1  0.68860797  0.00598856  0.69459653  1
  Ru  Ru0  1  0.74968398  0.50039129  0.25007527  1
  Ru  Ru1  1  0.50039129  0.74968398  0.25007527  1
  Ru  Ru2  1  0.49960871  0.25031602  0.74992473  1
  Ru  Ru3  1  0.75000000  0.25000000  0.50000000  1
  Ru  Ru4  1  0.25000000  0.75000000  0.50000000  1
  Ru  Ru5  1  0.25031602  0.49960871  0.74992473  1
  Ru  Ru6  1  0.00000000  0.00000000  0.00000000  1
loop_
_geom_bond_atom_site_label_1
_geom_bond_atom_site_label_2
_geom_bond_distance
_geom_bond_site_symmetry_2
Mg0 Ru3 2.828716 1_555
Mg0 Ru4 2.828716 1_544
Mg0 Ru0 2.866216 1_555
Mg0 Ru5 2.866216 1_544
Mg0 Ru1 2.866216 1_545
Mg0 Ru2 2.866216 1_554
Mg1 Ru3 2.828716 1_454
Mg1 Ru4 2.828716 1_555
Mg1 Ru2 2.866216 1_454
Mg1 Ru1 2.866216 1_555
Mg1 Ru0 2.866216 1_455
Mg1 Ru5 2.866216 1_554
As0 Ru6 2.523749 1_565
As0 Ru1 2.531035 1_555
As0 Ru3 2.536614 1_565
As0 Ru4 2.536614 1_555
As0 Ru2 2.545626 1_565
As0 Mg1 2.864905 1_555
As0 Mg0 2.864906 1_565
As0 Zr1 2.949245 1_565
As0 Zr0 2.949245 1_565
As1 Ru6 2.523749 1_655
As1 Ru0 2.531035 1_555
As1 Ru4 2.536614 1_655
As1 Ru3 2.536614 1_555
As1 Ru5 2.545626 1_655
As1 Mg0 2.864905 1_555
As1 Mg1 2.864906 1_655
As1 Zr1 2.949245 1_655
As1 Zr0 2.949245 1_655
As2 Ru6 2.523749 1_566
As2 Ru5 2.531035 1_555
As2 Ru3 2.536614 1_455
As2 Ru4 2.536614 1_555
As2 Ru0 2.545626 1_455
As2 Mg0 2.864905 1_566
As2 Mg1 2.864906 1_556
As2 Zr1 2.949245 1_455
As2 Zr0 2.949245 1_565
As3 Ru6 2.521039 1_555
As3 Ru1 2.535594 1_555
As3 Ru0 2.535595 1_555
As3 Ru5 2.535595 1_554
As3 Ru2 2.535595 1_554
As3 Zr0 2.871820 1_554
As3 Zr1 2.871820 1_555
As3 Mg0 2.940138 1_555
As3 Mg1 2.940138 1_555
As4 Ru6 2.521039 1_666
As4 Ru2 2.535594 1_555
As4 Ru5 2.535595 1_555
As4 Ru0 2.535595 1_556
As4 Ru1 2.535595 1_556
As4 Zr0 2.871820 1_666
As4 Zr1 2.871820 1_555
As4 Mg0 2.940138 1_566
As4 Mg1 2.940138 1_656
As5 Ru6 2.523749 1_656
As5 Ru2 2.531035 1_555
As5 Ru4 2.536614 1_545
As5 Ru3 2.536614 1_555
As5 Ru1 2.545626 1_545
As5 Mg1 2.864905 1_656
As5 Mg0 2.864906 1_556
As5 Zr1 2.949245 1_545
As5 Zr0 2.949245 1_655
Ru0 Zr0 2.861647 1_665
Ru0 Zr1 2.861647 1_555
Ru1 Zr0 2.861647 1_665
Ru1 Zr1 2.861647 1_555
Ru2 Zr0 2.861647 1_555
Ru2 Zr1 2.861647 1_555
Ru3 Zr1 2.898050 1_555
Ru3 Zr0 2.898050 1_655
Ru4 Zr1 2.898050 1_555
Ru4 Zr0 2.898050 1_565
Ru5 Zr0 2.861647 1_555
Ru5 Zr1 2.861647 1_555
