# generated using pymatgen
data_CaBRu2C
_symmetry_space_group_name_H-M   'P 1'
_cell_length_a   6.66048649
_cell_length_b   5.84819728
_cell_length_c   5.48854513
_cell_angle_alpha   71.88193658
_cell_angle_beta   56.56467965
_cell_angle_gamma   51.55338591
_symmetry_Int_Tables_number   1
_chemical_formula_structural   CaBRu2C
_chemical_formula_sum   'Ca2 B2 Ru4 C2'
_cell_volume   139.56381607
_cell_formula_units_Z   2
loop_
 _symmetry_equiv_pos_site_id
 _symmetry_equiv_pos_as_xyz
  1  'x, y, z'
loop_
 _atom_site_type_symbol
 _atom_site_label
 _atom_site_symmetry_multiplicity
 _atom_site_fract_x
 _atom_site_fract_y
 _atom_site_fract_z
 _atom_site_occupancy
  Ca  Ca0  1  0.00000000  0.00000000  0.00000000  1
  Ca  Ca1  1  0.25000000  0.25000000  0.25000000  1
  B  B0  1  0.93326694  0.56673306  0.93326694  1
  B  B1  1  0.56673306  0.93326694  0.56673306  1
  Ru  Ru0  1  0.60929091  0.60929091  0.89070909  1
  Ru  Ru1  1  0.63104780  0.63104780  0.36895120  1
  Ru  Ru2  1  0.36895120  0.36895220  0.63104780  1
  Ru  Ru3  1  0.89071009  0.89070909  0.60928991  1
  C  C0  1  0.68264692  0.31735308  0.68264692  1
  C  C1  1  0.31735308  0.68264692  0.31735308  1
loop_
_geom_bond_atom_site_label_1
_geom_bond_atom_site_label_2
_geom_bond_distance
_geom_bond_site_symmetry_2
Ca0 Ru3 2.947572 1_445
Ca0 Ru3 2.947575 1_444
Ca0 Ru0 2.947576 1_454
Ca0 Ru0 2.947576 1_544
Ca1 Ru2 2.983588 1_555
Ca1 Ru1 2.983592 1_545
Ca1 Ru2 2.983595 1_554
Ca1 Ru1 2.983596 1_455
B0 Ru2 2.055485 1_655
B0 Ru1 2.055485 1_556
B0 Ru0 2.150390 1_555
B0 Ru3 2.150393 1_555
B0 Ca1 2.843014 1_656
B0 Ca0 2.984820 1_656
B0 Ca0 2.984821 1_666
B1 Ru2 2.055487 1_565
B1 Ru1 2.055492 1_555
B1 Ru0 2.150390 1_555
B1 Ru3 2.150394 1_555
B1 Ca1 2.843014 1_565
B1 Ca0 2.984821 1_665
B1 Ca0 2.984821 1_566
C0 Ru3 2.004520 1_545
C0 Ru0 2.004520 1_555
C0 Ru1 2.086038 1_555
C0 Ru2 2.086042 1_555
C0 Ca0 2.848579 1_656
C0 Ca1 2.985943 1_556
C0 Ca1 2.985943 1_655
C1 Ru3 2.004516 1_455
C1 Ru0 2.004520 1_554
C1 Ru1 2.086032 1_555
C1 Ru2 2.086034 1_555
C1 Ca0 2.848579 1_565
C1 Ca1 2.985942 1_565
C1 Ca1 2.985942 1_555
