# generated using pymatgen
data_Ba2YAlSe5
_symmetry_space_group_name_H-M   'P 1'
_cell_length_a   7.38017766
_cell_length_b   8.74956795
_cell_length_c   9.53319674
_cell_angle_alpha   103.53562936
_cell_angle_beta   102.81060052
_cell_angle_gamma   107.49251056
_symmetry_Int_Tables_number   1
_chemical_formula_structural   Ba2YAlSe5
_chemical_formula_sum   'Ba4 Y2 Al2 Se10'
_cell_volume   541.75826215
_cell_formula_units_Z   2
loop_
 _symmetry_equiv_pos_site_id
 _symmetry_equiv_pos_as_xyz
  1  'x, y, z'
loop_
 _atom_site_type_symbol
 _atom_site_label
 _atom_site_symmetry_multiplicity
 _atom_site_fract_x
 _atom_site_fract_y
 _atom_site_fract_z
 _atom_site_occupancy
  Ba  Ba0  1  0.62930993  0.97561505  0.28832596  1
  Ba  Ba1  1  0.37069007  0.02438495  0.71167404  1
  Ba  Ba2  1  0.33836928  0.50986198  0.70550393  1
  Ba  Ba3  1  0.66163072  0.49013802  0.29449607  1
  Y  Y0  1  0.99729175  0.72914741  0.99776147  1
  Y  Y1  1  0.00270825  0.27085259  0.00223853  1
  Al  Al0  1  0.80794478  0.87325623  0.69171049  1
  Al  Al1  1  0.19205522  0.12674377  0.30828951  1
  Se  Se0  1  0.98903959  0.68886440  0.68800278  1
  Se  Se1  1  0.01096041  0.31113560  0.31199722  1
  Se  Se2  1  0.98523497  0.14976193  0.69158100  1
  Se  Se3  1  0.01476503  0.85023807  0.30841900  1
  Se  Se4  1  0.71464864  0.90758705  0.92343600  1
  Se  Se5  1  0.28535136  0.09241295  0.07656400  1
  Se  Se6  1  0.70693424  0.41094220  0.94631170  1
  Se  Se7  1  0.29306576  0.58905780  0.05368830  1
  Se  Se8  1  0.49961114  0.74456782  0.49729189  1
  Se  Se9  1  0.50038886  0.25543218  0.50270811  1
loop_
_geom_bond_atom_site_label_1
_geom_bond_atom_site_label_2
_geom_bond_distance
_geom_bond_site_symmetry_2
Ba0 Se8 3.246371 1_555
Ba0 Se9 3.316132 1_565
Ba0 Se1 3.322607 1_665
Ba0 Se3 3.326454 1_655
Ba0 Se7 3.398867 1_555
Ba0 Se5 3.437484 1_565
Ba0 Se4 3.616503 1_554
Ba0 Se2 3.791336 1_565
Ba1 Se9 3.246371 1_555
Ba1 Se8 3.316132 1_545
Ba1 Se0 3.322607 1_445
Ba1 Se2 3.326454 1_455
Ba1 Se6 3.398867 1_555
Ba1 Se4 3.437484 1_545
Ba1 Se5 3.616503 1_556
Ba1 Se3 3.791336 1_545
Ba2 Se9 3.276263 1_555
Ba2 Se8 3.325603 1_555
Ba2 Se7 3.341337 1_556
Ba2 Se2 3.383987 1_455
Ba2 Se0 3.389165 1_455
Ba2 Se4 3.519333 1_555
Ba2 Se6 3.604751 1_555
Ba2 Se1 3.651849 1_555
Ba3 Se8 3.276263 1_555
Ba3 Se9 3.325603 1_555
Ba3 Se6 3.341337 1_554
Ba3 Se3 3.383987 1_655
Ba3 Se1 3.389165 1_655
Ba3 Se5 3.519333 1_555
Ba3 Se7 3.604751 1_555
Ba3 Se0 3.651849 1_555
Al0 Se8 2.343857 1_555
Al0 Se2 2.379952 1_565
Al0 Se0 2.383469 1_555
Al0 Se4 2.435696 1_555
Al1 Se9 2.343857 1_555
Al1 Se3 2.379952 1_545
Al1 Se1 2.383469 1_555
Al1 Se5 2.435696 1_555
Se0 Y0 2.875453 1_555
Se1 Y1 2.875453 1_555
Se2 Y1 2.861767 1_656
Se3 Y0 2.861767 1_454
Se4 Y0 3.018453 1_555
Se4 Y1 3.049298 1_666
Se5 Y1 3.018453 1_555
Se5 Y0 3.049298 1_444
Se6 Y0 2.809296 1_555
Se6 Y1 2.819543 1_656
Se7 Y1 2.809296 1_555
Se7 Y0 2.819543 1_454
