# generated using pymatgen
data_Y6InSiOs
_symmetry_space_group_name_H-M   'P 1'
_cell_length_a   8.54813457
_cell_length_b   8.54813445
_cell_length_c   8.54813565
_cell_angle_alpha   112.16303307
_cell_angle_beta   110.80072195
_cell_angle_gamma   105.52375458
_symmetry_Int_Tables_number   1
_chemical_formula_structural   Y6InSiOs
_chemical_formula_sum   'Y12 In2 Si2 Os2'
_cell_volume   479.06131834
_cell_formula_units_Z   2
loop_
 _symmetry_equiv_pos_site_id
 _symmetry_equiv_pos_as_xyz
  1  'x, y, z'
loop_
 _atom_site_type_symbol
 _atom_site_label
 _atom_site_symmetry_multiplicity
 _atom_site_fract_x
 _atom_site_fract_y
 _atom_site_fract_z
 _atom_site_occupancy
  Y  Y0  1  0.43877035  0.23700566  0.20176469  1
  Y  Y1  1  0.56122965  0.76299434  0.79823531  1
  Y  Y2  1  0.03524098  0.23700566  0.79823531  1
  Y  Y3  1  0.96475902  0.76299434  0.20176469  1
  Y  Y4  1  0.18413809  0.27317728  0.45731538  1
  Y  Y5  1  0.81586191  0.72682272  0.54268462  1
  Y  Y6  1  0.18413809  0.72682272  0.91096081  1
  Y  Y7  1  0.81586191  0.27317728  0.08903919  1
  Y  Y8  1  0.33464613  0.64319479  0.30854966  1
  Y  Y9  1  0.66535387  0.35680521  0.69145034  1
  Y  Y10  1  0.33464613  0.02609846  0.69145034  1
  Y  Y11  1  0.66535387  0.97390154  0.30854966  1
  In  In0  1  0.50000000  0.50000000  0.00000000  1
  In  In1  1  0.00000000  0.00000000  0.00000000  1
  Si  Si0  1  0.11410815  0.61410815  0.50000000  1
  Si  Si1  1  0.88589185  0.38589185  0.50000000  1
  Os  Os0  1  0.33511633  0.00000000  0.33511633  1
  Os  Os1  1  0.66488367  1.00000000  0.66488367  1
loop_
_geom_bond_atom_site_label_1
_geom_bond_atom_site_label_2
_geom_bond_distance
_geom_bond_site_symmetry_2
In0 Y3 3.352505 1_555
In0 Y2 3.352505 1_554
In0 Y1 3.352505 1_554
In0 Y0 3.352505 1_555
In0 Y11 3.404515 1_555
In0 Y10 3.404515 1_554
In0 Y8 3.404527 1_555
In0 Y9 3.404527 1_554
In0 Y7 3.752990 1_555
In0 Y6 3.752990 1_554
In0 Y5 3.752990 1_555
In0 Y4 3.752990 1_554
In1 Y0 3.138236 1_555
In1 Y1 3.138236 1_444
In1 Y2 3.138236 1_554
In1 Y3 3.138236 1_445
In1 Y7 3.160258 1_455
In1 Y6 3.160258 1_544
In1 Y4 3.160259 1_555
In1 Y5 3.160259 1_444
In1 Os0 3.253283 1_555
In1 Os1 3.253283 1_444
Si0 Si1 2.361000 1_455
Si0 Y8 2.922560 1_555
Si0 Y10 2.922575 1_565
Si0 Y4 3.044904 1_555
Si0 Y5 3.044904 1_455
Si0 Y7 3.044904 1_455
Si0 Y6 3.044904 1_555
Si0 Y1 3.279474 1_555
Si0 Y3 3.279474 1_455
Si1 Y9 2.922560 1_555
Si1 Y11 2.922575 1_545
Si1 Y5 3.044904 1_555
Si1 Y4 3.044904 1_655
Si1 Y6 3.044904 1_655
Si1 Y7 3.044904 1_555
Si1 Y0 3.279474 1_555
Si1 Y2 3.279474 1_655
Os0 Y3 2.772700 1_445
Os0 Y0 2.772700 1_555
Os0 Y10 2.970576 1_555
Os0 Y9 2.970585 1_555
Os0 Y11 2.970586 1_545
Os0 Y8 2.970589 1_545
Os0 Y4 2.989976 1_555
Os0 Y6 2.989977 1_544
Os1 Y2 2.772700 1_665
Os1 Y1 2.772700 1_555
Os1 Y11 2.970576 1_555
Os1 Y8 2.970585 1_555
Os1 Y10 2.970586 1_565
Os1 Y9 2.970589 1_565
Os1 Y5 2.989976 1_555
Os1 Y7 2.989977 1_566
