# generated using pymatgen
data_Cs6Li2Sn7Pb
_symmetry_space_group_name_H-M   'P 1'
_cell_length_a   9.15259826
_cell_length_b   9.16503847
_cell_length_c   10.67642235
_cell_angle_alpha   90.00000000
_cell_angle_beta   90.00000000
_cell_angle_gamma   131.66550645
_symmetry_Int_Tables_number   1
_chemical_formula_structural   Cs6Li2Sn7Pb
_chemical_formula_sum   'Cs6 Li2 Sn7 Pb1'
_cell_volume   669.03284895
_cell_formula_units_Z   1
loop_
 _symmetry_equiv_pos_site_id
 _symmetry_equiv_pos_as_xyz
  1  'x, y, z'
loop_
 _atom_site_type_symbol
 _atom_site_label
 _atom_site_symmetry_multiplicity
 _atom_site_fract_x
 _atom_site_fract_y
 _atom_site_fract_z
 _atom_site_occupancy
  Cs  Cs0  1  0.22199561  0.78219565  0.25000000  1
  Cs  Cs1  1  0.77606444  0.22019278  0.75000000  1
  Cs  Cs2  1  0.61640639  0.38579487  0.04526045  1
  Cs  Cs3  1  0.38638420  0.61646205  0.95916221  1
  Cs  Cs4  1  0.38638420  0.61646205  0.54083779  1
  Cs  Cs5  1  0.61640639  0.38579487  0.45473955  1
  Li  Li0  1  0.99742159  0.99636877  0.00275037  1
  Li  Li1  1  0.99742159  0.99636877  0.49724963  1
  Sn  Sn0  1  0.16723108  0.23085468  0.25000000  1
  Sn  Sn1  1  0.83156746  0.76818952  0.75000000  1
  Sn  Sn2  1  0.76802953  0.83354996  0.25000000  1
  Sn  Sn3  1  0.84263986  0.15978678  0.11418996  1
  Sn  Sn4  1  0.15389057  0.83546475  0.88580783  1
  Sn  Sn5  1  0.15389057  0.83546475  0.61419217  1
  Sn  Sn6  1  0.84263986  0.15978678  0.38581004  1
  Pb  Pb0  1  0.24162665  0.17726198  0.75000000  1
loop_
_geom_bond_atom_site_label_1
_geom_bond_atom_site_label_2
_geom_bond_distance
_geom_bond_site_symmetry_2
Cs0 Sn5 4.018726 1_555
Cs0 Sn4 4.018726 1_554
Cs0 Cs4 4.153463 1_555
Cs0 Cs3 4.153463 1_554
Cs0 Sn6 4.495534 1_565
Cs0 Sn3 4.495534 1_565
Cs0 Sn6 4.512699 1_455
Cs0 Sn3 4.512699 1_455
Cs0 Cs5 4.675603 1_565
Cs0 Cs2 4.675603 1_565
Cs0 Cs5 4.682469 1_455
Cs0 Cs2 4.682469 1_455
Cs1 Sn3 4.030480 1_556
Cs1 Sn6 4.030480 1_555
Cs1 Cs2 4.162315 1_556
Cs1 Cs5 4.162315 1_555
Cs1 Sn4 4.464561 1_655
Cs1 Sn5 4.464561 1_655
Cs1 Sn4 4.501817 1_545
Cs1 Sn5 4.501817 1_545
Cs1 Cs3 4.699498 1_545
Cs1 Cs4 4.699498 1_545
Cs1 Cs3 4.733610 1_655
Cs1 Cs4 4.733610 1_655
Cs2 Sn3 3.849959 1_555
Cs2 Cs3 3.957793 1_554
Cs2 Sn0 3.991745 1_555
Cs2 Sn2 3.996565 1_555
Cs2 Pb0 4.079191 1_554
Cs2 Sn1 4.113598 1_554
Cs2 Sn4 4.138546 1_654
Cs2 Li0 4.211382 1_555
Cs2 Sn4 4.227294 1_544
Cs2 Li0 4.261038 1_445
Cs2 Cs5 4.371772 1_555
Cs3 Sn4 3.853414 1_555
Cs3 Pb0 3.981750 1_555
Cs3 Sn1 3.998667 1_555
Cs3 Sn2 4.069572 1_556
Cs3 Sn0 4.090225 1_556
Cs3 Sn3 4.162540 1_566
Cs3 Sn3 4.162992 1_456
Cs3 Li0 4.210329 1_556
Cs3 Li0 4.276545 1_446
Cs3 Cs4 4.466208 1_555
Cs4 Sn5 3.853414 1_555
Cs4 Cs5 3.957793 1_555
Cs4 Pb0 3.981750 1_555
Cs4 Sn1 3.998667 1_555
Cs4 Sn2 4.069572 1_555
Cs4 Sn0 4.090225 1_555
Cs4 Sn6 4.162540 1_565
Cs4 Sn6 4.162992 1_455
Cs4 Li1 4.210329 1_555
Cs4 Li1 4.276545 1_445
Cs5 Sn6 3.849959 1_555
Cs5 Sn0 3.991745 1_555
Cs5 Sn2 3.996565 1_555
Cs5 Pb0 4.079191 1_555
Cs5 Sn1 4.113598 1_555
Cs5 Sn5 4.138546 1_655
Cs5 Li1 4.211382 1_555
Cs5 Sn5 4.227294 1_545
Cs5 Li1 4.261038 1_445
Li0 Sn3 2.913195 1_565
Li0 Sn4 2.931270 1_654
Li0 Sn2 3.072056 1_555
Li0 Sn0 3.092156 1_665
Li0 Sn1 3.120692 1_554
Li0 Pb0 3.177936 1_664
Li1 Sn6 2.913195 1_565
Li1 Sn5 2.931270 1_655
Li1 Sn2 3.072056 1_555
Li1 Sn0 3.092156 1_665
Li1 Sn1 3.120692 1_555
Li1 Pb0 3.177936 1_665
Sn0 Sn6 2.963083 1_455
Sn0 Sn3 2.963083 1_455
Sn0 Sn2 2.986624 1_445
Sn1 Sn4 2.960933 1_655
Sn1 Sn5 2.960933 1_655
Sn2 Sn6 2.965464 1_565
Sn2 Sn3 2.965464 1_565
Sn3 Sn6 2.899931 1_555
Sn4 Sn5 2.899883 1_555
Pb0 Sn4 3.035742 1_545
Pb0 Sn5 3.035742 1_545
Pb0 Sn1 3.071444 1_445
