# generated using pymatgen
data_Lu3Cu2Ni7
_symmetry_space_group_name_H-M   'P 1'
_cell_length_a   4.89958707
_cell_length_b   4.89958764
_cell_length_c   15.82960387
_cell_angle_alpha   90.00000000
_cell_angle_beta   90.00000000
_cell_angle_gamma   119.99999618
_symmetry_Int_Tables_number   1
_chemical_formula_structural   Lu3Cu2Ni7
_chemical_formula_sum   'Lu6 Cu4 Ni14'
_cell_volume   329.09380391
_cell_formula_units_Z   2
loop_
 _symmetry_equiv_pos_site_id
 _symmetry_equiv_pos_as_xyz
  1  'x, y, z'
loop_
 _atom_site_type_symbol
 _atom_site_label
 _atom_site_symmetry_multiplicity
 _atom_site_fract_x
 _atom_site_fract_y
 _atom_site_fract_z
 _atom_site_occupancy
  Lu  Lu0  1  0.33333300  0.66666700  0.54145875  1
  Lu  Lu1  1  0.66666700  0.33333300  0.04145875  1
  Lu  Lu2  1  0.66666700  0.33333300  0.45854125  1
  Lu  Lu3  1  0.33333300  0.66666700  0.95854125  1
  Lu  Lu4  1  0.33333300  0.66666700  0.75000000  1
  Lu  Lu5  1  0.66666700  0.33333300  0.25000000  1
  Cu  Cu0  1  0.33333300  0.66666700  0.25000000  1
  Cu  Cu1  1  0.66666700  0.33333300  0.75000000  1
  Cu  Cu2  1  0.00000000  0.00000000  0.25000000  1
  Cu  Cu3  1  0.00000000  0.00000000  0.75000000  1
  Ni  Ni0  1  0.00000000  0.00000000  0.00000000  1
  Ni  Ni1  1  0.00000000  0.00000000  0.50000000  1
  Ni  Ni2  1  0.16742506  0.33485111  0.12463656  1
  Ni  Ni3  1  0.83257494  0.66514889  0.62463656  1
  Ni  Ni4  1  0.66514889  0.83257494  0.12463656  1
  Ni  Ni5  1  0.16742506  0.83257494  0.12463656  1
  Ni  Ni6  1  0.83257494  0.16742506  0.62463656  1
  Ni  Ni7  1  0.33485111  0.16742506  0.62463656  1
  Ni  Ni8  1  0.83257494  0.66514889  0.87536344  1
  Ni  Ni9  1  0.83257494  0.16742506  0.87536344  1
  Ni  Ni10  1  0.33485111  0.16742506  0.87536344  1
  Ni  Ni11  1  0.66514889  0.83257494  0.37536344  1
  Ni  Ni12  1  0.16742506  0.83257494  0.37536344  1
  Ni  Ni13  1  0.16742506  0.33485111  0.37536344  1
loop_
_geom_bond_atom_site_label_1
_geom_bond_atom_site_label_2
_geom_bond_distance
_geom_bond_site_symmetry_2
Lu0 Ni3 2.781210 1_455
Lu0 Ni7 2.781210 1_565
Lu0 Ni6 2.781215 1_455
Lu0 Ni6 2.781215 1_565
Lu0 Ni3 2.781219 1_555
Lu0 Ni7 2.781219 1_555
Lu0 Ni1 2.903905 1_565
Lu0 Ni1 2.903910 1_665
Lu0 Ni1 2.903910 1_555
Lu0 Ni11 2.982472 1_555
Lu0 Ni12 2.982472 1_555
Lu0 Ni13 2.982472 1_555
Lu1 Ni2 2.781210 1_655
Lu1 Ni4 2.781210 1_545
Lu1 Ni5 2.781215 1_655
Lu1 Ni5 2.781215 1_545
Lu1 Ni2 2.781219 1_555
Lu1 Ni4 2.781219 1_555
Lu1 Ni0 2.903905 1_655
Lu1 Ni0 2.903910 1_555
Lu1 Ni0 2.903910 1_665
Lu1 Ni10 2.982472 1_554
Lu1 Ni9 2.982472 1_554
Lu1 Ni8 2.982472 1_554
Lu2 Ni13 2.781210 1_655
Lu2 Ni11 2.781210 1_545
Lu2 Ni12 2.781215 1_655
Lu2 Ni12 2.781215 1_545
Lu2 Ni13 2.781219 1_555
Lu2 Ni11 2.781219 1_555
Lu2 Ni1 2.903905 1_655
Lu2 Ni1 2.903910 1_555
Lu2 Ni1 2.903910 1_665
Lu2 Ni7 2.982472 1_555
Lu2 Ni6 2.982472 1_555
Lu2 Ni3 2.982472 1_555
Lu3 Ni8 2.781210 1_455
Lu3 Ni10 2.781210 1_565
Lu3 Ni9 2.781215 1_455
Lu3 Ni9 2.781215 1_565
Lu3 Ni8 2.781219 1_555
Lu3 Ni10 2.781219 1_555
Lu3 Ni0 2.903905 1_566
Lu3 Ni0 2.903910 1_666
Lu3 Ni0 2.903910 1_556
Lu3 Ni4 2.982472 1_556
Lu3 Ni5 2.982472 1_556
Lu3 Ni2 2.982472 1_556
Lu4 Ni8 3.152707 1_455
Lu4 Ni3 3.152707 1_455
Lu4 Ni10 3.152707 1_565
Lu4 Ni7 3.152707 1_565
Lu4 Ni9 3.152711 1_455
Lu4 Ni6 3.152711 1_455
Lu4 Ni9 3.152711 1_565
Lu4 Ni6 3.152711 1_565
Lu4 Ni8 3.152715 1_555
Lu4 Ni3 3.152715 1_555
Lu4 Ni10 3.152715 1_555
Lu4 Ni7 3.152715 1_555
Lu5 Ni13 3.152707 1_655
Lu5 Ni2 3.152707 1_655
Lu5 Ni11 3.152707 1_545
Lu5 Ni4 3.152707 1_545
Lu5 Ni12 3.152711 1_655
Lu5 Ni5 3.152711 1_655
Lu5 Ni12 3.152711 1_545
Lu5 Ni5 3.152711 1_545
Lu5 Ni13 3.152715 1_555
Lu5 Ni2 3.152715 1_555
Lu5 Ni11 3.152715 1_555
Lu5 Ni4 3.152715 1_555
Cu0 Ni11 2.433183 1_555
Cu0 Ni4 2.433183 1_555
Cu0 Ni12 2.433183 1_555
Cu0 Ni5 2.433183 1_555
Cu0 Ni13 2.433183 1_555
Cu0 Ni2 2.433183 1_555
Cu0 Lu5 2.828775 1_455
Cu0 Lu5 2.828776 1_565
Cu0 Lu5 2.828784 1_555
Cu1 Ni10 2.433183 1_555
Cu1 Ni7 2.433183 1_555
Cu1 Ni9 2.433183 1_555
Cu1 Ni6 2.433183 1_555
Cu1 Ni8 2.433183 1_555
Cu1 Ni3 2.433183 1_555
Cu1 Lu4 2.828775 1_655
Cu1 Lu4 2.828776 1_545
Cu1 Lu4 2.828784 1_555
Cu2 Ni12 2.440656 1_545
Cu2 Ni5 2.440656 1_545
Cu2 Ni11 2.440658 1_445
Cu2 Ni4 2.440658 1_445
Cu2 Ni13 2.440658 1_555
Cu2 Ni2 2.440658 1_555
Cu2 Lu5 2.828775 1_455
Cu2 Lu5 2.828779 1_555
Cu2 Lu5 2.828780 1_445
Cu3 Ni9 2.440656 1_455
Cu3 Ni6 2.440656 1_455
Cu3 Ni10 2.440658 1_555
Cu3 Ni7 2.440658 1_555
Cu3 Ni8 2.440658 1_445
Cu3 Ni3 2.440658 1_445
Cu3 Lu4 2.828775 1_545
Cu3 Lu4 2.828779 1_445
Cu3 Lu4 2.828780 1_555
Ni0 Ni5 2.431309 1_545
Ni0 Ni9 2.431309 1_454
Ni0 Ni4 2.431312 1_445
Ni0 Ni10 2.431312 1_554
Ni0 Ni2 2.431312 1_555
Ni0 Ni8 2.431312 1_444
Ni1 Ni6 2.431309 1_455
Ni1 Ni12 2.431309 1_545
Ni1 Ni7 2.431312 1_555
Ni1 Ni11 2.431312 1_445
Ni1 Ni3 2.431312 1_445
Ni1 Ni13 2.431312 1_555
Ni2 Ni4 2.438642 1_555
Ni2 Ni5 2.438642 1_555
Ni2 Ni5 2.460946 1_545
Ni2 Ni4 2.460946 1_445
Ni3 Ni7 2.438642 1_555
Ni3 Ni6 2.438642 1_555
Ni3 Ni6 2.460946 1_565
Ni3 Ni7 2.460946 1_665
Ni4 Ni5 2.438641 1_555
Ni4 Ni5 2.460946 1_655
Ni6 Ni7 2.438641 1_555
Ni6 Ni7 2.460946 1_655
Ni8 Ni9 2.438642 1_555
Ni8 Ni9 2.460946 1_565
Ni10 Ni9 2.438641 1_555
Ni10 Ni8 2.438642 1_555
Ni10 Ni9 2.460946 1_455
Ni10 Ni8 2.460946 1_445
Ni11 Ni12 2.438641 1_555
Ni11 Ni13 2.438642 1_555
Ni11 Ni12 2.460946 1_655
Ni11 Ni13 2.460946 1_665
Ni12 Ni13 2.438642 1_555
Ni12 Ni13 2.460946 1_565
