# generated using pymatgen
data_Lu12GaCo4Ru
_symmetry_space_group_name_H-M   'P 1'
_cell_length_a   7.98293035
_cell_length_b   7.98293144
_cell_length_c   7.98292964
_cell_angle_alpha   111.09438544
_cell_angle_beta   110.66430895
_cell_angle_gamma   106.69054259
_symmetry_Int_Tables_number   1
_chemical_formula_structural   Lu12GaCo4Ru
_chemical_formula_sum   'Lu12 Ga1 Co4 Ru1'
_cell_volume   390.92693929
_cell_formula_units_Z   1
loop_
 _symmetry_equiv_pos_site_id
 _symmetry_equiv_pos_as_xyz
  1  'x, y, z'
loop_
 _atom_site_type_symbol
 _atom_site_label
 _atom_site_symmetry_multiplicity
 _atom_site_fract_x
 _atom_site_fract_y
 _atom_site_fract_z
 _atom_site_occupancy
  Lu  Lu0  1  0.41933348  0.22485485  0.19447964  1
  Lu  Lu1  1  0.58066652  0.77514515  0.80552036  1
  Lu  Lu2  1  0.03037421  0.22485485  0.80552036  1
  Lu  Lu3  1  0.96962579  0.77514515  0.19447964  1
  Lu  Lu4  1  0.18469843  0.28109861  0.46579804  1
  Lu  Lu5  1  0.81530157  0.71890139  0.53420196  1
  Lu  Lu6  1  0.18469843  0.71890139  0.90359982  1
  Lu  Lu7  1  0.81530157  0.28109861  0.09640018  1
  Lu  Lu8  1  0.31465866  0.61746740  0.30280874  1
  Lu  Lu9  1  0.68534134  0.38253260  0.69719126  1
  Lu  Lu10  1  0.31465866  0.01184992  0.69719126  1
  Lu  Lu11  1  0.68534134  0.98815008  0.30280874  1
  Ga  Ga0  1  0.50000000  0.50000000  0.00000000  1
  Co  Co0  1  0.37637905  1.00000000  0.37637905  1
  Co  Co1  1  0.62362095  0.00000000  0.62362095  1
  Co  Co2  1  0.11221948  0.61221948  0.50000000  1
  Co  Co3  1  0.88778052  0.38778052  0.50000000  1
  Ru  Ru0  1  0.00000000  0.00000000  0.00000000  1
loop_
_geom_bond_atom_site_label_1
_geom_bond_atom_site_label_2
_geom_bond_distance
_geom_bond_site_symmetry_2
Lu0 Ru0 2.777181 1_555
Lu0 Lu9 3.318546 1_555
Lu0 Lu11 3.318551 1_545
Lu0 Lu4 3.323790 1_555
Lu0 Lu6 3.323791 1_544
Lu0 Lu8 3.366406 1_555
Lu0 Lu10 3.366413 1_554
Lu0 Lu5 3.462803 1_555
Lu0 Lu7 3.462808 1_555
Lu0 Lu2 3.532399 1_554
Lu1 Ru0 2.777181 1_666
Lu1 Lu8 3.318546 1_555
Lu1 Lu10 3.318551 1_565
Lu1 Lu5 3.323790 1_555
Lu1 Lu7 3.323791 1_566
Lu1 Lu9 3.366406 1_555
Lu1 Lu11 3.366413 1_556
Lu1 Lu4 3.462803 1_555
Lu1 Lu6 3.462808 1_555
Lu1 Lu3 3.532399 1_556
Lu2 Ru0 2.777186 1_556
Lu2 Lu9 3.318539 1_455
Lu2 Lu7 3.323784 1_456
Lu2 Lu5 3.323792 1_445
Lu2 Lu8 3.366411 1_556
Lu2 Lu4 3.462797 1_555
Lu2 Lu6 3.462800 1_555
Lu3 Ru0 2.777186 1_665
Lu3 Lu8 3.318539 1_655
Lu3 Lu6 3.323784 1_654
Lu3 Lu4 3.323792 1_665
Lu3 Lu9 3.366411 1_554
Lu3 Lu5 3.462797 1_555
Lu3 Lu7 3.462800 1_555
Lu4 Ru0 3.043024 1_555
Lu4 Lu7 3.354745 1_455
Lu4 Lu8 3.441954 1_555
Lu4 Lu9 3.448855 1_555
Lu5 Ru0 3.043024 1_666
Lu5 Lu6 3.354745 1_655
Lu5 Lu9 3.441954 1_555
Lu5 Lu8 3.448855 1_555
Lu6 Ru0 3.043018 1_566
Lu6 Lu9 3.441948 1_455
Lu6 Lu8 3.448855 1_556
Lu7 Ru0 3.043018 1_655
Lu7 Lu8 3.441948 1_655
Lu7 Lu9 3.448855 1_554
Lu10 Lu3 3.318543 1_445
Lu10 Lu2 3.366418 1_555
Lu10 Lu5 3.441946 1_445
Lu10 Lu6 3.441948 1_545
Lu10 Lu4 3.448851 1_555
Lu10 Lu7 3.448856 1_556
Lu11 Lu2 3.318543 1_665
Lu11 Lu3 3.366418 1_555
Lu11 Lu4 3.441946 1_665
Lu11 Lu7 3.441948 1_565
Lu11 Lu5 3.448851 1_555
Lu11 Lu6 3.448856 1_554
Ga0 Lu1 3.161834 1_554
Ga0 Lu0 3.161834 1_555
Ga0 Lu3 3.161839 1_555
Ga0 Lu2 3.161839 1_554
Ga0 Lu9 3.255976 1_554
Ga0 Lu8 3.255976 1_555
Ga0 Lu11 3.255977 1_555
Ga0 Lu10 3.255977 1_554
Ga0 Lu4 3.479750 1_554
Ga0 Lu5 3.479750 1_555
Ga0 Lu7 3.479756 1_555
Ga0 Lu6 3.479756 1_554
Co0 Co1 2.245369 1_565
Co0 Lu3 2.705959 1_455
Co0 Lu0 2.705964 1_565
Co0 Lu10 2.748366 1_565
Co0 Lu11 2.748366 1_555
Co0 Lu8 2.748367 1_555
Co0 Lu9 2.748367 1_565
Co0 Lu6 3.078425 1_554
Co0 Lu4 3.078426 1_565
Co1 Lu2 2.705959 1_655
Co1 Lu1 2.705964 1_545
Co1 Lu11 2.748366 1_545
Co1 Lu10 2.748366 1_555
Co1 Lu9 2.748367 1_555
Co1 Lu8 2.748367 1_545
Co1 Lu7 3.078425 1_556
Co1 Lu5 3.078426 1_545
Co2 Co3 2.139236 1_455
Co2 Lu8 2.625918 1_555
Co2 Lu10 2.625918 1_565
Co2 Lu5 2.804802 1_455
Co2 Lu6 2.804804 1_555
Co2 Lu7 2.804804 1_455
Co2 Lu4 2.804806 1_555
Co2 Lu3 3.179648 1_455
Co2 Lu1 3.179656 1_555
Co3 Lu9 2.625918 1_555
Co3 Lu11 2.625918 1_545
Co3 Lu4 2.804802 1_655
Co3 Lu7 2.804804 1_555
Co3 Lu6 2.804804 1_655
Co3 Lu5 2.804806 1_555
Co3 Lu2 3.179648 1_655
Co3 Lu0 3.179656 1_555
