# generated using pymatgen
data_Ba3(PO4)2
_symmetry_space_group_name_H-M   'P 1'
_cell_length_a   7.75507638
_cell_length_b   7.75507640
_cell_length_c   7.75507667
_cell_angle_alpha   42.56029693
_cell_angle_beta   42.56029433
_cell_angle_gamma   42.56029921
_symmetry_Int_Tables_number   1
_chemical_formula_structural   Ba3(PO4)2
_chemical_formula_sum   'Ba3 P2 O8'
_cell_volume   193.22076692
_cell_formula_units_Z   1
loop_
 _symmetry_equiv_pos_site_id
 _symmetry_equiv_pos_as_xyz
  1  'x, y, z'
loop_
 _atom_site_type_symbol
 _atom_site_label
 _atom_site_symmetry_multiplicity
 _atom_site_fract_x
 _atom_site_fract_y
 _atom_site_fract_z
 _atom_site_occupancy
  Ba  Ba0  1  0.20860842  0.20860842  0.20860842  1
  Ba  Ba1  1  0.79139158  0.79139158  0.79139158  1
  Ba  Ba2  1  -0.00000000  -0.00000000  0.00000000  1
  P  P0  1  0.40756573  0.40756573  0.40756573  1
  P  P1  1  0.59243427  0.59243427  0.59243427  1
  O  O0  1  0.28321752  0.28321752  0.73138672  1
  O  O1  1  0.28321752  0.73138672  0.28321752  1
  O  O2  1  0.73138672  0.28321752  0.28321752  1
  O  O3  1  0.26861328  0.71678248  0.71678248  1
  O  O4  1  0.71678248  0.71678248  0.26861328  1
  O  O5  1  0.66505849  0.66505849  0.66505849  1
  O  O6  1  0.33494151  0.33494151  0.33494151  1
  O  O7  1  0.71678248  0.26861328  0.71678248  1
loop_
_geom_bond_atom_site_label_1
_geom_bond_atom_site_label_2
_geom_bond_distance
_geom_bond_site_symmetry_2
Ba0 O6 2.668625 1_555
Ba0 O7 2.870371 1_554
Ba0 O7 2.870371 1_455
Ba0 O3 2.870371 1_554
Ba0 O3 2.870371 1_545
Ba0 O4 2.870371 1_455
Ba0 O4 2.870371 1_545
Ba0 O2 2.924104 1_455
Ba0 O1 2.924104 1_545
Ba0 O0 2.924104 1_554
Ba1 O5 2.668625 1_555
Ba1 O1 2.870371 1_556
Ba1 O1 2.870371 1_655
Ba1 O2 2.870371 1_556
Ba1 O2 2.870371 1_565
Ba1 O0 2.870371 1_655
Ba1 O0 2.870371 1_565
Ba1 O3 2.924104 1_655
Ba1 O7 2.924104 1_565
Ba1 O4 2.924104 1_556
Ba2 O4 2.759332 1_445
Ba2 O0 2.759332 1_554
Ba2 O3 2.759332 1_544
Ba2 O2 2.759332 1_455
Ba2 O1 2.759332 1_545
Ba2 O7 2.759332 1_454
Ba2 O5 3.250125 1_445
Ba2 O6 3.250125 1_554
Ba2 O5 3.250125 1_544
Ba2 O6 3.250125 1_455
Ba2 O5 3.250126 1_454
Ba2 O6 3.250126 1_545
O0 P0 1.549606 1_555
O1 P0 1.549606 1_555
O2 P0 1.549606 1_555
O3 P1 1.549606 1_555
O4 P1 1.549606 1_555
O5 P1 1.534094 1_555
O6 P0 1.534094 1_555
O7 P1 1.549606 1_555
