# generated using pymatgen
data_Ba6Sn8AsCl
_symmetry_space_group_name_H-M   'P 1'
_cell_length_a   9.16483319
_cell_length_b   9.16483471
_cell_length_c   9.25027123
_cell_angle_alpha   119.69493360
_cell_angle_beta   119.69493938
_cell_angle_gamma   90.00000910
_symmetry_Int_Tables_number   1
_chemical_formula_structural   Ba6Sn8AsCl
_chemical_formula_sum   'Ba6 Sn8 As1 Cl1'
_cell_volume   554.42790312
_cell_formula_units_Z   1
loop_
 _symmetry_equiv_pos_site_id
 _symmetry_equiv_pos_as_xyz
  1  'x, y, z'
loop_
 _atom_site_type_symbol
 _atom_site_label
 _atom_site_symmetry_multiplicity
 _atom_site_fract_x
 _atom_site_fract_y
 _atom_site_fract_z
 _atom_site_occupancy
  Ba  Ba0  1  0.24741245  0.24741245  0.49482490  1
  Ba  Ba1  1  0.75258755  0.75258755  0.50517510  1
  Ba  Ba2  1  0.67767607  0.16062233  0.00000000  1
  Ba  Ba3  1  0.32232393  0.83937767  1.00000000  1
  Ba  Ba4  1  0.83937767  0.67767607  1.00000000  1
  Ba  Ba5  1  0.16062233  0.32232393  0.00000000  1
  Sn  Sn0  1  0.33501911  0.83227474  0.38831561  1
  Sn  Sn1  1  0.66498089  0.16772526  0.61168439  1
  Sn  Sn2  1  0.05329650  0.55604187  0.38831561  1
  Sn  Sn3  1  0.55604187  0.33501911  0.38831561  1
  Sn  Sn4  1  0.16772526  0.94670350  0.61168439  1
  Sn  Sn5  1  0.94670350  0.44395813  0.61168439  1
  Sn  Sn6  1  0.44395813  0.66498089  0.61168439  1
  Sn  Sn7  1  0.83227474  0.05329650  0.38831561  1
  As  As0  1  0.00000000  0.00000000  0.00000000  1
  Cl  Cl0  1  0.50000000  0.50000000  0.00000000  1
loop_
_geom_bond_atom_site_label_1
_geom_bond_atom_site_label_2
_geom_bond_distance
_geom_bond_site_symmetry_2
Ba0 Cl0 3.334554 1_556
Ba0 Sn6 3.609833 1_555
Ba0 Sn5 3.609834 1_455
Ba0 Sn1 3.609837 1_555
Ba0 Sn4 3.609837 1_545
Ba0 Sn7 3.627768 1_455
Ba0 Sn0 3.627769 1_545
Ba0 Sn3 3.627776 1_555
Ba0 Sn2 3.627777 1_555
Ba1 Cl0 3.334554 1_555
Ba1 Sn3 3.609833 1_555
Ba1 Sn2 3.609834 1_655
Ba1 Sn0 3.609837 1_555
Ba1 Sn7 3.609837 1_565
Ba1 Sn4 3.627768 1_655
Ba1 Sn1 3.627769 1_565
Ba1 Sn6 3.627776 1_555
Ba1 Sn5 3.627777 1_555
Ba2 Cl0 3.510814 1_555
Ba2 Sn1 3.569036 1_554
Ba2 Sn2 3.569040 1_655
Ba2 Sn7 3.786267 1_555
Ba2 Sn6 3.786268 1_544
Ba2 Sn3 3.870275 1_555
Ba2 Sn4 3.870281 1_544
Ba2 Sn0 4.056919 1_544
Ba2 Sn5 4.056920 1_555
Ba3 Cl0 3.510814 1_556
Ba3 Sn0 3.569036 1_556
Ba3 Sn5 3.569040 1_455
Ba3 Sn4 3.786267 1_555
Ba3 Sn3 3.786268 1_566
Ba3 Sn6 3.870275 1_555
Ba3 Sn7 3.870281 1_566
Ba3 Sn1 4.056919 1_566
Ba3 Sn2 4.056920 1_555
Ba4 Cl0 3.510813 1_556
Ba4 Sn7 3.569036 1_566
Ba4 Sn6 3.569040 1_555
Ba4 Sn0 3.786266 1_656
Ba4 Sn5 3.786268 1_555
Ba4 Sn2 3.870275 1_656
Ba4 Sn1 3.870282 1_555
Ba4 Sn4 4.056919 1_656
Ba4 Sn3 4.056920 1_555
Ba5 Cl0 3.510813 1_555
Ba5 Sn4 3.569036 1_544
Ba5 Sn3 3.569040 1_555
Ba5 Sn1 3.786266 1_454
Ba5 Sn2 3.786268 1_555
Ba5 Sn5 3.870275 1_454
Ba5 Sn0 3.870282 1_555
Ba5 Sn7 4.056919 1_454
Ba5 Sn6 4.056920 1_555
Sn0 Sn4 2.951557 1_555
Sn0 Sn6 2.951557 1_555
Sn0 Sn1 3.222031 1_565
Sn1 Sn7 2.951557 1_555
Sn1 Sn3 2.951557 1_555
Sn2 Sn6 2.951549 1_555
Sn2 Sn4 2.951549 1_555
Sn2 Sn5 3.222043 1_455
Sn3 Sn5 2.951549 1_555
Sn3 Sn6 3.222043 1_555
Sn4 Sn7 3.222031 1_465
Sn5 Sn7 2.951549 1_555
As0 Ba0 3.266235 1_555
As0 Ba1 3.266235 1_444
As0 Ba5 3.300514 1_555
As0 Ba4 3.300514 1_444
As0 Ba2 3.300514 1_455
As0 Ba3 3.300514 1_544
