# generated using pymatgen
data_Hf18Nb5Re3Sb2
_symmetry_space_group_name_H-M   'P 1'
_cell_length_a   8.74364372
_cell_length_b   8.79778468
_cell_length_c   8.93115579
_cell_angle_alpha   90.00000000
_cell_angle_beta   90.00000000
_cell_angle_gamma   120.19935164
_symmetry_Int_Tables_number   1
_chemical_formula_structural   Hf18Nb5Re3Sb2
_chemical_formula_sum   'Hf18 Nb5 Re3 Sb2'
_cell_volume   593.78354488
_cell_formula_units_Z   1
loop_
 _symmetry_equiv_pos_site_id
 _symmetry_equiv_pos_as_xyz
  1  'x, y, z'
loop_
 _atom_site_type_symbol
 _atom_site_label
 _atom_site_symmetry_multiplicity
 _atom_site_fract_x
 _atom_site_fract_y
 _atom_site_fract_z
 _atom_site_occupancy
  Hf  Hf0  1  0.80632564  0.61372895  0.53938235  1
  Hf  Hf1  1  0.80623959  0.19277027  0.53937767  1
  Hf  Hf2  1  0.38365757  0.19174731  0.53560025  1
  Hf  Hf3  1  0.19207410  0.38301851  0.45606200  1
  Hf  Hf4  1  0.19208964  0.80888956  0.45608571  1
  Hf  Hf5  1  0.61631366  0.80821109  0.45848595  1
  Hf  Hf6  1  0.19207410  0.38301851  0.04393800  1
  Hf  Hf7  1  0.19208964  0.80888956  0.04391429  1
  Hf  Hf8  1  0.61631366  0.80821109  0.04151405  1
  Hf  Hf9  1  0.80632564  0.61372895  0.96061765  1
  Hf  Hf10  1  0.80623959  0.19277027  0.96062233  1
  Hf  Hf11  1  0.38365757  0.19174731  0.96439975  1
  Hf  Hf12  1  0.45946898  0.92009889  0.75000000  1
  Hf  Hf13  1  0.45940129  0.53946420  0.75000000  1
  Hf  Hf14  1  0.08056213  0.54027501  0.75000000  1
  Hf  Hf15  1  0.53774303  0.08123858  0.25000000  1
  Hf  Hf16  1  0.53781756  0.45640849  0.25000000  1
  Hf  Hf17  1  0.91869102  0.45935262  0.25000000  1
  Nb  Nb0  1  0.10985042  0.21971397  0.75000000  1
  Nb  Nb1  1  0.10985828  0.89010884  0.75000000  1
  Nb  Nb2  1  0.77989178  0.89000268  0.75000000  1
  Nb  Nb3  1  0.89540498  0.78372647  0.25000000  1
  Nb  Nb4  1  0.89539676  0.11163421  0.25000000  1
  Re  Re0  1  0.22425384  0.11207331  0.25000000  1
  Re  Re1  1  0.00020675  0.00007748  0.50056372  1
  Re  Re2  1  0.00020675  0.00007748  0.99943628  1
  Sb  Sb0  1  0.66410016  0.33228581  0.75000000  1
  Sb  Sb1  1  0.33374488  0.66673061  0.25000000  1
loop_
_geom_bond_atom_site_label_1
_geom_bond_atom_site_label_2
_geom_bond_distance
_geom_bond_site_symmetry_2
Hf0 Sb0 2.849226 1_555
Hf0 Nb3 2.889863 1_555
Hf0 Re1 2.958122 1_665
Hf0 Nb1 3.162634 1_655
Hf0 Nb2 3.172501 1_555
Hf1 Sb0 2.850327 1_555
Hf1 Nb4 2.890775 1_555
Hf1 Re1 2.960221 1_655
Hf1 Nb0 3.163687 1_655
Hf1 Nb2 3.173245 1_545
Hf2 Re0 2.820879 1_555
Hf2 Sb0 2.856224 1_555
Hf2 Re1 2.914569 1_555
Hf2 Nb1 3.170002 1_545
Hf2 Nb0 3.170381 1_555
Hf3 Sb1 2.835682 1_555
Hf3 Nb0 2.904067 1_555
Hf3 Re1 2.938839 1_555
Hf3 Nb4 3.096093 1_455
Hf3 Re0 3.134164 1_555
Hf4 Sb1 2.836273 1_555
Hf4 Nb1 2.904306 1_555
Hf4 Re1 2.939543 1_565
Hf4 Nb3 3.096514 1_455
Hf4 Re0 3.134790 1_565
Hf5 Sb1 2.833177 1_555
Hf5 Nb2 2.882115 1_555
Hf5 Re1 2.925305 1_665
Hf5 Nb4 3.161402 1_565
Hf5 Nb3 3.161849 1_555
Hf6 Sb1 2.835682 1_555
Hf6 Nb0 2.904067 1_554
Hf6 Re2 2.938839 1_554
Hf6 Nb4 3.096093 1_455
Hf6 Re0 3.134164 1_555
Hf7 Sb1 2.836273 1_555
Hf7 Nb1 2.904306 1_554
Hf7 Re2 2.939543 1_564
Hf7 Nb3 3.096514 1_455
Hf7 Re0 3.134790 1_565
Hf8 Sb1 2.833177 1_555
Hf8 Nb2 2.882115 1_554
Hf8 Re2 2.925305 1_664
Hf8 Nb4 3.161402 1_565
Hf8 Nb3 3.161849 1_555
Hf9 Sb0 2.849226 1_555
Hf9 Nb3 2.889863 1_556
Hf9 Re2 2.958122 1_665
Hf9 Nb1 3.162634 1_655
Hf9 Nb2 3.172501 1_555
Hf10 Sb0 2.850327 1_555
Hf10 Nb4 2.890775 1_556
Hf10 Re2 2.960221 1_655
Hf10 Nb0 3.163687 1_655
Hf10 Nb2 3.173245 1_545
Hf11 Re0 2.820879 1_556
Hf11 Sb0 2.856224 1_555
Hf11 Re2 2.914569 1_555
Hf11 Nb1 3.170002 1_545
Hf11 Nb0 3.170381 1_555
Hf12 Nb1 2.933032 1_555
Hf12 Nb2 2.943758 1_555
Hf12 Sb0 3.134362 1_565
Hf13 Nb0 2.933463 1_555
Hf13 Nb2 2.944381 1_555
Hf13 Sb0 3.131719 1_555
Hf14 Nb1 2.957213 1_555
Hf14 Nb0 2.957335 1_555
Hf14 Sb0 3.147187 1_455
Hf15 Re0 2.887029 1_555
Hf15 Nb4 3.001596 1_555
Hf15 Sb1 3.152224 1_545
Hf16 Re0 2.887630 1_555
Hf16 Nb3 3.001735 1_555
Hf16 Sb1 3.151078 1_555
Hf17 Nb3 2.961420 1_555
Hf17 Nb4 2.961936 1_555
Hf17 Sb1 3.136546 1_655
Nb0 Re1 2.784272 1_555
Nb0 Re2 2.784272 1_555
Nb0 Nb2 2.884196 1_445
Nb0 Nb1 2.899830 1_545
Nb1 Re1 2.784111 1_565
Nb1 Re2 2.784111 1_565
Nb1 Nb2 2.884640 1_455
Nb2 Re1 2.781154 1_665
Nb2 Re2 2.781154 1_665
Nb3 Re2 2.777738 1_664
Nb3 Re1 2.777738 1_665
Nb3 Re0 2.873366 1_665
Nb3 Nb4 2.884898 1_565
Nb4 Re2 2.777727 1_654
Nb4 Re1 2.777727 1_655
Nb4 Re0 2.873468 1_655
Re0 Re2 2.806153 1_554
Re0 Re1 2.806153 1_555
