# generated using pymatgen
data_NbTcSnRu
_symmetry_space_group_name_H-M   'P 1'
_cell_length_a   4.51379911
_cell_length_b   4.51379896
_cell_length_c   4.51379914
_cell_angle_alpha   60.00000587
_cell_angle_beta   60.00000696
_cell_angle_gamma   60.00000355
_symmetry_Int_Tables_number   1
_chemical_formula_structural   NbTcSnRu
_chemical_formula_sum   'Nb1 Tc1 Sn1 Ru1'
_cell_volume   65.02969599
_cell_formula_units_Z   1
loop_
 _symmetry_equiv_pos_site_id
 _symmetry_equiv_pos_as_xyz
  1  'x, y, z'
loop_
 _atom_site_type_symbol
 _atom_site_label
 _atom_site_symmetry_multiplicity
 _atom_site_fract_x
 _atom_site_fract_y
 _atom_site_fract_z
 _atom_site_occupancy
  Nb  Nb0  1  0.75000000  0.75000000  0.75000000  1
  Tc  Tc0  1  0.00000000  0.00000000  0.00000000  1
  Sn  Sn0  1  0.25000000  0.25000000  0.25000000  1
  Ru  Ru0  1  0.50000000  0.50000000  0.50000000  1
loop_
_geom_bond_atom_site_label_1
_geom_bond_atom_site_label_2
_geom_bond_distance
_geom_bond_site_symmetry_2
Nb0 Ru0 2.764126 1_555
Nb0 Tc0 2.764126 1_666
Nb0 Tc0 2.764126 1_656
Nb0 Ru0 2.764126 1_565
Nb0 Tc0 2.764126 1_566
Nb0 Ru0 2.764126 1_655
Nb0 Tc0 2.764126 1_665
Nb0 Ru0 2.764126 1_556
Nb0 Sn0 3.191738 1_566
Nb0 Sn0 3.191738 1_655
Nb0 Sn0 3.191738 1_565
Nb0 Sn0 3.191738 1_656
Nb0 Sn0 3.191738 1_665
Nb0 Sn0 3.191738 1_556
Sn0 Tc0 2.764126 1_555
Sn0 Tc0 2.764126 1_565
Sn0 Tc0 2.764126 1_655
Sn0 Tc0 2.764126 1_556
Ru0 Sn0 2.764126 1_555
Ru0 Sn0 2.764126 1_565
Ru0 Sn0 2.764126 1_655
Ru0 Sn0 2.764126 1_556
