# generated using pymatgen
data_Sr2AsBrO4
_symmetry_space_group_name_H-M   'P 1'
_cell_length_a   6.54853686
_cell_length_b   7.52269603
_cell_length_c   11.60409913
_cell_angle_alpha   90.00000000
_cell_angle_beta   90.00000000
_cell_angle_gamma   90.00000000
_symmetry_Int_Tables_number   1
_chemical_formula_structural   Sr2AsBrO4
_chemical_formula_sum   'Sr8 As4 Br4 O16'
_cell_volume   571.64869993
_cell_formula_units_Z   4
loop_
 _symmetry_equiv_pos_site_id
 _symmetry_equiv_pos_as_xyz
  1  'x, y, z'
loop_
 _atom_site_type_symbol
 _atom_site_label
 _atom_site_symmetry_multiplicity
 _atom_site_fract_x
 _atom_site_fract_y
 _atom_site_fract_z
 _atom_site_occupancy
  Sr  Sr0  1  0.62016527  0.25000000  0.00000000  1
  Sr  Sr1  1  0.37983473  0.75000000  0.00000000  1
  Sr  Sr2  1  0.37983473  0.75000000  0.50000000  1
  Sr  Sr3  1  0.62016527  0.25000000  0.50000000  1
  Sr  Sr4  1  0.11791917  0.02896373  0.25000000  1
  Sr  Sr5  1  0.88208083  0.97103627  0.75000000  1
  Sr  Sr6  1  0.88208083  0.52896373  0.25000000  1
  Sr  Sr7  1  0.11791917  0.47103627  0.75000000  1
  As  As0  1  0.12117020  0.25000000  0.00000000  1
  As  As1  1  0.87882980  0.75000000  0.00000000  1
  As  As2  1  0.87882980  0.75000000  0.50000000  1
  As  As3  1  0.12117020  0.25000000  0.50000000  1
  Br  Br0  1  0.44420275  0.36530706  0.25000000  1
  Br  Br1  1  0.55579725  0.63469294  0.75000000  1
  Br  Br2  1  0.55579725  0.86530706  0.25000000  1
  Br  Br3  1  0.44420275  0.13469294  0.75000000  1
  O  O0  1  0.03622047  0.76762755  0.11709237  1
  O  O1  1  0.96377953  0.23237245  0.88290763  1
  O  O2  1  0.96377953  0.23237245  0.61709237  1
  O  O3  1  0.96377953  0.26762755  0.38290763  1
  O  O4  1  0.03622047  0.76762755  0.38290763  1
  O  O5  1  0.03622047  0.73237245  0.61709237  1
  O  O6  1  0.03622047  0.73237245  0.88290763  1
  O  O7  1  0.96377953  0.26762755  0.11709237  1
  O  O8  1  0.27618720  0.07482977  0.02929797  1
  O  O9  1  0.72381280  0.92517023  0.97070203  1
  O  O10  1  0.72381280  0.92517023  0.52929797  1
  O  O11  1  0.72381280  0.57482977  0.47070203  1
  O  O12  1  0.27618720  0.07482977  0.47070203  1
  O  O13  1  0.27618720  0.42517023  0.52929797  1
  O  O14  1  0.27618720  0.42517023  0.97070203  1
  O  O15  1  0.72381280  0.57482977  0.02929797  1
loop_
_geom_bond_atom_site_label_1
_geom_bond_atom_site_label_2
_geom_bond_distance
_geom_bond_site_symmetry_2
As0 O14 1.697808 1_554
As0 O8 1.697808 1_555
As0 O7 1.710581 1_455
As0 O1 1.710581 1_454
As1 O9 1.697808 1_554
As1 O15 1.697808 1_555
As1 O0 1.710581 1_655
As1 O6 1.710581 1_654
As2 O10 1.697808 1_555
As2 O11 1.697808 1_555
As2 O5 1.710581 1_655
As2 O4 1.710581 1_655
As3 O13 1.697808 1_555
As3 O12 1.697808 1_555
As3 O2 1.710581 1_455
As3 O3 1.710581 1_455
Br0 Sr6 3.120583 1_555
Br0 Sr3 3.239776 1_555
Br0 Sr0 3.239776 1_555
Br0 Sr4 3.311700 1_555
Br1 Sr7 3.120583 1_555
Br1 Sr2 3.239776 1_555
Br1 Sr1 3.239776 1_556
Br1 Sr5 3.311700 1_555
Br2 Sr4 3.120583 1_565
Br2 Sr1 3.239776 1_555
Br2 Sr2 3.239776 1_555
Br2 Sr6 3.311700 1_555
Br3 Sr5 3.120583 1_545
Br3 Sr0 3.239776 1_556
Br3 Sr3 3.239776 1_555
Br3 Sr7 3.311700 1_555
O0 Sr4 2.555349 1_565
O0 Sr6 2.573114 1_455
O0 Sr1 2.631930 1_555
O1 Sr5 2.555349 1_545
O1 Sr7 2.573114 1_655
O1 Sr0 2.631930 1_556
O2 Sr5 2.555349 1_545
O2 Sr7 2.573114 1_655
O2 Sr3 2.631930 1_555
O3 Sr6 2.555349 1_555
O3 Sr4 2.573114 1_655
O3 Sr3 2.631930 1_555
O4 Sr4 2.555349 1_565
O4 Sr6 2.573114 1_455
O4 Sr2 2.631930 1_555
O5 Sr7 2.555349 1_555
O5 Sr5 2.573114 1_455
O5 Sr2 2.631930 1_555
O6 Sr7 2.555349 1_555
O6 Sr5 2.573114 1_455
O6 Sr1 2.631930 1_556
O7 Sr6 2.555349 1_555
O7 Sr4 2.573114 1_655
O7 Sr0 2.631930 1_555
O8 Sr1 2.558795 1_545
O8 Sr0 2.631739 1_555
O8 Sr4 2.784276 1_555
O9 Sr0 2.558795 1_566
O9 Sr1 2.631739 1_556
O9 Sr5 2.784276 1_555
O10 Sr3 2.558795 1_565
O10 Sr2 2.631739 1_555
O10 Sr5 2.784276 1_555
O11 Sr3 2.558795 1_555
O11 Sr2 2.631739 1_555
O11 Sr6 2.784276 1_555
O12 Sr2 2.558795 1_545
O12 Sr3 2.631739 1_555
O12 Sr4 2.784276 1_555
O13 Sr2 2.558795 1_555
O13 Sr3 2.631739 1_555
O13 Sr7 2.784276 1_555
O14 Sr1 2.558795 1_556
O14 Sr0 2.631739 1_556
O14 Sr7 2.784276 1_555
O15 Sr0 2.558795 1_555
O15 Sr1 2.631739 1_555
O15 Sr6 2.784276 1_555
