# generated using pymatgen
data_Na4Al11InSe20
_symmetry_space_group_name_H-M   'P 1'
_cell_length_a   9.70394337
_cell_length_b   9.67791007
_cell_length_c   9.75326905
_cell_angle_alpha   90.92354310
_cell_angle_beta   90.80015471
_cell_angle_gamma   90.44099826
_symmetry_Int_Tables_number   1
_chemical_formula_structural   Na4Al11InSe20
_chemical_formula_sum   'Na4 Al11 In1 Se20'
_cell_volume   915.73040317
_cell_formula_units_Z   1
loop_
 _symmetry_equiv_pos_site_id
 _symmetry_equiv_pos_as_xyz
  1  'x, y, z'
loop_
 _atom_site_type_symbol
 _atom_site_label
 _atom_site_symmetry_multiplicity
 _atom_site_fract_x
 _atom_site_fract_y
 _atom_site_fract_z
 _atom_site_occupancy
  Na  Na0  1  0.26199818  0.00264581  0.74008318  1
  Na  Na1  1  0.74363799  0.25503068  0.99922879  1
  Na  Na2  1  0.99915498  0.74303393  0.25014655  1
  Na  Na3  1  0.49932158  0.49974215  0.49949760  1
  Al  Al0  1  0.56989777  0.83598500  0.88362298  1
  Al  Al1  1  0.87889781  0.57227106  0.84457194  1
  Al  Al2  1  0.16277743  0.42782478  0.12028597  1
  Al  Al3  1  0.12525874  0.16398516  0.42547607  1
  Al  Al4  1  0.42881841  0.12119282  0.16144112  1
  Al  Al5  1  0.74160161  0.16535192  0.34813058  1
  Al  Al6  1  0.34422677  0.74512906  0.16411770  1
  Al  Al7  1  0.16131313  0.34797590  0.74368597  1
  Al  Al8  1  0.25529739  0.65414180  0.83768196  1
  Al  Al9  1  0.83446076  0.25911071  0.65164275  1
  Al  Al10  1  0.65134595  0.83243058  0.25418277  1
  In  In0  1  0.84451480  0.87566406  0.57431634  1
  Se  Se0  1  0.18100325  0.81977298  0.00002986  1
  Se  Se1  1  0.81631062  0.99790466  0.18736216  1
  Se  Se2  1  0.18295616  0.18246266  0.18023471  1
  Se  Se3  1  0.81795491  0.81819501  0.83789465  1
  Se  Se4  1  0.99918469  0.18031737  0.81249391  1
  Se  Se5  1  0.92972905  0.49555160  0.07227836  1
  Se  Se6  1  0.09161791  0.92817870  0.49021004  1
  Se  Se7  1  0.49980530  0.06985627  0.93093708  1
  Se  Se8  1  0.74370281  0.68130157  0.41705477  1
  Se  Se9  1  0.43050882  0.74507173  0.69917035  1
  Se  Se10  1  0.69717728  0.43372408  0.74809915  1
  Se  Se11  1  0.25230489  0.57097697  0.30248252  1
  Se  Se12  1  0.30370353  0.25986819  0.57000824  1
  Se  Se13  1  0.56955179  0.30550561  0.25133997  1
  Se  Se14  1  0.67068501  0.08377157  0.57191289  1
  Se  Se15  1  0.56721620  0.67682423  0.07272683  1
  Se  Se16  1  0.06911664  0.57488193  0.68434438  1
  Se  Se17  1  0.31790859  0.42774018  0.92657689  1
  Se  Se18  1  0.92832553  0.31821868  0.42795094  1
  Se  Se19  1  0.42871272  0.92836057  0.31877804  1
loop_
_geom_bond_atom_site_label_1
_geom_bond_atom_site_label_2
_geom_bond_distance
_geom_bond_site_symmetry_2
Na0 Se6 3.000808 1_545
Na0 Se7 3.005212 1_555
Na0 Se9 3.015960 1_545
Na0 Se12 3.041168 1_555
Na0 Se4 3.168320 1_455
Na0 Se0 3.218202 1_546
Na1 Se5 3.005472 1_556
Na1 Se7 3.017634 1_555
Na1 Se13 3.037872 1_556
Na1 Se10 3.051388 1_555
Na1 Se4 3.178148 1_555
Na1 Se1 3.192906 1_546
Na2 Se5 3.001422 1_555
Na2 Se11 3.020477 1_655
Na2 Se8 3.045188 1_555
Na2 Se6 3.046173 1_655
Na2 Se1 3.113369 1_555
Na2 Se0 3.126490 1_655
Na3 Se8 3.064719 1_555
Na3 Se12 3.079888 1_555
Na3 Se13 3.126552 1_555
Na3 Se9 3.128477 1_555
Na3 Se11 3.138929 1_555
Na3 Se10 3.148397 1_555
Al0 Se9 2.388069 1_555
Al0 Se7 2.407757 1_565
Al0 Se15 2.422268 1_556
Al0 Se3 2.461044 1_555
Al1 Se10 2.381049 1_555
Al1 Se5 2.398980 1_556
Al1 Se16 2.435400 1_655
Al1 Se3 2.458477 1_555
Al2 Se11 2.385560 1_555
Al2 Se5 2.401318 1_455
Al2 Se17 2.432083 1_554
Al2 Se2 2.463254 1_555
Al3 Se12 2.389906 1_555
Al3 Se6 2.398744 1_545
Al3 Se18 2.434066 1_455
Al3 Se2 2.473119 1_555
Al4 Se13 2.386271 1_555
Al4 Se7 2.405854 1_554
Al4 Se19 2.435144 1_545
Al4 Se2 2.471415 1_555
Al5 Se13 2.355959 1_555
Al5 Se1 2.361850 1_545
Al5 Se14 2.439232 1_555
Al5 Se18 2.441351 1_555
Al6 Se11 2.354000 1_555
Al6 Se0 2.361350 1_555
Al6 Se19 2.439055 1_555
Al6 Se15 2.443515 1_555
Al7 Se12 2.354284 1_555
Al7 Se4 2.362981 1_455
Al7 Se17 2.439017 1_555
Al7 Se16 2.452443 1_555
Al8 Se0 2.358884 1_556
Al8 Se9 2.360027 1_555
Al8 Se16 2.440365 1_555
Al8 Se17 2.447198 1_555
Al9 Se10 2.352428 1_555
Al9 Se4 2.363282 1_555
Al9 Se14 2.427229 1_555
Al9 Se18 2.450416 1_555
Al10 Se8 2.349726 1_555
Al10 Se1 2.361200 1_555
Al10 Se15 2.433376 1_555
Al10 Se19 2.444647 1_555
In0 Se8 2.585462 1_555
In0 Se6 2.594346 1_655
In0 Se14 2.637244 1_565
In0 Se3 2.654602 1_555
