# generated using pymatgen
data_Ba2BeP2
_symmetry_space_group_name_H-M   'P 1'
_cell_length_a   7.99343741
_cell_length_b   7.99343604
_cell_length_c   7.99343655
_cell_angle_alpha   130.28035771
_cell_angle_beta   69.53375740
_cell_angle_gamma   134.67842573
_symmetry_Int_Tables_number   1
_chemical_formula_structural   Ba2BeP2
_chemical_formula_sum   'Ba4 Be2 P4'
_cell_volume   271.82522145
_cell_formula_units_Z   2
loop_
 _symmetry_equiv_pos_site_id
 _symmetry_equiv_pos_as_xyz
  1  'x, y, z'
loop_
 _atom_site_type_symbol
 _atom_site_label
 _atom_site_symmetry_multiplicity
 _atom_site_fract_x
 _atom_site_fract_y
 _atom_site_fract_z
 _atom_site_occupancy
  Ba  Ba0  1  0.86082535  0.30340299  0.16422835  1
  Ba  Ba1  1  0.63917565  0.80340299  0.44257864  1
  Ba  Ba2  1  0.36082535  0.19659701  0.55742236  1
  Ba  Ba3  1  0.13917465  0.69659701  0.83577265  1
  Be  Be0  1  0.25000000  0.25000000  0.00000000  1
  Be  Be1  1  0.75000000  0.75000000  0.00000000  1
  P  P0  1  0.40293896  0.68019009  0.08312705  1
  P  P1  1  0.09706104  0.18019009  0.27725113  1
  P  P2  1  0.90293896  0.81981091  0.72274987  1
  P  P3  1  0.59706104  0.31981091  0.91687295  1
loop_
_geom_bond_atom_site_label_1
_geom_bond_atom_site_label_2
_geom_bond_distance
_geom_bond_site_symmetry_2
Ba0 Be1 3.141636 1_545
Ba0 Be0 3.141636 1_655
Ba0 P1 3.211071 1_655
Ba0 P0 3.236657 1_545
Ba0 P0 3.236669 1_655
Ba0 P2 3.296884 1_544
Ba0 P3 3.465734 1_554
Ba0 P2 3.514504 1_555
Ba1 Be1 3.141643 1_555
Ba1 Be0 3.141644 1_555
Ba1 P0 3.211098 1_555
Ba1 P1 3.236666 1_665
Ba1 P1 3.236666 1_555
Ba1 P3 3.296882 1_554
Ba1 P2 3.465727 1_555
Ba1 P3 3.514509 1_565
Ba2 Be0 3.141636 1_556
Ba2 Be1 3.141637 1_556
Ba2 P3 3.211080 1_555
Ba2 P2 3.236665 1_445
Ba2 P2 3.236666 1_555
Ba2 P0 3.296882 1_556
Ba2 P1 3.465740 1_555
Ba2 P0 3.514502 1_545
Ba3 Be1 3.141636 1_456
Ba3 Be0 3.141639 1_566
Ba3 P2 3.211078 1_455
Ba3 P3 3.236665 1_565
Ba3 P3 3.236665 1_455
Ba3 P1 3.296888 1_566
Ba3 P0 3.465721 1_556
Ba3 P1 3.514502 1_555
Be0 P3 2.337202 1_554
Be0 P2 2.337203 1_444
Be0 P1 2.337206 1_555
Be0 P0 2.337214 1_555
Be1 P2 2.337202 1_554
Be1 P0 2.337206 1_555
Be1 P3 2.337206 1_554
Be1 P1 2.337207 1_665
