# generated using pymatgen
data_Cs4ScWBr12
_symmetry_space_group_name_H-M   'P 1'
_cell_length_a   7.72394438
_cell_length_b   7.73351439
_cell_length_c   10.97985694
_cell_angle_alpha   90.00000000
_cell_angle_beta   90.00000000
_cell_angle_gamma   89.62621064
_symmetry_Int_Tables_number   1
_chemical_formula_structural   Cs4ScWBr12
_chemical_formula_sum   'Cs4 Sc1 W1 Br12'
_cell_volume   655.84841713
_cell_formula_units_Z   1
loop_
 _symmetry_equiv_pos_site_id
 _symmetry_equiv_pos_as_xyz
  1  'x, y, z'
loop_
 _atom_site_type_symbol
 _atom_site_label
 _atom_site_symmetry_multiplicity
 _atom_site_fract_x
 _atom_site_fract_y
 _atom_site_fract_z
 _atom_site_occupancy
  Cs  Cs0  1  0.50000000  0.00000000  0.77385964  1
  Cs  Cs1  1  0.00000000  0.50000000  0.22528785  1
  Cs  Cs2  1  0.50000000  0.00000000  0.22614036  1
  Cs  Cs3  1  0.00000000  0.50000000  0.77471215  1
  Sc  Sc0  1  0.00000000  0.00000000  0.00000000  1
  W  W0  1  0.50000000  0.50000000  0.50000000  1
  Br  Br0  1  0.00000000  0.00000000  0.75526022  1
  Br  Br1  1  0.50000000  0.50000000  0.27100949  1
  Br  Br2  1  0.72703292  0.72949092  0.50000000  1
  Br  Br3  1  0.24316968  0.24182590  0.00000000  1
  Br  Br4  1  0.72848000  0.27011846  0.50000000  1
  Br  Br5  1  0.24427038  0.75636940  0.00000000  1
  Br  Br6  1  0.00000000  0.00000000  0.24473978  1
  Br  Br7  1  0.50000000  0.50000000  0.72899051  1
  Br  Br8  1  0.27296708  0.27050908  0.50000000  1
  Br  Br9  1  0.75683032  0.75817410  0.00000000  1
  Br  Br10  1  0.27152000  0.72988154  0.50000000  1
  Br  Br11  1  0.75572962  0.24363060  0.00000000  1
loop_
_geom_bond_atom_site_label_1
_geom_bond_atom_site_label_2
_geom_bond_distance
_geom_bond_site_symmetry_2
Br0 Sc0 2.687208 1_556
Br0 Cs0 3.867368 1_555
Br0 Cs0 3.867368 1_455
Br0 Cs3 3.872651 1_545
Br0 Cs3 3.872651 1_555
Br1 W0 2.514283 1_555
Br1 Cs1 3.894464 1_655
Br1 Cs1 3.894464 1_555
Br1 Cs2 3.898015 1_555
Br1 Cs2 3.898015 1_565
Br2 W0 2.503097 1_555
Br2 Cs0 4.055281 1_565
Br2 Cs2 4.055281 1_565
Br2 Cs3 4.079747 1_655
Br2 Cs1 4.079747 1_655
Br3 Sc0 2.659152 1_555
Br3 Cs2 3.680975 1_555
Br3 Cs0 3.680975 1_554
Br3 Cs1 3.685653 1_555
Br3 Cs3 3.685653 1_554
Br4 W0 2.496800 1_555
Br4 Cs0 4.070376 1_555
Br4 Cs2 4.070376 1_555
Br4 Cs3 4.087240 1_655
Br4 Cs1 4.087240 1_655
Br5 Sc0 2.657684 1_565
Br5 Cs1 3.695706 1_555
Br5 Cs3 3.695706 1_554
Br5 Cs2 3.696658 1_565
Br5 Cs0 3.696658 1_564
Br6 Sc0 2.687208 1_555
Br6 Cs2 3.867368 1_455
Br6 Cs2 3.867368 1_555
Br6 Cs1 3.872651 1_555
Br6 Cs1 3.872651 1_545
Br7 W0 2.514283 1_555
Br7 Cs3 3.894464 1_555
Br7 Cs3 3.894464 1_655
Br7 Cs0 3.898015 1_565
Br7 Cs0 3.898015 1_555
Br8 W0 2.503097 1_555
Br8 Cs0 4.055281 1_555
Br8 Cs2 4.055281 1_555
Br8 Cs3 4.079747 1_555
Br8 Cs1 4.079747 1_555
Br9 Sc0 2.659152 1_665
Br9 Cs2 3.680975 1_565
Br9 Cs0 3.680975 1_564
Br9 Cs1 3.685653 1_655
Br9 Cs3 3.685653 1_654
Br10 W0 2.496800 1_555
Br10 Cs0 4.070376 1_565
Br10 Cs2 4.070376 1_565
Br10 Cs3 4.087240 1_555
Br10 Cs1 4.087240 1_555
Br11 Sc0 2.657684 1_655
Br11 Cs1 3.695706 1_655
Br11 Cs3 3.695706 1_654
Br11 Cs2 3.696658 1_555
Br11 Cs0 3.696658 1_554
