# generated using pymatgen
data_FeH7C3NO7
_symmetry_space_group_name_H-M   'P 1'
_cell_length_a   7.63359809
_cell_length_b   7.85053500
_cell_length_c   12.85440177
_cell_angle_alpha   90.00000000
_cell_angle_beta   90.00000000
_cell_angle_gamma   89.99996281
_symmetry_Int_Tables_number   1
_chemical_formula_structural   FeH7C3NO7
_chemical_formula_sum   'Fe4 H28 C12 N4 O28'
_cell_volume   770.33639035
_cell_formula_units_Z   4
loop_
 _symmetry_equiv_pos_site_id
 _symmetry_equiv_pos_as_xyz
  1  'x, y, z'
loop_
 _atom_site_type_symbol
 _atom_site_label
 _atom_site_symmetry_multiplicity
 _atom_site_fract_x
 _atom_site_fract_y
 _atom_site_fract_z
 _atom_site_occupancy
  Fe  Fe0  1  0.56152669  0.49221194  0.08587590  1
  Fe  Fe1  1  0.93847331  0.50778806  0.58587590  1
  Fe  Fe2  1  0.43847429  0.99221194  0.41412511  1
  Fe  Fe3  1  0.06152571  0.00778805  0.91412511  1
  H  H0  1  0.54083323  0.14763399  0.21627876  1
  H  H1  1  0.95916677  0.85236602  0.71627874  1
  H  H2  1  0.45916680  0.64763499  0.28372224  1
  H  H3  1  0.04083320  0.35236501  0.78372227  1
  H  H4  1  0.40891771  0.81416984  0.96333775  1
  H  H5  1  0.09108229  0.18582918  0.46333775  1
  H  H6  1  0.59108131  0.31416882  0.53666225  1
  H  H7  1  0.90891869  0.68583118  0.03666226  1
  H  H8  1  0.22450617  0.30900172  0.02604594  1
  H  H9  1  0.27549383  0.69099828  0.52604592  1
  H  H10  1  0.77549380  0.80900470  0.47395405  1
  H  H11  1  0.72450620  0.19099530  0.97395408  1
  H  H12  1  0.21025076  0.45725883  0.21270909  1
  H  H13  1  0.28974924  0.54274117  0.71270910  1
  H  H14  1  0.78975022  0.95726079  0.28729093  1
  H  H15  1  0.71024978  0.04273918  0.78729090  1
  H  H16  1  0.09061595  0.25601125  0.27920776  1
  H  H17  1  0.40938506  0.74398875  0.77920776  1
  H  H18  1  0.90938604  0.75601525  0.22079124  1
  H  H19  1  0.59061396  0.24398474  0.72079123  1
  H  H20  1  0.90750563  0.32204060  0.21245538  1
  H  H21  1  0.59249437  0.67795937  0.71245536  1
  H  H22  1  0.09249435  0.82204159  0.28754363  1
  H  H23  1  0.40750566  0.17795838  0.78754363  1
  H  H24  1  0.94062727  0.38195798  0.33894191  1
  H  H25  1  0.55937273  0.61804202  0.83894188  1
  H  H26  1  0.05937172  0.88196096  0.16105809  1
  H  H27  1  0.44062828  0.11803902  0.66105812  1
  C  C0  1  0.41830062  0.21472821  0.23390997  1
  C  C1  1  0.08169939  0.78527179  0.73390995  1
  C  C2  1  0.58169837  0.71472922  0.26609103  1
  C  C3  1  0.91830163  0.28527078  0.76609106  1
  C  C4  1  0.31863471  0.78354442  0.02754184  1
  C  C5  1  0.18136531  0.21645557  0.52754085  1
  C  C6  1  0.68136732  0.28354442  0.47245817  1
  C  C7  1  0.81863268  0.71645558  0.97245814  1
  C  C8  1  0.31330613  0.28323528  0.96053955  1
  C  C9  1  0.18669386  0.71676475  0.46053952  1
  C  C10  1  0.68669489  0.78323430  0.53946248  1
  C  C11  1  0.81330511  0.21676572  0.03946247  1
  N  N0  1  0.00118412  0.35446536  0.26847430  1
  N  N1  1  0.49881588  0.64553461  0.76847427  1
  N  N2  1  0.99881488  0.85446539  0.23152570  1
  N  N3  1  0.50118511  0.14553463  0.73152573  1
  O  O0  1  0.39627267  0.35985456  0.19251645  1
  O  O1  1  0.10372735  0.64014541  0.69251647  1
  O  O2  1  0.60372435  0.85985858  0.30748356  1
  O  O3  1  0.89627565  0.14014143  0.80748353  1
  O  O4  1  0.30873326  0.14472331  0.29411741  1
  O  O5  1  0.19126672  0.85527669  0.79411839  1
  O  O6  1  0.69126674  0.64472432  0.20588359  1
  O  O7  1  0.80873326  0.35527470  0.70588358  1
  O  O8  1  0.35836949  0.66506066  0.08888919  1
  O  O9  1  0.14163053  0.33493931  0.58888917  1
  O  O10  1  0.64162855  0.16505768  0.41110982  1
  O  O11  1  0.85837145  0.83494232  0.91110982  1
  O  O12  1  0.18059771  0.87226343  0.03565484  1
  O  O13  1  0.31940228  0.12773659  0.53565483  1
  O  O14  1  0.81940329  0.37226042  0.46434416  1
  O  O15  1  0.68059671  0.62773955  0.96434416  1
  O  O16  1  0.46201848  0.35047571  0.95864977  1
  O  O17  1  0.03798152  0.64952429  0.45864974  1
  O  O18  1  0.53797854  0.85047774  0.54135124  1
  O  O19  1  0.96202146  0.14952229  0.04135125  1
  O  O20  1  0.25755358  0.18373315  0.88947644  1
  O  O21  1  0.24244642  0.81626685  0.38947641  1
  O  O22  1  0.74244639  0.68373917  0.61052254  1
  O  O23  1  0.75755361  0.31626086  0.11052257  1
  O  O24  1  0.09095076  0.50080863  0.23187643  1
  O  O25  1  0.40904925  0.49919134  0.73187644  1
  O  O26  1  0.90904827  0.00081063  0.26812359  1
  O  O27  1  0.59095173  0.99918937  0.76812356  1
loop_
_geom_bond_atom_site_label_1
_geom_bond_atom_site_label_2
_geom_bond_distance
_geom_bond_site_symmetry_2
Fe0 O23 2.060964 1_555
Fe0 O8 2.061036 1_555
Fe0 O15 2.097309 1_554
Fe0 O16 2.118891 1_554
Fe0 O0 2.133100 1_555
Fe0 O6 2.189542 1_555
Fe1 O22 2.060964 1_555
Fe1 O9 2.061036 1_655
Fe1 O14 2.097309 1_555
Fe1 O17 2.118891 1_655
Fe1 O1 2.133100 1_655
Fe1 O7 2.189546 1_555
Fe2 O21 2.060943 1_555
Fe2 O10 2.061005 1_565
Fe2 O13 2.097284 1_565
Fe2 O18 2.118871 1_555
Fe2 O2 2.133074 1_555
Fe2 O4 2.189541 1_565
Fe3 O20 2.060943 1_555
Fe3 O11 2.061005 1_445
Fe3 O12 2.097284 1_546
Fe3 O19 2.118872 1_456
Fe3 O3 2.133074 1_455
Fe3 O5 2.189532 1_545
H12 O24 1.003467 1_555
H12 O0 1.633569 1_555
H13 O25 1.003467 1_555
H13 O1 1.633569 1_555
H14 O26 1.003454 1_565
H14 O2 1.633589 1_555
H15 O27 1.003454 1_545
H15 O3 1.633589 1_555
H16 N0 1.040432 1_555
H17 N1 1.040427 1_555
H18 N2 1.040396 1_555
H19 N3 1.040396 1_555
H20 N0 1.046279 1_655
H20 O23 1.740455 1_555
H21 N1 1.046279 1_555
H21 O22 1.740455 1_555
H22 N2 1.046273 1_455
H22 O21 1.740454 1_555
H23 N3 1.046273 1_555
H23 O20 1.740454 1_555
H24 N0 1.039607 1_655
H25 N1 1.039606 1_555
H26 N2 1.039611 1_455
H27 N3 1.039611 1_555
C0 H0 1.097138 1_555
C0 O4 1.265131 1_555
C0 O0 1.268638 1_555
C1 H1 1.097138 1_455
C1 O5 1.265139 1_555
C1 O1 1.268638 1_555
C2 H2 1.097132 1_555
C2 O6 1.265136 1_555
C2 O2 1.268652 1_555
C3 H3 1.097132 1_655
C3 O7 1.265133 1_555
C3 O3 1.268652 1_555
C4 H4 1.101775 1_554
C4 O8 1.256609 1_555
C4 O12 1.267399 1_555
C5 H5 1.101767 1_555
C5 O9 1.256616 1_555
C5 O13 1.267399 1_555
C6 H6 1.101787 1_555
C6 O10 1.256642 1_555
C6 O14 1.267381 1_555
C7 H7 1.101788 1_556
C7 O11 1.256642 1_555
C7 O15 1.267381 1_555
C8 H8 1.099753 1_556
C8 O16 1.252176 1_555
C8 O20 1.275049 1_555
C9 H9 1.099753 1_555
C9 O17 1.252176 1_555
C9 O21 1.275049 1_555
C10 H10 1.099774 1_555
C10 O18 1.252212 1_555
C10 O22 1.274985 1_555
C11 H11 1.099773 1_554
C11 O19 1.252212 1_555
C11 O23 1.274985 1_555
N0 O24 1.418021 1_555
N1 O25 1.418021 1_555
N2 O26 1.418033 1_565
N3 O27 1.418033 1_545
