# generated using pymatgen
data_Tb(IO3)3
_symmetry_space_group_name_H-M   'P 1'
_cell_length_a   7.06030983
_cell_length_b   8.44759540
_cell_length_c   13.29136416
_cell_angle_alpha   90.00000000
_cell_angle_beta   99.81106886
_cell_angle_gamma   90.00000000
_symmetry_Int_Tables_number   1
_chemical_formula_structural   Tb(IO3)3
_chemical_formula_sum   'Tb4 I12 O36'
_cell_volume   781.13835108
_cell_formula_units_Z   4
loop_
 _symmetry_equiv_pos_site_id
 _symmetry_equiv_pos_as_xyz
  1  'x, y, z'
loop_
 _atom_site_type_symbol
 _atom_site_label
 _atom_site_symmetry_multiplicity
 _atom_site_fract_x
 _atom_site_fract_y
 _atom_site_fract_z
 _atom_site_occupancy
  Tb  Tb0  1  0.67314920  0.24262396  0.64506301  1
  Tb  Tb1  1  0.32685080  0.74262396  0.85493699  1
  Tb  Tb2  1  0.32685080  0.75737604  0.35493699  1
  Tb  Tb3  1  0.67314920  0.25737604  0.14506301  1
  I  I0  1  0.66709207  0.70912696  0.61246447  1
  I  I1  1  0.33290793  0.20912696  0.88753553  1
  I  I2  1  0.33290793  0.29087304  0.38753553  1
  I  I3  1  0.66709207  0.79087304  0.11246447  1
  I  I4  1  0.77082796  0.48036388  0.88914961  1
  I  I5  1  0.22917204  0.98036388  0.61085039  1
  I  I6  1  0.22917204  0.51963612  0.11085039  1
  I  I7  1  0.77082796  0.01963612  0.38914961  1
  I  I8  1  0.83054551  0.95899024  0.85875471  1
  I  I9  1  0.16945449  0.45899024  0.64124529  1
  I  I10  1  0.16945449  0.04100976  0.14124529  1
  I  I11  1  0.83054551  0.54100976  0.35875471  1
  O  O0  1  0.65473265  0.52645566  0.68341197  1
  O  O1  1  0.34526735  0.02645566  0.81658803  1
  O  O2  1  0.34526735  0.47354434  0.31658803  1
  O  O3  1  0.65473265  0.97354434  0.18341197  1
  O  O4  1  0.86634472  0.66437304  0.54702166  1
  O  O5  1  0.13365528  0.16437304  0.95297834  1
  O  O6  1  0.13365528  0.33562696  0.45297834  1
  O  O7  1  0.86634472  0.83562696  0.04702166  1
  O  O8  1  0.46787195  0.66888874  0.51092926  1
  O  O9  1  0.53212805  0.16888874  0.98907074  1
  O  O10  1  0.53212805  0.33111126  0.48907074  1
  O  O11  1  0.46787195  0.83111126  0.01092926  1
  O  O12  1  0.73097155  0.28867850  0.82464247  1
  O  O13  1  0.26902845  0.78867850  0.67535753  1
  O  O14  1  0.26902845  0.71132150  0.17535753  1
  O  O15  1  0.73097155  0.21132150  0.32464247  1
  O  O16  1  0.64906104  0.69454609  0.32421314  1
  O  O17  1  0.35093896  0.19454609  0.17578686  1
  O  O18  1  0.35093896  0.30545391  0.67578686  1
  O  O19  1  0.64906104  0.80545391  0.82421314  1
  O  O20  1  0.03183444  0.67224027  0.36594493  1
  O  O21  1  0.96816556  0.17224027  0.13405507  1
  O  O22  1  0.96816556  0.32775973  0.63405507  1
  O  O23  1  0.03183444  0.82775973  0.86594493  1
  O  O24  1  0.84265021  0.47030533  0.23077160  1
  O  O25  1  0.15734979  0.97030533  0.26922840  1
  O  O26  1  0.15734979  0.52969467  0.76922840  1
  O  O27  1  0.84265021  0.02969467  0.73077160  1
  O  O28  1  0.82288630  0.07611594  0.52197009  1
  O  O29  1  0.17711370  0.57611594  0.97802991  1
  O  O30  1  0.17711370  0.92388406  0.47802991  1
  O  O31  1  0.82288630  0.42388406  0.02197009  1
  O  O32  1  0.51915010  0.97561876  0.38704292  1
  O  O33  1  0.48084990  0.47561876  0.11295708  1
  O  O34  1  0.48084990  0.02438124  0.61295708  1
  O  O35  1  0.51915010  0.52438124  0.88704292  1
loop_
_geom_bond_atom_site_label_1
_geom_bond_atom_site_label_2
_geom_bond_distance
_geom_bond_site_symmetry_2
I0 O8 1.807843 1_555
I0 O4 1.815377 1_555
I0 O0 1.818281 1_555
I1 O9 1.807843 1_555
I1 O5 1.815377 1_555
I1 O1 1.818281 1_555
I2 O10 1.807843 1_555
I2 O6 1.815377 1_555
I2 O2 1.818281 1_555
I3 O11 1.807843 1_555
I3 O7 1.815377 1_555
I3 O3 1.818281 1_555
I4 O31 1.805026 1_556
I4 O35 1.810953 1_555
I4 O12 1.831432 1_555
I5 O30 1.805026 1_555
I5 O34 1.810953 1_565
I5 O13 1.831432 1_555
I6 O29 1.805026 1_554
I6 O33 1.810953 1_555
I6 O14 1.831432 1_555
I7 O28 1.805026 1_555
I7 O32 1.810953 1_545
I7 O15 1.831432 1_555
I8 O23 1.792067 1_655
I8 O27 1.818580 1_565
I8 O19 1.826023 1_555
I9 O22 1.792067 1_455
I9 O26 1.818580 1_555
I9 O18 1.826023 1_555
I10 O21 1.792067 1_455
I10 O25 1.818580 1_545
I10 O17 1.826023 1_555
I11 O20 1.792067 1_655
I11 O24 1.818580 1_555
I11 O16 1.826023 1_555
O0 Tb0 2.459317 1_555
O1 Tb1 2.459317 1_545
O2 Tb2 2.459317 1_555
O3 Tb3 2.459317 1_565
O8 Tb2 2.268335 1_555
O9 Tb3 2.268335 1_556
O10 Tb0 2.268335 1_555
O11 Tb1 2.268335 1_554
O12 Tb0 2.383909 1_555
O13 Tb1 2.383909 1_555
O14 Tb2 2.383909 1_555
O15 Tb3 2.383909 1_555
O16 Tb2 2.437264 1_555
O17 Tb3 2.437264 1_555
O18 Tb0 2.437264 1_555
O19 Tb1 2.437264 1_555
O20 Tb2 2.231817 1_555
O21 Tb3 2.231817 1_555
O22 Tb0 2.231817 1_555
O23 Tb1 2.231817 1_555
O24 Tb3 2.345370 1_555
O25 Tb2 2.345370 1_555
O26 Tb1 2.345370 1_555
O27 Tb0 2.345370 1_555
O28 Tb0 2.522370 1_555
O29 Tb1 2.522370 1_555
O30 Tb2 2.522370 1_555
O31 Tb3 2.522370 1_555
O32 Tb2 2.286250 1_555
O33 Tb3 2.286250 1_555
O34 Tb0 2.286250 1_555
O35 Tb1 2.286250 1_555
