# generated using pymatgen
data_Cs2KScP2
_symmetry_space_group_name_H-M   'P 1'
_cell_length_a   9.48918202
_cell_length_b   9.48918283
_cell_length_c   9.48918149
_cell_angle_alpha   137.31949006
_cell_angle_beta   132.87445289
_cell_angle_gamma   65.44671281
_symmetry_Int_Tables_number   1
_chemical_formula_structural   Cs2KScP2
_chemical_formula_sum   'Cs4 K2 Sc2 P4'
_cell_volume   418.28621531
_cell_formula_units_Z   2
loop_
 _symmetry_equiv_pos_site_id
 _symmetry_equiv_pos_as_xyz
  1  'x, y, z'
loop_
 _atom_site_type_symbol
 _atom_site_label
 _atom_site_symmetry_multiplicity
 _atom_site_fract_x
 _atom_site_fract_y
 _atom_site_fract_z
 _atom_site_occupancy
  Cs  Cs0  1  0.56050314  0.31681664  0.24368451  1
  Cs  Cs1  1  0.43949686  0.68318336  0.75631549  1
  Cs  Cs2  1  0.07313313  0.81681664  0.25631549  1
  Cs  Cs3  1  0.92686687  0.18318336  0.74368451  1
  K  K0  1  0.50000000  0.25000000  0.75000000  1
  K  K1  1  0.50000000  0.75000000  0.25000000  1
  Sc  Sc0  1  0.00000000  0.25000000  0.25000000  1
  Sc  Sc1  1  0.00000000  0.75000000  0.75000000  1
  P  P0  1  0.27172444  0.08678911  0.18493633  1
  P  P1  1  0.72827556  0.91321089  0.81506367  1
  P  P2  1  0.90185378  0.58678911  0.31506367  1
  P  P3  1  0.09814622  0.41321089  0.68493633  1
loop_
_geom_bond_atom_site_label_1
_geom_bond_atom_site_label_2
_geom_bond_distance
_geom_bond_site_symmetry_2
Cs0 P3 3.684453 1_655
Cs0 P0 3.699663 1_555
Cs0 P1 3.819199 1_544
Cs0 P1 3.819205 1_555
Cs1 P2 3.684453 1_455
Cs1 P1 3.699663 1_555
Cs1 P0 3.819199 1_566
Cs1 P0 3.819205 1_555
Cs2 P1 3.684473 1_454
Cs2 P2 3.699638 1_455
Cs2 P3 3.819194 1_554
Cs2 P3 3.819207 1_565
Cs3 P0 3.684473 1_656
Cs3 P3 3.699638 1_655
Cs3 P2 3.819194 1_556
Cs3 P2 3.819207 1_545
K0 P0 3.258021 1_555
K0 P1 3.258025 1_545
K0 P2 3.258028 1_556
K0 P3 3.258032 1_555
K1 P1 3.258021 1_555
K1 P0 3.258025 1_565
K1 P3 3.258028 1_554
K1 P2 3.258032 1_555
P0 Sc0 2.621025 1_555
P0 Sc1 2.621029 1_544
P1 Sc1 2.621025 1_655
P1 Sc0 2.621029 1_666
P2 Sc0 2.621033 1_655
P2 Sc1 2.621037 1_655
P3 Sc1 2.621033 1_555
P3 Sc0 2.621037 1_555
