# generated using pymatgen
data_LuNb6TcS12
_symmetry_space_group_name_H-M   'P 1'
_cell_length_a   5.83157551
_cell_length_b   5.83157463
_cell_length_c   12.70325130
_cell_angle_alpha   90.00000000
_cell_angle_beta   90.00000000
_cell_angle_gamma   120.00001634
_symmetry_Int_Tables_number   1
_chemical_formula_structural   LuNb6TcS12
_chemical_formula_sum   'Lu1 Nb6 Tc1 S12'
_cell_volume   374.12539775
_cell_formula_units_Z   1
loop_
 _symmetry_equiv_pos_site_id
 _symmetry_equiv_pos_as_xyz
  1  'x, y, z'
loop_
 _atom_site_type_symbol
 _atom_site_label
 _atom_site_symmetry_multiplicity
 _atom_site_fract_x
 _atom_site_fract_y
 _atom_site_fract_z
 _atom_site_occupancy
  Lu  Lu0  1  0.33333300  0.66666700  0.25000000  1
  Nb  Nb0  1  0.33333300  0.66666700  0.51760787  1
  Nb  Nb1  1  0.66666700  0.33333300  0.98759978  1
  Nb  Nb2  1  0.66666700  0.33333300  0.51240022  1
  Nb  Nb3  1  0.33333300  0.66666700  0.98239213  1
  Nb  Nb4  1  0.00000000  0.00000000  0.51682721  1
  Nb  Nb5  1  0.00000000  0.00000000  0.98317279  1
  Tc  Tc0  1  0.66666700  0.33333300  0.75000000  1
  S  S0  1  0.33005650  0.33078082  0.10976485  1
  S  S1  1  0.66921918  0.99927469  0.10976485  1
  S  S2  1  0.00072531  0.66994350  0.10976485  1
  S  S3  1  0.99573177  0.33272278  0.63756845  1
  S  S4  1  0.66727722  0.00426823  0.86243155  1
  S  S5  1  0.66727722  0.66300899  0.63756845  1
  S  S6  1  0.33699101  0.00426823  0.63756845  1
  S  S7  1  0.66921918  0.66994350  0.39023515  1
  S  S8  1  0.33005650  0.99927469  0.39023515  1
  S  S9  1  0.33699101  0.33272278  0.86243155  1
  S  S10  1  0.99573177  0.66300899  0.86243155  1
  S  S11  1  0.00072531  0.33078082  0.39023515  1
loop_
_geom_bond_atom_site_label_1
_geom_bond_atom_site_label_2
_geom_bond_distance
_geom_bond_site_symmetry_2
Lu0 S8 2.640665 1_555
Lu0 S2 2.640666 1_555
Lu0 S11 2.640670 1_555
Lu0 S1 2.640670 1_555
Lu0 S0 2.640674 1_555
Lu0 S7 2.640674 1_555
Nb0 S6 2.481262 1_565
Nb0 S3 2.481264 1_455
Nb0 S5 2.481267 1_555
Nb0 S8 2.533309 1_555
Nb0 S11 2.533313 1_555
Nb0 S7 2.533318 1_555
Nb1 S4 2.493493 1_555
Nb1 S10 2.493495 1_555
Nb1 S9 2.493498 1_555
Nb1 S2 2.496523 1_656
Nb1 S1 2.496523 1_546
Nb1 S0 2.496523 1_556
Nb2 S3 2.493494 1_555
Nb2 S6 2.493495 1_555
Nb2 S5 2.493498 1_555
Nb2 S8 2.496523 1_545
Nb2 S7 2.496523 1_555
Nb2 S11 2.496523 1_655
Nb3 S10 2.481262 1_455
Nb3 S4 2.481264 1_565
Nb3 S9 2.481266 1_555
Nb3 S2 2.533309 1_556
Nb3 S1 2.533313 1_556
Nb3 S0 2.533318 1_556
Nb4 S5 2.483190 1_445
Nb4 S3 2.483190 1_455
Nb4 S6 2.483190 1_555
Nb4 S11 2.509757 1_555
Nb4 S7 2.509759 1_445
Nb4 S8 2.509762 1_545
Nb5 S9 2.483190 1_555
Nb5 S10 2.483190 1_445
Nb5 S4 2.483190 1_455
Nb5 S1 2.509757 1_446
Nb5 S0 2.509759 1_556
Nb5 S2 2.509762 1_546
S3 Tc0 2.393566 1_555
S4 Tc0 2.393566 1_555
S5 Tc0 2.393571 1_555
S6 Tc0 2.393568 1_555
S9 Tc0 2.393571 1_555
S10 Tc0 2.393568 1_555
