# generated using pymatgen
data_TaFe2MoBr16
_symmetry_space_group_name_H-M   'P 1'
_cell_length_a   10.03012910
_cell_length_b   10.03012886
_cell_length_c   8.85946881
_cell_angle_alpha   90.00000000
_cell_angle_beta   90.00000000
_cell_angle_gamma   130.12150332
_symmetry_Int_Tables_number   1
_chemical_formula_structural   TaFe2MoBr16
_chemical_formula_sum   'Ta1 Fe2 Mo1 Br16'
_cell_volume   681.55392935
_cell_formula_units_Z   1
loop_
 _symmetry_equiv_pos_site_id
 _symmetry_equiv_pos_as_xyz
  1  'x, y, z'
loop_
 _atom_site_type_symbol
 _atom_site_label
 _atom_site_symmetry_multiplicity
 _atom_site_fract_x
 _atom_site_fract_y
 _atom_site_fract_z
 _atom_site_occupancy
  Ta  Ta0  1  0.38755083  0.61244917  0.75000000  1
  Fe  Fe0  1  0.81319523  0.18680477  0.25000000  1
  Fe  Fe1  1  0.18433036  0.81566964  0.75000000  1
  Mo  Mo0  1  0.61342245  0.38657755  0.25000000  1
  Br  Br0  1  0.50909099  0.05269553  0.25000000  1
  Br  Br1  1  0.05580663  0.51286373  0.75000000  1
  Br  Br2  1  0.48713627  0.94419337  0.75000000  1
  Br  Br3  1  0.94730447  0.49090901  0.25000000  1
  Br  Br4  1  0.63592302  0.36407698  0.98094953  1
  Br  Br5  1  0.36776674  0.63223326  0.02493279  1
  Br  Br6  1  0.63592302  0.36407698  0.51905047  1
  Br  Br7  1  0.36776674  0.63223326  0.47506721  1
  Br  Br8  1  0.31504009  0.26336835  0.25000000  1
  Br  Br9  1  0.25571981  0.31000393  0.75000000  1
  Br  Br10  1  0.68999607  0.74428019  0.75000000  1
  Br  Br11  1  0.73663165  0.68495991  0.25000000  1
  Br  Br12  1  0.88407302  0.11592698  0.46436479  1
  Br  Br13  1  0.11462579  0.88537421  0.53485509  1
  Br  Br14  1  0.88407302  0.11592698  0.03563521  1
  Br  Br15  1  0.11462579  0.88537421  0.96514491  1
loop_
_geom_bond_atom_site_label_1
_geom_bond_atom_site_label_2
_geom_bond_distance
_geom_bond_site_symmetry_2
Br0 Fe0 2.413542 1_555
Br0 Mo0 2.791674 1_555
Br1 Fe1 2.416652 1_555
Br1 Ta0 2.790338 1_555
Br2 Fe1 2.416652 1_555
Br2 Ta0 2.790338 1_555
Br3 Fe0 2.413542 1_555
Br3 Mo0 2.791674 1_555
Br4 Mo0 2.418526 1_556
Br5 Ta0 2.462199 1_554
Br6 Mo0 2.418526 1_555
Br7 Ta0 2.462199 1_555
Br8 Mo0 2.391108 1_555
Br9 Ta0 2.404410 1_555
Br10 Ta0 2.404410 1_555
Br11 Mo0 2.391108 1_555
Br12 Fe0 2.295423 1_555
Br13 Fe1 2.289256 1_555
Br14 Fe0 2.295423 1_555
Br15 Fe1 2.289256 1_555
