# generated using pymatgen
data_Tm2Cu2O5
_symmetry_space_group_name_H-M   'P 1'
_cell_length_a   3.45893800
_cell_length_b   10.81812800
_cell_length_c   12.43445800
_cell_angle_alpha   90.00000000
_cell_angle_beta   90.00000000
_cell_angle_gamma   90.00000000
_symmetry_Int_Tables_number   1
_chemical_formula_structural   Tm2Cu2O5
_chemical_formula_sum   'Tm8 Cu8 O20'
_cell_volume   465.28789391
_cell_formula_units_Z   4
loop_
 _symmetry_equiv_pos_site_id
 _symmetry_equiv_pos_as_xyz
  1  'x, y, z'
loop_
 _atom_site_type_symbol
 _atom_site_label
 _atom_site_symmetry_multiplicity
 _atom_site_fract_x
 _atom_site_fract_y
 _atom_site_fract_z
 _atom_site_occupancy
  Tm  Tm0  1  0.27648400  0.54244000  0.82966800  1
  Tm  Tm1  1  0.72351600  0.45756000  0.32966800  1
  Tm  Tm2  1  0.22351600  0.04244000  0.82966800  1
  Tm  Tm3  1  0.77648400  0.95756000  0.32966800  1
  Tm  Tm4  1  0.27755500  0.70762600  0.50177900  1
  Tm  Tm5  1  0.72244500  0.29237400  0.00177900  1
  Tm  Tm6  1  0.22244500  0.20762600  0.50177900  1
  Tm  Tm7  1  0.77755500  0.79237400  0.00177900  1
  Cu  Cu0  1  0.84481700  0.76160300  0.71896200  1
  Cu  Cu1  1  0.15518300  0.23839700  0.21896200  1
  Cu  Cu2  1  0.65518300  0.26160300  0.71896200  1
  Cu  Cu3  1  0.34481700  0.73839700  0.21896200  1
  Cu  Cu4  1  0.84035500  0.48858100  0.61207600  1
  Cu  Cu5  1  0.15964500  0.51141900  0.11207600  1
  Cu  Cu6  1  0.65964500  0.98858100  0.61207600  1
  Cu  Cu7  1  0.34035500  0.01141900  0.11207600  1
  O  O0  1  0.27202700  0.92237500  0.97199400  1
  O  O1  1  0.72797300  0.07762500  0.47199400  1
  O  O2  1  0.22797300  0.42237500  0.97199400  1
  O  O3  1  0.77202700  0.57762500  0.47199400  1
  O  O4  1  0.72443200  0.92926800  0.76427500  1
  O  O5  1  0.27556800  0.07073200  0.26427500  1
  O  O6  1  0.77556800  0.42926800  0.76427500  1
  O  O7  1  0.22443200  0.57073200  0.26427500  1
  O  O8  1  0.16586600  0.62462100  0.66563700  1
  O  O9  1  0.83413400  0.37537900  0.16563700  1
  O  O10  1  0.33413400  0.12462100  0.66563700  1
  O  O11  1  0.66586600  0.87537900  0.16563700  1
  O  O12  1  0.78089600  0.82105900  0.56642100  1
  O  O13  1  0.21910400  0.17894100  0.06642100  1
  O  O14  1  0.71910400  0.32105900  0.56642100  1
  O  O15  1  0.28089600  0.67894100  0.06642100  1
  O  O16  1  0.27562200  0.82750100  0.35898700  1
  O  O17  1  0.72437800  0.17249900  0.85898700  1
  O  O18  1  0.22437800  0.32750100  0.35898700  1
  O  O19  1  0.77562200  0.67249900  0.85898700  1
loop_
_geom_bond_atom_site_label_1
_geom_bond_atom_site_label_2
_geom_bond_distance
_geom_bond_site_symmetry_2
Cu0 O4 1.944430 1_555
Cu0 O8 1.966936 1_655
Cu0 O19 2.004498 1_555
Cu0 O12 2.015021 1_555
Cu1 O5 1.944430 1_555
Cu1 O9 1.966936 1_455
Cu1 O18 2.004498 1_555
Cu1 O13 2.015021 1_555
Cu2 O6 1.944430 1_555
Cu2 O10 1.966936 1_555
Cu2 O17 2.004498 1_555
Cu2 O14 2.015021 1_555
Cu3 O7 1.944430 1_555
Cu3 O11 1.966936 1_555
Cu3 O16 2.004498 1_555
Cu3 O15 2.015021 1_555
Cu4 O14 1.944868 1_555
Cu4 O8 1.969049 1_655
Cu4 O3 2.004446 1_555
Cu4 O6 2.010856 1_555
Cu5 O15 1.944868 1_555
Cu5 O9 1.969049 1_455
Cu5 O2 2.004446 1_554
Cu5 O7 2.010856 1_555
Cu6 O12 1.944868 1_555
Cu6 O10 1.969049 1_565
Cu6 O1 2.004446 1_565
Cu6 O4 2.010856 1_555
Cu7 O13 1.944868 1_555
Cu7 O11 1.969049 1_545
Cu7 O0 2.004446 1_544
Cu7 O5 2.010856 1_555
O0 Tm2 2.201646 1_565
O0 Tm7 2.245067 1_456
O0 Tm7 2.274336 1_556
O1 Tm3 2.201646 1_545
O1 Tm6 2.245067 1_655
O1 Tm6 2.274336 1_555
O2 Tm0 2.201646 1_555
O2 Tm5 2.245067 1_556
O2 Tm5 2.274336 1_456
O3 Tm1 2.201646 1_555
O3 Tm4 2.245067 1_555
O3 Tm4 2.274336 1_655
O4 Tm2 2.267206 1_665
O4 Tm2 2.272034 1_565
O5 Tm3 2.267206 1_445
O5 Tm3 2.272034 1_545
O6 Tm0 2.267206 1_555
O6 Tm0 2.272034 1_655
O7 Tm1 2.267206 1_555
O7 Tm1 2.272034 1_455
O8 Tm0 2.257635 1_555
O8 Tm4 2.259850 1_555
O9 Tm1 2.257635 1_555
O9 Tm5 2.259850 1_555
O10 Tm2 2.257635 1_555
O10 Tm6 2.259850 1_555
O11 Tm3 2.257635 1_555
O11 Tm7 2.259850 1_555
O12 Tm4 2.259016 1_655
O12 Tm4 2.276642 1_555
O13 Tm5 2.259016 1_455
O13 Tm5 2.276642 1_555
O14 Tm6 2.259016 1_555
O14 Tm6 2.276642 1_655
O15 Tm7 2.259016 1_555
O15 Tm7 2.276642 1_455
O16 Tm4 2.198714 1_555
O16 Tm3 2.256834 1_455
O16 Tm3 2.261400 1_555
O17 Tm5 2.198714 1_556
O17 Tm2 2.256834 1_655
O17 Tm2 2.261400 1_555
O18 Tm6 2.198714 1_555
O18 Tm1 2.256834 1_555
O18 Tm1 2.261400 1_455
O19 Tm7 2.198714 1_556
O19 Tm0 2.256834 1_555
O19 Tm0 2.261400 1_655
