# generated using pymatgen
data_V3Ir(SeO3)8
_symmetry_space_group_name_H-M   'P 1'
_cell_length_a   7.96261805
_cell_length_b   7.96261797
_cell_length_c   7.96261939
_cell_angle_alpha   89.43832262
_cell_angle_beta   90.56168220
_cell_angle_gamma   90.56168078
_symmetry_Int_Tables_number   1
_chemical_formula_structural   V3Ir(SeO3)8
_chemical_formula_sum   'V3 Ir1 Se8 O24'
_cell_volume   504.78392742
_cell_formula_units_Z   1
loop_
 _symmetry_equiv_pos_site_id
 _symmetry_equiv_pos_as_xyz
  1  'x, y, z'
loop_
 _atom_site_type_symbol
 _atom_site_label
 _atom_site_symmetry_multiplicity
 _atom_site_fract_x
 _atom_site_fract_y
 _atom_site_fract_z
 _atom_site_occupancy
  V  V0  1  0.50000000  0.50000000  0.50000000  1
  V  V1  1  0.50000000  0.00000000  0.00000000  1
  V  V2  1  0.00000000  0.50000000  0.00000000  1
  Ir  Ir0  1  0.00000000  0.00000000  0.50000000  1
  Se  Se0  1  0.83813710  0.67557210  0.32092939  1
  Se  Se1  1  0.17907061  0.16186290  0.17557210  1
  Se  Se2  1  0.67477681  0.32522319  0.82522319  1
  Se  Se3  1  0.32442790  0.82092939  0.66186290  1
  Se  Se4  1  0.16186290  0.32442790  0.67907061  1
  Se  Se5  1  0.82092939  0.83813710  0.82442790  1
  Se  Se6  1  0.32522319  0.67477681  0.17477681  1
  Se  Se7  1  0.67557210  0.17907061  0.33813710  1
  O  O0  1  0.73223156  0.53162690  0.44016087  1
  O  O1  1  0.26347670  0.02011265  0.03810608  1
  O  O2  1  0.76698860  0.43134418  0.98941945  1
  O  O3  1  0.24804579  0.97573643  0.52689038  1
  O  O4  1  0.46189392  0.73652330  0.52011265  1
  O  O5  1  0.05983913  0.26776844  0.03162690  1
  O  O6  1  0.97310962  0.75195421  0.47573643  1
  O  O7  1  0.51058055  0.23301140  0.93134418  1
  O  O8  1  0.56865582  0.48941945  0.73301140  1
  O  O9  1  0.02426357  0.02689038  0.25195421  1
  O  O10  1  0.46837310  0.94016087  0.76776844  1
  O  O11  1  0.97988735  0.53810608  0.23652330  1
  O  O12  1  0.26776844  0.46837310  0.55983913  1
  O  O13  1  0.73652330  0.97988735  0.96189392  1
  O  O14  1  0.23301140  0.56865582  0.01058055  1
  O  O15  1  0.75195421  0.02426357  0.47310962  1
  O  O16  1  0.53810608  0.26347670  0.47988735  1
  O  O17  1  0.94016087  0.73223156  0.96837310  1
  O  O18  1  0.02689038  0.24804579  0.52426357  1
  O  O19  1  0.48941945  0.76698860  0.06865582  1
  O  O20  1  0.43134418  0.51058055  0.26698860  1
  O  O21  1  0.97573643  0.97310962  0.74804579  1
  O  O22  1  0.53162690  0.05983913  0.23223156  1
  O  O23  1  0.02011265  0.46189392  0.76347670  1
loop_
_geom_bond_atom_site_label_1
_geom_bond_atom_site_label_2
_geom_bond_distance
_geom_bond_site_symmetry_2
Ir0 O18 1.995632 1_555
Ir0 O6 1.995632 1_445
Ir0 O3 1.995632 1_545
Ir0 O15 1.995632 1_455
Ir0 O21 1.995633 1_445
Ir0 O9 1.995633 1_555
O0 Se0 1.703415 1_555
O0 V0 1.927609 1_555
O1 Se1 1.725493 1_555
O1 V1 1.919055 1_555
O2 Se2 1.718487 1_555
O2 V2 1.930375 1_656
O3 Se3 1.737915 1_555
O4 Se3 1.725493 1_555
O4 V0 1.919055 1_555
O5 Se1 1.703415 1_555
O5 V2 1.927609 1_555
O6 Se0 1.737915 1_555
O7 Se2 1.718487 1_555
O7 V1 1.930375 1_556
O8 Se2 1.718487 1_555
O8 V0 1.930375 1_555
O9 Se1 1.737915 1_555
O10 Se3 1.703415 1_555
O10 V1 1.927609 1_566
O11 Se0 1.725493 1_555
O11 V2 1.919055 1_655
O12 Se4 1.703415 1_555
O12 V0 1.927609 1_555
O13 Se5 1.725493 1_555
O13 V1 1.919055 1_566
O14 Se6 1.718487 1_555
O14 V2 1.930375 1_555
O15 Se7 1.737915 1_555
O16 Se7 1.725493 1_555
O16 V0 1.919055 1_555
O17 Se5 1.703415 1_555
O17 V2 1.927609 1_656
O18 Se4 1.737915 1_555
O19 Se6 1.718487 1_555
O19 V1 1.930375 1_565
O20 Se6 1.718487 1_555
O20 V0 1.930375 1_555
O21 Se5 1.737915 1_555
O22 Se7 1.703415 1_555
O22 V1 1.927609 1_555
O23 Se4 1.725493 1_555
O23 V2 1.919055 1_556
