# generated using pymatgen
data_YAl8SiAu4
_symmetry_space_group_name_H-M   'P 1'
_cell_length_a   5.97116261
_cell_length_b   5.97116328
_cell_length_c   14.92777562
_cell_angle_alpha   101.50050425
_cell_angle_beta   101.50052877
_cell_angle_gamma   90.06493449
_symmetry_Int_Tables_number   1
_chemical_formula_structural   YAl8SiAu4
_chemical_formula_sum   'Y2 Al16 Si2 Au8'
_cell_volume   510.62581133
_cell_formula_units_Z   2
loop_
 _symmetry_equiv_pos_site_id
 _symmetry_equiv_pos_as_xyz
  1  'x, y, z'
loop_
 _atom_site_type_symbol
 _atom_site_label
 _atom_site_symmetry_multiplicity
 _atom_site_fract_x
 _atom_site_fract_y
 _atom_site_fract_z
 _atom_site_occupancy
  Y  Y0  1  0.75045786  0.24954114  0.50000000  1
  Y  Y1  1  0.24954114  0.75045786  0.50000000  1
  Al  Al0  1  0.30291228  0.30291128  0.10525891  1
  Al  Al1  1  0.80237192  0.30252761  0.10462804  1
  Al  Al2  1  0.30252761  0.80237192  0.10462804  1
  Al  Al3  1  0.80263643  0.80263643  0.10517321  1
  Al  Al4  1  0.40665677  0.40665677  0.31326778  1
  Al  Al5  1  0.90680719  0.40706123  0.31362513  1
  Al  Al6  1  0.40706123  0.90680719  0.31362513  1
  Al  Al7  1  0.90655705  0.90655705  0.31328052  1
  Al  Al8  1  0.09344195  0.09344195  0.68671948  1
  Al  Al9  1  0.59293877  0.09319181  0.68637487  1
  Al  Al10  1  0.09319181  0.59293877  0.68637487  1
  Al  Al11  1  0.59334423  0.59334323  0.68673222  1
  Al  Al12  1  0.19736257  0.19736257  0.89482679  1
  Al  Al13  1  0.69747239  0.19762708  0.89537196  1
  Al  Al14  1  0.19762708  0.69747239  0.89537196  1
  Al  Al15  1  0.69708772  0.69708772  0.89474109  1
  Si  Si0  1  0.20781272  0.20781272  0.41582375  1
  Si  Si1  1  0.79218728  0.79218728  0.58417525  1
  Au  Au0  1  0.99999900  0.99999900  0.00000000  1
  Au  Au1  1  0.50000000  0.50000000  0.00000000  1
  Au  Au2  1  0.60527385  0.10519825  0.21024779  1
  Au  Au3  1  0.10519825  0.60527385  0.21024779  1
  Au  Au4  1  0.70754411  0.70754411  0.41569490  1
  Au  Au5  1  0.29245589  0.29245589  0.58430410  1
  Au  Au6  1  0.89480075  0.39472615  0.78975221  1
  Au  Au7  1  0.39472615  0.89480175  0.78975221  1
loop_
_geom_bond_atom_site_label_1
_geom_bond_atom_site_label_2
_geom_bond_distance
_geom_bond_site_symmetry_2
Al0 Au1 2.590450 1_555
Al0 Au2 2.593068 1_555
Al0 Au3 2.593076 1_555
Al0 Au0 2.595776 1_445
Al1 Au1 2.589282 1_555
Al1 Au0 2.590356 1_545
Al1 Au2 2.595556 1_555
Al1 Au3 2.596677 1_655
Al2 Au1 2.589283 1_555
Al2 Au0 2.590355 1_455
Al2 Au3 2.595556 1_555
Al2 Au2 2.596677 1_565
Al3 Au0 2.591327 1_555
Al3 Au3 2.593264 1_655
Al3 Au2 2.593264 1_565
Al3 Au1 2.593458 1_555
Al4 Au4 2.568192 1_555
Al4 Si0 2.570936 1_555
Al4 Au3 2.576824 1_555
Al4 Au2 2.576825 1_555
Al4 Y0 3.410274 1_555
Al4 Y1 3.410275 1_555
Al5 Au4 2.567913 1_555
Al5 Si0 2.570727 1_655
Al5 Au3 2.576760 1_655
Al5 Au2 2.578315 1_555
Al5 Y0 3.402044 1_555
Al5 Y1 3.402708 1_655
Al6 Au4 2.567913 1_555
Al6 Si0 2.570727 1_565
Al6 Au2 2.576760 1_565
Al6 Au3 2.578315 1_555
Al6 Y1 3.402044 1_555
Al6 Y0 3.402708 1_565
Al7 Au4 2.570459 1_555
Al7 Si0 2.571292 1_665
Al7 Au2 2.576405 1_565
Al7 Au3 2.576406 1_655
Al7 Y1 3.405330 1_655
Al7 Y0 3.405331 1_565
Al8 Au5 2.570477 1_555
Al8 Si1 2.571290 1_445
Al8 Au7 2.576405 1_545
Al8 Au6 2.576409 1_455
Al8 Y0 3.405330 1_455
Al8 Y1 3.405331 1_545
Al9 Au5 2.567924 1_555
Al9 Si1 2.570732 1_545
Al9 Au7 2.576757 1_545
Al9 Au6 2.578315 1_555
Al9 Y0 3.402041 1_555
Al9 Y1 3.402710 1_545
Al10 Au5 2.567925 1_555
Al10 Si1 2.570731 1_455
Al10 Au6 2.576760 1_455
Al10 Au7 2.578319 1_555
Al10 Y1 3.402041 1_555
Al10 Y0 3.402710 1_455
Al11 Au5 2.568200 1_555
Al11 Si1 2.570944 1_555
Al11 Au6 2.576817 1_555
Al11 Au7 2.576828 1_555
Al11 Y0 3.410272 1_555
Al11 Y1 3.410276 1_555
Al12 Au0 2.591333 1_446
Al12 Au7 2.593264 1_545
Al12 Au6 2.593267 1_455
Al12 Au1 2.593465 1_556
Al13 Au1 2.589287 1_556
Al13 Au0 2.590352 1_546
Al13 Au6 2.595556 1_555
Al13 Au7 2.596674 1_545
Al14 Au1 2.589286 1_556
Al14 Au0 2.590353 1_456
Al14 Au7 2.595560 1_555
Al14 Au6 2.596677 1_455
Al15 Au1 2.590447 1_556
Al15 Au6 2.593069 1_555
Al15 Au7 2.593072 1_555
Al15 Au0 2.595766 1_556
Si0 Y1 3.216229 1_545
Si0 Y0 3.216230 1_455
Si0 Y0 3.223330 1_555
Si0 Y1 3.223331 1_555
Si1 Y0 3.216216 1_565
Si1 Y1 3.216216 1_655
Si1 Y1 3.223333 1_555
Si1 Y0 3.223334 1_555
Au4 Si1 2.412878 1_555
Au4 Y1 3.220073 1_655
Au4 Y0 3.220074 1_565
Au4 Y0 3.220875 1_555
Au4 Y1 3.220875 1_555
Au5 Si0 2.412878 1_555
Au5 Y0 3.220076 1_455
Au5 Y1 3.220077 1_545
Au5 Y1 3.220862 1_555
Au5 Y0 3.220862 1_555
