# generated using pymatgen
data_Y4Ge6Ir5Pd2
_symmetry_space_group_name_H-M   'P 1'
_cell_length_a   7.26119693
_cell_length_b   7.26212508
_cell_length_c   7.26212445
_cell_angle_alpha   109.86689941
_cell_angle_beta   109.27629581
_cell_angle_gamma   109.27630450
_symmetry_Int_Tables_number   1
_chemical_formula_structural   Y4Ge6Ir5Pd2
_chemical_formula_sum   'Y4 Ge6 Ir5 Pd2'
_cell_volume   294.76158825
_cell_formula_units_Z   1
loop_
 _symmetry_equiv_pos_site_id
 _symmetry_equiv_pos_as_xyz
  1  'x, y, z'
loop_
 _atom_site_type_symbol
 _atom_site_label
 _atom_site_symmetry_multiplicity
 _atom_site_fract_x
 _atom_site_fract_y
 _atom_site_fract_z
 _atom_site_occupancy
  Y  Y0  1  0.00147779  0.00073940  0.50073940  1
  Y  Y1  1  0.00147779  0.50073940  0.00073940  1
  Y  Y2  1  0.49750342  0.99705538  0.99705538  1
  Y  Y3  1  0.49750342  0.50044804  0.50044804  1
  Ge  Ge0  1  0.67642065  0.68059242  0.99582823  1
  Ge  Ge1  1  0.31683725  0.99665195  0.32018630  1
  Ge  Ge2  1  0.00655248  0.32149533  0.32149533  1
  Ge  Ge3  1  0.31683725  0.32018630  0.99665195  1
  Ge  Ge4  1  0.67642065  0.99582823  0.68059242  1
  Ge  Ge5  1  0.00655248  0.68505815  0.68505815  1
  Ir  Ir0  1  0.50150929  0.25075465  0.75075465  1
  Ir  Ir1  1  0.24904928  0.50006192  0.74898735  1
  Ir  Ir2  1  0.24904928  0.74898735  0.50006192  1
  Ir  Ir3  1  0.50150929  0.75075465  0.25075465  1
  Ir  Ir4  1  0.99933182  0.99966591  0.99966591  1
  Pd  Pd0  1  0.75098294  0.25128164  0.49970130  1
  Pd  Pd1  1  0.75098294  0.49970130  0.25128164  1
loop_
_geom_bond_atom_site_label_1
_geom_bond_atom_site_label_2
_geom_bond_distance
_geom_bond_site_symmetry_2
Ge0 Ir1 2.570188 1_555
Ge0 Ir3 2.576547 1_556
Ge0 Ir0 2.576547 1_555
Ge0 Pd1 2.631186 1_556
Ge0 Ir4 2.682065 1_555
Ge0 Y3 2.989081 1_555
Ge0 Y2 2.989081 1_555
Ge0 Y1 3.047910 1_656
Ge0 Y0 3.047916 1_666
Ge1 Ir2 2.573007 1_555
Ge1 Ir0 2.580043 1_565
Ge1 Ir3 2.580050 1_555
Ge1 Pd0 2.618392 1_565
Ge1 Ir4 2.694159 1_454
Ge1 Y0 2.994082 1_565
Ge1 Y1 2.994082 1_555
Ge1 Y3 3.043386 1_565
Ge1 Y2 3.043391 1_554
Ge2 Ir1 2.562608 1_555
Ge2 Ir2 2.562608 1_555
Ge2 Pd0 2.605383 1_455
Ge2 Pd1 2.605383 1_455
Ge2 Ir4 2.655752 1_444
Ge2 Y3 2.969965 1_555
Ge2 Y1 3.026148 1_555
Ge2 Y0 3.026148 1_555
Ge2 Y2 3.080925 1_444
Ge3 Ir1 2.573007 1_555
Ge3 Ir3 2.580043 1_556
Ge3 Ir0 2.580049 1_555
Ge3 Pd1 2.618392 1_556
Ge3 Ir4 2.694158 1_445
Ge3 Y1 2.994082 1_556
Ge3 Y0 2.994082 1_555
Ge3 Y3 3.043386 1_556
Ge3 Y2 3.043391 1_545
Ge4 Ir2 2.570188 1_555
Ge4 Ir0 2.576547 1_565
Ge4 Ir3 2.576547 1_555
Ge4 Pd0 2.631186 1_565
Ge4 Ir4 2.682065 1_555
Ge4 Y2 2.989080 1_555
Ge4 Y3 2.989081 1_555
Ge4 Y0 3.047910 1_665
Ge4 Y1 3.047916 1_666
Ge5 Ir2 2.562612 1_555
Ge5 Ir1 2.562612 1_555
Ge5 Pd1 2.605388 1_455
Ge5 Pd0 2.605388 1_455
Ge5 Ir4 2.655743 1_455
Ge5 Y2 2.969964 1_555
Ge5 Y1 3.026148 1_556
Ge5 Y0 3.026148 1_565
Ge5 Y3 3.080923 1_455
Ir0 Y1 2.971217 1_656
Ir0 Y0 2.971592 1_555
Ir0 Y2 2.972100 1_545
Ir0 Y3 2.972100 1_555
Ir1 Y3 2.943204 1_555
Ir1 Y2 2.943205 1_555
Ir1 Y0 2.956991 1_555
Ir1 Y1 2.956997 1_556
Ir2 Y3 2.943204 1_555
Ir2 Y2 2.943205 1_555
Ir2 Y1 2.956991 1_555
Ir2 Y0 2.956997 1_565
Ir3 Y0 2.971217 1_665
Ir3 Y1 2.971592 1_555
Ir3 Y3 2.972100 1_555
Ir3 Y2 2.972100 1_554
Pd0 Y0 2.967187 1_655
Pd0 Y1 2.967193 1_656
Pd0 Y3 2.976704 1_555
Pd0 Y2 2.976704 1_544
Pd1 Y1 2.967187 1_655
Pd1 Y0 2.967193 1_665
Pd1 Y3 2.976704 1_555
Pd1 Y2 2.976704 1_544
