# generated using pymatgen
data_Cs4AlGa3Sb16
_symmetry_space_group_name_H-M   'P 1'
_cell_length_a   4.27219088
_cell_length_b   10.94325847
_cell_length_c   18.72920519
_cell_angle_alpha   90.00063911
_cell_angle_beta   90.00000000
_cell_angle_gamma   90.00000000
_symmetry_Int_Tables_number   1
_chemical_formula_structural   Cs4AlGa3Sb16
_chemical_formula_sum   'Cs4 Al1 Ga3 Sb16'
_cell_volume   875.62197663
_cell_formula_units_Z   1
loop_
 _symmetry_equiv_pos_site_id
 _symmetry_equiv_pos_as_xyz
  1  'x, y, z'
loop_
 _atom_site_type_symbol
 _atom_site_label
 _atom_site_symmetry_multiplicity
 _atom_site_fract_x
 _atom_site_fract_y
 _atom_site_fract_z
 _atom_site_occupancy
  Cs  Cs0  1  0.75000000  0.17770404  0.43044438  1
  Cs  Cs1  1  0.25000000  0.82429178  0.56733552  1
  Cs  Cs2  1  0.75000000  0.67788185  0.06833025  1
  Cs  Cs3  1  0.25000000  0.32348643  0.93328138  1
  Al  Al0  1  0.75000000  0.32897109  0.63382604  1
  Ga  Ga0  1  0.25000000  0.67135266  0.36715358  1
  Ga  Ga1  1  0.75000000  0.82875903  0.86681904  1
  Ga  Ga2  1  0.25000000  0.17125552  0.13291224  1
  Sb  Sb0  1  0.75000000  0.81483350  0.38727799  1
  Sb  Sb1  1  0.25000000  0.18495677  0.61048525  1
  Sb  Sb2  1  0.75000000  0.31476221  0.11268200  1
  Sb  Sb3  1  0.25000000  0.68581955  0.88877306  1
  Sb  Sb4  1  0.75000000  0.41375045  0.76880046  1
  Sb  Sb5  1  0.25000000  0.58454690  0.23378311  1
  Sb  Sb6  1  0.75000000  0.91321852  0.73284204  1
  Sb  Sb7  1  0.25000000  0.08321634  0.26592002  1
  Sb  Sb8  1  0.75000000  0.53028722  0.54958337  1
  Sb  Sb9  1  0.25000000  0.47315799  0.45196538  1
  Sb  Sb10  1  0.75000000  0.02883098  0.95027053  1
  Sb  Sb11  1  0.25000000  0.97299126  0.04802541  1
  Sb  Sb12  1  0.75000000  0.91006227  0.24538928  1
  Sb  Sb13  1  0.25000000  0.08723536  0.75211008  1
  Sb  Sb14  1  0.75000000  0.41141611  0.25419029  1
  Sb  Sb15  1  0.25000000  0.58721216  0.74779829  1
loop_
_geom_bond_atom_site_label_1
_geom_bond_atom_site_label_2
_geom_bond_distance
_geom_bond_site_symmetry_2
Cs0 Sb7 3.889356 1_655
Cs0 Sb7 3.889356 1_555
Cs0 Sb9 3.896038 1_655
Cs0 Sb9 3.896038 1_555
Cs0 Sb1 3.992459 1_655
Cs0 Sb1 3.992459 1_555
Cs0 Sb0 4.052442 1_545
Cs0 Sb14 4.175957 1_555
Cs1 Sb8 3.876194 1_555
Cs1 Sb8 3.876194 1_455
Cs1 Sb6 3.888271 1_455
Cs1 Sb6 3.888271 1_555
Cs1 Sb0 3.993275 1_455
Cs1 Sb0 3.993275 1_555
Cs1 Sb1 4.028732 1_565
Cs1 Ga0 4.105830 1_555
Cs1 Sb15 4.260882 1_555
Cs2 Sb11 3.890624 1_555
Cs2 Sb11 3.890624 1_655
Cs2 Sb5 3.899843 1_655
Cs2 Sb5 3.899843 1_555
Cs2 Sb3 3.984969 1_654
Cs2 Sb3 3.984969 1_554
Cs2 Sb2 4.059616 1_555
Cs2 Sb12 4.177625 1_555
Cs3 Sb4 3.876695 1_455
Cs3 Sb4 3.876695 1_555
Cs3 Sb10 3.880917 1_455
Cs3 Sb10 3.880917 1_555
Cs3 Sb2 3.982692 1_456
Cs3 Sb2 3.982692 1_556
Cs3 Sb3 4.051793 1_555
Cs3 Ga2 4.093281 1_556
Cs3 Sb13 4.265869 1_555
Al0 Sb1 2.690302 1_555
Al0 Sb1 2.690302 1_655
Al0 Sb4 2.692822 1_555
Al0 Sb8 2.709792 1_555
Ga0 Sb5 2.672442 1_555
Ga0 Sb0 2.677745 1_455
Ga0 Sb0 2.677745 1_555
Ga0 Sb9 2.688379 1_555
Ga1 Sb6 2.674100 1_555
Ga1 Sb3 2.679325 1_655
Ga1 Sb3 2.679325 1_555
Ga1 Sb10 2.690069 1_565
Ga2 Sb7 2.670953 1_555
Ga2 Sb2 2.678196 1_455
Ga2 Sb2 2.678196 1_555
Ga2 Sb11 2.689795 1_545
Sb0 Sb12 2.854500 1_555
Sb1 Sb13 2.859987 1_555
Sb8 Sb9 2.880353 1_655
Sb8 Sb9 2.880353 1_555
Sb10 Sb11 2.878962 1_546
Sb10 Sb11 2.878962 1_646
Sb12 Sb7 2.881194 1_565
Sb12 Sb7 2.881194 1_665
Sb13 Sb6 2.884358 1_445
Sb13 Sb6 2.884358 1_545
Sb14 Sb2 2.853590 1_555
Sb14 Sb5 2.880724 1_555
Sb14 Sb5 2.880724 1_655
Sb15 Sb3 2.852330 1_555
Sb15 Sb4 2.884605 1_455
Sb15 Sb4 2.884605 1_555
