# generated using pymatgen
data_Mn3Cr(CuSe4)2
_symmetry_space_group_name_H-M   'P 1'
_cell_length_a   7.36319971
_cell_length_b   7.36319968
_cell_length_c   7.36319971
_cell_angle_alpha   60.13992867
_cell_angle_beta   60.13992612
_cell_angle_gamma   60.13992315
_symmetry_Int_Tables_number   1
_chemical_formula_structural   Mn3Cr(CuSe4)2
_chemical_formula_sum   'Mn3 Cr1 Cu2 Se8'
_cell_volume   283.17775198
_cell_formula_units_Z   1
loop_
 _symmetry_equiv_pos_site_id
 _symmetry_equiv_pos_as_xyz
  1  'x, y, z'
loop_
 _atom_site_type_symbol
 _atom_site_label
 _atom_site_symmetry_multiplicity
 _atom_site_fract_x
 _atom_site_fract_y
 _atom_site_fract_z
 _atom_site_occupancy
  Mn  Mn0  1  0.12500000  0.62500000  0.62500000  1
  Mn  Mn1  1  0.62500000  0.12500000  0.62500000  1
  Mn  Mn2  1  0.62500000  0.62500000  0.12500000  1
  Cr  Cr0  1  0.62500000  0.62500000  0.62500000  1
  Cu  Cu0  1  0.24910016  0.24910016  0.24910016  1
  Cu  Cu1  1  0.00089984  0.00089984  0.00089984  1
  Se  Se0  1  0.85331032  0.38284397  0.38284397  1
  Se  Se1  1  0.38284397  0.85331032  0.38284397  1
  Se  Se2  1  0.38284397  0.38284397  0.85331032  1
  Se  Se3  1  0.38070801  0.38070801  0.38070801  1
  Se  Se4  1  0.39668968  0.86715603  0.86715603  1
  Se  Se5  1  0.86715603  0.39668968  0.86715603  1
  Se  Se6  1  0.86715603  0.86715603  0.39668968  1
  Se  Se7  1  0.86929199  0.86929199  0.86929199  1
loop_
_geom_bond_atom_site_label_1
_geom_bond_atom_site_label_2
_geom_bond_distance
_geom_bond_site_symmetry_2
Mn0 Se2 2.536203 1_555
Mn0 Se6 2.536203 1_455
Mn0 Se1 2.536203 1_555
Mn0 Se5 2.536203 1_455
Mn0 Se7 2.548175 1_455
Mn0 Se3 2.548175 1_555
Mn1 Se2 2.536203 1_555
Mn1 Se6 2.536203 1_545
Mn1 Se0 2.536203 1_555
Mn1 Se4 2.536203 1_545
Mn1 Se7 2.548175 1_545
Mn1 Se3 2.548175 1_555
Mn2 Se1 2.536203 1_555
Mn2 Se5 2.536203 1_554
Mn2 Se0 2.536203 1_555
Mn2 Se4 2.536203 1_554
Mn2 Se7 2.548175 1_554
Mn2 Se3 2.548175 1_555
Cr0 Se4 2.526024 1_555
Cr0 Se0 2.526024 1_555
Cr0 Se5 2.526024 1_555
Cr0 Se1 2.526024 1_555
Cr0 Se6 2.526024 1_555
Cr0 Se2 2.526024 1_555
Cu0 Se3 2.371177 1_555
Cu0 Se0 2.383851 1_455
Cu0 Se1 2.383851 1_545
Cu0 Se2 2.383851 1_554
Cu1 Se7 2.371177 1_444
Cu1 Se4 2.383851 1_544
Cu1 Se5 2.383851 1_454
Cu1 Se6 2.383851 1_445
