# generated using pymatgen
data_Sc12Fe2I17
_symmetry_space_group_name_H-M   'P 1'
_cell_length_a   9.35362735
_cell_length_b   11.12610845
_cell_length_c   11.10724942
_cell_angle_alpha   93.81359221
_cell_angle_beta   104.87547029
_cell_angle_gamma   114.47931740
_symmetry_Int_Tables_number   1
_chemical_formula_structural   Sc12Fe2I17
_chemical_formula_sum   'Sc12 Fe2 I17'
_cell_volume   996.93027438
_cell_formula_units_Z   1
loop_
 _symmetry_equiv_pos_site_id
 _symmetry_equiv_pos_as_xyz
  1  'x, y, z'
loop_
 _atom_site_type_symbol
 _atom_site_label
 _atom_site_symmetry_multiplicity
 _atom_site_fract_x
 _atom_site_fract_y
 _atom_site_fract_z
 _atom_site_occupancy
  Sc  Sc0  1  0.05022913  0.49970609  0.31898116  1
  Sc  Sc1  1  0.99789656  0.80811370  0.59543202  1
  Sc  Sc2  1  0.66701768  0.24379776  0.27552526  1
  Sc  Sc3  1  0.00210344  0.19188630  0.40456798  1
  Sc  Sc4  1  0.21562010  0.67086171  0.98226835  1
  Sc  Sc5  1  0.25424400  0.97397699  0.89122452  1
  Sc  Sc6  1  0.33298232  0.75620224  0.72447474  1
  Sc  Sc7  1  0.94977087  0.50029391  0.68101884  1
  Sc  Sc8  1  0.74575600  0.02602301  0.10877548  1
  Sc  Sc9  1  0.12984982  0.28717301  0.15565357  1
  Sc  Sc10  1  0.78437990  0.32913829  0.01773165  1
  Sc  Sc11  1  0.87015018  0.71282699  0.84434643  1
  Fe  Fe0  1  0.10501027  0.73681034  0.78851729  1
  Fe  Fe1  1  0.89498973  0.26318966  0.21148271  1
  I  I0  1  0.78587015  0.52841460  0.41660740  1
  I  I1  1  0.64607277  0.42057575  0.75743230  1
  I  I2  1  0.83927481  0.89786875  0.32236168  1
  I  I3  1  0.31881663  0.21772671  0.36774032  1
  I  I4  1  0.16072519  0.10213125  0.67763832  1
  I  I5  1  0.58153320  0.05163475  0.84059323  1
  I  I6  1  0.75320545  0.18259440  0.53141054  1
  I  I7  1  0.53926918  0.70405716  0.95165652  1
  I  I8  1  0.35392723  0.57942425  0.24256770  1
  I  I9  1  0.21412985  0.47158540  0.58339260  1
  I  I10  1  0.05458709  0.36552089  0.89513601  1
  I  I11  1  0.46073082  0.29594284  0.04834348  1
  I  I12  1  0.00000000  0.00000000  0.00000000  1
  I  I13  1  0.24679455  0.81740560  0.46858946  1
  I  I14  1  0.41846680  0.94836525  0.15940677  1
  I  I15  1  0.68118337  0.78227329  0.63225968  1
  I  I16  1  0.94541291  0.63447911  0.10486399  1
loop_
_geom_bond_atom_site_label_1
_geom_bond_atom_site_label_2
_geom_bond_distance
_geom_bond_site_symmetry_2
Fe0 Sc11 2.348890 1_455
Fe0 Sc6 2.348930 1_555
Fe0 Sc4 2.436406 1_555
Fe0 Sc5 2.437684 1_555
Fe0 Sc7 2.446255 1_455
Fe0 Sc1 2.452443 1_455
Fe1 Sc9 2.348890 1_655
Fe1 Sc2 2.348930 1_555
Fe1 Sc10 2.436406 1_555
Fe1 Sc8 2.437684 1_555
Fe1 Sc0 2.446255 1_655
Fe1 Sc3 2.452443 1_655
I0 Sc2 3.040942 1_555
I0 Sc7 3.046552 1_555
I0 Sc0 3.062245 1_655
I0 Sc1 3.098910 1_555
I1 Sc11 2.965392 1_555
I1 Sc7 2.970947 1_555
I1 Sc10 3.260250 1_556
I2 Sc3 2.935010 1_665
I2 Sc8 2.973958 1_565
I2 Sc1 3.423200 1_555
I3 Sc9 2.916603 1_555
I3 Sc3 2.992973 1_555
I3 Sc2 3.565151 1_555
I4 Sc1 2.935010 1_445
I4 Sc5 2.973958 1_545
I4 Sc3 3.423200 1_555
I5 Sc5 3.031689 1_545
I5 Sc10 3.069912 1_556
I5 Sc6 3.071871 1_545
I5 Sc8 3.072484 1_556
I6 Sc2 2.954246 1_555
I6 Sc3 2.986576 1_655
I6 Sc7 3.301573 1_555
I7 Sc4 3.005848 1_555
I7 Sc6 3.008262 1_555
I7 Sc8 3.363378 1_566
I7 Sc11 3.559223 1_555
I8 Sc9 2.965392 1_555
I8 Sc0 2.970947 1_555
I8 Sc4 3.260250 1_554
I9 Sc6 3.040942 1_555
I9 Sc0 3.046552 1_555
I9 Sc7 3.062245 1_455
I9 Sc3 3.098910 1_555
I10 Sc4 3.052908 1_555
I10 Sc7 3.059631 1_455
I10 Sc10 3.065685 1_456
I10 Sc9 3.070304 1_556
I11 Sc10 3.005848 1_555
I11 Sc2 3.008262 1_555
I11 Sc5 3.363378 1_544
I11 Sc9 3.559223 1_555
I12 Sc5 3.032861 1_544
I12 Sc8 3.032861 1_455
I12 Sc9 3.105480 1_555
I12 Sc11 3.105480 1_444
I13 Sc6 2.954246 1_555
I13 Sc1 2.986576 1_455
I13 Sc0 3.301573 1_555
I14 Sc8 3.031689 1_565
I14 Sc4 3.069912 1_554
I14 Sc2 3.071871 1_565
I14 Sc5 3.072484 1_554
I15 Sc11 2.916603 1_555
I15 Sc1 2.992973 1_555
I15 Sc6 3.565151 1_555
I16 Sc10 3.052908 1_555
I16 Sc0 3.059631 1_655
I16 Sc4 3.065685 1_654
I16 Sc11 3.070304 1_554
