# generated using pymatgen
data_ZrBe9W2
_symmetry_space_group_name_H-M   'P 1'
_cell_length_a   7.53440790
_cell_length_b   7.53440798
_cell_length_c   7.53440774
_cell_angle_alpha   34.63645492
_cell_angle_beta   34.63645402
_cell_angle_gamma   34.63645299
_symmetry_Int_Tables_number   1
_chemical_formula_structural   ZrBe9W2
_chemical_formula_sum   'Zr1 Be9 W2'
_cell_volume   123.29076451
_cell_formula_units_Z   1
loop_
 _symmetry_equiv_pos_site_id
 _symmetry_equiv_pos_as_xyz
  1  'x, y, z'
loop_
 _atom_site_type_symbol
 _atom_site_label
 _atom_site_symmetry_multiplicity
 _atom_site_fract_x
 _atom_site_fract_y
 _atom_site_fract_z
 _atom_site_occupancy
  Zr  Zr0  1  0.00000000  0.00000000  0.00000000  1
  Be  Be0  1  0.41336275  0.92109672  0.41336275  1
  Be  Be1  1  0.41336275  0.41336275  0.92109672  1
  Be  Be2  1  0.92109672  0.41336275  0.41336275  1
  Be  Be3  1  0.58663725  0.07890328  0.58663725  1
  Be  Be4  1  0.58663725  0.58663725  0.07890328  1
  Be  Be5  1  0.07890328  0.58663725  0.58663725  1
  Be  Be6  1  0.66580221  0.66580221  0.66580221  1
  Be  Be7  1  0.33419779  0.33419779  0.33419779  1
  Be  Be8  1  0.50000000  0.50000000  0.50000000  1
  W  W0  1  0.85506097  0.85506097  0.85506097  1
  W  W1  1  0.14493903  0.14493903  0.14493903  1
loop_
_geom_bond_atom_site_label_1
_geom_bond_atom_site_label_2
_geom_bond_distance
_geom_bond_site_symmetry_2
Be0 Be8 2.191696 1_555
Be0 Be6 2.201683 1_555
Be0 Be7 2.207854 1_565
Be0 Be2 2.208140 1_465
Be0 Be1 2.208140 1_564
Be0 Be2 2.277524 1_555
Be0 Be1 2.277524 1_555
Be0 W1 2.555349 1_565
Be0 W0 2.588544 1_554
Be0 W0 2.588544 1_455
Be0 Zr0 2.866044 1_566
Be0 Zr0 2.866044 1_665
Be1 Be8 2.191696 1_555
Be1 Be6 2.201684 1_555
Be1 Be7 2.207854 1_556
Be1 Be2 2.208140 1_456
Be1 Be2 2.277524 1_555
Be1 W1 2.555349 1_556
Be1 W0 2.588544 1_455
Be1 W0 2.588544 1_545
Be1 Zr0 2.866044 1_656
Be1 Zr0 2.866044 1_566
Be2 Be8 2.191696 1_555
Be2 Be6 2.201683 1_555
Be2 Be7 2.207854 1_655
Be2 W1 2.555349 1_655
Be2 W0 2.588544 1_554
Be2 W0 2.588544 1_545
Be2 Zr0 2.866044 1_656
Be2 Zr0 2.866044 1_665
Be3 Be8 2.191696 1_555
Be3 Be7 2.201683 1_555
Be3 Be6 2.207854 1_545
Be3 Be5 2.208140 1_645
Be3 Be4 2.208140 1_546
Be3 Be5 2.277524 1_555
Be3 Be4 2.277524 1_555
Be3 W0 2.555349 1_545
Be3 W1 2.588544 1_556
Be3 W1 2.588544 1_655
Be3 Zr0 2.866044 1_655
Be3 Zr0 2.866044 1_556
Be4 Be8 2.191696 1_555
Be4 Be7 2.201684 1_555
Be4 Be6 2.207854 1_554
Be4 Be5 2.208140 1_654
Be4 Be5 2.277524 1_555
Be4 W0 2.555349 1_554
Be4 W1 2.588544 1_655
Be4 W1 2.588544 1_565
Be4 Zr0 2.866044 1_565
Be4 Zr0 2.866044 1_655
Be5 Be8 2.191696 1_555
Be5 Be7 2.201683 1_555
Be5 Be6 2.207854 1_455
Be5 W0 2.555349 1_455
Be5 W1 2.588544 1_556
Be5 W1 2.588544 1_565
Be5 Zr0 2.866044 1_565
Be5 Zr0 2.866044 1_556
Be6 Zr0 2.589864 1_566
Be6 Zr0 2.589864 1_656
Be6 Zr0 2.589864 1_665
Be7 Zr0 2.589864 1_655
Be7 Zr0 2.589864 1_565
Be7 Zr0 2.589864 1_556
Be8 W0 2.630543 1_455
Be8 W1 2.630543 1_655
Be8 W0 2.630543 1_545
Be8 W1 2.630543 1_565
Be8 W0 2.630543 1_554
Be8 W1 2.630543 1_556
W0 W1 2.749154 1_566
W0 W1 2.749154 1_665
W0 W1 2.749154 1_656
W0 Zr0 3.076473 1_666
W1 Zr0 3.076473 1_555
