# generated using pymatgen
data_Rb2SrAs2Pd3
_symmetry_space_group_name_H-M   'P 1'
_cell_length_a   7.89931012
_cell_length_b   7.89931051
_cell_length_c   7.89931139
_cell_angle_alpha   42.46666576
_cell_angle_beta   42.46666080
_cell_angle_gamma   42.46666804
_symmetry_Int_Tables_number   1
_chemical_formula_structural   Rb2SrAs2Pd3
_chemical_formula_sum   'Rb2 Sr1 As2 Pd3'
_cell_volume   203.43822818
_cell_formula_units_Z   1
loop_
 _symmetry_equiv_pos_site_id
 _symmetry_equiv_pos_as_xyz
  1  'x, y, z'
loop_
 _atom_site_type_symbol
 _atom_site_label
 _atom_site_symmetry_multiplicity
 _atom_site_fract_x
 _atom_site_fract_y
 _atom_site_fract_z
 _atom_site_occupancy
  Rb  Rb0  1  0.50788345  0.50788345  0.50788345  1
  Rb  Rb1  1  0.90910008  0.90910008  0.90910008  1
  Sr  Sr0  1  0.07786273  0.07786273  0.07786273  1
  As  As0  1  0.24813480  0.24813480  0.24813480  1
  As  As1  1  0.75401883  0.75401883  0.75401883  1
  Pd  Pd0  1  0.49998398  0.49998398  0.00303216  1
  Pd  Pd1  1  0.49998398  0.00303216  0.49998498  1
  Pd  Pd2  1  0.00303216  0.49998398  0.49998498  1
loop_
_geom_bond_atom_site_label_1
_geom_bond_atom_site_label_2
_geom_bond_distance
_geom_bond_site_symmetry_2
Rb0 Rb1 3.612211 1_554
Rb0 Rb1 3.612211 1_455
Rb0 Rb1 3.612211 1_545
Rb0 Sr0 3.904435 1_556
Rb0 Sr0 3.904436 1_655
Rb0 Sr0 3.904436 1_565
As0 Pd0 2.477500 1_555
As0 Pd2 2.477507 1_555
As0 Pd1 2.477507 1_555
As0 Rb1 3.305726 1_544
As0 Rb1 3.305726 1_445
As0 Rb1 3.305726 1_454
As0 Rb0 3.663579 1_455
As0 Rb0 3.663579 1_545
As0 Rb0 3.663579 1_554
As0 Sr0 3.665310 1_555
As1 Pd2 2.493348 1_655
As1 Pd1 2.493348 1_565
As1 Pd0 2.493354 1_556
As1 Sr0 3.309756 1_566
As1 Sr0 3.309756 1_665
As1 Sr0 3.309757 1_656
As1 Rb1 3.338310 1_555
As1 Rb0 3.799479 1_655
As1 Rb0 3.799479 1_565
As1 Rb0 3.799479 1_556
Pd0 Pd2 2.843431 1_555
Pd0 Pd1 2.843431 1_555
Pd0 Pd2 2.878307 1_654
Pd0 Pd1 2.878307 1_564
Pd0 Sr0 3.304882 1_655
Pd0 Sr0 3.304882 1_565
Pd0 Rb1 3.478243 1_454
Pd0 Rb1 3.478243 1_544
Pd0 Rb0 3.819934 1_554
Pd0 Rb0 4.080659 1_555
Pd1 Pd2 2.843428 1_555
Pd1 Pd2 2.878310 1_645
Pd1 Sr0 3.304876 1_556
Pd1 Sr0 3.304880 1_655
Pd1 Rb1 3.478244 1_445
Pd1 Rb1 3.478249 1_544
Pd1 Rb0 3.819939 1_545
Pd1 Rb0 4.080653 1_555
Pd2 Sr0 3.304876 1_556
Pd2 Sr0 3.304881 1_565
Pd2 Rb1 3.478244 1_445
Pd2 Rb1 3.478249 1_454
Pd2 Rb0 3.819939 1_455
Pd2 Rb0 4.080652 1_555
