# generated using pymatgen
data_Hf6Zn5PdN2
_symmetry_space_group_name_H-M   'P 1'
_cell_length_a   8.41738922
_cell_length_b   8.41738943
_cell_length_c   8.47004539
_cell_angle_alpha   60.20543634
_cell_angle_beta   60.20543386
_cell_angle_gamma   60.00000159
_symmetry_Int_Tables_number   1
_chemical_formula_structural   Hf6Zn5PdN2
_chemical_formula_sum   'Hf12 Zn10 Pd2 N4'
_cell_volume   425.66424135
_cell_formula_units_Z   2
loop_
 _symmetry_equiv_pos_site_id
 _symmetry_equiv_pos_as_xyz
  1  'x, y, z'
loop_
 _atom_site_type_symbol
 _atom_site_label
 _atom_site_symmetry_multiplicity
 _atom_site_fract_x
 _atom_site_fract_y
 _atom_site_fract_z
 _atom_site_occupancy
  Hf  Hf0  1  0.81392737  0.19209034  0.18005392  1
  Hf  Hf1  1  0.19209034  0.81392737  0.18005392  1
  Hf  Hf2  1  0.81392737  0.81392737  0.18005392  1
  Hf  Hf3  1  0.19014251  0.80844918  0.81126581  1
  Hf  Hf4  1  0.80844918  0.19014251  0.81126581  1
  Hf  Hf5  1  0.19014251  0.19014251  0.81126581  1
  Hf  Hf6  1  0.43647571  0.05834857  0.06870001  1
  Hf  Hf7  1  0.05834857  0.43647571  0.06870001  1
  Hf  Hf8  1  0.43647571  0.43647571  0.06870001  1
  Hf  Hf9  1  0.06245345  0.43715528  0.43793682  1
  Hf  Hf10  1  0.43715528  0.06245345  0.43793682  1
  Hf  Hf11  1  0.06245345  0.06245345  0.43793682  1
  Zn  Zn0  1  0.41774183  0.41774183  0.42103938  1
  Zn  Zn1  1  0.74347696  0.41774183  0.42103938  1
  Zn  Zn2  1  0.41774183  0.74347696  0.42103938  1
  Zn  Zn3  1  0.83429284  0.83429284  0.49712248  1
  Zn  Zn4  1  0.83226227  0.83226227  0.83117696  1
  Zn  Zn5  1  0.50429951  0.83226227  0.83117696  1
  Zn  Zn6  1  0.83226227  0.50429951  0.83117696  1
  Zn  Zn7  1  0.62879844  0.62879844  0.62063034  1
  Zn  Zn8  1  0.12177379  0.62879844  0.62063034  1
  Zn  Zn9  1  0.62879844  0.12177379  0.62063034  1
  Pd  Pd0  1  0.41325100  0.41325100  0.76024600  1
  Pd  Pd1  1  0.62467516  0.62467516  0.12597352  1
  N  N0  1  0.12454583  0.12454583  0.62636252  1
  N  N1  1  0.12477082  0.12477082  0.12596059  1
  N  N2  1  0.62449776  0.12477082  0.12596059  1
  N  N3  1  0.12477082  0.62449776  0.12596059  1
loop_
_geom_bond_atom_site_label_1
_geom_bond_atom_site_label_2
_geom_bond_distance
_geom_bond_site_symmetry_2
Hf0 N2 2.227335 1_555
Hf0 N1 2.227342 1_655
Hf0 Zn6 2.810180 1_554
Hf0 Zn3 2.866269 1_545
Hf0 Pd1 3.045191 1_555
Hf0 Zn0 3.106328 1_555
Hf0 Zn1 3.106332 1_555
Hf0 Zn9 3.106863 1_555
Hf1 N3 2.227335 1_555
Hf1 N1 2.227343 1_565
Hf1 Zn5 2.810180 1_554
Hf1 Zn3 2.866269 1_455
Hf1 Pd1 3.045191 1_555
Hf1 Zn0 3.106329 1_555
Hf1 Zn2 3.106332 1_555
Hf1 Zn8 3.106863 1_555
Hf2 N3 2.227341 1_655
Hf2 N2 2.227341 1_565
Hf2 Zn4 2.810172 1_554
Hf2 Zn3 2.866278 1_555
Hf2 Pd1 3.045191 1_555
Hf2 Zn2 3.106325 1_555
Hf2 Zn1 3.106325 1_555
Hf2 Zn7 3.106860 1_555
Hf3 N0 2.255251 1_565
Hf3 N3 2.257867 1_556
Hf3 Zn4 2.840453 1_455
Hf3 Zn5 2.840461 1_555
Hf3 Pd0 3.025611 1_555
Hf3 Zn2 3.057745 1_555
Hf3 Zn8 3.073332 1_555
Hf3 Zn7 3.073338 1_555
Hf4 N0 2.255250 1_655
Hf4 N2 2.257867 1_556
Hf4 Zn4 2.840453 1_545
Hf4 Zn6 2.840461 1_555
Hf4 Pd0 3.025611 1_555
Hf4 Zn1 3.057745 1_555
Hf4 Zn9 3.073332 1_555
Hf4 Zn7 3.073338 1_555
Hf5 N0 2.255251 1_555
Hf5 N1 2.257867 1_556
Hf5 Zn6 2.840456 1_455
Hf5 Zn5 2.840456 1_545
Hf5 Pd0 3.025603 1_555
Hf5 Zn0 3.057745 1_555
Hf5 Zn9 3.073339 1_555
Hf5 Zn8 3.073340 1_555
Hf6 N1 2.229299 1_555
Hf6 N2 2.229299 1_555
Hf6 Pd0 2.820557 1_554
Hf6 Zn2 2.836455 1_545
Hf6 Pd1 3.048174 1_545
Hf6 Zn5 3.093861 1_544
Hf6 Zn4 3.093864 1_544
Hf6 Zn9 3.170822 1_554
Hf7 N3 2.229299 1_555
Hf7 N1 2.229299 1_555
Hf7 Pd0 2.820557 1_554
Hf7 Zn1 2.836455 1_455
Hf7 Pd1 3.048174 1_455
Hf7 Zn6 3.093861 1_454
Hf7 Zn4 3.093865 1_454
Hf7 Zn8 3.170822 1_554
Hf8 N3 2.229299 1_555
Hf8 N2 2.229299 1_555
Hf8 Pd0 2.820562 1_554
Hf8 Zn0 2.836455 1_555
Hf8 Pd1 3.048167 1_555
Hf8 Zn6 3.093868 1_554
Hf8 Zn5 3.093868 1_554
Hf8 Zn7 3.170823 1_554
Hf9 N0 2.241547 1_555
Hf9 N3 2.247902 1_555
Hf9 Zn1 2.846053 1_455
Hf9 Zn0 2.846061 1_555
Hf9 Zn7 3.049588 1_455
Hf9 Zn8 3.049600 1_555
Hf9 Zn3 3.066429 1_455
Hf9 Zn6 3.087040 1_455
Hf10 N0 2.241547 1_555
Hf10 N2 2.247902 1_555
Hf10 Zn2 2.846053 1_545
Hf10 Zn0 2.846061 1_555
Hf10 Zn7 3.049589 1_545
Hf10 Zn9 3.049600 1_555
Hf10 Zn3 3.066429 1_545
Hf10 Zn5 3.087040 1_545
Hf11 N0 2.241553 1_555
Hf11 N1 2.247900 1_555
Hf11 Zn2 2.846058 1_545
Hf11 Zn1 2.846058 1_455
Hf11 Zn9 3.049585 1_455
Hf11 Zn8 3.049586 1_545
Hf11 Zn3 3.066415 1_445
Hf11 Zn4 3.087033 1_445
Zn0 Zn8 2.567855 1_555
Zn0 Zn9 2.567855 1_555
Zn0 Zn1 2.741839 1_555
Zn0 Zn2 2.741839 1_555
Zn1 Zn9 2.567850 1_555
Zn1 Zn7 2.567857 1_555
Zn1 Zn2 2.741839 1_555
Zn2 Zn8 2.567850 1_555
Zn2 Zn7 2.567857 1_555
Zn3 Zn7 2.544352 1_555
Zn3 Zn9 2.544352 1_565
Zn3 Zn8 2.544352 1_655
Zn3 Zn5 2.812575 1_555
Zn3 Zn4 2.812575 1_555
Zn3 Zn6 2.812575 1_555
Zn4 Zn8 2.568042 1_655
Zn4 Zn9 2.568042 1_565
Zn4 Zn5 2.760590 1_555
Zn4 Zn6 2.760590 1_555
Zn5 Zn9 2.568042 1_565
Zn5 Zn7 2.568042 1_555
Zn5 Zn6 2.760590 1_555
Zn6 Zn8 2.568042 1_655
Zn6 Zn7 2.568042 1_555
Pd0 Zn9 2.647542 1_555
Pd0 Zn8 2.647542 1_555
Pd0 Zn7 2.647556 1_555
Pd0 Zn0 2.836036 1_555
Pd0 Zn1 2.836040 1_555
Pd0 Zn2 2.836040 1_555
Pd1 Zn0 2.587616 1_555
Pd1 Zn2 2.587620 1_555
Pd1 Zn1 2.587621 1_555
Pd1 Zn6 2.592779 1_554
Pd1 Zn5 2.592779 1_554
Pd1 Zn4 2.592788 1_554
