# generated using pymatgen
data_BaVNiP2
_symmetry_space_group_name_H-M   'P 1'
_cell_length_a   6.97986713
_cell_length_b   6.97986730
_cell_length_c   6.97986652
_cell_angle_alpha   147.42325418
_cell_angle_beta   147.42324890
_cell_angle_gamma   46.73749352
_symmetry_Int_Tables_number   1
_chemical_formula_structural   BaVNiP2
_chemical_formula_sum   'Ba1 V1 Ni1 P2'
_cell_volume   98.22212375
_cell_formula_units_Z   1
loop_
 _symmetry_equiv_pos_site_id
 _symmetry_equiv_pos_as_xyz
  1  'x, y, z'
loop_
 _atom_site_type_symbol
 _atom_site_label
 _atom_site_symmetry_multiplicity
 _atom_site_fract_x
 _atom_site_fract_y
 _atom_site_fract_z
 _atom_site_occupancy
  Ba  Ba0  1  0.00000000  0.00000000  0.00000000  1
  V  V0  1  0.75000000  0.25000000  0.50000000  1
  Ni  Ni0  1  0.25000000  0.75000000  0.50000000  1
  P  P0  1  0.65372996  0.65372996  1.00000000  1
  P  P1  1  0.34627004  0.34627004  0.00000000  1
loop_
_geom_bond_atom_site_label_1
_geom_bond_atom_site_label_2
_geom_bond_distance
_geom_bond_site_symmetry_2
Ba0 P0 3.397898 1_443
Ba0 P1 3.397898 1_556
Ba0 P0 3.397898 1_544
Ba0 P1 3.397898 1_455
Ba0 P0 3.397898 1_454
Ba0 P1 3.397898 1_545
Ba0 P0 3.397899 1_555
Ba0 P1 3.397899 1_444
Ni0 P1 2.313947 1_555
Ni0 P0 2.313947 1_555
Ni0 P1 2.313947 1_566
Ni0 P0 2.313947 1_454
P0 V0 2.313947 1_555
P0 V0 2.313947 1_566
P1 V0 2.313947 1_555
P1 V0 2.313947 1_454
