# generated using pymatgen
data_Rb4Ru2Cl10O
_symmetry_space_group_name_H-M   'P 1'
_cell_length_a   7.38702742
_cell_length_b   7.38702821
_cell_length_c   10.13888860
_cell_angle_alpha   111.36400837
_cell_angle_beta   111.36401146
_cell_angle_gamma   89.99999554
_symmetry_Int_Tables_number   1
_chemical_formula_structural   Rb4Ru2Cl10O
_chemical_formula_sum   'Rb4 Ru2 Cl10 O1'
_cell_volume   474.18763143
_cell_formula_units_Z   1
loop_
 _symmetry_equiv_pos_site_id
 _symmetry_equiv_pos_as_xyz
  1  'x, y, z'
loop_
 _atom_site_type_symbol
 _atom_site_label
 _atom_site_symmetry_multiplicity
 _atom_site_fract_x
 _atom_site_fract_y
 _atom_site_fract_z
 _atom_site_occupancy
  Rb  Rb0  1  0.50000000  0.00000000  0.00000000  1
  Rb  Rb1  1  0.00000000  0.50000000  0.00000000  1
  Rb  Rb2  1  0.75000000  0.25000000  0.50000000  1
  Rb  Rb3  1  0.25000000  0.75000000  0.50000000  1
  Ru  Ru0  1  0.10322257  0.10322257  0.20644515  1
  Ru  Ru1  1  0.89677743  0.89677743  0.79355585  1
  Cl  Cl0  1  0.34064202  0.34064202  0.22557022  1
  Cl  Cl1  1  0.88492820  0.34064202  0.22557022  1
  Cl  Cl2  1  0.34064202  0.88492820  0.22557022  1
  Cl  Cl3  1  0.88492820  0.88492820  0.22557022  1
  Cl  Cl4  1  0.23764282  0.23764282  0.47528564  1
  Cl  Cl5  1  0.76235818  0.76235818  0.52471436  1
  Cl  Cl6  1  0.11507180  0.11507180  0.77442978  1
  Cl  Cl7  1  0.65935798  0.11507180  0.77442978  1
  Cl  Cl8  1  0.11507180  0.65935798  0.77442978  1
  Cl  Cl9  1  0.65935798  0.65935798  0.77442978  1
  O  O0  1  0.00000000  0.00000000  0.00000000  1
loop_
_geom_bond_atom_site_label_1
_geom_bond_atom_site_label_2
_geom_bond_distance
_geom_bond_site_symmetry_2
Cl0 Ru0 2.386178 1_555
Cl0 Rb1 3.273649 1_555
Cl0 Rb0 3.273649 1_555
Cl0 Rb2 3.544227 1_555
Cl0 Rb3 3.544227 1_555
Cl1 Ru0 2.386178 1_655
Cl1 Rb0 3.273649 1_555
Cl1 Rb1 3.273649 1_655
Cl1 Rb3 3.544227 1_655
Cl1 Rb2 3.544227 1_555
Cl2 Ru0 2.386178 1_565
Cl2 Rb1 3.273649 1_555
Cl2 Rb0 3.273649 1_565
Cl2 Rb2 3.544227 1_565
Cl2 Rb3 3.544227 1_555
Cl3 Ru0 2.386178 1_665
Cl3 Rb0 3.273649 1_565
Cl3 Rb1 3.273649 1_655
Cl3 Rb3 3.544227 1_655
Cl3 Rb2 3.544227 1_565
Cl4 Ru0 2.336175 1_555
Cl4 Rb2 3.699752 1_555
Cl4 Rb2 3.699752 1_455
Cl4 Rb3 3.699753 1_555
Cl4 Rb3 3.699753 1_545
Cl5 Ru1 2.336184 1_555
Cl5 Rb3 3.699745 1_655
Cl5 Rb2 3.699745 1_565
Cl5 Rb3 3.699760 1_555
Cl5 Rb2 3.699760 1_555
Cl6 Ru1 2.386184 1_445
Cl6 Rb0 3.273649 1_556
Cl6 Rb1 3.273649 1_556
Cl6 Rb2 3.544227 1_455
Cl6 Rb3 3.544227 1_545
Cl7 Ru1 2.386179 1_545
Cl7 Rb1 3.273649 1_656
Cl7 Rb0 3.273649 1_556
Cl7 Rb3 3.544227 1_545
Cl7 Rb2 3.544227 1_555
Cl8 Ru1 2.386179 1_455
Cl8 Rb0 3.273649 1_566
Cl8 Rb1 3.273649 1_556
Cl8 Rb2 3.544227 1_455
Cl8 Rb3 3.544227 1_555
Cl9 Ru1 2.386174 1_555
Cl9 Rb1 3.273649 1_656
Cl9 Rb0 3.273649 1_566
Cl9 Rb3 3.544227 1_555
Cl9 Rb2 3.544227 1_555
O0 Ru1 1.793962 1_444
O0 Ru0 1.793971 1_555
