# generated using pymatgen
data_Cs5ScAl2Se7
_symmetry_space_group_name_H-M   'P 1'
_cell_length_a   11.42126317
_cell_length_b   11.42126349
_cell_length_c   9.63728432
_cell_angle_alpha   76.52420477
_cell_angle_beta   76.52420225
_cell_angle_gamma   70.65780113
_symmetry_Int_Tables_number   1
_chemical_formula_structural   Cs5ScAl2Se7
_chemical_formula_sum   'Cs10 Sc2 Al4 Se14'
_cell_volume   1136.76340969
_cell_formula_units_Z   2
loop_
 _symmetry_equiv_pos_site_id
 _symmetry_equiv_pos_as_xyz
  1  'x, y, z'
loop_
 _atom_site_type_symbol
 _atom_site_label
 _atom_site_symmetry_multiplicity
 _atom_site_fract_x
 _atom_site_fract_y
 _atom_site_fract_z
 _atom_site_occupancy
  Cs  Cs0  1  0.03203331  0.42653568  0.71794737  1
  Cs  Cs1  1  0.42653568  0.03203331  0.71794737  1
  Cs  Cs2  1  0.96796669  0.57346432  0.28205263  1
  Cs  Cs3  1  0.57346432  0.96796669  0.28205263  1
  Cs  Cs4  1  0.29483010  0.70516990  0.00000000  1
  Cs  Cs5  1  0.70516990  0.29483010  1.00000000  1
  Cs  Cs6  1  0.84542561  0.15457439  0.50000000  1
  Cs  Cs7  1  0.15457439  0.84542561  0.50000000  1
  Cs  Cs8  1  0.43028170  0.43028170  0.69250549  1
  Cs  Cs9  1  0.56971830  0.56971830  0.30749451  1
  Sc  Sc0  1  0.21266766  0.21266766  0.18098299  1
  Sc  Sc1  1  0.78733234  0.78733234  0.81901701  1
  Al  Al0  1  0.06948449  0.06948449  0.05658600  1
  Al  Al1  1  0.93051551  0.93051551  0.94341400  1
  Al  Al2  1  0.34602906  0.34602906  0.33649044  1
  Al  Al3  1  0.65397094  0.65397094  0.66350956  1
  Se  Se0  1  0.99195943  0.28034886  0.11240431  1
  Se  Se1  1  0.28034886  0.99195943  0.11240431  1
  Se  Se2  1  0.00804057  0.71965114  0.88759569  1
  Se  Se3  1  0.71965114  0.00804057  0.88759569  1
  Se  Se4  1  0.20930355  0.20930355  0.44472459  1
  Se  Se5  1  0.79069645  0.79069645  0.55527541  1
  Se  Se6  1  0.06099711  0.06099711  0.81270149  1
  Se  Se7  1  0.93900289  0.93900289  0.18729851  1
  Se  Se8  1  0.35424452  0.35424452  0.07524300  1
  Se  Se9  1  0.64575548  0.64575548  0.92475700  1
  Se  Se10  1  0.24961201  0.54779094  0.39805446  1
  Se  Se11  1  0.54779094  0.24961201  0.39805446  1
  Se  Se12  1  0.75038799  0.45220906  0.60194554  1
  Se  Se13  1  0.45220906  0.75038799  0.60194554  1
loop_
_geom_bond_atom_site_label_1
_geom_bond_atom_site_label_2
_geom_bond_distance
_geom_bond_site_symmetry_2
Cs0 Se12 3.547067 1_455
Cs0 Se0 3.766380 1_456
Cs0 Se10 3.783750 1_555
Cs0 Se4 3.797479 1_555
Cs0 Se2 3.961068 1_555
Cs0 Se6 3.977725 1_555
Cs1 Se13 3.547067 1_545
Cs1 Se1 3.766380 1_546
Cs1 Se11 3.783750 1_555
Cs1 Se4 3.797479 1_555
Cs1 Se3 3.961068 1_555
Cs1 Se6 3.977725 1_555
Cs2 Se10 3.547067 1_655
Cs2 Se2 3.766380 1_654
Cs2 Se12 3.783750 1_555
Cs2 Se5 3.797479 1_555
Cs2 Se0 3.961068 1_555
Cs2 Se7 3.977725 1_555
Cs3 Se11 3.547067 1_565
Cs3 Se3 3.766380 1_564
Cs3 Se13 3.783750 1_555
Cs3 Se5 3.797479 1_555
Cs3 Se1 3.961068 1_555
Cs3 Se7 3.977725 1_555
Cs4 Se2 3.625064 1_554
Cs4 Se1 3.625064 1_555
Cs4 Se9 3.758137 1_554
Cs4 Se8 3.758137 1_555
Cs4 Se13 3.832961 1_554
Cs4 Se10 3.832961 1_555
Cs5 Se0 3.625064 1_556
Cs5 Se3 3.625064 1_555
Cs5 Se8 3.758137 1_556
Cs5 Se9 3.758137 1_555
Cs5 Se11 3.832961 1_556
Cs5 Se12 3.832961 1_555
Cs6 Se11 3.509198 1_555
Cs6 Se12 3.509198 1_555
Cs6 Se0 3.872403 1_555
Cs6 Se3 3.872403 1_555
Cs6 Se7 4.061999 1_545
Cs6 Se6 4.061999 1_655
Cs7 Se13 3.509198 1_555
Cs7 Se10 3.509198 1_555
Cs7 Se2 3.872403 1_555
Cs7 Se1 3.872403 1_555
Cs7 Se6 4.061999 1_565
Cs7 Se7 4.061999 1_455
Cs8 Se8 3.553514 1_556
Cs8 Se12 3.634336 1_555
Cs8 Se13 3.634336 1_555
Cs8 Se11 3.637489 1_555
Cs8 Se10 3.637489 1_555
Cs9 Se9 3.553514 1_554
Cs9 Se10 3.634336 1_555
Cs9 Se11 3.634336 1_555
Cs9 Se13 3.637489 1_555
Cs9 Se12 3.637489 1_555
Sc0 Se4 2.524560 1_555
Sc0 Se8 2.542396 1_555
Sc0 Se0 2.576083 1_455
Sc0 Se1 2.576083 1_545
Sc1 Se5 2.524560 1_555
Sc1 Se9 2.542396 1_555
Sc1 Se2 2.576083 1_655
Sc1 Se3 2.576083 1_565
Al0 Se7 2.397896 1_445
Al0 Se6 2.400354 1_554
Al0 Se1 2.417171 1_545
Al0 Se0 2.417171 1_455
Al1 Se6 2.397896 1_665
Al1 Se7 2.400354 1_556
Al1 Se3 2.417171 1_565
Al1 Se2 2.417171 1_655
Al2 Se11 2.350867 1_555
Al2 Se10 2.350867 1_555
Al2 Se4 2.462129 1_555
Al2 Se8 2.478331 1_555
Al3 Se13 2.350867 1_555
Al3 Se12 2.350867 1_555
Al3 Se5 2.462129 1_555
Al3 Se9 2.478331 1_555
