# generated using pymatgen
data_NaBiRu2O7
_symmetry_space_group_name_H-M   'P 1'
_cell_length_a   7.18425761
_cell_length_b   7.18481123
_cell_length_c   7.18428064
_cell_angle_alpha   119.45373085
_cell_angle_beta   120.67233250
_cell_angle_gamma   89.89105750
_symmetry_Int_Tables_number   1
_chemical_formula_structural   NaBiRu2O7
_chemical_formula_sum   'Na2 Bi2 Ru4 O14'
_cell_volume   261.93937146
_cell_formula_units_Z   2
loop_
 _symmetry_equiv_pos_site_id
 _symmetry_equiv_pos_as_xyz
  1  'x, y, z'
loop_
 _atom_site_type_symbol
 _atom_site_label
 _atom_site_symmetry_multiplicity
 _atom_site_fract_x
 _atom_site_fract_y
 _atom_site_fract_z
 _atom_site_occupancy
  Na  Na0  1  0.50000000  0.50000000  0.00000000  1
  Na  Na1  1  0.00000000  0.50000000  0.50000000  1
  Bi  Bi0  1  0.50000000  0.50000000  0.50000000  1
  Bi  Bi1  1  0.50000000  0.00000000  0.00000000  1
  Ru  Ru0  1  0.00000000  0.00000000  0.50000000  1
  Ru  Ru1  1  0.00000000  0.50000000  0.00000000  1
  Ru  Ru2  1  0.00000000  0.00000000  0.00000000  1
  Ru  Ru3  1  0.50000000  0.00000000  0.50000000  1
  O  O0  1  0.33007883  0.07183766  0.65435568  1
  O  O1  1  0.91731887  0.07198563  0.24170845  1
  O  O2  1  0.94109519  0.69209476  0.25097911  1
  O  O3  1  0.91534145  0.67832557  0.85239375  1
  O  O4  1  0.32587043  0.67841084  0.26268712  1
  O  O5  1  0.32764459  0.08053717  0.25286519  1
  O  O6  1  0.66992117  0.92816234  0.34564432  1
  O  O7  1  0.08268113  0.92801437  0.75829155  1
  O  O8  1  0.05890481  0.30790524  0.74902089  1
  O  O9  1  0.08465855  0.32167443  0.14760625  1
  O  O10  1  0.67412957  0.32158916  0.73731288  1
  O  O11  1  0.67235541  0.91946283  0.74713481  1
  O  O12  1  0.61708404  0.36419362  0.24703983  1
  O  O13  1  0.38291596  0.63580638  0.75296017  1
loop_
_geom_bond_atom_site_label_1
_geom_bond_atom_site_label_2
_geom_bond_distance
_geom_bond_site_symmetry_2
Na0 O12 2.233019 1_555
Na0 O13 2.233019 1_554
Na0 O6 2.555181 1_555
Na0 O0 2.555181 1_554
Na0 O10 2.606387 1_554
Na0 O4 2.606387 1_555
Na0 O2 2.633974 1_555
Na0 O8 2.633974 1_554
Na1 O12 2.233433 1_455
Na1 O13 2.233433 1_555
Na1 O7 2.554114 1_555
Na1 O1 2.554114 1_455
Na1 O3 2.607490 1_455
Na1 O9 2.607490 1_555
Na1 O2 2.634049 1_455
Na1 O8 2.634049 1_555
Bi0 O13 2.185170 1_555
Bi0 O12 2.185170 1_555
Bi0 O3 2.464140 1_555
Bi0 O9 2.464140 1_555
Bi0 O4 2.466170 1_555
Bi0 O10 2.466170 1_555
Bi0 O11 2.505443 1_555
Bi0 O5 2.505443 1_555
Bi1 O13 2.149994 1_544
Bi1 O12 2.149994 1_555
Bi1 O7 2.466300 1_544
Bi1 O1 2.466300 1_555
Bi1 O6 2.467434 1_545
Bi1 O0 2.467434 1_554
Bi1 O11 2.535119 1_544
Bi1 O5 2.535119 1_555
O0 Ru3 1.949939 1_555
O0 Ru0 1.969351 1_555
O1 Ru2 1.950316 1_655
O1 Ru0 1.970237 1_655
O2 Ru0 1.900693 1_665
O2 Ru1 1.914168 1_655
O3 Ru2 1.942419 1_666
O3 Ru1 1.952231 1_656
O4 Ru3 1.941977 1_565
O4 Ru1 1.951990 1_555
O5 Ru2 1.945356 1_555
O5 Ru3 1.945521 1_555
O6 Ru3 1.949939 1_565
O6 Ru0 1.969351 1_665
O7 Ru2 1.950316 1_566
O7 Ru0 1.970237 1_565
O8 Ru0 1.900693 1_555
O8 Ru1 1.914168 1_556
O9 Ru2 1.942419 1_555
O9 Ru1 1.952231 1_555
O10 Ru3 1.941977 1_555
O10 Ru1 1.951990 1_656
O11 Ru2 1.945356 1_666
O11 Ru3 1.945521 1_565
