# generated using pymatgen
data_Ho10Ti6O27
_symmetry_space_group_name_H-M   'P 1'
_cell_length_a   7.39899491
_cell_length_b   7.39899491
_cell_length_c   12.49936372
_cell_angle_alpha   72.14272887
_cell_angle_beta   72.14272887
_cell_angle_gamma   58.69490587
_symmetry_Int_Tables_number   1
_chemical_formula_structural   Ho10Ti6O27
_chemical_formula_sum   'Ho10 Ti6 O27'
_cell_volume   547.28386144
_cell_formula_units_Z   1
loop_
 _symmetry_equiv_pos_site_id
 _symmetry_equiv_pos_as_xyz
  1  'x, y, z'
loop_
 _atom_site_type_symbol
 _atom_site_label
 _atom_site_symmetry_multiplicity
 _atom_site_fract_x
 _atom_site_fract_y
 _atom_site_fract_z
 _atom_site_occupancy
  Ho  Ho0  1  0.51900700  0.51900700  0.99595200  1
  Ho  Ho1  1  0.74502400  0.74502400  0.23530800  1
  Ho  Ho2  1  0.25903900  0.74937400  0.25252800  1
  Ho  Ho3  1  0.24966000  0.24966000  0.76817200  1
  Ho  Ho4  1  0.51569800  0.51569800  0.50336600  1
  Ho  Ho5  1  0.74937400  0.25903900  0.25252800  1
  Ho  Ho6  1  0.77191400  0.27885600  0.73162400  1
  Ho  Ho7  1  0.25775000  0.25775000  0.27403100  1
  Ho  Ho8  1  0.27885600  0.77191400  0.73162400  1
  Ho  Ho9  1  0.98198000  0.98198000  0.99050000  1
  Ti  Ti0  1  0.02013600  0.49514700  0.00506800  1
  Ti  Ti1  1  0.49514700  0.02013600  0.00506800  1
  Ti  Ti2  1  0.00738400  0.51909600  0.49363100  1
  Ti  Ti3  1  0.51909600  0.00738400  0.49363100  1
  Ti  Ti4  1  0.74786900  0.74786900  0.75617000  1
  Ti  Ti5  1  0.00129600  0.00129600  0.50601700  1
  O  O0  1  0.60920900  0.02729900  0.31628700  1
  O  O1  1  0.79041800  0.79041800  0.04299500  1
  O  O2  1  0.83497100  0.27865900  0.06407400  1
  O  O3  1  0.02729900  0.60920900  0.31628700  1
  O  O4  1  0.14398400  0.67875200  0.47752100  1
  O  O5  1  0.43599100  0.43599100  0.18570600  1
  O  O6  1  0.26719600  0.26719600  0.45538200  1
  O  O7  1  0.92060500  0.55657200  0.86318100  1
  O  O8  1  0.27865900  0.83497100  0.06407400  1
  O  O9  1  0.05864900  0.05864900  0.34098500  1
  O  O10  1  0.42233900  0.99689400  0.16562600  1
  O  O11  1  0.56931000  0.56931000  0.31552900  1
  O  O12  1  0.28366000  0.87981600  0.53811200  1
  O  O13  1  0.67875200  0.14398400  0.47752100  1
  O  O14  1  0.55657200  0.92060500  0.86318100  1
  O  O15  1  0.43148400  0.43148400  0.68963800  1
  O  O16  1  0.62797700  0.19796200  0.94301600  1
  O  O17  1  0.90667400  0.90667400  0.67478600  1
  O  O18  1  0.69635000  0.69635000  0.49704400  1
  O  O19  1  0.99689400  0.42233900  0.16562600  1
  O  O20  1  0.87981600  0.28366000  0.53811200  1
  O  O21  1  0.58609600  0.58609600  0.79592700  1
  O  O22  1  0.06485900  0.06485900  0.81083900  1
  O  O23  1  0.97279200  0.46636000  0.66050000  1
  O  O24  1  0.19796200  0.62797700  0.94301600  1
  O  O25  1  0.46636000  0.97279200  0.66050000  1
  O  O26  1  0.23839500  0.23839500  0.95181500  1
loop_
_geom_bond_atom_site_label_1
_geom_bond_atom_site_label_2
_geom_bond_distance
_geom_bond_site_symmetry_2
Ho0 O5 2.232744 1_556
Ho0 O2 2.307530 1_556
Ho0 O8 2.307530 1_556
Ho0 O24 2.318819 1_555
Ho0 O16 2.318819 1_555
Ho0 O21 2.340409 1_555
Ho1 O11 2.131546 1_555
Ho1 O0 2.210894 1_565
Ho1 O3 2.210894 1_655
Ho1 O1 2.265117 1_555
Ho1 O10 2.363904 1_555
Ho1 O19 2.363904 1_555
Ho2 O8 2.222995 1_555
Ho2 O11 2.225354 1_555
Ho2 O5 2.269480 1_555
Ho2 O3 2.270161 1_555
Ho2 O9 2.382798 1_565
Ho2 O10 2.503670 1_555
Ho2 O4 2.645630 1_555
Ho3 O15 2.200979 1_555
Ho3 O26 2.248421 1_555
Ho3 O22 2.252135 1_555
Ho3 O23 2.352177 1_455
Ho3 O25 2.352177 1_545
Ho3 O14 2.574856 1_545
Ho3 O7 2.574856 1_455
Ho4 O15 2.195768 1_555
Ho4 O11 2.201869 1_555
Ho4 O18 2.303595 1_555
Ho4 O12 2.418275 1_555
Ho4 O20 2.418275 1_555
Ho4 O13 2.445776 1_555
Ho4 O4 2.445776 1_555
Ho5 O2 2.222995 1_555
Ho5 O11 2.225354 1_555
Ho5 O5 2.269480 1_555
Ho5 O0 2.270161 1_555
Ho5 O9 2.382798 1_655
Ho5 O19 2.503670 1_555
Ho5 O13 2.645630 1_555
Ho6 O21 2.213354 1_555
Ho6 O22 2.230188 1_655
Ho6 O20 2.298169 1_555
Ho6 O15 2.320887 1_555
Ho6 O23 2.345242 1_555
Ho6 O16 2.537856 1_555
Ho6 O17 2.644657 1_545
Ho7 O5 2.172292 1_555
Ho7 O19 2.278941 1_455
Ho7 O10 2.278941 1_545
Ho7 O6 2.312450 1_555
Ho7 O0 2.372947 1_555
Ho7 O3 2.372947 1_555
Ho7 O9 2.404935 1_555
Ho8 O21 2.213354 1_555
Ho8 O22 2.230188 1_565
Ho8 O12 2.298169 1_555
Ho8 O15 2.320887 1_555
Ho8 O25 2.345242 1_555
Ho8 O24 2.537856 1_555
Ho8 O17 2.644657 1_455
Ho9 O22 2.120539 1_665
Ho9 O2 2.234000 1_566
Ho9 O8 2.234000 1_656
Ho9 O1 2.322781 1_556
Ho9 O24 2.405941 1_655
Ho9 O16 2.405941 1_565
O0 Ti3 2.091725 1_555
O1 Ti1 2.041761 1_565
O1 Ti0 2.041761 1_655
O2 Ti0 2.433717 1_655
O3 Ti2 2.091725 1_555
O4 Ti2 1.851364 1_555
O4 Ti5 2.146921 1_565
O6 Ti3 1.912407 1_555
O6 Ti2 1.912407 1_555
O7 Ti4 1.852941 1_555
O7 Ti0 1.962914 1_656
O8 Ti1 2.433717 1_565
O9 Ti5 1.930987 1_555
O10 Ti1 1.889150 1_565
O12 Ti5 1.917046 1_565
O12 Ti3 2.242181 1_565
O13 Ti3 1.851364 1_555
O13 Ti5 2.146921 1_655
O14 Ti4 1.852941 1_555
O14 Ti1 1.962914 1_566
O16 Ti1 1.883897 1_556
O17 Ti4 1.940274 1_555
O17 Ti5 2.031785 1_665
O18 Ti3 1.963575 1_565
O18 Ti2 1.963575 1_655
O19 Ti0 1.889150 1_655
O20 Ti5 1.917046 1_655
O20 Ti2 2.242181 1_655
O21 Ti4 1.967645 1_555
O23 Ti2 1.960967 1_655
O23 Ti4 2.289719 1_555
O24 Ti0 1.883897 1_556
O25 Ti3 1.960967 1_565
O25 Ti4 2.289719 1_555
O26 Ti0 1.894214 1_556
O26 Ti1 1.894214 1_556
