# generated using pymatgen
data_Ga4Hg11(SbI4)4
_symmetry_space_group_name_H-M   'P 1'
_cell_length_a   8.35045380
_cell_length_b   8.35045477
_cell_length_c   24.03591505
_cell_angle_alpha   83.17255273
_cell_angle_beta   83.17255240
_cell_angle_gamma   59.17216282
_symmetry_Int_Tables_number   1
_chemical_formula_structural   Ga4Hg11(SbI4)4
_chemical_formula_sum   'Ga4 Hg11 Sb4 I16'
_cell_volume   1425.71091452
_cell_formula_units_Z   1
loop_
 _symmetry_equiv_pos_site_id
 _symmetry_equiv_pos_as_xyz
  1  'x, y, z'
loop_
 _atom_site_type_symbol
 _atom_site_label
 _atom_site_symmetry_multiplicity
 _atom_site_fract_x
 _atom_site_fract_y
 _atom_site_fract_z
 _atom_site_occupancy
  Ga  Ga0  1  0.63945991  0.63945991  0.10955892  1
  Ga  Ga1  1  0.36054009  0.36054009  0.89044108  1
  Ga  Ga2  1  0.74533647  0.74533647  0.61185655  1
  Ga  Ga3  1  0.25466353  0.25466353  0.38814345  1
  Hg  Hg0  1  0.03248921  0.03248921  0.88805654  1
  Hg  Hg1  1  0.76695468  0.76695468  0.28206117  1
  Hg  Hg2  1  0.47503126  0.47503126  0.55508706  1
  Hg  Hg3  1  0.72941700  0.23477695  0.72310055  1
  Hg  Hg4  1  0.27058300  0.76522305  0.27689945  1
  Hg  Hg5  1  0.76522305  0.27058300  0.27689945  1
  Hg  Hg6  1  0.23477695  0.72941700  0.72310055  1
  Hg  Hg7  1  0.52496874  0.52496874  0.44491294  1
  Hg  Hg8  1  0.96751079  0.96751079  0.11194346  1
  Hg  Hg9  1  0.00000000  0.00000000  0.00000000  1
  Hg  Hg10  1  0.23304532  0.23304532  0.71793883  1
  Sb  Sb0  1  0.94235729  0.94235729  0.22876929  1
  Sb  Sb1  1  0.05764271  0.05764271  0.77123071  1
  Sb  Sb2  1  0.58844164  0.58844164  0.33104271  1
  Sb  Sb3  1  0.41155836  0.41155836  0.66895729  1
  I  I0  1  0.53786570  0.04076458  0.84760580  1
  I  I1  1  0.08372715  0.08372715  0.42905894  1
  I  I2  1  0.53402473  0.53402473  0.84958050  1
  I  I3  1  0.40639319  0.91689349  0.58375730  1
  I  I4  1  0.73522253  0.73522253  0.71904433  1
  I  I5  1  0.33526378  0.33526378  0.99601051  1
  I  I6  1  0.46213430  0.95923542  0.15239420  1
  I  I7  1  0.95923542  0.46213430  0.15239420  1
  I  I8  1  0.46597527  0.46597527  0.15041950  1
  I  I9  1  0.59360681  0.08310651  0.41624270  1
  I  I10  1  0.66473622  0.66473622  0.00398949  1
  I  I11  1  0.91689349  0.40639319  0.58375730  1
  I  I12  1  0.26477747  0.26477747  0.28095567  1
  I  I13  1  0.08310651  0.59360681  0.41624270  1
  I  I14  1  0.91627285  0.91627285  0.57094106  1
  I  I15  1  0.04076458  0.53786570  0.84760580  1
loop_
_geom_bond_atom_site_label_1
_geom_bond_atom_site_label_2
_geom_bond_distance
_geom_bond_site_symmetry_2
Ga0 I10 2.513717 1_555
Ga0 I7 2.573259 1_555
Ga0 I6 2.573259 1_555
Ga0 I8 2.576099 1_555
Ga1 I5 2.513717 1_555
Ga1 I15 2.573259 1_555
Ga1 I0 2.573259 1_555
Ga1 I2 2.576099 1_555
Ga2 I14 2.542204 1_555
Ga2 I4 2.560414 1_555
Ga2 I3 2.566698 1_555
Ga2 I11 2.566699 1_555
Ga3 I1 2.542204 1_555
Ga3 I12 2.560414 1_555
Ga3 I9 2.566698 1_555
Ga3 I13 2.566699 1_555
Hg0 Hg9 2.667433 1_556
Hg0 Sb1 2.781716 1_555
Hg1 Sb0 2.690359 1_555
Hg1 Sb2 2.696881 1_555
Hg2 Hg7 2.648306 1_555
Hg2 Sb3 2.766044 1_555
Hg3 Sb1 2.688914 1_655
Hg3 Sb3 2.695649 1_555
Hg4 Sb0 2.688914 1_455
Hg4 Sb2 2.695649 1_555
Hg5 Sb0 2.688914 1_545
Hg5 Sb2 2.695649 1_555
Hg6 Sb1 2.688914 1_565
Hg6 Sb3 2.695649 1_555
Hg7 Sb2 2.766044 1_555
Hg8 Hg9 2.667433 1_665
Hg8 Sb0 2.781716 1_555
Hg10 Sb1 2.690359 1_555
Hg10 Sb3 2.696881 1_555
