# generated using pymatgen
data_Ti13Al9VRh7
_symmetry_space_group_name_H-M   'P 1'
_cell_length_a   8.70308729
_cell_length_b   8.70308718
_cell_length_c   8.70308804
_cell_angle_alpha   59.65640806
_cell_angle_beta   59.65640404
_cell_angle_gamma   59.65641697
_symmetry_Int_Tables_number   1
_chemical_formula_structural   Ti13Al9VRh7
_chemical_formula_sum   'Ti13 Al9 V1 Rh7'
_cell_volume   462.48892542
_cell_formula_units_Z   1
loop_
 _symmetry_equiv_pos_site_id
 _symmetry_equiv_pos_as_xyz
  1  'x, y, z'
loop_
 _atom_site_type_symbol
 _atom_site_label
 _atom_site_symmetry_multiplicity
 _atom_site_fract_x
 _atom_site_fract_y
 _atom_site_fract_z
 _atom_site_occupancy
  Ti  Ti0  1  0.21403342  0.21403342  0.78652741  1
  Ti  Ti1  1  0.78652741  0.21403342  0.21403342  1
  Ti  Ti2  1  0.21403342  0.78652741  0.21403342  1
  Ti  Ti3  1  0.79525847  0.79525847  0.18885294  1
  Ti  Ti4  1  0.18885294  0.79525847  0.79525847  1
  Ti  Ti5  1  0.79525847  0.18885294  0.79525847  1
  Ti  Ti6  1  0.37741741  0.37741741  0.37741741  1
  Ti  Ti7  1  0.37837160  0.86893974  0.37837160  1
  Ti  Ti8  1  0.86893974  0.37837160  0.37837160  1
  Ti  Ti9  1  0.37837160  0.37837160  0.86893974  1
  Ti  Ti10  1  0.84572752  0.46520977  0.84572752  1
  Ti  Ti11  1  0.46520977  0.84572752  0.84572752  1
  Ti  Ti12  1  0.84572752  0.84572752  0.46520977  1
  Al  Al0  1  0.14985582  0.14985582  0.14985582  1
  Al  Al1  1  0.15405674  0.54383185  0.15405674  1
  Al  Al2  1  0.54383185  0.15405674  0.15405674  1
  Al  Al3  1  0.15405674  0.15405674  0.54383185  1
  Al  Al4  1  0.61919861  0.61919861  0.61919861  1
  Al  Al5  1  0.62072960  0.14161763  0.62072960  1
  Al  Al6  1  0.14161763  0.62072960  0.62072960  1
  Al  Al7  1  0.62072960  0.62072960  0.14161763  1
  Al  Al8  1  0.83028274  0.83028274  0.83028274  1
  V  V0  1  0.00447730  0.00447730  0.00447730  1
  Rh  Rh0  1  0.00472196  0.00472196  0.49754878  1
  Rh  Rh1  1  0.49754878  0.00472196  0.00472196  1
  Rh  Rh2  1  0.00472196  0.49754878  0.00472196  1
  Rh  Rh3  1  0.49956988  0.49956988  0.00082186  1
  Rh  Rh4  1  0.00082186  0.49956988  0.49956988  1
  Rh  Rh5  1  0.49956988  0.00082186  0.49956988  1
  Rh  Rh6  1  0.50048277  0.50048277  0.50048277  1
loop_
_geom_bond_atom_site_label_1
_geom_bond_atom_site_label_2
_geom_bond_distance
_geom_bond_site_symmetry_2
Ti0 V0 2.573027 1_556
Ti0 Ti10 2.776388 1_455
Ti0 Ti11 2.776388 1_545
Ti0 Ti6 2.921187 1_555
Ti0 Ti9 2.957267 1_555
Ti1 V0 2.573028 1_655
Ti1 Ti10 2.776388 1_554
Ti1 Ti12 2.776388 1_545
Ti1 Ti6 2.921187 1_555
Ti1 Ti8 2.957267 1_555
Ti2 V0 2.573028 1_565
Ti2 Ti6 2.921187 1_555
Ti2 Ti7 2.957267 1_555
Ti3 V0 2.579054 1_665
Ti3 Ti7 2.994512 1_555
Ti3 Ti8 2.994512 1_555
Ti4 V0 2.579055 1_566
Ti4 Ti7 2.994512 1_555
Ti4 Ti9 2.994512 1_555
Ti5 V0 2.579055 1_656
Ti5 Ti8 2.994512 1_555
Ti5 Ti9 2.994512 1_555
Ti10 Ti5 2.915535 1_555
Ti11 Ti2 2.776388 1_556
Ti11 Ti4 2.915535 1_555
Ti12 Ti2 2.776388 1_655
Ti12 Ti3 2.915535 1_555
Al0 Rh0 2.497192 1_555
Al0 Rh1 2.497192 1_555
Al0 Rh2 2.497192 1_555
Al0 Ti1 2.714581 1_455
Al0 Ti2 2.714581 1_545
Al0 Ti0 2.714581 1_554
Al1 Rh3 2.503207 1_555
Al1 Rh4 2.503207 1_555
Al1 Rh2 2.510998 1_555
Al1 Ti4 2.727840 1_554
Al1 Ti3 2.727841 1_455
Al1 Ti2 2.740354 1_555
Al2 Rh3 2.503207 1_555
Al2 Rh5 2.503207 1_555
Al2 Rh1 2.510998 1_555
Al2 Ti5 2.727840 1_554
Al2 Ti3 2.727841 1_545
Al2 Ti1 2.740354 1_555
Al3 Rh5 2.503207 1_555
Al3 Rh4 2.503207 1_555
Al3 Rh0 2.510998 1_555
Al3 Ti5 2.727840 1_455
Al3 Ti4 2.727840 1_545
Al3 Ti0 2.740354 1_555
Al4 Rh6 2.537351 1_555
Al4 Rh4 2.703074 1_655
Al4 Rh3 2.703074 1_556
Al4 Rh5 2.703074 1_565
Al4 Ti3 3.081994 1_555
Al4 Ti4 3.081994 1_555
Al4 Ti5 3.081995 1_555
Al5 Rh6 2.539041 1_555
Al5 Rh1 2.717524 1_556
Al5 Rh0 2.717524 1_655
Al5 Rh5 2.731244 1_555
Al5 Ti5 2.894176 1_555
Al5 Ti0 2.917554 1_555
Al5 Ti1 2.917554 1_555
Al6 Rh6 2.539041 1_555
Al6 Rh2 2.717524 1_556
Al6 Rh0 2.717524 1_565
Al6 Rh4 2.731245 1_555
Al6 Ti4 2.894176 1_555
Al6 Ti0 2.917554 1_555
Al6 Ti2 2.917554 1_555
Al7 Rh6 2.539041 1_555
Al7 Rh2 2.717524 1_655
Al7 Rh1 2.717524 1_565
Al7 Rh3 2.731245 1_555
Al7 Ti3 2.894176 1_555
Al7 Ti2 2.917554 1_555
Al7 Ti1 2.917554 1_555
Al8 Rh0 2.537770 1_665
Al8 Rh1 2.537770 1_566
Al8 Rh2 2.537770 1_656
Al8 Ti5 2.845359 1_565
Al8 Ti4 2.845359 1_655
Al8 Ti3 2.845359 1_556
Rh0 Ti12 2.574933 1_445
Rh0 Ti7 2.644804 1_545
Rh0 Ti8 2.644804 1_455
Rh0 Ti5 3.012597 1_455
Rh0 Ti4 3.012597 1_545
Rh0 Ti2 3.116162 1_545
Rh0 Ti1 3.116162 1_455
Rh1 Ti11 2.574933 1_544
Rh1 Ti7 2.644804 1_545
Rh1 Ti9 2.644804 1_554
Rh1 Ti5 3.012597 1_554
Rh1 Ti3 3.012597 1_545
Rh1 Ti2 3.116161 1_545
Rh1 Ti0 3.116162 1_554
Rh2 Ti10 2.574933 1_454
Rh2 Ti8 2.644804 1_455
Rh2 Ti9 2.644804 1_554
Rh2 Ti4 3.012597 1_554
Rh2 Ti3 3.012597 1_455
Rh2 Ti1 3.116161 1_455
Rh2 Ti0 3.116162 1_554
Rh3 Ti10 2.525143 1_554
Rh3 Ti11 2.525143 1_554
Rh3 Ti6 2.665255 1_555
Rh3 Ti9 2.667060 1_554
Rh3 Ti2 3.099748 1_555
Rh3 Ti1 3.099749 1_555
Rh3 Ti5 3.215744 1_554
Rh3 Ti4 3.215745 1_554
Rh4 Ti10 2.525144 1_455
Rh4 Ti12 2.525144 1_455
Rh4 Ti6 2.665255 1_555
Rh4 Ti8 2.667060 1_455
Rh4 Ti2 3.099748 1_555
Rh4 Ti0 3.099749 1_555
Rh4 Ti5 3.215744 1_455
Rh4 Ti3 3.215745 1_455
Rh5 Ti11 2.525144 1_545
Rh5 Ti12 2.525144 1_545
Rh5 Ti6 2.665256 1_555
Rh5 Ti7 2.667060 1_545
Rh5 Ti1 3.099748 1_555
Rh5 Ti0 3.099748 1_555
Rh5 Ti4 3.215744 1_545
Rh5 Ti3 3.215744 1_545
Rh6 Ti9 2.607008 1_555
Rh6 Ti8 2.607008 1_555
Rh6 Ti7 2.607009 1_555
Rh6 Ti6 2.630314 1_555
