# generated using pymatgen
data_Cs2Hf7BBr18
_symmetry_space_group_name_H-M   'P 1'
_cell_length_a   10.87690986
_cell_length_b   10.87691082
_cell_length_c   10.87691053
_cell_angle_alpha   55.66134109
_cell_angle_beta   55.66133494
_cell_angle_gamma   55.66134325
_symmetry_Int_Tables_number   1
_chemical_formula_structural   Cs2Hf7BBr18
_chemical_formula_sum   'Cs2 Hf7 B1 Br18'
_cell_volume   818.31959239
_cell_formula_units_Z   1
loop_
 _symmetry_equiv_pos_site_id
 _symmetry_equiv_pos_as_xyz
  1  'x, y, z'
loop_
 _atom_site_type_symbol
 _atom_site_label
 _atom_site_symmetry_multiplicity
 _atom_site_fract_x
 _atom_site_fract_y
 _atom_site_fract_z
 _atom_site_occupancy
  Cs  Cs0  1  0.77419435  0.77419435  0.77419435  1
  Cs  Cs1  1  0.22580565  0.22580565  0.22580565  1
  Hf  Hf0  1  0.15417991  0.90281459  0.80181758  1
  Hf  Hf1  1  0.84582009  0.09718541  0.19818242  1
  Hf  Hf2  1  0.09718541  0.19818242  0.84582009  1
  Hf  Hf3  1  0.19818242  0.84582009  0.09718541  1
  Hf  Hf4  1  0.90281459  0.80181758  0.15417991  1
  Hf  Hf5  1  0.80181758  0.15417991  0.90281459  1
  Hf  Hf6  1  0.50000000  0.50000000  0.50000000  1
  B  B0  1  0.00000000  0.00000000  0.00000000  1
  Br  Br0  1  0.22181062  0.47053079  0.64265294  1
  Br  Br1  1  0.77818938  0.52946921  0.35734706  1
  Br  Br2  1  0.34773696  0.05303887  0.93307556  1
  Br  Br3  1  0.65226304  0.94696113  0.06692444  1
  Br  Br4  1  0.93307556  0.34773696  0.05303887  1
  Br  Br5  1  0.70829647  0.87872109  0.41449624  1
  Br  Br6  1  0.35734706  0.77818938  0.52946921  1
  Br  Br7  1  0.58550376  0.29170353  0.12127891  1
  Br  Br8  1  0.29170353  0.12127891  0.58550376  1
  Br  Br9  1  0.12127891  0.58550376  0.29170353  1
  Br  Br10  1  0.94696113  0.06692444  0.65226304  1
  Br  Br11  1  0.41449624  0.70829647  0.87872109  1
  Br  Br12  1  0.87872109  0.41449624  0.70829647  1
  Br  Br13  1  0.06692444  0.65226304  0.94696113  1
  Br  Br14  1  0.47053079  0.64265294  0.22181062  1
  Br  Br15  1  0.64265294  0.22181062  0.47053079  1
  Br  Br16  1  0.52946921  0.35734706  0.77818938  1
  Br  Br17  1  0.05303887  0.93307556  0.34773696  1
loop_
_geom_bond_atom_site_label_1
_geom_bond_atom_site_label_2
_geom_bond_distance
_geom_bond_site_symmetry_2
B0 Hf1 2.251422 1_455
B0 Hf0 2.251422 1_544
B0 Hf2 2.251422 1_554
B0 Hf4 2.251422 1_445
B0 Hf3 2.251422 1_545
B0 Hf5 2.251422 1_454
Br0 Hf6 2.627239 1_555
Br0 Hf2 3.043295 1_555
Br0 Cs0 3.998897 1_455
Br1 Hf6 2.627239 1_555
Br1 Hf4 3.043295 1_555
Br1 Cs1 3.998897 1_655
Br2 Hf2 2.682115 1_555
Br2 Hf3 2.689623 1_546
Br2 Cs1 3.821330 1_556
Br2 Cs0 3.833989 1_545
Br3 Hf4 2.682115 1_555
Br3 Hf5 2.689623 1_564
Br3 Cs0 3.821330 1_554
Br3 Cs1 3.833989 1_565
Br4 Hf1 2.682115 1_555
Br4 Hf2 2.689623 1_654
Br4 Cs1 3.821330 1_655
Br4 Cs0 3.833989 1_554
Br5 Hf4 2.666476 1_555
Br5 Hf1 2.674285 1_565
Br5 Cs0 3.786737 1_555
Br6 Hf6 2.627240 1_555
Br6 Hf0 3.043295 1_555
Br6 Cs1 3.998897 1_565
Br7 Hf1 2.666476 1_555
Br7 Hf5 2.674285 1_554
Br7 Cs1 3.786737 1_555
Br8 Hf2 2.666476 1_555
Br8 Hf0 2.674285 1_545
Br8 Cs1 3.786737 1_555
Br9 Hf3 2.666476 1_555
Br9 Hf4 2.674285 1_455
Br9 Cs1 3.786737 1_555
Br10 Hf5 2.682115 1_555
Br10 Hf0 2.689623 1_645
Br10 Cs0 3.821330 1_545
Br10 Cs1 3.833988 1_655
Br11 Hf0 2.666476 1_555
Br11 Hf3 2.674285 1_556
Br11 Cs0 3.786737 1_555
Br12 Hf5 2.666476 1_555
Br12 Hf2 2.674285 1_655
Br12 Cs0 3.786737 1_555
Br13 Hf0 2.682115 1_555
Br13 Hf4 2.689623 1_456
Br13 Cs0 3.821330 1_455
Br13 Cs1 3.833989 1_556
Br14 Hf6 2.627240 1_555
Br14 Hf3 3.043295 1_555
Br14 Cs0 3.998897 1_554
Br15 Hf6 2.627240 1_555
Br15 Hf1 3.043295 1_555
Br15 Cs0 3.998897 1_545
Br16 Hf6 2.627240 1_555
Br16 Hf5 3.043295 1_555
Br16 Cs1 3.998897 1_556
Br17 Hf3 2.682115 1_555
Br17 Hf1 2.689623 1_465
Br17 Cs1 3.821330 1_565
Br17 Cs0 3.833988 1_455
