# generated using pymatgen
data_Y20CoHg6Pt
_symmetry_space_group_name_H-M   'P 1'
_cell_length_a   9.70610867
_cell_length_b   9.70610837
_cell_length_c   9.55801208
_cell_angle_alpha   90.00000000
_cell_angle_beta   90.00000000
_cell_angle_gamma   119.99999764
_symmetry_Int_Tables_number   1
_chemical_formula_structural   Y20CoHg6Pt
_chemical_formula_sum   'Y20 Co1 Hg6 Pt1'
_cell_volume   779.80946488
_cell_formula_units_Z   1
loop_
 _symmetry_equiv_pos_site_id
 _symmetry_equiv_pos_as_xyz
  1  'x, y, z'
loop_
 _atom_site_type_symbol
 _atom_site_label
 _atom_site_symmetry_multiplicity
 _atom_site_fract_x
 _atom_site_fract_y
 _atom_site_fract_z
 _atom_site_occupancy
  Y  Y0  1  0.00000000  0.00000000  0.50072402  1
  Y  Y1  1  0.00000000  0.00000000  0.99927598  1
  Y  Y2  1  0.54284780  0.45715220  0.25000000  1
  Y  Y3  1  0.54284780  0.08569661  0.25000000  1
  Y  Y4  1  0.91430339  0.45715220  0.25000000  1
  Y  Y5  1  0.45810361  0.54189639  0.75000000  1
  Y  Y6  1  0.45810361  0.91620721  0.75000000  1
  Y  Y7  1  0.08379279  0.54189639  0.75000000  1
  Y  Y8  1  0.20624328  0.79375672  0.43863620  1
  Y  Y9  1  0.20624328  0.41248856  0.43863620  1
  Y  Y10  1  0.58751144  0.79375672  0.43863620  1
  Y  Y11  1  0.78922125  0.21077875  0.56635826  1
  Y  Y12  1  0.78922125  0.57844151  0.56635826  1
  Y  Y13  1  0.42155849  0.21077875  0.56635826  1
  Y  Y14  1  0.78922125  0.21077875  0.93364174  1
  Y  Y15  1  0.78922125  0.57844151  0.93364174  1
  Y  Y16  1  0.42155849  0.21077875  0.93364174  1
  Y  Y17  1  0.20624328  0.79375672  0.06136380  1
  Y  Y18  1  0.20624328  0.41248856  0.06136380  1
  Y  Y19  1  0.58751144  0.79375672  0.06136380  1
  Co  Co0  1  0.66666700  0.33333300  0.75000000  1
  Hg  Hg0  1  0.87952608  0.12047392  0.25000000  1
  Hg  Hg1  1  0.87952608  0.75905216  0.25000000  1
  Hg  Hg2  1  0.24094784  0.12047392  0.25000000  1
  Hg  Hg3  1  0.12062385  0.87937615  0.75000000  1
  Hg  Hg4  1  0.12062385  0.24124869  0.75000000  1
  Hg  Hg5  1  0.75875131  0.87937615  0.75000000  1
  Pt  Pt0  1  0.33333300  0.66666700  0.25000000  1
loop_
_geom_bond_atom_site_label_1
_geom_bond_atom_site_label_2
_geom_bond_distance
_geom_bond_site_symmetry_2
Co0 Y11 2.706623 1_555
Co0 Y14 2.706623 1_555
Co0 Y12 2.706623 1_555
Co0 Y15 2.706623 1_555
Co0 Y13 2.706624 1_555
Co0 Y16 2.706624 1_555
Hg0 Y4 3.112817 1_555
Hg0 Y3 3.112817 1_555
Hg0 Y0 3.137652 1_655
Hg0 Y1 3.137652 1_654
Hg0 Y14 3.383475 1_554
Hg0 Y11 3.383475 1_555
Hg0 Y10 3.514583 1_545
Hg0 Y19 3.514583 1_545
Hg0 Y9 3.514583 1_655
Hg0 Y18 3.514583 1_655
Hg1 Y4 3.112807 1_555
Hg1 Y2 3.112813 1_555
Hg1 Y0 3.137652 1_665
Hg1 Y1 3.137652 1_664
Hg1 Y15 3.383479 1_554
Hg1 Y12 3.383479 1_555
Hg1 Y8 3.514576 1_655
Hg1 Y17 3.514576 1_655
Hg1 Y10 3.514593 1_555
Hg1 Y19 3.514593 1_555
Hg2 Y3 3.112807 1_555
Hg2 Y2 3.112813 1_555
Hg2 Y0 3.137652 1_555
Hg2 Y1 3.137652 1_554
Hg2 Y16 3.383479 1_554
Hg2 Y13 3.383479 1_555
Hg2 Y8 3.514576 1_545
Hg2 Y17 3.514576 1_545
Hg2 Y9 3.514593 1_555
Hg2 Y18 3.514593 1_555
Hg3 Y7 3.112308 1_555
Hg3 Y6 3.112309 1_555
Hg3 Y1 3.128727 1_565
Hg3 Y0 3.128727 1_565
Hg3 Y17 3.305833 1_556
Hg3 Y8 3.305833 1_555
Hg3 Y13 3.544548 1_565
Hg3 Y16 3.544548 1_565
Hg3 Y12 3.544548 1_455
Hg3 Y15 3.544548 1_455
Hg4 Y7 3.112299 1_555
Hg4 Y5 3.112305 1_555
Hg4 Y1 3.128733 1_555
Hg4 Y0 3.128733 1_555
Hg4 Y18 3.305836 1_556
Hg4 Y9 3.305836 1_555
Hg4 Y11 3.544541 1_455
Hg4 Y14 3.544541 1_455
Hg4 Y13 3.544558 1_555
Hg4 Y16 3.544558 1_555
Hg5 Y6 3.112299 1_555
Hg5 Y5 3.112305 1_555
Hg5 Y1 3.128733 1_665
Hg5 Y0 3.128733 1_665
Hg5 Y19 3.305836 1_556
Hg5 Y10 3.305836 1_555
Hg5 Y11 3.544541 1_565
Hg5 Y14 3.544541 1_565
Hg5 Y12 3.544558 1_555
Hg5 Y15 3.544558 1_555
Pt0 Y9 2.795646 1_555
Pt0 Y18 2.795646 1_555
Pt0 Y10 2.795646 1_555
Pt0 Y19 2.795646 1_555
Pt0 Y8 2.795653 1_555
Pt0 Y17 2.795653 1_555
