# generated using pymatgen
data_NbCu2AgSe4
_symmetry_space_group_name_H-M   'P 1'
_cell_length_a   6.10671250
_cell_length_b   5.70356616
_cell_length_c   5.70356616
_cell_angle_alpha   90.00000000
_cell_angle_beta   90.00000000
_cell_angle_gamma   90.00000000
_symmetry_Int_Tables_number   1
_chemical_formula_structural   NbCu2AgSe4
_chemical_formula_sum   'Nb1 Cu2 Ag1 Se4'
_cell_volume   198.65543004
_cell_formula_units_Z   1
loop_
 _symmetry_equiv_pos_site_id
 _symmetry_equiv_pos_as_xyz
  1  'x, y, z'
loop_
 _atom_site_type_symbol
 _atom_site_label
 _atom_site_symmetry_multiplicity
 _atom_site_fract_x
 _atom_site_fract_y
 _atom_site_fract_z
 _atom_site_occupancy
  Nb  Nb0  1  0.00000000  0.00000000  0.00000000  1
  Cu  Cu0  1  0.00000000  0.00000000  0.50000000  1
  Cu  Cu1  1  0.00000000  0.50000000  0.00000000  1
  Ag  Ag0  1  0.50000000  0.00000000  0.00000000  1
  Se  Se0  1  0.22310198  0.25461693  0.25461693  1
  Se  Se1  1  0.77689802  0.74538307  0.25461693  1
  Se  Se2  1  0.77689802  0.25461693  0.74538307  1
  Se  Se3  1  0.22310198  0.74538307  0.74538307  1
loop_
_geom_bond_atom_site_label_1
_geom_bond_atom_site_label_2
_geom_bond_distance
_geom_bond_site_symmetry_2
Nb0 Se0 2.464569 1_555
Nb0 Se3 2.464569 1_544
Nb0 Se2 2.464569 1_454
Nb0 Se1 2.464569 1_445
Cu0 Se3 2.433908 1_545
Cu0 Se0 2.433908 1_555
Cu0 Se2 2.433908 1_455
Cu0 Se1 2.433908 1_445
Cu1 Se0 2.433908 1_555
Cu1 Se3 2.433908 1_554
Cu1 Se1 2.433908 1_455
Cu1 Se2 2.433908 1_454
Ag0 Se1 2.660297 1_545
Ag0 Se2 2.660297 1_554
Ag0 Se0 2.660297 1_555
Ag0 Se3 2.660297 1_544
