# generated using pymatgen
data_TaInF6
_symmetry_space_group_name_H-M   'P 1'
_cell_length_a   5.34835329
_cell_length_b   5.34835329
_cell_length_c   9.99986705
_cell_angle_alpha   90.00000000
_cell_angle_beta   90.00000000
_cell_angle_gamma   90.00000000
_symmetry_Int_Tables_number   1
_chemical_formula_structural   TaInF6
_chemical_formula_sum   'Ta2 In2 F12'
_cell_volume   286.04502586
_cell_formula_units_Z   2
loop_
 _symmetry_equiv_pos_site_id
 _symmetry_equiv_pos_as_xyz
  1  'x, y, z'
loop_
 _atom_site_type_symbol
 _atom_site_label
 _atom_site_symmetry_multiplicity
 _atom_site_fract_x
 _atom_site_fract_y
 _atom_site_fract_z
 _atom_site_occupancy
  Ta  Ta0  1  0.50000000  0.50000000  0.25000000  1
  Ta  Ta1  1  0.50000000  0.50000000  0.75000000  1
  In  In0  1  0.00000000  0.00000000  0.00000000  1
  In  In1  1  0.00000000  0.00000000  0.50000000  1
  F  F0  1  0.24643106  0.24643106  0.25000000  1
  F  F1  1  0.75356894  0.75356894  0.25000000  1
  F  F2  1  0.24643106  0.75356894  0.75000000  1
  F  F3  1  0.75356894  0.24643106  0.75000000  1
  F  F4  1  0.32087291  0.67908828  0.11503689  1
  F  F5  1  0.67912709  0.32091172  0.11503689  1
  F  F6  1  0.67908828  0.67912709  0.88496311  1
  F  F7  1  0.32087291  0.32091172  0.61503689  1
  F  F8  1  0.32091172  0.32087291  0.88496311  1
  F  F9  1  0.67912709  0.67908828  0.61503689  1
  F  F10  1  0.67908828  0.32087291  0.38496311  1
  F  F11  1  0.32091172  0.67912709  0.38496311  1
loop_
_geom_bond_atom_site_label_1
_geom_bond_atom_site_label_2
_geom_bond_distance
_geom_bond_site_symmetry_2
F0 Ta0 1.917923 1_555
F1 Ta0 1.917923 1_555
F2 Ta1 1.917923 1_555
F3 Ta1 1.917923 1_555
F4 Ta0 1.912255 1_555
F4 In0 2.685947 1_565
F5 Ta0 1.912255 1_555
F5 In0 2.685947 1_655
F6 Ta1 1.912255 1_555
F6 In0 2.685947 1_666
F7 Ta1 1.912255 1_555
F7 In1 2.685947 1_555
F8 Ta1 1.912255 1_555
F8 In0 2.685947 1_556
F9 Ta1 1.912255 1_555
F9 In1 2.685947 1_665
F10 Ta0 1.912255 1_555
F10 In1 2.685947 1_655
F11 Ta0 1.912255 1_555
F11 In1 2.685947 1_565
