# generated using pymatgen
data_Mn2Co4SnSb
_symmetry_space_group_name_H-M   'P 1'
_cell_length_a   7.29558429
_cell_length_b   7.29558454
_cell_length_c   7.29558494
_cell_angle_alpha   33.59044026
_cell_angle_beta   33.59043635
_cell_angle_gamma   33.59043487
_symmetry_Int_Tables_number   1
_chemical_formula_structural   Mn2Co4SnSb
_chemical_formula_sum   'Mn2 Co4 Sn1 Sb1'
_cell_volume   105.87506792
_cell_formula_units_Z   1
loop_
 _symmetry_equiv_pos_site_id
 _symmetry_equiv_pos_as_xyz
  1  'x, y, z'
loop_
 _atom_site_type_symbol
 _atom_site_label
 _atom_site_symmetry_multiplicity
 _atom_site_fract_x
 _atom_site_fract_y
 _atom_site_fract_z
 _atom_site_occupancy
  Mn  Mn0  1  0.24860299  0.24860299  0.24860299  1
  Mn  Mn1  1  0.75139701  0.75139701  0.75139701  1
  Co  Co0  1  0.62623516  0.62623516  0.62623516  1
  Co  Co1  1  0.12375011  0.12375011  0.12375011  1
  Co  Co2  1  0.87624989  0.87624989  0.87624989  1
  Co  Co3  1  0.37376484  0.37376484  0.37376484  1
  Sn  Sn0  1  0.50000000  0.50000000  0.50000000  1
  Sb  Sb0  1  0.00000000  0.00000000  0.00000000  1
loop_
_geom_bond_atom_site_label_1
_geom_bond_atom_site_label_2
_geom_bond_distance
_geom_bond_site_symmetry_2
Mn0 Sn0 2.963659 1_455
Mn0 Sn0 2.963659 1_545
Mn0 Sn0 2.963659 1_554
Mn1 Sn0 2.963659 1_655
Mn1 Sn0 2.963659 1_565
Mn1 Sn0 2.963659 1_556
Co0 Sb0 2.573168 1_566
Co0 Sb0 2.573168 1_656
Co0 Sb0 2.573168 1_665
Co0 Mn1 2.582409 1_555
Co0 Mn0 2.600132 1_655
Co0 Mn0 2.600133 1_565
Co0 Mn0 2.600133 1_556
Co0 Sn0 2.604554 1_555
Co1 Sb0 2.553281 1_555
Co1 Mn1 2.563873 1_544
Co1 Mn1 2.563873 1_454
Co1 Mn1 2.563873 1_445
Co1 Mn0 2.576034 1_555
Co1 Sn0 2.590245 1_455
Co1 Sn0 2.590245 1_545
Co1 Sn0 2.590245 1_554
Co2 Sb0 2.553281 1_666
Co2 Mn0 2.563873 1_566
Co2 Mn0 2.563873 1_656
Co2 Mn0 2.563873 1_665
Co2 Mn1 2.576034 1_555
Co2 Sn0 2.590245 1_655
Co2 Sn0 2.590245 1_565
Co2 Sn0 2.590245 1_556
Co3 Sb0 2.573168 1_655
Co3 Sb0 2.573168 1_565
Co3 Sb0 2.573168 1_556
Co3 Mn0 2.582409 1_555
Co3 Mn1 2.600132 1_455
Co3 Mn1 2.600133 1_545
Co3 Mn1 2.600133 1_554
Co3 Sn0 2.604554 1_555
