# generated using pymatgen
data_Zn6Sn4Ru3Rh
_symmetry_space_group_name_H-M   'P 1'
_cell_length_a   4.17936688
_cell_length_b   8.20335625
_cell_length_c   13.65517768
_cell_angle_alpha   90.00000000
_cell_angle_beta   90.00000000
_cell_angle_gamma   90.00000000
_symmetry_Int_Tables_number   1
_chemical_formula_structural   Zn6Sn4Ru3Rh
_chemical_formula_sum   'Zn12 Sn8 Ru6 Rh2'
_cell_volume   468.16551868
_cell_formula_units_Z   2
loop_
 _symmetry_equiv_pos_site_id
 _symmetry_equiv_pos_as_xyz
  1  'x, y, z'
loop_
 _atom_site_type_symbol
 _atom_site_label
 _atom_site_symmetry_multiplicity
 _atom_site_fract_x
 _atom_site_fract_y
 _atom_site_fract_z
 _atom_site_occupancy
  Zn  Zn0  1  0.75000000  0.46573494  0.95806290  1
  Zn  Zn1  1  0.75000000  0.96573494  0.54193710  1
  Zn  Zn2  1  0.25000000  0.53285641  0.04123947  1
  Zn  Zn3  1  0.25000000  0.03285641  0.45876053  1
  Zn  Zn4  1  0.75000000  0.15834191  0.86745891  1
  Zn  Zn5  1  0.75000000  0.65834191  0.63254109  1
  Zn  Zn6  1  0.25000000  0.84094338  0.13014694  1
  Zn  Zn7  1  0.25000000  0.34094338  0.36985306  1
  Zn  Zn8  1  0.75000000  0.91248917  0.74286985  1
  Zn  Zn9  1  0.75000000  0.41248917  0.75713015  1
  Zn  Zn10  1  0.25000000  0.08731784  0.25705353  1
  Zn  Zn11  1  0.25000000  0.58731784  0.24294647  1
  Sn  Sn0  1  0.75000000  0.34557042  0.19621005  1
  Sn  Sn1  1  0.75000000  0.84557042  0.30378995  1
  Sn  Sn2  1  0.25000000  0.65484745  0.80345006  1
  Sn  Sn3  1  0.25000000  0.15484745  0.69654994  1
  Sn  Sn4  1  0.75000000  0.85084648  0.97427986  1
  Sn  Sn5  1  0.75000000  0.35084648  0.52572014  1
  Sn  Sn6  1  0.25000000  0.14824600  0.02360563  1
  Sn  Sn7  1  0.25000000  0.64824600  0.47639437  1
  Ru  Ru0  1  0.25000000  0.95960882  0.85764429  1
  Ru  Ru1  1  0.25000000  0.45960882  0.64235571  1
  Ru  Ru2  1  0.75000000  0.65268302  0.13145044  1
  Ru  Ru3  1  0.75000000  0.15268302  0.36854956  1
  Ru  Ru4  1  0.25000000  0.34969909  0.86990824  1
  Ru  Ru5  1  0.25000000  0.84969909  0.63009176  1
  Rh  Rh0  1  0.75000000  0.04081507  0.14264367  1
  Rh  Rh1  1  0.75000000  0.54081507  0.35735633  1
loop_
_geom_bond_atom_site_label_1
_geom_bond_atom_site_label_2
_geom_bond_distance
_geom_bond_site_symmetry_2
Zn0 Zn2 2.441307 1_556
Zn0 Zn2 2.441307 1_656
Zn0 Zn9 2.778323 1_555
Zn0 Zn4 2.808815 1_555
Zn1 Zn3 2.441307 1_665
Zn1 Zn3 2.441307 1_565
Zn1 Zn8 2.778323 1_555
Zn1 Zn5 2.808815 1_555
Zn2 Zn6 2.803818 1_555
Zn3 Zn7 2.803818 1_555
Zn4 Zn9 2.572229 1_555
Zn4 Zn8 2.638546 1_545
Zn5 Zn8 2.572229 1_555
Zn5 Zn9 2.638546 1_555
Zn10 Zn7 2.588693 1_555
Zn10 Zn6 2.662309 1_545
Zn10 Zn3 2.790343 1_555
Zn11 Zn6 2.588693 1_555
Zn11 Zn7 2.662309 1_555
Zn11 Zn2 2.790343 1_555
Sn0 Zn11 2.950748 1_555
Sn0 Zn11 2.950748 1_655
Sn0 Zn10 3.089540 1_555
Sn0 Zn10 3.089540 1_655
Sn0 Zn7 3.160768 1_555
Sn0 Zn7 3.160768 1_655
Sn1 Zn10 2.950748 1_665
Sn1 Zn10 2.950748 1_565
Sn1 Zn11 3.089540 1_655
Sn1 Zn11 3.089540 1_555
Sn1 Zn6 3.160768 1_555
Sn1 Zn6 3.160768 1_655
Sn2 Zn9 2.952895 1_455
Sn2 Zn9 2.952895 1_555
Sn2 Zn8 3.085140 1_455
Sn2 Zn8 3.085140 1_555
Sn2 Zn5 3.132760 1_555
Sn2 Zn5 3.132760 1_455
Sn3 Zn8 2.952895 1_545
Sn3 Zn8 2.952895 1_445
Sn3 Zn9 3.085140 1_455
Sn3 Zn9 3.085140 1_555
Sn3 Zn4 3.132760 1_455
Sn3 Zn4 3.132760 1_555
Sn4 Zn4 2.913875 1_565
Sn4 Zn6 2.983862 1_656
Sn4 Zn6 2.983862 1_556
Sn4 Zn0 3.166959 1_555
Sn4 Zn8 3.200150 1_555
Sn5 Zn5 2.913875 1_555
Sn5 Zn7 2.983862 1_655
Sn5 Zn7 2.983862 1_555
Sn5 Zn1 3.166959 1_545
Sn5 Zn9 3.200150 1_555
Sn6 Zn6 2.910595 1_545
Sn6 Zn4 2.986630 1_554
Sn6 Zn4 2.986630 1_454
Sn6 Zn2 3.164271 1_555
Sn7 Zn7 2.910595 1_555
Sn7 Zn5 2.986630 1_555
Sn7 Zn5 2.986630 1_455
Sn7 Zn3 3.164271 1_565
Ru0 Sn2 2.607293 1_555
Ru0 Zn8 2.640551 1_555
Ru0 Zn8 2.640551 1_455
Ru0 Zn4 2.653780 1_465
Ru0 Zn4 2.653780 1_565
Ru0 Sn3 2.721058 1_565
Ru0 Sn6 2.744163 1_566
Ru0 Sn4 2.774789 1_455
Ru0 Sn4 2.774789 1_555
Ru1 Sn3 2.607293 1_555
Ru1 Zn9 2.640551 1_555
Ru1 Zn9 2.640551 1_455
Ru1 Zn5 2.653780 1_555
Ru1 Zn5 2.653780 1_455
Ru1 Sn2 2.721058 1_555
Ru1 Sn7 2.744163 1_555
Ru1 Sn5 2.774789 1_455
Ru1 Sn5 2.774789 1_555
Ru2 Zn6 2.598492 1_555
Ru2 Zn6 2.598492 1_655
Ru2 Zn2 2.617341 1_555
Ru2 Zn2 2.617341 1_655
Ru2 Zn11 2.640512 1_555
Ru2 Zn11 2.640512 1_655
Ru2 Sn0 2.670045 1_555
Ru2 Sn4 2.692347 1_554
Ru2 Zn0 2.820929 1_554
Ru2 Sn1 2.835824 1_555
Ru3 Zn7 2.598492 1_655
Ru3 Zn7 2.598492 1_555
Ru3 Zn3 2.617341 1_555
Ru3 Zn3 2.617341 1_655
Ru3 Zn10 2.640512 1_555
Ru3 Zn10 2.640512 1_655
Ru3 Sn1 2.670045 1_545
Ru3 Sn5 2.692347 1_555
Ru3 Zn1 2.820929 1_545
Ru3 Sn0 2.835824 1_555
Ru4 Zn0 2.592666 1_455
Ru4 Zn0 2.592666 1_555
Ru4 Zn4 2.613824 1_455
Ru4 Zn4 2.613824 1_555
Ru4 Zn9 2.646452 1_555
Ru4 Zn9 2.646452 1_455
Ru4 Sn2 2.662662 1_555
Ru4 Sn6 2.671306 1_556
Ru4 Zn2 2.780477 1_556
Ru4 Sn3 2.856365 1_555
Ru5 Zn1 2.592666 1_555
Ru5 Zn1 2.592666 1_455
Ru5 Zn5 2.613824 1_455
Ru5 Zn5 2.613824 1_555
Ru5 Zn8 2.646452 1_555
Ru5 Zn8 2.646452 1_455
Ru5 Sn3 2.662662 1_565
Ru5 Sn7 2.671306 1_555
Ru5 Zn3 2.780477 1_565
Ru5 Sn2 2.856365 1_555
Rh0 Sn0 2.604825 1_555
Rh0 Zn10 2.636862 1_555
Rh0 Zn10 2.636862 1_655
Rh0 Zn6 2.661625 1_645
Rh0 Zn6 2.661625 1_545
Rh0 Sn1 2.721661 1_545
Rh0 Sn4 2.777431 1_544
Rh0 Sn6 2.790280 1_555
Rh0 Sn6 2.790280 1_655
Rh1 Sn1 2.604825 1_555
Rh1 Zn11 2.636862 1_555
Rh1 Zn11 2.636862 1_655
Rh1 Zn7 2.661625 1_555
Rh1 Zn7 2.661625 1_655
Rh1 Sn0 2.721661 1_555
Rh1 Sn5 2.777431 1_555
Rh1 Sn7 2.790280 1_655
Rh1 Sn7 2.790280 1_555
