# generated using pymatgen
data_Ta12Mn5Ga7N4
_symmetry_space_group_name_H-M   'P 1'
_cell_length_a   8.17492642
_cell_length_b   8.17492563
_cell_length_c   8.17492612
_cell_angle_alpha   60.36431401
_cell_angle_beta   60.36431883
_cell_angle_gamma   60.36432019
_symmetry_Int_Tables_number   1
_chemical_formula_structural   Ta12Mn5Ga7N4
_chemical_formula_sum   'Ta12 Mn5 Ga7 N4'
_cell_volume   389.49399934
_cell_formula_units_Z   1
loop_
 _symmetry_equiv_pos_site_id
 _symmetry_equiv_pos_as_xyz
  1  'x, y, z'
loop_
 _atom_site_type_symbol
 _atom_site_label
 _atom_site_symmetry_multiplicity
 _atom_site_fract_x
 _atom_site_fract_y
 _atom_site_fract_z
 _atom_site_occupancy
  Ta  Ta0  1  0.80737828  0.80737828  0.19222082  1
  Ta  Ta1  1  0.19017026  0.19017026  0.80960676  1
  Ta  Ta2  1  0.80737828  0.19222082  0.80737828  1
  Ta  Ta3  1  0.19017026  0.80960676  0.19017026  1
  Ta  Ta4  1  0.19222082  0.80737828  0.80737828  1
  Ta  Ta5  1  0.80960676  0.19017026  0.19017026  1
  Ta  Ta6  1  0.43952523  0.43952523  0.06170909  1
  Ta  Ta7  1  0.05532209  0.05532209  0.44457365  1
  Ta  Ta8  1  0.43952523  0.06170909  0.43952523  1
  Ta  Ta9  1  0.05532209  0.44457365  0.05532209  1
  Ta  Ta10  1  0.06170909  0.43952523  0.43952523  1
  Ta  Ta11  1  0.44457365  0.05532209  0.05532209  1
  Mn  Mn0  1  0.13083826  0.62206481  0.62206481  1
  Mn  Mn1  1  0.62206481  0.13083826  0.62206481  1
  Mn  Mn2  1  0.62206481  0.62206481  0.13083826  1
  Mn  Mn3  1  0.62577181  0.62577181  0.62577181  1
  Mn  Mn4  1  0.83234298  0.83234298  0.83234298  1
  Ga  Ga0  1  0.76298737  0.41309113  0.41309113  1
  Ga  Ga1  1  0.41309113  0.76298737  0.41309113  1
  Ga  Ga2  1  0.41309113  0.41309113  0.76298737  1
  Ga  Ga3  1  0.41390654  0.41390654  0.41390654  1
  Ga  Ga4  1  0.49466235  0.83875641  0.83875641  1
  Ga  Ga5  1  0.83875641  0.49466235  0.83875641  1
  Ga  Ga6  1  0.83875641  0.83875641  0.49466235  1
  N  N0  1  0.62600632  0.12367837  0.12367837  1
  N  N1  1  0.12367837  0.62600632  0.12367837  1
  N  N2  1  0.12367837  0.12367837  0.62600632  1
  N  N3  1  0.12540088  0.12540088  0.12540088  1
loop_
_geom_bond_atom_site_label_1
_geom_bond_atom_site_label_2
_geom_bond_distance
_geom_bond_site_symmetry_2
Mn0 Mn4 2.547553 1_455
Mn0 Ta4 2.935142 1_555
Mn0 Ta10 2.939934 1_555
Mn0 Ta7 2.944851 1_565
Mn0 Ta9 2.944851 1_556
Mn0 Ta1 2.956369 1_555
Mn0 Ta3 2.956370 1_555
Mn1 Mn4 2.547553 1_545
Mn1 Ta2 2.935142 1_555
Mn1 Ta8 2.939934 1_555
Mn1 Ta11 2.944851 1_556
Mn1 Ta7 2.944851 1_655
Mn1 Ta5 2.956370 1_555
Mn1 Ta1 2.956370 1_555
Mn2 Mn4 2.547552 1_554
Mn2 Ta0 2.935142 1_555
Mn2 Ta6 2.939934 1_555
Mn2 Ta11 2.944851 1_565
Mn2 Ta9 2.944851 1_655
Mn2 Ta5 2.956370 1_555
Mn2 Ta3 2.956370 1_555
Mn4 Ta2 2.755382 1_565
Mn4 Ta0 2.755383 1_556
Mn4 Ta4 2.755383 1_655
Mn4 Ta7 2.924232 1_665
Mn4 Ta9 2.924232 1_656
Mn4 Ta11 2.924232 1_566
Ga0 Mn1 2.520688 1_555
Ga0 Mn2 2.520689 1_555
Ga0 Mn3 2.536942 1_555
Ga0 Ta10 2.673362 1_655
Ga0 Ta7 2.698689 1_655
Ga0 Ta9 2.698689 1_655
Ga0 Ga3 2.847133 1_555
Ga0 Ga1 2.876113 1_555
Ga0 Ga2 2.876113 1_555
Ga0 Ta0 2.921370 1_555
Ga0 Ta2 2.921371 1_555
Ga0 Ta5 2.949219 1_555
Ga1 Mn0 2.520689 1_555
Ga1 Mn2 2.520689 1_555
Ga1 Mn3 2.536942 1_555
Ga1 Ta8 2.673362 1_565
Ga1 Ta11 2.698689 1_565
Ga1 Ta7 2.698689 1_565
Ga1 Ga3 2.847133 1_555
Ga1 Ga2 2.876112 1_555
Ga1 Ta4 2.921371 1_555
Ga1 Ta0 2.921371 1_555
Ga1 Ta3 2.949219 1_555
Ga2 Mn1 2.520689 1_555
Ga2 Mn0 2.520689 1_555
Ga2 Mn3 2.536942 1_555
Ga2 Ta6 2.673362 1_556
Ga2 Ta11 2.698689 1_556
Ga2 Ta9 2.698689 1_556
Ga2 Ga3 2.847133 1_555
Ga2 Ta4 2.921371 1_555
Ga2 Ta2 2.921371 1_555
Ga2 Ta1 2.949219 1_555
Ga3 Mn2 2.494269 1_555
Ga3 Mn1 2.494269 1_555
Ga3 Mn0 2.494269 1_555
Ga3 Ta8 2.688521 1_555
Ga3 Ta6 2.688522 1_555
Ga3 Ta10 2.688522 1_555
Ga4 Mn1 2.525033 1_565
Ga4 Mn2 2.525034 1_556
Ga4 Mn3 2.553197 1_555
Ga4 Mn4 2.709684 1_555
Ga4 Ta1 2.709862 1_565
Ga4 Ta3 2.709862 1_556
Ga4 Ta4 2.750282 1_555
Ga4 Ga5 2.828419 1_555
Ga4 Ga6 2.828419 1_555
Ga4 Ta11 2.846446 1_566
Ga4 Ta6 2.989366 1_556
Ga4 Ta8 2.989366 1_565
Ga5 Mn0 2.525034 1_655
Ga5 Mn2 2.525034 1_556
Ga5 Mn3 2.553197 1_555
Ga5 Mn4 2.709683 1_555
Ga5 Ta5 2.709862 1_556
Ga5 Ta1 2.709862 1_655
Ga5 Ta2 2.750282 1_555
Ga5 Ga6 2.828419 1_555
Ga5 Ta9 2.846446 1_656
Ga5 Ta10 2.989366 1_655
Ga5 Ta6 2.989366 1_556
Ga6 Mn1 2.525034 1_565
Ga6 Mn0 2.525034 1_655
Ga6 Mn3 2.553197 1_555
Ga6 Mn4 2.709683 1_555
Ga6 Ta5 2.709862 1_565
Ga6 Ta3 2.709862 1_655
Ga6 Ta0 2.750282 1_555
Ga6 Ta7 2.846446 1_665
Ga6 Ta10 2.989366 1_655
Ga6 Ta8 2.989366 1_565
N0 Ta5 2.179355 1_555
N0 Ta11 2.184625 1_555
N0 Ta0 2.189878 1_545
N0 Ta2 2.189879 1_554
N0 Ta6 2.196558 1_555
N0 Ta8 2.196558 1_555
N1 Ta3 2.179355 1_555
N1 Ta9 2.184625 1_555
N1 Ta4 2.189878 1_554
N1 Ta0 2.189879 1_455
N1 Ta10 2.196558 1_555
N1 Ta6 2.196558 1_555
N2 Ta1 2.179355 1_555
N2 Ta7 2.184625 1_555
N2 Ta4 2.189878 1_545
N2 Ta2 2.189879 1_455
N2 Ta10 2.196558 1_555
N2 Ta8 2.196558 1_555
N3 Ta3 2.190646 1_545
N3 Ta1 2.190646 1_554
N3 Ta5 2.190646 1_455
N3 Ta9 2.198269 1_555
N3 Ta7 2.198269 1_555
N3 Ta11 2.198269 1_555
