# generated using pymatgen
data_Zr2Ag(PO4)3
_symmetry_space_group_name_H-M   'P 1'
_cell_length_a   8.86810526
_cell_length_b   8.86810532
_cell_length_c   9.15145492
_cell_angle_alpha   118.98095668
_cell_angle_beta   118.98095616
_cell_angle_gamma   60.00000195
_symmetry_Int_Tables_number   1
_chemical_formula_structural   Zr2Ag(PO4)3
_chemical_formula_sum   'Zr4 Ag2 P6 O24'
_cell_volume   516.60336006
_cell_formula_units_Z   2
loop_
 _symmetry_equiv_pos_site_id
 _symmetry_equiv_pos_as_xyz
  1  'x, y, z'
loop_
 _atom_site_type_symbol
 _atom_site_label
 _atom_site_symmetry_multiplicity
 _atom_site_fract_x
 _atom_site_fract_y
 _atom_site_fract_z
 _atom_site_occupancy
  Zr  Zr0  1  0.35520344  0.35520444  0.06561333  1
  Zr  Zr1  1  0.14479556  0.14479556  0.43438667  1
  Zr  Zr2  1  0.85520444  0.85520344  0.56561333  1
  Zr  Zr3  1  0.64479656  0.64479556  0.93438667  1
  Ag  Ag0  1  0.00000000  0.00000000  0.00000000  1
  Ag  Ag1  1  0.50000100  0.50000000  0.50000000  1
  P  P0  1  0.03956574  0.75000000  0.24999900  1
  P  P1  1  0.46043526  0.03956474  0.24999900  1
  P  P2  1  0.75000000  0.46043426  0.24999900  1
  P  P3  1  0.25000000  0.53956474  0.74999900  1
  P  P4  1  0.53956474  0.96043426  0.74999900  1
  P  P5  1  0.96043426  0.25000000  0.74999900  1
  O  O0  1  0.49588988  0.87870327  0.08555682  1
  O  O1  1  0.71096367  0.49588988  0.08555682  1
  O  O2  1  0.87870327  0.71096367  0.08555682  1
  O  O3  1  0.06228397  0.91613007  0.26171028  1
  O  O4  1  0.28329525  0.06228397  0.26171028  1
  O  O5  1  0.91613007  0.28329525  0.26171028  1
  O  O6  1  0.21670375  0.58386993  0.23828972  1
  O  O7  1  0.43771703  0.21670375  0.23828972  1
  O  O8  1  0.58386993  0.43771603  0.23828972  1
  O  O9  1  0.00411012  0.78903633  0.41444318  1
  O  O10  1  0.62129673  0.00411012  0.41444318  1
  O  O11  1  0.78903633  0.62129673  0.41444318  1
  O  O12  1  0.21096367  0.37870327  0.58555682  1
  O  O13  1  0.37870327  0.99588988  0.58555682  1
  O  O14  1  0.99588988  0.21096467  0.58555682  1
  O  O15  1  0.41613007  0.56228397  0.76171028  1
  O  O16  1  0.56228497  0.78329625  0.76171028  1
  O  O17  1  0.78329625  0.41613007  0.76171028  1
  O  O18  1  0.08386993  0.71670475  0.73828972  1
  O  O19  1  0.71670475  0.93771603  0.73828972  1
  O  O20  1  0.93771603  0.08386993  0.73828972  1
  O  O21  1  0.12129673  0.28903633  0.91444318  1
  O  O22  1  0.28903633  0.50410912  0.91444318  1
  O  O23  1  0.50411012  0.12129673  0.91444318  1
loop_
_geom_bond_atom_site_label_1
_geom_bond_atom_site_label_2
_geom_bond_distance
_geom_bond_site_symmetry_2
Ag0 O19 2.574466 1_444
Ag0 O4 2.574466 1_555
Ag0 O5 2.574468 1_455
Ag0 O18 2.574468 1_544
Ag0 O20 2.574471 1_454
Ag0 O3 2.574471 1_545
Ag1 O8 2.574466 1_555
Ag1 O17 2.574468 1_555
Ag1 O7 2.574471 1_555
Ag1 O16 2.574471 1_555
Ag1 O6 2.574475 1_555
Ag1 O15 2.574477 1_555
O0 P1 1.525851 1_565
O0 Zr3 2.052005 1_554
O1 P2 1.525853 1_555
O1 Zr3 2.052004 1_554
O2 P0 1.525858 1_655
O2 Zr3 2.051993 1_554
O3 P0 1.531486 1_555
O3 Zr1 2.098271 1_565
O4 P1 1.531509 1_555
O4 Zr1 2.098264 1_555
O5 P2 1.531496 1_555
O5 Zr1 2.098267 1_655
O6 P0 1.531489 1_555
O6 Zr0 2.098267 1_555
O7 P1 1.531495 1_555
O7 Zr0 2.098265 1_555
O8 P2 1.531495 1_555
O8 Zr0 2.098278 1_555
O9 P0 1.525871 1_555
O9 Zr2 2.052004 1_455
O10 P1 1.525863 1_555
O10 Zr2 2.052005 1_545
O11 P2 1.525866 1_555
O11 Zr2 2.051993 1_555
O12 P3 1.525853 1_555
O12 Zr1 2.052001 1_555
O13 P4 1.525853 1_555
O13 Zr1 2.052001 1_565
O14 P5 1.525856 1_555
O14 Zr1 2.051998 1_655
O15 P3 1.531491 1_555
O15 Zr3 2.098278 1_555
O16 P4 1.531488 1_555
O16 Zr3 2.098271 1_555
O17 P5 1.531491 1_555
O17 Zr3 2.098267 1_555
O18 P3 1.531500 1_555
O18 Zr2 2.098262 1_455
O19 P4 1.531503 1_555
O19 Zr2 2.098261 1_555
O20 P5 1.531495 1_555
O20 Zr2 2.098278 1_545
O21 P5 1.525866 1_455
O21 Zr0 2.051993 1_556
O22 P3 1.525871 1_555
O22 Zr0 2.051997 1_556
O23 P4 1.525866 1_545
O23 Zr0 2.052005 1_556
