# generated using pymatgen
data_K2Ti(AgSe2)2
_symmetry_space_group_name_H-M   'P 1'
_cell_length_a   6.09860150
_cell_length_b   6.09860150
_cell_length_c   13.60220675
_cell_angle_alpha   90.00000000
_cell_angle_beta   90.00000000
_cell_angle_gamma   90.00000000
_symmetry_Int_Tables_number   1
_chemical_formula_structural   K2Ti(AgSe2)2
_chemical_formula_sum   'K4 Ti2 Ag4 Se8'
_cell_volume   505.90606351
_cell_formula_units_Z   2
loop_
 _symmetry_equiv_pos_site_id
 _symmetry_equiv_pos_as_xyz
  1  'x, y, z'
loop_
 _atom_site_type_symbol
 _atom_site_label
 _atom_site_symmetry_multiplicity
 _atom_site_fract_x
 _atom_site_fract_y
 _atom_site_fract_z
 _atom_site_occupancy
  K  K0  1  0.25542681  0.25542681  0.00000000  1
  K  K1  1  0.74457319  0.74457319  0.00000000  1
  K  K2  1  0.74457319  0.25542681  0.50000000  1
  K  K3  1  0.25542681  0.74457319  0.50000000  1
  Ti  Ti0  1  0.00000000  0.00000000  0.25000000  1
  Ti  Ti1  1  0.00000000  0.00000000  0.75000000  1
  Ag  Ag0  1  0.00000000  0.50000000  0.25000000  1
  Ag  Ag1  1  0.00000000  0.50000000  0.75000000  1
  Ag  Ag2  1  0.50000000  0.00000000  0.75000000  1
  Ag  Ag3  1  0.50000000  0.00000000  0.25000000  1
  Se  Se0  1  0.22195046  0.22195046  0.36029416  1
  Se  Se1  1  0.77804954  0.77804954  0.63970584  1
  Se  Se2  1  0.77804954  0.77804954  0.36029416  1
  Se  Se3  1  0.77804954  0.22195046  0.86029416  1
  Se  Se4  1  0.77804954  0.22195046  0.13970584  1
  Se  Se5  1  0.22195046  0.22195046  0.63970584  1
  Se  Se6  1  0.22195046  0.77804954  0.13970584  1
  Se  Se7  1  0.22195046  0.77804954  0.86029416  1
loop_
_geom_bond_atom_site_label_1
_geom_bond_atom_site_label_2
_geom_bond_distance
_geom_bond_site_symmetry_2
K0 Se4 3.482630 1_455
K0 Se6 3.482630 1_545
K0 Se3 3.482630 1_454
K0 Se7 3.482630 1_544
K0 Se4 3.716386 1_555
K0 Se6 3.716386 1_555
K0 Se7 3.716386 1_554
K0 Se3 3.716386 1_554
K1 Se4 3.482630 1_565
K1 Se6 3.482630 1_655
K1 Se3 3.482630 1_564
K1 Se7 3.482630 1_654
K1 Se6 3.716386 1_555
K1 Se4 3.716386 1_555
K1 Se7 3.716386 1_554
K1 Se3 3.716386 1_554
K2 Se1 3.482630 1_545
K2 Se5 3.482630 1_655
K2 Se2 3.482630 1_545
K2 Se0 3.482630 1_655
K2 Se5 3.716386 1_555
K2 Se1 3.716386 1_555
K2 Se0 3.716386 1_555
K2 Se2 3.716386 1_555
K3 Se1 3.482630 1_455
K3 Se5 3.482630 1_565
K3 Se2 3.482630 1_455
K3 Se0 3.482630 1_565
K3 Se5 3.716386 1_555
K3 Se1 3.716386 1_555
K3 Se0 3.716386 1_555
K3 Se2 3.716386 1_555
Ag0 Se2 2.637873 1_455
Ag0 Se0 2.637873 1_555
Ag0 Se4 2.637873 1_455
Ag0 Se6 2.637873 1_555
Ag1 Se3 2.637873 1_455
Ag1 Se7 2.637873 1_555
Ag1 Se1 2.637873 1_455
Ag1 Se5 2.637873 1_555
Ag2 Se7 2.637873 1_545
Ag2 Se3 2.637873 1_555
Ag2 Se1 2.637873 1_545
Ag2 Se5 2.637873 1_555
Ag3 Se2 2.637873 1_545
Ag3 Se0 2.637873 1_555
Ag3 Se6 2.637873 1_545
Ag3 Se4 2.637873 1_555
Se0 Ti0 2.432104 1_555
Se1 Ti1 2.432104 1_665
Se2 Ti0 2.432104 1_665
Se3 Ti1 2.432104 1_655
Se4 Ti0 2.432104 1_655
Se5 Ti1 2.432104 1_555
Se6 Ti0 2.432104 1_565
Se7 Ti1 2.432104 1_565
