# generated using pymatgen
data_Ca2MnGaF10
_symmetry_space_group_name_H-M   'P 1'
_cell_length_a   5.48519393
_cell_length_b   5.54360758
_cell_length_c   7.73935741
_cell_angle_alpha   68.56596105
_cell_angle_beta   70.00189807
_cell_angle_gamma   70.75456503
_symmetry_Int_Tables_number   1
_chemical_formula_structural   Ca2MnGaF10
_chemical_formula_sum   'Ca2 Mn1 Ga1 F10'
_cell_volume   200.13906607
_cell_formula_units_Z   1
loop_
 _symmetry_equiv_pos_site_id
 _symmetry_equiv_pos_as_xyz
  1  'x, y, z'
loop_
 _atom_site_type_symbol
 _atom_site_label
 _atom_site_symmetry_multiplicity
 _atom_site_fract_x
 _atom_site_fract_y
 _atom_site_fract_z
 _atom_site_occupancy
  Ca  Ca0  1  0.54392123  0.45314978  0.75480800  1
  Ca  Ca1  1  0.45607877  0.54685022  0.24519200  1
  Mn  Mn0  1  0.00000000  0.00000000  0.50000000  1
  Ga  Ga0  1  0.00000000  0.00000000  0.00000000  1
  F  F0  1  0.08531837  0.91482019  0.23927924  1
  F  F1  1  0.91468163  0.08517981  0.76072076  1
  F  F2  1  0.20827939  0.24142681  0.38500944  1
  F  F3  1  0.75433611  0.78785776  0.11893440  1
  F  F4  1  0.71576173  0.30399831  0.03487978  1
  F  F5  1  0.69489963  0.28363593  0.47293423  1
  F  F6  1  0.28423827  0.69600169  0.96512022  1
  F  F7  1  0.30510037  0.71636407  0.52706577  1
  F  F8  1  0.24566389  0.21214224  0.88106560  1
  F  F9  1  0.79172061  0.75857319  0.61499056  1
loop_
_geom_bond_atom_site_label_1
_geom_bond_atom_site_label_2
_geom_bond_distance
_geom_bond_site_symmetry_2
Ca0 F8 2.193105 1_555
Ca0 F9 2.248837 1_555
Ca0 F6 2.289612 1_555
Ca0 F7 2.321928 1_555
Ca0 F1 2.357908 1_555
Ca0 F4 2.417497 1_556
Ca0 F5 2.465257 1_555
Ca1 F3 2.193105 1_555
Ca1 F2 2.248837 1_555
Ca1 F4 2.289612 1_555
Ca1 F5 2.321928 1_555
Ca1 F0 2.357908 1_555
Ca1 F6 2.417497 1_554
Ca1 F7 2.465257 1_555
F0 Ga0 1.918173 1_565
F0 Mn0 2.101989 1_565
F1 Ga0 1.918173 1_656
F1 Mn0 2.101989 1_655
F2 Mn0 1.824968 1_555
F3 Ga0 1.857763 1_665
F4 Ga0 1.912129 1_655
F5 Mn0 1.892427 1_655
F6 Ga0 1.912129 1_566
F7 Mn0 1.892427 1_565
F8 Ga0 1.857763 1_556
F9 Mn0 1.824968 1_665
