# generated using pymatgen
data_CsRb3(Lu3Se5)4
_symmetry_space_group_name_H-M   'P 1'
_cell_length_a   4.04238599
_cell_length_b   12.10730378
_cell_length_c   21.60252796
_cell_angle_alpha   90.28892009
_cell_angle_beta   90.00000000
_cell_angle_gamma   90.00000000
_symmetry_Int_Tables_number   1
_chemical_formula_structural   CsRb3(Lu3Se5)4
_chemical_formula_sum   'Cs1 Rb3 Lu12 Se20'
_cell_volume   1057.26601892
_cell_formula_units_Z   1
loop_
 _symmetry_equiv_pos_site_id
 _symmetry_equiv_pos_as_xyz
  1  'x, y, z'
loop_
 _atom_site_type_symbol
 _atom_site_label
 _atom_site_symmetry_multiplicity
 _atom_site_fract_x
 _atom_site_fract_y
 _atom_site_fract_z
 _atom_site_occupancy
  Cs  Cs0  1  0.25000000  0.64529316  0.58968121  1
  Rb  Rb0  1  0.25000000  0.84475991  0.09558208  1
  Rb  Rb1  1  0.75000000  0.15341262  0.90538514  1
  Rb  Rb2  1  0.75000000  0.34571116  0.40287485  1
  Lu  Lu0  1  0.75000000  0.80304314  0.82796717  1
  Lu  Lu1  1  0.25000000  0.19650317  0.17189670  1
  Lu  Lu2  1  0.25000000  0.29993606  0.67508837  1
  Lu  Lu3  1  0.75000000  0.69826746  0.32640633  1
  Lu  Lu4  1  0.25000000  0.95896736  0.69894573  1
  Lu  Lu5  1  0.75000000  0.04035443  0.30033567  1
  Lu  Lu6  1  0.75000000  0.45914965  0.80313378  1
  Lu  Lu7  1  0.25000000  0.53916754  0.19870368  1
  Lu  Lu8  1  0.75000000  0.38937869  0.05338463  1
  Lu  Lu9  1  0.25000000  0.61107479  0.94759952  1
  Lu  Lu10  1  0.25000000  0.89421326  0.44559246  1
  Lu  Lu11  1  0.75000000  0.11229685  0.55332835  1
  Se  Se0  1  0.25000000  0.95168700  0.56905333  1
  Se  Se1  1  0.75000000  0.05440760  0.42970045  1
  Se  Se2  1  0.75000000  0.45036386  0.93153730  1
  Se  Se3  1  0.25000000  0.55000102  0.07001499  1
  Se  Se4  1  0.75000000  0.76827716  0.95575685  1
  Se  Se5  1  0.25000000  0.23220627  0.04477009  1
  Se  Se6  1  0.25000000  0.26966909  0.54639122  1
  Se  Se7  1  0.75000000  0.73757667  0.45271805  1
  Se  Se8  1  0.25000000  0.95672093  0.82778955  1
  Se  Se9  1  0.75000000  0.04293234  0.17183910  1
  Se  Se10  1  0.75000000  0.45272872  0.67557428  1
  Se  Se11  1  0.25000000  0.54420021  0.32735044  1
  Se  Se12  1  0.75000000  0.12868118  0.68446106  1
  Se  Se13  1  0.25000000  0.87122771  0.31475968  1
  Se  Se14  1  0.25000000  0.63014594  0.81700573  1
  Se  Se15  1  0.75000000  0.36924151  0.18386876  1
  Se  Se16  1  0.75000000  0.69109661  0.19860373  1
  Se  Se17  1  0.25000000  0.30729325  0.80315825  1
  Se  Se18  1  0.25000000  0.19215945  0.30006351  1
  Se  Se19  1  0.75000000  0.80785522  0.69967498  1
loop_
_geom_bond_atom_site_label_1
_geom_bond_atom_site_label_2
_geom_bond_distance
_geom_bond_site_symmetry_2
Cs0 Se10 3.606571 1_455
Cs0 Se10 3.606571 1_555
Cs0 Se19 3.682103 1_555
Cs0 Se19 3.682103 1_455
Cs0 Se0 3.738502 1_555
Cs0 Se7 3.757810 1_555
Cs0 Se7 3.757810 1_455
Rb0 Se9 3.537783 1_465
Rb0 Se9 3.537783 1_565
Rb0 Se16 3.541359 1_455
Rb0 Se16 3.541359 1_555
Rb0 Se3 3.608468 1_555
Rb0 Se4 3.746783 1_454
Rb0 Se4 3.746783 1_554
Rb1 Se17 3.531944 1_555
Rb1 Se17 3.531944 1_655
Rb1 Se8 3.539196 1_545
Rb1 Se8 3.539196 1_645
Rb1 Se2 3.636580 1_555
Rb1 Se5 3.746045 1_556
Rb1 Se5 3.746045 1_656
Rb2 Se18 3.525989 1_555
Rb2 Se18 3.525989 1_655
Rb2 Se11 3.544267 1_555
Rb2 Se11 3.544267 1_655
Rb2 Se1 3.577074 1_555
Rb2 Se6 3.817537 1_655
Rb2 Se6 3.817537 1_555
Lu0 Se8 2.747222 1_655
Lu0 Se8 2.747222 1_555
Lu0 Se19 2.772342 1_555
Lu0 Se4 2.794583 1_555
Lu0 Se14 2.918609 1_555
Lu0 Se14 2.918609 1_655
Lu1 Se9 2.746325 1_455
Lu1 Se9 2.746325 1_555
Lu1 Se18 2.769492 1_555
Lu1 Se5 2.782221 1_555
Lu1 Se15 2.919005 1_455
Lu1 Se15 2.919005 1_555
Lu2 Se10 2.739944 1_555
Lu2 Se10 2.739944 1_455
Lu2 Se17 2.767618 1_555
Lu2 Se6 2.802398 1_555
Lu2 Se12 2.903374 1_455
Lu2 Se12 2.903374 1_555
Lu3 Se11 2.750547 1_655
Lu3 Se11 2.750547 1_555
Lu3 Se16 2.761786 1_555
Lu3 Se7 2.767482 1_555
Lu3 Se13 2.922159 1_555
Lu3 Se13 2.922159 1_655
Lu4 Se19 2.726362 1_555
Lu4 Se19 2.726362 1_455
Lu4 Se8 2.783622 1_555
Lu4 Se0 2.806944 1_555
Lu4 Se12 2.900297 1_565
Lu4 Se12 2.900297 1_465
Lu5 Se18 2.731927 1_655
Lu5 Se18 2.731927 1_555
Lu5 Se9 2.776183 1_555
Lu5 Se1 2.798925 1_555
Lu5 Se13 2.895116 1_645
Lu5 Se13 2.895116 1_545
Lu6 Se17 2.732321 1_555
Lu6 Se17 2.732321 1_655
Lu6 Se10 2.756312 1_555
Lu6 Se2 2.776415 1_555
Lu6 Se14 2.907735 1_555
Lu6 Se14 2.907735 1_655
Lu7 Se16 2.732919 1_555
Lu7 Se16 2.732919 1_455
Lu7 Se11 2.779456 1_555
Lu7 Se3 2.783754 1_555
Lu7 Se15 2.900680 1_555
Lu7 Se15 2.900680 1_455
Lu8 Se2 2.737392 1_554
Lu8 Se5 2.781625 1_555
Lu8 Se5 2.781625 1_655
Lu8 Se3 2.826502 1_555
Lu8 Se3 2.826502 1_655
Lu8 Se15 2.830536 1_555
Lu9 Se3 2.749506 1_556
Lu9 Se4 2.781264 1_555
Lu9 Se4 2.781264 1_455
Lu9 Se2 2.825749 1_555
Lu9 Se2 2.825749 1_455
Lu9 Se14 2.831750 1_555
Lu10 Se0 2.752951 1_555
Lu10 Se7 2.776395 1_555
Lu10 Se7 2.776395 1_455
Lu10 Se1 2.823392 1_565
Lu10 Se1 2.823392 1_465
Lu10 Se13 2.838590 1_555
Lu11 Se1 2.757692 1_555
Lu11 Se6 2.782253 1_555
Lu11 Se6 2.782253 1_655
Lu11 Se0 2.826404 1_545
Lu11 Se0 2.826404 1_645
Lu11 Se12 2.838737 1_555
