# generated using pymatgen
data_Zn3AsI3
_symmetry_space_group_name_H-M   'P 1'
_cell_length_a   4.22406016
_cell_length_b   7.00487519
_cell_length_c   7.40635010
_cell_angle_alpha   89.98501087
_cell_angle_beta   90.00000000
_cell_angle_gamma   90.00000000
_symmetry_Int_Tables_number   1
_chemical_formula_structural   Zn3AsI3
_chemical_formula_sum   'Zn3 As1 I3'
_cell_volume   219.14659056
_cell_formula_units_Z   1
loop_
 _symmetry_equiv_pos_site_id
 _symmetry_equiv_pos_as_xyz
  1  'x, y, z'
loop_
 _atom_site_type_symbol
 _atom_site_label
 _atom_site_symmetry_multiplicity
 _atom_site_fract_x
 _atom_site_fract_y
 _atom_site_fract_z
 _atom_site_occupancy
  Zn  Zn0  1  0.50000000  0.39672104  0.15036485  1
  Zn  Zn1  1  0.00000000  0.95727419  0.29304920  1
  Zn  Zn2  1  0.50000000  0.92947699  0.87898672  1
  As  As0  1  0.50000000  0.05750006  0.17613450  1
  I  I0  1  0.00000000  0.05086461  0.67081099  1
  I  I1  1  0.00000000  0.55938759  0.33338059  1
  I  I2  1  0.50000000  0.55677451  0.83060516  1
loop_
_geom_bond_atom_site_label_1
_geom_bond_atom_site_label_2
_geom_bond_distance
_geom_bond_site_symmetry_2
As0 Zn2 2.376698 1_544
As0 Zn0 2.383804 1_555
As0 Zn1 2.388107 1_545
As0 Zn1 2.388107 1_645
I0 Zn2 2.749585 1_445
I0 Zn2 2.749585 1_545
I0 Zn1 2.873786 1_545
I1 Zn0 2.756296 1_455
I1 Zn0 2.756296 1_555
I1 Zn1 2.803029 1_555
I2 Zn0 2.619965 1_556
I2 Zn2 2.635303 1_555
