# generated using pymatgen
data_Nb3Ga2CoC
_symmetry_space_group_name_H-M   'P 1'
_cell_length_a   8.19985050
_cell_length_b   8.19985075
_cell_length_c   8.19984987
_cell_angle_alpha   60.00000355
_cell_angle_beta   60.00000253
_cell_angle_gamma   60.00000040
_symmetry_Int_Tables_number   1
_chemical_formula_structural   Nb3Ga2CoC
_chemical_formula_sum   'Nb12 Ga8 Co4 C4'
_cell_volume   389.85472864
_cell_formula_units_Z   4
loop_
 _symmetry_equiv_pos_site_id
 _symmetry_equiv_pos_as_xyz
  1  'x, y, z'
loop_
 _atom_site_type_symbol
 _atom_site_label
 _atom_site_symmetry_multiplicity
 _atom_site_fract_x
 _atom_site_fract_y
 _atom_site_fract_z
 _atom_site_occupancy
  Nb  Nb0  1  0.69107744  0.30892256  0.69107744  1
  Nb  Nb1  1  0.94107744  0.55892256  0.55892256  1
  Nb  Nb2  1  0.55892256  0.94107744  0.94107744  1
  Nb  Nb3  1  0.94107744  0.55892256  0.94107744  1
  Nb  Nb4  1  0.55892256  0.55892256  0.94107744  1
  Nb  Nb5  1  0.94107744  0.94107744  0.55892256  1
  Nb  Nb6  1  0.69107744  0.69107744  0.30892256  1
  Nb  Nb7  1  0.30892256  0.69107744  0.69107744  1
  Nb  Nb8  1  0.69107744  0.30892256  0.30892256  1
  Nb  Nb9  1  0.30892256  0.30892256  0.69107744  1
  Nb  Nb10  1  0.55892256  0.94107744  0.55892256  1
  Nb  Nb11  1  0.30892256  0.69107744  0.30892256  1
  Ga  Ga0  1  0.33289490  0.33289490  0.33289490  1
  Ga  Ga1  1  0.24868369  0.91710510  0.91710510  1
  Ga  Ga2  1  0.91710510  0.24868369  0.91710510  1
  Ga  Ga3  1  0.91710510  0.91710510  0.24868369  1
  Ga  Ga4  1  0.33289490  0.00131631  0.33289490  1
  Ga  Ga5  1  0.33289490  0.33289490  0.00131631  1
  Ga  Ga6  1  0.00131631  0.33289490  0.33289490  1
  Ga  Ga7  1  0.91710510  0.91710510  0.91710510  1
  Co  Co0  1  0.12500000  0.12500000  0.12500000  1
  Co  Co1  1  0.62500000  0.12500000  0.12500000  1
  Co  Co2  1  0.12500000  0.62500000  0.12500000  1
  Co  Co3  1  0.12500000  0.12500000  0.62500000  1
  C  C0  1  0.62500000  0.62500000  0.62500000  1
  C  C1  1  0.12500000  0.62500000  0.62500000  1
  C  C2  1  0.62500000  0.12500000  0.62500000  1
  C  C3  1  0.62500000  0.62500000  0.12500000  1
loop_
_geom_bond_atom_site_label_1
_geom_bond_atom_site_label_2
_geom_bond_distance
_geom_bond_site_symmetry_2
Ga0 Ga5 2.718895 1_555
Ga0 Ga6 2.718895 1_555
Ga0 Ga4 2.718895 1_555
Ga0 Nb9 2.754537 1_555
Ga0 Nb8 2.754537 1_555
Ga0 Nb11 2.754537 1_555
Ga0 Nb1 2.952667 1_455
Ga0 Nb10 2.952667 1_545
Ga0 Nb4 2.952667 1_554
Ga1 Ga7 2.718895 1_455
Ga1 Ga3 2.718895 1_456
Ga1 Ga2 2.718895 1_465
Ga1 Nb10 2.754541 1_555
Ga1 Nb4 2.754541 1_555
Ga1 Nb2 2.754545 1_555
Ga1 Nb7 2.952663 1_555
Ga1 Nb11 2.952670 1_556
Ga1 Nb9 2.952670 1_565
Ga2 Ga3 2.718895 1_546
Ga2 Ga7 2.718895 1_545
Ga2 Nb4 2.754541 1_555
Ga2 Nb1 2.754541 1_555
Ga2 Nb3 2.754545 1_555
Ga2 Nb0 2.952663 1_555
Ga2 Nb8 2.952670 1_556
Ga2 Nb9 2.952670 1_655
Ga3 Ga7 2.718895 1_554
Ga3 Nb10 2.754541 1_555
Ga3 Nb1 2.754541 1_555
Ga3 Nb5 2.754545 1_555
Ga3 Nb6 2.952663 1_555
Ga3 Nb11 2.952670 1_655
Ga3 Nb8 2.952670 1_565
Ga4 Ga6 2.718895 1_555
Ga4 Ga5 2.718895 1_555
Ga4 Nb6 2.754541 1_545
Ga4 Nb7 2.754541 1_545
Ga4 Nb11 2.754545 1_545
Ga4 Nb10 2.952663 1_545
Ga4 Nb2 2.952670 1_544
Ga4 Nb5 2.952670 1_445
Ga5 Ga6 2.718895 1_555
Ga5 Nb0 2.754541 1_554
Ga5 Nb7 2.754541 1_554
Ga5 Nb9 2.754545 1_554
Ga5 Nb4 2.952663 1_554
Ga5 Nb3 2.952670 1_454
Ga5 Nb2 2.952670 1_544
Ga6 Nb0 2.754541 1_455
Ga6 Nb6 2.754541 1_455
Ga6 Nb8 2.754545 1_455
Ga6 Nb1 2.952663 1_455
Ga6 Nb3 2.952670 1_454
Ga6 Nb5 2.952670 1_445
Ga7 Nb5 2.754537 1_555
Ga7 Nb2 2.754537 1_555
Ga7 Nb3 2.754537 1_555
Ga7 Nb7 2.952667 1_655
Ga7 Nb0 2.952667 1_565
Ga7 Nb6 2.952667 1_556
Co0 Ga4 2.507762 1_555
Co0 Ga2 2.507762 1_454
Co0 Ga6 2.507762 1_555
Co0 Ga1 2.507762 1_544
Co0 Ga5 2.507762 1_555
Co0 Ga3 2.507762 1_445
Co0 Nb5 2.958260 1_445
Co0 Nb9 2.958260 1_554
Co0 Nb8 2.958260 1_455
Co0 Nb2 2.958260 1_544
Co0 Nb3 2.958260 1_454
Co0 Nb11 2.958260 1_545
Co1 Ga3 2.507755 1_545
Co1 Ga5 2.507755 1_555
Co1 Ga2 2.507755 1_554
Co1 Ga4 2.507755 1_555
Co1 Ga0 2.507760 1_555
Co1 Ga7 2.507760 1_544
Co1 Nb10 2.958260 1_545
Co1 Nb0 2.958260 1_554
Co1 Nb8 2.958260 1_555
Co1 Nb2 2.958260 1_544
Co1 Nb4 2.958260 1_554
Co1 Nb6 2.958260 1_545
Co2 Ga3 2.507755 1_455
Co2 Ga5 2.507755 1_555
Co2 Ga1 2.507755 1_554
Co2 Ga6 2.507755 1_555
Co2 Ga0 2.507760 1_555
Co2 Ga7 2.507760 1_454
Co2 Nb11 2.958260 1_555
Co2 Nb3 2.958260 1_454
Co2 Nb1 2.958260 1_455
Co2 Nb7 2.958260 1_554
Co2 Nb4 2.958260 1_554
Co2 Nb6 2.958260 1_455
Co3 Ga2 2.507755 1_455
Co3 Ga4 2.507755 1_555
Co3 Ga1 2.507755 1_545
Co3 Ga6 2.507755 1_555
Co3 Ga0 2.507760 1_555
Co3 Ga7 2.507760 1_445
Co3 Nb9 2.958260 1_555
Co3 Nb5 2.958260 1_445
Co3 Nb10 2.958260 1_545
Co3 Nb0 2.958260 1_455
Co3 Nb1 2.958260 1_455
Co3 Nb7 2.958260 1_545
C0 Nb4 2.188492 1_555
C0 Nb6 2.188492 1_555
C0 Nb1 2.188492 1_555
C0 Nb7 2.188492 1_555
C0 Nb10 2.188492 1_555
C0 Nb0 2.188492 1_555
C1 Nb7 2.188492 1_555
C1 Nb1 2.188492 1_455
C1 Nb3 2.188492 1_455
C1 Nb11 2.188492 1_555
C1 Nb5 2.188492 1_455
C1 Nb9 2.188492 1_555
C2 Nb2 2.188492 1_545
C2 Nb8 2.188492 1_555
C2 Nb0 2.188492 1_555
C2 Nb10 2.188492 1_545
C2 Nb5 2.188492 1_545
C2 Nb9 2.188492 1_555
C3 Nb6 2.188492 1_555
C3 Nb4 2.188492 1_554
C3 Nb11 2.188492 1_555
C3 Nb3 2.188492 1_554
C3 Nb2 2.188492 1_554
C3 Nb8 2.188492 1_555
