# generated using pymatgen
data_Nb2BIrRu5
_symmetry_space_group_name_H-M   'P 1'
_cell_length_a   5.61714405
_cell_length_b   5.60482421
_cell_length_c   5.60482367
_cell_angle_alpha   60.14548229
_cell_angle_beta   59.92725931
_cell_angle_gamma   59.92725738
_symmetry_Int_Tables_number   1
_chemical_formula_structural   Nb2BIrRu5
_chemical_formula_sum   'Nb2 B1 Ir1 Ru5'
_cell_volume   124.77291019
_cell_formula_units_Z   1
loop_
 _symmetry_equiv_pos_site_id
 _symmetry_equiv_pos_as_xyz
  1  'x, y, z'
loop_
 _atom_site_type_symbol
 _atom_site_label
 _atom_site_symmetry_multiplicity
 _atom_site_fract_x
 _atom_site_fract_y
 _atom_site_fract_z
 _atom_site_occupancy
  Nb  Nb0  1  0.25016739  0.24983261  0.24983261  1
  Nb  Nb1  1  0.75016739  0.74983261  0.74983261  1
  B  B0  1  0.49728652  0.50271348  0.50271348  1
  Ir  Ir0  1  0.75925998  0.24074002  0.24074002  1
  Ru  Ru0  1  0.24197920  0.75802080  0.24057791  1
  Ru  Ru1  1  0.75942209  0.75802080  0.24057791  1
  Ru  Ru2  1  0.24197920  0.24057791  0.75802080  1
  Ru  Ru3  1  0.75942209  0.24057791  0.75802080  1
  Ru  Ru4  1  0.24031714  0.75968286  0.75968286  1
loop_
_geom_bond_atom_site_label_1
_geom_bond_atom_site_label_2
_geom_bond_distance
_geom_bond_site_symmetry_2
Nb0 Ru2 2.800295 1_555
Nb0 Ru3 2.800295 1_455
Nb0 Ru1 2.800295 1_455
Nb0 Ru0 2.800295 1_555
Nb0 Ru2 2.806244 1_554
Nb0 Ru3 2.806244 1_554
Nb0 Ru1 2.806245 1_545
Nb0 Ru0 2.806245 1_545
Nb0 Ru4 2.809652 1_545
Nb0 Ru4 2.809652 1_554
Nb1 Ru1 2.800295 1_556
Nb1 Ru0 2.800295 1_556
Nb1 Ru2 2.800295 1_565
Nb1 Ru3 2.800295 1_565
Nb1 Ru1 2.806244 1_555
Nb1 Ru0 2.806244 1_655
Nb1 Ru2 2.806245 1_655
Nb1 Ru3 2.806245 1_555
Nb1 Ru4 2.809652 1_555
Nb1 Ru4 2.809652 1_655
B0 Ru4 2.032360 1_555
B0 Ru0 2.055419 1_555
B0 Ru3 2.055419 1_555
B0 Ru1 2.055420 1_555
B0 Ru2 2.055420 1_555
B0 Ir0 2.071937 1_555
Ir0 Nb0 2.809493 1_555
Ir0 Nb0 2.809493 1_655
Ir0 Nb1 2.809493 1_545
Ir0 Nb1 2.809493 1_554
