# generated using pymatgen
data_Ho3GaO6
_symmetry_space_group_name_H-M   'P 1'
_cell_length_a   7.04064157
_cell_length_b   7.04064157
_cell_length_c   5.37699183
_cell_angle_alpha   90.00000000
_cell_angle_beta   90.00000000
_cell_angle_gamma   102.85422516
_symmetry_Int_Tables_number   1
_chemical_formula_structural   Ho3GaO6
_chemical_formula_sum   'Ho6 Ga2 O12'
_cell_volume   259.86117552
_cell_formula_units_Z   2
loop_
 _symmetry_equiv_pos_site_id
 _symmetry_equiv_pos_as_xyz
  1  'x, y, z'
loop_
 _atom_site_type_symbol
 _atom_site_label
 _atom_site_symmetry_multiplicity
 _atom_site_fract_x
 _atom_site_fract_y
 _atom_site_fract_z
 _atom_site_occupancy
  Ho  Ho0  1  0.39816186  0.60183814  0.92835306  1
  Ho  Ho1  1  0.60183814  0.39816186  0.42835306  1
  Ho  Ho2  1  0.29861853  0.08813075  0.97621699  1
  Ho  Ho3  1  0.70138147  0.91186925  0.47621699  1
  Ho  Ho4  1  0.91186925  0.70138147  0.97621699  1
  Ho  Ho5  1  0.08813075  0.29861853  0.47621699  1
  Ga  Ga0  1  0.19317791  0.80682209  0.50622639  1
  Ga  Ga1  1  0.80682209  0.19317791  0.00622639  1
  O  O0  1  0.21594393  0.78405607  0.16754209  1
  O  O1  1  0.78405607  0.21594393  0.66754209  1
  O  O2  1  0.03836230  0.96163770  0.65129351  1
  O  O3  1  0.96163770  0.03836230  0.15129351  1
  O  O4  1  0.35666089  0.32255365  0.70274678  1
  O  O5  1  0.64333911  0.67744635  0.20274678  1
  O  O6  1  0.67744635  0.64333911  0.70274678  1
  O  O7  1  0.32255365  0.35666089  0.20274678  1
  O  O8  1  0.89449176  0.42322435  0.18619971  1
  O  O9  1  0.10550824  0.57677565  0.68619971  1
  O  O10  1  0.57677565  0.10550824  0.18619971  1
  O  O11  1  0.42322435  0.89449176  0.68619971  1
loop_
_geom_bond_atom_site_label_1
_geom_bond_atom_site_label_2
_geom_bond_distance
_geom_bond_site_symmetry_2
Ho0 O5 2.243020 1_556
Ho0 O7 2.243020 1_556
Ho0 O6 2.273281 1_555
Ho0 O4 2.273281 1_555
Ho0 O0 2.382910 1_556
Ho0 O11 2.410446 1_555
Ho0 O9 2.410446 1_555
Ho1 O6 2.243020 1_555
Ho1 O4 2.243020 1_555
Ho1 O7 2.273281 1_555
Ho1 O5 2.273281 1_555
Ho1 O1 2.382910 1_555
Ho1 O8 2.410446 1_555
Ho1 O10 2.410446 1_555
Ho2 O4 2.180188 1_555
Ho2 O7 2.223677 1_556
Ho2 O10 2.240205 1_556
Ho2 O0 2.329388 1_546
Ho2 O11 2.364813 1_545
Ho2 O3 2.503624 1_456
Ho2 O2 2.545002 1_545
Ho3 O5 2.180188 1_555
Ho3 O6 2.223677 1_555
Ho3 O11 2.240205 1_555
Ho3 O1 2.329388 1_565
Ho3 O10 2.364813 1_565
Ho3 O2 2.503624 1_655
Ho3 O3 2.545002 1_565
Ho4 O6 2.180188 1_555
Ho4 O5 2.223677 1_556
Ho4 O8 2.240205 1_556
Ho4 O0 2.329388 1_656
Ho4 O9 2.364813 1_655
Ho4 O3 2.503624 1_566
Ho4 O2 2.545002 1_655
Ho5 O7 2.180188 1_555
Ho5 O4 2.223677 1_555
Ho5 O9 2.240205 1_555
Ho5 O1 2.329388 1_455
Ho5 O8 2.364813 1_455
Ho5 O2 2.503624 1_545
Ho5 O3 2.545002 1_455
Ga0 O0 1.838268 1_555
Ga0 O11 1.869756 1_555
Ga0 O9 1.869756 1_555
Ga0 O2 1.874375 1_555
Ga1 O1 1.838268 1_554
Ga1 O8 1.869756 1_555
Ga1 O10 1.869756 1_555
Ga1 O3 1.874375 1_555
