# generated using pymatgen
data_BaSc2(FeH6)2
_symmetry_space_group_name_H-M   'P 1'
_cell_length_a   4.60485096
_cell_length_b   4.60485245
_cell_length_c   8.14353046
_cell_angle_alpha   90.00000000
_cell_angle_beta   90.00000000
_cell_angle_gamma   119.99999639
_symmetry_Int_Tables_number   1
_chemical_formula_structural   BaSc2(FeH6)2
_chemical_formula_sum   'Ba1 Sc2 Fe2 H12'
_cell_volume   149.54595480
_cell_formula_units_Z   1
loop_
 _symmetry_equiv_pos_site_id
 _symmetry_equiv_pos_as_xyz
  1  'x, y, z'
loop_
 _atom_site_type_symbol
 _atom_site_label
 _atom_site_symmetry_multiplicity
 _atom_site_fract_x
 _atom_site_fract_y
 _atom_site_fract_z
 _atom_site_occupancy
  Ba  Ba0  1  0.00000000  0.00000000  0.00000000  1
  Sc  Sc0  1  0.66666700  0.33333300  0.37480846  1
  Sc  Sc1  1  0.33333300  0.66666700  0.62519154  1
  Fe  Fe0  1  0.66666700  0.33333300  0.70757660  1
  Fe  Fe1  1  0.33333300  0.66666700  0.29242340  1
  H  H0  1  0.16884427  0.83115573  0.39547057  1
  H  H1  1  0.66231245  0.83115573  0.39547057  1
  H  H2  1  0.16884427  0.33768755  0.39547057  1
  H  H3  1  0.83115573  0.16884427  0.60452943  1
  H  H4  1  0.33768755  0.16884427  0.60452943  1
  H  H5  1  0.83115573  0.66231245  0.60452943  1
  H  H6  1  0.50696035  0.01391969  0.82209305  1
  H  H7  1  0.50696035  0.49303965  0.82209305  1
  H  H8  1  0.98608031  0.49303965  0.82209305  1
  H  H9  1  0.49303965  0.98608031  0.17790695  1
  H  H10  1  0.49303965  0.50696035  0.17790695  1
  H  H11  1  0.01391969  0.50696035  0.17790695  1
loop_
_geom_bond_atom_site_label_1
_geom_bond_atom_site_label_2
_geom_bond_distance
_geom_bond_site_symmetry_2
Ba0 H9 2.720887 1_545
Ba0 H6 2.720887 1_454
Ba0 H8 2.720888 1_454
Ba0 H11 2.720888 1_545
Ba0 H10 2.720890 1_445
Ba0 H7 2.720890 1_554
Ba0 H10 2.720890 1_555
Ba0 H7 2.720890 1_444
Ba0 H9 2.720891 1_445
Ba0 H6 2.720891 1_554
Ba0 H11 2.720892 1_555
Ba0 H8 2.720892 1_444
Fe0 H3 1.557362 1_555
Fe0 H4 1.557369 1_555
Fe0 H5 1.557369 1_555
Fe0 H8 1.578681 1_555
Fe0 H7 1.578681 1_555
Fe0 H6 1.578682 1_555
Fe1 H0 1.557362 1_555
Fe1 H1 1.557369 1_555
Fe1 H2 1.557369 1_555
Fe1 H11 1.578681 1_555
Fe1 H10 1.578681 1_555
Fe1 H9 1.578682 1_555
H0 Sc1 2.284916 1_555
H0 Sc0 2.308631 1_455
H0 Sc0 2.308631 1_565
H1 Sc1 2.284921 1_555
H1 Sc0 2.308632 1_555
H1 Sc0 2.308632 1_565
H2 Sc1 2.284921 1_555
H2 Sc0 2.308631 1_455
H2 Sc0 2.308631 1_555
H3 Sc0 2.284916 1_555
H3 Sc1 2.308631 1_655
H3 Sc1 2.308631 1_545
H4 Sc0 2.284921 1_555
H4 Sc1 2.308632 1_555
H4 Sc1 2.308632 1_545
H5 Sc0 2.284921 1_555
H5 Sc1 2.308631 1_655
H5 Sc1 2.308631 1_555
H6 Sc1 2.118689 1_545
H7 Sc1 2.118694 1_555
H8 Sc1 2.118688 1_655
H9 Sc0 2.118689 1_565
H10 Sc0 2.118694 1_555
H11 Sc0 2.118688 1_455
