# generated using pymatgen
data_InTcSn4
_symmetry_space_group_name_H-M   'P 1'
_cell_length_a   7.48038455
_cell_length_b   7.48038403
_cell_length_c   7.48038432
_cell_angle_alpha   124.16425931
_cell_angle_beta   124.16427186
_cell_angle_gamma   82.92694536
_symmetry_Int_Tables_number   1
_chemical_formula_structural   InTcSn4
_chemical_formula_sum   'In2 Tc2 Sn8'
_cell_volume   275.04608912
_cell_formula_units_Z   2
loop_
 _symmetry_equiv_pos_site_id
 _symmetry_equiv_pos_as_xyz
  1  'x, y, z'
loop_
 _atom_site_type_symbol
 _atom_site_label
 _atom_site_symmetry_multiplicity
 _atom_site_fract_x
 _atom_site_fract_y
 _atom_site_fract_z
 _atom_site_occupancy
  In  In0  1  0.50000000  0.50000000  0.00000000  1
  In  In1  1  0.00000000  0.00000000  0.00000000  1
  Tc  Tc0  1  0.75000000  0.75000000  0.00000000  1
  Tc  Tc1  1  0.25000000  0.25000000  0.00000000  1
  Sn  Sn0  1  0.70581278  0.50718503  0.50000000  1
  Sn  Sn1  1  0.50718503  0.00718503  0.80137225  1
  Sn  Sn2  1  0.20581278  0.70581278  0.19862775  1
  Sn  Sn3  1  0.79418722  0.29418722  0.80137225  1
  Sn  Sn4  1  0.49281497  0.99281497  0.19862775  1
  Sn  Sn5  1  0.29418722  0.49281497  0.50000000  1
  Sn  Sn6  1  0.99281497  0.79418722  0.50000000  1
  Sn  Sn7  1  0.00718503  0.20581278  0.50000000  1
loop_
_geom_bond_atom_site_label_1
_geom_bond_atom_site_label_2
_geom_bond_distance
_geom_bond_site_symmetry_2
In0 Tc0 2.802818 1_555
In0 Tc1 2.802818 1_555
In0 Sn6 3.112793 1_555
In0 Sn7 3.112793 1_554
In0 Sn0 3.112793 1_555
In0 Sn5 3.112793 1_554
In0 Sn4 3.112793 1_555
In0 Sn1 3.112793 1_554
In0 Sn2 3.112794 1_555
In0 Sn3 3.112794 1_554
In1 Tc1 2.802818 1_555
In1 Tc0 2.802818 1_445
In1 Sn2 3.112793 1_545
In1 Sn3 3.112793 1_454
In1 Sn5 3.112793 1_555
In1 Sn0 3.112793 1_444
In1 Sn4 3.112793 1_545
In1 Sn1 3.112793 1_454
In1 Sn7 3.112794 1_555
In1 Sn6 3.112794 1_444
Sn0 Tc1 2.920061 1_555
Sn0 Tc0 2.920061 1_556
Sn0 Sn7 2.985442 1_655
Sn0 Sn5 3.094193 1_555
Sn0 Sn3 3.187297 1_555
Sn0 Sn4 3.187297 1_545
Sn0 Sn6 3.217659 1_555
Sn1 Tc0 2.920061 1_546
Sn1 Tc1 2.920061 1_556
Sn1 Sn2 2.985441 1_545
Sn1 Sn4 3.094193 1_546
Sn1 Sn6 3.187297 1_445
Sn1 Sn5 3.187297 1_545
Sn1 Sn3 3.217659 1_555
Sn2 Tc0 2.920061 1_455
Sn2 Tc1 2.920061 1_555
Sn2 Sn3 3.094193 1_454
Sn2 Sn5 3.187297 1_555
Sn2 Sn6 3.187297 1_455
Sn2 Sn4 3.217659 1_555
Sn3 Tc1 2.920061 1_656
Sn3 Tc0 2.920061 1_556
Sn3 Sn4 2.985441 1_545
Sn3 Sn7 3.187297 1_655
Sn4 Tc1 2.920061 1_565
Sn4 Tc0 2.920061 1_555
Sn4 Sn7 3.187297 1_665
Sn5 Tc0 2.920061 1_556
Sn5 Tc1 2.920061 1_555
Sn5 Sn6 2.985442 1_455
Sn5 Sn7 3.217659 1_555
Sn6 Tc0 2.920061 1_555
Sn6 Tc1 2.920061 1_666
Sn6 Sn7 3.094193 1_665
Sn7 Tc1 2.920061 1_556
Sn7 Tc0 2.920061 1_445
