# generated using pymatgen
data_LiY9Mg3Ru
_symmetry_space_group_name_H-M   'P 1'
_cell_length_a   9.67803511
_cell_length_b   9.67803553
_cell_length_c   9.78633305
_cell_angle_alpha   90.00000000
_cell_angle_beta   90.00000000
_cell_angle_gamma   119.99999858
_symmetry_Int_Tables_number   1
_chemical_formula_structural   LiY9Mg3Ru
_chemical_formula_sum   'Li2 Y18 Mg6 Ru2'
_cell_volume   793.82548018
_cell_formula_units_Z   2
loop_
 _symmetry_equiv_pos_site_id
 _symmetry_equiv_pos_as_xyz
  1  'x, y, z'
loop_
 _atom_site_type_symbol
 _atom_site_label
 _atom_site_symmetry_multiplicity
 _atom_site_fract_x
 _atom_site_fract_y
 _atom_site_fract_z
 _atom_site_occupancy
  Li  Li0  1  0.00000000  0.00000000  0.50000000  1
  Li  Li1  1  0.00000000  0.00000000  0.00000000  1
  Y  Y0  1  0.21017166  0.78982834  0.43957471  1
  Y  Y1  1  0.21017166  0.42034532  0.43957471  1
  Y  Y2  1  0.57965468  0.78982834  0.43957471  1
  Y  Y3  1  0.78982834  0.21017166  0.56042529  1
  Y  Y4  1  0.78982834  0.57965468  0.56042529  1
  Y  Y5  1  0.42034532  0.21017166  0.56042529  1
  Y  Y6  1  0.78982834  0.21017166  0.93957471  1
  Y  Y7  1  0.78982834  0.57965468  0.93957471  1
  Y  Y8  1  0.42034532  0.21017166  0.93957471  1
  Y  Y9  1  0.21017166  0.78982834  0.06042529  1
  Y  Y10  1  0.21017166  0.42034532  0.06042529  1
  Y  Y11  1  0.57965468  0.78982834  0.06042529  1
  Y  Y12  1  0.54204270  0.45795730  0.25000000  1
  Y  Y13  1  0.54204270  0.08408641  0.25000000  1
  Y  Y14  1  0.91591359  0.45795730  0.25000000  1
  Y  Y15  1  0.45795730  0.54204270  0.75000000  1
  Y  Y16  1  0.45795730  0.91591359  0.75000000  1
  Y  Y17  1  0.08408641  0.54204270  0.75000000  1
  Mg  Mg0  1  0.89351361  0.10648639  0.25000000  1
  Mg  Mg1  1  0.89351361  0.78702721  0.25000000  1
  Mg  Mg2  1  0.21297279  0.10648639  0.25000000  1
  Mg  Mg3  1  0.10648639  0.89351361  0.75000000  1
  Mg  Mg4  1  0.10648639  0.21297279  0.75000000  1
  Mg  Mg5  1  0.78702721  0.89351361  0.75000000  1
  Ru  Ru0  1  0.33333300  0.66666700  0.25000000  1
  Ru  Ru1  1  0.66666700  0.33333300  0.75000000  1
loop_
_geom_bond_atom_site_label_1
_geom_bond_atom_site_label_2
_geom_bond_distance
_geom_bond_site_symmetry_2
Li0 Mg3 3.028539 1_545
Li0 Mg0 3.028539 1_455
Li0 Mg2 3.028539 1_555
Li0 Mg5 3.028539 1_445
Li0 Mg4 3.028539 1_555
Li0 Mg1 3.028539 1_445
Li0 Y0 3.572359 1_545
Li0 Y3 3.572359 1_455
Li0 Y5 3.572375 1_555
Li0 Y2 3.572375 1_445
Li0 Y1 3.572376 1_555
Li0 Y4 3.572376 1_445
Li1 Mg3 3.028539 1_544
Li1 Mg0 3.028539 1_455
Li1 Mg2 3.028539 1_555
Li1 Mg5 3.028539 1_444
Li1 Mg4 3.028539 1_554
Li1 Mg1 3.028539 1_445
Li1 Y9 3.572359 1_545
Li1 Y6 3.572359 1_454
Li1 Y8 3.572375 1_554
Li1 Y11 3.572375 1_445
Li1 Y10 3.572376 1_555
Li1 Y7 3.572376 1_444
Y0 Y13 3.566692 1_565
Y0 Y14 3.566692 1_455
Y0 Y16 3.680017 1_555
Y0 Y17 3.680017 1_555
Y1 Y14 3.566687 1_455
Y1 Y12 3.566695 1_555
Y1 Y17 3.680003 1_555
Y1 Y15 3.680017 1_555
Y10 Y14 3.566687 1_455
Y10 Y12 3.566695 1_555
Y10 Y17 3.680003 1_554
Y10 Y15 3.680017 1_554
Y11 Y13 3.566687 1_565
Y11 Y12 3.566696 1_555
Y11 Y16 3.680003 1_554
Y11 Y15 3.680017 1_554
Y12 Y2 3.566696 1_555
Y12 Y14 3.618336 1_555
Y12 Y13 3.618336 1_555
Y12 Y4 3.680017 1_555
Y12 Y7 3.680017 1_554
Y12 Y5 3.680017 1_555
Y12 Y8 3.680017 1_554
Y13 Y2 3.566687 1_545
Y13 Y9 3.566692 1_545
Y13 Y14 3.618336 1_555
Y13 Y5 3.680003 1_555
Y13 Y8 3.680003 1_554
Y13 Y3 3.680017 1_555
Y13 Y6 3.680017 1_554
Y14 Y9 3.566692 1_655
Y14 Y4 3.680003 1_555
Y14 Y7 3.680003 1_554
Y14 Y3 3.680017 1_555
Y14 Y6 3.680017 1_554
Y15 Y7 3.566695 1_555
Y15 Y4 3.566695 1_555
Y15 Y8 3.566696 1_555
Y15 Y5 3.566696 1_555
Y15 Y17 3.618336 1_555
Y15 Y16 3.618336 1_555
Y15 Y2 3.680017 1_555
Y16 Y8 3.566687 1_565
Y16 Y5 3.566687 1_565
Y16 Y6 3.566692 1_565
Y16 Y3 3.566692 1_565
Y16 Y17 3.618336 1_555
Y16 Y2 3.680003 1_555
Y16 Y9 3.680017 1_556
Y17 Y7 3.566687 1_455
Y17 Y4 3.566687 1_455
Y17 Y6 3.566692 1_455
Y17 Y3 3.566692 1_455
Y17 Y9 3.680017 1_556
Mg0 Mg2 3.091737 1_655
Mg0 Mg1 3.091737 1_545
Mg0 Y13 3.298501 1_555
Mg0 Y14 3.298501 1_555
Mg0 Y3 3.499978 1_555
Mg0 Y6 3.499978 1_554
Mg0 Y1 3.570935 1_655
Mg0 Y10 3.570935 1_655
Mg0 Y2 3.570935 1_545
Mg0 Y11 3.570935 1_545
Mg1 Mg2 3.091737 1_665
Mg1 Y14 3.298492 1_555
Mg1 Y12 3.298497 1_555
Mg1 Y4 3.499986 1_555
Mg1 Y7 3.499986 1_554
Mg1 Y0 3.570927 1_655
Mg1 Y9 3.570927 1_655
Mg1 Y2 3.570943 1_555
Mg1 Y11 3.570943 1_555
Mg2 Y13 3.298491 1_555
Mg2 Y12 3.298497 1_555
Mg2 Y5 3.499986 1_555
Mg2 Y8 3.499986 1_554
Mg2 Y0 3.570927 1_545
Mg2 Y9 3.570927 1_545
Mg2 Y1 3.570943 1_555
Mg2 Y10 3.570943 1_555
Mg3 Mg5 3.091737 1_455
Mg3 Mg4 3.091737 1_565
Mg3 Y16 3.298501 1_555
Mg3 Y17 3.298501 1_555
Mg3 Y9 3.499978 1_556
Mg3 Y0 3.499978 1_555
Mg3 Y7 3.570935 1_455
Mg3 Y4 3.570935 1_455
Mg3 Y8 3.570935 1_565
Mg3 Y5 3.570935 1_565
Mg4 Mg5 3.091737 1_445
Mg4 Y17 3.298492 1_555
Mg4 Y15 3.298497 1_555
Mg4 Y10 3.499986 1_556
Mg4 Y1 3.499986 1_555
Mg4 Y6 3.570927 1_455
Mg4 Y3 3.570927 1_455
Mg4 Y8 3.570943 1_555
Mg4 Y5 3.570943 1_555
Mg5 Y16 3.298491 1_555
Mg5 Y15 3.298497 1_555
Mg5 Y11 3.499986 1_556
Mg5 Y2 3.499986 1_555
Mg5 Y6 3.570927 1_565
Mg5 Y3 3.570927 1_565
Mg5 Y7 3.570943 1_555
Mg5 Y4 3.570943 1_555
Ru0 Y2 2.775642 1_555
Ru0 Y11 2.775642 1_555
Ru0 Y1 2.775642 1_555
Ru0 Y10 2.775642 1_555
Ru0 Y0 2.775648 1_555
Ru0 Y9 2.775648 1_555
Ru0 Y12 3.498569 1_555
Ru0 Y14 3.498569 1_455
Ru0 Y13 3.498569 1_565
Ru1 Y8 2.775642 1_555
Ru1 Y5 2.775642 1_555
Ru1 Y7 2.775642 1_555
Ru1 Y4 2.775642 1_555
Ru1 Y6 2.775648 1_555
Ru1 Y3 2.775648 1_555
Ru1 Y15 3.498569 1_555
Ru1 Y17 3.498569 1_655
Ru1 Y16 3.498569 1_545
