# generated using pymatgen
data_K2HgPd3
_symmetry_space_group_name_H-M   'P 1'
_cell_length_a   5.72394721
_cell_length_b   5.62093007
_cell_length_c   5.62093045
_cell_angle_alpha   118.76929627
_cell_angle_beta   120.50666787
_cell_angle_gamma   90.09981816
_symmetry_Int_Tables_number   1
_chemical_formula_structural   K2HgPd3
_chemical_formula_sum   'K2 Hg1 Pd3'
_cell_volume   129.12729845
_cell_formula_units_Z   1
loop_
 _symmetry_equiv_pos_site_id
 _symmetry_equiv_pos_as_xyz
  1  'x, y, z'
loop_
 _atom_site_type_symbol
 _atom_site_label
 _atom_site_symmetry_multiplicity
 _atom_site_fract_x
 _atom_site_fract_y
 _atom_site_fract_z
 _atom_site_occupancy
  K  K0  1  0.37732731  0.12217568  0.25515162  1
  K  K1  1  0.62267269  0.87782432  0.74484738  1
  Hg  Hg0  1  0.00000000  0.49999900  0.49999900  1
  Pd  Pd0  1  0.00000000  0.49999900  0.00000000  1
  Pd  Pd1  1  0.50000100  0.50000100  0.00000000  1
  Pd  Pd2  1  0.00000000  0.00000000  0.49999900  1
loop_
_geom_bond_atom_site_label_1
_geom_bond_atom_site_label_2
_geom_bond_distance
_geom_bond_site_symmetry_2
K0 Pd2 3.309524 1_555
K0 Pd0 3.309533 1_545
K0 Pd1 3.314130 1_556
K0 Pd1 3.314130 1_545
K0 Pd0 3.317677 1_656
K0 Pd2 3.317679 1_655
K0 Pd1 3.318018 1_555
K0 Pd0 3.321855 1_555
K0 Pd2 3.321864 1_554
K1 Pd0 3.309521 1_666
K1 Pd2 3.309529 1_665
K1 Pd1 3.314130 1_555
K1 Pd1 3.314135 1_566
K1 Pd0 3.317675 1_555
K1 Pd2 3.317679 1_565
K1 Pd1 3.318009 1_556
K1 Pd2 3.321859 1_666
K1 Pd0 3.321867 1_656
Hg0 Pd2 2.810459 1_555
Hg0 Pd0 2.810460 1_555
Hg0 Pd2 2.810471 1_565
Hg0 Pd0 2.810471 1_556
Hg0 Pd1 2.814826 1_455
Hg0 Pd1 2.814827 1_556
Hg0 K0 3.359686 1_455
Hg0 K1 3.359689 1_555
Hg0 K0 3.359985 1_555
Hg0 K1 3.359986 1_444
Hg0 K1 3.359993 1_455
Hg0 K0 3.359994 1_566
Pd0 Pd1 2.861968 1_455
Pd0 Pd1 2.861979 1_555
Pd0 Pd2 2.862583 1_565
Pd0 Pd2 2.862583 1_554
Pd1 Pd2 2.861967 1_665
Pd1 Pd2 2.861978 1_554
