# generated using pymatgen
data_BaSrVN3
_symmetry_space_group_name_H-M   'P 1'
_cell_length_a   6.37364087
_cell_length_b   6.37364052
_cell_length_c   12.58361995
_cell_angle_alpha   90.00000000
_cell_angle_beta   90.00000000
_cell_angle_gamma   125.74709643
_symmetry_Int_Tables_number   1
_chemical_formula_structural   BaSrVN3
_chemical_formula_sum   'Ba4 Sr4 V4 N12'
_cell_volume   414.88210788
_cell_formula_units_Z   4
loop_
 _symmetry_equiv_pos_site_id
 _symmetry_equiv_pos_as_xyz
  1  'x, y, z'
loop_
 _atom_site_type_symbol
 _atom_site_label
 _atom_site_symmetry_multiplicity
 _atom_site_fract_x
 _atom_site_fract_y
 _atom_site_fract_z
 _atom_site_occupancy
  Ba  Ba0  1  0.45048319  0.54951681  0.64570260  1
  Ba  Ba1  1  0.54951681  0.45048319  0.35429740  1
  Ba  Ba2  1  0.04951681  0.95048319  0.14570260  1
  Ba  Ba3  1  0.95048319  0.04951681  0.85429740  1
  Sr  Sr0  1  0.85601553  0.14398447  0.42205664  1
  Sr  Sr1  1  0.35601553  0.64398447  0.07794336  1
  Sr  Sr2  1  0.64398447  0.35601553  0.92205664  1
  Sr  Sr3  1  0.14398447  0.85601553  0.57794336  1
  V  V0  1  0.75929315  0.24070685  0.66390449  1
  V  V1  1  0.74070685  0.25929315  0.16390449  1
  V  V2  1  0.24070685  0.75929315  0.33609551  1
  V  V3  1  0.25929315  0.74070685  0.83609551  1
  N  N0  1  0.97318186  0.52681814  0.75000000  1
  N  N1  1  0.52681814  0.97318186  0.25000000  1
  N  N2  1  0.02681814  0.47318186  0.25000000  1
  N  N3  1  0.47318186  0.02681814  0.75000000  1
  N  N4  1  0.41187275  0.58812725  0.87271766  1
  N  N5  1  0.58812725  0.41187275  0.12728234  1
  N  N6  1  0.08812725  0.91187275  0.37271766  1
  N  N7  1  0.67003017  0.32996983  0.54931085  1
  N  N8  1  0.17003017  0.82996983  0.95068915  1
  N  N9  1  0.82996983  0.17003017  0.04931085  1
  N  N10  1  0.32996983  0.67003017  0.45068915  1
  N  N11  1  0.91187275  0.08812725  0.62728234  1
loop_
_geom_bond_atom_site_label_1
_geom_bond_atom_site_label_2
_geom_bond_distance
_geom_bond_site_symmetry_2
Ba0 N7 2.770428 1_555
Ba0 N10 2.809151 1_555
Ba0 N4 2.890060 1_555
Ba0 N11 2.948053 1_565
Ba0 N11 2.948053 1_455
Ba1 N10 2.770428 1_555
Ba1 N7 2.809151 1_555
Ba1 N5 2.890060 1_555
Ba1 N6 2.948053 1_545
Ba1 N6 2.948053 1_655
Ba2 N9 2.770428 1_465
Ba2 N8 2.809151 1_554
Ba2 N6 2.890060 1_555
Ba2 N5 2.948053 1_455
Ba2 N5 2.948053 1_565
Ba3 N8 2.770428 1_645
Ba3 N9 2.809151 1_556
Ba3 N11 2.890060 1_555
Ba3 N4 2.948053 1_655
Ba3 N4 2.948053 1_545
N0 V0 1.858208 1_555
N0 V3 1.858208 1_655
N0 Sr3 2.757952 1_655
N0 Sr2 2.757952 1_555
N1 V1 1.858208 1_565
N1 V2 1.858208 1_555
N1 Sr1 2.757952 1_555
N1 Sr0 2.757952 1_565
N2 V2 1.858208 1_555
N2 V1 1.858208 1_455
N2 Sr0 2.757952 1_455
N2 Sr1 2.757952 1_555
N3 V3 1.858208 1_545
N3 V0 1.858208 1_555
N3 Sr2 2.757952 1_555
N3 Sr3 2.757952 1_545
N4 V3 1.791325 1_555
N4 Sr1 2.659097 1_556
N4 Sr2 2.705534 1_555
N5 V1 1.791325 1_555
N5 Sr2 2.659097 1_554
N5 Sr1 2.705534 1_555
N6 V2 1.791325 1_555
N6 Sr3 2.659097 1_555
N6 Sr0 2.705534 1_465
N7 V0 1.762081 1_555
N7 Sr0 2.648854 1_555
N7 Sr3 2.943220 1_655
N7 Sr3 2.943220 1_545
N8 V3 1.762081 1_555
N8 Sr1 2.648854 1_556
N8 Sr2 2.943220 1_565
N8 Sr2 2.943220 1_455
N9 V1 1.762081 1_555
N9 Sr2 2.648854 1_554
N9 Sr1 2.943220 1_545
N9 Sr1 2.943220 1_655
N10 V2 1.762081 1_555
N10 Sr3 2.648854 1_555
N10 Sr0 2.943220 1_455
N10 Sr0 2.943220 1_565
N11 V0 1.791325 1_555
N11 Sr0 2.659097 1_555
N11 Sr3 2.705534 1_645
