# generated using pymatgen
data_Na10TaGaAs6
_symmetry_space_group_name_H-M   'P 1'
_cell_length_a   7.48897110
_cell_length_b   8.28870296
_cell_length_c   15.72824902
_cell_angle_alpha   59.08224954
_cell_angle_beta   90.00000000
_cell_angle_gamma   90.00000000
_symmetry_Int_Tables_number   1
_chemical_formula_structural   Na10TaGaAs6
_chemical_formula_sum   'Na20 Ta2 Ga2 As12'
_cell_volume   837.58462102
_cell_formula_units_Z   2
loop_
 _symmetry_equiv_pos_site_id
 _symmetry_equiv_pos_as_xyz
  1  'x, y, z'
loop_
 _atom_site_type_symbol
 _atom_site_label
 _atom_site_symmetry_multiplicity
 _atom_site_fract_x
 _atom_site_fract_y
 _atom_site_fract_z
 _atom_site_occupancy
  Na  Na0  1  0.73728013  0.94095606  0.24941340  1
  Na  Na1  1  0.26271987  0.94095606  0.74941340  1
  Na  Na2  1  0.77262394  0.05408861  0.76099331  1
  Na  Na3  1  0.22737606  0.05408861  0.26099331  1
  Na  Na4  1  0.26046860  0.24040209  0.42087161  1
  Na  Na5  1  0.73953140  0.24040209  0.92087161  1
  Na  Na6  1  0.21451086  0.75213670  0.57924666  1
  Na  Na7  1  0.78548914  0.75213670  0.07924666  1
  Na  Na8  1  0.08894865  0.34438556  0.58331567  1
  Na  Na9  1  0.91105135  0.34438556  0.08331567  1
  Na  Na10  1  0.40240766  0.65509278  0.41844443  1
  Na  Na11  1  0.59759234  0.65509278  0.91844443  1
  Na  Na12  1  0.59741265  0.33643736  0.24318310  1
  Na  Na13  1  0.40258735  0.33643736  0.74318310  1
  Na  Na14  1  0.90673003  0.66559322  0.75963373  1
  Na  Na15  1  0.09326997  0.66559322  0.25963373  1
  Na  Na16  1  0.77200493  0.42161691  0.40770134  1
  Na  Na17  1  0.22799507  0.42161691  0.90770134  1
  Na  Na18  1  0.73903449  0.58063358  0.58855234  1
  Na  Na19  1  0.26096551  0.58063358  0.08855234  1
  Ta  Ta0  1  0.61393462  0.99018128  0.57795664  1
  Ta  Ta1  1  0.38606538  0.99018128  0.07795664  1
  Ga  Ga0  1  0.88909666  0.01384502  0.41412765  1
  Ga  Ga1  1  0.11090334  0.01384502  0.91412765  1
  As  As0  1  0.98171519  0.32069637  0.27050885  1
  As  As1  1  0.01828481  0.32069637  0.77050885  1
  As  As2  1  0.51810479  0.69250402  0.72536754  1
  As  As3  1  0.48189521  0.69250402  0.22536754  1
  As  As4  1  0.94592436  0.02075926  0.57368495  1
  As  As5  1  0.05407564  0.02075926  0.07368495  1
  As  As6  1  0.53948614  0.97938170  0.42680765  1
  As  As7  1  0.46051386  0.97938170  0.92680765  1
  As  As8  1  0.00341497  0.72421484  0.42167470  1
  As  As9  1  0.99658503  0.72421484  0.92167470  1
  As  As10  1  0.48860395  0.26707165  0.57851645  1
  As  As11  1  0.51139605  0.26707165  0.07851645  1
loop_
_geom_bond_atom_site_label_1
_geom_bond_atom_site_label_2
_geom_bond_distance
_geom_bond_site_symmetry_2
Ga0 Na0 3.158733 1_545
Ga1 Na1 3.158733 1_545
As0 Ga0 2.479643 1_555
As0 Na9 2.897063 1_555
As0 Na15 2.897785 1_655
As0 Na12 2.902960 1_555
As0 Na3 2.937736 1_655
As0 Na4 2.962507 1_655
As0 Na16 3.110817 1_555
As0 Na19 3.296899 1_655
As1 Ga1 2.479643 1_555
As1 Na8 2.897063 1_555
As1 Na14 2.897785 1_455
As1 Na13 2.902960 1_555
As1 Na2 2.937736 1_455
As1 Na5 2.962507 1_455
As1 Na17 3.110817 1_555
As1 Na18 3.296899 1_455
As2 Ta0 2.469785 1_555
As2 Na14 2.947394 1_555
As2 Na13 2.947449 1_555
As2 Na11 2.950383 1_555
As2 Na1 2.973586 1_555
As2 Na6 3.086763 1_555
As2 Na18 3.205972 1_555
As2 Na17 3.371800 1_555
As3 Ta1 2.469785 1_555
As3 Na15 2.947394 1_555
As3 Na12 2.947449 1_555
As3 Na10 2.950383 1_555
As3 Na0 2.973586 1_555
As3 Na7 3.086763 1_555
As3 Na19 3.205972 1_555
As3 Na16 3.371800 1_555
As4 Ta0 2.496548 1_545
As4 Ga0 2.574893 1_555
As4 Na14 2.908358 1_545
As4 Na8 2.963654 1_655
As4 Na6 2.968304 1_645
As4 Na4 3.184897 1_655
As4 Na16 3.261574 1_555
As4 Na2 3.357999 1_555
As4 Na1 3.438983 1_645
As5 Ta1 2.496548 1_545
As5 Ga1 2.574893 1_554
As5 Na15 2.908358 1_545
As5 Na9 2.963654 1_455
As5 Na7 2.968304 1_445
As5 Na5 3.184897 1_454
As5 Na17 3.261574 1_554
As5 Na3 3.357999 1_555
As5 Na0 3.438983 1_445
As6 Ta0 2.487799 1_555
As6 Ga0 2.630194 1_565
As6 Na12 2.916275 1_565
As6 Na10 2.942700 1_555
As6 Na4 2.974593 1_565
As6 Na6 3.252476 1_555
As6 Na18 3.314888 1_555
As6 Na3 3.314935 1_565
As6 Na0 3.315639 1_555
As7 Ta1 2.487799 1_556
As7 Ga1 2.630194 1_565
As7 Na13 2.916275 1_565
As7 Na11 2.942700 1_555
As7 Na5 2.974593 1_565
As7 Na7 3.252476 1_556
As7 Na19 3.314888 1_556
As7 Na2 3.314935 1_565
As7 Na1 3.315639 1_555
As8 Ga0 2.493466 1_465
As8 Na15 2.908084 1_555
As8 Na8 2.925830 1_555
As8 Na18 3.002599 1_455
As8 Na6 3.047018 1_555
As8 Na10 3.047812 1_555
As8 Na0 3.088472 1_455
As8 Na3 3.094381 1_565
As8 Na16 3.147842 1_455
As9 Ga1 2.493466 1_665
As9 Na14 2.908084 1_555
As9 Na9 2.925830 1_556
As9 Na19 3.002599 1_656
As9 Na7 3.047018 1_556
As9 Na11 3.047812 1_555
As9 Na1 3.088472 1_655
As9 Na2 3.094381 1_565
As9 Na17 3.147842 1_655
As10 Ta0 2.483771 1_545
As10 Na10 2.962821 1_555
As10 Na13 2.997233 1_555
As10 Na8 3.069880 1_555
As10 Na4 3.111090 1_555
As10 Na16 3.134775 1_555
As10 Na1 3.150692 1_545
As10 Na2 3.266690 1_555
As10 Na18 3.273955 1_555
As11 Ta1 2.483771 1_545
As11 Na11 2.962821 1_554
As11 Na12 2.997233 1_555
As11 Na9 3.069880 1_555
As11 Na5 3.111090 1_554
As11 Na17 3.134775 1_554
As11 Na0 3.150692 1_545
As11 Na3 3.266690 1_555
As11 Na19 3.273955 1_555
