# generated using pymatgen
data_Rb16Hf3SnSe16
_symmetry_space_group_name_H-M   'P 1'
_cell_length_a   8.89561589
_cell_length_b   10.45774890
_cell_length_c   15.13191983
_cell_angle_alpha   90.00000000
_cell_angle_beta   89.82740464
_cell_angle_gamma   90.00000000
_symmetry_Int_Tables_number   1
_chemical_formula_structural   Rb16Hf3SnSe16
_chemical_formula_sum   'Rb16 Hf3 Sn1 Se16'
_cell_volume   1407.68762556
_cell_formula_units_Z   1
loop_
 _symmetry_equiv_pos_site_id
 _symmetry_equiv_pos_as_xyz
  1  'x, y, z'
loop_
 _atom_site_type_symbol
 _atom_site_label
 _atom_site_symmetry_multiplicity
 _atom_site_fract_x
 _atom_site_fract_y
 _atom_site_fract_z
 _atom_site_occupancy
  Rb  Rb0  1  0.50073939  0.49409548  0.50241082  1
  Rb  Rb1  1  0.16028553  0.44953733  0.28011546  1
  Rb  Rb2  1  0.16028553  0.05046267  0.28011546  1
  Rb  Rb3  1  0.01013738  0.75000000  0.42497124  1
  Rb  Rb4  1  0.98989133  0.25000000  0.57482709  1
  Rb  Rb5  1  0.65671586  0.94416674  0.21950329  1
  Rb  Rb6  1  0.33834843  0.05465767  0.78375776  1
  Rb  Rb7  1  0.84043716  0.94508304  0.71765525  1
  Rb  Rb8  1  0.33834843  0.44534233  0.78375776  1
  Rb  Rb9  1  0.99803518  0.50342795  0.00118765  1
  Rb  Rb10  1  0.51478790  0.25000000  0.07766726  1
  Rb  Rb11  1  0.65671586  0.55583326  0.21950329  1
  Rb  Rb12  1  0.48939239  0.75000000  0.92367847  1
  Rb  Rb13  1  0.99803518  0.99657205  0.00118765  1
  Rb  Rb14  1  0.84043716  0.55491696  0.71765525  1
  Rb  Rb15  1  0.50073939  0.00590452  0.50241082  1
  Hf  Hf0  1  0.74242526  0.25000000  0.83288320  1
  Hf  Hf1  1  0.75751982  0.25000000  0.33288555  1
  Hf  Hf2  1  0.24398884  0.75000000  0.66696062  1
  Sn  Sn0  1  0.25860371  0.75000000  0.16481384  1
  Se  Se0  1  0.52625381  0.75000000  0.67839535  1
  Se  Se1  1  0.47492815  0.25000000  0.32138078  1
  Se  Se2  1  0.37047988  0.75000000  0.32064922  1
  Se  Se3  1  0.12806499  0.75000000  0.81923749  1
  Se  Se4  1  0.02453168  0.25000000  0.82048837  1
  Se  Se5  1  0.97192534  0.75000000  0.17733640  1
  Se  Se6  1  0.62737245  0.25000000  0.68061291  1
  Se  Se7  1  0.87235015  0.25000000  0.18053906  1
  Se  Se8  1  0.84226012  0.44748616  0.41071086  1
  Se  Se9  1  0.65721222  0.05272980  0.91108582  1
  Se  Se10  1  0.34576233  0.94941772  0.08566822  1
  Se  Se11  1  0.34576233  0.55058228  0.08566822  1
  Se  Se12  1  0.15887724  0.55267744  0.58923996  1
  Se  Se13  1  0.84226012  0.05251384  0.41071086  1
  Se  Se14  1  0.15887724  0.94732256  0.58923996  1
  Se  Se15  1  0.65721222  0.44727020  0.91108582  1
loop_
_geom_bond_atom_site_label_1
_geom_bond_atom_site_label_2
_geom_bond_distance
_geom_bond_site_symmetry_2
Rb0 Se12 3.365367 1_555
Rb0 Se8 3.371540 1_555
Rb0 Se1 3.751889 1_555
Rb0 Se0 3.782672 1_555
Rb0 Se6 3.882629 1_555
Rb0 Se2 4.011054 1_555
Rb1 Se8 3.446071 1_455
Rb1 Se11 3.530882 1_555
Rb1 Se1 3.548079 1_555
Rb1 Se7 3.634362 1_455
Rb1 Sn0 3.697705 1_555
Rb1 Se2 3.708434 1_555
Rb1 Se5 3.887833 1_455
Rb2 Se13 3.446071 1_455
Rb2 Se10 3.530882 1_545
Rb2 Se1 3.548079 1_555
Rb2 Se7 3.634362 1_455
Rb2 Sn0 3.697705 1_545
Rb2 Se2 3.708434 1_545
Rb2 Se5 3.887833 1_445
Rb3 Se12 3.493915 1_555
Rb3 Se14 3.493915 1_555
Rb3 Se13 3.505298 1_465
Rb3 Se8 3.505298 1_455
Rb3 Se2 3.568823 1_555
Rb3 Se5 3.763596 1_455
Rb4 Se8 3.489538 1_555
Rb4 Se13 3.489538 1_555
Rb4 Se14 3.511201 1_645
Rb4 Se12 3.511201 1_655
Rb4 Se6 3.595942 1_555
Rb4 Se4 3.731002 1_655
Rb5 Se10 3.433593 1_555
Rb5 Se5 3.518777 1_555
Rb5 Se13 3.522537 1_565
Rb5 Se2 3.595210 1_555
Rb5 Se7 3.774865 1_565
Rb5 Se1 3.899471 1_565
Rb6 Se9 3.433839 1_555
Rb6 Se4 3.502251 1_555
Rb6 Se14 3.535659 1_545
Rb6 Se6 3.632539 1_555
Rb6 Se3 3.732578 1_545
Rb6 Se0 3.933279 1_545
Rb7 Se14 3.430394 1_655
Rb7 Se0 3.512303 1_555
Rb7 Se9 3.530200 1_565
Rb7 Se3 3.618726 1_655
Rb7 Se6 3.752466 1_565
Rb7 Se4 3.909811 1_665
Rb8 Se15 3.433839 1_555
Rb8 Se4 3.502251 1_555
Rb8 Se12 3.535659 1_555
Rb8 Se6 3.632539 1_555
Rb8 Se3 3.732578 1_555
Rb8 Se0 3.933279 1_555
Rb9 Se15 3.379452 1_554
Rb9 Se11 3.386645 1_655
Rb9 Se5 3.715382 1_555
Rb9 Se4 3.814739 1_654
Rb9 Se3 3.943132 1_654
Rb9 Se7 3.952364 1_555
Rb10 Se11 3.486457 1_555
Rb10 Se10 3.486457 1_545
Rb10 Se15 3.492251 1_554
Rb10 Se9 3.492251 1_554
Rb10 Se7 3.545429 1_555
Rb10 Se1 3.703797 1_555
Rb11 Se11 3.433593 1_555
Rb11 Se5 3.518777 1_555
Rb11 Se8 3.522537 1_555
Rb11 Se2 3.595210 1_555
Rb11 Se7 3.774865 1_555
Rb11 Se1 3.899471 1_555
Rb12 Se10 3.459942 1_556
Rb12 Se11 3.459942 1_556
Rb12 Se9 3.505136 1_565
Rb12 Se15 3.505136 1_555
Rb12 Se3 3.586017 1_555
Rb12 Se0 3.725077 1_555
Rb13 Se9 3.379452 1_564
Rb13 Se10 3.386645 1_655
Rb13 Se5 3.715382 1_555
Rb13 Se4 3.814739 1_664
Rb13 Se3 3.943132 1_654
Rb13 Se7 3.952364 1_565
Rb14 Se12 3.430394 1_655
Rb14 Se0 3.512303 1_555
Rb14 Se15 3.530200 1_555
Rb14 Se3 3.618726 1_655
Rb14 Se6 3.752466 1_555
Rb14 Se4 3.909811 1_655
Rb15 Se14 3.365367 1_545
Rb15 Se13 3.371540 1_555
Rb15 Se1 3.751889 1_555
Rb15 Se0 3.782672 1_545
Rb15 Se6 3.882629 1_555
Rb15 Se2 4.011054 1_545
Hf0 Se15 2.495096 1_555
Hf0 Se9 2.495096 1_555
Hf0 Se4 2.515946 1_655
Hf0 Se6 2.524036 1_555
Hf1 Se8 2.495143 1_555
Hf1 Se13 2.495143 1_555
Hf1 Se7 2.518657 1_555
Hf1 Se1 2.520371 1_555
Hf2 Se12 2.493984 1_555
Hf2 Se14 2.493984 1_555
Hf2 Se0 2.517395 1_555
Hf2 Se3 2.521629 1_555
Se2 Sn0 2.562256 1_555
Se5 Sn0 2.556642 1_655
Se10 Sn0 2.525667 1_555
Se11 Sn0 2.525667 1_555
