# generated using pymatgen
data_Rb2TiZn3Sb4
_symmetry_space_group_name_H-M   'P 1'
_cell_length_a   8.42255065
_cell_length_b   8.42254998
_cell_length_c   6.16273590
_cell_angle_alpha   90.00000000
_cell_angle_beta   90.00000000
_cell_angle_gamma   136.99015807
_symmetry_Int_Tables_number   1
_chemical_formula_structural   Rb2TiZn3Sb4
_chemical_formula_sum   'Rb2 Ti1 Zn3 Sb4'
_cell_volume   298.21130343
_cell_formula_units_Z   1
loop_
 _symmetry_equiv_pos_site_id
 _symmetry_equiv_pos_as_xyz
  1  'x, y, z'
loop_
 _atom_site_type_symbol
 _atom_site_label
 _atom_site_symmetry_multiplicity
 _atom_site_fract_x
 _atom_site_fract_y
 _atom_site_fract_z
 _atom_site_occupancy
  Rb  Rb0  1  0.50000000  0.00000000  0.25510492  1
  Rb  Rb1  1  0.00000000  0.50000000  0.74489508  1
  Ti  Ti0  1  0.00000000  0.00000000  0.00000000  1
  Zn  Zn0  1  0.50000000  0.50000000  0.50000000  1
  Zn  Zn1  1  0.50000000  0.50000000  0.00000000  1
  Zn  Zn2  1  0.00000000  0.00000000  0.50000000  1
  Sb  Sb0  1  0.65016965  0.85839960  0.75470645  1
  Sb  Sb1  1  0.14160040  0.34983035  0.24529355  1
  Sb  Sb2  1  0.85839960  0.65016965  0.24529355  1
  Sb  Sb3  1  0.34983035  0.14160040  0.75470645  1
loop_
_geom_bond_atom_site_label_1
_geom_bond_atom_site_label_2
_geom_bond_distance
_geom_bond_site_symmetry_2
Rb0 Sb1 3.821183 1_655
Rb0 Sb2 3.821183 1_445
Rb0 Sb3 3.835090 1_555
Rb0 Sb0 3.835090 1_545
Rb0 Sb0 3.839034 1_544
Rb0 Sb3 3.839034 1_554
Rb0 Sb2 3.863703 1_555
Rb0 Sb1 3.863703 1_545
Rb1 Sb3 3.821183 1_565
Rb1 Sb0 3.821183 1_445
Rb1 Sb2 3.835090 1_455
Rb1 Sb1 3.835090 1_555
Rb1 Sb2 3.839034 1_456
Rb1 Sb1 3.839034 1_556
Rb1 Sb0 3.863703 1_555
Rb1 Sb3 3.863703 1_455
Sb0 Ti0 2.692580 1_666
Sb0 Zn1 2.722750 1_556
Sb0 Zn2 2.725571 1_665
Sb0 Zn0 2.755379 1_555
Sb1 Ti0 2.692580 1_555
Sb1 Zn1 2.722750 1_555
Sb1 Zn2 2.725570 1_555
Sb1 Zn0 2.755379 1_555
Sb2 Ti0 2.692580 1_665
Sb2 Zn1 2.722750 1_555
Sb2 Zn2 2.725570 1_665
Sb2 Zn0 2.755379 1_555
Sb3 Ti0 2.692580 1_556
Sb3 Zn1 2.722750 1_556
Sb3 Zn2 2.725571 1_555
Sb3 Zn0 2.755379 1_555
