# generated using pymatgen
data_K3Lu(AsSe2)6
_symmetry_space_group_name_H-M   'P 1'
_cell_length_a   9.77967260
_cell_length_b   9.77967337
_cell_length_c   7.92763393
_cell_angle_alpha   90.00000000
_cell_angle_beta   90.00000000
_cell_angle_gamma   119.99999983
_symmetry_Int_Tables_number   1
_chemical_formula_structural   K3Lu(AsSe2)6
_chemical_formula_sum   'K3 Lu1 As6 Se12'
_cell_volume   656.63327377
_cell_formula_units_Z   1
loop_
 _symmetry_equiv_pos_site_id
 _symmetry_equiv_pos_as_xyz
  1  'x, y, z'
loop_
 _atom_site_type_symbol
 _atom_site_label
 _atom_site_symmetry_multiplicity
 _atom_site_fract_x
 _atom_site_fract_y
 _atom_site_fract_z
 _atom_site_occupancy
  K  K0  1  0.00000000  0.00000000  0.00000000  1
  K  K1  1  0.33333300  0.66666700  0.84732602  1
  K  K2  1  0.66666700  0.33333300  0.15267398  1
  Lu  Lu0  1  0.00000000  0.00000000  0.50000000  1
  As  As0  1  0.29065973  0.83928552  0.37709049  1
  As  As1  1  0.16071448  0.45137421  0.37709049  1
  As  As2  1  0.54862579  0.70934027  0.37709049  1
  As  As3  1  0.70934027  0.16071448  0.62290951  1
  As  As4  1  0.83928552  0.54862579  0.62290951  1
  As  As5  1  0.45137421  0.29065973  0.62290951  1
  Se  Se0  1  0.25843195  0.05266646  0.29434848  1
  Se  Se1  1  0.94733354  0.20576649  0.29434848  1
  Se  Se2  1  0.79423351  0.74156805  0.29434848  1
  Se  Se3  1  0.74156805  0.94733354  0.70565152  1
  Se  Se4  1  0.05266646  0.79423351  0.70565152  1
  Se  Se5  1  0.20576649  0.25843195  0.70565152  1
  Se  Se6  1  0.52820378  0.90759353  0.20899990  1
  Se  Se7  1  0.09240647  0.62060925  0.20899990  1
  Se  Se8  1  0.37939075  0.47179622  0.20899990  1
  Se  Se9  1  0.47179622  0.09240647  0.79100010  1
  Se  Se10  1  0.90759353  0.37939075  0.79100010  1
  Se  Se11  1  0.62060925  0.52820378  0.79100010  1
loop_
_geom_bond_atom_site_label_1
_geom_bond_atom_site_label_2
_geom_bond_distance
_geom_bond_site_symmetry_2
K0 Se0 3.285779 1_555
K0 Se3 3.285779 1_444
K0 Se5 3.285781 1_554
K0 Se2 3.285781 1_445
K0 Se1 3.285786 1_455
K0 Se4 3.285786 1_544
K1 Se7 3.593623 1_556
K1 Se6 3.593627 1_556
K1 Se8 3.593635 1_556
K1 Se10 3.705472 1_455
K1 Se11 3.705472 1_555
K1 Se9 3.705472 1_565
K1 Se4 3.711639 1_555
K1 Se3 3.711653 1_555
K1 Se5 3.711657 1_555
K2 Se10 3.593623 1_554
K2 Se9 3.593627 1_554
K2 Se11 3.593635 1_554
K2 Se7 3.705472 1_655
K2 Se8 3.705472 1_555
K2 Se6 3.705472 1_545
K2 Se1 3.711639 1_555
K2 Se0 3.711653 1_555
K2 Se2 3.711657 1_555
Lu0 Se0 2.830046 1_555
Lu0 Se3 2.830046 1_445
Lu0 Se5 2.830048 1_555
Lu0 Se2 2.830048 1_445
Lu0 Se4 2.830054 1_545
Lu0 Se1 2.830054 1_455
As0 Se0 2.354152 1_565
As0 Se7 2.441722 1_555
As0 Se6 2.463105 1_555
As1 Se1 2.354146 1_455
As1 Se8 2.441725 1_555
As1 Se7 2.463097 1_555
As2 Se2 2.354143 1_555
As2 Se6 2.441717 1_555
As2 Se8 2.463103 1_555
As3 Se3 2.354152 1_545
As3 Se10 2.441722 1_555
As3 Se9 2.463105 1_555
As4 Se4 2.354146 1_655
As4 Se11 2.441725 1_555
As4 Se10 2.463097 1_555
As5 Se5 2.354143 1_555
As5 Se9 2.441717 1_555
As5 Se11 2.463103 1_555
