# generated using pymatgen
data_CsSc(NbBr3)6
_symmetry_space_group_name_H-M   'P 1'
_cell_length_a   10.61378705
_cell_length_b   10.61378701
_cell_length_c   10.61378734
_cell_angle_alpha   55.66935898
_cell_angle_beta   55.66936656
_cell_angle_gamma   55.66936583
_symmetry_Int_Tables_number   1
_chemical_formula_structural   CsSc(NbBr3)6
_chemical_formula_sum   'Cs1 Sc1 Nb6 Br18'
_cell_volume   760.51715105
_cell_formula_units_Z   1
loop_
 _symmetry_equiv_pos_site_id
 _symmetry_equiv_pos_as_xyz
  1  'x, y, z'
loop_
 _atom_site_type_symbol
 _atom_site_label
 _atom_site_symmetry_multiplicity
 _atom_site_fract_x
 _atom_site_fract_y
 _atom_site_fract_z
 _atom_site_occupancy
  Cs  Cs0  1  0.22393180  0.22393180  0.22393180  1
  Sc  Sc0  1  0.49826061  0.49826061  0.49826061  1
  Nb  Nb0  1  0.81035881  0.14531046  0.90957217  1
  Nb  Nb1  1  0.90957217  0.81035881  0.14531046  1
  Nb  Nb2  1  0.14531046  0.90957217  0.81035881  1
  Nb  Nb3  1  0.19055778  0.85515635  0.08914839  1
  Nb  Nb4  1  0.08914839  0.19055778  0.85515635  1
  Nb  Nb5  1  0.85515635  0.08914839  0.19055778  1
  Br  Br0  1  0.87407008  0.41292486  0.71447106  1
  Br  Br1  1  0.71447106  0.87407008  0.41292486  1
  Br  Br2  1  0.41292486  0.71447106  0.87407008  1
  Br  Br3  1  0.12493498  0.58752151  0.28776202  1
  Br  Br4  1  0.28776202  0.12493498  0.58752151  1
  Br  Br5  1  0.58752151  0.28776202  0.12493498  1
  Br  Br6  1  0.53625749  0.34756562  0.78940606  1
  Br  Br7  1  0.78940606  0.53625749  0.34756562  1
  Br  Br8  1  0.34756562  0.78940606  0.53625749  1
  Br  Br9  1  0.46264262  0.65381728  0.21135621  1
  Br  Br10  1  0.21135621  0.46264262  0.65381728  1
  Br  Br11  1  0.65381728  0.21135621  0.46264262  1
  Br  Br12  1  0.65792454  0.94293329  0.06631010  1
  Br  Br13  1  0.06631010  0.65792454  0.94293329  1
  Br  Br14  1  0.94293329  0.06631010  0.65792454  1
  Br  Br15  1  0.34673121  0.05462760  0.92758410  1
  Br  Br16  1  0.92758410  0.34673121  0.05462760  1
  Br  Br17  1  0.05462760  0.92758410  0.34673121  1
loop_
_geom_bond_atom_site_label_1
_geom_bond_atom_site_label_2
_geom_bond_distance
_geom_bond_site_symmetry_2
Br0 Nb0 2.601144 1_555
Br0 Nb4 2.608413 1_655
Br1 Nb1 2.601144 1_555
Br1 Nb5 2.608413 1_565
Br2 Nb2 2.601144 1_555
Br2 Nb3 2.608413 1_556
Br3 Nb3 2.611391 1_555
Br3 Nb1 2.621379 1_455
Br3 Cs0 3.745369 1_555
Br4 Nb4 2.611391 1_555
Br4 Nb2 2.621379 1_545
Br4 Cs0 3.745369 1_555
Br5 Nb5 2.611391 1_555
Br5 Nb0 2.621380 1_554
Br5 Cs0 3.745369 1_555
Br6 Sc0 2.715359 1_555
Br6 Nb0 2.958290 1_555
Br6 Cs0 3.849283 1_556
Br7 Sc0 2.715359 1_555
Br7 Nb1 2.958290 1_555
Br7 Cs0 3.849284 1_655
Br8 Sc0 2.715359 1_555
Br8 Nb2 2.958290 1_555
Br8 Cs0 3.849283 1_565
Br9 Sc0 2.658068 1_555
Br9 Nb3 2.954073 1_555
Br10 Sc0 2.658068 1_555
Br10 Nb4 2.954073 1_555
Br11 Sc0 2.658068 1_555
Br11 Nb5 2.954074 1_555
Br12 Nb1 2.602513 1_555
Br12 Nb0 2.617718 1_564
Br12 Cs0 3.788407 1_565
Br13 Nb2 2.602513 1_555
Br13 Nb1 2.617719 1_456
Br13 Cs0 3.788406 1_556
Br14 Nb0 2.602513 1_555
Br14 Nb2 2.617718 1_645
Br14 Cs0 3.788406 1_655
Br15 Nb4 2.611019 1_555
Br15 Nb3 2.612995 1_546
Br15 Cs0 3.732373 1_556
Br16 Nb5 2.611019 1_555
Br16 Nb4 2.612996 1_654
Br16 Cs0 3.732373 1_655
Br17 Nb3 2.611019 1_555
Br17 Nb5 2.612995 1_465
Br17 Cs0 3.732373 1_565
