# generated using pymatgen
data_BeNb4VSn2
_symmetry_space_group_name_H-M   'P 1'
_cell_length_a   7.85580593
_cell_length_b   7.85580619
_cell_length_c   7.85580547
_cell_angle_alpha   95.74959875
_cell_angle_beta   95.74958622
_cell_angle_gamma   143.09554575
_symmetry_Int_Tables_number   1
_chemical_formula_structural   BeNb4VSn2
_chemical_formula_sum   'Be2 Nb8 V2 Sn4'
_cell_volume   276.15320874
_cell_formula_units_Z   2
loop_
 _symmetry_equiv_pos_site_id
 _symmetry_equiv_pos_as_xyz
  1  'x, y, z'
loop_
 _atom_site_type_symbol
 _atom_site_label
 _atom_site_symmetry_multiplicity
 _atom_site_fract_x
 _atom_site_fract_y
 _atom_site_fract_z
 _atom_site_occupancy
  Be  Be0  1  0.75000000  0.75000000  0.00000000  1
  Be  Be1  1  0.25000000  0.25000000  0.00000000  1
  Nb  Nb0  1  0.79759580  0.92691912  0.72451492  1
  Nb  Nb1  1  0.92691912  0.20240420  0.12932332  1
  Nb  Nb2  1  0.07308088  0.79759580  0.87067668  1
  Nb  Nb3  1  0.20240420  0.07308088  0.27548508  1
  Nb  Nb4  1  0.57308088  0.70240420  0.27548508  1
  Nb  Nb5  1  0.42691912  0.29759580  0.72451492  1
  Nb  Nb6  1  0.29759580  0.57308088  0.87067668  1
  Nb  Nb7  1  0.70240420  0.42691912  0.12932332  1
  V  V0  1  0.25000000  0.75000000  0.50000000  1
  V  V1  1  0.75000000  0.25000000  0.50000000  1
  Sn  Sn0  1  0.34030831  0.84030831  0.18061861  1
  Sn  Sn1  1  0.84030831  0.65969169  0.50000000  1
  Sn  Sn2  1  0.15969169  0.34030831  0.50000000  1
  Sn  Sn3  1  0.65969169  0.15969169  0.81938139  1
loop_
_geom_bond_atom_site_label_1
_geom_bond_atom_site_label_2
_geom_bond_distance
_geom_bond_site_symmetry_2
Be0 Be1 2.486471 1_665
Be0 Be1 2.486471 1_555
Be0 Nb4 2.586259 1_555
Be0 Nb2 2.586259 1_654
Be0 Nb0 2.586259 1_554
Be0 Nb5 2.586260 1_554
Be0 Nb1 2.586260 1_565
Be0 Nb6 2.586260 1_554
Be0 Nb7 2.586260 1_555
Be0 Nb3 2.586260 1_665
Be1 Nb5 2.586259 1_554
Be1 Nb1 2.586259 1_455
Be1 Nb3 2.586259 1_555
Be1 Nb4 2.586260 1_555
Be1 Nb2 2.586260 1_544
Be1 Nb7 2.586260 1_555
Be1 Nb6 2.586260 1_554
Be1 Nb0 2.586260 1_444
Nb0 Sn3 2.851282 1_565
Nb0 Sn1 2.851952 1_555
Nb0 Sn2 3.021224 1_665
Nb0 Sn2 3.021225 1_555
Nb1 Sn2 2.851285 1_655
Nb1 Sn3 2.851964 1_554
Nb1 Sn0 3.021222 1_655
Nb1 Sn0 3.021230 1_545
Nb2 Sn1 2.851285 1_455
Nb2 Sn0 2.851964 1_556
Nb2 Sn3 3.021222 1_455
Nb2 Sn3 3.021230 1_565
Nb3 Sn0 2.851282 1_545
Nb3 Sn2 2.851952 1_555
Nb3 Sn1 3.021224 1_445
Nb3 Sn1 3.021225 1_555
Nb4 Sn0 2.851282 1_555
Nb4 Sn1 2.851952 1_555
Nb4 Sn2 3.021224 1_555
Nb4 Sn2 3.021225 1_665
Nb5 Sn3 2.851282 1_555
Nb5 Sn2 2.851952 1_555
Nb5 Sn1 3.021224 1_555
Nb5 Sn1 3.021225 1_445
Nb6 Sn2 2.851285 1_555
Nb6 Sn0 2.851964 1_556
Nb6 Sn3 3.021222 1_455
Nb6 Sn3 3.021231 1_565
Nb7 Sn1 2.851285 1_555
Nb7 Sn3 2.851964 1_554
Nb7 Sn0 3.021222 1_655
Nb7 Sn0 3.021231 1_545
V0 V1 2.486471 1_565
V0 V1 2.486471 1_455
Sn0 V0 2.685153 1_555
Sn0 V1 2.685158 1_565
Sn1 V0 2.685169 1_655
Sn1 V1 2.685169 1_555
Sn2 V1 2.685169 1_455
Sn2 V0 2.685169 1_555
Sn3 V1 2.685153 1_555
Sn3 V0 2.685158 1_545
