# generated using pymatgen
data_Rb2Ti(CuTe2)2
_symmetry_space_group_name_H-M   'P 1'
_cell_length_a   6.13651957
_cell_length_b   6.13651957
_cell_length_c   14.85691136
_cell_angle_alpha   90.00000000
_cell_angle_beta   90.00000000
_cell_angle_gamma   90.00000000
_symmetry_Int_Tables_number   1
_chemical_formula_structural   Rb2Ti(CuTe2)2
_chemical_formula_sum   'Rb4 Ti2 Cu4 Te8'
_cell_volume   559.46481527
_cell_formula_units_Z   2
loop_
 _symmetry_equiv_pos_site_id
 _symmetry_equiv_pos_as_xyz
  1  'x, y, z'
loop_
 _atom_site_type_symbol
 _atom_site_label
 _atom_site_symmetry_multiplicity
 _atom_site_fract_x
 _atom_site_fract_y
 _atom_site_fract_z
 _atom_site_occupancy
  Rb  Rb0  1  0.74974154  0.74974154  0.00000000  1
  Rb  Rb1  1  0.25025846  0.74974154  0.50000000  1
  Rb  Rb2  1  0.74974154  0.25025846  0.50000000  1
  Rb  Rb3  1  0.25025846  0.25025846  0.00000000  1
  Ti  Ti0  1  0.50000000  0.50000000  0.25000000  1
  Ti  Ti1  1  0.50000000  0.50000000  0.75000000  1
  Cu  Cu0  1  0.00000000  0.50000000  0.75000000  1
  Cu  Cu1  1  0.50000000  0.00000000  0.75000000  1
  Cu  Cu2  1  0.50000000  0.00000000  0.25000000  1
  Cu  Cu3  1  0.00000000  0.50000000  0.25000000  1
  Te  Te0  1  0.74922854  0.25077146  0.15064213  1
  Te  Te1  1  0.74922854  0.74922854  0.34935787  1
  Te  Te2  1  0.25077146  0.25077146  0.65064213  1
  Te  Te3  1  0.74922854  0.74922854  0.65064213  1
  Te  Te4  1  0.25077146  0.25077146  0.34935787  1
  Te  Te5  1  0.74922854  0.25077146  0.84935787  1
  Te  Te6  1  0.25077146  0.74922854  0.84935787  1
  Te  Te7  1  0.25077146  0.74922854  0.15064213  1
loop_
_geom_bond_atom_site_label_1
_geom_bond_atom_site_label_2
_geom_bond_distance
_geom_bond_site_symmetry_2
Rb0 Te0 3.792687 1_555
Rb0 Te7 3.792687 1_555
Rb0 Te5 3.792687 1_554
Rb0 Te6 3.792687 1_554
Rb0 Te7 3.802899 1_655
Rb0 Te0 3.802899 1_565
Rb0 Te5 3.802899 1_564
Rb0 Te6 3.802899 1_654
Rb1 Te3 3.792687 1_555
Rb1 Te2 3.792687 1_555
Rb1 Te1 3.792687 1_555
Rb1 Te4 3.792687 1_555
Rb1 Te2 3.802899 1_565
Rb1 Te3 3.802899 1_455
Rb1 Te4 3.802899 1_565
Rb1 Te1 3.802899 1_455
Rb2 Te3 3.792687 1_555
Rb2 Te2 3.792687 1_555
Rb2 Te4 3.792687 1_555
Rb2 Te1 3.792687 1_555
Rb2 Te2 3.802899 1_655
Rb2 Te3 3.802899 1_545
Rb2 Te4 3.802899 1_655
Rb2 Te1 3.802899 1_545
Rb3 Te0 3.792687 1_555
Rb3 Te7 3.792687 1_555
Rb3 Te5 3.792687 1_554
Rb3 Te6 3.792687 1_554
Rb3 Te7 3.802899 1_545
Rb3 Te0 3.802899 1_455
Rb3 Te6 3.802899 1_544
Rb3 Te5 3.802899 1_454
Cu0 Te6 2.624152 1_555
Cu0 Te5 2.624152 1_455
Cu0 Te2 2.624152 1_555
Cu0 Te3 2.624152 1_455
Cu0 Ti1 3.068260 1_555
Cu0 Ti1 3.068260 1_455
Cu1 Te5 2.624152 1_555
Cu1 Te6 2.624152 1_545
Cu1 Te2 2.624152 1_555
Cu1 Te3 2.624152 1_545
Cu1 Ti1 3.068260 1_555
Cu1 Ti1 3.068260 1_545
Cu2 Te4 2.624152 1_555
Cu2 Te1 2.624152 1_545
Cu2 Te0 2.624152 1_555
Cu2 Te7 2.624152 1_545
Cu2 Ti0 3.068260 1_555
Cu2 Ti0 3.068260 1_545
Cu3 Te1 2.624152 1_455
Cu3 Te4 2.624152 1_555
Cu3 Te7 2.624152 1_555
Cu3 Te0 2.624152 1_455
Cu3 Ti0 3.068260 1_455
Cu3 Ti0 3.068260 1_555
Te0 Ti0 2.618611 1_555
Te1 Ti0 2.618611 1_555
Te2 Ti1 2.618611 1_555
Te3 Ti1 2.618611 1_555
Te4 Ti0 2.618611 1_555
Te5 Ti1 2.618611 1_555
Te6 Ti1 2.618611 1_555
Te7 Ti0 2.618611 1_555
