# generated using pymatgen
data_Ti5Al16GaRh7
_symmetry_space_group_name_H-M   'P 1'
_cell_length_a   8.45914695
_cell_length_b   8.56238252
_cell_length_c   8.56238247
_cell_angle_alpha   59.20391318
_cell_angle_beta   60.39803923
_cell_angle_gamma   60.39804235
_symmetry_Int_Tables_number   1
_chemical_formula_structural   Ti5Al16GaRh7
_chemical_formula_sum   'Ti5 Al16 Ga1 Rh7'
_cell_volume   438.40552684
_cell_formula_units_Z   1
loop_
 _symmetry_equiv_pos_site_id
 _symmetry_equiv_pos_as_xyz
  1  'x, y, z'
loop_
 _atom_site_type_symbol
 _atom_site_label
 _atom_site_symmetry_multiplicity
 _atom_site_fract_x
 _atom_site_fract_y
 _atom_site_fract_z
 _atom_site_occupancy
  Ti  Ti0  1  0.80591650  0.19408350  0.19408350  1
  Ti  Ti1  1  0.78285393  0.21714607  0.78227523  1
  Ti  Ti2  1  0.78285393  0.78227523  0.21714607  1
  Ti  Ti3  1  0.21772477  0.78227523  0.21714607  1
  Ti  Ti4  1  0.21772477  0.21714607  0.78227523  1
  Al  Al0  1  0.88692610  0.84157490  0.84157490  1
  Al  Al1  1  0.85348505  0.83121619  0.46181470  1
  Al  Al2  1  0.42992511  0.84157490  0.84157490  1
  Al  Al3  1  0.85348505  0.46181470  0.83121619  1
  Al  Al4  1  0.16878381  0.14651495  0.14651495  1
  Al  Al5  1  0.15842510  0.11307390  0.57007489  1
  Al  Al6  1  0.15842510  0.57007489  0.11307390  1
  Al  Al7  1  0.53818530  0.14651495  0.14651495  1
  Al  Al8  1  0.61752395  0.61729000  0.61729000  1
  Al  Al9  1  0.63029355  0.61743520  0.12197870  1
  Al  Al10  1  0.14789705  0.61729000  0.61729000  1
  Al  Al11  1  0.63029355  0.12197870  0.61743520  1
  Al  Al12  1  0.38256480  0.36970645  0.36970645  1
  Al  Al13  1  0.38271000  0.38247605  0.85210295  1
  Al  Al14  1  0.38271000  0.85210295  0.38247605  1
  Al  Al15  1  0.87802130  0.36970645  0.36970645  1
  Ga  Ga0  1  0.02585342  0.97414658  0.97414658  1
  Rh  Rh0  1  0.01119892  0.48880108  0.48880108  1
  Rh  Rh1  1  0.51119892  0.98880108  0.98880108  1
  Rh  Rh2  1  0.51081730  0.99487926  0.48918270  1
  Rh  Rh3  1  0.51081730  0.48918270  0.99487926  1
  Rh  Rh4  1  0.00512074  0.48918270  0.99487926  1
  Rh  Rh5  1  0.00512074  0.99487926  0.48918270  1
  Rh  Rh6  1  0.51314389  0.48685611  0.48685611  1
loop_
_geom_bond_atom_site_label_1
_geom_bond_atom_site_label_2
_geom_bond_distance
_geom_bond_site_symmetry_2
Al0 Rh5 2.467280 1_655
Al0 Rh4 2.467280 1_655
Al0 Rh1 2.643980 1_555
Al0 Ti2 2.710510 1_556
Al0 Ti1 2.710510 1_565
Al0 Ga0 2.813078 1_655
Al1 Rh5 2.464363 1_655
Al1 Rh2 2.464370 1_555
Al1 Rh0 2.485108 1_655
Al1 Ti3 2.702635 1_655
Al1 Ti2 2.702641 1_555
Al1 Ti0 2.730108 1_565
Al2 Rh2 2.467280 1_555
Al2 Rh3 2.467280 1_555
Al2 Rh1 2.643974 1_555
Al2 Ti3 2.710511 1_556
Al2 Ti4 2.710511 1_565
Al2 Ga0 2.813085 1_555
Al3 Rh4 2.464363 1_655
Al3 Rh3 2.464370 1_555
Al3 Rh0 2.485108 1_655
Al3 Ti4 2.702635 1_655
Al3 Ti1 2.702641 1_555
Al3 Ti0 2.730108 1_556
Al4 Rh5 2.464368 1_545
Al4 Rh4 2.464369 1_554
Al4 Rh1 2.485106 1_544
Al4 Ti4 2.702633 1_554
Al4 Ti3 2.702633 1_545
Al4 Ti0 2.730105 1_455
Al5 Rh5 2.467274 1_545
Al5 Rh2 2.467281 1_545
Al5 Rh0 2.643981 1_555
Al5 Ti1 2.710512 1_455
Al5 Ti4 2.710518 1_555
Al5 Ga0 2.813085 1_545
Al6 Rh4 2.467274 1_554
Al6 Rh3 2.467281 1_554
Al6 Rh0 2.643981 1_555
Al6 Ti2 2.710512 1_455
Al6 Ti3 2.710518 1_555
Al6 Ga0 2.813085 1_554
Al7 Rh2 2.464371 1_545
Al7 Rh3 2.464371 1_554
Al7 Rh1 2.485101 1_544
Al7 Ti1 2.702635 1_554
Al7 Ti2 2.702635 1_545
Al7 Ti0 2.730113 1_555
Al8 Rh6 2.549486 1_555
Al8 Rh3 2.633317 1_555
Al8 Rh2 2.633317 1_555
Al8 Rh0 2.740609 1_655
Al8 Ti2 2.819964 1_555
Al8 Ti1 2.819964 1_555
Al9 Rh6 2.540072 1_555
Al9 Rh1 2.585250 1_554
Al9 Rh4 2.611228 1_654
Al9 Rh3 2.611234 1_554
Al9 Ti2 2.887509 1_555
Al9 Ti3 2.887515 1_555
Al9 Ti0 3.003726 1_555
Al10 Rh6 2.549479 1_555
Al10 Rh4 2.633318 1_555
Al10 Rh5 2.633318 1_555
Al10 Rh0 2.740616 1_555
Al10 Ti3 2.819965 1_555
Al10 Ti4 2.819965 1_555
Al11 Rh6 2.540072 1_555
Al11 Rh1 2.585250 1_545
Al11 Rh5 2.611228 1_645
Al11 Rh2 2.611234 1_545
Al11 Ti1 2.887509 1_555
Al11 Ti4 2.887515 1_555
Al11 Ti0 3.003726 1_555
Al12 Rh6 2.540079 1_555
Al12 Rh0 2.585250 1_555
Al12 Rh3 2.611227 1_554
Al12 Rh2 2.611227 1_545
Al12 Ti4 2.887515 1_555
Al12 Ti3 2.887515 1_555
Al12 Ti0 3.003724 1_555
Al13 Rh6 2.549478 1_555
Al13 Rh4 2.633318 1_555
Al13 Rh3 2.633325 1_555
Al13 Rh1 2.740609 1_545
Al13 Ti4 2.819958 1_555
Al13 Ti1 2.819965 1_555
Al14 Rh6 2.549478 1_555
Al14 Rh5 2.633318 1_555
Al14 Rh2 2.633325 1_555
Al14 Rh1 2.740608 1_554
Al14 Ti3 2.819958 1_555
Al14 Ti2 2.819965 1_555
Al15 Rh6 2.540072 1_555
Al15 Rh0 2.585257 1_655
Al15 Rh4 2.611227 1_654
Al15 Rh5 2.611227 1_645
Al15 Ti1 2.887516 1_555
Al15 Ti2 2.887516 1_555
Al15 Ti0 3.003719 1_555
Ga0 Ti2 2.619982 1_456
Ga0 Ti4 2.619982 1_565
Ga0 Ti1 2.619982 1_465
Ga0 Ti3 2.619982 1_556
Ga0 Ti0 2.694952 1_466
Rh0 Ti1 3.018987 1_455
Rh0 Ti3 3.018987 1_555
Rh0 Ti4 3.018987 1_555
Rh0 Ti2 3.018987 1_455
Rh1 Ti3 3.018987 1_556
Rh1 Ti1 3.018987 1_565
Rh1 Ti4 3.018987 1_565
Rh1 Ti2 3.018987 1_556
Rh2 Ti2 2.990428 1_555
Rh2 Ti0 3.014492 1_565
Rh3 Ti1 2.990428 1_555
Rh3 Ti0 3.014493 1_556
Rh4 Ti4 2.990428 1_555
Rh4 Ti0 3.014493 1_456
Rh5 Ti3 2.990428 1_555
Rh5 Ti0 3.014493 1_465
