# generated using pymatgen
data_MnCu2Rh3S8
_symmetry_space_group_name_H-M   'P 1'
_cell_length_a   6.83430913
_cell_length_b   6.83430807
_cell_length_c   6.83430868
_cell_angle_alpha   61.77103979
_cell_angle_beta   61.77104773
_cell_angle_gamma   61.77104951
_symmetry_Int_Tables_number   1
_chemical_formula_structural   MnCu2Rh3S8
_chemical_formula_sum   'Mn1 Cu2 Rh3 S8'
_cell_volume   234.67571828
_cell_formula_units_Z   1
loop_
 _symmetry_equiv_pos_site_id
 _symmetry_equiv_pos_as_xyz
  1  'x, y, z'
loop_
 _atom_site_type_symbol
 _atom_site_label
 _atom_site_symmetry_multiplicity
 _atom_site_fract_x
 _atom_site_fract_y
 _atom_site_fract_z
 _atom_site_occupancy
  Mn  Mn0  1  0.00000000  0.00000000  0.00000000  1
  Cu  Cu0  1  0.37701088  0.37701088  0.37701088  1
  Cu  Cu1  1  0.62298912  0.62298912  0.62298912  1
  Rh  Rh0  1  0.00000000  0.50000000  0.00000000  1
  Rh  Rh1  1  0.00000000  0.00000000  0.50000000  1
  Rh  Rh2  1  0.50000000  0.00000000  0.00000000  1
  S  S0  1  0.75846012  0.22559408  0.75846012  1
  S  S1  1  0.75973155  0.75973155  0.75973155  1
  S  S2  1  0.77440592  0.24153988  0.24153988  1
  S  S3  1  0.24153988  0.24153988  0.77440592  1
  S  S4  1  0.24153988  0.77440592  0.24153988  1
  S  S5  1  0.24026845  0.24026845  0.24026845  1
  S  S6  1  0.22559408  0.75846012  0.75846012  1
  S  S7  1  0.75846012  0.75846012  0.22559408  1
loop_
_geom_bond_atom_site_label_1
_geom_bond_atom_site_label_2
_geom_bond_distance
_geom_bond_site_symmetry_2
Mn0 S3 2.364238 1_554
Mn0 S7 2.364238 1_445
Mn0 S0 2.364238 1_454
Mn0 S4 2.364238 1_545
Mn0 S2 2.364238 1_455
Mn0 S6 2.364238 1_544
Cu0 S5 2.258027 1_555
Cu0 S4 2.268052 1_555
Cu0 S3 2.268052 1_555
Cu0 S2 2.268053 1_555
Cu1 S1 2.258027 1_555
Cu1 S0 2.268052 1_555
Cu1 S7 2.268052 1_555
Cu1 S6 2.268053 1_555
Rh0 S5 2.362137 1_555
Rh0 S1 2.362137 1_454
Rh0 S6 2.373287 1_554
Rh0 S2 2.373287 1_455
Rh0 S7 2.373287 1_455
Rh0 S3 2.373287 1_554
Rh1 S5 2.362137 1_555
Rh1 S1 2.362137 1_445
Rh1 S6 2.373287 1_545
Rh1 S2 2.373287 1_455
Rh1 S4 2.373287 1_545
Rh1 S0 2.373287 1_455
Rh2 S5 2.362137 1_555
Rh2 S1 2.362137 1_544
Rh2 S0 2.373287 1_554
Rh2 S4 2.373287 1_545
Rh2 S7 2.373287 1_545
Rh2 S3 2.373287 1_554
