# generated using pymatgen
data_Hf5(BeTe)2
_symmetry_space_group_name_H-M   'P 1'
_cell_length_a   7.13006421
_cell_length_b   7.13006366
_cell_length_c   13.69995124
_cell_angle_alpha   90.00000000
_cell_angle_beta   90.00000000
_cell_angle_gamma   150.70534462
_symmetry_Int_Tables_number   1
_chemical_formula_structural   Hf5(BeTe)2
_chemical_formula_sum   'Hf10 Be4 Te4'
_cell_volume   340.78624986
_cell_formula_units_Z   2
loop_
 _symmetry_equiv_pos_site_id
 _symmetry_equiv_pos_as_xyz
  1  'x, y, z'
loop_
 _atom_site_type_symbol
 _atom_site_label
 _atom_site_symmetry_multiplicity
 _atom_site_fract_x
 _atom_site_fract_y
 _atom_site_fract_z
 _atom_site_occupancy
  Hf  Hf0  1  0.96296790  0.03703210  0.12337753  1
  Hf  Hf1  1  0.03703210  0.96296790  0.87662247  1
  Hf  Hf2  1  0.03703210  0.96296790  0.62337753  1
  Hf  Hf3  1  0.96296790  0.03703210  0.37662247  1
  Hf  Hf4  1  0.74193129  0.25806871  0.62782665  1
  Hf  Hf5  1  0.25806871  0.74193129  0.37217335  1
  Hf  Hf6  1  0.25806871  0.74193129  0.12782665  1
  Hf  Hf7  1  0.74193129  0.25806871  0.87217335  1
  Hf  Hf8  1  0.60998207  0.39001793  0.25000000  1
  Hf  Hf9  1  0.39001793  0.60998207  0.75000000  1
  Be  Be0  1  0.40784636  0.59215364  0.25000000  1
  Be  Be1  1  0.59215364  0.40784636  0.75000000  1
  Be  Be2  1  0.81668858  0.18331142  0.25000000  1
  Be  Be3  1  0.18331142  0.81668858  0.75000000  1
  Te  Te0  1  0.61509390  0.38490610  0.03782851  1
  Te  Te1  1  0.38490610  0.61509390  0.96217149  1
  Te  Te2  1  0.38490610  0.61509390  0.53782851  1
  Te  Te3  1  0.61509390  0.38490610  0.46217149  1
loop_
_geom_bond_atom_site_label_1
_geom_bond_atom_site_label_2
_geom_bond_distance
_geom_bond_site_symmetry_2
Hf0 Te0 3.004901 1_545
Hf0 Te0 3.004901 1_655
Hf0 Te1 3.047647 1_654
Hf0 Te1 3.047647 1_544
Hf1 Te1 3.004901 1_565
Hf1 Te1 3.004901 1_455
Hf1 Te0 3.047647 1_456
Hf1 Te0 3.047647 1_566
Hf2 Te2 3.004901 1_565
Hf2 Te2 3.004901 1_455
Hf2 Te3 3.047647 1_455
Hf2 Te3 3.047647 1_565
Hf3 Te3 3.004901 1_545
Hf3 Te3 3.004901 1_655
Hf3 Te2 3.047647 1_655
Hf3 Te2 3.047647 1_545
Hf4 Te3 2.865791 1_555
Hf4 Te2 2.943124 1_545
Hf4 Te2 2.943124 1_655
Hf5 Te2 2.865791 1_555
Hf5 Te3 2.943124 1_565
Hf5 Te3 2.943124 1_455
Hf6 Te1 2.865791 1_554
Hf6 Te0 2.943124 1_565
Hf6 Te0 2.943124 1_455
Hf7 Te0 2.865791 1_556
Hf7 Te1 2.943124 1_545
Hf7 Te1 2.943124 1_655
Hf8 Te3 2.907595 1_555
Hf8 Te0 2.907595 1_555
Hf9 Te1 2.907595 1_555
Hf9 Te2 2.907595 1_555
Be0 Be2 2.198282 1_565
Be0 Be2 2.198282 1_455
Be0 Hf3 2.615016 1_455
Be0 Hf0 2.615016 1_455
Be0 Hf3 2.615016 1_565
Be0 Hf0 2.615016 1_565
Be0 Hf5 2.659258 1_555
Be0 Hf6 2.659258 1_555
Be0 Hf8 2.788802 1_555
Be1 Be3 2.198282 1_545
Be1 Be3 2.198282 1_655
Be1 Hf1 2.615016 1_655
Be1 Hf2 2.615016 1_655
Be1 Hf1 2.615016 1_545
Be1 Hf2 2.615016 1_545
Be1 Hf7 2.659258 1_555
Be1 Hf4 2.659258 1_555
Be1 Hf9 2.788802 1_555
Be2 Hf5 2.589651 1_655
Be2 Hf6 2.589651 1_655
Be2 Hf5 2.589651 1_545
Be2 Hf6 2.589651 1_545
Be2 Hf3 2.661253 1_555
Be2 Hf0 2.661253 1_555
Be2 Hf8 2.851864 1_555
Be3 Hf7 2.589651 1_455
Be3 Hf4 2.589651 1_455
Be3 Hf7 2.589651 1_565
Be3 Hf4 2.589651 1_565
Be3 Hf1 2.661253 1_555
Be3 Hf2 2.661253 1_555
Be3 Hf9 2.851864 1_555
