# generated using pymatgen
data_Hf6SiGeN2
_symmetry_space_group_name_H-M   'P 1'
_cell_length_a   5.75028020
_cell_length_b   5.75028021
_cell_length_c   8.47019012
_cell_angle_alpha   90.00000000
_cell_angle_beta   90.00000000
_cell_angle_gamma   145.50860697
_symmetry_Int_Tables_number   1
_chemical_formula_structural   Hf6SiGeN2
_chemical_formula_sum   'Hf6 Si1 Ge1 N2'
_cell_volume   158.60039384
_cell_formula_units_Z   1
loop_
 _symmetry_equiv_pos_site_id
 _symmetry_equiv_pos_as_xyz
  1  'x, y, z'
loop_
 _atom_site_type_symbol
 _atom_site_label
 _atom_site_symmetry_multiplicity
 _atom_site_fract_x
 _atom_site_fract_y
 _atom_site_fract_z
 _atom_site_occupancy
  Hf  Hf0  1  0.63152268  0.36847732  0.44879429  1
  Hf  Hf1  1  0.36754486  0.63245514  0.55629455  1
  Hf  Hf2  1  0.63152268  0.36847732  0.05120571  1
  Hf  Hf3  1  0.36754486  0.63245514  0.94370545  1
  Hf  Hf4  1  0.94408645  0.05591355  0.25000000  1
  Hf  Hf5  1  0.05824997  0.94175003  0.75000000  1
  Si  Si0  1  0.74520575  0.25479425  0.75000000  1
  Ge  Ge0  1  0.25393216  0.74606784  0.25000000  1
  N  N0  1  0.00019529  0.99980471  0.49971653  1
  N  N1  1  0.00019529  0.99980471  0.00028347  1
loop_
_geom_bond_atom_site_label_1
_geom_bond_atom_site_label_2
_geom_bond_distance
_geom_bond_site_symmetry_2
Hf0 N0 2.274413 1_545
Hf0 N0 2.274413 1_655
Hf0 Si0 2.840436 1_555
Hf1 N0 2.293187 1_655
Hf1 N0 2.293187 1_545
Hf1 Si0 2.720997 1_455
Hf1 Si0 2.720997 1_565
Hf2 N1 2.274413 1_545
Hf2 N1 2.274413 1_655
Hf2 Si0 2.840436 1_554
Hf3 N1 2.293187 1_656
Hf3 N1 2.293187 1_546
Hf3 Si0 2.720997 1_455
Hf3 Si0 2.720997 1_565
Hf4 N0 2.203097 1_645
Hf4 N1 2.203097 1_645
Hf5 N1 2.213769 1_556
Hf5 N0 2.213769 1_555
Hf5 Si0 2.668872 1_565
Hf5 Si0 2.668872 1_455
Ge0 Hf4 2.695995 1_565
Ge0 Hf4 2.695995 1_455
Ge0 Hf0 2.747582 1_455
Ge0 Hf2 2.747582 1_455
Ge0 Hf0 2.747582 1_565
Ge0 Hf2 2.747582 1_565
Ge0 Hf1 2.878879 1_555
Ge0 Hf3 2.878879 1_554
