# generated using pymatgen
data_TaTiNb2O6
_symmetry_space_group_name_H-M   'P 1'
_cell_length_a   6.67043583
_cell_length_b   6.66797984
_cell_length_c   6.65852087
_cell_angle_alpha   73.38006308
_cell_angle_beta   73.13885031
_cell_angle_gamma   73.20644615
_symmetry_Int_Tables_number   1
_chemical_formula_structural   TaTiNb2O6
_chemical_formula_sum   'Ta2 Ti2 Nb4 O12'
_cell_volume   264.64876630
_cell_formula_units_Z   2
loop_
 _symmetry_equiv_pos_site_id
 _symmetry_equiv_pos_as_xyz
  1  'x, y, z'
loop_
 _atom_site_type_symbol
 _atom_site_label
 _atom_site_symmetry_multiplicity
 _atom_site_fract_x
 _atom_site_fract_y
 _atom_site_fract_z
 _atom_site_occupancy
  Ta  Ta0  1  0.94506422  0.11796167  0.70533020  1
  Ta  Ta1  1  0.70465158  0.94435153  0.11902757  1
  Ti  Ti0  1  0.27249531  0.27593882  0.27108191  1
  Ti  Ti1  1  0.72832539  0.72438627  0.72556155  1
  Nb  Nb0  1  0.11866001  0.70589662  0.94458339  1
  Nb  Nb1  1  0.05669537  0.88299477  0.29475028  1
  Nb  Nb2  1  0.29569102  0.05525057  0.88180393  1
  Nb  Nb3  1  0.88306126  0.29464374  0.05665058  1
  O  O0  1  0.17306447  0.56939537  0.26088609  1
  O  O1  1  0.25375727  0.17160324  0.56916700  1
  O  O2  1  0.56925936  0.25442250  0.17282543  1
  O  O3  1  0.82881039  0.42782002  0.73692982  1
  O  O4  1  0.73794460  0.82783565  0.42715469  1
  O  O5  1  0.43260228  0.74037120  0.82665361  1
  O  O6  1  0.65053724  0.03537122  0.79923306  1
  O  O7  1  0.79362820  0.65182487  0.03396054  1
  O  O8  1  0.96554158  0.20042121  0.35782318  1
  O  O9  1  0.20184601  0.35194957  0.96907382  1
  O  O10  1  0.35818434  0.96448202  0.20031247  1
  O  O11  1  0.03018009  0.80307911  0.64718890  1
loop_
_geom_bond_atom_site_label_1
_geom_bond_atom_site_label_2
_geom_bond_distance
_geom_bond_site_symmetry_2
Nb0 O5 2.067805 1_555
Nb0 O11 2.100574 1_555
Nb0 O0 2.133486 1_556
Nb0 O7 2.182957 1_456
Nb0 O9 2.231637 1_555
Nb1 O0 2.063061 1_555
Nb1 O10 2.106513 1_555
Nb1 O4 2.147619 1_455
Nb1 O8 2.154702 1_465
Nb1 O11 2.218258 1_555
Nb2 O1 2.074160 1_555
Nb2 O9 2.091532 1_555
Nb2 O5 2.125028 1_545
Nb2 O10 2.161170 1_546
Nb2 O6 2.242297 1_555
Nb3 O2 2.078025 1_555
Nb3 O8 2.106770 1_555
Nb3 O9 2.151861 1_654
Nb3 O3 2.152066 1_554
Nb3 O7 2.253115 1_555
O0 Ti0 1.863763 1_555
O1 Ti0 1.885608 1_555
O1 Ta0 2.084944 1_455
O2 Ti0 1.872299 1_555
O2 Ta1 2.091820 1_545
O3 Ti1 1.882387 1_555
O3 Ta0 2.035363 1_555
O4 Ti1 1.896175 1_555
O4 Ta1 2.028562 1_555
O5 Ti1 1.872136 1_555
O6 Ta0 2.066300 1_555
O6 Ta1 2.147749 1_546
O6 Ti1 2.149963 1_545
O7 Ta1 2.060537 1_555
O7 Ti1 2.114093 1_554
O8 Ti0 2.126699 1_655
O8 Ta0 2.192554 1_555
O9 Ti0 2.086024 1_556
O10 Ti0 2.139961 1_565
O10 Ta1 2.188323 1_555
O11 Ti1 2.108597 1_455
O11 Ta0 2.128216 1_465
