# generated using pymatgen
data_Zr3Ti3Ga2Si
_symmetry_space_group_name_H-M   'P 1'
_cell_length_a   7.16168203
_cell_length_b   7.16168314
_cell_length_c   3.69646028
_cell_angle_alpha   90.00000000
_cell_angle_beta   90.00000000
_cell_angle_gamma   119.99999949
_symmetry_Int_Tables_number   1
_chemical_formula_structural   Zr3Ti3Ga2Si
_chemical_formula_sum   'Zr3 Ti3 Ga2 Si1'
_cell_volume   164.19004216
_cell_formula_units_Z   1
loop_
 _symmetry_equiv_pos_site_id
 _symmetry_equiv_pos_as_xyz
  1  'x, y, z'
loop_
 _atom_site_type_symbol
 _atom_site_label
 _atom_site_symmetry_multiplicity
 _atom_site_fract_x
 _atom_site_fract_y
 _atom_site_fract_z
 _atom_site_occupancy
  Zr  Zr0  1  0.39877006  0.39877006  0.50000000  1
  Zr  Zr1  1  0.60122994  0.00000000  0.50000000  1
  Zr  Zr2  1  1.00000000  0.60122994  0.50000000  1
  Ti  Ti0  1  1.00000000  0.24879061  0.00000000  1
  Ti  Ti1  1  0.24879061  0.00000000  0.00000000  1
  Ti  Ti2  1  0.75120939  0.75120939  0.00000000  1
  Ga  Ga0  1  0.66666700  0.33333300  0.00000000  1
  Ga  Ga1  1  0.33333300  0.66666700  0.00000000  1
  Si  Si0  1  0.00000000  0.00000000  0.50000000  1
loop_
_geom_bond_atom_site_label_1
_geom_bond_atom_site_label_2
_geom_bond_distance
_geom_bond_site_symmetry_2
Ti0 Zr0 3.107751 1_655
Ti0 Zr0 3.107751 1_654
Ti0 Zr1 3.107752 1_554
Ti0 Zr1 3.107752 1_555
Ti0 Zr2 3.128391 1_555
Ti0 Zr2 3.128391 1_554
Ti1 Zr2 3.107752 1_445
Ti1 Zr2 3.107752 1_444
Ti1 Zr0 3.107752 1_555
Ti1 Zr0 3.107752 1_554
Ti1 Zr1 3.128390 1_555
Ti1 Zr1 3.128390 1_554
Ti2 Zr2 3.107752 1_554
Ti2 Zr2 3.107752 1_555
Ti2 Zr1 3.107752 1_565
Ti2 Zr1 3.107752 1_564
Ti2 Zr0 3.128390 1_555
Ti2 Zr0 3.128390 1_554
Ga0 Ti0 2.740587 1_555
Ga0 Ti1 2.740591 1_555
Ga0 Ti2 2.740594 1_555
Ga0 Zr1 2.866300 1_555
Ga0 Zr1 2.866300 1_554
Ga0 Zr2 2.866301 1_555
Ga0 Zr2 2.866301 1_554
Ga0 Zr0 2.866305 1_555
Ga0 Zr0 2.866305 1_554
Ga1 Ti1 2.740587 1_565
Ga1 Ti0 2.740592 1_455
Ga1 Ti2 2.740594 1_555
Ga1 Zr2 2.866299 1_455
Ga1 Zr2 2.866299 1_454
Ga1 Zr1 2.866302 1_565
Ga1 Zr1 2.866302 1_564
Ga1 Zr0 2.866305 1_555
Ga1 Zr0 2.866305 1_554
Si0 Ti1 2.567220 1_555
Si0 Ti1 2.567220 1_556
Si0 Ti2 2.567221 1_445
Si0 Ti2 2.567221 1_446
Si0 Ti0 2.567221 1_456
Si0 Ti0 2.567221 1_455
Si0 Zr1 2.855864 1_455
Si0 Zr0 2.855865 1_555
Si0 Zr2 2.855865 1_445
