# generated using pymatgen
data_Cs3SrIr2O9
_symmetry_space_group_name_H-M   'P 1'
_cell_length_a   6.37193366
_cell_length_b   6.37193275
_cell_length_c   14.96207066
_cell_angle_alpha   90.00000000
_cell_angle_beta   90.00000000
_cell_angle_gamma   119.99999976
_symmetry_Int_Tables_number   1
_chemical_formula_structural   Cs3SrIr2O9
_chemical_formula_sum   'Cs6 Sr2 Ir4 O18'
_cell_volume   526.09571308
_cell_formula_units_Z   2
loop_
 _symmetry_equiv_pos_site_id
 _symmetry_equiv_pos_as_xyz
  1  'x, y, z'
loop_
 _atom_site_type_symbol
 _atom_site_label
 _atom_site_symmetry_multiplicity
 _atom_site_fract_x
 _atom_site_fract_y
 _atom_site_fract_z
 _atom_site_occupancy
  Cs  Cs0  1  0.00000000  0.00000000  0.25000000  1
  Cs  Cs1  1  0.00000000  0.00000000  0.75000000  1
  Cs  Cs2  1  0.33333300  0.66666700  0.89750199  1
  Cs  Cs3  1  0.66666700  0.33333300  0.39750199  1
  Cs  Cs4  1  0.66666700  0.33333300  0.10249801  1
  Cs  Cs5  1  0.33333300  0.66666700  0.60249801  1
  Sr  Sr0  1  0.00000000  0.00000000  0.00000000  1
  Sr  Sr1  1  0.00000000  0.00000000  0.50000000  1
  Ir  Ir0  1  0.33333300  0.66666700  0.15606618  1
  Ir  Ir1  1  0.66666700  0.33333300  0.65606618  1
  Ir  Ir2  1  0.66666700  0.33333300  0.84393382  1
  Ir  Ir3  1  0.33333300  0.66666700  0.34393382  1
  O  O0  1  0.46470285  0.92940570  0.25000000  1
  O  O1  1  0.53529715  0.46470285  0.75000000  1
  O  O2  1  0.92940570  0.46470285  0.75000000  1
  O  O3  1  0.07059430  0.53529715  0.25000000  1
  O  O4  1  0.46470285  0.53529715  0.25000000  1
  O  O5  1  0.53529715  0.07059430  0.75000000  1
  O  O6  1  0.18858595  0.37717090  0.40780889  1
  O  O7  1  0.81141405  0.18858595  0.90780889  1
  O  O8  1  0.37717090  0.18858595  0.90780889  1
  O  O9  1  0.62282910  0.81141405  0.40780889  1
  O  O10  1  0.18858595  0.81141405  0.40780889  1
  O  O11  1  0.81141405  0.62282910  0.59219111  1
  O  O12  1  0.81141405  0.18858595  0.59219111  1
  O  O13  1  0.81141405  0.62282910  0.90780889  1
  O  O14  1  0.37717090  0.18858595  0.59219111  1
  O  O15  1  0.62282910  0.81141405  0.09219111  1
  O  O16  1  0.18858595  0.37717090  0.09219111  1
  O  O17  1  0.18858595  0.81141405  0.09219111  1
loop_
_geom_bond_atom_site_label_1
_geom_bond_atom_site_label_2
_geom_bond_distance
_geom_bond_site_symmetry_2
Cs0 O6 3.147528 1_555
Cs0 O16 3.147528 1_555
Cs0 O9 3.147529 1_445
Cs0 O15 3.147529 1_445
Cs0 O10 3.147532 1_545
Cs0 O17 3.147532 1_545
Cs0 O3 3.209694 1_555
Cs0 O3 3.209694 1_545
Cs0 O4 3.209694 1_555
Cs0 O4 3.209694 1_445
Cs0 O0 3.209695 1_545
Cs0 O0 3.209695 1_445
Cs1 O13 3.147528 1_445
Cs1 O11 3.147528 1_445
Cs1 O8 3.147529 1_555
Cs1 O14 3.147529 1_555
Cs1 O7 3.147532 1_455
Cs1 O12 3.147532 1_455
Cs1 O2 3.209694 1_445
Cs1 O2 3.209694 1_455
Cs1 O1 3.209694 1_445
Cs1 O1 3.209694 1_555
Cs1 O5 3.209695 1_455
Cs1 O5 3.209695 1_555
Cs2 O5 3.136700 1_565
Cs2 O2 3.136700 1_455
Cs2 O1 3.136704 1_555
Cs2 O8 3.198857 1_565
Cs2 O8 3.198857 1_555
Cs2 O7 3.198857 1_565
Cs2 O7 3.198857 1_455
Cs2 O13 3.198857 1_555
Cs2 O13 3.198857 1_455
Cs2 O17 3.322244 1_556
Cs2 O16 3.322249 1_556
Cs2 O15 3.322249 1_556
Cs3 O0 3.136700 1_545
Cs3 O3 3.136700 1_655
Cs3 O4 3.136704 1_555
Cs3 O9 3.198857 1_545
Cs3 O9 3.198857 1_555
Cs3 O10 3.198857 1_545
Cs3 O10 3.198857 1_655
Cs3 O6 3.198857 1_555
Cs3 O6 3.198857 1_655
Cs3 O12 3.322244 1_555
Cs3 O11 3.322249 1_555
Cs3 O14 3.322249 1_555
Cs4 O0 3.136700 1_545
Cs4 O3 3.136700 1_655
Cs4 O4 3.136704 1_555
Cs4 O15 3.198857 1_545
Cs4 O15 3.198857 1_555
Cs4 O17 3.198857 1_545
Cs4 O17 3.198857 1_655
Cs4 O16 3.198857 1_555
Cs4 O16 3.198857 1_655
Cs4 O7 3.322244 1_554
Cs4 O13 3.322249 1_554
Cs4 O8 3.322249 1_554
Cs5 O5 3.136700 1_565
Cs5 O2 3.136700 1_455
Cs5 O1 3.136704 1_555
Cs5 O14 3.198857 1_565
Cs5 O14 3.198857 1_555
Cs5 O12 3.198857 1_565
Cs5 O12 3.198857 1_455
Cs5 O11 3.198857 1_555
Cs5 O11 3.198857 1_455
Cs5 O10 3.322244 1_555
Cs5 O6 3.322249 1_555
Cs5 O9 3.322249 1_555
Ir0 O17 1.861554 1_555
Ir0 O16 1.861563 1_555
Ir0 O15 1.861564 1_555
Ir0 O0 2.019249 1_555
Ir0 O3 2.019249 1_555
Ir0 O4 2.019253 1_555
Ir1 O12 1.861554 1_555
Ir1 O11 1.861563 1_555
Ir1 O14 1.861564 1_555
Ir1 O5 2.019249 1_555
Ir1 O2 2.019249 1_555
Ir1 O1 2.019253 1_555
Ir2 O7 1.861554 1_555
Ir2 O13 1.861563 1_555
Ir2 O8 1.861564 1_555
Ir2 O5 2.019249 1_555
Ir2 O2 2.019249 1_555
Ir2 O1 2.019253 1_555
Ir3 O10 1.861554 1_555
Ir3 O6 1.861563 1_555
Ir3 O9 1.861564 1_555
Ir3 O0 2.019249 1_555
Ir3 O3 2.019249 1_555
Ir3 O4 2.019253 1_555
O6 Sr1 2.496913 1_555
O7 Sr0 2.496918 1_656
O8 Sr0 2.496914 1_556
O9 Sr1 2.496914 1_665
O10 Sr1 2.496918 1_565
O11 Sr1 2.496913 1_665
O12 Sr1 2.496918 1_655
O13 Sr0 2.496913 1_666
O14 Sr1 2.496914 1_555
O15 Sr0 2.496914 1_665
O16 Sr0 2.496913 1_555
O17 Sr0 2.496918 1_565
