# generated using pymatgen
data_K2Re3CS5N
_symmetry_space_group_name_H-M   'P 1'
_cell_length_a   9.25553883
_cell_length_b   10.24013709
_cell_length_c   11.37908298
_cell_angle_alpha   90.00000000
_cell_angle_beta   90.00000000
_cell_angle_gamma   90.00000000
_symmetry_Int_Tables_number   1
_chemical_formula_structural   K2Re3CS5N
_chemical_formula_sum   'K8 Re12 C4 S20 N4'
_cell_volume   1078.48657262
_cell_formula_units_Z   4
loop_
 _symmetry_equiv_pos_site_id
 _symmetry_equiv_pos_as_xyz
  1  'x, y, z'
loop_
 _atom_site_type_symbol
 _atom_site_label
 _atom_site_symmetry_multiplicity
 _atom_site_fract_x
 _atom_site_fract_y
 _atom_site_fract_z
 _atom_site_occupancy
  K  K0  1  0.04644891  0.75000000  0.25000000  1
  K  K1  1  0.04644891  0.75000000  0.75000000  1
  K  K2  1  0.22335741  0.07198608  -0.00000000  1
  K  K3  1  0.22335741  0.42801392  0.50000000  1
  K  K4  1  0.77664259  0.57198608  0.50000000  1
  K  K5  1  0.77664259  0.92801392  -0.00000000  1
  K  K6  1  0.95355109  0.25000000  0.25000000  1
  K  K7  1  0.95355109  0.25000000  0.75000000  1
  Re  Re0  1  0.33659535  0.60362430  -0.00000000  1
  Re  Re1  1  0.33659535  0.89637570  0.50000000  1
  Re  Re2  1  0.41856242  0.10632909  0.38547475  1
  Re  Re3  1  0.41856242  0.10632909  0.61452525  1
  Re  Re4  1  0.41856242  0.39367091  0.11452525  1
  Re  Re5  1  0.41856242  0.39367091  0.88547475  1
  Re  Re6  1  0.58143758  0.60632909  0.11452525  1
  Re  Re7  1  0.58143758  0.60632909  0.88547475  1
  Re  Re8  1  0.58143758  0.89367091  0.38547475  1
  Re  Re9  1  0.58143758  0.89367091  0.61452525  1
  Re  Re10  1  0.66340465  0.10362430  0.50000000  1
  Re  Re11  1  0.66340465  0.39637570  -0.00000000  1
  C  C0  1  0.16554532  0.76153979  0.50000000  1
  C  C1  1  0.16554532  0.73846021  -0.00000000  1
  C  C2  1  0.83445468  0.23846021  0.50000000  1
  C  C3  1  0.83445468  0.26153979  -0.00000000  1
  S  S0  1  0.19716946  0.09391305  0.50000000  1
  S  S1  1  0.19716946  0.40608695  -0.00000000  1
  S  S2  1  0.28817302  0.25000000  0.25000000  1
  S  S3  1  0.28817302  0.25000000  0.75000000  1
  S  S4  1  0.34998234  0.59248564  0.78724634  1
  S  S5  1  0.34998234  0.90751436  0.71275366  1
  S  S6  1  0.34998234  0.59248564  0.21275366  1
  S  S7  1  0.34998234  0.90751436  0.28724634  1
  S  S8  1  0.49163823  0.71059550  0.50000000  1
  S  S9  1  0.49163823  0.78940450  -0.00000000  1
  S  S10  1  0.50836177  0.21059550  -0.00000000  1
  S  S11  1  0.50836177  0.28940450  0.50000000  1
  S  S12  1  0.65001766  0.09248564  0.28724634  1
  S  S13  1  0.65001766  0.09248564  0.71275366  1
  S  S14  1  0.65001766  0.40751436  0.78724634  1
  S  S15  1  0.65001766  0.40751436  0.21275366  1
  S  S16  1  0.71182698  0.75000000  0.25000000  1
  S  S17  1  0.71182698  0.75000000  0.75000000  1
  S  S18  1  0.80283054  0.59391305  -0.00000000  1
  S  S19  1  0.80283054  0.90608695  0.50000000  1
  N  N0  1  0.07884566  0.82249158  -0.00000000  1
  N  N1  1  0.07884566  0.67750842  0.50000000  1
  N  N2  1  0.92115434  0.17750842  -0.00000000  1
  N  N3  1  0.92115434  0.32249158  0.50000000  1
loop_
_geom_bond_atom_site_label_1
_geom_bond_atom_site_label_2
_geom_bond_distance
_geom_bond_site_symmetry_2
K0 N1 2.955279 1_555
K0 N0 2.955279 1_555
K0 S16 3.097106 1_455
K0 S7 3.267083 1_555
K0 S6 3.267083 1_555
K1 N0 2.955279 1_556
K1 N1 2.955279 1_555
K1 S17 3.097106 1_455
K1 S4 3.267083 1_555
K1 S5 3.267083 1_555
K2 N0 2.883799 1_545
K2 S10 2.995495 1_555
K2 N2 2.998519 1_455
K2 S1 3.429814 1_555
K2 S2 3.431548 1_555
K2 S3 3.431548 1_554
K3 N1 2.883799 1_555
K3 S11 2.995495 1_555
K3 N3 2.998519 1_455
K3 S0 3.429814 1_555
K3 S2 3.431548 1_555
K3 S3 3.431548 1_555
K4 N3 2.883799 1_555
K4 S8 2.995495 1_555
K4 N1 2.998519 1_655
K4 S19 3.429814 1_555
K4 S16 3.431548 1_555
K4 S17 3.431548 1_555
K5 N2 2.883799 1_565
K5 S9 2.995495 1_555
K5 N0 2.998519 1_655
K5 S18 3.429814 1_555
K5 S16 3.431548 1_555
K5 S17 3.431548 1_554
K6 N2 2.955279 1_555
K6 N3 2.955279 1_555
K6 S2 3.097106 1_655
K6 S15 3.267083 1_555
K6 S12 3.267083 1_555
K7 N2 2.955279 1_556
K7 N3 2.955279 1_555
K7 S3 3.097106 1_655
K7 S14 3.267083 1_555
K7 S13 3.267083 1_555
Re0 S9 2.382944 1_555
Re0 S1 2.399385 1_555
Re0 S4 2.426792 1_554
Re0 S6 2.426792 1_555
Re1 S8 2.382944 1_555
Re1 S0 2.399385 1_565
Re1 S7 2.426792 1_555
Re1 S5 2.426792 1_555
Re2 S7 2.407720 1_545
Re2 S12 2.420468 1_555
Re2 S11 2.429747 1_555
Re2 S0 2.431734 1_555
Re2 S2 2.448948 1_555
Re3 S5 2.407720 1_545
Re3 S13 2.420468 1_555
Re3 S11 2.429747 1_555
Re3 S0 2.431734 1_555
Re3 S3 2.448948 1_555
Re4 S6 2.407720 1_555
Re4 S15 2.420468 1_555
Re4 S10 2.429747 1_555
Re4 S1 2.431734 1_555
Re4 S2 2.448948 1_555
Re5 S4 2.407720 1_555
Re5 S14 2.420468 1_555
Re5 S10 2.429747 1_556
Re5 S1 2.431734 1_556
Re5 S3 2.448948 1_555
Re6 S15 2.407720 1_555
Re6 S6 2.420468 1_555
Re6 S9 2.429747 1_555
Re6 S18 2.431734 1_555
Re6 S16 2.448948 1_555
Re7 S14 2.407720 1_555
Re7 S4 2.420468 1_555
Re7 S9 2.429747 1_556
Re7 S18 2.431734 1_556
Re7 S17 2.448948 1_555
Re8 S12 2.407720 1_565
Re8 S7 2.420468 1_555
Re8 S8 2.429747 1_555
Re8 S19 2.431734 1_555
Re8 S16 2.448948 1_555
Re9 S13 2.407720 1_565
Re9 S5 2.420468 1_555
Re9 S8 2.429747 1_555
Re9 S19 2.431734 1_555
Re9 S17 2.448948 1_555
Re10 S11 2.382944 1_555
Re10 S19 2.399385 1_545
Re10 S13 2.426792 1_555
Re10 S12 2.426792 1_555
Re11 S10 2.382944 1_555
Re11 S18 2.399385 1_555
Re11 S14 2.426792 1_554
Re11 S15 2.426792 1_555
C0 N1 1.176596 1_555
C0 Re1 2.100675 1_555
C0 K0 3.053155 1_555
C0 K1 3.053155 1_555
C1 N0 1.176596 1_555
C1 Re0 2.100675 1_555
C1 K0 3.053155 1_555
C1 K1 3.053155 1_554
C2 N3 1.176596 1_555
C2 Re10 2.100675 1_555
C2 K7 3.053155 1_555
C2 K6 3.053155 1_555
C3 N2 1.176596 1_555
C3 Re11 2.100675 1_555
C3 K7 3.053155 1_554
C3 K6 3.053155 1_555
