# generated using pymatgen
data_K4Zr6SiBr18
_symmetry_space_group_name_H-M   'P 1'
_cell_length_a   10.37041842
_cell_length_b   10.53851720
_cell_length_c   10.61656679
_cell_angle_alpha   118.52693694
_cell_angle_beta   100.53275544
_cell_angle_gamma   103.92920008
_symmetry_Int_Tables_number   1
_chemical_formula_structural   K4Zr6SiBr18
_chemical_formula_sum   'K4 Zr6 Si1 Br18'
_cell_volume   927.15332172
_cell_formula_units_Z   1
loop_
 _symmetry_equiv_pos_site_id
 _symmetry_equiv_pos_as_xyz
  1  'x, y, z'
loop_
 _atom_site_type_symbol
 _atom_site_label
 _atom_site_symmetry_multiplicity
 _atom_site_fract_x
 _atom_site_fract_y
 _atom_site_fract_z
 _atom_site_occupancy
  K  K0  1  0.65488599  0.53895305  0.22953659  1
  K  K1  1  0.34511401  0.46104695  0.77046341  1
  K  K2  1  0.69034531  0.22877784  0.56764071  1
  K  K3  1  0.30965469  0.77122216  0.43235929  1
  Zr  Zr0  1  0.16056590  0.05903885  0.24258303  1
  Zr  Zr1  1  0.83943410  0.94096115  0.75741697  1
  Zr  Zr2  1  0.85736472  0.13482926  0.14126210  1
  Zr  Zr3  1  0.14263528  0.86517074  0.85873790  1
  Zr  Zr4  1  0.15420191  0.25046533  0.04705349  1
  Zr  Zr5  1  0.84579809  0.74953467  0.95294651  1
  Si  Si0  1  0.00000000  0.00000000  0.00000000  1
  Br  Br0  1  0.01256169  0.42012971  0.20316240  1
  Br  Br1  1  0.98743831  0.57987029  0.79683760  1
  Br  Br2  1  0.33994683  0.34013749  0.31795073  1
  Br  Br3  1  0.66005317  0.65986251  0.68204927  1
  Br  Br4  1  0.33036216  0.52974846  0.10116825  1
  Br  Br5  1  0.66963784  0.47025154  0.89883175  1
  Br  Br6  1  0.00576096  0.79178809  0.21419130  1
  Br  Br7  1  0.99423904  0.20821191  0.78580870  1
  Br  Br8  1  0.70302957  0.28570176  0.29817370  1
  Br  Br9  1  0.29697043  0.71429824  0.70182630  1
  Br  Br10  1  0.32194960  0.12745629  0.89887678  1
  Br  Br11  1  0.67805040  0.87254371  0.10112322  1
  Br  Br12  1  0.02056561  0.21093268  0.41970697  1
  Br  Br13  1  0.97943439  0.78906732  0.58029303  1
  Br  Br14  1  0.32717424  0.91834550  0.11081997  1
  Br  Br15  1  0.67282576  0.08165450  0.88918003  1
  Br  Br16  1  0.34312911  0.12287703  0.51180845  1
  Br  Br17  1  0.65687089  0.87712297  0.48819155  1
loop_
_geom_bond_atom_site_label_1
_geom_bond_atom_site_label_2
_geom_bond_distance
_geom_bond_site_symmetry_2
Si0 Zr4 2.488027 1_555
Si0 Zr5 2.488027 1_444
Si0 Zr1 2.489051 1_444
Si0 Zr0 2.489051 1_555
Si0 Zr3 2.498732 1_544
Si0 Zr2 2.498732 1_455
Br0 Zr4 2.724954 1_555
Br0 Zr2 2.731018 1_455
Br0 K3 3.503548 1_555
Br1 Zr5 2.724954 1_555
Br1 Zr3 2.731018 1_655
Br1 K2 3.503548 1_555
Br2 Zr4 2.716095 1_555
Br2 Zr0 2.723063 1_555
Br3 Zr5 2.716095 1_555
Br3 Zr1 2.723063 1_555
Br4 Zr4 2.782556 1_555
Br4 K1 3.270491 1_554
Br4 K3 3.298156 1_555
Br4 K0 3.351522 1_555
Br5 Zr5 2.782556 1_555
Br5 K0 3.270491 1_556
Br5 K2 3.298156 1_555
Br5 K1 3.351522 1_555
Br6 Zr5 2.724933 1_454
Br6 Zr0 2.726865 1_565
Br6 K3 3.671973 1_555
Br7 Zr4 2.724933 1_656
Br7 Zr1 2.726865 1_545
Br7 K2 3.671973 1_555
Br8 Zr2 2.744968 1_555
Br8 K0 3.204579 1_555
Br8 K2 3.209397 1_555
Br9 Zr3 2.744968 1_555
Br9 K1 3.204579 1_555
Br9 K3 3.209397 1_555
Br10 Zr4 2.705524 1_556
Br10 Zr3 2.718534 1_545
Br11 Zr5 2.705524 1_554
Br11 Zr2 2.718534 1_565
Br12 Zr0 2.729156 1_555
Br12 Zr2 2.738468 1_455
Br12 K1 3.730166 1_555
Br13 Zr1 2.729156 1_555
Br13 Zr3 2.738468 1_655
Br13 K0 3.730166 1_555
Br14 Zr0 2.697491 1_565
Br14 Zr3 2.705093 1_554
Br15 Zr1 2.697491 1_545
Br15 Zr2 2.705093 1_556
Br16 Zr0 2.788970 1_555
Br16 K1 3.292188 1_555
Br16 K3 3.294502 1_545
Br16 K2 3.348968 1_555
Br17 Zr1 2.788970 1_555
Br17 K0 3.292188 1_555
Br17 K2 3.294502 1_565
Br17 K3 3.348968 1_555
