# generated using pymatgen
data_Ba3Al10PdO20
_symmetry_space_group_name_H-M   'P 1'
_cell_length_a   9.64594165
_cell_length_b   9.64594221
_cell_length_c   5.03496845
_cell_angle_alpha   75.71655101
_cell_angle_beta   75.71655577
_cell_angle_gamma   71.91544238
_symmetry_Int_Tables_number   1
_chemical_formula_structural   Ba3Al10PdO20
_chemical_formula_sum   'Ba3 Al10 Pd1 O20'
_cell_volume   424.14144376
_cell_formula_units_Z   1
loop_
 _symmetry_equiv_pos_site_id
 _symmetry_equiv_pos_as_xyz
  1  'x, y, z'
loop_
 _atom_site_type_symbol
 _atom_site_label
 _atom_site_symmetry_multiplicity
 _atom_site_fract_x
 _atom_site_fract_y
 _atom_site_fract_z
 _atom_site_occupancy
  Ba  Ba0  1  0.00000000  0.00000000  0.00000000  1
  Ba  Ba1  1  0.27693952  0.27693952  0.74672863  1
  Ba  Ba2  1  0.72306048  0.72306048  0.25327137  1
  Al  Al0  1  0.84797780  0.42302342  0.83529699  1
  Al  Al1  1  0.57697658  0.15202220  0.16470301  1
  Al  Al2  1  0.15202220  0.57697658  0.16470301  1
  Al  Al3  1  0.42302342  0.84797780  0.83529699  1
  Al  Al4  1  0.36525563  0.63474437  0.50000000  1
  Al  Al5  1  0.63474437  0.36525563  0.50000000  1
  Al  Al6  1  0.99331525  0.71253842  0.66066052  1
  Al  Al7  1  0.28746158  0.00668475  0.33933948  1
  Al  Al8  1  0.00668475  0.28746158  0.33933948  1
  Al  Al9  1  0.71253842  0.99331525  0.66066052  1
  Pd  Pd0  1  0.50000000  0.50000000  0.00000000  1
  O  O0  1  0.55491386  0.30497180  0.88117519  1
  O  O1  1  0.69502820  0.44508614  0.11882481  1
  O  O2  1  0.44508614  0.69502820  0.11882481  1
  O  O3  1  0.30497180  0.55491386  0.88117519  1
  O  O4  1  0.70944390  0.01462570  0.99869165  1
  O  O5  1  0.98537430  0.29055610  0.00130835  1
  O  O6  1  0.29055610  0.98537430  0.00130835  1
  O  O7  1  0.01462570  0.70944390  0.99869165  1
  O  O8  1  0.43639703  0.43639703  0.40290648  1
  O  O9  1  0.56360297  0.56360297  0.59709352  1
  O  O10  1  0.89291296  0.89291296  0.53548523  1
  O  O11  1  0.10708704  0.10708704  0.46451477  1
  O  O12  1  0.88261710  0.59463844  0.69276262  1
  O  O13  1  0.40536156  0.11738290  0.30723738  1
  O  O14  1  0.11738290  0.40536156  0.30723738  1
  O  O15  1  0.59463844  0.88261710  0.69276262  1
  O  O16  1  0.16991081  0.65888808  0.43464694  1
  O  O17  1  0.34111192  0.83008919  0.56535306  1
  O  O18  1  0.83008919  0.34111192  0.56535306  1
  O  O19  1  0.65888808  0.16991081  0.43464694  1
loop_
_geom_bond_atom_site_label_1
_geom_bond_atom_site_label_2
_geom_bond_distance
_geom_bond_site_symmetry_2
Ba0 O11 2.705033 1_554
Ba0 O10 2.705033 1_445
Ba0 O6 2.763725 1_545
Ba0 O4 2.763725 1_454
Ba0 O5 2.763725 1_455
Ba0 O7 2.763725 1_544
Ba1 O8 2.563100 1_555
Ba1 O5 2.764939 1_456
Ba1 O6 2.764939 1_546
Ba1 O14 2.818531 1_555
Ba1 O13 2.818531 1_555
Ba2 O9 2.563100 1_555
Ba2 O7 2.764939 1_654
Ba2 O4 2.764939 1_564
Ba2 O12 2.818531 1_555
Ba2 O15 2.818531 1_555
Al0 O12 1.733739 1_555
Al0 O5 1.748165 1_556
Al0 O1 1.782013 1_556
Al0 O18 1.797674 1_555
Al1 O13 1.733739 1_555
Al1 O4 1.748165 1_554
Al1 O0 1.782013 1_554
Al1 O19 1.797674 1_555
Al2 O14 1.733739 1_555
Al2 O7 1.748165 1_554
Al2 O3 1.782013 1_554
Al2 O16 1.797674 1_555
Al3 O15 1.733739 1_555
Al3 O6 1.748165 1_556
Al3 O2 1.782013 1_556
Al3 O17 1.797674 1_555
Al4 O3 1.900665 1_555
Al4 O2 1.900665 1_555
Al4 O16 1.925806 1_555
Al4 O17 1.925806 1_555
Al4 O9 1.962468 1_555
Al4 O8 1.962468 1_555
Al5 O1 1.900665 1_555
Al5 O0 1.900665 1_555
Al5 O18 1.925806 1_555
Al5 O19 1.925806 1_555
Al5 O8 1.962468 1_555
Al5 O9 1.962468 1_555
Al6 O12 1.742900 1_555
Al6 O10 1.753943 1_555
Al6 O7 1.756025 1_655
Al6 O16 1.803124 1_655
Al7 O13 1.742900 1_555
Al7 O11 1.753943 1_555
Al7 O6 1.756025 1_545
Al7 O17 1.803124 1_545
Al8 O14 1.742900 1_555
Al8 O11 1.753943 1_555
Al8 O5 1.756025 1_455
Al8 O18 1.803124 1_455
Al9 O15 1.742900 1_555
Al9 O10 1.753943 1_555
Al9 O4 1.756025 1_565
Al9 O19 1.803124 1_565
O0 Pd0 1.989443 1_556
O1 Pd0 1.989442 1_555
O2 Pd0 1.989443 1_555
O3 Pd0 1.989442 1_556
O8 Pd0 1.968128 1_555
O9 Pd0 1.968128 1_556
