# generated using pymatgen
data_YCd(CuPt)2
_symmetry_space_group_name_H-M   'P 1'
_cell_length_a   5.18776669
_cell_length_b   5.49794638
_cell_length_c   5.18776745
_cell_angle_alpha   58.00161997
_cell_angle_beta   58.06943460
_cell_angle_gamma   58.00162533
_symmetry_Int_Tables_number   1
_chemical_formula_structural   YCd(CuPt)2
_chemical_formula_sum   'Y1 Cd1 Cu2 Pt2'
_cell_volume   99.88623046
_cell_formula_units_Z   1
loop_
 _symmetry_equiv_pos_site_id
 _symmetry_equiv_pos_as_xyz
  1  'x, y, z'
loop_
 _atom_site_type_symbol
 _atom_site_label
 _atom_site_symmetry_multiplicity
 _atom_site_fract_x
 _atom_site_fract_y
 _atom_site_fract_z
 _atom_site_occupancy
  Y  Y0  1  0.74644648  0.75355352  0.74644648  1
  Cd  Cd0  1  0.99146695  0.00853305  0.99146695  1
  Cu  Cu0  1  0.87867059  0.37130151  0.37872539  1
  Cu  Cu1  1  0.37872539  0.37130151  0.87867059  1
  Pt  Pt0  1  0.37734629  0.87351094  0.37734629  1
  Pt  Pt1  1  0.37734629  0.37179547  0.37734629  1
loop_
_geom_bond_atom_site_label_1
_geom_bond_atom_site_label_2
_geom_bond_distance
_geom_bond_site_symmetry_2
Cd0 Cu1 2.904571 1_555
Cd0 Cu0 2.904571 1_555
Cd0 Pt1 2.982249 1_655
Cd0 Pt1 2.982250 1_556
Cd0 Pt0 2.982252 1_546
Cd0 Pt0 2.982252 1_645
Cd0 Pt0 3.107255 1_646
Cd0 Pt1 3.107258 1_646
Cd0 Y0 3.118419 1_645
Cd0 Y0 3.118419 1_546
Cd0 Cu1 3.181601 1_655
Cd0 Cu0 3.181601 1_556
Cd0 Cu0 3.181606 1_546
Cd0 Cu1 3.181606 1_645
Cd0 Y0 3.268435 1_545
Cd0 Y0 3.268435 1_555
Cu0 Cu1 2.517552 1_555
Cu0 Cu1 2.518104 1_654
Cu0 Pt1 2.584675 1_655
Cu0 Pt0 2.584675 1_645
Cu0 Pt1 2.603105 1_555
Cu0 Pt0 2.603105 1_555
Cu0 Y0 3.031991 1_554
Cu0 Y0 3.140580 1_545
Cu0 Y0 3.140585 1_555
Cu1 Pt0 2.584675 1_546
Cu1 Pt1 2.584675 1_556
Cu1 Pt0 2.603105 1_555
Cu1 Pt1 2.603105 1_555
Cu1 Y0 3.031990 1_455
Cu1 Y0 3.140580 1_545
Cu1 Y0 3.140584 1_555
Pt0 Pt1 2.739542 1_565
Pt0 Pt1 2.758405 1_555
Pt0 Y0 2.994921 1_555
Pt0 Y0 3.022217 1_455
Pt0 Y0 3.022217 1_554
Pt1 Y0 2.994918 1_545
Pt1 Y0 3.022220 1_554
Pt1 Y0 3.022220 1_455
