# generated using pymatgen
data_Ca7HfAs6
_symmetry_space_group_name_H-M   'P 1'
_cell_length_a   7.51867751
_cell_length_b   7.66979465
_cell_length_c   7.66979474
_cell_angle_alpha   109.86690031
_cell_angle_beta   109.07258931
_cell_angle_gamma   109.07257982
_symmetry_Int_Tables_number   1
_chemical_formula_structural   Ca7HfAs6
_chemical_formula_sum   'Ca7 Hf1 As6'
_cell_volume   342.13698196
_cell_formula_units_Z   1
loop_
 _symmetry_equiv_pos_site_id
 _symmetry_equiv_pos_as_xyz
  1  'x, y, z'
loop_
 _atom_site_type_symbol
 _atom_site_label
 _atom_site_symmetry_multiplicity
 _atom_site_fract_x
 _atom_site_fract_y
 _atom_site_fract_z
 _atom_site_occupancy
  Ca  Ca0  1  0.50244986  0.00330209  0.64255009  1
  Ca  Ca1  1  0.36965719  0.36666939  0.36764972  1
  Ca  Ca2  1  0.00200747  0.13235028  0.49901967  1
  Ca  Ca3  1  0.85989977  0.85744991  0.86075200  1
  Ca  Ca4  1  0.99914777  0.63924800  0.49669791  1
  Ca  Ca5  1  0.63143275  0.50000000  1.00000000  1
  Ca  Ca6  1  0.50298680  0.00098033  0.13333061  1
  Hf  Hf0  1  0.12418187  0.50000000  1.00000000  1
  As  As0  1  0.89352909  0.26482995  0.11802776  1
  As  As1  1  0.12869914  0.85319781  0.23517005  1
  As  As2  1  0.36271076  0.61936922  0.75825611  1
  As  As3  1  0.24334154  0.13888688  0.88063078  1
  As  As4  1  0.77550133  0.38197224  0.64680219  1
  As  As5  1  0.60445465  0.74174389  0.36111312  1
loop_
_geom_bond_atom_site_label_1
_geom_bond_atom_site_label_2
_geom_bond_distance
_geom_bond_site_symmetry_2
As0 Hf0 2.678020 1_654
As0 Ca4 2.940419 1_555
As0 Ca3 2.947442 1_544
As0 Ca6 3.038828 1_555
As0 Ca1 3.125376 1_655
As0 Ca0 3.183465 1_554
As0 Ca5 3.197346 1_554
As0 Ca2 3.352400 1_655
As1 Hf0 2.678020 1_554
As1 Ca3 2.940419 1_454
As1 Ca0 2.947442 1_565
As1 Ca2 3.038822 1_565
As1 Ca6 3.125370 1_565
As1 Ca4 3.183466 1_455
As1 Ca5 3.197346 1_454
As1 Ca1 3.352400 1_565
As2 Ca6 2.869077 1_566
As2 Ca5 2.876209 1_555
As2 Ca4 2.901078 1_455
As2 Ca1 2.992714 1_555
As2 Hf0 3.121889 1_555
As2 Ca2 3.173120 1_555
As2 Ca3 3.251047 1_555
As2 Ca0 3.305476 1_565
As3 Ca2 2.869075 1_555
As3 Ca5 2.876209 1_555
As3 Ca3 2.901079 1_445
As3 Ca6 2.992709 1_556
As3 Hf0 3.121889 1_555
As3 Ca1 3.173119 1_556
As3 Ca0 3.251047 1_555
As3 Ca4 3.305476 1_445
As4 Hf0 2.678020 1_655
As4 Ca0 2.940420 1_555
As4 Ca4 2.947442 1_555
As4 Ca1 3.038822 1_555
As4 Ca2 3.125376 1_655
As4 Ca3 3.183466 1_555
As4 Ca5 3.197346 1_555
As4 Ca6 3.352400 1_555
As5 Ca1 2.869075 1_555
As5 Ca5 2.876209 1_554
As5 Ca0 2.901079 1_565
As5 Ca2 2.992714 1_665
As5 Hf0 3.121889 1_554
As5 Ca6 3.173121 1_565
As5 Ca4 3.251047 1_555
As5 Ca3 3.305476 1_555
