# generated using pymatgen
data_Ba2FeReO6
_symmetry_space_group_name_H-M   'P 1'
_cell_length_a   5.77013621
_cell_length_b   5.77117686
_cell_length_c   5.77111788
_cell_angle_alpha   89.93132291
_cell_angle_beta   120.04188614
_cell_angle_gamma   120.04191289
_symmetry_Int_Tables_number   1
_chemical_formula_structural   Ba2FeReO6
_chemical_formula_sum   'Ba2 Fe1 Re1 O6'
_cell_volume   135.80169804
_cell_formula_units_Z   1
loop_
 _symmetry_equiv_pos_site_id
 _symmetry_equiv_pos_as_xyz
  1  'x, y, z'
loop_
 _atom_site_type_symbol
 _atom_site_label
 _atom_site_symmetry_multiplicity
 _atom_site_fract_x
 _atom_site_fract_y
 _atom_site_fract_z
 _atom_site_occupancy
  Ba  Ba0  1  0.49999800  0.24999000  0.75000600  1
  Ba  Ba1  1  0.50000200  0.75000900  0.24999300  1
  Fe  Fe0  1  0.00000100  0.00000100  0.99999900  1
  Re  Re0  1  0.00000000  0.50000200  0.50000200  1
  O  O0  1  0.00000300  0.74314100  0.74313900  1
  O  O1  1  0.99999700  0.25685900  0.25686000  1
  O  O2  1  0.48499900  0.74250200  0.74250200  1
  O  O3  1  0.00000000  0.74262200  0.25737900  1
  O  O4  1  0.51500100  0.25749700  0.25749800  1
  O  O5  1  0.99999900  0.25737700  0.74262100  1
loop_
_geom_bond_atom_site_label_1
_geom_bond_atom_site_label_2
_geom_bond_distance
_geom_bond_site_symmetry_2
Ba0 O0 2.883983 1_545
Ba0 O1 2.883989 1_556
Ba0 O1 2.884073 1_455
Ba0 O0 2.884106 1_655
Ba0 O5 2.885697 1_555
Ba0 O5 2.885697 1_455
Ba0 O3 2.885991 1_545
Ba0 O3 2.886019 1_656
Ba0 O4 2.886157 1_556
Ba0 O2 2.886175 1_545
Ba0 O4 2.886258 1_555
Ba0 O2 2.886298 1_555
Ba1 O1 2.883986 1_565
Ba1 O0 2.883992 1_554
Ba1 O0 2.884070 1_655
Ba1 O1 2.884103 1_455
Ba1 O3 2.885689 1_655
Ba1 O3 2.885706 1_555
Ba1 O5 2.885994 1_565
Ba1 O5 2.886016 1_454
Ba1 O2 2.886151 1_554
Ba1 O4 2.886175 1_565
Ba1 O2 2.886263 1_555
Ba1 O4 2.886298 1_555
Fe0 O0 2.097662 1_545
Fe0 O1 2.097666 1_456
Fe0 O5 2.099358 1_455
Fe0 O3 2.099378 1_546
Fe0 O4 2.099851 1_556
Fe0 O2 2.099859 1_445
O0 Re0 1.985580 1_555
O1 Re0 1.985617 1_655
O2 Re0 1.977525 1_555
O3 Re0 1.979001 1_555
O4 Re0 1.977525 1_655
O5 Re0 1.979005 1_655
