# generated using pymatgen
data_Si(CN2)2
_symmetry_space_group_name_H-M   'P 1'
_cell_length_a   6.68437800
_cell_length_b   6.68437800
_cell_length_c   6.68437800
_cell_angle_alpha   90.00000000
_cell_angle_beta   90.00000000
_cell_angle_gamma   90.00000000
_symmetry_Int_Tables_number   1
_chemical_formula_structural   Si(CN2)2
_chemical_formula_sum   'Si2 C4 N8'
_cell_volume   298.66408679
_cell_formula_units_Z   2
loop_
 _symmetry_equiv_pos_site_id
 _symmetry_equiv_pos_as_xyz
  1  'x, y, z'
loop_
 _atom_site_type_symbol
 _atom_site_label
 _atom_site_symmetry_multiplicity
 _atom_site_fract_x
 _atom_site_fract_y
 _atom_site_fract_z
 _atom_site_occupancy
  Si  Si0  1  0.50000000  0.50000000  0.50000000  1
  Si  Si1  1  0.00000000  0.00000000  0.00000000  1
  C  C0  1  0.75000000  0.25000000  0.25000000  1
  C  C1  1  0.25000000  0.25000000  0.75000000  1
  C  C2  1  0.75000000  0.75000000  0.75000000  1
  C  C3  1  0.25000000  0.75000000  0.25000000  1
  N  N0  1  0.14554100  0.85445900  0.14554100  1
  N  N1  1  0.64554100  0.64554100  0.64554100  1
  N  N2  1  0.85445900  0.85445900  0.85445900  1
  N  N3  1  0.35445900  0.64554100  0.35445900  1
  N  N4  1  0.35445900  0.35445900  0.64554100  1
  N  N5  1  0.64554100  0.35445900  0.35445900  1
  N  N6  1  0.14554100  0.14554100  0.85445900  1
  N  N7  1  0.85445900  0.14554100  0.14554100  1
loop_
_geom_bond_atom_site_label_1
_geom_bond_atom_site_label_2
_geom_bond_distance
_geom_bond_site_symmetry_2
C0 N5 1.209393 1_555
C0 N7 1.209393 1_555
C1 N4 1.209393 1_555
C1 N6 1.209393 1_555
C2 N2 1.209393 1_555
C2 N1 1.209393 1_555
C3 N3 1.209393 1_555
C3 N0 1.209393 1_555
N0 Si1 1.685027 1_565
N1 Si0 1.685027 1_555
N2 Si1 1.685027 1_666
N3 Si0 1.685027 1_555
N4 Si0 1.685027 1_555
N5 Si0 1.685027 1_555
N6 Si1 1.685027 1_556
N7 Si1 1.685027 1_655
