# generated using pymatgen
data_Zr4TiBeBi3
_symmetry_space_group_name_H-M   'P 1'
_cell_length_a   8.66932182
_cell_length_b   8.66932110
_cell_length_c   5.79520128
_cell_angle_alpha   90.00000000
_cell_angle_beta   90.00000000
_cell_angle_gamma   119.99999515
_symmetry_Int_Tables_number   1
_chemical_formula_structural   Zr4TiBeBi3
_chemical_formula_sum   'Zr8 Ti2 Be2 Bi6'
_cell_volume   377.19800868
_cell_formula_units_Z   2
loop_
 _symmetry_equiv_pos_site_id
 _symmetry_equiv_pos_as_xyz
  1  'x, y, z'
loop_
 _atom_site_type_symbol
 _atom_site_label
 _atom_site_symmetry_multiplicity
 _atom_site_fract_x
 _atom_site_fract_y
 _atom_site_fract_z
 _atom_site_occupancy
  Zr  Zr0  1  0.75263375  0.00000000  0.24611228  1
  Zr  Zr1  1  0.00000000  0.75263375  0.24611228  1
  Zr  Zr2  1  0.24736625  0.24736625  0.24611228  1
  Zr  Zr3  1  0.24736625  1.00000000  0.75388772  1
  Zr  Zr4  1  1.00000000  0.24736625  0.75388772  1
  Zr  Zr5  1  0.75263375  0.75263375  0.75388772  1
  Zr  Zr6  1  0.66666700  0.33333300  0.00000000  1
  Zr  Zr7  1  0.33333300  0.66666700  0.00000000  1
  Ti  Ti0  1  0.33333300  0.66666700  0.50000000  1
  Ti  Ti1  1  0.66666700  0.33333300  0.50000000  1
  Be  Be0  1  0.00000000  0.00000000  0.50000000  1
  Be  Be1  1  0.00000000  0.00000000  0.00000000  1
  Bi  Bi0  1  0.39336375  0.00000000  0.25751125  1
  Bi  Bi1  1  0.00000000  0.39336375  0.25751125  1
  Bi  Bi2  1  0.60663625  0.60663625  0.25751125  1
  Bi  Bi3  1  0.60663625  1.00000000  0.74248875  1
  Bi  Bi4  1  1.00000000  0.60663625  0.74248875  1
  Bi  Bi5  1  0.39336375  0.39336375  0.74248875  1
loop_
_geom_bond_atom_site_label_1
_geom_bond_atom_site_label_2
_geom_bond_distance
_geom_bond_site_symmetry_2
Ti0 Zr7 2.897601 1_556
Ti0 Zr7 2.897601 1_555
Ti1 Zr6 2.897601 1_555
Ti1 Zr6 2.897601 1_556
Be0 Zr4 2.600708 1_455
Be0 Zr1 2.600708 1_545
Be0 Zr3 2.600708 1_545
Be0 Zr0 2.600708 1_455
Be0 Zr2 2.600708 1_555
Be0 Zr5 2.600708 1_445
Be1 Zr4 2.575484 1_454
Be1 Zr1 2.575484 1_545
Be1 Zr3 2.575484 1_544
Be1 Zr0 2.575484 1_455
Be1 Zr2 2.575484 1_555
Be1 Zr5 2.575484 1_444
Bi0 Zr2 2.986556 1_555
Bi0 Zr1 2.986556 1_545
Bi0 Ti0 3.015376 1_545
Bi0 Ti1 3.015379 1_555
Bi0 Zr7 3.056919 1_545
Bi0 Zr6 3.056922 1_555
Bi0 Zr0 3.115328 1_555
Bi0 Zr3 3.142743 1_545
Bi0 Zr3 3.181229 1_544
Bi0 Bi3 3.364176 1_545
Bi0 Bi3 3.510943 1_544
Bi1 Zr2 2.986556 1_555
Bi1 Zr0 2.986556 1_455
Bi1 Ti1 3.015376 1_455
Bi1 Ti0 3.015379 1_555
Bi1 Zr6 3.056919 1_455
Bi1 Zr7 3.056922 1_555
Bi1 Zr1 3.115327 1_555
Bi1 Zr4 3.142743 1_455
Bi1 Zr4 3.181229 1_454
Bi1 Bi4 3.364176 1_455
Bi1 Bi4 3.510943 1_454
Bi2 Zr0 2.986556 1_565
Bi2 Zr1 2.986556 1_655
Bi2 Ti1 3.015384 1_555
Bi2 Ti0 3.015384 1_555
Bi2 Zr6 3.056927 1_555
Bi2 Zr7 3.056927 1_555
Bi2 Zr2 3.115328 1_555
Bi2 Zr5 3.142743 1_555
Bi2 Zr5 3.181229 1_554
Bi2 Bi5 3.364176 1_555
Bi2 Bi5 3.510944 1_554
Bi3 Zr5 2.986556 1_555
Bi3 Zr4 2.986556 1_565
Bi3 Ti1 3.015376 1_565
Bi3 Ti0 3.015379 1_555
Bi3 Zr6 3.056919 1_566
Bi3 Zr7 3.056922 1_556
Bi3 Zr3 3.115328 1_555
Bi3 Zr0 3.142743 1_565
Bi3 Zr0 3.181229 1_566
Bi4 Zr5 2.986556 1_555
Bi4 Zr3 2.986556 1_655
Bi4 Ti0 3.015376 1_655
Bi4 Ti1 3.015379 1_555
Bi4 Zr7 3.056919 1_656
Bi4 Zr6 3.056922 1_556
Bi4 Zr4 3.115327 1_555
Bi4 Zr1 3.142743 1_655
Bi4 Zr1 3.181229 1_656
Bi5 Zr3 2.986556 1_545
Bi5 Zr4 2.986556 1_455
Bi5 Ti0 3.015384 1_555
Bi5 Ti1 3.015384 1_555
Bi5 Zr7 3.056927 1_556
Bi5 Zr6 3.056927 1_556
Bi5 Zr5 3.115328 1_555
Bi5 Zr2 3.142743 1_555
Bi5 Zr2 3.181229 1_556
