# generated using pymatgen
data_Nb3Fe(AsO4)6
_symmetry_space_group_name_H-M   'P 1'
_cell_length_a   9.27496623
_cell_length_b   9.27490087
_cell_length_c   9.27486312
_cell_angle_alpha   56.86844628
_cell_angle_beta   56.86815625
_cell_angle_gamma   56.86751314
_symmetry_Int_Tables_number   1
_chemical_formula_structural   Nb3Fe(AsO4)6
_chemical_formula_sum   'Nb3 Fe1 As6 O24'
_cell_volume   523.40651587
_cell_formula_units_Z   1
loop_
 _symmetry_equiv_pos_site_id
 _symmetry_equiv_pos_as_xyz
  1  'x, y, z'
loop_
 _atom_site_type_symbol
 _atom_site_label
 _atom_site_symmetry_multiplicity
 _atom_site_fract_x
 _atom_site_fract_y
 _atom_site_fract_z
 _atom_site_occupancy
  Nb  Nb0  1  0.14353238  0.14353373  0.14354025  1
  Nb  Nb1  1  0.35926334  0.35926994  0.35926254  1
  Nb  Nb2  1  0.63851529  0.63850965  0.63851155  1
  Fe  Fe0  1  0.85595225  0.85594774  0.85593001  1
  As  As0  1  0.02978641  0.48484526  0.74484262  1
  As  As1  1  0.48485767  0.74483447  0.02978938  1
  As  As2  1  0.74483789  0.02977581  0.48484486  1
  As  As3  1  0.24063740  0.96832952  0.53431707  1
  As  As4  1  0.53430020  0.24064236  0.96832962  1
  As  As5  1  0.96833871  0.53430566  0.24063213  1
  O  O0  1  0.12782071  0.49570873  0.30702133  1
  O  O1  1  0.30702422  0.12782765  0.49569526  1
  O  O2  1  0.02611559  0.31649841  0.95613527  1
  O  O3  1  0.49568908  0.30703070  0.12781606  1
  O  O4  1  0.23434401  0.39556588  0.59609335  1
  O  O5  1  0.01637036  0.68642962  0.71087352  1
  O  O6  1  0.31652657  0.95611752  0.02611689  1
  O  O7  1  0.39556657  0.59609391  0.23435153  1
  O  O8  1  0.59608785  0.23435565  0.39555562  1
  O  O9  1  0.27192792  0.98813664  0.32665855  1
  O  O10  1  0.02904444  0.99165116  0.68780682  1
  O  O11  1  0.32663520  0.27194606  0.98814264  1
  O  O12  1  0.68645301  0.71086123  0.01637200  1
  O  O13  1  0.95613308  0.02611234  0.31649591  1
  O  O14  1  0.71086601  0.01636570  0.68642315  1
  O  O15  1  0.40204579  0.76293892  0.60281223  1
  O  O16  1  0.60279135  0.40206012  0.76293117  1
  O  O17  1  0.68780513  0.02903373  0.99164802  1
  O  O18  1  0.98813804  0.32665181  0.27193859  1
  O  O19  1  0.76293910  0.60279274  0.40205465  1
  O  O20  1  0.49825275  0.70622725  0.86354247  1
  O  O21  1  0.99164878  0.68780541  0.02904564  1
  O  O22  1  0.70621608  0.86353942  0.49824256  1
  O  O23  1  0.86353282  0.49825125  0.70622276  1
loop_
_geom_bond_atom_site_label_1
_geom_bond_atom_site_label_2
_geom_bond_distance
_geom_bond_site_symmetry_2
Nb0 O2 1.972832 1_554
Nb0 O13 1.972840 1_455
Nb0 O6 1.972936 1_545
Nb0 O9 2.009688 1_545
Nb0 O18 2.009688 1_455
Nb0 O11 2.009705 1_554
Nb1 O8 1.969876 1_555
Nb1 O4 1.969920 1_555
Nb1 O7 1.969927 1_555
Nb1 O0 1.985284 1_555
Nb1 O1 1.985289 1_555
Nb1 O3 1.985303 1_555
Nb2 O16 1.964907 1_555
Nb2 O19 1.964911 1_555
Nb2 O15 1.964948 1_555
Nb2 O23 2.003546 1_555
Nb2 O22 2.003598 1_555
Nb2 O20 2.003665 1_555
Fe0 O10 1.979898 1_655
Fe0 O17 1.979902 1_565
Fe0 O21 1.979989 1_556
Fe0 O5 2.015607 1_655
Fe0 O12 2.015700 1_556
Fe0 O14 2.015737 1_565
As0 O5 1.659834 1_555
As0 O4 1.690791 1_555
As0 O23 1.693226 1_455
As0 O2 1.708778 1_555
As1 O12 1.659923 1_555
As1 O7 1.690825 1_555
As1 O20 1.693124 1_554
As1 O6 1.708660 1_555
As2 O14 1.659785 1_555
As2 O8 1.690909 1_555
As2 O22 1.693119 1_545
As2 O13 1.708810 1_555
As3 O10 1.656326 1_555
As3 O1 1.694467 1_565
As3 O15 1.694967 1_555
As3 O9 1.699398 1_555
As4 O17 1.656444 1_555
As4 O3 1.694399 1_556
As4 O16 1.695049 1_555
As4 O11 1.699405 1_555
As5 O21 1.656318 1_555
As5 O0 1.694443 1_655
As5 O19 1.695050 1_555
As5 O18 1.699335 1_555
