# generated using pymatgen
data_AlHgI4
_symmetry_space_group_name_H-M   'P 1'
_cell_length_a   7.44238064
_cell_length_b   7.58606401
_cell_length_c   10.67761314
_cell_angle_alpha   82.91294533
_cell_angle_beta   75.85517154
_cell_angle_gamma   60.46561921
_symmetry_Int_Tables_number   1
_chemical_formula_structural   AlHgI4
_chemical_formula_sum   'Al2 Hg2 I8'
_cell_volume   508.60208927
_cell_formula_units_Z   2
loop_
 _symmetry_equiv_pos_site_id
 _symmetry_equiv_pos_as_xyz
  1  'x, y, z'
loop_
 _atom_site_type_symbol
 _atom_site_label
 _atom_site_symmetry_multiplicity
 _atom_site_fract_x
 _atom_site_fract_y
 _atom_site_fract_z
 _atom_site_occupancy
  Al  Al0  1  0.38711451  0.84773207  0.77092434  1
  Al  Al1  1  0.61288549  0.15226793  0.22907566  1
  Hg  Hg0  1  0.96047247  0.50449904  0.88579073  1
  Hg  Hg1  1  0.03952753  0.49550096  0.11420927  1
  I  I0  1  0.76257011  0.54205889  0.68145203  1
  I  I1  1  0.23742989  0.45794111  0.31854797  1
  I  I2  1  0.32480286  0.82736714  0.01285115  1
  I  I3  1  0.67519714  0.17263286  0.98714885  1
  I  I4  1  0.13295568  0.80335886  0.67484239  1
  I  I5  1  0.86704432  0.19664114  0.32515761  1
  I  I6  1  0.39441373  0.17376883  0.68899200  1
  I  I7  1  0.60558627  0.82623117  0.31100800  1
loop_
_geom_bond_atom_site_label_1
_geom_bond_atom_site_label_2
_geom_bond_distance
_geom_bond_site_symmetry_2
Al0 I2 2.509685 1_556
Al0 I4 2.530850 1_555
Al0 I6 2.541851 1_565
Al0 I0 2.636589 1_555
Al1 I3 2.509685 1_554
Al1 I5 2.530850 1_555
Al1 I7 2.541851 1_545
Al1 I1 2.636589 1_555
Hg0 Hg1 2.630597 1_656
Hg0 I0 2.830982 1_555
Hg0 I6 3.337078 1_655
Hg0 I4 3.472369 1_655
Hg1 I1 2.830982 1_555
Hg1 I7 3.337078 1_455
Hg1 I5 3.472369 1_455
