# generated using pymatgen
data_CsSeO3F
_symmetry_space_group_name_H-M   'P 1'
_cell_length_a   6.82622428
_cell_length_b   7.85912995
_cell_length_c   9.02749123
_cell_angle_alpha   90.00000000
_cell_angle_beta   90.00000000
_cell_angle_gamma   90.00000000
_symmetry_Int_Tables_number   1
_chemical_formula_structural   CsSeO3F
_chemical_formula_sum   'Cs4 Se4 O12 F4'
_cell_volume   484.30850813
_cell_formula_units_Z   4
loop_
 _symmetry_equiv_pos_site_id
 _symmetry_equiv_pos_as_xyz
  1  'x, y, z'
loop_
 _atom_site_type_symbol
 _atom_site_label
 _atom_site_symmetry_multiplicity
 _atom_site_fract_x
 _atom_site_fract_y
 _atom_site_fract_z
 _atom_site_occupancy
  Cs  Cs0  1  0.25000000  0.31576072  0.67315995  1
  Cs  Cs1  1  0.25000000  0.18423928  0.17315995  1
  Cs  Cs2  1  0.75000000  0.68423928  0.32684005  1
  Cs  Cs3  1  0.75000000  0.81576072  0.82684005  1
  Se  Se0  1  0.25000000  0.79385465  0.56904905  1
  Se  Se1  1  0.25000000  0.70614535  0.06904905  1
  Se  Se2  1  0.75000000  0.20614535  0.43095095  1
  Se  Se3  1  0.75000000  0.29385465  0.93095095  1
  O  O0  1  0.05030754  0.68387354  0.58605134  1
  O  O1  1  0.44969246  0.81612646  0.08605134  1
  O  O2  1  0.55030754  0.31612646  0.41394866  1
  O  O3  1  0.94969246  0.18387354  0.91394866  1
  O  O4  1  0.94969246  0.31612646  0.41394866  1
  O  O5  1  0.55030754  0.18387354  0.91394866  1
  O  O6  1  0.44969246  0.68387354  0.58605134  1
  O  O7  1  0.05030754  0.81612646  0.08605134  1
  O  O8  1  0.25000000  0.94299476  0.44564268  1
  O  O9  1  0.25000000  0.55700524  0.94564268  1
  O  O10  1  0.75000000  0.05700524  0.55435732  1
  O  O11  1  0.75000000  0.44299476  0.05435732  1
  F  F0  1  0.25000000  0.91313377  0.73799462  1
  F  F1  1  0.25000000  0.58686623  0.23799462  1
  F  F2  1  0.75000000  0.08686623  0.26200538  1
  F  F3  1  0.75000000  0.41313377  0.76200538  1
loop_
_geom_bond_atom_site_label_1
_geom_bond_atom_site_label_2
_geom_bond_distance
_geom_bond_site_symmetry_2
Cs0 O9 3.105721 1_555
Cs0 O2 3.110965 1_555
Cs0 O4 3.110965 1_455
Cs0 O5 3.162560 1_555
Cs0 O3 3.162560 1_455
Cs0 F0 3.217973 1_545
Cs0 O6 3.293367 1_555
Cs0 O0 3.293367 1_555
Cs0 O8 3.577876 1_545
Cs0 F3 3.588629 1_455
Cs0 F3 3.588629 1_555
Cs1 O8 3.105721 1_545
Cs1 O5 3.110965 1_554
Cs1 O3 3.110965 1_454
Cs1 O2 3.162560 1_555
Cs1 O4 3.162560 1_455
Cs1 F1 3.217973 1_555
Cs1 O1 3.293367 1_545
Cs1 O7 3.293367 1_545
Cs1 O9 3.577876 1_554
Cs1 F2 3.588629 1_455
Cs1 F2 3.588629 1_555
Cs2 O11 3.105721 1_555
Cs2 O0 3.110965 1_655
Cs2 O6 3.110965 1_555
Cs2 O7 3.162560 1_655
Cs2 O1 3.162560 1_555
Cs2 F2 3.217973 1_565
Cs2 O4 3.293367 1_555
Cs2 O2 3.293367 1_555
Cs2 O10 3.577876 1_565
Cs2 F1 3.588629 1_555
Cs2 F1 3.588629 1_655
Cs3 O10 3.105721 1_565
Cs3 O7 3.110965 1_656
Cs3 O1 3.110965 1_556
Cs3 O0 3.162560 1_655
Cs3 O6 3.162560 1_555
Cs3 F3 3.217973 1_555
Cs3 O3 3.293367 1_565
Cs3 O5 3.293367 1_565
Cs3 O11 3.577876 1_556
Cs3 F0 3.588629 1_655
Cs3 F0 3.588629 1_555
O0 Se0 1.621368 1_555
O1 Se1 1.621368 1_555
O2 Se2 1.621368 1_555
O3 Se3 1.621368 1_555
O4 Se2 1.621368 1_555
O5 Se3 1.621368 1_555
O6 Se0 1.621368 1_555
O7 Se1 1.621368 1_555
O8 Se0 1.617081 1_555
O9 Se1 1.617081 1_556
O10 Se2 1.617081 1_555
O11 Se3 1.617081 1_554
F0 Se0 1.790216 1_555
F1 Se1 1.790216 1_555
F2 Se2 1.790216 1_555
F3 Se3 1.790216 1_555
