# generated using pymatgen
data_GaCo4CuS8
_symmetry_space_group_name_H-M   'P 1'
_cell_length_a   6.73909536
_cell_length_b   6.73909529
_cell_length_c   6.73909492
_cell_angle_alpha   60.00000183
_cell_angle_beta   60.00000216
_cell_angle_gamma   59.99999554
_symmetry_Int_Tables_number   1
_chemical_formula_structural   GaCo4CuS8
_chemical_formula_sum   'Ga1 Co4 Cu1 S8'
_cell_volume   216.41620286
_cell_formula_units_Z   1
loop_
 _symmetry_equiv_pos_site_id
 _symmetry_equiv_pos_as_xyz
  1  'x, y, z'
loop_
 _atom_site_type_symbol
 _atom_site_label
 _atom_site_symmetry_multiplicity
 _atom_site_fract_x
 _atom_site_fract_y
 _atom_site_fract_z
 _atom_site_occupancy
  Ga  Ga0  1  0.50000000  0.50000000  0.50000000  1
  Co  Co0  1  0.63310020  0.12229927  0.12229927  1
  Co  Co1  1  0.12229927  0.63310020  0.12229927  1
  Co  Co2  1  0.12229927  0.12229927  0.63310020  1
  Co  Co3  1  0.12229927  0.12229927  0.12229927  1
  Cu  Cu0  1  0.75000000  0.75000000  0.75000000  1
  S  S0  1  0.33451349  0.88849617  0.88849617  1
  S  S1  1  0.88849617  0.33451349  0.88849617  1
  S  S2  1  0.88849617  0.88849617  0.33451349  1
  S  S3  1  0.88849617  0.88849617  0.88849617  1
  S  S4  1  0.91574097  0.36142034  0.36142034  1
  S  S5  1  0.36142034  0.91574097  0.36142034  1
  S  S6  1  0.36142034  0.36142034  0.91574097  1
  S  S7  1  0.36142034  0.36142034  0.36142034  1
loop_
_geom_bond_atom_site_label_1
_geom_bond_atom_site_label_2
_geom_bond_distance
_geom_bond_site_symmetry_2
Ga0 S7 2.287582 1_555
Ga0 S5 2.287593 1_555
Ga0 S6 2.287593 1_555
Ga0 S4 2.287593 1_555
Co0 S3 2.233011 1_544
Co0 S2 2.233030 1_545
Co0 S1 2.233030 1_554
Co0 S6 2.289469 1_554
Co0 S5 2.289469 1_545
Co0 S7 2.289486 1_555
Co1 S3 2.233011 1_454
Co1 S2 2.233030 1_455
Co1 S0 2.233030 1_554
Co1 S6 2.289469 1_554
Co1 S4 2.289469 1_455
Co1 S7 2.289486 1_555
Co2 S3 2.233012 1_445
Co2 S0 2.233030 1_545
Co2 S1 2.233030 1_455
Co2 S4 2.289469 1_455
Co2 S5 2.289469 1_545
Co2 S7 2.289487 1_555
Co3 S0 2.233010 1_544
Co3 S1 2.233010 1_454
Co3 S2 2.233010 1_445
Co3 S4 2.289489 1_455
Co3 S5 2.289489 1_545
Co3 S6 2.289489 1_554
Cu0 S1 2.286193 1_555
Cu0 S2 2.286193 1_555
Cu0 S0 2.286193 1_555
Cu0 S3 2.286204 1_555
