# generated using pymatgen
data_Y8Cd2IrPd
_symmetry_space_group_name_H-M   'P 1'
_cell_length_a   9.68785003
_cell_length_b   9.68784984
_cell_length_c   9.64483323
_cell_angle_alpha   60.14677099
_cell_angle_beta   60.14677163
_cell_angle_gamma   60.33941660
_symmetry_Int_Tables_number   1
_chemical_formula_structural   Y8Cd2IrPd
_chemical_formula_sum   'Y16 Cd4 Ir2 Pd2'
_cell_volume   643.13336382
_cell_formula_units_Z   2
loop_
 _symmetry_equiv_pos_site_id
 _symmetry_equiv_pos_as_xyz
  1  'x, y, z'
loop_
 _atom_site_type_symbol
 _atom_site_label
 _atom_site_symmetry_multiplicity
 _atom_site_fract_x
 _atom_site_fract_y
 _atom_site_fract_z
 _atom_site_occupancy
  Y  Y0  1  0.35076798  0.35076798  0.34481879  1
  Y  Y1  1  0.35076798  0.35076798  0.95364625  1
  Y  Y2  1  0.35733156  0.94214412  0.35026166  1
  Y  Y3  1  0.94214412  0.35733156  0.35026166  1
  Y  Y4  1  0.80519575  0.19205391  0.18943002  1
  Y  Y5  1  0.19205391  0.80519575  0.81332033  1
  Y  Y6  1  0.19205391  0.80519575  0.18943002  1
  Y  Y7  1  0.80519575  0.19205391  0.81332033  1
  Y  Y8  1  0.19215697  0.19215697  0.80784303  1
  Y  Y9  1  0.81076079  0.81076079  0.18923921  1
  Y  Y10  1  0.93741768  0.56643026  0.56043789  1
  Y  Y11  1  0.56643026  0.93741768  0.93571517  1
  Y  Y12  1  0.56643026  0.93741768  0.56043789  1
  Y  Y13  1  0.93741768  0.56643026  0.93571517  1
  Y  Y14  1  0.56397321  0.56397321  0.93602679  1
  Y  Y15  1  0.93646083  0.93646083  0.56353917  1
  Cd  Cd0  1  0.58046813  0.58046813  0.58218571  1
  Cd  Cd1  1  0.58046813  0.58046813  0.25687802  1
  Cd  Cd2  1  0.57955723  0.25819638  0.58112370  1
  Cd  Cd3  1  0.25819638  0.57955723  0.58112370  1
  Ir  Ir0  1  0.13846835  0.57390691  0.14381287  1
  Ir  Ir1  1  0.57390691  0.13846835  0.14381287  1
  Pd  Pd0  1  0.14118762  0.14118762  0.14625363  1
  Pd  Pd1  1  0.14118762  0.14118762  0.57137014  1
loop_
_geom_bond_atom_site_label_1
_geom_bond_atom_site_label_2
_geom_bond_distance
_geom_bond_site_symmetry_2
Y0 Y14 3.476355 1_554
Y1 Y14 3.476350 1_555
Y10 Y14 3.628207 1_555
Y11 Y14 3.628212 1_555
Y12 Y14 3.628207 1_555
Y13 Y14 3.628212 1_555
Y14 Y4 3.605882 1_556
Y14 Y6 3.605882 1_556
Y14 Y7 3.605882 1_555
Y14 Y5 3.605882 1_555
Cd0 Cd2 3.131615 1_555
Cd0 Cd3 3.131615 1_555
Cd0 Cd1 3.137538 1_555
Cd0 Y14 3.261481 1_555
Cd0 Y12 3.295692 1_555
Cd0 Y10 3.295692 1_555
Cd0 Y2 3.386482 1_555
Cd0 Y3 3.386482 1_555
Cd0 Y1 3.430203 1_555
Cd0 Y7 3.498766 1_555
Cd0 Y5 3.498767 1_555
Cd0 Y9 3.522650 1_555
Cd1 Cd2 3.131620 1_555
Cd1 Cd3 3.131620 1_555
Cd1 Y14 3.261481 1_554
Cd1 Y11 3.295688 1_554
Cd1 Y13 3.295688 1_554
Cd1 Y2 3.386478 1_555
Cd1 Y3 3.386478 1_555
Cd1 Y0 3.430199 1_555
Cd1 Y4 3.498767 1_555
Cd1 Y6 3.498767 1_555
Cd1 Y9 3.522651 1_555
Cd2 Cd3 3.129254 1_555
Cd2 Y11 3.278287 1_545
Cd2 Y12 3.278287 1_545
Cd2 Y15 3.312892 1_545
Cd2 Y3 3.412106 1_555
Cd2 Y1 3.455199 1_555
Cd2 Y0 3.455199 1_555
Cd2 Y8 3.477040 1_555
Cd2 Y7 3.501866 1_555
Cd2 Y4 3.501875 1_555
Cd3 Y13 3.278287 1_455
Cd3 Y10 3.278287 1_455
Cd3 Y15 3.312892 1_455
Cd3 Y2 3.412106 1_555
Cd3 Y1 3.455199 1_555
Cd3 Y0 3.455199 1_555
Cd3 Y8 3.477040 1_555
Cd3 Y5 3.501866 1_555
Cd3 Y6 3.501875 1_555
Ir0 Y6 2.800690 1_555
Ir0 Y5 2.800696 1_554
Ir0 Y9 2.818243 1_455
Ir0 Y3 2.829220 1_455
Ir0 Y0 2.838765 1_555
Ir0 Y1 2.838765 1_554
Ir0 Y10 3.464615 1_455
Ir0 Y13 3.464615 1_454
Ir0 Y14 3.548682 1_554
Ir1 Y4 2.800690 1_555
Ir1 Y7 2.800696 1_554
Ir1 Y9 2.818243 1_545
Ir1 Y2 2.829220 1_545
Ir1 Y0 2.838765 1_555
Ir1 Y1 2.838765 1_554
Ir1 Y12 3.464615 1_545
Ir1 Y11 3.464615 1_544
Ir1 Y14 3.548682 1_554
Pd0 Y8 2.858859 1_554
Pd0 Y1 2.875042 1_554
Pd0 Y6 2.877291 1_545
Pd0 Y4 2.877291 1_455
Pd0 Y3 2.881461 1_455
Pd0 Y2 2.881461 1_545
Pd0 Y15 3.473436 1_445
Pd0 Y13 3.550445 1_454
Pd0 Y11 3.550445 1_544
Pd1 Y8 2.858868 1_555
Pd1 Y0 2.875041 1_555
Pd1 Y5 2.877294 1_545
Pd1 Y7 2.877294 1_455
Pd1 Y3 2.881461 1_455
Pd1 Y2 2.881461 1_545
Pd1 Y15 3.473431 1_445
Pd1 Y10 3.550450 1_455
Pd1 Y12 3.550450 1_545
