# generated using pymatgen
data_Nb3FeTc2Ge3
_symmetry_space_group_name_H-M   'P 1'
_cell_length_a   6.68495892
_cell_length_b   7.15495191
_cell_length_c   7.58832441
_cell_angle_alpha   118.12811408
_cell_angle_beta   116.13429605
_cell_angle_gamma   90.00000029
_symmetry_Int_Tables_number   1
_chemical_formula_structural   Nb3FeTc2Ge3
_chemical_formula_sum   'Nb6 Fe2 Tc4 Ge6'
_cell_volume   277.30246773
_cell_formula_units_Z   2
loop_
 _symmetry_equiv_pos_site_id
 _symmetry_equiv_pos_as_xyz
  1  'x, y, z'
loop_
 _atom_site_type_symbol
 _atom_site_label
 _atom_site_symmetry_multiplicity
 _atom_site_fract_x
 _atom_site_fract_y
 _atom_site_fract_z
 _atom_site_occupancy
  Nb  Nb0  1  0.89720074  0.94635521  0.39270943  1
  Nb  Nb1  1  0.50449131  0.05364479  0.60729057  1
  Nb  Nb2  1  0.50109472  0.53149547  0.56298995  1
  Nb  Nb3  1  0.93810477  0.46850453  0.43701005  1
  Nb  Nb4  1  0.09161515  0.74834679  0.99669358  1
  Nb  Nb5  1  0.09492057  0.25165321  0.00330642  1
  Fe  Fe0  1  0.75570133  0.50000000  0.00000000  1
  Fe  Fe1  1  0.75570133  0.00000000  0.00000000  1
  Tc  Tc0  1  0.24948479  0.91230710  0.75057330  1
  Tc  Tc1  1  0.49891250  0.08769290  0.24942670  1
  Tc  Tc2  1  0.24948479  0.33826520  0.75057330  1
  Tc  Tc3  1  0.49891250  0.66173480  0.24942670  1
  Ge  Ge0  1  0.16596531  0.66929494  0.33184884  1
  Ge  Ge1  1  0.83411647  0.33070506  0.66815116  1
  Ge  Ge2  1  0.16596531  0.16255290  0.33184884  1
  Ge  Ge3  1  0.83411647  0.83744710  0.66815116  1
  Ge  Ge4  1  0.48394654  0.72284206  0.94568612  1
  Ge  Ge5  1  0.53826142  0.27715794  0.05431388  1
loop_
_geom_bond_atom_site_label_1
_geom_bond_atom_site_label_2
_geom_bond_distance
_geom_bond_site_symmetry_2
Nb0 Tc1 2.789335 1_565
Nb0 Tc3 2.789335 1_555
Nb0 Tc2 2.823056 1_665
Nb0 Tc0 2.823063 1_655
Nb1 Tc0 2.789340 1_545
Nb1 Tc2 2.789340 1_555
Nb1 Tc3 2.823059 1_545
Nb1 Tc1 2.823066 1_555
Nb2 Tc3 2.930917 1_555
Nb2 Tc1 2.930917 1_555
Nb2 Tc0 3.275900 1_555
Nb2 Tc2 3.275909 1_555
Nb3 Tc2 2.930915 1_655
Nb3 Tc0 2.930915 1_655
Nb3 Tc1 3.275895 1_555
Nb3 Tc3 3.275904 1_555
Nb4 Tc3 2.827718 1_556
Nb4 Tc1 2.827722 1_566
Nb4 Tc0 3.127348 1_555
Nb4 Tc2 3.127353 1_555
Nb5 Tc2 2.827718 1_554
Nb5 Tc0 2.827723 1_544
Nb5 Tc1 3.127356 1_555
Nb5 Tc3 3.127361 1_555
Fe0 Ge5 2.443835 1_555
Fe0 Ge4 2.443840 1_554
Fe0 Ge0 2.523900 1_655
Fe0 Ge1 2.523900 1_554
Fe0 Nb5 2.879629 1_655
Fe0 Nb4 2.879634 1_654
Fe0 Nb1 2.918521 1_554
Fe0 Nb0 2.918521 1_555
Fe0 Tc3 2.943717 1_555
Fe0 Tc2 2.943722 1_554
Fe0 Nb2 3.110790 1_554
Fe0 Nb3 3.110790 1_555
Fe1 Ge5 2.443846 1_555
Fe1 Ge4 2.443850 1_544
Fe1 Ge2 2.523900 1_655
Fe1 Ge3 2.523900 1_544
Fe1 Nb5 2.879629 1_655
Fe1 Nb4 2.879634 1_644
Fe1 Nb1 2.918516 1_554
Fe1 Nb0 2.918516 1_545
Fe1 Tc1 2.943716 1_555
Fe1 Tc0 2.943722 1_544
Fe1 Nb2 3.110787 1_544
Fe1 Nb3 3.110787 1_555
Tc0 Tc1 2.940271 1_566
Tc0 Tc2 3.047710 1_565
Tc1 Tc3 3.047710 1_545
Tc2 Tc3 2.940273 1_556
Ge0 Tc3 2.557826 1_555
Ge0 Tc0 2.580485 1_555
Ge0 Nb3 2.678209 1_455
Ge0 Nb2 2.690067 1_555
Ge0 Nb0 2.690506 1_455
Ge0 Nb4 2.697762 1_554
Ge0 Nb5 2.702395 1_555
Ge0 Nb1 2.732387 1_565
Ge1 Tc2 2.557820 1_655
Ge1 Tc1 2.580483 1_555
Ge1 Nb2 2.678209 1_555
Ge1 Nb3 2.690067 1_555
Ge1 Nb1 2.690506 1_555
Ge1 Nb5 2.697760 1_656
Ge1 Nb4 2.702397 1_655
Ge1 Nb0 2.732387 1_545
Ge2 Tc1 2.557825 1_555
Ge2 Tc2 2.580485 1_555
Ge2 Nb3 2.678210 1_455
Ge2 Nb2 2.690077 1_555
Ge2 Nb0 2.690497 1_445
Ge2 Nb4 2.697757 1_544
Ge2 Nb5 2.702400 1_555
Ge2 Nb1 2.732387 1_555
Ge3 Tc0 2.557819 1_655
Ge3 Tc3 2.580483 1_555
Ge3 Nb2 2.678210 1_555
Ge3 Nb3 2.690077 1_555
Ge3 Nb1 2.690497 1_565
Ge3 Nb5 2.697756 1_666
Ge3 Nb4 2.702401 1_655
Ge3 Nb0 2.732387 1_555
Ge4 Tc3 2.502138 1_556
Ge4 Tc1 2.502151 1_566
Ge4 Tc2 2.516849 1_555
Ge4 Tc0 2.516855 1_555
Ge4 Nb2 2.620184 1_555
Ge4 Nb4 2.808821 1_555
Ge4 Nb0 2.885413 1_556
Ge5 Tc2 2.502143 1_554
Ge5 Tc0 2.502156 1_544
Ge5 Tc3 2.516849 1_555
Ge5 Tc1 2.516855 1_555
Ge5 Nb3 2.620180 1_555
Ge5 Nb5 2.808834 1_555
Ge5 Nb1 2.885410 1_554
