# generated using pymatgen
data_Cs6Sc3IrBr18
_symmetry_space_group_name_H-M   'P 1'
_cell_length_a   7.72117870
_cell_length_b   7.72117889
_cell_length_c   19.30402680
_cell_angle_alpha   90.00000000
_cell_angle_beta   90.00000000
_cell_angle_gamma   119.99999115
_symmetry_Int_Tables_number   1
_chemical_formula_structural   Cs6Sc3IrBr18
_chemical_formula_sum   'Cs6 Sc3 Ir1 Br18'
_cell_volume   996.65718308
_cell_formula_units_Z   1
loop_
 _symmetry_equiv_pos_site_id
 _symmetry_equiv_pos_as_xyz
  1  'x, y, z'
loop_
 _atom_site_type_symbol
 _atom_site_label
 _atom_site_symmetry_multiplicity
 _atom_site_fract_x
 _atom_site_fract_y
 _atom_site_fract_z
 _atom_site_occupancy
  Cs  Cs0  1  0.33333300  0.66666700  0.07238194  1
  Cs  Cs1  1  0.66666700  0.33333300  0.92739551  1
  Cs  Cs2  1  0.66666700  0.33333300  0.57688751  1
  Cs  Cs3  1  0.33333300  0.66666700  0.43067278  1
  Cs  Cs4  1  0.00000000  0.00000000  0.25067293  1
  Cs  Cs5  1  0.00000000  0.00000000  0.74561854  1
  Sc  Sc0  1  0.66666700  0.33333300  0.34582664  1
  Sc  Sc1  1  0.66666700  0.33333300  0.15610757  1
  Sc  Sc2  1  0.33333300  0.66666700  0.83776911  1
  Ir  Ir0  1  0.33333300  0.66666700  0.66719451  1
  Br  Br0  1  0.18082996  0.36165892  0.59380015  1
  Br  Br1  1  0.83091669  0.66183238  0.41367065  1
  Br  Br2  1  0.63834108  0.81917004  0.59380015  1
  Br  Br3  1  0.83060234  0.66120569  0.08744490  1
  Br  Br4  1  0.33816762  0.16908331  0.41367065  1
  Br  Br5  1  0.17002234  0.34004468  0.90750221  1
  Br  Br6  1  0.18082996  0.81917004  0.59380015  1
  Br  Br7  1  0.33879431  0.16939766  0.08744490  1
  Br  Br8  1  0.83091669  0.16908331  0.41367065  1
  Br  Br9  1  0.65995532  0.82997766  0.90750221  1
  Br  Br10  1  0.83060234  0.16939766  0.08744490  1
  Br  Br11  1  0.17002234  0.82997766  0.90750221  1
  Br  Br12  1  0.51049288  0.02098677  0.25056773  1
  Br  Br13  1  0.48897714  0.97795328  0.74350535  1
  Br  Br14  1  0.97901323  0.48950712  0.25056773  1
  Br  Br15  1  0.02204672  0.51102286  0.74350535  1
  Br  Br16  1  0.51049288  0.48950712  0.25056773  1
  Br  Br17  1  0.48897714  0.51102286  0.74350535  1
loop_
_geom_bond_atom_site_label_1
_geom_bond_atom_site_label_2
_geom_bond_distance
_geom_bond_site_symmetry_2
Br0 Ir0 2.483332 1_555
Br0 Cs3 3.751785 1_555
Br0 Cs5 3.799645 1_555
Br0 Cs2 3.878997 1_555
Br0 Cs2 3.878997 1_455
Br1 Sc0 2.557385 1_555
Br1 Cs2 3.840857 1_555
Br1 Cs3 3.874643 1_655
Br1 Cs3 3.874658 1_555
Br1 Cs4 3.874756 1_665
Br2 Ir0 2.483332 1_555
Br2 Cs3 3.751785 1_555
Br2 Cs5 3.799645 1_665
Br2 Cs2 3.878997 1_555
Br2 Cs2 3.878997 1_565
Br3 Sc1 2.561927 1_555
Br3 Cs1 3.788433 1_554
Br3 Cs0 3.871697 1_555
Br3 Cs0 3.871697 1_655
Br3 Cs4 3.880812 1_665
Br4 Sc0 2.557385 1_555
Br4 Cs2 3.840857 1_555
Br4 Cs3 3.874643 1_545
Br4 Cs3 3.874658 1_555
Br4 Cs4 3.874756 1_555
Br5 Sc2 2.565558 1_555
Br5 Cs0 3.860118 1_556
Br5 Cs5 3.864684 1_555
Br5 Cs1 3.879898 1_455
Br5 Cs1 3.879905 1_555
Br6 Ir0 2.483321 1_555
Br6 Cs3 3.751778 1_555
Br6 Cs5 3.799649 1_565
Br6 Cs2 3.878997 1_455
Br6 Cs2 3.878997 1_565
Br7 Sc1 2.561927 1_555
Br7 Cs1 3.788433 1_554
Br7 Cs0 3.871697 1_555
Br7 Cs0 3.871697 1_545
Br7 Cs4 3.880812 1_555
Br8 Sc0 2.557385 1_555
Br8 Cs2 3.840857 1_555
Br8 Cs3 3.874651 1_655
Br8 Cs3 3.874651 1_545
Br8 Cs4 3.874752 1_655
Br9 Sc2 2.565558 1_555
Br9 Cs0 3.860118 1_556
Br9 Cs5 3.864684 1_665
Br9 Cs1 3.879898 1_565
Br9 Cs1 3.879906 1_555
Br10 Sc1 2.561916 1_555
Br10 Cs1 3.788425 1_554
Br10 Cs0 3.871697 1_655
Br10 Cs0 3.871697 1_545
Br10 Cs4 3.880816 1_655
Br11 Sc2 2.565552 1_555
Br11 Cs0 3.860114 1_556
Br11 Cs5 3.864684 1_565
Br11 Cs1 3.879902 1_455
Br11 Cs1 3.879902 1_565
Br12 Sc1 2.772574 1_555
Br12 Sc0 2.782739 1_555
Br12 Cs4 3.863136 1_555
Br12 Cs4 3.863143 1_655
Br12 Cs0 4.176706 1_545
Br12 Cs3 4.207270 1_545
Br13 Ir0 2.550028 1_555
Br13 Sc2 2.764742 1_555
Br13 Cs5 3.863615 1_665
Br13 Cs5 3.863622 1_565
Br13 Cs2 3.999018 1_565
Br13 Cs1 4.271788 1_565
Br14 Sc1 2.772574 1_555
Br14 Sc0 2.782739 1_555
Br14 Cs4 3.863136 1_665
Br14 Cs4 3.863144 1_655
Br14 Cs0 4.176706 1_655
Br14 Cs3 4.207270 1_655
Br15 Ir0 2.550028 1_555
Br15 Sc2 2.764742 1_555
Br15 Cs5 3.863615 1_555
Br15 Cs5 3.863622 1_565
Br15 Cs2 3.999018 1_455
Br15 Cs1 4.271788 1_455
Br16 Sc1 2.772584 1_555
Br16 Sc0 2.782749 1_555
Br16 Cs4 3.863140 1_555
Br16 Cs4 3.863140 1_665
Br16 Cs0 4.176706 1_555
Br16 Cs3 4.207270 1_555
Br17 Ir0 2.550039 1_555
Br17 Sc2 2.764752 1_555
Br17 Cs5 3.863619 1_665
Br17 Cs5 3.863619 1_555
Br17 Cs2 3.999018 1_555
Br17 Cs1 4.271788 1_555
