# generated using pymatgen
data_Cs2Zr(Te2Au)2
_symmetry_space_group_name_H-M   'P 1'
_cell_length_a   8.40328888
_cell_length_b   8.40328843
_cell_length_c   6.48021001
_cell_angle_alpha   90.00000000
_cell_angle_beta   90.00000000
_cell_angle_gamma   134.64409939
_symmetry_Int_Tables_number   1
_chemical_formula_structural   Cs2Zr(Te2Au)2
_chemical_formula_sum   'Cs2 Zr1 Te4 Au2'
_cell_volume   325.57694101
_cell_formula_units_Z   1
loop_
 _symmetry_equiv_pos_site_id
 _symmetry_equiv_pos_as_xyz
  1  'x, y, z'
loop_
 _atom_site_type_symbol
 _atom_site_label
 _atom_site_symmetry_multiplicity
 _atom_site_fract_x
 _atom_site_fract_y
 _atom_site_fract_z
 _atom_site_occupancy
  Cs  Cs0  1  0.50000000  0.00000000  0.25648137  1
  Cs  Cs1  1  0.00000000  0.50000000  0.74351863  1
  Zr  Zr0  1  0.00000000  0.00000000  0.00000000  1
  Te  Te0  1  0.85650763  0.64986773  0.24556662  1
  Te  Te1  1  0.14349237  0.35013227  0.24556662  1
  Te  Te2  1  0.64986773  0.85650763  0.75443338  1
  Te  Te3  1  0.35013227  0.14349237  0.75443338  1
  Au  Au0  1  0.00000000  0.00000000  0.50000000  1
  Au  Au1  1  0.50000000  0.50000000  0.00000000  1
loop_
_geom_bond_atom_site_label_1
_geom_bond_atom_site_label_2
_geom_bond_distance
_geom_bond_site_symmetry_2
Cs0 Te1 3.942373 1_655
Cs0 Te0 3.942373 1_445
Cs0 Te2 3.947996 1_545
Cs0 Te3 3.947996 1_555
Cs0 Te2 3.969720 1_544
Cs0 Te3 3.969720 1_554
Cs0 Te0 3.976178 1_555
Cs0 Te1 3.976178 1_545
Cs1 Te2 3.942373 1_445
Cs1 Te3 3.942373 1_565
Cs1 Te0 3.947996 1_455
Cs1 Te1 3.947996 1_555
Cs1 Te0 3.969720 1_456
Cs1 Te1 3.969720 1_556
Cs1 Te2 3.976178 1_555
Cs1 Te3 3.976178 1_455
Te0 Zr0 2.767147 1_665
Te1 Zr0 2.767147 1_555
Te2 Zr0 2.767147 1_666
Te3 Zr0 2.767147 1_556
Au0 Te1 2.800585 1_555
Au0 Te0 2.800585 1_445
Au0 Te3 2.800585 1_555
Au0 Te2 2.800585 1_445
Au0 Zr0 3.240105 1_556
Au0 Zr0 3.240105 1_555
Au1 Te3 2.791226 1_554
Au1 Te2 2.791226 1_554
Au1 Te0 2.791227 1_555
Au1 Te1 2.791227 1_555
Au1 Zr0 3.239896 1_665
Au1 Zr0 3.239896 1_555
