# generated using pymatgen
data_Ba8As5I
_symmetry_space_group_name_H-M   'P 1'
_cell_length_a   8.79165181
_cell_length_b   8.79167385
_cell_length_c   8.79165662
_cell_angle_alpha   109.22796592
_cell_angle_beta   109.22795527
_cell_angle_gamma   109.95894024
_symmetry_Int_Tables_number   1
_chemical_formula_structural   Ba8As5I
_chemical_formula_sum   'Ba8 As5 I1'
_cell_volume   523.07834010
_cell_formula_units_Z   1
loop_
 _symmetry_equiv_pos_site_id
 _symmetry_equiv_pos_as_xyz
  1  'x, y, z'
loop_
 _atom_site_type_symbol
 _atom_site_label
 _atom_site_symmetry_multiplicity
 _atom_site_fract_x
 _atom_site_fract_y
 _atom_site_fract_z
 _atom_site_occupancy
  Ba  Ba0  1  0.73879410  0.36854095  0.24353370  1
  Ba  Ba1  1  0.97751833  0.73351393  0.08582606  1
  Ba  Ba2  1  0.64768887  0.89169328  0.91417694  1
  Ba  Ba3  1  0.12500825  0.49525940  0.75646630  1
  Ba  Ba4  1  0.63145905  0.87499275  0.37025315  1
  Ba  Ba5  1  0.50473560  0.26120390  0.62974285  1
  Ba  Ba6  1  0.26648907  0.35231413  0.24400540  1
  Ba  Ba7  1  0.10830772  0.02248267  0.75599460  1
  As  As0  1  0.74295524  0.63149133  0.62229554  1
  As  As1  1  0.36850867  0.99080320  0.11146391  1
  As  As2  1  0.00919680  0.12066071  0.37770446  1
  As  As3  1  0.50000000  0.49999900  0.00000000  1
  As  As4  1  0.87933929  0.25704476  0.88853609  1
  I  I0  1  0.25000000  0.75000000  0.50000000  1
loop_
_geom_bond_atom_site_label_1
_geom_bond_atom_site_label_2
_geom_bond_distance
_geom_bond_site_symmetry_2
Ba0 I0 3.819041 1_655
Ba1 I0 3.562103 1_655
Ba2 I0 3.562117 1_555
Ba3 I0 3.819053 1_555
Ba4 I0 3.819044 1_555
Ba5 I0 3.819042 1_545
Ba6 I0 3.562108 1_555
Ba7 I0 3.562107 1_545
As0 Ba5 3.250321 1_555
As0 Ba7 3.290771 1_665
As0 Ba0 3.350494 1_555
As0 Ba2 3.372948 1_555
As0 Ba1 3.529713 1_556
As0 Ba6 3.613941 1_555
As0 Ba4 3.685150 1_555
As0 Ba3 3.895551 1_655
As1 Ba0 3.250317 1_565
As1 Ba1 3.290758 1_455
As1 Ba4 3.350488 1_555
As1 Ba7 3.372949 1_564
As1 Ba6 3.529727 1_565
As1 Ba2 3.613952 1_554
As1 Ba3 3.685149 1_554
As1 Ba5 3.895513 1_565
As2 Ba4 3.250320 1_445
As2 Ba6 3.290772 1_555
As2 Ba3 3.350485 1_555
As2 Ba1 3.372937 1_445
As2 Ba2 3.529693 1_444
As2 Ba7 3.613959 1_555
As2 Ba5 3.685106 1_555
As2 Ba0 3.895539 1_455
As3 Ba3 3.263893 1_554
As3 Ba0 3.263897 1_555
As3 Ba4 3.263908 1_555
As3 Ba5 3.263914 1_554
As3 Ba6 3.663046 1_555
As3 Ba7 3.663052 1_554
As3 Ba1 3.663061 1_555
As3 Ba2 3.663069 1_554
As4 Ba3 3.250319 1_655
As4 Ba2 3.290770 1_545
As4 Ba5 3.350514 1_555
As4 Ba6 3.372947 1_656
As4 Ba7 3.529723 1_655
As4 Ba1 3.613969 1_556
As4 Ba0 3.685140 1_556
As4 Ba4 3.895535 1_545
