# generated using pymatgen
data_LiCa(BeB14)2
_symmetry_space_group_name_H-M   'P 1'
_cell_length_a   7.17720730
_cell_length_b   7.17720876
_cell_length_c   7.17720841
_cell_angle_alpha   133.22886933
_cell_angle_beta   110.28352626
_cell_angle_gamma   88.19028443
_symmetry_Int_Tables_number   1
_chemical_formula_structural   LiCa(BeB14)2
_chemical_formula_sum   'Li1 Ca1 Be2 B28'
_cell_volume   240.94343789
_cell_formula_units_Z   1
loop_
 _symmetry_equiv_pos_site_id
 _symmetry_equiv_pos_as_xyz
  1  'x, y, z'
loop_
 _atom_site_type_symbol
 _atom_site_label
 _atom_site_symmetry_multiplicity
 _atom_site_fract_x
 _atom_site_fract_y
 _atom_site_fract_z
 _atom_site_occupancy
  Li  Li0  1  0.12414942  0.75000000  0.37414942  1
  Ca  Ca0  1  0.89927097  0.25000000  0.64927097  1
  Be  Be0  1  0.46829161  0.48219372  0.45048433  1
  Be  Be1  1  0.46829161  0.01780628  0.98609788  1
  B  B0  1  0.72491895  0.72054800  0.32497127  1
  B  B1  1  0.70399174  0.33960504  0.36438770  1
  B  B2  1  0.87703850  0.66685098  0.70369562  1
  B  B3  1  0.12696441  0.82557380  0.79133543  1
  B  B4  1  0.53684465  0.83314902  0.21018852  1
  B  B5  1  0.46576163  0.67442620  0.30138962  1
  B  B6  1  0.12696441  0.33562799  0.30138962  1
  B  B7  1  0.87703850  0.17334388  0.21018852  1
  B  B8  1  0.46576163  0.16437201  0.79133543  1
  B  B9  1  0.53684465  0.32665612  0.70369562  1
  B  B10  1  0.10442527  0.77945200  0.00437095  1
  B  B11  1  0.89936050  0.89560784  0.67749612  1
  B  B12  1  0.89936050  0.22186537  0.00375365  1
  B  B13  1  0.28188828  0.60439216  0.00375365  1
  B  B14  1  0.10442527  0.10005332  0.32497127  1
  B  B15  1  0.52478165  0.16039496  0.36438770  1
  B  B16  1  0.28188828  0.27813463  0.67749612  1
  B  B17  1  0.72491895  0.39994668  0.00437095  1
  B  B18  1  0.74126305  0.90865414  0.83260791  1
  B  B19  1  0.25789875  0.08863749  0.16926127  1
  B  B20  1  0.42395277  0.59134586  0.83260791  1
  B  B21  1  0.58062378  0.41136251  0.16926127  1
  B  B22  1  0.86684908  0.83302217  0.03382691  1
  B  B23  1  0.13526393  0.16583489  0.96943004  1
  B  B24  1  0.70080474  0.66697783  0.03382691  1
  B  B25  1  0.30359515  0.33416511  0.96943004  1
  B  B26  1  0.47580511  0.84251991  0.63328320  1
  B  B27  1  0.29076429  0.65748009  0.63328320  1
loop_
_geom_bond_atom_site_label_1
_geom_bond_atom_site_label_2
_geom_bond_distance
_geom_bond_site_symmetry_2
B0 B11 1.759598 1_555
B0 B21 1.786451 1_555
B0 B24 1.788054 1_555
B0 B4 1.796104 1_555
B0 B17 1.826626 1_555
B0 B5 1.828058 1_555
B0 Ca0 2.754731 1_565
B0 Li0 2.759419 1_655
B1 B21 1.763519 1_555
B1 B7 1.800464 1_555
B1 B2 1.800464 1_555
B1 B15 1.847500 1_555
B1 Be0 2.009992 1_555
B1 Be1 2.009998 1_554
B1 Ca0 2.513177 1_555
B2 B3 1.810035 1_655
B2 B22 1.812614 1_556
B2 Ca0 2.746137 1_555
B3 Be1 2.248622 1_565
B3 Li0 2.644626 1_555
B4 B5 1.810023 1_555
B4 Ca0 2.746136 1_565
B5 Be0 2.248623 1_555
B5 Li0 2.644629 1_555
B6 B7 1.810035 1_455
B6 Be0 2.248623 1_555
B6 Li0 2.644629 1_555
B7 Ca0 2.746134 1_555
B8 B9 1.810023 1_555
B8 Be1 2.248629 1_555
B8 Li0 2.644629 1_545
B9 Ca0 2.746136 1_555
B10 B13 1.759590 1_555
B10 B19 1.786445 1_565
B10 B22 1.788068 1_455
B10 B2 1.796114 1_454
B10 B14 1.826626 1_565
B10 B3 1.828055 1_554
B10 Ca0 2.754734 1_454
B10 Li0 2.759424 1_555
B11 B3 1.781591 1_655
B11 B23 1.788733 1_665
B11 B2 1.793616 1_555
B11 B18 1.806103 1_555
B11 B12 1.858855 1_566
B11 Ca0 2.686317 1_565
B11 Li0 2.765381 1_655
B12 B17 1.759590 1_555
B12 B6 1.781588 1_655
B12 B23 1.788733 1_654
B12 B7 1.793616 1_555
B12 B18 1.806109 1_544
B12 Ca0 2.686319 1_554
B12 Li0 2.765377 1_655
B13 B5 1.781580 1_555
B13 B25 1.788733 1_554
B13 B4 1.793616 1_555
B13 B20 1.806109 1_554
B13 B16 1.858855 1_554
B13 Ca0 2.686316 1_454
B13 Li0 2.765375 1_555
B14 B16 1.759598 1_555
B14 B19 1.786436 1_555
B14 B22 1.788064 1_445
B14 B7 1.796115 1_455
B14 B6 1.828050 1_555
B14 Ca0 2.754744 1_455
B14 Li0 2.759427 1_545
B15 B19 1.763514 1_555
B15 B9 1.800462 1_555
B15 B4 1.800466 1_545
B15 Be0 2.010002 1_555
B15 Be1 2.010003 1_554
B15 Ca0 2.513181 1_555
B16 B8 1.781580 1_555
B16 B25 1.788733 1_555
B16 B9 1.793616 1_555
B16 B20 1.806112 1_555
B16 Ca0 2.686316 1_455
B16 Li0 2.765375 1_545
B17 B21 1.786448 1_555
B17 B24 1.788061 1_555
B17 B9 1.796107 1_554
B17 B8 1.828055 1_554
B17 Ca0 2.754732 1_554
B17 Li0 2.759421 1_655
B18 B2 1.770961 1_555
B18 B7 1.770970 1_566
B18 B26 1.771734 1_555
B18 B22 1.825713 1_556
B18 Be0 2.425474 1_555
B18 Be1 2.425478 1_565
B19 B6 1.770525 1_555
B19 B3 1.770530 1_544
B19 B23 1.822416 1_554
B19 Be1 2.163145 1_554
B19 Be0 2.163147 1_555
B20 B4 1.770970 1_556
B20 B9 1.770975 1_555
B20 B27 1.771736 1_555
B20 B24 1.825720 1_556
B20 Be1 2.425471 1_565
B20 Be0 2.425482 1_555
B21 B8 1.770530 1_554
B21 B5 1.770530 1_555
B21 B25 1.822415 1_554
B21 Be0 2.163139 1_555
B21 Be1 2.163146 1_554
B22 B24 1.711773 1_555
B22 B7 1.812618 1_565
B23 B25 1.735343 1_555
B23 B6 1.811549 1_556
B23 B3 1.811559 1_545
B23 Ca0 2.766258 1_455
B24 B4 1.812617 1_555
B24 B9 1.812617 1_554
B25 B8 1.811556 1_555
B25 B5 1.811556 1_556
B25 Ca0 2.766260 1_455
B26 B5 1.756343 1_555
B26 B8 1.756352 1_565
B26 B27 1.907605 1_555
B26 Be0 1.929839 1_555
B26 Be1 1.929849 1_565
B26 Li0 2.330159 1_555
B27 B3 1.756349 1_555
B27 B6 1.756349 1_555
B27 Be0 1.929840 1_555
B27 Be1 1.929841 1_565
B27 Li0 2.330149 1_555
