# generated using pymatgen
data_Ag4Ru3PtO14
_symmetry_space_group_name_H-M   'P 1'
_cell_length_a   7.08734756
_cell_length_b   7.08734629
_cell_length_c   7.08734674
_cell_angle_alpha   60.39408527
_cell_angle_beta   60.39409118
_cell_angle_gamma   60.39409751
_symmetry_Int_Tables_number   1
_chemical_formula_structural   Ag4Ru3PtO14
_chemical_formula_sum   'Ag4 Ru3 Pt1 O14'
_cell_volume   253.97419704
_cell_formula_units_Z   1
loop_
 _symmetry_equiv_pos_site_id
 _symmetry_equiv_pos_as_xyz
  1  'x, y, z'
loop_
 _atom_site_type_symbol
 _atom_site_label
 _atom_site_symmetry_multiplicity
 _atom_site_fract_x
 _atom_site_fract_y
 _atom_site_fract_z
 _atom_site_occupancy
  Ag  Ag0  1  0.12500000  0.12500000  0.12500000  1
  Ag  Ag1  1  0.62500000  0.12500000  0.12500000  1
  Ag  Ag2  1  0.12500000  0.62500000  0.12500000  1
  Ag  Ag3  1  0.12500000  0.12500000  0.62500000  1
  Ru  Ru0  1  0.62500000  0.62500000  0.12500000  1
  Ru  Ru1  1  0.62500000  0.12500000  0.62500000  1
  Ru  Ru2  1  0.12500000  0.62500000  0.62500000  1
  Pt  Pt0  1  0.62500000  0.62500000  0.62500000  1
  O  O0  1  0.69938907  0.31615869  0.31615869  1
  O  O1  1  0.71000737  0.28588120  0.71000737  1
  O  O2  1  0.00224929  0.00224929  0.00224929  1
  O  O3  1  0.31615869  0.69938907  0.31615869  1
  O  O4  1  0.71000737  0.71000737  0.28588120  1
  O  O5  1  0.96411880  0.53999263  0.53999263  1
  O  O6  1  0.28588120  0.71000737  0.71000737  1
  O  O7  1  0.24775071  0.24775071  0.24775071  1
  O  O8  1  0.93384131  0.55061093  0.93384131  1
  O  O9  1  0.53999263  0.96411880  0.53999263  1
  O  O10  1  0.53999263  0.53999263  0.96411880  1
  O  O11  1  0.93384131  0.93384131  0.55061093  1
  O  O12  1  0.55061093  0.93384131  0.93384131  1
  O  O13  1  0.31615869  0.31615869  0.69938907  1
loop_
_geom_bond_atom_site_label_1
_geom_bond_atom_site_label_2
_geom_bond_distance
_geom_bond_site_symmetry_2
Ag0 O7 2.124630 1_555
Ag0 O2 2.124630 1_555
Ag0 O11 2.551024 1_445
Ag0 O13 2.551024 1_554
Ag0 O8 2.551024 1_454
Ag0 O3 2.551024 1_545
Ag0 O12 2.551025 1_544
Ag0 O0 2.551025 1_455
Ag1 O2 2.193997 1_655
Ag1 O7 2.193997 1_555
Ag1 O10 2.434757 1_554
Ag1 O4 2.434757 1_545
Ag1 O9 2.434757 1_545
Ag1 O1 2.434757 1_554
Ag1 O0 2.678447 1_555
Ag1 O12 2.678447 1_544
Ag2 O2 2.193997 1_565
Ag2 O7 2.193997 1_555
Ag2 O5 2.434757 1_455
Ag2 O6 2.434757 1_554
Ag2 O10 2.434758 1_554
Ag2 O4 2.434758 1_455
Ag2 O8 2.678447 1_454
Ag2 O3 2.678447 1_555
Ag3 O2 2.193997 1_556
Ag3 O7 2.193997 1_555
Ag3 O5 2.434757 1_455
Ag3 O6 2.434757 1_545
Ag3 O9 2.434758 1_545
Ag3 O1 2.434758 1_455
Ag3 O13 2.678447 1_555
Ag3 O11 2.678447 1_445
O0 Ru1 1.881494 1_555
O0 Ru0 1.881494 1_555
O1 Ru1 1.934481 1_555
O1 Pt0 1.999927 1_555
O3 Ru2 1.881494 1_555
O3 Ru0 1.881495 1_555
O4 Ru0 1.934481 1_555
O4 Pt0 1.999927 1_555
O5 Ru2 1.934481 1_655
O5 Pt0 1.999927 1_555
O6 Ru2 1.934481 1_555
O6 Pt0 1.999927 1_555
O8 Ru2 1.881494 1_655
O8 Ru0 1.881495 1_556
O9 Ru1 1.934481 1_565
O9 Pt0 1.999927 1_555
O10 Ru0 1.934481 1_556
O10 Pt0 1.999927 1_555
O11 Ru2 1.881495 1_655
O11 Ru1 1.881495 1_565
O12 Ru1 1.881494 1_565
O12 Ru0 1.881494 1_556
O13 Ru2 1.881495 1_555
O13 Ru1 1.881495 1_555
