# generated using pymatgen
data_Sc4Zn(SiIr)6
_symmetry_space_group_name_H-M   'P 1'
_cell_length_a   6.94838989
_cell_length_b   6.94838913
_cell_length_c   6.94839019
_cell_angle_alpha   109.62210334
_cell_angle_beta   109.62210138
_cell_angle_gamma   109.16987844
_symmetry_Int_Tables_number   1
_chemical_formula_structural   Sc4Zn(SiIr)6
_chemical_formula_sum   'Sc4 Zn1 Si6 Ir6'
_cell_volume   258.23886629
_cell_formula_units_Z   1
loop_
 _symmetry_equiv_pos_site_id
 _symmetry_equiv_pos_as_xyz
  1  'x, y, z'
loop_
 _atom_site_type_symbol
 _atom_site_label
 _atom_site_symmetry_multiplicity
 _atom_site_fract_x
 _atom_site_fract_y
 _atom_site_fract_z
 _atom_site_occupancy
  Sc  Sc0  1  0.00335334  0.99664666  0.50000000  1
  Sc  Sc1  1  0.00335334  0.50335334  0.00670669  1
  Sc  Sc2  1  0.49664666  0.99664666  0.99329331  1
  Sc  Sc3  1  0.49664666  0.50335334  0.50000000  1
  Zn  Zn0  1  0.75000000  0.25000000  0.50000000  1
  Si  Si0  1  0.67801864  0.67801864  1.00000000  1
  Si  Si1  1  0.30505051  0.99151032  0.31354018  1
  Si  Si2  1  0.00848968  0.32203086  0.31354018  1
  Si  Si3  1  0.32198136  0.32198136  0.00000000  1
  Si  Si4  1  0.67796914  0.99151032  0.68645982  1
  Si  Si5  1  0.00848968  0.69494949  0.68645982  1
  Ir  Ir0  1  0.74616264  0.49026281  0.25589983  1
  Ir  Ir1  1  0.50973719  0.25383736  0.74410017  1
  Ir  Ir2  1  0.23436298  0.49026281  0.74410017  1
  Ir  Ir3  1  0.25000000  0.75000000  0.50000000  1
  Ir  Ir4  1  0.50973719  0.76563702  0.25589983  1
  Ir  Ir5  1  0.00000000  0.00000000  0.00000000  1
loop_
_geom_bond_atom_site_label_1
_geom_bond_atom_site_label_2
_geom_bond_distance
_geom_bond_site_symmetry_2
Sc0 Si5 2.813638 1_555
Sc0 Si1 2.813638 1_555
Sc0 Zn0 2.869362 1_465
Sc0 Si3 2.890363 1_566
Sc0 Si0 2.890363 1_454
Sc0 Si2 2.955825 1_565
Sc0 Si4 2.955825 1_455
Sc1 Si2 2.813633 1_555
Sc1 Si1 2.813638 1_555
Sc1 Zn0 2.869362 1_454
Sc1 Si3 2.890363 1_555
Sc1 Si0 2.890363 1_454
Sc1 Si5 2.955818 1_554
Sc1 Si4 2.955819 1_444
Sc2 Si4 2.813633 1_555
Sc2 Si5 2.813638 1_555
Sc2 Zn0 2.869362 1_566
Sc2 Si3 2.890363 1_566
Sc2 Si0 2.890363 1_555
Sc2 Si1 2.955818 1_556
Sc2 Si2 2.955819 1_666
Sc3 Si4 2.813639 1_555
Sc3 Si2 2.813639 1_555
Sc3 Zn0 2.869362 1_555
Sc3 Si3 2.890363 1_555
Sc3 Si0 2.890363 1_555
Sc3 Si1 2.955818 1_545
Sc3 Si5 2.955818 1_655
Si1 Zn0 2.561839 1_565
Si2 Zn0 2.561840 1_455
Si4 Zn0 2.561840 1_565
Si5 Zn0 2.561839 1_455
Ir0 Si3 2.456895 1_555
Ir0 Si2 2.464282 1_655
Ir0 Si5 2.464288 1_655
Ir0 Si0 2.546761 1_554
Ir0 Zn0 2.750475 1_555
Ir0 Sc2 2.804606 1_544
Ir0 Sc3 2.804606 1_555
Ir0 Sc0 2.877005 1_655
Ir0 Sc1 2.877005 1_655
Ir1 Si0 2.456894 1_555
Ir1 Si4 2.464282 1_545
Ir1 Si1 2.464288 1_545
Ir1 Si3 2.546762 1_556
Ir1 Zn0 2.750475 1_555
Ir1 Sc3 2.804606 1_555
Ir1 Sc1 2.804606 1_656
Ir1 Sc2 2.877005 1_545
Ir1 Sc0 2.877005 1_545
Ir2 Si3 2.456895 1_556
Ir2 Si5 2.464288 1_555
Ir2 Si2 2.464289 1_555
Ir2 Si0 2.546762 1_555
Ir2 Zn0 2.750475 1_455
Ir2 Sc0 2.804606 1_545
Ir2 Sc1 2.804606 1_556
Ir2 Sc2 2.877005 1_555
Ir2 Sc3 2.877005 1_555
Ir3 Si2 2.452022 1_555
Ir3 Si4 2.452022 1_555
Ir3 Si1 2.452028 1_555
Ir3 Si5 2.452028 1_555
Ir3 Sc3 2.793405 1_555
Ir3 Sc0 2.793405 1_555
Ir3 Sc2 2.793405 1_555
Ir3 Sc1 2.793405 1_555
Ir4 Si0 2.456895 1_554
Ir4 Si1 2.464288 1_555
Ir4 Si4 2.464289 1_555
Ir4 Si3 2.546761 1_555
Ir4 Zn0 2.750475 1_565
Ir4 Sc2 2.804606 1_554
Ir4 Sc0 2.804606 1_655
Ir4 Sc3 2.877005 1_555
Ir4 Sc1 2.877005 1_555
Ir5 Si5 2.511874 1_544
Ir5 Si1 2.511874 1_545
Ir5 Si2 2.511878 1_555
Ir5 Si4 2.511878 1_444
Ir5 Si3 2.592954 1_555
Ir5 Si0 2.592954 1_444
