# generated using pymatgen
data_ZrBe8CrOs2
_symmetry_space_group_name_H-M   'P 1'
_cell_length_a   4.40262696
_cell_length_b   4.40262743
_cell_length_c   7.34753294
_cell_angle_alpha   90.00000000
_cell_angle_beta   90.00000000
_cell_angle_gamma   120.00000396
_symmetry_Int_Tables_number   1
_chemical_formula_structural   ZrBe8CrOs2
_chemical_formula_sum   'Zr1 Be8 Cr1 Os2'
_cell_volume   123.33773798
_cell_formula_units_Z   1
loop_
 _symmetry_equiv_pos_site_id
 _symmetry_equiv_pos_as_xyz
  1  'x, y, z'
loop_
 _atom_site_type_symbol
 _atom_site_label
 _atom_site_symmetry_multiplicity
 _atom_site_fract_x
 _atom_site_fract_y
 _atom_site_fract_z
 _atom_site_occupancy
  Zr  Zr0  1  0.33333300  0.66666700  0.06146379  1
  Be  Be0  1  0.16822849  0.33645699  0.73897123  1
  Be  Be1  1  0.16822849  0.83177151  0.73897123  1
  Be  Be2  1  0.33688605  0.16844403  0.26813459  1
  Be  Be3  1  0.83155597  0.66311395  0.26813459  1
  Be  Be4  1  0.00000000  0.00000000  0.98787327  1
  Be  Be5  1  0.66354301  0.83177151  0.73897123  1
  Be  Be6  1  0.83155597  0.16844403  0.26813459  1
  Be  Be7  1  0.00000000  0.00000000  0.50371964  1
  Cr  Cr0  1  0.66666700  0.33333300  0.56611300  1
  Os  Os0  1  0.33333300  0.66666700  0.43887910  1
  Os  Os1  1  0.66666700  0.33333300  0.92063377  1
loop_
_geom_bond_atom_site_label_1
_geom_bond_atom_site_label_2
_geom_bond_distance
_geom_bond_site_symmetry_2
Be0 Be7 2.152546 1_555
Be0 Be5 2.180685 1_555
Be0 Be1 2.180685 1_555
Be0 Be5 2.221942 1_445
Be0 Be1 2.221942 1_545
Be0 Be4 2.233885 1_555
Be0 Os0 2.539070 1_555
Be0 Cr0 2.541460 1_455
Be0 Cr0 2.541464 1_555
Be0 Os1 2.574399 1_455
Be0 Os1 2.574402 1_555
Be0 Zr0 2.683241 1_556
Be1 Be7 2.152546 1_565
Be1 Be5 2.180685 1_555
Be1 Be5 2.221942 1_455
Be1 Be4 2.233885 1_565
Be1 Os0 2.539069 1_555
Be1 Cr0 2.541462 1_455
Be1 Cr0 2.541462 1_565
Be1 Os1 2.574400 1_455
Be1 Os1 2.574400 1_565
Be1 Zr0 2.683239 1_556
Be2 Be7 2.155488 1_555
Be2 Be3 2.177847 1_555
Be2 Be6 2.177847 1_555
Be2 Be3 2.224780 1_445
Be2 Be6 2.224780 1_455
Be2 Be4 2.426994 1_554
Be2 Cr0 2.524780 1_555
Be2 Os0 2.533743 1_555
Be2 Os0 2.533747 1_545
Be2 Zr0 2.674296 1_555
Be2 Zr0 2.674300 1_545
Be2 Os1 2.846089 1_554
Be3 Be7 2.155488 1_665
Be3 Be6 2.177847 1_555
Be3 Be6 2.224780 1_565
Be3 Be4 2.426994 1_664
Be3 Cr0 2.524780 1_555
Be3 Os0 2.533743 1_555
Be3 Os0 2.533747 1_655
Be3 Zr0 2.674296 1_555
Be3 Zr0 2.674300 1_655
Be3 Os1 2.846089 1_554
Be4 Be5 2.233885 1_445
Be4 Be6 2.426998 1_456
Be4 Os1 2.589423 1_455
Be4 Os1 2.589426 1_555
Be4 Os1 2.589426 1_445
Be4 Zr0 2.598730 1_546
Be4 Zr0 2.598733 1_446
Be4 Zr0 2.598733 1_556
Be5 Be7 2.152546 1_665
Be5 Os0 2.539070 1_555
Be5 Cr0 2.541460 1_565
Be5 Cr0 2.541464 1_555
Be5 Os1 2.574399 1_565
Be5 Os1 2.574403 1_555
Be5 Zr0 2.683240 1_556
Be6 Be7 2.155493 1_655
Be6 Cr0 2.524775 1_555
Be6 Os0 2.533745 1_655
Be6 Os0 2.533745 1_545
Be6 Zr0 2.674298 1_655
Be6 Zr0 2.674298 1_545
Be6 Os1 2.846084 1_554
Be7 Cr0 2.582865 1_455
Be7 Cr0 2.582869 1_555
Be7 Cr0 2.582869 1_445
Be7 Os0 2.586117 1_545
Be7 Os0 2.586121 1_445
Be7 Os0 2.586121 1_555
Cr0 Os1 2.604853 1_555
Cr0 Os0 2.708317 1_655
Cr0 Os0 2.708318 1_545
Cr0 Os0 2.708325 1_555
Os0 Zr0 2.773071 1_555
Os1 Zr0 2.744402 1_656
Os1 Zr0 2.744402 1_546
Os1 Zr0 2.744409 1_556
