# generated using pymatgen
data_Na2NiMoF7
_symmetry_space_group_name_H-M   'P 1'
_cell_length_a   7.36189553
_cell_length_b   7.36189492
_cell_length_c   7.36189530
_cell_angle_alpha   119.87664834
_cell_angle_beta   119.85149110
_cell_angle_gamma   90.23559835
_symmetry_Int_Tables_number   1
_chemical_formula_structural   Na2NiMoF7
_chemical_formula_sum   'Na4 Ni2 Mo2 F14'
_cell_volume   282.71007847
_cell_formula_units_Z   2
loop_
 _symmetry_equiv_pos_site_id
 _symmetry_equiv_pos_as_xyz
  1  'x, y, z'
loop_
 _atom_site_type_symbol
 _atom_site_label
 _atom_site_symmetry_multiplicity
 _atom_site_fract_x
 _atom_site_fract_y
 _atom_site_fract_z
 _atom_site_occupancy
  Na  Na0  1  0.50000000  0.00000000  0.00000000  1
  Na  Na1  1  0.50000000  0.50000000  0.50000000  1
  Na  Na2  1  0.00000000  0.00000000  0.00000000  1
  Na  Na3  1  0.50000000  0.50000000  0.00000000  1
  Ni  Ni0  1  0.00000000  0.00000000  0.50000000  1
  Ni  Ni1  1  0.00000000  0.50000000  0.00000000  1
  Mo  Mo0  1  0.50000000  0.00000000  0.50000000  1
  Mo  Mo1  1  0.00000000  0.50000000  0.50000000  1
  F  F0  1  0.08018116  0.25000000  0.83018116  1
  F  F1  1  0.91981884  0.75000000  0.16981884  1
  F  F2  1  0.65829862  0.39720299  0.26109463  1
  F  F3  1  0.34170138  0.60279701  0.73890537  1
  F  F4  1  0.63610937  0.89720299  0.73890537  1
  F  F5  1  0.36389063  0.10279701  0.26109463  1
  F  F6  1  0.93658265  0.16433672  0.33752213  1
  F  F7  1  0.06341735  0.40093948  0.22775407  1
  F  F8  1  0.32681459  0.66433672  0.22775407  1
  F  F9  1  0.67318541  0.90093948  0.33752213  1
  F  F10  1  0.06341735  0.83566328  0.66247787  1
  F  F11  1  0.93658265  0.59906052  0.77224593  1
  F  F12  1  0.67318541  0.33566328  0.77224593  1
  F  F13  1  0.32681459  0.09906052  0.66247787  1
loop_
_geom_bond_atom_site_label_1
_geom_bond_atom_site_label_2
_geom_bond_distance
_geom_bond_site_symmetry_2
F0 Ni1 1.936488 1_556
F0 Ni0 1.936488 1_555
F1 Ni1 1.936488 1_655
F1 Ni0 1.936488 1_665
F2 Mo1 2.061059 1_655
F2 Na3 2.202724 1_555
F2 Na0 2.397042 1_555
F2 Na1 2.397048 1_555
F3 Mo1 2.061059 1_555
F3 Na3 2.202724 1_556
F3 Na0 2.397042 1_566
F3 Na1 2.397048 1_555
F4 Mo0 2.061065 1_565
F4 Na2 2.202718 1_666
F4 Na1 2.397042 1_555
F4 Na0 2.397047 1_566
F5 Mo0 2.061065 1_555
F5 Na2 2.202718 1_555
F5 Na1 2.397042 1_555
F5 Na0 2.397047 1_555
F6 Ni0 2.000715 1_655
F6 Mo1 2.060326 1_655
F6 Na2 2.453660 1_655
F6 Na0 2.644013 1_555
F7 Ni1 2.000715 1_555
F7 Mo1 2.060326 1_555
F7 Na2 2.453660 1_555
F7 Na1 2.644013 1_555
F8 Ni1 2.000715 1_555
F8 Mo0 2.060326 1_565
F8 Na3 2.453660 1_555
F8 Na1 2.644012 1_555
F9 Ni0 2.000715 1_665
F9 Mo0 2.060326 1_565
F9 Na3 2.453660 1_555
F9 Na0 2.644012 1_565
F10 Ni0 2.000715 1_565
F10 Mo1 2.060326 1_555
F10 Na2 2.453660 1_566
F10 Na0 2.644013 1_566
F11 Ni1 2.000715 1_656
F11 Mo1 2.060326 1_655
F11 Na2 2.453660 1_666
F11 Na1 2.644013 1_555
F12 Ni1 2.000715 1_656
F12 Mo0 2.060326 1_555
F12 Na3 2.453660 1_556
F12 Na1 2.644012 1_555
F13 Ni0 2.000715 1_555
F13 Mo0 2.060326 1_555
F13 Na3 2.453660 1_556
F13 Na0 2.644012 1_556
