# generated using pymatgen
data_Sr3LiFeO6
_symmetry_space_group_name_H-M   'P 1'
_cell_length_a   6.57415905
_cell_length_b   6.57415851
_cell_length_c   6.57415895
_cell_angle_alpha   92.45482917
_cell_angle_beta   92.45483398
_cell_angle_gamma   92.45484035
_symmetry_Int_Tables_number   1
_chemical_formula_structural   Sr3LiFeO6
_chemical_formula_sum   'Sr6 Li2 Fe2 O12'
_cell_volume   283.32692397
_cell_formula_units_Z   2
loop_
 _symmetry_equiv_pos_site_id
 _symmetry_equiv_pos_as_xyz
  1  'x, y, z'
loop_
 _atom_site_type_symbol
 _atom_site_label
 _atom_site_symmetry_multiplicity
 _atom_site_fract_x
 _atom_site_fract_y
 _atom_site_fract_z
 _atom_site_occupancy
  Sr  Sr0  1  0.88979196  0.61020804  0.25000000  1
  Sr  Sr1  1  0.61020804  0.25000000  0.88979196  1
  Sr  Sr2  1  0.75000000  0.11020804  0.38979196  1
  Sr  Sr3  1  0.38979196  0.75000000  0.11020804  1
  Sr  Sr4  1  0.11020804  0.38979196  0.75000000  1
  Sr  Sr5  1  0.25000000  0.88979196  0.61020804  1
  Li  Li0  1  0.25000000  0.25000000  0.25000000  1
  Li  Li1  1  0.75000000  0.75000000  0.75000000  1
  Fe  Fe0  1  0.00000000  0.00000000  0.00000000  1
  Fe  Fe1  1  0.50000000  0.50000000  0.50000000  1
  O  O0  1  0.77040933  0.45413871  0.58282905  1
  O  O1  1  0.91717095  0.04586129  0.72959067  1
  O  O2  1  0.72959067  0.91717095  0.04586129  1
  O  O3  1  0.04586129  0.72959067  0.91717095  1
  O  O4  1  0.58282905  0.77040933  0.45413871  1
  O  O5  1  0.45413871  0.58282905  0.77040933  1
  O  O6  1  0.41717095  0.22959067  0.54586129  1
  O  O7  1  0.54586129  0.41717095  0.22959067  1
  O  O8  1  0.95413871  0.27040933  0.08282905  1
  O  O9  1  0.27040933  0.08282905  0.95413871  1
  O  O10  1  0.08282905  0.95413871  0.27040933  1
  O  O11  1  0.22959067  0.54586129  0.41717095  1
loop_
_geom_bond_atom_site_label_1
_geom_bond_atom_site_label_2
_geom_bond_distance
_geom_bond_site_symmetry_2
Li0 O10 2.204738 1_545
Li0 O7 2.204738 1_555
Li0 O11 2.204738 1_555
Li0 O6 2.204738 1_555
Li0 O8 2.204738 1_455
Li0 O9 2.204738 1_554
Li1 O1 2.204738 1_565
Li1 O5 2.204738 1_555
Li1 O0 2.204738 1_555
Li1 O4 2.204738 1_555
Li1 O3 2.204738 1_655
Li1 O2 2.204738 1_556
Fe0 O9 1.877428 1_554
Fe0 O2 1.877428 1_445
Fe0 O8 1.877428 1_455
Fe0 O3 1.877428 1_544
Fe0 O10 1.877428 1_545
Fe0 O1 1.877428 1_454
Fe1 O4 1.877428 1_555
Fe1 O6 1.877428 1_555
Fe1 O0 1.877428 1_555
Fe1 O11 1.877428 1_555
Fe1 O5 1.877428 1_555
Fe1 O7 1.877428 1_555
O0 Sr4 2.507490 1_655
O0 Sr2 2.540570 1_555
O0 Sr0 2.593607 1_555
O0 Sr1 2.697347 1_555
O1 Sr2 2.507490 1_555
O1 Sr4 2.540570 1_655
O1 Sr5 2.593608 1_645
O1 Sr1 2.697347 1_555
O2 Sr3 2.507490 1_555
O2 Sr2 2.540570 1_565
O2 Sr1 2.593607 1_564
O2 Sr0 2.697347 1_555
O3 Sr4 2.507490 1_555
O3 Sr3 2.540570 1_556
O3 Sr0 2.593607 1_456
O3 Sr5 2.697347 1_555
O4 Sr2 2.507490 1_565
O4 Sr3 2.540570 1_555
O4 Sr5 2.593607 1_555
O4 Sr0 2.697347 1_555
O5 Sr3 2.507490 1_556
O5 Sr4 2.540570 1_555
O5 Sr1 2.593607 1_555
O5 Sr5 2.697347 1_555
O6 Sr5 2.507490 1_545
O6 Sr1 2.540570 1_555
O6 Sr2 2.593607 1_555
O6 Sr4 2.697347 1_555
O7 Sr1 2.507490 1_554
O7 Sr0 2.540570 1_555
O7 Sr3 2.593607 1_555
O7 Sr2 2.697347 1_555
O8 Sr0 2.507490 1_555
O8 Sr1 2.540570 1_554
O8 Sr4 2.593607 1_654
O8 Sr2 2.697347 1_555
O9 Sr1 2.507490 1_555
O9 Sr5 2.540570 1_545
O9 Sr3 2.593607 1_546
O9 Sr4 2.697347 1_555
O10 Sr5 2.507490 1_555
O10 Sr0 2.540570 1_455
O10 Sr2 2.593608 1_465
O10 Sr3 2.697347 1_555
O11 Sr0 2.507490 1_455
O11 Sr5 2.540570 1_555
O11 Sr4 2.593607 1_555
O11 Sr3 2.697347 1_555
