# generated using pymatgen
data_CsNb2ReSe6
_symmetry_space_group_name_H-M   'P 1'
_cell_length_a   5.93071057
_cell_length_b   5.93071175
_cell_length_c   18.98194977
_cell_angle_alpha   90.00000000
_cell_angle_beta   90.00000000
_cell_angle_gamma   119.99999896
_symmetry_Int_Tables_number   1
_chemical_formula_structural   CsNb2ReSe6
_chemical_formula_sum   'Cs2 Nb4 Re2 Se12'
_cell_volume   578.20920631
_cell_formula_units_Z   2
loop_
 _symmetry_equiv_pos_site_id
 _symmetry_equiv_pos_as_xyz
  1  'x, y, z'
loop_
 _atom_site_type_symbol
 _atom_site_label
 _atom_site_symmetry_multiplicity
 _atom_site_fract_x
 _atom_site_fract_y
 _atom_site_fract_z
 _atom_site_occupancy
  Cs  Cs0  1  0.00000000  0.00000000  0.00000000  1
  Cs  Cs1  1  0.00000000  0.00000000  0.50000000  1
  Nb  Nb0  1  0.33333300  0.66666700  0.25000000  1
  Nb  Nb1  1  0.66666700  0.33333300  0.75000000  1
  Nb  Nb2  1  0.66666700  0.33333300  0.25000000  1
  Nb  Nb3  1  0.33333300  0.66666700  0.75000000  1
  Re  Re0  1  0.00000000  0.00000000  0.75000000  1
  Re  Re1  1  0.00000000  0.00000000  0.25000000  1
  Se  Se0  1  0.32536463  1.00000000  0.16301897  1
  Se  Se1  1  0.00000000  0.32536463  0.16301897  1
  Se  Se2  1  0.67463537  0.67463537  0.16301897  1
  Se  Se3  1  0.32536463  0.32536463  0.66301897  1
  Se  Se4  1  0.67463537  0.67463537  0.33698103  1
  Se  Se5  1  0.67463537  0.00000000  0.66301897  1
  Se  Se6  1  1.00000000  0.67463537  0.66301897  1
  Se  Se7  1  1.00000000  0.67463537  0.83698103  1
  Se  Se8  1  0.32536463  0.32536463  0.83698103  1
  Se  Se9  1  0.00000000  0.32536463  0.33698103  1
  Se  Se10  1  0.32536463  1.00000000  0.33698103  1
  Se  Se11  1  0.67463537  0.00000000  0.83698103  1
loop_
_geom_bond_atom_site_label_1
_geom_bond_atom_site_label_2
_geom_bond_distance
_geom_bond_site_symmetry_2
Cs0 Se0 3.646772 1_545
Cs0 Se11 3.646772 1_454
Cs0 Se2 3.646772 1_445
Cs0 Se8 3.646772 1_554
Cs0 Se1 3.646772 1_555
Cs0 Se7 3.646772 1_444
Cs1 Se5 3.646772 1_455
Cs1 Se10 3.646772 1_545
Cs1 Se3 3.646772 1_555
Cs1 Se4 3.646772 1_445
Cs1 Se6 3.646772 1_445
Cs1 Se9 3.646772 1_555
Nb0 Se10 2.594192 1_555
Nb0 Se0 2.594192 1_555
Nb0 Se9 2.594194 1_555
Nb0 Se1 2.594194 1_555
Nb0 Se4 2.594196 1_555
Nb0 Se2 2.594196 1_555
Nb1 Se11 2.594192 1_555
Nb1 Se5 2.594192 1_555
Nb1 Se7 2.594194 1_555
Nb1 Se6 2.594194 1_555
Nb1 Se8 2.594196 1_555
Nb1 Se3 2.594196 1_555
Nb2 Se9 2.594191 1_655
Nb2 Se1 2.594191 1_655
Nb2 Se10 2.594194 1_545
Nb2 Se0 2.594194 1_545
Nb2 Se4 2.594196 1_555
Nb2 Se2 2.594196 1_555
Nb3 Se7 2.594191 1_455
Nb3 Se6 2.594191 1_455
Nb3 Se11 2.594194 1_565
Nb3 Se5 2.594194 1_565
Nb3 Se8 2.594196 1_555
Nb3 Se3 2.594196 1_555
Re0 Se11 2.539597 1_455
Re0 Se5 2.539597 1_455
Re0 Se8 2.539597 1_555
Re0 Se3 2.539597 1_555
Re0 Se7 2.539598 1_445
Re0 Se6 2.539598 1_445
Re1 Se10 2.539597 1_545
Re1 Se0 2.539597 1_545
Re1 Se4 2.539597 1_445
Re1 Se2 2.539597 1_445
Re1 Se9 2.539598 1_555
Re1 Se1 2.539598 1_555
