# generated using pymatgen
data_Sr2Ni2Te(BrO3)2
_symmetry_space_group_name_H-M   'P 1'
_cell_length_a   5.26940934
_cell_length_b   9.44049108
_cell_length_c   9.12701321
_cell_angle_alpha   86.20413806
_cell_angle_beta   90.00000000
_cell_angle_gamma   90.00000000
_symmetry_Int_Tables_number   1
_chemical_formula_structural   Sr2Ni2Te(BrO3)2
_chemical_formula_sum   'Sr4 Ni4 Te2 Br4 O12'
_cell_volume   453.03465301
_cell_formula_units_Z   2
loop_
 _symmetry_equiv_pos_site_id
 _symmetry_equiv_pos_as_xyz
  1  'x, y, z'
loop_
 _atom_site_type_symbol
 _atom_site_label
 _atom_site_symmetry_multiplicity
 _atom_site_fract_x
 _atom_site_fract_y
 _atom_site_fract_z
 _atom_site_occupancy
  Sr  Sr0  1  0.10467169  0.81827671  0.27710063  1
  Sr  Sr1  1  0.60467169  0.68172329  0.72289937  1
  Sr  Sr2  1  0.39532831  0.31827671  0.27710063  1
  Sr  Sr3  1  0.89532831  0.18172329  0.72289937  1
  Ni  Ni0  1  0.49569822  0.63191772  0.07754270  1
  Ni  Ni1  1  0.00430178  0.13191772  0.07754270  1
  Ni  Ni2  1  0.50430178  0.36808228  0.92245730  1
  Ni  Ni3  1  0.99569822  0.86808228  0.92245730  1
  Te  Te0  1  0.00000000  0.50000000  0.00000000  1
  Te  Te1  1  0.50000000  0.00000000  0.00000000  1
  Br  Br0  1  0.61282958  0.66244494  0.37358318  1
  Br  Br1  1  0.88717042  0.16244494  0.37358318  1
  Br  Br2  1  0.11282958  0.83755506  0.62641682  1
  Br  Br3  1  0.38717042  0.33755506  0.62641682  1
  O  O0  1  0.31383357  0.55688406  0.89847114  1
  O  O1  1  0.16506775  0.55923002  0.17426815  1
  O  O2  1  0.18616643  0.05688406  0.89847114  1
  O  O3  1  0.83149230  0.68120790  0.96522540  1
  O  O4  1  0.83493225  0.44076998  0.82573185  1
  O  O5  1  0.81383357  0.94311594  0.10152886  1
  O  O6  1  0.68616643  0.44311594  0.10152886  1
  O  O7  1  0.66850770  0.18120790  0.96522540  1
  O  O8  1  0.66506775  0.94076998  0.82573185  1
  O  O9  1  0.16850770  0.31879210  0.03477460  1
  O  O10  1  0.33493225  0.05923002  0.17426815  1
  O  O11  1  0.33149230  0.81879210  0.03477460  1
loop_
_geom_bond_atom_site_label_1
_geom_bond_atom_site_label_2
_geom_bond_distance
_geom_bond_site_symmetry_2
Ni0 O11 1.980462 1_555
Ni0 O6 2.044620 1_555
Ni0 O1 2.050704 1_555
Ni0 O0 2.060256 1_554
Ni0 O3 2.082102 1_554
Ni1 O9 1.980462 1_555
Ni1 O5 2.044620 1_445
Ni1 O10 2.050704 1_555
Ni1 O2 2.060256 1_554
Ni1 O7 2.082102 1_454
Ni2 O7 1.980462 1_555
Ni2 O0 2.044620 1_555
Ni2 O4 2.050704 1_555
Ni2 O6 2.060256 1_556
Ni2 O9 2.082102 1_556
Ni3 O3 1.980462 1_555
Ni3 O2 2.044620 1_665
Ni3 O8 2.050704 1_555
Ni3 O5 2.060256 1_556
Ni3 O11 2.082102 1_656
Br0 Ni0 2.804946 1_555
Br0 Sr0 3.079796 1_655
Br0 Sr0 3.152488 1_555
Br0 Sr1 3.205698 1_555
Br0 Sr2 3.608960 1_555
Br1 Ni1 2.804946 1_655
Br1 Sr2 3.079796 1_555
Br1 Sr2 3.152488 1_655
Br1 Sr3 3.205698 1_555
Br1 Sr0 3.608960 1_645
Br2 Ni3 2.804946 1_455
Br2 Sr1 3.079796 1_555
Br2 Sr1 3.152488 1_455
Br2 Sr0 3.205698 1_555
Br2 Sr3 3.608960 1_465
Br3 Ni2 2.804946 1_555
Br3 Sr3 3.079796 1_455
Br3 Sr3 3.152488 1_555
Br3 Sr2 3.205698 1_555
Br3 Sr1 3.608960 1_555
O0 Te0 1.953450 1_556
O0 Sr1 2.460781 1_555
O1 Te0 1.927907 1_555
O1 Sr2 2.691605 1_555
O1 Sr0 2.695677 1_555
O2 Te1 1.953450 1_556
O2 Sr3 2.460781 1_455
O3 Te0 1.934875 1_656
O3 Sr1 2.513723 1_555
O4 Te0 1.927907 1_656
O4 Sr1 2.691605 1_555
O4 Sr3 2.695677 1_555
O5 Te1 1.953450 1_565
O5 Sr0 2.460781 1_655
O6 Te0 1.953450 1_655
O6 Sr2 2.460781 1_555
O7 Te1 1.934875 1_556
O7 Sr3 2.513723 1_555
O8 Te1 1.927907 1_566
O8 Sr3 2.691605 1_565
O8 Sr1 2.695677 1_555
O9 Te0 1.934875 1_555
O9 Sr2 2.513723 1_555
O10 Te1 1.927907 1_555
O10 Sr0 2.691605 1_545
O10 Sr2 2.695677 1_555
O11 Te1 1.934875 1_565
O11 Sr0 2.513723 1_555
