# generated using pymatgen
data_Rb4Al3GaI16
_symmetry_space_group_name_H-M   'P 1'
_cell_length_a   8.03850747
_cell_length_b   8.77745644
_cell_length_c   16.40601807
_cell_angle_alpha   86.40867446
_cell_angle_beta   89.99489252
_cell_angle_gamma   90.07254130
_symmetry_Int_Tables_number   1
_chemical_formula_structural   Rb4Al3GaI16
_chemical_formula_sum   'Rb4 Al3 Ga1 I16'
_cell_volume   1155.29591589
_cell_formula_units_Z   1
loop_
 _symmetry_equiv_pos_site_id
 _symmetry_equiv_pos_as_xyz
  1  'x, y, z'
loop_
 _atom_site_type_symbol
 _atom_site_label
 _atom_site_symmetry_multiplicity
 _atom_site_fract_x
 _atom_site_fract_y
 _atom_site_fract_z
 _atom_site_occupancy
  Rb  Rb0  1  0.50600719  0.25500648  0.63867219  1
  Rb  Rb1  1  0.00649470  0.74437146  0.86149522  1
  Rb  Rb2  1  0.49382065  0.74529767  0.36165686  1
  Rb  Rb3  1  0.99367708  0.25517380  0.13792883  1
  Al  Al0  1  0.35879466  0.25087971  0.36020046  1
  Al  Al1  1  0.85901806  0.74950550  0.13956022  1
  Al  Al2  1  0.64112870  0.74952842  0.63978562  1
  Ga  Ga0  1  0.14107882  0.25007950  0.86046907  1
  I  I0  1  0.85957767  0.14697325  0.91295139  1
  I  I1  1  0.36082970  0.85106252  0.58813480  1
  I  I2  1  0.13919909  0.85173053  0.08762232  1
  I  I3  1  0.63908429  0.14935230  0.41172441  1
  I  I4  1  0.40312313  0.40809901  0.22546450  1
  I  I5  1  0.90376982  0.59236032  0.27418016  1
  I  I6  1  0.59619372  0.59278432  0.77466546  1
  I  I7  1  0.09631325  0.40746337  0.72476651  1
  I  I8  1  0.65396877  0.96491651  0.16328737  1
  I  I9  1  0.15368481  0.03497678  0.33679518  1
  I  I10  1  0.34727411  0.03338930  0.83672333  1
  I  I11  1  0.84608815  0.96517934  0.66350282  1
  I  I12  1  0.23647182  0.42067146  0.46583090  1
  I  I13  1  0.73537035  0.57986474  0.03393605  1
  I  I14  1  0.76416265  0.57978965  0.53418042  1
  I  I15  1  0.26486983  0.42154205  0.96646589  1
loop_
_geom_bond_atom_site_label_1
_geom_bond_atom_site_label_2
_geom_bond_distance
_geom_bond_site_symmetry_2
Al0 I3 2.548774 1_555
Al0 I12 2.553066 1_555
Al0 I4 2.556173 1_555
Al0 I9 2.557460 1_555
Al1 I2 2.550000 1_655
Al1 I13 2.554945 1_555
Al1 I5 2.555297 1_555
Al1 I8 2.557997 1_555
Al2 I1 2.549505 1_555
Al2 I14 2.554690 1_555
Al2 I11 2.556035 1_555
Al2 I6 2.556794 1_555
Ga0 I0 2.564711 1_455
Ga0 I15 2.569770 1_555
Ga0 I7 2.571094 1_555
Ga0 I10 2.572419 1_555
I0 Rb1 3.870324 1_645
I0 Rb3 4.015546 1_556
I1 Rb0 3.870221 1_565
I1 Rb2 4.030424 1_555
I2 Rb3 3.868612 1_465
I2 Rb1 4.028030 1_554
I3 Rb2 3.869245 1_545
I3 Rb0 4.037546 1_555
I4 Rb3 3.863704 1_455
I4 Rb2 3.886823 1_555
I5 Rb2 3.869486 1_555
I5 Rb3 3.887479 1_555
I6 Rb1 3.860700 1_655
I6 Rb0 3.888082 1_555
I7 Rb0 3.857321 1_555
I7 Rb1 3.890281 1_555
I8 Rb3 3.737692 1_565
I8 Rb2 3.895096 1_555
I9 Rb2 3.740997 1_545
I9 Rb3 3.905331 1_455
I10 Rb1 3.736022 1_545
I10 Rb0 3.894959 1_555
I11 Rb0 3.741516 1_565
I11 Rb1 3.897255 1_655
I12 Rb0 3.787113 1_555
I12 Rb2 3.833259 1_555
I13 Rb1 3.783876 1_654
I13 Rb3 3.840701 1_555
I14 Rb2 3.786592 1_555
I14 Rb0 3.839821 1_555
I15 Rb3 3.778109 1_456
I15 Rb1 3.835769 1_555
