# generated using pymatgen
data_Mn6In5SbRh12
_symmetry_space_group_name_H-M   'P 1'
_cell_length_a   4.42344449
_cell_length_b   6.26155418
_cell_length_c   13.26789337
_cell_angle_alpha   90.00000000
_cell_angle_beta   89.99968092
_cell_angle_gamma   90.00005229
_symmetry_Int_Tables_number   1
_chemical_formula_structural   Mn6In5SbRh12
_chemical_formula_sum   'Mn6 In5 Sb1 Rh12'
_cell_volume   367.48929862
_cell_formula_units_Z   1
loop_
 _symmetry_equiv_pos_site_id
 _symmetry_equiv_pos_as_xyz
  1  'x, y, z'
loop_
 _atom_site_type_symbol
 _atom_site_label
 _atom_site_symmetry_multiplicity
 _atom_site_fract_x
 _atom_site_fract_y
 _atom_site_fract_z
 _atom_site_occupancy
  Mn  Mn0  1  0.00000000  0.50000100  0.00000000  1
  Mn  Mn1  1  0.49996905  1.00000000  0.17120082  1
  Mn  Mn2  1  0.99989976  0.50000100  0.33325066  1
  Mn  Mn3  1  0.50000000  0.00000000  0.50000000  1
  Mn  Mn4  1  0.00010024  0.50000100  0.66674934  1
  Mn  Mn5  1  0.50002995  0.00000000  0.82880018  1
  In  In0  1  0.49989813  0.50000100  0.16664444  1
  In  In1  1  0.99989033  0.00000000  0.33372368  1
  In  In2  1  0.50000000  0.50000100  0.50000000  1
  In  In3  1  0.00011167  1.00000000  0.66627532  1
  In  In4  1  0.50010187  0.50000100  0.83335556  1
  Sb  Sb0  1  0.00000000  0.00000000  0.00000000  1
  Rh  Rh0  1  0.50000000  0.24212184  0.00000000  1
  Rh  Rh1  1  0.50000000  0.75787716  1.00000000  1
  Rh  Rh2  1  0.99992742  0.24601921  0.16272719  1
  Rh  Rh3  1  0.99992742  0.75398079  0.16272719  1
  Rh  Rh4  1  0.49989756  0.25066968  0.33274516  1
  Rh  Rh5  1  0.49989656  0.74933032  0.33274516  1
  Rh  Rh6  1  1.00000000  0.25037242  0.50000000  1
  Rh  Rh7  1  0.00000000  0.74962758  0.50000000  1
  Rh  Rh8  1  0.50010544  0.25066968  0.66725484  1
  Rh  Rh9  1  0.50010444  0.74933032  0.66725484  1
  Rh  Rh10  1  0.00007258  0.24601921  0.83727181  1
  Rh  Rh11  1  0.00007258  0.75398079  0.83727181  1
loop_
_geom_bond_atom_site_label_1
_geom_bond_atom_site_label_2
_geom_bond_distance
_geom_bond_site_symmetry_2
Mn0 Rh3 2.681523 1_455
Mn0 Rh2 2.681530 1_455
Mn0 Rh11 2.681533 1_554
Mn0 Rh10 2.681541 1_554
Mn0 Rh1 2.738427 1_554
Mn0 Rh1 2.738429 1_454
Mn0 Rh0 2.738438 1_455
Mn0 Rh0 2.738441 1_555
Mn1 Rh4 2.656605 1_565
Mn1 Rh5 2.656605 1_555
Mn1 Rh2 2.697509 1_565
Mn1 Rh3 2.697512 1_555
Mn1 Rh3 2.697812 1_455
Mn1 Rh2 2.697815 1_465
Mn1 Rh0 2.730939 1_565
Mn1 Rh1 2.730943 1_554
Mn2 Rh5 2.707213 1_655
Mn2 Rh4 2.707226 1_655
Mn2 Rh5 2.707239 1_555
Mn2 Rh4 2.707240 1_555
Mn2 Rh7 2.708855 1_655
Mn2 Rh6 2.708862 1_555
Mn2 Rh3 2.765489 1_555
Mn2 Rh2 2.765496 1_555
Mn3 Rh6 2.710988 1_555
Mn3 Rh7 2.710988 1_545
Mn3 Rh6 2.710990 1_455
Mn3 Rh7 2.710990 1_645
Mn3 Rh4 2.718102 1_555
Mn3 Rh5 2.718102 1_545
Mn3 Rh9 2.718102 1_545
Mn3 Rh8 2.718102 1_555
Mn4 Rh9 2.707212 1_455
Mn4 Rh8 2.707213 1_455
Mn4 Rh9 2.707240 1_555
Mn4 Rh8 2.707253 1_555
Mn4 Rh7 2.708855 1_555
Mn4 Rh6 2.708862 1_455
Mn4 Rh11 2.765478 1_555
Mn4 Rh10 2.765485 1_555
Mn5 Rh9 2.656616 1_545
Mn5 Rh8 2.656616 1_555
Mn5 Rh11 2.697505 1_545
Mn5 Rh10 2.697507 1_555
Mn5 Rh10 2.697815 1_655
Mn5 Rh11 2.697817 1_645
Mn5 Rh0 2.730928 1_556
Mn5 Rh1 2.730932 1_545
In0 Rh5 2.700755 1_555
In0 Rh4 2.700762 1_555
In0 Rh3 2.724506 1_455
In0 Rh2 2.724511 1_455
In0 Rh3 2.724713 1_555
In0 Rh2 2.724723 1_555
In0 Rh1 2.737862 1_554
In0 Rh0 2.737873 1_555
In1 Rh6 2.706434 1_555
In1 Rh7 2.706434 1_645
In1 Rh4 2.712072 1_555
In1 Rh5 2.712074 1_545
In1 Rh5 2.712121 1_645
In1 Rh4 2.712122 1_655
In1 Rh2 2.742319 1_555
In1 Rh3 2.742319 1_545
In2 Rh7 2.708290 1_655
In2 Rh7 2.708292 1_555
In2 Rh6 2.708297 1_455
In2 Rh6 2.708300 1_555
In2 Rh5 2.713264 1_555
In2 Rh9 2.713264 1_555
In2 Rh4 2.713271 1_555
In2 Rh8 2.713271 1_555
In3 Rh7 2.706423 1_555
In3 Rh6 2.706423 1_465
In3 Rh9 2.712072 1_555
In3 Rh8 2.712074 1_565
In3 Rh8 2.712121 1_465
In3 Rh9 2.712122 1_455
In3 Rh11 2.742319 1_555
In3 Rh10 2.742319 1_565
In4 Rh9 2.700755 1_555
In4 Rh8 2.700762 1_555
In4 Rh11 2.724503 1_655
In4 Rh10 2.724513 1_655
In4 Rh11 2.724715 1_555
In4 Rh10 2.724720 1_555
In4 Rh1 2.737862 1_555
In4 Rh0 2.737873 1_556
Rh0 Sb0 2.681444 1_555
Rh0 Sb0 2.681447 1_655
Rh1 Sb0 2.681448 1_666
Rh1 Sb0 2.681450 1_566
Rh2 Sb0 2.652265 1_655
Rh3 Sb0 2.652265 1_665
Rh10 Sb0 2.652276 1_556
Rh11 Sb0 2.652276 1_566
