# generated using pymatgen
data_Sr(CaP)2
_symmetry_space_group_name_H-M   'P 1'
_cell_length_a   4.70549692
_cell_length_b   4.70549631
_cell_length_c   7.49143907
_cell_angle_alpha   90.00000000
_cell_angle_beta   90.00000000
_cell_angle_gamma   119.99999029
_symmetry_Int_Tables_number   1
_chemical_formula_structural   Sr(CaP)2
_chemical_formula_sum   'Sr1 Ca2 P2'
_cell_volume   143.65040563
_cell_formula_units_Z   1
loop_
 _symmetry_equiv_pos_site_id
 _symmetry_equiv_pos_as_xyz
  1  'x, y, z'
loop_
 _atom_site_type_symbol
 _atom_site_label
 _atom_site_symmetry_multiplicity
 _atom_site_fract_x
 _atom_site_fract_y
 _atom_site_fract_z
 _atom_site_occupancy
  Sr  Sr0  1  0.00000000  0.00000000  0.00000000  1
  Ca  Ca0  1  0.33333300  0.66666700  0.64685751  1
  Ca  Ca1  1  0.66666700  0.33333300  0.35314249  1
  P  P0  1  0.66666700  0.33333300  0.75451958  1
  P  P1  1  0.33333300  0.66666700  0.24548042  1
loop_
_geom_bond_atom_site_label_1
_geom_bond_atom_site_label_2
_geom_bond_distance
_geom_bond_site_symmetry_2
Ca0 P0 2.833913 1_565
Ca0 P0 2.833914 1_455
Ca0 P0 2.833921 1_555
Ca0 P1 3.006892 1_555
Ca1 P1 2.833913 1_545
Ca1 P1 2.833914 1_655
Ca1 P1 2.833921 1_555
Ca1 P0 3.006892 1_555
P0 Sr0 3.280622 1_656
P0 Sr0 3.280625 1_666
P0 Sr0 3.280625 1_556
P1 Sr0 3.280622 1_565
P1 Sr0 3.280625 1_555
P1 Sr0 3.280625 1_665
