# generated using pymatgen
data_Rb3Cu(AgP)2
_symmetry_space_group_name_H-M   'P 1'
_cell_length_a   7.76799538
_cell_length_b   7.76799514
_cell_length_c   7.73805154
_cell_angle_alpha   45.77599509
_cell_angle_beta   45.77600539
_cell_angle_gamma   47.05967066
_symmetry_Int_Tables_number   1
_chemical_formula_structural   Rb3Cu(AgP)2
_chemical_formula_sum   'Rb3 Cu1 Ag2 P2'
_cell_volume   221.87013639
_cell_formula_units_Z   1
loop_
 _symmetry_equiv_pos_site_id
 _symmetry_equiv_pos_as_xyz
  1  'x, y, z'
loop_
 _atom_site_type_symbol
 _atom_site_label
 _atom_site_symmetry_multiplicity
 _atom_site_fract_x
 _atom_site_fract_y
 _atom_site_fract_z
 _atom_site_occupancy
  Rb  Rb0  1  0.91214361  0.91214361  0.89842941  1
  Rb  Rb1  1  0.50000000  0.50000000  0.50000000  1
  Rb  Rb2  1  0.08785639  0.08785639  0.10157059  1
  Cu  Cu0  1  0.50000000  0.50000000  0.00000000  1
  Ag  Ag0  1  0.00000000  0.50000000  0.50000000  1
  Ag  Ag1  1  0.50000000  0.00000000  0.50000000  1
  P  P0  1  0.27213876  0.27213876  0.22562088  1
  P  P1  1  0.72786124  0.72786124  0.77437912  1
loop_
_geom_bond_atom_site_label_1
_geom_bond_atom_site_label_2
_geom_bond_distance
_geom_bond_site_symmetry_2
Cu0 P1 2.227405 1_554
Cu0 P0 2.227405 1_555
Cu0 Rb2 3.646599 1_655
Cu0 Rb0 3.646599 1_454
Cu0 Rb2 3.646599 1_565
Cu0 Rb0 3.646599 1_544
Cu0 Rb1 3.869026 1_555
Cu0 Rb1 3.869026 1_554
Ag0 P1 2.448049 1_455
Ag0 P0 2.448049 1_555
Ag0 Rb2 3.534950 1_565
Ag0 Rb0 3.534950 1_445
Ag0 Rb2 3.612517 1_556
Ag0 Rb0 3.612517 1_454
Ag0 Rb1 3.883998 1_455
Ag0 Rb1 3.883998 1_555
Ag1 P1 2.448048 1_545
Ag1 P0 2.448048 1_555
Ag1 Rb2 3.534950 1_655
Ag1 Rb0 3.534950 1_445
Ag1 Rb2 3.612518 1_556
Ag1 Rb0 3.612518 1_544
Ag1 Rb1 3.883998 1_555
Ag1 Rb1 3.883998 1_545
P0 Rb2 3.412536 1_555
P0 Rb0 3.510368 1_454
P0 Rb0 3.510369 1_544
P0 Rb0 3.575231 1_445
P0 Rb1 3.786101 1_554
P1 Rb0 3.412536 1_555
P1 Rb2 3.510368 1_656
P1 Rb2 3.510369 1_566
P1 Rb2 3.575231 1_665
P1 Rb1 3.786101 1_556
