# generated using pymatgen
data_V2HgAuS4
_symmetry_space_group_name_H-M   'P 1'
_cell_length_a   3.20160872
_cell_length_b   3.20160872
_cell_length_c   16.44543711
_cell_angle_alpha   90.00000000
_cell_angle_beta   90.00000000
_cell_angle_gamma   119.99999996
_symmetry_Int_Tables_number   1
_chemical_formula_structural   V2HgAuS4
_chemical_formula_sum   'V2 Hg1 Au1 S4'
_cell_volume   145.98645454
_cell_formula_units_Z   1
loop_
 _symmetry_equiv_pos_site_id
 _symmetry_equiv_pos_as_xyz
  1  'x, y, z'
loop_
 _atom_site_type_symbol
 _atom_site_label
 _atom_site_symmetry_multiplicity
 _atom_site_fract_x
 _atom_site_fract_y
 _atom_site_fract_z
 _atom_site_occupancy
  V  V0  1  0.33333300  0.66666700  0.27093674  1
  V  V1  1  0.66666700  0.33333300  0.72906326  1
  Hg  Hg0  1  0.00000000  0.00000000  0.00000000  1
  Au  Au0  1  0.00000000  0.00000000  0.50000000  1
  S  S0  1  0.00000000  0.00000000  0.35825803  1
  S  S1  1  0.00000000  0.00000000  0.81618374  1
  S  S2  1  0.00000000  0.00000000  0.18381626  1
  S  S3  1  0.00000000  0.00000000  0.64174197  1
loop_
_geom_bond_atom_site_label_1
_geom_bond_atom_site_label_2
_geom_bond_distance
_geom_bond_site_symmetry_2
Hg0 S2 3.022939 1_555
Hg0 S1 3.022939 1_554
Au0 S3 2.331009 1_555
Au0 S0 2.331009 1_555
S0 V0 2.340718 1_545
S0 V0 2.340720 1_445
S0 V0 2.340720 1_555
S1 V1 2.338693 1_455
S1 V1 2.338696 1_555
S1 V1 2.338696 1_445
S2 V0 2.338693 1_545
S2 V0 2.338696 1_445
S2 V0 2.338696 1_555
S3 V1 2.340718 1_455
S3 V1 2.340720 1_555
S3 V1 2.340720 1_445
