# generated using pymatgen
data_Rb2Si2Pb2O7
_symmetry_space_group_name_H-M   'P 1'
_cell_length_a   5.71868222
_cell_length_b   5.71868192
_cell_length_c   7.89739057
_cell_angle_alpha   90.00000000
_cell_angle_beta   90.00000000
_cell_angle_gamma   120.00000728
_symmetry_Int_Tables_number   1
_chemical_formula_structural   Rb2Si2Pb2O7
_chemical_formula_sum   'Rb2 Si2 Pb2 O7'
_cell_volume   223.66916769
_cell_formula_units_Z   1
loop_
 _symmetry_equiv_pos_site_id
 _symmetry_equiv_pos_as_xyz
  1  'x, y, z'
loop_
 _atom_site_type_symbol
 _atom_site_label
 _atom_site_symmetry_multiplicity
 _atom_site_fract_x
 _atom_site_fract_y
 _atom_site_fract_z
 _atom_site_occupancy
  Rb  Rb0  1  0.66666600  0.33333300  0.08700021  1
  Rb  Rb1  1  0.33333300  0.66666600  0.91299879  1
  Si  Si0  1  0.00000000  0.00000000  0.29003810  1
  Si  Si1  1  0.00000000  0.00000000  0.70996190  1
  Pb  Pb0  1  0.33333300  0.66666600  0.39288508  1
  Pb  Pb1  1  0.66666600  0.33333300  0.60711392  1
  O  O0  1  0.15929533  0.31198641  0.22529970  1
  O  O1  1  0.15269108  0.84070567  0.22529970  1
  O  O2  1  0.68801459  0.84730892  0.22529970  1
  O  O3  1  0.00000000  0.00000000  0.50000000  1
  O  O4  1  0.31198441  0.15269108  0.77470030  1
  O  O5  1  0.84730892  0.15929533  0.77470030  1
  O  O6  1  0.84070667  0.68801559  0.77470030  1
loop_
_geom_bond_atom_site_label_1
_geom_bond_atom_site_label_2
_geom_bond_distance
_geom_bond_site_symmetry_2
O0 Si0 1.627619 1_555
O0 Pb0 2.199426 1_555
O0 Rb1 3.028002 1_554
O0 Rb0 3.045040 1_555
O0 Rb0 3.080306 1_455
O1 Si0 1.627615 1_565
O1 Pb0 2.199434 1_555
O1 Rb1 3.028008 1_554
O1 Rb0 3.045048 1_455
O1 Rb0 3.080298 1_565
O2 Si0 1.627614 1_665
O2 Pb0 2.199434 1_555
O2 Rb1 3.028008 1_554
O2 Rb0 3.045046 1_565
O2 Rb0 3.080301 1_555
O3 Si1 1.658151 1_555
O3 Si0 1.658151 1_555
O4 Si1 1.627610 1_555
O4 Pb1 2.199439 1_555
O4 Rb0 3.028002 1_556
O4 Rb1 3.045048 1_545
O4 Rb1 3.080292 1_555
O5 Si1 1.627619 1_655
O5 Pb1 2.199435 1_555
O5 Rb0 3.027999 1_556
O5 Rb1 3.045037 1_655
O5 Rb1 3.080303 1_545
O6 Si1 1.627610 1_665
O6 Pb1 2.199442 1_555
O6 Rb0 3.028005 1_556
O6 Rb1 3.045046 1_555
O6 Rb1 3.080295 1_655
