# generated using pymatgen
data_CaY6IrI12
_symmetry_space_group_name_H-M   'P 1'
_cell_length_a   9.75723785
_cell_length_b   9.75723704
_cell_length_c   9.75723579
_cell_angle_alpha   107.07819961
_cell_angle_beta   107.07820398
_cell_angle_gamma   107.07820175
_symmetry_Int_Tables_number   1
_chemical_formula_structural   CaY6IrI12
_chemical_formula_sum   'Ca1 Y6 Ir1 I12'
_cell_volume   771.96117722
_cell_formula_units_Z   1
loop_
 _symmetry_equiv_pos_site_id
 _symmetry_equiv_pos_as_xyz
  1  'x, y, z'
loop_
 _atom_site_type_symbol
 _atom_site_label
 _atom_site_symmetry_multiplicity
 _atom_site_fract_x
 _atom_site_fract_y
 _atom_site_fract_z
 _atom_site_occupancy
  Ca  Ca0  1  0.50000000  0.50000000  0.50000000  1
  Y  Y0  1  0.90405506  0.70006915  0.97719835  1
  Y  Y1  1  0.97719835  0.90405506  0.70006915  1
  Y  Y2  1  0.70006915  0.97719835  0.90405506  1
  Y  Y3  1  0.09594494  0.29993085  0.02280165  1
  Y  Y4  1  0.02280165  0.09594494  0.29993085  1
  Y  Y5  1  0.29993085  0.02280165  0.09594494  1
  Ir  Ir0  1  0.00000000  0.00000000  0.00000000  1
  I  I0  1  0.62085895  0.84983266  0.54207221  1
  I  I1  1  0.54207221  0.62085895  0.84983266  1
  I  I2  1  0.84983266  0.54207221  0.62085895  1
  I  I3  1  0.37914105  0.15016734  0.45792779  1
  I  I4  1  0.45792779  0.37914105  0.15016734  1
  I  I5  1  0.15016734  0.45792779  0.37914105  1
  I  I6  1  0.67698127  0.07362825  0.22656768  1
  I  I7  1  0.22656768  0.67698127  0.07362825  1
  I  I8  1  0.07362825  0.22656768  0.67698127  1
  I  I9  1  0.32301873  0.92637175  0.77343232  1
  I  I10  1  0.77343232  0.32301873  0.92637175  1
  I  I11  1  0.92637175  0.77343232  0.32301873  1
loop_
_geom_bond_atom_site_label_1
_geom_bond_atom_site_label_2
_geom_bond_distance
_geom_bond_site_symmetry_2
Ca0 I1 3.120713 1_555
Ca0 I4 3.120713 1_555
Ca0 I0 3.120714 1_555
Ca0 I3 3.120714 1_555
Ca0 I2 3.120714 1_555
Ca0 I5 3.120714 1_555
Ir0 Y4 2.715947 1_555
Ir0 Y1 2.715947 1_444
Ir0 Y3 2.715947 1_555
Ir0 Y0 2.715947 1_444
Ir0 Y5 2.715947 1_555
Ir0 Y2 2.715947 1_444
I0 Y2 3.141796 1_555
I0 Y1 3.168206 1_555
I1 Y0 3.141797 1_555
I1 Y2 3.168206 1_555
I2 Y1 3.141797 1_555
I2 Y0 3.168205 1_555
I3 Y5 3.141796 1_555
I3 Y4 3.168206 1_555
I4 Y3 3.141797 1_555
I4 Y5 3.168206 1_555
I5 Y4 3.141797 1_555
I5 Y3 3.168205 1_555
I6 Y2 3.104898 1_544
I6 Y4 3.162849 1_655
I6 Y5 3.347871 1_555
I7 Y0 3.104899 1_454
I7 Y5 3.162849 1_565
I7 Y3 3.347871 1_555
I8 Y1 3.104898 1_445
I8 Y3 3.162849 1_556
I8 Y4 3.347870 1_555
I9 Y5 3.104898 1_566
I9 Y1 3.162849 1_455
I9 Y2 3.347871 1_555
I10 Y3 3.104899 1_656
I10 Y2 3.162849 1_545
I10 Y0 3.347871 1_555
I11 Y4 3.104898 1_665
I11 Y0 3.162849 1_554
I11 Y1 3.347870 1_555
