# generated using pymatgen
data_Ga2Te3
_symmetry_space_group_name_H-M   'P 1'
_cell_length_a   8.48255878
_cell_length_b   12.67749147
_cell_length_c   7.29774106
_cell_angle_alpha   30.30555883
_cell_angle_beta   54.12924980
_cell_angle_gamma   59.60161091
_symmetry_Int_Tables_number   1
_chemical_formula_structural   Ga2Te3
_chemical_formula_sum   'Ga4 Te6'
_cell_volume   320.90274475
_cell_formula_units_Z   2
loop_
 _symmetry_equiv_pos_site_id
 _symmetry_equiv_pos_as_xyz
  1  'x, y, z'
loop_
 _atom_site_type_symbol
 _atom_site_label
 _atom_site_symmetry_multiplicity
 _atom_site_fract_x
 _atom_site_fract_y
 _atom_site_fract_z
 _atom_site_occupancy
  Ga  Ga0  1  0.12244274  0.99241544  0.24584503  1
  Ga  Ga1  1  0.12482126  0.66456348  0.26440865  1
  Ga  Ga2  1  0.62184474  0.34057286  0.22401544  1
  Ga  Ga3  1  0.62513696  0.66886725  0.25780492  1
  Te  Te0  1  0.98175443  -0.00319812  0.01024733  1
  Te  Te1  1  0.00817828  0.31981224  0.03399358  1
  Te  Te2  1  0.50855353  0.01371538  -0.00636374  1
  Te  Te3  1  0.01312373  0.64372290  0.01898165  1
  Te  Te4  1  0.48157409  0.33674920  0.00024620  1
  Te  Te5  1  0.51257024  0.68944837  0.95081694  1
loop_
_geom_bond_atom_site_label_1
_geom_bond_atom_site_label_2
_geom_bond_distance
_geom_bond_site_symmetry_2
Ga0 Te0 2.560416 1_465
Ga0 Te2 2.675789 1_565
Ga0 Te1 2.676126 1_565
Ga0 Te3 2.680646 1_556
Ga1 Te0 2.574691 1_465
Ga1 Te1 2.665226 1_556
Ga1 Te5 2.671572 1_554
Ga1 Te3 2.689721 1_555
Ga2 Te4 2.560657 1_555
Ga2 Te2 2.675426 1_556
Ga2 Te1 2.676428 1_655
Ga2 Te5 2.680805 1_554
Ga3 Te4 2.575460 1_556
Ga3 Te2 2.667084 1_565
Ga3 Te3 2.673230 1_655
Ga3 Te5 2.691532 1_554
