# generated using pymatgen
data_Ti3BeRe3Ge2
_symmetry_space_group_name_H-M   'P 1'
_cell_length_a   6.79305902
_cell_length_b   6.39406018
_cell_length_c   7.50906282
_cell_angle_alpha   115.19852867
_cell_angle_beta   116.89288689
_cell_angle_gamma   89.99999944
_symmetry_Int_Tables_number   1
_chemical_formula_structural   Ti3BeRe3Ge2
_chemical_formula_sum   'Ti6 Be2 Re6 Ge4'
_cell_volume   255.59932092
_cell_formula_units_Z   2
loop_
 _symmetry_equiv_pos_site_id
 _symmetry_equiv_pos_as_xyz
  1  'x, y, z'
loop_
 _atom_site_type_symbol
 _atom_site_label
 _atom_site_symmetry_multiplicity
 _atom_site_fract_x
 _atom_site_fract_y
 _atom_site_fract_z
 _atom_site_occupancy
  Ti  Ti0  1  0.24698755  0.43765396  0.37530791  1
  Ti  Ti1  1  0.87167864  0.56234604  0.62469209  1
  Ti  Ti2  1  0.62214752  0.74995260  0.99990420  1
  Ti  Ti3  1  0.62224233  0.25004740  0.00009580  1
  Ti  Ti4  1  0.87186857  0.06243042  0.62486185  1
  Ti  Ti5  1  0.24700873  0.93756958  0.37513815  1
  Be  Be0  1  0.24629274  0.25003640  0.00007379  1
  Be  Be1  1  0.24621894  0.74996360  0.99992621  1
  Re  Re0  1  0.99705766  0.00000000  0.00000000  1
  Re  Re1  1  0.99705766  0.50000000  0.00000000  1
  Re  Re2  1  0.49583448  0.62459534  0.24913246  1
  Re  Re3  1  0.24670103  0.37540466  0.75086754  1
  Re  Re4  1  0.24670103  0.87546089  0.75086754  1
  Re  Re5  1  0.49583448  0.12453911  0.24913246  1
  Ge  Ge0  1  0.57994237  0.83330889  0.66649891  1
  Ge  Ge1  1  0.91344246  0.16669111  0.33350109  1
  Ge  Ge2  1  0.91344246  0.66680998  0.33350109  1
  Ge  Ge3  1  0.57994237  0.33319002  0.66649891  1
loop_
_geom_bond_atom_site_label_1
_geom_bond_atom_site_label_2
_geom_bond_distance
_geom_bond_site_symmetry_2
Be0 Re0 2.328277 1_455
Be0 Re1 2.328281 1_455
Be0 Re5 2.329159 1_555
Be0 Re2 2.329173 1_555
Be0 Re3 2.329461 1_554
Be0 Re4 2.329466 1_544
Be0 Ti4 2.546701 1_454
Be0 Ti0 2.547167 1_555
Be0 Ti3 2.553773 1_555
Be1 Re0 2.328277 1_466
Be1 Re1 2.328281 1_456
Be1 Re4 2.329157 1_555
Be1 Re3 2.329170 1_555
Be1 Re2 2.329464 1_556
Be1 Re5 2.329468 1_566
Be1 Ti5 2.546694 1_556
Be1 Ti1 2.547170 1_455
Be1 Ti2 2.553780 1_555
Re0 Ti4 2.758268 1_554
Re0 Ti5 2.758270 1_645
Re0 Ti1 2.758960 1_544
Re0 Ti0 2.758961 1_655
Re0 Ti2 3.006610 1_544
Re0 Ti3 3.006616 1_555
Re1 Ti4 2.758272 1_554
Re1 Ti5 2.758274 1_655
Re1 Ti1 2.758960 1_554
Re1 Ti0 2.758961 1_655
Re1 Ti2 3.006614 1_554
Re1 Ti3 3.006619 1_555
Re2 Ti5 2.755276 1_555
Re2 Ti0 2.756313 1_555
Re2 Ti3 2.758443 1_555
Re2 Ti2 2.758831 1_554
Re2 Ti1 3.011997 1_555
Re2 Ti4 3.012834 1_565
Re3 Ti4 2.755282 1_455
Re3 Ti1 2.756313 1_455
Re3 Ti2 2.758452 1_555
Re3 Ti3 2.758831 1_556
Re3 Ti0 3.012003 1_555
Re3 Ti5 3.012843 1_545
Re4 Ti4 2.755285 1_465
Re4 Ti1 2.756306 1_455
Re4 Ti2 2.758440 1_555
Re4 Ti3 2.758835 1_566
Re4 Ti0 3.011997 1_555
Re4 Ti5 3.012853 1_555
Re5 Ti5 2.755280 1_545
Re5 Ti0 2.756306 1_555
Re5 Ti3 2.758432 1_555
Re5 Ti2 2.758835 1_544
Re5 Ti1 3.011991 1_555
Re5 Ti4 3.012844 1_555
Ge0 Re0 2.596926 1_566
Ge0 Re2 2.597741 1_555
Ge0 Re4 2.598165 1_555
Ge0 Ti5 2.666786 1_555
Ge0 Ti0 2.666942 1_555
Ge0 Ti2 2.668516 1_555
Ge0 Ti3 2.668893 1_566
Ge0 Ti1 2.669725 1_555
Ge0 Ti4 2.669744 1_565
Ge1 Re0 2.596930 1_555
Ge1 Re3 2.597741 1_655
Ge1 Re5 2.598152 1_555
Ge1 Ti4 2.666789 1_555
Ge1 Ti1 2.666942 1_555
Ge1 Ti3 2.668516 1_555
Ge1 Ti2 2.668889 1_544
Ge1 Ti0 2.669736 1_655
Ge1 Ti5 2.669760 1_645
Ge2 Re1 2.596930 1_555
Ge2 Re4 2.597741 1_655
Ge2 Re2 2.598152 1_555
Ge2 Ti4 2.666786 1_565
Ge2 Ti1 2.666941 1_555
Ge2 Ti3 2.668521 1_555
Ge2 Ti2 2.668892 1_554
Ge2 Ti0 2.669736 1_655
Ge2 Ti5 2.669764 1_655
Ge3 Re1 2.596926 1_556
Ge3 Re5 2.597741 1_555
Ge3 Re3 2.598165 1_555
Ge3 Ti5 2.666783 1_545
Ge3 Ti0 2.666941 1_555
Ge3 Ti2 2.668521 1_555
Ge3 Ti3 2.668896 1_556
Ge3 Ti1 2.669725 1_555
Ge3 Ti4 2.669748 1_555
