# generated using pymatgen
data_TaCu(AgTe2)2
_symmetry_space_group_name_H-M   'P 1'
_cell_length_a   6.40114922
_cell_length_b   6.04218019
_cell_length_c   6.40114922
_cell_angle_alpha   90.00000000
_cell_angle_beta   90.00000000
_cell_angle_gamma   90.00000000
_symmetry_Int_Tables_number   1
_chemical_formula_structural   TaCu(AgTe2)2
_chemical_formula_sum   'Ta1 Cu1 Ag2 Te4'
_cell_volume   247.57658936
_cell_formula_units_Z   1
loop_
 _symmetry_equiv_pos_site_id
 _symmetry_equiv_pos_as_xyz
  1  'x, y, z'
loop_
 _atom_site_type_symbol
 _atom_site_label
 _atom_site_symmetry_multiplicity
 _atom_site_fract_x
 _atom_site_fract_y
 _atom_site_fract_z
 _atom_site_occupancy
  Ta  Ta0  1  0.00000000  0.00000000  0.00000000  1
  Cu  Cu0  1  0.00000000  0.50000000  0.00000000  1
  Ag  Ag0  1  0.50000000  0.00000000  0.00000000  1
  Ag  Ag1  1  0.00000000  0.00000000  0.50000000  1
  Te  Te0  1  0.23715456  0.26439031  0.23715456  1
  Te  Te1  1  0.76284544  0.73560969  0.23715456  1
  Te  Te2  1  0.76284544  0.26439031  0.76284544  1
  Te  Te3  1  0.23715456  0.73560969  0.76284544  1
loop_
_geom_bond_atom_site_label_1
_geom_bond_atom_site_label_2
_geom_bond_distance
_geom_bond_site_symmetry_2
Ta0 Te0 2.676006 1_555
Ta0 Te3 2.676006 1_544
Ta0 Te1 2.676006 1_445
Ta0 Te2 2.676006 1_454
Cu0 Te0 2.575975 1_555
Cu0 Te3 2.575975 1_554
Cu0 Te1 2.575975 1_455
Cu0 Te2 2.575975 1_454
Cu0 Ta0 3.021090 1_565
Cu0 Ta0 3.021090 1_555
Ag0 Te2 2.772607 1_554
Ag0 Te1 2.772607 1_545
Ag0 Te0 2.772607 1_555
Ag0 Te3 2.772607 1_544
Ag0 Ta0 3.200575 1_555
Ag0 Ta0 3.200575 1_655
Ag1 Te2 2.772607 1_455
Ag1 Te3 2.772607 1_545
Ag1 Te0 2.772607 1_555
Ag1 Te1 2.772607 1_445
Ag1 Ta0 3.200575 1_556
Ag1 Ta0 3.200575 1_555
