# generated using pymatgen
data_Be6V3Si2W
_symmetry_space_group_name_H-M   'P 1'
_cell_length_a   4.40146254
_cell_length_b   4.40146298
_cell_length_c   7.38374911
_cell_angle_alpha   90.00000000
_cell_angle_beta   90.00000000
_cell_angle_gamma   119.99999674
_symmetry_Int_Tables_number   1
_chemical_formula_structural   Be6V3Si2W
_chemical_formula_sum   'Be6 V3 Si2 W1'
_cell_volume   123.88012676
_cell_formula_units_Z   1
loop_
 _symmetry_equiv_pos_site_id
 _symmetry_equiv_pos_as_xyz
  1  'x, y, z'
loop_
 _atom_site_type_symbol
 _atom_site_label
 _atom_site_symmetry_multiplicity
 _atom_site_fract_x
 _atom_site_fract_y
 _atom_site_fract_z
 _atom_site_occupancy
  Be  Be0  1  0.82651255  0.65302511  0.25253834  1
  Be  Be1  1  0.17370295  0.82629705  0.74768993  1
  Be  Be2  1  0.65259509  0.82629705  0.74768993  1
  Be  Be3  1  0.34697489  0.17348745  0.25253834  1
  Be  Be4  1  0.82651255  0.17348745  0.25253834  1
  Be  Be5  1  0.17370295  0.34740491  0.74768993  1
  V  V0  1  0.66666700  0.33333300  0.56200805  1
  V  V1  1  0.66666700  0.33333300  0.93669693  1
  V  V2  1  0.33333300  0.66666700  0.43897477  1
  Si  Si0  1  0.00000000  0.00000000  0.99854863  1
  Si  Si1  1  0.00000000  0.00000000  0.50122093  1
  W  W0  1  0.33333300  0.66666700  0.06186788  1
loop_
_geom_bond_atom_site_label_1
_geom_bond_atom_site_label_2
_geom_bond_distance
_geom_bond_site_symmetry_2
Be0 Be4 2.110667 1_555
Be0 Be3 2.110667 1_555
Be0 Si1 2.262944 1_665
Be0 Be3 2.290796 1_665
Be0 Be4 2.290796 1_565
Be0 Si0 2.294855 1_664
Be0 V0 2.589674 1_555
Be0 V2 2.596332 1_655
Be0 V2 2.596336 1_555
Be0 W0 2.613042 1_655
Be0 W0 2.613046 1_555
Be0 V1 2.631280 1_554
Be1 Be2 2.107826 1_555
Be1 Be5 2.107826 1_555
Be1 Si1 2.250668 1_565
Be1 Si0 2.276956 1_565
Be1 Be2 2.293637 1_455
Be1 Be5 2.293637 1_565
Be1 V2 2.583984 1_555
Be1 V0 2.593418 1_455
Be1 V0 2.593418 1_565
Be1 V1 2.606480 1_455
Be1 V1 2.606480 1_565
Be1 W0 2.619635 1_556
Be2 Be5 2.107826 1_555
Be2 Si1 2.250666 1_665
Be2 Si0 2.276954 1_665
Be2 Be5 2.293637 1_665
Be2 V2 2.583987 1_555
Be2 V0 2.593418 1_555
Be2 V0 2.593418 1_565
Be2 V1 2.606480 1_555
Be2 V1 2.606480 1_565
Be2 W0 2.619639 1_556
Be3 Be4 2.110667 1_555
Be3 Si1 2.262944 1_555
Be3 Be4 2.290795 1_455
Be3 Si0 2.294855 1_554
Be3 V0 2.589674 1_555
Be3 V2 2.596332 1_545
Be3 V2 2.596336 1_555
Be3 W0 2.613043 1_545
Be3 W0 2.613046 1_555
Be3 V1 2.631280 1_554
Be4 Si1 2.262944 1_655
Be4 Si0 2.294855 1_654
Be4 V0 2.589673 1_555
Be4 V2 2.596334 1_655
Be4 V2 2.596334 1_545
Be4 W0 2.613044 1_655
Be4 W0 2.613044 1_545
Be4 V1 2.631279 1_554
Be5 Si1 2.250666 1_555
Be5 Si0 2.276954 1_555
Be5 V2 2.583987 1_555
Be5 V0 2.593417 1_555
Be5 V0 2.593417 1_455
Be5 V1 2.606480 1_555
Be5 V1 2.606480 1_455
Be5 W0 2.619639 1_556
V0 V2 2.698683 1_655
V0 V2 2.698683 1_545
V0 V2 2.698690 1_555
V0 V1 2.766609 1_555
V1 W0 2.704037 1_656
V1 W0 2.704037 1_546
V1 W0 2.704044 1_556
V2 W0 2.784463 1_555
Si0 V1 2.581895 1_455
Si0 V1 2.581899 1_555
Si0 V1 2.581899 1_445
Si0 W0 2.583834 1_546
Si0 W0 2.583838 1_446
Si0 W0 2.583838 1_556
Si1 V0 2.580517 1_455
Si1 V0 2.580520 1_555
Si1 V0 2.580521 1_445
Si1 V2 2.582412 1_545
Si1 V2 2.582416 1_445
Si1 V2 2.582416 1_555
