# generated using pymatgen
data_Be6V3Si2Tc
_symmetry_space_group_name_H-M   'P 1'
_cell_length_a   4.37623947
_cell_length_b   4.37624029
_cell_length_c   7.34452859
_cell_angle_alpha   90.00000000
_cell_angle_beta   90.00000000
_cell_angle_gamma   120.00000125
_symmetry_Int_Tables_number   1
_chemical_formula_structural   Be6V3Si2Tc
_chemical_formula_sum   'Be6 V3 Si2 Tc1'
_cell_volume   121.81388395
_cell_formula_units_Z   1
loop_
 _symmetry_equiv_pos_site_id
 _symmetry_equiv_pos_as_xyz
  1  'x, y, z'
loop_
 _atom_site_type_symbol
 _atom_site_label
 _atom_site_symmetry_multiplicity
 _atom_site_fract_x
 _atom_site_fract_y
 _atom_site_fract_z
 _atom_site_occupancy
  Be  Be0  1  0.82655919  0.65311937  0.25027448  1
  Be  Be1  1  0.17294618  0.82705382  0.75005029  1
  Be  Be2  1  0.65410663  0.82705382  0.75005029  1
  Be  Be3  1  0.34688063  0.17344081  0.25027448  1
  Be  Be4  1  0.82655919  0.17344081  0.25027448  1
  Be  Be5  1  0.17294618  0.34589337  0.75005029  1
  V  V0  1  0.66666700  0.33333300  0.56252123  1
  V  V1  1  0.66666700  0.33333300  0.93621563  1
  V  V2  1  0.33333300  0.66666700  0.43931098  1
  Si  Si0  1  0.00000000  0.00000000  0.99865645  1
  Si  Si1  1  0.00000000  0.00000000  0.49888408  1
  Tc  Tc0  1  0.33333300  0.66666700  0.06343831  1
loop_
_geom_bond_atom_site_label_1
_geom_bond_atom_site_label_2
_geom_bond_distance
_geom_bond_site_symmetry_2
Be0 Be3 2.099188 1_555
Be0 Be4 2.099189 1_555
Be0 Si1 2.249956 1_665
Be0 Si0 2.267924 1_664
Be0 Be3 2.277051 1_665
Be0 Be4 2.277052 1_565
Be0 Tc0 2.583312 1_655
Be0 Tc0 2.583312 1_555
Be0 V2 2.591933 1_655
Be0 V2 2.591933 1_555
Be0 V0 2.593862 1_555
Be0 V1 2.605636 1_554
Be1 Be2 2.105673 1_555
Be1 Be5 2.105674 1_555
Be1 Si0 2.247749 1_565
Be1 Si1 2.263049 1_565
Be1 Be2 2.270566 1_455
Be1 Be5 2.270567 1_565
Be1 V1 2.580627 1_455
Be1 V1 2.580627 1_565
Be1 V2 2.585835 1_555
Be1 V0 2.585947 1_455
Be1 V0 2.585947 1_565
Be1 Tc0 2.603021 1_556
Be2 Be5 2.105673 1_555
Be2 Si0 2.247751 1_665
Be2 Si1 2.263051 1_665
Be2 Be5 2.270566 1_665
Be2 V1 2.580623 1_565
Be2 V1 2.580631 1_555
Be2 V2 2.585835 1_555
Be2 V0 2.585944 1_565
Be2 V0 2.585951 1_555
Be2 Tc0 2.603021 1_556
Be3 Be4 2.099188 1_555
Be3 Si1 2.249956 1_555
Be3 Si0 2.267924 1_554
Be3 Be4 2.277051 1_455
Be3 Tc0 2.583313 1_555
Be3 Tc0 2.583313 1_545
Be3 V2 2.591933 1_555
Be3 V2 2.591933 1_545
Be3 V0 2.593862 1_555
Be3 V1 2.605636 1_554
Be4 Si1 2.249958 1_655
Be4 Si0 2.267926 1_654
Be4 Tc0 2.583312 1_655
Be4 Tc0 2.583312 1_545
Be4 V2 2.591933 1_655
Be4 V2 2.591933 1_545
Be4 V0 2.593858 1_555
Be4 V1 2.605633 1_554
Be5 Si0 2.247752 1_555
Be5 Si1 2.263052 1_555
Be5 V1 2.580623 1_455
Be5 V1 2.580630 1_555
Be5 V2 2.585835 1_555
Be5 V0 2.585944 1_455
Be5 V0 2.585951 1_555
Be5 Tc0 2.603021 1_556
V0 V2 2.683783 1_655
V0 V2 2.683784 1_545
V0 V2 2.683791 1_555
V0 V1 2.744609 1_555
Si0 V1 2.567903 1_455
Si0 V1 2.567906 1_555
Si0 V1 2.567907 1_445
Si0 Tc0 2.571029 1_546
Si0 Tc0 2.571033 1_446
Si0 Tc0 2.571033 1_556
Si1 V2 2.564225 1_545
Si1 V2 2.564229 1_445
Si1 V2 2.564229 1_555
Si1 V0 2.569487 1_455
Si1 V0 2.569490 1_555
Si1 V0 2.569490 1_445
Tc0 V1 2.693863 1_454
Tc0 V1 2.693863 1_564
Tc0 V1 2.693870 1_554
Tc0 V2 2.760608 1_555
