# generated using pymatgen
data_BaMg(GaPt)2
_symmetry_space_group_name_H-M   'P 1'
_cell_length_a   4.40413119
_cell_length_b   4.40413112
_cell_length_c   7.70982839
_cell_angle_alpha   90.00000000
_cell_angle_beta   90.00000000
_cell_angle_gamma   120.00000053
_symmetry_Int_Tables_number   1
_chemical_formula_structural   BaMg(GaPt)2
_chemical_formula_sum   'Ba1 Mg1 Ga2 Pt2'
_cell_volume   129.50777099
_cell_formula_units_Z   1
loop_
 _symmetry_equiv_pos_site_id
 _symmetry_equiv_pos_as_xyz
  1  'x, y, z'
loop_
 _atom_site_type_symbol
 _atom_site_label
 _atom_site_symmetry_multiplicity
 _atom_site_fract_x
 _atom_site_fract_y
 _atom_site_fract_z
 _atom_site_occupancy
  Ba  Ba0  1  0.00000000  0.00000000  0.00000000  1
  Mg  Mg0  1  0.00000000  0.00000000  0.50000000  1
  Ga  Ga0  1  0.33333300  0.66666700  0.32175329  1
  Ga  Ga1  1  0.66666700  0.33333300  0.67824671  1
  Pt  Pt0  1  0.33333300  0.66666700  0.67255648  1
  Pt  Pt1  1  0.66666700  0.33333300  0.32744352  1
loop_
_geom_bond_atom_site_label_1
_geom_bond_atom_site_label_2
_geom_bond_distance
_geom_bond_site_symmetry_2
Ba0 Ga0 3.552342 1_545
Ba0 Ga1 3.552342 1_454
Ba0 Ga0 3.552344 1_555
Ba0 Ga1 3.552344 1_444
Ba0 Ga0 3.552344 1_445
Ba0 Ga1 3.552344 1_554
Ba0 Pt1 3.583115 1_455
Ba0 Pt0 3.583115 1_544
Ba0 Pt1 3.583118 1_445
Ba0 Pt0 3.583118 1_554
Ba0 Pt1 3.583118 1_555
Ba0 Pt0 3.583118 1_444
Mg0 Pt0 2.869731 1_545
Mg0 Pt1 2.869731 1_455
Mg0 Pt0 2.869735 1_555
Mg0 Pt1 2.869735 1_445
Mg0 Pt1 2.869735 1_555
Mg0 Pt0 2.869735 1_445
Ga0 Pt1 2.543102 1_565
Ga0 Pt1 2.543102 1_455
Ga0 Pt1 2.543110 1_555
Ga0 Pt0 2.704632 1_555
Ga0 Mg0 2.890331 1_565
Ga0 Mg0 2.890334 1_555
Ga0 Mg0 2.890334 1_665
Ga1 Pt0 2.543102 1_545
Ga1 Pt0 2.543102 1_655
Ga1 Pt0 2.543110 1_555
Ga1 Pt1 2.704632 1_555
Ga1 Mg0 2.890331 1_655
Ga1 Mg0 2.890334 1_665
Ga1 Mg0 2.890334 1_555
