# generated using pymatgen
data_Y5MnRuO12
_symmetry_space_group_name_H-M   'P 1'
_cell_length_a   6.78833761
_cell_length_b   6.78833903
_cell_length_c   7.18619789
_cell_angle_alpha   74.51521563
_cell_angle_beta   74.51521542
_cell_angle_gamma   50.45233518
_symmetry_Int_Tables_number   1
_chemical_formula_structural   Y5MnRuO12
_chemical_formula_sum   'Y5 Mn1 Ru1 O12'
_cell_volume   243.97513594
_cell_formula_units_Z   1
loop_
 _symmetry_equiv_pos_site_id
 _symmetry_equiv_pos_as_xyz
  1  'x, y, z'
loop_
 _atom_site_type_symbol
 _atom_site_label
 _atom_site_symmetry_multiplicity
 _atom_site_fract_x
 _atom_site_fract_y
 _atom_site_fract_z
 _atom_site_occupancy
  Y  Y0  1  0.69238334  0.69370630  0.66683867  1
  Y  Y1  1  0.69134214  0.70371209  0.14100496  1
  Y  Y2  1  0.00151385  0.99848615  0.00000000  1
  Y  Y3  1  0.29628791  0.30865786  0.85899504  1
  Y  Y4  1  0.30629370  0.30761666  0.33316133  1
  Mn  Mn0  1  0.25104140  0.74895860  0.50000000  1
  Ru  Ru0  1  0.76097464  0.23902536  0.50000000  1
  O  O0  1  0.40054866  0.90565648  0.92495779  1
  O  O1  1  0.57610249  0.09661842  0.58216615  1
  O  O2  1  0.90338158  0.42389751  0.41783385  1
  O  O3  1  0.09434352  0.59945134  0.07504221  1
  O  O4  1  0.00738678  0.99293622  0.32083730  1
  O  O5  1  0.49711949  0.50255261  0.68116468  1
  O  O6  1  0.89959323  0.40294391  0.92616776  1
  O  O7  1  0.10043588  0.58031689  0.58032668  1
  O  O8  1  0.41968311  0.89956412  0.41967332  1
  O  O9  1  0.59705609  0.10040677  0.07383224  1
  O  O10  1  0.49744739  0.50288051  0.31883532  1
  O  O11  1  0.00706378  0.99261322  0.67916270  1
loop_
_geom_bond_atom_site_label_1
_geom_bond_atom_site_label_2
_geom_bond_distance
_geom_bond_site_symmetry_2
Mn0 O8 1.873885 1_555
Mn0 O7 1.873885 1_555
Mn0 O4 1.909574 1_555
Mn0 O11 1.909574 1_555
Mn0 O5 1.929634 1_555
Mn0 O10 1.929634 1_555
O0 Y3 2.287088 1_565
O0 Y1 2.289183 1_556
O0 Y2 2.291977 1_556
O0 Y0 2.295332 1_555
O1 Ru0 1.924212 1_555
O1 Y0 2.256684 1_545
O1 Y4 2.376725 1_555
O1 Y3 2.380535 1_555
O2 Ru0 1.924212 1_555
O2 Y4 2.256683 1_655
O2 Y0 2.376725 1_555
O2 Y1 2.380535 1_555
O3 Y1 2.287087 1_455
O3 Y3 2.289184 1_554
O3 Y2 2.291978 1_555
O3 Y4 2.295333 1_555
O4 Ru0 1.920004 1_465
O4 Y2 2.306423 1_555
O5 Ru0 2.005343 1_555
O5 Y0 2.344682 1_555
O5 Y3 2.383447 1_555
O6 Y3 2.273844 1_655
O6 Y0 2.290733 1_555
O6 Y2 2.301658 1_646
O6 Y1 2.322234 1_556
O7 Y0 2.296237 1_455
O7 Y3 2.346525 1_555
O7 Y4 2.381299 1_555
O8 Y4 2.296238 1_565
O8 Y1 2.346525 1_555
O8 Y0 2.381298 1_555
O9 Y1 2.273845 1_545
O9 Y4 2.290733 1_555
O9 Y2 2.301658 1_645
O9 Y3 2.322234 1_554
O10 Ru0 2.005342 1_555
O10 Y4 2.344682 1_555
O10 Y1 2.383447 1_555
O11 Ru0 1.920004 1_465
O11 Y2 2.306423 1_556
