# generated using pymatgen
data_Ti12Zn12C3O
_symmetry_space_group_name_H-M   'P 1'
_cell_length_a   8.14174110
_cell_length_b   8.14174124
_cell_length_c   8.11225269
_cell_angle_alpha   59.87968456
_cell_angle_beta   59.87968740
_cell_angle_gamma   60.00000239
_symmetry_Int_Tables_number   1
_chemical_formula_structural   Ti12Zn12C3O
_chemical_formula_sum   'Ti12 Zn12 C3 O1'
_cell_volume   379.54989975
_cell_formula_units_Z   1
loop_
 _symmetry_equiv_pos_site_id
 _symmetry_equiv_pos_as_xyz
  1  'x, y, z'
loop_
 _atom_site_type_symbol
 _atom_site_label
 _atom_site_symmetry_multiplicity
 _atom_site_fract_x
 _atom_site_fract_y
 _atom_site_fract_z
 _atom_site_occupancy
  Ti  Ti0  1  0.93314634  0.93314634  0.56710615  1
  Ti  Ti1  1  0.56660118  0.93314634  0.56710615  1
  Ti  Ti2  1  0.93314634  0.56660118  0.56710615  1
  Ti  Ti3  1  0.56799724  0.56799724  0.92983885  1
  Ti  Ti4  1  0.93416567  0.56799724  0.92983885  1
  Ti  Ti5  1  0.56799724  0.93416567  0.92983885  1
  Ti  Ti6  1  0.31685366  0.31685366  0.68289385  1
  Ti  Ti7  1  0.68339882  0.31685366  0.68289385  1
  Ti  Ti8  1  0.31685366  0.68339882  0.68289385  1
  Ti  Ti9  1  0.68200276  0.68200276  0.32016115  1
  Ti  Ti10  1  0.31583433  0.68200276  0.32016115  1
  Ti  Ti11  1  0.68200276  0.31583433  0.32016115  1
  Zn  Zn0  1  0.33417062  0.33417062  0.99748815  1
  Zn  Zn1  1  0.33404791  0.99911254  0.33279065  1
  Zn  Zn2  1  0.99911254  0.33404791  0.33279065  1
  Zn  Zn3  1  0.33404791  0.33404791  0.33279065  1
  Zn  Zn4  1  0.91582938  0.91582938  0.25251185  1
  Zn  Zn5  1  0.91595209  0.25088746  0.91720935  1
  Zn  Zn6  1  0.25088746  0.91595209  0.91720935  1
  Zn  Zn7  1  0.91595209  0.91595209  0.91720935  1
  Zn  Zn8  1  0.12500000  0.12500000  0.62500000  1
  Zn  Zn9  1  0.12500000  0.62500000  0.12500000  1
  Zn  Zn10  1  0.62500000  0.12500000  0.12500000  1
  Zn  Zn11  1  0.12500000  0.12500000  0.12500000  1
  C  C0  1  0.62500000  0.12500000  0.62500000  1
  C  C1  1  0.12500000  0.62500000  0.62500000  1
  C  C2  1  0.62500000  0.62500000  0.62500000  1
  O  O0  1  0.62500000  0.62500000  0.12500000  1
loop_
_geom_bond_atom_site_label_1
_geom_bond_atom_site_label_2
_geom_bond_distance
_geom_bond_site_symmetry_2
Ti0 Zn4 2.700914 1_555
Ti0 Zn7 2.706849 1_555
Ti0 Zn11 2.989568 1_665
Ti0 Zn8 3.002142 1_665
Ti0 Zn2 3.009494 1_565
Ti0 Zn1 3.009494 1_655
Ti1 Zn4 2.700914 1_555
Ti1 Zn6 2.706846 1_555
Ti1 Zn10 2.989568 1_565
Ti1 Zn8 3.002142 1_565
Ti1 Zn3 3.009497 1_565
Ti1 Zn1 3.009501 1_555
Ti2 Zn4 2.700914 1_555
Ti2 Zn5 2.706845 1_555
Ti2 Zn9 2.989568 1_655
Ti2 Zn8 3.002142 1_655
Ti2 Zn3 3.009497 1_655
Ti2 Zn2 3.009501 1_555
Ti3 Zn6 2.713291 1_555
Ti3 Zn5 2.713291 1_555
Ti3 Zn10 3.010520 1_556
Ti3 Zn9 3.010520 1_556
Ti3 Zn3 3.011920 1_556
Ti3 Zn0 3.012792 1_555
Ti4 Zn5 2.713282 1_555
Ti4 Zn7 2.713298 1_555
Ti4 Zn11 3.010521 1_656
Ti4 Zn9 3.010527 1_656
Ti4 Zn2 3.011920 1_556
Ti4 Zn0 3.012799 1_655
Ti5 Zn6 2.713282 1_555
Ti5 Zn7 2.713298 1_555
Ti5 Zn11 3.010522 1_566
Ti5 Zn10 3.010527 1_566
Ti5 Zn1 3.011920 1_556
Ti5 Zn0 3.012799 1_565
Ti6 Zn0 2.700914 1_555
Ti6 Zn3 2.706849 1_555
Ti6 Zn11 2.989568 1_556
Ti6 Zn8 3.002142 1_555
Ti6 Zn6 3.009494 1_545
Ti6 Zn5 3.009494 1_455
Ti7 Zn0 2.700914 1_555
Ti7 Zn2 2.706846 1_555
Ti7 Zn10 2.989568 1_556
Ti7 Zn8 3.002142 1_655
Ti7 Zn7 3.009497 1_545
Ti7 Zn5 3.009501 1_555
Ti8 Zn0 2.700914 1_555
Ti8 Zn1 2.706845 1_555
Ti8 Zn9 2.989568 1_556
Ti8 Zn8 3.002142 1_565
Ti8 Zn7 3.009497 1_455
Ti8 Zn6 3.009501 1_555
Ti9 Zn2 2.713291 1_555
Ti9 Zn1 2.713291 1_555
Ti9 Zn10 3.010520 1_565
Ti9 Zn9 3.010520 1_655
Ti9 Zn7 3.011920 1_554
Ti9 Zn4 3.012792 1_555
Ti10 Zn1 2.713282 1_555
Ti10 Zn3 2.713298 1_555
Ti10 Zn11 3.010521 1_565
Ti10 Zn9 3.010527 1_555
Ti10 Zn6 3.011920 1_554
Ti10 Zn4 3.012799 1_455
Ti11 Zn2 2.713282 1_555
Ti11 Zn3 2.713298 1_555
Ti11 Zn11 3.010522 1_655
Ti11 Zn10 3.010527 1_555
Ti11 Zn5 3.011920 1_554
Ti11 Zn4 3.012799 1_545
Zn0 Zn10 2.496944 1_556
Zn0 Zn11 2.496945 1_556
Zn0 Zn9 2.496945 1_556
Zn0 Zn3 2.719056 1_556
Zn0 Zn1 2.719061 1_546
Zn0 Zn2 2.719061 1_456
Zn1 Zn11 2.487923 1_565
Zn1 Zn10 2.487930 1_565
Zn1 Zn8 2.492235 1_565
Zn1 Zn3 2.726957 1_565
Zn1 Zn2 2.726957 1_465
Zn2 Zn9 2.487930 1_655
Zn2 Zn8 2.492235 1_655
Zn2 Zn3 2.726957 1_655
Zn3 Zn9 2.487926 1_555
Zn3 Zn8 2.492231 1_555
Zn4 Zn9 2.496945 1_655
Zn4 Zn7 2.719056 1_554
Zn4 Zn5 2.719061 1_564
Zn4 Zn6 2.719061 1_654
Zn5 Zn8 2.492235 1_655
Zn5 Zn7 2.726957 1_545
Zn5 Zn6 2.726957 1_645
Zn6 Zn9 2.487930 1_556
Zn6 Zn8 2.492235 1_565
Zn6 Zn7 2.726957 1_455
Zn7 Zn9 2.487926 1_656
Zn7 Zn8 2.492231 1_665
Zn10 Zn3 2.487926 1_555
Zn10 Zn7 2.487926 1_544
Zn10 Zn5 2.487930 1_554
Zn10 Zn4 2.496944 1_545
Zn11 Zn5 2.487923 1_454
Zn11 Zn2 2.487923 1_455
Zn11 Zn6 2.487923 1_544
Zn11 Zn4 2.496945 1_445
C0 Ti5 2.111359 1_545
C0 Ti11 2.111359 1_555
C0 Ti7 2.142343 1_555
C0 Ti1 2.142343 1_545
C0 Ti6 2.142343 1_555
C0 Ti0 2.142343 1_545
C1 Ti10 2.111359 1_555
C1 Ti4 2.111359 1_455
C1 Ti8 2.142343 1_555
C1 Ti2 2.142343 1_455
C1 Ti0 2.142343 1_455
C1 Ti6 2.142343 1_555
C2 Ti3 2.111357 1_555
C2 Ti9 2.111357 1_555
C2 Ti2 2.142343 1_555
C2 Ti8 2.142343 1_555
C2 Ti1 2.142343 1_555
C2 Ti7 2.142343 1_555
O0 Ti5 2.151169 1_554
O0 Ti11 2.151169 1_555
O0 Ti4 2.151169 1_554
O0 Ti10 2.151169 1_555
O0 Ti9 2.151175 1_555
O0 Ti3 2.151175 1_554
