# generated using pymatgen
data_HfNbAl3Cu
_symmetry_space_group_name_H-M   'P 1'
_cell_length_a   5.03667876
_cell_length_b   5.03667882
_cell_length_c   5.03668024
_cell_angle_alpha   61.93670796
_cell_angle_beta   61.93671071
_cell_angle_gamma   61.93671493
_symmetry_Int_Tables_number   1
_chemical_formula_structural   HfNbAl3Cu
_chemical_formula_sum   'Hf1 Nb1 Al3 Cu1'
_cell_volume   94.26348299
_cell_formula_units_Z   1
loop_
 _symmetry_equiv_pos_site_id
 _symmetry_equiv_pos_as_xyz
  1  'x, y, z'
loop_
 _atom_site_type_symbol
 _atom_site_label
 _atom_site_symmetry_multiplicity
 _atom_site_fract_x
 _atom_site_fract_y
 _atom_site_fract_z
 _atom_site_occupancy
  Hf  Hf0  1  0.87668784  0.87668784  0.87668784  1
  Nb  Nb0  1  0.12362253  0.12362253  0.12362253  1
  Al  Al0  1  0.00127747  0.49907542  0.49907542  1
  Al  Al1  1  0.49907542  0.49907542  0.00127747  1
  Al  Al2  1  0.49907542  0.00127747  0.49907542  1
  Cu  Cu0  1  0.50026131  0.50026131  0.50026131  1
loop_
_geom_bond_atom_site_label_1
_geom_bond_atom_site_label_2
_geom_bond_distance
_geom_bond_site_symmetry_2
Hf0 Nb0 3.001151 1_666
Hf0 Nb0 3.171510 1_656
Hf0 Nb0 3.171510 1_566
Hf0 Nb0 3.171510 1_665
Al0 Cu0 2.517852 1_455
Al0 Cu0 2.518856 1_555
Al0 Al2 2.580283 1_555
Al0 Al1 2.580283 1_555
Al0 Al2 2.603111 1_465
Al0 Al1 2.603111 1_456
Al0 Nb0 2.950185 1_555
Al0 Hf0 2.964103 1_455
Al0 Hf0 2.992669 1_445
Al0 Hf0 2.992670 1_454
Al0 Nb0 2.996880 1_565
Al0 Nb0 2.996881 1_556
Al1 Cu0 2.517853 1_554
Al1 Cu0 2.518857 1_555
Al1 Al2 2.580283 1_555
Al1 Al2 2.603111 1_564
Al1 Nb0 2.950185 1_555
Al1 Hf0 2.964102 1_554
Al1 Hf0 2.992669 1_454
Al1 Hf0 2.992669 1_544
Al1 Nb0 2.996880 1_655
Al1 Nb0 2.996880 1_565
Al2 Cu0 2.517852 1_545
Al2 Cu0 2.518856 1_555
Al2 Nb0 2.950185 1_555
Al2 Hf0 2.964103 1_545
Al2 Hf0 2.992669 1_445
Al2 Hf0 2.992670 1_544
Al2 Nb0 2.996880 1_655
Al2 Nb0 2.996881 1_556
Cu0 Hf0 3.038117 1_554
Cu0 Hf0 3.038118 1_545
Cu0 Hf0 3.038118 1_455
Cu0 Nb0 3.038563 1_556
Cu0 Nb0 3.038563 1_565
Cu0 Nb0 3.038563 1_655
