# generated using pymatgen
data_Rb10CuAs4Pt
_symmetry_space_group_name_H-M   'P 1'
_cell_length_a   5.96527924
_cell_length_b   5.96527987
_cell_length_c   19.55256390
_cell_angle_alpha   90.00000000
_cell_angle_beta   90.00000000
_cell_angle_gamma   119.99999119
_symmetry_Int_Tables_number   1
_chemical_formula_structural   Rb10CuAs4Pt
_chemical_formula_sum   'Rb10 Cu1 As4 Pt1'
_cell_volume   602.55401723
_cell_formula_units_Z   1
loop_
 _symmetry_equiv_pos_site_id
 _symmetry_equiv_pos_as_xyz
  1  'x, y, z'
loop_
 _atom_site_type_symbol
 _atom_site_label
 _atom_site_symmetry_multiplicity
 _atom_site_fract_x
 _atom_site_fract_y
 _atom_site_fract_z
 _atom_site_occupancy
  Rb  Rb0  1  0.33333300  0.66666700  0.55239570  1
  Rb  Rb1  1  0.66666700  0.33333300  0.04659510  1
  Rb  Rb2  1  0.66666700  0.33333300  0.45340490  1
  Rb  Rb3  1  0.33333300  0.66666700  0.94760430  1
  Rb  Rb4  1  0.00000000  0.00000000  0.15546754  1
  Rb  Rb5  1  0.00000000  0.00000000  0.64917970  1
  Rb  Rb6  1  0.00000000  0.00000000  0.85082030  1
  Rb  Rb7  1  0.00000000  0.00000000  0.34453246  1
  Rb  Rb8  1  0.33333300  0.66666700  0.75000000  1
  Rb  Rb9  1  0.66666700  0.33333300  0.25000000  1
  Cu  Cu0  1  0.66666700  0.33333300  0.75000000  1
  As  As0  1  0.33333300  0.66666700  0.37345343  1
  As  As1  1  0.66666700  0.33333300  0.86858588  1
  As  As2  1  0.66666700  0.33333300  0.63141412  1
  As  As3  1  0.33333300  0.66666700  0.12654657  1
  Pt  Pt0  1  0.33333300  0.66666700  0.25000000  1
loop_
_geom_bond_atom_site_label_1
_geom_bond_atom_site_label_2
_geom_bond_distance
_geom_bond_site_symmetry_2
Cu0 Rb8 3.444052 1_655
Cu0 Rb8 3.444053 1_545
Cu0 Rb8 3.444062 1_555
As0 Pt0 2.413831 1_555
As0 Rb7 3.490166 1_565
As0 Rb7 3.490172 1_665
As0 Rb7 3.490172 1_555
As0 Rb0 3.498780 1_555
As0 Rb2 3.782230 1_455
As0 Rb2 3.782231 1_565
As0 Rb2 3.782240 1_555
As1 Cu0 2.318658 1_555
As1 Rb6 3.461525 1_655
As1 Rb6 3.461531 1_555
As1 Rb6 3.461531 1_665
As1 Rb1 3.480537 1_556
As1 Rb3 3.774727 1_655
As1 Rb3 3.774727 1_545
As1 Rb3 3.774736 1_555
As2 Cu0 2.318658 1_555
As2 Rb5 3.461525 1_655
As2 Rb5 3.461531 1_555
As2 Rb5 3.461531 1_665
As2 Rb2 3.480537 1_555
As2 Rb0 3.774727 1_655
As2 Rb0 3.774727 1_545
As2 Rb0 3.774736 1_555
As3 Pt0 2.413831 1_555
As3 Rb4 3.490166 1_565
As3 Rb4 3.490172 1_665
As3 Rb4 3.490172 1_555
As3 Rb3 3.498780 1_554
As3 Rb1 3.782230 1_455
As3 Rb1 3.782231 1_565
As3 Rb1 3.782240 1_555
Pt0 Rb9 3.444052 1_455
Pt0 Rb9 3.444053 1_565
Pt0 Rb9 3.444062 1_555
