# generated using pymatgen
data_Y3Si6(Pd4Pt)4
_symmetry_space_group_name_H-M   'P 1'
_cell_length_a   8.65790366
_cell_length_b   8.66774071
_cell_length_c   8.66774140
_cell_angle_alpha   59.91155755
_cell_angle_beta   59.90879893
_cell_angle_gamma   59.90880457
_symmetry_Int_Tables_number   1
_chemical_formula_structural   Y3Si6(Pd4Pt)4
_chemical_formula_sum   'Y3 Si6 Pd16 Pt4'
_cell_volume   459.00693710
_cell_formula_units_Z   1
loop_
 _symmetry_equiv_pos_site_id
 _symmetry_equiv_pos_as_xyz
  1  'x, y, z'
loop_
 _atom_site_type_symbol
 _atom_site_label
 _atom_site_symmetry_multiplicity
 _atom_site_fract_x
 _atom_site_fract_y
 _atom_site_fract_z
 _atom_site_occupancy
  Y  Y0  1  0.25200708  0.24983636  0.24983636  1
  Y  Y1  1  0.74785711  0.74986986  0.74986986  1
  Y  Y2  1  0.99989474  0.00020721  0.00020721  1
  Si  Si0  1  0.73192428  0.26712039  0.26712039  1
  Si  Si1  1  0.26923825  0.73137154  0.73137154  1
  Si  Si2  1  0.26854025  0.73144633  0.26781392  1
  Si  Si3  1  0.73159508  0.26824361  0.73246217  1
  Si  Si4  1  0.26854025  0.26781392  0.73144633  1
  Si  Si5  1  0.73159508  0.73246217  0.26824361  1
  Pd  Pd0  1  0.61892192  0.61561853  0.15026213  1
  Pd  Pd1  1  0.61892192  0.15026213  0.61561853  1
  Pd  Pd2  1  0.85089309  0.38193099  0.38193099  1
  Pd  Pd3  1  0.14796681  0.61754222  0.61754222  1
  Pd  Pd4  1  0.34518517  0.00012168  0.00012168  1
  Pd  Pd5  1  0.65444486  0.00036699  0.00036699  1
  Pd  Pd6  1  0.99899193  0.34641141  0.65586171  1
  Pd  Pd7  1  0.99899193  0.65586171  0.34641141  1
  Pd  Pd8  1  0.99928114  0.34633678  0.99998442  1
  Pd  Pd9  1  0.65480524  0.99971565  0.34618771  1
  Pd  Pd10  1  0.99905158  0.65540525  0.00025220  1
  Pd  Pd11  1  0.34540034  0.99981081  0.65607041  1
  Pd  Pd12  1  0.99928114  0.99998442  0.34633678  1
  Pd  Pd13  1  0.99905158  0.00025220  0.65540525  1
  Pd  Pd14  1  0.65480524  0.34618771  0.99971565  1
  Pd  Pd15  1  0.34540034  0.65607041  0.99981081  1
  Pt  Pt0  1  0.38445928  0.38479298  0.38479298  1
  Pt  Pt1  1  0.61759492  0.61415346  0.61415346  1
  Pt  Pt2  1  0.38268022  0.38325565  0.84754665  1
  Pt  Pt3  1  0.38268022  0.84754665  0.38325565  1
loop_
_geom_bond_atom_site_label_1
_geom_bond_atom_site_label_2
_geom_bond_distance
_geom_bond_site_symmetry_2
Pd0 Si5 2.460204 1_555
Pd0 Si0 2.463766 1_555
Pd0 Si2 2.474048 1_555
Pd0 Y1 2.830740 1_554
Pd1 Si3 2.460204 1_555
Pd1 Si0 2.463766 1_555
Pd1 Si4 2.474048 1_555
Pd1 Y1 2.830740 1_545
Pd2 Si0 2.467843 1_555
Pd2 Si5 2.478102 1_555
Pd2 Si3 2.478102 1_555
Pd2 Y0 2.832371 1_655
Pd3 Si1 2.470420 1_555
Pd3 Si4 2.472463 1_555
Pd3 Si2 2.472464 1_555
Pd3 Y1 2.825215 1_455
Pd4 Si2 2.415606 1_545
Pd4 Si4 2.415606 1_554
Pd4 Y2 2.988748 1_455
Pd5 Si3 2.413155 1_554
Pd5 Si5 2.413155 1_545
Pd5 Y2 2.989484 1_555
Pd6 Si4 2.414740 1_655
Pd6 Si3 2.416618 1_555
Pd6 Y2 2.988773 1_556
Pd7 Si2 2.414740 1_655
Pd7 Si5 2.416618 1_555
Pd7 Y2 2.988773 1_565
Pd8 Si0 2.411649 1_556
Pd8 Si4 2.423200 1_655
Pd8 Y2 2.996535 1_556
Pd9 Si0 2.405813 1_565
Pd9 Si5 2.416403 1_555
Pd9 Y2 2.989194 1_565
Pd10 Si5 2.411423 1_555
Pd10 Si1 2.424106 1_654
Pd10 Y2 2.992125 1_565
Pd11 Si4 2.408656 1_565
Pd11 Si1 2.420508 1_555
Pd11 Y2 2.983009 1_466
Pd12 Si0 2.411649 1_565
Pd12 Si2 2.423200 1_655
Pd12 Y2 2.996535 1_565
Pd13 Si3 2.411423 1_555
Pd13 Si1 2.424106 1_645
Pd13 Y2 2.992125 1_556
Pd14 Si0 2.405813 1_556
Pd14 Si3 2.416403 1_555
Pd14 Y2 2.989194 1_556
Pd15 Si2 2.408656 1_556
Pd15 Si1 2.420508 1_555
Pd15 Y2 2.983009 1_466
Pt0 Si2 2.450583 1_555
Pt0 Si4 2.450583 1_555
Pt0 Si0 2.453584 1_555
Pt0 Y0 2.848520 1_555
Pt1 Si3 2.445395 1_555
Pt1 Si5 2.445395 1_555
Pt1 Si1 2.459784 1_555
Pt1 Y1 2.843896 1_555
Pt2 Si4 2.447222 1_555
Pt2 Si1 2.461033 1_555
Pt2 Si3 2.463760 1_555
Pt2 Y0 2.844113 1_556
Pt3 Si2 2.447222 1_555
Pt3 Si1 2.461033 1_555
Pt3 Si5 2.463760 1_555
Pt3 Y0 2.844113 1_565
