# generated using pymatgen
data_Ba2BC11
_symmetry_space_group_name_H-M   'P 1'
_cell_length_a   4.37167837
_cell_length_b   4.37307863
_cell_length_c   10.67301077
_cell_angle_alpha   91.40731322
_cell_angle_beta   90.00000007
_cell_angle_gamma   119.98940094
_symmetry_Int_Tables_number   1
_chemical_formula_structural   Ba2BC11
_chemical_formula_sum   'Ba2 B1 C11'
_cell_volume   176.65452650
_cell_formula_units_Z   1
loop_
 _symmetry_equiv_pos_site_id
 _symmetry_equiv_pos_as_xyz
  1  'x, y, z'
loop_
 _atom_site_type_symbol
 _atom_site_label
 _atom_site_symmetry_multiplicity
 _atom_site_fract_x
 _atom_site_fract_y
 _atom_site_fract_z
 _atom_site_occupancy
  Ba  Ba0  1  0.33168055  0.64801036  0.25357745  1
  Ba  Ba1  1  0.68367119  0.35198964  0.74642255  1
  B  B0  1  0.32873822  0.00000000  1.00000000  1
  C  C0  1  0.67441711  1.00000000  1.00000000  1
  C  C1  1  0.99572096  0.33312666  0.99974595  1
  C  C2  1  0.66820868  1.00000000  0.50000000  1
  C  C3  1  0.98439147  0.65471671  0.00170769  1
  C  C4  1  0.33484156  0.00000000  0.50000000  1
  C  C5  1  0.66259430  0.66687334  0.00025405  1
  C  C6  1  0.00146524  0.66653034  0.49968147  1
  C  C7  1  0.32967376  0.34528329  0.99829231  1
  C  C8  1  0.00152807  0.33339306  0.49960340  1
  C  C9  1  0.33493490  0.33346966  0.50031853  1
  C  C10  1  0.66813501  0.66660694  0.50039660  1
loop_
_geom_bond_atom_site_label_1
_geom_bond_atom_site_label_2
_geom_bond_distance
_geom_bond_site_symmetry_2
Ba0 C10 2.996586 1_555
Ba0 C7 2.997940 1_554
Ba0 C2 2.998058 1_555
Ba0 C9 3.004146 1_555
Ba0 C8 3.010557 1_555
Ba0 C4 3.011099 1_565
Ba0 C6 3.016016 1_555
Ba0 C1 3.031124 1_454
Ba0 C5 3.049816 1_555
Ba0 C3 3.095279 1_455
Ba0 C0 3.136589 1_554
Ba1 C8 2.996584 1_655
Ba1 C3 2.997940 1_556
Ba1 C2 2.998057 1_545
Ba1 C6 3.004145 1_655
Ba1 C10 3.010558 1_555
Ba1 C4 3.011101 1_555
Ba1 C9 3.016019 1_555
Ba1 C5 3.031125 1_556
Ba1 C1 3.049814 1_555
Ba1 C7 3.095283 1_555
Ba1 C0 3.136588 1_545
B0 C3 1.508467 1_446
B0 C7 1.508469 1_555
B0 C0 1.511197 1_545
B0 Ba0 3.149406 1_546
B0 Ba1 3.149407 1_555
C0 C5 1.431725 1_556
C0 C1 1.431725 1_565
C1 C3 1.431386 1_556
C1 C7 1.434199 1_655
C2 C4 1.457374 1_565
C2 C8 1.457903 1_665
C3 C5 1.434204 1_555
C4 C9 1.458006 1_555
C4 C6 1.458006 1_545
C5 C7 1.431388 1_554
C6 C8 1.456953 1_555
C8 C9 1.457400 1_555
C10 C9 1.456953 1_555
C10 C6 1.457400 1_655
C10 C2 1.457903 1_555
