# generated using pymatgen
data_NaSc(MoN2)2
_symmetry_space_group_name_H-M   'P 1'
_cell_length_a   2.96989321
_cell_length_b   2.96989467
_cell_length_c   11.13218554
_cell_angle_alpha   90.00000000
_cell_angle_beta   90.00000000
_cell_angle_gamma   120.00002744
_symmetry_Int_Tables_number   1
_chemical_formula_structural   NaSc(MoN2)2
_chemical_formula_sum   'Na1 Sc1 Mo2 N4'
_cell_volume   85.03404321
_cell_formula_units_Z   1
loop_
 _symmetry_equiv_pos_site_id
 _symmetry_equiv_pos_as_xyz
  1  'x, y, z'
loop_
 _atom_site_type_symbol
 _atom_site_label
 _atom_site_symmetry_multiplicity
 _atom_site_fract_x
 _atom_site_fract_y
 _atom_site_fract_z
 _atom_site_occupancy
  Na  Na0  1  0.00000000  0.00000000  0.50000000  1
  Sc  Sc0  1  0.00000000  0.00000000  0.00000000  1
  Mo  Mo0  1  0.33333300  0.66666700  0.76164396  1
  Mo  Mo1  1  0.66666700  0.33333300  0.23835604  1
  N  N0  1  0.66666700  0.33333300  0.65286357  1
  N  N1  1  0.66666700  0.33333300  0.88002715  1
  N  N2  1  0.33333300  0.66666700  0.11997285  1
  N  N3  1  0.33333300  0.66666700  0.34713643  1
loop_
_geom_bond_atom_site_label_1
_geom_bond_atom_site_label_2
_geom_bond_distance
_geom_bond_site_symmetry_2
Mo0 N0 2.099170 1_455
Mo0 N0 2.099170 1_565
Mo0 N0 2.099175 1_555
Mo0 N1 2.162602 1_455
Mo0 N1 2.162602 1_565
Mo0 N1 2.162607 1_555
Mo1 N3 2.099170 1_655
Mo1 N3 2.099170 1_545
Mo1 N3 2.099175 1_555
Mo1 N2 2.162602 1_655
Mo1 N2 2.162602 1_545
Mo1 N2 2.162607 1_555
N0 Na0 2.415758 1_655
N0 Na0 2.415759 1_555
N0 Na0 2.415760 1_665
N1 Sc0 2.173432 1_656
N1 Sc0 2.173433 1_556
N1 Sc0 2.173434 1_666
N2 Sc0 2.173432 1_565
N2 Sc0 2.173433 1_665
N2 Sc0 2.173434 1_555
N3 Na0 2.415758 1_565
N3 Na0 2.415759 1_665
N3 Na0 2.415760 1_555
