# generated using pymatgen
data_Sc4Si7GeRh16
_symmetry_space_group_name_H-M   'P 1'
_cell_length_a   4.03835679
_cell_length_b   8.90168631
_cell_length_c   11.05861619
_cell_angle_alpha   89.94560787
_cell_angle_beta   90.00000000
_cell_angle_gamma   90.00000000
_symmetry_Int_Tables_number   1
_chemical_formula_structural   Sc4Si7GeRh16
_chemical_formula_sum   'Sc4 Si7 Ge1 Rh16'
_cell_volume   397.53700531
_cell_formula_units_Z   1
loop_
 _symmetry_equiv_pos_site_id
 _symmetry_equiv_pos_as_xyz
  1  'x, y, z'
loop_
 _atom_site_type_symbol
 _atom_site_label
 _atom_site_symmetry_multiplicity
 _atom_site_fract_x
 _atom_site_fract_y
 _atom_site_fract_z
 _atom_site_occupancy
  Sc  Sc0  1  0.25000000  0.14085876  0.82424674  1
  Sc  Sc1  1  0.25000000  0.35883342  0.32319472  1
  Sc  Sc2  1  0.75000000  0.85723388  0.17545392  1
  Sc  Sc3  1  0.75000000  0.64257376  0.67671922  1
  Si  Si0  1  0.25000000  0.41423264  0.63882726  1
  Si  Si1  1  0.25000000  0.08661539  0.13589563  1
  Si  Si2  1  0.75000000  0.58829886  0.36215253  1
  Si  Si3  1  0.75000000  0.91041715  0.86226747  1
  Si  Si4  1  0.25000000  0.61814626  0.06029956  1
  Si  Si5  1  0.25000000  0.88071141  0.56058630  1
  Si  Si6  1  0.75000000  0.38148874  0.93995207  1
  Ge  Ge0  1  0.75000000  0.12310801  0.43918230  1
  Rh  Rh0  1  0.25000000  0.61750796  0.50244859  1
  Rh  Rh1  1  0.25000000  0.88318920  0.00144693  1
  Rh  Rh2  1  0.75000000  0.39149956  0.50246338  1
  Rh  Rh3  1  0.75000000  0.11564115  0.99481838  1
  Rh  Rh4  1  0.25000000  0.69649013  0.26692988  1
  Rh  Rh5  1  0.25000000  0.80102152  0.76735944  1
  Rh  Rh6  1  0.75000000  0.30048788  0.73431530  1
  Rh  Rh7  1  0.75000000  0.19770514  0.22682058  1
  Rh  Rh8  1  0.25000000  0.17213877  0.56540020  1
  Rh  Rh9  1  0.25000000  0.32873234  0.06049381  1
  Rh  Rh10  1  0.75000000  0.82808265  0.43950493  1
  Rh  Rh11  1  0.75000000  0.66988221  0.93992411  1
  Rh  Rh12  1  0.25000000  0.00720293  0.33898114  1
  Rh  Rh13  1  0.25000000  0.49009965  0.84236119  1
  Rh  Rh14  1  0.75000000  0.98910519  0.65962310  1
  Rh  Rh15  1  0.75000000  0.50869644  0.15833233  1
loop_
_geom_bond_atom_site_label_1
_geom_bond_atom_site_label_2
_geom_bond_distance
_geom_bond_site_symmetry_2
Sc0 Si3 2.908631 1_545
Sc0 Si3 2.908631 1_445
Sc1 Si2 2.904598 1_455
Sc1 Si2 2.904598 1_555
Sc1 Si1 3.189291 1_555
Sc2 Si1 2.904486 1_565
Sc2 Si1 2.904486 1_665
Sc3 Si0 2.895831 1_655
Sc3 Si0 2.895831 1_555
Ge0 Rh7 2.439897 1_555
Ge0 Rh2 2.490155 1_555
Ge0 Rh8 2.493387 1_655
Ge0 Rh8 2.493387 1_555
Ge0 Rh12 2.524206 1_555
Ge0 Rh12 2.524206 1_655
Ge0 Rh10 2.626222 1_545
Ge0 Rh14 2.712950 1_545
Ge0 Sc1 3.181239 1_555
Ge0 Sc1 3.181239 1_655
Rh0 Si0 2.354491 1_555
Rh0 Si5 2.430153 1_555
Rh0 Si2 2.559794 1_455
Rh0 Si2 2.559794 1_555
Rh0 Sc3 2.800313 1_455
Rh0 Sc3 2.800313 1_555
Rh0 Sc1 3.039791 1_555
Rh1 Si1 2.344112 1_565
Rh1 Si4 2.446854 1_555
Rh1 Si3 2.550303 1_454
Rh1 Si3 2.550303 1_554
Rh1 Sc2 2.798653 1_455
Rh1 Sc2 2.798653 1_555
Rh1 Sc0 3.015375 1_564
Rh2 Si2 2.339103 1_555
Rh2 Si0 2.528372 1_655
Rh2 Si0 2.528372 1_555
Rh2 Sc1 2.844801 1_555
Rh2 Sc1 2.844801 1_655
Rh2 Sc3 2.952417 1_555
Rh3 Si3 2.343306 1_545
Rh3 Si6 2.442478 1_555
Rh3 Si1 2.564575 1_656
Rh3 Si1 2.564575 1_556
Rh3 Sc0 2.772137 1_655
Rh3 Sc0 2.772137 1_555
Rh3 Sc2 3.045127 1_546
Rh4 Si4 2.389731 1_555
Rh4 Si2 2.472157 1_555
Rh4 Si2 2.472157 1_455
Rh4 Sc2 2.673034 1_455
Rh4 Sc2 2.673034 1_555
Rh4 Sc1 3.068862 1_555
Rh5 Si5 2.393488 1_555
Rh5 Si3 2.475657 1_555
Rh5 Si3 2.475657 1_455
Rh5 Sc3 2.659672 1_555
Rh5 Sc3 2.659672 1_455
Rh5 Sc0 3.090429 1_565
Rh6 Si6 2.386285 1_555
Rh6 Si0 2.493053 1_555
Rh6 Si0 2.493053 1_655
Rh6 Sc0 2.661318 1_555
Rh6 Sc0 2.661318 1_655
Rh6 Sc3 3.110448 1_555
Rh7 Si1 2.463312 1_655
Rh7 Si1 2.463312 1_555
Rh7 Sc1 2.696867 1_555
Rh7 Sc1 2.696867 1_655
Rh7 Sc2 3.084072 1_545
Rh8 Si0 2.303667 1_555
Rh8 Si5 2.594792 1_545
Rh8 Sc0 2.875732 1_555
Rh8 Sc1 3.150807 1_555
Rh9 Si1 2.310190 1_555
Rh9 Si6 2.464425 1_554
Rh9 Si6 2.464425 1_454
Rh9 Si4 2.576271 1_555
Rh9 Sc1 2.917693 1_555
Rh9 Sc0 3.103335 1_554
Rh10 Si2 2.300261 1_555
Rh10 Si5 2.467924 1_555
Rh10 Si5 2.467924 1_655
Rh10 Rh12 2.802112 1_565
Rh10 Rh12 2.802112 1_665
Rh10 Sc2 2.931301 1_555
Rh10 Sc3 3.098420 1_555
Rh11 Si3 2.306209 1_555
Rh11 Si4 2.461720 1_656
Rh11 Si4 2.461720 1_556
Rh11 Si6 2.567188 1_555
Rh11 Rh13 2.793848 1_655
Rh11 Rh13 2.793848 1_555
Rh11 Rh15 2.808163 1_556
Rh11 Sc3 2.921045 1_555
Rh11 Sc2 3.094146 1_556
Rh12 Si1 2.353831 1_555
Rh12 Si5 2.695974 1_545
Rh12 Rh4 2.879076 1_545
Rh12 Rh8 2.903797 1_555
Rh12 Rh7 2.913287 1_455
Rh12 Rh7 2.913287 1_555
Rh12 Sc2 3.022265 1_445
Rh12 Sc2 3.022265 1_545
Rh12 Sc1 3.134803 1_555
Rh13 Si0 2.350552 1_555
Rh13 Si6 2.484866 1_555
Rh13 Si6 2.484866 1_455
Rh13 Si4 2.667020 1_556
Rh13 Rh9 2.806370 1_556
Rh13 Rh5 2.888580 1_555
Rh13 Rh6 2.890923 1_455
Rh13 Rh6 2.890923 1_555
Rh13 Sc3 3.044659 1_555
Rh13 Sc3 3.044659 1_455
Rh13 Sc0 3.115470 1_555
Rh14 Si3 2.347251 1_555
Rh14 Si5 2.491903 1_555
Rh14 Si5 2.491903 1_655
Rh14 Sc0 3.036583 1_565
Rh14 Sc0 3.036583 1_665
Rh14 Sc3 3.090323 1_555
Rh15 Si2 2.363370 1_555
Rh15 Si4 2.489900 1_555
Rh15 Si4 2.489900 1_655
Rh15 Si6 2.668255 1_554
Rh15 Rh9 2.795954 1_655
Rh15 Rh9 2.795954 1_555
Rh15 Rh7 2.869390 1_555
Rh15 Rh4 2.884036 1_555
Rh15 Rh4 2.884036 1_655
Rh15 Sc1 3.029189 1_655
Rh15 Sc1 3.029189 1_555
Rh15 Sc2 3.108523 1_555
