# generated using pymatgen
data_CdNi21SnB6
_symmetry_space_group_name_H-M   'P 1'
_cell_length_a   7.41656596
_cell_length_b   7.41656615
_cell_length_c   7.41656649
_cell_angle_alpha   60.00000282
_cell_angle_beta   60.00000199
_cell_angle_gamma   60.00000215
_symmetry_Int_Tables_number   1
_chemical_formula_structural   CdNi21SnB6
_chemical_formula_sum   'Cd1 Ni21 Sn1 B6'
_cell_volume   288.46535278
_cell_formula_units_Z   1
loop_
 _symmetry_equiv_pos_site_id
 _symmetry_equiv_pos_as_xyz
  1  'x, y, z'
loop_
 _atom_site_type_symbol
 _atom_site_label
 _atom_site_symmetry_multiplicity
 _atom_site_fract_x
 _atom_site_fract_y
 _atom_site_fract_z
 _atom_site_occupancy
  Cd  Cd0  1  0.75000000  0.75000000  0.75000000  1
  Ni  Ni0  1  0.66419216  0.99973477  0.99973477  1
  Ni  Ni1  1  0.16261072  0.61246343  0.61246343  1
  Ni  Ni2  1  0.61246343  0.61246343  0.61246343  1
  Ni  Ni3  1  0.61246343  0.61246343  0.16261072  1
  Ni  Ni4  1  0.38443562  0.84669313  0.38443562  1
  Ni  Ni5  1  0.66419216  0.33633830  0.99973477  1
  Ni  Ni6  1  0.99973477  0.33633830  0.66419216  1
  Ni  Ni7  1  0.99973477  0.99973477  0.33633830  1
  Ni  Ni8  1  0.33633830  0.99973477  0.99973477  1
  Ni  Ni9  1  0.99973477  0.99973477  0.66419216  1
  Ni  Ni10  1  0.99973477  0.33633830  0.99973477  1
  Ni  Ni11  1  0.66419216  0.99973477  0.33633830  1
  Ni  Ni12  1  0.00000000  0.00000000  0.00000000  1
  Ni  Ni13  1  0.99973477  0.66419216  0.99973477  1
  Ni  Ni14  1  0.33633830  0.99973477  0.66419216  1
  Ni  Ni15  1  0.99973477  0.66419216  0.33633830  1
  Ni  Ni16  1  0.33633830  0.66419216  0.99973477  1
  Ni  Ni17  1  0.84669313  0.38443562  0.38443562  1
  Ni  Ni18  1  0.38443562  0.38443562  0.84669313  1
  Ni  Ni19  1  0.61246343  0.16261072  0.61246343  1
  Ni  Ni20  1  0.38443562  0.38443562  0.38443562  1
  Sn  Sn0  1  0.25000000  0.25000000  0.25000000  1
  B  B0  1  0.72716530  0.72716530  0.27283470  1
  B  B1  1  0.72716530  0.27283470  0.72716530  1
  B  B2  1  0.27283470  0.72716530  0.27283470  1
  B  B3  1  0.72716530  0.27283470  0.27283470  1
  B  B4  1  0.27283470  0.72716530  0.72716530  1
  B  B5  1  0.27283470  0.27283470  0.72716530  1
loop_
_geom_bond_atom_site_label_1
_geom_bond_atom_site_label_2
_geom_bond_distance
_geom_bond_site_symmetry_2
Cd0 Ni2 2.498600 1_555
Cd0 Ni1 2.498606 1_655
Cd0 Ni19 2.498606 1_565
Cd0 Ni3 2.498606 1_556
Cd0 Ni9 2.887769 1_555
Cd0 Ni16 2.887769 1_555
Cd0 Ni14 2.887769 1_555
Cd0 Ni13 2.887769 1_555
Cd0 Ni0 2.887769 1_555
Cd0 Ni6 2.887769 1_555
Cd0 Ni5 2.887769 1_555
Cd0 Ni8 2.887769 1_555
Cd0 Ni10 2.887769 1_555
Cd0 Ni7 2.887769 1_555
Cd0 Ni15 2.887769 1_555
Cd0 Ni11 2.887769 1_555
Ni0 Ni12 2.492510 1_666
Ni4 Sn0 2.442266 1_565
Ni10 Ni12 2.492510 1_656
Ni11 Ni12 2.492510 1_665
Ni12 Ni8 2.492510 1_544
Ni12 Ni13 2.492510 1_444
Ni12 Ni16 2.492510 1_544
Ni12 Ni5 2.492510 1_454
Ni12 Ni14 2.492510 1_544
Ni12 Ni9 2.492510 1_444
Ni12 Ni7 2.492510 1_445
Ni12 Ni6 2.492510 1_454
Ni12 Ni15 2.492510 1_445
Ni17 Sn0 2.442265 1_655
Ni18 Sn0 2.442266 1_556
Ni20 Sn0 2.442265 1_555
B0 Ni3 2.056739 1_555
B0 Ni2 2.056746 1_555
B0 Ni4 2.075712 1_555
B0 Ni17 2.075712 1_555
B0 Ni15 2.077142 1_555
B0 Ni11 2.077142 1_555
B0 Ni13 2.077142 1_554
B0 Ni0 2.077142 1_554
B1 Ni19 2.056739 1_555
B1 Ni2 2.056745 1_555
B1 Ni18 2.075712 1_555
B1 Ni17 2.075712 1_555
B1 Ni6 2.077142 1_555
B1 Ni9 2.077142 1_545
B1 Ni5 2.077142 1_555
B1 Ni0 2.077142 1_545
B2 Ni3 2.056745 1_555
B2 Ni1 2.056746 1_555
B2 Ni4 2.075712 1_555
B2 Ni20 2.075712 1_555
B2 Ni15 2.077142 1_455
B2 Ni7 2.077142 1_455
B2 Ni16 2.077142 1_554
B2 Ni8 2.077142 1_554
B3 Ni3 2.056745 1_555
B3 Ni19 2.056746 1_555
B3 Ni17 2.075712 1_555
B3 Ni20 2.075712 1_555
B3 Ni11 2.077142 1_545
B3 Ni7 2.077142 1_545
B3 Ni10 2.077142 1_554
B3 Ni5 2.077142 1_554
B4 Ni1 2.056739 1_555
B4 Ni2 2.056745 1_555
B4 Ni18 2.075712 1_555
B4 Ni4 2.075712 1_555
B4 Ni14 2.077142 1_555
B4 Ni9 2.077142 1_455
B4 Ni13 2.077142 1_455
B4 Ni16 2.077142 1_555
B5 Ni19 2.056745 1_555
B5 Ni1 2.056745 1_555
B5 Ni18 2.075712 1_555
B5 Ni20 2.075712 1_555
B5 Ni6 2.077142 1_455
B5 Ni14 2.077142 1_545
B5 Ni10 2.077142 1_455
B5 Ni8 2.077142 1_545
