# generated using pymatgen
data_Mn3Mo(Pd3Pt)3
_symmetry_space_group_name_H-M   'P 1'
_cell_length_a   6.77042520
_cell_length_b   6.77042577
_cell_length_c   6.76981123
_cell_angle_alpha   109.43505178
_cell_angle_beta   109.43509044
_cell_angle_gamma   109.54741708
_symmetry_Int_Tables_number   1
_chemical_formula_structural   Mn3Mo(Pd3Pt)3
_chemical_formula_sum   'Mn3 Mo1 Pd9 Pt3'
_cell_volume   238.87202172
_cell_formula_units_Z   1
loop_
 _symmetry_equiv_pos_site_id
 _symmetry_equiv_pos_as_xyz
  1  'x, y, z'
loop_
 _atom_site_type_symbol
 _atom_site_label
 _atom_site_symmetry_multiplicity
 _atom_site_fract_x
 _atom_site_fract_y
 _atom_site_fract_z
 _atom_site_occupancy
  Mn  Mn0  1  0.74944650  0.74944765  0.49889415  1
  Mn  Mn1  1  0.25087305  0.74952580  0.00040184  1
  Mn  Mn2  1  0.74953498  0.25087199  0.00040496  1
  Mo  Mo0  1  0.25250808  0.25250911  0.50501819  1
  Pd  Pd0  1  0.49956527  0.25235023  0.25205278  1
  Pd  Pd1  1  0.50084858  0.74932153  0.74790675  1
  Pd  Pd2  1  0.99858622  0.24705818  0.74790675  1
  Pd  Pd3  1  0.24705868  0.99858373  0.74790479  1
  Pd  Pd4  1  0.99970256  0.75248851  0.25205378  1
  Pd  Pd5  1  0.75247643  0.99969736  0.25205099  1
  Pd  Pd6  1  0.25235463  0.49957456  0.25205099  1
  Pd  Pd7  1  0.74932106  0.50084611  0.74790479  1
  Pd  Pd8  1  0.00347786  0.00347774  0.00695560  1
  Pt  Pt0  1  0.49484884  0.00435064  0.49919948  1
  Pt  Pt1  1  0.00435562  0.49485666  0.49921228  1
  Pt  Pt2  1  0.49504163  0.49504121  0.99008285  1
loop_
_geom_bond_atom_site_label_1
_geom_bond_atom_site_label_2
_geom_bond_distance
_geom_bond_site_symmetry_2
Mn0 Pd6 2.747222 1_555
Mn0 Pd5 2.747235 1_555
Mn0 Pd0 2.747254 1_555
Mn0 Pd4 2.747255 1_555
Mn0 Pd2 2.750060 1_565
Mn0 Pd1 2.750067 1_555
Mn0 Pd3 2.750069 1_655
Mn0 Pd7 2.750076 1_555
Mn0 Pd8 2.809509 1_666
Mn0 Pt2 2.813656 1_554
Mn0 Pt1 2.817856 1_655
Mn0 Pt0 2.817859 1_565
Mn1 Pt2 2.758455 1_554
Mn1 Pt0 2.758934 1_565
Mn1 Pt1 2.771876 1_554
Mn1 Pd7 2.771951 1_454
Mn1 Pd3 2.771975 1_554
Mn1 Pd6 2.772140 1_555
Mn1 Pd5 2.772149 1_555
Mn1 Pd8 2.773001 1_565
Mn1 Pd2 2.776919 1_454
Mn1 Pd1 2.776942 1_554
Mn1 Pd4 2.778959 1_455
Mn1 Pd0 2.778963 1_565
Mn2 Pt2 2.758507 1_554
Mn2 Pt1 2.758986 1_655
Mn2 Pd1 2.771944 1_544
Mn2 Pd2 2.771945 1_554
Mn2 Pt0 2.771965 1_554
Mn2 Pd4 2.772223 1_555
Mn2 Pd0 2.772235 1_555
Mn2 Pd8 2.772945 1_655
Mn2 Pd7 2.776962 1_554
Mn2 Pd3 2.776966 1_544
Mn2 Pd6 2.778935 1_655
Mn2 Pd5 2.778948 1_545
Mo0 Pt2 2.682340 1_555
Mo0 Pt0 2.712959 1_555
Mo0 Pt1 2.712963 1_555
Mo0 Pd2 2.745859 1_455
Mo0 Pd1 2.745864 1_555
Mo0 Pd7 2.745866 1_555
Mo0 Pd3 2.745867 1_545
Mo0 Pd8 2.754217 1_555
Mo0 Pd4 2.763470 1_445
Mo0 Pd0 2.763488 1_555
Mo0 Pd5 2.763531 1_445
Mo0 Pd6 2.763543 1_555
Pd0 Pd6 2.734536 1_555
Pd0 Pt0 2.736577 1_555
Pd0 Pd8 2.741707 1_555
Pd0 Pd7 2.742018 1_555
Pd0 Pd3 2.787890 1_544
Pd0 Pt2 2.789768 1_554
Pd0 Pt1 2.790525 1_655
Pd0 Pd5 2.796086 1_545
Pd1 Pd6 2.742038 1_555
Pd1 Pt2 2.743946 1_555
Pd1 Pt1 2.744147 1_555
Pd1 Pd7 2.748434 1_555
Pd1 Pd8 2.778268 1_666
Pd1 Pd3 2.782250 1_555
Pd1 Pt0 2.784585 1_565
Pd1 Pd5 2.787869 1_556
Pd2 Pd5 2.742038 1_545
Pd2 Pt2 2.743933 1_655
Pd2 Pt1 2.744154 1_655
Pd2 Pd3 2.748428 1_645
Pd2 Pd8 2.778275 1_656
Pd2 Pd7 2.782255 1_555
Pd2 Pt0 2.784584 1_555
Pd2 Pd6 2.787869 1_656
Pd3 Pd4 2.742012 1_455
Pd3 Pt2 2.743946 1_565
Pd3 Pt0 2.744169 1_565
Pd3 Pd8 2.778288 1_566
Pd3 Pt1 2.784528 1_555
Pd4 Pd5 2.734536 1_555
Pd4 Pt0 2.736570 1_665
Pd4 Pd8 2.741714 1_665
Pd4 Pd7 2.787895 1_554
Pd4 Pt2 2.789761 1_554
Pd4 Pt1 2.790532 1_655
Pd4 Pd6 2.796097 1_655
Pd5 Pt1 2.736644 1_665
Pd5 Pd8 2.741767 1_665
Pd5 Pt2 2.789735 1_554
Pd5 Pt0 2.790454 1_565
Pd6 Pt1 2.736656 1_555
Pd6 Pd8 2.741760 1_555
Pd6 Pt2 2.789736 1_554
Pd6 Pt0 2.790448 1_565
Pd7 Pt2 2.743952 1_555
Pd7 Pt0 2.744162 1_555
Pd7 Pd8 2.778282 1_666
Pd7 Pt1 2.784534 1_655
