# generated using pymatgen
data_Nb15Fe(Co2N)4
_symmetry_space_group_name_H-M   'P 1'
_cell_length_a   8.25297110
_cell_length_b   8.25297064
_cell_length_c   8.25297189
_cell_angle_alpha   59.02710748
_cell_angle_beta   59.02710945
_cell_angle_gamma   59.02710745
_symmetry_Int_Tables_number   1
_chemical_formula_structural   Nb15Fe(Co2N)4
_chemical_formula_sum   'Nb15 Fe1 Co8 N4'
_cell_volume   388.66110938
_cell_formula_units_Z   1
loop_
 _symmetry_equiv_pos_site_id
 _symmetry_equiv_pos_as_xyz
  1  'x, y, z'
loop_
 _atom_site_type_symbol
 _atom_site_label
 _atom_site_symmetry_multiplicity
 _atom_site_fract_x
 _atom_site_fract_y
 _atom_site_fract_z
 _atom_site_occupancy
  Nb  Nb0  1  0.12500000  0.62500000  0.62500000  1
  Nb  Nb1  1  0.62500000  0.12500000  0.62500000  1
  Nb  Nb2  1  0.62500000  0.62500000  0.12500000  1
  Nb  Nb3  1  0.80914386  0.80914386  0.19282430  1
  Nb  Nb4  1  0.18584949  0.18584949  0.81367416  1
  Nb  Nb5  1  0.80914386  0.19282430  0.80914386  1
  Nb  Nb6  1  0.18584949  0.81367416  0.18584949  1
  Nb  Nb7  1  0.19282430  0.80914386  0.80914386  1
  Nb  Nb8  1  0.81367416  0.18584949  0.18584949  1
  Nb  Nb9  1  0.44085614  0.44085614  0.05717570  1
  Nb  Nb10  1  0.06415051  0.06415051  0.43632584  1
  Nb  Nb11  1  0.44085614  0.05717570  0.44085614  1
  Nb  Nb12  1  0.06415051  0.43632584  0.06415051  1
  Nb  Nb13  1  0.05717570  0.44085614  0.44085614  1
  Nb  Nb14  1  0.43632584  0.06415051  0.06415051  1
  Fe  Fe0  1  0.62500000  0.62500000  0.62500000  1
  Co  Co0  1  0.73834972  0.42567208  0.42567208  1
  Co  Co1  1  0.42567208  0.73834972  0.42567208  1
  Co  Co2  1  0.42567208  0.42567208  0.73834972  1
  Co  Co3  1  0.41664587  0.41664587  0.41664587  1
  Co  Co4  1  0.51165028  0.82432792  0.82432792  1
  Co  Co5  1  0.82432792  0.51165028  0.82432792  1
  Co  Co6  1  0.82432792  0.82432792  0.51165028  1
  Co  Co7  1  0.83335413  0.83335413  0.83335413  1
  N  N0  1  0.62500000  0.12500000  0.12500000  1
  N  N1  1  0.12500000  0.62500000  0.12500000  1
  N  N2  1  0.12500000  0.12500000  0.62500000  1
  N  N3  1  0.12500000  0.12500000  0.12500000  1
loop_
_geom_bond_atom_site_label_1
_geom_bond_atom_site_label_2
_geom_bond_distance
_geom_bond_site_symmetry_2
Fe0 Nb11 2.925700 1_565
Fe0 Nb5 2.925700 1_555
Fe0 Nb13 2.925700 1_655
Fe0 Nb7 2.925700 1_555
Fe0 Nb9 2.925700 1_556
Fe0 Nb3 2.925700 1_555
Co0 Fe0 2.430018 1_555
Co0 Nb1 2.518451 1_555
Co0 Nb2 2.518451 1_555
Co0 Co1 2.542480 1_555
Co0 Co2 2.542480 1_555
Co0 Co3 2.733686 1_555
Co0 Nb13 2.765840 1_655
Co0 Nb10 2.802790 1_655
Co0 Nb12 2.802790 1_655
Co0 Nb3 2.921974 1_555
Co0 Nb5 2.921974 1_555
Co0 Nb8 3.117780 1_555
Co1 Fe0 2.430018 1_555
Co1 Nb0 2.518451 1_555
Co1 Nb2 2.518451 1_555
Co1 Co2 2.542480 1_555
Co1 Co3 2.733686 1_555
Co1 Nb11 2.765840 1_565
Co1 Nb10 2.802790 1_565
Co1 Nb14 2.802790 1_565
Co1 Nb3 2.921974 1_555
Co1 Nb7 2.921974 1_555
Co1 Nb6 3.117780 1_555
Co2 Fe0 2.430018 1_555
Co2 Nb1 2.518451 1_555
Co2 Nb0 2.518451 1_555
Co2 Co3 2.733686 1_555
Co2 Nb9 2.765841 1_556
Co2 Nb14 2.802790 1_556
Co2 Nb12 2.802790 1_556
Co2 Nb7 2.921974 1_555
Co2 Nb5 2.921974 1_555
Co2 Nb4 3.117780 1_555
Co3 Nb1 2.496087 1_555
Co3 Nb2 2.496087 1_555
Co3 Nb0 2.496087 1_555
Co3 Nb11 2.775248 1_555
Co3 Nb13 2.775248 1_555
Co3 Nb9 2.775248 1_555
Co3 Nb6 2.979798 1_555
Co3 Nb8 2.979798 1_555
Co3 Nb4 2.979798 1_555
Co4 Fe0 2.430018 1_555
Co4 Nb1 2.518451 1_565
Co4 Nb2 2.518451 1_556
Co4 Co5 2.542480 1_555
Co4 Co6 2.542480 1_555
Co4 Co7 2.733686 1_555
Co4 Nb7 2.765840 1_555
Co4 Nb4 2.802790 1_565
Co4 Nb6 2.802790 1_556
Co4 Nb9 2.921974 1_556
Co4 Nb11 2.921974 1_565
Co4 Nb14 3.117780 1_566
Co5 Fe0 2.430018 1_555
Co5 Nb0 2.518451 1_655
Co5 Nb2 2.518451 1_556
Co5 Co6 2.542480 1_555
Co5 Co7 2.733686 1_555
Co5 Nb5 2.765840 1_555
Co5 Nb4 2.802790 1_655
Co5 Nb8 2.802790 1_556
Co5 Nb9 2.921974 1_556
Co5 Nb13 2.921974 1_655
Co5 Nb12 3.117780 1_656
Co6 Fe0 2.430018 1_555
Co6 Nb1 2.518451 1_565
Co6 Nb0 2.518451 1_655
Co6 Co7 2.733686 1_555
Co6 Nb3 2.765841 1_555
Co6 Nb8 2.802790 1_565
Co6 Nb6 2.802790 1_655
Co6 Nb13 2.921974 1_655
Co6 Nb11 2.921974 1_565
Co6 Nb10 3.117780 1_665
Co7 Nb1 2.496087 1_565
Co7 Nb2 2.496087 1_556
Co7 Nb0 2.496087 1_655
Co7 Nb5 2.775248 1_565
Co7 Nb7 2.775248 1_655
Co7 Nb3 2.775248 1_556
Co7 Nb12 2.979798 1_656
Co7 Nb14 2.979798 1_566
Co7 Nb10 2.979798 1_665
N0 Nb9 2.171243 1_555
N0 Nb3 2.171243 1_545
N0 Nb11 2.171243 1_555
N0 Nb5 2.171243 1_554
N0 Nb8 2.190502 1_555
N0 Nb14 2.190502 1_555
N1 Nb9 2.171243 1_555
N1 Nb3 2.171243 1_455
N1 Nb13 2.171243 1_555
N1 Nb7 2.171243 1_554
N1 Nb12 2.190502 1_555
N1 Nb6 2.190502 1_555
N2 Nb13 2.171243 1_555
N2 Nb7 2.171243 1_545
N2 Nb5 2.171243 1_455
N2 Nb11 2.171243 1_555
N2 Nb4 2.190502 1_555
N2 Nb10 2.190502 1_555
N3 Nb6 2.170128 1_545
N3 Nb12 2.170128 1_555
N3 Nb14 2.170128 1_555
N3 Nb8 2.170128 1_455
N3 Nb10 2.170128 1_555
N3 Nb4 2.170128 1_554
