# generated using pymatgen
data_ScGa2(Ni10B3)2
_symmetry_space_group_name_H-M   'P 1'
_cell_length_a   7.38913883
_cell_length_b   7.38913920
_cell_length_c   7.38913889
_cell_angle_alpha   60.00000572
_cell_angle_beta   60.00000409
_cell_angle_gamma   60.00000185
_symmetry_Int_Tables_number   1
_chemical_formula_structural   ScGa2(Ni10B3)2
_chemical_formula_sum   'Sc1 Ga2 Ni20 B6'
_cell_volume   285.27685953
_cell_formula_units_Z   1
loop_
 _symmetry_equiv_pos_site_id
 _symmetry_equiv_pos_as_xyz
  1  'x, y, z'
loop_
 _atom_site_type_symbol
 _atom_site_label
 _atom_site_symmetry_multiplicity
 _atom_site_fract_x
 _atom_site_fract_y
 _atom_site_fract_z
 _atom_site_occupancy
  Sc  Sc0  1  0.25000000  0.25000000  0.25000000  1
  Ga  Ga0  1  0.00000000  0.00000000  0.00000000  1
  Ga  Ga1  1  0.75000000  0.75000000  0.75000000  1
  Ni  Ni0  1  0.33807985  0.00004230  0.00004230  1
  Ni  Ni1  1  0.00004230  0.33807985  0.66183555  1
  Ni  Ni2  1  0.66183555  0.00004230  0.00004230  1
  Ni  Ni3  1  0.00004230  0.66183555  0.33807985  1
  Ni  Ni4  1  0.00004230  0.33807985  0.00004230  1
  Ni  Ni5  1  0.00004230  0.00004230  0.33807985  1
  Ni  Ni6  1  0.33807985  0.00004230  0.66183555  1
  Ni  Ni7  1  0.33807985  0.66183555  0.00004230  1
  Ni  Ni8  1  0.66183555  0.00004230  0.33807985  1
  Ni  Ni9  1  0.00004230  0.00004230  0.66183555  1
  Ni  Ni10  1  0.00004230  0.66183555  0.00004230  1
  Ni  Ni11  1  0.66183555  0.33807985  0.00004230  1
  Ni  Ni12  1  0.38736653  0.38736653  0.38736653  1
  Ni  Ni13  1  0.38736653  0.38736653  0.83789941  1
  Ni  Ni14  1  0.83789941  0.38736653  0.38736653  1
  Ni  Ni15  1  0.38736653  0.83789941  0.38736653  1
  Ni  Ni16  1  0.61973125  0.61973125  0.61973125  1
  Ni  Ni17  1  0.61973125  0.61973125  0.14080726  1
  Ni  Ni18  1  0.61973125  0.14080726  0.61973125  1
  Ni  Ni19  1  0.14080726  0.61973125  0.61973125  1
  B  B0  1  0.72559688  0.72559688  0.27440312  1
  B  B1  1  0.27440312  0.27440312  0.72559688  1
  B  B2  1  0.27440312  0.72559688  0.72559688  1
  B  B3  1  0.72559688  0.27440312  0.72559688  1
  B  B4  1  0.72559688  0.27440312  0.27440312  1
  B  B5  1  0.27440312  0.72559688  0.27440312  1
loop_
_geom_bond_atom_site_label_1
_geom_bond_atom_site_label_2
_geom_bond_distance
_geom_bond_site_symmetry_2
Ga0 Ni0 2.498432 1_555
Ga0 Ni2 2.498432 1_455
Ga0 Ni5 2.498432 1_555
Ga0 Ni9 2.498432 1_554
Ga0 Ni4 2.498432 1_555
Ga0 Ni10 2.498432 1_545
Ga0 Ni11 2.498432 1_455
Ga0 Ni7 2.498432 1_545
Ga0 Ni8 2.498432 1_455
Ga0 Ni6 2.498432 1_554
Ga0 Ni1 2.498432 1_554
Ga0 Ni3 2.498432 1_545
Ga1 Ni16 2.357815 1_555
Ga1 Ni19 2.357821 1_655
Ga1 Ni17 2.357821 1_556
Ga1 Ni18 2.357821 1_565
Ni0 Sc0 2.872866 1_555
Ni1 Sc0 2.872866 1_555
Ni2 Sc0 2.872866 1_555
Ni3 Sc0 2.872866 1_555
Ni4 Sc0 2.872866 1_555
Ni5 Sc0 2.872866 1_555
Ni6 Sc0 2.872866 1_555
Ni7 Sc0 2.872866 1_555
Ni8 Sc0 2.872866 1_555
Ni9 Sc0 2.872866 1_555
Ni10 Sc0 2.872866 1_555
Ni11 Sc0 2.872866 1_555
Ni12 Sc0 2.486282 1_555
Ni13 Sc0 2.486288 1_556
Ni14 Sc0 2.486288 1_655
Ni15 Sc0 2.486288 1_565
B0 Ni15 2.040616 1_555
B0 Ni14 2.040616 1_555
B0 Ni3 2.081551 1_655
B0 Ni8 2.081551 1_565
B0 Ni10 2.081551 1_655
B0 Ni2 2.081551 1_565
B0 Ni17 2.086786 1_555
B0 Ni16 2.086792 1_555
B1 Ni13 2.040609 1_555
B1 Ni12 2.040616 1_555
B1 Ni1 2.081551 1_555
B1 Ni6 2.081551 1_555
B1 Ni4 2.081551 1_556
B1 Ni0 2.081551 1_556
B1 Ni18 2.086792 1_555
B1 Ni19 2.086792 1_555
B2 Ni15 2.040616 1_555
B2 Ni13 2.040616 1_555
B2 Ni7 2.081551 1_556
B2 Ni9 2.081551 1_565
B2 Ni6 2.081551 1_565
B2 Ni10 2.081551 1_556
B2 Ni19 2.086786 1_555
B2 Ni16 2.086792 1_555
B3 Ni13 2.040616 1_555
B3 Ni14 2.040616 1_555
B3 Ni11 2.081551 1_556
B3 Ni1 2.081551 1_655
B3 Ni9 2.081551 1_655
B3 Ni2 2.081551 1_556
B3 Ni18 2.086786 1_555
B3 Ni16 2.086792 1_555
B4 Ni14 2.040609 1_555
B4 Ni12 2.040616 1_555
B4 Ni11 2.081551 1_555
B4 Ni5 2.081551 1_655
B4 Ni8 2.081551 1_555
B4 Ni4 2.081551 1_655
B4 Ni18 2.086792 1_555
B4 Ni17 2.086792 1_555
B5 Ni15 2.040609 1_555
B5 Ni12 2.040616 1_555
B5 Ni7 2.081551 1_555
B5 Ni3 2.081551 1_555
B5 Ni5 2.081551 1_565
B5 Ni0 2.081551 1_565
B5 Ni17 2.086792 1_555
B5 Ni19 2.086792 1_555
