# generated using pymatgen
data_Ti7Nb(SiBi2)2
_symmetry_space_group_name_H-M   'P 1'
_cell_length_a   7.84622430
_cell_length_b   7.84622580
_cell_length_c   7.86319274
_cell_angle_alpha   95.55704779
_cell_angle_beta   95.72298349
_cell_angle_gamma   143.41938462
_symmetry_Int_Tables_number   1
_chemical_formula_structural   Ti7Nb(SiBi2)2
_chemical_formula_sum   'Ti7 Nb1 Si2 Bi4'
_cell_volume   273.98040930
_cell_formula_units_Z   1
loop_
 _symmetry_equiv_pos_site_id
 _symmetry_equiv_pos_as_xyz
  1  'x, y, z'
loop_
 _atom_site_type_symbol
 _atom_site_label
 _atom_site_symmetry_multiplicity
 _atom_site_fract_x
 _atom_site_fract_y
 _atom_site_fract_z
 _atom_site_occupancy
  Ti  Ti0  1  0.91980379  0.19941741  0.11922220  1
  Ti  Ti1  1  0.30160312  0.58280546  0.88440758  1
  Ti  Ti2  1  0.79992968  0.91724019  0.71717087  1
  Ti  Ti3  1  0.69760548  0.41800073  0.11560621  1
  Ti  Ti4  1  0.08143867  0.80086680  0.88230346  1
  Ti  Ti5  1  0.41887234  0.30184934  0.72072168  1
  Ti  Ti6  1  0.19842988  0.08233225  0.28076213  1
  Nb  Nb0  1  0.58165483  0.69734899  0.27900381  1
  Si  Si0  1  0.75041927  0.74977775  0.99723196  1
  Si  Si1  1  0.24745421  0.24681369  0.99723196  1
  Bi  Bi0  1  0.35662056  0.86102687  0.21764743  1
  Bi  Bi1  1  0.14201556  0.36091070  0.50292626  1
  Bi  Bi2  1  0.64276055  0.14150081  0.78426136  1
  Bi  Bi3  1  0.86139307  0.64010902  0.50150208  1
loop_
_geom_bond_atom_site_label_1
_geom_bond_atom_site_label_2
_geom_bond_distance
_geom_bond_site_symmetry_2
Nb0 Si1 2.591992 1_554
Nb0 Si0 2.591995 1_554
Si0 Si1 2.447795 1_665
Si0 Si1 2.476995 1_555
Si0 Ti5 2.560296 1_555
Si0 Ti4 2.566958 1_655
Si0 Ti3 2.574579 1_556
Si0 Ti2 2.576468 1_555
Si0 Ti1 2.578133 1_555
Si0 Ti0 2.587086 1_566
Si0 Ti6 2.591322 1_666
Si1 Ti5 2.560296 1_555
Si1 Ti4 2.566961 1_545
Si1 Ti3 2.574584 1_556
Si1 Ti2 2.576469 1_445
Si1 Ti1 2.578129 1_555
Si1 Ti0 2.587083 1_456
Si1 Ti6 2.591325 1_556
Bi0 Ti6 2.866939 1_565
Bi0 Nb0 2.931137 1_555
Bi0 Ti4 2.970593 1_554
Bi0 Ti1 2.995167 1_554
Bi0 Ti3 3.037971 1_455
Bi0 Ti3 3.037972 1_565
Bi0 Ti0 3.067907 1_565
Bi0 Ti0 3.067912 1_455
Bi1 Ti1 2.887085 1_555
Bi1 Ti0 2.900154 1_455
Bi1 Ti5 2.982435 1_555
Bi1 Ti6 2.998982 1_555
Bi1 Ti2 3.031824 1_555
Bi1 Ti2 3.031828 1_445
Bi1 Nb0 3.074865 1_555
Bi1 Nb0 3.074866 1_445
Bi2 Ti2 2.886202 1_545
Bi2 Ti5 2.900807 1_555
Bi2 Ti3 2.976975 1_556
Bi2 Ti0 2.984758 1_556
Bi2 Ti1 3.040593 1_545
Bi2 Ti1 3.040597 1_655
Bi2 Ti4 3.050618 1_545
Bi2 Ti4 3.050627 1_655
Bi3 Ti4 2.877106 1_655
Bi3 Ti3 2.915007 1_555
Bi3 Ti2 2.994946 1_555
Bi3 Nb0 3.008265 1_555
Bi3 Ti5 3.057897 1_555
Bi3 Ti5 3.057898 1_665
Bi3 Ti6 3.064409 1_665
Bi3 Ti6 3.064409 1_555
