# generated using pymatgen
data_Sr4Ga5CuAu12
_symmetry_space_group_name_H-M   'P 1'
_cell_length_a   8.70752917
_cell_length_b   8.69281924
_cell_length_c   8.70752978
_cell_angle_alpha   58.71972794
_cell_angle_beta   58.69882709
_cell_angle_gamma   58.71972818
_symmetry_Int_Tables_number   1
_chemical_formula_structural   Sr4Ga5CuAu12
_chemical_formula_sum   'Sr4 Ga5 Cu1 Au12'
_cell_volume   452.34601455
_cell_formula_units_Z   1
loop_
 _symmetry_equiv_pos_site_id
 _symmetry_equiv_pos_as_xyz
  1  'x, y, z'
loop_
 _atom_site_type_symbol
 _atom_site_label
 _atom_site_symmetry_multiplicity
 _atom_site_fract_x
 _atom_site_fract_y
 _atom_site_fract_z
 _atom_site_occupancy
  Sr  Sr0  1  0.40862729  0.40819871  0.40749539  1
  Sr  Sr1  1  0.90973029  0.91087277  0.90597748  1
  Sr  Sr2  1  0.59402252  0.58912723  0.59026971  1
  Sr  Sr3  1  0.09250461  0.09180129  0.09137271  1
  Ga  Ga0  1  0.42981556  0.06663207  0.25634580  1
  Ga  Ga1  1  0.24365420  0.43336793  0.07018444  1
  Ga  Ga2  1  0.93532598  0.75000000  0.56467402  1
  Ga  Ga3  1  0.56175590  0.93690980  0.75078716  1
  Ga  Ga4  1  0.74921284  0.56309020  0.93824410  1
  Cu  Cu0  1  0.08144169  0.25000000  0.41855831  1
  Au  Au0  1  0.97953141  0.35400411  0.70482633  1
  Au  Au1  1  0.70535529  0.97569111  0.35858817  1
  Au  Au2  1  0.35817563  0.70247437  0.97673689  1
  Au  Au3  1  0.19899101  0.86530940  0.47896730  1
  Au  Au4  1  0.47736729  0.20397776  0.86100062  1
  Au  Au5  1  0.86075075  0.47392461  0.20614495  1
  Au  Au6  1  0.02103270  0.63469060  0.30100899  1
  Au  Au7  1  0.29385505  0.02607539  0.63924925  1
  Au  Au8  1  0.63899938  0.29602224  0.02263271  1
  Au  Au9  1  0.79517367  0.14599589  0.52046859  1
  Au  Au10  1  0.52326311  0.79752563  0.14182437  1
  Au  Au11  1  0.14141183  0.52430889  0.79464471  1
loop_
_geom_bond_atom_site_label_1
_geom_bond_atom_site_label_2
_geom_bond_distance
_geom_bond_site_symmetry_2
Sr0 Sr2 3.939315 1_555
Sr1 Sr3 3.939315 1_666
Ga0 Ga1 2.723227 1_555
Ga0 Sr2 3.654021 1_545
Ga0 Sr1 3.710876 1_544
Ga0 Sr0 3.717419 1_555
Ga0 Sr3 3.758806 1_555
Ga1 Sr1 3.654021 1_454
Ga1 Sr2 3.710876 1_554
Ga1 Sr3 3.717419 1_555
Ga1 Sr0 3.758806 1_555
Ga2 Ga3 2.759667 1_555
Ga2 Ga4 2.759667 1_555
Ga2 Sr0 3.651324 1_655
Ga2 Sr3 3.651324 1_665
Ga2 Sr2 3.760515 1_555
Ga2 Sr1 3.760515 1_555
Ga3 Ga4 2.764139 1_555
Ga3 Sr3 3.625724 1_566
Ga3 Sr0 3.639916 1_565
Ga3 Sr2 3.777601 1_555
Ga3 Sr1 3.779273 1_555
Ga4 Sr0 3.625724 1_556
Ga4 Sr3 3.639916 1_656
Ga4 Sr1 3.777601 1_555
Ga4 Sr2 3.779273 1_555
Cu0 Ga0 2.569536 1_555
Cu0 Ga1 2.569536 1_555
Cu0 Sr0 3.696338 1_555
Cu0 Sr3 3.696338 1_555
Cu0 Sr2 3.732288 1_455
Cu0 Sr1 3.732288 1_445
Au0 Cu0 2.650859 1_655
Au0 Ga4 2.696674 1_555
Au0 Au7 2.812029 1_655
Au0 Ga2 2.869971 1_555
Au0 Au8 2.877804 1_556
Au0 Au6 3.022240 1_655
Au0 Au11 3.050431 1_655
Au0 Sr3 3.261471 1_656
Au0 Sr2 3.267740 1_555
Au0 Sr0 3.375676 1_655
Au0 Sr1 3.548851 1_545
Au1 Ga0 2.587089 1_565
Au1 Ga2 2.660325 1_555
Au1 Ga3 2.853956 1_555
Au1 Au6 2.871221 1_655
Au1 Au8 2.876077 1_565
Au1 Au9 3.050431 1_565
Au1 Au7 3.063692 1_565
Au1 Sr2 3.257678 1_555
Au1 Sr3 3.277397 1_665
Au1 Sr0 3.379980 1_565
Au1 Sr1 3.604715 1_554
Au2 Ga1 2.594504 1_556
Au2 Ga3 2.670243 1_555
Au2 Ga4 2.850590 1_555
Au2 Au7 2.890032 1_565
Au2 Au6 2.897182 1_556
Au2 Au8 3.033139 1_556
Au2 Sr2 3.267067 1_555
Au2 Sr3 3.283339 1_566
Au2 Sr0 3.374445 1_556
Au2 Sr1 3.592244 1_455
Au3 Ga2 2.581730 1_455
Au3 Ga0 2.634686 1_565
Au3 Cu0 2.772249 1_565
Au3 Au7 3.000891 1_565
Au3 Au9 3.022239 1_465
Au3 Sr3 3.253038 1_565
Au3 Sr2 3.317686 1_555
Au3 Sr1 3.329894 1_455
Au3 Sr0 3.655689 1_555
Au4 Ga3 2.580705 1_545
Au4 Ga1 2.672366 1_556
Au4 Ga0 2.865617 1_556
Au4 Au9 2.877804 1_555
Au4 Au8 2.999813 1_556
Au4 Sr3 3.253074 1_556
Au4 Sr2 3.262792 1_555
Au4 Sr1 3.369517 1_545
Au4 Sr0 3.629928 1_555
Au5 Ga4 2.584677 1_554
Au5 Cu0 2.640618 1_655
Au5 Ga1 2.784545 1_655
Au5 Au9 2.812029 1_555
Au5 Au6 3.000891 1_655
Au5 Sr3 3.239714 1_655
Au5 Sr2 3.252039 1_555
Au5 Sr1 3.413957 1_554
Au5 Sr0 3.608719 1_555
Au6 Ga2 2.581730 1_455
Au6 Ga1 2.634686 1_555
Au6 Cu0 2.772249 1_555
Au6 Sr0 3.253038 1_555
Au6 Sr1 3.317686 1_454
Au6 Sr2 3.329894 1_455
Au6 Sr3 3.655689 1_565
Au7 Ga3 2.584677 1_545
Au7 Cu0 2.640618 1_555
Au7 Ga0 2.784545 1_555
Au7 Sr0 3.239714 1_555
Au7 Sr1 3.252038 1_445
Au7 Sr2 3.413957 1_545
Au7 Sr3 3.608720 1_556
Au8 Ga4 2.580705 1_554
Au8 Ga0 2.672366 1_555
Au8 Ga1 2.865616 1_555
Au8 Sr0 3.253074 1_555
Au8 Sr1 3.262792 1_544
Au8 Sr2 3.369517 1_554
Au8 Sr3 3.629927 1_655
Au9 Cu0 2.650859 1_655
Au9 Ga3 2.696673 1_545
Au9 Ga2 2.869971 1_545
Au9 Sr0 3.261470 1_555
Au9 Sr1 3.267740 1_545
Au9 Sr3 3.375676 1_655
Au9 Sr2 3.548851 1_555
Au10 Ga0 2.594504 1_565
Au10 Ga4 2.670243 1_554
Au10 Ga3 2.850591 1_554
Au10 Au5 2.890032 1_555
Au10 Au3 2.897182 1_555
Au10 Au4 3.033139 1_564
Au10 Au2 3.070759 1_554
Au10 Sr1 3.267067 1_554
Au10 Sr0 3.283339 1_555
Au10 Sr3 3.374444 1_565
Au10 Sr2 3.592244 1_555
Au11 Ga1 2.587089 1_556
Au11 Ga2 2.660325 1_455
Au11 Ga4 2.853956 1_455
Au11 Au3 2.871221 1_555
Au11 Au4 2.876077 1_555
Au11 Au5 3.063692 1_456
Au11 Sr1 3.257678 1_455
Au11 Sr0 3.277397 1_555
Au11 Sr3 3.379980 1_556
Au11 Sr2 3.604715 1_555
