# generated using pymatgen
data_Pr
_symmetry_space_group_name_H-M   'P 1'
_cell_length_a   7.49661478
_cell_length_b   7.49661055
_cell_length_c   24.02849342
_cell_angle_alpha   90.00000000
_cell_angle_beta   90.00000000
_cell_angle_gamma   120.00000926
_symmetry_Int_Tables_number   1
_chemical_formula_structural   Pr
_chemical_formula_sum   Pr32
_cell_volume   1169.46513036
_cell_formula_units_Z   32
loop_
 _symmetry_equiv_pos_site_id
 _symmetry_equiv_pos_as_xyz
  1  'x, y, z'
loop_
 _atom_site_type_symbol
 _atom_site_label
 _atom_site_symmetry_multiplicity
 _atom_site_fract_x
 _atom_site_fract_y
 _atom_site_fract_z
 _atom_site_occupancy
  Pr  Pr0_0  1  0.00000000  0.00000000  0.00000000  1
  Pr  Pr0_1  1  0.00000000  0.00000000  0.50000000  1
  Pr  Pr0_2  1  0.00000000  0.50000000  0.00000000  1
  Pr  Pr0_3  1  0.00000000  0.50000000  0.50000000  1
  Pr  Pr0_4  1  0.50000000  0.00000000  0.00000000  1
  Pr  Pr0_5  1  0.50000000  0.00000000  0.50000000  1
  Pr  Pr0_6  1  0.50000000  0.50000000  0.00000000  1
  Pr  Pr0_7  1  0.50000000  0.50000000  0.50000000  1
  Pr  Pr1_0  1  0.00000000  0.00000000  0.25000000  1
  Pr  Pr1_1  1  0.00000000  0.00000000  0.75000000  1
  Pr  Pr1_2  1  0.00000000  0.50000000  0.25000000  1
  Pr  Pr1_3  1  0.00000000  0.50000000  0.75000000  1
  Pr  Pr1_4  1  0.50000000  0.00000000  0.25000000  1
  Pr  Pr1_5  1  0.50000000  0.00000000  0.75000000  1
  Pr  Pr1_6  1  0.50000000  0.50000000  0.25000000  1
  Pr  Pr1_7  1  0.50000000  0.50000000  0.75000000  1
  Pr  Pr2_0  1  0.16666650  0.33333350  0.12500000  1
  Pr  Pr2_1  1  0.16666650  0.33333350  0.62500000  1
  Pr  Pr2_2  1  0.16666650  0.83333350  0.12500000  1
  Pr  Pr2_3  1  0.16666650  0.83333350  0.62500000  1
  Pr  Pr2_4  1  0.66666650  0.33333350  0.12500000  1
  Pr  Pr2_5  1  0.66666650  0.33333350  0.62500000  1
  Pr  Pr2_6  1  0.66666650  0.83333350  0.12500000  1
  Pr  Pr2_7  1  0.66666650  0.83333350  0.62500000  1
  Pr  Pr3_0  1  0.33333350  0.16666650  0.37500000  1
  Pr  Pr3_1  1  0.33333350  0.16666650  0.87500000  1
  Pr  Pr3_2  1  0.33333350  0.66666650  0.37500000  1
  Pr  Pr3_3  1  0.33333350  0.66666650  0.87500000  1
  Pr  Pr3_4  1  0.83333350  0.16666650  0.37500000  1
  Pr  Pr3_5  1  0.83333350  0.16666650  0.87500000  1
  Pr  Pr3_6  1  0.83333350  0.66666650  0.37500000  1
  Pr  Pr3_7  1  0.83333350  0.66666650  0.87500000  1
loop_
_geom_bond_atom_site_label_1
_geom_bond_atom_site_label_2
_geom_bond_distance
_geom_bond_site_symmetry_2
Pr0_0 Pr3_5 3.701978 1_454
Pr0_0 Pr2_2 3.701978 1_545
Pr0_0 Pr3_7 3.701979 1_444
Pr0_0 Pr2_0 3.701979 1_555
Pr0_0 Pr3_1 3.701980 1_554
Pr0_0 Pr2_6 3.701980 1_445
Pr0_0 Pr0_2 3.748305 1_555
Pr0_0 Pr0_2 3.748305 1_545
Pr0_0 Pr0_6 3.748306 1_555
Pr0_0 Pr0_6 3.748306 1_445
Pr0_0 Pr0_4 3.748307 1_455
Pr0_0 Pr0_4 3.748307 1_555
Pr0_1 Pr3_4 3.701978 1_455
Pr0_1 Pr2_3 3.701978 1_545
Pr0_1 Pr2_1 3.701979 1_555
Pr0_1 Pr3_6 3.701979 1_445
Pr0_1 Pr3_0 3.701980 1_555
Pr0_1 Pr2_7 3.701980 1_445
Pr0_1 Pr0_3 3.748305 1_545
Pr0_1 Pr0_3 3.748305 1_555
Pr0_1 Pr0_7 3.748306 1_555
Pr0_1 Pr0_7 3.748306 1_445
Pr0_1 Pr0_5 3.748307 1_555
Pr0_1 Pr0_5 3.748307 1_455
Pr0_2 Pr3_7 3.701978 1_454
Pr0_2 Pr2_0 3.701978 1_555
Pr0_2 Pr3_5 3.701979 1_454
Pr0_2 Pr2_2 3.701979 1_555
Pr0_2 Pr3_3 3.701980 1_554
Pr0_2 Pr2_4 3.701980 1_455
Pr0_2 Pr0_4 3.748306 1_565
Pr0_2 Pr0_4 3.748306 1_455
Pr0_2 Pr0_6 3.748307 1_555
Pr0_2 Pr0_6 3.748307 1_455
Pr0_3 Pr3_6 3.701978 1_455
Pr0_3 Pr2_1 3.701978 1_555
Pr0_3 Pr2_3 3.701979 1_555
Pr0_3 Pr3_4 3.701979 1_455
Pr0_3 Pr3_2 3.701980 1_555
Pr0_3 Pr2_5 3.701980 1_455
Pr0_3 Pr0_5 3.748306 1_455
Pr0_3 Pr0_5 3.748306 1_565
Pr0_3 Pr0_7 3.748307 1_555
Pr0_3 Pr0_7 3.748307 1_455
Pr0_4 Pr3_1 3.701978 1_554
Pr0_4 Pr2_6 3.701978 1_545
Pr0_4 Pr3_3 3.701979 1_544
Pr0_4 Pr2_4 3.701979 1_555
Pr0_4 Pr3_5 3.701980 1_554
Pr0_4 Pr2_2 3.701980 1_545
Pr0_4 Pr0_6 3.748305 1_545
Pr0_4 Pr0_6 3.748305 1_555
Pr0_5 Pr2_7 3.701978 1_545
Pr0_5 Pr3_0 3.701978 1_555
Pr0_5 Pr2_5 3.701979 1_555
Pr0_5 Pr3_2 3.701979 1_545
Pr0_5 Pr2_3 3.701980 1_545
Pr0_5 Pr3_4 3.701980 1_555
Pr0_5 Pr0_7 3.748305 1_555
Pr0_5 Pr0_7 3.748305 1_545
Pr0_6 Pr3_3 3.701978 1_554
Pr0_6 Pr2_4 3.701978 1_555
Pr0_6 Pr3_1 3.701979 1_554
Pr0_6 Pr2_6 3.701979 1_555
Pr0_6 Pr3_7 3.701980 1_554
Pr0_6 Pr2_0 3.701980 1_555
Pr0_7 Pr3_2 3.701978 1_555
Pr0_7 Pr2_5 3.701978 1_555
Pr0_7 Pr2_7 3.701979 1_555
Pr0_7 Pr3_0 3.701979 1_555
Pr0_7 Pr2_1 3.701980 1_555
Pr0_7 Pr3_6 3.701980 1_555
Pr1_0 Pr3_4 3.701978 1_455
Pr1_0 Pr2_2 3.701978 1_545
Pr1_0 Pr2_0 3.701979 1_555
Pr1_0 Pr3_6 3.701979 1_445
Pr1_0 Pr3_0 3.701980 1_555
Pr1_0 Pr2_6 3.701980 1_445
Pr1_0 Pr1_2 3.748305 1_545
Pr1_0 Pr1_2 3.748305 1_555
Pr1_0 Pr1_6 3.748306 1_555
Pr1_0 Pr1_6 3.748306 1_445
Pr1_0 Pr1_4 3.748307 1_455
Pr1_0 Pr1_4 3.748307 1_555
Pr1_1 Pr2_3 3.701978 1_545
Pr1_1 Pr3_5 3.701978 1_455
Pr1_1 Pr2_1 3.701979 1_555
Pr1_1 Pr3_7 3.701979 1_445
Pr1_1 Pr2_7 3.701980 1_445
Pr1_1 Pr3_1 3.701980 1_555
Pr1_1 Pr1_3 3.748305 1_545
Pr1_1 Pr1_3 3.748305 1_555
Pr1_1 Pr1_7 3.748306 1_555
Pr1_1 Pr1_7 3.748306 1_445
Pr1_1 Pr1_5 3.748307 1_455
Pr1_1 Pr1_5 3.748307 1_555
Pr1_2 Pr3_6 3.701978 1_455
Pr1_2 Pr2_0 3.701978 1_555
Pr1_2 Pr2_2 3.701979 1_555
Pr1_2 Pr3_4 3.701979 1_455
Pr1_2 Pr2_4 3.701980 1_455
Pr1_2 Pr3_2 3.701980 1_555
Pr1_2 Pr1_4 3.748306 1_565
Pr1_2 Pr1_4 3.748306 1_455
Pr1_2 Pr1_6 3.748307 1_555
Pr1_2 Pr1_6 3.748307 1_455
Pr1_3 Pr2_1 3.701978 1_555
Pr1_3 Pr3_7 3.701978 1_455
Pr1_3 Pr2_3 3.701979 1_555
Pr1_3 Pr3_5 3.701979 1_455
Pr1_3 Pr2_5 3.701980 1_455
Pr1_3 Pr3_3 3.701980 1_555
Pr1_3 Pr1_5 3.748306 1_565
Pr1_3 Pr1_5 3.748306 1_455
Pr1_3 Pr1_7 3.748307 1_555
Pr1_3 Pr1_7 3.748307 1_455
Pr1_4 Pr2_6 3.701978 1_545
Pr1_4 Pr3_0 3.701978 1_555
Pr1_4 Pr2_4 3.701979 1_555
Pr1_4 Pr3_2 3.701979 1_545
Pr1_4 Pr2_2 3.701980 1_545
Pr1_4 Pr3_4 3.701980 1_555
Pr1_4 Pr1_6 3.748305 1_555
Pr1_4 Pr1_6 3.748305 1_545
Pr1_5 Pr2_7 3.701978 1_545
Pr1_5 Pr3_1 3.701978 1_555
Pr1_5 Pr2_5 3.701979 1_555
Pr1_5 Pr3_3 3.701979 1_545
Pr1_5 Pr2_3 3.701980 1_545
Pr1_5 Pr3_5 3.701980 1_555
Pr1_5 Pr1_7 3.748305 1_555
Pr1_5 Pr1_7 3.748305 1_545
Pr1_6 Pr3_2 3.701978 1_555
Pr1_6 Pr2_4 3.701978 1_555
Pr1_6 Pr2_6 3.701979 1_555
Pr1_6 Pr3_0 3.701979 1_555
Pr1_6 Pr3_6 3.701980 1_555
Pr1_6 Pr2_0 3.701980 1_555
Pr1_7 Pr2_5 3.701978 1_555
Pr1_7 Pr3_3 3.701978 1_555
Pr1_7 Pr2_7 3.701979 1_555
Pr1_7 Pr3_1 3.701979 1_555
Pr1_7 Pr2_1 3.701980 1_555
Pr1_7 Pr3_7 3.701980 1_555
Pr2_0 Pr2_2 3.748305 1_545
Pr2_0 Pr2_2 3.748305 1_555
Pr2_0 Pr2_6 3.748306 1_555
Pr2_0 Pr2_6 3.748306 1_445
Pr2_0 Pr2_4 3.748307 1_455
Pr2_0 Pr2_4 3.748307 1_555
Pr2_1 Pr2_3 3.748305 1_545
Pr2_1 Pr2_3 3.748305 1_555
Pr2_1 Pr2_7 3.748306 1_555
Pr2_1 Pr2_7 3.748306 1_445
Pr2_1 Pr2_5 3.748307 1_455
Pr2_1 Pr2_5 3.748307 1_555
Pr2_2 Pr2_4 3.748306 1_565
Pr2_2 Pr2_4 3.748306 1_455
Pr2_2 Pr2_6 3.748307 1_555
Pr2_2 Pr2_6 3.748307 1_455
Pr2_3 Pr2_5 3.748306 1_565
Pr2_3 Pr2_5 3.748306 1_455
Pr2_3 Pr2_7 3.748307 1_555
Pr2_3 Pr2_7 3.748307 1_455
Pr2_4 Pr2_6 3.748305 1_555
Pr2_4 Pr2_6 3.748305 1_545
Pr2_5 Pr2_7 3.748305 1_555
Pr2_5 Pr2_7 3.748305 1_545
Pr3_0 Pr3_2 3.748305 1_555
Pr3_0 Pr3_2 3.748305 1_545
Pr3_0 Pr3_6 3.748306 1_555
Pr3_0 Pr3_6 3.748306 1_445
Pr3_0 Pr3_4 3.748307 1_455
Pr3_0 Pr3_4 3.748307 1_555
Pr3_1 Pr3_3 3.748305 1_555
Pr3_1 Pr3_3 3.748305 1_545
Pr3_1 Pr3_7 3.748306 1_555
Pr3_1 Pr3_7 3.748306 1_445
Pr3_1 Pr3_5 3.748307 1_455
Pr3_1 Pr3_5 3.748307 1_555
Pr3_2 Pr3_4 3.748306 1_455
Pr3_2 Pr3_4 3.748306 1_565
Pr3_2 Pr3_6 3.748307 1_455
Pr3_2 Pr3_6 3.748307 1_555
Pr3_3 Pr3_5 3.748306 1_455
Pr3_3 Pr3_5 3.748306 1_565
Pr3_3 Pr3_7 3.748307 1_555
Pr3_3 Pr3_7 3.748307 1_455
Pr3_4 Pr3_6 3.748305 1_545
Pr3_4 Pr3_6 3.748305 1_555
Pr3_5 Pr3_7 3.748305 1_545
Pr3_5 Pr3_7 3.748305 1_555
