# generated using pymatgen
data_KSr21(Al4Sn3)2
_symmetry_space_group_name_H-M   'P 1'
_cell_length_a   12.30442868
_cell_length_b   12.30442881
_cell_length_c   12.30442715
_cell_angle_alpha   60.00000180
_cell_angle_beta   60.00000144
_cell_angle_gamma   59.99999976
_symmetry_Int_Tables_number   1
_chemical_formula_structural   KSr21(Al4Sn3)2
_chemical_formula_sum   'K1 Sr21 Al8 Sn6'
_cell_volume   1317.25338281
_cell_formula_units_Z   1
loop_
 _symmetry_equiv_pos_site_id
 _symmetry_equiv_pos_as_xyz
  1  'x, y, z'
loop_
 _atom_site_type_symbol
 _atom_site_label
 _atom_site_symmetry_multiplicity
 _atom_site_fract_x
 _atom_site_fract_y
 _atom_site_fract_z
 _atom_site_occupancy
  K  K0  1  0.50000000  0.50000000  0.50000000  1
  Sr  Sr0  1  0.87134188  0.87134188  0.38597235  1
  Sr  Sr1  1  0.61402765  0.12865812  0.12865812  1
  Sr  Sr2  1  0.87134188  0.38597235  0.87134188  1
  Sr  Sr3  1  0.12865812  0.12865812  0.12865812  1
  Sr  Sr4  1  0.38597235  0.87134188  0.87134188  1
  Sr  Sr5  1  0.87134188  0.87134188  0.87134188  1
  Sr  Sr6  1  0.16634730  0.83365270  0.50000000  1
  Sr  Sr7  1  0.83365270  0.50000000  0.50000000  1
  Sr  Sr8  1  0.12865812  0.12865812  0.61402765  1
  Sr  Sr9  1  0.83365270  0.16634730  0.50000000  1
  Sr  Sr10  1  0.16634730  0.50000000  0.50000000  1
  Sr  Sr11  1  0.12865812  0.61402765  0.12865812  1
  Sr  Sr12  1  0.50000000  0.50000000  0.16634730  1
  Sr  Sr13  1  0.50000000  0.16634730  0.83365270  1
  Sr  Sr14  1  0.50000000  0.83365270  0.16634730  1
  Sr  Sr15  1  0.50000000  0.50000000  0.83365270  1
  Sr  Sr16  1  0.50000000  0.16634730  0.50000000  1
  Sr  Sr17  1  0.16634730  0.50000000  0.83365270  1
  Sr  Sr18  1  0.00000000  0.00000000  0.00000000  1
  Sr  Sr19  1  0.50000000  0.83365270  0.50000000  1
  Sr  Sr20  1  0.83365270  0.50000000  0.16634730  1
  Al  Al0  1  0.69500651  0.91498147  0.69500651  1
  Al  Al1  1  0.69500651  0.69500651  0.91498147  1
  Al  Al2  1  0.69500651  0.69500651  0.69500651  1
  Al  Al3  1  0.30499349  0.08501853  0.30499349  1
  Al  Al4  1  0.91498147  0.69500651  0.69500651  1
  Al  Al5  1  0.30499349  0.30499349  0.08501853  1
  Al  Al6  1  0.08501853  0.30499349  0.30499349  1
  Al  Al7  1  0.30499349  0.30499349  0.30499349  1
  Sn  Sn0  1  0.78303846  0.21696154  0.78303846  1
  Sn  Sn1  1  0.78303846  0.21696154  0.21696154  1
  Sn  Sn2  1  0.21696154  0.78303846  0.21696154  1
  Sn  Sn3  1  0.21696154  0.78303846  0.78303846  1
  Sn  Sn4  1  0.78303846  0.78303846  0.21696154  1
  Sn  Sn5  1  0.21696154  0.21696154  0.78303846  1
loop_
_geom_bond_atom_site_label_1
_geom_bond_atom_site_label_2
_geom_bond_distance
_geom_bond_site_symmetry_2
K0 Sr15 4.105405 1_555
K0 Sr12 4.105405 1_555
K0 Sr17 4.105406 1_555
K0 Sr20 4.105406 1_555
K0 Sr13 4.105406 1_555
K0 Sr14 4.105406 1_555
K0 Sr7 4.105406 1_555
K0 Sr10 4.105406 1_555
K0 Sr9 4.105406 1_555
K0 Sr6 4.105406 1_555
K0 Sr19 4.105406 1_555
K0 Sr16 4.105406 1_555
Al0 Al1 2.706666 1_555
Al0 Al4 2.706666 1_555
Al0 Al2 2.706666 1_555
Al0 Sr13 3.463453 1_565
Al0 Sr9 3.463453 1_565
Al0 Sr16 3.463461 1_565
Al0 Sr5 3.475788 1_555
Al0 Sr0 3.475820 1_555
Al0 Sr4 3.475821 1_555
Al1 Al2 2.706666 1_555
Al1 Al4 2.706666 1_555
Al1 Sr14 3.463453 1_556
Al1 Sr20 3.463453 1_556
Al1 Sr12 3.463461 1_556
Al1 Sr5 3.475789 1_555
Al1 Sr4 3.475820 1_555
Al1 Sr2 3.475820 1_555
Al2 Al4 2.706666 1_555
Al2 Sr19 3.463463 1_555
Al2 Sr7 3.463463 1_555
Al2 Sr15 3.463463 1_555
Al2 Sr0 3.475806 1_555
Al2 Sr4 3.475806 1_555
Al2 Sr2 3.475806 1_555
Al3 Al5 2.706666 1_555
Al3 Al6 2.706666 1_555
Al3 Al7 2.706666 1_555
Al3 Sr14 3.463453 1_545
Al3 Sr6 3.463453 1_545
Al3 Sr19 3.463461 1_545
Al3 Sr3 3.475788 1_555
Al3 Sr8 3.475820 1_555
Al3 Sr1 3.475821 1_555
Al4 Sr17 3.463453 1_655
Al4 Sr6 3.463453 1_655
Al4 Sr10 3.463460 1_655
Al4 Sr5 3.475788 1_555
Al4 Sr0 3.475820 1_555
Al4 Sr2 3.475821 1_555
Al5 Al7 2.706666 1_555
Al5 Al6 2.706666 1_555
Al5 Sr13 3.463453 1_554
Al5 Sr17 3.463453 1_554
Al5 Sr15 3.463461 1_554
Al5 Sr3 3.475789 1_555
Al5 Sr1 3.475820 1_555
Al5 Sr11 3.475820 1_555
Al6 Al7 2.706666 1_555
Al6 Sr20 3.463453 1_455
Al6 Sr9 3.463453 1_455
Al6 Sr7 3.463460 1_455
Al6 Sr3 3.475788 1_555
Al6 Sr8 3.475820 1_555
Al6 Sr11 3.475821 1_555
Al7 Sr16 3.463463 1_555
Al7 Sr10 3.463463 1_555
Al7 Sr12 3.463463 1_555
Al7 Sr8 3.475806 1_555
Al7 Sr1 3.475806 1_555
Al7 Sr11 3.475806 1_555
Sn0 Sr2 3.519273 1_555
Sn0 Sr1 3.519292 1_556
Sn0 Sr8 3.519292 1_655
Sn0 Sr5 3.519295 1_545
Sn0 Sr9 3.537872 1_555
Sn0 Sr7 3.537872 1_555
Sn0 Sr15 3.537872 1_555
Sn0 Sr13 3.537873 1_555
Sn0 Sr18 3.775367 1_656
Sn1 Sr1 3.519273 1_555
Sn1 Sr2 3.519292 1_554
Sn1 Sr0 3.519292 1_545
Sn1 Sr3 3.519295 1_655
Sn1 Sr9 3.537872 1_555
Sn1 Sr16 3.537872 1_555
Sn1 Sr12 3.537872 1_555
Sn1 Sr20 3.537873 1_555
Sn1 Sr18 3.775367 1_655
Sn2 Sr11 3.519273 1_555
Sn2 Sr4 3.519292 1_554
Sn2 Sr0 3.519292 1_455
Sn2 Sr3 3.519295 1_565
Sn2 Sr6 3.537872 1_555
Sn2 Sr10 3.537872 1_555
Sn2 Sr12 3.537872 1_555
Sn2 Sr14 3.537873 1_555
Sn2 Sr18 3.775367 1_565
Sn3 Sr4 3.519273 1_555
Sn3 Sr11 3.519292 1_556
Sn3 Sr8 3.519292 1_565
Sn3 Sr5 3.519295 1_455
Sn3 Sr6 3.537872 1_555
Sn3 Sr19 3.537872 1_555
Sn3 Sr15 3.537872 1_555
Sn3 Sr17 3.537873 1_555
Sn3 Sr18 3.775367 1_566
Sn4 Sr0 3.519273 1_555
Sn4 Sr11 3.519292 1_655
Sn4 Sr1 3.519292 1_565
Sn4 Sr5 3.519295 1_554
Sn4 Sr19 3.537872 1_555
Sn4 Sr7 3.537872 1_555
Sn4 Sr14 3.537872 1_555
Sn4 Sr20 3.537872 1_555
Sn4 Sr18 3.775367 1_665
Sn5 Sr8 3.519273 1_555
Sn5 Sr2 3.519292 1_455
Sn5 Sr4 3.519292 1_545
Sn5 Sr3 3.519295 1_556
Sn5 Sr16 3.537872 1_555
Sn5 Sr10 3.537872 1_555
Sn5 Sr13 3.537872 1_555
Sn5 Sr17 3.537872 1_555
Sn5 Sr18 3.775367 1_556
