# generated using pymatgen
data_Ca21MgGa11Hg3
_symmetry_space_group_name_H-M   'P 1'
_cell_length_a   11.35016502
_cell_length_b   11.33332395
_cell_length_c   11.33643686
_cell_angle_alpha   60.08923706
_cell_angle_beta   59.94177468
_cell_angle_gamma   59.96898979
_symmetry_Int_Tables_number   1
_chemical_formula_structural   Ca21MgGa11Hg3
_chemical_formula_sum   'Ca21 Mg1 Ga11 Hg3'
_cell_volume   1031.14426007
_cell_formula_units_Z   1
loop_
 _symmetry_equiv_pos_site_id
 _symmetry_equiv_pos_as_xyz
  1  'x, y, z'
loop_
 _atom_site_type_symbol
 _atom_site_label
 _atom_site_symmetry_multiplicity
 _atom_site_fract_x
 _atom_site_fract_y
 _atom_site_fract_z
 _atom_site_occupancy
  Ca  Ca0  1  0.99864547  0.00135453  0.99864547  1
  Ca  Ca1  1  0.13420417  0.13268624  0.12577682  1
  Ca  Ca2  1  0.39266624  0.87422318  0.86731376  1
  Ca  Ca3  1  0.87219316  0.39110663  0.86351612  1
  Ca  Ca4  1  0.86731376  0.86579583  0.39266624  1
  Ca  Ca5  1  0.12577682  0.60733376  0.13420417  1
  Ca  Ca6  1  0.12681492  0.13648388  0.60889337  1
  Ca  Ca7  1  0.60889337  0.12780684  0.12681492  1
  Ca  Ca8  1  0.86351612  0.87318508  0.87219316  1
  Ca  Ca9  1  0.50572371  0.82830562  0.49391386  1
  Ca  Ca10  1  0.82639832  0.49970907  0.50029093  1
  Ca  Ca11  1  0.50452046  0.82634820  0.17365180  1
  Ca  Ca12  1  0.17169438  0.49427629  0.82794319  1
  Ca  Ca13  1  0.82794319  0.50608614  0.17169438  1
  Ca  Ca14  1  0.50606018  0.49393982  0.82969036  1
  Ca  Ca15  1  0.17094545  0.82905455  0.49863355  1
  Ca  Ca16  1  0.50029093  0.17360168  0.82639832  1
  Ca  Ca17  1  0.49863355  0.50136645  0.17094545  1
  Ca  Ca18  1  0.82969036  0.17030964  0.50606018  1
  Ca  Ca19  1  0.17365180  0.49547954  0.50452046  1
  Ca  Ca20  1  0.49391386  0.17205681  0.50572371  1
  Mg  Mg0  1  0.49871209  0.50128791  0.49871209  1
  Ga  Ga0  1  0.78724246  0.78454805  0.21545195  1
  Ga  Ga1  1  0.21545195  0.21275754  0.78724246  1
  Ga  Ga2  1  0.78520352  0.21479648  0.78520352  1
  Ga  Ga3  1  0.31005546  0.30912177  0.30705873  1
  Ga  Ga4  1  0.92623497  0.69294127  0.69087823  1
  Ga  Ga5  1  0.69236649  0.92600475  0.68965340  1
  Ga  Ga6  1  0.69087823  0.68994554  0.92623497  1
  Ga  Ga7  1  0.30705873  0.07376503  0.31005446  1
  Ga  Ga8  1  0.30802564  0.31034660  0.07399525  1
  Ga  Ga9  1  0.07399525  0.30763351  0.30802564  1
  Ga  Ga10  1  0.68965340  0.69197436  0.69236549  1
  Hg  Hg0  1  0.21383005  0.78616995  0.21383005  1
  Hg  Hg1  1  0.21645701  0.78354299  0.78534456  1
  Hg  Hg2  1  0.78534456  0.21465544  0.21645701  1
loop_
_geom_bond_atom_site_label_1
_geom_bond_atom_site_label_2
_geom_bond_distance
_geom_bond_site_symmetry_2
Ca0 Ga2 3.427014 1_555
Ca0 Ga1 3.436047 1_655
Ca0 Ga0 3.436047 1_546
Ca0 Hg2 3.450878 1_556
Ca0 Hg1 3.450878 1_645
Ca0 Hg0 3.454994 1_646
Ca1 Ga8 3.150912 1_555
Ca1 Ga9 3.159363 1_555
Ca1 Ga7 3.172129 1_555
Ca1 Ga1 3.197100 1_554
Ca1 Hg0 3.267653 1_545
Ca1 Hg2 3.285005 1_455
Ca2 Ga5 3.150911 1_555
Ca2 Ga10 3.159368 1_555
Ca2 Ga6 3.172138 1_555
Ca2 Ga1 3.197098 1_565
Ca2 Hg0 3.267650 1_556
Ca2 Hg1 3.284995 1_555
Ca3 Ga10 3.168864 1_555
Ca3 Ga4 3.182637 1_555
Ca3 Ga6 3.189148 1_555
Ca3 Ga2 3.221452 1_555
Ca3 Ga1 3.240111 1_655
Ca3 Hg2 3.319934 1_556
Ca4 Ga10 3.150906 1_555
Ca4 Ga5 3.159363 1_555
Ca4 Ga4 3.172139 1_555
Ca4 Ga0 3.197090 1_555
Ca4 Hg0 3.267650 1_655
Ca4 Hg2 3.285003 1_565
Ca5 Ga9 3.150912 1_555
Ca5 Ga8 3.159363 1_555
Ca5 Ga3 3.172139 1_555
Ca5 Ga0 3.197098 1_455
Ca5 Hg0 3.267642 1_555
Ca5 Hg1 3.285003 1_554
Ca6 Ga9 3.168850 1_555
Ca6 Ga3 3.182647 1_555
Ca6 Ga7 3.189148 1_555
Ca6 Ga2 3.221443 1_455
Ca6 Ga1 3.240120 1_555
Ca6 Hg1 3.319935 1_545
Ca7 Ga8 3.168850 1_555
Ca7 Ga7 3.182637 1_555
Ca7 Ga3 3.189148 1_555
Ca7 Ga2 3.221443 1_554
Ca7 Ga0 3.240112 1_545
Ca7 Hg2 3.319943 1_555
Ca8 Ga5 3.168869 1_555
Ca8 Ga6 3.182647 1_555
Ca8 Ga4 3.189157 1_555
Ca8 Ga2 3.221441 1_565
Ca8 Ga0 3.240109 1_556
Ca8 Hg1 3.319932 1_655
Ca9 Ga7 3.132807 1_565
Ca9 Ga10 3.133120 1_555
Ca9 Ga0 3.208056 1_555
Ca9 Hg1 3.328877 1_555
Ca9 Mg0 3.719547 1_555
Ca10 Ga10 3.139976 1_555
Ca10 Ga9 3.139987 1_655
Ca10 Ga0 3.263615 1_555
Ca10 Ga2 3.267179 1_555
Ca10 Mg0 3.719346 1_555
Ca11 Ga6 3.136722 1_554
Ca11 Ga7 3.136722 1_565
Ca11 Ga0 3.244081 1_555
Ca11 Hg0 3.330503 1_555
Ca11 Mg0 3.690041 1_555
Ca12 Ga4 3.132807 1_455
Ca12 Ga8 3.133138 1_556
Ca12 Ga1 3.208056 1_555
Ca12 Hg1 3.328878 1_555
Ca12 Mg0 3.719547 1_555
Ca13 Ga6 3.132807 1_554
Ca13 Ga9 3.133138 1_655
Ca13 Ga0 3.208056 1_555
Ca13 Hg2 3.328878 1_555
Ca13 Mg0 3.719547 1_555
Ca14 Ga10 3.122510 1_555
Ca14 Ga8 3.122514 1_556
Ca14 Ga2 3.202945 1_555
Ca14 Hg1 3.322812 1_555
Ca14 Mg0 3.753286 1_555
Ca15 Ga4 3.117013 1_455
Ca15 Ga7 3.117013 1_565
Ca15 Hg0 3.263624 1_555
Ca15 Hg1 3.292490 1_555
Ca15 Mg0 3.715709 1_555
Ca16 Ga8 3.139994 1_556
Ca16 Ga5 3.139994 1_545
Ca16 Ga1 3.263615 1_555
Ca16 Ga2 3.267179 1_555
Ca16 Mg0 3.719346 1_555
Ca17 Ga3 3.117004 1_555
Ca17 Ga6 3.117013 1_554
Ca17 Hg0 3.263624 1_555
Ca17 Hg2 3.292490 1_555
Ca17 Mg0 3.715709 1_555
Ca18 Ga9 3.122521 1_655
Ca18 Ga5 3.122521 1_545
Ca18 Ga2 3.202945 1_555
Ca18 Hg2 3.322812 1_555
Ca18 Mg0 3.753287 1_555
Ca19 Ga3 3.136720 1_555
Ca19 Ga4 3.136722 1_455
Ca19 Ga1 3.244082 1_555
Ca19 Hg0 3.330503 1_555
Ca19 Mg0 3.690041 1_555
Ca20 Ga3 3.132799 1_555
Ca20 Ga5 3.133131 1_545
Ca20 Ga1 3.208056 1_555
Ca20 Hg2 3.328877 1_555
Ca20 Mg0 3.719547 1_555
Ga3 Ga8 2.646799 1_555
Ga3 Ga7 2.667678 1_555
Ga3 Ga9 2.682313 1_555
Ga4 Ga5 2.646799 1_555
Ga4 Ga6 2.667672 1_555
Ga5 Ga6 2.682307 1_555
Ga7 Ga9 2.646799 1_555
Ga7 Ga8 2.682307 1_555
Ga8 Ga9 2.652595 1_555
Ga10 Ga6 2.646816 1_555
Ga10 Ga5 2.652601 1_555
Ga10 Ga4 2.682318 1_555
