# generated using pymatgen
data_Ta5Mo(PbS6)2
_symmetry_space_group_name_H-M   'P 1'
_cell_length_a   5.76919543
_cell_length_b   5.76920061
_cell_length_c   14.98110759
_cell_angle_alpha   90.00000000
_cell_angle_beta   90.00000000
_cell_angle_gamma   119.99865600
_symmetry_Int_Tables_number   1
_chemical_formula_structural   Ta5Mo(PbS6)2
_chemical_formula_sum   'Ta5 Mo1 Pb2 S12'
_cell_volume   431.82852619
_cell_formula_units_Z   1
loop_
 _symmetry_equiv_pos_site_id
 _symmetry_equiv_pos_as_xyz
  1  'x, y, z'
loop_
 _atom_site_type_symbol
 _atom_site_label
 _atom_site_symmetry_multiplicity
 _atom_site_fract_x
 _atom_site_fract_y
 _atom_site_fract_z
 _atom_site_occupancy
  Ta  Ta0  1  0.33320754  0.66653113  0.00000000  1
  Ta  Ta1  1  0.99993571  0.99992714  0.00000000  1
  Ta  Ta2  1  0.00005525  0.00005445  0.50000000  1
  Ta  Ta3  1  0.66678289  0.33345951  0.50000000  1
  Ta  Ta4  1  0.33342636  0.66678586  0.50000000  1
  Mo  Mo0  1  0.66657311  0.33321274  0.00000000  1
  Pb  Pb0  1  0.00001133  0.00004367  0.25197996  1
  Pb  Pb1  1  0.00001133  0.00004367  0.74802004  1
  S  S0  1  0.99686085  0.66066315  0.10286474  1
  S  S1  1  0.66371166  0.00290481  0.10286147  1
  S  S2  1  0.33914341  0.33608252  0.10285909  1
  S  S3  1  0.66363881  0.66367033  0.39627981  1
  S  S4  1  0.33652732  0.00010189  0.39627541  1
  S  S5  1  0.00011469  0.33655272  0.39627711  1
  S  S6  1  0.33652732  0.00010189  0.60372459  1
  S  S7  1  0.00011469  0.33655272  0.60372289  1
  S  S8  1  0.66363881  0.66367033  0.60372019  1
  S  S9  1  0.33914341  0.33608252  0.89714091  1
  S  S10  1  0.99686085  0.66066315  0.89713426  1
  S  S11  1  0.66371166  0.00290481  0.89713753  1
loop_
_geom_bond_atom_site_label_1
_geom_bond_atom_site_label_2
_geom_bond_distance
_geom_bond_site_symmetry_2
Mo0 S2 2.444258 1_555
Mo0 S9 2.444258 1_554
Mo0 S1 2.444339 1_555
Mo0 S11 2.444348 1_554
Mo0 S0 2.444361 1_555
Mo0 S10 2.444371 1_554
Pb0 S3 2.905055 1_445
Pb0 S5 2.905325 1_555
Pb0 S4 2.905418 1_555
Pb0 S2 2.963826 1_555
Pb0 S1 2.964316 1_455
Pb0 S0 2.964572 1_445
Pb1 S8 2.905055 1_445
Pb1 S7 2.905325 1_555
Pb1 S6 2.905418 1_555
Pb1 S9 2.963826 1_555
Pb1 S11 2.964304 1_455
Pb1 S10 2.964561 1_445
S0 Ta0 2.464867 1_655
S0 Ta1 2.484213 1_555
S1 Ta0 2.464985 1_545
S1 Ta1 2.484116 1_545
S2 Ta0 2.464836 1_555
S2 Ta1 2.483986 1_445
S3 Ta4 2.465410 1_555
S3 Ta3 2.465469 1_555
S3 Ta2 2.486188 1_665
S4 Ta4 2.465432 1_545
S4 Ta3 2.465645 1_555
S4 Ta2 2.486414 1_555
S5 Ta4 2.465475 1_555
S5 Ta3 2.465502 1_455
S5 Ta2 2.486491 1_555
S6 Ta4 2.465432 1_545
S6 Ta3 2.465645 1_555
S6 Ta2 2.486414 1_555
S7 Ta4 2.465475 1_555
S7 Ta3 2.465502 1_455
S7 Ta2 2.486491 1_555
S8 Ta4 2.465410 1_555
S8 Ta3 2.465469 1_555
S8 Ta2 2.486188 1_665
S9 Ta0 2.464836 1_556
S9 Ta1 2.483986 1_446
S10 Ta0 2.464876 1_656
S10 Ta1 2.484222 1_556
S11 Ta0 2.464994 1_546
S11 Ta1 2.484125 1_546
