# generated using pymatgen
data_NaSr2B2Pt7
_symmetry_space_group_name_H-M   'P 1'
_cell_length_a   8.26529673
_cell_length_b   8.26529593
_cell_length_c   8.26529522
_cell_angle_alpha   39.22148129
_cell_angle_beta   39.22148013
_cell_angle_gamma   39.22148007
_symmetry_Int_Tables_number   1
_chemical_formula_structural   NaSr2B2Pt7
_chemical_formula_sum   'Na1 Sr2 B2 Pt7'
_cell_volume   203.11512299
_cell_formula_units_Z   1
loop_
 _symmetry_equiv_pos_site_id
 _symmetry_equiv_pos_as_xyz
  1  'x, y, z'
loop_
 _atom_site_type_symbol
 _atom_site_label
 _atom_site_symmetry_multiplicity
 _atom_site_fract_x
 _atom_site_fract_y
 _atom_site_fract_z
 _atom_site_occupancy
  Na  Na0  1  0.00000000  0.00000000  0.00000000  1
  Sr  Sr0  1  0.86180476  0.86180476  0.86180476  1
  Sr  Sr1  1  0.13819524  0.13819524  0.13819524  1
  B  B0  1  0.66839112  0.66839112  0.66839112  1
  B  B1  1  0.33160888  0.33160888  0.33160888  1
  Pt  Pt0  1  0.43736534  0.93324080  0.43736534  1
  Pt  Pt1  1  0.43736534  0.43736534  0.93324080  1
  Pt  Pt2  1  0.93324080  0.43736534  0.43736534  1
  Pt  Pt3  1  0.56263466  0.06675920  0.56263466  1
  Pt  Pt4  1  0.56263466  0.56263466  0.06675920  1
  Pt  Pt5  1  0.06675920  0.56263466  0.56263466  1
  Pt  Pt6  1  0.50000000  0.50000000  0.50000000  1
loop_
_geom_bond_atom_site_label_1
_geom_bond_atom_site_label_2
_geom_bond_distance
_geom_bond_site_symmetry_2
Na0 Pt3 3.136299 1_455
Na0 Pt0 3.136299 1_544
Na0 Pt5 3.136299 1_545
Na0 Pt2 3.136299 1_454
Na0 Pt1 3.136299 1_544
Na0 Pt4 3.136299 1_455
Na0 Pt5 3.136300 1_554
Na0 Pt2 3.136300 1_445
Na0 Pt1 3.136300 1_454
Na0 Pt4 3.136300 1_545
Na0 Pt3 3.136300 1_554
Na0 Pt0 3.136300 1_445
Na0 Sr1 3.158875 1_555
Na0 Sr0 3.158875 1_444
Sr0 Sr1 3.457565 1_665
Sr0 Sr1 3.457566 1_656
Sr0 Sr1 3.457566 1_566
B0 Pt4 2.152814 1_556
B0 Pt3 2.152814 1_565
B0 Pt5 2.152814 1_655
B0 Pt2 2.186472 1_555
B0 Pt0 2.186472 1_555
B0 Pt1 2.186472 1_555
B0 Na0 3.203458 1_665
B0 Na0 3.203458 1_656
B0 Na0 3.203458 1_566
B1 Pt1 2.152814 1_554
B1 Pt0 2.152814 1_545
B1 Pt2 2.152814 1_455
B1 Pt5 2.186472 1_555
B1 Pt3 2.186472 1_555
B1 Pt4 2.186472 1_555
B1 Na0 3.203458 1_556
B1 Na0 3.203458 1_565
B1 Na0 3.203458 1_655
Pt0 Pt6 2.833596 1_555
Pt0 Sr0 3.251331 1_554
Pt0 Sr0 3.251332 1_455
Pt0 Sr1 3.404661 1_565
Pt1 Pt6 2.833596 1_555
Pt1 Sr0 3.251331 1_545
Pt1 Sr0 3.251332 1_455
Pt1 Sr1 3.404661 1_556
Pt2 Pt6 2.833596 1_555
Pt2 Sr0 3.251331 1_554
Pt2 Sr0 3.251332 1_545
Pt2 Sr1 3.404661 1_655
Pt3 Pt6 2.833596 1_555
Pt3 Sr1 3.251331 1_556
Pt3 Sr1 3.251332 1_655
Pt3 Sr0 3.404661 1_545
Pt4 Pt6 2.833596 1_555
Pt4 Sr1 3.251331 1_565
Pt4 Sr1 3.251332 1_655
Pt4 Sr0 3.404661 1_554
Pt5 Pt6 2.833596 1_555
Pt5 Sr1 3.251331 1_556
Pt5 Sr1 3.251332 1_565
Pt5 Sr0 3.404661 1_455
Pt6 Sr0 3.268659 1_455
Pt6 Sr1 3.268659 1_655
Pt6 Sr0 3.268659 1_545
Pt6 Sr1 3.268659 1_565
Pt6 Sr0 3.268659 1_554
Pt6 Sr1 3.268659 1_556
