# generated using pymatgen
data_Rb2BeTe2
_symmetry_space_group_name_H-M   'P 1'
_cell_length_a   8.79965192
_cell_length_b   8.79965203
_cell_length_c   8.79965211
_cell_angle_alpha   134.86116078
_cell_angle_beta   129.66369135
_cell_angle_gamma   69.89929297
_symmetry_Int_Tables_number   1
_chemical_formula_structural   Rb2BeTe2
_chemical_formula_sum   'Rb4 Be2 Te4'
_cell_volume   364.64228262
_cell_formula_units_Z   2
loop_
 _symmetry_equiv_pos_site_id
 _symmetry_equiv_pos_as_xyz
  1  'x, y, z'
loop_
 _atom_site_type_symbol
 _atom_site_label
 _atom_site_symmetry_multiplicity
 _atom_site_fract_x
 _atom_site_fract_y
 _atom_site_fract_z
 _atom_site_occupancy
  Rb  Rb0  1  0.46690606  0.14350429  0.32340177  1
  Rb  Rb1  1  0.82010151  0.64350429  0.17659823  1
  Rb  Rb2  1  0.53309394  0.85649571  0.67659823  1
  Rb  Rb3  1  0.17989849  0.35649571  0.82340177  1
  Be  Be0  1  0.00000000  0.75000000  0.75000000  1
  Be  Be1  1  0.00000000  0.25000000  0.25000000  1
  Te  Te0  1  0.07463701  0.90386164  0.17077536  1
  Te  Te1  1  0.92536299  0.09613836  0.82922464  1
  Te  Te2  1  0.26691372  0.59613836  0.67077536  1
  Te  Te3  1  0.73308628  0.40386164  0.32922464  1
loop_
_geom_bond_atom_site_label_1
_geom_bond_atom_site_label_2
_geom_bond_distance
_geom_bond_site_symmetry_2
Rb0 Te2 3.630173 1_544
Rb0 Te2 3.630173 1_555
Rb0 Te0 3.640788 1_545
Rb0 Te3 3.756004 1_555
Rb0 Te1 3.761284 1_454
Rb0 Te1 3.847029 1_555
Rb1 Te1 3.630169 1_565
Rb1 Te1 3.630176 1_554
Rb1 Te3 3.640783 1_555
Rb1 Te0 3.756012 1_655
Rb1 Te2 3.761286 1_655
Rb1 Te2 3.847024 1_554
Rb2 Te3 3.630173 1_566
Rb2 Te3 3.630173 1_555
Rb2 Te1 3.640788 1_565
Rb2 Te2 3.756004 1_555
Rb2 Te0 3.761284 1_656
Rb2 Te0 3.847029 1_555
Rb3 Te0 3.630169 1_545
Rb3 Te0 3.630176 1_556
Rb3 Te2 3.640783 1_555
Rb3 Te1 3.756012 1_455
Rb3 Te3 3.761286 1_455
Rb3 Te3 3.847024 1_556
Be0 Te3 2.531527 1_455
Be0 Te0 2.531528 1_556
Be0 Te1 2.531528 1_465
Be0 Te2 2.531528 1_555
Be0 Rb1 3.604971 1_455
Be0 Rb0 3.604974 1_566
Be0 Rb2 3.604974 1_455
Be0 Rb3 3.604975 1_555
Be1 Te2 2.531527 1_555
Be1 Te1 2.531528 1_454
Be1 Te0 2.531528 1_545
Be1 Te3 2.531528 1_455
Be1 Rb3 3.604971 1_555
Be1 Rb2 3.604974 1_444
Be1 Rb0 3.604974 1_555
Be1 Rb1 3.604975 1_455
