# generated using pymatgen
data_Dy5AgS8
_symmetry_space_group_name_H-M   'P 1'
_cell_length_a   7.22257686
_cell_length_b   7.22257686
_cell_length_c   7.22257686
_cell_angle_alpha   109.60710051
_cell_angle_beta   109.60710051
_cell_angle_gamma   109.19980134
_symmetry_Int_Tables_number   1
_chemical_formula_structural   Dy5AgS8
_chemical_formula_sum   'Dy5 Ag1 S8'
_cell_volume   290.03293747
_cell_formula_units_Z   1
loop_
 _symmetry_equiv_pos_site_id
 _symmetry_equiv_pos_as_xyz
  1  'x, y, z'
loop_
 _atom_site_type_symbol
 _atom_site_label
 _atom_site_symmetry_multiplicity
 _atom_site_fract_x
 _atom_site_fract_y
 _atom_site_fract_z
 _atom_site_occupancy
  Dy  Dy0  1  0.74657200  0.12853700  0.11227600  1
  Dy  Dy1  1  0.36570400  0.25342800  0.38196400  1
  Dy  Dy2  1  0.01626000  0.63429600  0.88772400  1
  Dy  Dy3  1  0.50000000  0.50000000  0.00000000  1
  Dy  Dy4  1  0.87146300  0.98374000  0.61803600  1
  Ag  Ag0  1  0.25000000  0.75000000  0.50000000  1
  S  S0  1  0.62262500  0.73298600  0.75167100  1
  S  S1  1  0.11841200  0.35880600  0.61411700  1
  S  S2  1  0.64119400  0.25531100  0.75960500  1
  S  S3  1  0.49570500  0.88158800  0.24039500  1
  S  S4  1  0.98131500  0.87095400  0.24832900  1
  S  S5  1  0.26701400  0.01868500  0.88963900  1
  S  S6  1  0.12904600  0.37737500  0.11036100  1
  S  S7  1  0.74468900  0.50429500  0.38588300  1
loop_
_geom_bond_atom_site_label_1
_geom_bond_atom_site_label_2
_geom_bond_distance
_geom_bond_site_symmetry_2
Dy0 S3 2.725414 1_545
Dy0 S0 2.739694 1_544
Dy0 S6 2.763740 1_655
Dy0 S7 2.777360 1_555
Dy0 S2 2.937413 1_554
Dy0 S5 2.968222 1_554
Dy0 S4 3.079726 1_545
Dy0 S1 3.098341 1_655
Dy1 S7 2.725404 1_555
Dy1 S6 2.739689 1_555
Dy1 S4 2.763742 1_445
Dy1 S2 2.777360 1_555
Dy1 S1 2.937412 1_555
Dy1 S0 2.968224 1_555
Dy1 S5 3.079719 1_554
Dy1 S3 3.098339 1_545
Dy2 S2 2.725402 1_455
Dy2 S4 2.739689 1_456
Dy2 S5 2.763742 1_565
Dy2 S1 2.777365 1_555
Dy2 S3 2.937414 1_556
Dy2 S6 2.968224 1_556
Dy2 S0 3.079719 1_455
Dy2 S7 3.098340 1_455
Dy3 S7 2.737192 1_555
Dy3 S1 2.737192 1_554
Dy3 S3 2.737194 1_555
Dy3 S2 2.737196 1_554
Dy3 S0 2.990727 1_554
Dy3 S4 2.990727 1_555
Dy3 S5 2.990727 1_554
Dy3 S6 2.990727 1_555
Dy4 S1 2.725407 1_665
Dy4 S5 2.739695 1_665
Dy4 S0 2.763738 1_555
Dy4 S3 2.777357 1_555
Dy4 S7 2.937414 1_555
Dy4 S4 2.968229 1_555
Dy4 S6 3.079719 1_666
Dy4 S2 3.098332 1_565
Ag0 S5 2.765241 1_565
Ag0 S6 2.765241 1_555
Ag0 S4 2.765241 1_455
Ag0 S0 2.765241 1_555
Ag0 S3 3.144530 1_555
Ag0 S1 3.144537 1_555
Ag0 S7 3.144537 1_455
Ag0 S2 3.144538 1_565
