# generated using pymatgen
data_Zn2Cd2P7N12
_symmetry_space_group_name_H-M   'P 1'
_cell_length_a   7.21510311
_cell_length_b   7.19931279
_cell_length_c   7.21510398
_cell_angle_alpha   110.13664579
_cell_angle_beta   108.23928327
_cell_angle_gamma   110.13665179
_symmetry_Int_Tables_number   1
_chemical_formula_structural   Zn2Cd2P7N12
_chemical_formula_sum   'Zn2 Cd2 P7 N12'
_cell_volume   288.07432683
_cell_formula_units_Z   1
loop_
 _symmetry_equiv_pos_site_id
 _symmetry_equiv_pos_as_xyz
  1  'x, y, z'
loop_
 _atom_site_type_symbol
 _atom_site_label
 _atom_site_symmetry_multiplicity
 _atom_site_fract_x
 _atom_site_fract_y
 _atom_site_fract_z
 _atom_site_occupancy
  Zn  Zn0  1  0.64460444  1.00000000  0.00022836  1
  Zn  Zn1  1  0.00022836  0.00000000  0.64460444  1
  Cd  Cd0  1  0.01940745  0.70766803  0.01940745  1
  Cd  Cd1  1  0.31173942  0.29233197  0.31173942  1
  P  P0  1  0.25393901  0.74986407  0.50729023  1
  P  P1  1  0.75742616  0.25013593  0.50407494  1
  P  P2  1  0.75328916  0.50000000  0.25328916  1
  P  P3  1  0.25328916  0.50000000  0.75328916  1
  P  P4  1  0.50729023  0.74986407  0.25393901  1
  P  P5  1  0.50407494  0.25013593  0.75742616  1
  P  P6  1  0.94533668  0.00000000  0.94533668  1
  N  N0  1  0.71701743  0.27508946  0.27887995  1
  N  N1  1  0.28943554  0.72117246  0.28943554  1
  N  N2  1  0.28592247  0.56072928  0.56490283  1
  N  N3  1  0.56490283  0.56072928  0.28592247  1
  N  N4  1  0.44192797  0.72491054  0.00379149  1
  N  N5  1  0.00379149  0.72491054  0.44192797  1
  N  N6  1  0.56826308  0.27882754  0.56826308  1
  N  N7  1  0.73439964  0.00000000  0.43546584  1
  N  N8  1  0.43546584  0.00000000  0.73439964  1
  N  N9  1  0.72519319  0.43927072  0.00417355  1
  N  N10  1  0.27887995  0.27508946  0.71701743  1
  N  N11  1  0.00417355  0.43927072  0.72519319  1
loop_
_geom_bond_atom_site_label_1
_geom_bond_atom_site_label_2
_geom_bond_distance
_geom_bond_site_symmetry_2
Cd0 N1 2.228037 1_555
Cd0 N9 2.266170 1_455
Cd0 N11 2.266171 1_554
Cd0 P6 2.523998 1_464
Cd1 N6 2.228037 1_555
Cd1 N3 2.266170 1_555
Cd1 N2 2.266171 1_555
Cd1 P6 2.523998 1_454
P6 Zn0 2.324409 1_546
P6 Zn1 2.324410 1_655
N0 P2 1.633624 1_555
N0 P1 1.642490 1_555
N0 Zn0 2.031216 1_545
N1 P4 1.625984 1_555
N1 P0 1.625984 1_555
N2 P0 1.620529 1_555
N2 P3 1.622562 1_555
N3 P4 1.620529 1_555
N3 P2 1.622562 1_555
N4 P3 1.633628 1_554
N4 P4 1.642483 1_555
N4 Zn0 2.031220 1_555
N5 P2 1.633627 1_455
N5 P0 1.642482 1_555
N5 Zn1 2.031220 1_565
N6 P1 1.625984 1_555
N6 P5 1.625984 1_555
N7 P1 1.626132 1_555
N7 P4 1.626132 1_545
N7 Zn1 2.035668 1_655
N8 P5 1.626132 1_555
N8 P0 1.626132 1_545
N8 Zn0 2.035668 1_546
N9 P5 1.620529 1_554
N9 P2 1.622562 1_555
N10 P3 1.633624 1_555
N10 P5 1.642490 1_555
N10 Zn1 2.031215 1_555
N11 P1 1.620529 1_455
N11 P3 1.622562 1_555
